P341


 30 33  0  0  0  0  0  0  0  0999 V2000
   -7.1981    6.8301  -14.1368 N   0  0  0  0  0  0  0  0  0  0  0  0
   -8.5014    6.9611  -13.3099 S   0  0  0  0  0  0  0  0  0  0  0  0
   -8.7471    8.6399  -12.8136 C   0  0  0  0  0  0  0  0  0  0  0  0
   -9.8091    6.5305  -13.7605 O   0  0  0  0  0  0  0  0  0  0  0  0
   -8.1870    6.0677  -11.8200 C   0  0  0  0  0  0  0  0  0  0  0  0
   -8.0709    6.7256  -10.6041 C   0  0  0  0  0  0  0  0  0  0  0  0
   -8.1755    5.9855   -9.4311 C   0  0  0  0  0  0  0  0  0  0  0  0
   -8.3650    4.5926   -9.4454 C   0  0  0  0  0  0  0  0  0  0  0  0
   -8.3127    3.9554  -10.6972 C   0  0  0  0  0  0  0  0  0  0  0  0
   -8.2373    4.6803  -11.8806 C   0  0  0  0  0  0  0  0  0  0  0  0
   -8.7274    3.9156   -8.2803 N   0  0  0  0  0  0  0  0  0  0  0  0
   -8.8780    2.4394   -8.3531 C   0  0  0  0  0  0  0  0  0  0  0  0
   -9.6269    1.8998   -7.1239 C   0  0  0  0  0  0  0  0  0  0  0  0
   -9.0060    2.3246   -5.8722 N   0  0  0  0  0  0  0  0  0  0  0  0
   -8.9621    3.7768   -5.8052 C   0  0  0  0  0  0  0  0  0  0  0  0
   -8.2018    4.4007   -6.9924 C   0  0  0  0  0  0  0  0  0  0  0  0
   -8.0563    1.9555   -5.8243 H   0  0  0  0  0  0  0  0  0  0  0  0
   -6.8081    5.4675  -14.7459 N   0  0  0  0  0  0  0  0  0  0  0  0
   -6.2021    4.8820  -14.2368 H   0  0  0  0  0  0  0  0  0  0  0  0
   -5.1601    5.1202  -17.4654 N   0  0  0  0  0  0  0  0  0  0  0  0
   -5.0019    5.0984  -18.8197 C   0  0  0  0  0  0  0  0  0  0  0  0
   -6.1201    4.8198  -19.4327 N   0  0  0  0  0  0  0  0  0  0  0  0
   -7.0598    4.7173  -18.4476 C   0  0  0  0  0  0  0  0  0  0  0  0
   -8.4183    4.4151  -18.5859 C   0  0  0  0  0  0  0  0  0  0  0  0
   -9.1819    4.2985  -17.4362 C   0  0  0  0  0  0  0  0  0  0  0  0
   -8.6122    4.5722  -16.1903 C   0  0  0  0  0  0  0  0  0  0  0  0
   -7.2854    5.0161  -16.0137 C   0  0  0  0  0  0  0  0  0  0  0  0
   -6.5052    4.9665  -17.1876 C   0  0  0  0  0  0  0  0  0  0  0  0
   -2.6782    5.2447  -17.0679 C   0  0  0  0  0  0  0  0  0  0  0  0
   -4.0865    5.1800  -16.4971 C   0  0  0  0  0  0  0  0  0  0  0  0
 29 30  1  0  0  0
 30 20  1  0  0  0
 20 21  1  0  0  0
 21 22  2  0  0  0
 22 23  1  0  0  0
 23 24  2  0  0  0
 24 25  1  0  0  0
 25 26  2  0  0  0
 26 27  1  0  0  0
 27 18  1  0  0  0
 18  1  1  0  0  0
  1  2  2  0  0  0
  2  3  1  0  0  0
  2  4  2  0  0  0
  2  5  1  0  0  0
  5  6  2  0  0  0
  6  7  1  0  0  0
  7  8  2  0  0  0
  8 11  1  0  0  0
 11 12  1  0  0  0
 12 13  1  0  0  0
 13 14  1  0  0  0
 14 15  1  0  0  0
 15 16  1  0  0  0
  8  9  1  0  0  0
  9 10  2  0  0  0
 27 28  2  0  0  0
 28 20  1  0  0  0
 28 23  1  0  0  0
 10  5  1  0  0  0
 16 11  1  0  0  0
 18 19  1  0  0  0
 14 17  1  0  0  0
M  END
> <minimizedAffinity>
-7.79100

> <minimizedRMSD>
0.31814

$$$$
P342


 13 15  0  0  0  0  0  0  0  0999 V2000
   -9.2035    4.3592  -17.1367 C   0  0  0  0  0  0  0  0  0  0  0  0
   -8.4860    4.4321  -15.9274 C   0  0  0  0  0  0  0  0  0  0  0  0
   -7.1196    4.7145  -15.9273 C   0  0  0  0  0  0  0  0  0  0  0  0
   -6.5268    4.9420  -17.1517 C   0  0  0  0  0  0  0  0  0  0  0  0
   -7.2126    4.8277  -18.3520 C   0  0  0  0  0  0  0  0  0  0  0  0
   -8.5610    4.5495  -18.3643 C   0  0  0  0  0  0  0  0  0  0  0  0
   -6.3469    5.1459  -19.4198 N   0  0  0  0  0  0  0  0  0  0  0  0
   -5.0385    4.9751  -18.7931 C   0  0  0  0  0  0  0  0  0  0  0  0
   -5.1780    5.3068  -17.3718 N   0  0  0  0  0  0  0  0  0  0  0  0
   -4.3025    4.7807  -16.3482 C   0  0  0  0  0  0  0  0  0  0  0  0
   -4.8374    5.1990  -14.9679 C   0  0  0  0  0  0  0  0  0  0  0  0
   -6.2641    4.6831  -14.6994 C   0  0  0  0  0  0  0  0  0  0  0  0
   -6.5664    5.4121  -20.3419 H   0  0  0  0  0  0  0  0  0  0  0  0
  1  2  2  0  0  0
  2  3  1  0  0  0
  3  4  2  0  0  0
  4  5  1  0  0  0
  5  6  2  0  0  0
  5  7  1  0  0  0
  7  8  1  0  0  0
  8  9  1  0  0  0
  9 10  1  0  0  0
 10 11  1  0  0  0
 11 12  1  0  0  0
  6  1  1  0  0  0
 12  3  1  0  0  0
  9  4  1  0  0  0
  7 13  1  0  0  0
M  END
> <minimizedAffinity>
-5.48180

> <minimizedRMSD>
0.43177

$$$$
P343


 13 14  0  0  0  0  0  0  0  0999 V2000
   -4.7286    4.9053  -16.5191 N   0  0  0  0  0  0  0  0  0  0  0  0
   -4.2341    5.1035  -17.7762 C   0  0  0  0  0  0  0  0  0  0  0  0
   -5.1735    5.0533  -18.6795 N   0  0  0  0  0  0  0  0  0  0  0  0
   -6.3280    4.8477  -17.9807 C   0  0  0  0  0  0  0  0  0  0  0  0
   -7.6161    4.7084  -18.4805 C   0  0  0  0  0  0  0  0  0  0  0  0
   -8.6499    4.5812  -17.5723 C   0  0  0  0  0  0  0  0  0  0  0  0
  -10.3842    4.6133  -18.2436 Br  0  0  0  0  0  0  0  0  0  0  0  0
   -8.4307    4.5233  -16.2010 C   0  0  0  0  0  0  0  0  0  0  0  0
   -7.1399    4.6396  -15.6597 C   0  0  0  0  0  0  0  0  0  0  0  0
   -6.9751    4.5617  -14.1710 C   0  0  0  0  0  0  0  0  0  0  0  0
   -6.1005    4.7976  -16.6035 C   0  0  0  0  0  0  0  0  0  0  0  0
   -2.4857    5.2078  -15.4534 C   0  0  0  0  0  0  0  0  0  0  0  0
   -3.9403    4.7926  -15.3145 C   0  0  0  0  0  0  0  0  0  0  0  0
 12 13  1  0  0  0
 13  1  1  0  0  0
  1  2  1  0  0  0
  2  3  2  0  0  0
  3  4  1  0  0  0
  4  5  2  0  0  0
  5  6  1  0  0  0
  6  7  1  0  0  0
  6  8  2  0  0  0
  8  9  1  0  0  0
  9 10  1  0  0  0
  9 11  2  0  0  0
 11  1  1  0  0  0
 11  4  1  0  0  0
M  END
> <minimizedAffinity>
-4.77340

> <minimizedRMSD>
0.81833

$$$$
P345


 17 18  0  0  0  0  0  0  0  0999 V2000
   -5.2567    5.2359  -17.0598 N   0  0  0  0  0  0  0  0  0  0  0  0
   -5.0420    5.1528  -18.4084 C   0  0  0  0  0  0  0  0  0  0  0  0
   -6.1344    4.8588  -19.0526 N   0  0  0  0  0  0  0  0  0  0  0  0
   -7.1003    4.7491  -18.0941 C   0  0  0  0  0  0  0  0  0  0  0  0
   -8.4616    4.4911  -18.2928 C   0  0  0  0  0  0  0  0  0  0  0  0
   -9.2917    4.4068  -17.1868 C   0  0  0  0  0  0  0  0  0  0  0  0
   -8.7627    4.5629  -15.9067 C   0  0  0  0  0  0  0  0  0  0  0  0
   -7.3955    4.8458  -15.6486 C   0  0  0  0  0  0  0  0  0  0  0  0
   -6.5811    4.9462  -16.8038 C   0  0  0  0  0  0  0  0  0  0  0  0
   -3.2796    4.4961  -15.7853 C   0  0  0  0  0  0  0  0  0  0  0  0
   -4.2073    5.6396  -16.1551 C   0  0  0  0  0  0  0  0  0  0  0  0
   -7.0152    5.1080  -14.2112 C   0  0  0  0  0  0  0  0  0  0  0  0
   -6.0721    4.1982  -13.6188 N   0  0  0  0  0  0  0  0  0  0  0  0
   -6.1435    2.6618  -13.4212 C   0  0  0  0  0  0  0  0  0  0  0  0
   -4.8429    2.2646  -12.7526 C   0  0  0  0  0  0  0  0  0  0  0  0
   -7.0093    1.9112  -13.6387 O   0  0  0  0  0  0  0  0  0  0  0  0
   -5.2473    4.6191  -13.2845 H   0  0  0  0  0  0  0  0  0  0  0  0
 10 11  1  0  0  0
 11  1  1  0  0  0
  1  2  1  0  0  0
  2  3  2  0  0  0
  3  4  1  0  0  0
  4  5  2  0  0  0
  5  6  1  0  0  0
  6  7  2  0  0  0
  7  8  1  0  0  0
  8 12  1  0  0  0
 12 13  1  0  0  0
 13 14  1  0  0  0
 14 15  1  0  0  0
 14 16  2  0  0  0
  8  9  2  0  0  0
  9  1  1  0  0  0
  9  4  1  0  0  0
 13 17  1  0  0  0
M  END
> <minimizedAffinity>
-5.75395

> <minimizedRMSD>
0.43189

$$$$
P347


 15 16  0  0  0  0  0  0  0  0999 V2000
   -5.3687    4.9882  -16.8546 N   0  0  0  0  0  0  0  0  0  0  0  0
   -4.9922    5.1056  -18.1659 C   0  0  0  0  0  0  0  0  0  0  0  0
   -6.0023    4.9459  -18.9808 N   0  0  0  0  0  0  0  0  0  0  0  0
   -7.0975    4.7734  -18.1823 C   0  0  0  0  0  0  0  0  0  0  0  0
   -8.4363    4.5599  -18.5414 C   0  0  0  0  0  0  0  0  0  0  0  0
   -9.3928    4.4238  -17.5350 C   0  0  0  0  0  0  0  0  0  0  0  0
   -9.0197    4.5030  -16.1947 C   0  0  0  0  0  0  0  0  0  0  0  0
   -7.6943    4.7292  -15.8137 C   0  0  0  0  0  0  0  0  0  0  0  0
   -6.7426    4.8404  -16.8349 C   0  0  0  0  0  0  0  0  0  0  0  0
   -2.9717    4.9800  -16.1078 C   0  0  0  0  0  0  0  0  0  0  0  0
   -4.4458    5.0051  -15.7193 C   0  0  0  0  0  0  0  0  0  0  0  0
   -4.6816    3.9011  -14.8524 O   0  0  0  0  0  0  0  0  0  0  0  0
   -4.6678    6.1818  -14.9642 O   0  0  0  0  0  0  0  0  0  0  0  0
   -4.5847    3.0256  -15.1719 H   0  0  0  0  0  0  0  0  0  0  0  0
   -4.5615    7.0224  -15.3645 H   0  0  0  0  0  0  0  0  0  0  0  0
 10 11  1  0  0  0
 11 12  1  0  0  0
 11 13  1  0  0  0
 11  1  1  0  0  0
  1  2  1  0  0  0
  2  3  2  0  0  0
  3  4  1  0  0  0
  4  5  2  0  0  0
  5  6  1  0  0  0
  6  7  2  0  0  0
  7  8  1  0  0  0
  8  9  2  0  0  0
  9  1  1  0  0  0
  9  4  1  0  0  0
 12 14  1  0  0  0
 13 15  1  0  0  0
M  END
> <minimizedAffinity>
-4.75557

> <minimizedRMSD>
0.54943

$$$$
P349


 30 33  0  0  0  0  0  0  0  0999 V2000
   -3.0323    6.9795  -20.5480 C   0  0  0  0  0  0  0  0  0  0  0  0
   -3.5698    6.9380  -21.9263 N   0  0  0  0  0  0  0  0  0  0  0  0
   -4.0818    6.0652  -22.0544 H   0  0  0  0  0  0  0  0  0  0  0  0
   -4.4811    8.0712  -22.1977 C   0  0  0  0  0  0  0  0  0  0  0  0
   -3.6436    9.3547  -22.2438 C   0  0  0  0  0  0  0  0  0  0  0  0
   -5.2619    7.9161  -23.4635 C   0  0  0  0  0  0  0  0  0  0  0  0
   -6.3949    8.5886  -23.8768 C   0  0  0  0  0  0  0  0  0  0  0  0
   -6.6250    8.1472  -25.1614 N   0  0  0  0  0  0  0  0  0  0  0  0
   -5.6548    7.2740  -25.5139 N   0  0  0  0  0  0  0  0  0  0  0  0
   -4.8210    7.1302  -24.4933 N   0  0  0  0  0  0  0  0  0  0  0  0
   -7.6614    8.5243  -26.0535 C   0  0  0  0  0  0  0  0  0  0  0  0
   -7.9102    9.8726  -26.3482 C   0  0  0  0  0  0  0  0  0  0  0  0
   -8.9876   10.2248  -27.1694 C   0  0  0  0  0  0  0  0  0  0  0  0
   -9.8133    9.2364  -27.7019 C   0  0  0  0  0  0  0  0  0  0  0  0
   -9.5452    7.8937  -27.4412 C   0  0  0  0  0  0  0  0  0  0  0  0
   -8.4697    7.5337  -26.6258 C   0  0  0  0  0  0  0  0  0  0  0  0
   -3.1234    5.5846  -19.8801 C   0  0  0  0  0  0  0  0  0  0  0  0
   -3.3905    5.6553  -18.4365 N   0  0  0  0  0  0  0  0  0  0  0  0
   -2.7348    5.9965  -17.7863 H   0  0  0  0  0  0  0  0  0  0  0  0
   -4.9489    5.0214  -16.7608 N   0  0  0  0  0  0  0  0  0  0  0  0
   -4.6212    5.2087  -18.0795 C   0  0  0  0  0  0  0  0  0  0  0  0
   -5.6508    5.0225  -18.8565 N   0  0  0  0  0  0  0  0  0  0  0  0
   -6.7129    4.7890  -18.0182 C   0  0  0  0  0  0  0  0  0  0  0  0
   -8.0677    4.5791  -18.3184 C   0  0  0  0  0  0  0  0  0  0  0  0
   -8.9933    4.5394  -17.2743 C   0  0  0  0  0  0  0  0  0  0  0  0
   -8.5690    4.6540  -15.9520 C   0  0  0  0  0  0  0  0  0  0  0  0
   -7.2161    4.7825  -15.6232 C   0  0  0  0  0  0  0  0  0  0  0  0
   -6.3113    4.8586  -16.6856 C   0  0  0  0  0  0  0  0  0  0  0  0
   -3.5373    3.7490  -15.1735 C   0  0  0  0  0  0  0  0  0  0  0  0
   -4.0203    5.1067  -15.6566 C   0  0  0  0  0  0  0  0  0  0  0  0
 29 30  1  0  0  0
 30 20  1  0  0  0
 20 21  1  0  0  0
 21 18  1  0  0  0
 18 17  1  0  0  0
 17  1  1  0  0  0
  1  2  1  0  0  0
  2  4  1  0  0  0
  4  5  1  0  0  0
  4  6  1  0  0  0
  6  7  2  0  0  0
  7  8  1  0  0  0
  8 11  1  0  0  0
 11 12  2  0  0  0
 12 13  1  0  0  0
 13 14  2  0  0  0
 14 15  1  0  0  0
 15 16  2  0  0  0
  8  9  1  0  0  0
  9 10  2  0  0  0
 21 22  2  0  0  0
 22 23  1  0  0  0
 23 24  2  0  0  0
 24 25  1  0  0  0
 25 26  2  0  0  0
 26 27  1  0  0  0
 27 28  2  0  0  0
 28 20  1  0  0  0
 10  6  1  0  0  0
 28 23  1  0  0  0
 16 11  1  0  0  0
 18 19  1  0  0  0
  2  3  1  0  0  0
M  END
> <minimizedAffinity>
-6.19594

> <minimizedRMSD>
1.09283

$$$$
P351


 36 40  0  0  0  0  0  0  0  0999 V2000
   -9.3391    8.0261  -12.6453 C   0  0  0  0  0  0  0  0  0  0  0  0
   -8.8896    8.3948  -11.3681 C   0  0  0  0  0  0  0  0  0  0  0  0
   -9.5811    9.3346  -10.6218 C   0  0  0  0  0  0  0  0  0  0  0  0
  -10.7336    9.9223  -11.1461 C   0  0  0  0  0  0  0  0  0  0  0  0
  -11.1102    9.6638  -12.4616 C   0  0  0  0  0  0  0  0  0  0  0  0
  -12.1864   10.3439  -12.9378 O   0  0  0  0  0  0  0  0  0  0  0  0
  -10.4324    8.7136  -13.2140 C   0  0  0  0  0  0  0  0  0  0  0  0
  -12.6164   10.9777  -12.3980 H   0  0  0  0  0  0  0  0  0  0  0  0
   -8.7097    6.7692  -13.2026 C   0  0  0  0  0  0  0  0  0  0  0  0
   -9.3480    6.1776  -14.4405 C   0  0  0  0  0  0  0  0  0  0  0  0
   -9.0185    4.7548  -14.5497 N   0  0  0  0  0  0  0  0  0  0  0  0
   -9.2442    4.0516  -13.8987 H   0  0  0  0  0  0  0  0  0  0  0  0
   -4.9115    5.0531  -17.1412 N   0  0  0  0  0  0  0  0  0  0  0  0
   -4.7719    5.0816  -18.4931 C   0  0  0  0  0  0  0  0  0  0  0  0
   -5.9221    4.9056  -19.0958 N   0  0  0  0  0  0  0  0  0  0  0  0
   -6.8502    4.7842  -18.1058 C   0  0  0  0  0  0  0  0  0  0  0  0
   -8.2426    4.6428  -18.1900 C   0  0  0  0  0  0  0  0  0  0  0  0
   -8.9732    4.5577  -17.0008 C   0  0  0  0  0  0  0  0  0  0  0  0
   -8.3159    4.5789  -15.7636 C   0  0  0  0  0  0  0  0  0  0  0  0
   -6.9252    4.6979  -15.6763 C   0  0  0  0  0  0  0  0  0  0  0  0
   -6.2306    4.8307  -16.8645 C   0  0  0  0  0  0  0  0  0  0  0  0
   -3.3960    4.0504  -15.4847 C   0  0  0  0  0  0  0  0  0  0  0  0
   -3.8631    5.3087  -16.1829 C   0  0  0  0  0  0  0  0  0  0  0  0
  -11.6269   10.7274  -10.2606 C   0  0  0  0  0  0  0  0  0  0  0  0
  -11.3562   12.1450  -10.4130 N   0  0  0  0  0  0  0  0  0  0  0  0
  -10.5658   12.4848  -10.8916 H   0  0  0  0  0  0  0  0  0  0  0  0
  -12.2667   12.9590   -9.8509 C   0  0  0  0  0  0  0  0  0  0  0  0
  -12.7889   14.0251  -10.3941 N   0  0  0  0  0  0  0  0  0  0  0  0
  -13.7253   14.4425   -9.4909 C   0  0  0  0  0  0  0  0  0  0  0  0
  -14.6766   15.4492   -9.6087 C   0  0  0  0  0  0  0  0  0  0  0  0
  -15.5502   15.6811   -8.5562 C   0  0  0  0  0  0  0  0  0  0  0  0
  -15.4160   14.9858   -7.3578 C   0  0  0  0  0  0  0  0  0  0  0  0
  -14.5008   13.9364   -7.2285 C   0  0  0  0  0  0  0  0  0  0  0  0
  -13.7096   13.6729   -8.3393 C   0  0  0  0  0  0  0  0  0  0  0  0
  -12.8118   12.6888   -8.6241 N   0  0  0  0  0  0  0  0  0  0  0  0
  -12.5935   11.9197   -8.0496 H   0  0  0  0  0  0  0  0  0  0  0  0
 22 23  1  0  0  0
 23 13  1  0  0  0
 13 14  1  0  0  0
 14 15  2  0  0  0
 15 16  1  0  0  0
 16 17  2  0  0  0
 17 18  1  0  0  0
 18 19  2  0  0  0
 19 11  1  0  0  0
 11 10  1  0  0  0
 10  9  1  0  0  0
  9  1  1  0  0  0
  1  2  2  0  0  0
  2  3  1  0  0  0
  3  4  2  0  0  0
  4 24  1  0  0  0
 24 25  1  0  0  0
 25 27  1  0  0  0
 27 28  2  0  0  0
 28 29  1  0  0  0
 29 30  2  0  0  0
 30 31  1  0  0  0
 31 32  2  0  0  0
 32 33  1  0  0  0
 33 34  2  0  0  0
 34 35  1  0  0  0
  4  5  1  0  0  0
  5  6  1  0  0  0
  5  7  2  0  0  0
 19 20  1  0  0  0
 20 21  2  0  0  0
 21 13  1  0  0  0
 21 16  1  0  0  0
  7  1  1  0  0  0
 35 27  1  0  0  0
 34 29  1  0  0  0
 11 12  1  0  0  0
 25 26  1  0  0  0
 35 36  1  0  0  0
  6  8  1  0  0  0
M  END
> <minimizedAffinity>
-7.12412

> <minimizedRMSD>
0.56384

$$$$
P352


 35 39  0  0  0  0  0  0  0  0999 V2000
   -4.1526    7.8353  -21.2248 C   0  0  0  0  0  0  0  0  0  0  0  0
   -3.4835    9.0565  -21.3398 C   0  0  0  0  0  0  0  0  0  0  0  0
   -3.9090   10.0142  -22.2722 C   0  0  0  0  0  0  0  0  0  0  0  0
   -4.9963    9.7643  -23.1267 C   0  0  0  0  0  0  0  0  0  0  0  0
   -5.6460    8.5389  -23.0034 C   0  0  0  0  0  0  0  0  0  0  0  0
   -6.6792    8.2338  -23.8349 O   0  0  0  0  0  0  0  0  0  0  0  0
   -5.2665    7.6151  -22.0362 C   0  0  0  0  0  0  0  0  0  0  0  0
   -6.9477    8.8451  -24.4923 H   0  0  0  0  0  0  0  0  0  0  0  0
   -3.7216    6.7736  -20.2398 C   0  0  0  0  0  0  0  0  0  0  0  0
   -4.2325    7.0448  -18.8970 N   0  0  0  0  0  0  0  0  0  0  0  0
   -3.9101    7.7966  -18.3491 H   0  0  0  0  0  0  0  0  0  0  0  0
   -5.1853    5.7145  -17.1715 N   0  0  0  0  0  0  0  0  0  0  0  0
   -5.1873    6.1791  -18.4627 C   0  0  0  0  0  0  0  0  0  0  0  0
   -6.2669    5.8046  -19.0937 N   0  0  0  0  0  0  0  0  0  0  0  0
   -7.0665    5.2115  -18.1475 C   0  0  0  0  0  0  0  0  0  0  0  0
   -8.3759    4.7165  -18.2540 C   0  0  0  0  0  0  0  0  0  0  0  0
   -9.0534    4.3415  -17.0928 C   0  0  0  0  0  0  0  0  0  0  0  0
   -8.4160    4.4017  -15.8556 C   0  0  0  0  0  0  0  0  0  0  0  0
   -7.0818    4.8022  -15.7352 C   0  0  0  0  0  0  0  0  0  0  0  0
   -6.4381    5.2164  -16.9043 C   0  0  0  0  0  0  0  0  0  0  0  0
   -3.3419    4.5480  -16.0110 C   0  0  0  0  0  0  0  0  0  0  0  0
   -4.0883    5.8524  -16.2410 C   0  0  0  0  0  0  0  0  0  0  0  0
   -5.4765   10.8218  -24.0931 C   0  0  0  0  0  0  0  0  0  0  0  0
   -5.3755   10.4165  -25.4898 N   0  0  0  0  0  0  0  0  0  0  0  0
   -4.5291   10.5544  -25.9734 H   0  0  0  0  0  0  0  0  0  0  0  0
   -6.4250    9.8542  -26.1334 C   0  0  0  0  0  0  0  0  0  0  0  0
   -6.3959    8.7670  -26.8647 N   0  0  0  0  0  0  0  0  0  0  0  0
   -7.6949    8.5532  -27.2606 C   0  0  0  0  0  0  0  0  0  0  0  0
   -8.2430    7.5110  -28.0199 C   0  0  0  0  0  0  0  0  0  0  0  0
   -9.6132    7.5396  -28.3079 C   0  0  0  0  0  0  0  0  0  0  0  0
  -10.4280    8.5709  -27.8318 C   0  0  0  0  0  0  0  0  0  0  0  0
   -9.9011    9.6161  -27.0653 C   0  0  0  0  0  0  0  0  0  0  0  0
   -8.5283    9.5705  -26.8084 C   0  0  0  0  0  0  0  0  0  0  0  0
   -7.6821   10.3994  -26.1189 N   0  0  0  0  0  0  0  0  0  0  0  0
   -7.9355   11.2461  -25.6851 H   0  0  0  0  0  0  0  0  0  0  0  0
 21 22  1  0  0  0
 22 12  1  0  0  0
 12 13  1  0  0  0
 13 10  1  0  0  0
 10  9  1  0  0  0
  9  1  1  0  0  0
  1  2  2  0  0  0
  2  3  1  0  0  0
  3  4  2  0  0  0
  4 23  1  0  0  0
 23 24  1  0  0  0
 24 26  1  0  0  0
 26 27  2  0  0  0
 27 28  1  0  0  0
 28 29  2  0  0  0
 29 30  1  0  0  0
 30 31  2  0  0  0
 31 32  1  0  0  0
 32 33  2  0  0  0
 33 34  1  0  0  0
  4  5  1  0  0  0
  5  6  1  0  0  0
  5  7  2  0  0  0
 13 14  2  0  0  0
 14 15  1  0  0  0
 15 16  2  0  0  0
 16 17  1  0  0  0
 17 18  2  0  0  0
 18 19  1  0  0  0
 19 20  2  0  0  0
 20 12  1  0  0  0
  7  1  1  0  0  0
 20 15  1  0  0  0
 34 26  1  0  0  0
 33 28  1  0  0  0
 10 11  1  0  0  0
 24 25  1  0  0  0
 34 35  1  0  0  0
  6  8  1  0  0  0
M  END
> <minimizedAffinity>
-5.52408

> <minimizedRMSD>
0.39303

$$$$
P358


 26 29  0  0  0  0  0  0  0  0999 V2000
   -6.9059    4.6983  -14.3371 N   0  0  0  0  0  0  0  0  0  0  0  0
   -5.9401    4.7622  -14.1569 H   0  0  0  0  0  0  0  0  0  0  0  0
   -5.2117    4.9281  -16.9951 N   0  0  0  0  0  0  0  0  0  0  0  0
   -4.9895    5.0779  -18.3329 C   0  0  0  0  0  0  0  0  0  0  0  0
   -6.0963    5.0023  -19.0199 N   0  0  0  0  0  0  0  0  0  0  0  0
   -7.0857    4.8145  -18.0948 C   0  0  0  0  0  0  0  0  0  0  0  0
   -8.4550    4.6361  -18.3230 C   0  0  0  0  0  0  0  0  0  0  0  0
   -9.2914    4.4608  -17.2345 C   0  0  0  0  0  0  0  0  0  0  0  0
   -8.7606    4.4690  -15.9452 C   0  0  0  0  0  0  0  0  0  0  0  0
   -7.3908    4.6786  -15.6497 C   0  0  0  0  0  0  0  0  0  0  0  0
   -6.5749    4.8165  -16.7920 C   0  0  0  0  0  0  0  0  0  0  0  0
   -2.7812    5.2160  -16.4074 C   0  0  0  0  0  0  0  0  0  0  0  0
   -4.1900    4.8352  -15.9761 C   0  0  0  0  0  0  0  0  0  0  0  0
   -7.8619    4.6223  -13.2482 C   0  0  0  0  0  0  0  0  0  0  0  0
   -7.2305    4.6396  -11.8525 C   0  0  0  0  0  0  0  0  0  0  0  0
   -8.2833    5.2560  -10.9398 C   0  0  0  0  0  0  0  0  0  0  0  0
   -8.1627    5.0868   -9.4726 C   0  0  0  0  0  0  0  0  0  0  0  0
   -7.9962    6.0886   -8.4887 C   0  0  0  0  0  0  0  0  0  0  0  0
   -8.1793    5.6344   -7.2444 N   0  0  0  0  0  0  0  0  0  0  0  0
   -8.4666    4.3316   -7.4354 N   0  0  0  0  0  0  0  0  0  0  0  0
   -8.4114    3.9405   -8.7410 C   0  0  0  0  0  0  0  0  0  0  0  0
   -8.7294    2.5453   -9.1423 C   0  0  0  0  0  0  0  0  0  0  0  0
   -8.8697    1.6448   -8.0004 N   0  0  0  0  0  0  0  0  0  0  0  0
   -9.5995    2.2419   -6.8880 C   0  0  0  0  0  0  0  0  0  0  0  0
   -8.8982    3.4824   -6.3416 C   0  0  0  0  0  0  0  0  0  0  0  0
   -7.9384    1.3848   -7.6755 H   0  0  0  0  0  0  0  0  0  0  0  0
 12 13  1  0  0  0
 13  3  1  0  0  0
  3  4  1  0  0  0
  4  5  2  0  0  0
  5  6  1  0  0  0
  6  7  2  0  0  0
  7  8  1  0  0  0
  8  9  2  0  0  0
  9 10  1  0  0  0
 10  1  1  0  0  0
  1 14  1  0  0  0
 14 15  1  0  0  0
 15 16  1  0  0  0
 16 17  1  0  0  0
 17 18  1  0  0  0
 18 19  2  0  0  0
 19 20  1  0  0  0
 20 21  1  0  0  0
 21 22  1  0  0  0
 22 23  1  0  0  0
 23 24  1  0  0  0
 24 25  1  0  0  0
 10 11  2  0  0  0
 11  3  1  0  0  0
 11  6  1  0  0  0
 21 17  2  0  0  0
 25 20  1  0  0  0
  1  2  1  0  0  0
 23 26  1  0  0  0
M  END
> <minimizedAffinity>
-6.97843

> <minimizedRMSD>
0.39237

$$$$
P370


 13 14  0  0  0  0  0  0  0  0999 V2000
   -4.8056    4.9892  -17.3500 N   0  0  0  0  0  0  0  0  0  0  0  0
   -4.9635    5.0258  -18.7038 C   0  0  0  0  0  0  0  0  0  0  0  0
   -6.2184    4.8971  -19.0503 N   0  0  0  0  0  0  0  0  0  0  0  0
   -6.9157    4.8169  -17.8838 C   0  0  0  0  0  0  0  0  0  0  0  0
   -8.2971    4.6764  -17.6987 C   0  0  0  0  0  0  0  0  0  0  0  0
   -8.7981    4.6509  -16.3956 C   0  0  0  0  0  0  0  0  0  0  0  0
   -7.9347    4.7776  -15.3042 C   0  0  0  0  0  0  0  0  0  0  0  0
   -8.5809    4.9471  -13.7133 Cl  0  0  0  0  0  0  0  0  0  0  0  0
   -6.5476    4.8681  -15.4728 C   0  0  0  0  0  0  0  0  0  0  0  0
   -5.5126    5.0034  -14.0998 Cl  0  0  0  0  0  0  0  0  0  0  0  0
   -6.0602    4.8955  -16.7848 C   0  0  0  0  0  0  0  0  0  0  0  0
   -2.3364    5.4858  -17.4086 C   0  0  0  0  0  0  0  0  0  0  0  0
   -3.5518    5.0178  -16.6276 C   0  0  0  0  0  0  0  0  0  0  0  0
 12 13  1  0  0  0
 13  1  1  0  0  0
  1  2  1  0  0  0
  2  3  2  0  0  0
  3  4  1  0  0  0
  4  5  2  0  0  0
  5  6  1  0  0  0
  6  7  2  0  0  0
  7  8  1  0  0  0
  7  9  1  0  0  0
  9 10  1  0  0  0
  9 11  2  0  0  0
 11  1  1  0  0  0
 11  4  1  0  0  0
M  END
> <minimizedAffinity>
-4.67816

> <minimizedRMSD>
0.76758

$$$$
P391


 27 31  0  0  0  0  0  0  0  0999 V2000
   -7.2313    3.5692  -13.3071 C   0  0  0  0  0  0  0  0  0  0  0  0
   -7.0393    2.4180  -13.2737 O   0  0  0  0  0  0  0  0  0  0  0  0
   -7.6334    4.5509  -12.1834 N   0  0  0  0  0  0  0  0  0  0  0  0
   -7.6601    5.4974  -12.4529 H   0  0  0  0  0  0  0  0  0  0  0  0
   -2.7380    5.0590  -18.1817 C   0  0  0  0  0  0  0  0  0  0  0  0
   -3.8410    4.8811  -17.1915 C   0  0  0  0  0  0  0  0  0  0  0  0
   -3.5811    4.5304  -15.8498 C   0  0  0  0  0  0  0  0  0  0  0  0
   -4.6285    4.3035  -14.9217 C   0  0  0  0  0  0  0  0  0  0  0  0
   -5.9821    4.4409  -15.3171 C   0  0  0  0  0  0  0  0  0  0  0  0
   -7.1945    4.2472  -14.6173 C   0  0  0  0  0  0  0  0  0  0  0  0
   -8.4435    4.4874  -15.2426 C   0  0  0  0  0  0  0  0  0  0  0  0
   -8.5271    4.8282  -16.5973 C   0  0  0  0  0  0  0  0  0  0  0  0
   -7.3500    4.9577  -17.2950 C   0  0  0  0  0  0  0  0  0  0  0  0
   -6.1611    4.7927  -16.6471 C   0  0  0  0  0  0  0  0  0  0  0  0
   -5.1684    4.9863  -17.5528 C   0  0  0  0  0  0  0  0  0  0  0  0
   -5.8653    5.2719  -18.8009 C   0  0  0  0  0  0  0  0  0  0  0  0
   -7.1573    5.2589  -18.6460 N   0  0  0  0  0  0  0  0  0  0  0  0
   -7.9636    4.3149  -10.8540 C   0  0  0  0  0  0  0  0  0  0  0  0
   -8.5327    3.0816  -10.5089 C   0  0  0  0  0  0  0  0  0  0  0  0
   -8.9166    2.8028   -9.1984 C   0  0  0  0  0  0  0  0  0  0  0  0
   -8.6626    3.7500   -8.2378 C   0  0  0  0  0  0  0  0  0  0  0  0
   -8.0663    4.9642   -8.5657 C   0  0  0  0  0  0  0  0  0  0  0  0
   -7.7546    5.2901   -9.8794 C   0  0  0  0  0  0  0  0  0  0  0  0
   -7.8488    5.7326   -7.3082 C   0  0  0  0  0  0  0  0  0  0  0  0
   -8.0740    4.7666   -6.1979 N   0  0  0  0  0  0  0  0  0  0  0  0
   -8.9281    3.6872   -6.7752 C   0  0  0  0  0  0  0  0  0  0  0  0
   -8.5521    5.2221   -5.4206 H   0  0  0  0  0  0  0  0  0  0  0  0
  5  6  1  0  0  0
  6  7  2  0  0  0
  7  8  1  0  0  0
  8  9  2  0  0  0
  9 10  1  0  0  0
 10  1  1  0  0  0
  1  2  2  0  0  0
  1  3  1  0  0  0
  3 18  1  0  0  0
 18 19  2  0  0  0
 19 20  1  0  0  0
 20 21  2  0  0  0
 21 22  1  0  0  0
 22 23  2  0  0  0
 22 24  1  0  0  0
 24 25  1  0  0  0
 25 26  1  0  0  0
 10 11  2  0  0  0
 11 12  1  0  0  0
 12 13  2  0  0  0
 13 14  1  0  0  0
 14 15  2  0  0  0
 15 16  1  0  0  0
 16 17  2  0  0  0
 15  6  1  0  0  0
 14  9  1  0  0  0
 23 18  1  0  0  0
 17 13  1  0  0  0
 26 21  1  0  0  0
  3  4  1  0  0  0
 25 27  1  0  0  0
M  END
> <minimizedAffinity>
-8.29161

> <minimizedRMSD>
0.42590

$$$$
P395


 30 33  0  0  0  0  0  0  0  0999 V2000
   -6.9023    4.1255  -13.4895 C   0  0  0  0  0  0  0  0  0  0  0  0
   -4.5137    4.9160  -15.7941 N   0  0  0  0  0  0  0  0  0  0  0  0
   -3.9908    5.1472  -17.0401 C   0  0  0  0  0  0  0  0  0  0  0  0
   -4.9039    5.1362  -17.9637 N   0  0  0  0  0  0  0  0  0  0  0  0
   -6.0701    4.8789  -17.2964 C   0  0  0  0  0  0  0  0  0  0  0  0
   -7.3312    4.7935  -17.8794 C   0  0  0  0  0  0  0  0  0  0  0  0
   -8.4141    4.5935  -17.0503 C   0  0  0  0  0  0  0  0  0  0  0  0
   -9.9707    4.5650  -17.7670 Cl  0  0  0  0  0  0  0  0  0  0  0  0
   -8.2507    4.4297  -15.6714 C   0  0  0  0  0  0  0  0  0  0  0  0
   -6.9805    4.4223  -15.0180 C   0  0  0  0  0  0  0  0  0  0  0  0
   -5.8855    4.7194  -15.9063 C   0  0  0  0  0  0  0  0  0  0  0  0
   -2.6855    3.8845  -14.4427 C   0  0  0  0  0  0  0  0  0  0  0  0
   -3.6590    5.0379  -14.6375 C   0  0  0  0  0  0  0  0  0  0  0  0
   -6.2033    2.7011  -13.1674 C   0  0  0  0  0  0  0  0  0  0  0  0
   -6.4803    1.7483  -13.7816 O   0  0  0  0  0  0  0  0  0  0  0  0
   -5.1358    2.9087  -12.0687 N   0  0  0  0  0  0  0  0  0  0  0  0
   -4.1315    2.0201  -11.5686 C   0  0  0  0  0  0  0  0  0  0  0  0
   -5.1489    3.7967  -11.6439 H   0  0  0  0  0  0  0  0  0  0  0  0
   -8.2273    4.3041  -12.7979 N   0  0  0  0  0  0  0  0  0  0  0  0
   -9.0492    4.2103  -13.3317 H   0  0  0  0  0  0  0  0  0  0  0  0
   -8.3505    4.5972  -11.4329 C   0  0  0  0  0  0  0  0  0  0  0  0
   -8.0182    5.8542  -10.9017 C   0  0  0  0  0  0  0  0  0  0  0  0
   -7.9694    6.0751   -9.5172 C   0  0  0  0  0  0  0  0  0  0  0  0
   -8.2404    5.0188   -8.6655 C   0  0  0  0  0  0  0  0  0  0  0  0
   -8.5999    3.7891   -9.1657 C   0  0  0  0  0  0  0  0  0  0  0  0
   -8.6972    3.5640  -10.5316 C   0  0  0  0  0  0  0  0  0  0  0  0
   -8.8347    2.8824   -8.0370 C   0  0  0  0  0  0  0  0  0  0  0  0
   -9.1889    1.7242   -8.0549 O   0  0  0  0  0  0  0  0  0  0  0  0
   -8.6381    3.6186   -6.8987 O   0  0  0  0  0  0  0  0  0  0  0  0
   -8.2156    4.9580   -7.1929 C   0  0  0  0  0  0  0  0  0  0  0  0
 12 13  1  0  0  0
 13  2  1  0  0  0
  2  3  1  0  0  0
  3  4  2  0  0  0
  4  5  1  0  0  0
  5  6  2  0  0  0
  6  7  1  0  0  0
  7  8  1  0  0  0
  7  9  2  0  0  0
  9 10  1  0  0  0
 10  1  1  0  0  0
  1 19  1  0  0  0
 19 21  1  0  0  0
 21 22  2  0  0  0
 22 23  1  0  0  0
 23 24  2  0  0  0
 24 25  1  0  0  0
 25 26  2  0  0  0
 25 27  1  0  0  0
 27 28  2  0  0  0
 27 29  1  0  0  0
 29 30  1  0  0  0
  1 14  1  0  0  0
 14 15  2  0  0  0
 14 16  1  0  0  0
 16 17  1  0  0  0
 10 11  2  0  0  0
 11  2  1  0  0  0
 11  5  1  0  0  0
 26 21  1  0  0  0
 30 24  1  0  0  0
 19 20  1  0  0  0
 16 18  1  0  0  0
M  END
> <minimizedAffinity>
-7.89009

> <minimizedRMSD>
0.78203

$$$$
P396


 26 29  0  0  0  0  0  0  0  0999 V2000
   -8.4545    5.3329  -14.2648 C   0  0  0  0  0  0  0  0  0  0  0  0
   -8.8899    6.4129  -14.1578 O   0  0  0  0  0  0  0  0  0  0  0  0
   -8.1255    4.2719  -13.1855 N   0  0  0  0  0  0  0  0  0  0  0  0
   -7.8358    3.4000  -13.5394 H   0  0  0  0  0  0  0  0  0  0  0  0
   -5.6565    5.0938  -15.6917 N   0  0  0  0  0  0  0  0  0  0  0  0
   -4.8256    5.2382  -16.7541 C   0  0  0  0  0  0  0  0  0  0  0  0
   -5.5392    4.9860  -17.9703 N   0  0  0  0  0  0  0  0  0  0  0  0
   -4.8862    5.0394  -19.0324 O   0  0  0  0  0  0  0  0  0  0  0  0
   -6.8293    4.7487  -17.6526 C   0  0  0  0  0  0  0  0  0  0  0  0
   -7.9220    4.4566  -18.4704 C   0  0  0  0  0  0  0  0  0  0  0  0
   -9.1667    4.3242  -17.8527 C   0  0  0  0  0  0  0  0  0  0  0  0
   -9.3115    4.5229  -16.4757 C   0  0  0  0  0  0  0  0  0  0  0  0
   -8.2162    4.8357  -15.6492 C   0  0  0  0  0  0  0  0  0  0  0  0
   -6.9329    4.8970  -16.2382 C   0  0  0  0  0  0  0  0  0  0  0  0
   -4.7256    3.5406  -14.0214 C   0  0  0  0  0  0  0  0  0  0  0  0
   -5.2209    4.9539  -14.3173 C   0  0  0  0  0  0  0  0  0  0  0  0
   -8.1728    4.3509  -11.7909 C   0  0  0  0  0  0  0  0  0  0  0  0
   -7.8297    5.5419  -11.1300 C   0  0  0  0  0  0  0  0  0  0  0  0
   -7.9024    5.6407   -9.7351 C   0  0  0  0  0  0  0  0  0  0  0  0
   -8.3085    4.5304   -9.0200 C   0  0  0  0  0  0  0  0  0  0  0  0
   -8.6256    3.3406   -9.6653 C   0  0  0  0  0  0  0  0  0  0  0  0
   -8.5772    3.2385  -11.0489 C   0  0  0  0  0  0  0  0  0  0  0  0
   -8.9421    2.3061   -8.6335 C   0  0  0  0  0  0  0  0  0  0  0  0
   -9.1891    3.0693   -7.3798 N   0  0  0  0  0  0  0  0  0  0  0  0
   -8.4587    4.3436   -7.5476 C   0  0  0  0  0  0  0  0  0  0  0  0
   -8.8323    2.5566   -6.5734 H   0  0  0  0  0  0  0  0  0  0  0  0
 15 16  1  0  0  0
 16  5  1  0  0  0
  5  6  1  0  0  0
  6  7  2  0  0  0
  7  8  1  0  0  0
  7  9  1  0  0  0
  9 10  2  0  0  0
 10 11  1  0  0  0
 11 12  2  0  0  0
 12 13  1  0  0  0
 13  1  1  0  0  0
  1  2  2  0  0  0
  1  3  1  0  0  0
  3 17  1  0  0  0
 17 18  2  0  0  0
 18 19  1  0  0  0
 19 20  2  0  0  0
 20 21  1  0  0  0
 21 22  2  0  0  0
 21 23  1  0  0  0
 23 24  1  0  0  0
 24 25  1  0  0  0
 13 14  2  0  0  0
 14  5  1  0  0  0
 14  9  1  0  0  0
 22 17  1  0  0  0
 25 20  1  0  0  0
  3  4  1  0  0  0
 24 26  1  0  0  0
M  CHG 1   7   1
M  CHG 1   8  -1
M  END
> <minimizedAffinity>
-7.64013

> <minimizedRMSD>
0.82080

$$$$
P399


 26 29  0  0  0  0  0  0  0  0999 V2000
   -7.7299    5.4734  -14.3594 C   0  0  0  0  0  0  0  0  0  0  0  0
   -7.4581    6.6027  -14.2205 O   0  0  0  0  0  0  0  0  0  0  0  0
   -8.1100    4.3943  -13.3110 N   0  0  0  0  0  0  0  0  0  0  0  0
   -8.3723    3.5248  -13.6910 H   0  0  0  0  0  0  0  0  0  0  0  0
   -8.1405    4.4561  -11.9145 C   0  0  0  0  0  0  0  0  0  0  0  0
   -7.9343    5.6678  -11.2363 C   0  0  0  0  0  0  0  0  0  0  0  0
   -8.0153    5.7347   -9.8388 C   0  0  0  0  0  0  0  0  0  0  0  0
   -8.2956    4.5755   -9.1393 C   0  0  0  0  0  0  0  0  0  0  0  0
   -8.4807    3.3684   -9.8027 C   0  0  0  0  0  0  0  0  0  0  0  0
   -8.4174    3.2938  -11.1874 C   0  0  0  0  0  0  0  0  0  0  0  0
   -8.6916    2.2895   -8.7897 C   0  0  0  0  0  0  0  0  0  0  0  0
   -9.0119    3.0016   -7.5223 N   0  0  0  0  0  0  0  0  0  0  0  0
   -8.4221    4.3494   -7.6699 C   0  0  0  0  0  0  0  0  0  0  0  0
   -8.5986    2.5164   -6.7260 H   0  0  0  0  0  0  0  0  0  0  0  0
   -5.4104    5.1677  -16.6147 N   0  0  0  0  0  0  0  0  0  0  0  0
   -4.9245    5.1525  -17.8967 C   0  0  0  0  0  0  0  0  0  0  0  0
   -5.8478    4.8514  -18.7659 N   0  0  0  0  0  0  0  0  0  0  0  0
   -6.9972    4.7213  -18.0329 C   0  0  0  0  0  0  0  0  0  0  0  0
   -8.2868    4.4316  -18.5037 C   0  0  0  0  0  0  0  0  0  0  0  0
   -9.3432    4.3827  -17.5984 C   0  0  0  0  0  0  0  0  0  0  0  0
   -9.1176    4.6417  -16.2483 C   0  0  0  0  0  0  0  0  0  0  0  0
   -7.8385    4.9551  -15.7497 C   0  0  0  0  0  0  0  0  0  0  0  0
   -6.7702    4.9610  -16.6688 C   0  0  0  0  0  0  0  0  0  0  0  0
   -4.5170    5.3185  -15.4842 C   0  0  0  0  0  0  0  0  0  0  0  0
   -4.6643    3.3610  -13.9088 C   0  0  0  0  0  0  0  0  0  0  0  0
   -3.8928    3.9802  -15.0674 C   0  0  0  0  0  0  0  0  0  0  0  0
 25 26  1  0  0  0
 26 24  1  0  0  0
 24 15  1  0  0  0
 15 16  1  0  0  0
 16 17  2  0  0  0
 17 18  1  0  0  0
 18 19  2  0  0  0
 19 20  1  0  0  0
 20 21  2  0  0  0
 21 22  1  0  0  0
 22  1  1  0  0  0
  1  2  2  0  0  0
  1  3  1  0  0  0
  3  5  1  0  0  0
  5  6  2  0  0  0
  6  7  1  0  0  0
  7  8  2  0  0  0
  8  9  1  0  0  0
  9 10  2  0  0  0
  9 11  1  0  0  0
 11 12  1  0  0  0
 12 13  1  0  0  0
 22 23  2  0  0  0
 23 15  1  0  0  0
 23 18  1  0  0  0
 10  5  1  0  0  0
 13  8  1  0  0  0
  3  4  1  0  0  0
 12 14  1  0  0  0
M  END
> <minimizedAffinity>
-7.19087

> <minimizedRMSD>
0.52201

$$$$
P402


 26 30  0  0  0  0  0  0  0  0999 V2000
   -8.2328    5.1816  -12.8774 C   0  0  0  0  0  0  0  0  0  0  0  0
   -8.9727    6.0861  -12.8509 O   0  0  0  0  0  0  0  0  0  0  0  0
   -7.8235    4.1888  -11.7653 N   0  0  0  0  0  0  0  0  0  0  0  0
   -7.2334    3.4585  -12.0615 H   0  0  0  0  0  0  0  0  0  0  0  0
  -10.0242    4.7104  -18.4114 C   0  0  0  0  0  0  0  0  0  0  0  0
   -9.0690    4.5429  -17.3129 C   0  0  0  0  0  0  0  0  0  0  0  0
   -9.3073    4.5295  -15.9748 N   0  0  0  0  0  0  0  0  0  0  0  0
   -8.0754    4.7212  -15.3506 C   0  0  0  0  0  0  0  0  0  0  0  0
   -7.4781    4.9789  -14.1201 C   0  0  0  0  0  0  0  0  0  0  0  0
   -6.0519    5.2380  -14.1278 C   0  0  0  0  0  0  0  0  0  0  0  0
   -5.2296    5.2544  -15.3104 C   0  0  0  0  0  0  0  0  0  0  0  0
   -5.8881    5.0133  -16.5095 C   0  0  0  0  0  0  0  0  0  0  0  0
   -5.6571    4.9866  -17.8802 N   0  0  0  0  0  0  0  0  0  0  0  0
   -6.8546    4.7431  -18.4566 C   0  0  0  0  0  0  0  0  0  0  0  0
   -7.7548    4.5809  -17.5005 N   0  0  0  0  0  0  0  0  0  0  0  0
   -7.1920    4.7550  -16.3564 C   0  0  0  0  0  0  0  0  0  0  0  0
   -8.1544    4.1593  -10.4099 C   0  0  0  0  0  0  0  0  0  0  0  0
   -7.9200    5.2798   -9.5968 C   0  0  0  0  0  0  0  0  0  0  0  0
   -8.1720    5.2377   -8.2223 C   0  0  0  0  0  0  0  0  0  0  0  0
   -8.6497    4.0600   -7.6797 C   0  0  0  0  0  0  0  0  0  0  0  0
   -8.8890    2.9497   -8.4792 C   0  0  0  0  0  0  0  0  0  0  0  0
   -8.6611    2.9841   -9.8491 C   0  0  0  0  0  0  0  0  0  0  0  0
   -9.3295    1.8147   -7.6172 C   0  0  0  0  0  0  0  0  0  0  0  0
   -9.5764    2.3899   -6.2677 N   0  0  0  0  0  0  0  0  0  0  0  0
   -8.9539    3.7289   -6.2591 C   0  0  0  0  0  0  0  0  0  0  0  0
   -9.1529    1.8004   -5.5510 H   0  0  0  0  0  0  0  0  0  0  0  0
  5  6  1  0  0  0
  6  7  2  0  0  0
  7  8  1  0  0  0
  8  9  1  0  0  0
  9  1  1  0  0  0
  1  2  2  0  0  0
  1  3  1  0  0  0
  3 17  1  0  0  0
 17 18  2  0  0  0
 18 19  1  0  0  0
 19 20  2  0  0  0
 20 21  1  0  0  0
 21 22  2  0  0  0
 21 23  1  0  0  0
 23 24  1  0  0  0
 24 25  1  0  0  0
  9 10  2  0  0  0
 10 11  1  0  0  0
 11 12  2  0  0  0
 12 13  1  0  0  0
 13 14  2  0  0  0
 14 15  1  0  0  0
 15 16  1  0  0  0
 15  6  1  0  0  0
 16  8  2  0  0  0
 22 17  1  0  0  0
 16 12  1  0  0  0
 25 20  1  0  0  0
  3  4  1  0  0  0
 24 26  1  0  0  0
M  END
> <minimizedAffinity>
-8.57063

> <minimizedRMSD>
1.16479

$$$$
P404


 39 41  0  0  0  0  0  0  0  0999 V2000
   -7.4319    5.3275  -12.8728 C   0  0  0  0  0  0  0  0  0  0  0  0
   -7.3660    4.9346  -14.3359 C   0  0  0  0  0  0  0  0  0  0  0  0
   -8.5411    4.8166  -15.1109 C   0  0  0  0  0  0  0  0  0  0  0  0
   -8.5053    4.7279  -16.5118 C   0  0  0  0  0  0  0  0  0  0  0  0
   -7.2888    4.8092  -17.1637 C   0  0  0  0  0  0  0  0  0  0  0  0
   -6.1516    4.6927  -16.3703 C   0  0  0  0  0  0  0  0  0  0  0  0
   -6.1365    4.8056  -14.9792 C   0  0  0  0  0  0  0  0  0  0  0  0
   -7.1689    4.9834  -18.5521 N   0  0  0  0  0  0  0  0  0  0  0  0
   -7.8378    4.6536  -19.1948 H   0  0  0  0  0  0  0  0  0  0  0  0
   -5.9546    5.7022  -18.9574 C   0  0  0  0  0  0  0  0  0  0  0  0
   -4.8428    4.9704  -19.5560 N   0  0  0  0  0  0  0  0  0  0  0  0
   -4.9516    4.9897  -20.5700 H   0  0  0  0  0  0  0  0  0  0  0  0
   -3.5362    5.5255  -19.2206 C   0  0  0  0  0  0  0  0  0  0  0  0
   -2.9286    4.7729  -18.0455 C   0  0  0  0  0  0  0  0  0  0  0  0
   -4.7775    4.7779  -14.3073 C   0  0  0  0  0  0  0  0  0  0  0  0
   -4.1493    6.0536  -13.9149 N   0  0  0  0  0  0  0  0  0  0  0  0
   -4.4065    7.1146  -14.8548 N   0  0  0  0  0  0  0  0  0  0  0  0
   -3.1411    5.9137  -13.8491 H   0  0  0  0  0  0  0  0  0  0  0  0
   -5.4125    7.2653  -14.9305 H   0  0  0  0  0  0  0  0  0  0  0  0
   -4.0314    6.8581  -15.7680 H   0  0  0  0  0  0  0  0  0  0  0  0
   -8.9776    7.3322  -12.8638 N   0  0  0  0  0  0  0  0  0  0  0  0
   -7.4883    6.9120  -12.7917 C   0  0  0  0  0  0  0  0  0  0  0  0
   -6.5212    7.5628  -12.6919 O   0  0  0  0  0  0  0  0  0  0  0  0
   -9.6071    6.5927  -13.0255 H   0  0  0  0  0  0  0  0  0  0  0  0
   -9.5923    8.6311  -12.7325 C   0  0  0  0  0  0  0  0  0  0  0  0
  -11.2789   10.1236  -13.8521 C   0  0  0  0  0  0  0  0  0  0  0  0
  -10.9701    8.7122  -13.3802 C   0  0  0  0  0  0  0  0  0  0  0  0
   -8.5296    4.6074  -12.1839 N   0  0  0  0  0  0  0  0  0  0  0  0
   -9.3298    4.2812  -12.6556 H   0  0  0  0  0  0  0  0  0  0  0  0
   -8.3332    4.4254  -10.7830 C   0  0  0  0  0  0  0  0  0  0  0  0
   -7.9182    5.4867   -9.9459 C   0  0  0  0  0  0  0  0  0  0  0  0
   -7.9369    5.3839   -8.5520 C   0  0  0  0  0  0  0  0  0  0  0  0
   -8.3756    4.2039   -7.9961 C   0  0  0  0  0  0  0  0  0  0  0  0
   -8.7236    3.1221   -8.7958 C   0  0  0  0  0  0  0  0  0  0  0  0
   -8.7210    3.2178  -10.1810 C   0  0  0  0  0  0  0  0  0  0  0  0
   -9.0655    1.9735   -7.9042 C   0  0  0  0  0  0  0  0  0  0  0  0
   -9.3728    2.5939   -6.5873 N   0  0  0  0  0  0  0  0  0  0  0  0
   -8.5866    3.8460   -6.5634 C   0  0  0  0  0  0  0  0  0  0  0  0
   -9.0894    1.9777   -5.8255 H   0  0  0  0  0  0  0  0  0  0  0  0
 26 27  1  0  0  0
 27 25  1  0  0  0
 25 21  1  0  0  0
 21 22  1  0  0  0
 22 23  2  0  0  0
 22  1  1  0  0  0
  1 28  1  0  0  0
 28 30  1  0  0  0
 30 31  2  0  0  0
 31 32  1  0  0  0
 32 33  2  0  0  0
 33 34  1  0  0  0
 34 35  2  0  0  0
 34 36  1  0  0  0
 36 37  1  0  0  0
 37 38  1  0  0  0
  1  2  1  0  0  0
  2  3  2  0  0  0
  3  4  1  0  0  0
  4  5  2  0  0  0
  5  8  1  0  0  0
  8 10  1  0  0  0
 10 11  1  0  0  0
 11 13  1  0  0  0
 13 14  1  0  0  0
  5  6  1  0  0  0
  6  7  2  0  0  0
  7 15  1  0  0  0
 15 16  1  0  0  0
 16 17  1  0  0  0
 35 30  1  0  0  0
  7  2  1  0  0  0
 38 33  1  0  0  0
 21 24  1  0  0  0
 28 29  1  0  0  0
 37 39  1  0  0  0
  8  9  1  0  0  0
 11 12  1  0  0  0
 16 18  1  0  0  0
 17 19  1  0  0  0
 17 20  1  0  0  0
M  END
> <minimizedAffinity>
-6.16599

> <minimizedRMSD>
0.63376

$$$$
P418


 33 37  0  0  0  0  0  0  0  0999 V2000
   -3.7139    6.1514  -15.4422 C   0  0  0  0  0  0  0  0  0  0  0  0
   -4.1609    7.3174  -16.2302 N   0  0  0  0  0  0  0  0  0  0  0  0
   -5.5735    7.0972  -16.5340 N   0  0  0  0  0  0  0  0  0  0  0  0
   -5.7133    5.7516  -17.1010 C   0  0  0  0  0  0  0  0  0  0  0  0
   -5.4660    5.7846  -18.6626 C   0  0  0  0  0  0  0  0  0  0  0  0
   -6.4391    4.9128  -19.3190 N   0  0  0  0  0  0  0  0  0  0  0  0
   -7.4688    4.7940  -18.3561 C   0  0  0  0  0  0  0  0  0  0  0  0
   -8.7009    4.2203  -18.6331 C   0  0  0  0  0  0  0  0  0  0  0  0
   -9.5911    4.0101  -17.5895 C   0  0  0  0  0  0  0  0  0  0  0  0
   -9.2322    4.3750  -16.2890 C   0  0  0  0  0  0  0  0  0  0  0  0
   -7.9975    4.9850  -16.0096 C   0  0  0  0  0  0  0  0  0  0  0  0
   -7.1023    5.1874  -17.0571 C   0  0  0  0  0  0  0  0  0  0  0  0
   -4.4898    4.7218  -16.2391 S   0  0  0  0  0  0  0  0  0  0  0  0
   -3.6218    7.3869  -17.0932 H   0  0  0  0  0  0  0  0  0  0  0  0
   -5.8944    7.7917  -17.2085 H   0  0  0  0  0  0  0  0  0  0  0  0
   -6.3898    4.5068  -20.2145 H   0  0  0  0  0  0  0  0  0  0  0  0
   -7.8459    5.5377  -14.6340 C   0  0  0  0  0  0  0  0  0  0  0  0
   -7.5957    6.6751  -14.5220 O   0  0  0  0  0  0  0  0  0  0  0  0
   -8.1609    4.4649  -13.5545 N   0  0  0  0  0  0  0  0  0  0  0  0
   -8.4169    3.5838  -13.9114 H   0  0  0  0  0  0  0  0  0  0  0  0
   -8.1398    4.5478  -12.1581 C   0  0  0  0  0  0  0  0  0  0  0  0
   -7.9550    5.7747  -11.5016 C   0  0  0  0  0  0  0  0  0  0  0  0
   -8.0152    5.8618  -10.1035 C   0  0  0  0  0  0  0  0  0  0  0  0
   -8.2588    4.7087   -9.3804 C   0  0  0  0  0  0  0  0  0  0  0  0
   -8.4230    3.4866  -10.0206 C   0  0  0  0  0  0  0  0  0  0  0  0
   -8.3685    3.3892  -11.4053 C   0  0  0  0  0  0  0  0  0  0  0  0
   -8.6138    2.4219   -8.9878 C   0  0  0  0  0  0  0  0  0  0  0  0
   -8.9118    3.1489   -7.7224 N   0  0  0  0  0  0  0  0  0  0  0  0
   -8.3570    4.5058   -7.9058 C   0  0  0  0  0  0  0  0  0  0  0  0
   -8.4651    2.6852   -6.9313 H   0  0  0  0  0  0  0  0  0  0  0  0
   -4.5042    4.9076  -13.3333 C   0  0  0  0  0  0  0  0  0  0  0  0
   -4.0290    6.2460  -13.9208 C   0  0  0  0  0  0  0  0  0  0  0  0
   -2.8054    6.7126  -13.1173 C   0  0  0  0  0  0  0  0  0  0  0  0
 31 32  1  0  0  0
 32 33  1  0  0  0
  1 32  1  0  0  0
  1  2  1  0  0  0
  2  3  1  0  0  0
  3  4  1  0  0  0
  4  5  1  0  0  0
  5  6  1  0  0  0
  6  7  1  0  0  0
  7  8  2  0  0  0
  8  9  1  0  0  0
  9 10  2  0  0  0
 10 11  1  0  0  0
 11 17  1  0  0  0
 17 18  2  0  0  0
 17 19  1  0  0  0
 19 21  1  0  0  0
 21 22  2  0  0  0
 22 23  1  0  0  0
 23 24  2  0  0  0
 24 25  1  0  0  0
 25 26  2  0  0  0
 25 27  1  0  0  0
 27 28  1  0  0  0
 28 29  1  0  0  0
 11 12  2  0  0  0
  4 13  1  0  0  0
 13  1  1  0  0  0
 12  4  1  0  0  0
 12  7  1  0  0  0
 26 21  1  0  0  0
 29 24  1  0  0  0
  2 14  1  0  0  0
  3 15  1  0  0  0
  6 16  1  0  0  0
 19 20  1  0  0  0
 28 30  1  0  0  0
M  END
> <minimizedAffinity>
-7.76055

> <minimizedRMSD>
0.57262

$$$$
P428


 29 33  0  0  0  0  0  0  0  0999 V2000
   -5.4431    5.5984  -14.8892 C   0  0  0  0  0  0  0  0  0  0  0  0
   -5.0990    4.5100  -13.8643 C   0  0  0  0  0  0  0  0  0  0  0  0
   -6.7852    5.2845  -15.5041 C   0  0  0  0  0  0  0  0  0  0  0  0
   -8.1187    5.1396  -15.1616 C   0  0  0  0  0  0  0  0  0  0  0  0
   -9.0669    4.7439  -16.1488 C   0  0  0  0  0  0  0  0  0  0  0  0
   -8.7177    4.5223  -17.5143 C   0  0  0  0  0  0  0  0  0  0  0  0
   -7.3748    4.6964  -17.8484 C   0  0  0  0  0  0  0  0  0  0  0  0
   -6.5933    4.6403  -18.9838 N   0  0  0  0  0  0  0  0  0  0  0  0
   -5.3610    4.9873  -18.6115 C   0  0  0  0  0  0  0  0  0  0  0  0
   -5.3054    5.1381  -17.2844 N   0  0  0  0  0  0  0  0  0  0  0  0
   -6.5607    5.0269  -16.8205 C   0  0  0  0  0  0  0  0  0  0  0  0
   -4.4369    5.5871  -16.2018 C   0  0  0  0  0  0  0  0  0  0  0  0
   -3.1738    4.7531  -16.0672 C   0  0  0  0  0  0  0  0  0  0  0  0
   -8.5833    5.5017  -13.8030 C   0  0  0  0  0  0  0  0  0  0  0  0
   -9.3075    6.4087  -13.6904 O   0  0  0  0  0  0  0  0  0  0  0  0
   -7.9539    4.5867  -12.7334 N   0  0  0  0  0  0  0  0  0  0  0  0
   -7.3075    3.9305  -13.0811 H   0  0  0  0  0  0  0  0  0  0  0  0
   -8.1507    4.5373  -11.3573 C   0  0  0  0  0  0  0  0  0  0  0  0
   -7.9657    5.6805  -10.5639 C   0  0  0  0  0  0  0  0  0  0  0  0
   -8.1094    5.6192   -9.1755 C   0  0  0  0  0  0  0  0  0  0  0  0
   -8.4369    4.4035   -8.6054 C   0  0  0  0  0  0  0  0  0  0  0  0
   -8.6299    3.2733   -9.3893 C   0  0  0  0  0  0  0  0  0  0  0  0
   -8.4997    3.3230  -10.7682 C   0  0  0  0  0  0  0  0  0  0  0  0
   -8.9091    2.1053   -8.5060 C   0  0  0  0  0  0  0  0  0  0  0  0
   -9.1340    2.6659   -7.1475 N   0  0  0  0  0  0  0  0  0  0  0  0
   -8.6058    4.0449   -7.1689 C   0  0  0  0  0  0  0  0  0  0  0  0
   -8.6386    2.1098   -6.4506 H   0  0  0  0  0  0  0  0  0  0  0  0
   -5.6040    8.0269  -14.8991 C   0  0  0  0  0  0  0  0  0  0  0  0
   -5.3066    6.8389  -14.1879 O   0  0  0  0  0  0  0  0  0  0  0  0
 28 29  1  0  0  0
 29  1  1  0  0  0
  1  2  1  0  0  0
  1  3  1  0  0  0
  3  4  2  0  0  0
  4 14  1  0  0  0
 14 15  2  0  0  0
 14 16  1  0  0  0
 16 18  1  0  0  0
 18 19  2  0  0  0
 19 20  1  0  0  0
 20 21  2  0  0  0
 21 22  1  0  0  0
 22 23  2  0  0  0
 22 24  1  0  0  0
 24 25  1  0  0  0
 25 26  1  0  0  0
  4  5  1  0  0  0
  5  6  2  0  0  0
  6  7  1  0  0  0
  7  8  1  0  0  0
  8  9  2  0  0  0
  9 10  1  0  0  0
 10 11  1  0  0  0
 10 12  1  0  0  0
 12 13  1  0  0  0
 12  1  1  0  0  0
 11  3  1  0  0  0
 23 18  1  0  0  0
 11  7  2  0  0  0
 26 21  1  0  0  0
 16 17  1  0  0  0
 25 27  1  0  0  0
M  END
> <minimizedAffinity>
-8.00024

> <minimizedRMSD>
0.79038

$$$$
P430


 40 44  0  0  0  0  0  0  0  0999 V2000
   -7.5854    5.6843  -12.2459 C   0  0  0  0  0  0  0  0  0  0  0  0
   -5.6553    4.7902  -16.8588 N   0  0  0  0  0  0  0  0  0  0  0  0
   -6.3457    4.7865  -18.0301 C   0  0  0  0  0  0  0  0  0  0  0  0
   -7.6414    4.7900  -17.8416 N   0  0  0  0  0  0  0  0  0  0  0  0
   -7.7973    4.9266  -16.4955 C   0  0  0  0  0  0  0  0  0  0  0  0
   -8.9678    5.1096  -15.7591 C   0  0  0  0  0  0  0  0  0  0  0  0
   -8.8462    5.3102  -14.3817 C   0  0  0  0  0  0  0  0  0  0  0  0
   -7.6019    5.2935  -13.7210 C   0  0  0  0  0  0  0  0  0  0  0  0
   -6.4543    4.9513  -14.4527 C   0  0  0  0  0  0  0  0  0  0  0  0
   -6.5696    4.8744  -15.8421 C   0  0  0  0  0  0  0  0  0  0  0  0
   -3.6817    6.2670  -16.6951 C   0  0  0  0  0  0  0  0  0  0  0  0
   -4.2150    4.8457  -16.7621 C   0  0  0  0  0  0  0  0  0  0  0  0
   -5.2337    4.7848  -13.8558 O   0  0  0  0  0  0  0  0  0  0  0  0
   -4.9814    3.3785  -13.6657 C   0  0  0  0  0  0  0  0  0  0  0  0
   -3.5093    3.1131  -13.4213 C   0  0  0  0  0  0  0  0  0  0  0  0
   -2.6121    4.1503  -13.1699 C   0  0  0  0  0  0  0  0  0  0  0  0
   -1.2689    3.8503  -12.9574 C   0  0  0  0  0  0  0  0  0  0  0  0
   -0.8498    2.5277  -13.0081 C   0  0  0  0  0  0  0  0  0  0  0  0
   -1.7949    1.5556  -13.2795 C   0  0  0  0  0  0  0  0  0  0  0  0
   -3.1016    1.8198  -13.4985 N   0  0  0  0  0  0  0  0  0  0  0  0
   -6.5544    6.8354  -11.9225 C   0  0  0  0  0  0  0  0  0  0  0  0
   -6.8106    7.9667  -12.0827 O   0  0  0  0  0  0  0  0  0  0  0  0
   -5.2633    6.1624  -11.3736 N   0  0  0  0  0  0  0  0  0  0  0  0
   -5.2647    5.1785  -11.4078 H   0  0  0  0  0  0  0  0  0  0  0  0
   -4.0611    6.7477  -10.8210 C   0  0  0  0  0  0  0  0  0  0  0  0
   -3.2182    7.5596  -11.7986 C   0  0  0  0  0  0  0  0  0  0  0  0
   -3.4355    8.8880  -11.6112 F   0  0  0  0  0  0  0  0  0  0  0  0
   -1.8979    7.3576  -11.5289 F   0  0  0  0  0  0  0  0  0  0  0  0
   -7.4173    4.4667  -11.4235 N   0  0  0  0  0  0  0  0  0  0  0  0
   -6.9024    3.7053  -11.7761 H   0  0  0  0  0  0  0  0  0  0  0  0
   -7.9898    4.3897  -10.1380 C   0  0  0  0  0  0  0  0  0  0  0  0
   -7.9626    5.4459   -9.2027 C   0  0  0  0  0  0  0  0  0  0  0  0
   -8.3094    5.2590   -7.8606 C   0  0  0  0  0  0  0  0  0  0  0  0
   -8.7334    4.0098   -7.4661 C   0  0  0  0  0  0  0  0  0  0  0  0
   -8.8133    2.9656   -8.3754 C   0  0  0  0  0  0  0  0  0  0  0  0
   -8.4189    3.1322   -9.6935 C   0  0  0  0  0  0  0  0  0  0  0  0
   -9.3026    1.7455   -7.6678 C   0  0  0  0  0  0  0  0  0  0  0  0
   -9.8323    2.2371   -6.3650 N   0  0  0  0  0  0  0  0  0  0  0  0
   -9.1361    3.5161   -6.1193 C   0  0  0  0  0  0  0  0  0  0  0  0
   -9.6271    1.5699   -5.6212 H   0  0  0  0  0  0  0  0  0  0  0  0
 11 12  1  0  0  0
 12  2  1  0  0  0
  2  3  1  0  0  0
  3  4  2  0  0  0
  4  5  1  0  0  0
  5  6  2  0  0  0
  6  7  1  0  0  0
  7  8  2  0  0  0
  8  1  1  0  0  0
  1 29  1  0  0  0
 29 31  1  0  0  0
 31 32  2  0  0  0
 32 33  1  0  0  0
 33 34  2  0  0  0
 34 35  1  0  0  0
 35 36  2  0  0  0
 35 37  1  0  0  0
 37 38  1  0  0  0
 38 39  1  0  0  0
  1 21  1  0  0  0
 21 22  2  0  0  0
 21 23  1  0  0  0
 23 25  1  0  0  0
 25 26  1  0  0  0
 26 27  1  0  0  0
 26 28  1  0  0  0
  8  9  1  0  0  0
  9 13  1  0  0  0
 13 14  1  0  0  0
 14 15  1  0  0  0
 15 16  2  0  0  0
 16 17  1  0  0  0
 17 18  2  0  0  0
 18 19  1  0  0  0
 19 20  2  0  0  0
  9 10  2  0  0  0
 10  2  1  0  0  0
 10  5  1  0  0  0
 36 31  1  0  0  0
 20 15  1  0  0  0
 39 34  1  0  0  0
 29 30  1  0  0  0
 38 40  1  0  0  0
 23 24  1  0  0  0
M  END
> <minimizedAffinity>
-6.19330

> <minimizedRMSD>
1.46304

$$$$
P431


 25 29  0  0  0  0  0  0  0  0999 V2000
   -7.0474    4.4388  -13.1590 C   0  0  0  0  0  0  0  0  0  0  0  0
   -5.9664    4.2116  -12.6372 O   0  0  0  0  0  0  0  0  0  0  0  0
   -2.9312    4.9632  -17.4832 C   0  0  0  0  0  0  0  0  0  0  0  0
   -4.2709    4.9049  -16.8732 C   0  0  0  0  0  0  0  0  0  0  0  0
   -4.6805    4.7913  -15.5151 C   0  0  0  0  0  0  0  0  0  0  0  0
   -6.1203    4.7040  -15.4578 C   0  0  0  0  0  0  0  0  0  0  0  0
   -7.2349    4.5471  -14.6229 C   0  0  0  0  0  0  0  0  0  0  0  0
   -8.5232    4.5008  -15.2818 C   0  0  0  0  0  0  0  0  0  0  0  0
   -8.7255    4.6012  -16.7033 C   0  0  0  0  0  0  0  0  0  0  0  0
   -7.5789    4.7594  -17.4748 C   0  0  0  0  0  0  0  0  0  0  0  0
   -7.2035    4.8835  -18.8060 N   0  0  0  0  0  0  0  0  0  0  0  0
   -5.8592    4.9853  -18.8107 C   0  0  0  0  0  0  0  0  0  0  0  0
   -5.4231    4.9156  -17.5562 N   0  0  0  0  0  0  0  0  0  0  0  0
   -6.4385    4.7973  -16.7610 C   0  0  0  0  0  0  0  0  0  0  0  0
   -8.2585    4.6571  -12.5363 O   0  0  0  0  0  0  0  0  0  0  0  0
   -8.2389    4.5728  -11.1392 C   0  0  0  0  0  0  0  0  0  0  0  0
   -8.0261    5.7174  -10.3587 C   0  0  0  0  0  0  0  0  0  0  0  0
   -8.1039    5.6310   -8.9668 C   0  0  0  0  0  0  0  0  0  0  0  0
   -8.4144    4.4043   -8.3998 C   0  0  0  0  0  0  0  0  0  0  0  0
   -8.6301    3.2774   -9.1867 C   0  0  0  0  0  0  0  0  0  0  0  0
   -8.5493    3.3416  -10.5657 C   0  0  0  0  0  0  0  0  0  0  0  0
   -8.9056    2.1051   -8.3081 C   0  0  0  0  0  0  0  0  0  0  0  0
   -9.1153    2.6627   -6.9450 N   0  0  0  0  0  0  0  0  0  0  0  0
   -8.5640    4.0334   -6.9631 C   0  0  0  0  0  0  0  0  0  0  0  0
   -8.6260    2.0951   -6.2530 H   0  0  0  0  0  0  0  0  0  0  0  0
  3  4  1  0  0  0
  4  5  2  0  0  0
  5  6  1  0  0  0
  6  7  1  0  0  0
  7  1  1  0  0  0
  1  2  2  0  0  0
  1 15  1  0  0  0
 15 16  1  0  0  0
 16 17  2  0  0  0
 17 18  1  0  0  0
 18 19  2  0  0  0
 19 20  1  0  0  0
 20 21  2  0  0  0
 20 22  1  0  0  0
 22 23  1  0  0  0
 23 24  1  0  0  0
  7  8  2  0  0  0
  8  9  1  0  0  0
  9 10  2  0  0  0
 10 11  1  0  0  0
 11 12  2  0  0  0
 12 13  1  0  0  0
 13 14  1  0  0  0
 13  4  1  0  0  0
 14  6  2  0  0  0
 21 16  1  0  0  0
 14 10  1  0  0  0
 24 19  1  0  0  0
 23 25  1  0  0  0
M  END
> <minimizedAffinity>
-7.54630

> <minimizedRMSD>
0.23302

$$$$
P432


 26 29  0  0  0  0  0  0  0  0999 V2000
   -8.7622    5.2750  -14.3168 C   0  0  0  0  0  0  0  0  0  0  0  0
   -9.4522    6.2084  -14.1892 O   0  0  0  0  0  0  0  0  0  0  0  0
   -8.1575    4.3234  -13.2583 N   0  0  0  0  0  0  0  0  0  0  0  0
   -7.6646    3.5555  -13.6281 H   0  0  0  0  0  0  0  0  0  0  0  0
   -5.9063    5.2086  -15.7651 N   0  0  0  0  0  0  0  0  0  0  0  0
   -5.0694    5.2341  -16.8323 C   0  0  0  0  0  0  0  0  0  0  0  0
   -5.8000    4.9476  -18.0281 N   0  0  0  0  0  0  0  0  0  0  0  0
   -5.1564    4.8888  -19.0925 O   0  0  0  0  0  0  0  0  0  0  0  0
   -7.0925    4.7567  -17.6981 C   0  0  0  0  0  0  0  0  0  0  0  0
   -8.1843    4.4353  -18.5103 C   0  0  0  0  0  0  0  0  0  0  0  0
   -9.4195    4.2623  -17.8906 C   0  0  0  0  0  0  0  0  0  0  0  0
   -9.5541    4.4599  -16.5159 C   0  0  0  0  0  0  0  0  0  0  0  0
   -8.4644    4.8281  -15.6989 C   0  0  0  0  0  0  0  0  0  0  0  0
   -7.1841    4.9453  -16.2856 C   0  0  0  0  0  0  0  0  0  0  0  0
   -4.6653    4.0957  -13.9428 C   0  0  0  0  0  0  0  0  0  0  0  0
   -5.4432    5.3163  -14.4035 C   0  0  0  0  0  0  0  0  0  0  0  0
   -8.1968    4.3760  -11.8647 C   0  0  0  0  0  0  0  0  0  0  0  0
   -7.9513    5.5607  -11.1572 C   0  0  0  0  0  0  0  0  0  0  0  0
   -8.0047    5.6824   -9.8029 N   0  0  0  0  0  0  0  0  0  0  0  0
   -8.3000    4.5422   -9.1536 C   0  0  0  0  0  0  0  0  0  0  0  0
   -8.5443    3.3235   -9.7585 C   0  0  0  0  0  0  0  0  0  0  0  0
   -8.5065    3.2284  -11.1380 C   0  0  0  0  0  0  0  0  0  0  0  0
   -8.7758    2.2884   -8.7107 C   0  0  0  0  0  0  0  0  0  0  0  0
   -9.0326    3.0400   -7.4508 N   0  0  0  0  0  0  0  0  0  0  0  0
   -8.4141    4.3724   -7.6635 C   0  0  0  0  0  0  0  0  0  0  0  0
   -8.6004    2.5671   -6.6571 H   0  0  0  0  0  0  0  0  0  0  0  0
 15 16  1  0  0  0
 16  5  1  0  0  0
  5  6  1  0  0  0
  6  7  2  0  0  0
  7  8  1  0  0  0
  7  9  1  0  0  0
  9 10  2  0  0  0
 10 11  1  0  0  0
 11 12  2  0  0  0
 12 13  1  0  0  0
 13  1  1  0  0  0
  1  2  2  0  0  0
  1  3  1  0  0  0
  3 17  1  0  0  0
 17 18  2  0  0  0
 18 19  1  0  0  0
 19 20  2  0  0  0
 20 21  1  0  0  0
 21 22  2  0  0  0
 21 23  1  0  0  0
 23 24  1  0  0  0
 24 25  1  0  0  0
 13 14  2  0  0  0
 14  5  1  0  0  0
 14  9  1  0  0  0
 22 17  1  0  0  0
 25 20  1  0  0  0
  3  4  1  0  0  0
 24 26  1  0  0  0
M  CHG 1   7   1
M  CHG 1   8  -1
M  END
> <minimizedAffinity>
-7.85868

> <minimizedRMSD>
0.82916

$$$$
P459


 39 44  0  0  0  0  0  0  0  0999 V2000
   -5.0487    5.1720  -18.4054 C   0  0  0  0  0  0  0  0  0  0  0  0
   -6.2029    4.8677  -19.0606 N   0  0  0  0  0  0  0  0  0  0  0  0
   -7.1922    4.7319  -18.0916 C   0  0  0  0  0  0  0  0  0  0  0  0
   -8.5630    4.5105  -17.9446 C   0  0  0  0  0  0  0  0  0  0  0  0
   -9.0804    4.5495  -16.5945 C   0  0  0  0  0  0  0  0  0  0  0  0
   -8.2722    4.8010  -15.4325 C   0  0  0  0  0  0  0  0  0  0  0  0
   -6.9034    4.9554  -15.6345 C   0  0  0  0  0  0  0  0  0  0  0  0
   -5.7205    5.2191  -14.9454 N   0  0  0  0  0  0  0  0  0  0  0  0
   -4.7423    5.3284  -15.8793 C   0  0  0  0  0  0  0  0  0  0  0  0
   -5.2950    5.1331  -17.0895 N   0  0  0  0  0  0  0  0  0  0  0  0
   -6.5570    4.8975  -16.9259 C   0  0  0  0  0  0  0  0  0  0  0  0
   -3.3568    5.5906  -15.7047 C   0  0  0  0  0  0  0  0  0  0  0  0
   -2.6319    4.6137  -15.1094 C   0  0  0  0  0  0  0  0  0  0  0  0
   -1.2213    4.8231  -14.8173 C   0  0  0  0  0  0  0  0  0  0  0  0
   -0.6252    5.9667  -15.1971 C   0  0  0  0  0  0  0  0  0  0  0  0
   -1.3511    6.9572  -15.8487 N   0  0  0  0  0  0  0  0  0  0  0  0
   -2.7306    6.8124  -16.0434 N   0  0  0  0  0  0  0  0  0  0  0  0
   -3.4904    8.0507  -16.2284 C   0  0  0  0  0  0  0  0  0  0  0  0
   -0.8929    7.7651  -16.1751 H   0  0  0  0  0  0  0  0  0  0  0  0
    0.6859    6.2154  -14.8569 O   0  0  0  0  0  0  0  0  0  0  0  0
    1.4859    5.0468  -15.0207 C   0  0  0  0  0  0  0  0  0  0  0  0
   -8.8264    5.1215  -14.1126 C   0  0  0  0  0  0  0  0  0  0  0  0
   -9.6276    5.9679  -14.0493 O   0  0  0  0  0  0  0  0  0  0  0  0
   -8.1420    4.3076  -12.9967 N   0  0  0  0  0  0  0  0  0  0  0  0
   -7.5494    3.5889  -13.3152 H   0  0  0  0  0  0  0  0  0  0  0  0
   -8.2254    4.4234  -11.6106 C   0  0  0  0  0  0  0  0  0  0  0  0
   -7.9929    5.6503  -10.9696 C   0  0  0  0  0  0  0  0  0  0  0  0
   -8.0421    5.7511   -9.5744 C   0  0  0  0  0  0  0  0  0  0  0  0
   -8.3509    4.6181   -8.8434 C   0  0  0  0  0  0  0  0  0  0  0  0
   -8.5942    3.4077   -9.4753 C   0  0  0  0  0  0  0  0  0  0  0  0
   -8.5155    3.2882  -10.8549 C   0  0  0  0  0  0  0  0  0  0  0  0
   -8.9427    2.3746   -8.4602 C   0  0  0  0  0  0  0  0  0  0  0  0
   -8.7931    3.0249   -7.1283 N   0  0  0  0  0  0  0  0  0  0  0  0
   -8.5168    4.4562   -7.3732 C   0  0  0  0  0  0  0  0  0  0  0  0
   -8.0188    2.6014   -6.6170 H   0  0  0  0  0  0  0  0  0  0  0  0
   -3.7445    5.5520  -19.0041 C   0  0  0  0  0  0  0  0  0  0  0  0
   -3.0307    6.8630  -20.9207 C   0  0  0  0  0  0  0  0  0  0  0  0
   -3.7722    6.8649  -19.6653 N   0  0  0  0  0  0  0  0  0  0  0  0
   -4.7420    7.1164  -19.8566 H   0  0  0  0  0  0  0  0  0  0  0  0
 37 38  1  0  0  0
 38 36  1  0  0  0
 36  1  1  0  0  0
  1  2  2  0  0  0
  2  3  1  0  0  0
  3  4  1  0  0  0
  4  5  2  0  0  0
  5  6  1  0  0  0
  6 22  1  0  0  0
 22 23  2  0  0  0
 22 24  1  0  0  0
 24 26  1  0  0  0
 26 27  2  0  0  0
 27 28  1  0  0  0
 28 29  2  0  0  0
 29 30  1  0  0  0
 30 31  2  0  0  0
 30 32  1  0  0  0
 32 33  1  0  0  0
 33 34  1  0  0  0
  6  7  2  0  0  0
  7  8  1  0  0  0
  8  9  2  0  0  0
  9 12  1  0  0  0
 12 13  2  0  0  0
 13 14  1  0  0  0
 14 15  2  0  0  0
 15 20  1  0  0  0
 20 21  1  0  0  0
 15 16  1  0  0  0
 16 17  1  0  0  0
 17 18  1  0  0  0
  9 10  1  0  0  0
 10 11  1  0  0  0
 10  1  1  0  0  0
 11  3  2  0  0  0
 31 26  1  0  0  0
 11  7  1  0  0  0
 34 29  1  0  0  0
 17 12  1  0  0  0
 38 39  1  0  0  0
 24 25  1  0  0  0
 33 35  1  0  0  0
 16 19  1  0  0  0
M  END
> <minimizedAffinity>
-8.07676

> <minimizedRMSD>
1.09518

$$$$
P467


 30 34  0  0  0  0  0  0  0  0999 V2000
   -6.2117    4.9420  -17.9499 C   0  0  0  0  0  0  0  0  0  0  0  0
   -7.5643    4.9100  -17.8847 N   0  0  0  0  0  0  0  0  0  0  0  0
   -7.8748    4.8448  -16.5418 C   0  0  0  0  0  0  0  0  0  0  0  0
   -8.9659    4.8203  -15.6957 C   0  0  0  0  0  0  0  0  0  0  0  0
   -8.6601    4.8739  -14.2895 C   0  0  0  0  0  0  0  0  0  0  0  0
   -7.3293    4.9157  -13.7272 C   0  0  0  0  0  0  0  0  0  0  0  0
   -6.2736    4.8523  -14.6283 C   0  0  0  0  0  0  0  0  0  0  0  0
   -4.8755    4.8227  -14.7198 N   0  0  0  0  0  0  0  0  0  0  0  0
   -4.5658    4.7734  -16.0347 C   0  0  0  0  0  0  0  0  0  0  0  0
   -3.2088    4.6332  -16.6038 C   0  0  0  0  0  0  0  0  0  0  0  0
   -5.7146    4.8106  -16.7229 N   0  0  0  0  0  0  0  0  0  0  0  0
   -6.7023    4.8280  -15.8961 C   0  0  0  0  0  0  0  0  0  0  0  0
   -7.1266    5.1655  -12.2921 C   0  0  0  0  0  0  0  0  0  0  0  0
   -6.3317    5.9545  -11.9645 O   0  0  0  0  0  0  0  0  0  0  0  0
   -8.1361    4.3525  -11.4517 N   0  0  0  0  0  0  0  0  0  0  0  0
   -8.7596    3.8006  -11.9770 H   0  0  0  0  0  0  0  0  0  0  0  0
   -8.3074    4.2733  -10.0753 C   0  0  0  0  0  0  0  0  0  0  0  0
   -8.0435    5.3734   -9.2444 C   0  0  0  0  0  0  0  0  0  0  0  0
   -8.2525    5.2910   -7.8640 C   0  0  0  0  0  0  0  0  0  0  0  0
   -8.7115    4.0956   -7.3437 C   0  0  0  0  0  0  0  0  0  0  0  0
   -8.9611    3.0039   -8.1686 C   0  0  0  0  0  0  0  0  0  0  0  0
   -8.7797    3.0775   -9.5369 C   0  0  0  0  0  0  0  0  0  0  0  0
   -9.3537    1.8379   -7.3294 C   0  0  0  0  0  0  0  0  0  0  0  0
   -9.6690    2.4065   -5.9994 N   0  0  0  0  0  0  0  0  0  0  0  0
   -8.9754    3.7052   -5.9283 C   0  0  0  0  0  0  0  0  0  0  0  0
   -9.3340    1.7865   -5.2620 H   0  0  0  0  0  0  0  0  0  0  0  0
   -5.3901    5.1541  -19.1436 C   0  0  0  0  0  0  0  0  0  0  0  0
   -5.7867    7.5765  -19.4223 C   0  0  0  0  0  0  0  0  0  0  0  0
   -5.8480    6.2529  -19.9998 N   0  0  0  0  0  0  0  0  0  0  0  0
   -5.2719    6.2531  -20.8416 H   0  0  0  0  0  0  0  0  0  0  0  0
 28 29  1  0  0  0
 29 27  1  0  0  0
 27  1  1  0  0  0
  1  2  2  0  0  0
  2  3  1  0  0  0
  3  4  1  0  0  0
  4  5  2  0  0  0
  5  6  1  0  0  0
  6 13  1  0  0  0
 13 14  2  0  0  0
 13 15  1  0  0  0
 15 17  1  0  0  0
 17 18  2  0  0  0
 18 19  1  0  0  0
 19 20  2  0  0  0
 20 21  1  0  0  0
 21 22  2  0  0  0
 21 23  1  0  0  0
 23 24  1  0  0  0
 24 25  1  0  0  0
  6  7  2  0  0  0
  7  8  1  0  0  0
  8  9  2  0  0  0
  9 10  1  0  0  0
  9 11  1  0  0  0
 11 12  1  0  0  0
 11  1  1  0  0  0
 12  3  2  0  0  0
 22 17  1  0  0  0
 12  7  1  0  0  0
 25 20  1  0  0  0
 29 30  1  0  0  0
 15 16  1  0  0  0
 24 26  1  0  0  0
M  END
> <minimizedAffinity>
-7.73244

> <minimizedRMSD>
0.49268

$$$$
P472


 20 21  0  0  0  0  0  0  0  0999 V2000
   -5.1234    5.2632  -18.4751 C   0  0  0  0  0  0  0  0  0  0  0  0
   -6.2336    4.7480  -18.9705 N   0  0  0  0  0  0  0  0  0  0  0  0
   -6.9993    4.4405  -17.7154 C   0  0  0  0  0  0  0  0  0  0  0  0
   -8.5115    4.4130  -17.8172 C   0  0  0  0  0  0  0  0  0  0  0  0
   -8.9693    5.5266  -18.5929 N   0  0  0  0  0  0  0  0  0  0  0  0
   -9.1646    4.4647  -16.4324 C   0  0  0  0  0  0  0  0  0  0  0  0
   -8.4805    5.3247  -15.3577 C   0  0  0  0  0  0  0  0  0  0  0  0
   -6.9521    5.1762  -15.3339 C   0  0  0  0  0  0  0  0  0  0  0  0
   -6.4687    5.4670  -16.7231 C   0  0  0  0  0  0  0  0  0  0  0  0
   -5.0786    5.2783  -17.0814 N   0  0  0  0  0  0  0  0  0  0  0  0
   -8.6995    6.3957  -18.1322 H   0  0  0  0  0  0  0  0  0  0  0  0
   -9.9851    5.4876  -18.6772 H   0  0  0  0  0  0  0  0  0  0  0  0
   -4.1173    5.9113  -19.3777 C   0  0  0  0  0  0  0  0  0  0  0  0
   -2.0440    4.4047  -19.9029 N   0  0  0  0  0  0  0  0  0  0  0  0
   -2.9762    5.0524  -19.6484 C   0  0  0  0  0  0  0  0  0  0  0  0
   -4.1265    6.0724  -16.4563 O   0  0  0  0  0  0  0  0  0  0  0  0
   -3.1726    5.1806  -15.8479 C   0  0  0  0  0  0  0  0  0  0  0  0
   -1.9779    5.3485  -16.4539 F   0  0  0  0  0  0  0  0  0  0  0  0
   -3.0343    5.4491  -14.5338 F   0  0  0  0  0  0  0  0  0  0  0  0
   -3.5596    3.8976  -16.0154 F   0  0  0  0  0  0  0  0  0  0  0  0
 14 15  3  0  0  0
 15 13  1  0  0  0
 13  1  1  0  0  0
  1  2  2  0  0  0
  3  2  1  0  0  0
  3  4  1  0  0  0
  4  5  1  0  0  0
  4  6  1  0  0  0
  6  7  1  0  0  0
  7  8  1  0  0  0
  9  8  1  0  0  0
  9 10  1  0  0  0
 10 16  1  0  0  0
 16 17  1  0  0  0
 17 18  1  0  0  0
 17 19  1  0  0  0
 17 20  1  0  0  0
 10  1  1  0  0  0
  9  3  1  0  0  0
  5 11  1  0  0  0
  5 12  1  0  0  0
M  END
> <minimizedAffinity>
-4.43625

> <minimizedRMSD>
1.04189

$$$$
P477


 18 19  0  0  0  0  0  0  0  0999 V2000
   -5.5966    6.0974  -18.3565 C   0  0  0  0  0  0  0  0  0  0  0  0
   -5.1571    5.1681  -19.3636 N   0  0  0  0  0  0  0  0  0  0  0  0
   -5.0731    4.2376  -18.9542 H   0  0  0  0  0  0  0  0  0  0  0  0
   -4.2505    5.4631  -19.7261 H   0  0  0  0  0  0  0  0  0  0  0  0
   -3.3360    5.4888  -17.2371 C   0  0  0  0  0  0  0  0  0  0  0  0
   -2.5543    5.4658  -16.0715 C   0  0  0  0  0  0  0  0  0  0  0  0
   -2.8836    6.2638  -14.9811 C   0  0  0  0  0  0  0  0  0  0  0  0
   -3.9368    7.1594  -15.0870 C   0  0  0  0  0  0  0  0  0  0  0  0
   -4.7067    7.1944  -16.2477 C   0  0  0  0  0  0  0  0  0  0  0  0
   -4.5213    6.2633  -17.2812 C   0  0  0  0  0  0  0  0  0  0  0  0
   -2.3948    4.1440  -19.2608 N   0  0  0  0  0  0  0  0  0  0  0  0
   -2.8409    4.7275  -18.3569 C   0  0  0  0  0  0  0  0  0  0  0  0
   -7.0317    5.6201  -17.9147 C   0  0  0  0  0  0  0  0  0  0  0  0
   -7.5332    4.4544  -18.7809 C   0  0  0  0  0  0  0  0  0  0  0  0
   -8.9995    4.1641  -18.6150 C   0  0  0  0  0  0  0  0  0  0  0  0
   -9.5253    4.4233  -17.2331 C   0  0  0  0  0  0  0  0  0  0  0  0
   -8.4569    4.3289  -16.1671 C   0  0  0  0  0  0  0  0  0  0  0  0
   -7.2284    5.2006  -16.4371 C   0  0  0  0  0  0  0  0  0  0  0  0
 11 12  3  0  0  0
 12  5  1  0  0  0
  5  6  2  0  0  0
  6  7  1  0  0  0
  7  8  2  0  0  0
  8  9  1  0  0  0
  9 10  2  0  0  0
 10  1  1  0  0  0
  1  2  1  0  0  0
  1 13  1  0  0  0
 13 14  1  0  0  0
 14 15  1  0  0  0
 15 16  1  0  0  0
 16 17  1  0  0  0
 17 18  1  0  0  0
 10  5  1  0  0  0
 18 13  1  0  0  0
  2  3  1  0  0  0
  2  4  1  0  0  0
M  END
> <minimizedAffinity>
-4.68469

> <minimizedRMSD>
0.87934

$$$$
P478


 13 14  0  0  0  0  0  0  0  0999 V2000
   -8.2294    4.5907  -15.6725 C   0  0  0  0  0  0  0  0  0  0  0  0
   -7.2001    4.5486  -16.6841 N   0  0  0  0  0  0  0  0  0  0  0  0
   -7.4100    4.5258  -18.0681 C   0  0  0  0  0  0  0  0  0  0  0  0
   -6.3720    4.9084  -18.8004 N   0  0  0  0  0  0  0  0  0  0  0  0
   -5.2899    4.9293  -17.7973 C   0  0  0  0  0  0  0  0  0  0  0  0
   -4.1105    5.8310  -18.0504 C   0  0  0  0  0  0  0  0  0  0  0  0
   -3.1095    5.5862  -16.9062 C   0  0  0  0  0  0  0  0  0  0  0  0
   -3.7401    5.6920  -15.5024 C   0  0  0  0  0  0  0  0  0  0  0  0
   -5.0669    4.9271  -15.3450 C   0  0  0  0  0  0  0  0  0  0  0  0
   -5.9802    5.3032  -16.4902 C   0  0  0  0  0  0  0  0  0  0  0  0
   -8.6560    4.0335  -18.7539 C   0  0  0  0  0  0  0  0  0  0  0  0
   -9.8955    4.6340  -18.3020 C   0  0  0  0  0  0  0  0  0  0  0  0
  -10.9506    4.9939  -17.9861 N   0  0  0  0  0  0  0  0  0  0  0  0
  1  2  1  0  0  0
  2  3  1  0  0  0
  3 11  1  0  0  0
 11 12  1  0  0  0
 12 13  3  0  0  0
  3  4  2  0  0  0
  4  5  1  0  0  0
  5  6  1  0  0  0
  6  7  1  0  0  0
  7  8  1  0  0  0
  8  9  1  0  0  0
 10  9  1  0  0  0
 10  2  1  0  0  0
 10  5  1  0  0  0
M  END
> <minimizedAffinity>
-4.77187

> <minimizedRMSD>
0.35267

$$$$
P533


 32 36  0  0  0  0  0  0  0  0999 V2000
  -10.6147    4.7896  -17.9355 N   0  0  0  0  0  0  0  0  0  0  0  0
   -9.3036    4.8675  -17.3075 C   0  0  0  0  0  0  0  0  0  0  0  0
   -9.0704    3.8364  -16.2579 C   0  0  0  0  0  0  0  0  0  0  0  0
   -8.9266    4.3650  -14.8523 C   0  0  0  0  0  0  0  0  0  0  0  0
   -7.7084    5.2675  -14.5878 C   0  0  0  0  0  0  0  0  0  0  0  0
   -6.4122    4.7429  -15.2649 C   0  0  0  0  0  0  0  0  0  0  0  0
   -5.1697    4.8892  -14.3734 C   0  0  0  0  0  0  0  0  0  0  0  0
   -3.9315    4.2943  -15.0476 C   0  0  0  0  0  0  0  0  0  0  0  0
   -3.7899    4.6748  -16.5203 C   0  0  0  0  0  0  0  0  0  0  0  0
   -4.7303    5.8236  -16.8800 C   0  0  0  0  0  0  0  0  0  0  0  0
   -4.5011    6.3876  -18.2714 C   0  0  0  0  0  0  0  0  0  0  0  0
   -4.8546    5.4632  -19.3260 N   0  0  0  0  0  0  0  0  0  0  0  0
   -5.8731    4.7015  -19.1470 C   0  0  0  0  0  0  0  0  0  0  0  0
   -6.7252    4.6014  -17.8965 C   0  0  0  0  0  0  0  0  0  0  0  0
   -8.1868    4.8664  -18.3503 C   0  0  0  0  0  0  0  0  0  0  0  0
   -6.2023    5.4207  -16.6888 C   0  0  0  0  0  0  0  0  0  0  0  0
  -11.3372    4.7923  -17.2155 H   0  0  0  0  0  0  0  0  0  0  0  0
  -10.6804    3.9296  -18.4799 H   0  0  0  0  0  0  0  0  0  0  0  0
   -7.6338    5.6946  -13.0909 C   0  0  0  0  0  0  0  0  0  0  0  0
   -7.5184    6.8223  -12.7958 O   0  0  0  0  0  0  0  0  0  0  0  0
   -7.8397    4.4341  -12.1990 N   0  0  0  0  0  0  0  0  0  0  0  0
   -7.8318    3.5786  -12.6862 H   0  0  0  0  0  0  0  0  0  0  0  0
   -8.0324    4.3212  -10.8308 C   0  0  0  0  0  0  0  0  0  0  0  0
   -7.8750    5.3988   -9.9519 C   0  0  0  0  0  0  0  0  0  0  0  0
   -8.2027    5.2560   -8.5981 C   0  0  0  0  0  0  0  0  0  0  0  0
   -8.7352    4.0499   -8.1723 C   0  0  0  0  0  0  0  0  0  0  0  0
   -8.9073    2.9900   -9.0543 C   0  0  0  0  0  0  0  0  0  0  0  0
   -8.5260    3.0923  -10.3766 C   0  0  0  0  0  0  0  0  0  0  0  0
   -9.5439    1.8441   -8.3438 C   0  0  0  0  0  0  0  0  0  0  0  0
  -10.0076    2.3991   -7.0466 N   0  0  0  0  0  0  0  0  0  0  0  0
   -9.2142    3.6292   -6.8225 C   0  0  0  0  0  0  0  0  0  0  0  0
   -9.8428    1.7292   -6.2952 H   0  0  0  0  0  0  0  0  0  0  0  0
  2  1  1  0  0  0
  2  3  1  0  0  0
  3  4  1  0  0  0
  4  5  1  0  0  0
  5 19  1  0  0  0
 19 20  2  0  0  0
 19 21  1  0  0  0
 21 23  1  0  0  0
 23 24  2  0  0  0
 24 25  1  0  0  0
 25 26  2  0  0  0
 26 27  1  0  0  0
 27 28  2  0  0  0
 27 29  1  0  0  0
 29 30  1  0  0  0
 30 31  1  0  0  0
  5  6  1  0  0  0
  6  7  1  0  0  0
  7  8  1  0  0  0
  8  9  1  0  0  0
 10  9  1  0  0  0
 10 11  1  0  0  0
 11 12  1  0  0  0
 12 13  2  0  0  0
 13 14  1  0  0  0
 14 15  1  0  0  0
 16 14  1  0  0  0
 15  2  1  0  0  0
 28 23  1  0  0  0
 16  6  1  0  0  0
 31 26  1  0  0  0
 16 10  1  0  0  0
  1 17  1  0  0  0
  1 18  1  0  0  0
 21 22  1  0  0  0
 30 32  1  0  0  0
M  END
> <minimizedAffinity>
-9.23607

> <minimizedRMSD>
0.39613

$$$$
P583


 30 33  0  0  0  0  0  0  0  0999 V2000
   -3.7611    5.1712  -15.7637 C   0  0  0  0  0  0  0  0  0  0  0  0
   -3.9338    6.2237  -16.8450 C   0  0  0  0  0  0  0  0  0  0  0  0
   -5.0521    5.8427  -17.8121 C   0  0  0  0  0  0  0  0  0  0  0  0
   -6.1619    4.9667  -17.1861 C   0  0  0  0  0  0  0  0  0  0  0  0
   -7.3573    5.1546  -17.9855 N   0  0  0  0  0  0  0  0  0  0  0  0
   -8.2843    4.1606  -18.0098 C   0  0  0  0  0  0  0  0  0  0  0  0
   -8.3785    3.4769  -19.1036 N   0  0  0  0  0  0  0  0  0  0  0  0
   -9.1806    3.8763  -16.8379 C   0  0  0  0  0  0  0  0  0  0  0  0
   -8.9335    4.6672  -15.5677 C   0  0  0  0  0  0  0  0  0  0  0  0
   -7.5314    4.6086  -14.9498 C   0  0  0  0  0  0  0  0  0  0  0  0
   -6.3647    5.3066  -15.7032 C   0  0  0  0  0  0  0  0  0  0  0  0
   -5.0397    5.0635  -14.9199 C   0  0  0  0  0  0  0  0  0  0  0  0
   -7.4943    5.9834  -18.4989 H   0  0  0  0  0  0  0  0  0  0  0  0
   -7.7831    3.6767  -19.8618 H   0  0  0  0  0  0  0  0  0  0  0  0
   -7.6807    5.2392  -13.5421 C   0  0  0  0  0  0  0  0  0  0  0  0
   -7.6279    6.3921  -13.3463 O   0  0  0  0  0  0  0  0  0  0  0  0
   -7.9099    4.0559  -12.5523 N   0  0  0  0  0  0  0  0  0  0  0  0
   -7.8348    3.1608  -12.9553 H   0  0  0  0  0  0  0  0  0  0  0  0
   -8.2027    4.0601  -11.1943 C   0  0  0  0  0  0  0  0  0  0  0  0
   -8.0884    5.2257  -10.4229 C   0  0  0  0  0  0  0  0  0  0  0  0
   -8.3130    5.1900   -9.0430 C   0  0  0  0  0  0  0  0  0  0  0  0
   -8.6639    3.9823   -8.4662 C   0  0  0  0  0  0  0  0  0  0  0  0
   -8.8127    2.8376   -9.2377 C   0  0  0  0  0  0  0  0  0  0  0  0
   -8.5834    2.8542  -10.6020 C   0  0  0  0  0  0  0  0  0  0  0  0
   -9.1771    1.6877   -8.3635 C   0  0  0  0  0  0  0  0  0  0  0  0
   -9.4205    2.2601   -7.0136 N   0  0  0  0  0  0  0  0  0  0  0  0
   -8.9026    3.6441   -7.0348 C   0  0  0  0  0  0  0  0  0  0  0  0
   -8.9297    1.7126   -6.3067 H   0  0  0  0  0  0  0  0  0  0  0  0
   -2.2537    6.8258  -14.4449 C   0  0  0  0  0  0  0  0  0  0  0  0
   -2.5043    5.3940  -14.8999 C   0  0  0  0  0  0  0  0  0  0  0  0
 29 30  1  0  0  0
  1 30  1  0  0  0
  1  2  1  0  0  0
  2  3  1  0  0  0
  4  3  1  0  0  0
  4  5  1  0  0  0
  5  6  1  0  0  0
  6  7  2  0  0  0
  6  8  1  0  0  0
  8  9  1  0  0  0
  9 10  1  0  0  0
 10 15  1  0  0  0
 15 16  2  0  0  0
 15 17  1  0  0  0
 17 19  1  0  0  0
 19 20  2  0  0  0
 20 21  1  0  0  0
 21 22  2  0  0  0
 22 23  1  0  0  0
 23 24  2  0  0  0
 23 25  1  0  0  0
 25 26  1  0  0  0
 26 27  1  0  0  0
 10 11  1  0  0  0
 11 12  1  0  0  0
 12  1  1  0  0  0
 11  4  1  0  0  0
 24 19  1  0  0  0
 27 22  1  0  0  0
  5 13  1  0  0  0
  7 14  1  0  0  0
 17 18  1  0  0  0
 26 28  1  0  0  0
M  END
> <minimizedAffinity>
-8.93417

> <minimizedRMSD>
0.27042

$$$$
P604


 31 35  0  0  0  0  0  0  0  0999 V2000
  -10.7305    4.4464  -17.9878 N   0  0  0  0  0  0  0  0  0  0  0  0
   -9.3984    4.5026  -17.6217 C   0  0  0  0  0  0  0  0  0  0  0  0
   -8.3883    4.4820  -18.5141 C   0  0  0  0  0  0  0  0  0  0  0  0
   -7.0134    4.6484  -17.9812 C   0  0  0  0  0  0  0  0  0  0  0  0
   -5.9640    4.8081  -18.7665 N   0  0  0  0  0  0  0  0  0  0  0  0
   -4.8582    4.7932  -17.7814 C   0  0  0  0  0  0  0  0  0  0  0  0
   -3.6414    5.6247  -18.1133 C   0  0  0  0  0  0  0  0  0  0  0  0
   -2.6145    5.4122  -16.9866 C   0  0  0  0  0  0  0  0  0  0  0  0
   -3.1937    5.5455  -15.5628 C   0  0  0  0  0  0  0  0  0  0  0  0
   -4.5506    4.8486  -15.3494 C   0  0  0  0  0  0  0  0  0  0  0  0
   -5.4659    5.2951  -16.4657 C   0  0  0  0  0  0  0  0  0  0  0  0
   -6.7824    4.7269  -16.6044 N   0  0  0  0  0  0  0  0  0  0  0  0
   -7.8631    4.8642  -15.7476 C   0  0  0  0  0  0  0  0  0  0  0  0
   -9.1207    4.7188  -16.2035 C   0  0  0  0  0  0  0  0  0  0  0  0
  -10.9764    4.3027  -18.9302 H   0  0  0  0  0  0  0  0  0  0  0  0
  -11.4332    4.5501  -17.3061 H   0  0  0  0  0  0  0  0  0  0  0  0
   -7.7113    5.4553  -14.3717 C   0  0  0  0  0  0  0  0  0  0  0  0
   -7.3198    6.5490  -14.2339 O   0  0  0  0  0  0  0  0  0  0  0  0
   -8.1921    4.4189  -13.3206 N   0  0  0  0  0  0  0  0  0  0  0  0
   -8.5494    3.5833  -13.6990 H   0  0  0  0  0  0  0  0  0  0  0  0
   -8.2001    4.4794  -11.9259 C   0  0  0  0  0  0  0  0  0  0  0  0
   -8.0698    5.7133  -11.2611 C   0  0  0  0  0  0  0  0  0  0  0  0
   -8.1091    5.7846   -9.8646 C   0  0  0  0  0  0  0  0  0  0  0  0
   -8.2585    4.6009   -9.1700 C   0  0  0  0  0  0  0  0  0  0  0  0
   -8.3675    3.3676   -9.8057 C   0  0  0  0  0  0  0  0  0  0  0  0
   -8.3574    3.2968  -11.1918 C   0  0  0  0  0  0  0  0  0  0  0  0
   -8.4579    2.2820   -8.7828 C   0  0  0  0  0  0  0  0  0  0  0  0
   -8.4983    3.0232   -7.5402 N   0  0  0  0  0  0  0  0  0  0  0  0
   -8.3316    4.3772   -7.7212 C   0  0  0  0  0  0  0  0  0  0  0  0
   -8.2598    5.2402   -6.8675 O   0  0  0  0  0  0  0  0  0  0  0  0
   -8.6308    2.6035   -6.6596 H   0  0  0  0  0  0  0  0  0  0  0  0
  1  2  1  0  0  0
  2  3  2  0  0  0
  3  4  1  0  0  0
  4  5  2  0  0  0
  5  6  1  0  0  0
  6  7  1  0  0  0
  7  8  1  0  0  0
  8  9  1  0  0  0
  9 10  1  0  0  0
 11 10  1  0  0  0
 11 12  1  0  0  0
 12 13  1  0  0  0
 13 17  1  0  0  0
 17 18  2  0  0  0
 17 19  1  0  0  0
 19 21  1  0  0  0
 21 22  2  0  0  0
 22 23  1  0  0  0
 23 24  2  0  0  0
 24 25  1  0  0  0
 25 26  2  0  0  0
 25 27  1  0  0  0
 27 28  1  0  0  0
 28 29  1  0  0  0
 29 30  2  0  0  0
 13 14  2  0  0  0
 14  2  1  0  0  0
 12  4  1  0  0  0
 26 21  1  0  0  0
 11  6  1  0  0  0
 29 24  1  0  0  0
  1 15  1  0  0  0
  1 16  1  0  0  0
 19 20  1  0  0  0
 28 31  1  0  0  0
M  END
> <minimizedAffinity>
-8.56686

> <minimizedRMSD>
0.52935

$$$$
P689


 20 21  0  0  0  0  0  0  0  0999 V2000
   -4.6581    5.7889  -16.6909 C   0  0  0  0  0  0  0  0  0  0  0  0
   -4.4362    5.4474  -18.0157 C   0  0  0  0  0  0  0  0  0  0  0  0
   -5.4635    4.8600  -18.7160 C   0  0  0  0  0  0  0  0  0  0  0  0
   -6.6558    4.5361  -18.1973 N   0  0  0  0  0  0  0  0  0  0  0  0
   -6.9088    4.8833  -16.9397 C   0  0  0  0  0  0  0  0  0  0  0  0
   -8.1554    4.5668  -16.4077 C   0  0  0  0  0  0  0  0  0  0  0  0
   -8.5101    4.9752  -15.1238 C   0  0  0  0  0  0  0  0  0  0  0  0
   -7.6069    5.6730  -14.3372 C   0  0  0  0  0  0  0  0  0  0  0  0
   -6.3332    5.9421  -14.8297 C   0  0  0  0  0  0  0  0  0  0  0  0
   -5.9511    5.5539  -16.1353 C   0  0  0  0  0  0  0  0  0  0  0  0
   -3.6078    6.3856  -15.9637 N   0  0  0  0  0  0  0  0  0  0  0  0
   -3.0931    5.8590  -15.3103 H   0  0  0  0  0  0  0  0  0  0  0  0
   -2.0795    8.0017  -17.1017 C   0  0  0  0  0  0  0  0  0  0  0  0
   -3.2885    7.8075  -16.1924 C   0  0  0  0  0  0  0  0  0  0  0  0
   -4.4883    8.6265  -16.6627 C   0  0  0  0  0  0  0  0  0  0  0  0
   -9.0174    3.6968  -17.0374 O   0  0  0  0  0  0  0  0  0  0  0  0
   -9.8758    4.3170  -17.9792 C   0  0  0  0  0  0  0  0  0  0  0  0
   -9.4605    4.1215  -19.2422 F   0  0  0  0  0  0  0  0  0  0  0  0
  -11.0933    3.7379  -17.8604 F   0  0  0  0  0  0  0  0  0  0  0  0
  -10.0143    5.6233  -17.7267 F   0  0  0  0  0  0  0  0  0  0  0  0
 13 14  1  0  0  0
 14 15  1  0  0  0
 14 11  1  0  0  0
 11  1  1  0  0  0
  1  2  2  0  0  0
  2  3  1  0  0  0
  3  4  2  0  0  0
  4  5  1  0  0  0
  5  6  2  0  0  0
  6 16  1  0  0  0
 16 17  1  0  0  0
 17 18  1  0  0  0
 17 19  1  0  0  0
 17 20  1  0  0  0
  6  7  1  0  0  0
  7  8  2  0  0  0
  8  9  1  0  0  0
  9 10  2  0  0  0
 10  1  1  0  0  0
 10  5  1  0  0  0
 11 12  1  0  0  0
M  END
> <minimizedAffinity>
-5.03893

> <minimizedRMSD>
0.75772

$$$$
P695


 22 24  0  0  0  0  0  0  0  0999 V2000
   -5.4965    5.2156  -20.1161 N   0  0  0  0  0  0  0  0  0  0  0  0
   -5.5215    5.1691  -18.7168 C   0  0  0  0  0  0  0  0  0  0  0  0
   -4.3110    5.2235  -17.9869 C   0  0  0  0  0  0  0  0  0  0  0  0
   -4.2680    5.0027  -16.5938 C   0  0  0  0  0  0  0  0  0  0  0  0
   -5.4426    4.7075  -15.9331 C   0  0  0  0  0  0  0  0  0  0  0  0
   -6.5951    4.6359  -16.6584 C   0  0  0  0  0  0  0  0  0  0  0  0
   -7.6127    4.3193  -15.8123 C   0  0  0  0  0  0  0  0  0  0  0  0
   -8.8832    4.1525  -16.3252 C   0  0  0  0  0  0  0  0  0  0  0  0
   -9.0862    4.2839  -17.7010 C   0  0  0  0  0  0  0  0  0  0  0  0
   -8.0151    4.6030  -18.5501 C   0  0  0  0  0  0  0  0  0  0  0  0
   -6.7150    4.8193  -18.0344 C   0  0  0  0  0  0  0  0  0  0  0  0
   -7.0956    4.2176  -14.3987 C   0  0  0  0  0  0  0  0  0  0  0  0
   -7.3570    2.9243  -13.8704 O   0  0  0  0  0  0  0  0  0  0  0  0
   -5.6002    4.3283  -14.5759 N   0  0  0  0  0  0  0  0  0  0  0  0
   -4.6662    5.4588  -20.5858 H   0  0  0  0  0  0  0  0  0  0  0  0
   -6.3093    5.0051  -20.6302 H   0  0  0  0  0  0  0  0  0  0  0  0
   -8.3122    2.8146  -13.7420 H   0  0  0  0  0  0  0  0  0  0  0  0
   -4.8971    4.1730  -13.9045 H   0  0  0  0  0  0  0  0  0  0  0  0
   -7.6933    5.3623  -13.5042 C   0  0  0  0  0  0  0  0  0  0  0  0
   -7.7091    6.5494  -14.1740 F   0  0  0  0  0  0  0  0  0  0  0  0
   -8.9688    5.1248  -13.1078 F   0  0  0  0  0  0  0  0  0  0  0  0
   -6.9516    5.5724  -12.3882 F   0  0  0  0  0  0  0  0  0  0  0  0
  1  2  1  0  0  0
  2  3  2  0  0  0
  3  4  1  0  0  0
  4  5  2  0  0  0
  5  6  1  0  0  0
  6  7  2  0  0  0
  7  8  1  0  0  0
  8  9  2  0  0  0
  9 10  1  0  0  0
 10 11  2  0  0  0
  7 12  1  0  0  0
 12 13  1  0  0  0
 12 19  1  0  0  0
 19 20  1  0  0  0
 19 21  1  0  0  0
 19 22  1  0  0  0
 12 14  1  0  0  0
 11  2  1  0  0  0
 14  5  1  0  0  0
 11  6  1  0  0  0
  1 15  1  0  0  0
  1 16  1  0  0  0
 13 17  1  0  0  0
 14 18  1  0  0  0
M  END
> <minimizedAffinity>
-7.79670

> <minimizedRMSD>
0.41628

$$$$
P704


 25 29  0  0  0  0  0  0  0  0999 V2000
   -7.2505    4.4545  -15.2338 C   0  0  0  0  0  0  0  0  0  0  0  0
   -8.5284    4.3254  -15.7804 C   0  0  0  0  0  0  0  0  0  0  0  0
   -8.7351    4.4290  -17.1564 C   0  0  0  0  0  0  0  0  0  0  0  0
   -7.6543    4.6654  -17.9983 C   0  0  0  0  0  0  0  0  0  0  0  0
   -6.3770    4.7829  -17.4544 C   0  0  0  0  0  0  0  0  0  0  0  0
   -5.2167    5.0540  -18.3013 C   0  0  0  0  0  0  0  0  0  0  0  0
   -5.1587    5.2975  -19.5868 N   0  0  0  0  0  0  0  0  0  0  0  0
   -3.8109    5.5390  -19.8263 C   0  0  0  0  0  0  0  0  0  0  0  0
   -3.0056    5.4363  -18.7559 C   0  0  0  0  0  0  0  0  0  0  0  0
   -3.8782    5.1206  -17.6832 C   0  0  0  0  0  0  0  0  0  0  0  0
   -3.7505    4.9324  -16.3730 C   0  0  0  0  0  0  0  0  0  0  0  0
   -4.8228    4.6574  -15.5619 N   0  0  0  0  0  0  0  0  0  0  0  0
   -6.1466    4.6669  -16.0655 C   0  0  0  0  0  0  0  0  0  0  0  0
   -4.6690    4.4496  -14.6119 H   0  0  0  0  0  0  0  0  0  0  0  0
   -7.1154    4.2456  -13.8884 O   0  0  0  0  0  0  0  0  0  0  0  0
   -5.8430    5.9789  -13.1536 F   0  0  0  0  0  0  0  0  0  0  0  0
   -7.1034    5.4513  -13.1186 C   0  0  0  0  0  0  0  0  0  0  0  0
   -7.9873    6.4916  -13.5979 O   0  0  0  0  0  0  0  0  0  0  0  0
   -8.4093    7.0094  -12.4105 C   0  0  0  0  0  0  0  0  0  0  0  0
   -9.1136    8.1768  -12.2315 C   0  0  0  0  0  0  0  0  0  0  0  0
   -9.4706    8.4725  -10.9234 C   0  0  0  0  0  0  0  0  0  0  0  0
   -9.1583    7.6922   -9.8523 N   0  0  0  0  0  0  0  0  0  0  0  0
   -8.4561    6.5593  -10.0871 C   0  0  0  0  0  0  0  0  0  0  0  0
   -8.0634    6.2112  -11.3511 C   0  0  0  0  0  0  0  0  0  0  0  0
   -7.3350    5.1333  -11.7265 O   0  0  0  0  0  0  0  0  0  0  0  0
 17 16  1  0  0  0
 17 15  1  0  0  0
 15  1  1  0  0  0
  1  2  2  0  0  0
  2  3  1  0  0  0
  3  4  2  0  0  0
  4  5  1  0  0  0
  5  6  1  0  0  0
  6  7  2  0  0  0
  7  8  1  0  0  0
  8  9  2  0  0  0
  9 10  1  0  0  0
 10 11  2  0  0  0
 11 12  1  0  0  0
 12 13  1  0  0  0
 17 18  1  0  0  0
 18 19  1  0  0  0
 19 20  2  0  0  0
 20 21  1  0  0  0
 21 22  2  0  0  0
 22 23  1  0  0  0
 23 24  2  0  0  0
 24 25  1  0  0  0
 25 17  1  0  0  0
 13  1  1  0  0  0
 24 19  1  0  0  0
 13  5  2  0  0  0
 10  6  1  0  0  0
 12 14  1  0  0  0
M  END
> <minimizedAffinity>
-7.16853

> <minimizedRMSD>
0.42498

$$$$
P710


 21 22  0  0  0  0  0  0  0  0999 V2000
  -10.2173    4.2915  -17.7674 N   0  0  0  0  0  0  0  0  0  0  0  0
   -8.9066    4.4554  -17.3111 C   0  0  0  0  0  0  0  0  0  0  0  0
   -8.6058    4.2947  -15.9727 C   0  0  0  0  0  0  0  0  0  0  0  0
   -7.2929    4.4381  -15.5279 C   0  0  0  0  0  0  0  0  0  0  0  0
   -6.2267    4.6702  -16.4002 C   0  0  0  0  0  0  0  0  0  0  0  0
   -4.9734    4.7848  -15.9102 N   0  0  0  0  0  0  0  0  0  0  0  0
   -3.9714    5.0196  -16.7759 C   0  0  0  0  0  0  0  0  0  0  0  0
   -4.1479    5.1688  -18.1355 C   0  0  0  0  0  0  0  0  0  0  0  0
   -5.4323    5.0534  -18.6611 C   0  0  0  0  0  0  0  0  0  0  0  0
   -5.6202    5.4105  -20.0006 N   0  0  0  0  0  0  0  0  0  0  0  0
   -6.5134    4.7907  -17.7788 C   0  0  0  0  0  0  0  0  0  0  0  0
   -7.8551    4.6287  -18.2066 C   0  0  0  0  0  0  0  0  0  0  0  0
  -10.9514    4.1699  -17.1227 H   0  0  0  0  0  0  0  0  0  0  0  0
  -10.4066    4.2977  -18.7335 H   0  0  0  0  0  0  0  0  0  0  0  0
   -4.8416    5.5839  -20.5777 H   0  0  0  0  0  0  0  0  0  0  0  0
   -6.5310    5.4883  -20.3662 H   0  0  0  0  0  0  0  0  0  0  0  0
   -7.0511    4.2963  -14.1807 O   0  0  0  0  0  0  0  0  0  0  0  0
   -7.5042    5.4434  -13.4796 C   0  0  0  0  0  0  0  0  0  0  0  0
   -7.4030    6.5722  -14.2190 F   0  0  0  0  0  0  0  0  0  0  0  0
   -8.7943    5.3021  -13.0886 F   0  0  0  0  0  0  0  0  0  0  0  0
   -6.7525    5.6053  -12.3667 F   0  0  0  0  0  0  0  0  0  0  0  0
  1  2  1  0  0  0
  2  3  2  0  0  0
  3  4  1  0  0  0
  4 17  1  0  0  0
 17 18  1  0  0  0
 18 19  1  0  0  0
 18 20  1  0  0  0
 18 21  1  0  0  0
  4  5  2  0  0  0
  5  6  1  0  0  0
  6  7  2  0  0  0
  7  8  1  0  0  0
  8  9  2  0  0  0
  9 10  1  0  0  0
  9 11  1  0  0  0
 11 12  2  0  0  0
 12  2  1  0  0  0
 11  5  1  0  0  0
  1 13  1  0  0  0
  1 14  1  0  0  0
 10 15  1  0  0  0
 10 16  1  0  0  0
M  END
> <minimizedAffinity>
-6.59387

> <minimizedRMSD>
0.28288

$$$$
P711


 32 33  0  0  0  0  0  0  0  0999 V2000
   -6.2519    5.5721  -13.1487 C   0  0  0  0  0  0  0  0  0  0  0  0
   -5.1643    5.1181  -12.4501 F   0  0  0  0  0  0  0  0  0  0  0  0
   -5.8573    6.9207  -13.7152 N   0  0  0  0  0  0  0  0  0  0  0  0
   -6.6066    7.3293  -14.6070 O   0  0  0  0  0  0  0  0  0  0  0  0
   -7.2731    5.7660  -12.0471 N   0  0  0  0  0  0  0  0  0  0  0  0
   -9.5697    8.6944  -12.9478 C   0  0  0  0  0  0  0  0  0  0  0  0
   -9.2704    7.2191  -13.1111 C   0  0  0  0  0  0  0  0  0  0  0  0
   -9.8719    6.5094  -13.8191 O   0  0  0  0  0  0  0  0  0  0  0  0
   -8.0408    6.9281  -12.1956 N   0  0  0  0  0  0  0  0  0  0  0  0
   -7.7590    7.6838  -11.6310 H   0  0  0  0  0  0  0  0  0  0  0  0
   -8.1214    4.5733  -11.9080 C   0  0  0  0  0  0  0  0  0  0  0  0
   -8.1369    4.1483  -10.4391 C   0  0  0  0  0  0  0  0  0  0  0  0
   -7.5415    2.7633  -10.1942 C   0  0  0  0  0  0  0  0  0  0  0  0
   -6.2437    2.4781  -10.9394 C   0  0  0  0  0  0  0  0  0  0  0  0
   -6.3440    1.3420  -11.8676 N   0  0  0  0  0  0  0  0  0  0  0  0
   -6.5610    0.4937  -11.3445 H   0  0  0  0  0  0  0  0  0  0  0  0
   -5.4565    1.2227  -12.3560 H   0  0  0  0  0  0  0  0  0  0  0  0
   -7.0840    1.5217  -12.5462 H   0  0  0  0  0  0  0  0  0  0  0  0
   -6.6480    4.4747  -13.9723 O   0  0  0  0  0  0  0  0  0  0  0  0
   -6.8189    4.5230  -15.3233 C   0  0  0  0  0  0  0  0  0  0  0  0
   -8.1700    4.3443  -15.6426 C   0  0  0  0  0  0  0  0  0  0  0  0
   -8.6286    4.4147  -16.9407 C   0  0  0  0  0  0  0  0  0  0  0  0
   -7.7145    4.6699  -17.9432 C   0  0  0  0  0  0  0  0  0  0  0  0
   -6.3387    4.8387  -17.6669 C   0  0  0  0  0  0  0  0  0  0  0  0
   -5.4062    5.1320  -18.6917 C   0  0  0  0  0  0  0  0  0  0  0  0
   -5.7922    5.2009  -20.0443 N   0  0  0  0  0  0  0  0  0  0  0  0
   -4.0521    5.1341  -18.3799 C   0  0  0  0  0  0  0  0  0  0  0  0
   -3.6791    4.9466  -17.0650 C   0  0  0  0  0  0  0  0  0  0  0  0
   -4.5473    4.7459  -16.0518 N   0  0  0  0  0  0  0  0  0  0  0  0
   -5.8678    4.7083  -16.3307 C   0  0  0  0  0  0  0  0  0  0  0  0
   -6.7470    5.2005  -20.2844 H   0  0  0  0  0  0  0  0  0  0  0  0
   -5.1073    5.2494  -20.7498 H   0  0  0  0  0  0  0  0  0  0  0  0
  6  7  1  0  0  0
  7  8  2  0  0  0
  7  9  1  0  0  0
  9  5  1  0  0  0
  5 11  1  0  0  0
 11 12  1  0  0  0
 12 13  1  0  0  0
 13 14  1  0  0  0
 14 15  1  0  0  0
  5  1  1  0  0  0
  1  2  1  0  0  0
  1  3  1  0  0  0
  3  4  2  0  0  0
  1 19  1  0  0  0
 19 20  1  0  0  0
 20 21  2  0  0  0
 21 22  1  0  0  0
 22 23  2  0  0  0
 23 24  1  0  0  0
 24 25  2  0  0  0
 25 26  1  0  0  0
 25 27  1  0  0  0
 27 28  2  0  0  0
 28 29  1  0  0  0
 29 30  2  0  0  0
 30 20  1  0  0  0
 30 24  1  0  0  0
  9 10  1  0  0  0
 15 16  1  0  0  0
 15 17  1  0  0  0
 15 18  1  0  0  0
 26 31  1  0  0  0
 26 32  1  0  0  0
M  CHG 1  15   1
M  END
> <minimizedAffinity>
-6.30434

> <minimizedRMSD>
0.82708

$$$$
P719


 37 40  0  0  0  0  0  0  0  0999 V2000
   -7.3742    4.3905  -15.6016 C   0  0  0  0  0  0  0  0  0  0  0  0
   -8.6352    4.2396  -16.1657 C   0  0  0  0  0  0  0  0  0  0  0  0
   -8.7791    4.3870  -17.5295 C   0  0  0  0  0  0  0  0  0  0  0  0
  -10.3278    4.2780  -18.2357 Cl  0  0  0  0  0  0  0  0  0  0  0  0
   -7.6820    4.6959  -18.3226 C   0  0  0  0  0  0  0  0  0  0  0  0
   -6.3952    4.8427  -17.7656 C   0  0  0  0  0  0  0  0  0  0  0  0
   -5.2434    5.1723  -18.5235 C   0  0  0  0  0  0  0  0  0  0  0  0
   -4.0082    5.2059  -17.8711 C   0  0  0  0  0  0  0  0  0  0  0  0
   -3.9562    4.9744  -16.5159 C   0  0  0  0  0  0  0  0  0  0  0  0
   -5.0380    4.7268  -15.7642 N   0  0  0  0  0  0  0  0  0  0  0  0
   -6.2368    4.6479  -16.3722 C   0  0  0  0  0  0  0  0  0  0  0  0
   -5.3288    5.6459  -19.8579 N   0  0  0  0  0  0  0  0  0  0  0  0
   -6.0465    5.3197  -20.4476 H   0  0  0  0  0  0  0  0  0  0  0  0
   -4.3980    6.5751  -20.3421 O   0  0  0  0  0  0  0  0  0  0  0  0
   -4.9268    7.8959  -20.1552 C   0  0  0  0  0  0  0  0  0  0  0  0
   -5.4390    8.6293  -21.3763 C   0  0  0  0  0  0  0  0  0  0  0  0
   -5.6001   10.0248  -21.3242 C   0  0  0  0  0  0  0  0  0  0  0  0
   -5.9507   10.7484  -22.4659 C   0  0  0  0  0  0  0  0  0  0  0  0
   -6.1423   10.0872  -23.6766 C   0  0  0  0  0  0  0  0  0  0  0  0
   -5.9945    8.7039  -23.7418 C   0  0  0  0  0  0  0  0  0  0  0  0
   -5.6386    7.9826  -22.6000 C   0  0  0  0  0  0  0  0  0  0  0  0
   -7.2556    4.2336  -14.2390 O   0  0  0  0  0  0  0  0  0  0  0  0
   -7.9817    5.2524  -13.5531 C   0  0  0  0  0  0  0  0  0  0  0  0
   -8.7063    5.9583  -14.4673 F   0  0  0  0  0  0  0  0  0  0  0  0
   -8.8705    4.6262  -12.7372 F   0  0  0  0  0  0  0  0  0  0  0  0
   -7.1977    6.1464  -12.7670 O   0  0  0  0  0  0  0  0  0  0  0  0
   -7.2294    9.7490  -13.1786 C   0  0  0  0  0  0  0  0  0  0  0  0
   -8.3532   10.1259  -12.4375 C   0  0  0  0  0  0  0  0  0  0  0  0
   -9.1036    9.1632  -11.7608 C   0  0  0  0  0  0  0  0  0  0  0  0
   -8.7509    7.8125  -11.8286 C   0  0  0  0  0  0  0  0  0  0  0  0
   -7.6415    7.4195  -12.5730 C   0  0  0  0  0  0  0  0  0  0  0  0
   -6.8774    8.3930  -13.2263 C   0  0  0  0  0  0  0  0  0  0  0  0
   -6.4234   10.7706  -13.9419 C   0  0  0  0  0  0  0  0  0  0  0  0
   -5.6758   10.6769  -16.3166 N   0  0  0  0  0  0  0  0  0  0  0  0
   -5.5069   10.1079  -14.9792 C   0  0  0  0  0  0  0  0  0  0  0  0
   -5.0482   10.2059  -16.9682 H   0  0  0  0  0  0  0  0  0  0  0  0
   -5.4563   11.6727  -16.2927 H   0  0  0  0  0  0  0  0  0  0  0  0
 34 35  1  0  0  0
 35 33  1  0  0  0
 33 27  1  0  0  0
 27 28  2  0  0  0
 28 29  1  0  0  0
 29 30  2  0  0  0
 30 31  1  0  0  0
 31 26  1  0  0  0
 26 23  1  0  0  0
 23 24  1  0  0  0
 23 25  1  0  0  0
 23 22  1  0  0  0
 22  1  1  0  0  0
  1  2  2  0  0  0
  2  3  1  0  0  0
  3  4  1  0  0  0
  3  5  2  0  0  0
  5  6  1  0  0  0
  6  7  2  0  0  0
  7 12  1  0  0  0
 12 14  1  0  0  0
 14 15  1  0  0  0
 15 16  1  0  0  0
 16 17  2  0  0  0
 17 18  1  0  0  0
 18 19  2  0  0  0
 19 20  1  0  0  0
 20 21  2  0  0  0
  7  8  1  0  0  0
  8  9  2  0  0  0
  9 10  1  0  0  0
 10 11  2  0  0  0
 31 32  2  0  0  0
 32 27  1  0  0  0
 11  1  1  0  0  0
 11  6  1  0  0  0
 21 16  1  0  0  0
 34 36  1  0  0  0
 34 37  1  0  0  0
 12 13  1  0  0  0
M  END
> <minimizedAffinity>
-6.47848

> <minimizedRMSD>
0.95943

$$$$
P720


 38 41  0  0  0  0  0  0  0  0999 V2000
   -7.2471    4.3930  -15.5492 C   0  0  0  0  0  0  0  0  0  0  0  0
   -8.5482    4.2304  -16.0144 C   0  0  0  0  0  0  0  0  0  0  0  0
   -8.8033    4.3750  -17.3617 C   0  0  0  0  0  0  0  0  0  0  0  0
  -10.4049    4.3745  -17.9351 Cl  0  0  0  0  0  0  0  0  0  0  0  0
   -7.7705    4.6159  -18.2473 C   0  0  0  0  0  0  0  0  0  0  0  0
   -6.4521    4.7960  -17.7940 C   0  0  0  0  0  0  0  0  0  0  0  0
   -5.3864    5.0784  -18.6792 C   0  0  0  0  0  0  0  0  0  0  0  0
   -5.5870    5.0793  -20.0717 N   0  0  0  0  0  0  0  0  0  0  0  0
   -4.0950    5.1458  -18.1538 C   0  0  0  0  0  0  0  0  0  0  0  0
   -3.9186    5.0085  -16.7909 C   0  0  0  0  0  0  0  0  0  0  0  0
   -4.9299    4.8000  -15.9226 N   0  0  0  0  0  0  0  0  0  0  0  0
   -6.1788    4.6728  -16.4108 C   0  0  0  0  0  0  0  0  0  0  0  0
   -6.4997    5.0316  -20.4376 H   0  0  0  0  0  0  0  0  0  0  0  0
   -4.8146    5.1276  -20.6802 H   0  0  0  0  0  0  0  0  0  0  0  0
   -7.0043    4.1529  -14.2167 O   0  0  0  0  0  0  0  0  0  0  0  0
   -7.5539    5.1533  -13.3679 C   0  0  0  0  0  0  0  0  0  0  0  0
   -8.7338    4.6936  -12.8553 F   0  0  0  0  0  0  0  0  0  0  0  0
   -6.7320    5.2908  -12.2912 F   0  0  0  0  0  0  0  0  0  0  0  0
   -7.8261    6.4340  -13.9282 O   0  0  0  0  0  0  0  0  0  0  0  0
   -5.6529    9.7721  -12.6575 C   0  0  0  0  0  0  0  0  0  0  0  0
   -5.0739    8.9040  -13.5901 C   0  0  0  0  0  0  0  0  0  0  0  0
   -5.7609    7.7714  -14.0417 C   0  0  0  0  0  0  0  0  0  0  0  0
   -7.0387    7.4879  -13.5643 C   0  0  0  0  0  0  0  0  0  0  0  0
   -7.6216    8.3545  -12.6353 C   0  0  0  0  0  0  0  0  0  0  0  0
   -6.9362    9.4842  -12.1804 C   0  0  0  0  0  0  0  0  0  0  0  0
   -4.9062   10.9918  -12.1714 C   0  0  0  0  0  0  0  0  0  0  0  0
   -3.3525   11.0909  -10.2144 N   0  0  0  0  0  0  0  0  0  0  0  0
   -4.7505   11.0587  -10.6447 C   0  0  0  0  0  0  0  0  0  0  0  0
   -3.3112   11.1349   -9.1962 H   0  0  0  0  0  0  0  0  0  0  0  0
   -2.8942   11.9122  -10.6091 H   0  0  0  0  0  0  0  0  0  0  0  0
   -3.0125    5.2687  -18.9792 O   0  0  0  0  0  0  0  0  0  0  0  0
   -2.6221    6.6376  -19.1148 C   0  0  0  0  0  0  0  0  0  0  0  0
   -2.7206    6.9932  -20.5775 C   0  0  0  0  0  0  0  0  0  0  0  0
   -3.6081    7.9847  -21.0170 C   0  0  0  0  0  0  0  0  0  0  0  0
   -3.7117    8.2927  -22.3752 C   0  0  0  0  0  0  0  0  0  0  0  0
   -2.9307    7.6137  -23.3076 C   0  0  0  0  0  0  0  0  0  0  0  0
   -2.0478    6.6243  -22.8827 C   0  0  0  0  0  0  0  0  0  0  0  0
   -1.9440    6.3134  -21.5259 C   0  0  0  0  0  0  0  0  0  0  0  0
 27 28  1  0  0  0
 28 26  1  0  0  0
 26 20  1  0  0  0
 20 21  2  0  0  0
 21 22  1  0  0  0
 22 23  2  0  0  0
 23 19  1  0  0  0
 19 16  1  0  0  0
 16 17  1  0  0  0
 16 18  1  0  0  0
 16 15  1  0  0  0
 15  1  1  0  0  0
  1  2  2  0  0  0
  2  3  1  0  0  0
  3  4  1  0  0  0
  3  5  2  0  0  0
  5  6  1  0  0  0
  6  7  2  0  0  0
  7  8  1  0  0  0
  7  9  1  0  0  0
  9 31  1  0  0  0
 31 32  1  0  0  0
 32 33  1  0  0  0
 33 34  2  0  0  0
 34 35  1  0  0  0
 35 36  2  0  0  0
 36 37  1  0  0  0
 37 38  2  0  0  0
  9 10  2  0  0  0
 10 11  1  0  0  0
 11 12  2  0  0  0
 23 24  1  0  0  0
 24 25  2  0  0  0
 25 20  1  0  0  0
 12  1  1  0  0  0
 12  6  1  0  0  0
 38 33  1  0  0  0
 27 29  1  0  0  0
 27 30  1  0  0  0
  8 13  1  0  0  0
  8 14  1  0  0  0
M  END
> <minimizedAffinity>
-6.00484

> <minimizedRMSD>
1.84162

$$$$
P723


 31 34  0  0  0  0  0  0  0  0999 V2000
   -6.8043    5.2311  -14.0571 N   0  0  0  0  0  0  0  0  0  0  0  0
   -5.6362    5.0365  -20.1399 N   0  0  0  0  0  0  0  0  0  0  0  0
   -5.3547    4.9368  -18.7754 C   0  0  0  0  0  0  0  0  0  0  0  0
   -4.0430    5.1495  -18.3640 C   0  0  0  0  0  0  0  0  0  0  0  0
   -3.7794    5.2444  -17.0136 C   0  0  0  0  0  0  0  0  0  0  0  0
   -4.7216    5.1675  -16.0548 N   0  0  0  0  0  0  0  0  0  0  0  0
   -6.0065    4.9732  -16.4216 C   0  0  0  0  0  0  0  0  0  0  0  0
   -7.0281    4.9461  -15.4439 C   0  0  0  0  0  0  0  0  0  0  0  0
   -8.3526    4.6890  -15.8152 C   0  0  0  0  0  0  0  0  0  0  0  0
   -8.6804    4.4647  -17.1345 C   0  0  0  0  0  0  0  0  0  0  0  0
   -9.9450    4.1878  -17.4707 F   0  0  0  0  0  0  0  0  0  0  0  0
   -7.7127    4.5462  -18.1157 C   0  0  0  0  0  0  0  0  0  0  0  0
   -6.3680    4.8228  -17.7898 C   0  0  0  0  0  0  0  0  0  0  0  0
   -4.9008    5.1140  -20.7898 H   0  0  0  0  0  0  0  0  0  0  0  0
   -6.5700    5.0292  -20.4516 H   0  0  0  0  0  0  0  0  0  0  0  0
   -6.7822    6.6842  -13.8363 C   0  0  0  0  0  0  0  0  0  0  0  0
   -6.4410    7.4160  -14.9245 F   0  0  0  0  0  0  0  0  0  0  0  0
   -8.0289    7.0933  -13.4689 F   0  0  0  0  0  0  0  0  0  0  0  0
   -5.9438    7.0526  -12.8362 F   0  0  0  0  0  0  0  0  0  0  0  0
   -5.9744    4.4183  -13.2929 N   0  0  0  0  0  0  0  0  0  0  0  0
   -5.0757    4.2128  -13.6382 H   0  0  0  0  0  0  0  0  0  0  0  0
   -6.3562    3.8692  -12.0395 C   0  0  0  0  0  0  0  0  0  0  0  0
   -5.7643    2.6558  -11.6278 C   0  0  0  0  0  0  0  0  0  0  0  0
   -6.1310    2.0343  -10.4280 C   0  0  0  0  0  0  0  0  0  0  0  0
   -7.0678    2.6566   -9.6306 C   0  0  0  0  0  0  0  0  0  0  0  0
   -7.5183    3.9273   -9.9398 C   0  0  0  0  0  0  0  0  0  0  0  0
   -7.2175    4.5255  -11.1493 C   0  0  0  0  0  0  0  0  0  0  0  0
   -8.4285    4.3707   -8.8544 C   0  0  0  0  0  0  0  0  0  0  0  0
   -8.2773    3.3880   -7.7594 N   0  0  0  0  0  0  0  0  0  0  0  0
   -7.9104    2.1562   -8.4974 C   0  0  0  0  0  0  0  0  0  0  0  0
   -9.1511    3.2667   -7.2474 H   0  0  0  0  0  0  0  0  0  0  0  0
  2  3  1  0  0  0
  3  4  2  0  0  0
  4  5  1  0  0  0
  5  6  2  0  0  0
  6  7  1  0  0  0
  7  8  2  0  0  0
  8  1  1  0  0  0
  1 20  1  0  0  0
 20 22  1  0  0  0
 22 23  2  0  0  0
 23 24  1  0  0  0
 24 25  2  0  0  0
 25 26  1  0  0  0
 26 27  2  0  0  0
 26 28  1  0  0  0
 28 29  1  0  0  0
 29 30  1  0  0  0
  1 16  1  0  0  0
 16 17  1  0  0  0
 16 18  1  0  0  0
 16 19  1  0  0  0
  8  9  1  0  0  0
  9 10  2  0  0  0
 10 11  1  0  0  0
 10 12  1  0  0  0
 12 13  2  0  0  0
 13  3  1  0  0  0
 13  7  1  0  0  0
 27 22  1  0  0  0
 30 25  1  0  0  0
  2 14  1  0  0  0
  2 15  1  0  0  0
 20 21  1  0  0  0
 29 31  1  0  0  0
M  END
> <minimizedAffinity>
-6.96831

> <minimizedRMSD>
0.70349

$$$$
P726


 30 33  0  0  0  0  0  0  0  0999 V2000
   -7.9926    4.3302  -14.2584 N   0  0  0  0  0  0  0  0  0  0  0  0
   -5.4783    5.1745  -19.9060 N   0  0  0  0  0  0  0  0  0  0  0  0
   -5.5272    5.1018  -18.4983 C   0  0  0  0  0  0  0  0  0  0  0  0
   -4.3334    5.1947  -17.7915 C   0  0  0  0  0  0  0  0  0  0  0  0
   -4.3666    5.0382  -16.4231 C   0  0  0  0  0  0  0  0  0  0  0  0
   -5.4853    4.7669  -15.7275 N   0  0  0  0  0  0  0  0  0  0  0  0
   -6.6495    4.5930  -16.3930 C   0  0  0  0  0  0  0  0  0  0  0  0
   -7.8566    4.3088  -15.7099 C   0  0  0  0  0  0  0  0  0  0  0  0
   -9.0621    4.1654  -16.4191 C   0  0  0  0  0  0  0  0  0  0  0  0
   -9.1080    4.2790  -17.7887 C   0  0  0  0  0  0  0  0  0  0  0  0
   -7.9329    4.5366  -18.4680 C   0  0  0  0  0  0  0  0  0  0  0  0
   -6.7056    4.7361  -17.8020 C   0  0  0  0  0  0  0  0  0  0  0  0
   -4.6419    5.4322  -20.3569 H   0  0  0  0  0  0  0  0  0  0  0  0
   -6.2806    4.9675  -20.4377 H   0  0  0  0  0  0  0  0  0  0  0  0
   -8.3712    5.7201  -14.0048 C   0  0  0  0  0  0  0  0  0  0  0  0
   -8.8912    5.9227  -12.7700 F   0  0  0  0  0  0  0  0  0  0  0  0
   -7.3238    6.5607  -14.1534 F   0  0  0  0  0  0  0  0  0  0  0  0
   -9.3484    6.1540  -14.8441 F   0  0  0  0  0  0  0  0  0  0  0  0
   -6.9823    3.7245  -13.4651 N   0  0  0  0  0  0  0  0  0  0  0  0
   -6.2432    3.2451  -13.9047 H   0  0  0  0  0  0  0  0  0  0  0  0
   -7.0219    3.8002  -12.0399 C   0  0  0  0  0  0  0  0  0  0  0  0
   -6.1171    4.6317  -11.3490 C   0  0  0  0  0  0  0  0  0  0  0  0
   -6.2007    4.8209   -9.9632 C   0  0  0  0  0  0  0  0  0  0  0  0
   -7.1920    4.1571   -9.2724 C   0  0  0  0  0  0  0  0  0  0  0  0
   -8.0658    3.3033   -9.9320 C   0  0  0  0  0  0  0  0  0  0  0  0
   -7.9996    3.1199  -11.3075 C   0  0  0  0  0  0  0  0  0  0  0  0
   -8.9938    2.6971   -8.9301 C   0  0  0  0  0  0  0  0  0  0  0  0
   -8.8553    3.5289   -7.7118 N   0  0  0  0  0  0  0  0  0  0  0  0
   -7.5255    4.1704   -7.8188 C   0  0  0  0  0  0  0  0  0  0  0  0
   -8.9039    2.9468   -6.8756 H   0  0  0  0  0  0  0  0  0  0  0  0
  2  3  1  0  0  0
  3  4  2  0  0  0
  4  5  1  0  0  0
  5  6  2  0  0  0
  6  7  1  0  0  0
  7  8  2  0  0  0
  8  1  1  0  0  0
  1 19  1  0  0  0
 19 21  1  0  0  0
 21 22  2  0  0  0
 22 23  1  0  0  0
 23 24  2  0  0  0
 24 25  1  0  0  0
 25 26  2  0  0  0
 25 27  1  0  0  0
 27 28  1  0  0  0
 28 29  1  0  0  0
  1 15  1  0  0  0
 15 16  1  0  0  0
 15 17  1  0  0  0
 15 18  1  0  0  0
  8  9  1  0  0  0
  9 10  2  0  0  0
 10 11  1  0  0  0
 11 12  2  0  0  0
 12  3  1  0  0  0
 12  7  1  0  0  0
 26 21  1  0  0  0
 29 24  1  0  0  0
  2 13  1  0  0  0
  2 14  1  0  0  0
 19 20  1  0  0  0
 28 30  1  0  0  0
M  END
> <minimizedAffinity>
-7.68197

> <minimizedRMSD>
0.46907

$$$$
P730


 28 31  0  0  0  0  0  0  0  0999 V2000
   -6.8025    5.3326  -13.8174 N   0  0  0  0  0  0  0  0  0  0  0  0
   -5.6992    4.9042  -19.9443 N   0  0  0  0  0  0  0  0  0  0  0  0
   -5.4369    4.9982  -18.5589 C   0  0  0  0  0  0  0  0  0  0  0  0
   -4.1109    5.0950  -18.1526 C   0  0  0  0  0  0  0  0  0  0  0  0
   -3.8332    5.0874  -16.8011 C   0  0  0  0  0  0  0  0  0  0  0  0
   -4.7658    4.9815  -15.8315 N   0  0  0  0  0  0  0  0  0  0  0  0
   -6.0634    4.8344  -16.1795 C   0  0  0  0  0  0  0  0  0  0  0  0
   -7.0796    4.8233  -15.1615 C   0  0  0  0  0  0  0  0  0  0  0  0
   -8.4007    4.6312  -15.5484 C   0  0  0  0  0  0  0  0  0  0  0  0
   -8.7499    4.4983  -16.8933 C   0  0  0  0  0  0  0  0  0  0  0  0
   -7.7853    4.5935  -17.8890 C   0  0  0  0  0  0  0  0  0  0  0  0
   -6.4340    4.7915  -17.5621 C   0  0  0  0  0  0  0  0  0  0  0  0
   -4.9750    5.0560  -20.5938 H   0  0  0  0  0  0  0  0  0  0  0  0
   -6.6060    4.6868  -20.2600 H   0  0  0  0  0  0  0  0  0  0  0  0
   -7.2403    5.0110  -12.4665 C   0  0  0  0  0  0  0  0  0  0  0  0
   -6.7053    5.7145  -11.3219 C   0  0  0  0  0  0  0  0  0  0  0  0
   -6.8826    5.3516   -9.9842 C   0  0  0  0  0  0  0  0  0  0  0  0
   -7.6565    4.2635   -9.7354 C   0  0  0  0  0  0  0  0  0  0  0  0
   -8.2684    3.5894  -10.7893 C   0  0  0  0  0  0  0  0  0  0  0  0
   -8.0681    3.9249  -12.1505 C   0  0  0  0  0  0  0  0  0  0  0  0
   -9.0780    2.5056  -10.1539 C   0  0  0  0  0  0  0  0  0  0  0  0
   -9.1811    2.8281   -8.7015 N   0  0  0  0  0  0  0  0  0  0  0  0
   -7.9728    3.6150   -8.4301 C   0  0  0  0  0  0  0  0  0  0  0  0
   -9.1935    1.9765   -8.1403 H   0  0  0  0  0  0  0  0  0  0  0  0
   -6.6760    6.7759  -13.9823 C   0  0  0  0  0  0  0  0  0  0  0  0
   -6.5817    7.2617  -15.2386 F   0  0  0  0  0  0  0  0  0  0  0  0
   -7.7802    7.3946  -13.4697 F   0  0  0  0  0  0  0  0  0  0  0  0
   -5.5825    7.2470  -13.3329 F   0  0  0  0  0  0  0  0  0  0  0  0
  2  3  1  0  0  0
  3  4  2  0  0  0
  4  5  1  0  0  0
  5  6  2  0  0  0
  6  7  1  0  0  0
  7  8  2  0  0  0
  8  1  1  0  0  0
  1 15  1  0  0  0
 15 16  2  0  0  0
 16 17  1  0  0  0
 17 18  2  0  0  0
 18 19  1  0  0  0
 19 20  2  0  0  0
 19 21  1  0  0  0
 21 22  1  0  0  0
 22 23  1  0  0  0
  1 25  1  0  0  0
 25 26  1  0  0  0
 25 27  1  0  0  0
 25 28  1  0  0  0
  8  9  1  0  0  0
  9 10  2  0  0  0
 10 11  1  0  0  0
 11 12  2  0  0  0
 12  3  1  0  0  0
 12  7  1  0  0  0
 20 15  1  0  0  0
 23 18  1  0  0  0
  2 13  1  0  0  0
  2 14  1  0  0  0
 22 24  1  0  0  0
M  END
> <minimizedAffinity>
-7.00107

> <minimizedRMSD>
0.70775

$$$$
P734


 37 41  0  0  0  0  0  0  0  0999 V2000
   -8.6922    4.9281  -12.4704 O   0  0  0  0  0  0  0  0  0  0  0  0
   -7.7927    4.7810  -11.4527 C   0  0  0  0  0  0  0  0  0  0  0  0
   -6.5008    4.2716  -11.5628 C   0  0  0  0  0  0  0  0  0  0  0  0
   -5.7022    4.2288  -10.4311 C   0  0  0  0  0  0  0  0  0  0  0  0
   -6.1609    4.6704   -9.1934 C   0  0  0  0  0  0  0  0  0  0  0  0
   -7.4496    5.1634   -9.0475 C   0  0  0  0  0  0  0  0  0  0  0  0
   -8.2575    5.2205  -10.1970 C   0  0  0  0  0  0  0  0  0  0  0  0
   -5.0703    4.4880   -8.1897 C   0  0  0  0  0  0  0  0  0  0  0  0
   -3.8388    4.2122   -8.9754 N   0  0  0  0  0  0  0  0  0  0  0  0
   -4.3070    3.7219  -10.2960 C   0  0  0  0  0  0  0  0  0  0  0  0
   -3.2730    3.5011   -8.5121 H   0  0  0  0  0  0  0  0  0  0  0  0
   -7.9630    5.6412   -7.7545 C   0  0  0  0  0  0  0  0  0  0  0  0
   -7.9081    6.9598   -7.4898 C   0  0  0  0  0  0  0  0  0  0  0  0
   -8.3839    7.6627   -6.2511 C   0  0  0  0  0  0  0  0  0  0  0  0
   -9.3042    6.5859   -5.1660 S   0  0  0  0  0  0  0  0  0  0  0  0
  -10.6600    6.4369   -5.6736 O   0  0  0  0  0  0  0  0  0  0  0  0
   -9.0867    7.0292   -3.8017 O   0  0  0  0  0  0  0  0  0  0  0  0
   -8.4787    5.0278   -5.3614 C   0  0  0  0  0  0  0  0  0  0  0  0
   -8.5014    4.5923   -6.8149 C   0  0  0  0  0  0  0  0  0  0  0  0
   -8.2162    5.2652  -13.7722 C   0  0  0  0  0  0  0  0  0  0  0  0
   -7.3284    6.2949  -13.6817 F   0  0  0  0  0  0  0  0  0  0  0  0
   -9.2889    5.7608  -14.4527 F   0  0  0  0  0  0  0  0  0  0  0  0
   -7.6698    4.1675  -14.4998 O   0  0  0  0  0  0  0  0  0  0  0  0
   -5.4984    5.5811  -20.0121 N   0  0  0  0  0  0  0  0  0  0  0  0
   -5.4837    5.1568  -18.6827 C   0  0  0  0  0  0  0  0  0  0  0  0
   -4.2805    5.2449  -17.9898 C   0  0  0  0  0  0  0  0  0  0  0  0
   -4.2838    5.0189  -16.6315 C   0  0  0  0  0  0  0  0  0  0  0  0
   -5.3924    4.7442  -15.9210 N   0  0  0  0  0  0  0  0  0  0  0  0
   -6.5719    4.6455  -16.5733 C   0  0  0  0  0  0  0  0  0  0  0  0
   -7.7472    4.3667  -15.8606 C   0  0  0  0  0  0  0  0  0  0  0  0
   -8.9777    4.1907  -16.4937 C   0  0  0  0  0  0  0  0  0  0  0  0
   -9.0524    4.3102  -17.8652 C   0  0  0  0  0  0  0  0  0  0  0  0
  -10.2151    4.1145  -18.5010 F   0  0  0  0  0  0  0  0  0  0  0  0
   -7.9223    4.6319  -18.5969 C   0  0  0  0  0  0  0  0  0  0  0  0
   -6.6675    4.8260  -17.9731 C   0  0  0  0  0  0  0  0  0  0  0  0
   -4.6540    5.8010  -20.4680 H   0  0  0  0  0  0  0  0  0  0  0  0
   -6.3532    5.6605  -20.4941 H   0  0  0  0  0  0  0  0  0  0  0  0
 24 25  1  0  0  0
 25 26  2  0  0  0
 26 27  1  0  0  0
 27 28  2  0  0  0
 28 29  1  0  0  0
 29 30  2  0  0  0
 30 23  1  0  0  0
 23 20  1  0  0  0
 20 21  1  0  0  0
 20 22  1  0  0  0
 20  1  1  0  0  0
  1  2  1  0  0  0
  2  3  2  0  0  0
  3  4  1  0  0  0
  4  5  2  0  0  0
  5  6  1  0  0  0
  6 12  1  0  0  0
 12 13  2  0  0  0
 13 14  1  0  0  0
 14 15  1  0  0  0
 15 16  2  0  0  0
 15 17  2  0  0  0
 15 18  1  0  0  0
 18 19  1  0  0  0
  6  7  2  0  0  0
  5  8  1  0  0  0
  8  9  1  0  0  0
  9 10  1  0  0  0
 30 31  1  0  0  0
 31 32  2  0  0  0
 32 33  1  0  0  0
 32 34  1  0  0  0
 34 35  2  0  0  0
 35 25  1  0  0  0
 35 29  1  0  0  0
  7  2  1  0  0  0
 10  4  1  0  0  0
 19 12  1  0  0  0
 24 36  1  0  0  0
 24 37  1  0  0  0
  9 11  1  0  0  0
M  END
> <minimizedAffinity>
-8.77154

> <minimizedRMSD>
3.50844

$$$$
P739


 31 34  0  0  0  0  0  0  0  0999 V2000
   -7.6724    4.9232  -13.3616 C   0  0  0  0  0  0  0  0  0  0  0  0
   -7.3802    6.1438  -13.8905 F   0  0  0  0  0  0  0  0  0  0  0  0
   -9.0144    4.9099  -13.1454 F   0  0  0  0  0  0  0  0  0  0  0  0
   -6.9511    4.8325  -12.1358 O   0  0  0  0  0  0  0  0  0  0  0  0
   -7.6021    5.7611  -10.0597 C   0  0  0  0  0  0  0  0  0  0  0  0
   -8.0264    5.6035   -8.7343 C   0  0  0  0  0  0  0  0  0  0  0  0
   -8.4893    4.3634   -8.3385 C   0  0  0  0  0  0  0  0  0  0  0  0
   -8.5892    3.3086   -9.2429 C   0  0  0  0  0  0  0  0  0  0  0  0
   -8.1819    3.4447  -10.5700 C   0  0  0  0  0  0  0  0  0  0  0  0
   -7.6577    4.6814  -10.9710 C   0  0  0  0  0  0  0  0  0  0  0  0
   -9.0954    2.1006   -8.5147 C   0  0  0  0  0  0  0  0  0  0  0  0
   -9.4512    2.5627   -7.1527 N   0  0  0  0  0  0  0  0  0  0  0  0
   -8.8866    3.9056   -6.9739 C   0  0  0  0  0  0  0  0  0  0  0  0
   -9.0609    1.9267   -6.4573 H   0  0  0  0  0  0  0  0  0  0  0  0
   -6.6053    8.0539  -10.7622 N   0  0  0  0  0  0  0  0  0  0  0  0
   -7.0510    7.0262  -10.4561 C   0  0  0  0  0  0  0  0  0  0  0  0
   -7.3150    3.8920  -14.2758 O   0  0  0  0  0  0  0  0  0  0  0  0
   -7.4856    4.2757  -15.5867 C   0  0  0  0  0  0  0  0  0  0  0  0
   -8.7661    4.1885  -16.1230 C   0  0  0  0  0  0  0  0  0  0  0  0
   -8.9529    4.3855  -17.4739 C   0  0  0  0  0  0  0  0  0  0  0  0
  -10.1729    4.2618  -18.0082 F   0  0  0  0  0  0  0  0  0  0  0  0
   -7.8804    4.6918  -18.2885 C   0  0  0  0  0  0  0  0  0  0  0  0
   -6.5788    4.8275  -17.7583 C   0  0  0  0  0  0  0  0  0  0  0  0
   -5.4587    5.1571  -18.5603 C   0  0  0  0  0  0  0  0  0  0  0  0
   -5.5536    5.2399  -19.9599 N   0  0  0  0  0  0  0  0  0  0  0  0
   -4.1975    5.1682  -17.9729 C   0  0  0  0  0  0  0  0  0  0  0  0
   -4.0965    4.9438  -16.6141 C   0  0  0  0  0  0  0  0  0  0  0  0
   -5.1462    4.6732  -15.8142 N   0  0  0  0  0  0  0  0  0  0  0  0
   -6.3721    4.6011  -16.3730 C   0  0  0  0  0  0  0  0  0  0  0  0
   -6.4369    5.2335  -20.3946 H   0  0  0  0  0  0  0  0  0  0  0  0
   -4.7368    5.3042  -20.5058 H   0  0  0  0  0  0  0  0  0  0  0  0
 15 16  3  0  0  0
 16  5  1  0  0  0
  5  6  2  0  0  0
  6  7  1  0  0  0
  7  8  2  0  0  0
  8  9  1  0  0  0
  9 10  2  0  0  0
 10  4  1  0  0  0
  4  1  1  0  0  0
  1  2  1  0  0  0
  1  3  1  0  0  0
  1 17  1  0  0  0
 17 18  1  0  0  0
 18 19  2  0  0  0
 19 20  1  0  0  0
 20 21  1  0  0  0
 20 22  2  0  0  0
 22 23  1  0  0  0
 23 24  2  0  0  0
 24 25  1  0  0  0
 24 26  1  0  0  0
 26 27  2  0  0  0
 27 28  1  0  0  0
 28 29  2  0  0  0
  8 11  1  0  0  0
 11 12  1  0  0  0
 12 13  1  0  0  0
 10  5  1  0  0  0
 29 18  1  0  0  0
 13  7  1  0  0  0
 29 23  1  0  0  0
 25 30  1  0  0  0
 25 31  1  0  0  0
 12 14  1  0  0  0
M  END
> <minimizedAffinity>
-7.99291

> <minimizedRMSD>
0.39898

$$$$
P743


 37 40  0  0  0  0  0  0  0  0999 V2000
   -2.7906    5.4490  -18.9947 C   0  0  0  0  0  0  0  0  0  0  0  0
   -4.0121    5.2066  -18.1506 C   0  0  0  0  0  0  0  0  0  0  0  0
   -5.2670    5.0585  -18.6220 C   0  0  0  0  0  0  0  0  0  0  0  0
   -5.5901    5.1169  -19.9713 N   0  0  0  0  0  0  0  0  0  0  0  0
   -6.3719    4.8022  -17.6434 C   0  0  0  0  0  0  0  0  0  0  0  0
   -7.6764    4.5888  -18.0856 C   0  0  0  0  0  0  0  0  0  0  0  0
   -8.7008    4.4277  -17.1702 C   0  0  0  0  0  0  0  0  0  0  0  0
   -9.9328    4.2364  -17.6570 F   0  0  0  0  0  0  0  0  0  0  0  0
   -8.4868    4.5291  -15.7912 C   0  0  0  0  0  0  0  0  0  0  0  0
   -7.2147    4.7421  -15.2726 C   0  0  0  0  0  0  0  0  0  0  0  0
   -6.1300    4.7853  -16.2369 C   0  0  0  0  0  0  0  0  0  0  0  0
   -4.7686    4.8323  -15.8471 N   0  0  0  0  0  0  0  0  0  0  0  0
   -3.7108    5.1039  -16.6837 C   0  0  0  0  0  0  0  0  0  0  0  0
   -2.5496    5.2573  -16.3004 O   0  0  0  0  0  0  0  0  0  0  0  0
   -4.8863    5.2838  -20.6392 H   0  0  0  0  0  0  0  0  0  0  0  0
   -6.5229    4.9914  -20.2600 H   0  0  0  0  0  0  0  0  0  0  0  0
   -7.0752    5.2338  -13.9094 N   0  0  0  0  0  0  0  0  0  0  0  0
   -7.5534    4.8717  -12.5802 C   0  0  0  0  0  0  0  0  0  0  0  0
   -8.1444    5.8645  -11.7137 C   0  0  0  0  0  0  0  0  0  0  0  0
   -8.3520    5.7243  -10.3389 C   0  0  0  0  0  0  0  0  0  0  0  0
   -8.0217    4.5311   -9.7742 C   0  0  0  0  0  0  0  0  0  0  0  0
   -7.5635    3.4885  -10.5729 C   0  0  0  0  0  0  0  0  0  0  0  0
   -7.3161    3.6311  -11.9653 C   0  0  0  0  0  0  0  0  0  0  0  0
   -7.3635    2.3202   -9.6571 C   0  0  0  0  0  0  0  0  0  0  0  0
   -7.8737    2.7003   -8.3150 N   0  0  0  0  0  0  0  0  0  0  0  0
   -8.0457    4.1517   -8.3335 C   0  0  0  0  0  0  0  0  0  0  0  0
   -7.2028    2.4339   -7.5944 H   0  0  0  0  0  0  0  0  0  0  0  0
   -6.9064    6.6826  -14.0195 C   0  0  0  0  0  0  0  0  0  0  0  0
   -6.5010    7.1713  -15.2166 F   0  0  0  0  0  0  0  0  0  0  0  0
   -8.1048    7.2910  -13.7934 F   0  0  0  0  0  0  0  0  0  0  0  0
   -6.0118    7.1467  -13.1136 F   0  0  0  0  0  0  0  0  0  0  0  0
   -4.4538    4.7706  -14.4629 O   0  0  0  0  0  0  0  0  0  0  0  0
   -4.0613    3.4299  -14.1334 C   0  0  0  0  0  0  0  0  0  0  0  0
   -3.6525    3.3602  -12.6663 C   0  0  0  0  0  0  0  0  0  0  0  0
   -3.9175    1.9773  -12.0838 C   0  0  0  0  0  0  0  0  0  0  0  0
   -3.1765    0.9916  -12.7936 O   0  0  0  0  0  0  0  0  0  0  0  0
   -3.4456    0.9935  -13.7255 H   0  0  0  0  0  0  0  0  0  0  0  0
  1  2  1  0  0  0
  2  3  2  0  0  0
  3  4  1  0  0  0
  3  5  1  0  0  0
  5  6  2  0  0  0
  6  7  1  0  0  0
  7  8  1  0  0  0
  7  9  2  0  0  0
  9 10  1  0  0  0
 10 17  1  0  0  0
 17 18  1  0  0  0
 18 19  2  0  0  0
 19 20  1  0  0  0
 20 21  2  0  0  0
 21 22  1  0  0  0
 22 23  2  0  0  0
 22 24  1  0  0  0
 24 25  1  0  0  0
 25 26  1  0  0  0
 17 28  1  0  0  0
 28 29  1  0  0  0
 28 30  1  0  0  0
 28 31  1  0  0  0
 10 11  2  0  0  0
 11 12  1  0  0  0
 12 32  1  0  0  0
 32 33  1  0  0  0
 33 34  1  0  0  0
 34 35  1  0  0  0
 35 36  1  0  0  0
 12 13  1  0  0  0
 13 14  2  0  0  0
 13  2  1  0  0  0
 11  5  1  0  0  0
 23 18  1  0  0  0
 26 21  1  0  0  0
  4 15  1  0  0  0
  4 16  1  0  0  0
 25 27  1  0  0  0
 36 37  1  0  0  0
M  END
> <minimizedAffinity>
-7.55689

> <minimizedRMSD>
0.65987

$$$$
P745


 29 32  0  0  0  0  0  0  0  0999 V2000
   -7.3673    4.0812  -14.3678 O   0  0  0  0  0  0  0  0  0  0  0  0
   -5.4949    5.1487  -20.0856 N   0  0  0  0  0  0  0  0  0  0  0  0
   -5.4275    5.1197  -18.6818 C   0  0  0  0  0  0  0  0  0  0  0  0
   -4.1788    5.1606  -18.0699 C   0  0  0  0  0  0  0  0  0  0  0  0
   -4.1056    4.9997  -16.7002 C   0  0  0  0  0  0  0  0  0  0  0  0
   -5.1711    4.7676  -15.9088 N   0  0  0  0  0  0  0  0  0  0  0  0
   -6.3837    4.6561  -16.4894 C   0  0  0  0  0  0  0  0  0  0  0  0
   -7.5120    4.3625  -15.7108 C   0  0  0  0  0  0  0  0  0  0  0  0
   -8.7789    4.2342  -16.2732 C   0  0  0  0  0  0  0  0  0  0  0  0
   -8.9364    4.3672  -17.6367 C   0  0  0  0  0  0  0  0  0  0  0  0
  -10.1430    4.2119  -18.1935 F   0  0  0  0  0  0  0  0  0  0  0  0
   -7.8493    4.6484  -18.4410 C   0  0  0  0  0  0  0  0  0  0  0  0
   -6.5614    4.8168  -17.8888 C   0  0  0  0  0  0  0  0  0  0  0  0
   -4.6913    5.3622  -20.6127 H   0  0  0  0  0  0  0  0  0  0  0  0
   -6.3457    4.9553  -20.5417 H   0  0  0  0  0  0  0  0  0  0  0  0
   -7.7230    5.1965  -13.5553 C   0  0  0  0  0  0  0  0  0  0  0  0
   -7.5120    6.3547  -14.2452 F   0  0  0  0  0  0  0  0  0  0  0  0
   -9.0525    5.1639  -13.2719 F   0  0  0  0  0  0  0  0  0  0  0  0
   -6.9555    5.3140  -12.3640 O   0  0  0  0  0  0  0  0  0  0  0  0
   -7.5246    4.9973  -11.1671 C   0  0  0  0  0  0  0  0  0  0  0  0
   -7.4046    5.9856  -10.1791 C   0  0  0  0  0  0  0  0  0  0  0  0
   -7.7261    5.8367   -8.8719 N   0  0  0  0  0  0  0  0  0  0  0  0
   -8.1801    4.6137   -8.5535 C   0  0  0  0  0  0  0  0  0  0  0  0
   -8.3481    3.5712   -9.4510 C   0  0  0  0  0  0  0  0  0  0  0  0
   -8.0292    3.7516  -10.7960 C   0  0  0  0  0  0  0  0  0  0  0  0
   -8.7966    2.3576   -8.7037 C   0  0  0  0  0  0  0  0  0  0  0  0
   -9.0763    2.7908   -7.3125 N   0  0  0  0  0  0  0  0  0  0  0  0
   -8.5147    4.1468   -7.1642 C   0  0  0  0  0  0  0  0  0  0  0  0
   -8.6332    2.1534   -6.6509 H   0  0  0  0  0  0  0  0  0  0  0  0
  2  3  1  0  0  0
  3  4  2  0  0  0
  4  5  1  0  0  0
  5  6  2  0  0  0
  6  7  1  0  0  0
  7  8  2  0  0  0
  8  1  1  0  0  0
  1 16  1  0  0  0
 16 17  1  0  0  0
 16 18  1  0  0  0
 16 19  1  0  0  0
 19 20  1  0  0  0
 20 21  2  0  0  0
 21 22  1  0  0  0
 22 23  2  0  0  0
 23 24  1  0  0  0
 24 25  2  0  0  0
 24 26  1  0  0  0
 26 27  1  0  0  0
 27 28  1  0  0  0
  8  9  1  0  0  0
  9 10  2  0  0  0
 10 11  1  0  0  0
 10 12  1  0  0  0
 12 13  2  0  0  0
 13  3  1  0  0  0
 13  7  1  0  0  0
 25 20  1  0  0  0
 28 23  1  0  0  0
  2 14  1  0  0  0
  2 15  1  0  0  0
 27 29  1  0  0  0
M  END
> <minimizedAffinity>
-8.07745

> <minimizedRMSD>
0.33118

$$$$
P749


 30 33  0  0  0  0  0  0  0  0999 V2000
   -5.5020    5.1782  -20.1173 N   0  0  0  0  0  0  0  0  0  0  0  0
   -5.4027    5.0919  -18.7427 C   0  0  0  0  0  0  0  0  0  0  0  0
   -4.2506    5.2492  -18.0677 C   0  0  0  0  0  0  0  0  0  0  0  0
   -4.1625    5.1369  -16.5891 C   0  0  0  0  0  0  0  0  0  0  0  0
   -3.1099    5.3498  -15.9929 O   0  0  0  0  0  0  0  0  0  0  0  0
   -5.3040    4.7931  -15.9367 N   0  0  0  0  0  0  0  0  0  0  0  0
   -6.5385    4.6329  -16.5771 C   0  0  0  0  0  0  0  0  0  0  0  0
   -7.6670    4.3301  -15.8139 C   0  0  0  0  0  0  0  0  0  0  0  0
   -8.9035    4.1864  -16.4256 C   0  0  0  0  0  0  0  0  0  0  0  0
   -9.0240    4.3319  -17.8001 C   0  0  0  0  0  0  0  0  0  0  0  0
   -7.8923    4.6085  -18.5650 C   0  0  0  0  0  0  0  0  0  0  0  0
   -6.6328    4.7848  -17.9688 C   0  0  0  0  0  0  0  0  0  0  0  0
   -4.7037    5.3804  -20.6567 H   0  0  0  0  0  0  0  0  0  0  0  0
   -6.3711    5.0376  -20.5578 H   0  0  0  0  0  0  0  0  0  0  0  0
   -5.2605    4.6493  -14.9637 H   0  0  0  0  0  0  0  0  0  0  0  0
   -7.5525    4.0545  -14.4818 O   0  0  0  0  0  0  0  0  0  0  0  0
   -7.9060    5.1719  -13.6703 C   0  0  0  0  0  0  0  0  0  0  0  0
   -7.5383    6.3479  -14.2500 F   0  0  0  0  0  0  0  0  0  0  0  0
   -9.2674    5.2159  -13.5678 F   0  0  0  0  0  0  0  0  0  0  0  0
   -7.4181    5.1311  -12.3419 O   0  0  0  0  0  0  0  0  0  0  0  0
   -6.3026    4.3461  -12.1798 C   0  0  0  0  0  0  0  0  0  0  0  0
   -6.4997    3.1810  -11.4324 C   0  0  0  0  0  0  0  0  0  0  0  0
   -5.4222    2.3299  -11.1986 C   0  0  0  0  0  0  0  0  0  0  0  0
   -4.2031    2.6953  -11.7280 C   0  0  0  0  0  0  0  0  0  0  0  0
   -4.0958    3.8764  -12.4438 C   0  0  0  0  0  0  0  0  0  0  0  0
   -5.1093    4.7296  -12.6919 N   0  0  0  0  0  0  0  0  0  0  0  0
   -2.6652    4.0390  -12.8877 C   0  0  0  0  0  0  0  0  0  0  0  0
   -2.0118    2.7184  -12.6386 N   0  0  0  0  0  0  0  0  0  0  0  0
   -2.8763    2.0282  -11.6495 C   0  0  0  0  0  0  0  0  0  0  0  0
   -1.0735    2.8506  -12.2610 H   0  0  0  0  0  0  0  0  0  0  0  0
  1  2  1  0  0  0
  2  3  2  0  0  0
  3  4  1  0  0  0
  4  5  2  0  0  0
  4  6  1  0  0  0
  6  7  1  0  0  0
  7  8  2  0  0  0
  8 16  1  0  0  0
 16 17  1  0  0  0
 17 18  1  0  0  0
 17 19  1  0  0  0
 17 20  1  0  0  0
 20 21  1  0  0  0
 21 22  2  0  0  0
 22 23  1  0  0  0
 23 24  2  0  0  0
 24 25  1  0  0  0
 25 26  2  0  0  0
 25 27  1  0  0  0
 27 28  1  0  0  0
 28 29  1  0  0  0
  8  9  1  0  0  0
  9 10  2  0  0  0
 10 11  1  0  0  0
 11 12  2  0  0  0
 12  2  1  0  0  0
 12  7  1  0  0  0
 26 21  1  0  0  0
 29 24  1  0  0  0
  1 13  1  0  0  0
  1 14  1  0  0  0
  6 15  1  0  0  0
 28 30  1  0  0  0
M  END
> <minimizedAffinity>
-7.16179

> <minimizedRMSD>
1.11671

$$$$
P755


 29 32  0  0  0  0  0  0  0  0999 V2000
   -7.7109    5.5021  -13.5633 C   0  0  0  0  0  0  0  0  0  0  0  0
   -7.2931    6.6271  -14.2097 F   0  0  0  0  0  0  0  0  0  0  0  0
   -9.0739    5.5574  -13.5552 F   0  0  0  0  0  0  0  0  0  0  0  0
   -7.2523    4.3548  -14.2822 O   0  0  0  0  0  0  0  0  0  0  0  0
   -5.6124    5.3561  -20.0808 N   0  0  0  0  0  0  0  0  0  0  0  0
   -5.4753    5.0400  -18.7250 C   0  0  0  0  0  0  0  0  0  0  0  0
   -4.2143    5.1819  -18.1523 C   0  0  0  0  0  0  0  0  0  0  0  0
   -4.0890    5.0608  -16.7840 C   0  0  0  0  0  0  0  0  0  0  0  0
   -5.1208    4.8332  -15.9513 N   0  0  0  0  0  0  0  0  0  0  0  0
   -6.3546    4.6958  -16.4824 C   0  0  0  0  0  0  0  0  0  0  0  0
   -7.4523    4.4757  -15.6416 C   0  0  0  0  0  0  0  0  0  0  0  0
   -8.7380    4.2749  -16.1458 C   0  0  0  0  0  0  0  0  0  0  0  0
   -8.9648    4.3147  -17.5094 C   0  0  0  0  0  0  0  0  0  0  0  0
   -7.8994    4.5701  -18.3647 C   0  0  0  0  0  0  0  0  0  0  0  0
   -6.5856    4.7790  -17.8795 C   0  0  0  0  0  0  0  0  0  0  0  0
   -4.8134    5.5296  -20.6291 H   0  0  0  0  0  0  0  0  0  0  0  0
   -6.5080    5.4050  -20.4867 H   0  0  0  0  0  0  0  0  0  0  0  0
   -7.2418    5.6137  -12.2136 O   0  0  0  0  0  0  0  0  0  0  0  0
   -7.7509    4.7565  -11.2714 C   0  0  0  0  0  0  0  0  0  0  0  0
   -8.2477    3.4732  -11.5415 C   0  0  0  0  0  0  0  0  0  0  0  0
   -8.7066    2.6511  -10.5092 C   0  0  0  0  0  0  0  0  0  0  0  0
   -8.6518    3.1239   -9.2184 C   0  0  0  0  0  0  0  0  0  0  0  0
   -8.1618    4.3890   -8.9188 C   0  0  0  0  0  0  0  0  0  0  0  0
   -7.7097    5.2185   -9.9397 C   0  0  0  0  0  0  0  0  0  0  0  0
   -8.2092    4.5955   -7.4416 C   0  0  0  0  0  0  0  0  0  0  0  0
   -8.8361    3.3906   -6.9587 N   0  0  0  0  0  0  0  0  0  0  0  0
   -9.0546    2.4720   -7.9656 C   0  0  0  0  0  0  0  0  0  0  0  0
   -9.5021    1.3522   -7.8351 O   0  0  0  0  0  0  0  0  0  0  0  0
   -9.0808    3.2398   -6.0171 H   0  0  0  0  0  0  0  0  0  0  0  0
  5  6  1  0  0  0
  6  7  2  0  0  0
  7  8  1  0  0  0
  8  9  2  0  0  0
  9 10  1  0  0  0
 10 11  2  0  0  0
 11  4  1  0  0  0
  4  1  1  0  0  0
  1  2  1  0  0  0
  1  3  1  0  0  0
  1 18  1  0  0  0
 18 19  1  0  0  0
 19 20  2  0  0  0
 20 21  1  0  0  0
 21 22  2  0  0  0
 22 23  1  0  0  0
 23 24  2  0  0  0
 23 25  1  0  0  0
 25 26  1  0  0  0
 26 27  1  0  0  0
 27 28  2  0  0  0
 11 12  1  0  0  0
 12 13  2  0  0  0
 13 14  1  0  0  0
 14 15  2  0  0  0
 15  6  1  0  0  0
 15 10  1  0  0  0
 24 19  1  0  0  0
 27 22  1  0  0  0
  5 16  1  0  0  0
  5 17  1  0  0  0
 26 29  1  0  0  0
M  END
> <minimizedAffinity>
-8.48144

> <minimizedRMSD>
0.31205

$$$$
P758


 26 28  0  0  0  0  0  0  0  0999 V2000
   -4.8847    5.1352  -18.0953 C   0  0  0  0  0  0  0  0  0  0  0  0
   -3.7545    5.0873  -17.2751 C   0  0  0  0  0  0  0  0  0  0  0  0
   -3.9206    4.8244  -15.9342 C   0  0  0  0  0  0  0  0  0  0  0  0
   -5.1155    4.6064  -15.3590 N   0  0  0  0  0  0  0  0  0  0  0  0
   -6.2154    4.6015  -16.1412 C   0  0  0  0  0  0  0  0  0  0  0  0
   -7.4680    4.3770  -15.5686 C   0  0  0  0  0  0  0  0  0  0  0  0
   -8.6332    4.3091  -16.3330 C   0  0  0  0  0  0  0  0  0  0  0  0
   -8.5746    4.4795  -17.7039 C   0  0  0  0  0  0  0  0  0  0  0  0
   -7.3461    4.7451  -18.2964 C   0  0  0  0  0  0  0  0  0  0  0  0
   -6.1537    4.8313  -17.5340 C   0  0  0  0  0  0  0  0  0  0  0  0
   -4.7735    5.5042  -19.5557 C   0  0  0  0  0  0  0  0  0  0  0  0
   -2.7685    6.2775  -20.6815 C   0  0  0  0  0  0  0  0  0  0  0  0
   -3.5187    5.1174  -20.2164 N   0  0  0  0  0  0  0  0  0  0  0  0
   -2.9439    4.5971  -19.5536 H   0  0  0  0  0  0  0  0  0  0  0  0
   -7.5504    4.1358  -14.2162 O   0  0  0  0  0  0  0  0  0  0  0  0
   -7.8486    5.3267  -13.4878 C   0  0  0  0  0  0  0  0  0  0  0  0
   -7.5387    6.4172  -14.2458 F   0  0  0  0  0  0  0  0  0  0  0  0
   -9.1896    5.4071  -13.2470 F   0  0  0  0  0  0  0  0  0  0  0  0
   -7.1513    5.4834  -12.2494 O   0  0  0  0  0  0  0  0  0  0  0  0
   -7.6405    4.8540  -11.1368 C   0  0  0  0  0  0  0  0  0  0  0  0
   -7.6750    5.6287   -9.9657 C   0  0  0  0  0  0  0  0  0  0  0  0
   -8.1067    5.0798   -8.7508 C   0  0  0  0  0  0  0  0  0  0  0  0
   -8.5098    3.7542   -8.7082 C   0  0  0  0  0  0  0  0  0  0  0  0
   -8.9283    3.2107   -7.5572 F   0  0  0  0  0  0  0  0  0  0  0  0
   -8.4947    2.9871   -9.8612 C   0  0  0  0  0  0  0  0  0  0  0  0
   -8.0580    3.5276  -11.0728 C   0  0  0  0  0  0  0  0  0  0  0  0
 12 13  1  0  0  0
 13 11  1  0  0  0
 11  1  1  0  0  0
  1  2  2  0  0  0
  2  3  1  0  0  0
  3  4  2  0  0  0
  4  5  1  0  0  0
  5  6  2  0  0  0
  6 15  1  0  0  0
 15 16  1  0  0  0
 16 17  1  0  0  0
 16 18  1  0  0  0
 16 19  1  0  0  0
 19 20  1  0  0  0
 20 21  2  0  0  0
 21 22  1  0  0  0
 22 23  2  0  0  0
 23 24  1  0  0  0
 23 25  1  0  0  0
 25 26  2  0  0  0
  6  7  1  0  0  0
  7  8  2  0  0  0
  8  9  1  0  0  0
  9 10  2  0  0  0
 10  1  1  0  0  0
 10  5  1  0  0  0
 26 20  1  0  0  0
 13 14  1  0  0  0
M  END
> <minimizedAffinity>
-7.02493

> <minimizedRMSD>
0.81916

$$$$
P760


 29 31  0  0  0  0  0  0  0  0999 V2000
   -7.3257    4.4254  -15.2912 C   0  0  0  0  0  0  0  0  0  0  0  0
   -8.5210    4.3244  -15.9949 C   0  0  0  0  0  0  0  0  0  0  0  0
   -8.5012    4.4653  -17.3707 C   0  0  0  0  0  0  0  0  0  0  0  0
   -9.9628    4.3659  -18.2464 Cl  0  0  0  0  0  0  0  0  0  0  0  0
   -7.3102    4.7377  -18.0381 C   0  0  0  0  0  0  0  0  0  0  0  0
   -6.0905    4.8418  -17.3318 C   0  0  0  0  0  0  0  0  0  0  0  0
   -4.8450    5.1542  -17.9401 C   0  0  0  0  0  0  0  0  0  0  0  0
   -3.6904    5.1131  -17.1638 C   0  0  0  0  0  0  0  0  0  0  0  0
   -3.8037    4.8479  -15.8190 C   0  0  0  0  0  0  0  0  0  0  0  0
   -4.9743    4.6285  -15.2002 N   0  0  0  0  0  0  0  0  0  0  0  0
   -6.1010    4.6268  -15.9334 C   0  0  0  0  0  0  0  0  0  0  0  0
   -4.7508    5.5324  -19.2805 N   0  0  0  0  0  0  0  0  0  0  0  0
   -5.6051    5.5297  -19.7697 H   0  0  0  0  0  0  0  0  0  0  0  0
   -3.5013    5.9629  -20.1391 C   0  0  0  0  0  0  0  0  0  0  0  0
   -2.6734    5.2927  -20.7140 N   0  0  0  0  0  0  0  0  0  0  0  0
   -2.7274    4.3102  -20.6828 H   0  0  0  0  0  0  0  0  0  0  0  0
   -7.3422    4.2641  -13.9233 O   0  0  0  0  0  0  0  0  0  0  0  0
   -7.7830    5.4549  -13.2602 C   0  0  0  0  0  0  0  0  0  0  0  0
   -7.2815    6.5482  -13.9052 F   0  0  0  0  0  0  0  0  0  0  0  0
   -9.1394    5.5569  -13.3576 F   0  0  0  0  0  0  0  0  0  0  0  0
   -7.4026    5.5888  -11.8876 O   0  0  0  0  0  0  0  0  0  0  0  0
   -9.2257    1.9914   -7.8584 C   0  0  0  0  0  0  0  0  0  0  0  0
   -8.7774    2.9691   -8.9112 C   0  0  0  0  0  0  0  0  0  0  0  0
   -8.8098    2.5847  -10.2548 C   0  0  0  0  0  0  0  0  0  0  0  0
   -8.3780    3.4303  -11.2769 C   0  0  0  0  0  0  0  0  0  0  0  0
   -7.9012    4.6970  -10.9768 C   0  0  0  0  0  0  0  0  0  0  0  0
   -7.8891    5.1076   -9.6327 C   0  0  0  0  0  0  0  0  0  0  0  0
   -8.3289    4.2591   -8.5928 C   0  0  0  0  0  0  0  0  0  0  0  0
   -8.3547    4.7427   -7.1693 C   0  0  0  0  0  0  0  0  0  0  0  0
 22 23  1  0  0  0
 23 24  2  0  0  0
 24 25  1  0  0  0
 25 26  2  0  0  0
 26 21  1  0  0  0
 21 18  1  0  0  0
 18 19  1  0  0  0
 18 20  1  0  0  0
 18 17  1  0  0  0
 17  1  1  0  0  0
  1  2  2  0  0  0
  2  3  1  0  0  0
  3  4  1  0  0  0
  3  5  2  0  0  0
  5  6  1  0  0  0
  6  7  2  0  0  0
  7 12  1  0  0  0
 12 14  1  0  0  0
 14 15  2  0  0  0
  7  8  1  0  0  0
  8  9  2  0  0  0
  9 10  1  0  0  0
 10 11  2  0  0  0
 26 27  1  0  0  0
 27 28  2  0  0  0
 28 29  1  0  0  0
 28 23  1  0  0  0
 11  1  1  0  0  0
 11  6  1  0  0  0
 12 13  1  0  0  0
 15 16  1  0  0  0
M  END
> <minimizedAffinity>
-7.68857

> <minimizedRMSD>
0.28103

$$$$
P766


 35 39  0  0  0  0  0  0  0  0999 V2000
   -0.6003    7.6933  -19.6915 C   0  0  0  0  0  0  0  0  0  0  0  0
   -1.6379    6.6840  -19.8794 N   0  0  0  0  0  0  0  0  0  0  0  0
   -1.5630    5.6575  -18.8323 C   0  0  0  0  0  0  0  0  0  0  0  0
   -2.8562    4.8495  -18.7621 C   0  0  0  0  0  0  0  0  0  0  0  0
   -4.0728    5.7076  -18.3052 C   0  0  0  0  0  0  0  0  0  0  0  0
   -3.8425    7.1823  -18.7874 C   0  0  0  0  0  0  0  0  0  0  0  0
   -2.9732    7.2763  -20.0435 C   0  0  0  0  0  0  0  0  0  0  0  0
   -4.1226    5.7955  -16.7601 C   0  0  0  0  0  0  0  0  0  0  0  0
   -4.8258    4.6893  -16.1455 N   0  0  0  0  0  0  0  0  0  0  0  0
   -6.1904    4.7014  -16.5392 C   0  0  0  0  0  0  0  0  0  0  0  0
   -7.1959    4.4362  -15.5916 C   0  0  0  0  0  0  0  0  0  0  0  0
   -8.5212    4.2758  -15.9782 C   0  0  0  0  0  0  0  0  0  0  0  0
   -8.8470    4.3503  -17.3239 C   0  0  0  0  0  0  0  0  0  0  0  0
   -7.8539    4.6290  -18.2667 C   0  0  0  0  0  0  0  0  0  0  0  0
   -6.5179    4.8561  -17.8921 C   0  0  0  0  0  0  0  0  0  0  0  0
   -5.3793    5.0316  -18.8810 C   0  0  0  0  0  0  0  0  0  0  0  0
   -5.7396    5.6603  -20.1529 N   0  0  0  0  0  0  0  0  0  0  0  0
   -4.4180    4.0260  -15.5431 H   0  0  0  0  0  0  0  0  0  0  0  0
   -5.9687    6.6415  -19.9943 H   0  0  0  0  0  0  0  0  0  0  0  0
   -6.5478    5.1824  -20.5514 H   0  0  0  0  0  0  0  0  0  0  0  0
   -6.7853    4.2842  -14.2965 O   0  0  0  0  0  0  0  0  0  0  0  0
   -7.1028    5.3904  -13.4621 C   0  0  0  0  0  0  0  0  0  0  0  0
   -7.1020    6.5522  -14.1771 F   0  0  0  0  0  0  0  0  0  0  0  0
   -6.0670    5.5060  -12.5867 F   0  0  0  0  0  0  0  0  0  0  0  0
   -8.3540    5.2509  -12.7898 O   0  0  0  0  0  0  0  0  0  0  0  0
   -8.2545    5.0860  -11.4378 C   0  0  0  0  0  0  0  0  0  0  0  0
   -8.1343    6.1832  -10.5667 C   0  0  0  0  0  0  0  0  0  0  0  0
   -8.1051    5.9899   -9.1839 C   0  0  0  0  0  0  0  0  0  0  0  0
   -8.2497    4.7009   -8.7035 C   0  0  0  0  0  0  0  0  0  0  0  0
   -8.3824    3.6159   -9.5673 C   0  0  0  0  0  0  0  0  0  0  0  0
   -8.3802    3.7880  -10.9403 C   0  0  0  0  0  0  0  0  0  0  0  0
   -8.5354    2.3691   -8.7581 C   0  0  0  0  0  0  0  0  0  0  0  0
   -8.8846    2.8425   -7.3930 N   0  0  0  0  0  0  0  0  0  0  0  0
   -8.3318    4.2094   -7.2959 C   0  0  0  0  0  0  0  0  0  0  0  0
   -8.4647    2.2372   -6.6875 H   0  0  0  0  0  0  0  0  0  0  0  0
  1  2  1  0  0  0
  2  3  1  0  0  0
  3  4  1  0  0  0
  4  5  1  0  0  0
  5  6  1  0  0  0
  6  7  1  0  0  0
  5  8  1  0  0  0
  8  9  1  0  0  0
  9 10  1  0  0  0
 10 11  2  0  0  0
 11 21  1  0  0  0
 21 22  1  0  0  0
 22 23  1  0  0  0
 22 24  1  0  0  0
 22 25  1  0  0  0
 25 26  1  0  0  0
 26 27  2  0  0  0
 27 28  1  0  0  0
 28 29  2  0  0  0
 29 30  1  0  0  0
 30 31  2  0  0  0
 30 32  1  0  0  0
 32 33  1  0  0  0
 33 34  1  0  0  0
 11 12  1  0  0  0
 12 13  2  0  0  0
 13 14  1  0  0  0
 14 15  2  0  0  0
 15 16  1  0  0  0
 16 17  1  0  0  0
  7  2  1  0  0  0
 15 10  1  0  0  0
 16  5  1  0  0  0
 31 26  1  0  0  0
 34 29  1  0  0  0
  9 18  1  0  0  0
 33 35  1  0  0  0
 17 19  1  0  0  0
 17 20  1  0  0  0
M  END
> <minimizedAffinity>
-8.68078

> <minimizedRMSD>
0.41382

$$$$
P767


 24 25  0  0  0  0  0  0  0  0999 V2000
   -5.3446    5.4521  -18.7196 C   0  0  0  0  0  0  0  0  0  0  0  0
   -5.5493    4.9457  -20.0867 N   0  0  0  0  0  0  0  0  0  0  0  0
   -3.9989    4.9136  -18.2070 C   0  0  0  0  0  0  0  0  0  0  0  0
   -3.7734    5.2876  -16.7512 C   0  0  0  0  0  0  0  0  0  0  0  0
   -4.9024    4.9700  -15.8932 N   0  0  0  0  0  0  0  0  0  0  0  0
   -6.1695    4.7475  -16.4360 C   0  0  0  0  0  0  0  0  0  0  0  0
   -7.2367    4.4044  -15.5827 C   0  0  0  0  0  0  0  0  0  0  0  0
   -8.5258    4.2036  -16.0628 C   0  0  0  0  0  0  0  0  0  0  0  0
   -8.7741    4.3928  -17.4088 C   0  0  0  0  0  0  0  0  0  0  0  0
  -10.3627    4.2786  -18.0150 Cl  0  0  0  0  0  0  0  0  0  0  0  0
   -7.7522    4.7740  -18.2638 C   0  0  0  0  0  0  0  0  0  0  0  0
   -6.4462    4.9747  -17.7907 C   0  0  0  0  0  0  0  0  0  0  0  0
   -4.7974    5.2801  -20.6893 H   0  0  0  0  0  0  0  0  0  0  0  0
   -6.4447    5.2803  -20.4427 H   0  0  0  0  0  0  0  0  0  0  0  0
   -4.7725    4.9111  -14.9191 H   0  0  0  0  0  0  0  0  0  0  0  0
   -5.3615    7.0186  -18.7777 C   0  0  0  0  0  0  0  0  0  0  0  0
   -4.3432    9.0217  -19.6719 C   0  0  0  0  0  0  0  0  0  0  0  0
   -4.2866    7.5684  -19.6364 N   0  0  0  0  0  0  0  0  0  0  0  0
   -3.3817    7.2783  -19.2657 H   0  0  0  0  0  0  0  0  0  0  0  0
   -6.9862    4.2337  -14.2450 O   0  0  0  0  0  0  0  0  0  0  0  0
   -7.5457    5.3090  -13.5022 C   0  0  0  0  0  0  0  0  0  0  0  0
   -7.5894    6.4564  -14.2174 F   0  0  0  0  0  0  0  0  0  0  0  0
   -8.7932    5.0199  -13.0662 F   0  0  0  0  0  0  0  0  0  0  0  0
   -6.7654    5.5311  -12.4189 F   0  0  0  0  0  0  0  0  0  0  0  0
 17 18  1  0  0  0
 18 16  1  0  0  0
 16  1  1  0  0  0
  1  2  1  0  0  0
  1  3  1  0  0  0
  3  4  1  0  0  0
  4  5  1  0  0  0
  5  6  1  0  0  0
  6  7  2  0  0  0
  7 20  1  0  0  0
 20 21  1  0  0  0
 21 22  1  0  0  0
 21 23  1  0  0  0
 21 24  1  0  0  0
  7  8  1  0  0  0
  8  9  2  0  0  0
  9 10  1  0  0  0
  9 11  1  0  0  0
 11 12  2  0  0  0
 12  1  1  0  0  0
 12  6  1  0  0  0
 18 19  1  0  0  0
  2 13  1  0  0  0
  2 14  1  0  0  0
  5 15  1  0  0  0
M  END
> <minimizedAffinity>
-6.06990

> <minimizedRMSD>
0.34126

$$$$
P769


 37 41  0  0  0  0  0  0  0  0999 V2000
   -1.1725    7.8801  -19.6879 C   0  0  0  0  0  0  0  0  0  0  0  0
   -1.9062    7.3233  -18.5535 N   0  0  0  0  0  0  0  0  0  0  0  0
   -3.3251    7.6987  -18.6250 C   0  0  0  0  0  0  0  0  0  0  0  0
   -4.1613    6.9273  -17.6042 C   0  0  0  0  0  0  0  0  0  0  0  0
   -4.1384    5.3901  -17.8624 C   0  0  0  0  0  0  0  0  0  0  0  0
   -2.9090    5.0279  -18.7477 C   0  0  0  0  0  0  0  0  0  0  0  0
   -1.6830    5.8789  -18.4166 C   0  0  0  0  0  0  0  0  0  0  0  0
   -4.0175    4.6534  -16.5144 C   0  0  0  0  0  0  0  0  0  0  0  0
   -5.1502    4.9344  -15.6501 N   0  0  0  0  0  0  0  0  0  0  0  0
   -6.4320    4.7655  -16.2119 C   0  0  0  0  0  0  0  0  0  0  0  0
   -6.6224    4.7330  -17.6087 C   0  0  0  0  0  0  0  0  0  0  0  0
   -7.9141    4.4956  -18.1121 C   0  0  0  0  0  0  0  0  0  0  0  0
   -9.0059    4.3749  -17.2612 C   0  0  0  0  0  0  0  0  0  0  0  0
   -8.8274    4.5211  -15.8906 C   0  0  0  0  0  0  0  0  0  0  0  0
   -7.5603    4.7617  -15.3452 C   0  0  0  0  0  0  0  0  0  0  0  0
   -5.4359    4.8604  -18.5472 C   0  0  0  0  0  0  0  0  0  0  0  0
   -5.7314    5.6333  -19.7602 N   0  0  0  0  0  0  0  0  0  0  0  0
   -5.0289    5.2281  -14.7183 H   0  0  0  0  0  0  0  0  0  0  0  0
   -5.9221    6.6029  -19.5076 H   0  0  0  0  0  0  0  0  0  0  0  0
   -6.5476    5.2364  -20.2258 H   0  0  0  0  0  0  0  0  0  0  0  0
   -7.4079    5.0416  -13.9317 N   0  0  0  0  0  0  0  0  0  0  0  0
   -7.2338    6.5149  -13.8000 C   0  0  0  0  0  0  0  0  0  0  0  0
   -6.3290    6.8079  -12.8309 F   0  0  0  0  0  0  0  0  0  0  0  0
   -6.8170    7.1824  -14.9055 F   0  0  0  0  0  0  0  0  0  0  0  0
   -8.4074    7.1074  -13.4517 F   0  0  0  0  0  0  0  0  0  0  0  0
   -8.3161    4.3775  -13.0357 N   0  0  0  0  0  0  0  0  0  0  0  0
   -9.0529    3.8700  -13.4464 H   0  0  0  0  0  0  0  0  0  0  0  0
   -8.2540    4.3818  -11.6068 C   0  0  0  0  0  0  0  0  0  0  0  0
   -8.0710    5.5504  -10.8444 C   0  0  0  0  0  0  0  0  0  0  0  0
   -8.0850    5.5381   -9.4412 C   0  0  0  0  0  0  0  0  0  0  0  0
   -8.3249    4.3440   -8.7938 C   0  0  0  0  0  0  0  0  0  0  0  0
   -8.5396    3.1830   -9.5157 C   0  0  0  0  0  0  0  0  0  0  0  0
   -8.5023    3.1838  -10.9082 C   0  0  0  0  0  0  0  0  0  0  0  0
   -8.8131    2.0588   -8.5719 C   0  0  0  0  0  0  0  0  0  0  0  0
   -8.8225    2.6466   -7.2058 N   0  0  0  0  0  0  0  0  0  0  0  0
   -8.4395    4.0651   -7.3358 C   0  0  0  0  0  0  0  0  0  0  0  0
   -8.1537    2.1576   -6.6108 H   0  0  0  0  0  0  0  0  0  0  0  0
  1  2  1  0  0  0
  2  3  1  0  0  0
  3  4  1  0  0  0
  4  5  1  0  0  0
  5  6  1  0  0  0
  6  7  1  0  0  0
  5  8  1  0  0  0
  8  9  1  0  0  0
  9 10  1  0  0  0
 10 11  2  0  0  0
 11 12  1  0  0  0
 12 13  2  0  0  0
 13 14  1  0  0  0
 14 15  2  0  0  0
 15 21  1  0  0  0
 21 26  1  0  0  0
 26 28  1  0  0  0
 28 29  2  0  0  0
 29 30  1  0  0  0
 30 31  2  0  0  0
 31 32  1  0  0  0
 32 33  2  0  0  0
 32 34  1  0  0  0
 34 35  1  0  0  0
 35 36  1  0  0  0
 21 22  1  0  0  0
 22 23  1  0  0  0
 22 24  1  0  0  0
 22 25  1  0  0  0
 11 16  1  0  0  0
 16 17  1  0  0  0
  7  2  1  0  0  0
 15 10  1  0  0  0
 33 28  1  0  0  0
 16  5  1  0  0  0
 36 31  1  0  0  0
  9 18  1  0  0  0
 26 27  1  0  0  0
 35 37  1  0  0  0
 17 19  1  0  0  0
 17 20  1  0  0  0
M  END
> <minimizedAffinity>
-8.75155

> <minimizedRMSD>
0.28283

$$$$
P773


 37 40  0  0  0  0  0  0  0  0999 V2000
   -5.4886    5.4232  -18.7321 C   0  0  0  0  0  0  0  0  0  0  0  0
   -5.5932    4.8316  -20.0868 N   0  0  0  0  0  0  0  0  0  0  0  0
   -4.1285    4.9795  -18.1622 C   0  0  0  0  0  0  0  0  0  0  0  0
   -3.9966    5.4123  -16.7123 C   0  0  0  0  0  0  0  0  0  0  0  0
   -5.0570    4.8366  -15.9099 N   0  0  0  0  0  0  0  0  0  0  0  0
   -6.3559    4.7957  -16.4274 C   0  0  0  0  0  0  0  0  0  0  0  0
   -7.4285    4.4519  -15.5787 C   0  0  0  0  0  0  0  0  0  0  0  0
   -8.7085    4.2343  -16.0797 C   0  0  0  0  0  0  0  0  0  0  0  0
   -8.9359    4.3761  -17.4375 C   0  0  0  0  0  0  0  0  0  0  0  0
  -10.5103    4.2092  -18.0798 Cl  0  0  0  0  0  0  0  0  0  0  0  0
   -7.9032    4.7363  -18.2910 C   0  0  0  0  0  0  0  0  0  0  0  0
   -6.6044    4.9549  -17.8057 C   0  0  0  0  0  0  0  0  0  0  0  0
   -4.8275    5.1739  -20.6673 H   0  0  0  0  0  0  0  0  0  0  0  0
   -6.4837    5.0985  -20.5066 H   0  0  0  0  0  0  0  0  0  0  0  0
   -4.8658    4.4791  -15.0127 H   0  0  0  0  0  0  0  0  0  0  0  0
   -5.5650    6.9869  -18.8815 C   0  0  0  0  0  0  0  0  0  0  0  0
   -5.2809    8.7348  -20.5449 C   0  0  0  0  0  0  0  0  0  0  0  0
   -5.7827    7.4003  -20.2809 N   0  0  0  0  0  0  0  0  0  0  0  0
   -5.3037    6.7422  -20.8956 H   0  0  0  0  0  0  0  0  0  0  0  0
   -7.1878    4.2787  -14.2363 O   0  0  0  0  0  0  0  0  0  0  0  0
   -7.6801    5.3820  -13.4681 C   0  0  0  0  0  0  0  0  0  0  0  0
   -7.2819    6.5379  -14.0748 F   0  0  0  0  0  0  0  0  0  0  0  0
   -9.0412    5.4035  -13.4568 F   0  0  0  0  0  0  0  0  0  0  0  0
   -7.1940    5.4572  -12.1269 O   0  0  0  0  0  0  0  0  0  0  0  0
   -7.7273    4.6078  -11.1978 C   0  0  0  0  0  0  0  0  0  0  0  0
   -8.3052    3.3784  -11.4685 C   0  0  0  0  0  0  0  0  0  0  0  0
   -8.7623    2.5877  -10.4200 C   0  0  0  0  0  0  0  0  0  0  0  0
   -8.6573    3.0076   -9.0959 C   0  0  0  0  0  0  0  0  0  0  0  0
   -8.0964    4.2476   -8.7836 C   0  0  0  0  0  0  0  0  0  0  0  0
   -7.6209    5.0275   -9.8607 C   0  0  0  0  0  0  0  0  0  0  0  0
   -7.8923    4.6954   -7.3390 C   0  0  0  0  0  0  0  0  0  0  0  0
   -8.7389    3.9565   -6.2801 C   0  0  0  0  0  0  0  0  0  0  0  0
   -8.4032    4.4476   -4.8671 C   0  0  0  0  0  0  0  0  0  0  0  0
   -8.4985    5.9042   -4.6770 N   0  0  0  0  0  0  0  0  0  0  0  0
   -9.8880    6.3352   -4.5890 C   0  0  0  0  0  0  0  0  0  0  0  0
   -7.7620    6.6297   -5.7109 C   0  0  0  0  0  0  0  0  0  0  0  0
   -8.0977    6.2112   -7.1429 C   0  0  0  0  0  0  0  0  0  0  0  0
 17 18  1  0  0  0
 18 16  1  0  0  0
 16  1  1  0  0  0
  1  2  1  0  0  0
  1  3  1  0  0  0
  3  4  1  0  0  0
  4  5  1  0  0  0
  5  6  1  0  0  0
  6  7  2  0  0  0
  7 20  1  0  0  0
 20 21  1  0  0  0
 21 22  1  0  0  0
 21 23  1  0  0  0
 21 24  1  0  0  0
 24 25  1  0  0  0
 25 26  2  0  0  0
 26 27  1  0  0  0
 27 28  2  0  0  0
 28 29  1  0  0  0
 29 31  1  0  0  0
 31 32  1  0  0  0
 32 33  1  0  0  0
 33 34  1  0  0  0
 34 35  1  0  0  0
 34 36  1  0  0  0
 36 37  1  0  0  0
 29 30  2  0  0  0
  7  8  1  0  0  0
  8  9  2  0  0  0
  9 10  1  0  0  0
  9 11  1  0  0  0
 11 12  2  0  0  0
 12  1  1  0  0  0
 12  6  1  0  0  0
 30 25  1  0  0  0
 37 31  1  0  0  0
 18 19  1  0  0  0
  2 13  1  0  0  0
  2 14  1  0  0  0
  5 15  1  0  0  0
M  END
> <minimizedAffinity>
-8.04959

> <minimizedRMSD>
0.48845

$$$$
P781


 27 29  0  0  0  0  0  0  0  0999 V2000
   -4.8931    5.2195  -18.0616 C   0  0  0  0  0  0  0  0  0  0  0  0
   -3.7524    5.3585  -17.2552 C   0  0  0  0  0  0  0  0  0  0  0  0
   -3.8025    5.0176  -15.9267 C   0  0  0  0  0  0  0  0  0  0  0  0
   -4.9254    4.6275  -15.3195 N   0  0  0  0  0  0  0  0  0  0  0  0
   -6.0590    4.5744  -16.0401 C   0  0  0  0  0  0  0  0  0  0  0  0
   -7.2470    4.3329  -15.3538 C   0  0  0  0  0  0  0  0  0  0  0  0
   -8.4730    4.2552  -15.9893 C   0  0  0  0  0  0  0  0  0  0  0  0
   -8.5198    4.4313  -17.3547 C   0  0  0  0  0  0  0  0  0  0  0  0
  -10.0446    4.4317  -18.1121 Cl  0  0  0  0  0  0  0  0  0  0  0  0
   -7.3590    4.6955  -18.0815 C   0  0  0  0  0  0  0  0  0  0  0  0
   -6.1056    4.8156  -17.4364 C   0  0  0  0  0  0  0  0  0  0  0  0
   -4.7601    5.6541  -19.5071 C   0  0  0  0  0  0  0  0  0  0  0  0
   -2.6400    6.1542  -20.7247 C   0  0  0  0  0  0  0  0  0  0  0  0
   -3.5833    5.1794  -20.2322 N   0  0  0  0  0  0  0  0  0  0  0  0
   -3.0738    4.5570  -19.6051 H   0  0  0  0  0  0  0  0  0  0  0  0
   -7.2273    4.1535  -13.9955 O   0  0  0  0  0  0  0  0  0  0  0  0
   -7.6951    5.3174  -13.3149 C   0  0  0  0  0  0  0  0  0  0  0  0
   -7.8469    6.3759  -14.1582 F   0  0  0  0  0  0  0  0  0  0  0  0
   -8.9280    5.0395  -12.8044 F   0  0  0  0  0  0  0  0  0  0  0  0
   -6.8050    5.6714  -12.2551 O   0  0  0  0  0  0  0  0  0  0  0  0
   -7.4641    6.0984  -11.1415 C   0  0  0  0  0  0  0  0  0  0  0  0
   -7.9943    7.3890  -11.0727 C   0  0  0  0  0  0  0  0  0  0  0  0
   -8.5982    7.8226   -9.8945 C   0  0  0  0  0  0  0  0  0  0  0  0
   -8.6418    6.9704   -8.7971 C   0  0  0  0  0  0  0  0  0  0  0  0
   -9.2045    7.3963   -7.6592 F   0  0  0  0  0  0  0  0  0  0  0  0
   -8.0915    5.6927   -8.8545 C   0  0  0  0  0  0  0  0  0  0  0  0
   -7.4911    5.2525  -10.0329 C   0  0  0  0  0  0  0  0  0  0  0  0
 13 14  1  0  0  0
 14 12  1  0  0  0
 12  1  1  0  0  0
  1  2  2  0  0  0
  2  3  1  0  0  0
  3  4  2  0  0  0
  4  5  1  0  0  0
  5  6  2  0  0  0
  6 16  1  0  0  0
 16 17  1  0  0  0
 17 18  1  0  0  0
 17 19  1  0  0  0
 17 20  1  0  0  0
 20 21  1  0  0  0
 21 22  2  0  0  0
 22 23  1  0  0  0
 23 24  2  0  0  0
 24 25  1  0  0  0
 24 26  1  0  0  0
 26 27  2  0  0  0
  6  7  1  0  0  0
  7  8  2  0  0  0
  8  9  1  0  0  0
  8 10  1  0  0  0
 10 11  2  0  0  0
 11  1  1  0  0  0
 11  5  1  0  0  0
 27 21  1  0  0  0
 14 15  1  0  0  0
M  END
> <minimizedAffinity>
-6.62743

> <minimizedRMSD>
1.03816

$$$$
P789


 26 28  0  0  0  0  0  0  0  0999 V2000
   -5.0334    5.1134  -18.1605 C   0  0  0  0  0  0  0  0  0  0  0  0
   -3.8546    5.0934  -17.3993 C   0  0  0  0  0  0  0  0  0  0  0  0
   -3.9311    4.8434  -16.0502 C   0  0  0  0  0  0  0  0  0  0  0  0
   -5.0856    4.6134  -15.4063 N   0  0  0  0  0  0  0  0  0  0  0  0
   -6.2305    4.6022  -16.1220 C   0  0  0  0  0  0  0  0  0  0  0  0
   -7.4366    4.3636  -15.4599 C   0  0  0  0  0  0  0  0  0  0  0  0
   -8.6528    4.2792  -16.1292 C   0  0  0  0  0  0  0  0  0  0  0  0
   -8.6826    4.4539  -17.4940 C   0  0  0  0  0  0  0  0  0  0  0  0
   -9.8446    4.3508  -18.1518 F   0  0  0  0  0  0  0  0  0  0  0  0
   -7.5126    4.7311  -18.1868 C   0  0  0  0  0  0  0  0  0  0  0  0
   -6.2659    4.8245  -17.5217 C   0  0  0  0  0  0  0  0  0  0  0  0
   -4.8833    5.5018  -19.6139 C   0  0  0  0  0  0  0  0  0  0  0  0
   -3.2494    6.8969  -20.7168 C   0  0  0  0  0  0  0  0  0  0  0  0
   -4.2595    6.8305  -19.6783 N   0  0  0  0  0  0  0  0  0  0  0  0
   -4.9804    7.5254  -19.8729 H   0  0  0  0  0  0  0  0  0  0  0  0
   -7.4596    4.1188  -14.1123 O   0  0  0  0  0  0  0  0  0  0  0  0
   -7.6333    5.3000  -13.3265 C   0  0  0  0  0  0  0  0  0  0  0  0
   -7.5329    6.4262  -14.1000 F   0  0  0  0  0  0  0  0  0  0  0  0
   -8.9200    5.3239  -12.8768 F   0  0  0  0  0  0  0  0  0  0  0  0
   -6.7518    5.5163  -12.2373 O   0  0  0  0  0  0  0  0  0  0  0  0
   -6.3902    4.3653  -11.5917 C   0  0  0  0  0  0  0  0  0  0  0  0
   -5.1102    3.9164  -11.8232 C   0  0  0  0  0  0  0  0  0  0  0  0
   -4.7296    2.8138  -11.1015 C   0  0  0  0  0  0  0  0  0  0  0  0
   -5.5254    2.2079  -10.2071 N   0  0  0  0  0  0  0  0  0  0  0  0
   -6.7538    2.7367  -10.0550 C   0  0  0  0  0  0  0  0  0  0  0  0
   -7.2267    3.8172  -10.7012 N   0  0  0  0  0  0  0  0  0  0  0  0
 13 14  1  0  0  0
 14 12  1  0  0  0
 12  1  1  0  0  0
  1  2  2  0  0  0
  2  3  1  0  0  0
  3  4  2  0  0  0
  4  5  1  0  0  0
  5  6  2  0  0  0
  6 16  1  0  0  0
 16 17  1  0  0  0
 17 18  1  0  0  0
 17 19  1  0  0  0
 17 20  1  0  0  0
 20 21  1  0  0  0
 21 22  2  0  0  0
 22 23  1  0  0  0
 23 24  2  0  0  0
 24 25  1  0  0  0
 25 26  2  0  0  0
  6  7  1  0  0  0
  7  8  2  0  0  0
  8  9  1  0  0  0
  8 10  1  0  0  0
 10 11  2  0  0  0
 11  1  1  0  0  0
 11  5  1  0  0  0
 26 21  1  0  0  0
 14 15  1  0  0  0
M  END
> <minimizedAffinity>
-6.41745

> <minimizedRMSD>
0.47307

$$$$
P791


 32 34  0  0  0  0  0  0  0  0999 V2000
   -5.4873    5.4747  -18.7401 C   0  0  0  0  0  0  0  0  0  0  0  0
   -5.5987    4.9221  -20.1077 N   0  0  0  0  0  0  0  0  0  0  0  0
   -4.1092    5.0591  -18.1893 C   0  0  0  0  0  0  0  0  0  0  0  0
   -3.9826    5.4187  -16.7170 C   0  0  0  0  0  0  0  0  0  0  0  0
   -5.0258    4.7874  -15.9365 N   0  0  0  0  0  0  0  0  0  0  0  0
   -6.3252    4.7391  -16.4519 C   0  0  0  0  0  0  0  0  0  0  0  0
   -7.3921    4.3425  -15.6173 C   0  0  0  0  0  0  0  0  0  0  0  0
   -8.6805    4.1629  -16.1094 C   0  0  0  0  0  0  0  0  0  0  0  0
   -8.9199    4.3807  -17.4512 C   0  0  0  0  0  0  0  0  0  0  0  0
  -10.5038    4.2981  -18.0795 Cl  0  0  0  0  0  0  0  0  0  0  0  0
   -7.8886    4.7559  -18.2966 C   0  0  0  0  0  0  0  0  0  0  0  0
   -6.5833    4.9527  -17.8189 C   0  0  0  0  0  0  0  0  0  0  0  0
   -4.8482    5.2968  -20.6880 H   0  0  0  0  0  0  0  0  0  0  0  0
   -6.5001    5.1829  -20.5075 H   0  0  0  0  0  0  0  0  0  0  0  0
   -4.8235    4.3977  -15.0554 H   0  0  0  0  0  0  0  0  0  0  0  0
   -5.6087    7.0415  -18.8212 C   0  0  0  0  0  0  0  0  0  0  0  0
   -3.9158    8.7761  -18.7699 C   0  0  0  0  0  0  0  0  0  0  0  0
   -4.4842    7.6807  -19.5390 N   0  0  0  0  0  0  0  0  0  0  0  0
   -3.7594    6.9831  -19.7081 H   0  0  0  0  0  0  0  0  0  0  0  0
   -7.1431    4.0729  -14.2963 O   0  0  0  0  0  0  0  0  0  0  0  0
   -7.5976    5.1273  -13.4500 C   0  0  0  0  0  0  0  0  0  0  0  0
   -7.5730    6.2990  -14.1426 F   0  0  0  0  0  0  0  0  0  0  0  0
   -8.8753    4.8943  -13.0505 F   0  0  0  0  0  0  0  0  0  0  0  0
   -6.7517    5.2487  -12.3135 O   0  0  0  0  0  0  0  0  0  0  0  0
   -7.2592    5.7990  -11.1741 C   0  0  0  0  0  0  0  0  0  0  0  0
   -7.5542    7.1414  -10.9586 C   0  0  0  0  0  0  0  0  0  0  0  0
   -8.0773    7.5549   -9.7295 C   0  0  0  0  0  0  0  0  0  0  0  0
   -8.3142    6.6362   -8.6960 C   0  0  0  0  0  0  0  0  0  0  0  0
   -8.8541    7.1341   -7.3835 C   0  0  0  0  0  0  0  0  0  0  0  0
   -8.0012    5.2807   -8.9014 C   0  0  0  0  0  0  0  0  0  0  0  0
   -8.2373    4.2438   -7.8381 C   0  0  0  0  0  0  0  0  0  0  0  0
   -7.4866    4.8797  -10.1451 C   0  0  0  0  0  0  0  0  0  0  0  0
 17 18  1  0  0  0
 18 16  1  0  0  0
 16  1  1  0  0  0
  1  2  1  0  0  0
  1  3  1  0  0  0
  3  4  1  0  0  0
  4  5  1  0  0  0
  5  6  1  0  0  0
  6  7  2  0  0  0
  7 20  1  0  0  0
 20 21  1  0  0  0
 21 22  1  0  0  0
 21 23  1  0  0  0
 21 24  1  0  0  0
 24 25  1  0  0  0
 25 26  2  0  0  0
 26 27  1  0  0  0
 27 28  2  0  0  0
 28 29  1  0  0  0
 28 30  1  0  0  0
 30 31  1  0  0  0
 30 32  2  0  0  0
  7  8  1  0  0  0
  8  9  2  0  0  0
  9 10  1  0  0  0
  9 11  1  0  0  0
 11 12  2  0  0  0
 12  1  1  0  0  0
 12  6  1  0  0  0
 32 25  1  0  0  0
 18 19  1  0  0  0
  2 13  1  0  0  0
  2 14  1  0  0  0
  5 15  1  0  0  0
M  END
> <minimizedAffinity>
-6.81863

> <minimizedRMSD>
1.06274

$$$$
P795


 34 38  0  0  0  0  0  0  0  0999 V2000
   -5.8625    4.8930  -20.1993 N   0  0  0  0  0  0  0  0  0  0  0  0
   -5.4010    5.1766  -18.8934 C   0  0  0  0  0  0  0  0  0  0  0  0
   -4.0652    5.5811  -18.6664 C   0  0  0  0  0  0  0  0  0  0  0  0
   -3.6447    5.6502  -17.3332 C   0  0  0  0  0  0  0  0  0  0  0  0
   -4.4621    5.3544  -16.2907 N   0  0  0  0  0  0  0  0  0  0  0  0
   -5.7258    4.9464  -16.4882 C   0  0  0  0  0  0  0  0  0  0  0  0
   -6.5441    4.6048  -15.3874 C   0  0  0  0  0  0  0  0  0  0  0  0
   -7.9066    4.3329  -15.5970 C   0  0  0  0  0  0  0  0  0  0  0  0
   -8.4306    4.2993  -16.8711 C   0  0  0  0  0  0  0  0  0  0  0  0
   -9.7302    4.0474  -17.0683 F   0  0  0  0  0  0  0  0  0  0  0  0
   -7.6134    4.5229  -17.9575 C   0  0  0  0  0  0  0  0  0  0  0  0
   -6.2555    4.8746  -17.7933 C   0  0  0  0  0  0  0  0  0  0  0  0
   -2.2813    6.1052  -16.8685 C   0  0  0  0  0  0  0  0  0  0  0  0
   -1.1104    5.6998  -17.7500 C   0  0  0  0  0  0  0  0  0  0  0  0
   -0.8922    6.6425  -18.9239 C   0  0  0  0  0  0  0  0  0  0  0  0
   -2.1757    7.0729  -19.6206 C   0  0  0  0  0  0  0  0  0  0  0  0
   -3.1683    5.9304  -19.8391 C   0  0  0  0  0  0  0  0  0  0  0  0
   -5.2923    5.0917  -20.9769 H   0  0  0  0  0  0  0  0  0  0  0  0
   -6.7540    4.4968  -20.3311 H   0  0  0  0  0  0  0  0  0  0  0  0
   -6.0969    4.5617  -14.0300 N   0  0  0  0  0  0  0  0  0  0  0  0
   -5.2057    3.6481  -13.4221 C   0  0  0  0  0  0  0  0  0  0  0  0
   -3.9294    3.3504  -13.9425 C   0  0  0  0  0  0  0  0  0  0  0  0
   -3.0612    2.4310  -13.3341 C   0  0  0  0  0  0  0  0  0  0  0  0
   -3.4787    1.8049  -12.1804 C   0  0  0  0  0  0  0  0  0  0  0  0
   -4.7370    2.0608  -11.6509 C   0  0  0  0  0  0  0  0  0  0  0  0
   -5.6091    2.9496  -12.2634 C   0  0  0  0  0  0  0  0  0  0  0  0
   -4.9231    1.2291  -10.4245 C   0  0  0  0  0  0  0  0  0  0  0  0
   -3.5430    0.7991  -10.0492 N   0  0  0  0  0  0  0  0  0  0  0  0
   -2.7886    0.7903  -11.3314 C   0  0  0  0  0  0  0  0  0  0  0  0
   -3.5570   -0.1323   -9.6336 H   0  0  0  0  0  0  0  0  0  0  0  0
   -6.1661    5.8771  -13.4109 C   0  0  0  0  0  0  0  0  0  0  0  0
   -6.5128    6.8566  -14.2850 F   0  0  0  0  0  0  0  0  0  0  0  0
   -7.1070    5.8891  -12.4253 F   0  0  0  0  0  0  0  0  0  0  0  0
   -5.0075    6.2802  -12.8290 F   0  0  0  0  0  0  0  0  0  0  0  0
  1  2  1  0  0  0
  2  3  2  0  0  0
  3  4  1  0  0  0
  4  5  2  0  0  0
  5  6  1  0  0  0
  6  7  2  0  0  0
  7 20  1  0  0  0
 20 21  1  0  0  0
 21 22  2  0  0  0
 22 23  1  0  0  0
 23 24  2  0  0  0
 24 25  1  0  0  0
 25 26  2  0  0  0
 25 27  1  0  0  0
 27 28  1  0  0  0
 28 29  1  0  0  0
 20 31  1  0  0  0
 31 32  1  0  0  0
 31 33  1  0  0  0
 31 34  1  0  0  0
  7  8  1  0  0  0
  8  9  2  0  0  0
  9 10  1  0  0  0
  9 11  1  0  0  0
 11 12  2  0  0  0
  4 13  1  0  0  0
 13 14  1  0  0  0
 14 15  1  0  0  0
 15 16  1  0  0  0
 16 17  1  0  0  0
 12  2  1  0  0  0
 17  3  1  0  0  0
 12  6  1  0  0  0
 26 21  1  0  0  0
 29 24  1  0  0  0
  1 18  1  0  0  0
  1 19  1  0  0  0
 28 30  1  0  0  0
M  END
> <minimizedAffinity>
-8.83711

> <minimizedRMSD>
1.05210

$$$$
P797


 32 36  0  0  0  0  0  0  0  0999 V2000
   -6.8116    4.4615  -15.4532 C   0  0  0  0  0  0  0  0  0  0  0  0
   -8.1330    4.2687  -15.8926 C   0  0  0  0  0  0  0  0  0  0  0  0
   -8.4727    4.3988  -17.2284 C   0  0  0  0  0  0  0  0  0  0  0  0
   -7.4907    4.7548  -18.1442 C   0  0  0  0  0  0  0  0  0  0  0  0
   -6.1618    5.0235  -17.7457 C   0  0  0  0  0  0  0  0  0  0  0  0
   -5.1411    5.4804  -18.6270 C   0  0  0  0  0  0  0  0  0  0  0  0
   -3.8380    5.5960  -18.1365 C   0  0  0  0  0  0  0  0  0  0  0  0
   -3.6099    5.4145  -16.7970 C   0  0  0  0  0  0  0  0  0  0  0  0
   -4.5768    5.1101  -15.9249 N   0  0  0  0  0  0  0  0  0  0  0  0
   -5.8222    4.8599  -16.3747 C   0  0  0  0  0  0  0  0  0  0  0  0
   -5.3828    5.8825  -19.9798 N   0  0  0  0  0  0  0  0  0  0  0  0
   -5.8480    5.2748  -20.5990 H   0  0  0  0  0  0  0  0  0  0  0  0
   -4.9393    7.1926  -20.4388 C   0  0  0  0  0  0  0  0  0  0  0  0
   -3.5774    7.1825  -21.1648 C   0  0  0  0  0  0  0  0  0  0  0  0
   -4.1221    8.1203  -22.1694 N   0  0  0  0  0  0  0  0  0  0  0  0
   -5.4909    7.6907  -21.7892 C   0  0  0  0  0  0  0  0  0  0  0  0
   -3.8651    7.9011  -23.1318 H   0  0  0  0  0  0  0  0  0  0  0  0
   -6.5804    4.3128  -14.0452 N   0  0  0  0  0  0  0  0  0  0  0  0
   -5.6393    3.4875  -13.3823 C   0  0  0  0  0  0  0  0  0  0  0  0
   -4.3172    3.3046  -13.8400 C   0  0  0  0  0  0  0  0  0  0  0  0
   -3.3937    2.4656  -13.2035 C   0  0  0  0  0  0  0  0  0  0  0  0
   -3.8006    1.8057  -12.0703 C   0  0  0  0  0  0  0  0  0  0  0  0
   -5.0972    1.9500  -11.5918 C   0  0  0  0  0  0  0  0  0  0  0  0
   -6.0251    2.7507  -12.2435 C   0  0  0  0  0  0  0  0  0  0  0  0
   -5.2467    1.1194  -10.3609 C   0  0  0  0  0  0  0  0  0  0  0  0
   -3.8435    0.8296   -9.9380 N   0  0  0  0  0  0  0  0  0  0  0  0
   -3.0539    0.8591  -11.1948 C   0  0  0  0  0  0  0  0  0  0  0  0
   -3.7834   -0.0885   -9.4976 H   0  0  0  0  0  0  0  0  0  0  0  0
   -7.0723    6.6112  -14.2066 F   0  0  0  0  0  0  0  0  0  0  0  0
   -6.9138    5.5584  -13.3600 C   0  0  0  0  0  0  0  0  0  0  0  0
   -8.0971    5.4260  -12.6957 F   0  0  0  0  0  0  0  0  0  0  0  0
   -6.0025    5.9557  -12.4361 F   0  0  0  0  0  0  0  0  0  0  0  0
 29 30  1  0  0  0
 30 31  1  0  0  0
 30 32  1  0  0  0
 30 18  1  0  0  0
 18 19  1  0  0  0
 19 20  2  0  0  0
 20 21  1  0  0  0
 21 22  2  0  0  0
 22 23  1  0  0  0
 23 24  2  0  0  0
 23 25  1  0  0  0
 25 26  1  0  0  0
 26 27  1  0  0  0
 18  1  1  0  0  0
  1  2  2  0  0  0
  2  3  1  0  0  0
  3  4  2  0  0  0
  4  5  1  0  0  0
  5  6  2  0  0  0
  6 11  1  0  0  0
 11 13  1  0  0  0
 13 14  1  0  0  0
 14 15  1  0  0  0
 15 16  1  0  0  0
  6  7  1  0  0  0
  7  8  2  0  0  0
  8  9  1  0  0  0
  9 10  2  0  0  0
 24 19  1  0  0  0
 10  1  1  0  0  0
 27 22  1  0  0  0
 10  5  1  0  0  0
 16 13  1  0  0  0
 26 28  1  0  0  0
 11 12  1  0  0  0
 15 17  1  0  0  0
M  END
> <minimizedAffinity>
-7.58702

> <minimizedRMSD>
0.71523

$$$$
P798


 30 32  0  0  0  0  0  0  0  0999 V2000
   -7.0946    4.0976  -13.9047 O   0  0  0  0  0  0  0  0  0  0  0  0
   -7.1388    4.3538  -15.2545 C   0  0  0  0  0  0  0  0  0  0  0  0
   -8.3610    4.2383  -15.9087 C   0  0  0  0  0  0  0  0  0  0  0  0
   -8.4159    4.4572  -17.2693 C   0  0  0  0  0  0  0  0  0  0  0  0
   -9.9171    4.4078  -18.0798 Cl  0  0  0  0  0  0  0  0  0  0  0  0
   -7.2628    4.7791  -17.9723 C   0  0  0  0  0  0  0  0  0  0  0  0
   -6.0139    4.8866  -17.3213 C   0  0  0  0  0  0  0  0  0  0  0  0
   -4.8050    5.2023  -17.9962 C   0  0  0  0  0  0  0  0  0  0  0  0
   -3.6144    5.2024  -17.2641 C   0  0  0  0  0  0  0  0  0  0  0  0
   -3.6633    4.9649  -15.9092 C   0  0  0  0  0  0  0  0  0  0  0  0
   -4.7988    4.7160  -15.2371 N   0  0  0  0  0  0  0  0  0  0  0  0
   -5.9530    4.6532  -15.9283 C   0  0  0  0  0  0  0  0  0  0  0  0
   -4.8111    5.5049  -19.4771 C   0  0  0  0  0  0  0  0  0  0  0  0
   -3.5733    5.1480  -20.2033 N   0  0  0  0  0  0  0  0  0  0  0  0
   -2.8830    6.3364  -20.6944 C   0  0  0  0  0  0  0  0  0  0  0  0
   -3.8134    4.5524  -20.9958 H   0  0  0  0  0  0  0  0  0  0  0  0
   -7.6985    5.1559  -13.1674 C   0  0  0  0  0  0  0  0  0  0  0  0
   -8.9291    4.7431  -12.7520 F   0  0  0  0  0  0  0  0  0  0  0  0
   -6.9375    5.3385  -12.0558 F   0  0  0  0  0  0  0  0  0  0  0  0
   -7.8209    6.4047  -13.8474 O   0  0  0  0  0  0  0  0  0  0  0  0
   -9.3520    9.0279  -11.6860 C   0  0  0  0  0  0  0  0  0  0  0  0
   -8.2803    9.9294  -11.6749 C   0  0  0  0  0  0  0  0  0  0  0  0
   -7.1035    9.6291  -12.3594 C   0  0  0  0  0  0  0  0  0  0  0  0
   -6.9948    8.4310  -13.0659 C   0  0  0  0  0  0  0  0  0  0  0  0
   -8.0557    7.5219  -13.0973 C   0  0  0  0  0  0  0  0  0  0  0  0
   -9.2304    7.8269  -12.4072 C   0  0  0  0  0  0  0  0  0  0  0  0
  -10.6410    9.3441  -10.9636 C   0  0  0  0  0  0  0  0  0  0  0  0
  -12.7614   10.3347  -11.5045 C   0  0  0  0  0  0  0  0  0  0  0  0
  -11.7644    9.3511  -11.9007 N   0  0  0  0  0  0  0  0  0  0  0  0
  -11.4206    9.5803  -12.8332 H   0  0  0  0  0  0  0  0  0  0  0  0
 28 29  1  0  0  0
 29 27  1  0  0  0
 27 21  1  0  0  0
 21 22  2  0  0  0
 22 23  1  0  0  0
 23 24  2  0  0  0
 24 25  1  0  0  0
 25 20  1  0  0  0
 20 17  1  0  0  0
 17 18  1  0  0  0
 17 19  1  0  0  0
 17  1  1  0  0  0
  1  2  1  0  0  0
  2  3  2  0  0  0
  3  4  1  0  0  0
  4  5  1  0  0  0
  4  6  2  0  0  0
  6  7  1  0  0  0
  7  8  2  0  0  0
  8 13  1  0  0  0
 13 14  1  0  0  0
 14 15  1  0  0  0
  8  9  1  0  0  0
  9 10  2  0  0  0
 10 11  1  0  0  0
 11 12  2  0  0  0
 25 26  2  0  0  0
 26 21  1  0  0  0
 12  2  1  0  0  0
 12  7  1  0  0  0
 29 30  1  0  0  0
 14 16  1  0  0  0
M  END
> <minimizedAffinity>
-6.50335

> <minimizedRMSD>
0.86317

$$$$
P906


 37 40  0  0  0  0  0  0  0  0999 V2000
   -7.4836    3.7898  -13.3506 C   0  0  0  0  0  0  0  0  0  0  0  0
   -6.4209    3.4180  -13.8403 O   0  0  0  0  0  0  0  0  0  0  0  0
   -8.3582    4.7287  -14.1862 C   0  0  0  0  0  0  0  0  0  0  0  0
   -9.3433    5.2560  -13.6761 O   0  0  0  0  0  0  0  0  0  0  0  0
   -8.0811    4.9732  -15.6636 C   0  0  0  0  0  0  0  0  0  0  0  0
   -9.0322    4.0667  -16.4295 C   0  0  0  0  0  0  0  0  0  0  0  0
   -9.0983    4.3422  -17.9097 C   0  0  0  0  0  0  0  0  0  0  0  0
   -7.7259    4.4771  -18.5384 C   0  0  0  0  0  0  0  0  0  0  0  0
   -6.6702    5.2602  -17.7335 C   0  0  0  0  0  0  0  0  0  0  0  0
   -5.2897    5.0578  -18.4070 C   0  0  0  0  0  0  0  0  0  0  0  0
   -4.1852    5.1059  -17.3649 C   0  0  0  0  0  0  0  0  0  0  0  0
   -3.1144    4.5180  -17.5343 O   0  0  0  0  0  0  0  0  0  0  0  0
   -4.4546    5.9907  -16.1484 C   0  0  0  0  0  0  0  0  0  0  0  0
   -3.2790    5.9585  -15.1738 C   0  0  0  0  0  0  0  0  0  0  0  0
   -5.6980    5.6159  -15.4429 N   0  0  0  0  0  0  0  0  0  0  0  0
   -6.6642    4.8488  -16.2423 C   0  0  0  0  0  0  0  0  0  0  0  0
   -6.1554    6.4731  -15.1324 H   0  0  0  0  0  0  0  0  0  0  0  0
   -5.0309    6.1132  -19.4786 C   0  0  0  0  0  0  0  0  0  0  0  0
   -3.8874    5.7876  -20.2611 O   0  0  0  0  0  0  0  0  0  0  0  0
   -3.1050    5.7476  -19.6891 H   0  0  0  0  0  0  0  0  0  0  0  0
   -7.9945    3.3502  -11.9571 C   0  0  0  0  0  0  0  0  0  0  0  0
   -7.9330    4.3560  -10.8250 C   0  0  0  0  0  0  0  0  0  0  0  0
   -7.3852    5.6414  -11.0081 C   0  0  0  0  0  0  0  0  0  0  0  0
   -7.3000    6.5747   -9.9632 C   0  0  0  0  0  0  0  0  0  0  0  0
   -7.7146    6.2385   -8.6827 C   0  0  0  0  0  0  0  0  0  0  0  0
   -8.2060    4.9645   -8.4925 C   0  0  0  0  0  0  0  0  0  0  0  0
   -8.3299    4.0261   -9.5203 C   0  0  0  0  0  0  0  0  0  0  0  0
   -8.8534    2.7480   -8.9298 C   0  0  0  0  0  0  0  0  0  0  0  0
   -9.0593    3.0869   -7.5387 N   0  0  0  0  0  0  0  0  0  0  0  0
   -8.6480    4.3595   -7.2342 C   0  0  0  0  0  0  0  0  0  0  0  0
   -8.6324    4.9115   -6.1505 O   0  0  0  0  0  0  0  0  0  0  0  0
   -9.4528    2.4696   -6.8804 H   0  0  0  0  0  0  0  0  0  0  0  0
   -5.5516    0.6914  -10.4849 C   0  0  0  0  0  0  0  0  0  0  0  0
   -5.7764    2.1121  -10.9504 C   0  0  0  0  0  0  0  0  0  0  0  0
   -4.9726    2.9458  -10.7939 O   0  0  0  0  0  0  0  0  0  0  0  0
   -7.2124    2.1965  -11.5328 N   0  0  0  0  0  0  0  0  0  0  0  0
   -7.6689    1.3299  -11.6317 H   0  0  0  0  0  0  0  0  0  0  0  0
 33 34  1  0  0  0
 34 35  2  0  0  0
 34 36  1  0  0  0
 21 36  1  0  0  0
 21  1  1  0  0  0
  1  2  2  0  0  0
  1  3  1  0  0  0
  3  4  2  0  0  0
  5  3  1  0  0  0
  5  6  1  0  0  0
  6  7  1  0  0  0
  7  8  1  0  0  0
  9  8  1  0  0  0
  9 10  1  0  0  0
 10 18  1  0  0  0
 18 19  1  0  0  0
 10 11  1  0  0  0
 11 12  2  0  0  0
 11 13  1  0  0  0
 13 14  1  0  0  0
 13 15  1  0  0  0
 16 15  1  0  0  0
 21 22  1  0  0  0
 22 23  2  0  0  0
 23 24  1  0  0  0
 24 25  2  0  0  0
 25 26  1  0  0  0
 26 27  2  0  0  0
 27 28  1  0  0  0
 28 29  1  0  0  0
 29 30  1  0  0  0
 30 31  2  0  0  0
 16  5  1  0  0  0
 27 22  1  0  0  0
 16  9  1  0  0  0
 30 26  1  0  0  0
 36 37  1  0  0  0
 19 20  1  0  0  0
 15 17  1  0  0  0
 29 32  1  0  0  0
M  END
> <minimizedAffinity>
-8.82428

> <minimizedRMSD>
0.47428

$$$$
P907


 36 39  0  0  0  0  0  0  0  0999 V2000
   -6.8563    3.3532  -12.7350 C   0  0  0  0  0  0  0  0  0  0  0  0
   -5.9007    2.9055  -13.3805 O   0  0  0  0  0  0  0  0  0  0  0  0
   -7.8146    4.2556  -13.5268 C   0  0  0  0  0  0  0  0  0  0  0  0
   -8.5795    5.0335  -12.9746 O   0  0  0  0  0  0  0  0  0  0  0  0
   -7.7426    4.1095  -15.0532 C   0  0  0  0  0  0  0  0  0  0  0  0
   -9.0084    4.6319  -15.6907 C   0  0  0  0  0  0  0  0  0  0  0  0
   -9.1325    4.2529  -17.1543 C   0  0  0  0  0  0  0  0  0  0  0  0
   -7.8883    4.5365  -17.9757 C   0  0  0  0  0  0  0  0  0  0  0  0
   -6.7228    5.1844  -17.2134 C   0  0  0  0  0  0  0  0  0  0  0  0
   -5.4345    5.0642  -18.0771 C   0  0  0  0  0  0  0  0  0  0  0  0
   -4.2168    5.1676  -17.1691 C   0  0  0  0  0  0  0  0  0  0  0  0
   -3.1362    4.6580  -17.4737 O   0  0  0  0  0  0  0  0  0  0  0  0
   -4.4261    5.9473  -15.8633 C   0  0  0  0  0  0  0  0  0  0  0  0
   -3.1309    6.0186  -15.0595 C   0  0  0  0  0  0  0  0  0  0  0  0
   -5.4997    5.3477  -15.0262 N   0  0  0  0  0  0  0  0  0  0  0  0
   -6.4772    4.5670  -15.8078 C   0  0  0  0  0  0  0  0  0  0  0  0
   -5.9945    6.0994  -14.5461 H   0  0  0  0  0  0  0  0  0  0  0  0
   -5.3568    6.1014  -19.1914 C   0  0  0  0  0  0  0  0  0  0  0  0
   -4.2476    5.8421  -20.0494 O   0  0  0  0  0  0  0  0  0  0  0  0
   -3.4253    5.8847  -19.5366 H   0  0  0  0  0  0  0  0  0  0  0  0
   -7.0259    2.9990  -11.2522 C   0  0  0  0  0  0  0  0  0  0  0  0
   -7.3803    4.0160  -10.1994 C   0  0  0  0  0  0  0  0  0  0  0  0
   -6.8011    5.2900  -10.1586 C   0  0  0  0  0  0  0  0  0  0  0  0
   -7.0204    6.1173   -9.0590 C   0  0  0  0  0  0  0  0  0  0  0  0
   -7.7089    5.7582   -7.9563 N   0  0  0  0  0  0  0  0  0  0  0  0
   -8.2370    4.5219   -8.0049 C   0  0  0  0  0  0  0  0  0  0  0  0
   -8.1264    3.6491   -9.0741 C   0  0  0  0  0  0  0  0  0  0  0  0
   -8.8512    2.3842   -8.7365 C   0  0  0  0  0  0  0  0  0  0  0  0
   -9.2452    2.4707   -7.3040 N   0  0  0  0  0  0  0  0  0  0  0  0
   -8.9891    3.8632   -6.8838 C   0  0  0  0  0  0  0  0  0  0  0  0
   -8.6871    1.8253   -6.7451 H   0  0  0  0  0  0  0  0  0  0  0  0
   -3.7849    1.1135  -10.1916 C   0  0  0  0  0  0  0  0  0  0  0  0
   -5.2927    1.0971  -10.2921 C   0  0  0  0  0  0  0  0  0  0  0  0
   -5.9480    0.1863   -9.9732 O   0  0  0  0  0  0  0  0  0  0  0  0
   -5.7027    2.4789  -10.8614 N   0  0  0  0  0  0  0  0  0  0  0  0
   -4.9588    3.1125  -10.9815 H   0  0  0  0  0  0  0  0  0  0  0  0
 32 33  1  0  0  0
 33 34  2  0  0  0
 33 35  1  0  0  0
 21 35  1  0  0  0
 21  1  1  0  0  0
  1  2  2  0  0  0
  1  3  1  0  0  0
  3  4  2  0  0  0
  5  3  1  0  0  0
  5  6  1  0  0  0
  6  7  1  0  0  0
  7  8  1  0  0  0
  9  8  1  0  0  0
  9 10  1  0  0  0
 10 18  1  0  0  0
 18 19  1  0  0  0
 10 11  1  0  0  0
 11 12  2  0  0  0
 11 13  1  0  0  0
 13 14  1  0  0  0
 13 15  1  0  0  0
 16 15  1  0  0  0
 21 22  1  0  0  0
 22 23  2  0  0  0
 23 24  1  0  0  0
 24 25  2  0  0  0
 25 26  1  0  0  0
 26 27  2  0  0  0
 27 28  1  0  0  0
 28 29  1  0  0  0
 29 30  1  0  0  0
 16  5  1  0  0  0
 27 22  1  0  0  0
 16  9  1  0  0  0
 30 26  1  0  0  0
 35 36  1  0  0  0
 19 20  1  0  0  0
 15 17  1  0  0  0
 29 31  1  0  0  0
M  END
> <minimizedAffinity>
-8.16854

> <minimizedRMSD>
0.47972

$$$$
P950


 41 43  0  0  0  0  0  0  0  0999 V2000
   -7.3615    2.8909  -12.9501 C   0  0  0  0  0  0  0  0  0  0  0  0
   -7.3273    1.8450  -13.5890 O   0  0  0  0  0  0  0  0  0  0  0  0
   -7.6530    4.2153  -13.6530 C   0  0  0  0  0  0  0  0  0  0  0  0
   -7.9399    5.2277  -13.0213 O   0  0  0  0  0  0  0  0  0  0  0  0
   -5.0368    5.5509  -17.7206 C   0  0  0  0  0  0  0  0  0  0  0  0
   -4.9926    7.0526  -17.3487 C   0  0  0  0  0  0  0  0  0  0  0  0
   -3.8297    4.8125  -17.1090 C   0  0  0  0  0  0  0  0  0  0  0  0
   -3.8661    4.5881  -15.5970 C   0  0  0  0  0  0  0  0  0  0  0  0
   -2.8130    5.4354  -14.8876 C   0  0  0  0  0  0  0  0  0  0  0  0
   -5.1521    4.8516  -14.9636 N   0  0  0  0  0  0  0  0  0  0  0  0
   -6.3111    4.6386  -15.7241 C   0  0  0  0  0  0  0  0  0  0  0  0
   -7.5363    4.3046  -15.1108 C   0  0  0  0  0  0  0  0  0  0  0  0
   -8.7181    4.2152  -15.8354 C   0  0  0  0  0  0  0  0  0  0  0  0
   -8.6887    4.4568  -17.1951 C   0  0  0  0  0  0  0  0  0  0  0  0
  -10.1567    4.4584  -18.0625 Cl  0  0  0  0  0  0  0  0  0  0  0  0
   -7.5049    4.8170  -17.8341 C   0  0  0  0  0  0  0  0  0  0  0  0
   -6.3106    4.9516  -17.1053 C   0  0  0  0  0  0  0  0  0  0  0  0
   -5.2053    5.1685  -14.0330 H   0  0  0  0  0  0  0  0  0  0  0  0
   -4.9631    5.4243  -19.2872 C   0  0  0  0  0  0  0  0  0  0  0  0
   -3.0704    6.4252  -20.4325 C   0  0  0  0  0  0  0  0  0  0  0  0
   -3.6101    5.1961  -19.8558 N   0  0  0  0  0  0  0  0  0  0  0  0
   -2.9872    4.8735  -19.1154 H   0  0  0  0  0  0  0  0  0  0  0  0
   -7.2197    2.9237  -11.4318 C   0  0  0  0  0  0  0  0  0  0  0  0
   -6.3654    4.0203  -11.0079 N   0  0  0  0  0  0  0  0  0  0  0  0
   -4.9164    4.3742  -11.4064 C   0  0  0  0  0  0  0  0  0  0  0  0
   -4.6059    5.6936  -10.7350 C   0  0  0  0  0  0  0  0  0  0  0  0
   -4.1561    3.7999  -12.0765 O   0  0  0  0  0  0  0  0  0  0  0  0
   -6.7777    4.6380  -10.3616 H   0  0  0  0  0  0  0  0  0  0  0  0
   -8.6107    3.0331  -10.7970 C   0  0  0  0  0  0  0  0  0  0  0  0
   -8.5199    3.4089   -9.3152 C   0  0  0  0  0  0  0  0  0  0  0  0
   -9.1789    2.3644   -8.4037 C   0  0  0  0  0  0  0  0  0  0  0  0
   -9.1583    2.7625   -6.9183 C   0  0  0  0  0  0  0  0  0  0  0  0
  -10.3459    2.2347   -6.1127 C   0  0  0  0  0  0  0  0  0  0  0  0
  -10.9154    3.4072   -5.3212 C   0  0  0  0  0  0  0  0  0  0  0  0
   -9.9223    4.5687   -5.4048 C   0  0  0  0  0  0  0  0  0  0  0  0
   -9.1679    4.2845   -6.7098 C   0  0  0  0  0  0  0  0  0  0  0  0
   -9.0272    4.8119   -4.2604 N   0  0  0  0  0  0  0  0  0  0  0  0
   -9.4143    4.1268   -3.0374 C   0  0  0  0  0  0  0  0  0  0  0  0
   -8.8837    6.2348   -3.9894 C   0  0  0  0  0  0  0  0  0  0  0  0
   -9.8769    6.6857   -3.1869 F   0  0  0  0  0  0  0  0  0  0  0  0
   -8.9643    6.9382   -5.1476 F   0  0  0  0  0  0  0  0  0  0  0  0
 20 21  1  0  0  0
 21 19  1  0  0  0
 19  5  1  0  0  0
  5  6  1  0  0  0
  5  7  1  0  0  0
  7  8  1  0  0  0
  8  9  1  0  0  0
  8 10  1  0  0  0
 10 11  1  0  0  0
 11 12  2  0  0  0
 12  3  1  0  0  0
  3  4  2  0  0  0
  3  1  1  0  0  0
  1  2  2  0  0  0
  1 23  1  0  0  0
 23 29  1  0  0  0
 29 30  1  0  0  0
 30 31  1  0  0  0
 32 31  1  0  0  0
 32 33  1  0  0  0
 33 34  1  0  0  0
 34 35  1  0  0  0
 35 37  1  0  0  0
 37 38  1  0  0  0
 37 39  1  0  0  0
 39 40  1  0  0  0
 39 41  1  0  0  0
 35 36  1  0  0  0
 23 24  1  0  0  0
 24 25  1  0  0  0
 25 26  1  0  0  0
 25 27  2  0  0  0
 12 13  1  0  0  0
 13 14  2  0  0  0
 14 15  1  0  0  0
 14 16  1  0  0  0
 16 17  2  0  0  0
 17  5  1  0  0  0
 17 11  1  0  0  0
 36 32  1  0  0  0
 21 22  1  0  0  0
 10 18  1  0  0  0
 24 28  1  0  0  0
M  END
> <minimizedAffinity>
-8.20844

> <minimizedRMSD>
0.73469

$$$$
P1036


 25 28  0  0  0  0  0  0  0  0999 V2000
   -3.4405    6.5866  -20.4663 C   0  0  0  0  0  0  0  0  0  0  0  0
   -3.3169    7.6079  -19.3349 C   0  0  0  0  0  0  0  0  0  0  0  0
   -3.8041    6.9898  -18.0208 C   0  0  0  0  0  0  0  0  0  0  0  0
   -3.1624    5.7121  -17.7237 N   0  0  0  0  0  0  0  0  0  0  0  0
   -3.0778    4.7391  -18.8025 C   0  0  0  0  0  0  0  0  0  0  0  0
   -2.5912    5.3695  -20.1003 C   0  0  0  0  0  0  0  0  0  0  0  0
   -5.1915    7.7082  -22.5945 O   0  0  0  0  0  0  0  0  0  0  0  0
   -3.9771    7.6464  -22.6750 C   0  0  0  0  0  0  0  0  0  0  0  0
   -3.1988    8.1482  -23.7129 N   0  0  0  0  0  0  0  0  0  0  0  0
   -1.8708    8.0779  -23.3948 N   0  0  0  0  0  0  0  0  0  0  0  0
   -1.8692    7.4976  -22.2372 C   0  0  0  0  0  0  0  0  0  0  0  0
   -3.0799    7.1465  -21.7631 N   0  0  0  0  0  0  0  0  0  0  0  0
   -3.5546    8.5044  -24.5590 H   0  0  0  0  0  0  0  0  0  0  0  0
   -3.4986    5.1070  -16.4292 C   0  0  0  0  0  0  0  0  0  0  0  0
   -4.9451    5.0479  -16.0124 C   0  0  0  0  0  0  0  0  0  0  0  0
   -5.3341    5.1213  -14.6813 C   0  0  0  0  0  0  0  0  0  0  0  0
   -6.6878    4.9772  -14.5993 N   0  0  0  0  0  0  0  0  0  0  0  0
   -7.2204    4.8441  -15.8545 C   0  0  0  0  0  0  0  0  0  0  0  0
   -8.5600    4.7158  -16.2370 C   0  0  0  0  0  0  0  0  0  0  0  0
   -8.8306    4.6417  -17.6010 C   0  0  0  0  0  0  0  0  0  0  0  0
  -10.4533    4.6272  -18.1317 Cl  0  0  0  0  0  0  0  0  0  0  0  0
   -7.8162    4.6308  -18.5398 C   0  0  0  0  0  0  0  0  0  0  0  0
   -6.4850    4.7235  -18.1334 C   0  0  0  0  0  0  0  0  0  0  0  0
   -6.1591    4.8597  -16.7667 C   0  0  0  0  0  0  0  0  0  0  0  0
   -7.2056    4.9699  -13.7620 H   0  0  0  0  0  0  0  0  0  0  0  0
  7  8  2  0  0  0
  8  9  1  0  0  0
  9 10  1  0  0  0
 10 11  2  0  0  0
 11 12  1  0  0  0
 12  1  1  0  0  0
  1  2  1  0  0  0
  2  3  1  0  0  0
  3  4  1  0  0  0
  4 14  1  0  0  0
 14 15  1  0  0  0
 15 16  2  0  0  0
 16 17  1  0  0  0
 17 18  1  0  0  0
 18 19  2  0  0  0
 19 20  1  0  0  0
 20 21  1  0  0  0
 20 22  2  0  0  0
 22 23  1  0  0  0
 23 24  2  0  0  0
  4  5  1  0  0  0
  5  6  1  0  0  0
 12  8  1  0  0  0
  6  1  1  0  0  0
 24 15  1  0  0  0
 24 18  1  0  0  0
  9 13  1  0  0  0
 17 25  1  0  0  0
M  END
> <minimizedAffinity>
-5.88387

> <minimizedRMSD>
1.45826

$$$$
P1041


 36 40  0  0  0  0  0  0  0  0999 V2000
   -4.0518    5.4882  -14.6990 C   0  0  0  0  0  0  0  0  0  0  0  0
   -4.9412    6.5771  -15.2913 C   0  0  0  0  0  0  0  0  0  0  0  0
   -6.3070    6.5017  -14.7524 N   0  0  0  0  0  0  0  0  0  0  0  0
   -7.1342    5.8987  -15.6945 C   0  0  0  0  0  0  0  0  0  0  0  0
   -6.5529    5.8480  -16.9031 C   0  0  0  0  0  0  0  0  0  0  0  0
   -7.1168    5.0789  -18.0531 C   0  0  0  0  0  0  0  0  0  0  0  0
   -8.5687    4.6480  -17.8220 C   0  0  0  0  0  0  0  0  0  0  0  0
   -8.8297    4.1655  -16.3924 C   0  0  0  0  0  0  0  0  0  0  0  0
   -8.4022    5.1731  -15.3202 C   0  0  0  0  0  0  0  0  0  0  0  0
   -5.1404    6.3953  -16.8382 C   0  0  0  0  0  0  0  0  0  0  0  0
   -6.5906    6.8258  -13.8671 H   0  0  0  0  0  0  0  0  0  0  0  0
   -8.2196    4.5528  -14.0155 N   0  0  0  0  0  0  0  0  0  0  0  0
   -7.2256    3.4512  -13.5521 C   0  0  0  0  0  0  0  0  0  0  0  0
   -6.3523    2.9301  -14.1265 O   0  0  0  0  0  0  0  0  0  0  0  0
   -8.8238    4.8851  -13.3128 H   0  0  0  0  0  0  0  0  0  0  0  0
   -7.5097    3.1877  -12.0611 C   0  0  0  0  0  0  0  0  0  0  0  0
   -6.2203    2.7436  -11.3498 C   0  0  0  0  0  0  0  0  0  0  0  0
   -6.4250    2.6096   -9.8459 C   0  0  0  0  0  0  0  0  0  0  0  0
   -6.8893    3.8699   -9.2629 N   0  0  0  0  0  0  0  0  0  0  0  0
   -8.1620    4.2691   -9.8612 C   0  0  0  0  0  0  0  0  0  0  0  0
   -8.0540    4.4508  -11.3741 C   0  0  0  0  0  0  0  0  0  0  0  0
   -6.1942    4.5963   -9.4352 H   0  0  0  0  0  0  0  0  0  0  0  0
   -4.8278    7.7529  -17.5014 C   0  0  0  0  0  0  0  0  0  0  0  0
   -4.5571    7.8776  -18.9337 N   0  0  0  0  0  0  0  0  0  0  0  0
   -5.7485    8.0737  -19.7475 C   0  0  0  0  0  0  0  0  0  0  0  0
   -5.3576    8.7306  -21.0728 C   0  0  0  0  0  0  0  0  0  0  0  0
   -4.0284    8.1974  -21.6245 C   0  0  0  0  0  0  0  0  0  0  0  0
   -3.6650    6.8481  -21.0092 C   0  0  0  0  0  0  0  0  0  0  0  0
   -3.6043    6.9204  -19.4818 C   0  0  0  0  0  0  0  0  0  0  0  0
   -3.9695    8.1540  -23.0811 N   0  0  0  0  0  0  0  0  0  0  0  0
   -2.8750    8.4111  -23.8272 C   0  0  0  0  0  0  0  0  0  0  0  0
   -2.9713    8.1146  -25.0825 N   0  0  0  0  0  0  0  0  0  0  0  0
   -4.2340    7.6011  -25.1892 N   0  0  0  0  0  0  0  0  0  0  0  0
   -4.8602    7.5679  -23.9465 C   0  0  0  0  0  0  0  0  0  0  0  0
   -5.9624    7.1017  -23.7184 O   0  0  0  0  0  0  0  0  0  0  0  0
   -4.6445    7.2963  -26.0305 H   0  0  0  0  0  0  0  0  0  0  0  0
  2  1  1  0  0  0
  2  3  1  0  0  0
  3  4  1  0  0  0
  4  5  2  0  0  0
  5  6  1  0  0  0
  6  7  1  0  0  0
  7  8  1  0  0  0
  8  9  1  0  0  0
  9 12  1  0  0  0
 12 13  1  0  0  0
 13 14  2  0  0  0
 13 16  1  0  0  0
 16 17  1  0  0  0
 17 18  1  0  0  0
 18 19  1  0  0  0
 19 20  1  0  0  0
 20 21  1  0  0  0
  5 10  1  0  0  0
 10 23  1  0  0  0
 23 24  1  0  0  0
 24 25  1  0  0  0
 25 26  1  0  0  0
 26 27  1  0  0  0
 27 30  1  0  0  0
 30 31  1  0  0  0
 31 32  2  0  0  0
 32 33  1  0  0  0
 33 34  1  0  0  0
 34 35  2  0  0  0
 27 28  1  0  0  0
 28 29  1  0  0  0
 10  2  1  0  0  0
 29 24  1  0  0  0
  9  4  1  0  0  0
 21 16  1  0  0  0
 34 30  1  0  0  0
  3 11  1  0  0  0
 12 15  1  0  0  0
 19 22  1  0  0  0
 33 36  1  0  0  0
M  END
> <minimizedAffinity>
-6.49953

> <minimizedRMSD>
0.76292

$$$$
P1063


 40 45  0  0  0  0  0  0  0  0999 V2000
   -7.3928    4.8263  -15.9350 C   0  0  0  0  0  0  0  0  0  0  0  0
   -7.7579    4.6083  -17.2772 C   0  0  0  0  0  0  0  0  0  0  0  0
   -9.3772    4.2365  -17.7287 Cl  0  0  0  0  0  0  0  0  0  0  0  0
   -6.8213    4.6916  -18.2993 C   0  0  0  0  0  0  0  0  0  0  0  0
   -5.5047    5.0712  -18.0357 C   0  0  0  0  0  0  0  0  0  0  0  0
   -5.1257    5.4263  -16.7269 C   0  0  0  0  0  0  0  0  0  0  0  0
   -3.9088    5.8830  -16.1067 C   0  0  0  0  0  0  0  0  0  0  0  0
   -4.1807    6.0371  -14.7603 C   0  0  0  0  0  0  0  0  0  0  0  0
   -5.4637    5.6414  -14.5387 N   0  0  0  0  0  0  0  0  0  0  0  0
   -6.0780    5.2980  -15.7230 C   0  0  0  0  0  0  0  0  0  0  0  0
   -5.8937    5.6055  -13.6538 H   0  0  0  0  0  0  0  0  0  0  0  0
   -8.3256    4.5556  -14.7739 C   0  0  0  0  0  0  0  0  0  0  0  0
   -9.7053    6.6940  -14.0848 N   0  0  0  0  0  0  0  0  0  0  0  0
   -9.0620    5.7741  -14.3914 C   0  0  0  0  0  0  0  0  0  0  0  0
   -7.5111    3.9128  -13.6917 N   0  0  0  0  0  0  0  0  0  0  0  0
   -6.7648    3.3260  -13.9525 H   0  0  0  0  0  0  0  0  0  0  0  0
   -7.7610    4.1073  -12.3290 C   0  0  0  0  0  0  0  0  0  0  0  0
   -8.4412    3.1065  -11.6053 C   0  0  0  0  0  0  0  0  0  0  0  0
   -8.6576    3.2059  -10.2262 C   0  0  0  0  0  0  0  0  0  0  0  0
   -8.1593    4.3074   -9.5662 C   0  0  0  0  0  0  0  0  0  0  0  0
   -7.4679    5.2950  -10.2523 C   0  0  0  0  0  0  0  0  0  0  0  0
   -7.2639    5.2128  -11.6227 C   0  0  0  0  0  0  0  0  0  0  0  0
   -7.0504    6.3539   -9.2897 C   0  0  0  0  0  0  0  0  0  0  0  0
   -7.2605    5.7704   -7.9364 N   0  0  0  0  0  0  0  0  0  0  0  0
   -8.2452    4.6671   -8.1243 C   0  0  0  0  0  0  0  0  0  0  0  0
   -7.6320    6.4746   -7.2988 H   0  0  0  0  0  0  0  0  0  0  0  0
   -2.5566    6.0829  -16.7148 C   0  0  0  0  0  0  0  0  0  0  0  0
   -2.6611    6.3071  -18.1473 N   0  0  0  0  0  0  0  0  0  0  0  0
   -2.6336    7.7147  -18.5449 C   0  0  0  0  0  0  0  0  0  0  0  0
   -2.3747    7.8905  -20.0480 C   0  0  0  0  0  0  0  0  0  0  0  0
   -2.9700    6.7291  -20.8503 C   0  0  0  0  0  0  0  0  0  0  0  0
   -2.4555    5.3711  -20.3312 C   0  0  0  0  0  0  0  0  0  0  0  0
   -1.8141    5.4561  -18.9501 C   0  0  0  0  0  0  0  0  0  0  0  0
   -2.7363    6.8892  -22.2808 N   0  0  0  0  0  0  0  0  0  0  0  0
   -1.5691    6.8569  -22.9531 C   0  0  0  0  0  0  0  0  0  0  0  0
   -1.6368    7.1805  -24.2043 N   0  0  0  0  0  0  0  0  0  0  0  0
   -2.9590    7.4848  -24.3808 N   0  0  0  0  0  0  0  0  0  0  0  0
   -3.6462    7.3967  -23.1741 C   0  0  0  0  0  0  0  0  0  0  0  0
   -4.7892    7.7669  -22.9700 O   0  0  0  0  0  0  0  0  0  0  0  0
   -3.3674    7.7319  -25.2419 H   0  0  0  0  0  0  0  0  0  0  0  0
 13 14  3  0  0  0
 12 14  1  0  0  0
 12 15  1  0  0  0
 15 17  1  0  0  0
 17 18  2  0  0  0
 18 19  1  0  0  0
 19 20  2  0  0  0
 20 21  1  0  0  0
 21 22  2  0  0  0
 21 23  1  0  0  0
 23 24  1  0  0  0
 24 25  1  0  0  0
 12  1  1  0  0  0
  1  2  2  0  0  0
  2  3  1  0  0  0
  2  4  1  0  0  0
  4  5  2  0  0  0
  5  6  1  0  0  0
  6  7  1  0  0  0
  7 27  1  0  0  0
 27 28  1  0  0  0
 28 29  1  0  0  0
 29 30  1  0  0  0
 30 31  1  0  0  0
 31 34  1  0  0  0
 34 35  1  0  0  0
 35 36  2  0  0  0
 36 37  1  0  0  0
 37 38  1  0  0  0
 38 39  2  0  0  0
 31 32  1  0  0  0
 32 33  1  0  0  0
  7  8  2  0  0  0
  8  9  1  0  0  0
  9 10  1  0  0  0
 22 17  1  0  0  0
 10  1  1  0  0  0
 25 20  1  0  0  0
 10  6  2  0  0  0
 33 28  1  0  0  0
 38 34  1  0  0  0
 15 16  1  0  0  0
 24 26  1  0  0  0
 37 40  1  0  0  0
  9 11  1  0  0  0
M  END
> <minimizedAffinity>
-7.33504

> <minimizedRMSD>
1.10544

$$$$
P1064


 39 44  0  0  0  0  0  0  0  0999 V2000
   -7.7861    5.0620  -15.8637 C   0  0  0  0  0  0  0  0  0  0  0  0
   -8.2049    4.6245  -17.1185 C   0  0  0  0  0  0  0  0  0  0  0  0
   -9.9759    4.1553  -17.5295 Br  0  0  0  0  0  0  0  0  0  0  0  0
   -7.3004    4.5694  -18.1794 C   0  0  0  0  0  0  0  0  0  0  0  0
   -5.9793    5.0094  -18.0373 C   0  0  0  0  0  0  0  0  0  0  0  0
   -5.5518    5.5679  -16.8182 C   0  0  0  0  0  0  0  0  0  0  0  0
   -4.3615    6.2293  -16.3477 C   0  0  0  0  0  0  0  0  0  0  0  0
   -4.6016    6.5707  -15.0267 C   0  0  0  0  0  0  0  0  0  0  0  0
   -5.8539    6.1678  -14.6888 N   0  0  0  0  0  0  0  0  0  0  0  0
   -6.4655    5.5614  -15.7653 C   0  0  0  0  0  0  0  0  0  0  0  0
   -6.2654    6.2910  -13.8030 H   0  0  0  0  0  0  0  0  0  0  0  0
   -9.4940    6.0056  -14.6344 O   0  0  0  0  0  0  0  0  0  0  0  0
   -8.5757    5.2863  -14.6225 C   0  0  0  0  0  0  0  0  0  0  0  0
   -7.9080    4.5312  -13.4475 N   0  0  0  0  0  0  0  0  0  0  0  0
   -7.1844    3.9174  -13.7100 H   0  0  0  0  0  0  0  0  0  0  0  0
   -8.1643    4.5790  -12.0811 C   0  0  0  0  0  0  0  0  0  0  0  0
   -7.9098    5.7863  -11.4042 C   0  0  0  0  0  0  0  0  0  0  0  0
   -7.9032    5.8391  -10.0073 C   0  0  0  0  0  0  0  0  0  0  0  0
   -8.2150    4.6871   -9.3104 C   0  0  0  0  0  0  0  0  0  0  0  0
   -8.5276    3.5085   -9.9786 C   0  0  0  0  0  0  0  0  0  0  0  0
   -8.4668    3.4220  -11.3643 C   0  0  0  0  0  0  0  0  0  0  0  0
   -8.9576    2.4833   -8.9810 C   0  0  0  0  0  0  0  0  0  0  0  0
   -8.6311    3.0439   -7.6472 N   0  0  0  0  0  0  0  0  0  0  0  0
   -8.3243    4.4733   -7.8390 C   0  0  0  0  0  0  0  0  0  0  0  0
   -7.8224    2.5624   -7.2540 H   0  0  0  0  0  0  0  0  0  0  0  0
   -3.0570    6.5352  -17.0218 C   0  0  0  0  0  0  0  0  0  0  0  0
   -3.1157    7.1996  -18.3226 N   0  0  0  0  0  0  0  0  0  0  0  0
   -4.1213    8.2382  -18.5066 C   0  0  0  0  0  0  0  0  0  0  0  0
   -3.8177    9.1166  -19.7312 C   0  0  0  0  0  0  0  0  0  0  0  0
   -3.1259    8.3422  -20.8580 C   0  0  0  0  0  0  0  0  0  0  0  0
   -3.4156    6.8517  -20.7607 C   0  0  0  0  0  0  0  0  0  0  0  0
   -2.9294    6.2834  -19.4363 C   0  0  0  0  0  0  0  0  0  0  0  0
   -3.4041    8.8330  -22.2026 N   0  0  0  0  0  0  0  0  0  0  0  0
   -2.4748    8.9907  -23.1698 C   0  0  0  0  0  0  0  0  0  0  0  0
   -2.9341    9.1496  -24.3682 N   0  0  0  0  0  0  0  0  0  0  0  0
   -4.2884    9.0774  -24.1990 N   0  0  0  0  0  0  0  0  0  0  0  0
   -4.6046    8.8112  -22.8697 C   0  0  0  0  0  0  0  0  0  0  0  0
   -5.7196    8.5775  -22.4380 O   0  0  0  0  0  0  0  0  0  0  0  0
   -4.9497    9.1973  -24.9185 H   0  0  0  0  0  0  0  0  0  0  0  0
 12 13  2  0  0  0
 13 14  1  0  0  0
 14 16  1  0  0  0
 16 17  2  0  0  0
 17 18  1  0  0  0
 18 19  2  0  0  0
 19 20  1  0  0  0
 20 21  2  0  0  0
 20 22  1  0  0  0
 22 23  1  0  0  0
 23 24  1  0  0  0
 13  1  1  0  0  0
  1  2  2  0  0  0
  2  3  1  0  0  0
  2  4  1  0  0  0
  4  5  2  0  0  0
  5  6  1  0  0  0
  6  7  1  0  0  0
  7 26  1  0  0  0
 26 27  1  0  0  0
 27 28  1  0  0  0
 28 29  1  0  0  0
 29 30  1  0  0  0
 30 33  1  0  0  0
 33 34  1  0  0  0
 34 35  2  0  0  0
 35 36  1  0  0  0
 36 37  1  0  0  0
 37 38  2  0  0  0
 30 31  1  0  0  0
 31 32  1  0  0  0
  7  8  2  0  0  0
  8  9  1  0  0  0
  9 10  1  0  0  0
 21 16  1  0  0  0
 10  1  1  0  0  0
 24 19  1  0  0  0
 10  6  2  0  0  0
 32 27  1  0  0  0
 37 33  1  0  0  0
 14 15  1  0  0  0
 23 25  1  0  0  0
 36 39  1  0  0  0
  9 11  1  0  0  0
M  END
> <minimizedAffinity>
-7.70309

> <minimizedRMSD>
0.53069

$$$$
P1066


 41 46  0  0  0  0  0  0  0  0999 V2000
   -7.8466    4.9473  -15.9205 C   0  0  0  0  0  0  0  0  0  0  0  0
   -8.3264    4.5616  -17.1732 C   0  0  0  0  0  0  0  0  0  0  0  0
   -9.9611    4.1753  -17.4880 Cl  0  0  0  0  0  0  0  0  0  0  0  0
   -7.4697    4.5151  -18.2734 C   0  0  0  0  0  0  0  0  0  0  0  0
   -6.1270    4.8938  -18.1688 C   0  0  0  0  0  0  0  0  0  0  0  0
   -5.6296    5.3919  -16.9502 C   0  0  0  0  0  0  0  0  0  0  0  0
   -4.3866    5.9689  -16.5044 C   0  0  0  0  0  0  0  0  0  0  0  0
   -4.5750    6.3091  -15.1742 C   0  0  0  0  0  0  0  0  0  0  0  0
   -5.8347    5.9618  -14.8007 N   0  0  0  0  0  0  0  0  0  0  0  0
   -6.5057    5.3965  -15.8629 C   0  0  0  0  0  0  0  0  0  0  0  0
   -6.2129    6.0948  -13.9015 H   0  0  0  0  0  0  0  0  0  0  0  0
   -9.5183    5.9274  -14.7005 O   0  0  0  0  0  0  0  0  0  0  0  0
   -8.6019    5.2039  -14.6632 C   0  0  0  0  0  0  0  0  0  0  0  0
   -7.9282    4.4960  -13.4576 N   0  0  0  0  0  0  0  0  0  0  0  0
   -7.2090    3.8679  -13.6975 H   0  0  0  0  0  0  0  0  0  0  0  0
   -8.1763    4.6050  -12.0882 C   0  0  0  0  0  0  0  0  0  0  0  0
   -8.0185    5.8584  -11.4987 C   0  0  0  0  0  0  0  0  0  0  0  0
   -8.0328    5.9937  -10.1108 C   0  0  0  0  0  0  0  0  0  0  0  0
   -8.2780    4.8943   -9.2916 C   0  0  0  0  0  0  0  0  0  0  0  0
   -8.5664    3.6482   -9.8652 C   0  0  0  0  0  0  0  0  0  0  0  0
   -8.4221    3.4993  -11.2730 C   0  0  0  0  0  0  0  0  0  0  0  0
   -9.0682    2.4598   -9.0755 C   0  0  0  0  0  0  0  0  0  0  0  0
   -9.7490    2.7604   -7.8174 N   0  0  0  0  0  0  0  0  0  0  0  0
   -8.8321    3.1430   -6.7481 C   0  0  0  0  0  0  0  0  0  0  0  0
   -7.7237    4.1082   -7.1678 C   0  0  0  0  0  0  0  0  0  0  0  0
   -8.2396    5.1855   -7.9513 O   0  0  0  0  0  0  0  0  0  0  0  0
  -10.2653    1.9320   -7.5215 H   0  0  0  0  0  0  0  0  0  0  0  0
   -3.0687    6.1733  -17.1939 C   0  0  0  0  0  0  0  0  0  0  0  0
   -3.0667    6.7142  -18.5547 N   0  0  0  0  0  0  0  0  0  0  0  0
   -3.9923    7.8102  -18.8341 C   0  0  0  0  0  0  0  0  0  0  0  0
   -3.7838    8.4133  -20.2308 C   0  0  0  0  0  0  0  0  0  0  0  0
   -3.7888    7.3046  -21.2847 C   0  0  0  0  0  0  0  0  0  0  0  0
   -2.6855    6.3090  -20.9331 C   0  0  0  0  0  0  0  0  0  0  0  0
   -2.9584    5.6838  -19.5753 C   0  0  0  0  0  0  0  0  0  0  0  0
   -3.6516    7.8084  -22.6435 N   0  0  0  0  0  0  0  0  0  0  0  0
   -2.6338    8.4846  -23.2092 C   0  0  0  0  0  0  0  0  0  0  0  0
   -2.8220    8.8459  -24.4383 N   0  0  0  0  0  0  0  0  0  0  0  0
   -4.0844    8.3960  -24.7119 N   0  0  0  0  0  0  0  0  0  0  0  0
   -4.6480    7.8042  -23.5868 C   0  0  0  0  0  0  0  0  0  0  0  0
   -5.7976    7.4160  -23.4760 O   0  0  0  0  0  0  0  0  0  0  0  0
   -4.5322    8.4796  -25.5847 H   0  0  0  0  0  0  0  0  0  0  0  0
 12 13  2  0  0  0
 13 14  1  0  0  0
 14 16  1  0  0  0
 16 17  2  0  0  0
 17 18  1  0  0  0
 18 19  2  0  0  0
 19 20  1  0  0  0
 20 21  2  0  0  0
 20 22  1  0  0  0
 22 23  1  0  0  0
 23 24  1  0  0  0
 24 25  1  0  0  0
 25 26  1  0  0  0
 13  1  1  0  0  0
  1  2  2  0  0  0
  2  3  1  0  0  0
  2  4  1  0  0  0
  4  5  2  0  0  0
  5  6  1  0  0  0
  6  7  1  0  0  0
  7 28  1  0  0  0
 28 29  1  0  0  0
 29 30  1  0  0  0
 30 31  1  0  0  0
 31 32  1  0  0  0
 32 35  1  0  0  0
 35 36  1  0  0  0
 36 37  2  0  0  0
 37 38  1  0  0  0
 38 39  1  0  0  0
 39 40  2  0  0  0
 32 33  1  0  0  0
 33 34  1  0  0  0
  7  8  2  0  0  0
  8  9  1  0  0  0
  9 10  1  0  0  0
 21 16  1  0  0  0
 10  1  1  0  0  0
 26 19  1  0  0  0
 10  6  2  0  0  0
 34 29  1  0  0  0
 39 35  1  0  0  0
 14 15  1  0  0  0
 23 27  1  0  0  0
 38 41  1  0  0  0
  9 11  1  0  0  0
M  END
> <minimizedAffinity>
-8.64772

> <minimizedRMSD>
0.39924

$$$$
P1067


 39 44  0  0  0  0  0  0  0  0999 V2000
   -7.9992    5.2331  -15.8110 C   0  0  0  0  0  0  0  0  0  0  0  0
   -8.3717    4.5051  -16.9313 C   0  0  0  0  0  0  0  0  0  0  0  0
   -9.5005    3.7869  -16.9590 F   0  0  0  0  0  0  0  0  0  0  0  0
   -7.5594    4.5061  -18.0616 C   0  0  0  0  0  0  0  0  0  0  0  0
   -6.3466    5.2220  -18.0918 C   0  0  0  0  0  0  0  0  0  0  0  0
   -5.9489    5.9936  -16.9770 C   0  0  0  0  0  0  0  0  0  0  0  0
   -4.8359    6.8493  -16.6377 C   0  0  0  0  0  0  0  0  0  0  0  0
   -5.0982    7.3491  -15.3716 C   0  0  0  0  0  0  0  0  0  0  0  0
   -6.2736    6.8335  -14.9288 N   0  0  0  0  0  0  0  0  0  0  0  0
   -6.8046    5.9852  -15.8747 C   0  0  0  0  0  0  0  0  0  0  0  0
   -6.6862    7.0365  -14.0583 H   0  0  0  0  0  0  0  0  0  0  0  0
   -9.6176    6.1764  -14.4660 O   0  0  0  0  0  0  0  0  0  0  0  0
   -8.7481    5.4032  -14.5452 C   0  0  0  0  0  0  0  0  0  0  0  0
   -8.1041    4.5063  -13.4647 N   0  0  0  0  0  0  0  0  0  0  0  0
   -7.4282    3.8750  -13.8022 H   0  0  0  0  0  0  0  0  0  0  0  0
   -8.3234    4.4458  -12.0947 C   0  0  0  0  0  0  0  0  0  0  0  0
   -8.5405    3.2067  -11.4803 C   0  0  0  0  0  0  0  0  0  0  0  0
   -8.5372    3.0930  -10.0869 C   0  0  0  0  0  0  0  0  0  0  0  0
   -8.2535    4.2193   -9.3379 C   0  0  0  0  0  0  0  0  0  0  0  0
   -8.0299    5.4496   -9.9450 C   0  0  0  0  0  0  0  0  0  0  0  0
   -8.0908    5.5893  -11.3225 C   0  0  0  0  0  0  0  0  0  0  0  0
   -7.6748    6.4517   -8.9013 C   0  0  0  0  0  0  0  0  0  0  0  0
   -7.9705    5.8067   -7.5927 N   0  0  0  0  0  0  0  0  0  0  0  0
   -8.0729    4.3454   -7.8651 C   0  0  0  0  0  0  0  0  0  0  0  0
   -8.8504    6.1588   -7.2154 H   0  0  0  0  0  0  0  0  0  0  0  0
   -3.5630    7.1770  -17.3605 C   0  0  0  0  0  0  0  0  0  0  0  0
   -3.6786    7.7870  -18.6818 N   0  0  0  0  0  0  0  0  0  0  0  0
   -4.7836    8.7101  -18.9058 C   0  0  0  0  0  0  0  0  0  0  0  0
   -4.5494    9.5760  -20.1566 C   0  0  0  0  0  0  0  0  0  0  0  0
   -3.7243    8.8514  -21.2254 C   0  0  0  0  0  0  0  0  0  0  0  0
   -3.9001    7.3468  -21.1072 C   0  0  0  0  0  0  0  0  0  0  0  0
   -3.4298    6.8366  -19.7556 C   0  0  0  0  0  0  0  0  0  0  0  0
   -3.9740    9.2842  -22.5948 N   0  0  0  0  0  0  0  0  0  0  0  0
   -3.0147    9.4794  -23.5254 C   0  0  0  0  0  0  0  0  0  0  0  0
   -3.4268    9.5486  -24.7495 N   0  0  0  0  0  0  0  0  0  0  0  0
   -4.7774    9.3679  -24.6385 N   0  0  0  0  0  0  0  0  0  0  0  0
   -5.1335    9.1259  -23.3148 C   0  0  0  0  0  0  0  0  0  0  0  0
   -6.2409    8.7998  -22.9247 O   0  0  0  0  0  0  0  0  0  0  0  0
   -5.4109    9.4040  -25.3912 H   0  0  0  0  0  0  0  0  0  0  0  0
 12 13  2  0  0  0
 13 14  1  0  0  0
 14 16  1  0  0  0
 16 17  2  0  0  0
 17 18  1  0  0  0
 18 19  2  0  0  0
 19 20  1  0  0  0
 20 21  2  0  0  0
 20 22  1  0  0  0
 22 23  1  0  0  0
 23 24  1  0  0  0
 13  1  1  0  0  0
  1  2  2  0  0  0
  2  3  1  0  0  0
  2  4  1  0  0  0
  4  5  2  0  0  0
  5  6  1  0  0  0
  6  7  1  0  0  0
  7 26  1  0  0  0
 26 27  1  0  0  0
 27 28  1  0  0  0
 28 29  1  0  0  0
 29 30  1  0  0  0
 30 33  1  0  0  0
 33 34  1  0  0  0
 34 35  2  0  0  0
 35 36  1  0  0  0
 36 37  1  0  0  0
 37 38  2  0  0  0
 30 31  1  0  0  0
 31 32  1  0  0  0
  7  8  2  0  0  0
  8  9  1  0  0  0
  9 10  1  0  0  0
 21 16  1  0  0  0
 10  1  1  0  0  0
 24 19  1  0  0  0
 10  6  2  0  0  0
 32 27  1  0  0  0
 37 33  1  0  0  0
 14 15  1  0  0  0
 23 25  1  0  0  0
 36 39  1  0  0  0
  9 11  1  0  0  0
M  END
> <minimizedAffinity>
-7.64318

> <minimizedRMSD>
0.56595

$$$$
P1075


 41 46  0  0  0  0  0  0  0  0999 V2000
   -7.1906    4.6809  -17.6198 C   0  0  0  0  0  0  0  0  0  0  0  0
   -5.8252    4.8984  -17.3738 C   0  0  0  0  0  0  0  0  0  0  0  0
   -5.3778    5.2349  -16.0919 C   0  0  0  0  0  0  0  0  0  0  0  0
   -4.1181    5.6242  -15.5256 C   0  0  0  0  0  0  0  0  0  0  0  0
   -4.3601    5.8408  -14.1791 C   0  0  0  0  0  0  0  0  0  0  0  0
   -5.6766    5.6103  -13.9194 N   0  0  0  0  0  0  0  0  0  0  0  0
   -6.3301    5.2457  -15.0770 C   0  0  0  0  0  0  0  0  0  0  0  0
   -7.7053    4.9730  -15.2783 C   0  0  0  0  0  0  0  0  0  0  0  0
   -8.1377    4.7495  -16.5913 C   0  0  0  0  0  0  0  0  0  0  0  0
   -9.8049    4.5930  -16.9735 Cl  0  0  0  0  0  0  0  0  0  0  0  0
   -6.0999    5.6920  -13.0343 H   0  0  0  0  0  0  0  0  0  0  0  0
   -8.5094    5.1725  -14.0429 C   0  0  0  0  0  0  0  0  0  0  0  0
   -9.3794    5.9513  -14.0578 O   0  0  0  0  0  0  0  0  0  0  0  0
   -7.9390    4.3252  -12.8758 N   0  0  0  0  0  0  0  0  0  0  0  0
   -7.2461    3.6766  -13.1375 H   0  0  0  0  0  0  0  0  0  0  0  0
   -8.2485    4.3328  -11.5151 C   0  0  0  0  0  0  0  0  0  0  0  0
   -8.0351    5.5335  -10.8116 C   0  0  0  0  0  0  0  0  0  0  0  0
   -8.0777    5.5741   -9.4158 C   0  0  0  0  0  0  0  0  0  0  0  0
   -8.4167    4.4188   -8.7445 C   0  0  0  0  0  0  0  0  0  0  0  0
   -8.6916    3.2398   -9.4324 C   0  0  0  0  0  0  0  0  0  0  0  0
   -8.5609    3.1635  -10.8173 C   0  0  0  0  0  0  0  0  0  0  0  0
   -9.0863    2.1926   -8.4394 C   0  0  0  0  0  0  0  0  0  0  0  0
   -9.2421    2.9010   -7.1391 N   0  0  0  0  0  0  0  0  0  0  0  0
   -8.5289    4.1818   -7.2780 C   0  0  0  0  0  0  0  0  0  0  0  0
   -8.8332    2.3491   -6.3850 H   0  0  0  0  0  0  0  0  0  0  0  0
   -7.6868    3.9280  -20.0345 N   0  0  0  0  0  0  0  0  0  0  0  0
   -7.5059    4.3574  -18.9732 C   0  0  0  0  0  0  0  0  0  0  0  0
   -2.7536    5.7737  -16.1377 C   0  0  0  0  0  0  0  0  0  0  0  0
   -2.6881    6.1748  -17.5398 N   0  0  0  0  0  0  0  0  0  0  0  0
   -3.4169    7.3642  -17.9515 C   0  0  0  0  0  0  0  0  0  0  0  0
   -2.8920    7.9252  -19.2828 C   0  0  0  0  0  0  0  0  0  0  0  0
   -2.3983    6.8337  -20.2405 C   0  0  0  0  0  0  0  0  0  0  0  0
   -3.0097    5.4797  -19.9017 C   0  0  0  0  0  0  0  0  0  0  0  0
   -2.6555    5.0659  -18.4785 C   0  0  0  0  0  0  0  0  0  0  0  0
   -2.5554    7.1430  -21.6574 N   0  0  0  0  0  0  0  0  0  0  0  0
   -1.6534    6.8464  -22.6178 C   0  0  0  0  0  0  0  0  0  0  0  0
   -2.0739    6.9561  -23.8357 N   0  0  0  0  0  0  0  0  0  0  0  0
   -3.3754    7.3463  -23.6856 N   0  0  0  0  0  0  0  0  0  0  0  0
   -3.7176    7.4124  -22.3380 C   0  0  0  0  0  0  0  0  0  0  0  0
   -4.8286    7.6437  -21.8953 O   0  0  0  0  0  0  0  0  0  0  0  0
   -3.9871    7.5524  -24.4290 H   0  0  0  0  0  0  0  0  0  0  0  0
 26 27  3  0  0  0
 27  1  1  0  0  0
  1  2  2  0  0  0
  2  3  1  0  0  0
  3  4  1  0  0  0
  4 28  1  0  0  0
 28 29  1  0  0  0
 29 30  1  0  0  0
 30 31  1  0  0  0
 31 32  1  0  0  0
 32 35  1  0  0  0
 35 36  1  0  0  0
 36 37  2  0  0  0
 37 38  1  0  0  0
 38 39  1  0  0  0
 39 40  2  0  0  0
 32 33  1  0  0  0
 33 34  1  0  0  0
  4  5  2  0  0  0
  5  6  1  0  0  0
  6  7  1  0  0  0
  7  8  1  0  0  0
  8 12  1  0  0  0
 12 13  2  0  0  0
 12 14  1  0  0  0
 14 16  1  0  0  0
 16 17  2  0  0  0
 17 18  1  0  0  0
 18 19  2  0  0  0
 19 20  1  0  0  0
 20 21  2  0  0  0
 20 22  1  0  0  0
 22 23  1  0  0  0
 23 24  1  0  0  0
  8  9  2  0  0  0
  9 10  1  0  0  0
  9  1  1  0  0  0
  7  3  2  0  0  0
 21 16  1  0  0  0
 34 29  1  0  0  0
 24 19  1  0  0  0
 39 35  1  0  0  0
 38 41  1  0  0  0
  6 11  1  0  0  0
 14 15  1  0  0  0
 23 25  1  0  0  0
M  END
> <minimizedAffinity>
-7.40825

> <minimizedRMSD>
1.24709

$$$$
P1083


 39 44  0  0  0  0  0  0  0  0999 V2000
   -6.7084    4.5668  -15.6368 C   0  0  0  0  0  0  0  0  0  0  0  0
   -7.5972    4.6433  -16.7112 C   0  0  0  0  0  0  0  0  0  0  0  0
   -9.2950    4.5438  -16.5469 Cl  0  0  0  0  0  0  0  0  0  0  0  0
   -7.1259    4.8876  -17.9952 C   0  0  0  0  0  0  0  0  0  0  0  0
   -5.7655    5.0944  -18.2347 C   0  0  0  0  0  0  0  0  0  0  0  0
   -4.8434    5.1198  -17.1676 C   0  0  0  0  0  0  0  0  0  0  0  0
   -3.4206    5.3074  -17.0231 C   0  0  0  0  0  0  0  0  0  0  0  0
   -3.1554    5.1895  -15.6658 C   0  0  0  0  0  0  0  0  0  0  0  0
   -4.2996    4.8651  -15.0128 N   0  0  0  0  0  0  0  0  0  0  0  0
   -5.3547    4.8591  -15.8923 C   0  0  0  0  0  0  0  0  0  0  0  0
   -4.3640    4.6638  -14.0513 H   0  0  0  0  0  0  0  0  0  0  0  0
   -6.6396    2.9128  -14.0655 O   0  0  0  0  0  0  0  0  0  0  0  0
   -6.9915    3.9985  -14.2922 C   0  0  0  0  0  0  0  0  0  0  0  0
   -7.6481    5.0488  -13.3732 N   0  0  0  0  0  0  0  0  0  0  0  0
   -7.9254    5.8775  -13.8266 H   0  0  0  0  0  0  0  0  0  0  0  0
   -7.9130    5.0153  -12.0041 C   0  0  0  0  0  0  0  0  0  0  0  0
   -7.6348    6.1620  -11.2444 C   0  0  0  0  0  0  0  0  0  0  0  0
   -7.7558    6.1396   -9.8515 C   0  0  0  0  0  0  0  0  0  0  0  0
   -8.1619    4.9655   -9.2432 C   0  0  0  0  0  0  0  0  0  0  0  0
   -8.4695    3.8376   -9.9927 C   0  0  0  0  0  0  0  0  0  0  0  0
   -8.3533    3.8429  -11.3761 C   0  0  0  0  0  0  0  0  0  0  0  0
   -8.9226    2.7492   -9.0765 C   0  0  0  0  0  0  0  0  0  0  0  0
   -8.6625    3.2383   -7.6959 N   0  0  0  0  0  0  0  0  0  0  0  0
   -8.3764    4.6811   -7.7959 C   0  0  0  0  0  0  0  0  0  0  0  0
   -7.8615    2.7493   -7.2962 H   0  0  0  0  0  0  0  0  0  0  0  0
   -2.2885    5.5286  -17.9852 C   0  0  0  0  0  0  0  0  0  0  0  0
   -2.4432    6.5049  -19.0482 N   0  0  0  0  0  0  0  0  0  0  0  0
   -2.9918    7.7964  -18.6802 C   0  0  0  0  0  0  0  0  0  0  0  0
   -2.6528    8.8700  -19.7227 C   0  0  0  0  0  0  0  0  0  0  0  0
   -2.4855    8.3016  -21.1365 C   0  0  0  0  0  0  0  0  0  0  0  0
   -3.2854    7.0183  -21.3166 C   0  0  0  0  0  0  0  0  0  0  0  0
   -2.8300    5.9477  -20.3328 C   0  0  0  0  0  0  0  0  0  0  0  0
   -2.7730    9.2565  -22.1984 N   0  0  0  0  0  0  0  0  0  0  0  0
   -2.0047    9.4679  -23.2875 C   0  0  0  0  0  0  0  0  0  0  0  0
   -2.5442   10.1817  -24.2212 N   0  0  0  0  0  0  0  0  0  0  0  0
   -3.7873   10.4638  -23.7257 N   0  0  0  0  0  0  0  0  0  0  0  0
   -3.9755    9.8512  -22.4903 C   0  0  0  0  0  0  0  0  0  0  0  0
   -5.0095    9.8468  -21.8453 O   0  0  0  0  0  0  0  0  0  0  0  0
   -4.4573   11.0236  -24.1806 H   0  0  0  0  0  0  0  0  0  0  0  0
 12 13  2  0  0  0
 13 14  1  0  0  0
 14 16  1  0  0  0
 16 17  2  0  0  0
 17 18  1  0  0  0
 18 19  2  0  0  0
 19 20  1  0  0  0
 20 21  2  0  0  0
 20 22  1  0  0  0
 22 23  1  0  0  0
 23 24  1  0  0  0
 13  1  1  0  0  0
  1  2  2  0  0  0
  2  3  1  0  0  0
  2  4  1  0  0  0
  4  5  2  0  0  0
  5  6  1  0  0  0
  6  7  1  0  0  0
  7 26  1  0  0  0
 26 27  1  0  0  0
 27 28  1  0  0  0
 28 29  1  0  0  0
 29 30  1  0  0  0
 30 33  1  0  0  0
 33 34  1  0  0  0
 34 35  2  0  0  0
 35 36  1  0  0  0
 36 37  1  0  0  0
 37 38  2  0  0  0
 30 31  1  0  0  0
 31 32  1  0  0  0
  7  8  2  0  0  0
  8  9  1  0  0  0
  9 10  1  0  0  0
 21 16  1  0  0  0
 10  1  1  0  0  0
 24 19  1  0  0  0
 10  6  2  0  0  0
 32 27  1  0  0  0
 37 33  1  0  0  0
 14 15  1  0  0  0
 23 25  1  0  0  0
 36 39  1  0  0  0
  9 11  1  0  0  0
M  END
> <minimizedAffinity>
-7.46675

> <minimizedRMSD>
1.22460

$$$$
P1084


 45 50  0  0  0  0  0  0  0  0999 V2000
   -6.4838    4.8111  -15.1090 C   0  0  0  0  0  0  0  0  0  0  0  0
   -7.2331    4.6494  -16.2847 C   0  0  0  0  0  0  0  0  0  0  0  0
   -8.9094    4.3502  -16.2544 Cl  0  0  0  0  0  0  0  0  0  0  0  0
   -6.6735    4.8125  -17.5528 C   0  0  0  0  0  0  0  0  0  0  0  0
   -5.3321    5.1586  -17.6990 C   0  0  0  0  0  0  0  0  0  0  0  0
   -4.5825    5.5134  -16.5623 C   0  0  0  0  0  0  0  0  0  0  0  0
   -3.2256    5.9209  -16.2937 C   0  0  0  0  0  0  0  0  0  0  0  0
   -3.1788    6.2411  -14.9465 C   0  0  0  0  0  0  0  0  0  0  0  0
   -4.3874    5.9881  -14.3925 N   0  0  0  0  0  0  0  0  0  0  0  0
   -5.2236    5.4164  -15.3229 C   0  0  0  0  0  0  0  0  0  0  0  0
   -4.6323    6.1846  -13.4594 H   0  0  0  0  0  0  0  0  0  0  0  0
   -6.8048    4.2697  -13.7197 C   0  0  0  0  0  0  0  0  0  0  0  0
   -4.8424    3.1731  -12.5635 N   0  0  0  0  0  0  0  0  0  0  0  0
   -6.1183    2.8681  -13.4178 C   0  0  0  0  0  0  0  0  0  0  0  0
   -6.5868    1.8447  -13.7422 O   0  0  0  0  0  0  0  0  0  0  0  0
   -4.6984    4.1261  -12.3629 H   0  0  0  0  0  0  0  0  0  0  0  0
   -3.8475    2.2872  -12.0247 C   0  0  0  0  0  0  0  0  0  0  0  0
   -2.7718    1.4158   -9.9308 C   0  0  0  0  0  0  0  0  0  0  0  0
   -4.0113    2.0967  -10.5110 C   0  0  0  0  0  0  0  0  0  0  0  0
   -5.2640    1.2879  -10.1626 C   0  0  0  0  0  0  0  0  0  0  0  0
   -8.2275    4.3098  -13.3146 N   0  0  0  0  0  0  0  0  0  0  0  0
   -8.9992    4.3058  -13.9260 H   0  0  0  0  0  0  0  0  0  0  0  0
   -8.2946    4.3555  -11.8837 C   0  0  0  0  0  0  0  0  0  0  0  0
   -8.6476    3.2137  -11.1374 C   0  0  0  0  0  0  0  0  0  0  0  0
   -8.5898    3.2063   -9.7402 C   0  0  0  0  0  0  0  0  0  0  0  0
   -8.1880    4.3617   -9.0995 C   0  0  0  0  0  0  0  0  0  0  0  0
   -7.8434    5.5001   -9.8207 C   0  0  0  0  0  0  0  0  0  0  0  0
   -7.8732    5.5110  -11.2071 C   0  0  0  0  0  0  0  0  0  0  0  0
   -7.4390    6.5751   -8.8721 C   0  0  0  0  0  0  0  0  0  0  0  0
   -7.8353    6.0973   -7.5220 N   0  0  0  0  0  0  0  0  0  0  0  0
   -8.0020    4.6200   -7.6438 C   0  0  0  0  0  0  0  0  0  0  0  0
   -8.7130    6.5310   -7.2357 H   0  0  0  0  0  0  0  0  0  0  0  0
   -1.9751    5.9859  -17.1165 C   0  0  0  0  0  0  0  0  0  0  0  0
   -2.0603    6.3355  -18.5226 N   0  0  0  0  0  0  0  0  0  0  0  0
   -2.8447    7.5188  -18.8453 C   0  0  0  0  0  0  0  0  0  0  0  0
   -2.6528    7.9463  -20.3020 C   0  0  0  0  0  0  0  0  0  0  0  0
   -2.8532    6.7635  -21.2579 C   0  0  0  0  0  0  0  0  0  0  0  0
   -1.9034    5.6359  -20.8407 C   0  0  0  0  0  0  0  0  0  0  0  0
   -2.1872    5.1961  -19.4119 C   0  0  0  0  0  0  0  0  0  0  0  0
   -2.6556    7.1724  -22.6702 C   0  0  0  0  0  0  0  0  0  0  0  0
   -1.6004    7.2950  -23.4680 C   0  0  0  0  0  0  0  0  0  0  0  0
   -1.9076    7.6703  -24.7385 N   0  0  0  0  0  0  0  0  0  0  0  0
   -3.1560    7.7931  -24.8365 N   0  0  0  0  0  0  0  0  0  0  0  0
   -3.7283    7.5100  -23.6106 C   0  0  0  0  0  0  0  0  0  0  0  0
   -4.9116    7.5489  -23.3108 O   0  0  0  0  0  0  0  0  0  0  0  0
 18 19  1  0  0  0
 19 20  1  0  0  0
 19 17  1  0  0  0
 17 13  1  0  0  0
 13 14  1  0  0  0
 14 15  2  0  0  0
 14 12  1  0  0  0
 12 21  1  0  0  0
 21 23  1  0  0  0
 23 24  2  0  0  0
 24 25  1  0  0  0
 25 26  2  0  0  0
 26 27  1  0  0  0
 27 28  2  0  0  0
 27 29  1  0  0  0
 29 30  1  0  0  0
 30 31  1  0  0  0
 12  1  1  0  0  0
  1  2  2  0  0  0
  2  3  1  0  0  0
  2  4  1  0  0  0
  4  5  2  0  0  0
  5  6  1  0  0  0
  6  7  1  0  0  0
  7 33  1  0  0  0
 33 34  1  0  0  0
 34 35  1  0  0  0
 35 36  1  0  0  0
 36 37  1  0  0  0
 37 40  1  0  0  0
 40 41  2  0  0  0
 41 42  1  0  0  0
 42 43  2  0  0  0
 43 44  1  0  0  0
 44 45  2  0  0  0
 37 38  1  0  0  0
 38 39  1  0  0  0
  7  8  2  0  0  0
  8  9  1  0  0  0
  9 10  1  0  0  0
 28 23  1  0  0  0
 10  1  1  0  0  0
 31 26  1  0  0  0
 10  6  2  0  0  0
 39 34  1  0  0  0
 44 40  1  0  0  0
 13 16  1  0  0  0
 21 22  1  0  0  0
 30 32  1  0  0  0
  9 11  1  0  0  0
M  END
> <minimizedAffinity>
-7.66982

> <minimizedRMSD>
1.16677

$$$$
P1118


 45 50  0  0  0  0  0  0  0  0999 V2000
   -6.9724    4.6898  -15.4194 C   0  0  0  0  0  0  0  0  0  0  0  0
   -7.9370    4.6396  -16.4192 C   0  0  0  0  0  0  0  0  0  0  0  0
   -9.0810    3.9697  -16.2483 F   0  0  0  0  0  0  0  0  0  0  0  0
   -7.7450    5.3078  -17.6186 C   0  0  0  0  0  0  0  0  0  0  0  0
   -6.5912    6.0777  -17.8311 C   0  0  0  0  0  0  0  0  0  0  0  0
   -5.5874    6.1683  -16.8375 C   0  0  0  0  0  0  0  0  0  0  0  0
   -4.3200    6.8449  -16.6789 C   0  0  0  0  0  0  0  0  0  0  0  0
   -3.8215    6.4663  -15.4308 C   0  0  0  0  0  0  0  0  0  0  0  0
   -4.7040    5.5923  -14.8677 N   0  0  0  0  0  0  0  0  0  0  0  0
   -5.8098    5.4431  -15.6633 C   0  0  0  0  0  0  0  0  0  0  0  0
   -4.5658    5.1321  -14.0085 H   0  0  0  0  0  0  0  0  0  0  0  0
   -6.6043    2.8692  -14.0765 O   0  0  0  0  0  0  0  0  0  0  0  0
   -7.0879    3.9612  -14.1349 C   0  0  0  0  0  0  0  0  0  0  0  0
   -7.7084    4.7716  -13.1183 N   0  0  0  0  0  0  0  0  0  0  0  0
   -7.9599    5.6763  -13.4140 H   0  0  0  0  0  0  0  0  0  0  0  0
   -8.0136    4.4922  -11.7856 C   0  0  0  0  0  0  0  0  0  0  0  0
   -8.4637    3.2215  -11.3957 C   0  0  0  0  0  0  0  0  0  0  0  0
   -8.7292    2.9298  -10.0546 C   0  0  0  0  0  0  0  0  0  0  0  0
   -8.5036    3.9135   -9.1157 C   0  0  0  0  0  0  0  0  0  0  0  0
   -8.0435    5.1713   -9.4915 C   0  0  0  0  0  0  0  0  0  0  0  0
   -7.8211    5.4907  -10.8241 C   0  0  0  0  0  0  0  0  0  0  0  0
   -7.8601    6.0006   -8.2670 C   0  0  0  0  0  0  0  0  0  0  0  0
   -7.9594    5.0595   -7.1200 N   0  0  0  0  0  0  0  0  0  0  0  0
   -8.6884    3.8644   -7.6383 C   0  0  0  0  0  0  0  0  0  0  0  0
   -8.4782    5.4873   -6.3530 H   0  0  0  0  0  0  0  0  0  0  0  0
   -3.5561    7.8361  -17.5198 C   0  0  0  0  0  0  0  0  0  0  0  0
   -3.5912    7.7462  -18.9738 N   0  0  0  0  0  0  0  0  0  0  0  0
   -4.6572    8.4932  -19.6196 C   0  0  0  0  0  0  0  0  0  0  0  0
   -4.3970    8.6453  -21.1175 C   0  0  0  0  0  0  0  0  0  0  0  0
   -4.1122    7.2899  -21.7691 C   0  0  0  0  0  0  0  0  0  0  0  0
   -2.9526    6.6064  -21.0359 C   0  0  0  0  0  0  0  0  0  0  0  0
   -3.2497    6.4567  -19.5476 C   0  0  0  0  0  0  0  0  0  0  0  0
   -3.8641    7.4366  -23.2012 N   0  0  0  0  0  0  0  0  0  0  0  0
   -2.8066    7.9870  -23.8290 C   0  0  0  0  0  0  0  0  0  0  0  0
   -2.9439    8.1668  -25.1043 N   0  0  0  0  0  0  0  0  0  0  0  0
   -4.2150    7.7273  -25.3505 N   0  0  0  0  0  0  0  0  0  0  0  0
   -4.8413    7.3630  -24.1632 C   0  0  0  0  0  0  0  0  0  0  0  0
   -6.0284    7.1235  -24.0242 O   0  0  0  0  0  0  0  0  0  0  0  0
   -4.6286    7.6760  -26.2425 H   0  0  0  0  0  0  0  0  0  0  0  0
   -2.6967    6.8859  -14.8348 O   0  0  0  0  0  0  0  0  0  0  0  0
   -2.5128    6.6406  -13.4376 C   0  0  0  0  0  0  0  0  0  0  0  0
   -2.9933    7.8096  -12.5737 C   0  0  0  0  0  0  0  0  0  0  0  0
   -2.5389    9.1641  -13.1081 C   0  0  0  0  0  0  0  0  0  0  0  0
   -3.4461    9.6636  -14.0815 O   0  0  0  0  0  0  0  0  0  0  0  0
   -3.4899    9.0471  -14.8291 H   0  0  0  0  0  0  0  0  0  0  0  0
 12 13  2  0  0  0
 13 14  1  0  0  0
 14 16  1  0  0  0
 16 17  2  0  0  0
 17 18  1  0  0  0
 18 19  2  0  0  0
 19 20  1  0  0  0
 20 21  2  0  0  0
 20 22  1  0  0  0
 22 23  1  0  0  0
 23 24  1  0  0  0
 13  1  1  0  0  0
  1  2  2  0  0  0
  2  3  1  0  0  0
  2  4  1  0  0  0
  4  5  2  0  0  0
  5  6  1  0  0  0
  6  7  1  0  0  0
  7 26  1  0  0  0
 26 27  1  0  0  0
 27 28  1  0  0  0
 28 29  1  0  0  0
 29 30  1  0  0  0
 30 33  1  0  0  0
 33 34  1  0  0  0
 34 35  2  0  0  0
 35 36  1  0  0  0
 36 37  1  0  0  0
 37 38  2  0  0  0
 30 31  1  0  0  0
 31 32  1  0  0  0
  7  8  2  0  0  0
  8 40  1  0  0  0
 40 41  1  0  0  0
 41 42  1  0  0  0
 42 43  1  0  0  0
 43 44  1  0  0  0
  8  9  1  0  0  0
  9 10  1  0  0  0
 21 16  1  0  0  0
 10  1  1  0  0  0
 24 19  1  0  0  0
 10  6  2  0  0  0
 32 27  1  0  0  0
 37 33  1  0  0  0
 14 15  1  0  0  0
 23 25  1  0  0  0
 36 39  1  0  0  0
 44 45  1  0  0  0
  9 11  1  0  0  0
M  END
> <minimizedAffinity>
-6.14276

> <minimizedRMSD>
0.66924

$$$$
P1119


 43 48  0  0  0  0  0  0  0  0999 V2000
   -4.5816    6.2846  -15.8573 C   0  0  0  0  0  0  0  0  0  0  0  0
   -4.7333    5.7268  -17.1163 C   0  0  0  0  0  0  0  0  0  0  0  0
   -6.0856    5.2903  -17.2350 C   0  0  0  0  0  0  0  0  0  0  0  0
   -6.8126    4.7130  -18.2974 C   0  0  0  0  0  0  0  0  0  0  0  0
   -8.1337    4.3249  -18.0988 C   0  0  0  0  0  0  0  0  0  0  0  0
   -8.7211    4.4555  -16.8482 C   0  0  0  0  0  0  0  0  0  0  0  0
   -9.9772    4.0190  -16.7277 F   0  0  0  0  0  0  0  0  0  0  0  0
   -8.0329    5.0221  -15.7688 C   0  0  0  0  0  0  0  0  0  0  0  0
   -6.7074    5.4844  -15.9967 C   0  0  0  0  0  0  0  0  0  0  0  0
   -5.7928    6.1718  -15.2026 N   0  0  0  0  0  0  0  0  0  0  0  0
   -6.0549    6.6819  -13.8706 C   0  0  0  0  0  0  0  0  0  0  0  0
   -8.6420    5.2859  -14.4458 C   0  0  0  0  0  0  0  0  0  0  0  0
   -9.4067    6.1675  -14.3718 O   0  0  0  0  0  0  0  0  0  0  0  0
   -8.0540    4.3701  -13.3409 N   0  0  0  0  0  0  0  0  0  0  0  0
   -7.4794    3.6421  -13.6714 H   0  0  0  0  0  0  0  0  0  0  0  0
   -8.2076    4.4103  -11.9492 C   0  0  0  0  0  0  0  0  0  0  0  0
   -7.9285    5.6102  -11.2689 C   0  0  0  0  0  0  0  0  0  0  0  0
   -7.9228    5.6727   -9.8703 C   0  0  0  0  0  0  0  0  0  0  0  0
   -8.2759    4.5399   -9.1656 C   0  0  0  0  0  0  0  0  0  0  0  0
   -8.5961    3.3586   -9.8264 C   0  0  0  0  0  0  0  0  0  0  0  0
   -8.5134    3.2614  -11.2150 C   0  0  0  0  0  0  0  0  0  0  0  0
   -8.9843    2.3373   -8.8025 C   0  0  0  0  0  0  0  0  0  0  0  0
   -9.1682    3.0920   -7.5292 N   0  0  0  0  0  0  0  0  0  0  0  0
   -8.3768    4.3278   -7.6925 C   0  0  0  0  0  0  0  0  0  0  0  0
   -8.8230    2.5483   -6.7382 H   0  0  0  0  0  0  0  0  0  0  0  0
   -3.3409    6.8855  -15.2587 C   0  0  0  0  0  0  0  0  0  0  0  0
   -2.4203    5.8191  -14.6585 C   0  0  0  0  0  0  0  0  0  0  0  0
   -2.6087    6.5571  -12.4084 C   0  0  0  0  0  0  0  0  0  0  0  0
   -1.7359    6.3093  -13.5028 O   0  0  0  0  0  0  0  0  0  0  0  0
   -3.6762    5.5184  -18.1488 C   0  0  0  0  0  0  0  0  0  0  0  0
   -3.2715    6.7529  -18.8411 N   0  0  0  0  0  0  0  0  0  0  0  0
   -4.4228    7.5354  -19.3294 C   0  0  0  0  0  0  0  0  0  0  0  0
   -3.9856    8.6876  -20.2403 C   0  0  0  0  0  0  0  0  0  0  0  0
   -3.1342    8.1992  -21.4193 C   0  0  0  0  0  0  0  0  0  0  0  0
   -2.8109    6.7081  -21.3084 C   0  0  0  0  0  0  0  0  0  0  0  0
   -2.3176    6.4005  -19.9010 C   0  0  0  0  0  0  0  0  0  0  0  0
   -3.6290    8.5221  -22.7525 N   0  0  0  0  0  0  0  0  0  0  0  0
   -2.8578    9.0045  -23.7523 C   0  0  0  0  0  0  0  0  0  0  0  0
   -3.4048    9.0246  -24.9234 N   0  0  0  0  0  0  0  0  0  0  0  0
   -4.6470    8.5040  -24.6974 N   0  0  0  0  0  0  0  0  0  0  0  0
   -4.7980    8.1447  -23.3613 C   0  0  0  0  0  0  0  0  0  0  0  0
   -5.7805    7.6105  -22.8805 O   0  0  0  0  0  0  0  0  0  0  0  0
   -5.3418    8.3971  -25.3866 H   0  0  0  0  0  0  0  0  0  0  0  0
 28 29  1  0  0  0
 29 27  1  0  0  0
 27 26  1  0  0  0
 26  1  1  0  0  0
  1  2  2  0  0  0
  2 30  1  0  0  0
 30 31  1  0  0  0
 31 32  1  0  0  0
 32 33  1  0  0  0
 33 34  1  0  0  0
 34 37  1  0  0  0
 37 38  1  0  0  0
 38 39  2  0  0  0
 39 40  1  0  0  0
 40 41  1  0  0  0
 41 42  2  0  0  0
 34 35  1  0  0  0
 35 36  1  0  0  0
  2  3  1  0  0  0
  3  4  2  0  0  0
  4  5  1  0  0  0
  5  6  2  0  0  0
  6  7  1  0  0  0
  6  8  1  0  0  0
  8 12  1  0  0  0
 12 13  2  0  0  0
 12 14  1  0  0  0
 14 16  1  0  0  0
 16 17  2  0  0  0
 17 18  1  0  0  0
 18 19  2  0  0  0
 19 20  1  0  0  0
 20 21  2  0  0  0
 20 22  1  0  0  0
 22 23  1  0  0  0
 23 24  1  0  0  0
  8  9  2  0  0  0
  9 10  1  0  0  0
 10 11  1  0  0  0
 10  1  1  0  0  0
 36 31  1  0  0  0
  9  3  1  0  0  0
 41 37  1  0  0  0
 21 16  1  0  0  0
 24 19  1  0  0  0
 40 43  1  0  0  0
 14 15  1  0  0  0
 23 25  1  0  0  0
M  END
> <minimizedAffinity>
-7.54389

> <minimizedRMSD>
0.52189

$$$$
P1120


 39 44  0  0  0  0  0  0  0  0999 V2000
   -8.0165    5.0677  -15.7534 C   0  0  0  0  0  0  0  0  0  0  0  0
   -8.5305    4.4673  -16.8981 C   0  0  0  0  0  0  0  0  0  0  0  0
   -9.7477    3.9128  -16.9163 F   0  0  0  0  0  0  0  0  0  0  0  0
   -7.7825    4.4304  -18.0727 C   0  0  0  0  0  0  0  0  0  0  0  0
   -6.4864    4.9704  -18.1272 C   0  0  0  0  0  0  0  0  0  0  0  0
   -5.9485    5.6276  -16.9997 C   0  0  0  0  0  0  0  0  0  0  0  0
   -4.7144    6.3032  -16.6825 C   0  0  0  0  0  0  0  0  0  0  0  0
   -4.8620    6.7992  -15.3968 C   0  0  0  0  0  0  0  0  0  0  0  0
   -6.0759    6.4238  -14.9139 N   0  0  0  0  0  0  0  0  0  0  0  0
   -6.7475    5.6766  -15.8543 C   0  0  0  0  0  0  0  0  0  0  0  0
   -6.4238    6.6529  -14.0219 H   0  0  0  0  0  0  0  0  0  0  0  0
   -9.5695    6.0311  -14.3862 O   0  0  0  0  0  0  0  0  0  0  0  0
   -8.6914    5.2635  -14.4475 C   0  0  0  0  0  0  0  0  0  0  0  0
   -8.0005    4.4386  -13.3344 N   0  0  0  0  0  0  0  0  0  0  0  0
   -7.3272    3.7960  -13.6552 H   0  0  0  0  0  0  0  0  0  0  0  0
   -8.1774    4.4577  -11.9472 C   0  0  0  0  0  0  0  0  0  0  0  0
   -7.8737    5.6124  -11.2110 C   0  0  0  0  0  0  0  0  0  0  0  0
   -7.8587    5.6974   -9.8522 N   0  0  0  0  0  0  0  0  0  0  0  0
   -8.2388    4.5736   -9.2217 C   0  0  0  0  0  0  0  0  0  0  0  0
   -8.5944    3.3974   -9.8524 C   0  0  0  0  0  0  0  0  0  0  0  0
   -8.5246    3.3111  -11.2380 C   0  0  0  0  0  0  0  0  0  0  0  0
   -9.0213    2.4003   -8.8290 C   0  0  0  0  0  0  0  0  0  0  0  0
   -8.6494    2.9624   -7.5008 N   0  0  0  0  0  0  0  0  0  0  0  0
   -8.3457    4.3941   -7.7336 C   0  0  0  0  0  0  0  0  0  0  0  0
   -7.8297    2.4820   -7.1296 H   0  0  0  0  0  0  0  0  0  0  0  0
   -3.4264    6.4373  -17.4384 C   0  0  0  0  0  0  0  0  0  0  0  0
   -3.4604    7.0235  -18.7781 N   0  0  0  0  0  0  0  0  0  0  0  0
   -4.4580    8.0616  -19.0305 C   0  0  0  0  0  0  0  0  0  0  0  0
   -4.2581    8.7330  -20.3992 C   0  0  0  0  0  0  0  0  0  0  0  0
   -4.1648    7.6711  -21.4964 C   0  0  0  0  0  0  0  0  0  0  0  0
   -3.0260    6.7186  -21.1457 C   0  0  0  0  0  0  0  0  0  0  0  0
   -3.3216    6.0252  -19.8280 C   0  0  0  0  0  0  0  0  0  0  0  0
   -3.9998    8.2310  -22.8294 N   0  0  0  0  0  0  0  0  0  0  0  0
   -2.8813    8.6436  -23.4555 C   0  0  0  0  0  0  0  0  0  0  0  0
   -3.0542    9.1065  -24.6524 N   0  0  0  0  0  0  0  0  0  0  0  0
   -4.4073    9.0184  -24.8347 N   0  0  0  0  0  0  0  0  0  0  0  0
   -5.0253    8.5269  -23.6901 C   0  0  0  0  0  0  0  0  0  0  0  0
   -6.2254    8.4257  -23.5045 O   0  0  0  0  0  0  0  0  0  0  0  0
   -4.8784    9.2684  -25.6622 H   0  0  0  0  0  0  0  0  0  0  0  0
 12 13  2  0  0  0
 13 14  1  0  0  0
 14 16  1  0  0  0
 16 17  2  0  0  0
 17 18  1  0  0  0
 18 19  2  0  0  0
 19 20  1  0  0  0
 20 21  2  0  0  0
 20 22  1  0  0  0
 22 23  1  0  0  0
 23 24  1  0  0  0
 13  1  1  0  0  0
  1  2  2  0  0  0
  2  3  1  0  0  0
  2  4  1  0  0  0
  4  5  2  0  0  0
  5  6  1  0  0  0
  6  7  1  0  0  0
  7 26  1  0  0  0
 26 27  1  0  0  0
 27 28  1  0  0  0
 28 29  1  0  0  0
 29 30  1  0  0  0
 30 33  1  0  0  0
 33 34  1  0  0  0
 34 35  2  0  0  0
 35 36  1  0  0  0
 36 37  1  0  0  0
 37 38  2  0  0  0
 30 31  1  0  0  0
 31 32  1  0  0  0
  7  8  2  0  0  0
  8  9  1  0  0  0
  9 10  1  0  0  0
 21 16  1  0  0  0
 10  1  1  0  0  0
 24 19  1  0  0  0
 10  6  2  0  0  0
 32 27  1  0  0  0
 37 33  1  0  0  0
 14 15  1  0  0  0
 23 25  1  0  0  0
 36 39  1  0  0  0
  9 11  1  0  0  0
M  END
> <minimizedAffinity>
-8.25638

> <minimizedRMSD>
0.33653

$$$$
P1121


 42 46  0  0  0  0  0  0  0  0999 V2000
   -7.5794    4.8505  -14.6741 C   0  0  0  0  0  0  0  0  0  0  0  0
   -8.6489    4.5655  -15.7290 C   0  0  0  0  0  0  0  0  0  0  0  0
   -8.1672    4.1674  -17.1116 C   0  0  0  0  0  0  0  0  0  0  0  0
   -7.4988    5.2598  -17.9232 C   0  0  0  0  0  0  0  0  0  0  0  0
   -6.0252    5.0619  -18.1711 C   0  0  0  0  0  0  0  0  0  0  0  0
   -5.1263    5.2307  -16.9623 C   0  0  0  0  0  0  0  0  0  0  0  0
   -3.9682    4.8155  -16.9861 O   0  0  0  0  0  0  0  0  0  0  0  0
   -5.5124    6.1049  -15.8702 C   0  0  0  0  0  0  0  0  0  0  0  0
   -4.7288    7.2460  -15.4687 C   0  0  0  0  0  0  0  0  0  0  0  0
   -5.4192    7.8430  -14.4378 C   0  0  0  0  0  0  0  0  0  0  0  0
   -6.5130    7.0873  -14.1611 N   0  0  0  0  0  0  0  0  0  0  0  0
   -6.5715    5.9674  -14.9717 C   0  0  0  0  0  0  0  0  0  0  0  0
   -7.1798    7.3082  -13.4713 H   0  0  0  0  0  0  0  0  0  0  0  0
   -7.9604    4.1941  -12.2676 N   0  0  0  0  0  0  0  0  0  0  0  0
   -8.3856    5.1960  -13.3784 C   0  0  0  0  0  0  0  0  0  0  0  0
   -9.1314    6.0992  -13.3412 O   0  0  0  0  0  0  0  0  0  0  0  0
   -7.3693    3.4679  -12.5716 H   0  0  0  0  0  0  0  0  0  0  0  0
   -8.0464    6.4940   -7.9300 C   0  0  0  0  0  0  0  0  0  0  0  0
   -8.2773    5.2667   -8.7589 C   0  0  0  0  0  0  0  0  0  0  0  0
   -8.7394    4.0848   -8.1793 C   0  0  0  0  0  0  0  0  0  0  0  0
   -9.0163    2.9483   -8.9578 C   0  0  0  0  0  0  0  0  0  0  0  0
   -8.7568    2.9871  -10.3369 C   0  0  0  0  0  0  0  0  0  0  0  0
   -8.2789    4.1574  -10.9179 C   0  0  0  0  0  0  0  0  0  0  0  0
   -8.0692    5.2973  -10.1369 C   0  0  0  0  0  0  0  0  0  0  0  0
   -9.4971    1.6687   -8.3213 C   0  0  0  0  0  0  0  0  0  0  0  0
   -9.9559    1.8428   -6.9418 N   0  0  0  0  0  0  0  0  0  0  0  0
   -9.1811    2.1693   -6.3644 H   0  0  0  0  0  0  0  0  0  0  0  0
  -10.2962    0.9512   -6.5816 H   0  0  0  0  0  0  0  0  0  0  0  0
   -3.3725    7.6821  -15.9554 C   0  0  0  0  0  0  0  0  0  0  0  0
   -3.2811    8.2120  -17.3219 N   0  0  0  0  0  0  0  0  0  0  0  0
   -4.5254    8.6629  -17.9282 C   0  0  0  0  0  0  0  0  0  0  0  0
   -4.2522    9.4254  -19.2286 C   0  0  0  0  0  0  0  0  0  0  0  0
   -3.3883    8.5898  -20.1804 C   0  0  0  0  0  0  0  0  0  0  0  0
   -2.0973    8.1738  -19.4759 C   0  0  0  0  0  0  0  0  0  0  0  0
   -2.4348    7.4109  -18.2051 C   0  0  0  0  0  0  0  0  0  0  0  0
   -3.1305    9.2844  -21.4330 N   0  0  0  0  0  0  0  0  0  0  0  0
   -2.1924   10.2079  -21.7172 C   0  0  0  0  0  0  0  0  0  0  0  0
   -2.2838   10.7477  -22.8915 N   0  0  0  0  0  0  0  0  0  0  0  0
   -3.3912   10.1521  -23.4300 N   0  0  0  0  0  0  0  0  0  0  0  0
   -3.9763    9.2895  -22.5108 C   0  0  0  0  0  0  0  0  0  0  0  0
   -5.0445    8.7160  -22.6391 O   0  0  0  0  0  0  0  0  0  0  0  0
   -3.7268   10.3121  -24.3416 H   0  0  0  0  0  0  0  0  0  0  0  0
 18 19  1  0  0  0
 19 20  2  0  0  0
 20 21  1  0  0  0
 21 25  1  0  0  0
 25 26  1  0  0  0
 21 22  2  0  0  0
 22 23  1  0  0  0
 23 14  1  0  0  0
 14 15  1  0  0  0
 15 16  2  0  0  0
  1 15  1  0  0  0
  1  2  1  0  0  0
  2  3  1  0  0  0
  3  4  1  0  0  0
  4  5  1  0  0  0
  5  6  1  0  0  0
  6  7  2  0  0  0
  6  8  1  0  0  0
  8  9  1  0  0  0
  9 29  1  0  0  0
 29 30  1  0  0  0
 30 31  1  0  0  0
 31 32  1  0  0  0
 32 33  1  0  0  0
 33 36  1  0  0  0
 36 37  1  0  0  0
 37 38  2  0  0  0
 38 39  1  0  0  0
 39 40  1  0  0  0
 40 41  2  0  0  0
 33 34  1  0  0  0
 34 35  1  0  0  0
  9 10  2  0  0  0
 10 11  1  0  0  0
 11 12  1  0  0  0
 23 24  2  0  0  0
 24 19  1  0  0  0
 12  1  1  0  0  0
 12  8  2  0  0  0
 35 30  1  0  0  0
 40 36  1  0  0  0
 26 27  1  0  0  0
 26 28  1  0  0  0
 14 17  1  0  0  0
 39 42  1  0  0  0
 11 13  1  0  0  0
M  END
> <minimizedAffinity>
-6.95658

> <minimizedRMSD>
1.36990

$$$$
P1122


 41 46  0  0  0  0  0  0  0  0999 V2000
   -7.9961    5.0778  -15.6954 C   0  0  0  0  0  0  0  0  0  0  0  0
   -8.5530    4.5042  -16.8330 C   0  0  0  0  0  0  0  0  0  0  0  0
   -9.7958    4.0122  -16.8238 F   0  0  0  0  0  0  0  0  0  0  0  0
   -7.8321    4.4357  -18.0221 C   0  0  0  0  0  0  0  0  0  0  0  0
   -6.5259    4.9442  -18.1078 C   0  0  0  0  0  0  0  0  0  0  0  0
   -5.9514    5.6033  -16.9993 C   0  0  0  0  0  0  0  0  0  0  0  0
   -4.7084    6.2844  -16.7260 C   0  0  0  0  0  0  0  0  0  0  0  0
   -4.8212    6.7891  -15.4388 C   0  0  0  0  0  0  0  0  0  0  0  0
   -6.0238    6.4229  -14.9210 N   0  0  0  0  0  0  0  0  0  0  0  0
   -6.7188    5.6613  -15.8312 C   0  0  0  0  0  0  0  0  0  0  0  0
   -6.3497    6.6674  -14.0247 H   0  0  0  0  0  0  0  0  0  0  0  0
   -7.9473    4.5316  -13.2612 N   0  0  0  0  0  0  0  0  0  0  0  0
   -8.6897    5.2911  -14.3967 C   0  0  0  0  0  0  0  0  0  0  0  0
   -9.6072    6.0149  -14.3503 O   0  0  0  0  0  0  0  0  0  0  0  0
   -7.2434    3.9158  -13.5687 H   0  0  0  0  0  0  0  0  0  0  0  0
   -7.8266    5.7625  -11.1331 C   0  0  0  0  0  0  0  0  0  0  0  0
   -7.9330    5.7622   -9.7302 C   0  0  0  0  0  0  0  0  0  0  0  0
   -8.3122    4.6001   -9.0863 C   0  0  0  0  0  0  0  0  0  0  0  0
   -8.5813    3.4410   -9.8014 C   0  0  0  0  0  0  0  0  0  0  0  0
   -8.4527    3.4029  -11.1868 C   0  0  0  0  0  0  0  0  0  0  0  0
   -8.1177    4.5812  -11.8699 C   0  0  0  0  0  0  0  0  0  0  0  0
   -8.9727    2.3676   -8.8339 C   0  0  0  0  0  0  0  0  0  0  0  0
   -9.1975    3.0581   -7.5341 N   0  0  0  0  0  0  0  0  0  0  0  0
   -8.4608    4.3318   -7.6265 C   0  0  0  0  0  0  0  0  0  0  0  0
   -8.8371    2.4938   -6.7646 H   0  0  0  0  0  0  0  0  0  0  0  0
   -5.4174    7.0862  -11.4051 C   0  0  0  0  0  0  0  0  0  0  0  0
   -7.1533    7.2508  -11.9015 S   0  0  0  0  0  0  0  0  0  0  0  0
   -3.4426    6.4287  -17.5211 C   0  0  0  0  0  0  0  0  0  0  0  0
   -3.5039    7.0456  -18.8462 N   0  0  0  0  0  0  0  0  0  0  0  0
   -4.5150    8.0790  -19.0577 C   0  0  0  0  0  0  0  0  0  0  0  0
   -4.3395    8.7909  -20.4098 C   0  0  0  0  0  0  0  0  0  0  0  0
   -4.2470    7.7627  -21.5393 C   0  0  0  0  0  0  0  0  0  0  0  0
   -3.0922    6.8145  -21.2288 C   0  0  0  0  0  0  0  0  0  0  0  0
   -3.3585    6.0810  -19.9257 C   0  0  0  0  0  0  0  0  0  0  0  0
   -4.1061    8.3645  -22.8582 N   0  0  0  0  0  0  0  0  0  0  0  0
   -2.9954    8.7659  -23.5055 C   0  0  0  0  0  0  0  0  0  0  0  0
   -3.1910    9.2818  -24.6771 N   0  0  0  0  0  0  0  0  0  0  0  0
   -4.5512    9.2448  -24.8171 N   0  0  0  0  0  0  0  0  0  0  0  0
   -5.1483    8.7300  -23.6713 C   0  0  0  0  0  0  0  0  0  0  0  0
   -6.3446    8.6657  -23.4494 O   0  0  0  0  0  0  0  0  0  0  0  0
   -5.0401    9.5416  -25.6184 H   0  0  0  0  0  0  0  0  0  0  0  0
 26 27  1  0  0  0
 27 16  1  0  0  0
 16 17  2  0  0  0
 17 18  1  0  0  0
 18 19  2  0  0  0
 19 20  1  0  0  0
 20 21  2  0  0  0
 21 12  1  0  0  0
 12 13  1  0  0  0
 13 14  2  0  0  0
 13  1  1  0  0  0
  1  2  2  0  0  0
  2  3  1  0  0  0
  2  4  1  0  0  0
  4  5  2  0  0  0
  5  6  1  0  0  0
  6  7  1  0  0  0
  7 28  1  0  0  0
 28 29  1  0  0  0
 29 30  1  0  0  0
 30 31  1  0  0  0
 31 32  1  0  0  0
 32 35  1  0  0  0
 35 36  1  0  0  0
 36 37  2  0  0  0
 37 38  1  0  0  0
 38 39  1  0  0  0
 39 40  2  0  0  0
 32 33  1  0  0  0
 33 34  1  0  0  0
  7  8  2  0  0  0
  8  9  1  0  0  0
  9 10  1  0  0  0
 19 22  1  0  0  0
 22 23  1  0  0  0
 23 24  1  0  0  0
 21 16  1  0  0  0
 10  1  1  0  0  0
 24 18  1  0  0  0
 10  6  2  0  0  0
 34 29  1  0  0  0
 39 35  1  0  0  0
 12 15  1  0  0  0
 38 41  1  0  0  0
  9 11  1  0  0  0
 23 25  1  0  0  0
M  END
> <minimizedAffinity>
-7.99694

> <minimizedRMSD>
0.35480

$$$$
P1123


 43 47  0  0  0  0  0  0  0  0999 V2000
   -1.8728    5.7978  -15.5287 C   0  0  0  0  0  0  0  0  0  0  0  0
   -3.0344    6.0774  -14.6213 C   0  0  0  0  0  0  0  0  0  0  0  0
   -3.3877    5.1366  -13.6452 C   0  0  0  0  0  0  0  0  0  0  0  0
   -4.4770    5.3592  -12.7955 C   0  0  0  0  0  0  0  0  0  0  0  0
   -5.0968    6.6057  -12.7970 C   0  0  0  0  0  0  0  0  0  0  0  0
   -4.8079    7.5144  -13.8023 C   0  0  0  0  0  0  0  0  0  0  0  0
   -3.8463    7.2150  -14.7821 C   0  0  0  0  0  0  0  0  0  0  0  0
   -5.0962    4.2239  -12.0246 C   0  0  0  0  0  0  0  0  0  0  0  0
   -5.7302    3.1868  -12.9783 C   0  0  0  0  0  0  0  0  0  0  0  0
   -7.1655    3.4906  -13.4709 C   0  0  0  0  0  0  0  0  0  0  0  0
   -8.0028    4.2686  -12.4602 C   0  0  0  0  0  0  0  0  0  0  0  0
   -8.5004    5.3010  -12.6867 O   0  0  0  0  0  0  0  0  0  0  0  0
   -7.9316    3.4549  -11.1417 N   0  0  0  0  0  0  0  0  0  0  0  0
   -7.5164    2.5664  -11.2275 H   0  0  0  0  0  0  0  0  0  0  0  0
   -8.3570    3.7748   -9.8641 C   0  0  0  0  0  0  0  0  0  0  0  0
   -8.0298    4.9873   -9.2473 C   0  0  0  0  0  0  0  0  0  0  0  0
   -8.2279    5.1462   -7.8716 C   0  0  0  0  0  0  0  0  0  0  0  0
   -8.7758    4.0925   -7.1590 C   0  0  0  0  0  0  0  0  0  0  0  0
   -9.1647    2.9209   -7.7946 C   0  0  0  0  0  0  0  0  0  0  0  0
   -8.9659    2.7507   -9.1459 C   0  0  0  0  0  0  0  0  0  0  0  0
   -9.6514    1.9413   -6.7836 C   0  0  0  0  0  0  0  0  0  0  0  0
   -9.8684    2.7423   -5.5515 N   0  0  0  0  0  0  0  0  0  0  0  0
   -8.9867    3.9248   -5.6914 C   0  0  0  0  0  0  0  0  0  0  0  0
   -9.6127    2.2021   -4.7249 H   0  0  0  0  0  0  0  0  0  0  0  0
   -3.8833    7.9869  -16.1011 C   0  0  0  0  0  0  0  0  0  0  0  0
   -4.3162    9.4572  -15.8837 C   0  0  0  0  0  0  0  0  0  0  0  0
   -5.3846    9.9175  -16.7698 N   0  0  0  0  0  0  0  0  0  0  0  0
   -5.0628    9.8825  -17.7371 H   0  0  0  0  0  0  0  0  0  0  0  0
   -5.6360   10.8764  -16.5296 H   0  0  0  0  0  0  0  0  0  0  0  0
   -4.8065    7.1673  -17.0536 C   0  0  0  0  0  0  0  0  0  0  0  0
   -4.5239    7.3592  -18.4844 N   0  0  0  0  0  0  0  0  0  0  0  0
   -5.6957    7.0251  -19.2956 C   0  0  0  0  0  0  0  0  0  0  0  0
   -5.5081    7.5928  -20.7021 C   0  0  0  0  0  0  0  0  0  0  0  0
   -4.0429    7.5401  -21.1514 C   0  0  0  0  0  0  0  0  0  0  0  0
   -3.2921    6.4126  -20.4420 C   0  0  0  0  0  0  0  0  0  0  0  0
   -3.3499    6.5859  -18.9182 C   0  0  0  0  0  0  0  0  0  0  0  0
   -3.8592    7.4996  -22.5961 N   0  0  0  0  0  0  0  0  0  0  0  0
   -2.7017    7.1990  -23.2214 C   0  0  0  0  0  0  0  0  0  0  0  0
   -2.7822    7.0405  -24.5026 N   0  0  0  0  0  0  0  0  0  0  0  0
   -4.1091    7.2425  -24.7608 N   0  0  0  0  0  0  0  0  0  0  0  0
   -4.8110    7.4896  -23.5841 C   0  0  0  0  0  0  0  0  0  0  0  0
   -6.0148    7.6549  -23.5031 O   0  0  0  0  0  0  0  0  0  0  0  0
   -4.5138    7.2168  -25.6579 H   0  0  0  0  0  0  0  0  0  0  0  0
  1  2  1  0  0  0
  2  3  2  0  0  0
  3  4  1  0  0  0
  4  8  1  0  0  0
  8  9  1  0  0  0
  9 10  1  0  0  0
 10 11  1  0  0  0
 11 12  2  0  0  0
 11 13  1  0  0  0
 13 15  1  0  0  0
 15 16  2  0  0  0
 16 17  1  0  0  0
 17 18  2  0  0  0
 18 19  1  0  0  0
 19 20  2  0  0  0
 19 21  1  0  0  0
 21 22  1  0  0  0
 22 23  1  0  0  0
  4  5  2  0  0  0
  5  6  1  0  0  0
  6  7  2  0  0  0
  7 25  1  0  0  0
 25 26  1  0  0  0
 26 27  1  0  0  0
 25 30  1  0  0  0
 30 31  1  0  0  0
 31 32  1  0  0  0
 32 33  1  0  0  0
 33 34  1  0  0  0
 34 37  1  0  0  0
 37 38  1  0  0  0
 38 39  2  0  0  0
 39 40  1  0  0  0
 40 41  1  0  0  0
 41 42  2  0  0  0
 34 35  1  0  0  0
 35 36  1  0  0  0
  7  2  1  0  0  0
 36 31  1  0  0  0
 20 15  1  0  0  0
 41 37  1  0  0  0
 23 18  1  0  0  0
 13 14  1  0  0  0
 22 24  1  0  0  0
 27 28  1  0  0  0
 27 29  1  0  0  0
 40 43  1  0  0  0
M  END
> <minimizedAffinity>
-5.83739

> <minimizedRMSD>
1.63644

$$$$
P1124


 40 45  0  0  0  0  0  0  0  0999 V2000
   -2.8924    7.1525  -14.1733 C   0  0  0  0  0  0  0  0  0  0  0  0
   -4.0089    6.5947  -14.9994 C   0  0  0  0  0  0  0  0  0  0  0  0
   -4.3467    6.8558  -16.3263 C   0  0  0  0  0  0  0  0  0  0  0  0
   -5.5613    6.1164  -16.5873 C   0  0  0  0  0  0  0  0  0  0  0  0
   -6.4317    5.9382  -17.6911 C   0  0  0  0  0  0  0  0  0  0  0  0
   -7.6035    5.1761  -17.5765 C   0  0  0  0  0  0  0  0  0  0  0  0
   -7.9329    4.5636  -16.3784 C   0  0  0  0  0  0  0  0  0  0  0  0
   -9.0920    3.8922  -16.3204 F   0  0  0  0  0  0  0  0  0  0  0  0
   -7.0754    4.6576  -15.2817 C   0  0  0  0  0  0  0  0  0  0  0  0
   -5.8858    5.4220  -15.4085 C   0  0  0  0  0  0  0  0  0  0  0  0
   -4.8182    5.5879  -14.5460 N   0  0  0  0  0  0  0  0  0  0  0  0
   -4.4777    4.7516  -13.4057 C   0  0  0  0  0  0  0  0  0  0  0  0
   -7.3053    3.9632  -13.9938 C   0  0  0  0  0  0  0  0  0  0  0  0
   -6.9756    2.8532  -13.8649 O   0  0  0  0  0  0  0  0  0  0  0  0
   -7.8973    4.9574  -12.9696 N   0  0  0  0  0  0  0  0  0  0  0  0
   -8.1680    5.8255  -13.3468 H   0  0  0  0  0  0  0  0  0  0  0  0
   -8.1103    4.8250  -11.5992 C   0  0  0  0  0  0  0  0  0  0  0  0
   -7.8055    5.9280  -10.7825 C   0  0  0  0  0  0  0  0  0  0  0  0
   -7.8170    5.8082   -9.3901 C   0  0  0  0  0  0  0  0  0  0  0  0
   -8.1506    4.5831   -8.8409 C   0  0  0  0  0  0  0  0  0  0  0  0
   -8.5039    3.5056   -9.6460 C   0  0  0  0  0  0  0  0  0  0  0  0
   -8.4861    3.6051  -11.0296 C   0  0  0  0  0  0  0  0  0  0  0  0
   -8.8771    2.3444   -8.7838 C   0  0  0  0  0  0  0  0  0  0  0  0
   -8.4606    2.7186   -7.4031 N   0  0  0  0  0  0  0  0  0  0  0  0
   -8.2281    4.1772   -7.4088 C   0  0  0  0  0  0  0  0  0  0  0  0
   -7.6034    2.2273   -7.1495 H   0  0  0  0  0  0  0  0  0  0  0  0
   -3.4626    7.7626  -17.1360 C   0  0  0  0  0  0  0  0  0  0  0  0
   -3.3137    7.5535  -18.5570 N   0  0  0  0  0  0  0  0  0  0  0  0
   -4.2047    8.2860  -19.4317 C   0  0  0  0  0  0  0  0  0  0  0  0
   -3.5471    8.5045  -20.7993 C   0  0  0  0  0  0  0  0  0  0  0  0
   -2.5854    7.3719  -21.1815 C   0  0  0  0  0  0  0  0  0  0  0  0
   -2.9614    6.0705  -20.4823 C   0  0  0  0  0  0  0  0  0  0  0  0
   -2.9060    6.2243  -18.9671 C   0  0  0  0  0  0  0  0  0  0  0  0
   -2.4409    7.1803  -22.6176 N   0  0  0  0  0  0  0  0  0  0  0  0
   -1.3509    6.6808  -23.2360 C   0  0  0  0  0  0  0  0  0  0  0  0
   -1.5065    6.3806  -24.4845 N   0  0  0  0  0  0  0  0  0  0  0  0
   -2.8172    6.6904  -24.7234 N   0  0  0  0  0  0  0  0  0  0  0  0
   -3.4371    7.1388  -23.5607 C   0  0  0  0  0  0  0  0  0  0  0  0
   -4.6192    7.4085  -23.4393 O   0  0  0  0  0  0  0  0  0  0  0  0
   -3.2613    6.6075  -25.5981 H   0  0  0  0  0  0  0  0  0  0  0  0
  1  2  1  0  0  0
  2  3  2  0  0  0
  3 27  1  0  0  0
 27 28  1  0  0  0
 28 29  1  0  0  0
 29 30  1  0  0  0
 30 31  1  0  0  0
 31 34  1  0  0  0
 34 35  1  0  0  0
 35 36  2  0  0  0
 36 37  1  0  0  0
 37 38  1  0  0  0
 38 39  2  0  0  0
 31 32  1  0  0  0
 32 33  1  0  0  0
  3  4  1  0  0  0
  4  5  2  0  0  0
  5  6  1  0  0  0
  6  7  2  0  0  0
  7  8  1  0  0  0
  7  9  1  0  0  0
  9 13  1  0  0  0
 13 14  2  0  0  0
 13 15  1  0  0  0
 15 17  1  0  0  0
 17 18  2  0  0  0
 18 19  1  0  0  0
 19 20  2  0  0  0
 20 21  1  0  0  0
 21 22  2  0  0  0
 21 23  1  0  0  0
 23 24  1  0  0  0
 24 25  1  0  0  0
  9 10  2  0  0  0
 10 11  1  0  0  0
 11 12  1  0  0  0
 11  2  1  0  0  0
 33 28  1  0  0  0
 10  4  1  0  0  0
 38 34  1  0  0  0
 22 17  1  0  0  0
 25 20  1  0  0  0
 37 40  1  0  0  0
 15 16  1  0  0  0
 24 26  1  0  0  0
M  END
> <minimizedAffinity>
-7.74352

> <minimizedRMSD>
0.95613

$$$$
P1125


 44 49  0  0  0  0  0  0  0  0999 V2000
   -7.8473    5.0462  -15.9503 C   0  0  0  0  0  0  0  0  0  0  0  0
   -8.3323    4.4859  -17.1319 C   0  0  0  0  0  0  0  0  0  0  0  0
   -9.9011    3.8445  -17.2720 Cl  0  0  0  0  0  0  0  0  0  0  0  0
   -7.5528    4.4621  -18.2876 C   0  0  0  0  0  0  0  0  0  0  0  0
   -6.2745    5.0241  -18.3040 C   0  0  0  0  0  0  0  0  0  0  0  0
   -5.7806    5.6830  -17.1615 C   0  0  0  0  0  0  0  0  0  0  0  0
   -4.5945    6.4338  -16.8416 C   0  0  0  0  0  0  0  0  0  0  0  0
   -4.7555    6.8667  -15.5343 C   0  0  0  0  0  0  0  0  0  0  0  0
   -5.9406    6.4061  -15.0522 N   0  0  0  0  0  0  0  0  0  0  0  0
   -6.5874    5.6732  -16.0194 C   0  0  0  0  0  0  0  0  0  0  0  0
   -6.2846    6.5726  -14.1449 H   0  0  0  0  0  0  0  0  0  0  0  0
   -7.8298    4.5652  -13.4838 N   0  0  0  0  0  0  0  0  0  0  0  0
   -8.5747    5.2441  -14.6655 C   0  0  0  0  0  0  0  0  0  0  0  0
   -9.5319    5.9158  -14.6720 O   0  0  0  0  0  0  0  0  0  0  0  0
   -7.0833    3.9804  -13.7484 H   0  0  0  0  0  0  0  0  0  0  0  0
   -8.4510    4.7388   -7.8445 C   0  0  0  0  0  0  0  0  0  0  0  0
   -8.1351    3.3213   -7.5888 N   0  0  0  0  0  0  0  0  0  0  0  0
   -8.4192    2.6075   -8.8629 C   0  0  0  0  0  0  0  0  0  0  0  0
   -8.2676    3.6497   -9.9271 C   0  0  0  0  0  0  0  0  0  0  0  0
   -8.1364    3.5013  -11.3089 C   0  0  0  0  0  0  0  0  0  0  0  0
   -8.0477    4.6498  -12.1019 C   0  0  0  0  0  0  0  0  0  0  0  0
   -8.0493    5.9120  -11.4839 C   0  0  0  0  0  0  0  0  0  0  0  0
   -8.1380    6.0471  -10.0906 C   0  0  0  0  0  0  0  0  0  0  0  0
   -8.2703    4.9063   -9.3234 C   0  0  0  0  0  0  0  0  0  0  0  0
   -8.7217    2.9563   -6.8385 H   0  0  0  0  0  0  0  0  0  0  0  0
   -7.6640    5.6727   -6.9398 C   0  0  0  0  0  0  0  0  0  0  0  0
   -5.8124    7.0815   -7.5047 O   0  0  0  0  0  0  0  0  0  0  0  0
   -6.2427    5.9438   -7.3475 C   0  0  0  0  0  0  0  0  0  0  0  0
   -5.4418    4.8696   -7.4348 O   0  0  0  0  0  0  0  0  0  0  0  0
   -5.7949    4.0106   -7.3106 H   0  0  0  0  0  0  0  0  0  0  0  0
   -3.3401    6.7176  -17.6168 C   0  0  0  0  0  0  0  0  0  0  0  0
   -3.4537    7.2135  -18.9886 N   0  0  0  0  0  0  0  0  0  0  0  0
   -4.5200    8.1729  -19.2617 C   0  0  0  0  0  0  0  0  0  0  0  0
   -4.4110    8.7787  -20.6681 C   0  0  0  0  0  0  0  0  0  0  0  0
   -4.2845    7.6679  -21.7129 C   0  0  0  0  0  0  0  0  0  0  0  0
   -3.0633    6.8188  -21.3647 C   0  0  0  0  0  0  0  0  0  0  0  0
   -3.2329    6.1861  -19.9931 C   0  0  0  0  0  0  0  0  0  0  0  0
   -4.2198    8.1771  -23.0762 N   0  0  0  0  0  0  0  0  0  0  0  0
   -3.4461    9.1516  -23.5913 C   0  0  0  0  0  0  0  0  0  0  0  0
   -3.6587    9.4303  -24.8378 N   0  0  0  0  0  0  0  0  0  0  0  0
   -4.6808    8.5890  -25.1812 N   0  0  0  0  0  0  0  0  0  0  0  0
   -5.0950    7.8470  -24.0802 C   0  0  0  0  0  0  0  0  0  0  0  0
   -6.0627    7.1080  -24.0331 O   0  0  0  0  0  0  0  0  0  0  0  0
   -5.0696    8.5183  -26.0829 H   0  0  0  0  0  0  0  0  0  0  0  0
 27 28  2  0  0  0
 28 29  1  0  0  0
 28 26  1  0  0  0
 16 26  1  0  0  0
 16 17  1  0  0  0
 17 18  1  0  0  0
 18 19  1  0  0  0
 19 20  2  0  0  0
 20 21  1  0  0  0
 21 12  1  0  0  0
 12 13  1  0  0  0
 13 14  2  0  0  0
 13  1  1  0  0  0
  1  2  2  0  0  0
  2  3  1  0  0  0
  2  4  1  0  0  0
  4  5  2  0  0  0
  5  6  1  0  0  0
  6  7  1  0  0  0
  7 31  1  0  0  0
 31 32  1  0  0  0
 32 33  1  0  0  0
 33 34  1  0  0  0
 34 35  1  0  0  0
 35 38  1  0  0  0
 38 39  1  0  0  0
 39 40  2  0  0  0
 40 41  1  0  0  0
 41 42  1  0  0  0
 42 43  2  0  0  0
 35 36  1  0  0  0
 36 37  1  0  0  0
  7  8  2  0  0  0
  8  9  1  0  0  0
  9 10  1  0  0  0
 21 22  2  0  0  0
 22 23  1  0  0  0
 23 24  2  0  0  0
 24 16  1  0  0  0
 24 19  1  0  0  0
 10  1  1  0  0  0
 10  6  2  0  0  0
 37 32  1  0  0  0
 42 38  1  0  0  0
 29 30  1  0  0  0
 17 25  1  0  0  0
 12 15  1  0  0  0
 41 44  1  0  0  0
  9 11  1  0  0  0
M  END
> <minimizedAffinity>
-7.77366

> <minimizedRMSD>
0.61523

$$$$
P1128


 39 44  0  0  0  0  0  0  0  0999 V2000
   -8.3665    5.0900  -15.6188 C   0  0  0  0  0  0  0  0  0  0  0  0
   -9.1452    4.5947  -16.6659 C   0  0  0  0  0  0  0  0  0  0  0  0
   -8.5716    4.3783  -17.9216 C   0  0  0  0  0  0  0  0  0  0  0  0
   -7.2012    4.5868  -18.1362 C   0  0  0  0  0  0  0  0  0  0  0  0
   -6.4030    5.0961  -17.0905 C   0  0  0  0  0  0  0  0  0  0  0  0
   -5.0010    5.3595  -16.9179 C   0  0  0  0  0  0  0  0  0  0  0  0
   -4.8456    5.9244  -15.6669 C   0  0  0  0  0  0  0  0  0  0  0  0
   -6.0669    5.9430  -15.0560 N   0  0  0  0  0  0  0  0  0  0  0  0
   -7.0178    5.3798  -15.8769 C   0  0  0  0  0  0  0  0  0  0  0  0
   -6.2420    6.3068  -14.1581 H   0  0  0  0  0  0  0  0  0  0  0  0
   -9.5741    6.2713  -14.1073 O   0  0  0  0  0  0  0  0  0  0  0  0
   -8.8440    5.3692  -14.2469 C   0  0  0  0  0  0  0  0  0  0  0  0
   -8.1851    4.4397  -13.1982 N   0  0  0  0  0  0  0  0  0  0  0  0
   -7.6628    3.6959  -13.5768 H   0  0  0  0  0  0  0  0  0  0  0  0
   -8.2113    4.4850  -11.8001 C   0  0  0  0  0  0  0  0  0  0  0  0
   -7.8777    5.6732  -11.1488 C   0  0  0  0  0  0  0  0  0  0  0  0
   -7.8388    5.7417   -9.7567 C   0  0  0  0  0  0  0  0  0  0  0  0
   -8.1633    4.6244   -8.9873 C   0  0  0  0  0  0  0  0  0  0  0  0
   -8.4677    3.4085   -9.6232 C   0  0  0  0  0  0  0  0  0  0  0  0
   -8.4888    3.3475  -11.0360 C   0  0  0  0  0  0  0  0  0  0  0  0
   -8.8057    2.1857   -8.7960 C   0  0  0  0  0  0  0  0  0  0  0  0
   -8.4790    2.2964   -7.3666 N   0  0  0  0  0  0  0  0  0  0  0  0
   -8.9215    3.5755   -6.8304 C   0  0  0  0  0  0  0  0  0  0  0  0
   -8.1491    4.7191   -7.4828 C   0  0  0  0  0  0  0  0  0  0  0  0
   -7.4692    2.2157   -7.2475 H   0  0  0  0  0  0  0  0  0  0  0  0
   -3.9186    4.9569  -17.8581 C   0  0  0  0  0  0  0  0  0  0  0  0
   -3.4377    5.9909  -18.8026 N   0  0  0  0  0  0  0  0  0  0  0  0
   -4.5090    6.7804  -19.4322 C   0  0  0  0  0  0  0  0  0  0  0  0
   -3.9764    7.7428  -20.5008 C   0  0  0  0  0  0  0  0  0  0  0  0
   -3.2340    6.9384  -21.5643 C   0  0  0  0  0  0  0  0  0  0  0  0
   -2.0814    6.1963  -20.8923 C   0  0  0  0  0  0  0  0  0  0  0  0
   -2.6208    5.2830  -19.8037 C   0  0  0  0  0  0  0  0  0  0  0  0
   -2.8233    7.7315  -22.7105 N   0  0  0  0  0  0  0  0  0  0  0  0
   -1.7937    8.5864  -22.8512 C   0  0  0  0  0  0  0  0  0  0  0  0
   -1.6355    9.0733  -24.0408 N   0  0  0  0  0  0  0  0  0  0  0  0
   -2.6540    8.5061  -24.7553 N   0  0  0  0  0  0  0  0  0  0  0  0
   -3.4249    7.6823  -23.9437 C   0  0  0  0  0  0  0  0  0  0  0  0
   -4.4244    7.0709  -24.2784 O   0  0  0  0  0  0  0  0  0  0  0  0
   -2.8186    8.6601  -25.7137 H   0  0  0  0  0  0  0  0  0  0  0  0
 11 12  2  0  0  0
 12 13  1  0  0  0
 13 15  1  0  0  0
 15 16  2  0  0  0
 16 17  1  0  0  0
 17 18  2  0  0  0
 18 19  1  0  0  0
 19 20  2  0  0  0
 19 21  1  0  0  0
 21 22  1  0  0  0
 22 23  1  0  0  0
 23 24  1  0  0  0
 12  1  1  0  0  0
  1  2  2  0  0  0
  2  3  1  0  0  0
  3  4  2  0  0  0
  4  5  1  0  0  0
  5  6  1  0  0  0
  6 26  1  0  0  0
 26 27  1  0  0  0
 27 28  1  0  0  0
 28 29  1  0  0  0
 29 30  1  0  0  0
 30 33  1  0  0  0
 33 34  1  0  0  0
 34 35  2  0  0  0
 35 36  1  0  0  0
 36 37  1  0  0  0
 37 38  2  0  0  0
 30 31  1  0  0  0
 31 32  1  0  0  0
  6  7  2  0  0  0
  7  8  1  0  0  0
  8  9  1  0  0  0
 20 15  1  0  0  0
  9  1  1  0  0  0
 24 18  1  0  0  0
  9  5  2  0  0  0
 32 27  1  0  0  0
 37 33  1  0  0  0
 13 14  1  0  0  0
 22 25  1  0  0  0
 36 39  1  0  0  0
  8 10  1  0  0  0
M  END
> <minimizedAffinity>
-8.89325

> <minimizedRMSD>
0.97272

$$$$
P1131


 42 47  0  0  0  0  0  0  0  0999 V2000
   -8.0983    5.6290  -15.1594 C   0  0  0  0  0  0  0  0  0  0  0  0
   -8.4228    4.2513  -15.7208 C   0  0  0  0  0  0  0  0  0  0  0  0
   -9.0461    4.2504  -17.1202 C   0  0  0  0  0  0  0  0  0  0  0  0
   -8.1884    4.4219  -18.3667 C   0  0  0  0  0  0  0  0  0  0  0  0
   -7.0698    5.4523  -18.3781 C   0  0  0  0  0  0  0  0  0  0  0  0
   -5.8877    5.0660  -17.5066 C   0  0  0  0  0  0  0  0  0  0  0  0
   -5.7347    5.9247  -16.3001 C   0  0  0  0  0  0  0  0  0  0  0  0
   -4.6047    6.7596  -15.9900 C   0  0  0  0  0  0  0  0  0  0  0  0
   -4.8936    7.3826  -14.7941 C   0  0  0  0  0  0  0  0  0  0  0  0
   -6.1336    6.9904  -14.3890 N   0  0  0  0  0  0  0  0  0  0  0  0
   -6.6712    6.0995  -15.2913 C   0  0  0  0  0  0  0  0  0  0  0  0
   -6.5815    7.2996  -13.5686 H   0  0  0  0  0  0  0  0  0  0  0  0
   -9.2694    6.8979  -13.5648 O   0  0  0  0  0  0  0  0  0  0  0  0
   -8.6221    5.9358  -13.7334 C   0  0  0  0  0  0  0  0  0  0  0  0
   -8.0768    4.8972  -12.7128 N   0  0  0  0  0  0  0  0  0  0  0  0
   -7.6170    4.1255  -13.1157 H   0  0  0  0  0  0  0  0  0  0  0  0
   -8.1330    4.8813  -11.3254 C   0  0  0  0  0  0  0  0  0  0  0  0
   -7.9126    6.0724  -10.6377 C   0  0  0  0  0  0  0  0  0  0  0  0
   -8.0195    6.1146   -9.2570 C   0  0  0  0  0  0  0  0  0  0  0  0
   -8.3618    4.9688   -8.5472 C   0  0  0  0  0  0  0  0  0  0  0  0
   -8.6203    3.7583   -9.2166 C   0  0  0  0  0  0  0  0  0  0  0  0
   -8.4581    3.7218  -10.6225 C   0  0  0  0  0  0  0  0  0  0  0  0
   -9.0703    2.4867   -8.5338 C   0  0  0  0  0  0  0  0  0  0  0  0
   -9.7874    2.6724   -7.2793 N   0  0  0  0  0  0  0  0  0  0  0  0
   -8.8939    3.0196   -6.1770 C   0  0  0  0  0  0  0  0  0  0  0  0
   -7.8760    4.1185   -6.4568 C   0  0  0  0  0  0  0  0  0  0  0  0
   -8.4581    5.1849   -7.1956 O   0  0  0  0  0  0  0  0  0  0  0  0
  -10.2730    1.8058   -7.0476 H   0  0  0  0  0  0  0  0  0  0  0  0
   -3.3358    6.9385  -16.7688 C   0  0  0  0  0  0  0  0  0  0  0  0
   -3.5969    7.0233  -18.2120 N   0  0  0  0  0  0  0  0  0  0  0  0
   -3.5832    8.3987  -18.7240 C   0  0  0  0  0  0  0  0  0  0  0  0
   -3.9568    8.4396  -20.2124 C   0  0  0  0  0  0  0  0  0  0  0  0
   -3.0367    7.5255  -21.0205 C   0  0  0  0  0  0  0  0  0  0  0  0
   -3.0608    6.1165  -20.4282 C   0  0  0  0  0  0  0  0  0  0  0  0
   -2.6988    6.1420  -18.9486 C   0  0  0  0  0  0  0  0  0  0  0  0
   -3.2759    7.4938  -22.4606 N   0  0  0  0  0  0  0  0  0  0  0  0
   -2.3375    7.1859  -23.3834 C   0  0  0  0  0  0  0  0  0  0  0  0
   -2.7688    7.0161  -24.5902 N   0  0  0  0  0  0  0  0  0  0  0  0
   -4.1141    7.2175  -24.4715 N   0  0  0  0  0  0  0  0  0  0  0  0
   -4.4617    7.4919  -23.1509 C   0  0  0  0  0  0  0  0  0  0  0  0
   -5.5935    7.6991  -22.7526 O   0  0  0  0  0  0  0  0  0  0  0  0
   -4.7530    7.1745  -25.2194 H   0  0  0  0  0  0  0  0  0  0  0  0
 13 14  2  0  0  0
 14 15  1  0  0  0
 15 17  1  0  0  0
 17 18  2  0  0  0
 18 19  1  0  0  0
 19 20  2  0  0  0
 20 21  1  0  0  0
 21 22  2  0  0  0
 21 23  1  0  0  0
 23 24  1  0  0  0
 24 25  1  0  0  0
 25 26  1  0  0  0
 26 27  1  0  0  0
  1 14  1  0  0  0
  1  2  1  0  0  0
  2  3  1  0  0  0
  3  4  1  0  0  0
  4  5  1  0  0  0
  5  6  1  0  0  0
  6  7  1  0  0  0
  7  8  1  0  0  0
  8 29  1  0  0  0
 29 30  1  0  0  0
 30 31  1  0  0  0
 31 32  1  0  0  0
 32 33  1  0  0  0
 33 36  1  0  0  0
 36 37  1  0  0  0
 37 38  2  0  0  0
 38 39  1  0  0  0
 39 40  1  0  0  0
 40 41  2  0  0  0
 33 34  1  0  0  0
 34 35  1  0  0  0
  8  9  2  0  0  0
  9 10  1  0  0  0
 10 11  1  0  0  0
 22 17  1  0  0  0
 11  1  1  0  0  0
 27 20  1  0  0  0
 11  7  2  0  0  0
 35 30  1  0  0  0
 40 36  1  0  0  0
 15 16  1  0  0  0
 24 28  1  0  0  0
 39 42  1  0  0  0
 10 12  1  0  0  0
M  END
> <minimizedAffinity>
-8.17044

> <minimizedRMSD>
0.56983

$$$$
P1134


 38 43  0  0  0  0  0  0  0  0999 V2000
   -8.1706    5.0034  -15.5735 C   0  0  0  0  0  0  0  0  0  0  0  0
   -8.9653    4.6805  -16.5985 C   0  0  0  0  0  0  0  0  0  0  0  0
   -8.5992    4.5147  -17.9816 C   0  0  0  0  0  0  0  0  0  0  0  0
   -7.3987    4.5180  -18.5675 C   0  0  0  0  0  0  0  0  0  0  0  0
   -6.1407    4.6919  -18.0869 N   0  0  0  0  0  0  0  0  0  0  0  0
   -5.8627    5.0423  -16.8835 C   0  0  0  0  0  0  0  0  0  0  0  0
   -4.5070    5.3771  -16.4186 C   0  0  0  0  0  0  0  0  0  0  0  0
   -4.7293    5.7592  -15.1563 C   0  0  0  0  0  0  0  0  0  0  0  0
   -6.0119    5.6970  -14.6941 N   0  0  0  0  0  0  0  0  0  0  0  0
   -6.7316    5.2588  -15.6873 C   0  0  0  0  0  0  0  0  0  0  0  0
   -9.5504    6.1716  -14.1155 O   0  0  0  0  0  0  0  0  0  0  0  0
   -8.7720    5.3063  -14.2326 C   0  0  0  0  0  0  0  0  0  0  0  0
   -8.1131    4.3932  -13.1619 N   0  0  0  0  0  0  0  0  0  0  0  0
   -7.5399    3.6797  -13.5247 H   0  0  0  0  0  0  0  0  0  0  0  0
   -8.2019    4.4202  -11.7688 C   0  0  0  0  0  0  0  0  0  0  0  0
   -7.8763    5.6102  -11.0954 C   0  0  0  0  0  0  0  0  0  0  0  0
   -7.8427    5.6674   -9.6986 C   0  0  0  0  0  0  0  0  0  0  0  0
   -8.1827    4.5327   -8.9896 C   0  0  0  0  0  0  0  0  0  0  0  0
   -8.5317    3.3584   -9.6465 C   0  0  0  0  0  0  0  0  0  0  0  0
   -8.5120    3.2719  -11.0369 C   0  0  0  0  0  0  0  0  0  0  0  0
   -8.9106    2.3353   -8.6248 C   0  0  0  0  0  0  0  0  0  0  0  0
   -8.4832    2.8869   -7.3095 N   0  0  0  0  0  0  0  0  0  0  0  0
   -8.2742    4.3335   -7.5158 C   0  0  0  0  0  0  0  0  0  0  0  0
   -7.6158    2.4444   -7.0059 H   0  0  0  0  0  0  0  0  0  0  0  0
   -3.1998    5.3245  -17.1177 C   0  0  0  0  0  0  0  0  0  0  0  0
   -2.9544    6.0733  -18.3562 N   0  0  0  0  0  0  0  0  0  0  0  0
   -3.7574    7.2926  -18.5036 C   0  0  0  0  0  0  0  0  0  0  0  0
   -3.3668    8.0925  -19.7549 C   0  0  0  0  0  0  0  0  0  0  0  0
   -3.4062    7.1943  -20.9933 C   0  0  0  0  0  0  0  0  0  0  0  0
   -2.5014    5.9900  -20.7442 C   0  0  0  0  0  0  0  0  0  0  0  0
   -2.9897    5.2103  -19.5350 C   0  0  0  0  0  0  0  0  0  0  0  0
   -3.0401    7.8991  -22.2156 N   0  0  0  0  0  0  0  0  0  0  0  0
   -2.0457    8.7827  -22.4268 C   0  0  0  0  0  0  0  0  0  0  0  0
   -1.9978    9.2928  -23.6163 N   0  0  0  0  0  0  0  0  0  0  0  0
   -3.0667    8.7209  -24.2496 N   0  0  0  0  0  0  0  0  0  0  0  0
   -3.7710    7.8977  -23.3767 C   0  0  0  0  0  0  0  0  0  0  0  0
   -4.8322    7.3458  -23.6095 O   0  0  0  0  0  0  0  0  0  0  0  0
   -3.3048    8.8710  -25.1930 H   0  0  0  0  0  0  0  0  0  0  0  0
 11 12  2  0  0  0
 12 13  1  0  0  0
 13 15  1  0  0  0
 15 16  2  0  0  0
 16 17  1  0  0  0
 17 18  2  0  0  0
 18 19  1  0  0  0
 19 20  2  0  0  0
 19 21  1  0  0  0
 21 22  1  0  0  0
 22 23  1  0  0  0
 12  1  1  0  0  0
  1  2  2  0  0  0
  2  3  1  0  0  0
  3  4  2  0  0  0
  4  5  1  0  0  0
  5  6  2  0  0  0
  6  7  1  0  0  0
  7 25  1  0  0  0
 25 26  1  0  0  0
 26 27  1  0  0  0
 27 28  1  0  0  0
 28 29  1  0  0  0
 29 32  1  0  0  0
 32 33  1  0  0  0
 33 34  2  0  0  0
 34 35  1  0  0  0
 35 36  1  0  0  0
 36 37  2  0  0  0
 29 30  1  0  0  0
 30 31  1  0  0  0
  7  8  2  0  0  0
  8  9  1  0  0  0
  9 10  2  0  0  0
 20 15  1  0  0  0
 10  1  1  0  0  0
 23 18  1  0  0  0
 10  6  1  0  0  0
 31 26  1  0  0  0
 36 32  1  0  0  0
 13 14  1  0  0  0
 22 24  1  0  0  0
 35 38  1  0  0  0
M  END
> <minimizedAffinity>
-8.41832

> <minimizedRMSD>
0.89663

$$$$
P1139


 40 45  0  0  0  0  0  0  0  0999 V2000
   -8.1975    5.1367  -15.2430 C   0  0  0  0  0  0  0  0  0  0  0  0
   -9.1134    4.8260  -16.1643 C   0  0  0  0  0  0  0  0  0  0  0  0
   -8.9740    4.5648  -17.4969 N   0  0  0  0  0  0  0  0  0  0  0  0
   -7.9151    4.4342  -18.3259 C   0  0  0  0  0  0  0  0  0  0  0  0
   -8.1096    4.1207  -19.4997 O   0  0  0  0  0  0  0  0  0  0  0  0
   -6.5284    4.6148  -17.8848 C   0  0  0  0  0  0  0  0  0  0  0  0
   -6.0378    5.0381  -16.7253 C   0  0  0  0  0  0  0  0  0  0  0  0
   -4.6577    5.3325  -16.3844 C   0  0  0  0  0  0  0  0  0  0  0  0
   -4.6974    5.7523  -15.1091 C   0  0  0  0  0  0  0  0  0  0  0  0
   -5.9445    5.7611  -14.5357 N   0  0  0  0  0  0  0  0  0  0  0  0
   -6.7623    5.3290  -15.4669 C   0  0  0  0  0  0  0  0  0  0  0  0
   -9.8367    4.4450  -17.9559 H   0  0  0  0  0  0  0  0  0  0  0  0
   -9.3274    6.4475  -13.6877 O   0  0  0  0  0  0  0  0  0  0  0  0
   -8.7053    5.4745  -13.8677 C   0  0  0  0  0  0  0  0  0  0  0  0
   -8.1753    4.4190  -12.8604 N   0  0  0  0  0  0  0  0  0  0  0  0
   -7.7371    3.6395  -13.2724 H   0  0  0  0  0  0  0  0  0  0  0  0
   -8.2191    4.3953  -11.4633 C   0  0  0  0  0  0  0  0  0  0  0  0
   -7.8832    5.5270  -10.7064 C   0  0  0  0  0  0  0  0  0  0  0  0
   -7.8460    5.5758   -9.3459 N   0  0  0  0  0  0  0  0  0  0  0  0
   -8.2054    4.4329   -8.7380 C   0  0  0  0  0  0  0  0  0  0  0  0
   -8.5675    3.2702   -9.3904 C   0  0  0  0  0  0  0  0  0  0  0  0
   -8.5498    3.2276  -10.7778 C   0  0  0  0  0  0  0  0  0  0  0  0
   -8.9443    2.2365   -8.3843 C   0  0  0  0  0  0  0  0  0  0  0  0
   -8.5271    2.7647   -7.0555 N   0  0  0  0  0  0  0  0  0  0  0  0
   -8.2851    4.2146   -7.2537 C   0  0  0  0  0  0  0  0  0  0  0  0
   -7.6741    2.3020   -6.7414 H   0  0  0  0  0  0  0  0  0  0  0  0
   -3.3968    5.1583  -17.1684 C   0  0  0  0  0  0  0  0  0  0  0  0
   -3.1477    5.9545  -18.3684 N   0  0  0  0  0  0  0  0  0  0  0  0
   -3.7013    7.3096  -18.3762 C   0  0  0  0  0  0  0  0  0  0  0  0
   -3.7575    7.9255  -19.7887 C   0  0  0  0  0  0  0  0  0  0  0  0
   -2.5647    7.4767  -20.6373 C   0  0  0  0  0  0  0  0  0  0  0  0
   -2.4170    5.9498  -20.6619 C   0  0  0  0  0  0  0  0  0  0  0  0
   -3.3021    5.2621  -19.6335 C   0  0  0  0  0  0  0  0  0  0  0  0
   -2.5486    7.9982  -22.0012 N   0  0  0  0  0  0  0  0  0  0  0  0
   -1.4202    8.2595  -22.6979 C   0  0  0  0  0  0  0  0  0  0  0  0
   -1.5666    8.3899  -23.9762 N   0  0  0  0  0  0  0  0  0  0  0  0
   -2.9042    8.1824  -24.1630 N   0  0  0  0  0  0  0  0  0  0  0  0
   -3.5249    7.8619  -22.9592 C   0  0  0  0  0  0  0  0  0  0  0  0
   -4.6827    7.5050  -22.8344 O   0  0  0  0  0  0  0  0  0  0  0  0
   -3.3655    8.2503  -25.0300 H   0  0  0  0  0  0  0  0  0  0  0  0
 13 14  2  0  0  0
 14 15  1  0  0  0
 15 17  1  0  0  0
 17 18  2  0  0  0
 18 19  1  0  0  0
 19 20  2  0  0  0
 20 21  1  0  0  0
 21 22  2  0  0  0
 21 23  1  0  0  0
 23 24  1  0  0  0
 24 25  1  0  0  0
 14  1  1  0  0  0
  1  2  2  0  0  0
  2  3  1  0  0  0
  3  4  1  0  0  0
  4  5  2  0  0  0
  4  6  1  0  0  0
  6  7  2  0  0  0
  7  8  1  0  0  0
  8 27  1  0  0  0
 27 28  1  0  0  0
 28 29  1  0  0  0
 29 30  1  0  0  0
 30 31  1  0  0  0
 31 34  1  0  0  0
 34 35  1  0  0  0
 35 36  2  0  0  0
 36 37  1  0  0  0
 37 38  1  0  0  0
 38 39  2  0  0  0
 31 32  1  0  0  0
 32 33  1  0  0  0
  8  9  2  0  0  0
  9 10  1  0  0  0
 10 11  2  0  0  0
 22 17  1  0  0  0
 11  1  1  0  0  0
 25 20  1  0  0  0
 11  7  1  0  0  0
 33 28  1  0  0  0
 38 34  1  0  0  0
 15 16  1  0  0  0
 24 26  1  0  0  0
  3 12  1  0  0  0
 37 40  1  0  0  0
M  END
> <minimizedAffinity>
-7.86238

> <minimizedRMSD>
0.92047

$$$$
P1140


 43 48  0  0  0  0  0  0  0  0999 V2000
   -6.2390    5.6085  -18.0391 C   0  0  0  0  0  0  0  0  0  0  0  0
   -7.3993    4.8119  -18.0159 C   0  0  0  0  0  0  0  0  0  0  0  0
   -8.1626    4.6390  -16.8720 C   0  0  0  0  0  0  0  0  0  0  0  0
   -9.5897    3.7527  -17.1074 Cl  0  0  0  0  0  0  0  0  0  0  0  0
   -7.7836    5.2300  -15.6739 C   0  0  0  0  0  0  0  0  0  0  0  0
   -6.6223    6.0337  -15.6997 C   0  0  0  0  0  0  0  0  0  0  0  0
   -6.0952    6.7992  -14.6835 N   0  0  0  0  0  0  0  0  0  0  0  0
   -4.9456    7.3991  -15.0922 C   0  0  0  0  0  0  0  0  0  0  0  0
   -4.7040    7.0500  -16.4099 C   0  0  0  0  0  0  0  0  0  0  0  0
   -5.8193    6.2270  -16.8317 C   0  0  0  0  0  0  0  0  0  0  0  0
   -6.4938    6.8980  -13.7888 H   0  0  0  0  0  0  0  0  0  0  0  0
   -4.4168    4.9074  -19.5084 N   0  0  0  0  0  0  0  0  0  0  0  0
   -5.6006    5.7492  -19.3905 C   0  0  0  0  0  0  0  0  0  0  0  0
   -4.0069    5.0249  -20.4350 H   0  0  0  0  0  0  0  0  0  0  0  0
   -4.6792    3.9309  -19.3741 H   0  0  0  0  0  0  0  0  0  0  0  0
   -8.5499    5.2969  -14.4023 C   0  0  0  0  0  0  0  0  0  0  0  0
   -9.5400    5.9179  -14.4070 O   0  0  0  0  0  0  0  0  0  0  0  0
   -7.8158    4.5862  -13.2371 N   0  0  0  0  0  0  0  0  0  0  0  0
   -7.0300    4.0577  -13.5063 H   0  0  0  0  0  0  0  0  0  0  0  0
   -8.0887    4.5734  -11.8632 C   0  0  0  0  0  0  0  0  0  0  0  0
   -7.8868    5.7565  -11.1281 C   0  0  0  0  0  0  0  0  0  0  0  0
   -7.9822    5.7741   -9.7313 C   0  0  0  0  0  0  0  0  0  0  0  0
   -8.3310    4.6061   -9.0834 C   0  0  0  0  0  0  0  0  0  0  0  0
   -8.5754    3.4412   -9.8007 C   0  0  0  0  0  0  0  0  0  0  0  0
   -8.4245    3.3961  -11.1882 C   0  0  0  0  0  0  0  0  0  0  0  0
   -9.0074    2.3765   -8.8427 C   0  0  0  0  0  0  0  0  0  0  0  0
   -8.7348    2.9051   -7.4782 N   0  0  0  0  0  0  0  0  0  0  0  0
   -8.5304    4.3584   -7.6269 C   0  0  0  0  0  0  0  0  0  0  0  0
   -7.8975    2.4690   -7.0918 H   0  0  0  0  0  0  0  0  0  0  0  0
   -3.4251    7.4074  -17.1153 C   0  0  0  0  0  0  0  0  0  0  0  0
   -3.6152    7.8623  -18.4856 N   0  0  0  0  0  0  0  0  0  0  0  0
   -4.3043    9.1356  -18.6416 C   0  0  0  0  0  0  0  0  0  0  0  0
   -4.6485    9.3798  -20.1207 C   0  0  0  0  0  0  0  0  0  0  0  0
   -3.4212    9.2245  -21.0259 C   0  0  0  0  0  0  0  0  0  0  0  0
   -2.6527    7.9366  -20.7337 C   0  0  0  0  0  0  0  0  0  0  0  0
   -2.3720    7.7920  -19.2442 C   0  0  0  0  0  0  0  0  0  0  0  0
   -3.6859    9.3386  -22.4592 N   0  0  0  0  0  0  0  0  0  0  0  0
   -2.9009   10.0266  -23.3181 C   0  0  0  0  0  0  0  0  0  0  0  0
   -3.1125    9.8065  -24.5744 N   0  0  0  0  0  0  0  0  0  0  0  0
   -4.1165    8.8812  -24.5652 N   0  0  0  0  0  0  0  0  0  0  0  0
   -4.4537    8.5295  -23.2608 C   0  0  0  0  0  0  0  0  0  0  0  0
   -5.2580    7.6677  -22.9543 O   0  0  0  0  0  0  0  0  0  0  0  0
   -4.5441    8.5126  -25.3718 H   0  0  0  0  0  0  0  0  0  0  0  0
 12 13  1  0  0  0
 13  1  1  0  0  0
  1  2  2  0  0  0
  2  3  1  0  0  0
  3  4  1  0  0  0
  3  5  2  0  0  0
  5 16  1  0  0  0
 16 17  2  0  0  0
 16 18  1  0  0  0
 18 20  1  0  0  0
 20 21  2  0  0  0
 21 22  1  0  0  0
 22 23  2  0  0  0
 23 24  1  0  0  0
 24 25  2  0  0  0
 24 26  1  0  0  0
 26 27  1  0  0  0
 27 28  1  0  0  0
  5  6  1  0  0  0
  6  7  1  0  0  0
  7  8  1  0  0  0
  8  9  2  0  0  0
  9 30  1  0  0  0
 30 31  1  0  0  0
 31 32  1  0  0  0
 32 33  1  0  0  0
 33 34  1  0  0  0
 34 37  1  0  0  0
 37 38  1  0  0  0
 38 39  2  0  0  0
 39 40  1  0  0  0
 40 41  1  0  0  0
 41 42  2  0  0  0
 34 35  1  0  0  0
 35 36  1  0  0  0
  9 10  1  0  0  0
 10  1  1  0  0  0
 25 20  1  0  0  0
 10  6  2  0  0  0
 28 23  1  0  0  0
 36 31  1  0  0  0
 41 37  1  0  0  0
 12 14  1  0  0  0
 12 15  1  0  0  0
 18 19  1  0  0  0
 27 29  1  0  0  0
  7 11  1  0  0  0
 40 43  1  0  0  0
M  END
> <minimizedAffinity>
-7.53769

> <minimizedRMSD>
0.61839

$$$$
P1143


 43 48  0  0  0  0  0  0  0  0999 V2000
   -4.3791    4.6340  -17.3928 O   0  0  0  0  0  0  0  0  0  0  0  0
   -5.5021    5.1345  -17.3275 C   0  0  0  0  0  0  0  0  0  0  0  0
   -6.5806    4.7807  -18.3381 C   0  0  0  0  0  0  0  0  0  0  0  0
   -8.0084    5.1617  -17.9972 C   0  0  0  0  0  0  0  0  0  0  0  0
   -8.6725    4.3194  -16.9122 C   0  0  0  0  0  0  0  0  0  0  0  0
   -8.8573    5.0068  -15.5619 C   0  0  0  0  0  0  0  0  0  0  0  0
   -7.5782    5.2310  -14.7630 C   0  0  0  0  0  0  0  0  0  0  0  0
   -6.6554    6.2812  -15.3671 C   0  0  0  0  0  0  0  0  0  0  0  0
   -6.5535    7.5414  -14.8204 N   0  0  0  0  0  0  0  0  0  0  0  0
   -5.4783    8.1972  -15.3341 C   0  0  0  0  0  0  0  0  0  0  0  0
   -4.8919    7.3959  -16.2915 C   0  0  0  0  0  0  0  0  0  0  0  0
   -5.7202    6.2271  -16.3972 C   0  0  0  0  0  0  0  0  0  0  0  0
   -7.1720    7.9150  -14.1517 H   0  0  0  0  0  0  0  0  0  0  0  0
   -8.0067    5.6393  -13.3086 C   0  0  0  0  0  0  0  0  0  0  0  0
   -8.2699    6.7454  -13.0244 O   0  0  0  0  0  0  0  0  0  0  0  0
   -7.9158    4.3641  -12.4198 N   0  0  0  0  0  0  0  0  0  0  0  0
   -7.5981    3.5578  -12.8869 H   0  0  0  0  0  0  0  0  0  0  0  0
   -8.2050    4.1826  -11.0983 C   0  0  0  0  0  0  0  0  0  0  0  0
   -8.6790    3.0421  -10.4308 C   0  0  0  0  0  0  0  0  0  0  0  0
   -8.7847    3.2297   -9.1129 N   0  0  0  0  0  0  0  0  0  0  0  0
   -8.3238    4.4830   -8.9327 N   0  0  0  0  0  0  0  0  0  0  0  0
   -8.0415    5.1214  -10.1094 C   0  0  0  0  0  0  0  0  0  0  0  0
   -8.1979    5.0113   -7.5794 C   0  0  0  0  0  0  0  0  0  0  0  0
   -7.1212    6.0612   -7.4360 C   0  0  0  0  0  0  0  0  0  0  0  0
   -7.4586    7.4127   -7.3116 C   0  0  0  0  0  0  0  0  0  0  0  0
   -6.4418    8.3407   -7.1392 C   0  0  0  0  0  0  0  0  0  0  0  0
   -5.1322    8.0209   -7.0745 N   0  0  0  0  0  0  0  0  0  0  0  0
   -4.8260    6.7108   -7.1926 C   0  0  0  0  0  0  0  0  0  0  0  0
   -5.7693    5.7115   -7.3654 C   0  0  0  0  0  0  0  0  0  0  0  0
   -3.5859    7.6927  -16.9696 C   0  0  0  0  0  0  0  0  0  0  0  0
   -3.6278    7.9291  -18.4160 N   0  0  0  0  0  0  0  0  0  0  0  0
   -4.9241    8.3038  -18.9736 C   0  0  0  0  0  0  0  0  0  0  0  0
   -4.7849    8.7733  -20.4277 C   0  0  0  0  0  0  0  0  0  0  0  0
   -4.0376    7.7301  -21.2638 C   0  0  0  0  0  0  0  0  0  0  0  0
   -2.6957    7.4265  -20.5993 C   0  0  0  0  0  0  0  0  0  0  0  0
   -2.9265    6.9108  -19.1885 C   0  0  0  0  0  0  0  0  0  0  0  0
   -3.8805    8.1369  -22.6528 N   0  0  0  0  0  0  0  0  0  0  0  0
   -2.9555    8.9407  -23.2112 C   0  0  0  0  0  0  0  0  0  0  0  0
   -3.1307    9.2004  -24.4679 N   0  0  0  0  0  0  0  0  0  0  0  0
   -4.2867    8.5344  -24.7714 N   0  0  0  0  0  0  0  0  0  0  0  0
   -4.8119    7.9248  -23.6372 C   0  0  0  0  0  0  0  0  0  0  0  0
   -5.8983    7.3789  -23.5482 O   0  0  0  0  0  0  0  0  0  0  0  0
   -4.6906    8.4925  -25.6683 H   0  0  0  0  0  0  0  0  0  0  0  0
  1  2  2  0  0  0
  2  3  1  0  0  0
  3  4  1  0  0  0
  4  5  1  0  0  0
  5  6  1  0  0  0
  6  7  1  0  0  0
  7 14  1  0  0  0
 14 15  2  0  0  0
 14 16  1  0  0  0
 16 18  1  0  0  0
 18 19  1  0  0  0
 19 20  2  0  0  0
 20 21  1  0  0  0
 21 23  1  0  0  0
 23 24  1  0  0  0
 24 25  2  0  0  0
 25 26  1  0  0  0
 26 27  2  0  0  0
 27 28  1  0  0  0
 28 29  2  0  0  0
 21 22  1  0  0  0
  7  8  1  0  0  0
  8  9  1  0  0  0
  9 10  1  0  0  0
 10 11  2  0  0  0
 11 30  1  0  0  0
 30 31  1  0  0  0
 31 32  1  0  0  0
 32 33  1  0  0  0
 33 34  1  0  0  0
 34 37  1  0  0  0
 37 38  1  0  0  0
 38 39  2  0  0  0
 39 40  1  0  0  0
 40 41  1  0  0  0
 41 42  2  0  0  0
 34 35  1  0  0  0
 35 36  1  0  0  0
 11 12  1  0  0  0
 12  2  1  0  0  0
 22 18  2  0  0  0
 12  8  2  0  0  0
 29 24  1  0  0  0
 36 31  1  0  0  0
 41 37  1  0  0  0
 16 17  1  0  0  0
  9 13  1  0  0  0
 40 43  1  0  0  0
M  END
> <minimizedAffinity>
-6.25230

> <minimizedRMSD>
0.49970

$$$$
P1144


 41 46  0  0  0  0  0  0  0  0999 V2000
   -7.2641    4.1992  -14.6217 C   0  0  0  0  0  0  0  0  0  0  0  0
   -8.4348    4.9310  -15.2998 C   0  0  0  0  0  0  0  0  0  0  0  0
   -8.8327    4.3453  -16.6598 C   0  0  0  0  0  0  0  0  0  0  0  0
   -8.2058    4.8591  -17.9576 C   0  0  0  0  0  0  0  0  0  0  0  0
   -6.7031    5.0642  -18.0649 C   0  0  0  0  0  0  0  0  0  0  0  0
   -6.2205    6.1654  -17.1477 C   0  0  0  0  0  0  0  0  0  0  0  0
   -6.4445    7.3443  -17.4482 O   0  0  0  0  0  0  0  0  0  0  0  0
   -5.5006    5.8196  -15.8341 C   0  0  0  0  0  0  0  0  0  0  0  0
   -5.7397    6.9169  -14.7923 C   0  0  0  0  0  0  0  0  0  0  0  0
   -4.7105    6.6969  -13.7838 N   0  0  0  0  0  0  0  0  0  0  0  0
   -3.5540    6.0961  -14.4488 C   0  0  0  0  0  0  0  0  0  0  0  0
   -3.9445    5.8791  -15.9299 C   0  0  0  0  0  0  0  0  0  0  0  0
   -5.8948    4.4155  -15.2903 C   0  0  0  0  0  0  0  0  0  0  0  0
   -5.0612    6.0676  -13.0617 H   0  0  0  0  0  0  0  0  0  0  0  0
   -6.0800    4.1935  -12.4878 O   0  0  0  0  0  0  0  0  0  0  0  0
   -7.1441    4.3025  -13.0894 C   0  0  0  0  0  0  0  0  0  0  0  0
   -8.3881    4.4322  -12.4925 O   0  0  0  0  0  0  0  0  0  0  0  0
   -8.3079    4.3959  -11.0951 C   0  0  0  0  0  0  0  0  0  0  0  0
   -8.0298    5.5797  -10.3986 C   0  0  0  0  0  0  0  0  0  0  0  0
   -8.0182    5.5767   -9.0023 C   0  0  0  0  0  0  0  0  0  0  0  0
   -8.2817    4.3854   -8.3438 C   0  0  0  0  0  0  0  0  0  0  0  0
   -8.5507    3.2129   -9.0435 C   0  0  0  0  0  0  0  0  0  0  0  0
   -8.5829    3.1989  -10.4284 C   0  0  0  0  0  0  0  0  0  0  0  0
   -8.7783    2.1019   -8.0740 C   0  0  0  0  0  0  0  0  0  0  0  0
   -8.4280    2.6476   -6.7330 N   0  0  0  0  0  0  0  0  0  0  0  0
   -8.3666    4.1169   -6.8806 C   0  0  0  0  0  0  0  0  0  0  0  0
   -7.5236    2.2857   -6.4306 H   0  0  0  0  0  0  0  0  0  0  0  0
   -3.3071    7.0434  -16.7170 C   0  0  0  0  0  0  0  0  0  0  0  0
   -3.2959    6.8863  -18.1722 N   0  0  0  0  0  0  0  0  0  0  0  0
   -2.7950    8.1211  -18.7957 C   0  0  0  0  0  0  0  0  0  0  0  0
   -2.8421    8.0507  -20.3156 C   0  0  0  0  0  0  0  0  0  0  0  0
   -2.0293    6.8548  -20.7895 C   0  0  0  0  0  0  0  0  0  0  0  0
   -2.5629    5.5782  -20.1364 C   0  0  0  0  0  0  0  0  0  0  0  0
   -2.5718    5.6962  -18.6114 C   0  0  0  0  0  0  0  0  0  0  0  0
   -1.9168    6.7392  -22.2374 N   0  0  0  0  0  0  0  0  0  0  0  0
   -0.8511    6.2389  -22.8971 C   0  0  0  0  0  0  0  0  0  0  0  0
   -0.9842    6.1336  -24.1788 N   0  0  0  0  0  0  0  0  0  0  0  0
   -2.2514    6.5942  -24.4008 N   0  0  0  0  0  0  0  0  0  0  0  0
   -2.8630    6.9657  -23.2056 C   0  0  0  0  0  0  0  0  0  0  0  0
   -3.9886    7.4188  -23.1036 O   0  0  0  0  0  0  0  0  0  0  0  0
   -2.6756    6.6554  -25.2871 H   0  0  0  0  0  0  0  0  0  0  0  0
 15 16  2  0  0  0
 16 17  1  0  0  0
 17 18  1  0  0  0
 18 19  2  0  0  0
 19 20  1  0  0  0
 20 21  2  0  0  0
 21 22  1  0  0  0
 22 23  2  0  0  0
 22 24  1  0  0  0
 24 25  1  0  0  0
 25 26  1  0  0  0
  1 16  1  0  0  0
  1  2  1  0  0  0
  2  3  1  0  0  0
  3  4  1  0  0  0
  4  5  1  0  0  0
  5  6  1  0  0  0
  6  7  2  0  0  0
  6  8  1  0  0  0
  8  9  1  0  0  0
  9 10  1  0  0  0
 10 11  1  0  0  0
 11 12  1  0  0  0
 12 28  1  0  0  0
 28 29  1  0  0  0
 29 30  1  0  0  0
 30 31  1  0  0  0
 31 32  1  0  0  0
 32 35  1  0  0  0
 35 36  1  0  0  0
 36 37  2  0  0  0
 37 38  1  0  0  0
 38 39  1  0  0  0
 39 40  2  0  0  0
 32 33  1  0  0  0
 33 34  1  0  0  0
  8 13  1  0  0  0
 23 18  1  0  0  0
 13  1  1  0  0  0
 26 21  1  0  0  0
 12  8  1  0  0  0
 34 29  1  0  0  0
 39 35  1  0  0  0
 25 27  1  0  0  0
 10 14  1  0  0  0
 38 41  1  0  0  0
M  END
> <minimizedAffinity>
-8.23115

> <minimizedRMSD>
1.14850

$$$$
P1145


 35 39  0  0  0  0  0  0  0  0999 V2000
   -8.1943    5.2746  -15.6924 C   0  0  0  0  0  0  0  0  0  0  0  0
   -8.6827    4.4902  -16.7366 C   0  0  0  0  0  0  0  0  0  0  0  0
   -7.9605    4.3986  -17.9296 C   0  0  0  0  0  0  0  0  0  0  0  0
   -6.7058    5.0192  -18.0748 C   0  0  0  0  0  0  0  0  0  0  0  0
   -6.2044    5.8406  -17.0437 C   0  0  0  0  0  0  0  0  0  0  0  0
   -4.9893    6.5736  -16.7908 C   0  0  0  0  0  0  0  0  0  0  0  0
   -5.1697    7.2318  -15.5843 C   0  0  0  0  0  0  0  0  0  0  0  0
   -6.3760    6.8750  -15.0691 N   0  0  0  0  0  0  0  0  0  0  0  0
   -6.9986    5.9803  -15.9053 C   0  0  0  0  0  0  0  0  0  0  0  0
   -6.7487    7.2087  -14.2212 H   0  0  0  0  0  0  0  0  0  0  0  0
   -9.6227    6.2111  -14.1793 O   0  0  0  0  0  0  0  0  0  0  0  0
   -8.7915    5.4045  -14.3350 C   0  0  0  0  0  0  0  0  0  0  0  0
   -8.0981    4.4698  -13.3160 N   0  0  0  0  0  0  0  0  0  0  0  0
   -7.4764    3.8173  -13.7121 H   0  0  0  0  0  0  0  0  0  0  0  0
   -8.2107    4.4009  -11.9231 C   0  0  0  0  0  0  0  0  0  0  0  0
   -8.5453    3.1872  -11.3196 C   0  0  0  0  0  0  0  0  0  0  0  0
   -8.6292    3.0805   -9.9244 C   0  0  0  0  0  0  0  0  0  0  0  0
   -8.3520    4.1833   -9.1317 C   0  0  0  0  0  0  0  0  0  0  0  0
   -8.4573    4.0907   -7.7976 F   0  0  0  0  0  0  0  0  0  0  0  0
   -7.9830    5.3897   -9.7147 C   0  0  0  0  0  0  0  0  0  0  0  0
   -7.9223    5.5013  -11.1107 C   0  0  0  0  0  0  0  0  0  0  0  0
   -3.6897    6.5892  -17.5343 C   0  0  0  0  0  0  0  0  0  0  0  0
   -3.7019    7.1252  -18.8974 N   0  0  0  0  0  0  0  0  0  0  0  0
   -4.8087    8.0308  -19.2154 C   0  0  0  0  0  0  0  0  0  0  0  0
   -4.6045    8.6952  -20.5882 C   0  0  0  0  0  0  0  0  0  0  0  0
   -4.3546    7.6334  -21.6589 C   0  0  0  0  0  0  0  0  0  0  0  0
   -3.1782    6.7676  -21.2260 C   0  0  0  0  0  0  0  0  0  0  0  0
   -3.4983    6.0924  -19.9059 C   0  0  0  0  0  0  0  0  0  0  0  0
   -4.1057    8.1692  -22.9885 N   0  0  0  0  0  0  0  0  0  0  0  0
   -2.9983    8.7964  -23.4344 C   0  0  0  0  0  0  0  0  0  0  0  0
   -2.8838    8.8744  -24.7219 N   0  0  0  0  0  0  0  0  0  0  0  0
   -4.0029    8.2347  -25.1808 N   0  0  0  0  0  0  0  0  0  0  0  0
   -4.7529    7.7384  -24.1207 C   0  0  0  0  0  0  0  0  0  0  0  0
   -5.7532    7.0470  -24.2052 O   0  0  0  0  0  0  0  0  0  0  0  0
   -4.2437    8.1391  -26.1306 H   0  0  0  0  0  0  0  0  0  0  0  0
 11 12  2  0  0  0
 12 13  1  0  0  0
 13 15  1  0  0  0
 15 16  2  0  0  0
 16 17  1  0  0  0
 17 18  2  0  0  0
 18 19  1  0  0  0
 18 20  1  0  0  0
 20 21  2  0  0  0
 12  1  1  0  0  0
  1  2  2  0  0  0
  2  3  1  0  0  0
  3  4  2  0  0  0
  4  5  1  0  0  0
  5  6  1  0  0  0
  6 22  1  0  0  0
 22 23  1  0  0  0
 23 24  1  0  0  0
 24 25  1  0  0  0
 25 26  1  0  0  0
 26 29  1  0  0  0
 29 30  1  0  0  0
 30 31  2  0  0  0
 31 32  1  0  0  0
 32 33  1  0  0  0
 33 34  2  0  0  0
 26 27  1  0  0  0
 27 28  1  0  0  0
  6  7  2  0  0  0
  7  8  1  0  0  0
  8  9  1  0  0  0
 21 15  1  0  0  0
  9  1  1  0  0  0
  9  5  2  0  0  0
 28 23  1  0  0  0
 33 29  1  0  0  0
 13 14  1  0  0  0
 32 35  1  0  0  0
  8 10  1  0  0  0
M  END
> <minimizedAffinity>
-7.51001

> <minimizedRMSD>
0.72483

$$$$
P1152


 46 51  0  0  0  0  0  0  0  0999 V2000
   -6.0322    4.9875  -19.0665 C   0  0  0  0  0  0  0  0  0  0  0  0
   -6.1714    4.9813  -17.5758 C   0  0  0  0  0  0  0  0  0  0  0  0
   -7.4785    5.0563  -17.1016 C   0  0  0  0  0  0  0  0  0  0  0  0
   -7.7762    4.8789  -15.7569 C   0  0  0  0  0  0  0  0  0  0  0  0
   -9.4114    5.1673  -15.3902 Cl  0  0  0  0  0  0  0  0  0  0  0  0
   -6.8026    4.5824  -14.7837 C   0  0  0  0  0  0  0  0  0  0  0  0
   -5.4976    4.8471  -15.2550 C   0  0  0  0  0  0  0  0  0  0  0  0
   -4.3501    5.0009  -14.5162 N   0  0  0  0  0  0  0  0  0  0  0  0
   -3.2709    5.1458  -15.3279 C   0  0  0  0  0  0  0  0  0  0  0  0
   -3.6938    5.0806  -16.6448 C   0  0  0  0  0  0  0  0  0  0  0  0
   -5.1377    5.0061  -16.6078 C   0  0  0  0  0  0  0  0  0  0  0  0
   -4.3147    5.0055  -13.5323 H   0  0  0  0  0  0  0  0  0  0  0  0
   -7.1191    3.9595  -13.4056 C   0  0  0  0  0  0  0  0  0  0  0  0
   -6.2738    2.6119  -13.1847 C   0  0  0  0  0  0  0  0  0  0  0  0
   -6.5762    1.5925  -13.6660 O   0  0  0  0  0  0  0  0  0  0  0  0
   -5.0382    2.9899  -12.3250 N   0  0  0  0  0  0  0  0  0  0  0  0
   -4.9701    3.9456  -12.0987 H   0  0  0  0  0  0  0  0  0  0  0  0
   -3.9776    2.1714  -11.8059 C   0  0  0  0  0  0  0  0  0  0  0  0
   -4.1893    1.8467  -10.3344 C   0  0  0  0  0  0  0  0  0  0  0  0
   -2.8667    1.5532   -9.6595 C   0  0  0  0  0  0  0  0  0  0  0  0
   -2.6162    2.5139   -8.7264 F   0  0  0  0  0  0  0  0  0  0  0  0
   -6.8468    4.9320  -12.3093 N   0  0  0  0  0  0  0  0  0  0  0  0
   -6.2531    5.6977  -12.4838 H   0  0  0  0  0  0  0  0  0  0  0  0
   -7.4196    4.7827  -11.0246 C   0  0  0  0  0  0  0  0  0  0  0  0
   -7.0612    5.7668  -10.0759 C   0  0  0  0  0  0  0  0  0  0  0  0
   -7.4105    5.6672   -8.7238 C   0  0  0  0  0  0  0  0  0  0  0  0
   -8.1313    4.5661   -8.3126 C   0  0  0  0  0  0  0  0  0  0  0  0
   -8.5213    3.5968   -9.2235 C   0  0  0  0  0  0  0  0  0  0  0  0
   -8.1831    3.6903  -10.5755 C   0  0  0  0  0  0  0  0  0  0  0  0
   -9.2426    2.5123   -8.4899 C   0  0  0  0  0  0  0  0  0  0  0  0
   -9.4534    3.0114   -7.1043 N   0  0  0  0  0  0  0  0  0  0  0  0
   -8.5714    4.1821   -6.9409 C   0  0  0  0  0  0  0  0  0  0  0  0
   -9.2076    2.2882   -6.4283 H   0  0  0  0  0  0  0  0  0  0  0  0
   -2.7259    4.9879  -17.7874 C   0  0  0  0  0  0  0  0  0  0  0  0
   -3.0735    5.7814  -18.9643 N   0  0  0  0  0  0  0  0  0  0  0  0
   -3.0787    7.2215  -18.7461 C   0  0  0  0  0  0  0  0  0  0  0  0
   -3.6899    7.9652  -19.9519 C   0  0  0  0  0  0  0  0  0  0  0  0
   -3.5633    7.1975  -21.2849 C   0  0  0  0  0  0  0  0  0  0  0  0
   -2.2771    6.3654  -21.2698 C   0  0  0  0  0  0  0  0  0  0  0  0
   -2.2427    5.3834  -20.0996 C   0  0  0  0  0  0  0  0  0  0  0  0
   -3.6555    8.0811  -22.4792 C   0  0  0  0  0  0  0  0  0  0  0  0
   -2.8214    8.9482  -23.0454 C   0  0  0  0  0  0  0  0  0  0  0  0
   -3.2912    9.5107  -24.1900 N   0  0  0  0  0  0  0  0  0  0  0  0
   -4.4325    9.0431  -24.4330 N   0  0  0  0  0  0  0  0  0  0  0  0
   -4.7727    8.1535  -23.4301 C   0  0  0  0  0  0  0  0  0  0  0  0
   -5.8251    7.5484  -23.3067 O   0  0  0  0  0  0  0  0  0  0  0  0
  1  2  1  0  0  0
  2  3  2  0  0  0
  3  4  1  0  0  0
  4  5  1  0  0  0
  4  6  2  0  0  0
  6 13  1  0  0  0
 13 22  1  0  0  0
 22 24  1  0  0  0
 24 25  2  0  0  0
 25 26  1  0  0  0
 26 27  2  0  0  0
 27 28  1  0  0  0
 28 29  2  0  0  0
 28 30  1  0  0  0
 30 31  1  0  0  0
 31 32  1  0  0  0
 13 14  1  0  0  0
 14 15  2  0  0  0
 14 16  1  0  0  0
 16 18  1  0  0  0
 18 19  1  0  0  0
 19 20  1  0  0  0
 20 21  1  0  0  0
  6  7  1  0  0  0
  7  8  1  0  0  0
  8  9  1  0  0  0
  9 10  2  0  0  0
 10 34  1  0  0  0
 34 35  1  0  0  0
 35 36  1  0  0  0
 36 37  1  0  0  0
 37 38  1  0  0  0
 38 41  1  0  0  0
 41 42  2  0  0  0
 42 43  1  0  0  0
 43 44  2  0  0  0
 44 45  1  0  0  0
 45 46  2  0  0  0
 38 39  1  0  0  0
 39 40  1  0  0  0
 10 11  1  0  0  0
 11  2  1  0  0  0
 29 24  1  0  0  0
 11  7  2  0  0  0
 32 27  1  0  0  0
 40 35  1  0  0  0
 45 41  1  0  0  0
 22 23  1  0  0  0
 31 33  1  0  0  0
 16 17  1  0  0  0
  8 12  1  0  0  0
M  END
> <minimizedAffinity>
-7.61269

> <minimizedRMSD>
0.97056

$$$$
P1157


 35 39  0  0  0  0  0  0  0  0999 V2000
   -8.1358    5.1228  -15.5726 C   0  0  0  0  0  0  0  0  0  0  0  0
   -8.7921    4.7781  -16.7498 C   0  0  0  0  0  0  0  0  0  0  0  0
   -8.0473    4.5925  -17.9202 C   0  0  0  0  0  0  0  0  0  0  0  0
   -6.6396    4.6744  -17.9220 C   0  0  0  0  0  0  0  0  0  0  0  0
   -5.9585    5.0359  -16.7416 C   0  0  0  0  0  0  0  0  0  0  0  0
   -4.5869    5.1865  -16.3287 C   0  0  0  0  0  0  0  0  0  0  0  0
   -4.6100    5.6361  -15.0184 C   0  0  0  0  0  0  0  0  0  0  0  0
   -5.9028    5.7120  -14.6120 N   0  0  0  0  0  0  0  0  0  0  0  0
   -6.7405    5.2914  -15.6188 C   0  0  0  0  0  0  0  0  0  0  0  0
   -6.1981    6.0227  -13.7257 H   0  0  0  0  0  0  0  0  0  0  0  0
   -9.5814    6.1615  -14.1876 O   0  0  0  0  0  0  0  0  0  0  0  0
   -8.7321    5.3595  -14.2371 C   0  0  0  0  0  0  0  0  0  0  0  0
   -8.0413    4.5593  -13.1077 N   0  0  0  0  0  0  0  0  0  0  0  0
   -7.4001    3.8794  -13.4170 H   0  0  0  0  0  0  0  0  0  0  0  0
   -8.1797    4.6449  -11.7180 C   0  0  0  0  0  0  0  0  0  0  0  0
   -7.9439    5.8834  -11.1047 C   0  0  0  0  0  0  0  0  0  0  0  0
   -7.9414    6.0155   -9.7183 C   0  0  0  0  0  0  0  0  0  0  0  0
   -8.2176    4.9122   -8.9276 C   0  0  0  0  0  0  0  0  0  0  0  0
   -8.4963    3.6859   -9.5290 C   0  0  0  0  0  0  0  0  0  0  0  0
   -8.9942    2.2814   -8.3754 Br  0  0  0  0  0  0  0  0  0  0  0  0
   -8.4456    3.5286  -10.9222 C   0  0  0  0  0  0  0  0  0  0  0  0
   -3.3187    4.8634  -17.0454 C   0  0  0  0  0  0  0  0  0  0  0  0
   -3.0386    5.6361  -18.2490 N   0  0  0  0  0  0  0  0  0  0  0  0
   -3.4762    7.0330  -18.2639 C   0  0  0  0  0  0  0  0  0  0  0  0
   -3.3986    7.6549  -19.6733 C   0  0  0  0  0  0  0  0  0  0  0  0
   -2.2418    7.0474  -20.4671 C   0  0  0  0  0  0  0  0  0  0  0  0
   -2.3381    5.5179  -20.5242 C   0  0  0  0  0  0  0  0  0  0  0  0
   -3.3031    4.9430  -19.4936 C   0  0  0  0  0  0  0  0  0  0  0  0
   -2.0694    7.5851  -21.8122 N   0  0  0  0  0  0  0  0  0  0  0  0
   -0.8754    7.7149  -22.4307 C   0  0  0  0  0  0  0  0  0  0  0  0
   -0.9226    7.8825  -23.7124 N   0  0  0  0  0  0  0  0  0  0  0  0
   -2.2611    7.8444  -23.9865 N   0  0  0  0  0  0  0  0  0  0  0  0
   -2.9915    7.5786  -22.8314 C   0  0  0  0  0  0  0  0  0  0  0  0
   -4.1867    7.3457  -22.7883 O   0  0  0  0  0  0  0  0  0  0  0  0
   -2.6545    7.9856  -24.8778 H   0  0  0  0  0  0  0  0  0  0  0  0
 11 12  2  0  0  0
 12 13  1  0  0  0
 13 15  1  0  0  0
 15 16  2  0  0  0
 16 17  1  0  0  0
 17 18  2  0  0  0
 18 19  1  0  0  0
 19 20  1  0  0  0
 19 21  2  0  0  0
 12  1  1  0  0  0
  1  2  2  0  0  0
  2  3  1  0  0  0
  3  4  2  0  0  0
  4  5  1  0  0  0
  5  6  1  0  0  0
  6 22  1  0  0  0
 22 23  1  0  0  0
 23 24  1  0  0  0
 24 25  1  0  0  0
 25 26  1  0  0  0
 26 29  1  0  0  0
 29 30  1  0  0  0
 30 31  2  0  0  0
 31 32  1  0  0  0
 32 33  1  0  0  0
 33 34  2  0  0  0
 26 27  1  0  0  0
 27 28  1  0  0  0
  6  7  2  0  0  0
  7  8  1  0  0  0
  8  9  1  0  0  0
 21 15  1  0  0  0
  9  1  1  0  0  0
  9  5  2  0  0  0
 28 23  1  0  0  0
 33 29  1  0  0  0
 13 14  1  0  0  0
 32 35  1  0  0  0
  8 10  1  0  0  0
M  END
> <minimizedAffinity>
-7.95654

> <minimizedRMSD>
1.39088

$$$$
P1159


 46 51  0  0  0  0  0  0  0  0999 V2000
   -3.5063    6.3217  -17.4501 C   0  0  0  0  0  0  0  0  0  0  0  0
   -3.1586    6.8932  -16.2455 C   0  0  0  0  0  0  0  0  0  0  0  0
   -4.1771    6.6949  -15.3778 N   0  0  0  0  0  0  0  0  0  0  0  0
   -5.1405    5.8648  -15.9195 C   0  0  0  0  0  0  0  0  0  0  0  0
   -6.2535    5.2403  -15.2856 C   0  0  0  0  0  0  0  0  0  0  0  0
   -7.2321    4.8685  -16.2319 C   0  0  0  0  0  0  0  0  0  0  0  0
   -8.8449    4.5443  -15.7920 Cl  0  0  0  0  0  0  0  0  0  0  0  0
   -6.9976    4.8320  -17.6107 C   0  0  0  0  0  0  0  0  0  0  0  0
   -5.7601    5.1778  -18.1317 C   0  0  0  0  0  0  0  0  0  0  0  0
   -4.8265    5.7795  -17.2803 C   0  0  0  0  0  0  0  0  0  0  0  0
   -4.2259    7.0904  -14.4775 H   0  0  0  0  0  0  0  0  0  0  0  0
   -2.2166    4.8637  -19.0254 C   0  0  0  0  0  0  0  0  0  0  0  0
   -2.5744    6.2978  -18.6221 C   0  0  0  0  0  0  0  0  0  0  0  0
   -2.9734    7.1555  -19.7380 N   0  0  0  0  0  0  0  0  0  0  0  0
   -3.5149    8.4666  -19.3593 C   0  0  0  0  0  0  0  0  0  0  0  0
   -4.1014    9.2319  -20.5627 C   0  0  0  0  0  0  0  0  0  0  0  0
   -3.3564    8.8646  -21.8488 C   0  0  0  0  0  0  0  0  0  0  0  0
   -3.3617    7.3503  -22.0830 C   0  0  0  0  0  0  0  0  0  0  0  0
   -3.7068    6.5540  -20.8317 C   0  0  0  0  0  0  0  0  0  0  0  0
   -3.8346    9.5378  -23.0778 C   0  0  0  0  0  0  0  0  0  0  0  0
   -3.1741   10.2507  -23.9826 C   0  0  0  0  0  0  0  0  0  0  0  0
   -3.9316   10.6346  -25.0431 N   0  0  0  0  0  0  0  0  0  0  0  0
   -5.1011   10.1971  -24.8888 N   0  0  0  0  0  0  0  0  0  0  0  0
   -5.1654    9.5061  -23.6930 C   0  0  0  0  0  0  0  0  0  0  0  0
   -6.1445    8.9690  -23.2002 O   0  0  0  0  0  0  0  0  0  0  0  0
   -6.3726    5.1614  -13.7481 C   0  0  0  0  0  0  0  0  0  0  0  0
   -4.9772    4.6150  -13.1627 C   0  0  0  0  0  0  0  0  0  0  0  0
   -4.2669    5.2781  -12.5073 O   0  0  0  0  0  0  0  0  0  0  0  0
   -4.8075    3.1540  -13.6712 N   0  0  0  0  0  0  0  0  0  0  0  0
   -5.5884    2.7901  -14.1477 H   0  0  0  0  0  0  0  0  0  0  0  0
   -3.6918    2.2462  -13.5577 C   0  0  0  0  0  0  0  0  0  0  0  0
   -3.2445    1.9976  -12.1182 C   0  0  0  0  0  0  0  0  0  0  0  0
   -2.3703    2.9613  -11.7260 F   0  0  0  0  0  0  0  0  0  0  0  0
   -2.5537    0.8247  -12.0712 F   0  0  0  0  0  0  0  0  0  0  0  0
   -7.4290    4.2647  -13.2005 N   0  0  0  0  0  0  0  0  0  0  0  0
   -7.8231    3.5628  -13.7673 H   0  0  0  0  0  0  0  0  0  0  0  0
   -7.8658    4.4250  -11.8600 C   0  0  0  0  0  0  0  0  0  0  0  0
   -7.7170    5.6323  -11.1309 C   0  0  0  0  0  0  0  0  0  0  0  0
   -7.8919    5.7149   -9.7436 C   0  0  0  0  0  0  0  0  0  0  0  0
   -8.2909    4.5831   -9.0749 C   0  0  0  0  0  0  0  0  0  0  0  0
   -8.5112    3.3968   -9.7625 C   0  0  0  0  0  0  0  0  0  0  0  0
   -8.2878    3.2986  -11.1378 C   0  0  0  0  0  0  0  0  0  0  0  0
   -8.9350    2.3584   -8.7717 C   0  0  0  0  0  0  0  0  0  0  0  0
   -9.2880    3.1062   -7.5334 N   0  0  0  0  0  0  0  0  0  0  0  0
   -8.5440    4.3778   -7.6203 C   0  0  0  0  0  0  0  0  0  0  0  0
   -9.0035    2.5818   -6.7061 H   0  0  0  0  0  0  0  0  0  0  0  0
 13 12  1  0  0  0
 13  1  1  0  0  0
  1  2  2  0  0  0
  2  3  1  0  0  0
  3  4  1  0  0  0
  4  5  2  0  0  0
  5 26  1  0  0  0
 26 35  1  0  0  0
 35 37  1  0  0  0
 37 38  2  0  0  0
 38 39  1  0  0  0
 39 40  2  0  0  0
 40 41  1  0  0  0
 41 42  2  0  0  0
 41 43  1  0  0  0
 43 44  1  0  0  0
 44 45  1  0  0  0
 26 27  1  0  0  0
 27 28  2  0  0  0
 27 29  1  0  0  0
 29 31  1  0  0  0
 31 32  1  0  0  0
 32 33  1  0  0  0
 32 34  1  0  0  0
  5  6  1  0  0  0
  6  7  1  0  0  0
  6  8  2  0  0  0
  8  9  1  0  0  0
  9 10  2  0  0  0
 13 14  1  0  0  0
 14 15  1  0  0  0
 15 16  1  0  0  0
 16 17  1  0  0  0
 17 20  1  0  0  0
 20 21  2  0  0  0
 21 22  1  0  0  0
 22 23  2  0  0  0
 23 24  1  0  0  0
 24 25  2  0  0  0
 17 18  1  0  0  0
 18 19  1  0  0  0
 10  1  1  0  0  0
 19 14  1  0  0  0
 10  4  1  0  0  0
 24 20  1  0  0  0
 42 37  1  0  0  0
 45 40  1  0  0  0
  3 11  1  0  0  0
 35 36  1  0  0  0
 44 46  1  0  0  0
 29 30  1  0  0  0
M  END
> <minimizedAffinity>
-6.75539

> <minimizedRMSD>
1.60077

$$$$
P1162


 35 39  0  0  0  0  0  0  0  0999 V2000
   -8.2498    5.2340  -15.6690 C   0  0  0  0  0  0  0  0  0  0  0  0
   -8.7399    4.4273  -16.6923 C   0  0  0  0  0  0  0  0  0  0  0  0
   -8.0390    4.3511  -17.9000 C   0  0  0  0  0  0  0  0  0  0  0  0
   -6.8081    5.0132  -18.0798 C   0  0  0  0  0  0  0  0  0  0  0  0
   -6.3033    5.8461  -17.0598 C   0  0  0  0  0  0  0  0  0  0  0  0
   -5.1147    6.6297  -16.8416 C   0  0  0  0  0  0  0  0  0  0  0  0
   -5.2718    7.2635  -15.6193 C   0  0  0  0  0  0  0  0  0  0  0  0
   -6.4506    6.8658  -15.0753 N   0  0  0  0  0  0  0  0  0  0  0  0
   -7.0707    5.9606  -15.9039 C   0  0  0  0  0  0  0  0  0  0  0  0
   -6.8088    7.1796  -14.2136 H   0  0  0  0  0  0  0  0  0  0  0  0
   -9.6271    6.2234  -14.1615 O   0  0  0  0  0  0  0  0  0  0  0  0
   -8.8128    5.3988  -14.3076 C   0  0  0  0  0  0  0  0  0  0  0  0
   -8.1212    4.4818  -13.2763 N   0  0  0  0  0  0  0  0  0  0  0  0
   -7.5170    3.8080  -13.6638 H   0  0  0  0  0  0  0  0  0  0  0  0
   -8.2130    4.4523  -11.8843 C   0  0  0  0  0  0  0  0  0  0  0  0
   -7.8048    5.5675  -11.1410 C   0  0  0  0  0  0  0  0  0  0  0  0
   -7.7816    5.5273   -9.7447 C   0  0  0  0  0  0  0  0  0  0  0  0
   -8.2039    4.3805   -9.0829 C   0  0  0  0  0  0  0  0  0  0  0  0
   -8.6412    3.2889   -9.8225 C   0  0  0  0  0  0  0  0  0  0  0  0
   -9.1119    2.2218   -9.1649 F   0  0  0  0  0  0  0  0  0  0  0  0
   -8.6189    3.3003  -11.2177 C   0  0  0  0  0  0  0  0  0  0  0  0
   -3.8640    6.7365  -17.6493 C   0  0  0  0  0  0  0  0  0  0  0  0
   -4.0062    7.2734  -18.9971 N   0  0  0  0  0  0  0  0  0  0  0  0
   -5.1042    8.2140  -19.2265 C   0  0  0  0  0  0  0  0  0  0  0  0
   -5.3492    8.4729  -20.7269 C   0  0  0  0  0  0  0  0  0  0  0  0
   -4.0385    8.3890  -21.5096 C   0  0  0  0  0  0  0  0  0  0  0  0
   -3.3215    7.0544  -21.2715 C   0  0  0  0  0  0  0  0  0  0  0  0
   -3.8577    6.3002  -20.0603 C   0  0  0  0  0  0  0  0  0  0  0  0
   -4.1618    8.6389  -22.9414 N   0  0  0  0  0  0  0  0  0  0  0  0
   -3.1863    9.1771  -23.7054 C   0  0  0  0  0  0  0  0  0  0  0  0
   -3.3241    9.0227  -24.9822 N   0  0  0  0  0  0  0  0  0  0  0  0
   -4.4813    8.3034  -25.0900 N   0  0  0  0  0  0  0  0  0  0  0  0
   -4.9788    7.9819  -23.8302 C   0  0  0  0  0  0  0  0  0  0  0  0
   -5.9134    7.2320  -23.6090 O   0  0  0  0  0  0  0  0  0  0  0  0
   -4.9047    8.0479  -25.9413 H   0  0  0  0  0  0  0  0  0  0  0  0
 11 12  2  0  0  0
 12 13  1  0  0  0
 13 15  1  0  0  0
 15 16  2  0  0  0
 16 17  1  0  0  0
 17 18  2  0  0  0
 18 19  1  0  0  0
 19 20  1  0  0  0
 19 21  2  0  0  0
 12  1  1  0  0  0
  1  2  2  0  0  0
  2  3  1  0  0  0
  3  4  2  0  0  0
  4  5  1  0  0  0
  5  6  1  0  0  0
  6 22  1  0  0  0
 22 23  1  0  0  0
 23 24  1  0  0  0
 24 25  1  0  0  0
 25 26  1  0  0  0
 26 29  1  0  0  0
 29 30  1  0  0  0
 30 31  2  0  0  0
 31 32  1  0  0  0
 32 33  1  0  0  0
 33 34  2  0  0  0
 26 27  1  0  0  0
 27 28  1  0  0  0
  6  7  2  0  0  0
  7  8  1  0  0  0
  8  9  1  0  0  0
 21 15  1  0  0  0
  9  1  1  0  0  0
  9  5  2  0  0  0
 28 23  1  0  0  0
 33 29  1  0  0  0
 13 14  1  0  0  0
 32 35  1  0  0  0
  8 10  1  0  0  0
M  END
> <minimizedAffinity>
-7.53535

> <minimizedRMSD>
0.71734

$$$$
P1172


 39 44  0  0  0  0  0  0  0  0999 V2000
   -4.9255    5.3302  -16.8616 C   0  0  0  0  0  0  0  0  0  0  0  0
   -4.8087    5.8713  -15.5956 C   0  0  0  0  0  0  0  0  0  0  0  0
   -6.0529    5.9152  -15.0414 N   0  0  0  0  0  0  0  0  0  0  0  0
   -6.9770    5.3733  -15.9066 C   0  0  0  0  0  0  0  0  0  0  0  0
   -8.3377    5.1052  -15.6969 C   0  0  0  0  0  0  0  0  0  0  0  0
   -9.0705    4.5965  -16.7717 C   0  0  0  0  0  0  0  0  0  0  0  0
   -8.4509    4.3834  -18.0086 C   0  0  0  0  0  0  0  0  0  0  0  0
   -7.0759    4.6028  -18.1790 C   0  0  0  0  0  0  0  0  0  0  0  0
   -6.3177    5.0869  -17.0947 C   0  0  0  0  0  0  0  0  0  0  0  0
   -6.2609    6.2813  -14.1515 H   0  0  0  0  0  0  0  0  0  0  0  0
   -8.8395    5.3694  -14.3249 C   0  0  0  0  0  0  0  0  0  0  0  0
   -9.5864    6.2591  -14.1948 O   0  0  0  0  0  0  0  0  0  0  0  0
   -8.1829    4.4495  -13.2699 N   0  0  0  0  0  0  0  0  0  0  0  0
   -7.6427    3.7154  -13.6422 H   0  0  0  0  0  0  0  0  0  0  0  0
   -8.2315    4.4905  -11.8713 C   0  0  0  0  0  0  0  0  0  0  0  0
   -7.8296    5.6513  -11.1814 C   0  0  0  0  0  0  0  0  0  0  0  0
   -7.7899    5.6911   -9.7831 C   0  0  0  0  0  0  0  0  0  0  0  0
   -8.1862    4.5654   -9.0900 C   0  0  0  0  0  0  0  0  0  0  0  0
   -8.5933    3.4157   -9.7620 C   0  0  0  0  0  0  0  0  0  0  0  0
   -8.6061    3.3529  -11.1510 C   0  0  0  0  0  0  0  0  0  0  0  0
   -8.9385    2.3699   -8.7514 C   0  0  0  0  0  0  0  0  0  0  0  0
   -9.0610    3.0976   -7.4595 N   0  0  0  0  0  0  0  0  0  0  0  0
   -8.2524    4.3257   -7.6188 C   0  0  0  0  0  0  0  0  0  0  0  0
   -8.6983    2.5289   -6.6943 H   0  0  0  0  0  0  0  0  0  0  0  0
   -3.8154    4.9776  -17.7849 C   0  0  0  0  0  0  0  0  0  0  0  0
   -3.8612    8.8440  -20.0491 C   0  0  0  0  0  0  0  0  0  0  0  0
   -3.8587    7.4535  -20.6992 C   0  0  0  0  0  0  0  0  0  0  0  0
   -4.3593    6.3789  -19.7130 C   0  0  0  0  0  0  0  0  0  0  0  0
   -3.3885    6.0986  -18.6389 N   0  0  0  0  0  0  0  0  0  0  0  0
   -2.0420    5.8024  -19.1468 C   0  0  0  0  0  0  0  0  0  0  0  0
   -1.9326    5.7871  -20.6655 C   0  0  0  0  0  0  0  0  0  0  0  0
   -2.4502    7.1091  -21.2329 C   0  0  0  0  0  0  0  0  0  0  0  0
   -2.3050    7.1271  -22.6862 N   0  0  0  0  0  0  0  0  0  0  0  0
   -1.2066    6.6933  -23.3437 C   0  0  0  0  0  0  0  0  0  0  0  0
   -1.3407    6.5373  -24.6202 N   0  0  0  0  0  0  0  0  0  0  0  0
   -2.6427    6.8842  -24.8427 N   0  0  0  0  0  0  0  0  0  0  0  0
   -3.2805    7.2034  -23.6478 C   0  0  0  0  0  0  0  0  0  0  0  0
   -4.4617    7.4739  -23.5304 O   0  0  0  0  0  0  0  0  0  0  0  0
   -3.0718    6.9056  -25.7284 H   0  0  0  0  0  0  0  0  0  0  0  0
 27 26  1  0  0  0
 27 28  1  0  0  0
 28 29  1  0  0  0
 29 25  1  0  0  0
 25  1  1  0  0  0
  1  2  2  0  0  0
  2  3  1  0  0  0
  3  4  1  0  0  0
  4  5  2  0  0  0
  5 11  1  0  0  0
 11 12  2  0  0  0
 11 13  1  0  0  0
 13 15  1  0  0  0
 15 16  2  0  0  0
 16 17  1  0  0  0
 17 18  2  0  0  0
 18 19  1  0  0  0
 19 20  2  0  0  0
 19 21  1  0  0  0
 21 22  1  0  0  0
 22 23  1  0  0  0
  5  6  1  0  0  0
  6  7  2  0  0  0
  7  8  1  0  0  0
  8  9  2  0  0  0
 29 30  1  0  0  0
 30 31  1  0  0  0
 31 32  1  0  0  0
 32 33  1  0  0  0
 33 34  1  0  0  0
 34 35  2  0  0  0
 35 36  1  0  0  0
 36 37  1  0  0  0
 37 38  2  0  0  0
 32 27  1  0  0  0
 37 33  1  0  0  0
  9  1  1  0  0  0
  9  4  1  0  0  0
 20 15  1  0  0  0
 23 18  1  0  0  0
  3 10  1  0  0  0
 13 14  1  0  0  0
 22 24  1  0  0  0
 36 39  1  0  0  0
M  END
> <minimizedAffinity>
-8.85294

> <minimizedRMSD>
1.27313

$$$$
P1173


 43 49  0  0  0  0  0  0  0  0999 V2000
   -7.9595    4.0197  -19.4930 O   0  0  0  0  0  0  0  0  0  0  0  0
   -8.3886    4.4618  -18.4367 C   0  0  0  0  0  0  0  0  0  0  0  0
   -9.8093    4.4129  -17.9725 C   0  0  0  0  0  0  0  0  0  0  0  0
   -9.6878    4.3942  -16.5092 N   0  0  0  0  0  0  0  0  0  0  0  0
   -8.4482    5.1068  -16.1554 C   0  0  0  0  0  0  0  0  0  0  0  0
   -7.5753    5.1935  -17.4264 C   0  0  0  0  0  0  0  0  0  0  0  0
   -6.1815    4.6485  -17.2814 C   0  0  0  0  0  0  0  0  0  0  0  0
   -5.5261    5.3451  -16.1043 C   0  0  0  0  0  0  0  0  0  0  0  0
   -4.0964    4.8464  -15.8499 C   0  0  0  0  0  0  0  0  0  0  0  0
   -4.0713    4.6413  -14.3347 C   0  0  0  0  0  0  0  0  0  0  0  0
   -5.4243    4.1855  -14.0401 N   0  0  0  0  0  0  0  0  0  0  0  0
   -6.2990    5.0899  -14.7967 C   0  0  0  0  0  0  0  0  0  0  0  0
   -7.7431    4.5312  -14.9111 C   0  0  0  0  0  0  0  0  0  0  0  0
   -9.6422    3.4310  -16.1764 H   0  0  0  0  0  0  0  0  0  0  0  0
   -5.6163    4.2529  -13.0407 H   0  0  0  0  0  0  0  0  0  0  0  0
   -8.4123    5.0312  -13.6020 C   0  0  0  0  0  0  0  0  0  0  0  0
   -9.0339    6.0255  -13.5692 O   0  0  0  0  0  0  0  0  0  0  0  0
   -8.0028    4.0565  -12.4534 N   0  0  0  0  0  0  0  0  0  0  0  0
   -7.5396    3.2403  -12.7508 H   0  0  0  0  0  0  0  0  0  0  0  0
   -8.1869    4.1543  -11.0733 C   0  0  0  0  0  0  0  0  0  0  0  0
   -7.9103    5.3527  -10.3962 C   0  0  0  0  0  0  0  0  0  0  0  0
   -7.9870    5.4261   -8.9974 C   0  0  0  0  0  0  0  0  0  0  0  0
   -8.3961    4.3048   -8.3002 C   0  0  0  0  0  0  0  0  0  0  0  0
   -8.7145    3.1318   -8.9720 C   0  0  0  0  0  0  0  0  0  0  0  0
   -8.5777    3.0276  -10.3504 C   0  0  0  0  0  0  0  0  0  0  0  0
   -9.2047    2.1235   -7.9870 C   0  0  0  0  0  0  0  0  0  0  0  0
   -8.8302    2.6594   -6.6508 N   0  0  0  0  0  0  0  0  0  0  0  0
   -8.6082    4.1095   -6.8366 C   0  0  0  0  0  0  0  0  0  0  0  0
   -7.9775    2.2109   -6.3161 H   0  0  0  0  0  0  0  0  0  0  0  0
   -2.9460    5.7820  -16.2661 C   0  0  0  0  0  0  0  0  0  0  0  0
   -2.6501    6.0267  -17.6828 N   0  0  0  0  0  0  0  0  0  0  0  0
   -3.2698    7.2361  -18.2238 C   0  0  0  0  0  0  0  0  0  0  0  0
   -2.7231    7.5670  -19.6111 C   0  0  0  0  0  0  0  0  0  0  0  0
   -2.9338    6.3762  -20.5470 C   0  0  0  0  0  0  0  0  0  0  0  0
   -2.2609    5.1408  -19.9368 C   0  0  0  0  0  0  0  0  0  0  0  0
   -2.8060    4.8541  -18.5387 C   0  0  0  0  0  0  0  0  0  0  0  0
   -2.4823    6.6675  -21.9028 N   0  0  0  0  0  0  0  0  0  0  0  0
   -1.2321    6.6967  -22.4023 C   0  0  0  0  0  0  0  0  0  0  0  0
   -1.1222    7.1589  -23.6071 N   0  0  0  0  0  0  0  0  0  0  0  0
   -2.4058    7.4975  -23.9354 N   0  0  0  0  0  0  0  0  0  0  0  0
   -3.2559    7.2888  -22.8545 C   0  0  0  0  0  0  0  0  0  0  0  0
   -4.4120    7.6657  -22.7684 O   0  0  0  0  0  0  0  0  0  0  0  0
   -2.6885    7.8409  -24.8137 H   0  0  0  0  0  0  0  0  0  0  0  0
  1  2  2  0  0  0
  2  3  1  0  0  0
  3  4  1  0  0  0
  5  4  1  0  0  0
  5  6  1  0  0  0
  6  7  1  0  0  0
  8  7  1  0  0  0
  8  9  1  0  0  0
  9 30  1  0  0  0
 30 31  1  0  0  0
 31 32  1  0  0  0
 32 33  1  0  0  0
 33 34  1  0  0  0
 34 37  1  0  0  0
 37 38  1  0  0  0
 38 39  2  0  0  0
 39 40  1  0  0  0
 40 41  1  0  0  0
 41 42  2  0  0  0
 34 35  1  0  0  0
 35 36  1  0  0  0
  9 10  1  0  0  0
 10 11  1  0  0  0
 12 11  1  0  0  0
 12 13  1  0  0  0
 13 16  1  0  0  0
 16 17  2  0  0  0
 16 18  1  0  0  0
 18 20  1  0  0  0
 20 21  2  0  0  0
 21 22  1  0  0  0
 22 23  2  0  0  0
 23 24  1  0  0  0
 24 25  2  0  0  0
 24 26  1  0  0  0
 26 27  1  0  0  0
 27 28  1  0  0  0
  6  2  1  0  0  0
 12  8  1  0  0  0
 25 20  1  0  0  0
 13  5  1  0  0  0
 28 23  1  0  0  0
 36 31  1  0  0  0
 41 37  1  0  0  0
  4 14  1  0  0  0
 40 43  1  0  0  0
 11 15  1  0  0  0
 18 19  1  0  0  0
 27 29  1  0  0  0
M  END
> <minimizedAffinity>
-9.16773

> <minimizedRMSD>
1.29907

$$$$
P1174


 43 49  0  0  0  0  0  0  0  0999 V2000
   -7.8303    3.4707  -19.6615 O   0  0  0  0  0  0  0  0  0  0  0  0
   -8.3080    3.8271  -18.5951 C   0  0  0  0  0  0  0  0  0  0  0  0
   -9.6805    3.4851  -18.0335 C   0  0  0  0  0  0  0  0  0  0  0  0
   -9.5603    3.7832  -16.5646 N   0  0  0  0  0  0  0  0  0  0  0  0
   -8.1181    3.9394  -16.3359 C   0  0  0  0  0  0  0  0  0  0  0  0
   -7.6084    4.6616  -17.5800 C   0  0  0  0  0  0  0  0  0  0  0  0
   -6.1221    4.7736  -17.6192 C   0  0  0  0  0  0  0  0  0  0  0  0
   -5.6767    5.6511  -16.4552 C   0  0  0  0  0  0  0  0  0  0  0  0
   -4.2163    5.4071  -16.0597 C   0  0  0  0  0  0  0  0  0  0  0  0
   -4.2928    5.1674  -14.5491 C   0  0  0  0  0  0  0  0  0  0  0  0
   -5.5332    5.7901  -14.1139 N   0  0  0  0  0  0  0  0  0  0  0  0
   -6.5231    5.5582  -15.1701 C   0  0  0  0  0  0  0  0  0  0  0  0
   -7.4525    4.3341  -14.9995 C   0  0  0  0  0  0  0  0  0  0  0  0
   -9.9318    3.0127  -16.0091 H   0  0  0  0  0  0  0  0  0  0  0  0
   -5.3938    6.7914  -13.9784 H   0  0  0  0  0  0  0  0  0  0  0  0
   -8.3750    4.6299  -13.7876 C   0  0  0  0  0  0  0  0  0  0  0  0
   -9.2462    5.4152  -13.8520 O   0  0  0  0  0  0  0  0  0  0  0  0
   -7.8420    3.8000  -12.5647 N   0  0  0  0  0  0  0  0  0  0  0  0
   -7.1428    3.1430  -12.7852 H   0  0  0  0  0  0  0  0  0  0  0  0
   -8.2003    3.8436  -11.2126 C   0  0  0  0  0  0  0  0  0  0  0  0
   -8.1122    5.0614  -10.5153 C   0  0  0  0  0  0  0  0  0  0  0  0
   -8.2350    5.1046   -9.1184 C   0  0  0  0  0  0  0  0  0  0  0  0
   -8.5251    3.9320   -8.4441 C   0  0  0  0  0  0  0  0  0  0  0  0
   -8.6928    2.7402   -9.1368 C   0  0  0  0  0  0  0  0  0  0  0  0
   -8.4852    2.6673  -10.5116 C   0  0  0  0  0  0  0  0  0  0  0  0
   -9.1258    1.6754   -8.1827 C   0  0  0  0  0  0  0  0  0  0  0  0
   -8.9465    2.2467   -6.8199 N   0  0  0  0  0  0  0  0  0  0  0  0
   -8.7265    3.6981   -6.9859 C   0  0  0  0  0  0  0  0  0  0  0  0
   -8.1398    1.8199   -6.3644 H   0  0  0  0  0  0  0  0  0  0  0  0
   -3.2606    6.5749  -16.4062 C   0  0  0  0  0  0  0  0  0  0  0  0
   -2.9095    6.8480  -17.8150 N   0  0  0  0  0  0  0  0  0  0  0  0
   -3.7866    7.8187  -18.4660 C   0  0  0  0  0  0  0  0  0  0  0  0
   -3.2671    8.2194  -19.8409 C   0  0  0  0  0  0  0  0  0  0  0  0
   -3.1278    6.9690  -20.7092 C   0  0  0  0  0  0  0  0  0  0  0  0
   -2.1552    5.9986  -20.0306 C   0  0  0  0  0  0  0  0  0  0  0  0
   -2.6249    5.6535  -18.6133 C   0  0  0  0  0  0  0  0  0  0  0  0
   -2.7595    7.3163  -22.0750 N   0  0  0  0  0  0  0  0  0  0  0  0
   -2.3485    8.5012  -22.5668 C   0  0  0  0  0  0  0  0  0  0  0  0
   -2.3076    8.5826  -23.8594 N   0  0  0  0  0  0  0  0  0  0  0  0
   -2.7558    7.3578  -24.2716 N   0  0  0  0  0  0  0  0  0  0  0  0
   -3.1312    6.5860  -23.1781 C   0  0  0  0  0  0  0  0  0  0  0  0
   -3.7291    5.5237  -23.2188 O   0  0  0  0  0  0  0  0  0  0  0  0
   -2.8056    7.0643  -25.2100 H   0  0  0  0  0  0  0  0  0  0  0  0
  1  2  2  0  0  0
  2  3  1  0  0  0
  3  4  1  0  0  0
  5  4  1  0  0  0
  5  6  1  0  0  0
  6  7  1  0  0  0
  8  7  1  0  0  0
  8  9  1  0  0  0
  9 30  1  0  0  0
 30 31  1  0  0  0
 31 32  1  0  0  0
 32 33  1  0  0  0
 33 34  1  0  0  0
 34 37  1  0  0  0
 37 38  1  0  0  0
 38 39  2  0  0  0
 39 40  1  0  0  0
 40 41  1  0  0  0
 41 42  2  0  0  0
 34 35  1  0  0  0
 35 36  1  0  0  0
  9 10  1  0  0  0
 10 11  1  0  0  0
 12 11  1  0  0  0
 12 13  1  0  0  0
 13 16  1  0  0  0
 16 17  2  0  0  0
 16 18  1  0  0  0
 18 20  1  0  0  0
 20 21  2  0  0  0
 21 22  1  0  0  0
 22 23  2  0  0  0
 23 24  1  0  0  0
 24 25  2  0  0  0
 24 26  1  0  0  0
 26 27  1  0  0  0
 27 28  1  0  0  0
  6  2  1  0  0  0
 12  8  1  0  0  0
 25 20  1  0  0  0
 13  5  1  0  0  0
 28 23  1  0  0  0
 36 31  1  0  0  0
 41 37  1  0  0  0
  4 14  1  0  0  0
 40 43  1  0  0  0
 11 15  1  0  0  0
 18 19  1  0  0  0
 27 29  1  0  0  0
M  END
> <minimizedAffinity>
-10.38024

> <minimizedRMSD>
0.97188

$$$$
P1179


 42 47  0  0  0  0  0  0  0  0999 V2000
   -7.1789    4.7919  -16.1749 C   0  0  0  0  0  0  0  0  0  0  0  0
   -7.8691    4.5299  -17.3526 C   0  0  0  0  0  0  0  0  0  0  0  0
   -9.5347    4.1679  -17.4212 Cl  0  0  0  0  0  0  0  0  0  0  0  0
   -7.1971    4.5715  -18.5717 C   0  0  0  0  0  0  0  0  0  0  0  0
   -5.8382    4.9006  -18.6479 C   0  0  0  0  0  0  0  0  0  0  0  0
   -5.1505    5.3229  -17.4969 C   0  0  0  0  0  0  0  0  0  0  0  0
   -3.8419    5.8431  -17.2036 C   0  0  0  0  0  0  0  0  0  0  0  0
   -3.8040    6.0751  -15.8389 C   0  0  0  0  0  0  0  0  0  0  0  0
   -4.9999    5.7145  -15.3051 N   0  0  0  0  0  0  0  0  0  0  0  0
   -5.8432    5.2496  -16.2928 C   0  0  0  0  0  0  0  0  0  0  0  0
   -5.2316    5.7761  -14.3502 H   0  0  0  0  0  0  0  0  0  0  0  0
   -6.7815    3.8534  -13.9338 N   0  0  0  0  0  0  0  0  0  0  0  0
   -7.6456    4.8262  -14.7680 C   0  0  0  0  0  0  0  0  0  0  0  0
   -8.4839    5.5648  -14.4374 O   0  0  0  0  0  0  0  0  0  0  0  0
   -6.1872    3.2731  -14.4624 H   0  0  0  0  0  0  0  0  0  0  0  0
   -7.6462    2.9986  -10.4385 C   0  0  0  0  0  0  0  0  0  0  0  0
   -6.3681    2.6195  -10.0042 C   0  0  0  0  0  0  0  0  0  0  0  0
   -5.2559    2.9286  -10.7782 C   0  0  0  0  0  0  0  0  0  0  0  0
   -5.4246    3.5136  -12.0290 C   0  0  0  0  0  0  0  0  0  0  0  0
   -6.7072    3.6652  -12.5634 C   0  0  0  0  0  0  0  0  0  0  0  0
   -7.8226    3.3961  -11.7811 C   0  0  0  0  0  0  0  0  0  0  0  0
   -9.5332    4.7345   -6.1491 C   0  0  0  0  0  0  0  0  0  0  0  0
   -8.3263    3.9665   -6.4459 N   0  0  0  0  0  0  0  0  0  0  0  0
   -8.5712    2.6218   -6.9527 C   0  0  0  0  0  0  0  0  0  0  0  0
   -9.2088    2.4803   -8.3477 C   0  0  0  0  0  0  0  0  0  0  0  0
   -8.6989    3.4117   -9.4167 C   0  0  0  0  0  0  0  0  0  0  0  0
   -8.2186    4.6946   -8.7823 C   0  0  0  0  0  0  0  0  0  0  0  0
   -7.4993    4.6185   -7.4319 C   0  0  0  0  0  0  0  0  0  0  0  0
   -2.6713    6.0853  -18.1018 C   0  0  0  0  0  0  0  0  0  0  0  0
   -2.9192    6.9062  -19.2850 N   0  0  0  0  0  0  0  0  0  0  0  0
   -3.8733    8.0071  -19.1347 C   0  0  0  0  0  0  0  0  0  0  0  0
   -4.3681    8.5525  -20.4906 C   0  0  0  0  0  0  0  0  0  0  0  0
   -3.2646    8.4775  -21.5497 C   0  0  0  0  0  0  0  0  0  0  0  0
   -2.6674    7.0691  -21.6656 C   0  0  0  0  0  0  0  0  0  0  0  0
   -3.0935    6.1678  -20.5192 C   0  0  0  0  0  0  0  0  0  0  0  0
   -3.6471    8.9587  -22.8724 N   0  0  0  0  0  0  0  0  0  0  0  0
   -2.8301    9.6716  -23.6789 C   0  0  0  0  0  0  0  0  0  0  0  0
   -3.1727    9.7185  -24.9249 N   0  0  0  0  0  0  0  0  0  0  0  0
   -4.3079    8.9590  -24.9690 N   0  0  0  0  0  0  0  0  0  0  0  0
   -4.5787    8.4080  -23.7199 C   0  0  0  0  0  0  0  0  0  0  0  0
   -5.4399    7.5791  -23.4843 O   0  0  0  0  0  0  0  0  0  0  0  0
   -4.8584    8.8206  -25.7735 H   0  0  0  0  0  0  0  0  0  0  0  0
 22 23  1  0  0  0
 23 24  1  0  0  0
 24 25  1  0  0  0
 25 26  1  0  0  0
 26 16  1  0  0  0
 16 17  2  0  0  0
 17 18  1  0  0  0
 18 19  2  0  0  0
 19 20  1  0  0  0
 20 12  1  0  0  0
 12 13  1  0  0  0
 13 14  2  0  0  0
 13  1  1  0  0  0
  1  2  2  0  0  0
  2  3  1  0  0  0
  2  4  1  0  0  0
  4  5  2  0  0  0
  5  6  1  0  0  0
  6  7  1  0  0  0
  7 29  1  0  0  0
 29 30  1  0  0  0
 30 31  1  0  0  0
 31 32  1  0  0  0
 32 33  1  0  0  0
 33 36  1  0  0  0
 36 37  1  0  0  0
 37 38  2  0  0  0
 38 39  1  0  0  0
 39 40  1  0  0  0
 40 41  2  0  0  0
 33 34  1  0  0  0
 34 35  1  0  0  0
  7  8  2  0  0  0
  8  9  1  0  0  0
  9 10  1  0  0  0
 20 21  2  0  0  0
 26 27  1  0  0  0
 27 28  1  0  0  0
 28 23  1  0  0  0
 21 16  1  0  0  0
 10  1  1  0  0  0
 10  6  2  0  0  0
 35 30  1  0  0  0
 40 36  1  0  0  0
 12 15  1  0  0  0
 39 42  1  0  0  0
  9 11  1  0  0  0
M  END
> <minimizedAffinity>
-7.96619

> <minimizedRMSD>
1.32684

$$$$
P1180


 42 47  0  0  0  0  0  0  0  0999 V2000
   -7.5636    4.8670  -16.0872 C   0  0  0  0  0  0  0  0  0  0  0  0
   -8.1623    4.4108  -17.2679 C   0  0  0  0  0  0  0  0  0  0  0  0
   -9.7144    3.7049  -17.3541 Cl  0  0  0  0  0  0  0  0  0  0  0  0
   -7.5064    4.5280  -18.4890 C   0  0  0  0  0  0  0  0  0  0  0  0
   -6.2596    5.1404  -18.5746 C   0  0  0  0  0  0  0  0  0  0  0  0
   -5.7167    5.7880  -17.4532 C   0  0  0  0  0  0  0  0  0  0  0  0
   -4.5696    6.6189  -17.2139 C   0  0  0  0  0  0  0  0  0  0  0  0
   -4.5997    6.9372  -15.8650 C   0  0  0  0  0  0  0  0  0  0  0  0
   -5.6623    6.3102  -15.2864 N   0  0  0  0  0  0  0  0  0  0  0  0
   -6.3804    5.6213  -16.2355 C   0  0  0  0  0  0  0  0  0  0  0  0
   -5.8838    6.3454  -14.3277 H   0  0  0  0  0  0  0  0  0  0  0  0
   -9.0622    5.3987  -14.4185 O   0  0  0  0  0  0  0  0  0  0  0  0
   -8.1173    4.7663  -14.7040 C   0  0  0  0  0  0  0  0  0  0  0  0
   -7.2090    3.8488  -13.8226 N   0  0  0  0  0  0  0  0  0  0  0  0
   -6.5130    3.3594  -14.3179 H   0  0  0  0  0  0  0  0  0  0  0  0
   -7.2247    3.6097  -12.4401 C   0  0  0  0  0  0  0  0  0  0  0  0
   -8.3875    3.9787  -11.7490 C   0  0  0  0  0  0  0  0  0  0  0  0
   -8.5264    3.7571  -10.3795 C   0  0  0  0  0  0  0  0  0  0  0  0
   -7.5724    3.0184   -9.7184 C   0  0  0  0  0  0  0  0  0  0  0  0
   -7.7474    2.6923   -8.4298 F   0  0  0  0  0  0  0  0  0  0  0  0
   -6.4006    2.6706  -10.3667 C   0  0  0  0  0  0  0  0  0  0  0  0
   -6.1343    3.0893  -11.6963 C   0  0  0  0  0  0  0  0  0  0  0  0
   -4.7488    3.0783  -12.1053 N   0  0  0  0  0  0  0  0  0  0  0  0
   -3.8887    1.9861  -11.6742 C   0  0  0  0  0  0  0  0  0  0  0  0
   -2.4928    2.3234  -12.1300 C   0  0  0  0  0  0  0  0  0  0  0  0
   -2.5143    3.8226  -12.3134 C   0  0  0  0  0  0  0  0  0  0  0  0
   -3.9721    4.1693  -12.5028 C   0  0  0  0  0  0  0  0  0  0  0  0
   -4.3278    5.2842  -12.8604 O   0  0  0  0  0  0  0  0  0  0  0  0
   -3.4691    7.0468  -18.1376 C   0  0  0  0  0  0  0  0  0  0  0  0
   -3.8491    7.6215  -19.4279 N   0  0  0  0  0  0  0  0  0  0  0  0
   -5.0338    8.4773  -19.4507 C   0  0  0  0  0  0  0  0  0  0  0  0
   -5.5432    8.7421  -20.8831 C   0  0  0  0  0  0  0  0  0  0  0  0
   -4.3817    8.8193  -21.8798 C   0  0  0  0  0  0  0  0  0  0  0  0
   -3.4701    7.5853  -21.8045 C   0  0  0  0  0  0  0  0  0  0  0  0
   -3.7487    6.7393  -20.5721 C   0  0  0  0  0  0  0  0  0  0  0  0
   -4.7699    9.0663  -23.2659 N   0  0  0  0  0  0  0  0  0  0  0  0
   -4.1223    9.9197  -24.0900 C   0  0  0  0  0  0  0  0  0  0  0  0
   -4.3797    9.7878  -25.3506 N   0  0  0  0  0  0  0  0  0  0  0  0
   -5.2641    8.7471  -25.3837 N   0  0  0  0  0  0  0  0  0  0  0  0
   -5.4689    8.2338  -24.1062 C   0  0  0  0  0  0  0  0  0  0  0  0
   -6.1138    7.2345  -23.8435 O   0  0  0  0  0  0  0  0  0  0  0  0
   -5.6974    8.4068  -26.1996 H   0  0  0  0  0  0  0  0  0  0  0  0
 12 13  2  0  0  0
 13 14  1  0  0  0
 14 16  1  0  0  0
 16 17  2  0  0  0
 17 18  1  0  0  0
 18 19  2  0  0  0
 19 20  1  0  0  0
 19 21  1  0  0  0
 21 22  2  0  0  0
 22 23  1  0  0  0
 23 24  1  0  0  0
 24 25  1  0  0  0
 25 26  1  0  0  0
 26 27  1  0  0  0
 27 28  2  0  0  0
 13  1  1  0  0  0
  1  2  2  0  0  0
  2  3  1  0  0  0
  2  4  1  0  0  0
  4  5  2  0  0  0
  5  6  1  0  0  0
  6  7  1  0  0  0
  7 29  1  0  0  0
 29 30  1  0  0  0
 30 31  1  0  0  0
 31 32  1  0  0  0
 32 33  1  0  0  0
 33 36  1  0  0  0
 36 37  1  0  0  0
 37 38  2  0  0  0
 38 39  1  0  0  0
 39 40  1  0  0  0
 40 41  2  0  0  0
 33 34  1  0  0  0
 34 35  1  0  0  0
  7  8  2  0  0  0
  8  9  1  0  0  0
  9 10  1  0  0  0
 22 16  1  0  0  0
 27 23  1  0  0  0
 10  1  1  0  0  0
 10  6  2  0  0  0
 35 30  1  0  0  0
 40 36  1  0  0  0
 14 15  1  0  0  0
 39 42  1  0  0  0
  9 11  1  0  0  0
M  END
> <minimizedAffinity>
-7.45132

> <minimizedRMSD>
1.33124

$$$$
P1183


 39 44  0  0  0  0  0  0  0  0999 V2000
   -7.9792    4.8768  -15.9148 C   0  0  0  0  0  0  0  0  0  0  0  0
   -8.5663    4.6326  -17.1618 C   0  0  0  0  0  0  0  0  0  0  0  0
  -10.2481    4.4955  -17.4162 Cl  0  0  0  0  0  0  0  0  0  0  0  0
   -7.7872    4.5373  -18.3185 C   0  0  0  0  0  0  0  0  0  0  0  0
   -6.4065    4.7399  -18.2832 C   0  0  0  0  0  0  0  0  0  0  0  0
   -5.7856    5.0995  -17.0733 C   0  0  0  0  0  0  0  0  0  0  0  0
   -4.4567    5.5006  -16.6872 C   0  0  0  0  0  0  0  0  0  0  0  0
   -4.5181    5.7670  -15.3284 C   0  0  0  0  0  0  0  0  0  0  0  0
   -5.7856    5.5492  -14.8865 N   0  0  0  0  0  0  0  0  0  0  0  0
   -6.5891    5.1431  -15.9285 C   0  0  0  0  0  0  0  0  0  0  0  0
   -6.0854    5.6651  -13.9560 H   0  0  0  0  0  0  0  0  0  0  0  0
   -9.4644    5.9991  -14.5848 O   0  0  0  0  0  0  0  0  0  0  0  0
   -8.6307    5.1776  -14.5997 C   0  0  0  0  0  0  0  0  0  0  0  0
   -7.9812    4.3780  -13.4312 N   0  0  0  0  0  0  0  0  0  0  0  0
   -7.3474    3.6790  -13.7121 H   0  0  0  0  0  0  0  0  0  0  0  0
   -8.1533    4.4926  -12.0402 C   0  0  0  0  0  0  0  0  0  0  0  0
   -7.8696    5.7141  -11.4281 C   0  0  0  0  0  0  0  0  0  0  0  0
   -7.8343    5.8292  -10.0303 C   0  0  0  0  0  0  0  0  0  0  0  0
   -8.1662    4.7466   -9.2077 C   0  0  0  0  0  0  0  0  0  0  0  0
   -8.5029    3.5275   -9.8065 C   0  0  0  0  0  0  0  0  0  0  0  0
   -8.4471    3.3965  -11.2222 C   0  0  0  0  0  0  0  0  0  0  0  0
   -8.9937    2.3773   -8.9579 C   0  0  0  0  0  0  0  0  0  0  0  0
   -8.9176    2.5336   -7.4396 C   0  0  0  0  0  0  0  0  0  0  0  0
   -9.0695    3.9632   -6.9700 C   0  0  0  0  0  0  0  0  0  0  0  0
   -8.1073    4.8864   -7.7068 C   0  0  0  0  0  0  0  0  0  0  0  0
   -3.1721    5.6166  -17.4582 C   0  0  0  0  0  0  0  0  0  0  0  0
   -3.1194    6.5618  -18.5700 N   0  0  0  0  0  0  0  0  0  0  0  0
   -3.8525    7.8122  -18.4400 C   0  0  0  0  0  0  0  0  0  0  0  0
   -3.3536    8.8715  -19.4404 C   0  0  0  0  0  0  0  0  0  0  0  0
   -2.8189    8.2555  -20.7388 C   0  0  0  0  0  0  0  0  0  0  0  0
   -3.4651    6.9027  -21.0006 C   0  0  0  0  0  0  0  0  0  0  0  0
   -3.1582    5.9238  -19.8757 C   0  0  0  0  0  0  0  0  0  0  0  0
   -2.9102    9.1149  -21.9146 N   0  0  0  0  0  0  0  0  0  0  0  0
   -1.9442    9.2467  -22.8496 C   0  0  0  0  0  0  0  0  0  0  0  0
   -2.3023    9.8260  -23.9493 N   0  0  0  0  0  0  0  0  0  0  0  0
   -3.6266   10.0954  -23.7460 N   0  0  0  0  0  0  0  0  0  0  0  0
   -4.0454    9.6048  -22.5123 C   0  0  0  0  0  0  0  0  0  0  0  0
   -5.1925    9.6030  -22.1025 O   0  0  0  0  0  0  0  0  0  0  0  0
   -4.2053   10.5713  -24.3847 H   0  0  0  0  0  0  0  0  0  0  0  0
 12 13  2  0  0  0
 13 14  1  0  0  0
 14 16  1  0  0  0
 16 17  2  0  0  0
 17 18  1  0  0  0
 18 19  2  0  0  0
 19 20  1  0  0  0
 20 21  2  0  0  0
 20 22  1  0  0  0
 22 23  1  0  0  0
 23 24  1  0  0  0
 24 25  1  0  0  0
 13  1  1  0  0  0
  1  2  2  0  0  0
  2  3  1  0  0  0
  2  4  1  0  0  0
  4  5  2  0  0  0
  5  6  1  0  0  0
  6  7  1  0  0  0
  7 26  1  0  0  0
 26 27  1  0  0  0
 27 28  1  0  0  0
 28 29  1  0  0  0
 29 30  1  0  0  0
 30 33  1  0  0  0
 33 34  1  0  0  0
 34 35  2  0  0  0
 35 36  1  0  0  0
 36 37  1  0  0  0
 37 38  2  0  0  0
 30 31  1  0  0  0
 31 32  1  0  0  0
  7  8  2  0  0  0
  8  9  1  0  0  0
  9 10  1  0  0  0
 21 16  1  0  0  0
 10  1  1  0  0  0
 25 19  1  0  0  0
 10  6  2  0  0  0
 32 27  1  0  0  0
 37 33  1  0  0  0
 14 15  1  0  0  0
 36 39  1  0  0  0
  9 11  1  0  0  0
M  END
> <minimizedAffinity>
-8.39168

> <minimizedRMSD>
0.91826

$$$$
P1184


 39 44  0  0  0  0  0  0  0  0999 V2000
   -7.9217    4.9280  -15.7488 C   0  0  0  0  0  0  0  0  0  0  0  0
   -8.4577    4.6895  -17.0162 C   0  0  0  0  0  0  0  0  0  0  0  0
  -10.1300    4.5534  -17.3353 Cl  0  0  0  0  0  0  0  0  0  0  0  0
   -7.6243    4.5928  -18.1313 C   0  0  0  0  0  0  0  0  0  0  0  0
   -6.2428    4.7778  -18.0260 C   0  0  0  0  0  0  0  0  0  0  0  0
   -5.6719    5.1267  -16.7878 C   0  0  0  0  0  0  0  0  0  0  0  0
   -4.3562    5.4942  -16.3282 C   0  0  0  0  0  0  0  0  0  0  0  0
   -4.4863    5.7698  -14.9758 C   0  0  0  0  0  0  0  0  0  0  0  0
   -5.7787    5.5746  -14.6024 N   0  0  0  0  0  0  0  0  0  0  0  0
   -6.5314    5.1837  -15.6873 C   0  0  0  0  0  0  0  0  0  0  0  0
   -6.1261    5.6953  -13.6891 H   0  0  0  0  0  0  0  0  0  0  0  0
   -7.9848    4.3638  -13.3055 N   0  0  0  0  0  0  0  0  0  0  0  0
   -8.6281    5.1817  -14.4594 C   0  0  0  0  0  0  0  0  0  0  0  0
   -9.4858    5.9758  -14.4383 O   0  0  0  0  0  0  0  0  0  0  0  0
   -7.3230    3.6944  -13.5937 H   0  0  0  0  0  0  0  0  0  0  0  0
   -9.9286    2.9307   -6.5814 C   0  0  0  0  0  0  0  0  0  0  0  0
   -8.7506    3.0237   -7.4285 N   0  0  0  0  0  0  0  0  0  0  0  0
   -8.3274    4.4136   -7.6575 C   0  0  0  0  0  0  0  0  0  0  0  0
   -8.2460    4.5882   -9.1388 C   0  0  0  0  0  0  0  0  0  0  0  0
   -7.9235    5.7189   -9.8644 C   0  0  0  0  0  0  0  0  0  0  0  0
   -7.9340    5.6393  -11.2628 C   0  0  0  0  0  0  0  0  0  0  0  0
   -8.1934    4.4243  -11.9227 C   0  0  0  0  0  0  0  0  0  0  0  0
   -8.4875    3.2825  -11.1705 C   0  0  0  0  0  0  0  0  0  0  0  0
   -8.5575    3.3960   -9.7807 C   0  0  0  0  0  0  0  0  0  0  0  0
   -8.9596    2.3811   -8.7514 C   0  0  0  0  0  0  0  0  0  0  0  0
   -3.0230    5.5549  -17.0179 C   0  0  0  0  0  0  0  0  0  0  0  0
   -2.9381    6.1830  -18.3374 N   0  0  0  0  0  0  0  0  0  0  0  0
   -3.7279    7.3939  -18.5459 C   0  0  0  0  0  0  0  0  0  0  0  0
   -3.4198    8.0692  -19.8898 C   0  0  0  0  0  0  0  0  0  0  0  0
   -3.5228    7.0494  -21.0255 C   0  0  0  0  0  0  0  0  0  0  0  0
   -2.5490    5.9096  -20.7329 C   0  0  0  0  0  0  0  0  0  0  0  0
   -2.9190    5.2225  -19.4287 C   0  0  0  0  0  0  0  0  0  0  0  0
   -3.2936    7.6360  -22.3386 N   0  0  0  0  0  0  0  0  0  0  0  0
   -2.1989    8.2523  -22.8234 C   0  0  0  0  0  0  0  0  0  0  0  0
   -2.3134    8.7274  -24.0226 N   0  0  0  0  0  0  0  0  0  0  0  0
   -3.6043    8.4273  -24.3609 N   0  0  0  0  0  0  0  0  0  0  0  0
   -4.2569    7.8075  -23.3007 C   0  0  0  0  0  0  0  0  0  0  0  0
   -5.4425    7.5320  -23.2472 O   0  0  0  0  0  0  0  0  0  0  0  0
   -4.0146    8.6229  -25.2341 H   0  0  0  0  0  0  0  0  0  0  0  0
 16 17  1  0  0  0
 17 18  1  0  0  0
 18 19  1  0  0  0
 19 20  2  0  0  0
 20 21  1  0  0  0
 21 22  2  0  0  0
 22 12  1  0  0  0
 12 13  1  0  0  0
 13 14  2  0  0  0
 13  1  1  0  0  0
  1  2  2  0  0  0
  2  3  1  0  0  0
  2  4  1  0  0  0
  4  5  2  0  0  0
  5  6  1  0  0  0
  6  7  1  0  0  0
  7 26  1  0  0  0
 26 27  1  0  0  0
 27 28  1  0  0  0
 28 29  1  0  0  0
 29 30  1  0  0  0
 30 33  1  0  0  0
 33 34  1  0  0  0
 34 35  2  0  0  0
 35 36  1  0  0  0
 36 37  1  0  0  0
 37 38  2  0  0  0
 30 31  1  0  0  0
 31 32  1  0  0  0
  7  8  2  0  0  0
  8  9  1  0  0  0
  9 10  1  0  0  0
 22 23  1  0  0  0
 23 24  2  0  0  0
 24 25  1  0  0  0
 25 17  1  0  0  0
 24 19  1  0  0  0
 10  1  1  0  0  0
 10  6  2  0  0  0
 32 27  1  0  0  0
 37 33  1  0  0  0
 12 15  1  0  0  0
 36 39  1  0  0  0
  9 11  1  0  0  0
M  END
> <minimizedAffinity>
-8.75873

> <minimizedRMSD>
0.70889

$$$$
P1186


 41 46  0  0  0  0  0  0  0  0999 V2000
   -7.8297    5.0784  -15.9886 C   0  0  0  0  0  0  0  0  0  0  0  0
   -8.3032    4.5128  -17.1748 C   0  0  0  0  0  0  0  0  0  0  0  0
   -9.8735    3.8667  -17.3595 Cl  0  0  0  0  0  0  0  0  0  0  0  0
   -7.5001    4.4836  -18.3140 C   0  0  0  0  0  0  0  0  0  0  0  0
   -6.2221    5.0501  -18.3149 C   0  0  0  0  0  0  0  0  0  0  0  0
   -5.7443    5.7187  -17.1714 C   0  0  0  0  0  0  0  0  0  0  0  0
   -4.5645    6.4759  -16.8368 C   0  0  0  0  0  0  0  0  0  0  0  0
   -4.7456    6.9108  -15.5326 C   0  0  0  0  0  0  0  0  0  0  0  0
   -5.9350    6.4467  -15.0675 N   0  0  0  0  0  0  0  0  0  0  0  0
   -6.5684    5.7110  -16.0425 C   0  0  0  0  0  0  0  0  0  0  0  0
   -6.2915    6.6127  -14.1649 H   0  0  0  0  0  0  0  0  0  0  0  0
   -9.5079    5.9208  -14.6558 O   0  0  0  0  0  0  0  0  0  0  0  0
   -8.5501    5.2510  -14.6937 C   0  0  0  0  0  0  0  0  0  0  0  0
   -7.7769    4.5339  -13.5519 N   0  0  0  0  0  0  0  0  0  0  0  0
   -7.0359    3.9600  -13.8530 H   0  0  0  0  0  0  0  0  0  0  0  0
   -7.9632    4.5716  -12.1647 C   0  0  0  0  0  0  0  0  0  0  0  0
   -7.8874    5.7695  -11.4686 C   0  0  0  0  0  0  0  0  0  0  0  0
   -8.0387    5.7976  -10.0700 C   0  0  0  0  0  0  0  0  0  0  0  0
   -8.3227    4.6409   -9.3213 C   0  0  0  0  0  0  0  0  0  0  0  0
   -8.3512    3.4334  -10.0372 C   0  0  0  0  0  0  0  0  0  0  0  0
   -8.1403    3.4028  -11.4287 C   0  0  0  0  0  0  0  0  0  0  0  0
   -8.1405    2.2229  -12.0709 F   0  0  0  0  0  0  0  0  0  0  0  0
   -8.8005    4.7330   -7.8704 C   0  0  0  0  0  0  0  0  0  0  0  0
   -8.2662    5.9056   -7.0513 C   0  0  0  0  0  0  0  0  0  0  0  0
   -7.0957    5.2905   -6.3299 C   0  0  0  0  0  0  0  0  0  0  0  0
   -7.5509    4.0005   -5.9377 O   0  0  0  0  0  0  0  0  0  0  0  0
   -8.5314    3.5699   -6.9086 C   0  0  0  0  0  0  0  0  0  0  0  0
   -3.2984    6.7709  -17.5900 C   0  0  0  0  0  0  0  0  0  0  0  0
   -3.3906    7.2440  -18.9707 N   0  0  0  0  0  0  0  0  0  0  0  0
   -4.4478    8.2056  -19.2689 C   0  0  0  0  0  0  0  0  0  0  0  0
   -4.3348    8.7774  -20.6880 C   0  0  0  0  0  0  0  0  0  0  0  0
   -4.2141    7.6405  -21.7044 C   0  0  0  0  0  0  0  0  0  0  0  0
   -2.9908    6.8016  -21.3400 C   0  0  0  0  0  0  0  0  0  0  0  0
   -3.1564    6.1994  -19.9541 C   0  0  0  0  0  0  0  0  0  0  0  0
   -4.1581    8.1166  -23.0794 N   0  0  0  0  0  0  0  0  0  0  0  0
   -3.3586    9.0488  -23.6319 C   0  0  0  0  0  0  0  0  0  0  0  0
   -3.5934    9.3156  -24.8770 N   0  0  0  0  0  0  0  0  0  0  0  0
   -4.6593    8.5130  -25.1782 N   0  0  0  0  0  0  0  0  0  0  0  0
   -5.0748    7.8089  -24.0531 C   0  0  0  0  0  0  0  0  0  0  0  0
   -6.0731    7.1158  -23.9651 O   0  0  0  0  0  0  0  0  0  0  0  0
   -5.0747    8.4434  -26.0680 H   0  0  0  0  0  0  0  0  0  0  0  0
 12 13  2  0  0  0
 13 14  1  0  0  0
 14 16  1  0  0  0
 16 17  2  0  0  0
 17 18  1  0  0  0
 18 19  2  0  0  0
 23 19  1  0  0  0
 23 24  1  0  0  0
 24 25  1  0  0  0
 25 26  1  0  0  0
 26 27  1  0  0  0
 19 20  1  0  0  0
 20 21  2  0  0  0
 21 22  1  0  0  0
 13  1  1  0  0  0
  1  2  2  0  0  0
  2  3  1  0  0  0
  2  4  1  0  0  0
  4  5  2  0  0  0
  5  6  1  0  0  0
  6  7  1  0  0  0
  7 28  1  0  0  0
 28 29  1  0  0  0
 29 30  1  0  0  0
 30 31  1  0  0  0
 31 32  1  0  0  0
 32 35  1  0  0  0
 35 36  1  0  0  0
 36 37  2  0  0  0
 37 38  1  0  0  0
 38 39  1  0  0  0
 39 40  2  0  0  0
 32 33  1  0  0  0
 33 34  1  0  0  0
  7  8  2  0  0  0
  8  9  1  0  0  0
  9 10  1  0  0  0
 21 16  1  0  0  0
 10  1  1  0  0  0
 27 23  1  0  0  0
 10  6  2  0  0  0
 34 29  1  0  0  0
 39 35  1  0  0  0
 14 15  1  0  0  0
 38 41  1  0  0  0
  9 11  1  0  0  0
M  END
> <minimizedAffinity>
-7.75800

> <minimizedRMSD>
0.59537

$$$$
P1187


 42 47  0  0  0  0  0  0  0  0999 V2000
   -7.9066    4.9013  -15.9157 C   0  0  0  0  0  0  0  0  0  0  0  0
   -8.4287    4.5852  -17.1717 C   0  0  0  0  0  0  0  0  0  0  0  0
  -10.0860    4.3089  -17.4737 Cl  0  0  0  0  0  0  0  0  0  0  0  0
   -7.5978    4.5250  -18.2919 C   0  0  0  0  0  0  0  0  0  0  0  0
   -6.2347    4.8219  -18.2049 C   0  0  0  0  0  0  0  0  0  0  0  0
   -5.6868    5.2504  -16.9821 C   0  0  0  0  0  0  0  0  0  0  0  0
   -4.4027    5.7382  -16.5466 C   0  0  0  0  0  0  0  0  0  0  0  0
   -4.5444    6.0441  -15.2024 C   0  0  0  0  0  0  0  0  0  0  0  0
   -5.8139    5.7558  -14.8112 N   0  0  0  0  0  0  0  0  0  0  0  0
   -6.5403    5.2695  -15.8758 C   0  0  0  0  0  0  0  0  0  0  0  0
   -6.1636    5.8769  -13.8989 H   0  0  0  0  0  0  0  0  0  0  0  0
   -9.4664    5.9596  -14.6214 O   0  0  0  0  0  0  0  0  0  0  0  0
   -8.6158    5.1584  -14.6287 C   0  0  0  0  0  0  0  0  0  0  0  0
   -7.9924    4.3427  -13.4643 N   0  0  0  0  0  0  0  0  0  0  0  0
   -7.3335    3.6658  -13.7416 H   0  0  0  0  0  0  0  0  0  0  0  0
   -8.2150    4.4132  -12.0847 C   0  0  0  0  0  0  0  0  0  0  0  0
   -7.9436    5.6175  -11.4407 C   0  0  0  0  0  0  0  0  0  0  0  0
   -7.8877    5.6917  -10.0370 C   0  0  0  0  0  0  0  0  0  0  0  0
   -8.1904    4.6004   -9.2052 C   0  0  0  0  0  0  0  0  0  0  0  0
   -8.5627    3.4218   -9.8968 C   0  0  0  0  0  0  0  0  0  0  0  0
   -9.0160    2.3512   -9.2219 F   0  0  0  0  0  0  0  0  0  0  0  0
   -8.5116    3.3057  -11.3037 C   0  0  0  0  0  0  0  0  0  0  0  0
   -8.0241    4.7115   -7.8147 N   0  0  0  0  0  0  0  0  0  0  0  0
   -7.1467    5.7483   -7.2475 C   0  0  0  0  0  0  0  0  0  0  0  0
   -6.5488    5.2894   -5.9202 C   0  0  0  0  0  0  0  0  0  0  0  0
   -7.6547    4.9182   -4.9422 C   0  0  0  0  0  0  0  0  0  0  0  0
   -8.5510    3.8632   -5.5726 C   0  0  0  0  0  0  0  0  0  0  0  0
   -9.1263    4.3141   -6.9219 C   0  0  0  0  0  0  0  0  0  0  0  0
   -3.0866    5.8852  -17.2549 C   0  0  0  0  0  0  0  0  0  0  0  0
   -3.0647    6.5143  -18.5768 N   0  0  0  0  0  0  0  0  0  0  0  0
   -3.9577    7.6517  -18.7858 C   0  0  0  0  0  0  0  0  0  0  0  0
   -3.7165    8.3452  -20.1346 C   0  0  0  0  0  0  0  0  0  0  0  0
   -3.7380    7.3148  -21.2654 C   0  0  0  0  0  0  0  0  0  0  0  0
   -2.6689    6.2639  -20.9730 C   0  0  0  0  0  0  0  0  0  0  0  0
   -2.9751    5.5537  -19.6648 C   0  0  0  0  0  0  0  0  0  0  0  0
   -3.5668    7.9104  -22.5829 N   0  0  0  0  0  0  0  0  0  0  0  0
   -2.5869    8.7124  -23.0413 C   0  0  0  0  0  0  0  0  0  0  0  0
   -2.7334    9.1293  -24.2584 N   0  0  0  0  0  0  0  0  0  0  0  0
   -3.9269    8.5811  -24.6403 N   0  0  0  0  0  0  0  0  0  0  0  0
   -4.4985    7.8717  -23.5895 C   0  0  0  0  0  0  0  0  0  0  0  0
   -5.6101    7.3730  -23.5775 O   0  0  0  0  0  0  0  0  0  0  0  0
   -4.3262    8.6756  -25.5352 H   0  0  0  0  0  0  0  0  0  0  0  0
 12 13  2  0  0  0
 13 14  1  0  0  0
 14 16  1  0  0  0
 16 17  2  0  0  0
 17 18  1  0  0  0
 18 19  2  0  0  0
 19 23  1  0  0  0
 23 24  1  0  0  0
 24 25  1  0  0  0
 25 26  1  0  0  0
 26 27  1  0  0  0
 27 28  1  0  0  0
 19 20  1  0  0  0
 20 21  1  0  0  0
 20 22  2  0  0  0
 13  1  1  0  0  0
  1  2  2  0  0  0
  2  3  1  0  0  0
  2  4  1  0  0  0
  4  5  2  0  0  0
  5  6  1  0  0  0
  6  7  1  0  0  0
  7 29  1  0  0  0
 29 30  1  0  0  0
 30 31  1  0  0  0
 31 32  1  0  0  0
 32 33  1  0  0  0
 33 36  1  0  0  0
 36 37  1  0  0  0
 37 38  2  0  0  0
 38 39  1  0  0  0
 39 40  1  0  0  0
 40 41  2  0  0  0
 33 34  1  0  0  0
 34 35  1  0  0  0
  7  8  2  0  0  0
  8  9  1  0  0  0
  9 10  1  0  0  0
 22 16  1  0  0  0
 10  1  1  0  0  0
 28 23  1  0  0  0
 10  6  2  0  0  0
 35 30  1  0  0  0
 40 36  1  0  0  0
 14 15  1  0  0  0
 39 42  1  0  0  0
  9 11  1  0  0  0
M  END
> <minimizedAffinity>
-8.47238

> <minimizedRMSD>
0.68680

$$$$
P1188


 37 41  0  0  0  0  0  0  0  0999 V2000
   -8.0250    4.8284  -16.0779 C   0  0  0  0  0  0  0  0  0  0  0  0
   -8.6074    4.5905  -17.3250 C   0  0  0  0  0  0  0  0  0  0  0  0
  -10.2911    4.4542  -17.5750 Cl  0  0  0  0  0  0  0  0  0  0  0  0
   -7.8185    4.5034  -18.4746 C   0  0  0  0  0  0  0  0  0  0  0  0
   -6.4358    4.7082  -18.4274 C   0  0  0  0  0  0  0  0  0  0  0  0
   -5.8217    5.0590  -17.2105 C   0  0  0  0  0  0  0  0  0  0  0  0
   -4.4975    5.4598  -16.8060 C   0  0  0  0  0  0  0  0  0  0  0  0
   -4.5718    5.7157  -15.4461 C   0  0  0  0  0  0  0  0  0  0  0  0
   -5.8428    5.4928  -15.0204 N   0  0  0  0  0  0  0  0  0  0  0  0
   -6.6348    5.0937  -16.0741 C   0  0  0  0  0  0  0  0  0  0  0  0
   -6.1529    5.6009  -14.0923 H   0  0  0  0  0  0  0  0  0  0  0  0
   -7.9894    4.3948  -13.5886 N   0  0  0  0  0  0  0  0  0  0  0  0
   -8.6755    5.1349  -14.7714 C   0  0  0  0  0  0  0  0  0  0  0  0
   -9.5403    5.9224  -14.7730 O   0  0  0  0  0  0  0  0  0  0  0  0
   -7.3301    3.7139  -13.8550 H   0  0  0  0  0  0  0  0  0  0  0  0
   -8.4621    3.7007   -9.9434 C   0  0  0  0  0  0  0  0  0  0  0  0
   -8.1647    4.9705   -9.4323 C   0  0  0  0  0  0  0  0  0  0  0  0
   -7.9022    6.0276  -10.2948 C   0  0  0  0  0  0  0  0  0  0  0  0
   -7.9437    5.8188  -11.6732 C   0  0  0  0  0  0  0  0  0  0  0  0
   -8.1572    4.5396  -12.2051 C   0  0  0  0  0  0  0  0  0  0  0  0
   -8.3867    3.4685  -11.3333 C   0  0  0  0  0  0  0  0  0  0  0  0
   -9.2170    2.0148   -8.1217 N   0  0  0  0  0  0  0  0  0  0  0  0
   -8.9302    2.7188   -9.0001 C   0  0  0  0  0  0  0  0  0  0  0  0
   -3.2058    5.5876  -17.5610 C   0  0  0  0  0  0  0  0  0  0  0  0
   -3.1400    6.5662  -18.6423 N   0  0  0  0  0  0  0  0  0  0  0  0
   -3.8718    7.8141  -18.4793 C   0  0  0  0  0  0  0  0  0  0  0  0
   -3.3685    8.8996  -19.4482 C   0  0  0  0  0  0  0  0  0  0  0  0
   -2.8350    8.3182  -20.7626 C   0  0  0  0  0  0  0  0  0  0  0  0
   -3.4828    6.9744  -21.0616 C   0  0  0  0  0  0  0  0  0  0  0  0
   -3.1806    5.9642  -19.9649 C   0  0  0  0  0  0  0  0  0  0  0  0
   -2.9305    9.2067  -21.9156 N   0  0  0  0  0  0  0  0  0  0  0  0
   -1.9725    9.3503  -22.8571 C   0  0  0  0  0  0  0  0  0  0  0  0
   -2.3390    9.9473  -23.9443 N   0  0  0  0  0  0  0  0  0  0  0  0
   -3.6609   10.2166  -23.7254 N   0  0  0  0  0  0  0  0  0  0  0  0
   -4.0706    9.7050  -22.4972 C   0  0  0  0  0  0  0  0  0  0  0  0
   -5.2153    9.6909  -22.0806 O   0  0  0  0  0  0  0  0  0  0  0  0
   -4.2435   10.7053  -24.3506 H   0  0  0  0  0  0  0  0  0  0  0  0
 22 23  3  0  0  0
 23 16  1  0  0  0
 16 17  2  0  0  0
 17 18  1  0  0  0
 18 19  2  0  0  0
 19 20  1  0  0  0
 20 12  1  0  0  0
 12 13  1  0  0  0
 13 14  2  0  0  0
 13  1  1  0  0  0
  1  2  2  0  0  0
  2  3  1  0  0  0
  2  4  1  0  0  0
  4  5  2  0  0  0
  5  6  1  0  0  0
  6  7  1  0  0  0
  7 24  1  0  0  0
 24 25  1  0  0  0
 25 26  1  0  0  0
 26 27  1  0  0  0
 27 28  1  0  0  0
 28 31  1  0  0  0
 31 32  1  0  0  0
 32 33  2  0  0  0
 33 34  1  0  0  0
 34 35  1  0  0  0
 35 36  2  0  0  0
 28 29  1  0  0  0
 29 30  1  0  0  0
  7  8  2  0  0  0
  8  9  1  0  0  0
  9 10  1  0  0  0
 20 21  2  0  0  0
 21 16  1  0  0  0
 10  1  1  0  0  0
 10  6  2  0  0  0
 30 25  1  0  0  0
 35 31  1  0  0  0
 12 15  1  0  0  0
 34 37  1  0  0  0
  9 11  1  0  0  0
M  END
> <minimizedAffinity>
-7.75693

> <minimizedRMSD>
0.96565

$$$$
P1189


 36 40  0  0  0  0  0  0  0  0999 V2000
   -6.5402    4.4166  -15.1212 C   0  0  0  0  0  0  0  0  0  0  0  0
   -7.3019    4.5922  -16.2841 C   0  0  0  0  0  0  0  0  0  0  0  0
   -8.9971    4.4109  -16.3439 Cl  0  0  0  0  0  0  0  0  0  0  0  0
   -6.7099    5.0051  -17.4726 C   0  0  0  0  0  0  0  0  0  0  0  0
   -5.3437    5.2731  -17.5332 C   0  0  0  0  0  0  0  0  0  0  0  0
   -4.5391    5.1675  -16.3792 C   0  0  0  0  0  0  0  0  0  0  0  0
   -3.1411    5.3426  -16.0687 C   0  0  0  0  0  0  0  0  0  0  0  0
   -3.0202    5.0733  -14.7119 C   0  0  0  0  0  0  0  0  0  0  0  0
   -4.2213    4.6797  -14.2185 N   0  0  0  0  0  0  0  0  0  0  0  0
   -5.1766    4.7535  -15.2003 C   0  0  0  0  0  0  0  0  0  0  0  0
   -4.3832    4.3849  -13.2932 H   0  0  0  0  0  0  0  0  0  0  0  0
   -6.7900    2.5602  -13.8176 O   0  0  0  0  0  0  0  0  0  0  0  0
   -6.9848    3.7084  -13.8816 C   0  0  0  0  0  0  0  0  0  0  0  0
   -7.5573    4.6901  -12.8275 N   0  0  0  0  0  0  0  0  0  0  0  0
   -7.6972    5.6088  -13.1527 H   0  0  0  0  0  0  0  0  0  0  0  0
   -7.9084    4.4821  -11.4859 C   0  0  0  0  0  0  0  0  0  0  0  0
   -8.4555    3.2643  -11.0619 C   0  0  0  0  0  0  0  0  0  0  0  0
   -8.7973    3.0602   -9.7171 C   0  0  0  0  0  0  0  0  0  0  0  0
   -8.5778    4.0707   -8.7923 C   0  0  0  0  0  0  0  0  0  0  0  0
   -8.9202    3.8915   -7.5069 F   0  0  0  0  0  0  0  0  0  0  0  0
   -8.0219    5.2823   -9.1952 C   0  0  0  0  0  0  0  0  0  0  0  0
   -7.6965    5.4937  -10.5440 C   0  0  0  0  0  0  0  0  0  0  0  0
   -1.9099    5.6946  -16.8584 C   0  0  0  0  0  0  0  0  0  0  0  0
   -2.0163    6.0655  -18.2603 N   0  0  0  0  0  0  0  0  0  0  0  0
   -2.6957    7.3245  -18.5238 C   0  0  0  0  0  0  0  0  0  0  0  0
   -2.5476    7.7642  -19.9806 C   0  0  0  0  0  0  0  0  0  0  0  0
   -2.9112    6.6271  -20.9367 C   0  0  0  0  0  0  0  0  0  0  0  0
   -2.0401    5.4125  -20.6110 C   0  0  0  0  0  0  0  0  0  0  0  0
   -2.2465    4.9597  -19.1722 C   0  0  0  0  0  0  0  0  0  0  0  0
   -2.7902    7.0405  -22.3304 N   0  0  0  0  0  0  0  0  0  0  0  0
   -1.6807    7.3273  -23.0392 C   0  0  0  0  0  0  0  0  0  0  0  0
   -1.8839    7.8434  -24.2092 N   0  0  0  0  0  0  0  0  0  0  0  0
   -3.2464    7.9391  -24.2814 N   0  0  0  0  0  0  0  0  0  0  0  0
   -3.8274    7.5297  -23.0860 C   0  0  0  0  0  0  0  0  0  0  0  0
   -4.9983    7.6605  -22.7733 O   0  0  0  0  0  0  0  0  0  0  0  0
   -3.7458    8.2537  -25.0693 H   0  0  0  0  0  0  0  0  0  0  0  0
 12 13  2  0  0  0
 13 14  1  0  0  0
 14 16  1  0  0  0
 16 17  2  0  0  0
 17 18  1  0  0  0
 18 19  2  0  0  0
 19 20  1  0  0  0
 19 21  1  0  0  0
 21 22  2  0  0  0
 13  1  1  0  0  0
  1  2  2  0  0  0
  2  3  1  0  0  0
  2  4  1  0  0  0
  4  5  2  0  0  0
  5  6  1  0  0  0
  6  7  1  0  0  0
  7 23  1  0  0  0
 23 24  1  0  0  0
 24 25  1  0  0  0
 25 26  1  0  0  0
 26 27  1  0  0  0
 27 30  1  0  0  0
 30 31  1  0  0  0
 31 32  2  0  0  0
 32 33  1  0  0  0
 33 34  1  0  0  0
 34 35  2  0  0  0
 27 28  1  0  0  0
 28 29  1  0  0  0
  7  8  2  0  0  0
  8  9  1  0  0  0
  9 10  1  0  0  0
 22 16  1  0  0  0
 10  1  1  0  0  0
 10  6  2  0  0  0
 29 24  1  0  0  0
 34 30  1  0  0  0
 14 15  1  0  0  0
 33 36  1  0  0  0
  9 11  1  0  0  0
M  END
> <minimizedAffinity>
-7.12355

> <minimizedRMSD>
1.30585

$$$$
P1190


 42 47  0  0  0  0  0  0  0  0999 V2000
   -7.9945    4.9123  -15.9530 C   0  0  0  0  0  0  0  0  0  0  0  0
   -8.5580    4.6161  -17.1930 C   0  0  0  0  0  0  0  0  0  0  0  0
  -10.2381    4.4307  -17.4424 Cl  0  0  0  0  0  0  0  0  0  0  0  0
   -7.7499    4.5039  -18.3241 C   0  0  0  0  0  0  0  0  0  0  0  0
   -6.3710    4.7385  -18.2605 C   0  0  0  0  0  0  0  0  0  0  0  0
   -5.7811    5.1501  -17.0499 C   0  0  0  0  0  0  0  0  0  0  0  0
   -4.4787    5.6100  -16.6455 C   0  0  0  0  0  0  0  0  0  0  0  0
   -4.5826    5.9187  -15.2975 C   0  0  0  0  0  0  0  0  0  0  0  0
   -5.8502    5.6645  -14.8781 N   0  0  0  0  0  0  0  0  0  0  0  0
   -6.6123    5.2075  -15.9302 C   0  0  0  0  0  0  0  0  0  0  0  0
   -6.1758    5.7887  -13.9573 H   0  0  0  0  0  0  0  0  0  0  0  0
   -9.5687    5.9773  -14.6759 O   0  0  0  0  0  0  0  0  0  0  0  0
   -8.6829    5.2156  -14.6713 C   0  0  0  0  0  0  0  0  0  0  0  0
   -7.9865    4.4909  -13.4896 N   0  0  0  0  0  0  0  0  0  0  0  0
   -7.3061    3.8304  -13.7543 H   0  0  0  0  0  0  0  0  0  0  0  0
   -8.1679    4.6231  -12.1118 C   0  0  0  0  0  0  0  0  0  0  0  0
   -8.0525    5.9133  -11.5606 C   0  0  0  0  0  0  0  0  0  0  0  0
   -8.0155    6.1123  -10.1796 C   0  0  0  0  0  0  0  0  0  0  0  0
   -8.1534    5.0099   -9.3639 C   0  0  0  0  0  0  0  0  0  0  0  0
   -8.3180    3.7284   -9.8962 C   0  0  0  0  0  0  0  0  0  0  0  0
   -8.2869    3.5118  -11.2713 C   0  0  0  0  0  0  0  0  0  0  0  0
   -8.5209    2.7642   -8.7597 C   0  0  0  0  0  0  0  0  0  0  0  0
   -8.0808    3.5311   -7.5815 N   0  0  0  0  0  0  0  0  0  0  0  0
   -8.1733    4.9527   -7.8723 C   0  0  0  0  0  0  0  0  0  0  0  0
   -8.5564    3.0964   -6.2763 C   0  0  0  0  0  0  0  0  0  0  0  0
   -9.9995    2.6109   -6.0958 C   0  0  0  0  0  0  0  0  0  0  0  0
  -10.8709    3.4077   -6.7647 F   0  0  0  0  0  0  0  0  0  0  0  0
  -10.1389    1.3519   -6.5673 F   0  0  0  0  0  0  0  0  0  0  0  0
   -3.1805    5.7497  -17.3843 C   0  0  0  0  0  0  0  0  0  0  0  0
   -3.1692    6.4723  -18.6582 N   0  0  0  0  0  0  0  0  0  0  0  0
   -4.0813    7.6072  -18.7895 C   0  0  0  0  0  0  0  0  0  0  0  0
   -3.8613    8.3918  -20.0928 C   0  0  0  0  0  0  0  0  0  0  0  0
   -3.8657    7.4351  -21.2867 C   0  0  0  0  0  0  0  0  0  0  0  0
   -2.7726    6.3931  -21.0625 C   0  0  0  0  0  0  0  0  0  0  0  0
   -3.0696    5.5888  -19.8084 C   0  0  0  0  0  0  0  0  0  0  0  0
   -3.7101    8.1100  -22.5673 N   0  0  0  0  0  0  0  0  0  0  0  0
   -2.8185    9.0478  -22.9397 C   0  0  0  0  0  0  0  0  0  0  0  0
   -2.9388    9.4771  -24.1555 N   0  0  0  0  0  0  0  0  0  0  0  0
   -4.0187    8.7855  -24.6309 N   0  0  0  0  0  0  0  0  0  0  0  0
   -4.5545    7.9705  -23.6395 C   0  0  0  0  0  0  0  0  0  0  0  0
   -5.5785    7.3155  -23.7215 O   0  0  0  0  0  0  0  0  0  0  0  0
   -4.3686    8.8550  -25.5486 H   0  0  0  0  0  0  0  0  0  0  0  0
 12 13  2  0  0  0
 13 14  1  0  0  0
 14 16  1  0  0  0
 16 17  2  0  0  0
 17 18  1  0  0  0
 18 19  2  0  0  0
 19 20  1  0  0  0
 20 21  2  0  0  0
 20 22  1  0  0  0
 22 23  1  0  0  0
 23 25  1  0  0  0
 25 26  1  0  0  0
 26 27  1  0  0  0
 26 28  1  0  0  0
 23 24  1  0  0  0
 13  1  1  0  0  0
  1  2  2  0  0  0
  2  3  1  0  0  0
  2  4  1  0  0  0
  4  5  2  0  0  0
  5  6  1  0  0  0
  6  7  1  0  0  0
  7 29  1  0  0  0
 29 30  1  0  0  0
 30 31  1  0  0  0
 31 32  1  0  0  0
 32 33  1  0  0  0
 33 36  1  0  0  0
 36 37  1  0  0  0
 37 38  2  0  0  0
 38 39  1  0  0  0
 39 40  1  0  0  0
 40 41  2  0  0  0
 33 34  1  0  0  0
 34 35  1  0  0  0
  7  8  2  0  0  0
  8  9  1  0  0  0
  9 10  1  0  0  0
 21 16  1  0  0  0
 10  1  1  0  0  0
 24 19  1  0  0  0
 10  6  2  0  0  0
 35 30  1  0  0  0
 40 36  1  0  0  0
 14 15  1  0  0  0
 39 42  1  0  0  0
  9 11  1  0  0  0
M  END
> <minimizedAffinity>
-8.41591

> <minimizedRMSD>
0.50488

$$$$
P1198


 43 48  0  0  0  0  0  0  0  0999 V2000
   -4.4978    6.7727  -16.2720 C   0  0  0  0  0  0  0  0  0  0  0  0
   -4.5993    7.6927  -15.2439 C   0  0  0  0  0  0  0  0  0  0  0  0
   -5.8067    7.5360  -14.6284 N   0  0  0  0  0  0  0  0  0  0  0  0
   -6.5110    6.5158  -15.2213 C   0  0  0  0  0  0  0  0  0  0  0  0
   -5.7635    6.0768  -16.3083 C   0  0  0  0  0  0  0  0  0  0  0  0
   -6.1268    5.0129  -17.2969 C   0  0  0  0  0  0  0  0  0  0  0  0
   -7.5968    4.9895  -17.6625 C   0  0  0  0  0  0  0  0  0  0  0  0
   -8.5619    4.4705  -16.5939 C   0  0  0  0  0  0  0  0  0  0  0  0
   -8.2574    4.6677  -15.0971 C   0  0  0  0  0  0  0  0  0  0  0  0
   -7.0390    3.5126  -14.4498 Cl  0  0  0  0  0  0  0  0  0  0  0  0
   -7.8603    6.0781  -14.6777 C   0  0  0  0  0  0  0  0  0  0  0  0
   -6.1269    8.0754  -13.8696 H   0  0  0  0  0  0  0  0  0  0  0  0
   -2.0822    6.8897  -16.4998 N   0  0  0  0  0  0  0  0  0  0  0  0
   -3.3063    6.4573  -17.1451 C   0  0  0  0  0  0  0  0  0  0  0  0
   -2.0300    6.4860  -15.5646 H   0  0  0  0  0  0  0  0  0  0  0  0
   -2.0749    7.9074  -16.4317 H   0  0  0  0  0  0  0  0  0  0  0  0
   -3.2634    7.0950  -18.4607 N   0  0  0  0  0  0  0  0  0  0  0  0
   -4.3373    8.0431  -18.7788 C   0  0  0  0  0  0  0  0  0  0  0  0
   -4.1884    8.6452  -20.1852 C   0  0  0  0  0  0  0  0  0  0  0  0
   -4.1137    7.5240  -21.2210 C   0  0  0  0  0  0  0  0  0  0  0  0
   -2.9326    6.6241  -20.8684 C   0  0  0  0  0  0  0  0  0  0  0  0
   -3.1266    6.0422  -19.4783 C   0  0  0  0  0  0  0  0  0  0  0  0
   -4.0583    8.0073  -22.5922 N   0  0  0  0  0  0  0  0  0  0  0  0
   -3.1524    8.8013  -23.1933 C   0  0  0  0  0  0  0  0  0  0  0  0
   -3.3951    9.0803  -24.4345 N   0  0  0  0  0  0  0  0  0  0  0  0
   -4.5774    8.4376  -24.6797 N   0  0  0  0  0  0  0  0  0  0  0  0
   -5.0426    7.8121  -23.5284 C   0  0  0  0  0  0  0  0  0  0  0  0
   -6.1190    7.2567  -23.3934 O   0  0  0  0  0  0  0  0  0  0  0  0
   -5.0356    8.4204  -25.5509 H   0  0  0  0  0  0  0  0  0  0  0  0
   -7.9785    6.4249  -13.1389 C   0  0  0  0  0  0  0  0  0  0  0  0
   -7.9989    7.5535  -12.8113 O   0  0  0  0  0  0  0  0  0  0  0  0
   -8.0889    5.1202  -12.2842 N   0  0  0  0  0  0  0  0  0  0  0  0
   -8.1218    4.2865  -12.8069 H   0  0  0  0  0  0  0  0  0  0  0  0
   -8.1483    4.9458  -10.9059 C   0  0  0  0  0  0  0  0  0  0  0  0
   -7.9208    5.9999  -10.0140 C   0  0  0  0  0  0  0  0  0  0  0  0
   -8.0237    5.7935   -8.6344 C   0  0  0  0  0  0  0  0  0  0  0  0
   -8.3911    4.5390   -8.1805 C   0  0  0  0  0  0  0  0  0  0  0  0
   -8.6159    3.4902   -9.0653 C   0  0  0  0  0  0  0  0  0  0  0  0
   -8.4767    3.6672  -10.4303 C   0  0  0  0  0  0  0  0  0  0  0  0
   -8.9844    2.2699   -8.2879 C   0  0  0  0  0  0  0  0  0  0  0  0
   -9.3458    2.7735   -6.9350 N   0  0  0  0  0  0  0  0  0  0  0  0
   -8.6098    4.0503   -6.7871 C   0  0  0  0  0  0  0  0  0  0  0  0
   -9.0573    2.1090   -6.2170 H   0  0  0  0  0  0  0  0  0  0  0  0
 14 13  1  0  0  0
 14  1  1  0  0  0
  1  2  2  0  0  0
  2  3  1  0  0  0
  3  4  1  0  0  0
  4  5  2  0  0  0
  5  6  1  0  0  0
  6  7  1  0  0  0
  7  8  1  0  0  0
  8  9  1  0  0  0
  9 10  1  0  0  0
  9 11  1  0  0  0
 11 30  1  0  0  0
 30 31  2  0  0  0
 30 32  1  0  0  0
 32 34  1  0  0  0
 34 35  2  0  0  0
 35 36  1  0  0  0
 36 37  2  0  0  0
 37 38  1  0  0  0
 38 39  2  0  0  0
 38 40  1  0  0  0
 40 41  1  0  0  0
 41 42  1  0  0  0
 14 17  1  0  0  0
 17 18  1  0  0  0
 18 19  1  0  0  0
 19 20  1  0  0  0
 20 23  1  0  0  0
 23 24  1  0  0  0
 24 25  2  0  0  0
 25 26  1  0  0  0
 26 27  1  0  0  0
 27 28  2  0  0  0
 20 21  1  0  0  0
 21 22  1  0  0  0
  5  1  1  0  0  0
 39 34  1  0  0  0
 22 17  1  0  0  0
 11  4  1  0  0  0
 42 37  1  0  0  0
 27 23  1  0  0  0
 13 15  1  0  0  0
 13 16  1  0  0  0
  3 12  1  0  0  0
 32 33  1  0  0  0
 41 43  1  0  0  0
 26 29  1  0  0  0
M  END
> <minimizedAffinity>
-7.38213

> <minimizedRMSD>
0.30806

$$$$
P1208


 35 39  0  0  0  0  0  0  0  0999 V2000
   -7.9896    4.6900  -15.5917 C   0  0  0  0  0  0  0  0  0  0  0  0
   -8.5714    4.2020  -16.7540 C   0  0  0  0  0  0  0  0  0  0  0  0
   -9.8455    3.7947  -16.7718 F   0  0  0  0  0  0  0  0  0  0  0  0
   -7.8562    4.1850  -17.9452 C   0  0  0  0  0  0  0  0  0  0  0  0
   -6.5394    4.6719  -18.0024 C   0  0  0  0  0  0  0  0  0  0  0  0
   -5.9251    5.2192  -16.8530 C   0  0  0  0  0  0  0  0  0  0  0  0
   -4.6515    5.8215  -16.5324 C   0  0  0  0  0  0  0  0  0  0  0  0
   -4.7455    6.2272  -15.2076 C   0  0  0  0  0  0  0  0  0  0  0  0
   -5.9547    5.8584  -14.7076 N   0  0  0  0  0  0  0  0  0  0  0  0
   -6.6858    5.2163  -15.6780 C   0  0  0  0  0  0  0  0  0  0  0  0
   -6.2611    6.0264  -13.7872 H   0  0  0  0  0  0  0  0  0  0  0  0
   -9.5174    5.6751  -14.2079 O   0  0  0  0  0  0  0  0  0  0  0  0
   -8.6891    4.8600  -14.3004 C   0  0  0  0  0  0  0  0  0  0  0  0
   -8.0804    3.9312  -13.2362 N   0  0  0  0  0  0  0  0  0  0  0  0
   -7.4409    3.2687  -13.5847 H   0  0  0  0  0  0  0  0  0  0  0  0
   -8.2834    3.8753  -11.8802 C   0  0  0  0  0  0  0  0  0  0  0  0
   -8.0888    4.9892  -11.1591 N   0  0  0  0  0  0  0  0  0  0  0  0
   -8.1890    4.8632   -9.8212 C   0  0  0  0  0  0  0  0  0  0  0  0
   -8.4878    3.6852   -9.1858 C   0  0  0  0  0  0  0  0  0  0  0  0
   -8.6415    2.6032  -10.0149 C   0  0  0  0  0  0  0  0  0  0  0  0
   -8.5010    2.6656  -11.3555 N   0  0  0  0  0  0  0  0  0  0  0  0
   -3.3619    5.9799  -17.2932 C   0  0  0  0  0  0  0  0  0  0  0  0
   -3.4041    6.3135  -18.7122 N   0  0  0  0  0  0  0  0  0  0  0  0
   -4.2910    7.3928  -19.1094 C   0  0  0  0  0  0  0  0  0  0  0  0
   -4.0038    7.8347  -20.5456 C   0  0  0  0  0  0  0  0  0  0  0  0
   -4.0484    6.6346  -21.4971 C   0  0  0  0  0  0  0  0  0  0  0  0
   -3.0633    5.5635  -21.0260 C   0  0  0  0  0  0  0  0  0  0  0  0
   -3.3540    5.1505  -19.5889 C   0  0  0  0  0  0  0  0  0  0  0  0
   -3.8040    7.0360  -22.8785 N   0  0  0  0  0  0  0  0  0  0  0  0
   -2.6287    7.2267  -23.5092 C   0  0  0  0  0  0  0  0  0  0  0  0
   -2.7149    7.7262  -24.7014 N   0  0  0  0  0  0  0  0  0  0  0  0
   -4.0580    7.9228  -24.8694 N   0  0  0  0  0  0  0  0  0  0  0  0
   -4.7462    7.5848  -23.7100 C   0  0  0  0  0  0  0  0  0  0  0  0
   -5.9258    7.7931  -23.4863 O   0  0  0  0  0  0  0  0  0  0  0  0
   -4.4779    8.2566  -25.6949 H   0  0  0  0  0  0  0  0  0  0  0  0
 12 13  2  0  0  0
 13 14  1  0  0  0
 14 16  1  0  0  0
 16 17  2  0  0  0
 17 18  1  0  0  0
 18 19  2  0  0  0
 19 20  1  0  0  0
 20 21  2  0  0  0
 13  1  1  0  0  0
  1  2  2  0  0  0
  2  3  1  0  0  0
  2  4  1  0  0  0
  4  5  2  0  0  0
  5  6  1  0  0  0
  6  7  1  0  0  0
  7 22  1  0  0  0
 22 23  1  0  0  0
 23 24  1  0  0  0
 24 25  1  0  0  0
 25 26  1  0  0  0
 26 29  1  0  0  0
 29 30  1  0  0  0
 30 31  2  0  0  0
 31 32  1  0  0  0
 32 33  1  0  0  0
 33 34  2  0  0  0
 26 27  1  0  0  0
 27 28  1  0  0  0
  7  8  2  0  0  0
  8  9  1  0  0  0
  9 10  1  0  0  0
 21 16  1  0  0  0
 10  1  1  0  0  0
 10  6  2  0  0  0
 28 23  1  0  0  0
 33 29  1  0  0  0
 14 15  1  0  0  0
 32 35  1  0  0  0
  9 11  1  0  0  0
M  END
> <minimizedAffinity>
-8.97897

> <minimizedRMSD>
0.48520

$$$$
P1209


 40 45  0  0  0  0  0  0  0  0999 V2000
   -7.8072    5.0676  -15.8027 C   0  0  0  0  0  0  0  0  0  0  0  0
   -8.2698    4.6237  -17.0433 C   0  0  0  0  0  0  0  0  0  0  0  0
   -9.8803    4.1451  -17.3436 Cl  0  0  0  0  0  0  0  0  0  0  0  0
   -7.4153    4.5825  -18.1445 C   0  0  0  0  0  0  0  0  0  0  0  0
   -6.0892    5.0127  -18.0503 C   0  0  0  0  0  0  0  0  0  0  0  0
   -5.6057    5.5536  -16.8438 C   0  0  0  0  0  0  0  0  0  0  0  0
   -4.3717    6.1564  -16.4067 C   0  0  0  0  0  0  0  0  0  0  0  0
   -4.5730    6.5213  -15.0839 C   0  0  0  0  0  0  0  0  0  0  0  0
   -5.8281    6.1606  -14.7050 N   0  0  0  0  0  0  0  0  0  0  0  0
   -6.4850    5.5640  -15.7567 C   0  0  0  0  0  0  0  0  0  0  0  0
   -6.2108    6.3051  -13.8095 H   0  0  0  0  0  0  0  0  0  0  0  0
   -9.4738    5.9404  -14.4592 O   0  0  0  0  0  0  0  0  0  0  0  0
   -8.5651    5.2081  -14.5220 C   0  0  0  0  0  0  0  0  0  0  0  0
   -7.8809    4.3567  -13.4181 N   0  0  0  0  0  0  0  0  0  0  0  0
   -7.1728    3.7541  -13.7418 H   0  0  0  0  0  0  0  0  0  0  0  0
   -8.1071    4.3068  -12.0388 C   0  0  0  0  0  0  0  0  0  0  0  0
   -7.8542    5.3989  -11.2149 C   0  0  0  0  0  0  0  0  0  0  0  0
   -7.9444    5.2815   -9.8108 C   0  0  0  0  0  0  0  0  0  0  0  0
   -8.3358    4.0892   -9.1795 C   0  0  0  0  0  0  0  0  0  0  0  0
   -8.5833    3.0100  -10.0467 C   0  0  0  0  0  0  0  0  0  0  0  0
   -8.4528    3.1023  -11.4419 C   0  0  0  0  0  0  0  0  0  0  0  0
   -8.4738    3.8794   -7.6107 C   0  0  0  0  0  0  0  0  0  0  0  0
   -9.6236    2.9920   -7.0839 C   0  0  0  0  0  0  0  0  0  0  0  0
   -9.7428    3.8797   -5.9045 N   0  0  0  0  0  0  0  0  0  0  0  0
   -9.0491    4.9443   -6.6612 C   0  0  0  0  0  0  0  0  0  0  0  0
   -9.2372    3.5530   -5.0811 H   0  0  0  0  0  0  0  0  0  0  0  0
   -3.0453    6.3622  -17.0835 C   0  0  0  0  0  0  0  0  0  0  0  0
   -3.0231    6.7643  -18.4901 N   0  0  0  0  0  0  0  0  0  0  0  0
   -3.9367    7.8333  -18.8833 C   0  0  0  0  0  0  0  0  0  0  0  0
   -3.6996    8.3049  -20.3238 C   0  0  0  0  0  0  0  0  0  0  0  0
   -3.6912    7.1066  -21.2747 C   0  0  0  0  0  0  0  0  0  0  0  0
   -2.6004    6.1403  -20.8161 C   0  0  0  0  0  0  0  0  0  0  0  0
   -2.8884    5.6449  -19.4078 C   0  0  0  0  0  0  0  0  0  0  0  0
   -3.5252    7.4942  -22.6689 N   0  0  0  0  0  0  0  0  0  0  0  0
   -2.4325    7.9584  -23.3047 C   0  0  0  0  0  0  0  0  0  0  0  0
   -2.6103    8.2950  -24.5424 N   0  0  0  0  0  0  0  0  0  0  0  0
   -3.9425    8.0625  -24.7466 N   0  0  0  0  0  0  0  0  0  0  0  0
   -4.5496    7.6315  -23.5720 C   0  0  0  0  0  0  0  0  0  0  0  0
   -5.7446    7.4689  -23.3971 O   0  0  0  0  0  0  0  0  0  0  0  0
   -4.4073    8.1836  -25.6060 H   0  0  0  0  0  0  0  0  0  0  0  0
 12 13  2  0  0  0
 13 14  1  0  0  0
 14 16  1  0  0  0
 16 17  2  0  0  0
 17 18  1  0  0  0
 18 19  2  0  0  0
 19 22  1  0  0  0
 22 23  1  0  0  0
 23 24  1  0  0  0
 24 25  1  0  0  0
 19 20  1  0  0  0
 20 21  2  0  0  0
 13  1  1  0  0  0
  1  2  2  0  0  0
  2  3  1  0  0  0
  2  4  1  0  0  0
  4  5  2  0  0  0
  5  6  1  0  0  0
  6  7  1  0  0  0
  7 27  1  0  0  0
 27 28  1  0  0  0
 28 29  1  0  0  0
 29 30  1  0  0  0
 30 31  1  0  0  0
 31 34  1  0  0  0
 34 35  1  0  0  0
 35 36  2  0  0  0
 36 37  1  0  0  0
 37 38  1  0  0  0
 38 39  2  0  0  0
 31 32  1  0  0  0
 32 33  1  0  0  0
  7  8  2  0  0  0
  8  9  1  0  0  0
  9 10  1  0  0  0
 21 16  1  0  0  0
 10  1  1  0  0  0
 25 22  1  0  0  0
 10  6  2  0  0  0
 33 28  1  0  0  0
 38 34  1  0  0  0
 14 15  1  0  0  0
 24 26  1  0  0  0
 37 40  1  0  0  0
  9 11  1  0  0  0
M  END
> <minimizedAffinity>
-8.08763

> <minimizedRMSD>
0.49120

$$$$
P1211


 35 39  0  0  0  0  0  0  0  0999 V2000
   -8.0314    5.1318  -15.7862 C   0  0  0  0  0  0  0  0  0  0  0  0
   -8.5223    4.4861  -16.9151 C   0  0  0  0  0  0  0  0  0  0  0  0
   -9.7236    3.8969  -16.9197 F   0  0  0  0  0  0  0  0  0  0  0  0
   -7.7623    4.4324  -18.0790 C   0  0  0  0  0  0  0  0  0  0  0  0
   -6.4807    5.0068  -18.1365 C   0  0  0  0  0  0  0  0  0  0  0  0
   -5.9684    5.7139  -17.0262 C   0  0  0  0  0  0  0  0  0  0  0  0
   -4.7548    6.4318  -16.7173 C   0  0  0  0  0  0  0  0  0  0  0  0
   -4.9285    6.9562  -15.4453 C   0  0  0  0  0  0  0  0  0  0  0  0
   -6.1353    6.5601  -14.9626 N   0  0  0  0  0  0  0  0  0  0  0  0
   -6.7795    5.7742  -15.8893 C   0  0  0  0  0  0  0  0  0  0  0  0
   -6.4959    6.8007  -14.0787 H   0  0  0  0  0  0  0  0  0  0  0  0
   -9.5951    6.0694  -14.3901 O   0  0  0  0  0  0  0  0  0  0  0  0
   -8.7248    5.2962  -14.4863 C   0  0  0  0  0  0  0  0  0  0  0  0
   -8.0441    4.4133  -13.4126 N   0  0  0  0  0  0  0  0  0  0  0  0
   -7.3770    3.7795  -13.7626 H   0  0  0  0  0  0  0  0  0  0  0  0
   -8.2208    4.3698  -12.0379 C   0  0  0  0  0  0  0  0  0  0  0  0
   -7.9326    5.4815  -11.2798 C   0  0  0  0  0  0  0  0  0  0  0  0
   -8.0045    5.3289   -9.9140 C   0  0  0  0  0  0  0  0  0  0  0  0
   -8.3675    4.1883   -9.3146 N   0  0  0  0  0  0  0  0  0  0  0  0
   -8.6306    3.1665  -10.1446 C   0  0  0  0  0  0  0  0  0  0  0  0
   -8.5182    3.1843  -11.4896 N   0  0  0  0  0  0  0  0  0  0  0  0
   -3.4581    6.5903  -17.4571 C   0  0  0  0  0  0  0  0  0  0  0  0
   -3.4843    7.1241  -18.8167 N   0  0  0  0  0  0  0  0  0  0  0  0
   -4.4691    8.1632  -19.1071 C   0  0  0  0  0  0  0  0  0  0  0  0
   -4.2603    8.7843  -20.4965 C   0  0  0  0  0  0  0  0  0  0  0  0
   -4.1742    7.6837  -21.5557 C   0  0  0  0  0  0  0  0  0  0  0  0
   -3.0391    6.7386  -21.1730 C   0  0  0  0  0  0  0  0  0  0  0  0
   -3.3354    6.0920  -19.8312 C   0  0  0  0  0  0  0  0  0  0  0  0
   -4.0120    8.1996  -22.9064 N   0  0  0  0  0  0  0  0  0  0  0  0
   -2.8967    8.6004  -23.5456 C   0  0  0  0  0  0  0  0  0  0  0  0
   -3.0758    9.0432  -24.7491 N   0  0  0  0  0  0  0  0  0  0  0  0
   -4.4300    8.9541  -24.9224 N   0  0  0  0  0  0  0  0  0  0  0  0
   -5.0424    8.4871  -23.7645 C   0  0  0  0  0  0  0  0  0  0  0  0
   -6.2415    8.4015  -23.5657 O   0  0  0  0  0  0  0  0  0  0  0  0
   -4.9053    9.1881  -25.7522 H   0  0  0  0  0  0  0  0  0  0  0  0
 12 13  2  0  0  0
 13 14  1  0  0  0
 14 16  1  0  0  0
 16 17  2  0  0  0
 17 18  1  0  0  0
 18 19  2  0  0  0
 19 20  1  0  0  0
 20 21  2  0  0  0
 13  1  1  0  0  0
  1  2  2  0  0  0
  2  3  1  0  0  0
  2  4  1  0  0  0
  4  5  2  0  0  0
  5  6  1  0  0  0
  6  7  1  0  0  0
  7 22  1  0  0  0
 22 23  1  0  0  0
 23 24  1  0  0  0
 24 25  1  0  0  0
 25 26  1  0  0  0
 26 29  1  0  0  0
 29 30  1  0  0  0
 30 31  2  0  0  0
 31 32  1  0  0  0
 32 33  1  0  0  0
 33 34  2  0  0  0
 26 27  1  0  0  0
 27 28  1  0  0  0
  7  8  2  0  0  0
  8  9  1  0  0  0
  9 10  1  0  0  0
 21 16  1  0  0  0
 10  1  1  0  0  0
 10  6  2  0  0  0
 28 23  1  0  0  0
 33 29  1  0  0  0
 14 15  1  0  0  0
 32 35  1  0  0  0
  9 11  1  0  0  0
M  END
> <minimizedAffinity>
-7.40485

> <minimizedRMSD>
0.36053

$$$$
P1226


 39 43  0  0  0  0  0  0  0  0999 V2000
   -7.8914    4.8990  -15.9300 C   0  0  0  0  0  0  0  0  0  0  0  0
   -8.4105    4.5825  -17.1865 C   0  0  0  0  0  0  0  0  0  0  0  0
  -10.0668    4.3009  -17.4886 Cl  0  0  0  0  0  0  0  0  0  0  0  0
   -7.5775    4.5267  -18.3051 C   0  0  0  0  0  0  0  0  0  0  0  0
   -6.2167    4.8353  -18.2170 C   0  0  0  0  0  0  0  0  0  0  0  0
   -5.6736    5.2720  -16.9947 C   0  0  0  0  0  0  0  0  0  0  0  0
   -4.3964    5.7781  -16.5586 C   0  0  0  0  0  0  0  0  0  0  0  0
   -4.5447    6.0859  -15.2152 C   0  0  0  0  0  0  0  0  0  0  0  0
   -5.8111    5.7833  -14.8256 N   0  0  0  0  0  0  0  0  0  0  0  0
   -6.5286    5.2819  -15.8893 C   0  0  0  0  0  0  0  0  0  0  0  0
   -6.1645    5.9049  -13.9148 H   0  0  0  0  0  0  0  0  0  0  0  0
   -7.9704    4.3861  -13.4661 N   0  0  0  0  0  0  0  0  0  0  0  0
   -8.6081    5.1669  -14.6506 C   0  0  0  0  0  0  0  0  0  0  0  0
   -9.4751    5.9517  -14.6613 O   0  0  0  0  0  0  0  0  0  0  0  0
   -7.2972    3.7172  -13.7281 H   0  0  0  0  0  0  0  0  0  0  0  0
   -8.5088    3.5076   -9.8536 C   0  0  0  0  0  0  0  0  0  0  0  0
   -8.1635    4.7456   -9.2982 C   0  0  0  0  0  0  0  0  0  0  0  0
   -7.9003    5.8447  -10.1077 C   0  0  0  0  0  0  0  0  0  0  0  0
   -7.9537    5.7193  -11.4927 C   0  0  0  0  0  0  0  0  0  0  0  0
   -8.1982    4.4802  -12.0880 C   0  0  0  0  0  0  0  0  0  0  0  0
   -8.4657    3.3755  -11.2685 C   0  0  0  0  0  0  0  0  0  0  0  0
   -8.9549    2.3306   -8.9965 C   0  0  0  0  0  0  0  0  0  0  0  0
   -9.3832    2.3601   -6.5776 C   0  0  0  0  0  0  0  0  0  0  0  0
   -8.4182    2.2384   -7.6399 N   0  0  0  0  0  0  0  0  0  0  0  0
   -7.9600    1.3321   -7.5449 H   0  0  0  0  0  0  0  0  0  0  0  0
   -3.0803    5.9448  -17.2629 C   0  0  0  0  0  0  0  0  0  0  0  0
   -3.0631    6.5557  -18.5928 N   0  0  0  0  0  0  0  0  0  0  0  0
   -3.9644    7.6834  -18.8167 C   0  0  0  0  0  0  0  0  0  0  0  0
   -3.7255    8.3629  -20.1730 C   0  0  0  0  0  0  0  0  0  0  0  0
   -3.7353    7.3194  -21.2919 C   0  0  0  0  0  0  0  0  0  0  0  0
   -2.6591    6.2802  -20.9843 C   0  0  0  0  0  0  0  0  0  0  0  0
   -2.9625    5.5828  -19.6684 C   0  0  0  0  0  0  0  0  0  0  0  0
   -3.5637    7.9015  -22.6157 N   0  0  0  0  0  0  0  0  0  0  0  0
   -2.5849    8.7011  -23.0806 C   0  0  0  0  0  0  0  0  0  0  0  0
   -2.7300    9.1045  -24.3024 N   0  0  0  0  0  0  0  0  0  0  0  0
   -3.9211    8.5491  -24.6809 N   0  0  0  0  0  0  0  0  0  0  0  0
   -4.4930    7.8492  -23.6239 C   0  0  0  0  0  0  0  0  0  0  0  0
   -5.6033    7.3474  -23.6098 O   0  0  0  0  0  0  0  0  0  0  0  0
   -4.3187    8.6332  -25.5776 H   0  0  0  0  0  0  0  0  0  0  0  0
 23 24  1  0  0  0
 24 22  1  0  0  0
 22 16  1  0  0  0
 16 17  2  0  0  0
 17 18  1  0  0  0
 18 19  2  0  0  0
 19 20  1  0  0  0
 20 12  1  0  0  0
 12 13  1  0  0  0
 13 14  2  0  0  0
 13  1  1  0  0  0
  1  2  2  0  0  0
  2  3  1  0  0  0
  2  4  1  0  0  0
  4  5  2  0  0  0
  5  6  1  0  0  0
  6  7  1  0  0  0
  7 26  1  0  0  0
 26 27  1  0  0  0
 27 28  1  0  0  0
 28 29  1  0  0  0
 29 30  1  0  0  0
 30 33  1  0  0  0
 33 34  1  0  0  0
 34 35  2  0  0  0
 35 36  1  0  0  0
 36 37  1  0  0  0
 37 38  2  0  0  0
 30 31  1  0  0  0
 31 32  1  0  0  0
  7  8  2  0  0  0
  8  9  1  0  0  0
  9 10  1  0  0  0
 20 21  2  0  0  0
 21 16  1  0  0  0
 10  1  1  0  0  0
 10  6  2  0  0  0
 32 27  1  0  0  0
 37 33  1  0  0  0
 24 25  1  0  0  0
 12 15  1  0  0  0
 36 39  1  0  0  0
  9 11  1  0  0  0
M  END
> <minimizedAffinity>
-7.92371

> <minimizedRMSD>
0.47956

$$$$
P1251


 32 34  0  0  0  0  0  0  0  0999 V2000
   -4.2884    5.5791  -17.7511 C   0  0  0  0  0  0  0  0  0  0  0  0
   -4.1862    5.8054  -16.3746 C   0  0  0  0  0  0  0  0  0  0  0  0
   -5.3185    5.7995  -15.5614 C   0  0  0  0  0  0  0  0  0  0  0  0
   -6.5402    5.4902  -16.1696 C   0  0  0  0  0  0  0  0  0  0  0  0
   -6.6298    5.1822  -17.5203 C   0  0  0  0  0  0  0  0  0  0  0  0
   -5.5249    5.3358  -18.3850 C   0  0  0  0  0  0  0  0  0  0  0  0
   -5.6653    5.3340  -19.7813 N   0  0  0  0  0  0  0  0  0  0  0  0
   -7.8729    4.6631  -17.8419 N   0  0  0  0  0  0  0  0  0  0  0  0
   -8.6338    4.4524  -16.8025 C   0  0  0  0  0  0  0  0  0  0  0  0
   -9.8050    3.8436  -16.9924 N   0  0  0  0  0  0  0  0  0  0  0  0
   -8.1618    5.4961  -15.5516 S   0  0  0  0  0  0  0  0  0  0  0  0
   -6.5451    5.1599  -20.1874 H   0  0  0  0  0  0  0  0  0  0  0  0
   -4.8840    5.5067  -20.3548 H   0  0  0  0  0  0  0  0  0  0  0  0
   -8.1554    4.4714  -18.7654 H   0  0  0  0  0  0  0  0  0  0  0  0
   -9.9349    3.2591  -17.7739 H   0  0  0  0  0  0  0  0  0  0  0  0
  -10.5396    3.9787  -16.3511 H   0  0  0  0  0  0  0  0  0  0  0  0
   -7.7863    4.4700  -14.1130 C   0  0  0  0  0  0  0  0  0  0  0  0
   -6.9988    3.6282  -14.2459 O   0  0  0  0  0  0  0  0  0  0  0  0
   -8.5259    4.9505  -12.8578 N   0  0  0  0  0  0  0  0  0  0  0  0
   -9.2102    5.6392  -13.0210 H   0  0  0  0  0  0  0  0  0  0  0  0
   -8.3875    4.5723  -11.5294 C   0  0  0  0  0  0  0  0  0  0  0  0
   -8.3937    3.2307  -11.1512 C   0  0  0  0  0  0  0  0  0  0  0  0
   -8.1576    2.8842   -9.8232 C   0  0  0  0  0  0  0  0  0  0  0  0
   -7.8972    3.8792   -8.8826 C   0  0  0  0  0  0  0  0  0  0  0  0
   -7.8862    5.2308   -9.2465 C   0  0  0  0  0  0  0  0  0  0  0  0
   -8.1554    5.5701  -10.5784 C   0  0  0  0  0  0  0  0  0  0  0  0
   -7.5540    6.2882   -8.2285 C   0  0  0  0  0  0  0  0  0  0  0  0
   -6.1981    6.1266   -7.7107 N   0  0  0  0  0  0  0  0  0  0  0  0
   -6.1152    5.2193   -7.2522 H   0  0  0  0  0  0  0  0  0  0  0  0
   -6.0008    6.8670   -7.0374 H   0  0  0  0  0  0  0  0  0  0  0  0
   -2.6652    4.4398  -18.8996 C   0  0  0  0  0  0  0  0  0  0  0  0
   -3.1292    5.7163  -18.4794 O   0  0  0  0  0  0  0  0  0  0  0  0
 31 32  1  0  0  0
 32  1  1  0  0  0
  1  2  2  0  0  0
  2  3  1  0  0  0
  3  4  2  0  0  0
  4  5  1  0  0  0
  5  6  2  0  0  0
  6  7  1  0  0  0
  5  8  1  0  0  0
  8  9  1  0  0  0
  9 10  1  0  0  0
  9 11  2  0  0  0
 11 17  1  0  0  0
 17 18  2  0  0  0
 17 19  1  0  0  0
 19 21  1  0  0  0
 21 22  2  0  0  0
 22 23  1  0  0  0
 23 24  2  0  0  0
 24 25  1  0  0  0
 25 27  1  0  0  0
 27 28  1  0  0  0
 25 26  2  0  0  0
  6  1  1  0  0  0
 26 21  1  0  0  0
 11  4  1  0  0  0
  7 12  1  0  0  0
  7 13  1  0  0  0
  8 14  1  0  0  0
 10 15  1  0  0  0
 10 16  1  0  0  0
 19 20  1  0  0  0
 28 29  1  0  0  0
 28 30  1  0  0  0
M  END
> <minimizedAffinity>
-6.78504

> <minimizedRMSD>
0.72610

$$$$
P1261


 29 32  0  0  0  0  0  0  0  0999 V2000
   -3.9280    5.0930  -17.9892 C   0  0  0  0  0  0  0  0  0  0  0  0
   -3.9165    5.4475  -16.6366 C   0  0  0  0  0  0  0  0  0  0  0  0
   -5.0978    5.5955  -15.9068 C   0  0  0  0  0  0  0  0  0  0  0  0
   -6.2983    5.3482  -16.5796 C   0  0  0  0  0  0  0  0  0  0  0  0
   -6.3195    4.9325  -17.9042 C   0  0  0  0  0  0  0  0  0  0  0  0
   -5.1370    4.8308  -18.6471 C   0  0  0  0  0  0  0  0  0  0  0  0
   -7.5879    4.5910  -18.3152 N   0  0  0  0  0  0  0  0  0  0  0  0
   -8.4786    4.6045  -17.3639 C   0  0  0  0  0  0  0  0  0  0  0  0
   -9.7398    4.2868  -17.6615 N   0  0  0  0  0  0  0  0  0  0  0  0
   -7.9328    5.5455  -16.0805 S   0  0  0  0  0  0  0  0  0  0  0  0
   -7.8036    4.3568  -19.2468 H   0  0  0  0  0  0  0  0  0  0  0  0
   -9.9337    3.7241  -18.4457 H   0  0  0  0  0  0  0  0  0  0  0  0
  -10.4765    4.6151  -17.0970 H   0  0  0  0  0  0  0  0  0  0  0  0
   -7.8146    4.4724  -14.6405 C   0  0  0  0  0  0  0  0  0  0  0  0
   -7.2620    3.4514  -14.7194 O   0  0  0  0  0  0  0  0  0  0  0  0
   -8.4333    5.1816  -13.4200 N   0  0  0  0  0  0  0  0  0  0  0  0
   -8.9182    6.0127  -13.6283 H   0  0  0  0  0  0  0  0  0  0  0  0
   -8.4183    4.8391  -12.0741 C   0  0  0  0  0  0  0  0  0  0  0  0
   -8.3810    3.5088  -11.6381 C   0  0  0  0  0  0  0  0  0  0  0  0
   -8.2719    3.2177  -10.2741 C   0  0  0  0  0  0  0  0  0  0  0  0
   -8.1882    4.2709   -9.3780 C   0  0  0  0  0  0  0  0  0  0  0  0
   -8.2412    5.5898   -9.8090 C   0  0  0  0  0  0  0  0  0  0  0  0
   -8.3689    5.8928  -11.1511 C   0  0  0  0  0  0  0  0  0  0  0  0
   -8.1490    6.5017   -8.6345 C   0  0  0  0  0  0  0  0  0  0  0  0
   -7.7154    5.6451   -7.4986 N   0  0  0  0  0  0  0  0  0  0  0  0
   -8.0533    4.2497   -7.8949 C   0  0  0  0  0  0  0  0  0  0  0  0
   -8.2142    5.9038   -6.6474 H   0  0  0  0  0  0  0  0  0  0  0  0
   -2.6264    4.9866  -19.9594 C   0  0  0  0  0  0  0  0  0  0  0  0
   -2.6779    5.0052  -18.5437 O   0  0  0  0  0  0  0  0  0  0  0  0
 28 29  1  0  0  0
 29  1  1  0  0  0
  1  2  2  0  0  0
  2  3  1  0  0  0
  3  4  2  0  0  0
  4  5  1  0  0  0
  5  6  2  0  0  0
  5  7  1  0  0  0
  7  8  1  0  0  0
  8  9  1  0  0  0
  8 10  2  0  0  0
 10 14  1  0  0  0
 14 15  2  0  0  0
 14 16  1  0  0  0
 16 18  1  0  0  0
 18 19  2  0  0  0
 19 20  1  0  0  0
 20 21  2  0  0  0
 21 22  1  0  0  0
 22 23  2  0  0  0
 22 24  1  0  0  0
 24 25  1  0  0  0
 25 26  1  0  0  0
  6  1  1  0  0  0
 23 18  1  0  0  0
 10  4  1  0  0  0
 26 21  1  0  0  0
  7 11  1  0  0  0
  9 12  1  0  0  0
  9 13  1  0  0  0
 16 17  1  0  0  0
 25 27  1  0  0  0
M  END
> <minimizedAffinity>
-6.85973

> <minimizedRMSD>
0.53251

$$$$
P1266


 32 35  0  0  0  0  0  0  0  0999 V2000
   -4.6003    5.5461  -18.1372 C   0  0  0  0  0  0  0  0  0  0  0  0
   -4.6448    5.6977  -16.7362 C   0  0  0  0  0  0  0  0  0  0  0  0
   -5.7642    5.3678  -15.9645 C   0  0  0  0  0  0  0  0  0  0  0  0
   -6.8759    4.8830  -16.6466 C   0  0  0  0  0  0  0  0  0  0  0  0
   -6.9424    4.8960  -18.0330 C   0  0  0  0  0  0  0  0  0  0  0  0
   -5.8114    5.2280  -18.7929 C   0  0  0  0  0  0  0  0  0  0  0  0
   -8.2143    4.5924  -18.4918 N   0  0  0  0  0  0  0  0  0  0  0  0
   -9.0772    4.3320  -17.5408 C   0  0  0  0  0  0  0  0  0  0  0  0
  -10.3444    4.1046  -17.8723 N   0  0  0  0  0  0  0  0  0  0  0  0
   -8.2657    4.0510  -16.1305 S   0  0  0  0  0  0  0  0  0  0  0  0
   -8.4488    4.5739  -19.4477 H   0  0  0  0  0  0  0  0  0  0  0  0
  -10.6670    4.3373  -18.7728 H   0  0  0  0  0  0  0  0  0  0  0  0
  -10.9602    3.7036  -17.2172 H   0  0  0  0  0  0  0  0  0  0  0  0
   -8.6301    4.8732  -14.6100 C   0  0  0  0  0  0  0  0  0  0  0  0
   -9.1266    5.9233  -14.6444 O   0  0  0  0  0  0  0  0  0  0  0  0
   -8.1122    4.0562  -13.4185 N   0  0  0  0  0  0  0  0  0  0  0  0
   -7.8000    3.1504  -13.6448 H   0  0  0  0  0  0  0  0  0  0  0  0
   -8.0115    4.3875  -12.0676 C   0  0  0  0  0  0  0  0  0  0  0  0
   -7.3698    5.5423  -11.6041 C   0  0  0  0  0  0  0  0  0  0  0  0
   -7.1755    5.7416  -10.2279 C   0  0  0  0  0  0  0  0  0  0  0  0
   -7.6501    4.7889   -9.3405 C   0  0  0  0  0  0  0  0  0  0  0  0
   -8.3204    3.6662   -9.7967 C   0  0  0  0  0  0  0  0  0  0  0  0
   -8.4876    3.4388  -11.1515 C   0  0  0  0  0  0  0  0  0  0  0  0
   -8.7887    2.8498   -8.6419 C   0  0  0  0  0  0  0  0  0  0  0  0
   -8.3969    3.6048   -7.4233 N   0  0  0  0  0  0  0  0  0  0  0  0
   -7.5626    4.7434   -7.8542 C   0  0  0  0  0  0  0  0  0  0  0  0
   -7.8652    3.0014   -6.7961 H   0  0  0  0  0  0  0  0  0  0  0  0
   -3.3952    5.7141  -20.2759 C   0  0  0  0  0  0  0  0  0  0  0  0
   -3.3892    5.7598  -18.8187 N   0  0  0  0  0  0  0  0  0  0  0  0
   -2.2227    5.0638  -18.2783 C   0  0  0  0  0  0  0  0  0  0  0  0
   -2.0414    3.9092  -18.9656 F   0  0  0  0  0  0  0  0  0  0  0  0
   -1.1247    5.8342  -18.4842 F   0  0  0  0  0  0  0  0  0  0  0  0
 28 29  1  0  0  0
 29  1  1  0  0  0
  1  2  2  0  0  0
  2  3  1  0  0  0
  3  4  2  0  0  0
  4  5  1  0  0  0
  5  6  2  0  0  0
  5  7  1  0  0  0
  7  8  1  0  0  0
  8  9  1  0  0  0
  8 10  2  0  0  0
 10 14  1  0  0  0
 14 15  2  0  0  0
 14 16  1  0  0  0
 16 18  1  0  0  0
 18 19  2  0  0  0
 19 20  1  0  0  0
 20 21  2  0  0  0
 21 22  1  0  0  0
 22 23  2  0  0  0
 22 24  1  0  0  0
 24 25  1  0  0  0
 25 26  1  0  0  0
 29 30  1  0  0  0
 30 31  1  0  0  0
 30 32  1  0  0  0
  6  1  1  0  0  0
 23 18  1  0  0  0
 10  4  1  0  0  0
 26 21  1  0  0  0
  7 11  1  0  0  0
  9 12  1  0  0  0
  9 13  1  0  0  0
 16 17  1  0  0  0
 25 27  1  0  0  0
M  END
> <minimizedAffinity>
-7.37640

> <minimizedRMSD>
0.58368

$$$$
P1271


 43 47  0  0  0  0  0  0  0  0999 V2000
   -6.6350    4.1908  -14.5235 C   0  0  0  0  0  0  0  0  0  0  0  0
   -3.9622    5.0372  -18.8082 C   0  0  0  0  0  0  0  0  0  0  0  0
   -3.4444    5.5103  -17.6078 C   0  0  0  0  0  0  0  0  0  0  0  0
   -4.2885    5.8116  -16.5363 C   0  0  0  0  0  0  0  0  0  0  0  0
   -5.6543    5.5191  -16.6620 C   0  0  0  0  0  0  0  0  0  0  0  0
   -6.1633    5.0783  -17.8785 C   0  0  0  0  0  0  0  0  0  0  0  0
   -5.3354    4.8569  -18.9839 C   0  0  0  0  0  0  0  0  0  0  0  0
   -7.5107    4.8518  -17.8237 N   0  0  0  0  0  0  0  0  0  0  0  0
   -8.0526    5.0048  -16.6558 C   0  0  0  0  0  0  0  0  0  0  0  0
   -9.3619    4.7951  -16.5539 N   0  0  0  0  0  0  0  0  0  0  0  0
   -6.9634    5.6747  -15.5298 S   0  0  0  0  0  0  0  0  0  0  0  0
   -8.0332    4.5905  -18.6162 H   0  0  0  0  0  0  0  0  0  0  0  0
   -9.8559    4.3931  -17.3046 H   0  0  0  0  0  0  0  0  0  0  0  0
   -9.8371    5.0418  -15.7278 H   0  0  0  0  0  0  0  0  0  0  0  0
   -2.4425    5.7817  -20.3676 C   0  0  0  0  0  0  0  0  0  0  0  0
   -3.0655    4.6531  -19.7697 O   0  0  0  0  0  0  0  0  0  0  0  0
   -5.3469    4.2365  -13.5845 C   0  0  0  0  0  0  0  0  0  0  0  0
   -4.8537    5.2361  -13.2260 O   0  0  0  0  0  0  0  0  0  0  0  0
   -4.8999    2.7554  -13.3713 N   0  0  0  0  0  0  0  0  0  0  0  0
   -5.5322    2.0810  -13.7097 H   0  0  0  0  0  0  0  0  0  0  0  0
   -3.7033    2.2121  -12.7551 C   0  0  0  0  0  0  0  0  0  0  0  0
   -3.5831    1.9434  -10.9855 S   0  0  0  0  0  0  0  0  0  0  0  0
   -2.2210    1.5237  -10.6911 O   0  0  0  0  0  0  0  0  0  0  0  0
   -4.6963    1.1163  -10.5564 O   0  0  0  0  0  0  0  0  0  0  0  0
   -3.7495    3.5412  -10.2320 C   0  0  0  0  0  0  0  0  0  0  0  0
   -4.7379    3.7563   -9.2733 C   0  0  0  0  0  0  0  0  0  0  0  0
   -4.8242    5.0000   -8.6438 C   0  0  0  0  0  0  0  0  0  0  0  0
   -3.9264    6.0269   -8.9613 C   0  0  0  0  0  0  0  0  0  0  0  0
   -4.0634    7.3759   -8.3202 C   0  0  0  0  0  0  0  0  0  0  0  0
   -2.9386    5.7961   -9.9258 C   0  0  0  0  0  0  0  0  0  0  0  0
   -2.8370    4.5515  -10.5499 C   0  0  0  0  0  0  0  0  0  0  0  0
   -7.8541    3.7849  -13.7684 N   0  0  0  0  0  0  0  0  0  0  0  0
   -8.5980    3.3452  -14.2402 H   0  0  0  0  0  0  0  0  0  0  0  0
   -7.9481    4.0255  -12.3902 C   0  0  0  0  0  0  0  0  0  0  0  0
   -8.0426    5.3388  -11.8925 C   0  0  0  0  0  0  0  0  0  0  0  0
   -8.2307    5.5947  -10.5275 C   0  0  0  0  0  0  0  0  0  0  0  0
   -8.3161    4.5185   -9.6663 C   0  0  0  0  0  0  0  0  0  0  0  0
   -8.1570    3.2192  -10.1317 C   0  0  0  0  0  0  0  0  0  0  0  0
   -7.9601    2.9605  -11.4787 C   0  0  0  0  0  0  0  0  0  0  0  0
   -8.2557    2.2715   -8.9809 C   0  0  0  0  0  0  0  0  0  0  0  0
   -8.8980    3.0672   -7.8969 N   0  0  0  0  0  0  0  0  0  0  0  0
   -8.5708    4.4784   -8.1980 C   0  0  0  0  0  0  0  0  0  0  0  0
   -8.5217    2.7999   -6.9873 H   0  0  0  0  0  0  0  0  0  0  0  0
 15 16  1  0  0  0
 16  2  1  0  0  0
  2  3  2  0  0  0
  3  4  1  0  0  0
  4  5  2  0  0  0
  5  6  1  0  0  0
  6  7  2  0  0  0
  6  8  1  0  0  0
  8  9  1  0  0  0
  9 10  1  0  0  0
  9 11  2  0  0  0
 11  1  1  0  0  0
  1 32  1  0  0  0
 32 34  1  0  0  0
 34 35  2  0  0  0
 35 36  1  0  0  0
 36 37  2  0  0  0
 37 38  1  0  0  0
 38 39  2  0  0  0
 38 40  1  0  0  0
 40 41  1  0  0  0
 41 42  1  0  0  0
  1 17  1  0  0  0
 17 18  2  0  0  0
 17 19  1  0  0  0
 19 21  1  0  0  0
 21 22  1  0  0  0
 22 23  2  0  0  0
 22 24  2  0  0  0
 22 25  1  0  0  0
 25 26  2  0  0  0
 26 27  1  0  0  0
 27 28  2  0  0  0
 28 29  1  0  0  0
 28 30  1  0  0  0
 30 31  2  0  0  0
  7  2  1  0  0  0
 39 34  1  0  0  0
 31 25  1  0  0  0
 11  5  1  0  0  0
 42 37  1  0  0  0
  8 12  1  0  0  0
 10 13  1  0  0  0
 10 14  1  0  0  0
 32 33  1  0  0  0
 41 43  1  0  0  0
 19 20  1  0  0  0
M  END
> <minimizedAffinity>
-7.26242

> <minimizedRMSD>
0.68709

$$$$
P1278


 37 41  0  0  0  0  0  0  0  0999 V2000
   -8.5701    5.2487  -14.8271 C   0  0  0  0  0  0  0  0  0  0  0  0
   -9.2119    6.2112  -14.9518 O   0  0  0  0  0  0  0  0  0  0  0  0
   -7.6626    4.7957  -13.6641 N   0  0  0  0  0  0  0  0  0  0  0  0
   -7.2818    3.8935  -13.7656 H   0  0  0  0  0  0  0  0  0  0  0  0
   -4.6924    5.7378  -18.0323 C   0  0  0  0  0  0  0  0  0  0  0  0
   -4.5886    5.2384  -16.7320 C   0  0  0  0  0  0  0  0  0  0  0  0
   -5.7141    4.7403  -16.0595 C   0  0  0  0  0  0  0  0  0  0  0  0
   -6.9467    4.7636  -16.7353 C   0  0  0  0  0  0  0  0  0  0  0  0
   -7.0565    5.3339  -17.9942 C   0  0  0  0  0  0  0  0  0  0  0  0
   -5.9339    5.8177  -18.6702 C   0  0  0  0  0  0  0  0  0  0  0  0
   -8.3575    5.4203  -18.4118 N   0  0  0  0  0  0  0  0  0  0  0  0
   -9.2365    4.9780  -17.5607 C   0  0  0  0  0  0  0  0  0  0  0  0
  -10.5124    4.9683  -17.9390 N   0  0  0  0  0  0  0  0  0  0  0  0
   -8.5260    4.1585  -16.2672 S   0  0  0  0  0  0  0  0  0  0  0  0
   -8.6087    5.7892  -19.2893 H   0  0  0  0  0  0  0  0  0  0  0  0
  -10.7985    5.4959  -18.7194 H   0  0  0  0  0  0  0  0  0  0  0  0
  -11.1702    4.4334  -17.4385 H   0  0  0  0  0  0  0  0  0  0  0  0
   -2.4644    5.4371  -18.6984 C   0  0  0  0  0  0  0  0  0  0  0  0
   -3.6299    6.2471  -18.7322 O   0  0  0  0  0  0  0  0  0  0  0  0
   -7.2934    5.4581  -12.4901 C   0  0  0  0  0  0  0  0  0  0  0  0
   -6.2236    6.3503  -12.5360 C   0  0  0  0  0  0  0  0  0  0  0  0
   -5.6776    6.7859  -11.3447 C   0  0  0  0  0  0  0  0  0  0  0  0
   -6.2056    6.4085  -10.1072 C   0  0  0  0  0  0  0  0  0  0  0  0
   -7.3453    5.5998  -10.0229 C   0  0  0  0  0  0  0  0  0  0  0  0
   -7.8640    5.1075  -11.2489 C   0  0  0  0  0  0  0  0  0  0  0  0
   -5.2634    6.9169   -9.0555 C   0  0  0  0  0  0  0  0  0  0  0  0
   -4.3956    7.9234   -9.7216 N   0  0  0  0  0  0  0  0  0  0  0  0
   -4.4345    7.5890  -11.1602 C   0  0  0  0  0  0  0  0  0  0  0  0
   -3.4412    7.8614   -9.3671 H   0  0  0  0  0  0  0  0  0  0  0  0
   -8.0280    5.2959   -8.7405 C   0  0  0  0  0  0  0  0  0  0  0  0
   -8.2639    4.0519   -8.2737 C   0  0  0  0  0  0  0  0  0  0  0  0
   -9.0547    3.8222   -7.0025 C   0  0  0  0  0  0  0  0  0  0  0  0
   -8.4215    4.8717   -5.6650 S   0  0  0  0  0  0  0  0  0  0  0  0
   -9.5415    5.2504   -4.8169 O   0  0  0  0  0  0  0  0  0  0  0  0
   -7.2211    4.3060   -5.0604 O   0  0  0  0  0  0  0  0  0  0  0  0
   -7.9171    6.3681   -6.5074 C   0  0  0  0  0  0  0  0  0  0  0  0
   -8.5394    6.4327   -7.8901 C   0  0  0  0  0  0  0  0  0  0  0  0
 18 19  1  0  0  0
 19  5  1  0  0  0
  5  6  2  0  0  0
  6  7  1  0  0  0
  7  8  2  0  0  0
  8  9  1  0  0  0
  9 10  2  0  0  0
  9 11  1  0  0  0
 11 12  1  0  0  0
 12 13  1  0  0  0
 12 14  2  0  0  0
 14  1  1  0  0  0
  1  2  2  0  0  0
  1  3  1  0  0  0
  3 20  1  0  0  0
 20 21  2  0  0  0
 21 22  1  0  0  0
 22 23  2  0  0  0
 23 24  1  0  0  0
 24 30  1  0  0  0
 30 31  2  0  0  0
 31 32  1  0  0  0
 32 33  1  0  0  0
 33 34  2  0  0  0
 33 35  2  0  0  0
 33 36  1  0  0  0
 36 37  1  0  0  0
 24 25  2  0  0  0
 23 26  1  0  0  0
 26 27  1  0  0  0
 27 28  1  0  0  0
 10  5  1  0  0  0
 25 20  1  0  0  0
 14  8  1  0  0  0
 28 22  1  0  0  0
 37 30  1  0  0  0
 11 15  1  0  0  0
 13 16  1  0  0  0
 13 17  1  0  0  0
  3  4  1  0  0  0
 27 29  1  0  0  0
M  END
> <minimizedAffinity>
-6.49811

> <minimizedRMSD>
1.05610

$$$$
P1279


 37 41  0  0  0  0  0  0  0  0999 V2000
   -8.3581    4.6331  -14.7400 C   0  0  0  0  0  0  0  0  0  0  0  0
   -9.0752    5.1931  -14.0105 O   0  0  0  0  0  0  0  0  0  0  0  0
   -7.2559    3.6009  -14.4565 N   0  0  0  0  0  0  0  0  0  0  0  0
   -6.8376    3.2140  -15.2594 H   0  0  0  0  0  0  0  0  0  0  0  0
   -4.5314    5.6500  -18.2331 C   0  0  0  0  0  0  0  0  0  0  0  0
   -4.6962    6.2702  -16.9897 C   0  0  0  0  0  0  0  0  0  0  0  0
   -5.9043    6.2078  -16.2912 C   0  0  0  0  0  0  0  0  0  0  0  0
   -6.9323    5.4541  -16.8655 C   0  0  0  0  0  0  0  0  0  0  0  0
   -6.7548    4.7741  -18.0638 C   0  0  0  0  0  0  0  0  0  0  0  0
   -5.5713    4.9037  -18.7986 C   0  0  0  0  0  0  0  0  0  0  0  0
   -7.8098    3.9337  -18.3360 N   0  0  0  0  0  0  0  0  0  0  0  0
   -8.7413    3.9192  -17.4253 C   0  0  0  0  0  0  0  0  0  0  0  0
   -9.8299    3.1881  -17.6210 N   0  0  0  0  0  0  0  0  0  0  0  0
   -8.5645    5.2221  -16.4098 S   0  0  0  0  0  0  0  0  0  0  0  0
   -7.8570    3.3871  -19.1534 H   0  0  0  0  0  0  0  0  0  0  0  0
   -9.8095    2.4348  -18.2545 H   0  0  0  0  0  0  0  0  0  0  0  0
  -10.6585    3.3986  -17.1329 H   0  0  0  0  0  0  0  0  0  0  0  0
   -2.9425    4.9978  -19.8766 C   0  0  0  0  0  0  0  0  0  0  0  0
   -3.2875    5.8265  -18.7762 O   0  0  0  0  0  0  0  0  0  0  0  0
   -6.7544    3.1255  -13.2547 C   0  0  0  0  0  0  0  0  0  0  0  0
   -5.4882    2.5344  -13.2617 C   0  0  0  0  0  0  0  0  0  0  0  0
   -4.8644    2.3253  -12.0500 C   0  0  0  0  0  0  0  0  0  0  0  0
   -5.4703    2.7116  -10.8585 C   0  0  0  0  0  0  0  0  0  0  0  0
   -6.7370    3.2724  -10.8261 C   0  0  0  0  0  0  0  0  0  0  0  0
   -7.3933    3.4499  -12.0465 C   0  0  0  0  0  0  0  0  0  0  0  0
   -4.5552    2.3868   -9.7361 C   0  0  0  0  0  0  0  0  0  0  0  0
   -3.2309    2.1044  -10.3534 N   0  0  0  0  0  0  0  0  0  0  0  0
   -3.5288    1.7309  -11.7593 C   0  0  0  0  0  0  0  0  0  0  0  0
   -2.7672    1.3355   -9.8695 H   0  0  0  0  0  0  0  0  0  0  0  0
   -7.3327    3.7782   -9.5822 C   0  0  0  0  0  0  0  0  0  0  0  0
   -8.1746    3.0071   -8.8730 C   0  0  0  0  0  0  0  0  0  0  0  0
   -8.8610    3.3455   -7.5765 C   0  0  0  0  0  0  0  0  0  0  0  0
   -8.3992    4.9585   -6.9393 S   0  0  0  0  0  0  0  0  0  0  0  0
   -9.5738    5.5936   -6.3620 O   0  0  0  0  0  0  0  0  0  0  0  0
   -7.1858    4.8707   -6.1432 O   0  0  0  0  0  0  0  0  0  0  0  0
   -8.0094    5.8810   -8.4003 C   0  0  0  0  0  0  0  0  0  0  0  0
   -6.9418    5.1822   -9.2112 C   0  0  0  0  0  0  0  0  0  0  0  0
 18 19  1  0  0  0
 19  5  1  0  0  0
  5  6  2  0  0  0
  6  7  1  0  0  0
  7  8  2  0  0  0
  8  9  1  0  0  0
  9 10  2  0  0  0
  9 11  1  0  0  0
 11 12  1  0  0  0
 12 13  1  0  0  0
 12 14  2  0  0  0
 14  1  1  0  0  0
  1  2  2  0  0  0
  1  3  1  0  0  0
  3 20  1  0  0  0
 20 21  2  0  0  0
 21 22  1  0  0  0
 22 23  2  0  0  0
 23 24  1  0  0  0
 24 30  1  0  0  0
 30 31  2  0  0  0
 31 32  1  0  0  0
 32 33  1  0  0  0
 33 34  2  0  0  0
 33 35  2  0  0  0
 33 36  1  0  0  0
 36 37  1  0  0  0
 24 25  2  0  0  0
 23 26  1  0  0  0
 26 27  1  0  0  0
 27 28  1  0  0  0
 10  5  1  0  0  0
 25 20  1  0  0  0
 14  8  1  0  0  0
 28 22  1  0  0  0
 37 30  1  0  0  0
 11 15  1  0  0  0
 13 16  1  0  0  0
 13 17  1  0  0  0
  3  4  1  0  0  0
 27 29  1  0  0  0
M  END
> <minimizedAffinity>
-7.57343

> <minimizedRMSD>
0.47292

$$$$
P1317


 37 41  0  0  0  0  0  0  0  0999 V2000
   -6.9825    3.8550  -12.4428 C   0  0  0  0  0  0  0  0  0  0  0  0
   -4.2738    5.1405  -17.9083 C   0  0  0  0  0  0  0  0  0  0  0  0
   -5.4771    5.0386  -18.6289 C   0  0  0  0  0  0  0  0  0  0  0  0
   -6.6925    5.0031  -17.9190 C   0  0  0  0  0  0  0  0  0  0  0  0
   -6.6467    5.1732  -16.5454 C   0  0  0  0  0  0  0  0  0  0  0  0
   -5.4837    5.0805  -15.7842 C   0  0  0  0  0  0  0  0  0  0  0  0
   -4.2757    5.1452  -16.5073 C   0  0  0  0  0  0  0  0  0  0  0  0
   -5.7004    4.8124  -14.4045 C   0  0  0  0  0  0  0  0  0  0  0  0
   -6.9665    4.4062  -13.8688 C   0  0  0  0  0  0  0  0  0  0  0  0
   -8.1503    4.4159  -14.6398 C   0  0  0  0  0  0  0  0  0  0  0  0
   -8.2351    5.4899  -16.0458 S   0  0  0  0  0  0  0  0  0  0  0  0
   -8.7960    4.5894  -17.3579 C   0  0  0  0  0  0  0  0  0  0  0  0
  -10.0482    4.0948  -17.4318 N   0  0  0  0  0  0  0  0  0  0  0  0
   -7.9669    4.6645  -18.3792 N   0  0  0  0  0  0  0  0  0  0  0  0
  -10.6152    4.0684  -16.6275 H   0  0  0  0  0  0  0  0  0  0  0  0
  -10.3954    3.7600  -18.2901 H   0  0  0  0  0  0  0  0  0  0  0  0
   -2.9184    4.9742  -19.8478 C   0  0  0  0  0  0  0  0  0  0  0  0
   -3.0158    5.1753  -18.4485 O   0  0  0  0  0  0  0  0  0  0  0  0
   -6.1894    2.4962  -12.3712 C   0  0  0  0  0  0  0  0  0  0  0  0
   -6.5049    1.5433  -12.9768 O   0  0  0  0  0  0  0  0  0  0  0  0
   -4.9910    2.7235  -11.3943 N   0  0  0  0  0  0  0  0  0  0  0  0
   -4.9849    3.5999  -10.9460 H   0  0  0  0  0  0  0  0  0  0  0  0
   -3.8924    1.8572  -11.0431 C   0  0  0  0  0  0  0  0  0  0  0  0
   -2.7958    1.9541  -12.0982 C   0  0  0  0  0  0  0  0  0  0  0  0
   -3.3586    2.2100   -9.6614 C   0  0  0  0  0  0  0  0  0  0  0  0
   -8.3702    3.6833  -11.9667 N   0  0  0  0  0  0  0  0  0  0  0  0
   -9.1335    3.4816  -12.5549 H   0  0  0  0  0  0  0  0  0  0  0  0
   -8.4717    3.8428  -10.5666 C   0  0  0  0  0  0  0  0  0  0  0  0
   -8.0301    5.0253   -9.9422 C   0  0  0  0  0  0  0  0  0  0  0  0
   -8.0969    5.1768   -8.5522 C   0  0  0  0  0  0  0  0  0  0  0  0
   -8.6046    4.1293   -7.8055 C   0  0  0  0  0  0  0  0  0  0  0  0
   -9.0175    2.9538   -8.4165 C   0  0  0  0  0  0  0  0  0  0  0  0
   -8.9553    2.7919   -9.7861 C   0  0  0  0  0  0  0  0  0  0  0  0
   -9.4470    1.9777   -7.3807 C   0  0  0  0  0  0  0  0  0  0  0  0
   -9.5790    2.7611   -6.1265 N   0  0  0  0  0  0  0  0  0  0  0  0
   -8.8135    4.0107   -6.3334 C   0  0  0  0  0  0  0  0  0  0  0  0
   -9.1936    2.2371   -5.3408 H   0  0  0  0  0  0  0  0  0  0  0  0
 17 18  1  0  0  0
 18  2  1  0  0  0
  2  3  2  0  0  0
  3  4  1  0  0  0
  4  5  2  0  0  0
  5  6  1  0  0  0
  6  7  2  0  0  0
  6  8  1  0  0  0
  8  9  2  0  0  0
  9  1  1  0  0  0
  1 26  1  0  0  0
 26 28  1  0  0  0
 28 29  2  0  0  0
 29 30  1  0  0  0
 30 31  2  0  0  0
 31 32  1  0  0  0
 32 33  2  0  0  0
 32 34  1  0  0  0
 34 35  1  0  0  0
 35 36  1  0  0  0
  1 19  1  0  0  0
 19 20  2  0  0  0
 19 21  1  0  0  0
 21 23  1  0  0  0
 23 24  1  0  0  0
 23 25  1  0  0  0
  9 10  1  0  0  0
 10 11  2  0  0  0
 11 12  1  0  0  0
 12 13  1  0  0  0
 12 14  2  0  0  0
  7  2  1  0  0  0
 33 28  1  0  0  0
 14  4  1  0  0  0
 11  5  1  0  0  0
 36 31  1  0  0  0
 26 27  1  0  0  0
 35 37  1  0  0  0
 21 22  1  0  0  0
 13 15  1  0  0  0
 13 16  1  0  0  0
M  END
> <minimizedAffinity>
-8.86653

> <minimizedRMSD>
0.52032

$$$$
P1318


 37 41  0  0  0  0  0  0  0  0999 V2000
   -8.3903    5.8901  -12.3937 C   0  0  0  0  0  0  0  0  0  0  0  0
   -4.7018    5.2959  -17.5156 C   0  0  0  0  0  0  0  0  0  0  0  0
   -5.7817    4.9901  -18.3641 C   0  0  0  0  0  0  0  0  0  0  0  0
   -7.0523    4.7559  -17.7961 C   0  0  0  0  0  0  0  0  0  0  0  0
   -7.1648    4.7994  -16.4174 C   0  0  0  0  0  0  0  0  0  0  0  0
   -6.1812    5.3016  -15.5691 C   0  0  0  0  0  0  0  0  0  0  0  0
   -4.9089    5.4980  -16.1472 C   0  0  0  0  0  0  0  0  0  0  0  0
   -6.6224    5.5465  -14.2434 C   0  0  0  0  0  0  0  0  0  0  0  0
   -8.0001    5.5587  -13.8447 C   0  0  0  0  0  0  0  0  0  0  0  0
   -9.0534    5.1886  -14.7295 C   0  0  0  0  0  0  0  0  0  0  0  0
   -8.6481    4.0651  -16.0297 S   0  0  0  0  0  0  0  0  0  0  0  0
   -9.2457    4.4918  -17.5285 C   0  0  0  0  0  0  0  0  0  0  0  0
  -10.5536    4.5312  -17.8174 N   0  0  0  0  0  0  0  0  0  0  0  0
   -8.2857    4.5749  -18.4258 N   0  0  0  0  0  0  0  0  0  0  0  0
  -11.2195    4.4636  -17.0954 H   0  0  0  0  0  0  0  0  0  0  0  0
  -10.8486    4.6279  -18.7517 H   0  0  0  0  0  0  0  0  0  0  0  0
   -2.9504    4.6795  -18.9857 C   0  0  0  0  0  0  0  0  0  0  0  0
   -3.4075    5.4979  -17.9162 O   0  0  0  0  0  0  0  0  0  0  0  0
   -8.2095    7.4245  -12.0629 C   0  0  0  0  0  0  0  0  0  0  0  0
   -7.1753    7.9045  -11.7944 O   0  0  0  0  0  0  0  0  0  0  0  0
   -9.6228    8.0786  -12.2048 N   0  0  0  0  0  0  0  0  0  0  0  0
  -10.3572    7.4430  -12.3656 H   0  0  0  0  0  0  0  0  0  0  0  0
  -10.0250    9.4640  -12.1382 C   0  0  0  0  0  0  0  0  0  0  0  0
   -9.4946   10.2198  -13.3514 C   0  0  0  0  0  0  0  0  0  0  0  0
  -11.5393    9.5820  -12.0317 C   0  0  0  0  0  0  0  0  0  0  0  0
   -7.5839    5.0124  -11.5345 N   0  0  0  0  0  0  0  0  0  0  0  0
   -6.7509    4.6369  -11.9010 H   0  0  0  0  0  0  0  0  0  0  0  0
   -7.9385    4.6840  -10.2254 C   0  0  0  0  0  0  0  0  0  0  0  0
   -7.9196    5.5877   -9.1466 C   0  0  0  0  0  0  0  0  0  0  0  0
   -8.2479    5.1889   -7.8450 C   0  0  0  0  0  0  0  0  0  0  0  0
   -8.6878    3.8970   -7.6467 C   0  0  0  0  0  0  0  0  0  0  0  0
   -8.7909    3.0142   -8.7091 C   0  0  0  0  0  0  0  0  0  0  0  0
   -8.4126    3.3834   -9.9900 C   0  0  0  0  0  0  0  0  0  0  0  0
   -9.3267    1.7124   -8.2234 C   0  0  0  0  0  0  0  0  0  0  0  0
   -9.7088    1.9309   -6.8073 N   0  0  0  0  0  0  0  0  0  0  0  0
   -9.1283    3.2223   -6.3944 C   0  0  0  0  0  0  0  0  0  0  0  0
   -9.3390    1.1793   -6.2254 H   0  0  0  0  0  0  0  0  0  0  0  0
 17 18  1  0  0  0
 18  2  1  0  0  0
  2  3  2  0  0  0
  3  4  1  0  0  0
  4  5  2  0  0  0
  5  6  1  0  0  0
  6  7  2  0  0  0
  6  8  1  0  0  0
  8  9  2  0  0  0
  9  1  1  0  0  0
  1 26  1  0  0  0
 26 28  1  0  0  0
 28 29  2  0  0  0
 29 30  1  0  0  0
 30 31  2  0  0  0
 31 32  1  0  0  0
 32 33  2  0  0  0
 32 34  1  0  0  0
 34 35  1  0  0  0
 35 36  1  0  0  0
  1 19  1  0  0  0
 19 20  2  0  0  0
 19 21  1  0  0  0
 21 23  1  0  0  0
 23 24  1  0  0  0
 23 25  1  0  0  0
  9 10  1  0  0  0
 10 11  2  0  0  0
 11 12  1  0  0  0
 12 13  1  0  0  0
 12 14  2  0  0  0
  7  2  1  0  0  0
 33 28  1  0  0  0
 14  4  1  0  0  0
 11  5  1  0  0  0
 36 31  1  0  0  0
 26 27  1  0  0  0
 35 37  1  0  0  0
 21 22  1  0  0  0
 13 15  1  0  0  0
 13 16  1  0  0  0
M  END
> <minimizedAffinity>
-8.66951

> <minimizedRMSD>
1.73882

$$$$
P1319


 30 32  0  0  0  0  0  0  0  0999 V2000
   -5.3898    5.6815  -17.9778 C   0  0  0  0  0  0  0  0  0  0  0  0
   -4.1597    5.9726  -17.3525 C   0  0  0  0  0  0  0  0  0  0  0  0
   -4.0218    5.9737  -15.9610 C   0  0  0  0  0  0  0  0  0  0  0  0
   -5.1137    5.7329  -15.1208 C   0  0  0  0  0  0  0  0  0  0  0  0
   -6.3401    5.4700  -15.7343 C   0  0  0  0  0  0  0  0  0  0  0  0
   -6.4538    5.3402  -17.1192 C   0  0  0  0  0  0  0  0  0  0  0  0
   -7.6905    4.8267  -17.4699 N   0  0  0  0  0  0  0  0  0  0  0  0
   -8.4410    4.5143  -16.4461 C   0  0  0  0  0  0  0  0  0  0  0  0
   -9.5932    3.8874  -16.6779 N   0  0  0  0  0  0  0  0  0  0  0  0
   -7.9588    5.4629  -15.1311 S   0  0  0  0  0  0  0  0  0  0  0  0
   -7.9783    4.7077  -18.4039 H   0  0  0  0  0  0  0  0  0  0  0  0
   -9.7136    3.3689  -17.5061 H   0  0  0  0  0  0  0  0  0  0  0  0
  -10.3244    3.9425  -16.0210 H   0  0  0  0  0  0  0  0  0  0  0  0
   -7.7544    4.3947  -13.6845 C   0  0  0  0  0  0  0  0  0  0  0  0
   -7.2911    3.3402  -13.8343 O   0  0  0  0  0  0  0  0  0  0  0  0
   -8.2946    5.0771  -12.4112 N   0  0  0  0  0  0  0  0  0  0  0  0
   -8.7110    5.9567  -12.5600 H   0  0  0  0  0  0  0  0  0  0  0  0
   -8.2891    4.6491  -11.0781 C   0  0  0  0  0  0  0  0  0  0  0  0
   -8.0024    5.6156  -10.1015 C   0  0  0  0  0  0  0  0  0  0  0  0
   -8.0209    5.2928   -8.7417 C   0  0  0  0  0  0  0  0  0  0  0  0
   -8.3725    4.0080   -8.3464 C   0  0  0  0  0  0  0  0  0  0  0  0
   -8.6936    3.0589   -9.3108 C   0  0  0  0  0  0  0  0  0  0  0  0
   -9.1205    1.8609   -8.8903 F   0  0  0  0  0  0  0  0  0  0  0  0
   -8.6223    3.3536  -10.6781 C   0  0  0  0  0  0  0  0  0  0  0  0
   -3.0680    6.4107  -18.0640 O   0  0  0  0  0  0  0  0  0  0  0  0
   -2.1148    5.3847  -18.3175 C   0  0  0  0  0  0  0  0  0  0  0  0
   -5.5828    5.8677  -19.4509 C   0  0  0  0  0  0  0  0  0  0  0  0
   -4.9350    7.6471  -20.9478 C   0  0  0  0  0  0  0  0  0  0  0  0
   -5.7204    7.2992  -19.7736 N   0  0  0  0  0  0  0  0  0  0  0  0
   -6.7023    7.5072  -19.9555 H   0  0  0  0  0  0  0  0  0  0  0  0
 28 29  1  0  0  0
 29 27  1  0  0  0
 27  1  1  0  0  0
  1  2  2  0  0  0
  2 25  1  0  0  0
 25 26  1  0  0  0
  2  3  1  0  0  0
  3  4  2  0  0  0
  4  5  1  0  0  0
  5  6  2  0  0  0
  6  7  1  0  0  0
  7  8  1  0  0  0
  8  9  1  0  0  0
  8 10  2  0  0  0
 10 14  1  0  0  0
 14 15  2  0  0  0
 14 16  1  0  0  0
 16 18  1  0  0  0
 18 19  2  0  0  0
 19 20  1  0  0  0
 20 21  2  0  0  0
 21 22  1  0  0  0
 22 23  1  0  0  0
 22 24  2  0  0  0
  6  1  1  0  0  0
 24 18  1  0  0  0
 10  5  1  0  0  0
 29 30  1  0  0  0
  7 11  1  0  0  0
  9 12  1  0  0  0
  9 13  1  0  0  0
 16 17  1  0  0  0
M  END
> <minimizedAffinity>
-6.57491

> <minimizedRMSD>
0.53378

$$$$
P1348


 39 43  0  0  0  0  0  0  0  0999 V2000
   -8.0113    4.2579  -13.6987 C   0  0  0  0  0  0  0  0  0  0  0  0
   -8.0600    5.3512  -15.1353 S   0  0  0  0  0  0  0  0  0  0  0  0
   -8.6203    4.4020  -16.4070 C   0  0  0  0  0  0  0  0  0  0  0  0
   -9.8725    4.0457  -16.6818 N   0  0  0  0  0  0  0  0  0  0  0  0
   -7.7476    4.3661  -17.3697 N   0  0  0  0  0  0  0  0  0  0  0  0
   -6.5049    4.8541  -17.0426 C   0  0  0  0  0  0  0  0  0  0  0  0
   -5.3675    4.8698  -17.8623 C   0  0  0  0  0  0  0  0  0  0  0  0
   -4.1360    5.3904  -17.3894 C   0  0  0  0  0  0  0  0  0  0  0  0
   -4.0986    5.8665  -16.0514 C   0  0  0  0  0  0  0  0  0  0  0  0
   -5.2678    5.8584  -15.2414 C   0  0  0  0  0  0  0  0  0  0  0  0
   -6.4599    5.3429  -15.7467 C   0  0  0  0  0  0  0  0  0  0  0  0
   -2.8842    6.4766  -15.3707 C   0  0  0  0  0  0  0  0  0  0  0  0
   -1.5641    5.7882  -15.6664 C   0  0  0  0  0  0  0  0  0  0  0  0
   -0.9288    6.2674  -16.9611 C   0  0  0  0  0  0  0  0  0  0  0  0
   -1.9109    6.5047  -18.1036 C   0  0  0  0  0  0  0  0  0  0  0  0
   -2.9064    5.3460  -18.3196 C   0  0  0  0  0  0  0  0  0  0  0  0
   -3.2429    5.3399  -19.8268 C   0  0  0  0  0  0  0  0  0  0  0  0
  -10.5558    4.0627  -15.9733 H   0  0  0  0  0  0  0  0  0  0  0  0
  -10.1156    3.7652  -17.5936 H   0  0  0  0  0  0  0  0  0  0  0  0
   -7.9605    4.0161  -18.2649 H   0  0  0  0  0  0  0  0  0  0  0  0
   -5.6357    3.6298  -13.1840 N   0  0  0  0  0  0  0  0  0  0  0  0
   -7.0245    3.0461  -13.5709 C   0  0  0  0  0  0  0  0  0  0  0  0
   -7.3705    1.9372  -13.6977 O   0  0  0  0  0  0  0  0  0  0  0  0
   -5.5771    4.6119  -13.2184 H   0  0  0  0  0  0  0  0  0  0  0  0
   -3.7861    2.2179  -13.9508 C   0  0  0  0  0  0  0  0  0  0  0  0
   -4.4179    2.9646  -12.7825 C   0  0  0  0  0  0  0  0  0  0  0  0
   -3.4369    3.9642  -12.1819 C   0  0  0  0  0  0  0  0  0  0  0  0
   -7.7712    5.1839  -12.5408 N   0  0  0  0  0  0  0  0  0  0  0  0
   -7.3781    6.0645  -12.7387 H   0  0  0  0  0  0  0  0  0  0  0  0
   -8.0618    4.8942  -11.2042 C   0  0  0  0  0  0  0  0  0  0  0  0
   -7.8384    5.9326  -10.2658 C   0  0  0  0  0  0  0  0  0  0  0  0
   -8.0204    5.7564   -8.8882 C   0  0  0  0  0  0  0  0  0  0  0  0
   -8.4377    4.5203   -8.4441 C   0  0  0  0  0  0  0  0  0  0  0  0
   -8.6392    3.4764   -9.3390 C   0  0  0  0  0  0  0  0  0  0  0  0
   -8.4336    3.6364  -10.7091 C   0  0  0  0  0  0  0  0  0  0  0  0
   -9.0793    2.2674   -8.5731 C   0  0  0  0  0  0  0  0  0  0  0  0
   -9.4549    2.7712   -7.2218 N   0  0  0  0  0  0  0  0  0  0  0  0
   -8.7350    4.0497   -7.0600 C   0  0  0  0  0  0  0  0  0  0  0  0
   -9.1681    2.1076   -6.5021 H   0  0  0  0  0  0  0  0  0  0  0  0
 25 26  1  0  0  0
 26 27  1  0  0  0
 26 21  1  0  0  0
 21 22  1  0  0  0
 22 23  2  0  0  0
 22  1  1  0  0  0
  1 28  1  0  0  0
 28 30  1  0  0  0
 30 31  2  0  0  0
 31 32  1  0  0  0
 32 33  2  0  0  0
 33 34  1  0  0  0
 34 35  2  0  0  0
 34 36  1  0  0  0
 36 37  1  0  0  0
 37 38  1  0  0  0
  1  2  1  0  0  0
  2  3  2  0  0  0
  3  4  1  0  0  0
  3  5  1  0  0  0
  5  6  1  0  0  0
  6  7  2  0  0  0
  7  8  1  0  0  0
  8  9  2  0  0  0
  9 10  1  0  0  0
 10 11  2  0  0  0
  9 12  1  0  0  0
 12 13  1  0  0  0
 13 14  1  0  0  0
 14 15  1  0  0  0
 15 16  1  0  0  0
 16 17  1  0  0  0
 35 30  1  0  0  0
  2 11  1  0  0  0
 38 33  1  0  0  0
 11  6  1  0  0  0
 16  8  1  0  0  0
 21 24  1  0  0  0
 28 29  1  0  0  0
 37 39  1  0  0  0
  4 18  1  0  0  0
  4 19  1  0  0  0
  5 20  1  0  0  0
M  END
> <minimizedAffinity>
-8.69835

> <minimizedRMSD>
0.35709

$$$$
P1396


 29 31  0  0  0  0  0  0  0  0999 V2000
   -5.1382    5.1509  -18.9414 C   0  0  0  0  0  0  0  0  0  0  0  0
   -5.1668    5.2010  -17.6317 N   0  0  0  0  0  0  0  0  0  0  0  0
   -6.4602    4.8636  -17.2699 C   0  0  0  0  0  0  0  0  0  0  0  0
   -7.1005    4.7718  -16.0236 C   0  0  0  0  0  0  0  0  0  0  0  0
   -8.4532    4.3817  -15.9568 C   0  0  0  0  0  0  0  0  0  0  0  0
   -9.1655    4.0861  -17.1187 C   0  0  0  0  0  0  0  0  0  0  0  0
   -8.5573    4.1731  -18.3711 C   0  0  0  0  0  0  0  0  0  0  0  0
   -7.2169    4.5677  -18.3987 C   0  0  0  0  0  0  0  0  0  0  0  0
   -6.3606    4.7884  -19.4412 N   0  0  0  0  0  0  0  0  0  0  0  0
   -6.5860    4.7010  -20.3955 H   0  0  0  0  0  0  0  0  0  0  0  0
   -6.3998    5.1510  -14.7843 C   0  0  0  0  0  0  0  0  0  0  0  0
   -6.2822    6.2805  -14.5115 O   0  0  0  0  0  0  0  0  0  0  0  0
   -6.0151    3.8811  -13.9874 N   0  0  0  0  0  0  0  0  0  0  0  0
   -6.2895    3.0331  -14.4055 H   0  0  0  0  0  0  0  0  0  0  0  0
   -5.3450    3.7433  -12.7773 C   0  0  0  0  0  0  0  0  0  0  0  0
   -4.8460    4.8424  -12.0826 C   0  0  0  0  0  0  0  0  0  0  0  0
   -4.2195    4.6635  -10.8478 C   0  0  0  0  0  0  0  0  0  0  0  0
   -4.0949    3.3849  -10.3030 C   0  0  0  0  0  0  0  0  0  0  0  0
   -4.5821    2.2701  -10.9974 C   0  0  0  0  0  0  0  0  0  0  0  0
   -5.2048    2.4629  -12.2408 C   0  0  0  0  0  0  0  0  0  0  0  0
   -4.4925    0.8907  -10.4018 C   0  0  0  0  0  0  0  0  0  0  0  0
   -5.8050    0.4152   -9.9698 N   0  0  0  0  0  0  0  0  0  0  0  0
   -6.1756    1.0421   -9.2556 H   0  0  0  0  0  0  0  0  0  0  0  0
   -5.7159   -0.5248   -9.5839 H   0  0  0  0  0  0  0  0  0  0  0  0
   -4.1493    5.4093  -19.8194 N   0  0  0  0  0  0  0  0  0  0  0  0
   -4.4060    5.7231  -20.7166 H   0  0  0  0  0  0  0  0  0  0  0  0
   -2.3566    3.8156  -19.2310 C   0  0  0  0  0  0  0  0  0  0  0  0
   -2.7299    5.2584  -19.5380 C   0  0  0  0  0  0  0  0  0  0  0  0
   -2.2257    6.2309  -18.4817 C   0  0  0  0  0  0  0  0  0  0  0  0
 27 28  1  0  0  0
 28 29  1  0  0  0
 28 25  1  0  0  0
 25  1  1  0  0  0
  1  2  2  0  0  0
  2  3  1  0  0  0
  3  4  2  0  0  0
  4 11  1  0  0  0
 11 12  2  0  0  0
 11 13  1  0  0  0
 13 15  1  0  0  0
 15 16  2  0  0  0
 16 17  1  0  0  0
 17 18  2  0  0  0
 18 19  1  0  0  0
 19 21  1  0  0  0
 21 22  1  0  0  0
 19 20  2  0  0  0
  4  5  1  0  0  0
  5  6  2  0  0  0
  6  7  1  0  0  0
  7  8  2  0  0  0
  8  9  1  0  0  0
  9  1  1  0  0  0
  8  3  1  0  0  0
 20 15  1  0  0  0
 25 26  1  0  0  0
 13 14  1  0  0  0
 22 23  1  0  0  0
 22 24  1  0  0  0
  9 10  1  0  0  0
M  END
> <minimizedAffinity>
-7.53662

> <minimizedRMSD>
0.70935

$$$$
P1397


 34 37  0  0  0  0  0  0  0  0999 V2000
   -4.9272    5.3348  -18.8375 C   0  0  0  0  0  0  0  0  0  0  0  0
   -5.1670    5.1697  -17.5477 N   0  0  0  0  0  0  0  0  0  0  0  0
   -6.5163    4.8395  -17.4477 C   0  0  0  0  0  0  0  0  0  0  0  0
   -7.3582    4.6408  -16.3317 C   0  0  0  0  0  0  0  0  0  0  0  0
   -8.7211    4.3422  -16.5712 C   0  0  0  0  0  0  0  0  0  0  0  0
   -9.1990    4.2141  -17.8747 C   0  0  0  0  0  0  0  0  0  0  0  0
  -10.8487    3.9715  -18.2205 Cl  0  0  0  0  0  0  0  0  0  0  0  0
   -8.3722    4.3569  -18.9747 C   0  0  0  0  0  0  0  0  0  0  0  0
   -7.0579    4.7026  -18.7149 C   0  0  0  0  0  0  0  0  0  0  0  0
   -6.0415    5.0060  -19.5647 N   0  0  0  0  0  0  0  0  0  0  0  0
   -6.0970    4.9919  -20.5475 H   0  0  0  0  0  0  0  0  0  0  0  0
   -3.7954    5.7174  -19.5095 N   0  0  0  0  0  0  0  0  0  0  0  0
   -3.8872    7.0851  -19.9335 N   0  0  0  0  0  0  0  0  0  0  0  0
   -3.0349    7.3452  -20.4299 H   0  0  0  0  0  0  0  0  0  0  0  0
   -4.0027    7.6868  -19.1180 H   0  0  0  0  0  0  0  0  0  0  0  0
   -2.3840    3.7028  -19.2955 C   0  0  0  0  0  0  0  0  0  0  0  0
   -2.4711    5.2105  -19.1135 C   0  0  0  0  0  0  0  0  0  0  0  0
   -2.0387    5.6787  -17.7320 C   0  0  0  0  0  0  0  0  0  0  0  0
   -6.8722    4.7654  -14.9214 C   0  0  0  0  0  0  0  0  0  0  0  0
   -6.5786    5.8319  -14.5414 O   0  0  0  0  0  0  0  0  0  0  0  0
   -6.8827    3.4036  -14.1817 N   0  0  0  0  0  0  0  0  0  0  0  0
   -7.2477    2.6535  -14.7044 H   0  0  0  0  0  0  0  0  0  0  0  0
   -6.4602    3.0686  -12.8988 C   0  0  0  0  0  0  0  0  0  0  0  0
   -5.1710    2.5661  -12.7317 C   0  0  0  0  0  0  0  0  0  0  0  0
   -4.7195    2.2163  -11.4614 C   0  0  0  0  0  0  0  0  0  0  0  0
   -5.5630    2.3621  -10.3584 C   0  0  0  0  0  0  0  0  0  0  0  0
   -6.8686    2.8575  -10.5067 C   0  0  0  0  0  0  0  0  0  0  0  0
   -7.3043    3.2127  -11.7926 C   0  0  0  0  0  0  0  0  0  0  0  0
   -7.7200    2.9858   -9.3244 C   0  0  0  0  0  0  0  0  0  0  0  0
   -7.9143    4.0726   -8.5960 N   0  0  0  0  0  0  0  0  0  0  0  0
   -8.7898    3.7302   -7.5968 N   0  0  0  0  0  0  0  0  0  0  0  0
   -9.1382    2.4572   -7.6894 N   0  0  0  0  0  0  0  0  0  0  0  0
   -8.4679    1.9882   -8.7532 N   0  0  0  0  0  0  0  0  0  0  0  0
   -8.5074    1.0595   -9.0777 H   0  0  0  0  0  0  0  0  0  0  0  0
 16 17  1  0  0  0
 17 18  1  0  0  0
 17 12  1  0  0  0
 12 13  1  0  0  0
 12  1  1  0  0  0
  1  2  2  0  0  0
  2  3  1  0  0  0
  3  4  2  0  0  0
  4 19  1  0  0  0
 19 20  2  0  0  0
 19 21  1  0  0  0
 21 23  1  0  0  0
 23 24  2  0  0  0
 24 25  1  0  0  0
 25 26  2  0  0  0
 26 27  1  0  0  0
 27 29  1  0  0  0
 29 30  2  0  0  0
 30 31  1  0  0  0
 31 32  2  0  0  0
 32 33  1  0  0  0
 27 28  2  0  0  0
  4  5  1  0  0  0
  5  6  2  0  0  0
  6  7  1  0  0  0
  6  8  1  0  0  0
  8  9  2  0  0  0
  9 10  1  0  0  0
 10  1  1  0  0  0
  9  3  1  0  0  0
 28 23  1  0  0  0
 33 29  1  0  0  0
 13 14  1  0  0  0
 13 15  1  0  0  0
 21 22  1  0  0  0
 33 34  1  0  0  0
 10 11  1  0  0  0
M  END
> <minimizedAffinity>
-8.43266

> <minimizedRMSD>
2.98351

$$$$
P1407


 31 34  0  0  0  0  0  0  0  0999 V2000
   -4.5435    5.2860  -19.0201 C   0  0  0  0  0  0  0  0  0  0  0  0
   -5.7500    5.1363  -19.6313 N   0  0  0  0  0  0  0  0  0  0  0  0
   -6.6443    4.7991  -18.6330 C   0  0  0  0  0  0  0  0  0  0  0  0
   -7.9819    4.5075  -18.8087 C   0  0  0  0  0  0  0  0  0  0  0  0
   -8.7421    4.3285  -17.6715 C   0  0  0  0  0  0  0  0  0  0  0  0
  -10.5709    4.2378  -17.9747 Br  0  0  0  0  0  0  0  0  0  0  0  0
   -8.1999    4.3555  -16.3914 C   0  0  0  0  0  0  0  0  0  0  0  0
   -6.8228    4.5915  -16.1873 C   0  0  0  0  0  0  0  0  0  0  0  0
   -6.0598    4.8120  -17.3465 C   0  0  0  0  0  0  0  0  0  0  0  0
   -4.7457    5.0506  -17.5685 N   0  0  0  0  0  0  0  0  0  0  0  0
   -3.7705    5.0408  -16.7792 O   0  0  0  0  0  0  0  0  0  0  0  0
   -5.9459    5.2460  -20.5899 H   0  0  0  0  0  0  0  0  0  0  0  0
   -6.3594    4.6824  -14.7641 C   0  0  0  0  0  0  0  0  0  0  0  0
   -6.7619    5.5914  -14.1496 O   0  0  0  0  0  0  0  0  0  0  0  0
   -5.4731    3.4945  -14.3301 N   0  0  0  0  0  0  0  0  0  0  0  0
   -5.3327    2.8102  -15.0238 H   0  0  0  0  0  0  0  0  0  0  0  0
   -4.8404    3.2337  -13.1178 C   0  0  0  0  0  0  0  0  0  0  0  0
   -5.5694    3.0334  -11.9353 C   0  0  0  0  0  0  0  0  0  0  0  0
   -4.9132    2.7737  -10.7271 C   0  0  0  0  0  0  0  0  0  0  0  0
   -3.5316    2.7105  -10.7332 C   0  0  0  0  0  0  0  0  0  0  0  0
   -2.8072    2.9073  -11.9051 C   0  0  0  0  0  0  0  0  0  0  0  0
   -3.4430    3.1735  -13.1056 C   0  0  0  0  0  0  0  0  0  0  0  0
   -1.3510    2.8212  -11.6012 C   0  0  0  0  0  0  0  0  0  0  0  0
   -1.2669    2.2167  -10.2450 N   0  0  0  0  0  0  0  0  0  0  0  0
   -2.5839    2.4829   -9.6051 C   0  0  0  0  0  0  0  0  0  0  0  0
   -0.5161    2.6504   -9.7079 H   0  0  0  0  0  0  0  0  0  0  0  0
   -3.4294    5.6114  -19.8215 N   0  0  0  0  0  0  0  0  0  0  0  0
   -3.5747    6.2829  -20.5266 H   0  0  0  0  0  0  0  0  0  0  0  0
   -2.0708    3.5610  -19.4253 C   0  0  0  0  0  0  0  0  0  0  0  0
   -2.0716    5.0516  -19.7140 C   0  0  0  0  0  0  0  0  0  0  0  0
   -1.1479    5.8681  -18.8249 C   0  0  0  0  0  0  0  0  0  0  0  0
 29 30  1  0  0  0
 30 31  1  0  0  0
 30 27  1  0  0  0
 27  1  1  0  0  0
  1  2  1  0  0  0
  2  3  1  0  0  0
  3  4  2  0  0  0
  4  5  1  0  0  0
  5  6  1  0  0  0
  5  7  2  0  0  0
  7  8  1  0  0  0
  8 13  1  0  0  0
 13 14  2  0  0  0
 13 15  1  0  0  0
 15 17  1  0  0  0
 17 18  2  0  0  0
 18 19  1  0  0  0
 19 20  2  0  0  0
 20 21  1  0  0  0
 21 22  2  0  0  0
 21 23  1  0  0  0
 23 24  1  0  0  0
 24 25  1  0  0  0
  8  9  2  0  0  0
  9 10  1  0  0  0
 10 11  1  0  0  0
 10  1  2  0  0  0
  9  3  1  0  0  0
 22 17  1  0  0  0
 25 20  1  0  0  0
 27 28  1  0  0  0
  2 12  1  0  0  0
 15 16  1  0  0  0
 24 26  1  0  0  0
M  CHG 1  10   1
M  CHG 1  11  -1
M  END
> <minimizedAffinity>
-7.01868

> <minimizedRMSD>
1.28738

$$$$
P1416


 38 42  0  0  0  0  0  0  0  0999 V2000
   -7.8968    4.9164  -13.6947 N   0  0  0  0  0  0  0  0  0  0  0  0
   -7.0391    5.3293  -14.9301 C   0  0  0  0  0  0  0  0  0  0  0  0
   -6.1999    6.1390  -15.0339 O   0  0  0  0  0  0  0  0  0  0  0  0
   -8.4912    4.1460  -13.8442 H   0  0  0  0  0  0  0  0  0  0  0  0
   -7.4346    4.6408  -16.1861 C   0  0  0  0  0  0  0  0  0  0  0  0
   -8.7883    4.2560  -16.3009 C   0  0  0  0  0  0  0  0  0  0  0  0
   -9.3635    4.0397  -17.5470 C   0  0  0  0  0  0  0  0  0  0  0  0
  -10.6711    3.7671  -17.6293 F   0  0  0  0  0  0  0  0  0  0  0  0
   -8.6438    4.1816  -18.7201 C   0  0  0  0  0  0  0  0  0  0  0  0
   -7.3032    4.5309  -18.5839 C   0  0  0  0  0  0  0  0  0  0  0  0
   -6.3653    4.8177  -19.5326 N   0  0  0  0  0  0  0  0  0  0  0  0
   -5.1865    5.1248  -18.9135 C   0  0  0  0  0  0  0  0  0  0  0  0
   -5.3269    5.0877  -17.6071 N   0  0  0  0  0  0  0  0  0  0  0  0
   -6.6560    4.7469  -17.3685 C   0  0  0  0  0  0  0  0  0  0  0  0
   -6.5139    4.8054  -20.5058 H   0  0  0  0  0  0  0  0  0  0  0  0
   -4.1449    5.4314  -19.7140 N   0  0  0  0  0  0  0  0  0  0  0  0
   -4.3527    5.8020  -20.6021 H   0  0  0  0  0  0  0  0  0  0  0  0
   -2.7419    5.2607  -19.3758 C   0  0  0  0  0  0  0  0  0  0  0  0
   -2.3767    3.7931  -19.2147 C   0  0  0  0  0  0  0  0  0  0  0  0
   -2.2992    6.1116  -18.1972 C   0  0  0  0  0  0  0  0  0  0  0  0
   -8.1033    5.3164   -9.9589 C   0  0  0  0  0  0  0  0  0  0  0  0
   -7.9429    4.6938  -11.2259 C   0  0  0  0  0  0  0  0  0  0  0  0
   -7.9582    5.4631  -12.4095 C   0  0  0  0  0  0  0  0  0  0  0  0
   -8.1661    6.8435  -12.3430 C   0  0  0  0  0  0  0  0  0  0  0  0
   -8.4310    7.4284  -11.1277 C   0  0  0  0  0  0  0  0  0  0  0  0
   -8.4068    6.6883   -9.9590 C   0  0  0  0  0  0  0  0  0  0  0  0
   -8.7456    7.6188   -8.8292 C   0  0  0  0  0  0  0  0  0  0  0  0
   -9.2944    8.8485   -9.4549 N   0  0  0  0  0  0  0  0  0  0  0  0
   -8.7665    8.8510  -10.8377 C   0  0  0  0  0  0  0  0  0  0  0  0
   -8.9794    9.6772   -8.9506 H   0  0  0  0  0  0  0  0  0  0  0  0
   -8.8806    3.1445   -6.9983 C   0  0  0  0  0  0  0  0  0  0  0  0
   -8.8201    3.5349   -8.3303 C   0  0  0  0  0  0  0  0  0  0  0  0
   -8.0009    4.6095   -8.6675 C   0  0  0  0  0  0  0  0  0  0  0  0
   -7.1486    5.1039   -7.6657 C   0  0  0  0  0  0  0  0  0  0  0  0
   -7.2776    4.6446   -6.3688 C   0  0  0  0  0  0  0  0  0  0  0  0
   -8.1600    3.7074   -6.0050 N   0  0  0  0  0  0  0  0  0  0  0  0
  -10.6085    2.5553   -5.5665 C   0  0  0  0  0  0  0  0  0  0  0  0
   -9.8102    2.1780   -6.6836 O   0  0  0  0  0  0  0  0  0  0  0  0
 37 38  1  0  0  0
 38 31  1  0  0  0
 31 32  2  0  0  0
 32 33  1  0  0  0
 33 21  1  0  0  0
 21 22  2  0  0  0
 22 23  1  0  0  0
 23  1  1  0  0  0
  1  2  1  0  0  0
  2  3  2  0  0  0
  2  5  1  0  0  0
  5  6  2  0  0  0
  6  7  1  0  0  0
  7  8  1  0  0  0
  7  9  2  0  0  0
  9 10  1  0  0  0
 10 11  1  0  0  0
 11 12  1  0  0  0
 12 16  1  0  0  0
 16 18  1  0  0  0
 18 19  1  0  0  0
 18 20  1  0  0  0
 12 13  2  0  0  0
 13 14  1  0  0  0
 23 24  2  0  0  0
 24 25  1  0  0  0
 25 26  2  0  0  0
 26 27  1  0  0  0
 27 28  1  0  0  0
 28 29  1  0  0  0
 33 34  2  0  0  0
 34 35  1  0  0  0
 35 36  2  0  0  0
 36 31  1  0  0  0
 26 21  1  0  0  0
 14  5  1  0  0  0
 29 25  1  0  0  0
 14 10  2  0  0  0
  1  4  1  0  0  0
 11 15  1  0  0  0
 16 17  1  0  0  0
 28 30  1  0  0  0
M  END
> <minimizedAffinity>
-9.06922

> <minimizedRMSD>
0.50493

$$$$
P1427


 37 41  0  0  0  0  0  0  0  0999 V2000
   -5.6148    5.6234  -15.1695 C   0  0  0  0  0  0  0  0  0  0  0  0
   -5.0715    4.6710  -14.1038 C   0  0  0  0  0  0  0  0  0  0  0  0
   -4.5175    5.7197  -16.3609 C   0  0  0  0  0  0  0  0  0  0  0  0
   -3.3328    5.9998  -16.3077 O   0  0  0  0  0  0  0  0  0  0  0  0
   -5.1916    5.3376  -17.5177 N   0  0  0  0  0  0  0  0  0  0  0  0
   -5.1152    5.1957  -18.8818 C   0  0  0  0  0  0  0  0  0  0  0  0
   -6.2734    4.7165  -19.3461 N   0  0  0  0  0  0  0  0  0  0  0  0
   -7.1282    4.5876  -18.2821 C   0  0  0  0  0  0  0  0  0  0  0  0
   -8.4550    4.2082  -18.0588 C   0  0  0  0  0  0  0  0  0  0  0  0
   -8.9425    4.2932  -16.7175 C   0  0  0  0  0  0  0  0  0  0  0  0
   -8.1301    4.7290  -15.6439 C   0  0  0  0  0  0  0  0  0  0  0  0
   -6.8022    5.0441  -15.8790 C   0  0  0  0  0  0  0  0  0  0  0  0
   -6.4388    4.9522  -17.1852 C   0  0  0  0  0  0  0  0  0  0  0  0
   -8.6971    5.0670  -14.3185 C   0  0  0  0  0  0  0  0  0  0  0  0
   -9.3954    5.9951  -14.2240 O   0  0  0  0  0  0  0  0  0  0  0  0
   -8.1417    4.1219  -13.2385 N   0  0  0  0  0  0  0  0  0  0  0  0
   -7.6283    3.3567  -13.5850 H   0  0  0  0  0  0  0  0  0  0  0  0
   -8.2470    4.1727  -11.8525 C   0  0  0  0  0  0  0  0  0  0  0  0
   -8.5063    2.9902  -11.1481 C   0  0  0  0  0  0  0  0  0  0  0  0
   -8.5114    2.9790   -9.7508 C   0  0  0  0  0  0  0  0  0  0  0  0
   -8.2111    4.1530   -9.0850 C   0  0  0  0  0  0  0  0  0  0  0  0
   -7.9354    5.3242   -9.7800 C   0  0  0  0  0  0  0  0  0  0  0  0
   -7.9698    5.3593  -11.1651 C   0  0  0  0  0  0  0  0  0  0  0  0
   -7.5530    6.3907   -8.8128 C   0  0  0  0  0  0  0  0  0  0  0  0
   -7.8826    5.8582   -7.4626 N   0  0  0  0  0  0  0  0  0  0  0  0
   -8.0508    4.3861   -7.6229 C   0  0  0  0  0  0  0  0  0  0  0  0
   -8.7469    6.2771   -7.1190 H   0  0  0  0  0  0  0  0  0  0  0  0
   -4.1042    5.5070  -19.7188 N   0  0  0  0  0  0  0  0  0  0  0  0
   -4.3553    6.1133  -20.4526 H   0  0  0  0  0  0  0  0  0  0  0  0
   -2.7161    5.1043  -19.7245 C   0  0  0  0  0  0  0  0  0  0  0  0
   -1.7656    6.2442  -19.3864 C   0  0  0  0  0  0  0  0  0  0  0  0
   -2.4891    3.7891  -18.9953 C   0  0  0  0  0  0  0  0  0  0  0  0
   -6.0589    6.8859  -14.7063 O   0  0  0  0  0  0  0  0  0  0  0  0
   -5.6997    7.3372  -13.4038 C   0  0  0  0  0  0  0  0  0  0  0  0
   -4.5321    8.3227  -13.3685 C   0  0  0  0  0  0  0  0  0  0  0  0
   -3.0257    9.2366  -14.9330 C   0  0  0  0  0  0  0  0  0  0  0  0
   -4.3863    8.9397  -14.6496 O   0  0  0  0  0  0  0  0  0  0  0  0
 36 37  1  0  0  0
 37 35  1  0  0  0
 35 34  1  0  0  0
 34 33  1  0  0  0
 33  1  1  0  0  0
  1  2  1  0  0  0
  1  3  1  0  0  0
  3  4  2  0  0  0
  3  5  1  0  0  0
  5  6  1  0  0  0
  6 28  1  0  0  0
 28 30  1  0  0  0
 30 31  1  0  0  0
 30 32  1  0  0  0
  6  7  2  0  0  0
  7  8  1  0  0  0
  8  9  2  0  0  0
  9 10  1  0  0  0
 10 11  2  0  0  0
 11 14  1  0  0  0
 14 15  2  0  0  0
 14 16  1  0  0  0
 16 18  1  0  0  0
 18 19  2  0  0  0
 19 20  1  0  0  0
 20 21  2  0  0  0
 21 22  1  0  0  0
 22 23  2  0  0  0
 22 24  1  0  0  0
 24 25  1  0  0  0
 25 26  1  0  0  0
 11 12  1  0  0  0
 12 13  2  0  0  0
 12  1  1  0  0  0
 13  5  1  0  0  0
 13  8  1  0  0  0
 23 18  1  0  0  0
 26 21  1  0  0  0
 28 29  1  0  0  0
 16 17  1  0  0  0
 25 27  1  0  0  0
M  END
> <minimizedAffinity>
-7.55757

> <minimizedRMSD>
0.52706

$$$$
P1428


 29 32  0  0  0  0  0  0  0  0999 V2000
   -5.2414    5.2492  -18.9779 C   0  0  0  0  0  0  0  0  0  0  0  0
   -5.2677    5.1949  -17.6681 N   0  0  0  0  0  0  0  0  0  0  0  0
   -6.5498    4.7986  -17.3278 C   0  0  0  0  0  0  0  0  0  0  0  0
   -7.1740    4.5740  -16.0872 C   0  0  0  0  0  0  0  0  0  0  0  0
   -8.5363    4.2005  -16.0626 C   0  0  0  0  0  0  0  0  0  0  0  0
   -9.2750    4.0886  -17.2407 C   0  0  0  0  0  0  0  0  0  0  0  0
   -8.6799    4.3136  -18.4799 C   0  0  0  0  0  0  0  0  0  0  0  0
   -7.3274    4.6613  -18.4751 C   0  0  0  0  0  0  0  0  0  0  0  0
   -6.4730    4.9592  -19.5002 N   0  0  0  0  0  0  0  0  0  0  0  0
   -6.7055    4.9644  -20.4568 H   0  0  0  0  0  0  0  0  0  0  0  0
   -6.4359    4.7534  -14.8093 C   0  0  0  0  0  0  0  0  0  0  0  0
   -5.4085    4.2270  -14.6374 O   0  0  0  0  0  0  0  0  0  0  0  0
   -7.2854    5.6344  -13.8563 N   0  0  0  0  0  0  0  0  0  0  0  0
   -8.1624    5.9022  -14.2146 H   0  0  0  0  0  0  0  0  0  0  0  0
   -7.0092    6.1079  -12.5769 C   0  0  0  0  0  0  0  0  0  0  0  0
   -5.8696    5.7243  -11.8590 C   0  0  0  0  0  0  0  0  0  0  0  0
   -5.5783    6.1508  -10.5991 N   0  0  0  0  0  0  0  0  0  0  0  0
   -6.4855    6.9836  -10.0642 C   0  0  0  0  0  0  0  0  0  0  0  0
   -7.6431    7.4102  -10.6907 C   0  0  0  0  0  0  0  0  0  0  0  0
   -7.9191    6.9802  -11.9742 C   0  0  0  0  0  0  0  0  0  0  0  0
   -8.3913    8.3304   -9.7915 C   0  0  0  0  0  0  0  0  0  0  0  0
   -7.7630    8.1921   -8.4502 N   0  0  0  0  0  0  0  0  0  0  0  0
   -6.4113    7.6130   -8.7018 C   0  0  0  0  0  0  0  0  0  0  0  0
   -8.3142    7.5681   -7.8609 H   0  0  0  0  0  0  0  0  0  0  0  0
   -4.2497    5.5642  -19.8366 N   0  0  0  0  0  0  0  0  0  0  0  0
   -4.4859    5.7223  -20.7792 H   0  0  0  0  0  0  0  0  0  0  0  0
   -2.2177    4.3407  -19.1165 C   0  0  0  0  0  0  0  0  0  0  0  0
   -2.8485    5.6843  -19.4508 C   0  0  0  0  0  0  0  0  0  0  0  0
   -2.6205    6.7249  -18.3639 C   0  0  0  0  0  0  0  0  0  0  0  0
 27 28  1  0  0  0
 28 29  1  0  0  0
 28 25  1  0  0  0
 25  1  1  0  0  0
  1  2  2  0  0  0
  2  3  1  0  0  0
  3  4  2  0  0  0
  4 11  1  0  0  0
 11 12  2  0  0  0
 11 13  1  0  0  0
 13 15  1  0  0  0
 15 16  2  0  0  0
 16 17  1  0  0  0
 17 18  2  0  0  0
 18 19  1  0  0  0
 19 20  2  0  0  0
 19 21  1  0  0  0
 21 22  1  0  0  0
 22 23  1  0  0  0
  4  5  1  0  0  0
  5  6  2  0  0  0
  6  7  1  0  0  0
  7  8  2  0  0  0
  8  9  1  0  0  0
  9  1  1  0  0  0
  8  3  1  0  0  0
 20 15  1  0  0  0
 23 18  1  0  0  0
 25 26  1  0  0  0
 13 14  1  0  0  0
 22 24  1  0  0  0
  9 10  1  0  0  0
M  END
> <minimizedAffinity>
-6.55323

> <minimizedRMSD>
0.10042

$$$$
P1445


 33 36  0  0  0  0  0  0  0  0999 V2000
   -7.1790    4.9861  -14.2231 C   0  0  0  0  0  0  0  0  0  0  0  0
   -4.8983    5.1438  -17.9744 C   0  0  0  0  0  0  0  0  0  0  0  0
   -5.2775    5.1306  -16.7152 N   0  0  0  0  0  0  0  0  0  0  0  0
   -6.6155    4.7711  -16.7287 C   0  0  0  0  0  0  0  0  0  0  0  0
   -7.5370    4.6316  -15.6645 C   0  0  0  0  0  0  0  0  0  0  0  0
   -8.8575    4.2793  -16.0304 C   0  0  0  0  0  0  0  0  0  0  0  0
   -9.2524    4.0944  -17.3572 C   0  0  0  0  0  0  0  0  0  0  0  0
   -8.3472    4.2491  -18.4000 C   0  0  0  0  0  0  0  0  0  0  0  0
   -7.0466    4.5812  -18.0354 C   0  0  0  0  0  0  0  0  0  0  0  0
   -5.9396    4.8133  -18.7995 N   0  0  0  0  0  0  0  0  0  0  0  0
   -5.8971    4.7530  -19.7812 H   0  0  0  0  0  0  0  0  0  0  0  0
   -3.6757    5.4499  -18.4524 N   0  0  0  0  0  0  0  0  0  0  0  0
   -3.0992    6.0212  -17.8952 H   0  0  0  0  0  0  0  0  0  0  0  0
   -2.0410    3.9691  -19.5241 C   0  0  0  0  0  0  0  0  0  0  0  0
   -3.1440    5.0001  -19.7285 C   0  0  0  0  0  0  0  0  0  0  0  0
   -2.6127    6.2106  -20.4885 C   0  0  0  0  0  0  0  0  0  0  0  0
   -7.8787    4.1173  -13.2635 N   0  0  0  0  0  0  0  0  0  0  0  0
   -8.5353    3.4834  -13.6328 H   0  0  0  0  0  0  0  0  0  0  0  0
   -7.7001    4.1069  -11.8823 C   0  0  0  0  0  0  0  0  0  0  0  0
   -6.8530    4.9892  -11.1886 C   0  0  0  0  0  0  0  0  0  0  0  0
   -6.8252    5.0682   -9.7900 C   0  0  0  0  0  0  0  0  0  0  0  0
   -7.6323    4.2175   -9.0722 C   0  0  0  0  0  0  0  0  0  0  0  0
   -8.4494    3.3066   -9.7206 C   0  0  0  0  0  0  0  0  0  0  0  0
   -8.5166    3.2621  -11.1084 C   0  0  0  0  0  0  0  0  0  0  0  0
   -9.2002    2.5259   -8.6978 C   0  0  0  0  0  0  0  0  0  0  0  0
   -8.5765    2.8523   -7.3868 N   0  0  0  0  0  0  0  0  0  0  0  0
   -7.8269    4.1078   -7.6010 C   0  0  0  0  0  0  0  0  0  0  0  0
   -7.9443    2.1057   -7.0981 H   0  0  0  0  0  0  0  0  0  0  0  0
   -7.4172    6.4903  -14.0358 C   0  0  0  0  0  0  0  0  0  0  0  0
   -8.7795    6.8619  -13.5221 C   0  0  0  0  0  0  0  0  0  0  0  0
   -9.8747    6.5710  -13.9702 O   0  0  0  0  0  0  0  0  0  0  0  0
   -8.6976    7.7074  -12.4675 O   0  0  0  0  0  0  0  0  0  0  0  0
   -7.8603    7.9375  -12.1154 H   0  0  0  0  0  0  0  0  0  0  0  0
 14 15  1  0  0  0
 15 16  1  0  0  0
 15 12  1  0  0  0
 12  2  1  0  0  0
  2  3  2  0  0  0
  3  4  1  0  0  0
  4  5  2  0  0  0
  5  1  1  0  0  0
  1 29  1  0  0  0
 29 30  1  0  0  0
 30 31  2  0  0  0
 30 32  1  0  0  0
  1 17  1  0  0  0
 17 19  1  0  0  0
 19 20  2  0  0  0
 20 21  1  0  0  0
 21 22  2  0  0  0
 22 23  1  0  0  0
 23 24  2  0  0  0
 23 25  1  0  0  0
 25 26  1  0  0  0
 26 27  1  0  0  0
  5  6  1  0  0  0
  6  7  2  0  0  0
  7  8  1  0  0  0
  8  9  2  0  0  0
  9 10  1  0  0  0
 10  2  1  0  0  0
  9  4  1  0  0  0
 24 19  1  0  0  0
 27 22  1  0  0  0
 12 13  1  0  0  0
 32 33  1  0  0  0
 17 18  1  0  0  0
 26 28  1  0  0  0
 10 11  1  0  0  0
M  END
> <minimizedAffinity>
-7.70872

> <minimizedRMSD>
0.72529

$$$$
P1448


 38 41  0  0  0  0  0  0  0  0999 V2000
   -6.6513    4.8876  -14.4769 C   0  0  0  0  0  0  0  0  0  0  0  0
   -5.1421    5.0623  -18.7994 C   0  0  0  0  0  0  0  0  0  0  0  0
   -5.1934    5.0533  -17.4783 N   0  0  0  0  0  0  0  0  0  0  0  0
   -6.5222    4.7489  -17.1355 C   0  0  0  0  0  0  0  0  0  0  0  0
   -7.2170    4.6189  -15.8917 C   0  0  0  0  0  0  0  0  0  0  0  0
   -8.6026    4.2948  -15.9986 C   0  0  0  0  0  0  0  0  0  0  0  0
   -9.2642    4.0930  -17.2077 C   0  0  0  0  0  0  0  0  0  0  0  0
   -8.5915    4.2267  -18.4022 C   0  0  0  0  0  0  0  0  0  0  0  0
   -7.2487    4.5642  -18.3127 C   0  0  0  0  0  0  0  0  0  0  0  0
   -6.3775    4.8255  -19.3231 N   0  0  0  0  0  0  0  0  0  0  0  0
   -6.6034    4.8411  -20.2812 H   0  0  0  0  0  0  0  0  0  0  0  0
   -4.1818    5.2678  -19.7208 N   0  0  0  0  0  0  0  0  0  0  0  0
   -4.5008    5.3818  -20.6451 H   0  0  0  0  0  0  0  0  0  0  0  0
   -2.7575    5.3443  -19.5464 C   0  0  0  0  0  0  0  0  0  0  0  0
   -2.3375    6.1819  -18.3404 C   0  0  0  0  0  0  0  0  0  0  0  0
   -2.1454    3.9487  -19.4545 C   0  0  0  0  0  0  0  0  0  0  0  0
   -2.9795    6.9791  -21.3236 C   0  0  0  0  0  0  0  0  0  0  0  0
   -2.2525    5.8756  -20.7943 O   0  0  0  0  0  0  0  0  0  0  0  0
   -6.8335    6.4250  -14.1658 C   0  0  0  0  0  0  0  0  0  0  0  0
   -6.0144    7.2212  -14.4184 O   0  0  0  0  0  0  0  0  0  0  0  0
   -8.2472    6.5977  -13.5358 N   0  0  0  0  0  0  0  0  0  0  0  0
   -8.7836    5.7732  -13.4942 H   0  0  0  0  0  0  0  0  0  0  0  0
   -8.9015    7.7753  -13.0008 C   0  0  0  0  0  0  0  0  0  0  0  0
   -8.6406    8.0293  -11.5191 C   0  0  0  0  0  0  0  0  0  0  0  0
   -8.9975    9.3034  -11.2123 F   0  0  0  0  0  0  0  0  0  0  0  0
   -7.3152    7.9282  -11.2434 F   0  0  0  0  0  0  0  0  0  0  0  0
   -7.3586    3.9928  -13.4753 N   0  0  0  0  0  0  0  0  0  0  0  0
   -7.9846    3.3370  -13.8590 H   0  0  0  0  0  0  0  0  0  0  0  0
   -7.2424    3.9730  -12.0820 C   0  0  0  0  0  0  0  0  0  0  0  0
   -6.3116    4.7313  -11.3526 C   0  0  0  0  0  0  0  0  0  0  0  0
   -6.3923    4.8817   -9.9557 C   0  0  0  0  0  0  0  0  0  0  0  0
   -7.3881    4.2180   -9.2711 C   0  0  0  0  0  0  0  0  0  0  0  0
   -8.2673    3.3933   -9.9490 C   0  0  0  0  0  0  0  0  0  0  0  0
   -8.2330    3.2975  -11.3378 C   0  0  0  0  0  0  0  0  0  0  0  0
   -9.1068    2.6663   -8.9486 C   0  0  0  0  0  0  0  0  0  0  0  0
   -8.9413    3.4082   -7.6725 N   0  0  0  0  0  0  0  0  0  0  0  0
   -7.6849    4.1731   -7.8099 C   0  0  0  0  0  0  0  0  0  0  0  0
   -8.8769    2.7576   -6.8895 H   0  0  0  0  0  0  0  0  0  0  0  0
 17 18  1  0  0  0
 18 14  1  0  0  0
 14 15  1  0  0  0
 14 16  1  0  0  0
 14 12  1  0  0  0
 12  2  1  0  0  0
  2  3  2  0  0  0
  3  4  1  0  0  0
  4  5  2  0  0  0
  5  1  1  0  0  0
  1 27  1  0  0  0
 27 29  1  0  0  0
 29 30  2  0  0  0
 30 31  1  0  0  0
 31 32  2  0  0  0
 32 33  1  0  0  0
 33 34  2  0  0  0
 33 35  1  0  0  0
 35 36  1  0  0  0
 36 37  1  0  0  0
  1 19  1  0  0  0
 19 20  2  0  0  0
 19 21  1  0  0  0
 21 23  1  0  0  0
 23 24  1  0  0  0
 24 25  1  0  0  0
 24 26  1  0  0  0
  5  6  1  0  0  0
  6  7  2  0  0  0
  7  8  1  0  0  0
  8  9  2  0  0  0
  9 10  1  0  0  0
 10  2  1  0  0  0
  9  4  1  0  0  0
 34 29  1  0  0  0
 37 32  1  0  0  0
 12 13  1  0  0  0
 27 28  1  0  0  0
 36 38  1  0  0  0
 21 22  1  0  0  0
 10 11  1  0  0  0
M  END
> <minimizedAffinity>
-7.53370

> <minimizedRMSD>
0.43349

$$$$
P1450


 28 30  0  0  0  0  0  0  0  0999 V2000
   -4.9204    5.1176  -18.4695 C   0  0  0  0  0  0  0  0  0  0  0  0
   -5.1295    4.9415  -17.1708 N   0  0  0  0  0  0  0  0  0  0  0  0
   -6.4795    4.6590  -17.0095 C   0  0  0  0  0  0  0  0  0  0  0  0
   -7.3149    4.4739  -15.8759 C   0  0  0  0  0  0  0  0  0  0  0  0
   -8.6971    4.3067  -16.1062 C   0  0  0  0  0  0  0  0  0  0  0  0
   -9.2364    4.2687  -17.3897 C   0  0  0  0  0  0  0  0  0  0  0  0
   -8.4256    4.3993  -18.5062 C   0  0  0  0  0  0  0  0  0  0  0  0
   -7.0703    4.6036  -18.2744 C   0  0  0  0  0  0  0  0  0  0  0  0
   -6.0652    4.8439  -19.1718 N   0  0  0  0  0  0  0  0  0  0  0  0
   -6.1499    4.8237  -20.1524 H   0  0  0  0  0  0  0  0  0  0  0  0
   -6.8576    4.6471  -14.4557 C   0  0  0  0  0  0  0  0  0  0  0  0
   -5.8275    5.1719  -14.2629 O   0  0  0  0  0  0  0  0  0  0  0  0
   -7.9492    4.1542  -13.4465 N   0  0  0  0  0  0  0  0  0  0  0  0
   -8.7015    3.6696  -13.8568 H   0  0  0  0  0  0  0  0  0  0  0  0
   -8.0287    4.2915  -12.0522 C   0  0  0  0  0  0  0  0  0  0  0  0
   -7.7953    5.5093  -11.4116 C   0  0  0  0  0  0  0  0  0  0  0  0
   -7.9338    5.6219  -10.0192 C   0  0  0  0  0  0  0  0  0  0  0  0
   -8.2974    4.5135   -9.2564 C   0  0  0  0  0  0  0  0  0  0  0  0
   -8.5333    3.3031   -9.8913 C   0  0  0  0  0  0  0  0  0  0  0  0
   -8.8979    2.2427   -9.1544 F   0  0  0  0  0  0  0  0  0  0  0  0
   -8.4099    3.1881  -11.2782 C   0  0  0  0  0  0  0  0  0  0  0  0
   -3.6842    5.7088  -19.1145 C   0  0  0  0  0  0  0  0  0  0  0  0
   -3.8958    7.3318  -20.9217 C   0  0  0  0  0  0  0  0  0  0  0  0
   -3.7715    5.9216  -20.5758 N   0  0  0  0  0  0  0  0  0  0  0  0
   -2.9281    5.5497  -21.0126 H   0  0  0  0  0  0  0  0  0  0  0  0
   -2.3770    4.9633  -18.7440 C   0  0  0  0  0  0  0  0  0  0  0  0
   -2.0109    3.8114  -19.6762 C   0  0  0  0  0  0  0  0  0  0  0  0
   -1.2062    5.9533  -18.6862 C   0  0  0  0  0  0  0  0  0  0  0  0
 23 24  1  0  0  0
 22 24  1  0  0  0
 22  1  1  0  0  0
  1  2  2  0  0  0
  2  3  1  0  0  0
  3  4  2  0  0  0
  4 11  1  0  0  0
 11 12  2  0  0  0
 11 13  1  0  0  0
 13 15  1  0  0  0
 15 16  2  0  0  0
 16 17  1  0  0  0
 17 18  2  0  0  0
 18 19  1  0  0  0
 19 20  1  0  0  0
 19 21  2  0  0  0
  4  5  1  0  0  0
  5  6  2  0  0  0
  6  7  1  0  0  0
  7  8  2  0  0  0
  8  9  1  0  0  0
 22 26  1  0  0  0
 26 27  1  0  0  0
 26 28  1  0  0  0
  9  1  1  0  0  0
  8  3  1  0  0  0
 21 15  1  0  0  0
 24 25  1  0  0  0
 13 14  1  0  0  0
  9 10  1  0  0  0
M  END
> <minimizedAffinity>
-7.97246

> <minimizedRMSD>
0.56505

$$$$
P1459


 30 33  0  0  0  0  0  0  0  0999 V2000
   -4.8501    5.4769  -15.8718 C   0  0  0  0  0  0  0  0  0  0  0  0
   -5.8745    5.2882  -15.0950 N   0  0  0  0  0  0  0  0  0  0  0  0
   -6.9339    4.9339  -15.9417 C   0  0  0  0  0  0  0  0  0  0  0  0
   -8.2281    4.5982  -15.6040 C   0  0  0  0  0  0  0  0  0  0  0  0
   -9.1008    4.1988  -16.6214 C   0  0  0  0  0  0  0  0  0  0  0  0
   -8.6750    4.1593  -17.9614 C   0  0  0  0  0  0  0  0  0  0  0  0
   -7.3831    4.5574  -18.3041 C   0  0  0  0  0  0  0  0  0  0  0  0
   -6.5411    4.9391  -17.2778 C   0  0  0  0  0  0  0  0  0  0  0  0
   -5.2112    5.5245  -17.3398 N   0  0  0  0  0  0  0  0  0  0  0  0
   -4.3364    4.8666  -18.1394 O   0  0  0  0  0  0  0  0  0  0  0  0
   -5.9460    5.3434  -17.9694 H   0  0  0  0  0  0  0  0  0  0  0  0
   -8.7300    4.8906  -14.2485 C   0  0  0  0  0  0  0  0  0  0  0  0
   -9.5848    5.6792  -14.1461 O   0  0  0  0  0  0  0  0  0  0  0  0
   -8.0027    4.0600  -13.1729 N   0  0  0  0  0  0  0  0  0  0  0  0
   -7.3628    3.3998  -13.5250 H   0  0  0  0  0  0  0  0  0  0  0  0
   -8.1031    4.0912  -11.7867 C   0  0  0  0  0  0  0  0  0  0  0  0
   -7.9562    5.3061  -11.0954 C   0  0  0  0  0  0  0  0  0  0  0  0
   -8.0849    5.3586   -9.7039 C   0  0  0  0  0  0  0  0  0  0  0  0
   -8.4517    4.2015   -9.0437 C   0  0  0  0  0  0  0  0  0  0  0  0
   -8.6381    3.0076   -9.7353 C   0  0  0  0  0  0  0  0  0  0  0  0
   -8.4004    2.9167  -11.0968 C   0  0  0  0  0  0  0  0  0  0  0  0
   -9.1500    1.9703   -8.7892 C   0  0  0  0  0  0  0  0  0  0  0  0
   -9.5221    2.7184   -7.5559 N   0  0  0  0  0  0  0  0  0  0  0  0
   -8.7348    3.9680   -7.5987 C   0  0  0  0  0  0  0  0  0  0  0  0
   -9.2851    2.1762   -6.7250 H   0  0  0  0  0  0  0  0  0  0  0  0
   -3.5510    5.6790  -15.5150 N   0  0  0  0  0  0  0  0  0  0  0  0
   -2.9213    5.9281  -16.2297 H   0  0  0  0  0  0  0  0  0  0  0  0
   -3.5881    6.6815  -13.3324 C   0  0  0  0  0  0  0  0  0  0  0  0
   -3.0204    5.5595  -14.1825 C   0  0  0  0  0  0  0  0  0  0  0  0
   -3.2726    4.1874  -13.5730 C   0  0  0  0  0  0  0  0  0  0  0  0
 28 29  1  0  0  0
 29 30  1  0  0  0
 29 26  1  0  0  0
 26  1  1  0  0  0
  1  2  2  0  0  0
  2  3  1  0  0  0
  3  4  2  0  0  0
  4 12  1  0  0  0
 12 13  2  0  0  0
 12 14  1  0  0  0
 14 16  1  0  0  0
 16 17  2  0  0  0
 17 18  1  0  0  0
 18 19  2  0  0  0
 19 20  1  0  0  0
 20 21  2  0  0  0
 20 22  1  0  0  0
 22 23  1  0  0  0
 23 24  1  0  0  0
  4  5  1  0  0  0
  5  6  2  0  0  0
  6  7  1  0  0  0
  7  8  2  0  0  0
  8  9  1  0  0  0
  9 10  1  0  0  0
  9  1  1  0  0  0
  8  3  1  0  0  0
 21 16  1  0  0  0
 24 19  1  0  0  0
 26 27  1  0  0  0
 14 15  1  0  0  0
 23 25  1  0  0  0
  9 11  1  0  0  0
M  CHG 1   9   1
M  CHG 1  10  -1
M  END
> <minimizedAffinity>
-8.89590

> <minimizedRMSD>
0.26321

$$$$
P1473


 35 38  0  0  0  0  0  0  0  0999 V2000
   -4.7571    5.0592  -17.8794 C   0  0  0  0  0  0  0  0  0  0  0  0
   -5.2474    4.9894  -16.6545 N   0  0  0  0  0  0  0  0  0  0  0  0
   -6.5941    4.7437  -16.7925 C   0  0  0  0  0  0  0  0  0  0  0  0
   -7.6363    4.6943  -15.8483 C   0  0  0  0  0  0  0  0  0  0  0  0
   -8.9450    4.4619  -16.2880 C   0  0  0  0  0  0  0  0  0  0  0  0
   -9.2094    4.3331  -17.6502 C   0  0  0  0  0  0  0  0  0  0  0  0
  -10.8314    4.2885  -18.1933 Cl  0  0  0  0  0  0  0  0  0  0  0  0
   -8.2004    4.3729  -18.6107 C   0  0  0  0  0  0  0  0  0  0  0  0
   -6.9092    4.5821  -18.1370 C   0  0  0  0  0  0  0  0  0  0  0  0
   -5.7274    4.7591  -18.8051 N   0  0  0  0  0  0  0  0  0  0  0  0
   -5.5958    4.6845  -19.7779 H   0  0  0  0  0  0  0  0  0  0  0  0
   -7.3985    5.1449  -14.4623 C   0  0  0  0  0  0  0  0  0  0  0  0
   -6.8508    6.1676  -14.3156 O   0  0  0  0  0  0  0  0  0  0  0  0
   -7.9878    4.1615  -13.4178 N   0  0  0  0  0  0  0  0  0  0  0  0
   -8.3357    3.3207  -13.7935 H   0  0  0  0  0  0  0  0  0  0  0  0
   -8.1050    4.2749  -12.0314 C   0  0  0  0  0  0  0  0  0  0  0  0
   -7.7739    5.4837  -11.3955 C   0  0  0  0  0  0  0  0  0  0  0  0
   -7.8453    5.6145  -10.0088 C   0  0  0  0  0  0  0  0  0  0  0  0
   -8.2294    4.5126   -9.2746 C   0  0  0  0  0  0  0  0  0  0  0  0
   -8.5711    3.3088   -9.8933 C   0  0  0  0  0  0  0  0  0  0  0  0
   -8.5281    3.1778  -11.2743 C   0  0  0  0  0  0  0  0  0  0  0  0
   -8.9536    2.3120   -8.8414 C   0  0  0  0  0  0  0  0  0  0  0  0
   -8.5302    2.9511   -7.5892 N   0  0  0  0  0  0  0  0  0  0  0  0
   -8.3685    4.3827   -7.7944 C   0  0  0  0  0  0  0  0  0  0  0  0
   -9.1694    2.5053   -6.3634 C   0  0  0  0  0  0  0  0  0  0  0  0
  -10.3709    3.2933   -5.8611 C   0  0  0  0  0  0  0  0  0  0  0  0
  -11.2790    2.4801   -5.2723 F   0  0  0  0  0  0  0  0  0  0  0  0
   -9.9815    4.1775   -4.9010 F   0  0  0  0  0  0  0  0  0  0  0  0
   -3.3915    5.6187  -18.2261 C   0  0  0  0  0  0  0  0  0  0  0  0
   -2.7983    7.5930  -16.9387 C   0  0  0  0  0  0  0  0  0  0  0  0
   -3.5040    7.0956  -18.1199 N   0  0  0  0  0  0  0  0  0  0  0  0
   -3.0995    7.5215  -18.9538 H   0  0  0  0  0  0  0  0  0  0  0  0
   -2.8859    5.1797  -19.6311 C   0  0  0  0  0  0  0  0  0  0  0  0
   -2.0630    6.2608  -20.3363 C   0  0  0  0  0  0  0  0  0  0  0  0
   -2.0240    3.9146  -19.5476 C   0  0  0  0  0  0  0  0  0  0  0  0
 30 31  1  0  0  0
 29 31  1  0  0  0
 29  1  1  0  0  0
  1  2  2  0  0  0
  2  3  1  0  0  0
  3  4  2  0  0  0
  4 12  1  0  0  0
 12 13  2  0  0  0
 12 14  1  0  0  0
 14 16  1  0  0  0
 16 17  2  0  0  0
 17 18  1  0  0  0
 18 19  2  0  0  0
 19 20  1  0  0  0
 20 21  2  0  0  0
 20 22  1  0  0  0
 22 23  1  0  0  0
 23 25  1  0  0  0
 25 26  1  0  0  0
 26 27  1  0  0  0
 26 28  1  0  0  0
 23 24  1  0  0  0
  4  5  1  0  0  0
  5  6  2  0  0  0
  6  7  1  0  0  0
  6  8  1  0  0  0
  8  9  2  0  0  0
  9 10  1  0  0  0
 29 33  1  0  0  0
 33 34  1  0  0  0
 33 35  1  0  0  0
 10  1  1  0  0  0
  9  3  1  0  0  0
 21 16  1  0  0  0
 24 19  1  0  0  0
 31 32  1  0  0  0
 14 15  1  0  0  0
 10 11  1  0  0  0
M  END
> <minimizedAffinity>
-8.60083

> <minimizedRMSD>
0.51163

$$$$
P1477


 31 35  0  0  0  0  0  0  0  0999 V2000
   -1.7500    6.1642  -19.1028 C   0  0  0  0  0  0  0  0  0  0  0  0
   -3.1552    6.4696  -18.5832 C   0  0  0  0  0  0  0  0  0  0  0  0
   -3.1594    7.3553  -17.3002 C   0  0  0  0  0  0  0  0  0  0  0  0
   -3.2929    6.5712  -16.0353 N   0  0  0  0  0  0  0  0  0  0  0  0
   -4.7076    6.2953  -15.6467 C   0  0  0  0  0  0  0  0  0  0  0  0
   -5.4697    5.5411  -16.6389 N   0  0  0  0  0  0  0  0  0  0  0  0
   -5.0540    5.2364  -17.9136 C   0  0  0  0  0  0  0  0  0  0  0  0
   -6.0482    4.8983  -18.6791 N   0  0  0  0  0  0  0  0  0  0  0  0
   -7.0733    4.6496  -17.8208 C   0  0  0  0  0  0  0  0  0  0  0  0
   -8.3087    4.0596  -18.1227 C   0  0  0  0  0  0  0  0  0  0  0  0
   -9.2102    3.8122  -17.0943 C   0  0  0  0  0  0  0  0  0  0  0  0
   -8.8914    4.1760  -15.7890 C   0  0  0  0  0  0  0  0  0  0  0  0
   -7.6659    4.8001  -15.4606 C   0  0  0  0  0  0  0  0  0  0  0  0
   -6.7523    5.0244  -16.5083 C   0  0  0  0  0  0  0  0  0  0  0  0
   -3.7453    5.1866  -18.2391 N   0  0  0  0  0  0  0  0  0  0  0  0
   -2.8488    7.0967  -15.2823 H   0  0  0  0  0  0  0  0  0  0  0  0
   -3.2307    4.3473  -18.2431 H   0  0  0  0  0  0  0  0  0  0  0  0
   -7.4604    5.2539  -14.0596 C   0  0  0  0  0  0  0  0  0  0  0  0
   -7.1292    6.3586  -13.8672 O   0  0  0  0  0  0  0  0  0  0  0  0
   -7.8419    4.1300  -13.0600 N   0  0  0  0  0  0  0  0  0  0  0  0
   -8.0134    3.2526  -13.4723 H   0  0  0  0  0  0  0  0  0  0  0  0
   -7.9814    4.1606  -11.6727 C   0  0  0  0  0  0  0  0  0  0  0  0
   -7.5950    5.2731  -10.9107 C   0  0  0  0  0  0  0  0  0  0  0  0
   -7.8011    5.2976   -9.5244 C   0  0  0  0  0  0  0  0  0  0  0  0
   -8.3880    4.1972   -8.9254 C   0  0  0  0  0  0  0  0  0  0  0  0
   -8.7576    3.0874   -9.6758 C   0  0  0  0  0  0  0  0  0  0  0  0
   -8.5728    3.0556  -11.0483 C   0  0  0  0  0  0  0  0  0  0  0  0
   -9.2986    2.0360   -8.7628 C   0  0  0  0  0  0  0  0  0  0  0  0
   -9.5629    2.7355   -7.4784 N   0  0  0  0  0  0  0  0  0  0  0  0
   -8.7067    3.9407   -7.4904 C   0  0  0  0  0  0  0  0  0  0  0  0
   -9.3193    2.1350   -6.6906 H   0  0  0  0  0  0  0  0  0  0  0  0
  2  1  1  0  0  0
  2  3  1  0  0  0
  3  4  1  0  0  0
  4  5  1  0  0  0
  5  6  1  0  0  0
  6  7  1  0  0  0
  7  8  2  0  0  0
  8  9  1  0  0  0
  9 10  2  0  0  0
 10 11  1  0  0  0
 11 12  2  0  0  0
 12 13  1  0  0  0
 13 18  1  0  0  0
 18 19  2  0  0  0
 18 20  1  0  0  0
 20 22  1  0  0  0
 22 23  2  0  0  0
 23 24  1  0  0  0
 24 25  2  0  0  0
 25 26  1  0  0  0
 26 27  2  0  0  0
 26 28  1  0  0  0
 28 29  1  0  0  0
 29 30  1  0  0  0
 13 14  2  0  0  0
  7 15  1  0  0  0
 15  2  1  0  0  0
 14  6  1  0  0  0
 14  9  1  0  0  0
 27 22  1  0  0  0
 30 25  1  0  0  0
  4 16  1  0  0  0
 20 21  1  0  0  0
 29 31  1  0  0  0
 15 17  1  0  0  0
M  END
> <minimizedAffinity>
-8.96176

> <minimizedRMSD>
0.31993

$$$$
P1484


 34 37  0  0  0  0  0  0  0  0999 V2000
   -4.6305    5.6755  -17.7458 C   0  0  0  0  0  0  0  0  0  0  0  0
   -5.6911    5.1032  -18.5802 N   0  0  0  0  0  0  0  0  0  0  0  0
   -6.7518    4.8690  -17.6960 C   0  0  0  0  0  0  0  0  0  0  0  0
   -8.0576    4.5589  -18.0220 C   0  0  0  0  0  0  0  0  0  0  0  0
   -8.9233    4.2026  -16.9901 C   0  0  0  0  0  0  0  0  0  0  0  0
   -8.4622    4.1625  -15.6649 C   0  0  0  0  0  0  0  0  0  0  0  0
   -7.1320    4.4872  -15.3488 C   0  0  0  0  0  0  0  0  0  0  0  0
   -6.2843    4.8506  -16.3847 C   0  0  0  0  0  0  0  0  0  0  0  0
   -4.8782    5.1313  -16.3741 N   0  0  0  0  0  0  0  0  0  0  0  0
   -5.6639    4.9233  -19.5478 H   0  0  0  0  0  0  0  0  0  0  0  0
   -4.2329    4.9983  -15.6426 H   0  0  0  0  0  0  0  0  0  0  0  0
   -6.7475    4.5922  -13.9160 C   0  0  0  0  0  0  0  0  0  0  0  0
   -5.6836    4.9951  -13.6471 O   0  0  0  0  0  0  0  0  0  0  0  0
   -7.9281    4.1802  -12.9979 N   0  0  0  0  0  0  0  0  0  0  0  0
   -8.7021    3.7957  -13.4693 H   0  0  0  0  0  0  0  0  0  0  0  0
   -8.0714    4.2660  -11.6122 C   0  0  0  0  0  0  0  0  0  0  0  0
   -7.8062    5.4559  -10.9176 C   0  0  0  0  0  0  0  0  0  0  0  0
   -7.9540    5.5236   -9.5257 C   0  0  0  0  0  0  0  0  0  0  0  0
   -8.3621    4.3876   -8.8507 C   0  0  0  0  0  0  0  0  0  0  0  0
   -8.6198    3.2055   -9.5338 C   0  0  0  0  0  0  0  0  0  0  0  0
   -8.4900    3.1308  -10.9122 C   0  0  0  0  0  0  0  0  0  0  0  0
   -8.9670    2.1393   -8.5461 C   0  0  0  0  0  0  0  0  0  0  0  0
   -9.2623    2.8608   -7.2794 N   0  0  0  0  0  0  0  0  0  0  0  0
   -8.5602    4.1578   -7.3895 C   0  0  0  0  0  0  0  0  0  0  0  0
   -8.9131    2.3334   -6.4792 H   0  0  0  0  0  0  0  0  0  0  0  0
   -3.2562    5.4066  -18.1913 N   0  0  0  0  0  0  0  0  0  0  0  0
   -2.8517    4.7028  -17.5737 H   0  0  0  0  0  0  0  0  0  0  0  0
   -3.1555    4.9195  -19.5728 C   0  0  0  0  0  0  0  0  0  0  0  0
   -2.1554    3.7676  -19.6351 C   0  0  0  0  0  0  0  0  0  0  0  0
   -2.6833    6.0149  -20.5367 C   0  0  0  0  0  0  0  0  0  0  0  0
   -4.8518    7.2779  -17.5834 C   0  0  0  0  0  0  0  0  0  0  0  0
   -5.4881    8.5017  -19.6254 C   0  0  0  0  0  0  0  0  0  0  0  0
   -4.4665    8.2793  -18.6166 N   0  0  0  0  0  0  0  0  0  0  0  0
   -4.2765    9.1662  -18.1501 H   0  0  0  0  0  0  0  0  0  0  0  0
 32 33  1  0  0  0
 33 31  1  0  0  0
  1 31  1  0  0  0
  1 26  1  0  0  0
 26 28  1  0  0  0
 28 29  1  0  0  0
 28 30  1  0  0  0
  1  2  1  0  0  0
  2  3  1  0  0  0
  3  4  2  0  0  0
  4  5  1  0  0  0
  5  6  2  0  0  0
  6  7  1  0  0  0
  7 12  1  0  0  0
 12 13  2  0  0  0
 12 14  1  0  0  0
 14 16  1  0  0  0
 16 17  2  0  0  0
 17 18  1  0  0  0
 18 19  2  0  0  0
 19 20  1  0  0  0
 20 21  2  0  0  0
 20 22  1  0  0  0
 22 23  1  0  0  0
 23 24  1  0  0  0
  7  8  2  0  0  0
  8  9  1  0  0  0
  9  1  1  0  0  0
  8  3  1  0  0  0
 21 16  1  0  0  0
 24 19  1  0  0  0
 33 34  1  0  0  0
 26 27  1  0  0  0
  2 10  1  0  0  0
 14 15  1  0  0  0
 23 25  1  0  0  0
  9 11  1  0  0  0
M  END
> <minimizedAffinity>
-7.43163

> <minimizedRMSD>
0.69576

$$$$
P1539


 39 42  0  0  0  0  0  0  0  0999 V2000
   -6.1175    4.8936  -16.8555 C   0  0  0  0  0  0  0  0  0  0  0  0
   -6.9434    4.6001  -17.9495 C   0  0  0  0  0  0  0  0  0  0  0  0
   -8.3243    4.4190  -17.7551 C   0  0  0  0  0  0  0  0  0  0  0  0
   -9.3611    4.1433  -19.0967 Cl  0  0  0  0  0  0  0  0  0  0  0  0
   -8.9031    4.5056  -16.4884 C   0  0  0  0  0  0  0  0  0  0  0  0
   -8.1012    4.8412  -15.4116 C   0  0  0  0  0  0  0  0  0  0  0  0
   -6.7315    5.0376  -15.5920 C   0  0  0  0  0  0  0  0  0  0  0  0
   -8.6485    5.1170  -14.0670 C   0  0  0  0  0  0  0  0  0  0  0  0
   -9.4169    5.9910  -13.9684 O   0  0  0  0  0  0  0  0  0  0  0  0
   -8.0020    4.2249  -12.9841 N   0  0  0  0  0  0  0  0  0  0  0  0
   -7.4361    3.4985  -13.3324 H   0  0  0  0  0  0  0  0  0  0  0  0
   -8.0896    4.2813  -11.5927 C   0  0  0  0  0  0  0  0  0  0  0  0
   -7.7239    5.4480  -10.9009 C   0  0  0  0  0  0  0  0  0  0  0  0
   -7.7800    5.5061   -9.5053 C   0  0  0  0  0  0  0  0  0  0  0  0
   -8.2010    4.3828   -8.8198 C   0  0  0  0  0  0  0  0  0  0  0  0
   -8.5630    3.2260   -9.4967 C   0  0  0  0  0  0  0  0  0  0  0  0
   -8.5171    3.1567  -10.8833 C   0  0  0  0  0  0  0  0  0  0  0  0
   -8.9793    2.1877   -8.5110 C   0  0  0  0  0  0  0  0  0  0  0  0
   -8.7505    2.7705   -7.1608 N   0  0  0  0  0  0  0  0  0  0  0  0
   -8.3843    4.1876   -7.3555 C   0  0  0  0  0  0  0  0  0  0  0  0
   -7.9935    2.2752   -6.6896 H   0  0  0  0  0  0  0  0  0  0  0  0
   -4.5866    4.9903  -16.8799 C   0  0  0  0  0  0  0  0  0  0  0  0
   -3.9374    4.6203  -18.1497 N   0  0  0  0  0  0  0  0  0  0  0  0
   -3.2843    3.8621  -17.9526 H   0  0  0  0  0  0  0  0  0  0  0  0
   -2.2775    5.0451  -19.9344 C   0  0  0  0  0  0  0  0  0  0  0  0
   -3.1761    5.7015  -18.8634 C   0  0  0  0  0  0  0  0  0  0  0  0
   -2.3507    6.6798  -17.9621 C   0  0  0  0  0  0  0  0  0  0  0  0
   -1.2956    6.0835  -17.2241 O   0  0  0  0  0  0  0  0  0  0  0  0
   -1.6624    5.4392  -16.5986 H   0  0  0  0  0  0  0  0  0  0  0  0
   -4.2721    6.5779  -19.5683 C   0  0  0  0  0  0  0  0  0  0  0  0
   -3.7702    7.7717  -20.4111 C   0  0  0  0  0  0  0  0  0  0  0  0
   -4.1247    7.6706  -21.8730 C   0  0  0  0  0  0  0  0  0  0  0  0
   -5.4346    7.9165  -22.3070 C   0  0  0  0  0  0  0  0  0  0  0  0
   -5.7639    7.8027  -23.6584 C   0  0  0  0  0  0  0  0  0  0  0  0
   -4.7881    7.4479  -24.5880 C   0  0  0  0  0  0  0  0  0  0  0  0
   -3.4818    7.2062  -24.1681 C   0  0  0  0  0  0  0  0  0  0  0  0
   -3.1498    7.3173  -22.8172 C   0  0  0  0  0  0  0  0  0  0  0  0
   -4.0842    4.2120  -15.6967 N   0  0  0  0  0  0  0  0  0  0  0  0
   -2.9983    4.6137  -15.2609 O   0  0  0  0  0  0  0  0  0  0  0  0
 26 25  1  0  0  0
 26 27  1  0  0  0
 27 28  1  0  0  0
 26 30  1  0  0  0
 30 31  1  0  0  0
 31 32  1  0  0  0
 32 33  2  0  0  0
 33 34  1  0  0  0
 34 35  2  0  0  0
 35 36  1  0  0  0
 36 37  2  0  0  0
 26 23  1  0  0  0
 22 23  1  0  0  0
 22 38  1  0  0  0
 38 39  2  0  0  0
 22  1  1  0  0  0
  1  2  2  0  0  0
  2  3  1  0  0  0
  3  4  1  0  0  0
  3  5  2  0  0  0
  5  6  1  0  0  0
  6  8  1  0  0  0
  8  9  2  0  0  0
  8 10  1  0  0  0
 10 12  1  0  0  0
 12 13  2  0  0  0
 13 14  1  0  0  0
 14 15  2  0  0  0
 15 16  1  0  0  0
 16 17  2  0  0  0
 16 18  1  0  0  0
 18 19  1  0  0  0
 19 20  1  0  0  0
  6  7  2  0  0  0
 37 32  1  0  0  0
  7  1  1  0  0  0
 17 12  1  0  0  0
 20 15  1  0  0  0
 28 29  1  0  0  0
 23 24  1  0  0  0
 10 11  1  0  0  0
 19 21  1  0  0  0
M  END
> <minimizedAffinity>
-7.98626

> <minimizedRMSD>
1.53215

$$$$
P1540


 31 32  0  0  0  0  0  0  0  0999 V2000
   -6.4656    4.7515  -17.5546 C   0  0  0  0  0  0  0  0  0  0  0  0
   -7.7570    4.5127  -18.0263 C   0  0  0  0  0  0  0  0  0  0  0  0
   -8.7999    4.3509  -17.1200 C   0  0  0  0  0  0  0  0  0  0  0  0
  -10.3911    4.1522  -17.7212 Cl  0  0  0  0  0  0  0  0  0  0  0  0
   -8.5790    4.4175  -15.7448 C   0  0  0  0  0  0  0  0  0  0  0  0
   -7.2895    4.6720  -15.2787 C   0  0  0  0  0  0  0  0  0  0  0  0
   -6.2256    4.8334  -16.1803 C   0  0  0  0  0  0  0  0  0  0  0  0
   -4.0158    5.1298  -17.9080 N   0  0  0  0  0  0  0  0  0  0  0  0
   -5.3811    4.8852  -18.5628 C   0  0  0  0  0  0  0  0  0  0  0  0
   -5.6736    4.7969  -19.6835 O   0  0  0  0  0  0  0  0  0  0  0  0
   -4.0168    5.0863  -16.9244 H   0  0  0  0  0  0  0  0  0  0  0  0
   -2.8491    6.6577  -19.3974 C   0  0  0  0  0  0  0  0  0  0  0  0
   -2.7123    5.4171  -18.5069 C   0  0  0  0  0  0  0  0  0  0  0  0
   -2.2557    4.2209  -19.3639 C   0  0  0  0  0  0  0  0  0  0  0  0
   -1.6846    5.6902  -17.3891 C   0  0  0  0  0  0  0  0  0  0  0  0
   -2.2493    5.4528  -16.1022 O   0  0  0  0  0  0  0  0  0  0  0  0
   -3.0046    6.0460  -15.9661 H   0  0  0  0  0  0  0  0  0  0  0  0
   -7.0423    4.9837  -13.8488 C   0  0  0  0  0  0  0  0  0  0  0  0
   -6.1207    5.6672  -13.6213 O   0  0  0  0  0  0  0  0  0  0  0  0
   -8.0935    4.3637  -12.8931 N   0  0  0  0  0  0  0  0  0  0  0  0
   -8.8254    3.8821  -13.3421 H   0  0  0  0  0  0  0  0  0  0  0  0
   -8.1711    4.3773  -11.4973 C   0  0  0  0  0  0  0  0  0  0  0  0
   -7.8763    5.5465  -10.7965 C   0  0  0  0  0  0  0  0  0  0  0  0
   -7.9539    5.5771   -9.4067 C   0  0  0  0  0  0  0  0  0  0  0  0
   -8.3099    4.4306   -8.7051 C   0  0  0  0  0  0  0  0  0  0  0  0
   -8.5966    3.2351   -9.3790 C   0  0  0  0  0  0  0  0  0  0  0  0
   -8.5430    3.2277  -10.7897 C   0  0  0  0  0  0  0  0  0  0  0  0
   -8.9729    1.9750   -8.6286 C   0  0  0  0  0  0  0  0  0  0  0  0
   -8.6247    2.0110   -7.2052 N   0  0  0  0  0  0  0  0  0  0  0  0
   -7.6135    2.0999   -7.1047 H   0  0  0  0  0  0  0  0  0  0  0  0
   -8.9364    1.1494   -6.7570 H   0  0  0  0  0  0  0  0  0  0  0  0
 12 13  1  0  0  0
 13 14  1  0  0  0
 13 15  1  0  0  0
 15 16  1  0  0  0
 13  8  1  0  0  0
  8  9  1  0  0  0
  9 10  2  0  0  0
  9  1  1  0  0  0
  1  2  2  0  0  0
  2  3  1  0  0  0
  3  4  1  0  0  0
  3  5  2  0  0  0
  5  6  1  0  0  0
  6 18  1  0  0  0
 18 19  2  0  0  0
 18 20  1  0  0  0
 20 22  1  0  0  0
 22 23  2  0  0  0
 23 24  1  0  0  0
 24 25  2  0  0  0
 25 26  1  0  0  0
 26 28  1  0  0  0
 28 29  1  0  0  0
 26 27  2  0  0  0
  6  7  2  0  0  0
  7  1  1  0  0  0
 27 22  1  0  0  0
 16 17  1  0  0  0
  8 11  1  0  0  0
 20 21  1  0  0  0
 29 30  1  0  0  0
 29 31  1  0  0  0
M  END
> <minimizedAffinity>
-7.33330

> <minimizedRMSD>
0.96609

$$$$
P1544


 40 43  0  0  0  0  0  0  0  0999 V2000
   -7.1361    4.0648  -13.7632 C   0  0  0  0  0  0  0  0  0  0  0  0
   -7.2998    4.3086  -15.2598 C   0  0  0  0  0  0  0  0  0  0  0  0
   -8.5451    4.2705  -15.9333 C   0  0  0  0  0  0  0  0  0  0  0  0
   -8.6635    4.4299  -17.3158 C   0  0  0  0  0  0  0  0  0  0  0  0
  -10.2035    4.3457  -18.0747 Cl  0  0  0  0  0  0  0  0  0  0  0  0
   -7.5549    4.6929  -18.1052 C   0  0  0  0  0  0  0  0  0  0  0  0
   -6.3363    4.7936  -17.4354 C   0  0  0  0  0  0  0  0  0  0  0  0
   -6.1806    4.5926  -16.0692 C   0  0  0  0  0  0  0  0  0  0  0  0
   -4.7904    4.7498  -15.8445 C   0  0  0  0  0  0  0  0  0  0  0  0
   -4.1224    5.0628  -16.9530 N   0  0  0  0  0  0  0  0  0  0  0  0
   -5.0822    5.0748  -17.8830 N   0  0  0  0  0  0  0  0  0  0  0  0
   -4.7405    5.3919  -19.1810 O   0  0  0  0  0  0  0  0  0  0  0  0
   -3.5421    4.6998  -19.4639 C   0  0  0  0  0  0  0  0  0  0  0  0
   -2.7961    5.3927  -20.4946 N   0  0  0  0  0  0  0  0  0  0  0  0
   -3.4303    6.0571  -20.9384 H   0  0  0  0  0  0  0  0  0  0  0  0
   -1.5991    6.1376  -20.0718 C   0  0  0  0  0  0  0  0  0  0  0  0
   -1.9004    7.5480  -19.5450 C   0  0  0  0  0  0  0  0  0  0  0  0
   -0.8092    5.3356  -19.0313 C   0  0  0  0  0  0  0  0  0  0  0  0
   -0.7200    6.3185  -21.3424 C   0  0  0  0  0  0  0  0  0  0  0  0
   -0.9424    5.2930  -22.3073 O   0  0  0  0  0  0  0  0  0  0  0  0
   -0.7097    4.4327  -21.9243 H   0  0  0  0  0  0  0  0  0  0  0  0
   -4.9316    3.1050  -12.9985 N   0  0  0  0  0  0  0  0  0  0  0  0
   -6.3670    2.7114  -13.4620 C   0  0  0  0  0  0  0  0  0  0  0  0
   -6.8560    1.6578  -13.6005 O   0  0  0  0  0  0  0  0  0  0  0  0
   -4.7357    4.0690  -13.0367 H   0  0  0  0  0  0  0  0  0  0  0  0
   -2.9872    1.8185  -13.6958 C   0  0  0  0  0  0  0  0  0  0  0  0
   -3.8423    2.2844  -12.5221 C   0  0  0  0  0  0  0  0  0  0  0  0
   -3.0042    3.0414  -11.5006 C   0  0  0  0  0  0  0  0  0  0  0  0
   -8.4337    4.0902  -13.0664 N   0  0  0  0  0  0  0  0  0  0  0  0
   -9.3037    4.0188  -13.5217 H   0  0  0  0  0  0  0  0  0  0  0  0
   -8.2835    4.2292  -11.6644 C   0  0  0  0  0  0  0  0  0  0  0  0
   -8.5489    3.1291  -10.8286 C   0  0  0  0  0  0  0  0  0  0  0  0
   -8.3966    3.2014   -9.4452 C   0  0  0  0  0  0  0  0  0  0  0  0
   -8.0008    4.4055   -8.9065 C   0  0  0  0  0  0  0  0  0  0  0  0
   -7.7181    5.5014   -9.7182 C   0  0  0  0  0  0  0  0  0  0  0  0
   -7.8307    5.4267  -11.0987 C   0  0  0  0  0  0  0  0  0  0  0  0
   -7.3206    6.6483   -8.8532 C   0  0  0  0  0  0  0  0  0  0  0  0
   -7.7131    6.2619   -7.4708 N   0  0  0  0  0  0  0  0  0  0  0  0
   -7.8035    4.7733   -7.4776 C   0  0  0  0  0  0  0  0  0  0  0  0
   -8.6155    6.6718   -7.2297 H   0  0  0  0  0  0  0  0  0  0  0  0
 26 27  1  0  0  0
 27 28  1  0  0  0
 27 22  1  0  0  0
 22 23  1  0  0  0
 23 24  2  0  0  0
 23  1  1  0  0  0
  1 29  1  0  0  0
 29 31  1  0  0  0
 31 32  2  0  0  0
 32 33  1  0  0  0
 33 34  2  0  0  0
 34 35  1  0  0  0
 35 36  2  0  0  0
 35 37  1  0  0  0
 37 38  1  0  0  0
 38 39  1  0  0  0
  1  2  1  0  0  0
  2  3  2  0  0  0
  3  4  1  0  0  0
  4  5  1  0  0  0
  4  6  2  0  0  0
  6  7  1  0  0  0
  7  8  2  0  0  0
  8  9  1  0  0  0
  9 10  2  0  0  0
 10 11  1  0  0  0
 11 12  1  0  0  0
 12 13  1  0  0  0
 13 14  1  0  0  0
 14 16  1  0  0  0
 16 17  1  0  0  0
 16 18  1  0  0  0
 16 19  1  0  0  0
 19 20  1  0  0  0
 36 31  1  0  0  0
  8  2  1  0  0  0
 39 34  1  0  0  0
 11  7  1  0  0  0
 22 25  1  0  0  0
 29 30  1  0  0  0
 38 40  1  0  0  0
 14 15  1  0  0  0
 20 21  1  0  0  0
M  END
> <minimizedAffinity>
-8.51083

> <minimizedRMSD>
0.87705

$$$$
P1555


 36 39  0  0  0  0  0  0  0  0999 V2000
   -6.9058    4.0632  -14.4659 C   0  0  0  0  0  0  0  0  0  0  0  0
   -5.6498    4.6308  -14.5016 N   0  0  0  0  0  0  0  0  0  0  0  0
   -5.3938    5.2127  -15.7238 C   0  0  0  0  0  0  0  0  0  0  0  0
   -4.2273    5.8588  -15.9374 N   0  0  0  0  0  0  0  0  0  0  0  0
   -6.4899    4.9675  -16.5148 C   0  0  0  0  0  0  0  0  0  0  0  0
   -6.7079    5.3201  -17.8483 C   0  0  0  0  0  0  0  0  0  0  0  0
   -7.9589    4.8576  -18.3128 C   0  0  0  0  0  0  0  0  0  0  0  0
   -8.9189    4.1999  -17.4848 C   0  0  0  0  0  0  0  0  0  0  0  0
  -10.4679    3.8834  -18.1750 Cl  0  0  0  0  0  0  0  0  0  0  0  0
   -8.7111    3.8808  -16.1329 C   0  0  0  0  0  0  0  0  0  0  0  0
   -7.4441    4.2686  -15.7138 C   0  0  0  0  0  0  0  0  0  0  0  0
   -5.0158    4.6215  -13.7485 H   0  0  0  0  0  0  0  0  0  0  0  0
   -3.5597    5.9209  -15.2165 H   0  0  0  0  0  0  0  0  0  0  0  0
   -4.0445    6.2679  -16.8141 H   0  0  0  0  0  0  0  0  0  0  0  0
   -5.8459    6.2169  -18.6355 C   0  0  0  0  0  0  0  0  0  0  0  0
   -5.8885    7.3657  -18.4287 O   0  0  0  0  0  0  0  0  0  0  0  0
   -5.0044    5.4134  -19.6483 N   0  0  0  0  0  0  0  0  0  0  0  0
   -5.2077    4.4507  -19.6811 H   0  0  0  0  0  0  0  0  0  0  0  0
   -4.0071    5.8267  -20.5210 C   0  0  0  0  0  0  0  0  0  0  0  0
   -3.0444    6.7652  -20.1077 C   0  0  0  0  0  0  0  0  0  0  0  0
   -1.9583    7.0883  -20.9215 C   0  0  0  0  0  0  0  0  0  0  0  0
   -1.8527    6.4391  -22.1329 C   0  0  0  0  0  0  0  0  0  0  0  0
   -2.8330    5.5434  -22.5637 C   0  0  0  0  0  0  0  0  0  0  0  0
   -3.9327    5.2372  -21.7836 C   0  0  0  0  0  0  0  0  0  0  0  0
   -2.3999    4.9741  -23.8706 C   0  0  0  0  0  0  0  0  0  0  0  0
   -0.9476    5.2688  -23.9711 N   0  0  0  0  0  0  0  0  0  0  0  0
   -0.7513    6.4852  -23.1386 C   0  0  0  0  0  0  0  0  0  0  0  0
   -0.6832    5.4491  -24.9396 H   0  0  0  0  0  0  0  0  0  0  0  0
   -7.3908    3.3914  -13.3904 N   0  0  0  0  0  0  0  0  0  0  0  0
   -7.7123    2.4754  -13.5539 H   0  0  0  0  0  0  0  0  0  0  0  0
   -8.4773    2.9492  -11.2802 C   0  0  0  0  0  0  0  0  0  0  0  0
   -7.4884    3.8845  -12.0041 C   0  0  0  0  0  0  0  0  0  0  0  0
   -8.0639    5.3071  -12.0051 C   0  0  0  0  0  0  0  0  0  0  0  0
   -6.1393    3.7926  -11.2305 C   0  0  0  0  0  0  0  0  0  0  0  0
   -5.2505    4.8926  -11.4789 O   0  0  0  0  0  0  0  0  0  0  0  0
   -5.0098    4.9080  -12.4184 H   0  0  0  0  0  0  0  0  0  0  0  0
 31 32  1  0  0  0
 32 33  1  0  0  0
 32 34  1  0  0  0
 34 35  1  0  0  0
 32 29  1  0  0  0
 29  1  1  0  0  0
  1  2  1  0  0  0
  2  3  1  0  0  0
  3  4  1  0  0  0
  3  5  2  0  0  0
  5  6  1  0  0  0
  6 15  1  0  0  0
 15 16  2  0  0  0
 15 17  1  0  0  0
 17 19  1  0  0  0
 19 20  2  0  0  0
 20 21  1  0  0  0
 21 22  2  0  0  0
 22 23  1  0  0  0
 23 24  2  0  0  0
 23 25  1  0  0  0
 25 26  1  0  0  0
 26 27  1  0  0  0
  6  7  2  0  0  0
  7  8  1  0  0  0
  8  9  1  0  0  0
  8 10  2  0  0  0
 10 11  1  0  0  0
 11  1  2  0  0  0
 11  5  1  0  0  0
 24 19  1  0  0  0
 27 22  1  0  0  0
 35 36  1  0  0  0
 29 30  1  0  0  0
  2 12  1  0  0  0
  4 13  1  0  0  0
  4 14  1  0  0  0
 17 18  1  0  0  0
 26 28  1  0  0  0
M  END
> <minimizedAffinity>
-7.21344

> <minimizedRMSD>
0.52720

$$$$
P1571


 33 36  0  0  0  0  0  0  0  0999 V2000
   -5.6822    4.8127  -18.6385 C   0  0  0  0  0  0  0  0  0  0  0  0
   -4.8096    5.1598  -17.6426 N   0  0  0  0  0  0  0  0  0  0  0  0
   -5.3173    5.1272  -16.4046 N   0  0  0  0  0  0  0  0  0  0  0  0
   -6.6114    4.8068  -16.5685 C   0  0  0  0  0  0  0  0  0  0  0  0
   -7.6601    4.6897  -15.6379 C   0  0  0  0  0  0  0  0  0  0  0  0
   -8.9088    4.3355  -16.1906 C   0  0  0  0  0  0  0  0  0  0  0  0
   -9.1110    4.1780  -17.5921 C   0  0  0  0  0  0  0  0  0  0  0  0
  -10.7280    4.0144  -18.1629 Cl  0  0  0  0  0  0  0  0  0  0  0  0
   -8.0901    4.2664  -18.5542 C   0  0  0  0  0  0  0  0  0  0  0  0
   -6.8641    4.5864  -17.9729 C   0  0  0  0  0  0  0  0  0  0  0  0
   -3.8762    5.4149  -17.8238 H   0  0  0  0  0  0  0  0  0  0  0  0
   -7.5044    5.1604  -14.2539 C   0  0  0  0  0  0  0  0  0  0  0  0
   -6.9454    6.1693  -14.0814 O   0  0  0  0  0  0  0  0  0  0  0  0
   -8.1691    4.2017  -13.2467 N   0  0  0  0  0  0  0  0  0  0  0  0
   -8.6479    3.4437  -13.6535 H   0  0  0  0  0  0  0  0  0  0  0  0
   -8.2027    4.2330  -11.8575 C   0  0  0  0  0  0  0  0  0  0  0  0
   -8.2771    3.0281  -11.1487 C   0  0  0  0  0  0  0  0  0  0  0  0
   -8.2555    3.0245   -9.7514 C   0  0  0  0  0  0  0  0  0  0  0  0
   -8.1757    4.2337   -9.0891 C   0  0  0  0  0  0  0  0  0  0  0  0
   -8.1209    5.4308   -9.7927 C   0  0  0  0  0  0  0  0  0  0  0  0
   -8.1300    5.4509  -11.1763 C   0  0  0  0  0  0  0  0  0  0  0  0
   -8.0063    6.5615   -8.8284 C   0  0  0  0  0  0  0  0  0  0  0  0
   -8.3244    5.9820   -7.4928 N   0  0  0  0  0  0  0  0  0  0  0  0
   -8.1096    4.5153   -7.6290 C   0  0  0  0  0  0  0  0  0  0  0  0
   -9.2934    6.1778   -7.2418 H   0  0  0  0  0  0  0  0  0  0  0  0
   -5.3889    4.7516  -19.9653 N   0  0  0  0  0  0  0  0  0  0  0  0
   -6.1202    4.4512  -20.5520 H   0  0  0  0  0  0  0  0  0  0  0  0
   -2.9297    4.2956  -20.0548 C   0  0  0  0  0  0  0  0  0  0  0  0
   -4.1166    5.0770  -20.6405 C   0  0  0  0  0  0  0  0  0  0  0  0
   -3.8563    6.5886  -20.5756 C   0  0  0  0  0  0  0  0  0  0  0  0
   -4.2528    4.6317  -22.1318 C   0  0  0  0  0  0  0  0  0  0  0  0
   -5.1841    5.4204  -22.8705 O   0  0  0  0  0  0  0  0  0  0  0  0
   -6.0672    5.3283  -22.4798 H   0  0  0  0  0  0  0  0  0  0  0  0
 28 29  1  0  0  0
 29 30  1  0  0  0
 29 31  1  0  0  0
 31 32  1  0  0  0
 29 26  1  0  0  0
 26  1  1  0  0  0
  1  2  1  0  0  0
  2  3  1  0  0  0
  3  4  2  0  0  0
  4  5  1  0  0  0
  5 12  1  0  0  0
 12 13  2  0  0  0
 12 14  1  0  0  0
 14 16  1  0  0  0
 16 17  2  0  0  0
 17 18  1  0  0  0
 18 19  2  0  0  0
 19 20  1  0  0  0
 20 21  2  0  0  0
 20 22  1  0  0  0
 22 23  1  0  0  0
 23 24  1  0  0  0
  5  6  2  0  0  0
  6  7  1  0  0  0
  7  8  1  0  0  0
  7  9  2  0  0  0
  9 10  1  0  0  0
 10  1  2  0  0  0
 10  4  1  0  0  0
 21 16  1  0  0  0
 24 19  1  0  0  0
 32 33  1  0  0  0
 26 27  1  0  0  0
  2 11  1  0  0  0
 14 15  1  0  0  0
 23 25  1  0  0  0
M  END
> <minimizedAffinity>
-8.83713

> <minimizedRMSD>
0.39149

$$$$
P1574


 41 43  0  0  0  0  0  0  0  0999 V2000
   -7.0619    4.4296  -13.8180 C   0  0  0  0  0  0  0  0  0  0  0  0
   -6.4221    4.7212  -17.6274 C   0  0  0  0  0  0  0  0  0  0  0  0
   -7.7140    4.5255  -18.1191 C   0  0  0  0  0  0  0  0  0  0  0  0
   -8.7644    4.2277  -17.2465 C   0  0  0  0  0  0  0  0  0  0  0  0
  -10.3611    4.0982  -17.8655 Cl  0  0  0  0  0  0  0  0  0  0  0  0
   -8.5569    4.1295  -15.8688 C   0  0  0  0  0  0  0  0  0  0  0  0
   -7.2835    4.3242  -15.3317 C   0  0  0  0  0  0  0  0  0  0  0  0
   -6.2358    4.5611  -16.2380 C   0  0  0  0  0  0  0  0  0  0  0  0
   -5.2113    5.1250  -18.4688 C   0  0  0  0  0  0  0  0  0  0  0  0
   -4.1224    4.4350  -17.9125 O   0  0  0  0  0  0  0  0  0  0  0  0
   -4.9625    6.5008  -18.2923 O   0  0  0  0  0  0  0  0  0  0  0  0
   -4.1020    3.4984  -17.9318 H   0  0  0  0  0  0  0  0  0  0  0  0
   -5.5820    7.1323  -18.6011 H   0  0  0  0  0  0  0  0  0  0  0  0
   -5.3284    4.8561  -19.8787 N   0  0  0  0  0  0  0  0  0  0  0  0
   -5.2743    3.8446  -19.9981 H   0  0  0  0  0  0  0  0  0  0  0  0
   -4.5865    6.9741  -20.9946 C   0  0  0  0  0  0  0  0  0  0  0  0
   -4.3302    5.4616  -20.8009 C   0  0  0  0  0  0  0  0  0  0  0  0
   -2.8570    5.2510  -20.4137 C   0  0  0  0  0  0  0  0  0  0  0  0
   -4.5229    4.7667  -22.1791 C   0  0  0  0  0  0  0  0  0  0  0  0
   -5.2417    5.5903  -23.0901 O   0  0  0  0  0  0  0  0  0  0  0  0
   -6.1242    5.7746  -22.7322 H   0  0  0  0  0  0  0  0  0  0  0  0
   -5.9678    3.3881  -13.3442 C   0  0  0  0  0  0  0  0  0  0  0  0
   -6.0075    2.2435  -13.5842 O   0  0  0  0  0  0  0  0  0  0  0  0
   -4.8630    4.2355  -12.6314 N   0  0  0  0  0  0  0  0  0  0  0  0
   -5.1005    5.1787  -12.4792 H   0  0  0  0  0  0  0  0  0  0  0  0
   -3.5493    3.8577  -12.1598 C   0  0  0  0  0  0  0  0  0  0  0  0
   -2.6459    3.4786  -13.3356 C   0  0  0  0  0  0  0  0  0  0  0  0
   -2.8352    2.1790  -13.6821 F   0  0  0  0  0  0  0  0  0  0  0  0
   -3.0120    4.2050  -14.4344 F   0  0  0  0  0  0  0  0  0  0  0  0
   -8.3213    4.3235  -13.0872 N   0  0  0  0  0  0  0  0  0  0  0  0
   -9.1775    4.2220  -13.5625 H   0  0  0  0  0  0  0  0  0  0  0  0
   -8.2724    4.3710  -11.6816 C   0  0  0  0  0  0  0  0  0  0  0  0
   -8.4752    3.1692  -10.9738 C   0  0  0  0  0  0  0  0  0  0  0  0
   -8.4264    3.1144   -9.5793 C   0  0  0  0  0  0  0  0  0  0  0  0
   -8.1920    4.2858   -8.8931 C   0  0  0  0  0  0  0  0  0  0  0  0
   -8.0545    5.4952   -9.5653 C   0  0  0  0  0  0  0  0  0  0  0  0
   -8.1202    5.5601  -10.9501 C   0  0  0  0  0  0  0  0  0  0  0  0
   -7.8839    6.5840   -8.5610 C   0  0  0  0  0  0  0  0  0  0  0  0
   -7.5630    5.8971   -7.2778 N   0  0  0  0  0  0  0  0  0  0  0  0
   -8.0906    4.5111   -7.4264 C   0  0  0  0  0  0  0  0  0  0  0  0
   -8.0177    6.3700   -6.4967 H   0  0  0  0  0  0  0  0  0  0  0  0
 16 17  1  0  0  0
 17 18  1  0  0  0
 17 19  1  0  0  0
 19 20  1  0  0  0
 17 14  1  0  0  0
 14  9  1  0  0  0
  9 10  1  0  0  0
  9 11  1  0  0  0
  9  2  1  0  0  0
  2  3  2  0  0  0
  3  4  1  0  0  0
  4  5  1  0  0  0
  4  6  2  0  0  0
  6  7  1  0  0  0
  7  1  1  0  0  0
  1 30  1  0  0  0
 30 32  1  0  0  0
 32 33  2  0  0  0
 33 34  1  0  0  0
 34 35  2  0  0  0
 35 36  1  0  0  0
 36 37  2  0  0  0
 36 38  1  0  0  0
 38 39  1  0  0  0
 39 40  1  0  0  0
  1 22  1  0  0  0
 22 23  2  0  0  0
 22 24  1  0  0  0
 24 26  1  0  0  0
 26 27  1  0  0  0
 27 28  1  0  0  0
 27 29  1  0  0  0
  7  8  2  0  0  0
  8  2  1  0  0  0
 37 32  1  0  0  0
 40 35  1  0  0  0
 20 21  1  0  0  0
 14 15  1  0  0  0
 10 12  1  0  0  0
 11 13  1  0  0  0
 30 31  1  0  0  0
 39 41  1  0  0  0
 24 25  1  0  0  0
M  END
> <minimizedAffinity>
-8.06176

> <minimizedRMSD>
1.80522

$$$$
P1576


 42 45  0  0  0  0  0  0  0  0999 V2000
   -5.5872    6.0822  -18.2306 C   0  0  0  0  0  0  0  0  0  0  0  0
   -4.4827    6.7678  -17.7145 C   0  0  0  0  0  0  0  0  0  0  0  0
   -4.3108    6.9044  -16.3543 C   0  0  0  0  0  0  0  0  0  0  0  0
   -5.2334    6.3221  -15.4949 C   0  0  0  0  0  0  0  0  0  0  0  0
   -6.3124    5.5249  -15.9449 C   0  0  0  0  0  0  0  0  0  0  0  0
   -7.2537    4.8959  -15.0661 C   0  0  0  0  0  0  0  0  0  0  0  0
   -8.3788    4.2647  -15.6512 C   0  0  0  0  0  0  0  0  0  0  0  0
   -8.5472    4.2088  -17.0310 C   0  0  0  0  0  0  0  0  0  0  0  0
  -10.0073    3.6498  -17.7441 Cl  0  0  0  0  0  0  0  0  0  0  0  0
   -7.5784    4.7151  -17.8716 C   0  0  0  0  0  0  0  0  0  0  0  0
   -6.4804    5.4168  -17.3591 C   0  0  0  0  0  0  0  0  0  0  0  0
   -5.7335    6.0702  -19.6413 N   0  0  0  0  0  0  0  0  0  0  0  0
   -6.2623    6.7432  -20.1278 H   0  0  0  0  0  0  0  0  0  0  0  0
   -5.0644    5.0232  -20.2847 N   0  0  0  0  0  0  0  0  0  0  0  0
   -4.6426    4.4199  -19.5786 H   0  0  0  0  0  0  0  0  0  0  0  0
   -4.1327    4.6196  -22.4290 C   0  0  0  0  0  0  0  0  0  0  0  0
   -4.0070    5.5098  -21.1856 C   0  0  0  0  0  0  0  0  0  0  0  0
   -4.1343    6.9779  -21.6383 C   0  0  0  0  0  0  0  0  0  0  0  0
   -2.6283    5.2949  -20.5218 C   0  0  0  0  0  0  0  0  0  0  0  0
   -2.5102    3.9777  -19.9834 O   0  0  0  0  0  0  0  0  0  0  0  0
   -3.1902    3.8435  -19.3048 H   0  0  0  0  0  0  0  0  0  0  0  0
   -7.1380    5.0189  -13.5228 C   0  0  0  0  0  0  0  0  0  0  0  0
   -5.8016    4.4166  -12.9213 C   0  0  0  0  0  0  0  0  0  0  0  0
   -5.0637    5.0599  -12.2826 O   0  0  0  0  0  0  0  0  0  0  0  0
   -5.7104    2.9376  -13.3740 N   0  0  0  0  0  0  0  0  0  0  0  0
   -6.4318    2.6459  -13.9771 H   0  0  0  0  0  0  0  0  0  0  0  0
   -4.7377    1.9158  -13.0546 C   0  0  0  0  0  0  0  0  0  0  0  0
   -3.4889    1.9923  -13.9245 C   0  0  0  0  0  0  0  0  0  0  0  0
   -2.9968    3.2580  -13.9516 F   0  0  0  0  0  0  0  0  0  0  0  0
   -2.4935    1.2182  -13.4218 F   0  0  0  0  0  0  0  0  0  0  0  0
   -8.2954    4.3882  -12.8413 N   0  0  0  0  0  0  0  0  0  0  0  0
   -9.0487    4.0017  -13.3436 H   0  0  0  0  0  0  0  0  0  0  0  0
   -8.2528    4.3749  -11.4289 C   0  0  0  0  0  0  0  0  0  0  0  0
   -8.4341    3.1344  -10.7932 C   0  0  0  0  0  0  0  0  0  0  0  0
   -8.4297    3.0128   -9.4026 C   0  0  0  0  0  0  0  0  0  0  0  0
   -8.2705    4.1597   -8.6547 C   0  0  0  0  0  0  0  0  0  0  0  0
   -8.1381    5.4015   -9.2663 C   0  0  0  0  0  0  0  0  0  0  0  0
   -8.1464    5.5318  -10.6471 C   0  0  0  0  0  0  0  0  0  0  0  0
   -8.0303    6.4520   -8.2136 C   0  0  0  0  0  0  0  0  0  0  0  0
   -7.7706    5.7202   -6.9430 N   0  0  0  0  0  0  0  0  0  0  0  0
   -8.2531    4.3281   -7.1750 C   0  0  0  0  0  0  0  0  0  0  0  0
   -8.2829    6.1507   -6.1732 H   0  0  0  0  0  0  0  0  0  0  0  0
 16 17  1  0  0  0
 17 18  1  0  0  0
 17 19  1  0  0  0
 19 20  1  0  0  0
 17 14  1  0  0  0
 14 12  1  0  0  0
 12  1  1  0  0  0
  1  2  2  0  0  0
  2  3  1  0  0  0
  3  4  2  0  0  0
  4  5  1  0  0  0
  5  6  2  0  0  0
  6 22  1  0  0  0
 22 31  1  0  0  0
 31 33  1  0  0  0
 33 34  2  0  0  0
 34 35  1  0  0  0
 35 36  2  0  0  0
 36 37  1  0  0  0
 37 38  2  0  0  0
 37 39  1  0  0  0
 39 40  1  0  0  0
 40 41  1  0  0  0
 22 23  1  0  0  0
 23 24  2  0  0  0
 23 25  1  0  0  0
 25 27  1  0  0  0
 27 28  1  0  0  0
 28 29  1  0  0  0
 28 30  1  0  0  0
  6  7  1  0  0  0
  7  8  2  0  0  0
  8  9  1  0  0  0
  8 10  1  0  0  0
 10 11  2  0  0  0
 11  1  1  0  0  0
 11  5  1  0  0  0
 38 33  1  0  0  0
 41 36  1  0  0  0
 20 21  1  0  0  0
 14 15  1  0  0  0
 12 13  1  0  0  0
 31 32  1  0  0  0
 40 42  1  0  0  0
 25 26  1  0  0  0
M  END
> <minimizedAffinity>
-7.89147

> <minimizedRMSD>
0.25538

$$$$
P1577


 38 40  0  0  0  0  0  0  0  0999 V2000
   -7.5075    5.2400  -13.7228 C   0  0  0  0  0  0  0  0  0  0  0  0
   -6.5021    4.9113  -17.4207 C   0  0  0  0  0  0  0  0  0  0  0  0
   -7.6786    4.4208  -17.9960 C   0  0  0  0  0  0  0  0  0  0  0  0
   -8.8115    4.2026  -17.2084 C   0  0  0  0  0  0  0  0  0  0  0  0
  -10.2840    3.7351  -17.9731 Cl  0  0  0  0  0  0  0  0  0  0  0  0
   -8.7858    4.4262  -15.8271 C   0  0  0  0  0  0  0  0  0  0  0  0
   -7.6261    4.9101  -15.2114 C   0  0  0  0  0  0  0  0  0  0  0  0
   -6.5118    5.1674  -16.0323 C   0  0  0  0  0  0  0  0  0  0  0  0
   -4.0287    4.6221  -17.3734 C   0  0  0  0  0  0  0  0  0  0  0  0
   -5.2039    5.1848  -18.1931 C   0  0  0  0  0  0  0  0  0  0  0  0
   -5.2190    4.6767  -19.5779 N   0  0  0  0  0  0  0  0  0  0  0  0
   -6.1878    4.7014  -19.8960 H   0  0  0  0  0  0  0  0  0  0  0  0
   -4.4026    5.3776  -20.6058 C   0  0  0  0  0  0  0  0  0  0  0  0
   -4.8179    6.8597  -20.6725 C   0  0  0  0  0  0  0  0  0  0  0  0
   -2.8801    5.2981  -20.4193 C   0  0  0  0  0  0  0  0  0  0  0  0
   -4.6924    4.6965  -21.9789 C   0  0  0  0  0  0  0  0  0  0  0  0
   -5.2239    5.5991  -22.9382 O   0  0  0  0  0  0  0  0  0  0  0  0
   -6.0707    5.9485  -22.6191 H   0  0  0  0  0  0  0  0  0  0  0  0
   -7.7075    6.7952  -13.5162 C   0  0  0  0  0  0  0  0  0  0  0  0
   -6.8061    7.5344  -13.4167 O   0  0  0  0  0  0  0  0  0  0  0  0
   -9.2390    7.0666  -13.5033 N   0  0  0  0  0  0  0  0  0  0  0  0
   -9.7991    6.2771  -13.6831 H   0  0  0  0  0  0  0  0  0  0  0  0
   -9.9775    8.2962  -13.2691 C   0  0  0  0  0  0  0  0  0  0  0  0
   -9.7586    8.9668  -11.9136 C   0  0  0  0  0  0  0  0  0  0  0  0
  -10.9635    9.3083  -11.3832 F   0  0  0  0  0  0  0  0  0  0  0  0
   -9.0778   10.1320  -12.0685 F   0  0  0  0  0  0  0  0  0  0  0  0
   -8.4227    4.4140  -12.8902 N   0  0  0  0  0  0  0  0  0  0  0  0
   -9.1629    3.9051  -13.2932 H   0  0  0  0  0  0  0  0  0  0  0  0
   -8.1848    4.3896  -11.4897 C   0  0  0  0  0  0  0  0  0  0  0  0
   -7.9117    5.5270  -10.6979 C   0  0  0  0  0  0  0  0  0  0  0  0
   -7.8772    5.5824   -9.3416 N   0  0  0  0  0  0  0  0  0  0  0  0
   -8.1065    4.4127   -8.7398 C   0  0  0  0  0  0  0  0  0  0  0  0
   -8.3444    3.2231   -9.3997 C   0  0  0  0  0  0  0  0  0  0  0  0
   -8.4065    3.2013  -10.7847 C   0  0  0  0  0  0  0  0  0  0  0  0
   -8.4848    2.1266   -8.3998 C   0  0  0  0  0  0  0  0  0  0  0  0
   -8.7254    2.8037   -7.0927 N   0  0  0  0  0  0  0  0  0  0  0  0
   -8.1515    4.1663   -7.2581 C   0  0  0  0  0  0  0  0  0  0  0  0
   -8.2546    2.3048   -6.3378 H   0  0  0  0  0  0  0  0  0  0  0  0
 10  9  1  0  0  0
 10 11  1  0  0  0
 11 13  1  0  0  0
 13 14  1  0  0  0
 13 15  1  0  0  0
 13 16  1  0  0  0
 16 17  1  0  0  0
 10  2  1  0  0  0
  2  3  2  0  0  0
  3  4  1  0  0  0
  4  5  1  0  0  0
  4  6  2  0  0  0
  6  7  1  0  0  0
  7  1  1  0  0  0
  1 27  1  0  0  0
 27 29  1  0  0  0
 29 30  2  0  0  0
 30 31  1  0  0  0
 31 32  2  0  0  0
 32 33  1  0  0  0
 33 34  2  0  0  0
 33 35  1  0  0  0
 35 36  1  0  0  0
 36 37  1  0  0  0
  1 19  1  0  0  0
 19 20  2  0  0  0
 19 21  1  0  0  0
 21 23  1  0  0  0
 23 24  1  0  0  0
 24 25  1  0  0  0
 24 26  1  0  0  0
  7  8  2  0  0  0
  8  2  1  0  0  0
 34 29  1  0  0  0
 37 32  1  0  0  0
 11 12  1  0  0  0
 17 18  1  0  0  0
 27 28  1  0  0  0
 36 38  1  0  0  0
 21 22  1  0  0  0
M  END
> <minimizedAffinity>
-7.70184

> <minimizedRMSD>
0.77269

$$$$
P1579


 36 38  0  0  0  0  0  0  0  0999 V2000
   -7.8714    4.7421  -15.5027 C   0  0  0  0  0  0  0  0  0  0  0  0
   -8.8665    4.4165  -16.4268 C   0  0  0  0  0  0  0  0  0  0  0  0
   -8.5557    4.3270  -17.7813 C   0  0  0  0  0  0  0  0  0  0  0  0
   -9.8128    4.0716  -18.9082 Cl  0  0  0  0  0  0  0  0  0  0  0  0
   -7.2591    4.5402  -18.2383 C   0  0  0  0  0  0  0  0  0  0  0  0
   -6.2655    4.8709  -17.3174 C   0  0  0  0  0  0  0  0  0  0  0  0
   -6.5643    4.9673  -15.9571 C   0  0  0  0  0  0  0  0  0  0  0  0
   -4.9040    5.2448  -17.7765 C   0  0  0  0  0  0  0  0  0  0  0  0
   -4.0573    5.3756  -16.9889 O   0  0  0  0  0  0  0  0  0  0  0  0
   -4.8780    5.4096  -19.3019 N   0  0  0  0  0  0  0  0  0  0  0  0
   -5.7161    5.1655  -19.7570 H   0  0  0  0  0  0  0  0  0  0  0  0
   -3.8204    5.8662  -20.1823 C   0  0  0  0  0  0  0  0  0  0  0  0
   -3.3707    7.2858  -19.8416 C   0  0  0  0  0  0  0  0  0  0  0  0
   -1.9907    7.1081  -19.2250 C   0  0  0  0  0  0  0  0  0  0  0  0
   -1.4206    5.9408  -19.9102 N   0  0  0  0  0  0  0  0  0  0  0  0
   -2.5427    5.0103  -20.1489 C   0  0  0  0  0  0  0  0  0  0  0  0
   -0.7107    6.3136  -21.0703 C   0  0  0  0  0  0  0  0  0  0  0  0
    0.2963    7.2720  -20.9227 C   0  0  0  0  0  0  0  0  0  0  0  0
    1.0832    7.6297  -22.0136 C   0  0  0  0  0  0  0  0  0  0  0  0
    0.8622    7.0082  -23.2311 C   0  0  0  0  0  0  0  0  0  0  0  0
   -0.1567    6.0756  -23.3038 C   0  0  0  0  0  0  0  0  0  0  0  0
   -0.9720    5.7477  -22.2729 N   0  0  0  0  0  0  0  0  0  0  0  0
   -8.2103    4.9449  -14.0443 C   0  0  0  0  0  0  0  0  0  0  0  0
   -8.6290    6.3980  -13.7620 C   0  0  0  0  0  0  0  0  0  0  0  0
   -9.9857    6.5931  -14.1279 O   0  0  0  0  0  0  0  0  0  0  0  0
  -10.5511    6.0127  -13.5946 H   0  0  0  0  0  0  0  0  0  0  0  0
   -8.4891    6.7340  -12.3461 N   0  0  0  0  0  0  0  0  0  0  0  0
   -8.9867    6.0434  -11.7841 H   0  0  0  0  0  0  0  0  0  0  0  0
   -9.0513    8.0677  -12.0886 N   0  0  0  0  0  0  0  0  0  0  0  0
   -8.7646    8.7015  -12.8346 H   0  0  0  0  0  0  0  0  0  0  0  0
   -9.1084   10.0417  -10.6817 C   0  0  0  0  0  0  0  0  0  0  0  0
   -8.5677    8.6012  -10.7785 C   0  0  0  0  0  0  0  0  0  0  0  0
   -7.0294    8.6537  -10.7254 C   0  0  0  0  0  0  0  0  0  0  0  0
   -9.1424    7.7979   -9.5796 C   0  0  0  0  0  0  0  0  0  0  0  0
   -8.6036    6.4730   -9.5082 O   0  0  0  0  0  0  0  0  0  0  0  0
   -8.8355    5.9858  -10.3143 H   0  0  0  0  0  0  0  0  0  0  0  0
 31 32  1  0  0  0
 32 33  1  0  0  0
 32 34  1  0  0  0
 34 35  1  0  0  0
 32 29  1  0  0  0
 29 27  1  0  0  0
 27 24  1  0  0  0
 24 25  1  0  0  0
 24 23  1  0  0  0
 23  1  1  0  0  0
  1  2  2  0  0  0
  2  3  1  0  0  0
  3  4  1  0  0  0
  3  5  2  0  0  0
  5  6  1  0  0  0
  6  8  1  0  0  0
  8  9  2  0  0  0
  8 10  1  0  0  0
 12 10  1  0  0  0
 12 13  1  0  0  0
 13 14  1  0  0  0
 14 15  1  0  0  0
 15 17  1  0  0  0
 17 18  2  0  0  0
 18 19  1  0  0  0
 19 20  2  0  0  0
 20 21  1  0  0  0
 21 22  2  0  0  0
 15 16  1  0  0  0
  6  7  2  0  0  0
  7  1  1  0  0  0
 16 12  1  0  0  0
 22 17  1  0  0  0
 35 36  1  0  0  0
 29 30  1  0  0  0
 27 28  1  0  0  0
 25 26  1  0  0  0
 10 11  1  0  0  0
M  END
> <minimizedAffinity>
-6.08489

> <minimizedRMSD>
1.09572

$$$$
P1588


 33 36  0  0  0  0  0  0  0  0999 V2000
   -6.4438    4.7521  -14.3760 C   0  0  0  0  0  0  0  0  0  0  0  0
   -5.1075    5.0229  -14.5326 C   0  0  0  0  0  0  0  0  0  0  0  0
   -4.8328    5.0217  -15.8728 N   0  0  0  0  0  0  0  0  0  0  0  0
   -5.9830    4.8061  -16.6035 C   0  0  0  0  0  0  0  0  0  0  0  0
   -6.1518    4.6856  -18.0002 C   0  0  0  0  0  0  0  0  0  0  0  0
   -7.4541    4.4360  -18.4478 C   0  0  0  0  0  0  0  0  0  0  0  0
   -8.5152    4.3429  -17.5470 C   0  0  0  0  0  0  0  0  0  0  0  0
  -10.1115    4.1240  -18.1481 Cl  0  0  0  0  0  0  0  0  0  0  0  0
   -8.3195    4.4402  -16.1688 C   0  0  0  0  0  0  0  0  0  0  0  0
   -7.0196    4.6655  -15.6817 C   0  0  0  0  0  0  0  0  0  0  0  0
   -3.9384    5.1561  -16.2619 H   0  0  0  0  0  0  0  0  0  0  0  0
   -4.9290    4.7474  -18.8733 C   0  0  0  0  0  0  0  0  0  0  0  0
   -3.9579    4.2704  -18.4259 O   0  0  0  0  0  0  0  0  0  0  0  0
   -5.1679    5.4507  -20.2356 N   0  0  0  0  0  0  0  0  0  0  0  0
   -6.1035    5.7017  -20.4113 H   0  0  0  0  0  0  0  0  0  0  0  0
   -4.2735    5.7847  -21.2509 C   0  0  0  0  0  0  0  0  0  0  0  0
   -2.9695    6.1995  -20.9480 C   0  0  0  0  0  0  0  0  0  0  0  0
   -2.0699    6.5490  -21.9607 C   0  0  0  0  0  0  0  0  0  0  0  0
   -2.5107    6.5120  -23.2685 C   0  0  0  0  0  0  0  0  0  0  0  0
   -3.8050    6.1106  -23.5758 C   0  0  0  0  0  0  0  0  0  0  0  0
   -4.6847    5.7211  -22.5824 C   0  0  0  0  0  0  0  0  0  0  0  0
   -4.0054    6.1957  -25.0517 C   0  0  0  0  0  0  0  0  0  0  0  0
   -2.8299    6.9422  -25.5720 N   0  0  0  0  0  0  0  0  0  0  0  0
   -1.7792    6.8305  -24.5262 C   0  0  0  0  0  0  0  0  0  0  0  0
   -3.0721    7.9207  -25.7282 H   0  0  0  0  0  0  0  0  0  0  0  0
   -7.1461    4.5495  -13.2292 N   0  0  0  0  0  0  0  0  0  0  0  0
   -7.8332    5.2170  -13.0019 H   0  0  0  0  0  0  0  0  0  0  0  0
   -6.7671    2.0890  -13.0389 C   0  0  0  0  0  0  0  0  0  0  0  0
   -6.9719    3.4147  -12.2891 C   0  0  0  0  0  0  0  0  0  0  0  0
   -8.2899    3.2872  -11.4914 C   0  0  0  0  0  0  0  0  0  0  0  0
   -5.8278    3.7041  -11.2814 C   0  0  0  0  0  0  0  0  0  0  0  0
   -5.6884    2.6793  -10.2979 O   0  0  0  0  0  0  0  0  0  0  0  0
   -6.5054    2.6159   -9.7788 H   0  0  0  0  0  0  0  0  0  0  0  0
 28 29  1  0  0  0
 29 30  1  0  0  0
 29 31  1  0  0  0
 31 32  1  0  0  0
 29 26  1  0  0  0
 26  1  1  0  0  0
  1  2  2  0  0  0
  2  3  1  0  0  0
  3  4  1  0  0  0
  4  5  2  0  0  0
  5 12  1  0  0  0
 12 13  2  0  0  0
 12 14  1  0  0  0
 14 16  1  0  0  0
 16 17  2  0  0  0
 17 18  1  0  0  0
 18 19  2  0  0  0
 19 20  1  0  0  0
 20 21  2  0  0  0
 20 22  1  0  0  0
 22 23  1  0  0  0
 23 24  1  0  0  0
  5  6  1  0  0  0
  6  7  2  0  0  0
  7  8  1  0  0  0
  7  9  1  0  0  0
  9 10  2  0  0  0
 10  1  1  0  0  0
 10  4  1  0  0  0
 21 16  1  0  0  0
 24 19  1  0  0  0
 32 33  1  0  0  0
 26 27  1  0  0  0
  3 11  1  0  0  0
 14 15  1  0  0  0
 23 25  1  0  0  0
M  END
> <minimizedAffinity>
-7.57499

> <minimizedRMSD>
0.79736

$$$$
P1593


 32 35  0  0  0  0  0  0  0  0999 V2000
   -6.6931    3.9764  -14.1582 N   0  0  0  0  0  0  0  0  0  0  0  0
   -5.3513    4.2411  -14.0445 C   0  0  0  0  0  0  0  0  0  0  0  0
   -4.8763    4.6023  -15.2824 C   0  0  0  0  0  0  0  0  0  0  0  0
   -5.9587    4.5650  -16.2028 C   0  0  0  0  0  0  0  0  0  0  0  0
   -6.0787    4.7577  -17.5996 C   0  0  0  0  0  0  0  0  0  0  0  0
   -7.3398    4.6159  -18.1990 C   0  0  0  0  0  0  0  0  0  0  0  0
   -8.4664    4.3711  -17.4277 C   0  0  0  0  0  0  0  0  0  0  0  0
  -10.0077    4.3303  -18.1819 Cl  0  0  0  0  0  0  0  0  0  0  0  0
   -8.3748    4.2052  -16.0486 C   0  0  0  0  0  0  0  0  0  0  0  0
   -7.1023    4.2535  -15.4583 C   0  0  0  0  0  0  0  0  0  0  0  0
   -4.8920    5.1860  -18.3794 C   0  0  0  0  0  0  0  0  0  0  0  0
   -4.1072    6.0379  -17.9871 O   0  0  0  0  0  0  0  0  0  0  0  0
   -4.8449    4.5167  -19.5895 O   0  0  0  0  0  0  0  0  0  0  0  0
   -4.4153    5.2446  -20.7173 C   0  0  0  0  0  0  0  0  0  0  0  0
   -4.9105    6.5334  -20.9900 C   0  0  0  0  0  0  0  0  0  0  0  0
   -4.5233    7.2130  -22.1452 C   0  0  0  0  0  0  0  0  0  0  0  0
   -3.6507    6.5756  -23.0057 C   0  0  0  0  0  0  0  0  0  0  0  0
   -3.1686    5.2938  -22.7345 C   0  0  0  0  0  0  0  0  0  0  0  0
   -3.5497    4.5998  -21.6000 C   0  0  0  0  0  0  0  0  0  0  0  0
   -2.1582    4.9412  -23.7737 C   0  0  0  0  0  0  0  0  0  0  0  0
   -2.3932    5.8931  -24.8905 N   0  0  0  0  0  0  0  0  0  0  0  0
   -3.0228    7.0825  -24.2615 C   0  0  0  0  0  0  0  0  0  0  0  0
   -3.0177    5.4829  -25.5848 H   0  0  0  0  0  0  0  0  0  0  0  0
   -7.5709    3.3278  -13.1745 C   0  0  0  0  0  0  0  0  0  0  0  0
   -6.9369    3.1270  -11.8871 N   0  0  0  0  0  0  0  0  0  0  0  0
   -7.1708    2.1821  -11.5825 H   0  0  0  0  0  0  0  0  0  0  0  0
   -8.0942    5.2795  -11.1730 C   0  0  0  0  0  0  0  0  0  0  0  0
   -7.2748    4.0346  -10.7779 C   0  0  0  0  0  0  0  0  0  0  0  0
   -5.9407    4.5291  -10.1746 C   0  0  0  0  0  0  0  0  0  0  0  0
   -8.0577    3.2375   -9.6992 C   0  0  0  0  0  0  0  0  0  0  0  0
   -7.3223    2.1286   -9.1994 O   0  0  0  0  0  0  0  0  0  0  0  0
   -7.1375    1.5103   -9.9236 H   0  0  0  0  0  0  0  0  0  0  0  0
 27 28  1  0  0  0
 28 29  1  0  0  0
 28 30  1  0  0  0
 30 31  1  0  0  0
 28 25  1  0  0  0
 25 24  1  0  0  0
 24  1  1  0  0  0
  1  2  1  0  0  0
  2  3  2  0  0  0
  3  4  1  0  0  0
  4  5  2  0  0  0
  5 11  1  0  0  0
 11 12  2  0  0  0
 11 13  1  0  0  0
 13 14  1  0  0  0
 14 15  2  0  0  0
 15 16  1  0  0  0
 16 17  2  0  0  0
 17 18  1  0  0  0
 18 19  2  0  0  0
 18 20  1  0  0  0
 20 21  1  0  0  0
 21 22  1  0  0  0
  5  6  1  0  0  0
  6  7  2  0  0  0
  7  8  1  0  0  0
  7  9  1  0  0  0
  9 10  2  0  0  0
 10  1  1  0  0  0
 10  4  1  0  0  0
 19 14  1  0  0  0
 22 17  1  0  0  0
 31 32  1  0  0  0
 25 26  1  0  0  0
 21 23  1  0  0  0
M  END
> <minimizedAffinity>
-7.22602

> <minimizedRMSD>
0.61027

$$$$
P1607


 40 44  0  0  0  0  0  0  0  0999 V2000
   -5.7871    5.7266  -18.2967 C   0  0  0  0  0  0  0  0  0  0  0  0
   -6.2114    4.5526  -19.2013 C   0  0  0  0  0  0  0  0  0  0  0  0
   -7.6810    4.3363  -18.9004 C   0  0  0  0  0  0  0  0  0  0  0  0
   -7.6101    4.5273  -17.4330 C   0  0  0  0  0  0  0  0  0  0  0  0
   -8.5961    4.1863  -16.5555 C   0  0  0  0  0  0  0  0  0  0  0  0
  -10.1360    3.8580  -17.2330 Cl  0  0  0  0  0  0  0  0  0  0  0  0
   -8.3291    4.3253  -15.2054 C   0  0  0  0  0  0  0  0  0  0  0  0
   -7.1424    4.9496  -14.7822 C   0  0  0  0  0  0  0  0  0  0  0  0
   -6.2181    5.4465  -15.7086 C   0  0  0  0  0  0  0  0  0  0  0  0
   -6.4629    5.2322  -17.0448 C   0  0  0  0  0  0  0  0  0  0  0  0
   -1.9733    7.4810  -17.2144 N   0  0  0  0  0  0  0  0  0  0  0  0
   -2.0386    6.0269  -17.0429 C   0  0  0  0  0  0  0  0  0  0  0  0
   -3.3780    5.3557  -17.3851 C   0  0  0  0  0  0  0  0  0  0  0  0
   -4.2795    6.1591  -18.3456 C   0  0  0  0  0  0  0  0  0  0  0  0
   -4.2798    7.6635  -17.9528 C   0  0  0  0  0  0  0  0  0  0  0  0
   -3.2559    8.0815  -16.9010 C   0  0  0  0  0  0  0  0  0  0  0  0
   -0.4856    9.4525  -16.8960 C   0  0  0  0  0  0  0  0  0  0  0  0
   -0.8567    8.0440  -16.4451 C   0  0  0  0  0  0  0  0  0  0  0  0
   -3.9919    5.7785  -19.7396 N   0  0  0  0  0  0  0  0  0  0  0  0
   -4.7735    5.1723  -19.9887 H   0  0  0  0  0  0  0  0  0  0  0  0
   -3.7790    6.5698  -20.9373 C   0  0  0  0  0  0  0  0  0  0  0  0
   -2.4078    7.2307  -20.9469 C   0  0  0  0  0  0  0  0  0  0  0  0
   -4.8765    7.5913  -21.2308 C   0  0  0  0  0  0  0  0  0  0  0  0
   -3.7862    5.5097  -22.0960 C   0  0  0  0  0  0  0  0  0  0  0  0
   -5.1127    5.1390  -22.4716 O   0  0  0  0  0  0  0  0  0  0  0  0
   -5.5638    4.7386  -21.7120 H   0  0  0  0  0  0  0  0  0  0  0  0
   -6.9331    5.2857  -13.3513 C   0  0  0  0  0  0  0  0  0  0  0  0
   -6.1652    6.1265  -13.0925 O   0  0  0  0  0  0  0  0  0  0  0  0
   -7.8081    4.4101  -12.4279 N   0  0  0  0  0  0  0  0  0  0  0  0
   -8.3242    3.7110  -12.8907 H   0  0  0  0  0  0  0  0  0  0  0  0
   -7.9855    4.4483  -11.0507 C   0  0  0  0  0  0  0  0  0  0  0  0
   -7.7886    5.6377  -10.3305 C   0  0  0  0  0  0  0  0  0  0  0  0
   -7.9598    5.6685   -8.9442 C   0  0  0  0  0  0  0  0  0  0  0  0
   -8.3276    4.4980   -8.3070 C   0  0  0  0  0  0  0  0  0  0  0  0
   -8.5259    3.3200   -9.0211 C   0  0  0  0  0  0  0  0  0  0  0  0
   -8.3626    3.2760  -10.3944 C   0  0  0  0  0  0  0  0  0  0  0  0
   -8.8712    2.2230   -8.0694 C   0  0  0  0  0  0  0  0  0  0  0  0
   -9.2327    2.9125   -6.7985 N   0  0  0  0  0  0  0  0  0  0  0  0
   -8.5458    4.2255   -6.8564 C   0  0  0  0  0  0  0  0  0  0  0  0
   -8.9078    2.3744   -5.9952 H   0  0  0  0  0  0  0  0  0  0  0  0
 17 18  1  0  0  0
 18 11  1  0  0  0
 11 12  1  0  0  0
 12 13  1  0  0  0
 13 14  1  0  0  0
 14 19  1  0  0  0
 19 21  1  0  0  0
 21 22  1  0  0  0
 21 23  1  0  0  0
 21 24  1  0  0  0
 24 25  1  0  0  0
  1 14  1  0  0  0
  1  2  1  0  0  0
  2  3  1  0  0  0
  3  4  1  0  0  0
  4  5  2  0  0  0
  5  6  1  0  0  0
  5  7  1  0  0  0
  7  8  2  0  0  0
  8 27  1  0  0  0
 27 28  2  0  0  0
 27 29  1  0  0  0
 29 31  1  0  0  0
 31 32  2  0  0  0
 32 33  1  0  0  0
 33 34  2  0  0  0
 34 35  1  0  0  0
 35 36  2  0  0  0
 35 37  1  0  0  0
 37 38  1  0  0  0
 38 39  1  0  0  0
  8  9  1  0  0  0
  9 10  2  0  0  0
 14 15  1  0  0  0
 15 16  1  0  0  0
 16 11  1  0  0  0
 10  1  1  0  0  0
 10  4  1  0  0  0
 36 31  1  0  0  0
 39 34  1  0  0  0
 19 20  1  0  0  0
 25 26  1  0  0  0
 29 30  1  0  0  0
 38 40  1  0  0  0
M  END
> <minimizedAffinity>
-7.77081

> <minimizedRMSD>
0.67902

$$$$
P1608


 42 46  0  0  0  0  0  0  0  0999 V2000
   -4.7745    4.7350  -17.9469 N   0  0  0  0  0  0  0  0  0  0  0  0
   -5.2826    4.8525  -16.6659 C   0  0  0  0  0  0  0  0  0  0  0  0
   -6.6403    4.6790  -16.7539 C   0  0  0  0  0  0  0  0  0  0  0  0
   -7.5861    4.6760  -15.7271 C   0  0  0  0  0  0  0  0  0  0  0  0
   -8.8720    4.3885  -16.2410 C   0  0  0  0  0  0  0  0  0  0  0  0
   -9.1535    4.2043  -17.6405 C   0  0  0  0  0  0  0  0  0  0  0  0
  -10.7748    3.9985  -18.1694 Cl  0  0  0  0  0  0  0  0  0  0  0  0
   -8.1985    4.2537  -18.6641 C   0  0  0  0  0  0  0  0  0  0  0  0
   -6.9463    4.4817  -18.1310 C   0  0  0  0  0  0  0  0  0  0  0  0
   -5.7979    4.5959  -18.8676 C   0  0  0  0  0  0  0  0  0  0  0  0
   -5.6089    4.6384  -20.1853 O   0  0  0  0  0  0  0  0  0  0  0  0
   -6.3370    4.5386  -20.7665 H   0  0  0  0  0  0  0  0  0  0  0  0
   -2.8305    6.1574  -18.8544 C   0  0  0  0  0  0  0  0  0  0  0  0
   -1.8561    5.3487  -19.6168 N   0  0  0  0  0  0  0  0  0  0  0  0
   -2.7255    4.1557  -19.4214 C   0  0  0  0  0  0  0  0  0  0  0  0
   -3.3300    4.8598  -18.2000 C   0  0  0  0  0  0  0  0  0  0  0  0
   -0.9381    5.2749  -19.1784 H   0  0  0  0  0  0  0  0  0  0  0  0
   -3.7863    6.7617  -19.7770 N   0  0  0  0  0  0  0  0  0  0  0  0
   -3.3685    6.8215  -20.7056 H   0  0  0  0  0  0  0  0  0  0  0  0
   -4.1440    8.1142  -19.3142 C   0  0  0  0  0  0  0  0  0  0  0  0
   -3.2718    9.8417  -21.0144 C   0  0  0  0  0  0  0  0  0  0  0  0
   -4.4965    9.0661  -20.5111 C   0  0  0  0  0  0  0  0  0  0  0  0
   -5.0586    8.2409  -21.6221 N   0  0  0  0  0  0  0  0  0  0  0  0
   -5.2934    8.8454  -22.4094 H   0  0  0  0  0  0  0  0  0  0  0  0
   -5.8991    7.7622  -21.2985 H   0  0  0  0  0  0  0  0  0  0  0  0
   -5.5903   10.0681  -20.0761 C   0  0  0  0  0  0  0  0  0  0  0  0
   -6.1831    9.5968  -18.8589 O   0  0  0  0  0  0  0  0  0  0  0  0
   -6.5704    8.7197  -19.0064 H   0  0  0  0  0  0  0  0  0  0  0  0
   -7.3385    5.1598  -14.3525 C   0  0  0  0  0  0  0  0  0  0  0  0
   -6.6817    6.1205  -14.2393 O   0  0  0  0  0  0  0  0  0  0  0  0
   -8.0936    4.3284  -13.2857 N   0  0  0  0  0  0  0  0  0  0  0  0
   -8.6455    3.5976  -13.6472 H   0  0  0  0  0  0  0  0  0  0  0  0
   -8.1189    4.4470  -11.8933 C   0  0  0  0  0  0  0  0  0  0  0  0
   -8.0013    5.7031  -11.2773 C   0  0  0  0  0  0  0  0  0  0  0  0
   -8.0382    5.8287   -9.8827 C   0  0  0  0  0  0  0  0  0  0  0  0
   -8.1689    4.6817   -9.1217 C   0  0  0  0  0  0  0  0  0  0  0  0
   -8.2722    3.4354   -9.7242 C   0  0  0  0  0  0  0  0  0  0  0  0
   -8.2685    3.3029  -11.1068 C   0  0  0  0  0  0  0  0  0  0  0  0
   -8.3249    2.3842   -8.6654 C   0  0  0  0  0  0  0  0  0  0  0  0
   -8.5371    3.1080   -7.3862 N   0  0  0  0  0  0  0  0  0  0  0  0
   -8.1863    4.5208   -7.6394 C   0  0  0  0  0  0  0  0  0  0  0  0
   -7.9363    2.7208   -6.6585 H   0  0  0  0  0  0  0  0  0  0  0  0
 22 21  1  0  0  0
 22 23  1  0  0  0
 22 26  1  0  0  0
 26 27  1  0  0  0
 22 20  1  0  0  0
 20 18  1  0  0  0
 13 18  1  0  0  0
 13 14  1  0  0  0
 14 15  1  0  0  0
 15 16  1  0  0  0
 16  1  1  0  0  0
  1  2  1  0  0  0
  2  3  2  0  0  0
  3  4  1  0  0  0
  4 29  1  0  0  0
 29 30  2  0  0  0
 29 31  1  0  0  0
 31 33  1  0  0  0
 33 34  2  0  0  0
 34 35  1  0  0  0
 35 36  2  0  0  0
 36 37  1  0  0  0
 37 38  2  0  0  0
 37 39  1  0  0  0
 39 40  1  0  0  0
 40 41  1  0  0  0
  4  5  2  0  0  0
  5  6  1  0  0  0
  6  7  1  0  0  0
  6  8  2  0  0  0
  8  9  1  0  0  0
  9 10  2  0  0  0
 10 11  1  0  0  0
 16 13  1  0  0  0
 10  1  1  0  0  0
  9  3  1  0  0  0
 38 33  1  0  0  0
 41 36  1  0  0  0
 23 24  1  0  0  0
 23 25  1  0  0  0
 27 28  1  0  0  0
 18 19  1  0  0  0
 14 17  1  0  0  0
 31 32  1  0  0  0
 40 42  1  0  0  0
 11 12  1  0  0  0
M  END
> <minimizedAffinity>
-8.68220

> <minimizedRMSD>
0.79806

$$$$
P1613


 36 39  0  0  0  0  0  0  0  0999 V2000
   -6.3257    4.4337  -14.7269 C   0  0  0  0  0  0  0  0  0  0  0  0
   -7.6178    4.2150  -15.2415 C   0  0  0  0  0  0  0  0  0  0  0  0
   -7.8393    4.3209  -16.6070 C   0  0  0  0  0  0  0  0  0  0  0  0
   -9.4050    4.1873  -17.2913 Cl  0  0  0  0  0  0  0  0  0  0  0  0
   -6.7628    4.5956  -17.4236 C   0  0  0  0  0  0  0  0  0  0  0  0
   -5.4746    4.8420  -16.9523 C   0  0  0  0  0  0  0  0  0  0  0  0
   -5.2473    4.7728  -15.5784 C   0  0  0  0  0  0  0  0  0  0  0  0
   -4.5243    5.0480  -18.1373 C   0  0  0  0  0  0  0  0  0  0  0  0
   -3.4425    4.2126  -17.8649 O   0  0  0  0  0  0  0  0  0  0  0  0
   -5.5498    4.7610  -19.3419 C   0  0  0  0  0  0  0  0  0  0  0  0
   -5.3287    4.6944  -20.5443 O   0  0  0  0  0  0  0  0  0  0  0  0
   -6.8009    4.5942  -18.7983 N   0  0  0  0  0  0  0  0  0  0  0  0
   -2.9503    4.5587  -17.1041 H   0  0  0  0  0  0  0  0  0  0  0  0
   -7.6237    4.4869  -19.3281 H   0  0  0  0  0  0  0  0  0  0  0  0
   -7.4854    4.2803  -12.4866 N   0  0  0  0  0  0  0  0  0  0  0  0
   -6.1390    4.4426  -13.2461 C   0  0  0  0  0  0  0  0  0  0  0  0
   -5.0525    4.5936  -12.8392 O   0  0  0  0  0  0  0  0  0  0  0  0
   -8.2619    4.0882  -13.0605 H   0  0  0  0  0  0  0  0  0  0  0  0
  -10.1239    2.5787   -5.9748 C   0  0  0  0  0  0  0  0  0  0  0  0
   -8.9728    2.8692   -6.8044 N   0  0  0  0  0  0  0  0  0  0  0  0
   -8.6690    4.2978   -6.9485 C   0  0  0  0  0  0  0  0  0  0  0  0
   -8.3151    4.4920   -8.3884 C   0  0  0  0  0  0  0  0  0  0  0  0
   -7.8243    5.6175   -9.0261 C   0  0  0  0  0  0  0  0  0  0  0  0
   -7.5401    5.5426  -10.3966 C   0  0  0  0  0  0  0  0  0  0  0  0
   -7.7732    4.3629  -11.1192 C   0  0  0  0  0  0  0  0  0  0  0  0
   -8.3025    3.2432  -10.4632 C   0  0  0  0  0  0  0  0  0  0  0  0
   -8.5465    3.3178   -9.0949 C   0  0  0  0  0  0  0  0  0  0  0  0
   -9.0443    2.2641   -8.1520 C   0  0  0  0  0  0  0  0  0  0  0  0
   -4.0560    6.4264  -18.2535 N   0  0  0  0  0  0  0  0  0  0  0  0
   -4.0743    6.8223  -17.3136 H   0  0  0  0  0  0  0  0  0  0  0  0
   -2.7023    6.7186  -18.8163 C   0  0  0  0  0  0  0  0  0  0  0  0
   -2.8746    8.1472  -19.3841 C   0  0  0  0  0  0  0  0  0  0  0  0
   -1.6189    6.7905  -17.7169 C   0  0  0  0  0  0  0  0  0  0  0  0
   -2.1220    5.8420  -19.9704 C   0  0  0  0  0  0  0  0  0  0  0  0
   -2.8003    6.0196  -21.2073 O   0  0  0  0  0  0  0  0  0  0  0  0
   -3.7277    5.7528  -21.1086 H   0  0  0  0  0  0  0  0  0  0  0  0
 19 20  1  0  0  0
 20 21  1  0  0  0
 21 22  1  0  0  0
 22 23  2  0  0  0
 23 24  1  0  0  0
 24 25  2  0  0  0
 25 15  1  0  0  0
 15 16  1  0  0  0
 16 17  2  0  0  0
 16  1  1  0  0  0
  1  2  2  0  0  0
  2  3  1  0  0  0
  3  4  1  0  0  0
  3  5  2  0  0  0
  5  6  1  0  0  0
  6  7  2  0  0  0
  6  8  1  0  0  0
  8  9  1  0  0  0
  8 29  1  0  0  0
 29 31  1  0  0  0
 31 32  1  0  0  0
 31 33  1  0  0  0
 31 34  1  0  0  0
 34 35  1  0  0  0
  8 10  1  0  0  0
 10 11  2  0  0  0
 10 12  1  0  0  0
 25 26  1  0  0  0
 26 27  2  0  0  0
 27 28  1  0  0  0
 28 20  1  0  0  0
 27 22  1  0  0  0
  7  1  1  0  0  0
 12  5  1  0  0  0
 15 18  1  0  0  0
  9 13  1  0  0  0
 29 30  1  0  0  0
 35 36  1  0  0  0
 12 14  1  0  0  0
M  END
> <minimizedAffinity>
-7.73557

> <minimizedRMSD>
1.39423

$$$$
P1615


 32 36  0  0  0  0  0  0  0  0999 V2000
   -8.0971    4.5059  -15.3472 C   0  0  0  0  0  0  0  0  0  0  0  0
   -9.0003    4.2773  -16.3807 C   0  0  0  0  0  0  0  0  0  0  0  0
   -8.5423    4.2384  -17.6978 C   0  0  0  0  0  0  0  0  0  0  0  0
   -9.7108    4.0817  -18.9602 Cl  0  0  0  0  0  0  0  0  0  0  0  0
   -7.1835    4.4232  -18.0250 C   0  0  0  0  0  0  0  0  0  0  0  0
   -6.2755    4.6201  -16.9645 C   0  0  0  0  0  0  0  0  0  0  0  0
   -6.7232    4.6121  -15.6371 C   0  0  0  0  0  0  0  0  0  0  0  0
   -5.5654    4.7688  -14.8547 C   0  0  0  0  0  0  0  0  0  0  0  0
   -4.4652    4.8612  -15.5895 N   0  0  0  0  0  0  0  0  0  0  0  0
   -4.9221    4.9174  -16.8610 N   0  0  0  0  0  0  0  0  0  0  0  0
   -9.2012    5.8835  -13.9521 O   0  0  0  0  0  0  0  0  0  0  0  0
   -8.5414    4.9204  -13.9972 C   0  0  0  0  0  0  0  0  0  0  0  0
   -8.0017    4.0226  -12.8627 N   0  0  0  0  0  0  0  0  0  0  0  0
   -7.5267    3.2155  -13.1663 H   0  0  0  0  0  0  0  0  0  0  0  0
   -8.0780    4.1693  -11.4743 C   0  0  0  0  0  0  0  0  0  0  0  0
   -7.6917    5.3627  -10.8679 C   0  0  0  0  0  0  0  0  0  0  0  0
   -7.7425    5.5043   -9.4789 C   0  0  0  0  0  0  0  0  0  0  0  0
   -8.1882    4.4549   -8.6679 C   0  0  0  0  0  0  0  0  0  0  0  0
   -8.5622    3.2444   -9.2643 C   0  0  0  0  0  0  0  0  0  0  0  0
   -8.5136    3.1161  -10.6711 C   0  0  0  0  0  0  0  0  0  0  0  0
   -9.0392    2.0834   -8.4276 C   0  0  0  0  0  0  0  0  0  0  0  0
   -9.0389    2.2809   -6.9121 C   0  0  0  0  0  0  0  0  0  0  0  0
   -9.2301    3.7227   -6.4847 C   0  0  0  0  0  0  0  0  0  0  0  0
   -8.2137    4.6263   -7.1722 C   0  0  0  0  0  0  0  0  0  0  0  0
   -3.9628    5.4680  -17.8402 C   0  0  0  0  0  0  0  0  0  0  0  0
   -4.5056    6.2360  -19.0306 C   0  0  0  0  0  0  0  0  0  0  0  0
   -4.1396    5.1126  -19.9099 N   0  0  0  0  0  0  0  0  0  0  0  0
   -3.4147    4.4388  -18.8157 C   0  0  0  0  0  0  0  0  0  0  0  0
   -3.2188    5.5914  -20.9405 C   0  0  0  0  0  0  0  0  0  0  0  0
   -3.4860    4.8926  -22.2576 C   0  0  0  0  0  0  0  0  0  0  0  0
   -2.8811    3.6033  -22.2777 O   0  0  0  0  0  0  0  0  0  0  0  0
   -1.9214    3.6947  -22.1705 H   0  0  0  0  0  0  0  0  0  0  0  0
 11 12  2  0  0  0
 12 13  1  0  0  0
 13 15  1  0  0  0
 15 16  2  0  0  0
 16 17  1  0  0  0
 17 18  2  0  0  0
 18 19  1  0  0  0
 19 20  2  0  0  0
 19 21  1  0  0  0
 21 22  1  0  0  0
 22 23  1  0  0  0
 23 24  1  0  0  0
 12  1  1  0  0  0
  1  2  2  0  0  0
  2  3  1  0  0  0
  3  4  1  0  0  0
  3  5  2  0  0  0
  5  6  1  0  0  0
  6  7  2  0  0  0
  7  8  1  0  0  0
  8  9  2  0  0  0
  9 10  1  0  0  0
 10 25  1  0  0  0
 25 26  1  0  0  0
 26 27  1  0  0  0
 27 29  1  0  0  0
 29 30  1  0  0  0
 30 31  1  0  0  0
 27 28  1  0  0  0
 20 15  1  0  0  0
  7  1  1  0  0  0
 28 25  1  0  0  0
 24 18  1  0  0  0
 10  6  1  0  0  0
 13 14  1  0  0  0
 31 32  1  0  0  0
M  END
> <minimizedAffinity>
-9.67103

> <minimizedRMSD>
0.83162

$$$$
P1623


 34 37  0  0  0  0  0  0  0  0999 V2000
   -5.1528    4.8598  -17.8114 N   0  0  0  0  0  0  0  0  0  0  0  0
   -4.3744    4.9368  -16.6983 C   0  0  0  0  0  0  0  0  0  0  0  0
   -5.0737    4.7459  -15.6064 N   0  0  0  0  0  0  0  0  0  0  0  0
   -6.3578    4.5104  -16.0437 C   0  0  0  0  0  0  0  0  0  0  0  0
   -7.5079    4.1622  -15.3281 C   0  0  0  0  0  0  0  0  0  0  0  0
   -8.7451    4.1501  -15.9806 C   0  0  0  0  0  0  0  0  0  0  0  0
   -8.8235    4.3298  -17.3543 C   0  0  0  0  0  0  0  0  0  0  0  0
  -10.3671    4.3156  -18.1177 Cl  0  0  0  0  0  0  0  0  0  0  0  0
   -7.6728    4.5181  -18.1222 C   0  0  0  0  0  0  0  0  0  0  0  0
   -6.4546    4.6439  -17.4319 C   0  0  0  0  0  0  0  0  0  0  0  0
   -7.3981    3.6766  -13.9417 C   0  0  0  0  0  0  0  0  0  0  0  0
   -7.1009    2.5619  -13.7671 O   0  0  0  0  0  0  0  0  0  0  0  0
   -7.7506    4.7873  -12.9318 N   0  0  0  0  0  0  0  0  0  0  0  0
   -7.8943    5.6761  -13.3302 H   0  0  0  0  0  0  0  0  0  0  0  0
   -7.8983    4.7380  -11.5506 C   0  0  0  0  0  0  0  0  0  0  0  0
   -7.6387    5.8960  -10.8009 C   0  0  0  0  0  0  0  0  0  0  0  0
   -7.7355    5.8747   -9.4061 C   0  0  0  0  0  0  0  0  0  0  0  0
   -8.1082    4.6913   -8.7921 C   0  0  0  0  0  0  0  0  0  0  0  0
   -8.4022    3.5571   -9.5373 C   0  0  0  0  0  0  0  0  0  0  0  0
   -8.2985    3.5596  -10.9170 C   0  0  0  0  0  0  0  0  0  0  0  0
   -8.8222    2.4522   -8.6296 C   0  0  0  0  0  0  0  0  0  0  0  0
   -8.5274    2.9315   -7.2493 N   0  0  0  0  0  0  0  0  0  0  0  0
   -8.2957    4.3888   -7.3461 C   0  0  0  0  0  0  0  0  0  0  0  0
   -7.6953    2.4667   -6.8859 H   0  0  0  0  0  0  0  0  0  0  0  0
   -4.6000    4.8100  -19.0794 O   0  0  0  0  0  0  0  0  0  0  0  0
   -4.6453    6.0657  -19.7166 C   0  0  0  0  0  0  0  0  0  0  0  0
   -4.9305    5.8671  -21.1212 N   0  0  0  0  0  0  0  0  0  0  0  0
   -5.5222    5.0407  -21.2075 H   0  0  0  0  0  0  0  0  0  0  0  0
   -3.3140    4.2079  -22.1068 C   0  0  0  0  0  0  0  0  0  0  0  0
   -3.7519    5.6752  -21.9908 C   0  0  0  0  0  0  0  0  0  0  0  0
   -2.5774    6.5268  -21.4753 C   0  0  0  0  0  0  0  0  0  0  0  0
   -4.1281    6.1611  -23.4140 C   0  0  0  0  0  0  0  0  0  0  0  0
   -5.5420    6.2034  -23.5811 O   0  0  0  0  0  0  0  0  0  0  0  0
   -5.9088    5.3138  -23.4588 H   0  0  0  0  0  0  0  0  0  0  0  0
 29 30  1  0  0  0
 30 31  1  0  0  0
 30 32  1  0  0  0
 32 33  1  0  0  0
 30 27  1  0  0  0
 27 26  1  0  0  0
 26 25  1  0  0  0
 25  1  1  0  0  0
  1  2  1  0  0  0
  2  3  2  0  0  0
  3  4  1  0  0  0
  4  5  2  0  0  0
  5 11  1  0  0  0
 11 12  2  0  0  0
 11 13  1  0  0  0
 13 15  1  0  0  0
 15 16  2  0  0  0
 16 17  1  0  0  0
 17 18  2  0  0  0
 18 19  1  0  0  0
 19 20  2  0  0  0
 19 21  1  0  0  0
 21 22  1  0  0  0
 22 23  1  0  0  0
  5  6  1  0  0  0
  6  7  2  0  0  0
  7  8  1  0  0  0
  7  9  1  0  0  0
  9 10  2  0  0  0
 10  1  1  0  0  0
 10  4  1  0  0  0
 20 15  1  0  0  0
 23 18  1  0  0  0
 33 34  1  0  0  0
 27 28  1  0  0  0
 13 14  1  0  0  0
 22 24  1  0  0  0
M  END
> <minimizedAffinity>
-8.33800

> <minimizedRMSD>
0.90740

$$$$
P1629


 33 36  0  0  0  0  0  0  0  0999 V2000
   -5.5661    4.7427  -18.5518 N   0  0  0  0  0  0  0  0  0  0  0  0
   -4.6515    5.0545  -17.5822 C   0  0  0  0  0  0  0  0  0  0  0  0
   -5.1780    5.0877  -16.3764 N   0  0  0  0  0  0  0  0  0  0  0  0
   -6.5076    4.7863  -16.5470 C   0  0  0  0  0  0  0  0  0  0  0  0
   -7.5694    4.7014  -15.6181 C   0  0  0  0  0  0  0  0  0  0  0  0
   -8.8508    4.3761  -16.0840 C   0  0  0  0  0  0  0  0  0  0  0  0
   -9.0795    4.1969  -17.4460 C   0  0  0  0  0  0  0  0  0  0  0  0
  -10.6812    4.0374  -18.0338 Cl  0  0  0  0  0  0  0  0  0  0  0  0
   -8.0488    4.2593  -18.3796 C   0  0  0  0  0  0  0  0  0  0  0  0
   -6.7707    4.5604  -17.9013 C   0  0  0  0  0  0  0  0  0  0  0  0
   -7.4042    5.1959  -14.2254 C   0  0  0  0  0  0  0  0  0  0  0  0
   -6.8931    6.2396  -14.0889 O   0  0  0  0  0  0  0  0  0  0  0  0
   -8.0524    4.2476  -13.1784 N   0  0  0  0  0  0  0  0  0  0  0  0
   -8.4881    3.4506  -13.5581 H   0  0  0  0  0  0  0  0  0  0  0  0
   -8.1172    4.3426  -11.7823 C   0  0  0  0  0  0  0  0  0  0  0  0
   -7.9225    5.5700  -11.1292 C   0  0  0  0  0  0  0  0  0  0  0  0
   -7.9879    5.6663   -9.7320 C   0  0  0  0  0  0  0  0  0  0  0  0
   -8.2449    4.5206   -9.0029 C   0  0  0  0  0  0  0  0  0  0  0  0
   -8.4397    3.3011   -9.6382 C   0  0  0  0  0  0  0  0  0  0  0  0
   -8.3845    3.1972  -11.0242 C   0  0  0  0  0  0  0  0  0  0  0  0
   -8.6503    2.2468   -8.5977 C   0  0  0  0  0  0  0  0  0  0  0  0
   -8.9120    2.9831   -7.3303 N   0  0  0  0  0  0  0  0  0  0  0  0
   -8.3224    4.3243   -7.5261 C   0  0  0  0  0  0  0  0  0  0  0  0
   -8.4675    2.5093   -6.5440 H   0  0  0  0  0  0  0  0  0  0  0  0
   -5.4242    4.5601  -19.9809 N   0  0  0  0  0  0  0  0  0  0  0  0
   -5.2560    3.5650  -20.1287 H   0  0  0  0  0  0  0  0  0  0  0  0
   -4.3822    5.2804  -20.7542 C   0  0  0  0  0  0  0  0  0  0  0  0
   -2.9552    4.8842  -20.3270 C   0  0  0  0  0  0  0  0  0  0  0  0
   -4.5345    4.7742  -22.2340 C   0  0  0  0  0  0  0  0  0  0  0  0
   -5.2685    5.6961  -23.0345 O   0  0  0  0  0  0  0  0  0  0  0  0
   -6.1611    5.8016  -22.6699 H   0  0  0  0  0  0  0  0  0  0  0  0
   -3.4506    7.6312  -20.1423 C   0  0  0  0  0  0  0  0  0  0  0  0
   -4.6175    6.8148  -20.6890 C   0  0  0  0  0  0  0  0  0  0  0  0
 32 33  1  0  0  0
 33 27  1  0  0  0
 27 28  1  0  0  0
 27 29  1  0  0  0
 29 30  1  0  0  0
 27 25  1  0  0  0
 25  1  1  0  0  0
  1  2  1  0  0  0
  2  3  2  0  0  0
  3  4  1  0  0  0
  4  5  2  0  0  0
  5 11  1  0  0  0
 11 12  2  0  0  0
 11 13  1  0  0  0
 13 15  1  0  0  0
 15 16  2  0  0  0
 16 17  1  0  0  0
 17 18  2  0  0  0
 18 19  1  0  0  0
 19 20  2  0  0  0
 19 21  1  0  0  0
 21 22  1  0  0  0
 22 23  1  0  0  0
  5  6  1  0  0  0
  6  7  2  0  0  0
  7  8  1  0  0  0
  7  9  1  0  0  0
  9 10  2  0  0  0
 10  1  1  0  0  0
 10  4  1  0  0  0
 20 15  1  0  0  0
 23 18  1  0  0  0
 30 31  1  0  0  0
 25 26  1  0  0  0
 13 14  1  0  0  0
 22 24  1  0  0  0
M  END
> <minimizedAffinity>
-8.47183

> <minimizedRMSD>
0.37649

$$$$
P1638


 46 50  0  0  0  0  0  0  0  0999 V2000
   -7.5008    4.3515  -15.6795 C   0  0  0  0  0  0  0  0  0  0  0  0
   -8.7883    4.2334  -16.2571 C   0  0  0  0  0  0  0  0  0  0  0  0
   -9.0017    4.3429  -17.6355 C   0  0  0  0  0  0  0  0  0  0  0  0
  -10.5907    4.2773  -18.2878 Cl  0  0  0  0  0  0  0  0  0  0  0  0
   -7.9457    4.5320  -18.5167 C   0  0  0  0  0  0  0  0  0  0  0  0
   -6.6834    4.6523  -17.9401 C   0  0  0  0  0  0  0  0  0  0  0  0
   -6.4460    4.6137  -16.5768 C   0  0  0  0  0  0  0  0  0  0  0  0
   -5.1168    4.8548  -16.3056 N   0  0  0  0  0  0  0  0  0  0  0  0
   -4.5172    5.0067  -17.4791 C   0  0  0  0  0  0  0  0  0  0  0  0
   -5.4320    4.7456  -18.4781 N   0  0  0  0  0  0  0  0  0  0  0  0
   -3.1252    5.4429  -17.6697 C   0  0  0  0  0  0  0  0  0  0  0  0
   -2.2932    4.9521  -18.6810 C   0  0  0  0  0  0  0  0  0  0  0  0
   -1.0041    5.4502  -18.8925 C   0  0  0  0  0  0  0  0  0  0  0  0
   -0.5005    6.4291  -18.0527 C   0  0  0  0  0  0  0  0  0  0  0  0
   -1.2883    6.9005  -17.0067 C   0  0  0  0  0  0  0  0  0  0  0  0
   -2.5886    6.4154  -16.8184 C   0  0  0  0  0  0  0  0  0  0  0  0
   -7.2056    4.1944  -14.1926 C   0  0  0  0  0  0  0  0  0  0  0  0
   -4.8777    4.5276  -13.2554 N   0  0  0  0  0  0  0  0  0  0  0  0
   -6.1447    5.2902  -13.7644 C   0  0  0  0  0  0  0  0  0  0  0  0
   -6.3433    6.4401  -13.8797 O   0  0  0  0  0  0  0  0  0  0  0  0
   -4.9307    3.5470  -13.3253 H   0  0  0  0  0  0  0  0  0  0  0  0
   -3.4651    4.5520  -11.2636 C   0  0  0  0  0  0  0  0  0  0  0  0
   -3.6438    5.0282  -12.7001 C   0  0  0  0  0  0  0  0  0  0  0  0
   -2.4596    4.6169  -13.5656 C   0  0  0  0  0  0  0  0  0  0  0  0
   -8.4486    4.2253  -13.3756 N   0  0  0  0  0  0  0  0  0  0  0  0
   -9.3424    4.1590  -13.7829 H   0  0  0  0  0  0  0  0  0  0  0  0
   -8.2692    4.3556  -11.9788 C   0  0  0  0  0  0  0  0  0  0  0  0
   -8.1989    5.6215  -11.3659 C   0  0  0  0  0  0  0  0  0  0  0  0
   -8.0790    5.7657   -9.9793 C   0  0  0  0  0  0  0  0  0  0  0  0
   -8.0768    4.6248   -9.2041 C   0  0  0  0  0  0  0  0  0  0  0  0
   -8.1561    3.3660   -9.7853 C   0  0  0  0  0  0  0  0  0  0  0  0
   -8.2314    3.2141  -11.1633 C   0  0  0  0  0  0  0  0  0  0  0  0
   -8.1687    2.3354   -8.7024 C   0  0  0  0  0  0  0  0  0  0  0  0
   -8.4569    3.0886   -7.4502 N   0  0  0  0  0  0  0  0  0  0  0  0
   -8.0328    4.4783   -7.7215 C   0  0  0  0  0  0  0  0  0  0  0  0
   -7.9273    2.6998   -6.6700 H   0  0  0  0  0  0  0  0  0  0  0  0
   -5.1409    4.3494  -19.7771 O   0  0  0  0  0  0  0  0  0  0  0  0
   -5.1370    5.4663  -20.6360 C   0  0  0  0  0  0  0  0  0  0  0  0
   -4.7761    4.9722  -21.9406 N   0  0  0  0  0  0  0  0  0  0  0  0
   -5.6162    4.9956  -22.5186 H   0  0  0  0  0  0  0  0  0  0  0  0
   -3.7300    5.6792  -22.6649 C   0  0  0  0  0  0  0  0  0  0  0  0
   -2.6437    4.6220  -22.9565 C   0  0  0  0  0  0  0  0  0  0  0  0
   -3.0945    6.7794  -21.8037 C   0  0  0  0  0  0  0  0  0  0  0  0
   -4.2499    6.1975  -24.0240 C   0  0  0  0  0  0  0  0  0  0  0  0
   -5.6428    6.4460  -24.0543 O   0  0  0  0  0  0  0  0  0  0  0  0
   -6.1225    5.6177  -23.8967 H   0  0  0  0  0  0  0  0  0  0  0  0
 22 23  1  0  0  0
 23 24  1  0  0  0
 23 18  1  0  0  0
 18 19  1  0  0  0
 19 20  2  0  0  0
 19 17  1  0  0  0
 17 25  1  0  0  0
 25 27  1  0  0  0
 27 28  2  0  0  0
 28 29  1  0  0  0
 29 30  2  0  0  0
 30 31  1  0  0  0
 31 32  2  0  0  0
 31 33  1  0  0  0
 33 34  1  0  0  0
 34 35  1  0  0  0
 17  1  1  0  0  0
  1  2  2  0  0  0
  2  3  1  0  0  0
  3  4  1  0  0  0
  3  5  2  0  0  0
  5  6  1  0  0  0
  6  7  2  0  0  0
  7  8  1  0  0  0
  8  9  2  0  0  0
  9 11  1  0  0  0
 11 12  2  0  0  0
 12 13  1  0  0  0
 13 14  2  0  0  0
 14 15  1  0  0  0
 15 16  2  0  0  0
  9 10  1  0  0  0
 10 37  1  0  0  0
 37 38  1  0  0  0
 38 39  1  0  0  0
 39 41  1  0  0  0
 41 42  1  0  0  0
 41 43  1  0  0  0
 41 44  1  0  0  0
 44 45  1  0  0  0
 32 27  1  0  0  0
  7  1  1  0  0  0
 16 11  1  0  0  0
 35 30  1  0  0  0
 10  6  1  0  0  0
 18 21  1  0  0  0
 25 26  1  0  0  0
 34 36  1  0  0  0
 39 40  1  0  0  0
 45 46  1  0  0  0
M  END
> <minimizedAffinity>
-7.97848

> <minimizedRMSD>
1.18778

$$$$
P1639


 37 40  0  0  0  0  0  0  0  0999 V2000
   -6.3141    4.6710  -17.6097 C   0  0  0  0  0  0  0  0  0  0  0  0
   -7.5916    4.6539  -18.1740 C   0  0  0  0  0  0  0  0  0  0  0  0
   -8.7250    4.3938  -17.3939 C   0  0  0  0  0  0  0  0  0  0  0  0
  -10.2801    4.3323  -18.1335 Cl  0  0  0  0  0  0  0  0  0  0  0  0
   -8.6148    4.1708  -16.0293 C   0  0  0  0  0  0  0  0  0  0  0  0
   -7.3506    4.1275  -15.4516 C   0  0  0  0  0  0  0  0  0  0  0  0
   -6.2094    4.3795  -16.2291 C   0  0  0  0  0  0  0  0  0  0  0  0
   -7.2675    3.6612  -14.0387 C   0  0  0  0  0  0  0  0  0  0  0  0
   -6.9163    2.5684  -13.8255 O   0  0  0  0  0  0  0  0  0  0  0  0
   -7.7864    4.7538  -13.0743 N   0  0  0  0  0  0  0  0  0  0  0  0
   -8.0950    5.5789  -13.5139 H   0  0  0  0  0  0  0  0  0  0  0  0
   -7.8884    4.7602  -11.6786 C   0  0  0  0  0  0  0  0  0  0  0  0
   -7.7185    5.9760  -10.9934 C   0  0  0  0  0  0  0  0  0  0  0  0
   -7.8094    6.0340   -9.5961 C   0  0  0  0  0  0  0  0  0  0  0  0
   -8.1161    4.8742   -8.9060 C   0  0  0  0  0  0  0  0  0  0  0  0
   -8.3376    3.6814   -9.5817 C   0  0  0  0  0  0  0  0  0  0  0  0
   -8.2053    3.5993  -10.9642 C   0  0  0  0  0  0  0  0  0  0  0  0
   -8.7486    2.6297   -8.6037 C   0  0  0  0  0  0  0  0  0  0  0  0
   -8.5105    3.2113   -7.2506 N   0  0  0  0  0  0  0  0  0  0  0  0
   -8.3029    4.6611   -7.4426 C   0  0  0  0  0  0  0  0  0  0  0  0
   -7.6831    2.7906   -6.8277 H   0  0  0  0  0  0  0  0  0  0  0  0
   -5.1607    4.8605  -18.3551 N   0  0  0  0  0  0  0  0  0  0  0  0
   -4.4049    4.2682  -18.1378 H   0  0  0  0  0  0  0  0  0  0  0  0
   -4.9233    5.8477  -19.4427 C   0  0  0  0  0  0  0  0  0  0  0  0
   -2.9186    4.2693  -19.9268 C   0  0  0  0  0  0  0  0  0  0  0  0
   -3.9179    5.2708  -20.5488 C   0  0  0  0  0  0  0  0  0  0  0  0
   -3.0818    6.3803  -21.2213 C   0  0  0  0  0  0  0  0  0  0  0  0
   -4.6527    4.5196  -21.6876 C   0  0  0  0  0  0  0  0  0  0  0  0
   -5.1746    5.4084  -22.6672 O   0  0  0  0  0  0  0  0  0  0  0  0
   -5.8213    6.0015  -22.2539 H   0  0  0  0  0  0  0  0  0  0  0  0
   -4.3987    7.1248  -18.6975 C   0  0  0  0  0  0  0  0  0  0  0  0
   -5.3952    8.3108  -18.6638 C   0  0  0  0  0  0  0  0  0  0  0  0
   -5.2754    9.2090  -19.9014 C   0  0  0  0  0  0  0  0  0  0  0  0
   -4.3068   10.3221  -19.5176 C   0  0  0  0  0  0  0  0  0  0  0  0
   -3.9839   10.1056  -18.1092 N   0  0  0  0  0  0  0  0  0  0  0  0
   -5.0711    9.3114  -17.5554 C   0  0  0  0  0  0  0  0  0  0  0  0
   -3.9158   10.9989  -17.6215 H   0  0  0  0  0  0  0  0  0  0  0  0
 25 26  1  0  0  0
 26 27  1  0  0  0
 26 28  1  0  0  0
 28 29  1  0  0  0
 26 24  1  0  0  0
 24 31  1  0  0  0
 32 31  1  0  0  0
 32 33  1  0  0  0
 33 34  1  0  0  0
 34 35  1  0  0  0
 35 36  1  0  0  0
 24 22  1  0  0  0
 22  1  1  0  0  0
  1  2  2  0  0  0
  2  3  1  0  0  0
  3  4  1  0  0  0
  3  5  2  0  0  0
  5  6  1  0  0  0
  6  8  1  0  0  0
  8  9  2  0  0  0
  8 10  1  0  0  0
 10 12  1  0  0  0
 12 13  2  0  0  0
 13 14  1  0  0  0
 14 15  2  0  0  0
 15 16  1  0  0  0
 16 17  2  0  0  0
 16 18  1  0  0  0
 18 19  1  0  0  0
 19 20  1  0  0  0
  6  7  2  0  0  0
 36 32  1  0  0  0
  7  1  1  0  0  0
 17 12  1  0  0  0
 20 15  1  0  0  0
 29 30  1  0  0  0
 35 37  1  0  0  0
 22 23  1  0  0  0
 10 11  1  0  0  0
 19 21  1  0  0  0
M  END
> <minimizedAffinity>
-8.04310

> <minimizedRMSD>
0.82056

$$$$
P1648


 37 40  0  0  0  0  0  0  0  0999 V2000
   -6.7513    4.9538  -17.9525 C   0  0  0  0  0  0  0  0  0  0  0  0
   -7.9693    4.4381  -18.3875 C   0  0  0  0  0  0  0  0  0  0  0  0
   -8.9732    4.1483  -17.4674 C   0  0  0  0  0  0  0  0  0  0  0  0
  -10.5487    3.8612  -18.0803 Cl  0  0  0  0  0  0  0  0  0  0  0  0
   -8.7606    4.2644  -16.0940 C   0  0  0  0  0  0  0  0  0  0  0  0
   -7.5388    4.7450  -15.6406 C   0  0  0  0  0  0  0  0  0  0  0  0
   -6.5460    5.0811  -16.5741 C   0  0  0  0  0  0  0  0  0  0  0  0
   -7.3260    5.1831  -14.2263 C   0  0  0  0  0  0  0  0  0  0  0  0
   -6.6015    6.0868  -14.0669 O   0  0  0  0  0  0  0  0  0  0  0  0
   -8.1417    4.3586  -13.2014 N   0  0  0  0  0  0  0  0  0  0  0  0
   -8.7441    3.6883  -13.5977 H   0  0  0  0  0  0  0  0  0  0  0  0
   -8.1623    4.4109  -11.8041 C   0  0  0  0  0  0  0  0  0  0  0  0
   -8.0606    5.6391  -11.1275 C   0  0  0  0  0  0  0  0  0  0  0  0
   -8.0834    5.6987   -9.7284 C   0  0  0  0  0  0  0  0  0  0  0  0
   -8.2067    4.5161   -9.0246 C   0  0  0  0  0  0  0  0  0  0  0  0
   -8.3052    3.2980   -9.6868 C   0  0  0  0  0  0  0  0  0  0  0  0
   -8.2870    3.2273  -11.0737 C   0  0  0  0  0  0  0  0  0  0  0  0
   -8.3940    2.2021   -8.6755 C   0  0  0  0  0  0  0  0  0  0  0  0
   -8.6595    2.8786   -7.3819 N   0  0  0  0  0  0  0  0  0  0  0  0
   -8.2382    4.2815   -7.5518 C   0  0  0  0  0  0  0  0  0  0  0  0
   -8.1222    2.4367   -6.6359 H   0  0  0  0  0  0  0  0  0  0  0  0
   -5.8314    5.4800  -18.9089 N   0  0  0  0  0  0  0  0  0  0  0  0
   -5.9691    6.3721  -19.3018 H   0  0  0  0  0  0  0  0  0  0  0  0
   -4.7018    4.6795  -19.2845 N   0  0  0  0  0  0  0  0  0  0  0  0
   -2.7584    4.4632  -20.8847 C   0  0  0  0  0  0  0  0  0  0  0  0
   -4.1489    5.0981  -20.6356 C   0  0  0  0  0  0  0  0  0  0  0  0
   -3.9882    6.6315  -20.7911 C   0  0  0  0  0  0  0  0  0  0  0  0
   -5.0585    4.5274  -21.7937 C   0  0  0  0  0  0  0  0  0  0  0  0
   -5.2365    5.4066  -22.9028 O   0  0  0  0  0  0  0  0  0  0  0  0
   -5.6909    6.2113  -22.6078 H   0  0  0  0  0  0  0  0  0  0  0  0
   -3.7210    4.4986  -18.1865 C   0  0  0  0  0  0  0  0  0  0  0  0
   -3.2565    5.7323  -17.5432 N   0  0  0  0  0  0  0  0  0  0  0  0
   -1.8343    5.9804  -17.8618 C   0  0  0  0  0  0  0  0  0  0  0  0
   -1.3386    7.2818  -17.2126 C   0  0  0  0  0  0  0  0  0  0  0  0
   -1.5056    7.2528  -15.7901 O   0  0  0  0  0  0  0  0  0  0  0  0
   -2.8837    7.0338  -15.4632 C   0  0  0  0  0  0  0  0  0  0  0  0
   -3.4045    5.7231  -16.0766 C   0  0  0  0  0  0  0  0  0  0  0  0
 25 26  1  0  0  0
 26 27  1  0  0  0
 26 28  1  0  0  0
 28 29  1  0  0  0
 26 24  1  0  0  0
 24 31  1  0  0  0
 31 32  1  0  0  0
 32 33  1  0  0  0
 33 34  1  0  0  0
 34 35  1  0  0  0
 35 36  1  0  0  0
 36 37  1  0  0  0
 24 22  1  0  0  0
 22  1  1  0  0  0
  1  2  2  0  0  0
  2  3  1  0  0  0
  3  4  1  0  0  0
  3  5  2  0  0  0
  5  6  1  0  0  0
  6  8  1  0  0  0
  8  9  2  0  0  0
  8 10  1  0  0  0
 10 12  1  0  0  0
 12 13  2  0  0  0
 13 14  1  0  0  0
 14 15  2  0  0  0
 15 16  1  0  0  0
 16 17  2  0  0  0
 16 18  1  0  0  0
 18 19  1  0  0  0
 19 20  1  0  0  0
  6  7  2  0  0  0
 37 32  1  0  0  0
  7  1  1  0  0  0
 17 12  1  0  0  0
 20 15  1  0  0  0
 29 30  1  0  0  0
 22 23  1  0  0  0
 10 11  1  0  0  0
 19 21  1  0  0  0
M  END
> <minimizedAffinity>
-7.68733

> <minimizedRMSD>
0.87765

$$$$
P1657


 23 25  0  0  0  0  0  0  0  0999 V2000
   -7.2922    4.1976  -14.9157 C   0  0  0  0  0  0  0  0  0  0  0  0
   -5.9739    4.8555  -15.3422 C   0  0  0  0  0  0  0  0  0  0  0  0
   -5.8076    4.7532  -16.8143 C   0  0  0  0  0  0  0  0  0  0  0  0
   -4.6967    5.0342  -17.6239 C   0  0  0  0  0  0  0  0  0  0  0  0
   -3.5106    5.4738  -17.2021 F   0  0  0  0  0  0  0  0  0  0  0  0
   -5.0352    4.8529  -18.9361 C   0  0  0  0  0  0  0  0  0  0  0  0
   -6.3472    4.4646  -18.9603 N   0  0  0  0  0  0  0  0  0  0  0  0
   -6.8429    4.4393  -17.6738 C   0  0  0  0  0  0  0  0  0  0  0  0
   -8.3038    4.2726  -17.3195 C   0  0  0  0  0  0  0  0  0  0  0  0
   -9.1006    4.9308  -18.4174 C   0  0  0  0  0  0  0  0  0  0  0  0
  -10.5830    4.9189  -18.0143 C   0  0  0  0  0  0  0  0  0  0  0  0
  -11.0514    3.6033  -18.4366 C   0  0  0  0  0  0  0  0  0  0  0  0
  -10.3149    2.6324  -17.7094 N   0  0  0  0  0  0  0  0  0  0  0  0
   -8.8997    2.9179  -17.5468 C   0  0  0  0  0  0  0  0  0  0  0  0
   -8.4780    4.6685  -15.7991 C   0  0  0  0  0  0  0  0  0  0  0  0
   -6.8581    4.2384  -19.7709 H   0  0  0  0  0  0  0  0  0  0  0  0
  -10.4022    1.7408  -18.1970 H   0  0  0  0  0  0  0  0  0  0  0  0
   -6.3471    5.3315  -12.5863 N   0  0  0  0  0  0  0  0  0  0  0  0
   -7.5943    4.3627  -13.1509 S   0  0  0  0  0  0  0  0  0  0  0  0
   -8.7779    5.1502  -12.9029 O   0  0  0  0  0  0  0  0  0  0  0  0
   -7.3602    3.0879  -12.5130 O   0  0  0  0  0  0  0  0  0  0  0  0
   -6.4528    5.4707  -11.5814 H   0  0  0  0  0  0  0  0  0  0  0  0
   -6.3771    6.2345  -13.0596 H   0  0  0  0  0  0  0  0  0  0  0  0
 18 19  1  0  0  0
 19 20  2  0  0  0
 19 21  2  0  0  0
  1 19  1  0  0  0
  1  2  1  0  0  0
  2  3  1  0  0  0
  3  4  1  0  0  0
  4  5  1  0  0  0
  4  6  2  0  0  0
  6  7  1  0  0  0
  7  8  1  0  0  0
  8  9  1  0  0  0
  9 10  1  0  0  0
 10 11  1  0  0  0
 11 12  1  0  0  0
 12 13  1  0  0  0
 13 14  1  0  0  0
  9 15  1  0  0  0
 15  1  1  0  0  0
  8  3  2  0  0  0
 14  9  1  0  0  0
 18 22  1  0  0  0
 18 23  1  0  0  0
  7 16  1  0  0  0
 13 17  1  0  0  0
M  END
> <minimizedAffinity>
-1.55642

> <minimizedRMSD>
0.35160

$$$$
P1734


 37 40  0  0  0  0  0  0  0  0999 V2000
   -7.0069    5.0964  -16.7905 C   0  0  0  0  0  0  0  0  0  0  0  0
   -7.3336    4.8558  -18.1546 C   0  0  0  0  0  0  0  0  0  0  0  0
   -8.5672    4.3351  -18.5608 C   0  0  0  0  0  0  0  0  0  0  0  0
   -9.5399    4.0756  -17.6242 C   0  0  0  0  0  0  0  0  0  0  0  0
  -10.7254    3.5964  -18.0159 F   0  0  0  0  0  0  0  0  0  0  0  0
   -9.3098    4.3519  -16.2900 C   0  0  0  0  0  0  0  0  0  0  0  0
   -8.0699    4.8721  -15.8664 C   0  0  0  0  0  0  0  0  0  0  0  0
   -5.5121    5.4987  -16.4228 C   0  0  0  0  0  0  0  0  0  0  0  0
   -4.5768    4.9658  -17.6202 C   0  0  0  0  0  0  0  0  0  0  0  0
   -3.1143    5.0974  -17.4668 N   0  0  0  0  0  0  0  0  0  0  0  0
   -2.6554    4.7802  -16.1248 C   0  0  0  0  0  0  0  0  0  0  0  0
   -3.6702    3.9394  -15.3706 C   0  0  0  0  0  0  0  0  0  0  0  0
   -4.9718    4.7438  -15.1125 C   0  0  0  0  0  0  0  0  0  0  0  0
   -4.7084    5.5916  -13.8558 C   0  0  0  0  0  0  0  0  0  0  0  0
   -2.8496    6.0586  -17.6825 H   0  0  0  0  0  0  0  0  0  0  0  0
   -5.9030    7.7270  -15.1918 N   0  0  0  0  0  0  0  0  0  0  0  0
   -5.2962    7.0921  -16.4643 C   0  0  0  0  0  0  0  0  0  0  0  0
   -4.7030    7.5804  -17.3450 O   0  0  0  0  0  0  0  0  0  0  0  0
   -6.4279    7.1092  -14.6332 H   0  0  0  0  0  0  0  0  0  0  0  0
   -5.8252    9.0793  -14.6891 C   0  0  0  0  0  0  0  0  0  0  0  0
   -4.5736    9.3166  -13.8421 C   0  0  0  0  0  0  0  0  0  0  0  0
   -2.4289    8.5618  -14.4668 C   0  0  0  0  0  0  0  0  0  0  0  0
   -3.4407    9.5339  -14.6866 O   0  0  0  0  0  0  0  0  0  0  0  0
   -8.0987    5.3705  -14.4633 C   0  0  0  0  0  0  0  0  0  0  0  0
   -8.2920    6.5132  -14.3192 O   0  0  0  0  0  0  0  0  0  0  0  0
   -7.9378    4.2416  -13.4185 N   0  0  0  0  0  0  0  0  0  0  0  0
   -7.7033    3.3625  -13.7944 H   0  0  0  0  0  0  0  0  0  0  0  0
   -8.0712    4.2664  -12.0266 C   0  0  0  0  0  0  0  0  0  0  0  0
   -8.3906    3.0759  -11.3542 C   0  0  0  0  0  0  0  0  0  0  0  0
   -8.5419    3.0479   -9.9616 C   0  0  0  0  0  0  0  0  0  0  0  0
   -8.3631    4.2227   -9.2593 C   0  0  0  0  0  0  0  0  0  0  0  0
   -8.0500    5.4054   -9.9179 C   0  0  0  0  0  0  0  0  0  0  0  0
   -7.9027    5.4475  -11.2980 C   0  0  0  0  0  0  0  0  0  0  0  0
   -7.9486    6.5106   -8.9229 C   0  0  0  0  0  0  0  0  0  0  0  0
   -7.9269    5.8479   -7.5890 N   0  0  0  0  0  0  0  0  0  0  0  0
   -8.4811    4.4829   -7.7988 C   0  0  0  0  0  0  0  0  0  0  0  0
   -8.5037    6.3663   -6.9264 H   0  0  0  0  0  0  0  0  0  0  0  0
 22 23  1  0  0  0
 23 21  1  0  0  0
 21 20  1  0  0  0
 20 16  1  0  0  0
 16 17  1  0  0  0
 17 18  2  0  0  0
  8 17  1  0  0  0
  8  1  1  0  0  0
  1  2  2  0  0  0
  2  3  1  0  0  0
  3  4  2  0  0  0
  4  5  1  0  0  0
  4  6  1  0  0  0
  6  7  2  0  0  0
  7 24  1  0  0  0
 24 25  2  0  0  0
 24 26  1  0  0  0
 26 28  1  0  0  0
 28 29  2  0  0  0
 29 30  1  0  0  0
 30 31  2  0  0  0
 31 32  1  0  0  0
 32 33  2  0  0  0
 32 34  1  0  0  0
 34 35  1  0  0  0
 35 36  1  0  0  0
  8  9  1  0  0  0
  9 10  1  0  0  0
 10 11  1  0  0  0
 11 12  1  0  0  0
 12 13  1  0  0  0
 13 14  1  0  0  0
 13  8  1  0  0  0
  7  1  1  0  0  0
 33 28  1  0  0  0
 36 31  1  0  0  0
 16 19  1  0  0  0
 26 27  1  0  0  0
 35 37  1  0  0  0
 10 15  1  0  0  0
M  END
> <minimizedAffinity>
-6.50384

> <minimizedRMSD>
0.66067

$$$$
P1860


 30 33  0  0  0  0  0  0  0  0999 V2000
   -6.7745    4.9853  -17.2039 C   0  0  0  0  0  0  0  0  0  0  0  0
   -7.3810    4.9390  -18.4186 N   0  0  0  0  0  0  0  0  0  0  0  0
   -8.6846    4.5972  -18.5201 C   0  0  0  0  0  0  0  0  0  0  0  0
   -9.4473    4.1983  -17.4540 C   0  0  0  0  0  0  0  0  0  0  0  0
   -8.8228    4.1382  -16.2225 C   0  0  0  0  0  0  0  0  0  0  0  0
   -7.4970    4.5601  -16.0866 C   0  0  0  0  0  0  0  0  0  0  0  0
   -5.3254    5.5095  -17.2144 C   0  0  0  0  0  0  0  0  0  0  0  0
   -4.3263    4.5124  -16.5786 C   0  0  0  0  0  0  0  0  0  0  0  0
   -3.1018    5.3247  -16.1891 C   0  0  0  0  0  0  0  0  0  0  0  0
   -3.6939    6.6796  -15.9260 C   0  0  0  0  0  0  0  0  0  0  0  0
   -3.0717    7.6022  -15.4124 O   0  0  0  0  0  0  0  0  0  0  0  0
   -5.1174    6.8079  -16.4046 C   0  0  0  0  0  0  0  0  0  0  0  0
   -4.4628    4.7057  -19.4664 N   0  0  0  0  0  0  0  0  0  0  0  0
   -4.8639    5.8702  -18.6798 C   0  0  0  0  0  0  0  0  0  0  0  0
   -4.1774    5.0067  -20.3982 H   0  0  0  0  0  0  0  0  0  0  0  0
   -5.2489    4.0603  -19.5435 H   0  0  0  0  0  0  0  0  0  0  0  0
   -6.9921    4.5642  -14.7086 C   0  0  0  0  0  0  0  0  0  0  0  0
   -6.9647    5.5620  -14.1087 O   0  0  0  0  0  0  0  0  0  0  0  0
   -6.5391    3.1495  -14.3116 N   0  0  0  0  0  0  0  0  0  0  0  0
   -6.7402    2.4510  -14.9755 H   0  0  0  0  0  0  0  0  0  0  0  0
   -5.8935    2.6976  -13.1712 C   0  0  0  0  0  0  0  0  0  0  0  0
   -6.5756    2.6089  -11.9451 C   0  0  0  0  0  0  0  0  0  0  0  0
   -5.9098    2.2089  -10.7871 C   0  0  0  0  0  0  0  0  0  0  0  0
   -4.5737    1.8828  -10.8955 C   0  0  0  0  0  0  0  0  0  0  0  0
   -3.9012    1.9566  -12.1145 C   0  0  0  0  0  0  0  0  0  0  0  0
   -4.5396    2.3803  -13.2615 C   0  0  0  0  0  0  0  0  0  0  0  0
   -2.4884    1.5237  -11.9232 C   0  0  0  0  0  0  0  0  0  0  0  0
   -2.4851    0.8464  -10.6013 N   0  0  0  0  0  0  0  0  0  0  0  0
   -3.6230    1.4255   -9.8467 C   0  0  0  0  0  0  0  0  0  0  0  0
   -1.6076    1.0251  -10.1130 H   0  0  0  0  0  0  0  0  0  0  0  0
 13 14  1  0  0  0
  7 14  1  0  0  0
  7  1  1  0  0  0
  1  2  2  0  0  0
  2  3  1  0  0  0
  3  4  2  0  0  0
  4  5  1  0  0  0
  5  6  2  0  0  0
  6 17  1  0  0  0
 17 18  2  0  0  0
 17 19  1  0  0  0
 19 21  1  0  0  0
 21 22  2  0  0  0
 22 23  1  0  0  0
 23 24  2  0  0  0
 24 25  1  0  0  0
 25 26  2  0  0  0
 25 27  1  0  0  0
 27 28  1  0  0  0
 28 29  1  0  0  0
  7  8  1  0  0  0
  8  9  1  0  0  0
  9 10  1  0  0  0
 10 11  2  0  0  0
 10 12  1  0  0  0
 12  7  1  0  0  0
  6  1  1  0  0  0
 26 21  1  0  0  0
 29 24  1  0  0  0
 13 15  1  0  0  0
 13 16  1  0  0  0
 19 20  1  0  0  0
 28 30  1  0  0  0
M  END
> <minimizedAffinity>
-6.81655

> <minimizedRMSD>
1.31563

$$$$
P1861


 34 38  0  0  0  0  0  0  0  0999 V2000
   -7.1691    5.0171  -17.0561 C   0  0  0  0  0  0  0  0  0  0  0  0
   -7.4297    4.6570  -18.3464 N   0  0  0  0  0  0  0  0  0  0  0  0
   -8.6287    4.1572  -18.7033 C   0  0  0  0  0  0  0  0  0  0  0  0
   -9.6236    3.8959  -17.8033 C   0  0  0  0  0  0  0  0  0  0  0  0
   -9.3605    4.1784  -16.4752 C   0  0  0  0  0  0  0  0  0  0  0  0
   -8.1502    4.7758  -16.0814 C   0  0  0  0  0  0  0  0  0  0  0  0
   -5.7304    5.5350  -16.8590 C   0  0  0  0  0  0  0  0  0  0  0  0
   -4.9027    4.4656  -16.1151 C   0  0  0  0  0  0  0  0  0  0  0  0
   -3.7552    5.2318  -15.4816 C   0  0  0  0  0  0  0  0  0  0  0  0
   -4.3979    6.5319  -14.9648 C   0  0  0  0  0  0  0  0  0  0  0  0
   -5.0197    6.3225  -13.5554 C   0  0  0  0  0  0  0  0  0  0  0  0
   -4.0376    6.6519  -12.4350 C   0  0  0  0  0  0  0  0  0  0  0  0
   -3.6314    8.1265  -12.4727 C   0  0  0  0  0  0  0  0  0  0  0  0
   -3.6378    8.7158  -13.8847 C   0  0  0  0  0  0  0  0  0  0  0  0
   -3.3233    7.6502  -14.9278 C   0  0  0  0  0  0  0  0  0  0  0  0
   -5.5108    6.8282  -16.0162 C   0  0  0  0  0  0  0  0  0  0  0  0
   -4.6033    4.7334  -19.0548 N   0  0  0  0  0  0  0  0  0  0  0  0
   -5.0606    5.8793  -18.2636 C   0  0  0  0  0  0  0  0  0  0  0  0
   -4.1938    5.0650  -19.9282 H   0  0  0  0  0  0  0  0  0  0  0  0
   -5.3952    4.1243  -19.2603 H   0  0  0  0  0  0  0  0  0  0  0  0
   -8.2152    5.3468  -14.7134 C   0  0  0  0  0  0  0  0  0  0  0  0
   -8.4204    6.4925  -14.6396 O   0  0  0  0  0  0  0  0  0  0  0  0
   -8.0952    4.2761  -13.6026 N   0  0  0  0  0  0  0  0  0  0  0  0
   -7.9930    3.3530  -13.9291 H   0  0  0  0  0  0  0  0  0  0  0  0
   -8.1084    4.4065  -12.2135 C   0  0  0  0  0  0  0  0  0  0  0  0
   -7.8876    5.6690  -11.6315 C   0  0  0  0  0  0  0  0  0  0  0  0
   -7.9150    5.8440  -10.2466 C   0  0  0  0  0  0  0  0  0  0  0  0
   -8.1684    4.7394   -9.4581 C   0  0  0  0  0  0  0  0  0  0  0  0
   -8.4206    3.4944  -10.0252 C   0  0  0  0  0  0  0  0  0  0  0  0
   -8.3906    3.3042  -11.4027 C   0  0  0  0  0  0  0  0  0  0  0  0
   -8.7447    2.5186   -8.9423 C   0  0  0  0  0  0  0  0  0  0  0  0
   -8.4334    3.2109   -7.6562 N   0  0  0  0  0  0  0  0  0  0  0  0
   -8.2443    4.6429   -7.9745 C   0  0  0  0  0  0  0  0  0  0  0  0
   -7.5812    2.8266   -7.2482 H   0  0  0  0  0  0  0  0  0  0  0  0
 17 18  1  0  0  0
  7 18  1  0  0  0
  7  1  1  0  0  0
  1  2  2  0  0  0
  2  3  1  0  0  0
  3  4  2  0  0  0
  4  5  1  0  0  0
  5  6  2  0  0  0
  6 21  1  0  0  0
 21 22  2  0  0  0
 21 23  1  0  0  0
 23 25  1  0  0  0
 25 26  2  0  0  0
 26 27  1  0  0  0
 27 28  2  0  0  0
 28 29  1  0  0  0
 29 30  2  0  0  0
 29 31  1  0  0  0
 31 32  1  0  0  0
 32 33  1  0  0  0
  7  8  1  0  0  0
  8  9  1  0  0  0
  9 10  1  0  0  0
 10 11  1  0  0  0
 11 12  1  0  0  0
 12 13  1  0  0  0
 13 14  1  0  0  0
 14 15  1  0  0  0
 10 16  1  0  0  0
 16  7  1  0  0  0
  6  1  1  0  0  0
 30 25  1  0  0  0
 15 10  1  0  0  0
 33 28  1  0  0  0
 17 19  1  0  0  0
 17 20  1  0  0  0
 23 24  1  0  0  0
 32 34  1  0  0  0
M  END
> <minimizedAffinity>
-7.27181

> <minimizedRMSD>
0.76462

$$$$
P1873


 29 31  0  0  0  0  0  0  0  0999 V2000
   -7.7440    4.5899  -16.2453 C   0  0  0  0  0  0  0  0  0  0  0  0
   -9.0621    4.1560  -16.4457 C   0  0  0  0  0  0  0  0  0  0  0  0
   -9.5624    3.9795  -17.7222 C   0  0  0  0  0  0  0  0  0  0  0  0
   -8.6945    4.1836  -18.7625 C   0  0  0  0  0  0  0  0  0  0  0  0
   -7.4121    4.5768  -18.5958 N   0  0  0  0  0  0  0  0  0  0  0  0
   -6.9282    4.8461  -17.3502 C   0  0  0  0  0  0  0  0  0  0  0  0
   -5.5328    5.4945  -17.3358 C   0  0  0  0  0  0  0  0  0  0  0  0
   -4.4514    4.6263  -16.6427 C   0  0  0  0  0  0  0  0  0  0  0  0
   -3.5460    5.6159  -15.9266 C   0  0  0  0  0  0  0  0  0  0  0  0
   -4.5139    6.6636  -15.4140 C   0  0  0  0  0  0  0  0  0  0  0  0
   -5.5169    6.8409  -16.5503 C   0  0  0  0  0  0  0  0  0  0  0  0
   -5.0492    5.8278  -18.8037 C   0  0  0  0  0  0  0  0  0  0  0  0
   -4.3320    4.7264  -19.4549 N   0  0  0  0  0  0  0  0  0  0  0  0
   -3.4843    4.5146  -18.9287 H   0  0  0  0  0  0  0  0  0  0  0  0
   -4.0829    4.9981  -20.4059 H   0  0  0  0  0  0  0  0  0  0  0  0
   -6.7287    3.4729  -14.2826 N   0  0  0  0  0  0  0  0  0  0  0  0
   -7.4083    4.7507  -14.8165 C   0  0  0  0  0  0  0  0  0  0  0  0
   -7.7351    5.7230  -14.2598 O   0  0  0  0  0  0  0  0  0  0  0  0
   -6.4838    2.8166  -14.9744 H   0  0  0  0  0  0  0  0  0  0  0  0
   -4.8403    2.1008  -11.4130 C   0  0  0  0  0  0  0  0  0  0  0  0
   -5.7995    2.2407  -10.3996 C   0  0  0  0  0  0  0  0  0  0  0  0
   -7.0428    2.8053  -10.6770 C   0  0  0  0  0  0  0  0  0  0  0  0
   -7.3396    3.2427  -11.9672 C   0  0  0  0  0  0  0  0  0  0  0  0
   -6.4063    3.0975  -12.9854 C   0  0  0  0  0  0  0  0  0  0  0  0
   -5.1629    2.5183  -12.7153 C   0  0  0  0  0  0  0  0  0  0  0  0
   -2.8220    1.0108  -12.2954 N   0  0  0  0  0  0  0  0  0  0  0  0
   -3.4870    1.5182  -11.0962 C   0  0  0  0  0  0  0  0  0  0  0  0
   -1.9121    0.6256  -12.0424 H   0  0  0  0  0  0  0  0  0  0  0  0
   -2.6954    1.7725  -12.9620 H   0  0  0  0  0  0  0  0  0  0  0  0
 26 27  1  0  0  0
 27 20  1  0  0  0
 20 21  2  0  0  0
 21 22  1  0  0  0
 22 23  2  0  0  0
 23 24  1  0  0  0
 24 16  1  0  0  0
 16 17  1  0  0  0
 17 18  2  0  0  0
 17  1  1  0  0  0
  1  2  2  0  0  0
  2  3  1  0  0  0
  3  4  2  0  0  0
  4  5  1  0  0  0
  5  6  2  0  0  0
  6  7  1  0  0  0
  7 12  1  0  0  0
 12 13  1  0  0  0
  7  8  1  0  0  0
  8  9  1  0  0  0
  9 10  1  0  0  0
 10 11  1  0  0  0
 24 25  2  0  0  0
 25 20  1  0  0  0
  6  1  1  0  0  0
 11  7  1  0  0  0
 26 28  1  0  0  0
 26 29  1  0  0  0
 16 19  1  0  0  0
 13 14  1  0  0  0
 13 15  1  0  0  0
M  END
> <minimizedAffinity>
-6.39171

> <minimizedRMSD>
0.49261

$$$$
P2008


 38 42  0  0  0  0  0  0  0  0999 V2000
   -4.6479    6.2010  -17.3763 C   0  0  0  0  0  0  0  0  0  0  0  0
   -5.7154    5.9552  -16.3835 N   0  0  0  0  0  0  0  0  0  0  0  0
   -6.9270    5.3372  -16.6826 C   0  0  0  0  0  0  0  0  0  0  0  0
   -7.2049    4.9046  -17.9870 C   0  0  0  0  0  0  0  0  0  0  0  0
   -8.4423    4.3333  -18.3069 C   0  0  0  0  0  0  0  0  0  0  0  0
   -9.3883    4.1510  -17.3186 C   0  0  0  0  0  0  0  0  0  0  0  0
  -10.5894    3.6692  -17.6506 F   0  0  0  0  0  0  0  0  0  0  0  0
   -9.1100    4.4726  -16.0002 C   0  0  0  0  0  0  0  0  0  0  0  0
   -7.8809    5.0572  -15.6763 C   0  0  0  0  0  0  0  0  0  0  0  0
   -6.1752    5.0460  -19.0660 C   0  0  0  0  0  0  0  0  0  0  0  0
   -5.2547    6.2594  -18.8382 C   0  0  0  0  0  0  0  0  0  0  0  0
   -6.0584    7.5819  -19.0111 C   0  0  0  0  0  0  0  0  0  0  0  0
   -5.4299    8.3045  -20.1899 C   0  0  0  0  0  0  0  0  0  0  0  0
   -4.0372    7.7360  -20.2446 C   0  0  0  0  0  0  0  0  0  0  0  0
   -4.2559    6.3279  -19.9416 N   0  0  0  0  0  0  0  0  0  0  0  0
   -5.5606    6.2457  -15.4557 H   0  0  0  0  0  0  0  0  0  0  0  0
   -3.3807    5.8947  -19.6470 H   0  0  0  0  0  0  0  0  0  0  0  0
   -7.6255    5.4705  -14.2617 C   0  0  0  0  0  0  0  0  0  0  0  0
   -6.9787    6.4295  -14.0779 O   0  0  0  0  0  0  0  0  0  0  0  0
   -8.2780    4.4872  -13.2510 N   0  0  0  0  0  0  0  0  0  0  0  0
   -8.7137    3.7048  -13.6598 H   0  0  0  0  0  0  0  0  0  0  0  0
   -8.3468    4.5328  -11.8593 C   0  0  0  0  0  0  0  0  0  0  0  0
   -8.2096    5.7469  -11.1661 C   0  0  0  0  0  0  0  0  0  0  0  0
   -8.2730    5.7864   -9.7695 C   0  0  0  0  0  0  0  0  0  0  0  0
   -8.4665    4.5983   -9.0890 C   0  0  0  0  0  0  0  0  0  0  0  0
   -8.6058    3.3944   -9.7696 C   0  0  0  0  0  0  0  0  0  0  0  0
   -8.5532    3.3415  -11.1551 C   0  0  0  0  0  0  0  0  0  0  0  0
   -8.8353    2.2940   -8.7862 C   0  0  0  0  0  0  0  0  0  0  0  0
   -8.6027    2.8921   -7.4437 N   0  0  0  0  0  0  0  0  0  0  0  0
   -8.5953    4.3584   -7.6241 C   0  0  0  0  0  0  0  0  0  0  0  0
   -7.7062    2.5798   -7.0708 H   0  0  0  0  0  0  0  0  0  0  0  0
   -3.0432    4.3201  -18.2067 C   0  0  0  0  0  0  0  0  0  0  0  0
   -3.4141    5.2641  -17.0619 C   0  0  0  0  0  0  0  0  0  0  0  0
   -3.5674    4.4512  -15.7594 C   0  0  0  0  0  0  0  0  0  0  0  0
   -1.9116    6.3403  -16.8284 S   0  0  0  0  0  0  0  0  0  0  0  0
   -2.4543    7.8066  -15.9696 C   0  0  0  0  0  0  0  0  0  0  0  0
   -0.9899    5.6665  -15.9297 O   0  0  0  0  0  0  0  0  0  0  0  0
   -1.4420    6.7567  -18.1363 O   0  0  0  0  0  0  0  0  0  0  0  0
 32 33  1  0  0  0
 33 34  1  0  0  0
  1 33  1  0  0  0
  1  2  1  0  0  0
  2  3  1  0  0  0
  3  4  2  0  0  0
  4  5  1  0  0  0
  5  6  2  0  0  0
  6  7  1  0  0  0
  6  8  1  0  0  0
  8  9  2  0  0  0
  9 18  1  0  0  0
 18 19  2  0  0  0
 18 20  1  0  0  0
 20 22  1  0  0  0
 22 23  2  0  0  0
 23 24  1  0  0  0
 24 25  2  0  0  0
 25 26  1  0  0  0
 26 27  2  0  0  0
 26 28  1  0  0  0
 28 29  1  0  0  0
 29 30  1  0  0  0
  4 10  1  0  0  0
 11 10  1  0  0  0
 11 12  1  0  0  0
 12 13  1  0  0  0
 13 14  1  0  0  0
 14 15  1  0  0  0
 33 35  1  0  0  0
 35 36  1  0  0  0
 35 37  2  0  0  0
 35 38  2  0  0  0
 11  1  1  0  0  0
  9  3  1  0  0  0
 27 22  1  0  0  0
 15 11  1  0  0  0
 30 25  1  0  0  0
  2 16  1  0  0  0
 20 21  1  0  0  0
 29 31  1  0  0  0
 15 17  1  0  0  0
M  END
> <minimizedAffinity>
-8.93470

> <minimizedRMSD>
0.41545

$$$$
P2010


 40 45  0  0  0  0  0  0  0  0999 V2000
   -5.7879    3.5879  -14.1648 N   0  0  0  0  0  0  0  0  0  0  0  0
   -6.9712    4.5710  -14.3320 C   0  0  0  0  0  0  0  0  0  0  0  0
   -7.5041    5.2543  -13.5490 O   0  0  0  0  0  0  0  0  0  0  0  0
   -5.5689    3.0658  -14.9702 H   0  0  0  0  0  0  0  0  0  0  0  0
   -7.4435    4.5816  -15.7396 C   0  0  0  0  0  0  0  0  0  0  0  0
   -8.7949    4.2998  -15.9511 C   0  0  0  0  0  0  0  0  0  0  0  0
   -9.2986    4.2743  -17.2423 C   0  0  0  0  0  0  0  0  0  0  0  0
  -10.5869    3.9800  -17.4483 F   0  0  0  0  0  0  0  0  0  0  0  0
   -8.4773    4.5215  -18.3302 C   0  0  0  0  0  0  0  0  0  0  0  0
   -7.1252    4.8200  -18.1265 C   0  0  0  0  0  0  0  0  0  0  0  0
   -6.6030    4.8686  -16.8272 C   0  0  0  0  0  0  0  0  0  0  0  0
   -5.2386    5.1689  -16.6613 N   0  0  0  0  0  0  0  0  0  0  0  0
   -4.3808    5.5081  -17.6843 C   0  0  0  0  0  0  0  0  0  0  0  0
   -3.1709    5.5536  -17.4613 O   0  0  0  0  0  0  0  0  0  0  0  0
   -5.0449    5.9253  -19.0176 C   0  0  0  0  0  0  0  0  0  0  0  0
   -5.5071    7.3939  -18.9313 C   0  0  0  0  0  0  0  0  0  0  0  0
   -4.8733    8.0696  -20.1331 C   0  0  0  0  0  0  0  0  0  0  0  0
   -3.6252    7.2511  -20.3684 C   0  0  0  0  0  0  0  0  0  0  0  0
   -4.0625    5.8722  -20.1521 N   0  0  0  0  0  0  0  0  0  0  0  0
   -6.2065    4.9736  -19.3026 C   0  0  0  0  0  0  0  0  0  0  0  0
   -4.8706    5.1340  -15.7488 H   0  0  0  0  0  0  0  0  0  0  0  0
   -3.2676    5.2824  -19.9059 H   0  0  0  0  0  0  0  0  0  0  0  0
   -2.8899    2.3522  -12.2090 C   0  0  0  0  0  0  0  0  0  0  0  0
   -3.7852    2.6114  -13.2664 C   0  0  0  0  0  0  0  0  0  0  0  0
   -4.9829    3.3218  -13.0612 C   0  0  0  0  0  0  0  0  0  0  0  0
   -5.3287    3.7647  -11.7877 C   0  0  0  0  0  0  0  0  0  0  0  0
   -4.4796    3.4582  -10.7380 C   0  0  0  0  0  0  0  0  0  0  0  0
   -3.2869    2.7626  -10.9390 C   0  0  0  0  0  0  0  0  0  0  0  0
   -2.5997    2.6064   -9.6213 C   0  0  0  0  0  0  0  0  0  0  0  0
   -3.5842    3.0181   -8.5868 N   0  0  0  0  0  0  0  0  0  0  0  0
   -4.6215    3.8098   -9.2964 C   0  0  0  0  0  0  0  0  0  0  0  0
   -3.1303    3.5883   -7.8733 H   0  0  0  0  0  0  0  0  0  0  0  0
   -0.0637   -0.1046  -12.5405 C   0  0  0  0  0  0  0  0  0  0  0  0
   -1.2937    0.4224  -12.1716 C   0  0  0  0  0  0  0  0  0  0  0  0
   -1.5770    1.7554  -12.4827 C   0  0  0  0  0  0  0  0  0  0  0  0
   -0.5880    2.4979  -13.1380 C   0  0  0  0  0  0  0  0  0  0  0  0
    0.6100    1.8836  -13.4634 C   0  0  0  0  0  0  0  0  0  0  0  0
    0.8886    0.5930  -13.1938 N   0  0  0  0  0  0  0  0  0  0  0  0
    1.3449   -1.9349  -12.8856 C   0  0  0  0  0  0  0  0  0  0  0  0
    0.1368   -1.4511  -12.3011 O   0  0  0  0  0  0  0  0  0  0  0  0
 39 40  1  0  0  0
 40 33  1  0  0  0
 33 34  2  0  0  0
 34 35  1  0  0  0
 35 23  1  0  0  0
 23 24  2  0  0  0
 24 25  1  0  0  0
 25  1  1  0  0  0
  1  2  1  0  0  0
  2  3  2  0  0  0
  2  5  1  0  0  0
  5  6  2  0  0  0
  6  7  1  0  0  0
  7  8  1  0  0  0
  7  9  2  0  0  0
  9 10  1  0  0  0
 10 11  2  0  0  0
 11 12  1  0  0  0
 12 13  1  0  0  0
 13 14  2  0  0  0
 13 15  1  0  0  0
 15 16  1  0  0  0
 16 17  1  0  0  0
 17 18  1  0  0  0
 18 19  1  0  0  0
 15 20  1  0  0  0
 25 26  2  0  0  0
 26 27  1  0  0  0
 27 28  2  0  0  0
 28 29  1  0  0  0
 29 30  1  0  0  0
 30 31  1  0  0  0
 35 36  2  0  0  0
 36 37  1  0  0  0
 37 38  2  0  0  0
 38 33  1  0  0  0
 28 23  1  0  0  0
 11  5  1  0  0  0
 19 15  1  0  0  0
 31 27  1  0  0  0
 20 10  1  0  0  0
  1  4  1  0  0  0
 12 21  1  0  0  0
 19 22  1  0  0  0
 30 32  1  0  0  0
M  END
> <minimizedAffinity>
-9.09348

> <minimizedRMSD>
0.88662

$$$$
P2011


 34 38  0  0  0  0  0  0  0  0999 V2000
   -7.8829    4.3352  -15.7548 C   0  0  0  0  0  0  0  0  0  0  0  0
   -9.2315    4.2589  -16.1215 C   0  0  0  0  0  0  0  0  0  0  0  0
   -9.5900    4.4510  -17.4527 C   0  0  0  0  0  0  0  0  0  0  0  0
  -10.8742    4.3798  -17.8220 F   0  0  0  0  0  0  0  0  0  0  0  0
   -8.6342    4.7151  -18.4212 C   0  0  0  0  0  0  0  0  0  0  0  0
   -7.2888    4.8116  -18.0576 C   0  0  0  0  0  0  0  0  0  0  0  0
   -6.9082    4.6238  -16.7228 C   0  0  0  0  0  0  0  0  0  0  0  0
   -5.5440    4.6969  -16.3951 N   0  0  0  0  0  0  0  0  0  0  0  0
   -4.5470    5.0815  -17.2626 C   0  0  0  0  0  0  0  0  0  0  0  0
   -3.3700    4.9732  -16.9171 O   0  0  0  0  0  0  0  0  0  0  0  0
   -5.0134    5.7490  -18.5783 C   0  0  0  0  0  0  0  0  0  0  0  0
   -5.3314    7.2380  -18.3340 C   0  0  0  0  0  0  0  0  0  0  0  0
   -4.5933    7.9690  -19.4388 C   0  0  0  0  0  0  0  0  0  0  0  0
   -3.3899    7.0872  -19.6767 C   0  0  0  0  0  0  0  0  0  0  0  0
   -3.9230    5.7276  -19.6118 N   0  0  0  0  0  0  0  0  0  0  0  0
   -6.2314    4.9879  -19.1073 C   0  0  0  0  0  0  0  0  0  0  0  0
   -5.2818    4.4552  -15.4775 H   0  0  0  0  0  0  0  0  0  0  0  0
   -3.1898    5.0738  -19.3376 H   0  0  0  0  0  0  0  0  0  0  0  0
   -8.3843    4.8462  -13.3572 N   0  0  0  0  0  0  0  0  0  0  0  0
   -7.4838    4.0644  -14.3461 C   0  0  0  0  0  0  0  0  0  0  0  0
   -6.5737    3.3593  -14.1461 O   0  0  0  0  0  0  0  0  0  0  0  0
   -9.0459    5.4386  -13.7823 H   0  0  0  0  0  0  0  0  0  0  0  0
   -8.2836    6.0587  -11.2269 C   0  0  0  0  0  0  0  0  0  0  0  0
   -8.3291    6.0702   -9.8231 C   0  0  0  0  0  0  0  0  0  0  0  0
   -8.4729    4.8658   -9.1632 C   0  0  0  0  0  0  0  0  0  0  0  0
   -8.5842    3.6713   -9.8671 C   0  0  0  0  0  0  0  0  0  0  0  0
   -8.5585    3.6419  -11.2538 C   0  0  0  0  0  0  0  0  0  0  0  0
   -8.4104    4.8475  -11.9518 C   0  0  0  0  0  0  0  0  0  0  0  0
   -8.7614    2.5510   -8.8941 C   0  0  0  0  0  0  0  0  0  0  0  0
   -8.3621    3.1192   -7.5774 N   0  0  0  0  0  0  0  0  0  0  0  0
   -8.5603    4.5848   -7.7007 C   0  0  0  0  0  0  0  0  0  0  0  0
   -7.3842    2.9072   -7.3796 H   0  0  0  0  0  0  0  0  0  0  0  0
   -7.8689    8.2934  -12.4704 N   0  0  0  0  0  0  0  0  0  0  0  0
   -8.0597    7.3023  -11.8990 C   0  0  0  0  0  0  0  0  0  0  0  0
 33 34  3  0  0  0
 34 23  1  0  0  0
 23 24  2  0  0  0
 24 25  1  0  0  0
 25 26  2  0  0  0
 26 27  1  0  0  0
 27 28  2  0  0  0
 28 19  1  0  0  0
 19 20  1  0  0  0
 20 21  2  0  0  0
 20  1  1  0  0  0
  1  2  2  0  0  0
  2  3  1  0  0  0
  3  4  1  0  0  0
  3  5  2  0  0  0
  5  6  1  0  0  0
  6  7  2  0  0  0
  7  8  1  0  0  0
  8  9  1  0  0  0
  9 10  2  0  0  0
  9 11  1  0  0  0
 11 12  1  0  0  0
 12 13  1  0  0  0
 13 14  1  0  0  0
 14 15  1  0  0  0
 11 16  1  0  0  0
 26 29  1  0  0  0
 29 30  1  0  0  0
 30 31  1  0  0  0
 28 23  1  0  0  0
  7  1  1  0  0  0
 15 11  1  0  0  0
 31 25  1  0  0  0
 16  6  1  0  0  0
 19 22  1  0  0  0
  8 17  1  0  0  0
 15 18  1  0  0  0
 30 32  1  0  0  0
M  END
> <minimizedAffinity>
-8.64936

> <minimizedRMSD>
1.43682

$$$$
P2017


 32 36  0  0  0  0  0  0  0  0999 V2000
   -7.9179    4.8513  -15.6946 C   0  0  0  0  0  0  0  0  0  0  0  0
   -9.2486    4.6699  -16.0865 C   0  0  0  0  0  0  0  0  0  0  0  0
   -9.5592    4.5052  -17.4328 C   0  0  0  0  0  0  0  0  0  0  0  0
  -10.8316    4.3637  -17.8164 F   0  0  0  0  0  0  0  0  0  0  0  0
   -8.5734    4.5057  -18.4015 C   0  0  0  0  0  0  0  0  0  0  0  0
   -7.2431    4.6976  -18.0289 C   0  0  0  0  0  0  0  0  0  0  0  0
   -6.9094    4.8791  -16.6799 C   0  0  0  0  0  0  0  0  0  0  0  0
   -5.5524    5.0450  -16.3502 N   0  0  0  0  0  0  0  0  0  0  0  0
   -4.5275    5.1792  -17.2592 C   0  0  0  0  0  0  0  0  0  0  0  0
   -3.3599    5.1437  -16.8707 O   0  0  0  0  0  0  0  0  0  0  0  0
   -4.9567    5.4966  -18.7111 C   0  0  0  0  0  0  0  0  0  0  0  0
   -5.2720    7.0012  -18.8422 C   0  0  0  0  0  0  0  0  0  0  0  0
   -4.4119    7.4773  -19.9980 C   0  0  0  0  0  0  0  0  0  0  0  0
   -3.2370    6.5277  -19.9660 C   0  0  0  0  0  0  0  0  0  0  0  0
   -3.8439    5.2276  -19.6831 N   0  0  0  0  0  0  0  0  0  0  0  0
   -6.1611    4.6247  -19.0639 C   0  0  0  0  0  0  0  0  0  0  0  0
   -5.3171    5.0670  -15.3945 H   0  0  0  0  0  0  0  0  0  0  0  0
   -3.1564    4.5973  -19.2700 H   0  0  0  0  0  0  0  0  0  0  0  0
   -6.8412    6.0371  -14.0803 O   0  0  0  0  0  0  0  0  0  0  0  0
   -7.5940    5.1618  -14.2669 C   0  0  0  0  0  0  0  0  0  0  0  0
   -8.3451    4.2511  -13.2615 N   0  0  0  0  0  0  0  0  0  0  0  0
   -8.8709    3.5280  -13.6737 H   0  0  0  0  0  0  0  0  0  0  0  0
   -8.3968    4.2898  -11.8670 C   0  0  0  0  0  0  0  0  0  0  0  0
   -8.6122    3.1238  -11.1232 C   0  0  0  0  0  0  0  0  0  0  0  0
   -8.6942    3.0753   -9.7701 N   0  0  0  0  0  0  0  0  0  0  0  0
   -8.5501    4.2543   -9.1522 C   0  0  0  0  0  0  0  0  0  0  0  0
   -8.3423    5.4602   -9.7950 C   0  0  0  0  0  0  0  0  0  0  0  0
   -8.2510    5.4927  -11.1742 C   0  0  0  0  0  0  0  0  0  0  0  0
   -8.2309    6.5482   -8.7878 C   0  0  0  0  0  0  0  0  0  0  0  0
   -8.7268    5.9747   -7.5076 N   0  0  0  0  0  0  0  0  0  0  0  0
   -8.5859    4.4910   -7.6686 C   0  0  0  0  0  0  0  0  0  0  0  0
   -9.7031    6.2279   -7.3553 H   0  0  0  0  0  0  0  0  0  0  0  0
 19 20  2  0  0  0
 20 21  1  0  0  0
 21 23  1  0  0  0
 23 24  2  0  0  0
 24 25  1  0  0  0
 25 26  2  0  0  0
 26 27  1  0  0  0
 27 28  2  0  0  0
 27 29  1  0  0  0
 29 30  1  0  0  0
 30 31  1  0  0  0
 20  1  1  0  0  0
  1  2  2  0  0  0
  2  3  1  0  0  0
  3  4  1  0  0  0
  3  5  2  0  0  0
  5  6  1  0  0  0
  6  7  2  0  0  0
  7  8  1  0  0  0
  8  9  1  0  0  0
  9 10  2  0  0  0
  9 11  1  0  0  0
 11 12  1  0  0  0
 12 13  1  0  0  0
 13 14  1  0  0  0
 14 15  1  0  0  0
 11 16  1  0  0  0
 28 23  1  0  0  0
  7  1  1  0  0  0
 15 11  1  0  0  0
 31 26  1  0  0  0
 16  6  1  0  0  0
 21 22  1  0  0  0
 30 32  1  0  0  0
  8 17  1  0  0  0
 15 18  1  0  0  0
M  END
> <minimizedAffinity>
-8.94879

> <minimizedRMSD>
0.55301

$$$$
P2018


 34 38  0  0  0  0  0  0  0  0999 V2000
   -6.0067    5.3150  -19.6449 N   0  0  0  0  0  0  0  0  0  0  0  0
   -6.1847    6.1183  -18.4460 C   0  0  0  0  0  0  0  0  0  0  0  0
   -7.1217    5.4075  -17.5157 C   0  0  0  0  0  0  0  0  0  0  0  0
   -8.4739    5.2531  -17.8838 C   0  0  0  0  0  0  0  0  0  0  0  0
   -9.3605    4.5783  -17.0583 C   0  0  0  0  0  0  0  0  0  0  0  0
   -8.9098    4.0856  -15.8409 C   0  0  0  0  0  0  0  0  0  0  0  0
   -7.5725    4.2556  -15.4580 C   0  0  0  0  0  0  0  0  0  0  0  0
   -6.6589    4.8677  -16.3182 C   0  0  0  0  0  0  0  0  0  0  0  0
   -5.2901    4.9077  -16.0165 N   0  0  0  0  0  0  0  0  0  0  0  0
   -4.3329    5.4647  -16.8279 C   0  0  0  0  0  0  0  0  0  0  0  0
   -3.1464    5.1810  -16.6536 O   0  0  0  0  0  0  0  0  0  0  0  0
   -4.8275    6.5444  -17.8098 C   0  0  0  0  0  0  0  0  0  0  0  0
   -4.9647    7.8860  -17.0641 C   0  0  0  0  0  0  0  0  0  0  0  0
   -4.3383    8.9327  -17.9821 C   0  0  0  0  0  0  0  0  0  0  0  0
   -4.0284    8.2049  -19.2739 C   0  0  0  0  0  0  0  0  0  0  0  0
   -3.7779    6.8394  -18.8412 N   0  0  0  0  0  0  0  0  0  0  0  0
   -6.9196    5.0618  -20.0230 H   0  0  0  0  0  0  0  0  0  0  0  0
   -5.4880    4.4680  -19.4128 H   0  0  0  0  0  0  0  0  0  0  0  0
   -4.9956    4.5095  -15.1656 H   0  0  0  0  0  0  0  0  0  0  0  0
   -2.8461    6.7602  -18.4339 H   0  0  0  0  0  0  0  0  0  0  0  0
   -7.1864    3.9350  -14.0592 C   0  0  0  0  0  0  0  0  0  0  0  0
   -6.1485    3.4592  -13.8156 O   0  0  0  0  0  0  0  0  0  0  0  0
   -8.3309    4.3856  -13.1166 N   0  0  0  0  0  0  0  0  0  0  0  0
   -9.1469    4.6905  -13.5753 H   0  0  0  0  0  0  0  0  0  0  0  0
   -8.3926    4.4293  -11.7310 C   0  0  0  0  0  0  0  0  0  0  0  0
   -8.1925    5.6779  -11.1152 C   0  0  0  0  0  0  0  0  0  0  0  0
   -8.2779    5.8073   -9.7253 C   0  0  0  0  0  0  0  0  0  0  0  0
   -8.5732    4.6787   -8.9837 C   0  0  0  0  0  0  0  0  0  0  0  0
   -8.7586    3.4419   -9.5955 C   0  0  0  0  0  0  0  0  0  0  0  0
   -8.6642    3.2938  -10.9692 C   0  0  0  0  0  0  0  0  0  0  0  0
   -9.0376    2.4147   -8.5519 C   0  0  0  0  0  0  0  0  0  0  0  0
   -9.3368    3.1824   -7.3119 N   0  0  0  0  0  0  0  0  0  0  0  0
   -8.7293    4.5245   -7.5093 C   0  0  0  0  0  0  0  0  0  0  0  0
   -8.9243    2.7217   -6.5008 H   0  0  0  0  0  0  0  0  0  0  0  0
  2  1  1  0  0  0
  2  3  1  0  0  0
  3  4  2  0  0  0
  4  5  1  0  0  0
  5  6  2  0  0  0
  6  7  1  0  0  0
  7 21  1  0  0  0
 21 22  2  0  0  0
 21 23  1  0  0  0
 23 25  1  0  0  0
 25 26  2  0  0  0
 26 27  1  0  0  0
 27 28  2  0  0  0
 28 29  1  0  0  0
 29 30  2  0  0  0
 29 31  1  0  0  0
 31 32  1  0  0  0
 32 33  1  0  0  0
  7  8  2  0  0  0
  8  9  1  0  0  0
  9 10  1  0  0  0
 10 11  2  0  0  0
 10 12  1  0  0  0
 12 13  1  0  0  0
 13 14  1  0  0  0
 14 15  1  0  0  0
 15 16  1  0  0  0
 12  2  1  0  0  0
  8  3  1  0  0  0
 16 12  1  0  0  0
 30 25  1  0  0  0
 33 28  1  0  0  0
  1 17  1  0  0  0
  1 18  1  0  0  0
 23 24  1  0  0  0
 32 34  1  0  0  0
  9 19  1  0  0  0
 16 20  1  0  0  0
M  END
> <minimizedAffinity>
-8.08930

> <minimizedRMSD>
2.37595

$$$$
P2020


 30 34  0  0  0  0  0  0  0  0999 V2000
   -7.9793    4.6540  -15.6770 C   0  0  0  0  0  0  0  0  0  0  0  0
   -9.3119    4.4334  -16.0563 C   0  0  0  0  0  0  0  0  0  0  0  0
   -9.6685    4.3365  -17.4003 C   0  0  0  0  0  0  0  0  0  0  0  0
   -8.6926    4.4404  -18.3844 C   0  0  0  0  0  0  0  0  0  0  0  0
   -7.3575    4.6724  -18.0341 C   0  0  0  0  0  0  0  0  0  0  0  0
   -7.0007    4.7860  -16.6798 C   0  0  0  0  0  0  0  0  0  0  0  0
   -5.6453    4.9887  -16.3601 N   0  0  0  0  0  0  0  0  0  0  0  0
   -4.6552    5.1996  -17.2805 C   0  0  0  0  0  0  0  0  0  0  0  0
   -3.4641    5.1362  -16.9685 O   0  0  0  0  0  0  0  0  0  0  0  0
   -5.1120    5.5945  -18.6992 C   0  0  0  0  0  0  0  0  0  0  0  0
   -5.4886    7.0858  -18.7541 C   0  0  0  0  0  0  0  0  0  0  0  0
   -4.8364    7.5804  -20.0295 C   0  0  0  0  0  0  0  0  0  0  0  0
   -3.5616    6.7706  -20.0793 C   0  0  0  0  0  0  0  0  0  0  0  0
   -3.9609    5.4313  -19.6513 N   0  0  0  0  0  0  0  0  0  0  0  0
   -6.2869    4.7010  -19.0993 C   0  0  0  0  0  0  0  0  0  0  0  0
   -5.3921    4.9781  -15.4088 H   0  0  0  0  0  0  0  0  0  0  0  0
   -3.1826    4.9676  -19.1826 H   0  0  0  0  0  0  0  0  0  0  0  0
   -6.4489    4.7358  -13.8413 O   0  0  0  0  0  0  0  0  0  0  0  0
   -7.6069    4.7664  -14.2357 C   0  0  0  0  0  0  0  0  0  0  0  0
   -8.7448    4.9627  -13.4774 O   0  0  0  0  0  0  0  0  0  0  0  0
   -8.5274    4.9826  -12.0971 C   0  0  0  0  0  0  0  0  0  0  0  0
   -8.3401    6.2093  -11.4450 C   0  0  0  0  0  0  0  0  0  0  0  0
   -8.2109    6.2436  -10.0550 C   0  0  0  0  0  0  0  0  0  0  0  0
   -8.2858    5.0492   -9.3575 C   0  0  0  0  0  0  0  0  0  0  0  0
   -8.4974    3.8436  -10.0176 C   0  0  0  0  0  0  0  0  0  0  0  0
   -8.6236    3.7838  -11.3944 C   0  0  0  0  0  0  0  0  0  0  0  0
   -8.6216    2.7480   -9.0170 C   0  0  0  0  0  0  0  0  0  0  0  0
   -8.2202    3.3306   -7.7069 N   0  0  0  0  0  0  0  0  0  0  0  0
   -8.2255    4.8022   -7.8882 C   0  0  0  0  0  0  0  0  0  0  0  0
   -7.2871    3.0097   -7.4485 H   0  0  0  0  0  0  0  0  0  0  0  0
 18 19  2  0  0  0
 19 20  1  0  0  0
 20 21  1  0  0  0
 21 22  2  0  0  0
 22 23  1  0  0  0
 23 24  2  0  0  0
 24 25  1  0  0  0
 25 26  2  0  0  0
 25 27  1  0  0  0
 27 28  1  0  0  0
 28 29  1  0  0  0
 19  1  1  0  0  0
  1  2  2  0  0  0
  2  3  1  0  0  0
  3  4  2  0  0  0
  4  5  1  0  0  0
  5  6  2  0  0  0
  6  7  1  0  0  0
  7  8  1  0  0  0
  8  9  2  0  0  0
  8 10  1  0  0  0
 10 11  1  0  0  0
 11 12  1  0  0  0
 12 13  1  0  0  0
 13 14  1  0  0  0
 10 15  1  0  0  0
 26 21  1  0  0  0
  6  1  1  0  0  0
 14 10  1  0  0  0
 29 24  1  0  0  0
 15  5  1  0  0  0
 28 30  1  0  0  0
  7 16  1  0  0  0
 14 17  1  0  0  0
M  END
> <minimizedAffinity>
-8.32616

> <minimizedRMSD>
0.35705

$$$$
P2026


 39 43  0  0  0  0  0  0  0  0999 V2000
   -7.2808    4.3258  -13.8812 C   0  0  0  0  0  0  0  0  0  0  0  0
   -7.4245    4.4866  -15.4031 C   0  0  0  0  0  0  0  0  0  0  0  0
   -8.7080    4.4521  -15.9819 C   0  0  0  0  0  0  0  0  0  0  0  0
   -8.9010    4.5943  -17.3501 C   0  0  0  0  0  0  0  0  0  0  0  0
  -10.4755    4.6674  -17.9861 Cl  0  0  0  0  0  0  0  0  0  0  0  0
   -7.8316    4.7537  -18.2023 C   0  0  0  0  0  0  0  0  0  0  0  0
   -6.5501    4.8503  -17.6724 C   0  0  0  0  0  0  0  0  0  0  0  0
   -6.3412    4.7298  -16.2792 C   0  0  0  0  0  0  0  0  0  0  0  0
   -5.0196    4.8410  -15.8169 N   0  0  0  0  0  0  0  0  0  0  0  0
   -3.9573    5.2043  -16.6095 C   0  0  0  0  0  0  0  0  0  0  0  0
   -2.8034    5.0962  -16.1869 O   0  0  0  0  0  0  0  0  0  0  0  0
   -4.2723    5.8194  -17.9879 C   0  0  0  0  0  0  0  0  0  0  0  0
   -4.6334    7.3066  -17.8694 C   0  0  0  0  0  0  0  0  0  0  0  0
   -4.0399    7.9137  -19.1241 C   0  0  0  0  0  0  0  0  0  0  0  0
   -2.7488    7.1417  -19.2804 C   0  0  0  0  0  0  0  0  0  0  0  0
   -3.0467    5.7730  -18.8543 N   0  0  0  0  0  0  0  0  0  0  0  0
   -5.3943    5.0117  -18.6268 C   0  0  0  0  0  0  0  0  0  0  0  0
   -4.8436    4.6469  -14.8679 H   0  0  0  0  0  0  0  0  0  0  0  0
   -2.2611    5.3957  -18.3243 H   0  0  0  0  0  0  0  0  0  0  0  0
   -6.9532    1.9341  -13.7634 O   0  0  0  0  0  0  0  0  0  0  0  0
   -6.5402    2.9891  -13.4720 C   0  0  0  0  0  0  0  0  0  0  0  0
   -5.2766    3.3866  -12.6507 N   0  0  0  0  0  0  0  0  0  0  0  0
   -5.1009    4.3543  -12.6067 H   0  0  0  0  0  0  0  0  0  0  0  0
   -4.3238    2.5673  -11.9452 C   0  0  0  0  0  0  0  0  0  0  0  0
   -4.9631    1.9240  -10.7204 C   0  0  0  0  0  0  0  0  0  0  0  0
   -3.9963    0.9892  -10.0262 C   0  0  0  0  0  0  0  0  0  0  0  0
   -3.1958    1.7128   -9.1954 F   0  0  0  0  0  0  0  0  0  0  0  0
   -8.6145    4.3255  -13.2154 N   0  0  0  0  0  0  0  0  0  0  0  0
   -9.4641    4.2660  -13.7091 H   0  0  0  0  0  0  0  0  0  0  0  0
   -8.5415    4.4189  -11.8065 C   0  0  0  0  0  0  0  0  0  0  0  0
   -8.7483    3.2662  -11.0194 C   0  0  0  0  0  0  0  0  0  0  0  0
   -8.6504    3.3057   -9.6281 C   0  0  0  0  0  0  0  0  0  0  0  0
   -8.3418    4.5142   -9.0379 C   0  0  0  0  0  0  0  0  0  0  0  0
   -8.1422    5.6609   -9.8024 C   0  0  0  0  0  0  0  0  0  0  0  0
   -8.2369    5.6334  -11.1842 C   0  0  0  0  0  0  0  0  0  0  0  0
   -7.8848    6.8098   -8.8893 C   0  0  0  0  0  0  0  0  0  0  0  0
   -7.5808    6.2043   -7.5646 N   0  0  0  0  0  0  0  0  0  0  0  0
   -8.2097    4.8527   -7.5933 C   0  0  0  0  0  0  0  0  0  0  0  0
   -7.9805    6.7680   -6.8143 H   0  0  0  0  0  0  0  0  0  0  0  0
 20 21  2  0  0  0
 21 22  1  0  0  0
 22 24  1  0  0  0
 24 25  1  0  0  0
 25 26  1  0  0  0
 26 27  1  0  0  0
 21  1  1  0  0  0
  1 28  1  0  0  0
 28 30  1  0  0  0
 30 31  2  0  0  0
 31 32  1  0  0  0
 32 33  2  0  0  0
 33 34  1  0  0  0
 34 35  2  0  0  0
 34 36  1  0  0  0
 36 37  1  0  0  0
 37 38  1  0  0  0
  1  2  1  0  0  0
  2  3  2  0  0  0
  3  4  1  0  0  0
  4  5  1  0  0  0
  4  6  2  0  0  0
  6  7  1  0  0  0
  7  8  2  0  0  0
  8  9  1  0  0  0
  9 10  1  0  0  0
 10 11  2  0  0  0
 10 12  1  0  0  0
 12 13  1  0  0  0
 13 14  1  0  0  0
 14 15  1  0  0  0
 15 16  1  0  0  0
 12 17  1  0  0  0
 35 30  1  0  0  0
  8  2  1  0  0  0
 16 12  1  0  0  0
 38 33  1  0  0  0
 17  7  1  0  0  0
 22 23  1  0  0  0
 28 29  1  0  0  0
 37 39  1  0  0  0
  9 18  1  0  0  0
 16 19  1  0  0  0
M  END
> <minimizedAffinity>
-8.55590

> <minimizedRMSD>
0.61949

$$$$
P2029


 39 43  0  0  0  0  0  0  0  0999 V2000
   -7.4811    4.7688  -14.4272 C   0  0  0  0  0  0  0  0  0  0  0  0
   -7.6738    4.6789  -15.9418 C   0  0  0  0  0  0  0  0  0  0  0  0
   -8.9609    4.4207  -16.4437 C   0  0  0  0  0  0  0  0  0  0  0  0
   -9.2162    4.3704  -17.8070 C   0  0  0  0  0  0  0  0  0  0  0  0
  -10.8094    4.2940  -18.3849 Cl  0  0  0  0  0  0  0  0  0  0  0  0
   -8.1924    4.4733  -18.7199 C   0  0  0  0  0  0  0  0  0  0  0  0
   -6.8996    4.6939  -18.2632 C   0  0  0  0  0  0  0  0  0  0  0  0
   -6.6351    4.8072  -16.8840 C   0  0  0  0  0  0  0  0  0  0  0  0
   -5.2990    4.9933  -16.5000 N   0  0  0  0  0  0  0  0  0  0  0  0
   -4.2595    5.2372  -17.3701 C   0  0  0  0  0  0  0  0  0  0  0  0
   -3.1079    5.2177  -16.9362 O   0  0  0  0  0  0  0  0  0  0  0  0
   -4.6499    5.6283  -18.8155 C   0  0  0  0  0  0  0  0  0  0  0  0
   -5.0497    7.1151  -18.8795 C   0  0  0  0  0  0  0  0  0  0  0  0
   -4.2189    7.6830  -20.0146 C   0  0  0  0  0  0  0  0  0  0  0  0
   -2.9790    6.8179  -19.9927 C   0  0  0  0  0  0  0  0  0  0  0  0
   -3.4955    5.4702  -19.7561 N   0  0  0  0  0  0  0  0  0  0  0  0
   -5.7774    4.7088  -19.2564 C   0  0  0  0  0  0  0  0  0  0  0  0
   -5.0891    4.9463  -15.5393 H   0  0  0  0  0  0  0  0  0  0  0  0
   -2.7745    4.8833  -19.3364 H   0  0  0  0  0  0  0  0  0  0  0  0
   -9.5227    6.0868  -14.1207 O   0  0  0  0  0  0  0  0  0  0  0  0
   -8.4536    5.8243  -13.7209 C   0  0  0  0  0  0  0  0  0  0  0  0
   -7.6663    6.3872  -12.4951 N   0  0  0  0  0  0  0  0  0  0  0  0
   -6.7425    6.0574  -12.4114 H   0  0  0  0  0  0  0  0  0  0  0  0
   -8.0711    7.3067  -11.4716 C   0  0  0  0  0  0  0  0  0  0  0  0
   -7.3703    8.6553  -11.5856 C   0  0  0  0  0  0  0  0  0  0  0  0
   -7.7619    9.4208  -12.8394 C   0  0  0  0  0  0  0  0  0  0  0  0
   -6.7932    9.2788  -13.7842 F   0  0  0  0  0  0  0  0  0  0  0  0
   -7.6591    3.4112  -13.8671 N   0  0  0  0  0  0  0  0  0  0  0  0
   -8.3911    2.8266  -14.1698 H   0  0  0  0  0  0  0  0  0  0  0  0
   -6.7506    2.9881  -12.8925 C   0  0  0  0  0  0  0  0  0  0  0  0
   -7.1593    2.8914  -11.5469 C   0  0  0  0  0  0  0  0  0  0  0  0
   -6.2587    2.5384  -10.5378 C   0  0  0  0  0  0  0  0  0  0  0  0
   -4.9465    2.2920  -10.8940 C   0  0  0  0  0  0  0  0  0  0  0  0
   -4.5311    2.3829  -12.2189 C   0  0  0  0  0  0  0  0  0  0  0  0
   -5.4156    2.7274  -13.2273 C   0  0  0  0  0  0  0  0  0  0  0  0
   -3.0887    2.0156  -12.3058 C   0  0  0  0  0  0  0  0  0  0  0  0
   -2.5928    2.0312  -10.9052 N   0  0  0  0  0  0  0  0  0  0  0  0
   -3.7955    1.8680  -10.0464 C   0  0  0  0  0  0  0  0  0  0  0  0
   -2.1295    2.9170  -10.7026 H   0  0  0  0  0  0  0  0  0  0  0  0
 20 21  2  0  0  0
 21 22  1  0  0  0
 22 24  1  0  0  0
 24 25  1  0  0  0
 25 26  1  0  0  0
 26 27  1  0  0  0
 21  1  1  0  0  0
  1 28  1  0  0  0
 28 30  1  0  0  0
 30 31  2  0  0  0
 31 32  1  0  0  0
 32 33  2  0  0  0
 33 34  1  0  0  0
 34 35  2  0  0  0
 34 36  1  0  0  0
 36 37  1  0  0  0
 37 38  1  0  0  0
  1  2  1  0  0  0
  2  3  2  0  0  0
  3  4  1  0  0  0
  4  5  1  0  0  0
  4  6  2  0  0  0
  6  7  1  0  0  0
  7  8  2  0  0  0
  8  9  1  0  0  0
  9 10  1  0  0  0
 10 11  2  0  0  0
 10 12  1  0  0  0
 12 13  1  0  0  0
 13 14  1  0  0  0
 14 15  1  0  0  0
 15 16  1  0  0  0
 12 17  1  0  0  0
 35 30  1  0  0  0
  8  2  1  0  0  0
 16 12  1  0  0  0
 38 33  1  0  0  0
 17  7  1  0  0  0
 22 23  1  0  0  0
 28 29  1  0  0  0
 37 39  1  0  0  0
  9 18  1  0  0  0
 16 19  1  0  0  0
M  END
> <minimizedAffinity>
-8.24879

> <minimizedRMSD>
1.07357

$$$$
P2038


 32 36  0  0  0  0  0  0  0  0999 V2000
   -3.1037    6.9125  -21.6544 C   0  0  0  0  0  0  0  0  0  0  0  0
   -3.6906    7.0536  -20.2612 C   0  0  0  0  0  0  0  0  0  0  0  0
   -5.0556    7.7157  -20.2610 C   0  0  0  0  0  0  0  0  0  0  0  0
   -5.6003    7.3188  -18.9037 C   0  0  0  0  0  0  0  0  0  0  0  0
   -5.0793    5.8845  -18.7029 C   0  0  0  0  0  0  0  0  0  0  0  0
   -6.1453    4.8534  -19.0743 C   0  0  0  0  0  0  0  0  0  0  0  0
   -7.2226    4.7618  -18.0263 C   0  0  0  0  0  0  0  0  0  0  0  0
   -8.5130    4.3538  -18.3881 C   0  0  0  0  0  0  0  0  0  0  0  0
   -9.4938    4.1879  -17.4164 C   0  0  0  0  0  0  0  0  0  0  0  0
   -9.1902    4.4232  -16.0789 C   0  0  0  0  0  0  0  0  0  0  0  0
   -7.9173    4.8571  -15.7137 C   0  0  0  0  0  0  0  0  0  0  0  0
   -6.9233    5.0214  -16.6811 C   0  0  0  0  0  0  0  0  0  0  0  0
   -5.6210    5.4059  -16.3294 N   0  0  0  0  0  0  0  0  0  0  0  0
   -4.6317    5.6756  -17.2361 C   0  0  0  0  0  0  0  0  0  0  0  0
   -3.4672    5.8195  -16.8591 O   0  0  0  0  0  0  0  0  0  0  0  0
   -3.9123    5.7427  -19.6378 N   0  0  0  0  0  0  0  0  0  0  0  0
   -5.4054    5.4866  -15.3722 H   0  0  0  0  0  0  0  0  0  0  0  0
   -4.1209    5.0466  -20.3536 H   0  0  0  0  0  0  0  0  0  0  0  0
   -7.7127    5.2942  -14.3177 C   0  0  0  0  0  0  0  0  0  0  0  0
   -7.1344    6.2909  -14.1309 O   0  0  0  0  0  0  0  0  0  0  0  0
   -8.2969    4.2735  -13.3178 N   0  0  0  0  0  0  0  0  0  0  0  0
   -8.6778    3.4646  -13.7299 H   0  0  0  0  0  0  0  0  0  0  0  0
   -8.3730    4.3108  -11.9264 C   0  0  0  0  0  0  0  0  0  0  0  0
   -8.5872    3.1194  -11.2145 C   0  0  0  0  0  0  0  0  0  0  0  0
   -8.6672    3.1177   -9.8140 C   0  0  0  0  0  0  0  0  0  0  0  0
   -8.5580    4.3191   -9.1502 C   0  0  0  0  0  0  0  0  0  0  0  0
   -8.3383    5.4978   -9.8553 C   0  0  0  0  0  0  0  0  0  0  0  0
   -8.2327    5.5139  -11.2366 C   0  0  0  0  0  0  0  0  0  0  0  0
   -8.1779    6.6210   -8.8890 C   0  0  0  0  0  0  0  0  0  0  0  0
   -8.7079    6.1062   -7.6003 N   0  0  0  0  0  0  0  0  0  0  0  0
   -8.5617    4.6219   -7.6900 C   0  0  0  0  0  0  0  0  0  0  0  0
   -9.6882    6.3640   -7.4869 H   0  0  0  0  0  0  0  0  0  0  0  0
  2  1  1  0  0  0
  2  3  1  0  0  0
  3  4  1  0  0  0
  5  4  1  0  0  0
  5  6  1  0  0  0
  6  7  1  0  0  0
  7  8  2  0  0  0
  8  9  1  0  0  0
  9 10  2  0  0  0
 10 11  1  0  0  0
 11 19  1  0  0  0
 19 20  2  0  0  0
 19 21  1  0  0  0
 21 23  1  0  0  0
 23 24  2  0  0  0
 24 25  1  0  0  0
 25 26  2  0  0  0
 26 27  1  0  0  0
 27 28  2  0  0  0
 27 29  1  0  0  0
 29 30  1  0  0  0
 30 31  1  0  0  0
 11 12  2  0  0  0
 12 13  1  0  0  0
 13 14  1  0  0  0
 14 15  2  0  0  0
  5 16  1  0  0  0
 16  2  1  0  0  0
 14  5  1  0  0  0
 12  7  1  0  0  0
 28 23  1  0  0  0
 31 26  1  0  0  0
 21 22  1  0  0  0
 30 32  1  0  0  0
 13 17  1  0  0  0
 16 18  1  0  0  0
M  END
> <minimizedAffinity>
-8.74602

> <minimizedRMSD>
0.66860

$$$$
P2057


 28 31  0  0  0  0  0  0  0  0999 V2000
   -7.6232    4.8628  -15.7907 C   0  0  0  0  0  0  0  0  0  0  0  0
   -8.9486    4.7601  -16.2190 C   0  0  0  0  0  0  0  0  0  0  0  0
   -9.2357    4.6341  -17.5733 C   0  0  0  0  0  0  0  0  0  0  0  0
  -10.8547    4.6455  -18.0929 Cl  0  0  0  0  0  0  0  0  0  0  0  0
   -8.2291    4.5870  -18.5224 C   0  0  0  0  0  0  0  0  0  0  0  0
   -6.9028    4.7291  -18.1218 C   0  0  0  0  0  0  0  0  0  0  0  0
   -6.5957    4.8820  -16.7566 C   0  0  0  0  0  0  0  0  0  0  0  0
   -5.2457    5.0243  -16.3976 N   0  0  0  0  0  0  0  0  0  0  0  0
   -4.2195    5.1507  -17.2976 C   0  0  0  0  0  0  0  0  0  0  0  0
   -3.0447    5.0358  -16.9432 O   0  0  0  0  0  0  0  0  0  0  0  0
   -4.6079    5.5170  -18.7454 C   0  0  0  0  0  0  0  0  0  0  0  0
   -4.9034    7.0217  -18.8657 C   0  0  0  0  0  0  0  0  0  0  0  0
   -4.2624    7.4092  -20.1824 C   0  0  0  0  0  0  0  0  0  0  0  0
   -3.0218    6.5461  -20.2053 C   0  0  0  0  0  0  0  0  0  0  0  0
   -3.4447    5.2561  -19.6588 N   0  0  0  0  0  0  0  0  0  0  0  0
   -5.8101    4.6729  -19.1593 C   0  0  0  0  0  0  0  0  0  0  0  0
   -5.0220    5.0338  -15.4389 H   0  0  0  0  0  0  0  0  0  0  0  0
   -2.6790    4.8307  -19.1361 H   0  0  0  0  0  0  0  0  0  0  0  0
   -6.5896    5.9746  -14.0849 O   0  0  0  0  0  0  0  0  0  0  0  0
   -7.3675    5.1403  -14.3393 C   0  0  0  0  0  0  0  0  0  0  0  0
   -8.2869    4.3077  -13.4103 N   0  0  0  0  0  0  0  0  0  0  0  0
   -8.9159    3.7124  -13.8785 H   0  0  0  0  0  0  0  0  0  0  0  0
   -8.3662    4.2656  -12.0505 C   0  0  0  0  0  0  0  0  0  0  0  0
   -8.5605    3.2184  -11.1858 C   0  0  0  0  0  0  0  0  0  0  0  0
   -8.5992    3.8092   -9.9068 C   0  0  0  0  0  0  0  0  0  0  0  0
   -8.4745    5.1409   -9.9563 N   0  0  0  0  0  0  0  0  0  0  0  0
   -8.2928    5.3858  -11.2684 N   0  0  0  0  0  0  0  0  0  0  0  0
   -8.1232    6.2855  -11.6303 H   0  0  0  0  0  0  0  0  0  0  0  0
 19 20  2  0  0  0
 20 21  1  0  0  0
 21 23  1  0  0  0
 23 24  2  0  0  0
 24 25  1  0  0  0
 25 26  2  0  0  0
 26 27  1  0  0  0
 20  1  1  0  0  0
  1  2  2  0  0  0
  2  3  1  0  0  0
  3  4  1  0  0  0
  3  5  2  0  0  0
  5  6  1  0  0  0
  6  7  2  0  0  0
  7  8  1  0  0  0
  8  9  1  0  0  0
  9 10  2  0  0  0
  9 11  1  0  0  0
 11 12  1  0  0  0
 12 13  1  0  0  0
 13 14  1  0  0  0
 14 15  1  0  0  0
 11 16  1  0  0  0
 27 23  1  0  0  0
  7  1  1  0  0  0
 15 11  1  0  0  0
 16  6  1  0  0  0
 21 22  1  0  0  0
 27 28  1  0  0  0
  8 17  1  0  0  0
 15 18  1  0  0  0
M  END
> <minimizedAffinity>
-7.78002

> <minimizedRMSD>
0.44135

$$$$
P2169


 28 31  0  0  0  0  0  0  0  0999 V2000
   -5.8498    4.5771  -19.6446 N   0  0  0  0  0  0  0  0  0  0  0  0
   -5.6543    4.8349  -18.2478 N   0  0  0  0  0  0  0  0  0  0  0  0
   -4.4680    5.5959  -18.1255 N   0  0  0  0  0  0  0  0  0  0  0  0
   -4.8343    6.9971  -18.2215 C   0  0  0  0  0  0  0  0  0  0  0  0
   -6.3455    7.0457  -18.0685 C   0  0  0  0  0  0  0  0  0  0  0  0
   -6.7802    5.6243  -17.6998 C   0  0  0  0  0  0  0  0  0  0  0  0
   -8.0310    5.1622  -18.3221 N   0  0  0  0  0  0  0  0  0  0  0  0
   -8.8064    4.4883  -17.3101 C   0  0  0  0  0  0  0  0  0  0  0  0
   -8.0522    4.4004  -16.1053 O   0  0  0  0  0  0  0  0  0  0  0  0
   -7.0811    5.4538  -16.1995 C   0  0  0  0  0  0  0  0  0  0  0  0
   -5.0650    4.0330  -20.0030 H   0  0  0  0  0  0  0  0  0  0  0  0
   -5.9085    5.4619  -20.1486 H   0  0  0  0  0  0  0  0  0  0  0  0
   -3.8203    5.3535  -18.8753 H   0  0  0  0  0  0  0  0  0  0  0  0
   -7.8215    4.5179  -19.0846 H   0  0  0  0  0  0  0  0  0  0  0  0
   -5.8612    5.3142  -15.2713 C   0  0  0  0  0  0  0  0  0  0  0  0
   -5.0725    6.1618  -15.1003 O   0  0  0  0  0  0  0  0  0  0  0  0
   -6.0032    3.9180  -14.5975 N   0  0  0  0  0  0  0  0  0  0  0  0
   -6.8051    3.4121  -14.8622 H   0  0  0  0  0  0  0  0  0  0  0  0
   -5.1830    3.2710  -13.6845 C   0  0  0  0  0  0  0  0  0  0  0  0
   -3.7921    3.2090  -13.8464 C   0  0  0  0  0  0  0  0  0  0  0  0
   -2.9517    2.5300  -13.0212 N   0  0  0  0  0  0  0  0  0  0  0  0
   -3.5622    1.9186  -11.9927 C   0  0  0  0  0  0  0  0  0  0  0  0
   -4.9227    1.9609  -11.7295 C   0  0  0  0  0  0  0  0  0  0  0  0
   -5.7638    2.6385  -12.5877 C   0  0  0  0  0  0  0  0  0  0  0  0
   -5.2019    1.2181  -10.4717 C   0  0  0  0  0  0  0  0  0  0  0  0
   -4.0136    0.3503  -10.2531 N   0  0  0  0  0  0  0  0  0  0  0  0
   -2.8990    1.0630  -10.9475 C   0  0  0  0  0  0  0  0  0  0  0  0
   -4.1611   -0.5728  -10.6610 H   0  0  0  0  0  0  0  0  0  0  0  0
  1  2  1  0  0  0
  2  3  1  0  0  0
  3  4  1  0  0  0
  4  5  1  0  0  0
  6  5  1  0  0  0
  6  7  1  0  0  0
  7  8  1  0  0  0
  8  9  1  0  0  0
  9 10  1  0  0  0
 10 15  1  0  0  0
 15 16  2  0  0  0
 15 17  1  0  0  0
 17 19  1  0  0  0
 19 20  2  0  0  0
 20 21  1  0  0  0
 21 22  2  0  0  0
 22 23  1  0  0  0
 23 24  2  0  0  0
 23 25  1  0  0  0
 25 26  1  0  0  0
 26 27  1  0  0  0
  6  2  1  0  0  0
 24 19  1  0  0  0
 10  6  1  0  0  0
 27 22  1  0  0  0
  1 11  1  0  0  0
  1 12  1  0  0  0
  3 13  1  0  0  0
  7 14  1  0  0  0
 17 18  1  0  0  0
 26 28  1  0  0  0
M  END
> <minimizedAffinity>
-6.92209

> <minimizedRMSD>
0.64870

$$$$
P2288


 33 36  0  0  0  0  0  0  0  0999 V2000
   -8.3414    6.7441  -11.6427 C   0  0  0  0  0  0  0  0  0  0  0  0
   -8.3648    7.2005  -10.3333 C   0  0  0  0  0  0  0  0  0  0  0  0
   -8.3920    6.2717   -9.3076 C   0  0  0  0  0  0  0  0  0  0  0  0
   -8.4005    4.8871   -9.5549 C   0  0  0  0  0  0  0  0  0  0  0  0
   -8.3050    4.4563  -10.8956 C   0  0  0  0  0  0  0  0  0  0  0  0
   -8.2620    5.3762  -11.9423 C   0  0  0  0  0  0  0  0  0  0  0  0
   -8.5991    4.0240   -8.4858 N   0  0  0  0  0  0  0  0  0  0  0  0
   -8.7221    2.5719   -8.7282 C   0  0  0  0  0  0  0  0  0  0  0  0
   -9.4790    1.9182   -7.5551 C   0  0  0  0  0  0  0  0  0  0  0  0
   -8.8700    2.1836   -6.2414 N   0  0  0  0  0  0  0  0  0  0  0  0
   -8.7727    3.6362   -6.0453 C   0  0  0  0  0  0  0  0  0  0  0  0
   -8.0141    4.3620   -7.1771 C   0  0  0  0  0  0  0  0  0  0  0  0
   -7.9381    1.7704   -6.2065 H   0  0  0  0  0  0  0  0  0  0  0  0
  -10.0092    7.6957  -13.6527 C   0  0  0  0  0  0  0  0  0  0  0  0
   -8.4103    7.9657  -12.9167 S   0  0  0  0  0  0  0  0  0  0  0  0
   -8.3982    9.2712  -12.2901 O   0  0  0  0  0  0  0  0  0  0  0  0
   -7.3788    7.6349  -13.8868 O   0  0  0  0  0  0  0  0  0  0  0  0
   -8.0742    5.0179  -13.2767 N   0  0  0  0  0  0  0  0  0  0  0  0
   -7.2512    3.8838  -13.8973 C   0  0  0  0  0  0  0  0  0  0  0  0
   -6.6598    3.0200  -13.3943 O   0  0  0  0  0  0  0  0  0  0  0  0
   -8.5477    5.5863  -13.9263 H   0  0  0  0  0  0  0  0  0  0  0  0
   -7.2570    4.1553  -15.3659 C   0  0  0  0  0  0  0  0  0  0  0  0
   -8.3929    4.2931  -16.1610 C   0  0  0  0  0  0  0  0  0  0  0  0
   -8.2612    4.5926  -17.5215 C   0  0  0  0  0  0  0  0  0  0  0  0
   -6.9968    4.7819  -18.1094 C   0  0  0  0  0  0  0  0  0  0  0  0
   -5.8439    4.7405  -17.2972 C   0  0  0  0  0  0  0  0  0  0  0  0
   -4.4395    4.8864  -17.4964 C   0  0  0  0  0  0  0  0  0  0  0  0
   -3.8181    4.8186  -16.2677 C   0  0  0  0  0  0  0  0  0  0  0  0
   -4.7778    4.5565  -15.3366 N   0  0  0  0  0  0  0  0  0  0  0  0
   -6.0123    4.4593  -15.9425 C   0  0  0  0  0  0  0  0  0  0  0  0
   -4.6136    4.4518  -14.3716 H   0  0  0  0  0  0  0  0  0  0  0  0
   -3.7193    5.0411  -18.7162 C   0  0  0  0  0  0  0  0  0  0  0  0
   -3.0664    5.1949  -19.6636 N   0  0  0  0  0  0  0  0  0  0  0  0
 14 15  1  0  0  0
 15 16  2  0  0  0
 15 17  2  0  0  0
 15  1  1  0  0  0
  1  2  2  0  0  0
  2  3  1  0  0  0
  3  4  2  0  0  0
  4  7  1  0  0  0
  7  8  1  0  0  0
  8  9  1  0  0  0
  9 10  1  0  0  0
 10 11  1  0  0  0
 11 12  1  0  0  0
  4  5  1  0  0  0
  5  6  2  0  0  0
  6 18  1  0  0  0
 18 19  1  0  0  0
 19 20  2  0  0  0
 19 22  1  0  0  0
 22 23  2  0  0  0
 23 24  1  0  0  0
 24 25  2  0  0  0
 25 26  1  0  0  0
 26 27  1  0  0  0
 27 32  1  0  0  0
 32 33  3  0  0  0
 27 28  2  0  0  0
 28 29  1  0  0  0
 29 30  1  0  0  0
  6  1  1  0  0  0
 30 22  1  0  0  0
 12  7  1  0  0  0
 30 26  2  0  0  0
 10 13  1  0  0  0
 18 21  1  0  0  0
 29 31  1  0  0  0
M  END
> <minimizedAffinity>
-8.08424

> <minimizedRMSD>
0.86814

$$$$
P2294


 30 33  0  0  0  0  0  0  0  0999 V2000
   -8.3520    6.8051  -11.6597 C   0  0  0  0  0  0  0  0  0  0  0  0
   -8.4280    7.2390  -10.3441 C   0  0  0  0  0  0  0  0  0  0  0  0
   -8.4377    6.3017   -9.3211 C   0  0  0  0  0  0  0  0  0  0  0  0
   -8.3621    4.9190   -9.5590 C   0  0  0  0  0  0  0  0  0  0  0  0
   -8.1718    4.5214  -10.9069 C   0  0  0  0  0  0  0  0  0  0  0  0
   -8.1471    5.4567  -11.9614 C   0  0  0  0  0  0  0  0  0  0  0  0
   -8.6213    4.0327   -8.5111 N   0  0  0  0  0  0  0  0  0  0  0  0
   -8.6871    2.5745   -8.7741 C   0  0  0  0  0  0  0  0  0  0  0  0
   -9.4584    1.8475   -7.6471 C   0  0  0  0  0  0  0  0  0  0  0  0
   -8.9414    2.1086   -6.3026 N   0  0  0  0  0  0  0  0  0  0  0  0
   -8.8973    3.5464   -6.0670 C   0  0  0  0  0  0  0  0  0  0  0  0
   -8.1224    4.3330   -7.1488 C   0  0  0  0  0  0  0  0  0  0  0  0
   -8.0013    1.7218   -6.2192 H   0  0  0  0  0  0  0  0  0  0  0  0
   -9.0320    9.5057  -12.2192 C   0  0  0  0  0  0  0  0  0  0  0  0
   -8.7327    7.9295  -12.9498 S   0  0  0  0  0  0  0  0  0  0  0  0
   -7.5241    8.1006  -13.7310 O   0  0  0  0  0  0  0  0  0  0  0  0
   -9.9855    7.4974  -13.5383 O   0  0  0  0  0  0  0  0  0  0  0  0
   -8.3250    4.9986  -13.3550 C   0  0  0  0  0  0  0  0  0  0  0  0
   -9.4872    4.9749  -13.7531 O   0  0  0  0  0  0  0  0  0  0  0  0
   -7.2824    4.8004  -14.3807 C   0  0  0  0  0  0  0  0  0  0  0  0
   -7.5438    5.3790  -15.6280 C   0  0  0  0  0  0  0  0  0  0  0  0
   -6.5607    5.4835  -16.5888 C   0  0  0  0  0  0  0  0  0  0  0  0
   -5.2711    5.0000  -16.3006 C   0  0  0  0  0  0  0  0  0  0  0  0
   -4.1308    4.9565  -17.1455 C   0  0  0  0  0  0  0  0  0  0  0  0
   -3.0125    4.4435  -16.5426 C   0  0  0  0  0  0  0  0  0  0  0  0
   -3.3604    3.9299  -14.9482 S   0  0  0  0  0  0  0  0  0  0  0  0
   -5.0178    4.4007  -15.0683 C   0  0  0  0  0  0  0  0  0  0  0  0
   -6.0291    4.2540  -14.0974 C   0  0  0  0  0  0  0  0  0  0  0  0
   -4.2770    5.3124  -18.5101 C   0  0  0  0  0  0  0  0  0  0  0  0
   -4.3126    5.8529  -19.5343 N   0  0  0  0  0  0  0  0  0  0  0  0
 14 15  1  0  0  0
 15 16  2  0  0  0
 15 17  2  0  0  0
 15  1  1  0  0  0
  1  2  2  0  0  0
  2  3  1  0  0  0
  3  4  2  0  0  0
  4  7  1  0  0  0
  7  8  1  0  0  0
  8  9  1  0  0  0
  9 10  1  0  0  0
 10 11  1  0  0  0
 11 12  1  0  0  0
  4  5  1  0  0  0
  5  6  2  0  0  0
  6 18  1  0  0  0
 18 19  2  0  0  0
 18 20  1  0  0  0
 20 21  2  0  0  0
 21 22  1  0  0  0
 22 23  2  0  0  0
 23 24  1  0  0  0
 24 29  1  0  0  0
 29 30  3  0  0  0
 24 25  2  0  0  0
 25 26  1  0  0  0
 26 27  1  0  0  0
 27 28  2  0  0  0
  6  1  1  0  0  0
 28 20  1  0  0  0
 12  7  1  0  0  0
 27 23  1  0  0  0
 10 13  1  0  0  0
M  END
> <minimizedAffinity>
-7.03971

> <minimizedRMSD>
1.44349

$$$$
P2303


 34 37  0  0  0  0  0  0  0  0999 V2000
   -7.8667    6.5627  -11.7537 C   0  0  0  0  0  0  0  0  0  0  0  0
   -8.4119    7.0500  -10.5419 C   0  0  0  0  0  0  0  0  0  0  0  0
   -8.5720    6.2340   -9.4393 C   0  0  0  0  0  0  0  0  0  0  0  0
   -8.2030    4.9053   -9.5104 C   0  0  0  0  0  0  0  0  0  0  0  0
   -7.5323    4.4922  -10.6809 C   0  0  0  0  0  0  0  0  0  0  0  0
   -7.3170    5.2774  -11.8579 C   0  0  0  0  0  0  0  0  0  0  0  0
   -8.5336    4.0440   -8.4741 N   0  0  0  0  0  0  0  0  0  0  0  0
   -8.6489    2.5928   -8.7477 C   0  0  0  0  0  0  0  0  0  0  0  0
   -9.4700    1.9169   -7.6301 C   0  0  0  0  0  0  0  0  0  0  0  0
   -8.9368    2.1669   -6.2774 N   0  0  0  0  0  0  0  0  0  0  0  0
   -8.8390    3.6173   -6.0575 C   0  0  0  0  0  0  0  0  0  0  0  0
   -8.0166    4.3593   -7.1341 C   0  0  0  0  0  0  0  0  0  0  0  0
   -8.0118    1.7456   -6.1920 H   0  0  0  0  0  0  0  0  0  0  0  0
   -9.4376    6.9921  -13.9712 C   0  0  0  0  0  0  0  0  0  0  0  0
   -8.0682    7.7145  -13.0664 S   0  0  0  0  0  0  0  0  0  0  0  0
   -8.5169    8.9657  -12.4863 O   0  0  0  0  0  0  0  0  0  0  0  0
   -6.8978    7.7011  -13.9087 O   0  0  0  0  0  0  0  0  0  0  0  0
   -6.2969    4.7924  -12.9536 C   0  0  0  0  0  0  0  0  0  0  0  0
   -6.5535    4.6931  -14.4941 C   0  0  0  0  0  0  0  0  0  0  0  0
   -7.7956    4.3399  -15.0836 C   0  0  0  0  0  0  0  0  0  0  0  0
   -7.9548    4.2602  -16.4862 C   0  0  0  0  0  0  0  0  0  0  0  0
   -9.4502    3.8826  -17.2301 Cl  0  0  0  0  0  0  0  0  0  0  0  0
   -6.9107    4.4784  -17.3767 C   0  0  0  0  0  0  0  0  0  0  0  0
   -5.6863    4.7796  -16.8109 C   0  0  0  0  0  0  0  0  0  0  0  0
   -4.4767    5.0133  -17.4121 N   0  0  0  0  0  0  0  0  0  0  0  0
   -3.4869    5.2827  -16.5434 N   0  0  0  0  0  0  0  0  0  0  0  0
   -4.1045    5.2303  -15.3582 C   0  0  0  0  0  0  0  0  0  0  0  0
   -5.4847    4.8993  -15.4381 C   0  0  0  0  0  0  0  0  0  0  0  0
   -4.3453    4.9865  -18.3875 H   0  0  0  0  0  0  0  0  0  0  0  0
   -5.5367    3.4993  -12.5523 C   0  0  0  0  0  0  0  0  0  0  0  0
   -6.3414    2.3065  -12.9624 C   0  0  0  0  0  0  0  0  0  0  0  0
   -7.4640    2.0209  -12.6041 O   0  0  0  0  0  0  0  0  0  0  0  0
   -5.7348    1.5499  -13.8718 O   0  0  0  0  0  0  0  0  0  0  0  0
   -4.8673    1.7625  -14.1550 H   0  0  0  0  0  0  0  0  0  0  0  0
 14 15  1  0  0  0
 15 16  2  0  0  0
 15 17  2  0  0  0
 15  1  1  0  0  0
  1  2  2  0  0  0
  2  3  1  0  0  0
  3  4  2  0  0  0
  4  7  1  0  0  0
  7  8  1  0  0  0
  8  9  1  0  0  0
  9 10  1  0  0  0
 10 11  1  0  0  0
 11 12  1  0  0  0
  4  5  1  0  0  0
  5  6  2  0  0  0
  6 18  1  0  0  0
 18 30  1  0  0  0
 30 31  1  0  0  0
 31 32  2  0  0  0
 31 33  1  0  0  0
 18 19  1  0  0  0
 19 20  2  0  0  0
 20 21  1  0  0  0
 21 22  1  0  0  0
 21 23  2  0  0  0
 23 24  1  0  0  0
 24 25  1  0  0  0
 25 26  1  0  0  0
 26 27  2  0  0  0
 27 28  1  0  0  0
  6  1  1  0  0  0
 28 19  1  0  0  0
 12  7  1  0  0  0
 28 24  2  0  0  0
 10 13  1  0  0  0
 33 34  1  0  0  0
 25 29  1  0  0  0
M  END
> <minimizedAffinity>
-7.37383

> <minimizedRMSD>
0.67539

$$$$
P2310


 36 40  0  0  0  0  0  0  0  0999 V2000
   -6.6644    4.7063  -12.9432 C   0  0  0  0  0  0  0  0  0  0  0  0
   -5.5290    4.4506  -12.5346 O   0  0  0  0  0  0  0  0  0  0  0  0
   -6.9339    4.5620  -14.3851 C   0  0  0  0  0  0  0  0  0  0  0  0
   -8.1840    4.2270  -14.8999 C   0  0  0  0  0  0  0  0  0  0  0  0
   -8.4061    4.1717  -16.2859 C   0  0  0  0  0  0  0  0  0  0  0  0
   -7.3287    4.5032  -17.1142 C   0  0  0  0  0  0  0  0  0  0  0  0
   -7.1955    4.5840  -18.4725 N   0  0  0  0  0  0  0  0  0  0  0  0
   -5.9703    4.9643  -18.8735 N   0  0  0  0  0  0  0  0  0  0  0  0
   -5.3350    5.2832  -17.7522 C   0  0  0  0  0  0  0  0  0  0  0  0
   -6.0883    4.8900  -16.6201 C   0  0  0  0  0  0  0  0  0  0  0  0
   -5.8704    4.8861  -15.2394 C   0  0  0  0  0  0  0  0  0  0  0  0
   -7.9283    4.3824  -19.0982 H   0  0  0  0  0  0  0  0  0  0  0  0
   -4.0101    5.9940  -17.7851 C   0  0  0  0  0  0  0  0  0  0  0  0
   -3.7409    6.7918  -19.0832 C   0  0  0  0  0  0  0  0  0  0  0  0
   -2.6305    6.1750  -19.9376 C   0  0  0  0  0  0  0  0  0  0  0  0
   -2.7131    4.7175  -20.0185 N   0  0  0  0  0  0  0  0  0  0  0  0
   -2.6588    4.0856  -18.6930 C   0  0  0  0  0  0  0  0  0  0  0  0
   -2.8511    5.0313  -17.5131 C   0  0  0  0  0  0  0  0  0  0  0  0
   -1.9325    4.3745  -20.5784 H   0  0  0  0  0  0  0  0  0  0  0  0
   -8.0526    6.5126  -11.8280 C   0  0  0  0  0  0  0  0  0  0  0  0
   -8.4786    7.0162  -10.5966 C   0  0  0  0  0  0  0  0  0  0  0  0
   -8.5865    6.1765   -9.5009 C   0  0  0  0  0  0  0  0  0  0  0  0
   -8.3164    4.8077   -9.5947 C   0  0  0  0  0  0  0  0  0  0  0  0
   -7.8062    4.3343  -10.8141 C   0  0  0  0  0  0  0  0  0  0  0  0
   -7.6309    5.1843  -11.9290 C   0  0  0  0  0  0  0  0  0  0  0  0
   -8.6091    4.0049   -8.5000 N   0  0  0  0  0  0  0  0  0  0  0  0
   -8.7391    2.5416   -8.6765 C   0  0  0  0  0  0  0  0  0  0  0  0
   -9.5089    1.9525   -7.4709 C   0  0  0  0  0  0  0  0  0  0  0  0
   -8.9026    2.2779   -6.1752 N   0  0  0  0  0  0  0  0  0  0  0  0
   -8.7205    3.7219   -6.0403 C   0  0  0  0  0  0  0  0  0  0  0  0
   -7.9540    4.3564   -7.2229 C   0  0  0  0  0  0  0  0  0  0  0  0
   -7.9952    1.8176   -6.1046 H   0  0  0  0  0  0  0  0  0  0  0  0
   -8.7296    9.1526  -12.3480 C   0  0  0  0  0  0  0  0  0  0  0  0
   -8.1451    7.6702  -13.1486 S   0  0  0  0  0  0  0  0  0  0  0  0
   -6.7963    7.9197  -13.6145 O   0  0  0  0  0  0  0  0  0  0  0  0
   -9.1652    7.2736  -14.0855 O   0  0  0  0  0  0  0  0  0  0  0  0
 33 34  1  0  0  0
 34 35  2  0  0  0
 34 36  2  0  0  0
 34 20  1  0  0  0
 20 21  2  0  0  0
 21 22  1  0  0  0
 22 23  2  0  0  0
 23 26  1  0  0  0
 26 27  1  0  0  0
 27 28  1  0  0  0
 28 29  1  0  0  0
 29 30  1  0  0  0
 30 31  1  0  0  0
 23 24  1  0  0  0
 24 25  2  0  0  0
 25  1  1  0  0  0
  1  2  2  0  0  0
  1  3  1  0  0  0
  3  4  2  0  0  0
  4  5  1  0  0  0
  5  6  2  0  0  0
  6  7  1  0  0  0
  7  8  1  0  0  0
  8  9  2  0  0  0
  9 13  1  0  0  0
 13 14  1  0  0  0
 14 15  1  0  0  0
 15 16  1  0  0  0
 16 17  1  0  0  0
 17 18  1  0  0  0
  9 10  1  0  0  0
 10 11  2  0  0  0
 25 20  1  0  0  0
 11  3  1  0  0  0
 31 26  1  0  0  0
 10  6  1  0  0  0
 18 13  1  0  0  0
 29 32  1  0  0  0
  7 12  1  0  0  0
 16 19  1  0  0  0
M  END
> <minimizedAffinity>
-7.95634

> <minimizedRMSD>
0.74452

$$$$
P2318


 38 42  0  0  0  0  0  0  0  0999 V2000
   -7.0292    4.6149  -13.4322 C   0  0  0  0  0  0  0  0  0  0  0  0
   -5.8683    4.3953  -13.0669 O   0  0  0  0  0  0  0  0  0  0  0  0
   -7.2842    4.5391  -14.9079 C   0  0  0  0  0  0  0  0  0  0  0  0
   -8.5805    4.4230  -15.4786 C   0  0  0  0  0  0  0  0  0  0  0  0
   -8.7717    4.3667  -16.8763 C   0  0  0  0  0  0  0  0  0  0  0  0
  -10.2512    4.5334  -17.6732 Cl  0  0  0  0  0  0  0  0  0  0  0  0
   -7.6268    4.3635  -17.6910 C   0  0  0  0  0  0  0  0  0  0  0  0
   -7.4530    4.1919  -19.0084 N   0  0  0  0  0  0  0  0  0  0  0  0
   -6.1760    4.5298  -19.2354 N   0  0  0  0  0  0  0  0  0  0  0  0
   -5.4614    4.8576  -18.1059 C   0  0  0  0  0  0  0  0  0  0  0  0
   -6.3427    4.5858  -17.0854 C   0  0  0  0  0  0  0  0  0  0  0  0
   -6.1104    4.6922  -15.7158 C   0  0  0  0  0  0  0  0  0  0  0  0
   -5.7812    4.5424  -20.1372 H   0  0  0  0  0  0  0  0  0  0  0  0
   -4.1311    5.5222  -18.2305 C   0  0  0  0  0  0  0  0  0  0  0  0
   -2.8791    4.6725  -17.9594 C   0  0  0  0  0  0  0  0  0  0  0  0
   -1.8248    5.5005  -17.1979 C   0  0  0  0  0  0  0  0  0  0  0  0
   -1.1754    6.5713  -18.0784 C   0  0  0  0  0  0  0  0  0  0  0  0
   -0.6126    6.0256  -19.3138 N   0  0  0  0  0  0  0  0  0  0  0  0
   -1.5786    5.2221  -20.0599 C   0  0  0  0  0  0  0  0  0  0  0  0
   -2.2206    4.1203  -19.2244 C   0  0  0  0  0  0  0  0  0  0  0  0
    0.1880    5.4393  -19.0778 H   0  0  0  0  0  0  0  0  0  0  0  0
   -8.2177    6.3595  -12.0759 C   0  0  0  0  0  0  0  0  0  0  0  0
   -8.4533    6.8728  -10.8002 C   0  0  0  0  0  0  0  0  0  0  0  0
   -8.4933    6.0180   -9.7245 C   0  0  0  0  0  0  0  0  0  0  0  0
   -8.3086    4.6418   -9.8832 C   0  0  0  0  0  0  0  0  0  0  0  0
   -8.0000    4.1546  -11.1790 C   0  0  0  0  0  0  0  0  0  0  0  0
   -7.9276    5.0096  -12.3028 C   0  0  0  0  0  0  0  0  0  0  0  0
   -8.4717    3.8502   -8.7636 N   0  0  0  0  0  0  0  0  0  0  0  0
   -8.5694    2.3908   -8.8713 C   0  0  0  0  0  0  0  0  0  0  0  0
   -9.4300    1.8551   -7.7046 C   0  0  0  0  0  0  0  0  0  0  0  0
   -8.9521    2.2611   -6.3690 N   0  0  0  0  0  0  0  0  0  0  0  0
   -8.8577    3.7279   -6.3207 C   0  0  0  0  0  0  0  0  0  0  0  0
   -7.9986    4.3308   -7.4535 C   0  0  0  0  0  0  0  0  0  0  0  0
   -8.0334    1.8532   -6.1957 H   0  0  0  0  0  0  0  0  0  0  0  0
   -8.8577    9.0238  -12.5172 C   0  0  0  0  0  0  0  0  0  0  0  0
   -8.3772    7.5221  -13.3576 S   0  0  0  0  0  0  0  0  0  0  0  0
   -7.0690    7.7240  -13.9457 O   0  0  0  0  0  0  0  0  0  0  0  0
   -9.5022    7.1229  -14.1688 O   0  0  0  0  0  0  0  0  0  0  0  0
 35 36  1  0  0  0
 36 37  2  0  0  0
 36 38  2  0  0  0
 36 22  1  0  0  0
 22 23  2  0  0  0
 23 24  1  0  0  0
 24 25  2  0  0  0
 25 28  1  0  0  0
 28 29  1  0  0  0
 29 30  1  0  0  0
 30 31  1  0  0  0
 31 32  1  0  0  0
 32 33  1  0  0  0
 25 26  1  0  0  0
 26 27  2  0  0  0
 27  1  1  0  0  0
  1  2  2  0  0  0
  1  3  1  0  0  0
  3  4  1  0  0  0
  4  5  2  0  0  0
  5  6  1  0  0  0
  5  7  1  0  0  0
  7  8  2  0  0  0
  8  9  1  0  0  0
  9 10  1  0  0  0
 10 14  1  0  0  0
 14 15  1  0  0  0
 15 16  1  0  0  0
 16 17  1  0  0  0
 17 18  1  0  0  0
 18 19  1  0  0  0
 19 20  1  0  0  0
 10 11  2  0  0  0
 11 12  1  0  0  0
 27 22  1  0  0  0
 12  3  2  0  0  0
 33 28  1  0  0  0
 11  7  1  0  0  0
 20 15  1  0  0  0
 31 34  1  0  0  0
  9 13  1  0  0  0
 18 21  1  0  0  0
M  END
> <minimizedAffinity>
-8.36830

> <minimizedRMSD>
0.81454

$$$$
P2319


 36 40  0  0  0  0  0  0  0  0999 V2000
   -8.2748    4.9500  -13.2993 C   0  0  0  0  0  0  0  0  0  0  0  0
   -9.3076    5.0896  -13.9426 O   0  0  0  0  0  0  0  0  0  0  0  0
   -6.9757    4.5126  -13.8761 C   0  0  0  0  0  0  0  0  0  0  0  0
   -5.8727    4.2469  -13.0532 C   0  0  0  0  0  0  0  0  0  0  0  0
   -4.5971    4.1466  -13.5974 C   0  0  0  0  0  0  0  0  0  0  0  0
   -3.2197    3.8960  -12.6066 Cl  0  0  0  0  0  0  0  0  0  0  0  0
   -4.4709    4.3237  -14.9707 C   0  0  0  0  0  0  0  0  0  0  0  0
   -3.3752    4.3396  -15.7778 N   0  0  0  0  0  0  0  0  0  0  0  0
   -3.6411    4.5811  -17.0624 N   0  0  0  0  0  0  0  0  0  0  0  0
   -4.9695    4.7710  -17.0871 C   0  0  0  0  0  0  0  0  0  0  0  0
   -5.5513    4.5399  -15.8151 C   0  0  0  0  0  0  0  0  0  0  0  0
   -6.8414    4.5879  -15.2702 C   0  0  0  0  0  0  0  0  0  0  0  0
   -2.4627    4.1856  -15.4417 H   0  0  0  0  0  0  0  0  0  0  0  0
   -5.6186    5.3302  -18.3127 C   0  0  0  0  0  0  0  0  0  0  0  0
   -5.2269    6.7982  -18.4541 C   0  0  0  0  0  0  0  0  0  0  0  0
   -5.8705    7.6438  -19.5678 C   0  0  0  0  0  0  0  0  0  0  0  0
   -5.8930    8.7902  -18.6172 N   0  0  0  0  0  0  0  0  0  0  0  0
   -5.9299    7.8054  -17.5092 C   0  0  0  0  0  0  0  0  0  0  0  0
   -6.7214    9.3812  -18.6861 H   0  0  0  0  0  0  0  0  0  0  0  0
   -8.1545    6.7667  -11.5930 C   0  0  0  0  0  0  0  0  0  0  0  0
   -8.1047    7.1616  -10.2615 C   0  0  0  0  0  0  0  0  0  0  0  0
   -8.2306    6.2052   -9.2547 C   0  0  0  0  0  0  0  0  0  0  0  0
   -8.4072    4.8395   -9.5337 C   0  0  0  0  0  0  0  0  0  0  0  0
   -8.4073    4.4719  -10.8858 C   0  0  0  0  0  0  0  0  0  0  0  0
   -8.2565    5.4167  -11.9056 C   0  0  0  0  0  0  0  0  0  0  0  0
   -8.6853    3.9316   -8.5146 N   0  0  0  0  0  0  0  0  0  0  0  0
   -8.6975    2.4789   -8.8313 C   0  0  0  0  0  0  0  0  0  0  0  0
   -9.4233    1.6905   -7.7298 C   0  0  0  0  0  0  0  0  0  0  0  0
   -8.8618    1.9287   -6.3968 N   0  0  0  0  0  0  0  0  0  0  0  0
   -8.9133    3.3643   -6.1057 C   0  0  0  0  0  0  0  0  0  0  0  0
   -8.1892    4.2293   -7.1570 C   0  0  0  0  0  0  0  0  0  0  0  0
   -7.8934    1.6095   -6.3718 H   0  0  0  0  0  0  0  0  0  0  0  0
   -9.8587    8.0740  -13.3650 C   0  0  0  0  0  0  0  0  0  0  0  0
   -8.1601    8.0217  -12.8302 S   0  0  0  0  0  0  0  0  0  0  0  0
   -7.8837    9.2836  -12.1684 O   0  0  0  0  0  0  0  0  0  0  0  0
   -7.2944    7.6153  -13.9155 O   0  0  0  0  0  0  0  0  0  0  0  0
 33 34  1  0  0  0
 34 35  2  0  0  0
 34 36  2  0  0  0
 34 20  1  0  0  0
 20 21  2  0  0  0
 21 22  1  0  0  0
 22 23  2  0  0  0
 23 26  1  0  0  0
 26 27  1  0  0  0
 27 28  1  0  0  0
 28 29  1  0  0  0
 29 30  1  0  0  0
 30 31  1  0  0  0
 23 24  1  0  0  0
 24 25  2  0  0  0
 25  1  1  0  0  0
  1  2  2  0  0  0
  1  3  1  0  0  0
  3  4  2  0  0  0
  4  5  1  0  0  0
  5  6  1  0  0  0
  5  7  2  0  0  0
  7  8  1  0  0  0
  8  9  1  0  0  0
  9 10  2  0  0  0
 10 14  1  0  0  0
 14 15  1  0  0  0
 15 16  1  0  0  0
 16 17  1  0  0  0
 17 18  1  0  0  0
 10 11  1  0  0  0
 11 12  2  0  0  0
 25 20  1  0  0  0
 12  3  1  0  0  0
 31 26  1  0  0  0
 11  7  1  0  0  0
 18 15  1  0  0  0
 29 32  1  0  0  0
  8 13  1  0  0  0
 17 19  1  0  0  0
M  END
> <minimizedAffinity>
-7.35992

> <minimizedRMSD>
1.25784

$$$$
P2345


 34 38  0  0  0  0  0  0  0  0999 V2000
   -8.3268    6.1542  -12.1924 C   0  0  0  0  0  0  0  0  0  0  0  0
   -8.4497    6.7568  -10.9252 C   0  0  0  0  0  0  0  0  0  0  0  0
   -8.4925    5.9968   -9.7720 C   0  0  0  0  0  0  0  0  0  0  0  0
   -8.4171    4.6102   -9.8325 C   0  0  0  0  0  0  0  0  0  0  0  0
   -8.1909    4.0343  -11.0973 C   0  0  0  0  0  0  0  0  0  0  0  0
   -8.0903    4.7822  -12.3007 C   0  0  0  0  0  0  0  0  0  0  0  0
   -8.6220    3.8769   -8.6705 N   0  0  0  0  0  0  0  0  0  0  0  0
   -8.7411    2.4075   -8.7701 C   0  0  0  0  0  0  0  0  0  0  0  0
   -9.3786    1.8531   -7.4828 C   0  0  0  0  0  0  0  0  0  0  0  0
   -8.6421    2.2302   -6.2651 N   0  0  0  0  0  0  0  0  0  0  0  0
   -8.5414    3.6943   -6.1997 C   0  0  0  0  0  0  0  0  0  0  0  0
   -7.9119    4.3281   -7.4585 C   0  0  0  0  0  0  0  0  0  0  0  0
   -7.7068    1.8242   -6.2919 H   0  0  0  0  0  0  0  0  0  0  0  0
   -8.9602    8.8173  -12.6057 C   0  0  0  0  0  0  0  0  0  0  0  0
   -8.6193    7.2987  -13.4900 S   0  0  0  0  0  0  0  0  0  0  0  0
   -7.3727    7.4801  -14.2085 O   0  0  0  0  0  0  0  0  0  0  0  0
   -9.8240    6.9569  -14.2035 O   0  0  0  0  0  0  0  0  0  0  0  0
   -7.5241    3.9859  -13.4417 C   0  0  0  0  0  0  0  0  0  0  0  0
   -6.8926    2.9628  -13.1476 O   0  0  0  0  0  0  0  0  0  0  0  0
   -7.6160    4.2514  -14.8811 C   0  0  0  0  0  0  0  0  0  0  0  0
   -8.8226    4.1394  -15.5950 C   0  0  0  0  0  0  0  0  0  0  0  0
   -8.8360    4.2517  -16.9862 C   0  0  0  0  0  0  0  0  0  0  0  0
   -9.9931    4.0903  -17.6506 F   0  0  0  0  0  0  0  0  0  0  0  0
   -7.6720    4.4923  -17.7197 C   0  0  0  0  0  0  0  0  0  0  0  0
   -6.4785    4.6014  -16.9929 C   0  0  0  0  0  0  0  0  0  0  0  0
   -6.4264    4.4783  -15.5991 C   0  0  0  0  0  0  0  0  0  0  0  0
   -5.1275    4.6021  -15.1457 N   0  0  0  0  0  0  0  0  0  0  0  0
   -4.3978    4.7487  -16.2230 C   0  0  0  0  0  0  0  0  0  0  0  0
   -5.1668    4.7984  -17.3480 N   0  0  0  0  0  0  0  0  0  0  0  0
   -4.6481    4.8892  -18.7214 C   0  0  0  0  0  0  0  0  0  0  0  0
   -4.2825    6.3217  -19.1644 C   0  0  0  0  0  0  0  0  0  0  0  0
   -3.0762    5.7510  -19.8228 N   0  0  0  0  0  0  0  0  0  0  0  0
   -3.1248    4.6382  -18.8543 C   0  0  0  0  0  0  0  0  0  0  0  0
   -2.2422    6.3342  -19.7543 H   0  0  0  0  0  0  0  0  0  0  0  0
 14 15  1  0  0  0
 15 16  2  0  0  0
 15 17  2  0  0  0
 15  1  1  0  0  0
  1  2  2  0  0  0
  2  3  1  0  0  0
  3  4  2  0  0  0
  4  7  1  0  0  0
  7  8  1  0  0  0
  8  9  1  0  0  0
  9 10  1  0  0  0
 10 11  1  0  0  0
 11 12  1  0  0  0
  4  5  1  0  0  0
  5  6  2  0  0  0
  6 18  1  0  0  0
 18 19  2  0  0  0
 18 20  1  0  0  0
 20 21  2  0  0  0
 21 22  1  0  0  0
 22 23  1  0  0  0
 22 24  2  0  0  0
 24 25  1  0  0  0
 25 26  2  0  0  0
 26 27  1  0  0  0
 27 28  2  0  0  0
 28 29  1  0  0  0
 29 30  1  0  0  0
 30 31  1  0  0  0
 31 32  1  0  0  0
 32 33  1  0  0  0
  6  1  1  0  0  0
 26 20  1  0  0  0
 33 30  1  0  0  0
 12  7  1  0  0  0
 29 25  1  0  0  0
 10 13  1  0  0  0
 32 34  1  0  0  0
M  END
> <minimizedAffinity>
-8.26133

> <minimizedRMSD>
0.73322

$$$$
P2350


 36 40  0  0  0  0  0  0  0  0999 V2000
   -8.2484    4.9985  -13.3496 C   0  0  0  0  0  0  0  0  0  0  0  0
   -9.4003    5.1252  -13.7605 O   0  0  0  0  0  0  0  0  0  0  0  0
   -7.1915    4.6802  -14.3427 C   0  0  0  0  0  0  0  0  0  0  0  0
   -7.5828    4.5552  -15.6852 C   0  0  0  0  0  0  0  0  0  0  0  0
   -6.6471    4.5727  -16.7127 C   0  0  0  0  0  0  0  0  0  0  0  0
   -7.1556    4.4356  -18.3328 Cl  0  0  0  0  0  0  0  0  0  0  0  0
   -5.3138    4.7556  -16.3661 C   0  0  0  0  0  0  0  0  0  0  0  0
   -4.1835    4.8688  -17.1243 N   0  0  0  0  0  0  0  0  0  0  0  0
   -3.0619    5.0780  -16.4081 N   0  0  0  0  0  0  0  0  0  0  0  0
   -3.4830    5.1025  -15.1388 C   0  0  0  0  0  0  0  0  0  0  0  0
   -4.8881    4.8606  -15.0479 C   0  0  0  0  0  0  0  0  0  0  0  0
   -5.8369    4.7577  -14.0067 C   0  0  0  0  0  0  0  0  0  0  0  0
   -4.1880    4.8033  -18.1066 H   0  0  0  0  0  0  0  0  0  0  0  0
   -2.6801    5.3597  -14.0592 N   0  0  0  0  0  0  0  0  0  0  0  0
   -2.2845    6.7828  -13.8880 C   0  0  0  0  0  0  0  0  0  0  0  0
   -1.0232    6.9124  -13.0200 C   0  0  0  0  0  0  0  0  0  0  0  0
    0.1178    6.2265  -13.5603 O   0  0  0  0  0  0  0  0  0  0  0  0
   -0.2369    5.0325  -14.2816 C   0  0  0  0  0  0  0  0  0  0  0  0
   -1.5634    4.4199  -13.8162 C   0  0  0  0  0  0  0  0  0  0  0  0
   -8.0334    6.7958  -11.6387 C   0  0  0  0  0  0  0  0  0  0  0  0
   -7.9798    7.2229  -10.3183 C   0  0  0  0  0  0  0  0  0  0  0  0
   -8.0862    6.2922   -9.2949 C   0  0  0  0  0  0  0  0  0  0  0  0
   -8.2472    4.9173   -9.5380 C   0  0  0  0  0  0  0  0  0  0  0  0
   -8.1612    4.5094  -10.8962 C   0  0  0  0  0  0  0  0  0  0  0  0
   -8.0308    5.4370  -11.9523 C   0  0  0  0  0  0  0  0  0  0  0  0
   -8.6081    4.0622   -8.4897 N   0  0  0  0  0  0  0  0  0  0  0  0
   -8.6928    2.6006   -8.7303 C   0  0  0  0  0  0  0  0  0  0  0  0
   -9.5223    1.9015   -7.6281 C   0  0  0  0  0  0  0  0  0  0  0  0
   -9.0572    2.1689   -6.2660 N   0  0  0  0  0  0  0  0  0  0  0  0
   -9.0317    3.6087   -6.0474 C   0  0  0  0  0  0  0  0  0  0  0  0
   -8.2051    4.3837   -7.0981 C   0  0  0  0  0  0  0  0  0  0  0  0
   -8.1190    1.7879   -6.1440 H   0  0  0  0  0  0  0  0  0  0  0  0
  -10.0325    7.9179  -13.2184 C   0  0  0  0  0  0  0  0  0  0  0  0
   -8.2909    8.0409  -12.8550 S   0  0  0  0  0  0  0  0  0  0  0  0
   -8.0774    9.3272  -12.2161 O   0  0  0  0  0  0  0  0  0  0  0  0
   -7.4932    7.7088  -14.0139 O   0  0  0  0  0  0  0  0  0  0  0  0
 33 34  1  0  0  0
 34 35  2  0  0  0
 34 36  2  0  0  0
 34 20  1  0  0  0
 20 21  2  0  0  0
 21 22  1  0  0  0
 22 23  2  0  0  0
 23 26  1  0  0  0
 26 27  1  0  0  0
 27 28  1  0  0  0
 28 29  1  0  0  0
 29 30  1  0  0  0
 30 31  1  0  0  0
 23 24  1  0  0  0
 24 25  2  0  0  0
 25  1  1  0  0  0
  1  2  2  0  0  0
  1  3  1  0  0  0
  3  4  2  0  0  0
  4  5  1  0  0  0
  5  6  1  0  0  0
  5  7  2  0  0  0
  7  8  1  0  0  0
  8  9  1  0  0  0
  9 10  2  0  0  0
 10 14  1  0  0  0
 14 15  1  0  0  0
 15 16  1  0  0  0
 16 17  1  0  0  0
 17 18  1  0  0  0
 18 19  1  0  0  0
 10 11  1  0  0  0
 11 12  2  0  0  0
 25 20  1  0  0  0
 12  3  1  0  0  0
 31 26  1  0  0  0
 11  7  1  0  0  0
 19 14  1  0  0  0
 29 32  1  0  0  0
  8 13  1  0  0  0
M  END
> <minimizedAffinity>
-7.18631

> <minimizedRMSD>
1.39857

$$$$
P2471


 14 15  0  0  0  0  0  0  0  0999 V2000
   -4.2286    4.9631  -16.5015 C   0  0  0  0  0  0  0  0  0  0  0  0
   -4.2574    5.0129  -17.9034 C   0  0  0  0  0  0  0  0  0  0  0  0
   -5.4590    4.9032  -18.6040 C   0  0  0  0  0  0  0  0  0  0  0  0
   -6.6665    4.7602  -17.9197 C   0  0  0  0  0  0  0  0  0  0  0  0
   -7.8758    4.6340  -18.6159 C   0  0  0  0  0  0  0  0  0  0  0  0
   -9.0735    4.5041  -17.9216 C   0  0  0  0  0  0  0  0  0  0  0  0
   -9.0641    4.4989  -16.5306 C   0  0  0  0  0  0  0  0  0  0  0  0
   -7.8708    4.6048  -15.8227 C   0  0  0  0  0  0  0  0  0  0  0  0
   -6.6607    4.7376  -16.5071 C   0  0  0  0  0  0  0  0  0  0  0  0
   -5.4453    4.8376  -15.8152 C   0  0  0  0  0  0  0  0  0  0  0  0
   -1.8443    5.6722  -16.4154 N   0  0  0  0  0  0  0  0  0  0  0  0
   -2.9582    5.0585  -15.6928 C   0  0  0  0  0  0  0  0  0  0  0  0
   -1.0231    5.7036  -15.8111 H   0  0  0  0  0  0  0  0  0  0  0  0
   -2.0994    6.6202  -16.6918 H   0  0  0  0  0  0  0  0  0  0  0  0
 11 12  1  0  0  0
 12  1  1  0  0  0
  1  2  2  0  0  0
  2  3  1  0  0  0
  3  4  2  0  0  0
  4  5  1  0  0  0
  5  6  2  0  0  0
  6  7  1  0  0  0
  7  8  2  0  0  0
  8  9  1  0  0  0
  9 10  2  0  0  0
 10  1  1  0  0  0
  9  4  1  0  0  0
 11 13  1  0  0  0
 11 14  1  0  0  0
M  END
> <minimizedAffinity>
-5.21155

> <minimizedRMSD>
0.62038

$$$$
P2573


 30 32  0  0  0  0  0  0  0  0999 V2000
   -4.3051    4.8756  -17.5737 C   0  0  0  0  0  0  0  0  0  0  0  0
   -4.1802    5.1147  -16.2240 C   0  0  0  0  0  0  0  0  0  0  0  0
   -5.3372    5.2130  -15.4418 C   0  0  0  0  0  0  0  0  0  0  0  0
   -6.6250    5.0619  -16.0656 C   0  0  0  0  0  0  0  0  0  0  0  0
   -7.9146    5.1186  -15.4614 C   0  0  0  0  0  0  0  0  0  0  0  0
   -9.0857    4.8582  -16.1788 C   0  0  0  0  0  0  0  0  0  0  0  0
   -9.0369    4.6065  -17.5416 C   0  0  0  0  0  0  0  0  0  0  0  0
  -10.2684    4.3324  -18.3457 C   0  0  0  0  0  0  0  0  0  0  0  0
   -7.7915    4.6110  -18.1621 C   0  0  0  0  0  0  0  0  0  0  0  0
   -6.6149    4.8182  -17.4591 C   0  0  0  0  0  0  0  0  0  0  0  0
   -5.5002    4.7543  -18.1853 N   0  0  0  0  0  0  0  0  0  0  0  0
   -5.1021    5.4567  -13.9684 C   0  0  0  0  0  0  0  0  0  0  0  0
   -4.8968    6.8716  -13.6895 N   0  0  0  0  0  0  0  0  0  0  0  0
   -4.0743    7.2017  -14.1944 H   0  0  0  0  0  0  0  0  0  0  0  0
   -4.7567    7.0039  -12.6879 H   0  0  0  0  0  0  0  0  0  0  0  0
   -8.1088    5.6718  -14.1075 C   0  0  0  0  0  0  0  0  0  0  0  0
   -8.0872    6.8353  -13.9977 O   0  0  0  0  0  0  0  0  0  0  0  0
   -8.2106    4.5646  -13.0319 N   0  0  0  0  0  0  0  0  0  0  0  0
   -8.2874    3.6500  -13.3878 H   0  0  0  0  0  0  0  0  0  0  0  0
   -8.2113    4.6516  -11.6380 C   0  0  0  0  0  0  0  0  0  0  0  0
   -7.8887    5.8602  -11.0129 C   0  0  0  0  0  0  0  0  0  0  0  0
   -7.8160    5.9469   -9.6227 C   0  0  0  0  0  0  0  0  0  0  0  0
   -8.0782    4.8252   -8.8461 C   0  0  0  0  0  0  0  0  0  0  0  0
   -8.4257    3.6260   -9.4641 C   0  0  0  0  0  0  0  0  0  0  0  0
   -8.8348    2.1548   -8.3563 Br  0  0  0  0  0  0  0  0  0  0  0  0
   -8.4851    3.5270  -10.8582 C   0  0  0  0  0  0  0  0  0  0  0  0
   -3.0906    4.6628  -18.4430 C   0  0  0  0  0  0  0  0  0  0  0  0
   -2.8832    6.2765  -20.1817 C   0  0  0  0  0  0  0  0  0  0  0  0
   -3.3521    4.9397  -19.8603 N   0  0  0  0  0  0  0  0  0  0  0  0
   -2.8597    4.2578  -20.4373 H   0  0  0  0  0  0  0  0  0  0  0  0
 28 29  1  0  0  0
 29 27  1  0  0  0
 27  1  1  0  0  0
  1  2  2  0  0  0
  2  3  1  0  0  0
  3 12  1  0  0  0
 12 13  1  0  0  0
  3  4  2  0  0  0
  4  5  1  0  0  0
  5 16  1  0  0  0
 16 17  2  0  0  0
 16 18  1  0  0  0
 18 20  1  0  0  0
 20 21  2  0  0  0
 21 22  1  0  0  0
 22 23  2  0  0  0
 23 24  1  0  0  0
 24 25  1  0  0  0
 24 26  2  0  0  0
  5  6  2  0  0  0
  6  7  1  0  0  0
  7  8  1  0  0  0
  7  9  2  0  0  0
  9 10  1  0  0  0
 10 11  2  0  0  0
 11  1  1  0  0  0
 10  4  1  0  0  0
 26 20  1  0  0  0
 29 30  1  0  0  0
 13 14  1  0  0  0
 13 15  1  0  0  0
 18 19  1  0  0  0
M  END
> <minimizedAffinity>
-7.37864

> <minimizedRMSD>
0.61011

$$$$
P2590


 34 37  0  0  0  0  0  0  0  0999 V2000
   -7.0928    5.2292  -16.9443 C   0  0  0  0  0  0  0  0  0  0  0  0
   -5.9912    4.8628  -16.2066 C   0  0  0  0  0  0  0  0  0  0  0  0
   -4.7427    5.4331  -16.5170 C   0  0  0  0  0  0  0  0  0  0  0  0
   -4.6195    6.3268  -17.6434 C   0  0  0  0  0  0  0  0  0  0  0  0
   -3.4873    7.0848  -18.1039 C   0  0  0  0  0  0  0  0  0  0  0  0
   -3.5289    7.9167  -19.2383 C   0  0  0  0  0  0  0  0  0  0  0  0
   -4.7069    8.0499  -19.9499 C   0  0  0  0  0  0  0  0  0  0  0  0
   -4.7831    8.9065  -21.1761 C   0  0  0  0  0  0  0  0  0  0  0  0
   -5.8206    7.3402  -19.5011 C   0  0  0  0  0  0  0  0  0  0  0  0
   -5.8024    6.5131  -18.3870 C   0  0  0  0  0  0  0  0  0  0  0  0
   -6.9826    6.0005  -18.0432 N   0  0  0  0  0  0  0  0  0  0  0  0
   -3.6380    5.1249  -15.5405 C   0  0  0  0  0  0  0  0  0  0  0  0
   -3.6828    3.7627  -15.0508 N   0  0  0  0  0  0  0  0  0  0  0  0
   -4.5592    3.6093  -14.5521 H   0  0  0  0  0  0  0  0  0  0  0  0
   -2.8990    3.6030  -14.4179 H   0  0  0  0  0  0  0  0  0  0  0  0
   -2.1924    7.1438  -17.3917 C   0  0  0  0  0  0  0  0  0  0  0  0
   -2.0299    7.9299  -16.5451 O   0  0  0  0  0  0  0  0  0  0  0  0
   -1.2369    6.0654  -17.9554 N   0  0  0  0  0  0  0  0  0  0  0  0
   -1.6400    5.4672  -18.6254 H   0  0  0  0  0  0  0  0  0  0  0  0
    0.1001    5.8032  -17.6692 C   0  0  0  0  0  0  0  0  0  0  0  0
    0.5604    5.7165  -16.3453 C   0  0  0  0  0  0  0  0  0  0  0  0
    1.9060    5.4480  -16.0765 C   0  0  0  0  0  0  0  0  0  0  0  0
    2.7580    5.2713  -17.1457 C   0  0  0  0  0  0  0  0  0  0  0  0
    2.3169    5.3647  -18.4530 C   0  0  0  0  0  0  0  0  0  0  0  0
    0.9880    5.6348  -18.7379 C   0  0  0  0  0  0  0  0  0  0  0  0
    3.4628    5.1947  -19.3752 C   0  0  0  0  0  0  0  0  0  0  0  0
    4.5429    4.7118  -18.3799 C   0  0  0  0  0  0  0  0  0  0  0  0
    5.8655    5.4473  -18.5998 C   0  0  0  0  0  0  0  0  0  0  0  0
    4.7640    3.1968  -18.4805 C   0  0  0  0  0  0  0  0  0  0  0  0
    4.0948    5.0051  -17.0251 O   0  0  0  0  0  0  0  0  0  0  0  0
   -8.4721    5.1234  -16.3486 C   0  0  0  0  0  0  0  0  0  0  0  0
   -9.8469    4.0085  -17.8818 C   0  0  0  0  0  0  0  0  0  0  0  0
   -9.2630    3.9221  -16.5428 N   0  0  0  0  0  0  0  0  0  0  0  0
   -8.6689    3.0960  -16.4720 H   0  0  0  0  0  0  0  0  0  0  0  0
 32 33  1  0  0  0
 33 31  1  0  0  0
 31  1  1  0  0  0
  1  2  2  0  0  0
  2  3  1  0  0  0
  3 12  1  0  0  0
 12 13  1  0  0  0
  3  4  2  0  0  0
  4  5  1  0  0  0
  5 16  1  0  0  0
 16 17  2  0  0  0
 16 18  1  0  0  0
 18 20  1  0  0  0
 20 21  2  0  0  0
 21 22  1  0  0  0
 22 23  2  0  0  0
 23 24  1  0  0  0
 24 25  2  0  0  0
 24 26  1  0  0  0
 26 27  1  0  0  0
 27 28  1  0  0  0
 27 29  1  0  0  0
 27 30  1  0  0  0
  5  6  2  0  0  0
  6  7  1  0  0  0
  7  8  1  0  0  0
  7  9  2  0  0  0
  9 10  1  0  0  0
 10 11  2  0  0  0
 11  1  1  0  0  0
 10  4  1  0  0  0
 25 20  1  0  0  0
 30 23  1  0  0  0
 33 34  1  0  0  0
 13 14  1  0  0  0
 13 15  1  0  0  0
 18 19  1  0  0  0
M  END
> <minimizedAffinity>
-5.77228

> <minimizedRMSD>
1.22587

$$$$
P2593


 33 37  0  0  0  0  0  0  0  0999 V2000
  -10.0453    4.3965  -18.0188 C   0  0  0  0  0  0  0  0  0  0  0  0
   -8.6345    4.5375  -17.5641 C   0  0  0  0  0  0  0  0  0  0  0  0
   -8.2549    4.6731  -16.2398 C   0  0  0  0  0  0  0  0  0  0  0  0
   -6.8960    4.8702  -15.9363 C   0  0  0  0  0  0  0  0  0  0  0  0
   -5.8600    4.9597  -16.9313 C   0  0  0  0  0  0  0  0  0  0  0  0
   -4.4366    5.1961  -16.7870 C   0  0  0  0  0  0  0  0  0  0  0  0
   -3.6905    5.4171  -17.9462 C   0  0  0  0  0  0  0  0  0  0  0  0
   -4.2867    5.2893  -19.1706 C   0  0  0  0  0  0  0  0  0  0  0  0
   -5.5562    4.9505  -19.3519 N   0  0  0  0  0  0  0  0  0  0  0  0
   -6.3188    4.8207  -18.2653 C   0  0  0  0  0  0  0  0  0  0  0  0
   -7.6469    4.5729  -18.5367 C   0  0  0  0  0  0  0  0  0  0  0  0
   -3.2901    5.5866  -20.2488 C   0  0  0  0  0  0  0  0  0  0  0  0
   -2.1274    6.2127  -19.5579 N   0  0  0  0  0  0  0  0  0  0  0  0
   -2.2524    5.7783  -18.1428 C   0  0  0  0  0  0  0  0  0  0  0  0
   -2.1721    7.2294  -19.6276 H   0  0  0  0  0  0  0  0  0  0  0  0
   -6.5952    5.1086  -14.5179 C   0  0  0  0  0  0  0  0  0  0  0  0
   -6.7514    6.1745  -14.0689 O   0  0  0  0  0  0  0  0  0  0  0  0
   -6.0006    3.8327  -13.8838 N   0  0  0  0  0  0  0  0  0  0  0  0
   -6.0486    3.0296  -14.4513 H   0  0  0  0  0  0  0  0  0  0  0  0
   -5.4075    3.6329  -12.6399 C   0  0  0  0  0  0  0  0  0  0  0  0
   -5.1388    4.7171  -11.7886 C   0  0  0  0  0  0  0  0  0  0  0  0
   -4.4297    4.5330  -10.5999 C   0  0  0  0  0  0  0  0  0  0  0  0
   -4.0012    3.2567  -10.2890 C   0  0  0  0  0  0  0  0  0  0  0  0
   -4.3005    2.1728  -11.1081 C   0  0  0  0  0  0  0  0  0  0  0  0
   -5.0069    2.3396  -12.2876 C   0  0  0  0  0  0  0  0  0  0  0  0
   -3.7720    0.9221  -10.4807 C   0  0  0  0  0  0  0  0  0  0  0  0
   -2.8586    1.3698   -9.3845 N   0  0  0  0  0  0  0  0  0  0  0  0
   -1.4685    1.2839   -9.8327 C   0  0  0  0  0  0  0  0  0  0  0  0
   -3.2279    2.7859   -9.1037 C   0  0  0  0  0  0  0  0  0  0  0  0
   -3.6505    5.1735  -15.5020 C   0  0  0  0  0  0  0  0  0  0  0  0
   -3.2290    3.8145  -15.1785 N   0  0  0  0  0  0  0  0  0  0  0  0
   -4.0511    3.2219  -15.0628 H   0  0  0  0  0  0  0  0  0  0  0  0
   -2.6911    3.8226  -14.3119 H   0  0  0  0  0  0  0  0  0  0  0  0
  1  2  1  0  0  0
  2  3  2  0  0  0
  3  4  1  0  0  0
  4 16  1  0  0  0
 16 17  2  0  0  0
 16 18  1  0  0  0
 18 20  1  0  0  0
 20 21  2  0  0  0
 21 22  1  0  0  0
 22 23  2  0  0  0
 23 24  1  0  0  0
 24 25  2  0  0  0
 24 26  1  0  0  0
 26 27  1  0  0  0
 27 28  1  0  0  0
 27 29  1  0  0  0
  4  5  2  0  0  0
  5  6  1  0  0  0
  6 30  1  0  0  0
 30 31  1  0  0  0
  6  7  2  0  0  0
  7  8  1  0  0  0
  8  9  2  0  0  0
  9 10  1  0  0  0
 10 11  2  0  0  0
  8 12  1  0  0  0
 12 13  1  0  0  0
 13 14  1  0  0  0
 11  2  1  0  0  0
 25 20  1  0  0  0
 10  5  1  0  0  0
 29 23  1  0  0  0
 14  7  1  0  0  0
 18 19  1  0  0  0
 31 32  1  0  0  0
 31 33  1  0  0  0
 13 15  1  0  0  0
M  END
> <minimizedAffinity>
-7.71450

> <minimizedRMSD>
0.59816

$$$$
P2594


 35 38  0  0  0  0  0  0  0  0999 V2000
   -4.2788    5.1459  -18.7715 C   0  0  0  0  0  0  0  0  0  0  0  0
   -3.8328    5.1008  -17.4705 C   0  0  0  0  0  0  0  0  0  0  0  0
   -4.7505    4.8738  -16.4315 C   0  0  0  0  0  0  0  0  0  0  0  0
   -6.1578    4.8226  -16.7398 C   0  0  0  0  0  0  0  0  0  0  0  0
   -7.3082    4.9002  -15.8726 C   0  0  0  0  0  0  0  0  0  0  0  0
   -8.6245    4.7949  -16.3699 C   0  0  0  0  0  0  0  0  0  0  0  0
   -8.8355    4.5941  -17.7233 C   0  0  0  0  0  0  0  0  0  0  0  0
  -10.1798    4.5139  -18.3547 C   0  0  0  0  0  0  0  0  0  0  0  0
   -7.7319    4.5224  -18.5548 C   0  0  0  0  0  0  0  0  0  0  0  0
   -6.4430    4.7041  -18.1117 C   0  0  0  0  0  0  0  0  0  0  0  0
   -5.5452    4.8290  -19.0850 N   0  0  0  0  0  0  0  0  0  0  0  0
   -4.2188    4.7274  -15.0247 C   0  0  0  0  0  0  0  0  0  0  0  0
   -3.6908    3.3823  -14.7341 N   0  0  0  0  0  0  0  0  0  0  0  0
   -4.4407    2.6964  -14.8221 H   0  0  0  0  0  0  0  0  0  0  0  0
   -3.3198    3.3606  -13.7843 H   0  0  0  0  0  0  0  0  0  0  0  0
   -7.1971    5.4213  -14.4797 C   0  0  0  0  0  0  0  0  0  0  0  0
   -7.1398    6.5801  -14.3412 O   0  0  0  0  0  0  0  0  0  0  0  0
   -7.2690    4.2863  -13.4268 N   0  0  0  0  0  0  0  0  0  0  0  0
   -7.2324    3.3757  -13.7992 H   0  0  0  0  0  0  0  0  0  0  0  0
   -7.3776    4.3453  -12.0321 C   0  0  0  0  0  0  0  0  0  0  0  0
   -8.2935    3.4932  -11.4110 C   0  0  0  0  0  0  0  0  0  0  0  0
   -8.4979    3.5366  -10.0218 C   0  0  0  0  0  0  0  0  0  0  0  0
   -7.7870    4.4347   -9.2186 C   0  0  0  0  0  0  0  0  0  0  0  0
   -6.8670    5.2842   -9.8499 C   0  0  0  0  0  0  0  0  0  0  0  0
   -6.6647    5.2363  -11.2299 C   0  0  0  0  0  0  0  0  0  0  0  0
   -5.7823    6.1040  -11.7395 F   0  0  0  0  0  0  0  0  0  0  0  0
   -8.0103    4.5826   -7.7347 C   0  0  0  0  0  0  0  0  0  0  0  0
   -6.7655    4.9567   -6.9455 C   0  0  0  0  0  0  0  0  0  0  0  0
   -7.1798    4.6755   -5.5141 C   0  0  0  0  0  0  0  0  0  0  0  0
   -8.2887    3.7710   -5.5514 O   0  0  0  0  0  0  0  0  0  0  0  0
   -8.4956    3.3885   -6.9230 C   0  0  0  0  0  0  0  0  0  0  0  0
   -3.3638    5.5826  -19.8973 C   0  0  0  0  0  0  0  0  0  0  0  0
   -3.0802    7.2284  -21.6437 C   0  0  0  0  0  0  0  0  0  0  0  0
   -4.0332    6.5572  -20.7774 N   0  0  0  0  0  0  0  0  0  0  0  0
   -4.7188    6.0687  -21.3532 H   0  0  0  0  0  0  0  0  0  0  0  0
 33 34  1  0  0  0
 34 32  1  0  0  0
 32  1  1  0  0  0
  1  2  2  0  0  0
  2  3  1  0  0  0
  3 12  1  0  0  0
 12 13  1  0  0  0
  3  4  2  0  0  0
  4  5  1  0  0  0
  5 16  1  0  0  0
 16 17  2  0  0  0
 16 18  1  0  0  0
 18 20  1  0  0  0
 20 21  2  0  0  0
 21 22  1  0  0  0
 22 23  2  0  0  0
 27 23  1  0  0  0
 27 28  1  0  0  0
 28 29  1  0  0  0
 29 30  1  0  0  0
 30 31  1  0  0  0
 23 24  1  0  0  0
 24 25  2  0  0  0
 25 26  1  0  0  0
  5  6  2  0  0  0
  6  7  1  0  0  0
  7  8  1  0  0  0
  7  9  2  0  0  0
  9 10  1  0  0  0
 10 11  2  0  0  0
 11  1  1  0  0  0
 10  4  1  0  0  0
 25 20  1  0  0  0
 31 27  1  0  0  0
 34 35  1  0  0  0
 13 14  1  0  0  0
 13 15  1  0  0  0
 18 19  1  0  0  0
M  END
> <minimizedAffinity>
-7.78499

> <minimizedRMSD>
0.88600

$$$$
P2596


 31 33  0  0  0  0  0  0  0  0999 V2000
   -7.5977    4.4875  -17.0012 C   0  0  0  0  0  0  0  0  0  0  0  0
   -7.0773    4.5458  -15.7258 C   0  0  0  0  0  0  0  0  0  0  0  0
   -5.7172    4.8460  -15.5503 C   0  0  0  0  0  0  0  0  0  0  0  0
   -4.8870    5.1213  -16.6926 C   0  0  0  0  0  0  0  0  0  0  0  0
   -3.5171    5.5606  -16.7291 C   0  0  0  0  0  0  0  0  0  0  0  0
   -2.7828    5.6391  -17.9232 C   0  0  0  0  0  0  0  0  0  0  0  0
   -3.4010    5.3592  -19.1291 C   0  0  0  0  0  0  0  0  0  0  0  0
   -2.6371    5.3812  -20.4173 C   0  0  0  0  0  0  0  0  0  0  0  0
   -4.7572    5.0257  -19.1077 C   0  0  0  0  0  0  0  0  0  0  0  0
   -5.5068    4.9272  -17.9415 C   0  0  0  0  0  0  0  0  0  0  0  0
   -6.8166    4.6818  -18.0851 N   0  0  0  0  0  0  0  0  0  0  0  0
   -5.1986    4.7711  -14.1369 C   0  0  0  0  0  0  0  0  0  0  0  0
   -4.5021    3.5246  -13.9210 N   0  0  0  0  0  0  0  0  0  0  0  0
   -5.1429    2.7460  -14.0746 H   0  0  0  0  0  0  0  0  0  0  0  0
   -4.1514    3.4924  -12.9637 H   0  0  0  0  0  0  0  0  0  0  0  0
   -2.7994    6.1618  -15.5678 C   0  0  0  0  0  0  0  0  0  0  0  0
   -2.0605    5.5169  -14.9337 O   0  0  0  0  0  0  0  0  0  0  0  0
   -3.1449    7.6705  -15.4808 N   0  0  0  0  0  0  0  0  0  0  0  0
   -3.8651    7.9640  -16.0845 H   0  0  0  0  0  0  0  0  0  0  0  0
   -2.6026    8.6773  -14.6881 C   0  0  0  0  0  0  0  0  0  0  0  0
   -1.4863    9.4072  -15.0948 C   0  0  0  0  0  0  0  0  0  0  0  0
   -0.9667   10.4124  -14.2760 C   0  0  0  0  0  0  0  0  0  0  0  0
   -1.5634   10.6911  -13.0464 C   0  0  0  0  0  0  0  0  0  0  0  0
   -2.6824    9.9612  -12.6346 C   0  0  0  0  0  0  0  0  0  0  0  0
   -3.2007    8.9529  -13.4565 C   0  0  0  0  0  0  0  0  0  0  0  0
   -3.3039   10.2428  -11.3744 C   0  0  0  0  0  0  0  0  0  0  0  0
   -3.8208   10.4597  -10.3583 N   0  0  0  0  0  0  0  0  0  0  0  0
   -9.0956    4.3133  -17.1982 C   0  0  0  0  0  0  0  0  0  0  0  0
  -10.6809    4.6950  -18.9736 C   0  0  0  0  0  0  0  0  0  0  0  0
   -9.4666    4.0114  -18.5813 N   0  0  0  0  0  0  0  0  0  0  0  0
   -8.7088    4.3045  -19.1978 H   0  0  0  0  0  0  0  0  0  0  0  0
 29 30  1  0  0  0
 30 28  1  0  0  0
 28  1  1  0  0  0
  1  2  2  0  0  0
  2  3  1  0  0  0
  3 12  1  0  0  0
 12 13  1  0  0  0
  3  4  2  0  0  0
  4  5  1  0  0  0
  5 16  1  0  0  0
 16 17  2  0  0  0
 16 18  1  0  0  0
 18 20  1  0  0  0
 20 21  2  0  0  0
 21 22  1  0  0  0
 22 23  2  0  0  0
 23 24  1  0  0  0
 24 26  1  0  0  0
 26 27  3  0  0  0
 24 25  2  0  0  0
  5  6  2  0  0  0
  6  7  1  0  0  0
  7  8  1  0  0  0
  7  9  2  0  0  0
  9 10  1  0  0  0
 10 11  2  0  0  0
 11  1  1  0  0  0
 10  4  1  0  0  0
 25 20  1  0  0  0
 30 31  1  0  0  0
 13 14  1  0  0  0
 13 15  1  0  0  0
 18 19  1  0  0  0
M  END
> <minimizedAffinity>
-4.17302

> <minimizedRMSD>
2.05465

$$$$
P2620


 18 20  0  0  0  0  0  0  0  0999 V2000
   -9.2145    4.1472  -18.5955 C   0  0  0  0  0  0  0  0  0  0  0  0
   -8.3186    4.5412  -17.4624 C   0  0  0  0  0  0  0  0  0  0  0  0
   -8.8532    4.6163  -16.1664 C   0  0  0  0  0  0  0  0  0  0  0  0
   -8.0441    4.9339  -15.0910 C   0  0  0  0  0  0  0  0  0  0  0  0
   -6.7005    5.1966  -15.3205 C   0  0  0  0  0  0  0  0  0  0  0  0
   -6.1401    5.1543  -16.6197 C   0  0  0  0  0  0  0  0  0  0  0  0
   -4.7711    5.4372  -16.8817 C   0  0  0  0  0  0  0  0  0  0  0  0
   -4.3038    5.3143  -18.1935 C   0  0  0  0  0  0  0  0  0  0  0  0
   -5.1913    4.9504  -19.1829 C   0  0  0  0  0  0  0  0  0  0  0  0
   -6.4936    4.7147  -18.9580 N   0  0  0  0  0  0  0  0  0  0  0  0
   -6.9672    4.8015  -17.7052 C   0  0  0  0  0  0  0  0  0  0  0  0
   -3.9306    5.8944  -15.8380 N   0  0  0  0  0  0  0  0  0  0  0  0
   -2.6853    5.1455  -15.5899 C   0  0  0  0  0  0  0  0  0  0  0  0
   -1.4302    5.9440  -16.0049 C   0  0  0  0  0  0  0  0  0  0  0  0
   -1.2835    7.2551  -15.3419 N   0  0  0  0  0  0  0  0  0  0  0  0
   -2.5993    7.8190  -14.9770 C   0  0  0  0  0  0  0  0  0  0  0  0
   -3.7704    7.3683  -15.8787 C   0  0  0  0  0  0  0  0  0  0  0  0
   -0.8104    7.8980  -15.9768 H   0  0  0  0  0  0  0  0  0  0  0  0
  1  2  1  0  0  0
  2  3  2  0  0  0
  3  4  1  0  0  0
  4  5  2  0  0  0
  5  6  1  0  0  0
  6  7  2  0  0  0
  7 12  1  0  0  0
 12 13  1  0  0  0
 13 14  1  0  0  0
 14 15  1  0  0  0
 15 16  1  0  0  0
 16 17  1  0  0  0
  7  8  1  0  0  0
  8  9  2  0  0  0
  9 10  1  0  0  0
 10 11  2  0  0  0
 11  2  1  0  0  0
 11  6  1  0  0  0
 17 12  1  0  0  0
 15 18  1  0  0  0
M  END
> <minimizedAffinity>
-5.19100

> <minimizedRMSD>
0.99993

$$$$
P2660


 36 40  0  0  0  0  0  0  0  0999 V2000
   -6.8839    5.3022  -14.3591 C   0  0  0  0  0  0  0  0  0  0  0  0
   -7.1448    5.0236  -15.8744 C   0  0  0  0  0  0  0  0  0  0  0  0
   -8.4985    4.8005  -16.2503 C   0  0  0  0  0  0  0  0  0  0  0  0
   -8.8696    4.5824  -17.5717 C   0  0  0  0  0  0  0  0  0  0  0  0
  -10.4997    4.3578  -18.0405 Cl  0  0  0  0  0  0  0  0  0  0  0  0
   -7.9186    4.5627  -18.5598 C   0  0  0  0  0  0  0  0  0  0  0  0
   -6.6004    4.7869  -18.2743 C   0  0  0  0  0  0  0  0  0  0  0  0
   -5.8425    4.7142  -19.3677 N   0  0  0  0  0  0  0  0  0  0  0  0
   -4.5375    4.9195  -19.2688 C   0  0  0  0  0  0  0  0  0  0  0  0
   -3.9515    5.2673  -18.0866 C   0  0  0  0  0  0  0  0  0  0  0  0
   -4.7346    5.4071  -16.9247 C   0  0  0  0  0  0  0  0  0  0  0  0
   -6.1463    5.0822  -16.9514 C   0  0  0  0  0  0  0  0  0  0  0  0
   -4.1245    5.9577  -15.7902 N   0  0  0  0  0  0  0  0  0  0  0  0
   -4.2642    7.4300  -15.6883 C   0  0  0  0  0  0  0  0  0  0  0  0
   -3.0278    8.1731  -16.2340 C   0  0  0  0  0  0  0  0  0  0  0  0
   -1.7727    7.7539  -15.5784 N   0  0  0  0  0  0  0  0  0  0  0  0
   -1.5981    6.3052  -15.7970 C   0  0  0  0  0  0  0  0  0  0  0  0
   -2.8022    5.4352  -15.3604 C   0  0  0  0  0  0  0  0  0  0  0  0
   -1.8242    7.9482  -14.5784 H   0  0  0  0  0  0  0  0  0  0  0  0
   -6.0950    1.6735  -13.0958 C   0  0  0  0  0  0  0  0  0  0  0  0
   -6.4690    2.8894  -13.7455 N   0  0  0  0  0  0  0  0  0  0  0  0
   -5.9419    4.3366  -13.5557 C   0  0  0  0  0  0  0  0  0  0  0  0
   -5.0667    4.7444  -12.8935 O   0  0  0  0  0  0  0  0  0  0  0  0
   -7.1760    2.7937  -14.4239 H   0  0  0  0  0  0  0  0  0  0  0  0
   -8.1857    5.3864  -13.5770 N   0  0  0  0  0  0  0  0  0  0  0  0
   -9.0580    5.3337  -14.0303 H   0  0  0  0  0  0  0  0  0  0  0  0
   -8.0957    5.5436  -12.1696 C   0  0  0  0  0  0  0  0  0  0  0  0
   -7.8846    6.8071  -11.5807 C   0  0  0  0  0  0  0  0  0  0  0  0
   -7.7865    6.9696  -10.1926 C   0  0  0  0  0  0  0  0  0  0  0  0
   -7.9425    5.8594   -9.3861 C   0  0  0  0  0  0  0  0  0  0  0  0
   -8.2138    4.6264   -9.9360 C   0  0  0  0  0  0  0  0  0  0  0  0
   -8.2989    4.4419  -11.3141 C   0  0  0  0  0  0  0  0  0  0  0  0
   -8.4486    3.6886   -8.8310 C   0  0  0  0  0  0  0  0  0  0  0  0
   -8.8201    2.5366   -8.8768 O   0  0  0  0  0  0  0  0  0  0  0  0
   -8.2653    4.3884   -7.6681 O   0  0  0  0  0  0  0  0  0  0  0  0
   -7.8886    5.7486   -7.9176 C   0  0  0  0  0  0  0  0  0  0  0  0
 20 21  1  0  0  0
 21 22  1  0  0  0
 22 23  2  0  0  0
 22  1  1  0  0  0
  1 25  1  0  0  0
 25 27  1  0  0  0
 27 28  2  0  0  0
 28 29  1  0  0  0
 29 30  2  0  0  0
 30 31  1  0  0  0
 31 32  2  0  0  0
 31 33  1  0  0  0
 33 34  2  0  0  0
 33 35  1  0  0  0
 35 36  1  0  0  0
  1  2  1  0  0  0
  2  3  2  0  0  0
  3  4  1  0  0  0
  4  5  1  0  0  0
  4  6  2  0  0  0
  6  7  1  0  0  0
  7  8  2  0  0  0
  8  9  1  0  0  0
  9 10  2  0  0  0
 10 11  1  0  0  0
 11 13  1  0  0  0
 13 14  1  0  0  0
 14 15  1  0  0  0
 15 16  1  0  0  0
 16 17  1  0  0  0
 17 18  1  0  0  0
 11 12  2  0  0  0
 32 27  1  0  0  0
 12  2  1  0  0  0
 36 30  1  0  0  0
 12  7  1  0  0  0
 18 13  1  0  0  0
 21 24  1  0  0  0
 25 26  1  0  0  0
 16 19  1  0  0  0
M  END
> <minimizedAffinity>
-7.64089

> <minimizedRMSD>
1.04212

$$$$
P2694


 39 43  0  0  0  0  0  0  0  0999 V2000
   -6.7741    4.3995  -13.8038 C   0  0  0  0  0  0  0  0  0  0  0  0
   -6.9415    4.6220  -15.3357 C   0  0  0  0  0  0  0  0  0  0  0  0
   -8.2559    4.4529  -15.8305 C   0  0  0  0  0  0  0  0  0  0  0  0
   -8.5206    4.5126  -17.1844 C   0  0  0  0  0  0  0  0  0  0  0  0
  -10.2554    4.4577  -17.8635 Br  0  0  0  0  0  0  0  0  0  0  0  0
   -7.5018    4.6643  -18.0893 C   0  0  0  0  0  0  0  0  0  0  0  0
   -6.2121    4.8324  -17.6792 C   0  0  0  0  0  0  0  0  0  0  0  0
   -5.3907    4.9737  -18.7175 N   0  0  0  0  0  0  0  0  0  0  0  0
   -4.0996    5.1589  -18.4942 C   0  0  0  0  0  0  0  0  0  0  0  0
   -3.5843    5.2559  -17.2288 C   0  0  0  0  0  0  0  0  0  0  0  0
   -4.4352    5.1441  -16.1063 C   0  0  0  0  0  0  0  0  0  0  0  0
   -5.8520    4.8678  -16.2976 C   0  0  0  0  0  0  0  0  0  0  0  0
   -3.9073    5.4166  -14.8112 N   0  0  0  0  0  0  0  0  0  0  0  0
   -2.4934    5.0093  -14.5453 C   0  0  0  0  0  0  0  0  0  0  0  0
   -2.0350    5.5842  -13.1839 C   0  0  0  0  0  0  0  0  0  0  0  0
   -1.9969    7.0612  -13.1484 N   0  0  0  0  0  0  0  0  0  0  0  0
   -2.8773    7.6481  -14.1745 C   0  0  0  0  0  0  0  0  0  0  0  0
   -4.1753    6.8455  -14.4241 C   0  0  0  0  0  0  0  0  0  0  0  0
   -1.0399    7.3724  -13.3153 H   0  0  0  0  0  0  0  0  0  0  0  0
   -6.9456    1.9652  -13.7760 O   0  0  0  0  0  0  0  0  0  0  0  0
   -6.3082    2.9150  -13.5418 C   0  0  0  0  0  0  0  0  0  0  0  0
   -4.8471    3.0449  -13.0309 N   0  0  0  0  0  0  0  0  0  0  0  0
   -4.5588    3.9658  -12.8357 H   0  0  0  0  0  0  0  0  0  0  0  0
   -3.8538    2.0450  -12.7983 C   0  0  0  0  0  0  0  0  0  0  0  0
   -3.3463    1.9103  -11.3962 C   0  0  0  0  0  0  0  0  0  0  0  0
   -2.3959    2.8553  -11.1681 F   0  0  0  0  0  0  0  0  0  0  0  0
   -2.6923    0.7190  -11.3501 F   0  0  0  0  0  0  0  0  0  0  0  0
   -8.0406    4.7711  -13.0800 N   0  0  0  0  0  0  0  0  0  0  0  0
   -8.8474    5.0422  -13.5748 H   0  0  0  0  0  0  0  0  0  0  0  0
   -8.0349    4.7185  -11.6697 C   0  0  0  0  0  0  0  0  0  0  0  0
   -7.6672    5.8538  -10.9197 C   0  0  0  0  0  0  0  0  0  0  0  0
   -7.7124    5.8535   -9.5176 C   0  0  0  0  0  0  0  0  0  0  0  0
   -8.1223    4.7025   -8.8719 C   0  0  0  0  0  0  0  0  0  0  0  0
   -8.4515    3.5622   -9.5931 C   0  0  0  0  0  0  0  0  0  0  0  0
   -8.4048    3.5526  -10.9825 C   0  0  0  0  0  0  0  0  0  0  0  0
   -8.8163    2.4724   -8.6359 C   0  0  0  0  0  0  0  0  0  0  0  0
   -9.0467    3.1601   -7.3335 N   0  0  0  0  0  0  0  0  0  0  0  0
   -8.2782    4.4204   -7.4145 C   0  0  0  0  0  0  0  0  0  0  0  0
   -8.7092    2.5852   -6.5615 H   0  0  0  0  0  0  0  0  0  0  0  0
 20 21  2  0  0  0
 21 22  1  0  0  0
 22 24  1  0  0  0
 24 25  1  0  0  0
 25 26  1  0  0  0
 25 27  1  0  0  0
 21  1  1  0  0  0
  1 28  1  0  0  0
 28 30  1  0  0  0
 30 31  2  0  0  0
 31 32  1  0  0  0
 32 33  2  0  0  0
 33 34  1  0  0  0
 34 35  2  0  0  0
 34 36  1  0  0  0
 36 37  1  0  0  0
 37 38  1  0  0  0
  1  2  1  0  0  0
  2  3  2  0  0  0
  3  4  1  0  0  0
  4  5  1  0  0  0
  4  6  2  0  0  0
  6  7  1  0  0  0
  7  8  2  0  0  0
  8  9  1  0  0  0
  9 10  2  0  0  0
 10 11  1  0  0  0
 11 13  1  0  0  0
 13 14  1  0  0  0
 14 15  1  0  0  0
 15 16  1  0  0  0
 16 17  1  0  0  0
 17 18  1  0  0  0
 11 12  2  0  0  0
 35 30  1  0  0  0
 12  2  1  0  0  0
 38 33  1  0  0  0
 12  7  1  0  0  0
 18 13  1  0  0  0
 22 23  1  0  0  0
 28 29  1  0  0  0
 37 39  1  0  0  0
 16 19  1  0  0  0
M  END
> <minimizedAffinity>
-7.98112

> <minimizedRMSD>
0.78000

$$$$
P2729


 37 42  0  0  0  0  0  0  0  0999 V2000
   -0.5032    5.4571  -19.6941 C   0  0  0  0  0  0  0  0  0  0  0  0
   -1.6445    6.1238  -19.0543 N   0  0  0  0  0  0  0  0  0  0  0  0
   -2.8083    6.1129  -19.9596 C   0  0  0  0  0  0  0  0  0  0  0  0
   -4.0201    6.9234  -19.5063 C   0  0  0  0  0  0  0  0  0  0  0  0
   -4.8501    6.1772  -18.4992 C   0  0  0  0  0  0  0  0  0  0  0  0
   -6.0770    5.8045  -18.9036 N   0  0  0  0  0  0  0  0  0  0  0  0
   -6.9160    5.2142  -18.0502 C   0  0  0  0  0  0  0  0  0  0  0  0
   -8.1798    4.8947  -18.5338 C   0  0  0  0  0  0  0  0  0  0  0  0
   -9.1823    4.3887  -17.7184 C   0  0  0  0  0  0  0  0  0  0  0  0
   -8.8993    4.1591  -16.3871 C   0  0  0  0  0  0  0  0  0  0  0  0
   -7.6183    4.4213  -15.8886 C   0  0  0  0  0  0  0  0  0  0  0  0
   -6.5858    4.9690  -16.7050 C   0  0  0  0  0  0  0  0  0  0  0  0
   -5.2537    5.3191  -16.3015 C   0  0  0  0  0  0  0  0  0  0  0  0
   -4.3674    5.9094  -17.2265 C   0  0  0  0  0  0  0  0  0  0  0  0
   -2.9293    6.2376  -16.9113 C   0  0  0  0  0  0  0  0  0  0  0  0
   -1.9402    5.4531  -17.7754 C   0  0  0  0  0  0  0  0  0  0  0  0
   -4.8488    5.0493  -14.9861 N   0  0  0  0  0  0  0  0  0  0  0  0
   -4.7044    6.1990  -14.0798 C   0  0  0  0  0  0  0  0  0  0  0  0
   -4.3448    5.7876  -12.6315 C   0  0  0  0  0  0  0  0  0  0  0  0
   -3.8862    4.4033  -12.4182 N   0  0  0  0  0  0  0  0  0  0  0  0
   -3.0810    3.9811  -13.5736 C   0  0  0  0  0  0  0  0  0  0  0  0
   -3.9160    3.9111  -14.8632 C   0  0  0  0  0  0  0  0  0  0  0  0
   -4.6931    3.7871  -12.3206 H   0  0  0  0  0  0  0  0  0  0  0  0
   -7.4770    4.1882  -14.4285 C   0  0  0  0  0  0  0  0  0  0  0  0
   -7.0759    3.1724  -14.0167 O   0  0  0  0  0  0  0  0  0  0  0  0
   -8.0255    5.4285  -13.6799 N   0  0  0  0  0  0  0  0  0  0  0  0
   -8.3770    6.1398  -14.2628 H   0  0  0  0  0  0  0  0  0  0  0  0
   -8.1021    5.7009  -12.3171 C   0  0  0  0  0  0  0  0  0  0  0  0
   -8.0213    4.6712  -11.3663 C   0  0  0  0  0  0  0  0  0  0  0  0
   -8.0561    4.9568   -9.9981 C   0  0  0  0  0  0  0  0  0  0  0  0
   -8.1589    6.2793   -9.6103 C   0  0  0  0  0  0  0  0  0  0  0  0
   -8.2564    7.3010  -10.5514 C   0  0  0  0  0  0  0  0  0  0  0  0
   -8.2441    7.0312  -11.9092 C   0  0  0  0  0  0  0  0  0  0  0  0
   -8.3836    8.6048   -9.8379 C   0  0  0  0  0  0  0  0  0  0  0  0
   -7.9710    8.3244   -8.4395 N   0  0  0  0  0  0  0  0  0  0  0  0
   -8.2120    6.8702   -8.2416 C   0  0  0  0  0  0  0  0  0  0  0  0
   -8.5311    8.8712   -7.7855 H   0  0  0  0  0  0  0  0  0  0  0  0
  1  2  1  0  0  0
  2  3  1  0  0  0
  3  4  1  0  0  0
  4  5  1  0  0  0
  5  6  2  0  0  0
  6  7  1  0  0  0
  7  8  2  0  0  0
  8  9  1  0  0  0
  9 10  2  0  0  0
 10 11  1  0  0  0
 11 24  1  0  0  0
 24 25  2  0  0  0
 24 26  1  0  0  0
 26 28  1  0  0  0
 28 29  2  0  0  0
 29 30  1  0  0  0
 30 31  2  0  0  0
 31 32  1  0  0  0
 32 33  2  0  0  0
 32 34  1  0  0  0
 34 35  1  0  0  0
 35 36  1  0  0  0
 11 12  2  0  0  0
 12 13  1  0  0  0
 13 17  1  0  0  0
 17 18  1  0  0  0
 18 19  1  0  0  0
 19 20  1  0  0  0
 20 21  1  0  0  0
 21 22  1  0  0  0
 13 14  2  0  0  0
 14 15  1  0  0  0
 15 16  1  0  0  0
 16  2  1  0  0  0
 14  5  1  0  0  0
 12  7  1  0  0  0
 22 17  1  0  0  0
 33 28  1  0  0  0
 36 31  1  0  0  0
 26 27  1  0  0  0
 35 37  1  0  0  0
 20 23  1  0  0  0
M  END
> <minimizedAffinity>
-7.74014

> <minimizedRMSD>
1.00448

$$$$
P2730


 32 36  0  0  0  0  0  0  0  0999 V2000
   -7.2524    4.2849  -15.1967 C   0  0  0  0  0  0  0  0  0  0  0  0
   -8.5447    4.4081  -15.7325 C   0  0  0  0  0  0  0  0  0  0  0  0
   -8.7337    4.8537  -17.0301 C   0  0  0  0  0  0  0  0  0  0  0  0
   -7.6243    5.0832  -17.8236 C   0  0  0  0  0  0  0  0  0  0  0  0
   -6.3159    4.9402  -17.3150 C   0  0  0  0  0  0  0  0  0  0  0  0
   -6.0913    4.6167  -15.9457 C   0  0  0  0  0  0  0  0  0  0  0  0
   -4.7468    4.6225  -15.4584 C   0  0  0  0  0  0  0  0  0  0  0  0
   -3.7021    4.9450  -16.3243 C   0  0  0  0  0  0  0  0  0  0  0  0
   -3.9568    5.1420  -17.6694 C   0  0  0  0  0  0  0  0  0  0  0  0
   -5.2317    5.0768  -18.1939 N   0  0  0  0  0  0  0  0  0  0  0  0
   -5.3879    5.0571  -19.4665 O   0  0  0  0  0  0  0  0  0  0  0  0
   -4.4600    4.2757  -14.1335 N   0  0  0  0  0  0  0  0  0  0  0  0
   -4.0922    5.3748  -13.2271 C   0  0  0  0  0  0  0  0  0  0  0  0
   -3.5135    4.8356  -11.8925 C   0  0  0  0  0  0  0  0  0  0  0  0
   -4.0362    3.5180  -11.4968 N   0  0  0  0  0  0  0  0  0  0  0  0
   -3.7056    2.5187  -12.5393 C   0  0  0  0  0  0  0  0  0  0  0  0
   -3.6353    3.0579  -13.9882 C   0  0  0  0  0  0  0  0  0  0  0  0
   -5.0489    3.5732  -11.3885 H   0  0  0  0  0  0  0  0  0  0  0  0
   -7.0429    2.5723  -13.6589 O   0  0  0  0  0  0  0  0  0  0  0  0
   -7.2122    3.7156  -13.8219 C   0  0  0  0  0  0  0  0  0  0  0  0
   -7.5057    4.8426  -12.8007 N   0  0  0  0  0  0  0  0  0  0  0  0
   -7.5332    5.7491  -13.1838 H   0  0  0  0  0  0  0  0  0  0  0  0
   -7.7368    4.7820  -11.4302 C   0  0  0  0  0  0  0  0  0  0  0  0
   -8.0449    3.5664  -10.7996 C   0  0  0  0  0  0  0  0  0  0  0  0
   -8.3144    3.5199   -9.4286 C   0  0  0  0  0  0  0  0  0  0  0  0
   -8.2796    4.7035   -8.7158 C   0  0  0  0  0  0  0  0  0  0  0  0
   -7.9720    5.9101   -9.3372 C   0  0  0  0  0  0  0  0  0  0  0  0
   -7.6918    5.9698  -10.6925 C   0  0  0  0  0  0  0  0  0  0  0  0
   -7.9920    6.9998   -8.3205 C   0  0  0  0  0  0  0  0  0  0  0  0
   -8.6594    6.4185   -7.1278 N   0  0  0  0  0  0  0  0  0  0  0  0
   -8.5173    4.9428   -7.2641 C   0  0  0  0  0  0  0  0  0  0  0  0
   -9.6450    6.6805   -7.1091 H   0  0  0  0  0  0  0  0  0  0  0  0
 19 20  2  0  0  0
 20 21  1  0  0  0
 21 23  1  0  0  0
 23 24  2  0  0  0
 24 25  1  0  0  0
 25 26  2  0  0  0
 26 27  1  0  0  0
 27 28  2  0  0  0
 27 29  1  0  0  0
 29 30  1  0  0  0
 30 31  1  0  0  0
 20  1  1  0  0  0
  1  2  2  0  0  0
  2  3  1  0  0  0
  3  4  2  0  0  0
  4  5  1  0  0  0
  5  6  2  0  0  0
  6  7  1  0  0  0
  7 12  1  0  0  0
 12 13  1  0  0  0
 13 14  1  0  0  0
 14 15  1  0  0  0
 15 16  1  0  0  0
 16 17  1  0  0  0
  7  8  2  0  0  0
  8  9  1  0  0  0
  9 10  2  0  0  0
 10 11  1  0  0  0
 28 23  1  0  0  0
  6  1  1  0  0  0
 17 12  1  0  0  0
 31 26  1  0  0  0
 10  5  1  0  0  0
 21 22  1  0  0  0
 30 32  1  0  0  0
 15 18  1  0  0  0
M  CHG 1  10   1
M  CHG 1  11  -1
M  END
> <minimizedAffinity>
-7.73139

> <minimizedRMSD>
2.35729

$$$$
P2733


 37 42  0  0  0  0  0  0  0  0999 V2000
   -7.4823    4.4232  -15.8401 C   0  0  0  0  0  0  0  0  0  0  0  0
   -8.8179    4.2930  -16.2540 C   0  0  0  0  0  0  0  0  0  0  0  0
   -9.1582    4.5164  -17.5735 C   0  0  0  0  0  0  0  0  0  0  0  0
   -8.1526    4.8372  -18.4732 C   0  0  0  0  0  0  0  0  0  0  0  0
   -6.8211    4.9360  -18.0923 C   0  0  0  0  0  0  0  0  0  0  0  0
   -5.9692    5.2188  -19.0725 N   0  0  0  0  0  0  0  0  0  0  0  0
   -4.6671    5.3175  -18.7817 C   0  0  0  0  0  0  0  0  0  0  0  0
   -4.1223    5.1650  -17.5160 C   0  0  0  0  0  0  0  0  0  0  0  0
   -5.0177    4.8985  -16.4570 C   0  0  0  0  0  0  0  0  0  0  0  0
   -6.4274    4.7484  -16.7468 C   0  0  0  0  0  0  0  0  0  0  0  0
   -4.5720    4.7315  -15.1468 N   0  0  0  0  0  0  0  0  0  0  0  0
   -4.2913    5.8899  -14.2885 C   0  0  0  0  0  0  0  0  0  0  0  0
   -2.9506    5.7451  -13.5329 C   0  0  0  0  0  0  0  0  0  0  0  0
   -2.7695    4.4986  -12.7679 N   0  0  0  0  0  0  0  0  0  0  0  0
   -3.5749    3.3898  -13.3231 C   0  0  0  0  0  0  0  0  0  0  0  0
   -3.8557    3.4820  -14.8385 C   0  0  0  0  0  0  0  0  0  0  0  0
   -3.0529    4.6605  -11.8016 H   0  0  0  0  0  0  0  0  0  0  0  0
   -7.0278    3.1567  -13.9692 O   0  0  0  0  0  0  0  0  0  0  0  0
   -7.3123    4.2454  -14.3770 C   0  0  0  0  0  0  0  0  0  0  0  0
   -7.6254    5.4592  -13.6754 N   0  0  0  0  0  0  0  0  0  0  0  0
   -7.7507    6.2451  -14.2550 H   0  0  0  0  0  0  0  0  0  0  0  0
   -7.7820    5.7142  -12.3138 C   0  0  0  0  0  0  0  0  0  0  0  0
   -7.8291    4.6768  -11.3683 C   0  0  0  0  0  0  0  0  0  0  0  0
   -8.0351    4.9517  -10.0119 C   0  0  0  0  0  0  0  0  0  0  0  0
   -8.1728    6.2717   -9.6252 C   0  0  0  0  0  0  0  0  0  0  0  0
   -8.1145    7.3032  -10.5571 C   0  0  0  0  0  0  0  0  0  0  0  0
   -7.9287    7.0445  -11.9049 C   0  0  0  0  0  0  0  0  0  0  0  0
   -8.3153    8.6045   -9.8572 C   0  0  0  0  0  0  0  0  0  0  0  0
   -8.1566    8.3037   -8.4124 N   0  0  0  0  0  0  0  0  0  0  0  0
   -8.4280    6.8474   -8.2726 C   0  0  0  0  0  0  0  0  0  0  0  0
   -8.8232    8.8443   -7.8611 H   0  0  0  0  0  0  0  0  0  0  0  0
   -2.6195    5.2329  -17.4001 C   0  0  0  0  0  0  0  0  0  0  0  0
   -2.1392    6.6688  -17.2549 C   0  0  0  0  0  0  0  0  0  0  0  0
   -0.7969    6.8292  -16.5060 C   0  0  0  0  0  0  0  0  0  0  0  0
   -0.4492    7.9226  -17.4425 N   0  0  0  0  0  0  0  0  0  0  0  0
   -1.3783    7.3272  -18.4301 C   0  0  0  0  0  0  0  0  0  0  0  0
    0.5278    7.9313  -17.7355 H   0  0  0  0  0  0  0  0  0  0  0  0
 18 19  2  0  0  0
 19 20  1  0  0  0
 20 22  1  0  0  0
 22 23  2  0  0  0
 23 24  1  0  0  0
 24 25  2  0  0  0
 25 26  1  0  0  0
 26 27  2  0  0  0
 26 28  1  0  0  0
 28 29  1  0  0  0
 29 30  1  0  0  0
 19  1  1  0  0  0
  1  2  2  0  0  0
  2  3  1  0  0  0
  3  4  2  0  0  0
  4  5  1  0  0  0
  5  6  2  0  0  0
  6  7  1  0  0  0
  7  8  2  0  0  0
  8 32  1  0  0  0
 32 33  1  0  0  0
 33 34  1  0  0  0
 34 35  1  0  0  0
 35 36  1  0  0  0
  8  9  1  0  0  0
  9 11  1  0  0  0
 11 12  1  0  0  0
 12 13  1  0  0  0
 13 14  1  0  0  0
 14 15  1  0  0  0
 15 16  1  0  0  0
  9 10  2  0  0  0
 27 22  1  0  0  0
 10  1  1  0  0  0
 30 25  1  0  0  0
 10  5  1  0  0  0
 36 33  1  0  0  0
 16 11  1  0  0  0
 20 21  1  0  0  0
 29 31  1  0  0  0
 35 37  1  0  0  0
 14 17  1  0  0  0
M  END
> <minimizedAffinity>
-6.96439

> <minimizedRMSD>
1.68834

$$$$
P2737


 33 36  0  0  0  0  0  0  0  0999 V2000
   -4.4597    5.3827  -18.6009 C   0  0  0  0  0  0  0  0  0  0  0  0
   -4.0844    5.2084  -17.2833 C   0  0  0  0  0  0  0  0  0  0  0  0
   -5.0524    4.8802  -16.3301 C   0  0  0  0  0  0  0  0  0  0  0  0
   -6.4037    4.6949  -16.7279 C   0  0  0  0  0  0  0  0  0  0  0  0
   -7.5118    4.4035  -15.8784 C   0  0  0  0  0  0  0  0  0  0  0  0
   -8.8185    4.3618  -16.3668 C   0  0  0  0  0  0  0  0  0  0  0  0
   -9.0241    4.5574  -17.7144 C   0  0  0  0  0  0  0  0  0  0  0  0
  -10.5981    4.6942  -18.3459 Cl  0  0  0  0  0  0  0  0  0  0  0  0
   -7.9547    4.7417  -18.5697 C   0  0  0  0  0  0  0  0  0  0  0  0
   -6.6635    4.8559  -18.1017 C   0  0  0  0  0  0  0  0  0  0  0  0
   -5.7282    5.1873  -19.0001 N   0  0  0  0  0  0  0  0  0  0  0  0
   -4.6878    4.7647  -14.9902 N   0  0  0  0  0  0  0  0  0  0  0  0
   -4.4624    6.0054  -14.2318 C   0  0  0  0  0  0  0  0  0  0  0  0
   -3.1319    5.9716  -13.4533 C   0  0  0  0  0  0  0  0  0  0  0  0
   -2.9438    4.7972  -12.5874 N   0  0  0  0  0  0  0  0  0  0  0  0
   -3.5015    3.5695  -13.1899 C   0  0  0  0  0  0  0  0  0  0  0  0
   -3.7731    3.6468  -14.7049 C   0  0  0  0  0  0  0  0  0  0  0  0
   -3.4097    4.9675  -11.6961 H   0  0  0  0  0  0  0  0  0  0  0  0
   -7.3954    4.1865  -14.4139 C   0  0  0  0  0  0  0  0  0  0  0  0
   -7.0365    3.1590  -13.9916 O   0  0  0  0  0  0  0  0  0  0  0  0
   -7.9085    5.4504  -13.6786 N   0  0  0  0  0  0  0  0  0  0  0  0
   -8.2266    6.1706  -14.2697 H   0  0  0  0  0  0  0  0  0  0  0  0
   -7.9925    5.7327  -12.3194 C   0  0  0  0  0  0  0  0  0  0  0  0
   -7.9991    4.7144  -11.3647 C   0  0  0  0  0  0  0  0  0  0  0  0
   -8.1096    5.0283  -10.0088 C   0  0  0  0  0  0  0  0  0  0  0  0
   -8.2123    6.3575   -9.6189 C   0  0  0  0  0  0  0  0  0  0  0  0
   -8.3205    6.6592   -8.3183 F   0  0  0  0  0  0  0  0  0  0  0  0
   -8.2042    7.3810  -10.5597 C   0  0  0  0  0  0  0  0  0  0  0  0
   -8.0947    7.0684  -11.9162 C   0  0  0  0  0  0  0  0  0  0  0  0
   -3.4567    5.8681  -19.6278 C   0  0  0  0  0  0  0  0  0  0  0  0
   -3.7377    8.2653  -19.5302 C   0  0  0  0  0  0  0  0  0  0  0  0
   -2.8157    7.1598  -19.3042 N   0  0  0  0  0  0  0  0  0  0  0  0
   -2.5316    7.1561  -18.3245 H   0  0  0  0  0  0  0  0  0  0  0  0
 31 32  1  0  0  0
 32 30  1  0  0  0
 30  1  1  0  0  0
  1  2  2  0  0  0
  2  3  1  0  0  0
  3 12  1  0  0  0
 12 13  1  0  0  0
 13 14  1  0  0  0
 14 15  1  0  0  0
 15 16  1  0  0  0
 16 17  1  0  0  0
  3  4  2  0  0  0
  4  5  1  0  0  0
  5 19  1  0  0  0
 19 20  2  0  0  0
 19 21  1  0  0  0
 21 23  1  0  0  0
 23 24  2  0  0  0
 24 25  1  0  0  0
 25 26  2  0  0  0
 26 27  1  0  0  0
 26 28  1  0  0  0
 28 29  2  0  0  0
  5  6  2  0  0  0
  6  7  1  0  0  0
  7  8  1  0  0  0
  7  9  2  0  0  0
  9 10  1  0  0  0
 10 11  2  0  0  0
 11  1  1  0  0  0
 17 12  1  0  0  0
 10  4  1  0  0  0
 29 23  1  0  0  0
 32 33  1  0  0  0
 15 18  1  0  0  0
 21 22  1  0  0  0
M  END
> <minimizedAffinity>
-7.02173

> <minimizedRMSD>
0.99341

$$$$
P2738


 34 39  0  0  0  0  0  0  0  0999 V2000
   -0.7356    5.7860  -16.8590 C   0  0  0  0  0  0  0  0  0  0  0  0
   -2.1894    5.8508  -16.8225 N   0  0  0  0  0  0  0  0  0  0  0  0
   -2.7576    5.4239  -18.0977 C   0  0  0  0  0  0  0  0  0  0  0  0
   -4.2502    5.2592  -18.0750 C   0  0  0  0  0  0  0  0  0  0  0  0
   -4.9105    5.1394  -19.2779 C   0  0  0  0  0  0  0  0  0  0  0  0
   -6.2124    4.8640  -19.3896 N   0  0  0  0  0  0  0  0  0  0  0  0
   -6.9439    4.7367  -18.2849 C   0  0  0  0  0  0  0  0  0  0  0  0
   -8.2899    4.4816  -18.5036 C   0  0  0  0  0  0  0  0  0  0  0  0
   -9.1842    4.2843  -17.4633 C   0  0  0  0  0  0  0  0  0  0  0  0
   -8.7128    4.3325  -16.1664 C   0  0  0  0  0  0  0  0  0  0  0  0
   -7.3632    4.6132  -15.9211 C   0  0  0  0  0  0  0  0  0  0  0  0
   -6.4172    4.8401  -16.9748 C   0  0  0  0  0  0  0  0  0  0  0  0
   -4.9994    5.1265  -16.8917 C   0  0  0  0  0  0  0  0  0  0  0  0
   -4.3267    5.2617  -15.6474 N   0  0  0  0  0  0  0  0  0  0  0  0
   -4.5962    6.5771  -15.0002 C   0  0  0  0  0  0  0  0  0  0  0  0
   -4.1093    6.5371  -13.5251 C   0  0  0  0  0  0  0  0  0  0  0  0
   -3.1626    5.4361  -13.2139 N   0  0  0  0  0  0  0  0  0  0  0  0
   -2.2026    5.3497  -14.3324 C   0  0  0  0  0  0  0  0  0  0  0  0
   -2.8454    5.0719  -15.7584 C   0  0  0  0  0  0  0  0  0  0  0  0
   -3.6698    4.5560  -13.1210 H   0  0  0  0  0  0  0  0  0  0  0  0
   -7.0235    4.6234  -14.4808 C   0  0  0  0  0  0  0  0  0  0  0  0
   -7.3295    5.5321  -13.8158 O   0  0  0  0  0  0  0  0  0  0  0  0
   -6.2783    3.3257  -14.1169 N   0  0  0  0  0  0  0  0  0  0  0  0
   -6.2074    2.6720  -14.8497 H   0  0  0  0  0  0  0  0  0  0  0  0
   -5.6892    2.9268  -12.9223 C   0  0  0  0  0  0  0  0  0  0  0  0
   -6.2200    3.2916  -11.6757 C   0  0  0  0  0  0  0  0  0  0  0  0
   -5.5234    3.0127  -10.4947 C   0  0  0  0  0  0  0  0  0  0  0  0
   -4.3080    2.3627  -10.5924 C   0  0  0  0  0  0  0  0  0  0  0  0
   -3.8172    1.9437  -11.8223 C   0  0  0  0  0  0  0  0  0  0  0  0
   -4.4958    2.2060  -12.9961 C   0  0  0  0  0  0  0  0  0  0  0  0
   -2.5464    1.1993  -11.6159 C   0  0  0  0  0  0  0  0  0  0  0  0
   -2.0965    1.5651  -10.2424 N   0  0  0  0  0  0  0  0  0  0  0  0
   -3.3493    1.9553   -9.5272 C   0  0  0  0  0  0  0  0  0  0  0  0
   -1.4416    2.3465  -10.2741 H   0  0  0  0  0  0  0  0  0  0  0  0
  1  2  1  0  0  0
  2  3  1  0  0  0
  3  4  1  0  0  0
  4  5  2  0  0  0
  5  6  1  0  0  0
  6  7  2  0  0  0
  7  8  1  0  0  0
  8  9  2  0  0  0
  9 10  1  0  0  0
 10 11  2  0  0  0
 11 21  1  0  0  0
 21 22  2  0  0  0
 21 23  1  0  0  0
 23 25  1  0  0  0
 25 26  2  0  0  0
 26 27  1  0  0  0
 27 28  2  0  0  0
 28 29  1  0  0  0
 29 30  2  0  0  0
 29 31  1  0  0  0
 31 32  1  0  0  0
 32 33  1  0  0  0
 11 12  1  0  0  0
 12 13  2  0  0  0
 13 14  1  0  0  0
 14 15  1  0  0  0
 15 16  1  0  0  0
 16 17  1  0  0  0
 17 18  1  0  0  0
 19 18  1  0  0  0
 19  2  1  0  0  0
 13  4  1  0  0  0
 19 14  1  0  0  0
 12  7  1  0  0  0
 30 25  1  0  0  0
 33 28  1  0  0  0
 23 24  1  0  0  0
 32 34  1  0  0  0
 17 20  1  0  0  0
M  END
> <minimizedAffinity>
-8.02467

> <minimizedRMSD>
0.61000

$$$$
P2747


 35 40  0  0  0  0  0  0  0  0999 V2000
   -7.8539    4.8154  -15.9378 C   0  0  0  0  0  0  0  0  0  0  0  0
   -9.1348    4.5604  -16.4405 C   0  0  0  0  0  0  0  0  0  0  0  0
   -9.3176    4.3468  -17.7922 C   0  0  0  0  0  0  0  0  0  0  0  0
   -8.2146    4.3879  -18.6351 C   0  0  0  0  0  0  0  0  0  0  0  0
   -6.9299    4.6359  -18.1711 C   0  0  0  0  0  0  0  0  0  0  0  0
   -5.9613    4.7310  -19.0925 N   0  0  0  0  0  0  0  0  0  0  0  0
   -4.7537    5.0953  -18.6576 C   0  0  0  0  0  0  0  0  0  0  0  0
   -4.4076    5.2359  -17.3357 C   0  0  0  0  0  0  0  0  0  0  0  0
   -5.3548    5.0066  -16.3557 C   0  0  0  0  0  0  0  0  0  0  0  0
   -6.7060    4.8133  -16.7794 C   0  0  0  0  0  0  0  0  0  0  0  0
   -2.9704    5.5964  -17.2286 C   0  0  0  0  0  0  0  0  0  0  0  0
   -2.5318    5.9504  -18.5979 N   0  0  0  0  0  0  0  0  0  0  0  0
   -3.5605    5.3890  -19.5184 C   0  0  0  0  0  0  0  0  0  0  0  0
   -1.6189    5.5401  -18.7945 H   0  0  0  0  0  0  0  0  0  0  0  0
   -4.9703    4.8674  -15.0363 N   0  0  0  0  0  0  0  0  0  0  0  0
   -4.5749    6.0138  -14.2173 C   0  0  0  0  0  0  0  0  0  0  0  0
   -3.1872    5.8015  -13.5750 C   0  0  0  0  0  0  0  0  0  0  0  0
   -3.0283    4.4903  -12.9086 N   0  0  0  0  0  0  0  0  0  0  0  0
   -3.2970    3.4282  -13.8977 C   0  0  0  0  0  0  0  0  0  0  0  0
   -4.6980    3.5195  -14.5342 C   0  0  0  0  0  0  0  0  0  0  0  0
   -3.6885    4.4151  -12.1348 H   0  0  0  0  0  0  0  0  0  0  0  0
   -7.7853    6.5455  -14.4378 O   0  0  0  0  0  0  0  0  0  0  0  0
   -7.8399    5.3852  -14.5626 C   0  0  0  0  0  0  0  0  0  0  0  0
   -8.0067    4.2697  -13.5041 N   0  0  0  0  0  0  0  0  0  0  0  0
   -8.1017    3.3621  -13.8734 H   0  0  0  0  0  0  0  0  0  0  0  0
   -8.0445    4.3405  -12.1130 C   0  0  0  0  0  0  0  0  0  0  0  0
   -8.2202    3.1487  -11.3929 C   0  0  0  0  0  0  0  0  0  0  0  0
   -8.2843    3.1511   -9.9968 C   0  0  0  0  0  0  0  0  0  0  0  0
   -8.1609    4.3573   -9.3404 C   0  0  0  0  0  0  0  0  0  0  0  0
   -7.9954    5.5427  -10.0476 C   0  0  0  0  0  0  0  0  0  0  0  0
   -7.9352    5.5563  -11.4341 C   0  0  0  0  0  0  0  0  0  0  0  0
   -7.9508    6.6777   -9.0825 C   0  0  0  0  0  0  0  0  0  0  0  0
   -7.7695    6.0596   -7.7402 N   0  0  0  0  0  0  0  0  0  0  0  0
   -8.2105    4.6444   -7.8798 C   0  0  0  0  0  0  0  0  0  0  0  0
   -8.3411    6.5426   -7.0471 H   0  0  0  0  0  0  0  0  0  0  0  0
 22 23  2  0  0  0
 23 24  1  0  0  0
 24 26  1  0  0  0
 26 27  2  0  0  0
 27 28  1  0  0  0
 28 29  2  0  0  0
 29 30  1  0  0  0
 30 31  2  0  0  0
 30 32  1  0  0  0
 32 33  1  0  0  0
 33 34  1  0  0  0
 23  1  1  0  0  0
  1  2  2  0  0  0
  2  3  1  0  0  0
  3  4  2  0  0  0
  4  5  1  0  0  0
  5  6  2  0  0  0
  6  7  1  0  0  0
  7  8  2  0  0  0
  8  9  1  0  0  0
  9 15  1  0  0  0
 15 16  1  0  0  0
 16 17  1  0  0  0
 17 18  1  0  0  0
 18 19  1  0  0  0
 19 20  1  0  0  0
  9 10  2  0  0  0
  8 11  1  0  0  0
 11 12  1  0  0  0
 12 13  1  0  0  0
 31 26  1  0  0  0
 10  1  1  0  0  0
 34 29  1  0  0  0
 10  5  1  0  0  0
 13  7  1  0  0  0
 20 15  1  0  0  0
 24 25  1  0  0  0
 33 35  1  0  0  0
 18 21  1  0  0  0
 12 14  1  0  0  0
M  END
> <minimizedAffinity>
-8.26503

> <minimizedRMSD>
0.86501

$$$$
P2799


 27 30  0  0  0  0  0  0  0  0999 V2000
   -6.5731    5.4395  -14.1514 C   0  0  0  0  0  0  0  0  0  0  0  0
   -5.7842    6.2479  -13.8423 O   0  0  0  0  0  0  0  0  0  0  0  0
   -7.6192    4.6742  -13.2945 N   0  0  0  0  0  0  0  0  0  0  0  0
   -8.2267    4.0934  -13.8072 H   0  0  0  0  0  0  0  0  0  0  0  0
   -9.5318    4.5390  -19.2648 N   0  0  0  0  0  0  0  0  0  0  0  0
   -9.0905    4.3610  -18.0047 C   0  0  0  0  0  0  0  0  0  0  0  0
   -9.7868    4.0826  -16.9320 N   0  0  0  0  0  0  0  0  0  0  0  0
   -8.9970    4.2582  -15.8191 N   0  0  0  0  0  0  0  0  0  0  0  0
   -7.8035    4.5846  -16.2398 C   0  0  0  0  0  0  0  0  0  0  0  0
   -6.6151    4.9798  -15.5800 C   0  0  0  0  0  0  0  0  0  0  0  0
   -5.4983    5.1746  -16.3155 C   0  0  0  0  0  0  0  0  0  0  0  0
   -5.4916    4.9914  -17.7609 C   0  0  0  0  0  0  0  0  0  0  0  0
   -3.9024    5.2217  -18.6759 Br  0  0  0  0  0  0  0  0  0  0  0  0
   -6.6433    4.7260  -18.3915 C   0  0  0  0  0  0  0  0  0  0  0  0
   -7.7841    4.5461  -17.6298 N   0  0  0  0  0  0  0  0  0  0  0  0
  -10.4814    4.3921  -19.4792 H   0  0  0  0  0  0  0  0  0  0  0  0
   -8.9048    4.8159  -19.9715 H   0  0  0  0  0  0  0  0  0  0  0  0
   -7.8383    4.6763  -11.9117 C   0  0  0  0  0  0  0  0  0  0  0  0
   -7.6370    5.8502  -11.1643 C   0  0  0  0  0  0  0  0  0  0  0  0
   -7.7945    5.8643   -9.7735 C   0  0  0  0  0  0  0  0  0  0  0  0
   -8.1369    4.6855   -9.1413 C   0  0  0  0  0  0  0  0  0  0  0  0
   -8.3403    3.5188   -9.8699 C   0  0  0  0  0  0  0  0  0  0  0  0
   -8.2152    3.4994  -11.2570 C   0  0  0  0  0  0  0  0  0  0  0  0
   -8.6194    2.4038   -8.9151 C   0  0  0  0  0  0  0  0  0  0  0  0
   -8.8837    3.0503   -7.6062 N   0  0  0  0  0  0  0  0  0  0  0  0
   -8.3056    4.4048   -7.6857 C   0  0  0  0  0  0  0  0  0  0  0  0
   -8.4402    2.5211   -6.8555 H   0  0  0  0  0  0  0  0  0  0  0  0
  5  6  1  0  0  0
  6  7  2  0  0  0
  7  8  1  0  0  0
  8  9  2  0  0  0
  9 10  1  0  0  0
 10  1  1  0  0  0
  1  2  2  0  0  0
  1  3  1  0  0  0
  3 18  1  0  0  0
 18 19  2  0  0  0
 19 20  1  0  0  0
 20 21  2  0  0  0
 21 22  1  0  0  0
 22 23  2  0  0  0
 22 24  1  0  0  0
 24 25  1  0  0  0
 25 26  1  0  0  0
 10 11  2  0  0  0
 11 12  1  0  0  0
 12 13  1  0  0  0
 12 14  2  0  0  0
 14 15  1  0  0  0
 15  6  1  0  0  0
 15  9  1  0  0  0
 23 18  1  0  0  0
 26 21  1  0  0  0
  5 16  1  0  0  0
  5 17  1  0  0  0
  3  4  1  0  0  0
 25 27  1  0  0  0
M  END
> <minimizedAffinity>
-8.24654

> <minimizedRMSD>
0.62632

$$$$
P2800


 34 37  0  0  0  0  0  0  0  0999 V2000
   -6.9515    4.6299  -13.9821 C   0  0  0  0  0  0  0  0  0  0  0  0
   -4.8023    5.1221  -19.6480 N   0  0  0  0  0  0  0  0  0  0  0  0
   -5.0030    4.9629  -18.3267 C   0  0  0  0  0  0  0  0  0  0  0  0
   -4.0928    4.9393  -17.3765 N   0  0  0  0  0  0  0  0  0  0  0  0
   -4.7292    4.7722  -16.1671 N   0  0  0  0  0  0  0  0  0  0  0  0
   -6.0249    4.7217  -16.3966 C   0  0  0  0  0  0  0  0  0  0  0  0
   -7.1542    4.6274  -15.5020 C   0  0  0  0  0  0  0  0  0  0  0  0
   -8.3784    4.5834  -16.0852 C   0  0  0  0  0  0  0  0  0  0  0  0
   -8.5716    4.6203  -17.5218 C   0  0  0  0  0  0  0  0  0  0  0  0
  -10.1611    4.5921  -18.1399 Cl  0  0  0  0  0  0  0  0  0  0  0  0
   -7.5139    4.7351  -18.3317 C   0  0  0  0  0  0  0  0  0  0  0  0
   -6.2532    4.7990  -17.7630 N   0  0  0  0  0  0  0  0  0  0  0  0
   -3.8887    5.2351  -19.9970 H   0  0  0  0  0  0  0  0  0  0  0  0
   -5.5691    5.1256  -20.2654 H   0  0  0  0  0  0  0  0  0  0  0  0
   -6.0795    5.9191  -13.6980 C   0  0  0  0  0  0  0  0  0  0  0  0
   -6.5107    7.0080  -13.9613 O   0  0  0  0  0  0  0  0  0  0  0  0
   -4.8048    5.5181  -13.1503 N   0  0  0  0  0  0  0  0  0  0  0  0
   -4.7286    4.5561  -12.9552 H   0  0  0  0  0  0  0  0  0  0  0  0
   -3.6223    6.2882  -12.8400 C   0  0  0  0  0  0  0  0  0  0  0  0
   -2.3572    5.7120  -13.4560 C   0  0  0  0  0  0  0  0  0  0  0  0
   -2.4887    4.3658  -13.6000 F   0  0  0  0  0  0  0  0  0  0  0  0
   -2.1704    6.2216  -14.6989 F   0  0  0  0  0  0  0  0  0  0  0  0
   -8.2479    4.6085  -13.2509 N   0  0  0  0  0  0  0  0  0  0  0  0
   -9.1142    4.6009  -13.7185 H   0  0  0  0  0  0  0  0  0  0  0  0
   -8.1525    4.6000  -11.8385 C   0  0  0  0  0  0  0  0  0  0  0  0
   -7.9634    5.7915  -11.1099 C   0  0  0  0  0  0  0  0  0  0  0  0
   -7.9233    5.8002   -9.7102 C   0  0  0  0  0  0  0  0  0  0  0  0
   -8.0985    4.6031   -9.0458 C   0  0  0  0  0  0  0  0  0  0  0  0
   -8.2828    3.4171   -9.7463 C   0  0  0  0  0  0  0  0  0  0  0  0
   -8.2960    3.3950  -11.1334 C   0  0  0  0  0  0  0  0  0  0  0  0
   -8.4658    2.2989   -8.7719 C   0  0  0  0  0  0  0  0  0  0  0  0
   -8.7225    2.9618   -7.4649 N   0  0  0  0  0  0  0  0  0  0  0  0
   -8.1472    4.3196   -7.5829 C   0  0  0  0  0  0  0  0  0  0  0  0
   -8.2679    2.4476   -6.7103 H   0  0  0  0  0  0  0  0  0  0  0  0
  2  3  1  0  0  0
  3  4  2  0  0  0
  4  5  1  0  0  0
  5  6  2  0  0  0
  6  7  1  0  0  0
  7  1  1  0  0  0
  1 23  1  0  0  0
 23 25  1  0  0  0
 25 26  2  0  0  0
 26 27  1  0  0  0
 27 28  2  0  0  0
 28 29  1  0  0  0
 29 30  2  0  0  0
 29 31  1  0  0  0
 31 32  1  0  0  0
 32 33  1  0  0  0
  1 15  1  0  0  0
 15 16  2  0  0  0
 15 17  1  0  0  0
 17 19  1  0  0  0
 19 20  1  0  0  0
 20 21  1  0  0  0
 20 22  1  0  0  0
  7  8  2  0  0  0
  8  9  1  0  0  0
  9 10  1  0  0  0
  9 11  2  0  0  0
 11 12  1  0  0  0
 12  3  1  0  0  0
 12  6  1  0  0  0
 30 25  1  0  0  0
 33 28  1  0  0  0
  2 13  1  0  0  0
  2 14  1  0  0  0
 23 24  1  0  0  0
 32 34  1  0  0  0
 17 18  1  0  0  0
M  END
> <minimizedAffinity>
-6.85199

> <minimizedRMSD>
0.65731

$$$$
P2801


 34 37  0  0  0  0  0  0  0  0999 V2000
   -7.3009    4.8608  -13.9815 C   0  0  0  0  0  0  0  0  0  0  0  0
   -5.4692    5.1167  -19.8280 N   0  0  0  0  0  0  0  0  0  0  0  0
   -5.5221    5.0566  -18.4810 C   0  0  0  0  0  0  0  0  0  0  0  0
   -4.5900    5.3882  -17.6175 N   0  0  0  0  0  0  0  0  0  0  0  0
   -5.1113    5.2478  -16.3492 N   0  0  0  0  0  0  0  0  0  0  0  0
   -6.3556    4.8265  -16.4544 C   0  0  0  0  0  0  0  0  0  0  0  0
   -7.3975    4.5754  -15.4834 C   0  0  0  0  0  0  0  0  0  0  0  0
   -8.5825    4.1191  -15.9715 C   0  0  0  0  0  0  0  0  0  0  0  0
   -8.8312    3.9214  -17.3878 C   0  0  0  0  0  0  0  0  0  0  0  0
  -10.3893    3.4974  -17.9369 Cl  0  0  0  0  0  0  0  0  0  0  0  0
   -7.8602    4.1730  -18.2678 C   0  0  0  0  0  0  0  0  0  0  0  0
   -6.6455    4.6379  -17.7994 N   0  0  0  0  0  0  0  0  0  0  0  0
   -4.6469    5.4216  -20.2752 H   0  0  0  0  0  0  0  0  0  0  0  0
   -6.2530    4.8557  -20.3635 H   0  0  0  0  0  0  0  0  0  0  0  0
   -5.8337    5.2614  -13.5929 C   0  0  0  0  0  0  0  0  0  0  0  0
   -5.5416    6.4192  -13.4793 O   0  0  0  0  0  0  0  0  0  0  0  0
   -5.0287    4.0791  -13.4996 N   0  0  0  0  0  0  0  0  0  0  0  0
   -5.5333    3.2358  -13.5573 H   0  0  0  0  0  0  0  0  0  0  0  0
   -3.6027    3.9142  -13.3352 C   0  0  0  0  0  0  0  0  0  0  0  0
   -3.2149    2.7871  -12.3922 C   0  0  0  0  0  0  0  0  0  0  0  0
   -3.8561    1.6407  -12.7417 F   0  0  0  0  0  0  0  0  0  0  0  0
   -1.8853    2.5325  -12.4985 F   0  0  0  0  0  0  0  0  0  0  0  0
   -7.7768    3.6754  -13.2245 N   0  0  0  0  0  0  0  0  0  0  0  0
   -7.8197    2.7895  -13.6519 H   0  0  0  0  0  0  0  0  0  0  0  0
   -8.1669    3.8465  -11.8773 C   0  0  0  0  0  0  0  0  0  0  0  0
   -8.0086    5.0598  -11.1712 C   0  0  0  0  0  0  0  0  0  0  0  0
   -8.2891    5.1655   -9.8016 C   0  0  0  0  0  0  0  0  0  0  0  0
   -8.7292    4.0414   -9.1359 C   0  0  0  0  0  0  0  0  0  0  0  0
   -8.8883    2.8352   -9.8049 C   0  0  0  0  0  0  0  0  0  0  0  0
   -8.5886    2.7157  -11.1556 C   0  0  0  0  0  0  0  0  0  0  0  0
   -9.3501    1.7993   -8.8301 C   0  0  0  0  0  0  0  0  0  0  0  0
   -9.7587    2.5553   -7.6189 N   0  0  0  0  0  0  0  0  0  0  0  0
   -9.0419    3.8442   -7.6906 C   0  0  0  0  0  0  0  0  0  0  0  0
   -9.4924    2.0468   -6.7758 H   0  0  0  0  0  0  0  0  0  0  0  0
  2  3  1  0  0  0
  3  4  2  0  0  0
  4  5  1  0  0  0
  5  6  2  0  0  0
  6  7  1  0  0  0
  7  1  1  0  0  0
  1 23  1  0  0  0
 23 25  1  0  0  0
 25 26  2  0  0  0
 26 27  1  0  0  0
 27 28  2  0  0  0
 28 29  1  0  0  0
 29 30  2  0  0  0
 29 31  1  0  0  0
 31 32  1  0  0  0
 32 33  1  0  0  0
  1 15  1  0  0  0
 15 16  2  0  0  0
 15 17  1  0  0  0
 17 19  1  0  0  0
 19 20  1  0  0  0
 20 21  1  0  0  0
 20 22  1  0  0  0
  7  8  2  0  0  0
  8  9  1  0  0  0
  9 10  1  0  0  0
  9 11  2  0  0  0
 11 12  1  0  0  0
 12  3  1  0  0  0
 12  6  1  0  0  0
 30 25  1  0  0  0
 33 28  1  0  0  0
  2 13  1  0  0  0
  2 14  1  0  0  0
 23 24  1  0  0  0
 32 34  1  0  0  0
 17 18  1  0  0  0
M  END
> <minimizedAffinity>
-8.30665

> <minimizedRMSD>
1.15619

$$$$
P2831


 32 35  0  0  0  0  0  0  0  0999 V2000
   -5.4239    5.6518  -16.5324 C   0  0  0  0  0  0  0  0  0  0  0  0
   -5.3831    7.1840  -16.6474 C   0  0  0  0  0  0  0  0  0  0  0  0
   -4.7390    5.1007  -17.8152 C   0  0  0  0  0  0  0  0  0  0  0  0
   -3.5254    5.0007  -17.9910 O   0  0  0  0  0  0  0  0  0  0  0  0
   -5.8021    4.7278  -18.8618 C   0  0  0  0  0  0  0  0  0  0  0  0
   -5.8057    5.7145  -19.9386 N   0  0  0  0  0  0  0  0  0  0  0  0
   -7.0646    4.7424  -18.0505 C   0  0  0  0  0  0  0  0  0  0  0  0
   -8.3181    4.3387  -18.4899 C   0  0  0  0  0  0  0  0  0  0  0  0
   -9.3586    4.2867  -17.5703 C   0  0  0  0  0  0  0  0  0  0  0  0
   -9.1324    4.6238  -16.2293 C   0  0  0  0  0  0  0  0  0  0  0  0
   -7.8861    5.0882  -15.7946 C   0  0  0  0  0  0  0  0  0  0  0  0
   -6.8494    5.1655  -16.7216 C   0  0  0  0  0  0  0  0  0  0  0  0
   -5.9493    6.6451  -19.5466 H   0  0  0  0  0  0  0  0  0  0  0  0
   -6.5588    5.5012  -20.5927 H   0  0  0  0  0  0  0  0  0  0  0  0
   -7.7585    5.5848  -14.3951 C   0  0  0  0  0  0  0  0  0  0  0  0
   -7.6072    6.7327  -14.2336 O   0  0  0  0  0  0  0  0  0  0  0  0
   -7.9105    4.4359  -13.3635 N   0  0  0  0  0  0  0  0  0  0  0  0
   -7.9507    3.5334  -13.7546 H   0  0  0  0  0  0  0  0  0  0  0  0
   -7.9998    4.4740  -11.9679 C   0  0  0  0  0  0  0  0  0  0  0  0
   -7.7136    5.6480  -11.2519 C   0  0  0  0  0  0  0  0  0  0  0  0
   -7.7861    5.6770   -9.8525 C   0  0  0  0  0  0  0  0  0  0  0  0
   -8.1471    4.5194   -9.1879 C   0  0  0  0  0  0  0  0  0  0  0  0
   -8.4424    3.3561   -9.8903 C   0  0  0  0  0  0  0  0  0  0  0  0
   -8.3735    3.3152  -11.2776 C   0  0  0  0  0  0  0  0  0  0  0  0
   -8.7764    2.2710   -8.9182 C   0  0  0  0  0  0  0  0  0  0  0  0
   -8.9485    2.9519   -7.6129 N   0  0  0  0  0  0  0  0  0  0  0  0
   -8.2598    4.2536   -7.7229 C   0  0  0  0  0  0  0  0  0  0  0  0
   -8.5311    2.3947   -6.8674 H   0  0  0  0  0  0  0  0  0  0  0  0
   -4.9077    5.0432  -15.3615 O   0  0  0  0  0  0  0  0  0  0  0  0
   -2.5814    5.3815  -14.7456 C   0  0  0  0  0  0  0  0  0  0  0  0
   -4.0241    5.8003  -14.5381 C   0  0  0  0  0  0  0  0  0  0  0  0
   -4.4305    5.5057  -13.0989 C   0  0  0  0  0  0  0  0  0  0  0  0
 30 31  1  0  0  0
 31 32  1  0  0  0
 31 29  1  0  0  0
 29  1  1  0  0  0
  1  2  1  0  0  0
  1  3  1  0  0  0
  3  4  2  0  0  0
  3  5  1  0  0  0
  5  6  1  0  0  0
  5  7  1  0  0  0
  7  8  2  0  0  0
  8  9  1  0  0  0
  9 10  2  0  0  0
 10 11  1  0  0  0
 11 15  1  0  0  0
 15 16  2  0  0  0
 15 17  1  0  0  0
 17 19  1  0  0  0
 19 20  2  0  0  0
 20 21  1  0  0  0
 21 22  2  0  0  0
 22 23  1  0  0  0
 23 24  2  0  0  0
 23 25  1  0  0  0
 25 26  1  0  0  0
 26 27  1  0  0  0
 11 12  2  0  0  0
 12  1  1  0  0  0
 12  7  1  0  0  0
 24 19  1  0  0  0
 27 22  1  0  0  0
  6 13  1  0  0  0
  6 14  1  0  0  0
 17 18  1  0  0  0
 26 28  1  0  0  0
M  END
> <minimizedAffinity>
-7.74087

> <minimizedRMSD>
0.45022

$$$$
P2840


 34 37  0  0  0  0  0  0  0  0999 V2000
   -6.8544    4.8376  -13.9340 C   0  0  0  0  0  0  0  0  0  0  0  0
   -5.0350    5.1021  -19.8113 N   0  0  0  0  0  0  0  0  0  0  0  0
   -5.1284    5.0260  -18.4687 C   0  0  0  0  0  0  0  0  0  0  0  0
   -4.1566    5.1608  -17.5971 N   0  0  0  0  0  0  0  0  0  0  0  0
   -4.6914    5.0374  -16.3367 N   0  0  0  0  0  0  0  0  0  0  0  0
   -5.9856    4.8341  -16.4423 C   0  0  0  0  0  0  0  0  0  0  0  0
   -7.0361    4.6889  -15.4575 C   0  0  0  0  0  0  0  0  0  0  0  0
   -8.2873    4.5099  -15.9556 C   0  0  0  0  0  0  0  0  0  0  0  0
   -8.5925    4.5255  -17.3744 C   0  0  0  0  0  0  0  0  0  0  0  0
  -10.2185    4.4976  -17.8855 Cl  0  0  0  0  0  0  0  0  0  0  0  0
   -7.6080    4.6720  -18.2656 C   0  0  0  0  0  0  0  0  0  0  0  0
   -6.3158    4.8138  -17.7946 N   0  0  0  0  0  0  0  0  0  0  0  0
   -4.1601    5.2551  -20.2360 H   0  0  0  0  0  0  0  0  0  0  0  0
   -5.8417    5.0047  -20.3672 H   0  0  0  0  0  0  0  0  0  0  0  0
   -5.5526    4.1245  -13.4340 C   0  0  0  0  0  0  0  0  0  0  0  0
   -5.3635    2.9723  -13.5267 O   0  0  0  0  0  0  0  0  0  0  0  0
   -4.6345    5.2606  -12.8689 N   0  0  0  0  0  0  0  0  0  0  0  0
   -5.0553    6.1498  -12.8294 H   0  0  0  0  0  0  0  0  0  0  0  0
   -3.2794    5.2152  -12.3994 C   0  0  0  0  0  0  0  0  0  0  0  0
   -2.3432    5.7850  -13.4585 C   0  0  0  0  0  0  0  0  0  0  0  0
   -1.6497    4.6893  -14.2429 C   0  0  0  0  0  0  0  0  0  0  0  0
   -2.1822    3.4770  -13.9772 F   0  0  0  0  0  0  0  0  0  0  0  0
   -8.0548    4.3794  -13.2074 N   0  0  0  0  0  0  0  0  0  0  0  0
   -8.8263    4.0157  -13.6990 H   0  0  0  0  0  0  0  0  0  0  0  0
   -8.0827    4.4692  -11.7979 C   0  0  0  0  0  0  0  0  0  0  0  0
   -7.9198    5.6716  -11.0810 C   0  0  0  0  0  0  0  0  0  0  0  0
   -7.9758    5.7093   -9.6780 C   0  0  0  0  0  0  0  0  0  0  0  0
   -8.2533    4.5403   -8.9970 C   0  0  0  0  0  0  0  0  0  0  0  0
   -8.4748    3.3574   -9.6852 C   0  0  0  0  0  0  0  0  0  0  0  0
   -8.4022    3.3127  -11.0695 C   0  0  0  0  0  0  0  0  0  0  0  0
   -8.7395    2.2629   -8.7043 C   0  0  0  0  0  0  0  0  0  0  0  0
   -9.0287    2.9592   -7.4196 N   0  0  0  0  0  0  0  0  0  0  0  0
   -8.3608    4.2759   -7.5331 C   0  0  0  0  0  0  0  0  0  0  0  0
   -8.6487    2.4319   -6.6335 H   0  0  0  0  0  0  0  0  0  0  0  0
  2  3  1  0  0  0
  3  4  2  0  0  0
  4  5  1  0  0  0
  5  6  2  0  0  0
  6  7  1  0  0  0
  7  1  1  0  0  0
  1 23  1  0  0  0
 23 25  1  0  0  0
 25 26  2  0  0  0
 26 27  1  0  0  0
 27 28  2  0  0  0
 28 29  1  0  0  0
 29 30  2  0  0  0
 29 31  1  0  0  0
 31 32  1  0  0  0
 32 33  1  0  0  0
  1 15  1  0  0  0
 15 16  2  0  0  0
 15 17  1  0  0  0
 17 19  1  0  0  0
 19 20  1  0  0  0
 20 21  1  0  0  0
 21 22  1  0  0  0
  7  8  2  0  0  0
  8  9  1  0  0  0
  9 10  1  0  0  0
  9 11  2  0  0  0
 11 12  1  0  0  0
 12  3  1  0  0  0
 12  6  1  0  0  0
 30 25  1  0  0  0
 33 28  1  0  0  0
  2 13  1  0  0  0
  2 14  1  0  0  0
 23 24  1  0  0  0
 32 34  1  0  0  0
 17 18  1  0  0  0
M  END
> <minimizedAffinity>
-6.79204

> <minimizedRMSD>
1.12109

$$$$
P2846


 36 39  0  0  0  0  0  0  0  0999 V2000
   -6.3848    4.5052  -14.1512 C   0  0  0  0  0  0  0  0  0  0  0  0
   -6.8812    4.5270  -15.5952 C   0  0  0  0  0  0  0  0  0  0  0  0
   -8.2684    4.4180  -15.8923 C   0  0  0  0  0  0  0  0  0  0  0  0
   -8.7483    4.5113  -17.1992 C   0  0  0  0  0  0  0  0  0  0  0  0
  -10.3952    4.3564  -17.6073 Cl  0  0  0  0  0  0  0  0  0  0  0  0
   -7.9019    4.7605  -18.2589 C   0  0  0  0  0  0  0  0  0  0  0  0
   -6.5376    4.8928  -18.0158 C   0  0  0  0  0  0  0  0  0  0  0  0
   -5.4242    5.1629  -18.8398 C   0  0  0  0  0  0  0  0  0  0  0  0
   -5.5453    5.4902  -20.1306 N   0  0  0  0  0  0  0  0  0  0  0  0
   -4.2822    5.0741  -18.1733 N   0  0  0  0  0  0  0  0  0  0  0  0
   -4.6810    4.8402  -16.9141 N   0  0  0  0  0  0  0  0  0  0  0  0
   -6.0406    4.7468  -16.7226 C   0  0  0  0  0  0  0  0  0  0  0  0
   -6.4368    5.5323  -20.5462 H   0  0  0  0  0  0  0  0  0  0  0  0
   -4.7430    5.6891  -20.6653 H   0  0  0  0  0  0  0  0  0  0  0  0
   -3.6961    4.5693  -15.9754 O   0  0  0  0  0  0  0  0  0  0  0  0
   -2.6245    5.4639  -16.2047 C   0  0  0  0  0  0  0  0  0  0  0  0
   -1.8888    5.4815  -15.0587 F   0  0  0  0  0  0  0  0  0  0  0  0
   -7.2481    3.8875  -11.8823 N   0  0  0  0  0  0  0  0  0  0  0  0
   -6.9132    3.2990  -13.2793 C   0  0  0  0  0  0  0  0  0  0  0  0
   -6.9405    2.1956  -13.6618 O   0  0  0  0  0  0  0  0  0  0  0  0
   -7.0721    4.8516  -11.7880 H   0  0  0  0  0  0  0  0  0  0  0  0
   -6.7060    2.3910  -10.0313 C   0  0  0  0  0  0  0  0  0  0  0  0
   -7.7769    3.2493  -10.6965 C   0  0  0  0  0  0  0  0  0  0  0  0
   -8.3114    4.2908   -9.7224 C   0  0  0  0  0  0  0  0  0  0  0  0
   -6.7524    5.8171  -13.5331 N   0  0  0  0  0  0  0  0  0  0  0  0
   -7.6019    5.9137  -13.0450 H   0  0  0  0  0  0  0  0  0  0  0  0
   -5.8819    6.9056  -13.6528 C   0  0  0  0  0  0  0  0  0  0  0  0
   -4.5150    6.8232  -13.3212 C   0  0  0  0  0  0  0  0  0  0  0  0
   -3.6684    7.9355  -13.4081 C   0  0  0  0  0  0  0  0  0  0  0  0
   -4.2140    9.1438  -13.7919 C   0  0  0  0  0  0  0  0  0  0  0  0
   -5.5684    9.2554  -14.0757 C   0  0  0  0  0  0  0  0  0  0  0  0
   -6.4110    8.1579  -14.0002 C   0  0  0  0  0  0  0  0  0  0  0  0
   -5.8779   10.6621  -14.4583 C   0  0  0  0  0  0  0  0  0  0  0  0
   -4.6693   11.4487  -14.1012 N   0  0  0  0  0  0  0  0  0  0  0  0
   -3.5584   10.4684  -13.9823 C   0  0  0  0  0  0  0  0  0  0  0  0
   -4.8110   11.9322  -13.2143 H   0  0  0  0  0  0  0  0  0  0  0  0
 22 23  1  0  0  0
 23 24  1  0  0  0
 23 18  1  0  0  0
 18 19  1  0  0  0
 19 20  2  0  0  0
 19  1  1  0  0  0
  1 25  1  0  0  0
 25 27  1  0  0  0
 27 28  2  0  0  0
 28 29  1  0  0  0
 29 30  2  0  0  0
 30 31  1  0  0  0
 31 32  2  0  0  0
 31 33  1  0  0  0
 33 34  1  0  0  0
 34 35  1  0  0  0
  1  2  1  0  0  0
  2  3  2  0  0  0
  3  4  1  0  0  0
  4  5  1  0  0  0
  4  6  2  0  0  0
  6  7  1  0  0  0
  7  8  1  0  0  0
  8  9  1  0  0  0
  8 10  2  0  0  0
 10 11  1  0  0  0
 11 15  1  0  0  0
 15 16  1  0  0  0
 16 17  1  0  0  0
 11 12  1  0  0  0
 32 27  1  0  0  0
 12  2  1  0  0  0
 35 30  1  0  0  0
 12  7  2  0  0  0
 18 21  1  0  0  0
 25 26  1  0  0  0
 34 36  1  0  0  0
  9 13  1  0  0  0
  9 14  1  0  0  0
M  END
> <minimizedAffinity>
-6.04701

> <minimizedRMSD>
0.55754

$$$$
P2856


 29 33  0  0  0  0  0  0  0  0999 V2000
   -7.5625    4.4124  -15.8828 C   0  0  0  0  0  0  0  0  0  0  0  0
   -8.8375    4.3524  -16.3241 C   0  0  0  0  0  0  0  0  0  0  0  0
   -9.1658    4.5146  -17.7294 C   0  0  0  0  0  0  0  0  0  0  0  0
   -8.1718    4.7554  -18.5979 C   0  0  0  0  0  0  0  0  0  0  0  0
   -6.8622    4.8665  -18.1315 N   0  0  0  0  0  0  0  0  0  0  0  0
   -5.6955    5.2747  -18.7527 C   0  0  0  0  0  0  0  0  0  0  0  0
   -4.7042    5.2063  -17.8845 N   0  0  0  0  0  0  0  0  0  0  0  0
   -5.2116    4.8413  -16.6603 N   0  0  0  0  0  0  0  0  0  0  0  0
   -6.5089    4.6779  -16.7982 C   0  0  0  0  0  0  0  0  0  0  0  0
   -6.7226    3.2224  -14.0481 O   0  0  0  0  0  0  0  0  0  0  0  0
   -7.2943    4.1657  -14.4345 C   0  0  0  0  0  0  0  0  0  0  0  0
   -7.9850    5.3190  -13.6485 N   0  0  0  0  0  0  0  0  0  0  0  0
   -8.4706    5.9668  -14.2086 H   0  0  0  0  0  0  0  0  0  0  0  0
   -8.0272    5.5828  -12.2806 C   0  0  0  0  0  0  0  0  0  0  0  0
   -8.0703    6.9250  -11.8589 C   0  0  0  0  0  0  0  0  0  0  0  0
   -8.1553    7.2472  -10.4999 C   0  0  0  0  0  0  0  0  0  0  0  0
   -8.1882    6.2107   -9.5858 C   0  0  0  0  0  0  0  0  0  0  0  0
   -8.1457    4.8825  -10.0001 C   0  0  0  0  0  0  0  0  0  0  0  0
   -8.0651    4.5484  -11.3429 C   0  0  0  0  0  0  0  0  0  0  0  0
   -8.2444    3.9928   -8.8056 C   0  0  0  0  0  0  0  0  0  0  0  0
   -7.9926    4.8808   -7.6341 N   0  0  0  0  0  0  0  0  0  0  0  0
   -8.3069    6.2586   -8.1002 C   0  0  0  0  0  0  0  0  0  0  0  0
   -7.0172    4.8175   -7.3428 H   0  0  0  0  0  0  0  0  0  0  0  0
   -5.6637    5.8061  -20.0056 N   0  0  0  0  0  0  0  0  0  0  0  0
   -6.0265    5.3097  -20.7745 H   0  0  0  0  0  0  0  0  0  0  0  0
   -5.0853    7.1137  -20.1762 C   0  0  0  0  0  0  0  0  0  0  0  0
   -5.4817    7.8215  -21.4869 C   0  0  0  0  0  0  0  0  0  0  0  0
   -4.0042    8.2303  -21.6459 C   0  0  0  0  0  0  0  0  0  0  0  0
   -3.6320    7.0779  -20.6947 C   0  0  0  0  0  0  0  0  0  0  0  0
 10 11  2  0  0  0
 11 12  1  0  0  0
 12 14  1  0  0  0
 14 15  2  0  0  0
 15 16  1  0  0  0
 16 17  2  0  0  0
 17 18  1  0  0  0
 18 19  2  0  0  0
 18 20  1  0  0  0
 20 21  1  0  0  0
 21 22  1  0  0  0
 11  1  1  0  0  0
  1  2  2  0  0  0
  2  3  1  0  0  0
  3  4  2  0  0  0
  4  5  1  0  0  0
  5  6  1  0  0  0
  6 24  1  0  0  0
 24 26  1  0  0  0
 26 27  1  0  0  0
 27 28  1  0  0  0
 28 29  1  0  0  0
  6  7  2  0  0  0
  7  8  1  0  0  0
  8  9  2  0  0  0
 19 14  1  0  0  0
  9  1  1  0  0  0
 22 17  1  0  0  0
  9  5  1  0  0  0
 29 26  1  0  0  0
 12 13  1  0  0  0
 21 23  1  0  0  0
 24 25  1  0  0  0
M  END
> <minimizedAffinity>
-7.08212

> <minimizedRMSD>
0.71331

$$$$
P2857


 27 30  0  0  0  0  0  0  0  0999 V2000
   -7.8040    4.7611  -14.2940 C   0  0  0  0  0  0  0  0  0  0  0  0
   -8.7143    5.0949  -13.6377 O   0  0  0  0  0  0  0  0  0  0  0  0
   -6.3751    4.3165  -13.8808 N   0  0  0  0  0  0  0  0  0  0  0  0
   -5.8082    4.0080  -14.6242 H   0  0  0  0  0  0  0  0  0  0  0  0
   -6.0049    4.8700  -20.0877 N   0  0  0  0  0  0  0  0  0  0  0  0
   -6.0419    4.8657  -18.7441 C   0  0  0  0  0  0  0  0  0  0  0  0
   -5.0590    5.0083  -17.8805 N   0  0  0  0  0  0  0  0  0  0  0  0
   -5.5897    4.9558  -16.6045 N   0  0  0  0  0  0  0  0  0  0  0  0
   -6.8892    4.7670  -16.7182 C   0  0  0  0  0  0  0  0  0  0  0  0
   -7.9503    4.6241  -15.7794 C   0  0  0  0  0  0  0  0  0  0  0  0
   -9.1983    4.3774  -16.2308 C   0  0  0  0  0  0  0  0  0  0  0  0
   -9.4947    4.2869  -17.6397 C   0  0  0  0  0  0  0  0  0  0  0  0
  -10.7579    4.0658  -18.0407 F   0  0  0  0  0  0  0  0  0  0  0  0
   -8.5120    4.4330  -18.5290 C   0  0  0  0  0  0  0  0  0  0  0  0
   -7.2253    4.6759  -18.0638 N   0  0  0  0  0  0  0  0  0  0  0  0
   -5.1499    5.0071  -20.5561 H   0  0  0  0  0  0  0  0  0  0  0  0
   -6.8327    4.7361  -20.6034 H   0  0  0  0  0  0  0  0  0  0  0  0
   -5.7652    4.2831  -12.6297 C   0  0  0  0  0  0  0  0  0  0  0  0
   -4.5095    3.6631  -12.5058 C   0  0  0  0  0  0  0  0  0  0  0  0
   -3.8831    3.5609  -11.2580 C   0  0  0  0  0  0  0  0  0  0  0  0
   -4.5376    4.0767  -10.1533 C   0  0  0  0  0  0  0  0  0  0  0  0
   -5.7741    4.7012  -10.2780 C   0  0  0  0  0  0  0  0  0  0  0  0
   -6.4018    4.8171  -11.5066 C   0  0  0  0  0  0  0  0  0  0  0  0
   -6.2207    5.1860   -8.9408 C   0  0  0  0  0  0  0  0  0  0  0  0
   -5.3337    4.5038   -7.9576 N   0  0  0  0  0  0  0  0  0  0  0  0
   -4.1190    4.1101   -8.7222 C   0  0  0  0  0  0  0  0  0  0  0  0
   -5.7954    3.6795   -7.5733 H   0  0  0  0  0  0  0  0  0  0  0  0
  5  6  1  0  0  0
  6  7  2  0  0  0
  7  8  1  0  0  0
  8  9  2  0  0  0
  9 10  1  0  0  0
 10  1  1  0  0  0
  1  2  2  0  0  0
  1  3  1  0  0  0
  3 18  1  0  0  0
 18 19  2  0  0  0
 19 20  1  0  0  0
 20 21  2  0  0  0
 21 22  1  0  0  0
 22 23  2  0  0  0
 22 24  1  0  0  0
 24 25  1  0  0  0
 25 26  1  0  0  0
 10 11  2  0  0  0
 11 12  1  0  0  0
 12 13  1  0  0  0
 12 14  2  0  0  0
 14 15  1  0  0  0
 15  6  1  0  0  0
 15  9  1  0  0  0
 23 18  1  0  0  0
 26 21  1  0  0  0
  5 16  1  0  0  0
  5 17  1  0  0  0
  3  4  1  0  0  0
 25 27  1  0  0  0
M  END
> <minimizedAffinity>
-7.00770

> <minimizedRMSD>
0.39363

$$$$
P2865


 32 35  0  0  0  0  0  0  0  0999 V2000
   -4.5014    6.1879  -18.2194 N   0  0  0  0  0  0  0  0  0  0  0  0
   -4.8851    6.2358  -16.8166 N   0  0  0  0  0  0  0  0  0  0  0  0
   -6.2712    5.8234  -16.8803 C   0  0  0  0  0  0  0  0  0  0  0  0
   -6.9213    5.3290  -15.5940 C   0  0  0  0  0  0  0  0  0  0  0  0
   -8.4088    5.0132  -15.9229 C   0  0  0  0  0  0  0  0  0  0  0  0
   -8.6223    4.2893  -17.2715 C   0  0  0  0  0  0  0  0  0  0  0  0
  -10.2779    4.5083  -17.8784 Cl  0  0  0  0  0  0  0  0  0  0  0  0
   -7.6832    4.6987  -18.4144 C   0  0  0  0  0  0  0  0  0  0  0  0
   -6.3256    4.8258  -17.9282 N   0  0  0  0  0  0  0  0  0  0  0  0
   -5.2303    5.0892  -18.8245 C   0  0  0  0  0  0  0  0  0  0  0  0
   -5.6261    5.5289  -20.1233 N   0  0  0  0  0  0  0  0  0  0  0  0
   -4.7941    7.1785  -16.4378 H   0  0  0  0  0  0  0  0  0  0  0  0
   -6.1569    6.3961  -20.0416 H   0  0  0  0  0  0  0  0  0  0  0  0
   -6.2075    4.8145  -20.5617 H   0  0  0  0  0  0  0  0  0  0  0  0
   -6.2575    4.1790  -14.7896 C   0  0  0  0  0  0  0  0  0  0  0  0
   -6.9054    3.4641  -14.1286 O   0  0  0  0  0  0  0  0  0  0  0  0
   -4.7124    4.2687  -14.9620 N   0  0  0  0  0  0  0  0  0  0  0  0
   -4.4102    4.9120  -15.6432 H   0  0  0  0  0  0  0  0  0  0  0  0
   -3.6878    3.5862  -14.3084 C   0  0  0  0  0  0  0  0  0  0  0  0
   -3.7716    2.2067  -14.0651 C   0  0  0  0  0  0  0  0  0  0  0  0
   -2.7370    1.5300  -13.4107 C   0  0  0  0  0  0  0  0  0  0  0  0
   -1.6269    2.2511  -13.0175 C   0  0  0  0  0  0  0  0  0  0  0  0
   -1.5465    3.6209  -13.2411 C   0  0  0  0  0  0  0  0  0  0  0  0
   -2.5688    4.3061  -13.8786 C   0  0  0  0  0  0  0  0  0  0  0  0
   -0.2728    4.1336  -12.6622 C   0  0  0  0  0  0  0  0  0  0  0  0
    0.5527    2.9279  -12.3883 N   0  0  0  0  0  0  0  0  0  0  0  0
   -0.4077    1.7924  -12.2940 C   0  0  0  0  0  0  0  0  0  0  0  0
    1.0610    3.0372  -11.5108 H   0  0  0  0  0  0  0  0  0  0  0  0
   -3.0663    6.1667  -18.4523 C   0  0  0  0  0  0  0  0  0  0  0  0
   -1.1634    6.0205  -17.0015 C   0  0  0  0  0  0  0  0  0  0  0  0
   -2.3505    5.3420  -17.4877 N   0  0  0  0  0  0  0  0  0  0  0  0
   -2.9658    5.1408  -16.6996 H   0  0  0  0  0  0  0  0  0  0  0  0
 30 31  1  0  0  0
 31 29  1  0  0  0
 29  1  1  0  0  0
  1  2  1  0  0  0
  3  2  1  0  0  0
  3  4  1  0  0  0
  4 15  1  0  0  0
 15 16  2  0  0  0
 15 17  1  0  0  0
 17 19  1  0  0  0
 19 20  2  0  0  0
 20 21  1  0  0  0
 21 22  2  0  0  0
 22 23  1  0  0  0
 23 24  2  0  0  0
 23 25  1  0  0  0
 25 26  1  0  0  0
 26 27  1  0  0  0
  4  5  1  0  0  0
  5  6  1  0  0  0
  6  7  1  0  0  0
  6  8  1  0  0  0
  8  9  1  0  0  0
  9 10  1  0  0  0
 10 11  1  0  0  0
 10  1  1  0  0  0
  9  3  1  0  0  0
 24 19  1  0  0  0
 27 22  1  0  0  0
 31 32  1  0  0  0
  2 12  1  0  0  0
 17 18  1  0  0  0
 26 28  1  0  0  0
 11 13  1  0  0  0
 11 14  1  0  0  0
M  END
> <minimizedAffinity>
-6.43518

> <minimizedRMSD>
0.66496

$$$$
P2916


 13 14  0  0  0  0  0  0  0  0999 V2000
   -7.0572    4.5156  -15.4478 C   0  0  0  0  0  0  0  0  0  0  0  0
   -8.5789    4.6403  -15.7075 C   0  0  0  0  0  0  0  0  0  0  0  0
   -9.0407    4.2281  -17.1034 C   0  0  0  0  0  0  0  0  0  0  0  0
   -8.1818    4.7753  -18.2310 C   0  0  0  0  0  0  0  0  0  0  0  0
   -6.7733    4.5713  -17.9427 N   0  0  0  0  0  0  0  0  0  0  0  0
   -5.9006    5.0947  -18.9826 C   0  0  0  0  0  0  0  0  0  0  0  0
   -4.5392    5.0649  -18.3090 C   0  0  0  0  0  0  0  0  0  0  0  0
   -4.8285    4.9675  -16.8081 C   0  0  0  0  0  0  0  0  0  0  0  0
   -6.3381    5.1793  -16.6728 C   0  0  0  0  0  0  0  0  0  0  0  0
   -6.8073    5.0368  -14.0541 N   0  0  0  0  0  0  0  0  0  0  0  0
   -5.8014    4.2918  -13.3165 C   0  0  0  0  0  0  0  0  0  0  0  0
   -8.1261    4.4020  -11.9452 C   0  0  0  0  0  0  0  0  0  0  0  0
   -8.0877    5.1048  -13.3005 C   0  0  0  0  0  0  0  0  0  0  0  0
 12 13  1  0  0  0
 13 10  1  0  0  0
 10 11  1  0  0  0
  1 10  1  0  0  0
  1  2  1  0  0  0
  2  3  1  0  0  0
  3  4  1  0  0  0
  4  5  1  0  0  0
  5  6  1  0  0  0
  6  7  1  0  0  0
  7  8  1  0  0  0
  9  8  1  0  0  0
  9  1  1  0  0  0
  9  5  1  0  0  0
M  END
> <minimizedAffinity>
-4.75332

> <minimizedRMSD>
0.59347

$$$$
P2983


 32 35  0  0  0  0  0  0  0  0999 V2000
   -4.9749    4.7153  -16.4998 N   0  0  0  0  0  0  0  0  0  0  0  0
   -4.5935    4.9222  -15.0924 C   0  0  0  0  0  0  0  0  0  0  0  0
   -5.5747    4.3281  -14.0890 C   0  0  0  0  0  0  0  0  0  0  0  0
   -6.9513    4.9525  -14.2988 C   0  0  0  0  0  0  0  0  0  0  0  0
   -7.4043    4.5917  -15.7279 C   0  0  0  0  0  0  0  0  0  0  0  0
   -8.7466    5.1275  -15.9832 N   0  0  0  0  0  0  0  0  0  0  0  0
   -9.2370    4.9433  -17.3342 C   0  0  0  0  0  0  0  0  0  0  0  0
   -9.7101    3.3080  -17.5360 Cl  0  0  0  0  0  0  0  0  0  0  0  0
   -8.2373    5.1939  -18.4246 C   0  0  0  0  0  0  0  0  0  0  0  0
   -6.8361    4.7068  -18.1521 C   0  0  0  0  0  0  0  0  0  0  0  0
   -6.3771    5.1329  -16.7532 C   0  0  0  0  0  0  0  0  0  0  0  0
   -8.7296    6.1283  -15.7873 H   0  0  0  0  0  0  0  0  0  0  0  0
   -4.0577    5.4733  -17.3475 C   0  0  0  0  0  0  0  0  0  0  0  0
   -3.2111    4.8551  -19.4696 C   0  0  0  0  0  0  0  0  0  0  0  0
   -3.2055    4.5378  -18.0502 N   0  0  0  0  0  0  0  0  0  0  0  0
   -2.2539    4.6065  -17.6894 H   0  0  0  0  0  0  0  0  0  0  0  0
   -7.9403    4.4960  -13.3759 O   0  0  0  0  0  0  0  0  0  0  0  0
   -8.2628    5.3548  -12.2954 C   0  0  0  0  0  0  0  0  0  0  0  0
   -7.8240    6.7397  -12.4456 N   0  0  0  0  0  0  0  0  0  0  0  0
   -6.8935    6.9362  -12.7003 H   0  0  0  0  0  0  0  0  0  0  0  0
   -8.7282    7.7908  -12.2268 C   0  0  0  0  0  0  0  0  0  0  0  0
   -8.4170    8.7207  -11.2233 C   0  0  0  0  0  0  0  0  0  0  0  0
   -9.2535    9.8097  -10.9362 C   0  0  0  0  0  0  0  0  0  0  0  0
  -10.4300   10.0245  -11.6612 C   0  0  0  0  0  0  0  0  0  0  0  0
  -10.6869    9.1671  -12.7380 C   0  0  0  0  0  0  0  0  0  0  0  0
   -9.8507    8.0787  -13.0117 C   0  0  0  0  0  0  0  0  0  0  0  0
  -10.1894    7.3017  -14.0503 F   0  0  0  0  0  0  0  0  0  0  0  0
  -11.3993   11.1420  -11.3458 C   0  0  0  0  0  0  0  0  0  0  0  0
  -12.8138   10.6703  -11.0430 C   0  0  0  0  0  0  0  0  0  0  0  0
  -13.4278   11.8598  -10.3356 C   0  0  0  0  0  0  0  0  0  0  0  0
  -12.3584   12.5960   -9.7207 O   0  0  0  0  0  0  0  0  0  0  0  0
  -11.1225   11.9751  -10.0964 C   0  0  0  0  0  0  0  0  0  0  0  0
 14 15  1  0  0  0
 15 13  1  0  0  0
 13  1  1  0  0  0
  1  2  1  0  0  0
  2  3  1  0  0  0
  3  4  1  0  0  0
  4 17  1  0  0  0
 17 18  1  0  0  0
 18 19  1  0  0  0
 19 21  1  0  0  0
 21 22  2  0  0  0
 22 23  1  0  0  0
 23 24  2  0  0  0
 28 24  1  0  0  0
 28 29  1  0  0  0
 29 30  1  0  0  0
 30 31  1  0  0  0
 31 32  1  0  0  0
 24 25  1  0  0  0
 25 26  2  0  0  0
 26 27  1  0  0  0
  4  5  1  0  0  0
  5  6  1  0  0  0
  6  7  1  0  0  0
  7  8  1  0  0  0
  7  9  1  0  0  0
  9 10  1  0  0  0
 11 10  1  0  0  0
 11  1  1  0  0  0
 26 21  1  0  0  0
 11  5  1  0  0  0
 32 28  1  0  0  0
 15 16  1  0  0  0
 19 20  1  0  0  0
  6 12  1  0  0  0
M  END
> <minimizedAffinity>
-5.94020

> <minimizedRMSD>
0.80698

$$$$
P2984


 32 35  0  0  0  0  0  0  0  0999 V2000
   -5.0842    4.6522  -16.3562 N   0  0  0  0  0  0  0  0  0  0  0  0
   -4.7610    4.7436  -14.9210 C   0  0  0  0  0  0  0  0  0  0  0  0
   -5.8000    4.1099  -14.0024 C   0  0  0  0  0  0  0  0  0  0  0  0
   -7.1488    4.7881  -14.2253 C   0  0  0  0  0  0  0  0  0  0  0  0
   -7.5429    4.5355  -15.6958 C   0  0  0  0  0  0  0  0  0  0  0  0
   -8.8654    5.1118  -15.9787 N   0  0  0  0  0  0  0  0  0  0  0  0
   -9.3032    4.9659  -17.3521 C   0  0  0  0  0  0  0  0  0  0  0  0
   -9.6623    3.3014  -17.6683 Cl  0  0  0  0  0  0  0  0  0  0  0  0
   -8.2685    5.3362  -18.3730 C   0  0  0  0  0  0  0  0  0  0  0  0
   -6.8731    4.8223  -18.0871 C   0  0  0  0  0  0  0  0  0  0  0  0
   -6.4645    5.1258  -16.6379 C   0  0  0  0  0  0  0  0  0  0  0  0
   -8.8328    6.1073  -15.7588 H   0  0  0  0  0  0  0  0  0  0  0  0
   -4.1121    5.4473  -17.1020 C   0  0  0  0  0  0  0  0  0  0  0  0
   -3.2452    4.8466  -19.2176 C   0  0  0  0  0  0  0  0  0  0  0  0
   -3.2074    4.5532  -17.7933 N   0  0  0  0  0  0  0  0  0  0  0  0
   -2.2593    4.6876  -17.4418 H   0  0  0  0  0  0  0  0  0  0  0  0
   -8.1972    4.3006  -13.3885 O   0  0  0  0  0  0  0  0  0  0  0  0
   -8.2851    4.8140  -12.0721 C   0  0  0  0  0  0  0  0  0  0  0  0
   -7.6513    6.1096  -11.8514 N   0  0  0  0  0  0  0  0  0  0  0  0
   -6.6706    6.1699  -11.7900 H   0  0  0  0  0  0  0  0  0  0  0  0
   -8.4305    7.2705  -11.7260 C   0  0  0  0  0  0  0  0  0  0  0  0
   -8.3339    7.9905  -10.5253 C   0  0  0  0  0  0  0  0  0  0  0  0
   -9.0365    9.1852  -10.3231 C   0  0  0  0  0  0  0  0  0  0  0  0
   -9.8253    9.7404  -11.3385 C   0  0  0  0  0  0  0  0  0  0  0  0
   -9.8823    9.0630  -12.5599 C   0  0  0  0  0  0  0  0  0  0  0  0
   -9.1967    7.8552  -12.7438 C   0  0  0  0  0  0  0  0  0  0  0  0
   -9.3235    7.2648  -13.9405 F   0  0  0  0  0  0  0  0  0  0  0  0
  -10.5998   11.0152  -11.0548 C   0  0  0  0  0  0  0  0  0  0  0  0
  -11.8293   10.7640  -10.2023 C   0  0  0  0  0  0  0  0  0  0  0  0
  -12.9349   10.5727  -11.2175 C   0  0  0  0  0  0  0  0  0  0  0  0
  -12.5762   11.3446  -12.3742 O   0  0  0  0  0  0  0  0  0  0  0  0
  -11.1942   11.7133  -12.2739 C   0  0  0  0  0  0  0  0  0  0  0  0
 14 15  1  0  0  0
 15 13  1  0  0  0
 13  1  1  0  0  0
  1  2  1  0  0  0
  2  3  1  0  0  0
  3  4  1  0  0  0
  4 17  1  0  0  0
 17 18  1  0  0  0
 18 19  1  0  0  0
 19 21  1  0  0  0
 21 22  2  0  0  0
 22 23  1  0  0  0
 23 24  2  0  0  0
 28 24  1  0  0  0
 28 29  1  0  0  0
 29 30  1  0  0  0
 30 31  1  0  0  0
 31 32  1  0  0  0
 24 25  1  0  0  0
 25 26  2  0  0  0
 26 27  1  0  0  0
  4  5  1  0  0  0
  5  6  1  0  0  0
  6  7  1  0  0  0
  7  8  1  0  0  0
  7  9  1  0  0  0
  9 10  1  0  0  0
 11 10  1  0  0  0
 11  1  1  0  0  0
 26 21  1  0  0  0
 11  5  1  0  0  0
 32 28  1  0  0  0
 15 16  1  0  0  0
 19 20  1  0  0  0
  6 12  1  0  0  0
M  END
> <minimizedAffinity>
-5.95730

> <minimizedRMSD>
0.74854

$$$$
P2990


 28 32  0  0  0  0  0  0  0  0999 V2000
   -3.6574    6.0278  -18.1097 C   0  0  0  0  0  0  0  0  0  0  0  0
   -5.0427    5.6242  -17.7681 C   0  0  0  0  0  0  0  0  0  0  0  0
   -6.1923    5.6778  -18.5478 C   0  0  0  0  0  0  0  0  0  0  0  0
   -7.2623    5.1569  -17.7883 C   0  0  0  0  0  0  0  0  0  0  0  0
   -6.7389    4.8238  -16.5702 C   0  0  0  0  0  0  0  0  0  0  0  0
   -7.4126    4.2222  -15.4671 C   0  0  0  0  0  0  0  0  0  0  0  0
   -6.6388    3.9044  -14.4004 C   0  0  0  0  0  0  0  0  0  0  0  0
   -5.1991    4.2005  -14.3687 C   0  0  0  0  0  0  0  0  0  0  0  0
   -4.6146    4.7822  -15.4291 C   0  0  0  0  0  0  0  0  0  0  0  0
   -5.3915    5.0806  -16.5431 N   0  0  0  0  0  0  0  0  0  0  0  0
   -8.7808    4.0204  -15.6552 N   0  0  0  0  0  0  0  0  0  0  0  0
   -9.3659    4.0015  -17.0257 C   0  0  0  0  0  0  0  0  0  0  0  0
   -8.7034    4.9355  -18.0721 C   0  0  0  0  0  0  0  0  0  0  0  0
   -9.3656    3.8891  -14.8742 H   0  0  0  0  0  0  0  0  0  0  0  0
   -7.1971    3.2105  -13.2029 C   0  0  0  0  0  0  0  0  0  0  0  0
   -7.2102    2.0494  -13.0934 O   0  0  0  0  0  0  0  0  0  0  0  0
   -7.6085    4.3190  -12.1998 N   0  0  0  0  0  0  0  0  0  0  0  0
   -7.5768    5.2343  -12.5609 H   0  0  0  0  0  0  0  0  0  0  0  0
   -8.0152    4.2300  -10.8723 C   0  0  0  0  0  0  0  0  0  0  0  0
   -8.5683    3.0452  -10.3607 C   0  0  0  0  0  0  0  0  0  0  0  0
   -8.8739    2.9284   -9.0018 C   0  0  0  0  0  0  0  0  0  0  0  0
   -8.6417    4.0186   -8.1849 C   0  0  0  0  0  0  0  0  0  0  0  0
   -8.1218    5.2044   -8.6960 C   0  0  0  0  0  0  0  0  0  0  0  0
   -7.7947    5.3280  -10.0353 C   0  0  0  0  0  0  0  0  0  0  0  0
   -7.9753    6.1905   -7.5885 C   0  0  0  0  0  0  0  0  0  0  0  0
   -8.7572    5.6289   -6.4565 N   0  0  0  0  0  0  0  0  0  0  0  0
   -8.8496    4.1673   -6.7168 C   0  0  0  0  0  0  0  0  0  0  0  0
   -9.6883    6.0443   -6.4267 H   0  0  0  0  0  0  0  0  0  0  0  0
  1  2  1  0  0  0
  2  3  2  0  0  0
  3  4  1  0  0  0
  4  5  2  0  0  0
  5  6  1  0  0  0
  6  7  2  0  0  0
  7 15  1  0  0  0
 15 16  2  0  0  0
 15 17  1  0  0  0
 17 19  1  0  0  0
 19 20  2  0  0  0
 20 21  1  0  0  0
 21 22  2  0  0  0
 22 23  1  0  0  0
 23 24  2  0  0  0
 23 25  1  0  0  0
 25 26  1  0  0  0
 26 27  1  0  0  0
  7  8  1  0  0  0
  8  9  2  0  0  0
  9 10  1  0  0  0
  6 11  1  0  0  0
 11 12  1  0  0  0
 12 13  1  0  0  0
 10  2  1  0  0  0
 13  4  1  0  0  0
 10  5  1  0  0  0
 24 19  1  0  0  0
 27 22  1  0  0  0
 17 18  1  0  0  0
 26 28  1  0  0  0
 11 14  1  0  0  0
M  END
> <minimizedAffinity>
-8.26872

> <minimizedRMSD>
1.44371

$$$$
P2991


 25 27  0  0  0  0  0  0  0  0999 V2000
   -6.0075    6.0411  -16.5956 C   0  0  0  0  0  0  0  0  0  0  0  0
   -5.9833    6.7572  -15.3891 C   0  0  0  0  0  0  0  0  0  0  0  0
   -6.9675    6.5726  -14.4337 C   0  0  0  0  0  0  0  0  0  0  0  0
   -8.0095    5.6909  -14.6847 C   0  0  0  0  0  0  0  0  0  0  0  0
   -8.1780    5.1004  -15.9428 C   0  0  0  0  0  0  0  0  0  0  0  0
   -7.1863    5.3185  -16.9220 C   0  0  0  0  0  0  0  0  0  0  0  0
   -7.3926    4.7463  -18.3060 C   0  0  0  0  0  0  0  0  0  0  0  0
   -8.8443    4.3967  -18.6066 C   0  0  0  0  0  0  0  0  0  0  0  0
   -9.5180    3.6951  -17.4542 C   0  0  0  0  0  0  0  0  0  0  0  0
   -9.3681    4.4474  -16.2325 N   0  0  0  0  0  0  0  0  0  0  0  0
  -10.1183    4.4983  -15.5970 H   0  0  0  0  0  0  0  0  0  0  0  0
   -4.7939    6.0537  -17.5147 C   0  0  0  0  0  0  0  0  0  0  0  0
   -3.5053    4.4701  -16.1653 C   0  0  0  0  0  0  0  0  0  0  0  0
   -3.4944    5.7391  -16.8839 N   0  0  0  0  0  0  0  0  0  0  0  0
   -2.7813    5.6949  -17.6119 H   0  0  0  0  0  0  0  0  0  0  0  0
   -8.9089    5.4334  -13.6773 O   0  0  0  0  0  0  0  0  0  0  0  0
   -8.3328    4.4746  -12.7691 C   0  0  0  0  0  0  0  0  0  0  0  0
   -8.2884    5.0197  -11.4101 N   0  0  0  0  0  0  0  0  0  0  0  0
   -8.5243    5.9429  -11.1622 H   0  0  0  0  0  0  0  0  0  0  0  0
   -7.8604    4.0308  -10.5172 C   0  0  0  0  0  0  0  0  0  0  0  0
   -8.6411    3.6845   -9.4202 C   0  0  0  0  0  0  0  0  0  0  0  0
   -8.2355    2.6419   -8.6021 C   0  0  0  0  0  0  0  0  0  0  0  0
   -7.0535    1.9894   -8.9037 C   0  0  0  0  0  0  0  0  0  0  0  0
   -6.3172    2.4257   -9.9948 C   0  0  0  0  0  0  0  0  0  0  0  0
   -6.6861    3.4461  -10.8010 N   0  0  0  0  0  0  0  0  0  0  0  0
 13 14  1  0  0  0
 14 12  1  0  0  0
 12  1  1  0  0  0
  1  2  2  0  0  0
  2  3  1  0  0  0
  3  4  2  0  0  0
  4 16  1  0  0  0
 16 17  1  0  0  0
 17 18  1  0  0  0
 18 20  1  0  0  0
 20 21  2  0  0  0
 21 22  1  0  0  0
 22 23  2  0  0  0
 23 24  1  0  0  0
 24 25  2  0  0  0
  4  5  1  0  0  0
  5  6  2  0  0  0
  6  7  1  0  0  0
  7  8  1  0  0  0
  8  9  1  0  0  0
  9 10  1  0  0  0
  6  1  1  0  0  0
 25 20  1  0  0  0
 10  5  1  0  0  0
 14 15  1  0  0  0
 18 19  1  0  0  0
 10 11  1  0  0  0
M  END
> <minimizedAffinity>
-5.32065

> <minimizedRMSD>
0.58043

$$$$
P2992


 31 35  0  0  0  0  0  0  0  0999 V2000
   -5.8005    5.4336  -18.6789 C   0  0  0  0  0  0  0  0  0  0  0  0
   -4.8139    5.5409  -17.7822 N   0  0  0  0  0  0  0  0  0  0  0  0
   -5.3934    5.2561  -16.6041 N   0  0  0  0  0  0  0  0  0  0  0  0
   -4.8548    5.3871  -15.3325 C   0  0  0  0  0  0  0  0  0  0  0  0
   -5.6345    5.1360  -14.2714 C   0  0  0  0  0  0  0  0  0  0  0  0
   -7.0200    4.6883  -14.4886 C   0  0  0  0  0  0  0  0  0  0  0  0
   -7.5485    4.5320  -15.7203 C   0  0  0  0  0  0  0  0  0  0  0  0
   -6.6909    4.8603  -16.7931 C   0  0  0  0  0  0  0  0  0  0  0  0
   -6.9926    4.9232  -18.1183 C   0  0  0  0  0  0  0  0  0  0  0  0
   -8.3570    4.5388  -18.5738 C   0  0  0  0  0  0  0  0  0  0  0  0
   -9.3891    4.4250  -17.4143 C   0  0  0  0  0  0  0  0  0  0  0  0
   -8.8206    4.1147  -16.0900 N   0  0  0  0  0  0  0  0  0  0  0  0
   -9.3585    3.5964  -15.4488 H   0  0  0  0  0  0  0  0  0  0  0  0
   -7.8786    4.4593  -13.3062 C   0  0  0  0  0  0  0  0  0  0  0  0
   -8.8853    5.0209  -13.1155 O   0  0  0  0  0  0  0  0  0  0  0  0
   -7.1053    3.4533  -12.4168 N   0  0  0  0  0  0  0  0  0  0  0  0
   -6.3093    3.0568  -12.8392 H   0  0  0  0  0  0  0  0  0  0  0  0
   -7.3504    3.0238  -11.1320 C   0  0  0  0  0  0  0  0  0  0  0  0
   -6.3462    2.2948  -10.4843 C   0  0  0  0  0  0  0  0  0  0  0  0
   -6.4909    1.9531   -9.1432 C   0  0  0  0  0  0  0  0  0  0  0  0
   -7.6526    2.3164   -8.4886 C   0  0  0  0  0  0  0  0  0  0  0  0
   -8.6523    2.9869   -9.1657 C   0  0  0  0  0  0  0  0  0  0  0  0
   -8.5176    3.3763  -10.4766 C   0  0  0  0  0  0  0  0  0  0  0  0
   -9.7874    3.1806   -8.2434 C   0  0  0  0  0  0  0  0  0  0  0  0
   -9.5791    2.2641   -7.1146 N   0  0  0  0  0  0  0  0  0  0  0  0
   -8.1091    2.1501   -7.0731 C   0  0  0  0  0  0  0  0  0  0  0  0
  -10.0155    1.3586   -7.2881 H   0  0  0  0  0  0  0  0  0  0  0  0
   -5.6769    5.8252  -19.9519 N   0  0  0  0  0  0  0  0  0  0  0  0
   -6.0538    5.2499  -20.6564 H   0  0  0  0  0  0  0  0  0  0  0  0
   -5.7870    8.2823  -19.8944 C   0  0  0  0  0  0  0  0  0  0  0  0
   -5.0182    7.0503  -20.3458 C   0  0  0  0  0  0  0  0  0  0  0  0
 30 31  1  0  0  0
 31 28  1  0  0  0
 28  1  1  0  0  0
  1  2  2  0  0  0
  2  3  1  0  0  0
  3  4  1  0  0  0
  4  5  2  0  0  0
  5  6  1  0  0  0
  6 14  1  0  0  0
 14 15  2  0  0  0
 14 16  1  0  0  0
 16 18  1  0  0  0
 18 19  2  0  0  0
 19 20  1  0  0  0
 20 21  2  0  0  0
 21 22  1  0  0  0
 22 23  2  0  0  0
 22 24  1  0  0  0
 24 25  1  0  0  0
 25 26  1  0  0  0
  6  7  2  0  0  0
  7  8  1  0  0  0
  8  9  2  0  0  0
  9 10  1  0  0  0
 10 11  1  0  0  0
 11 12  1  0  0  0
  9  1  1  0  0  0
  8  3  1  0  0  0
 23 18  1  0  0  0
 12  7  1  0  0  0
 26 21  1  0  0  0
 28 29  1  0  0  0
 16 17  1  0  0  0
 25 27  1  0  0  0
 12 13  1  0  0  0
M  END
> <minimizedAffinity>
-6.39870

> <minimizedRMSD>
0.34414

$$$$
P2997


 31 35  0  0  0  0  0  0  0  0999 V2000
   -4.9769    5.0728  -18.1383 C   0  0  0  0  0  0  0  0  0  0  0  0
   -6.1409    5.0687  -18.9006 C   0  0  0  0  0  0  0  0  0  0  0  0
   -7.2308    4.8323  -18.0457 C   0  0  0  0  0  0  0  0  0  0  0  0
   -6.7145    4.7245  -16.7864 C   0  0  0  0  0  0  0  0  0  0  0  0
   -7.4178    4.3936  -15.5922 C   0  0  0  0  0  0  0  0  0  0  0  0
   -6.6539    4.2009  -14.4911 C   0  0  0  0  0  0  0  0  0  0  0  0
   -5.2012    4.4107  -14.5065 C   0  0  0  0  0  0  0  0  0  0  0  0
   -4.5863    4.7321  -15.6574 C   0  0  0  0  0  0  0  0  0  0  0  0
   -5.3493    4.8625  -16.8153 N   0  0  0  0  0  0  0  0  0  0  0  0
   -8.7981    4.2484  -15.7477 N   0  0  0  0  0  0  0  0  0  0  0  0
   -9.3821    3.9736  -17.0928 C   0  0  0  0  0  0  0  0  0  0  0  0
   -8.6810    4.6494  -18.2933 C   0  0  0  0  0  0  0  0  0  0  0  0
   -9.3896    4.3280  -14.9647 H   0  0  0  0  0  0  0  0  0  0  0  0
   -3.3447    4.8959  -19.9736 N   0  0  0  0  0  0  0  0  0  0  0  0
   -3.5571    5.1518  -18.5512 C   0  0  0  0  0  0  0  0  0  0  0  0
   -2.3497    4.9662  -20.1868 H   0  0  0  0  0  0  0  0  0  0  0  0
   -3.8596    5.5836  -20.5234 H   0  0  0  0  0  0  0  0  0  0  0  0
   -7.2440    3.7586  -13.1975 C   0  0  0  0  0  0  0  0  0  0  0  0
   -7.3610    2.6364  -12.8983 O   0  0  0  0  0  0  0  0  0  0  0  0
   -7.5294    5.0483  -12.3886 N   0  0  0  0  0  0  0  0  0  0  0  0
   -7.4219    5.8852  -12.8957 H   0  0  0  0  0  0  0  0  0  0  0  0
   -7.9123    5.2159  -11.0643 C   0  0  0  0  0  0  0  0  0  0  0  0
   -7.8972    4.1423  -10.1590 C   0  0  0  0  0  0  0  0  0  0  0  0
   -8.1669    4.3483   -8.8037 C   0  0  0  0  0  0  0  0  0  0  0  0
   -8.4643    5.6319   -8.3893 C   0  0  0  0  0  0  0  0  0  0  0  0
   -8.5134    6.6905   -9.2932 C   0  0  0  0  0  0  0  0  0  0  0  0
   -8.2350    6.5049  -10.6342 C   0  0  0  0  0  0  0  0  0  0  0  0
   -8.8608    7.9417   -8.5637 C   0  0  0  0  0  0  0  0  0  0  0  0
   -9.3564    7.4886   -7.2400 N   0  0  0  0  0  0  0  0  0  0  0  0
   -8.7561    6.1468   -7.0218 C   0  0  0  0  0  0  0  0  0  0  0  0
  -10.3745    7.4260   -7.2442 H   0  0  0  0  0  0  0  0  0  0  0  0
 14 15  1  0  0  0
 15  1  1  0  0  0
  1  2  2  0  0  0
  2  3  1  0  0  0
  3  4  2  0  0  0
  4  5  1  0  0  0
  5  6  2  0  0  0
  6 18  1  0  0  0
 18 19  2  0  0  0
 18 20  1  0  0  0
 20 22  1  0  0  0
 22 23  2  0  0  0
 23 24  1  0  0  0
 24 25  2  0  0  0
 25 26  1  0  0  0
 26 27  2  0  0  0
 26 28  1  0  0  0
 28 29  1  0  0  0
 29 30  1  0  0  0
  6  7  1  0  0  0
  7  8  2  0  0  0
  8  9  1  0  0  0
  5 10  1  0  0  0
 10 11  1  0  0  0
 11 12  1  0  0  0
  9  1  1  0  0  0
 12  3  1  0  0  0
  9  4  1  0  0  0
 27 22  1  0  0  0
 30 25  1  0  0  0
 14 16  1  0  0  0
 14 17  1  0  0  0
 20 21  1  0  0  0
 29 31  1  0  0  0
 10 13  1  0  0  0
M  END
> <minimizedAffinity>
-8.00723

> <minimizedRMSD>
0.61497

$$$$
P3317


 20 21  0  0  0  0  0  0  0  0999 V2000
   -7.5438    4.7121  -14.4671 C   0  0  0  0  0  0  0  0  0  0  0  0
   -8.3471    4.4422  -15.5596 C   0  0  0  0  0  0  0  0  0  0  0  0
   -7.8055    4.3692  -16.8432 C   0  0  0  0  0  0  0  0  0  0  0  0
   -6.4449    4.6005  -17.0593 C   0  0  0  0  0  0  0  0  0  0  0  0
   -5.9612    4.6059  -18.3017 N   0  0  0  0  0  0  0  0  0  0  0  0
   -4.6683    4.8886  -18.5126 C   0  0  0  0  0  0  0  0  0  0  0  0
   -3.7603    5.0975  -17.5078 C   0  0  0  0  0  0  0  0  0  0  0  0
   -4.2316    5.1327  -16.2025 C   0  0  0  0  0  0  0  0  0  0  0  0
   -3.2794    5.2663  -15.1743 N   0  0  0  0  0  0  0  0  0  0  0  0
   -5.6049    4.8660  -15.9502 C   0  0  0  0  0  0  0  0  0  0  0  0
   -6.1752    4.8947  -14.6560 C   0  0  0  0  0  0  0  0  0  0  0  0
   -2.3382    5.4512  -15.3959 H   0  0  0  0  0  0  0  0  0  0  0  0
   -3.5548    5.1749  -14.2335 H   0  0  0  0  0  0  0  0  0  0  0  0
   -8.6071    5.0092  -12.1242 N   0  0  0  0  0  0  0  0  0  0  0  0
   -8.1354    4.8497  -13.1724 C   0  0  0  0  0  0  0  0  0  0  0  0
   -8.7564    4.0523  -17.7689 O   0  0  0  0  0  0  0  0  0  0  0  0
   -9.3741    5.0718  -18.5267 C   0  0  0  0  0  0  0  0  0  0  0  0
   -8.7132    6.2350  -18.5135 F   0  0  0  0  0  0  0  0  0  0  0  0
   -9.5853    4.6577  -19.7843 F   0  0  0  0  0  0  0  0  0  0  0  0
  -10.5701    5.3026  -17.9376 F   0  0  0  0  0  0  0  0  0  0  0  0
 14 15  3  0  0  0
 15  1  1  0  0  0
  1  2  2  0  0  0
  2  3  1  0  0  0
  3 16  1  0  0  0
 16 17  1  0  0  0
 17 18  1  0  0  0
 17 19  1  0  0  0
 17 20  1  0  0  0
  3  4  2  0  0  0
  4  5  1  0  0  0
  5  6  2  0  0  0
  6  7  1  0  0  0
  7  8  2  0  0  0
  8  9  1  0  0  0
  8 10  1  0  0  0
 10 11  2  0  0  0
 11  1  1  0  0  0
 10  4  1  0  0  0
  9 12  1  0  0  0
  9 13  1  0  0  0
M  END
> <minimizedAffinity>
-5.43216

> <minimizedRMSD>
1.14668

$$$$
P3371


 29 32  0  0  0  0  0  0  0  0999 V2000
   -8.7215    4.7261  -17.4378 C   0  0  0  0  0  0  0  0  0  0  0  0
   -8.5547    4.3839  -16.0314 C   0  0  0  0  0  0  0  0  0  0  0  0
   -7.3217    4.3477  -15.4945 C   0  0  0  0  0  0  0  0  0  0  0  0
   -6.2259    4.6873  -16.2747 N   0  0  0  0  0  0  0  0  0  0  0  0
   -4.9311    4.8126  -15.9117 N   0  0  0  0  0  0  0  0  0  0  0  0
   -4.3163    5.1358  -17.0612 C   0  0  0  0  0  0  0  0  0  0  0  0
   -5.1762    5.3363  -18.1237 N   0  0  0  0  0  0  0  0  0  0  0  0
   -6.3529    5.0387  -17.6237 C   0  0  0  0  0  0  0  0  0  0  0  0
   -7.6528    5.0278  -18.2025 C   0  0  0  0  0  0  0  0  0  0  0  0
   -7.1890    3.8424  -14.1073 C   0  0  0  0  0  0  0  0  0  0  0  0
   -6.6989    2.8112  -13.8666 O   0  0  0  0  0  0  0  0  0  0  0  0
   -7.8881    4.8632  -13.1760 N   0  0  0  0  0  0  0  0  0  0  0  0
   -8.2916    5.6335  -13.6377 H   0  0  0  0  0  0  0  0  0  0  0  0
   -8.0384    4.8685  -11.7955 C   0  0  0  0  0  0  0  0  0  0  0  0
   -7.8484    6.0745  -11.1026 C   0  0  0  0  0  0  0  0  0  0  0  0
   -7.9611    6.1142   -9.7107 C   0  0  0  0  0  0  0  0  0  0  0  0
   -8.2962    4.9469   -9.0460 C   0  0  0  0  0  0  0  0  0  0  0  0
   -8.5325    3.7664   -9.7391 C   0  0  0  0  0  0  0  0  0  0  0  0
   -8.3919    3.7020  -11.1141 C   0  0  0  0  0  0  0  0  0  0  0  0
   -8.9625    2.7003   -8.7889 C   0  0  0  0  0  0  0  0  0  0  0  0
   -8.7509    3.2637   -7.4283 N   0  0  0  0  0  0  0  0  0  0  0  0
   -8.4938    4.7099   -7.5885 C   0  0  0  0  0  0  0  0  0  0  0  0
   -7.9503    2.8137   -6.9845 H   0  0  0  0  0  0  0  0  0  0  0  0
   -2.8206    5.2673  -17.1720 C   0  0  0  0  0  0  0  0  0  0  0  0
   -2.3201    4.4663  -18.1490 F   0  0  0  0  0  0  0  0  0  0  0  0
   -2.4339    6.5374  -17.4740 F   0  0  0  0  0  0  0  0  0  0  0  0
   -2.1790    4.9251  -16.0206 F   0  0  0  0  0  0  0  0  0  0  0  0
  -11.1430    4.7872  -18.3154 N   0  0  0  0  0  0  0  0  0  0  0  0
  -10.0431    4.7493  -17.9611 C   0  0  0  0  0  0  0  0  0  0  0  0
 28 29  3  0  0  0
 29  1  1  0  0  0
  1  2  1  0  0  0
  2  3  2  0  0  0
  3 10  1  0  0  0
 10 11  2  0  0  0
 10 12  1  0  0  0
 12 14  1  0  0  0
 14 15  2  0  0  0
 15 16  1  0  0  0
 16 17  2  0  0  0
 17 18  1  0  0  0
 18 19  2  0  0  0
 18 20  1  0  0  0
 20 21  1  0  0  0
 21 22  1  0  0  0
  3  4  1  0  0  0
  4  5  1  0  0  0
  5  6  2  0  0  0
  6 24  1  0  0  0
 24 25  1  0  0  0
 24 26  1  0  0  0
 24 27  1  0  0  0
  6  7  1  0  0  0
  7  8  2  0  0  0
  8  9  1  0  0  0
  9  1  2  0  0  0
 19 14  1  0  0  0
  8  4  1  0  0  0
 22 17  1  0  0  0
 12 13  1  0  0  0
 21 23  1  0  0  0
M  END
> <minimizedAffinity>
-8.00483

> <minimizedRMSD>
0.41004

$$$$
P3373


 25 28  0  0  0  0  0  0  0  0999 V2000
   -6.9843    5.4570  -13.9576 C   0  0  0  0  0  0  0  0  0  0  0  0
   -6.1397    6.2096  -13.6633 O   0  0  0  0  0  0  0  0  0  0  0  0
   -8.0271    4.7183  -13.0740 N   0  0  0  0  0  0  0  0  0  0  0  0
   -8.6900    4.1891  -13.5737 H   0  0  0  0  0  0  0  0  0  0  0  0
   -8.1769    4.6830  -11.6845 C   0  0  0  0  0  0  0  0  0  0  0  0
   -7.9874    5.8408  -10.9105 C   0  0  0  0  0  0  0  0  0  0  0  0
   -8.0998    5.8050   -9.5156 C   0  0  0  0  0  0  0  0  0  0  0  0
   -8.4138    4.6015   -8.9158 C   0  0  0  0  0  0  0  0  0  0  0  0
   -8.6064    3.4517   -9.6756 C   0  0  0  0  0  0  0  0  0  0  0  0
   -8.4940    3.4727  -11.0595 C   0  0  0  0  0  0  0  0  0  0  0  0
   -8.8834    2.3110   -8.7511 C   0  0  0  0  0  0  0  0  0  0  0  0
   -9.2308    2.9394   -7.4509 N   0  0  0  0  0  0  0  0  0  0  0  0
   -8.5769    4.2671   -7.4699 C   0  0  0  0  0  0  0  0  0  0  0  0
   -8.8761    2.3779   -6.6768 H   0  0  0  0  0  0  0  0  0  0  0  0
   -8.6101    4.7855  -17.3159 C   0  0  0  0  0  0  0  0  0  0  0  0
   -8.4268    4.9559  -15.8761 C   0  0  0  0  0  0  0  0  0  0  0  0
   -7.1768    5.0746  -15.3854 C   0  0  0  0  0  0  0  0  0  0  0  0
   -6.0889    5.0177  -16.2672 N   0  0  0  0  0  0  0  0  0  0  0  0
   -4.7586    5.0811  -16.0101 N   0  0  0  0  0  0  0  0  0  0  0  0
   -4.2158    5.0154  -17.2210 C   0  0  0  0  0  0  0  0  0  0  0  0
   -5.0821    4.8688  -18.2525 N   0  0  0  0  0  0  0  0  0  0  0  0
   -6.2497    4.8628  -17.6513 C   0  0  0  0  0  0  0  0  0  0  0  0
   -7.5649    4.7550  -18.1638 C   0  0  0  0  0  0  0  0  0  0  0  0
  -10.9998    4.6684  -18.2413 N   0  0  0  0  0  0  0  0  0  0  0  0
   -9.9232    4.7083  -17.8317 C   0  0  0  0  0  0  0  0  0  0  0  0
 24 25  3  0  0  0
 25 15  1  0  0  0
 15 16  1  0  0  0
 16 17  2  0  0  0
 17  1  1  0  0  0
  1  2  2  0  0  0
  1  3  1  0  0  0
  3  5  1  0  0  0
  5  6  2  0  0  0
  6  7  1  0  0  0
  7  8  2  0  0  0
  8  9  1  0  0  0
  9 10  2  0  0  0
  9 11  1  0  0  0
 11 12  1  0  0  0
 12 13  1  0  0  0
 17 18  1  0  0  0
 18 19  1  0  0  0
 19 20  2  0  0  0
 20 21  1  0  0  0
 21 22  2  0  0  0
 22 23  1  0  0  0
 23 15  2  0  0  0
 10  5  1  0  0  0
 22 18  1  0  0  0
 13  8  1  0  0  0
  3  4  1  0  0  0
 12 14  1  0  0  0
M  END
> <minimizedAffinity>
-7.50462

> <minimizedRMSD>
0.75701

$$$$
P3437


 16 16  0  0  0  0  0  0  0  0999 V2000
   -6.5233    6.0283  -16.7375 N   0  0  0  0  0  0  0  0  0  0  0  0
   -5.5420    7.0848  -16.5029 C   0  0  0  0  0  0  0  0  0  0  0  0
   -4.3616    6.8212  -17.3453 N   0  0  0  0  0  0  0  0  0  0  0  0
   -3.2624    6.3012  -16.5349 C   0  0  0  0  0  0  0  0  0  0  0  0
   -4.8479    5.8961  -18.4008 C   0  0  0  0  0  0  0  0  0  0  0  0
   -5.5203    6.7478  -19.5077 C   0  0  0  0  0  0  0  0  0  0  0  0
   -5.8965    5.0686  -17.6395 C   0  0  0  0  0  0  0  0  0  0  0  0
   -3.8418    4.9174  -19.0498 C   0  0  0  0  0  0  0  0  0  0  0  0
   -2.5989    5.6529  -20.1686 S   0  0  0  0  0  0  0  0  0  0  0  0
   -3.2256    6.2071  -21.2408 H   0  0  0  0  0  0  0  0  0  0  0  0
   -6.4806    4.2743  -14.9037 C   0  0  0  0  0  0  0  0  0  0  0  0
   -7.1780    5.4842  -15.5373 C   0  0  0  0  0  0  0  0  0  0  0  0
   -8.7122    5.2206  -15.6673 C   0  0  0  0  0  0  0  0  0  0  0  0
   -9.1693    3.9845  -16.3067 N   0  0  0  0  0  0  0  0  0  0  0  0
   -8.8960    3.9888  -17.2894 H   0  0  0  0  0  0  0  0  0  0  0  0
  -10.1849    3.9209  -16.2366 H   0  0  0  0  0  0  0  0  0  0  0  0
 12 11  1  0  0  0
 12 13  1  0  0  0
 13 14  1  0  0  0
 12  1  1  0  0  0
  1  2  1  0  0  0
  2  3  1  0  0  0
  3  4  1  0  0  0
  3  5  1  0  0  0
  5  6  1  0  0  0
  5  8  1  0  0  0
  8  9  1  0  0  0
  5  7  1  0  0  0
  7  1  1  0  0  0
 14 15  1  0  0  0
 14 16  1  0  0  0
  9 10  1  0  0  0
M  END
> <minimizedAffinity>
-3.58105

> <minimizedRMSD>
0.80568

$$$$
P3495


 26 28  0  0  0  0  0  0  0  0999 V2000
   -7.9251    5.7614  -12.5080 C   0  0  0  0  0  0  0  0  0  0  0  0
   -8.3576    6.8295  -12.3047 O   0  0  0  0  0  0  0  0  0  0  0  0
   -7.6989    4.5669  -11.5424 N   0  0  0  0  0  0  0  0  0  0  0  0
   -7.2450    3.7916  -11.9451 H   0  0  0  0  0  0  0  0  0  0  0  0
   -8.0233    4.6406  -17.0645 C   0  0  0  0  0  0  0  0  0  0  0  0
   -8.7286    4.6214  -15.9317 C   0  0  0  0  0  0  0  0  0  0  0  0
   -8.5243    4.9098  -14.6538 C   0  0  0  0  0  0  0  0  0  0  0  0
   -7.5036    5.3507  -13.9214 C   0  0  0  0  0  0  0  0  0  0  0  0
   -6.2190    5.6257  -14.1468 C   0  0  0  0  0  0  0  0  0  0  0  0
   -5.3968    5.5629  -15.1886 C   0  0  0  0  0  0  0  0  0  0  0  0
   -5.5134    5.2159  -16.4878 N   0  0  0  0  0  0  0  0  0  0  0  0
   -6.5017    4.8174  -17.3195 C   0  0  0  0  0  0  0  0  0  0  0  0
   -6.1632    4.5333  -18.4694 O   0  0  0  0  0  0  0  0  0  0  0  0
   -4.6478    5.2667  -16.9540 H   0  0  0  0  0  0  0  0  0  0  0  0
  -10.1225    4.6742  -18.3923 C   0  0  0  0  0  0  0  0  0  0  0  0
   -8.7947    4.5134  -18.3041 C   0  0  0  0  0  0  0  0  0  0  0  0
   -8.0333    4.4140  -10.2007 C   0  0  0  0  0  0  0  0  0  0  0  0
   -7.8547    5.4623   -9.2859 C   0  0  0  0  0  0  0  0  0  0  0  0
   -8.1542    5.2889   -7.9315 C   0  0  0  0  0  0  0  0  0  0  0  0
   -8.6347    4.0608   -7.5188 C   0  0  0  0  0  0  0  0  0  0  0  0
   -8.8368    3.0301   -8.4278 C   0  0  0  0  0  0  0  0  0  0  0  0
   -8.5492    3.1905   -9.7738 C   0  0  0  0  0  0  0  0  0  0  0  0
   -9.2958    1.8151   -7.6960 C   0  0  0  0  0  0  0  0  0  0  0  0
   -9.6142    2.2692   -6.3197 N   0  0  0  0  0  0  0  0  0  0  0  0
   -8.9633    3.5813   -6.1459 C   0  0  0  0  0  0  0  0  0  0  0  0
   -9.2517    1.6036   -5.6371 H   0  0  0  0  0  0  0  0  0  0  0  0
 15 16  2  0  0  0
 16  5  1  0  0  0
  5  6  2  0  0  0
  6  7  1  0  0  0
  7  8  2  0  0  0
  8  1  1  0  0  0
  1  2  2  0  0  0
  1  3  1  0  0  0
  3 17  1  0  0  0
 17 18  2  0  0  0
 18 19  1  0  0  0
 19 20  2  0  0  0
 20 21  1  0  0  0
 21 22  2  0  0  0
 21 23  1  0  0  0
 23 24  1  0  0  0
 24 25  1  0  0  0
  8  9  1  0  0  0
  9 10  2  0  0  0
 10 11  1  0  0  0
 11 12  1  0  0  0
 12 13  2  0  0  0
 12  5  1  0  0  0
 22 17  1  0  0  0
 25 20  1  0  0  0
  3  4  1  0  0  0
 24 26  1  0  0  0
 11 14  1  0  0  0
M  END
> <minimizedAffinity>
-7.44071

> <minimizedRMSD>
0.89754

$$$$
P3534


 33 38  0  0  0  0  0  0  0  0999 V2000
   -7.0120    4.7865  -14.3036 C   0  0  0  0  0  0  0  0  0  0  0  0
   -8.2874    4.5981  -14.7462 C   0  0  0  0  0  0  0  0  0  0  0  0
   -8.5409    4.5065  -16.1435 C   0  0  0  0  0  0  0  0  0  0  0  0
   -9.5709    4.4380  -17.0698 C   0  0  0  0  0  0  0  0  0  0  0  0
   -8.9904    4.5223  -18.3901 C   0  0  0  0  0  0  0  0  0  0  0  0
   -7.6403    4.5866  -18.2163 C   0  0  0  0  0  0  0  0  0  0  0  0
   -6.3617    4.7169  -18.7979 C   0  0  0  0  0  0  0  0  0  0  0  0
   -5.4429    4.8412  -17.8039 C   0  0  0  0  0  0  0  0  0  0  0  0
   -6.1244    4.7673  -16.5297 C   0  0  0  0  0  0  0  0  0  0  0  0
   -5.8541    4.8720  -15.2228 C   0  0  0  0  0  0  0  0  0  0  0  0
   -7.4255    4.5863  -16.8935 N   0  0  0  0  0  0  0  0  0  0  0  0
   -5.9871    5.8630  -12.5121 O   0  0  0  0  0  0  0  0  0  0  0  0
   -6.8153    5.1132  -12.8541 C   0  0  0  0  0  0  0  0  0  0  0  0
   -7.8931    4.3641  -12.0316 N   0  0  0  0  0  0  0  0  0  0  0  0
   -8.5310    3.8403  -12.5682 H   0  0  0  0  0  0  0  0  0  0  0  0
   -8.1061    4.3112  -10.6591 C   0  0  0  0  0  0  0  0  0  0  0  0
   -7.9408    5.4471   -9.8499 C   0  0  0  0  0  0  0  0  0  0  0  0
   -8.1899    5.3863   -8.4749 C   0  0  0  0  0  0  0  0  0  0  0  0
   -8.5955    4.1787   -7.9394 C   0  0  0  0  0  0  0  0  0  0  0  0
   -8.7416    3.0502   -8.7407 C   0  0  0  0  0  0  0  0  0  0  0  0
   -8.5148    3.0998  -10.1031 C   0  0  0  0  0  0  0  0  0  0  0  0
   -9.1062    1.8876   -7.8813 C   0  0  0  0  0  0  0  0  0  0  0  0
   -9.5832    2.4923   -6.6115 N   0  0  0  0  0  0  0  0  0  0  0  0
   -8.9149    3.8111   -6.5289 C   0  0  0  0  0  0  0  0  0  0  0  0
   -9.3203    1.9087   -5.8174 H   0  0  0  0  0  0  0  0  0  0  0  0
   -3.9882    5.0183  -17.9643 C   0  0  0  0  0  0  0  0  0  0  0  0
   -3.5916    6.2630  -18.7884 C   0  0  0  0  0  0  0  0  0  0  0  0
   -2.0614    6.2833  -18.9808 C   0  0  0  0  0  0  0  0  0  0  0  0
   -1.5322    7.7055  -19.1295 C   0  0  0  0  0  0  0  0  0  0  0  0
   -1.7776    8.5105  -17.9331 N   0  0  0  0  0  0  0  0  0  0  0  0
   -3.0433    8.2134  -17.2593 C   0  0  0  0  0  0  0  0  0  0  0  0
   -4.0880    7.5900  -18.1801 C   0  0  0  0  0  0  0  0  0  0  0  0
   -1.7828    9.4937  -18.2045 H   0  0  0  0  0  0  0  0  0  0  0  0
 12 13  2  0  0  0
 13 14  1  0  0  0
 14 16  1  0  0  0
 16 17  2  0  0  0
 17 18  1  0  0  0
 18 19  2  0  0  0
 19 20  1  0  0  0
 20 21  2  0  0  0
 20 22  1  0  0  0
 22 23  1  0  0  0
 23 24  1  0  0  0
 13  1  1  0  0  0
  1  2  2  0  0  0
  2  3  1  0  0  0
  3  4  2  0  0  0
  4  5  1  0  0  0
  5  6  2  0  0  0
  6  7  1  0  0  0
  7  8  2  0  0  0
  8 26  1  0  0  0
 26 27  1  0  0  0
 27 28  1  0  0  0
 28 29  1  0  0  0
 29 30  1  0  0  0
 30 31  1  0  0  0
 31 32  1  0  0  0
  8  9  1  0  0  0
  9 10  2  0  0  0
  9 11  1  0  0  0
 21 16  1  0  0  0
 10  1  1  0  0  0
 24 19  1  0  0  0
 11  3  1  0  0  0
 11  6  1  0  0  0
 32 27  1  0  0  0
 14 15  1  0  0  0
 23 25  1  0  0  0
 30 33  1  0  0  0
M  END
> <minimizedAffinity>
-8.00108

> <minimizedRMSD>
0.59584

$$$$
P3669


 25 28  0  0  0  0  0  0  0  0999 V2000
   -3.5447    5.5780  -17.1367 C   0  0  0  0  0  0  0  0  0  0  0  0
   -4.9473    5.3720  -17.5466 C   0  0  0  0  0  0  0  0  0  0  0  0
   -5.4577    5.3678  -18.7923 C   0  0  0  0  0  0  0  0  0  0  0  0
   -6.8726    5.0585  -18.7392 C   0  0  0  0  0  0  0  0  0  0  0  0
   -7.2525    4.9136  -17.4638 C   0  0  0  0  0  0  0  0  0  0  0  0
   -8.5033    4.5669  -16.8648 C   0  0  0  0  0  0  0  0  0  0  0  0
  -10.0021    4.3326  -17.9338 Br  0  0  0  0  0  0  0  0  0  0  0  0
   -8.4809    4.3705  -15.5344 C   0  0  0  0  0  0  0  0  0  0  0  0
   -7.3402    4.4856  -14.7228 N   0  0  0  0  0  0  0  0  0  0  0  0
   -7.3197    3.7567  -13.4898 C   0  0  0  0  0  0  0  0  0  0  0  0
   -7.0703    2.6160  -13.3932 O   0  0  0  0  0  0  0  0  0  0  0  0
   -7.7290    4.8003  -12.3987 N   0  0  0  0  0  0  0  0  0  0  0  0
   -6.1319    4.8072  -15.3522 C   0  0  0  0  0  0  0  0  0  0  0  0
   -6.0526    5.0667  -16.6650 C   0  0  0  0  0  0  0  0  0  0  0  0
   -7.8124    5.7258  -12.7238 H   0  0  0  0  0  0  0  0  0  0  0  0
   -7.9947    4.6321  -11.0415 C   0  0  0  0  0  0  0  0  0  0  0  0
   -8.0646    5.7707  -10.2199 C   0  0  0  0  0  0  0  0  0  0  0  0
   -8.2942    5.6463   -8.8442 C   0  0  0  0  0  0  0  0  0  0  0  0
   -8.5079    4.3808   -8.3252 C   0  0  0  0  0  0  0  0  0  0  0  0
   -8.4856    3.2600   -9.1456 C   0  0  0  0  0  0  0  0  0  0  0  0
   -8.2007    3.3620  -10.4991 C   0  0  0  0  0  0  0  0  0  0  0  0
   -8.7881    2.0411   -8.3392 C   0  0  0  0  0  0  0  0  0  0  0  0
   -9.1771    2.5371   -6.9896 N   0  0  0  0  0  0  0  0  0  0  0  0
   -8.7695    3.9543   -6.9201 C   0  0  0  0  0  0  0  0  0  0  0  0
   -8.6993    1.9988   -6.2669 H   0  0  0  0  0  0  0  0  0  0  0  0
  1  2  1  0  0  0
  2  3  2  0  0  0
  3  4  1  0  0  0
  4  5  2  0  0  0
  5  6  1  0  0  0
  6  7  1  0  0  0
  6  8  2  0  0  0
  8  9  1  0  0  0
  9 10  1  0  0  0
 10 11  2  0  0  0
 10 12  1  0  0  0
 12 16  1  0  0  0
 16 17  2  0  0  0
 17 18  1  0  0  0
 18 19  2  0  0  0
 19 20  1  0  0  0
 20 21  2  0  0  0
 20 22  1  0  0  0
 22 23  1  0  0  0
 23 24  1  0  0  0
  9 13  1  0  0  0
 13 14  2  0  0  0
 14  2  1  0  0  0
 14  5  1  0  0  0
 21 16  1  0  0  0
 24 19  1  0  0  0
 12 15  1  0  0  0
 23 25  1  0  0  0
M  END
> <minimizedAffinity>
-8.41634

> <minimizedRMSD>
0.06561

$$$$
P3756


 26 29  0  0  0  0  0  0  0  0999 V2000
   -8.7312    4.8591  -14.4010 C   0  0  0  0  0  0  0  0  0  0  0  0
   -9.4693    5.7691  -14.3600 O   0  0  0  0  0  0  0  0  0  0  0  0
   -8.1422    3.9797  -13.2485 N   0  0  0  0  0  0  0  0  0  0  0  0
   -7.5966    3.2173  -13.5491 H   0  0  0  0  0  0  0  0  0  0  0  0
   -6.6493    5.5518  -17.2433 C   0  0  0  0  0  0  0  0  0  0  0  0
   -6.6801    4.8724  -15.8865 C   0  0  0  0  0  0  0  0  0  0  0  0
   -8.1034    4.3423  -15.7251 C   0  0  0  0  0  0  0  0  0  0  0  0
   -8.8573    4.8933  -16.8468 N   0  0  0  0  0  0  0  0  0  0  0  0
   -9.7708    3.9917  -17.5258 C   0  0  0  0  0  0  0  0  0  0  0  0
   -9.0419    3.3360  -18.6076 N   0  0  0  0  0  0  0  0  0  0  0  0
   -7.8848    4.1617  -18.8238 N   0  0  0  0  0  0  0  0  0  0  0  0
   -7.9209    5.2159  -17.8701 N   0  0  0  0  0  0  0  0  0  0  0  0
   -9.6139    3.2911  -19.4508 H   0  0  0  0  0  0  0  0  0  0  0  0
   -7.9046    4.5468  -19.7681 H   0  0  0  0  0  0  0  0  0  0  0  0
   -4.8733    6.1221  -18.9365 C   0  0  0  0  0  0  0  0  0  0  0  0
   -5.4359    5.2649  -18.0727 C   0  0  0  0  0  0  0  0  0  0  0  0
   -8.2647    4.1008  -11.8655 C   0  0  0  0  0  0  0  0  0  0  0  0
   -7.9937    5.2922  -11.1820 C   0  0  0  0  0  0  0  0  0  0  0  0
   -8.0623    5.4389   -9.8306 N   0  0  0  0  0  0  0  0  0  0  0  0
   -8.4323    4.3290   -9.1641 C   0  0  0  0  0  0  0  0  0  0  0  0
   -8.7294    3.1159   -9.7498 C   0  0  0  0  0  0  0  0  0  0  0  0
   -8.6442    2.9830  -11.1229 C   0  0  0  0  0  0  0  0  0  0  0  0
   -9.1009    2.1200   -8.7104 C   0  0  0  0  0  0  0  0  0  0  0  0
   -9.0589    2.8261   -7.4013 N   0  0  0  0  0  0  0  0  0  0  0  0
   -8.5853    4.2064   -7.6756 C   0  0  0  0  0  0  0  0  0  0  0  0
   -8.4150    2.3530   -6.7673 H   0  0  0  0  0  0  0  0  0  0  0  0
 15 16  2  0  0  0
  5 16  1  0  0  0
  5  6  1  0  0  0
  6  7  1  0  0  0
  7  1  1  0  0  0
  1  2  2  0  0  0
  1  3  1  0  0  0
  3 17  1  0  0  0
 17 18  2  0  0  0
 18 19  1  0  0  0
 19 20  2  0  0  0
 20 21  1  0  0  0
 21 22  2  0  0  0
 21 23  1  0  0  0
 23 24  1  0  0  0
 24 25  1  0  0  0
  7  8  1  0  0  0
  8  9  1  0  0  0
  9 10  1  0  0  0
 10 11  1  0  0  0
 11 12  1  0  0  0
 12  5  1  0  0  0
 22 17  1  0  0  0
 12  8  1  0  0  0
 25 20  1  0  0  0
  3  4  1  0  0  0
 24 26  1  0  0  0
 10 13  1  0  0  0
 11 14  1  0  0  0
M  END
> <minimizedAffinity>
-8.57114

> <minimizedRMSD>
0.81857

$$$$
P3795


 28 31  0  0  0  0  0  0  0  0999 V2000
   -7.8571    4.6918  -16.0190 C   0  0  0  0  0  0  0  0  0  0  0  0
   -8.6278    5.3297  -14.8751 C   0  0  0  0  0  0  0  0  0  0  0  0
   -7.5571    5.6603  -13.8466 C   0  0  0  0  0  0  0  0  0  0  0  0
   -6.2646    5.7752  -14.5637 N   0  0  0  0  0  0  0  0  0  0  0  0
   -5.1414    5.1142  -13.9206 C   0  0  0  0  0  0  0  0  0  0  0  0
   -6.5090    5.4735  -15.9978 C   0  0  0  0  0  0  0  0  0  0  0  0
   -5.3712    4.8215  -16.7823 C   0  0  0  0  0  0  0  0  0  0  0  0
   -4.4579    5.9508  -17.2176 C   0  0  0  0  0  0  0  0  0  0  0  0
   -5.1351    7.1905  -16.8217 N   0  0  0  0  0  0  0  0  0  0  0  0
   -6.5472    6.8042  -16.6454 N   0  0  0  0  0  0  0  0  0  0  0  0
   -5.0439    7.8988  -17.5500 H   0  0  0  0  0  0  0  0  0  0  0  0
   -7.0181    6.7488  -17.5486 H   0  0  0  0  0  0  0  0  0  0  0  0
   -7.5884    4.5701  -12.7417 C   0  0  0  0  0  0  0  0  0  0  0  0
   -7.4824    3.4240  -12.9561 O   0  0  0  0  0  0  0  0  0  0  0  0
   -7.8266    5.3298  -11.3984 N   0  0  0  0  0  0  0  0  0  0  0  0
   -7.8025    6.3114  -11.4699 H   0  0  0  0  0  0  0  0  0  0  0  0
   -8.0664    4.8463  -10.1213 C   0  0  0  0  0  0  0  0  0  0  0  0
   -7.9042    5.7414   -9.0490 C   0  0  0  0  0  0  0  0  0  0  0  0
   -8.1543    5.3347   -7.7385 C   0  0  0  0  0  0  0  0  0  0  0  0
   -8.5722    4.0337   -7.5323 C   0  0  0  0  0  0  0  0  0  0  0  0
   -8.7320    3.1477   -8.5958 C   0  0  0  0  0  0  0  0  0  0  0  0
   -8.4849    3.5346   -9.9013 C   0  0  0  0  0  0  0  0  0  0  0  0
   -9.1931    1.8259   -8.0769 C   0  0  0  0  0  0  0  0  0  0  0  0
   -9.0682    1.9324   -6.6124 N   0  0  0  0  0  0  0  0  0  0  0  0
   -8.9448    3.3479   -6.2614 C   0  0  0  0  0  0  0  0  0  0  0  0
   -8.2397    1.4263   -6.2995 H   0  0  0  0  0  0  0  0  0  0  0  0
   -8.4011    4.3489  -18.4947 C   0  0  0  0  0  0  0  0  0  0  0  0
   -8.7608    4.5703  -17.2283 C   0  0  0  0  0  0  0  0  0  0  0  0
 27 28  2  0  0  0
  1 28  1  0  0  0
  1  2  1  0  0  0
  2  3  1  0  0  0
  3 13  1  0  0  0
 13 14  2  0  0  0
 13 15  1  0  0  0
 15 17  1  0  0  0
 17 18  2  0  0  0
 18 19  1  0  0  0
 19 20  2  0  0  0
 20 21  1  0  0  0
 21 22  2  0  0  0
 21 23  1  0  0  0
 23 24  1  0  0  0
 24 25  1  0  0  0
  3  4  1  0  0  0
  4  5  1  0  0  0
  4  6  1  0  0  0
  6  7  1  0  0  0
  7  8  1  0  0  0
  8  9  1  0  0  0
  9 10  1  0  0  0
  6  1  1  0  0  0
 22 17  1  0  0  0
 10  6  1  0  0  0
 25 20  1  0  0  0
 15 16  1  0  0  0
 24 26  1  0  0  0
  9 11  1  0  0  0
 10 12  1  0  0  0
M  END
> <minimizedAffinity>
-6.73386

> <minimizedRMSD>
0.45937

$$$$
P3810


 19 19  0  0  0  0  0  0  0  0999 V2000
   -6.5674    5.2599  -14.1490 C   0  0  0  0  0  0  0  0  0  0  0  0
   -5.7241    6.0274  -13.9098 O   0  0  0  0  0  0  0  0  0  0  0  0
   -7.4239    4.3940  -13.2086 N   0  0  0  0  0  0  0  0  0  0  0  0
   -8.0248    3.7612  -13.6644 H   0  0  0  0  0  0  0  0  0  0  0  0
   -8.3863    4.3854  -17.3551 C   0  0  0  0  0  0  0  0  0  0  0  0
   -7.3618    4.5614  -18.2856 C   0  0  0  0  0  0  0  0  0  0  0  0
   -6.0813    4.9271  -17.8740 C   0  0  0  0  0  0  0  0  0  0  0  0
   -5.0065    5.1159  -18.8964 C   0  0  0  0  0  0  0  0  0  0  0  0
   -5.8470    5.1583  -16.5161 C   0  0  0  0  0  0  0  0  0  0  0  0
   -6.8712    4.9741  -15.5780 C   0  0  0  0  0  0  0  0  0  0  0  0
   -8.1467    4.5849  -15.9933 C   0  0  0  0  0  0  0  0  0  0  0  0
  -10.4707    4.8373  -18.5197 C   0  0  0  0  0  0  0  0  0  0  0  0
   -9.6891    3.9908  -17.8544 C   0  0  0  0  0  0  0  0  0  0  0  0
   -7.4909    4.3577  -11.7462 C   0  0  0  0  0  0  0  0  0  0  0  0
   -8.4270    3.2207  -11.3185 C   0  0  0  0  0  0  0  0  0  0  0  0
   -6.0886    4.0707  -11.1869 C   0  0  0  0  0  0  0  0  0  0  0  0
   -7.9893    5.7232  -11.2081 C   0  0  0  0  0  0  0  0  0  0  0  0
   -8.4122    5.6741   -9.8474 O   0  0  0  0  0  0  0  0  0  0  0  0
   -9.1618    5.0642   -9.7636 H   0  0  0  0  0  0  0  0  0  0  0  0
 12 13  2  0  0  0
 13  5  1  0  0  0
  5  6  2  0  0  0
  6  7  1  0  0  0
  7  8  1  0  0  0
  7  9  2  0  0  0
  9 10  1  0  0  0
 10  1  1  0  0  0
  1  2  2  0  0  0
  1  3  1  0  0  0
  3 14  1  0  0  0
 14 15  1  0  0  0
 14 16  1  0  0  0
 14 17  1  0  0  0
 17 18  1  0  0  0
 10 11  2  0  0  0
 11  5  1  0  0  0
  3  4  1  0  0  0
 18 19  1  0  0  0
M  END
> <minimizedAffinity>
-5.56861

> <minimizedRMSD>
0.36312

$$$$
P3811


 12 12  0  0  0  0  0  0  0  0999 V2000
   -7.3074    4.5752  -15.6094 C   0  0  0  0  0  0  0  0  0  0  0  0
   -8.5554    4.4846  -16.2268 C   0  0  0  0  0  0  0  0  0  0  0  0
   -8.6729    4.6010  -17.6122 C   0  0  0  0  0  0  0  0  0  0  0  0
  -10.0126    4.5195  -18.2682 C   0  0  0  0  0  0  0  0  0  0  0  0
   -7.5163    4.7452  -18.3837 C   0  0  0  0  0  0  0  0  0  0  0  0
   -6.2622    4.8750  -17.7867 C   0  0  0  0  0  0  0  0  0  0  0  0
   -5.1121    4.9212  -18.5872 N   0  0  0  0  0  0  0  0  0  0  0  0
   -6.1624    4.7488  -16.3984 C   0  0  0  0  0  0  0  0  0  0  0  0
   -5.1956    5.0103  -19.5641 H   0  0  0  0  0  0  0  0  0  0  0  0
   -4.2211    4.8646  -18.1724 H   0  0  0  0  0  0  0  0  0  0  0  0
   -6.6063    5.3423  -13.3795 C   0  0  0  0  0  0  0  0  0  0  0  0
   -7.2397    4.4516  -14.1521 C   0  0  0  0  0  0  0  0  0  0  0  0
 11 12  2  0  0  0
 12  1  1  0  0  0
  1  2  2  0  0  0
  2  3  1  0  0  0
  3  4  1  0  0  0
  3  5  2  0  0  0
  5  6  1  0  0  0
  6  7  1  0  0  0
  6  8  2  0  0  0
  8  1  1  0  0  0
  7  9  1  0  0  0
  7 10  1  0  0  0
M  END
> <minimizedAffinity>
-4.47440

> <minimizedRMSD>
0.50673

$$$$
P3816


  9  9  0  0  0  0  0  0  0  0999 V2000
   -7.3410    4.4920  -15.5487 C   0  0  0  0  0  0  0  0  0  0  0  0
   -6.1723    4.7506  -16.2703 C   0  0  0  0  0  0  0  0  0  0  0  0
   -6.2235    4.9201  -17.6548 C   0  0  0  0  0  0  0  0  0  0  0  0
   -7.4435    4.8459  -18.3248 C   0  0  0  0  0  0  0  0  0  0  0  0
   -8.6234    4.6066  -17.6177 C   0  0  0  0  0  0  0  0  0  0  0  0
   -9.9477    4.5567  -18.3149 C   0  0  0  0  0  0  0  0  0  0  0  0
   -8.5582    4.4200  -16.2323 C   0  0  0  0  0  0  0  0  0  0  0  0
   -6.9003    3.2316  -13.4753 C   0  0  0  0  0  0  0  0  0  0  0  0
   -7.3421    4.3331  -14.0931 C   0  0  0  0  0  0  0  0  0  0  0  0
  8  9  2  0  0  0
  9  1  1  0  0  0
  1  2  2  0  0  0
  2  3  1  0  0  0
  3  4  2  0  0  0
  4  5  1  0  0  0
  5  6  1  0  0  0
  5  7  2  0  0  0
  7  1  1  0  0  0
M  END
> <minimizedAffinity>
-4.48411

> <minimizedRMSD>
0.40093

$$$$
P4273


 16 17  0  0  0  0  0  0  0  0999 V2000
   -6.4602    4.9558  -16.4486 C   0  0  0  0  0  0  0  0  0  0  0  0
   -5.0648    5.0678  -16.2973 C   0  0  0  0  0  0  0  0  0  0  0  0
   -4.2625    5.1085  -17.4203 C   0  0  0  0  0  0  0  0  0  0  0  0
   -4.8065    5.0266  -18.6913 C   0  0  0  0  0  0  0  0  0  0  0  0
   -6.1639    4.8169  -18.8735 C   0  0  0  0  0  0  0  0  0  0  0  0
   -7.0053    4.7621  -17.7456 C   0  0  0  0  0  0  0  0  0  0  0  0
   -3.7223    5.2180  -19.6946 C   0  0  0  0  0  0  0  0  0  0  0  0
   -2.5100    5.6103  -18.9242 N   0  0  0  0  0  0  0  0  0  0  0  0
   -2.7834    5.2564  -17.5133 C   0  0  0  0  0  0  0  0  0  0  0  0
   -2.3451    6.6131  -19.0114 H   0  0  0  0  0  0  0  0  0  0  0  0
   -7.2414    5.0781  -15.2716 N   0  0  0  0  0  0  0  0  0  0  0  0
   -7.5881    5.9755  -15.0626 H   0  0  0  0  0  0  0  0  0  0  0  0
   -6.7796    3.2427  -13.7159 C   0  0  0  0  0  0  0  0  0  0  0  0
   -7.5633    4.0742  -14.3947 C   0  0  0  0  0  0  0  0  0  0  0  0
   -8.4134    4.5650  -17.9667 C   0  0  0  0  0  0  0  0  0  0  0  0
   -9.5420    4.3652  -18.1574 N   0  0  0  0  0  0  0  0  0  0  0  0
 13 14  2  0  0  0
 14 11  1  0  0  0
 11  1  1  0  0  0
  1  2  2  0  0  0
  2  3  1  0  0  0
  3  4  2  0  0  0
  4  5  1  0  0  0
  5  6  2  0  0  0
  6 15  1  0  0  0
 15 16  3  0  0  0
  4  7  1  0  0  0
  7  8  1  0  0  0
  8  9  1  0  0  0
  6  1  1  0  0  0
  9  3  1  0  0  0
 11 12  1  0  0  0
  8 10  1  0  0  0
M  END
> <minimizedAffinity>
-4.95387

> <minimizedRMSD>
0.90172

$$$$
P4313


 14 14  0  0  0  0  0  0  0  0999 V2000
   -8.3129    4.1419  -11.2413 C   0  0  0  0  0  0  0  0  0  0  0  0
   -7.9844    5.3935  -10.7119 C   0  0  0  0  0  0  0  0  0  0  0  0
   -7.9685    5.6083   -9.3378 C   0  0  0  0  0  0  0  0  0  0  0  0
   -8.2893    4.5720   -8.4672 C   0  0  0  0  0  0  0  0  0  0  0  0
   -8.6363    3.3063   -8.9465 C   0  0  0  0  0  0  0  0  0  0  0  0
   -8.6281    3.1100  -10.3429 C   0  0  0  0  0  0  0  0  0  0  0  0
   -8.3284    3.8832  -12.6232 N   0  0  0  0  0  0  0  0  0  0  0  0
   -8.7094    3.0193  -12.9020 H   0  0  0  0  0  0  0  0  0  0  0  0
   -7.4286    4.2978  -14.8140 C   0  0  0  0  0  0  0  0  0  0  0  0
   -7.8738    4.6968  -13.6224 C   0  0  0  0  0  0  0  0  0  0  0  0
   -9.1329    2.1732   -8.0725 C   0  0  0  0  0  0  0  0  0  0  0  0
   -9.0893    2.3428   -6.6315 N   0  0  0  0  0  0  0  0  0  0  0  0
  -10.3020    2.7201   -5.9591 C   0  0  0  0  0  0  0  0  0  0  0  0
   -8.3952    3.0631   -6.4318 H   0  0  0  0  0  0  0  0  0  0  0  0
  9 10  2  0  0  0
 10  7  1  0  0  0
  7  1  1  0  0  0
  1  2  2  0  0  0
  2  3  1  0  0  0
  3  4  2  0  0  0
  4  5  1  0  0  0
  5 11  1  0  0  0
 11 12  1  0  0  0
 12 13  1  0  0  0
  5  6  2  0  0  0
  6  1  1  0  0  0
  7  8  1  0  0  0
 12 14  1  0  0  0
M  END
> <minimizedAffinity>
-4.21433

> <minimizedRMSD>
0.85887

$$$$
P4322


 14 15  0  0  0  0  0  0  0  0999 V2000
   -7.5457    4.4031  -12.7295 C   0  0  0  0  0  0  0  0  0  0  0  0
   -8.4031    4.8327  -13.7931 C   0  0  0  0  0  0  0  0  0  0  0  0
   -7.9693    5.0982  -15.1068 C   0  0  0  0  0  0  0  0  0  0  0  0
   -6.6000    4.8961  -15.2229 C   0  0  0  0  0  0  0  0  0  0  0  0
   -5.8885    4.8211  -16.3872 C   0  0  0  0  0  0  0  0  0  0  0  0
   -4.5974    4.6321  -15.9995 N   0  0  0  0  0  0  0  0  0  0  0  0
   -4.4321    4.4851  -14.6648 N   0  0  0  0  0  0  0  0  0  0  0  0
   -5.6806    4.5494  -14.1675 C   0  0  0  0  0  0  0  0  0  0  0  0
   -6.1406    4.3055  -12.8642 C   0  0  0  0  0  0  0  0  0  0  0  0
   -3.8473    4.6046  -16.6366 H   0  0  0  0  0  0  0  0  0  0  0  0
   -8.5626    3.6253  -10.4705 N   0  0  0  0  0  0  0  0  0  0  0  0
   -8.1376    3.9884  -11.4874 C   0  0  0  0  0  0  0  0  0  0  0  0
   -6.3139    4.8007  -17.7323 C   0  0  0  0  0  0  0  0  0  0  0  0
   -6.6392    4.7095  -18.8411 N   0  0  0  0  0  0  0  0  0  0  0  0
 11 12  3  0  0  0
 12  1  1  0  0  0
  1  2  1  0  0  0
  2  3  2  0  0  0
  3  4  1  0  0  0
  4  5  2  0  0  0
  5 13  1  0  0  0
 13 14  3  0  0  0
  5  6  1  0  0  0
  6  7  1  0  0  0
  7  8  2  0  0  0
  8  9  1  0  0  0
  9  1  2  0  0  0
  8  4  1  0  0  0
  6 10  1  0  0  0
M  END
> <minimizedAffinity>
-3.69722

> <minimizedRMSD>
2.45609

$$$$
P4330


 16 17  0  0  0  0  0  0  0  0999 V2000
   -5.1346    4.9934  -17.8956 C   0  0  0  0  0  0  0  0  0  0  0  0
   -5.1883    5.0072  -19.2368 N   0  0  0  0  0  0  0  0  0  0  0  0
   -6.4865    4.7634  -19.5011 N   0  0  0  0  0  0  0  0  0  0  0  0
   -7.2630    4.6470  -18.3795 C   0  0  0  0  0  0  0  0  0  0  0  0
   -8.6358    4.4404  -18.2555 C   0  0  0  0  0  0  0  0  0  0  0  0
   -9.1512    4.3784  -16.9693 C   0  0  0  0  0  0  0  0  0  0  0  0
   -8.3088    4.4798  -15.8656 C   0  0  0  0  0  0  0  0  0  0  0  0
   -6.9175    4.6698  -15.9804 C   0  0  0  0  0  0  0  0  0  0  0  0
   -6.3992    4.7725  -17.2931 C   0  0  0  0  0  0  0  0  0  0  0  0
   -6.8433    4.6770  -20.4146 H   0  0  0  0  0  0  0  0  0  0  0  0
   -6.0788    4.7824  -14.7326 C   0  0  0  0  0  0  0  0  0  0  0  0
   -5.0719    3.8707  -14.6882 F   0  0  0  0  0  0  0  0  0  0  0  0
   -6.7767    4.6476  -13.5721 F   0  0  0  0  0  0  0  0  0  0  0  0
   -5.4844    6.0078  -14.6466 F   0  0  0  0  0  0  0  0  0  0  0  0
   -2.8417    5.3945  -16.7437 N   0  0  0  0  0  0  0  0  0  0  0  0
   -3.8641    5.2081  -17.2642 C   0  0  0  0  0  0  0  0  0  0  0  0
 15 16  3  0  0  0
 16  1  1  0  0  0
  1  2  2  0  0  0
  2  3  1  0  0  0
  3  4  1  0  0  0
  4  5  2  0  0  0
  5  6  1  0  0  0
  6  7  2  0  0  0
  7  8  1  0  0  0
  8 11  1  0  0  0
 11 12  1  0  0  0
 11 13  1  0  0  0
 11 14  1  0  0  0
  8  9  2  0  0  0
  9  1  1  0  0  0
  9  4  1  0  0  0
  3 10  1  0  0  0
M  END
> <minimizedAffinity>
-5.54584

> <minimizedRMSD>
1.47000

$$$$
P4384


 27 29  0  0  0  0  0  0  0  0999 V2000
   -4.7885    5.5963  -18.9968 N   0  0  0  0  0  0  0  0  0  0  0  0
   -5.2550    5.0843  -17.6112 C   0  0  0  0  0  0  0  0  0  0  0  0
   -4.6347    4.7521  -16.6790 O   0  0  0  0  0  0  0  0  0  0  0  0
   -5.5126    5.7413  -19.6478 H   0  0  0  0  0  0  0  0  0  0  0  0
   -6.7373    4.9366  -17.5431 C   0  0  0  0  0  0  0  0  0  0  0  0
   -7.4691    4.4732  -18.6485 C   0  0  0  0  0  0  0  0  0  0  0  0
   -8.8499    4.2849  -18.5836 C   0  0  0  0  0  0  0  0  0  0  0  0
   -9.5410    4.4414  -17.3910 C   0  0  0  0  0  0  0  0  0  0  0  0
   -8.7887    4.8198  -16.2805 C   0  0  0  0  0  0  0  0  0  0  0  0
   -9.1310    4.9012  -14.9592 N   0  0  0  0  0  0  0  0  0  0  0  0
   -8.2198    5.5341  -14.2058 N   0  0  0  0  0  0  0  0  0  0  0  0
   -7.1511    5.6067  -15.0156 C   0  0  0  0  0  0  0  0  0  0  0  0
   -7.4284    5.1323  -16.3267 C   0  0  0  0  0  0  0  0  0  0  0  0
   -9.9673    4.5303  -14.5954 H   0  0  0  0  0  0  0  0  0  0  0  0
   -5.9566    6.2166  -14.5037 C   0  0  0  0  0  0  0  0  0  0  0  0
   -5.0324    6.7549  -14.0459 N   0  0  0  0  0  0  0  0  0  0  0  0
    0.1328    5.2858  -18.5900 C   0  0  0  0  0  0  0  0  0  0  0  0
   -1.0983    5.7078  -19.3368 C   0  0  0  0  0  0  0  0  0  0  0  0
   -0.9916    6.3820  -20.5603 C   0  0  0  0  0  0  0  0  0  0  0  0
   -2.1359    6.8176  -21.2429 C   0  0  0  0  0  0  0  0  0  0  0  0
   -3.3963    6.5632  -20.6842 C   0  0  0  0  0  0  0  0  0  0  0  0
   -3.5136    5.8843  -19.4704 C   0  0  0  0  0  0  0  0  0  0  0  0
   -2.3678    5.4735  -18.7917 C   0  0  0  0  0  0  0  0  0  0  0  0
   -2.0200    7.5084  -22.5751 C   0  0  0  0  0  0  0  0  0  0  0  0
   -2.2839    6.5786  -23.6660 N   0  0  0  0  0  0  0  0  0  0  0  0
   -1.6023    5.8203  -23.6389 H   0  0  0  0  0  0  0  0  0  0  0  0
   -2.2105    7.0700  -24.5568 H   0  0  0  0  0  0  0  0  0  0  0  0
 17 18  1  0  0  0
 18 19  2  0  0  0
 19 20  1  0  0  0
 20 24  1  0  0  0
 24 25  1  0  0  0
 20 21  2  0  0  0
 21 22  1  0  0  0
 22  1  1  0  0  0
  1  2  1  0  0  0
  2  3  2  0  0  0
  2  5  1  0  0  0
  5  6  2  0  0  0
  6  7  1  0  0  0
  7  8  2  0  0  0
  8  9  1  0  0  0
  9 10  1  0  0  0
 10 11  1  0  0  0
 11 12  2  0  0  0
 12 15  1  0  0  0
 15 16  3  0  0  0
 12 13  1  0  0  0
 22 23  2  0  0  0
 23 18  1  0  0  0
 13  5  1  0  0  0
 13  9  2  0  0  0
 25 26  1  0  0  0
 25 27  1  0  0  0
  1  4  1  0  0  0
 10 14  1  0  0  0
M  END
> <minimizedAffinity>
-6.01025

> <minimizedRMSD>
0.64213

$$$$
P4423


 29 32  0  0  0  0  0  0  0  0999 V2000
   -5.2959    5.2075  -18.1197 N   0  0  0  0  0  0  0  0  0  0  0  0
   -6.2156    4.6107  -18.8899 N   0  0  0  0  0  0  0  0  0  0  0  0
   -7.3189    4.6190  -18.1481 C   0  0  0  0  0  0  0  0  0  0  0  0
   -8.6312    4.3756  -18.5583 C   0  0  0  0  0  0  0  0  0  0  0  0
   -9.5529    4.4666  -17.5149 C   0  0  0  0  0  0  0  0  0  0  0  0
   -9.1763    4.7450  -16.1673 C   0  0  0  0  0  0  0  0  0  0  0  0
   -7.8664    5.0047  -15.7255 C   0  0  0  0  0  0  0  0  0  0  0  0
   -6.9617    4.9446  -16.7797 C   0  0  0  0  0  0  0  0  0  0  0  0
   -5.6098    5.2002  -16.7854 C   0  0  0  0  0  0  0  0  0  0  0  0
   -7.6252    5.4886  -14.3595 C   0  0  0  0  0  0  0  0  0  0  0  0
   -7.2332    6.5778  -14.2102 O   0  0  0  0  0  0  0  0  0  0  0  0
   -8.0264    4.4169  -13.3202 N   0  0  0  0  0  0  0  0  0  0  0  0
   -8.2560    3.5387  -13.7015 H   0  0  0  0  0  0  0  0  0  0  0  0
   -8.1160    4.4913  -11.9325 C   0  0  0  0  0  0  0  0  0  0  0  0
   -7.9860    5.7054  -11.2435 C   0  0  0  0  0  0  0  0  0  0  0  0
   -8.1031    5.7503   -9.8482 C   0  0  0  0  0  0  0  0  0  0  0  0
   -8.3399    4.5683   -9.1693 C   0  0  0  0  0  0  0  0  0  0  0  0
   -8.4531    3.3620   -9.8501 C   0  0  0  0  0  0  0  0  0  0  0  0
   -8.3565    3.3090  -11.2293 C   0  0  0  0  0  0  0  0  0  0  0  0
   -8.6189    2.2567   -8.8599 C   0  0  0  0  0  0  0  0  0  0  0  0
   -9.0132    2.9351   -7.5968 N   0  0  0  0  0  0  0  0  0  0  0  0
   -8.4725    4.3091   -7.7058 C   0  0  0  0  0  0  0  0  0  0  0  0
   -8.6095    2.4551   -6.7924 H   0  0  0  0  0  0  0  0  0  0  0  0
   -4.6845    5.4808  -15.7481 C   0  0  0  0  0  0  0  0  0  0  0  0
   -3.8374    5.6853  -14.9829 N   0  0  0  0  0  0  0  0  0  0  0  0
   -4.2590    5.9797  -18.7936 C   0  0  0  0  0  0  0  0  0  0  0  0
   -4.9547    7.5681  -20.4933 C   0  0  0  0  0  0  0  0  0  0  0  0
   -4.7458    7.3546  -19.0546 N   0  0  0  0  0  0  0  0  0  0  0  0
   -5.6287    7.4959  -18.5637 H   0  0  0  0  0  0  0  0  0  0  0  0
 27 28  1  0  0  0
 28 26  1  0  0  0
 26  1  1  0  0  0
  1  2  1  0  0  0
  2  3  2  0  0  0
  3  4  1  0  0  0
  4  5  2  0  0  0
  5  6  1  0  0  0
  6  7  2  0  0  0
  7 10  1  0  0  0
 10 11  2  0  0  0
 10 12  1  0  0  0
 12 14  1  0  0  0
 14 15  2  0  0  0
 15 16  1  0  0  0
 16 17  2  0  0  0
 17 18  1  0  0  0
 18 19  2  0  0  0
 18 20  1  0  0  0
 20 21  1  0  0  0
 21 22  1  0  0  0
  7  8  1  0  0  0
  8  9  2  0  0  0
  9 24  1  0  0  0
 24 25  3  0  0  0
  9  1  1  0  0  0
  8  3  1  0  0  0
 19 14  1  0  0  0
 22 17  1  0  0  0
 28 29  1  0  0  0
 12 13  1  0  0  0
 21 23  1  0  0  0
M  END
> <minimizedAffinity>
-6.58664

> <minimizedRMSD>
0.61392

$$$$
P4691


 24 26  0  0  0  0  0  0  0  0999 V2000
   -5.8096    5.4530  -16.3366 C   0  0  0  0  0  0  0  0  0  0  0  0
   -4.7314    5.6249  -17.1459 N   0  0  0  0  0  0  0  0  0  0  0  0
   -4.8524    5.2721  -18.4373 C   0  0  0  0  0  0  0  0  0  0  0  0
   -6.0092    4.7714  -18.9888 C   0  0  0  0  0  0  0  0  0  0  0  0
   -7.1337    4.6285  -18.1804 C   0  0  0  0  0  0  0  0  0  0  0  0
   -8.3212    4.1477  -18.7543 C   0  0  0  0  0  0  0  0  0  0  0  0
   -9.4678    3.9708  -17.9933 C   0  0  0  0  0  0  0  0  0  0  0  0
   -9.4355    4.2730  -16.6420 C   0  0  0  0  0  0  0  0  0  0  0  0
   -8.2695    4.7912  -16.0576 C   0  0  0  0  0  0  0  0  0  0  0  0
   -7.0721    4.9741  -16.8089 C   0  0  0  0  0  0  0  0  0  0  0  0
   -8.4246    5.3025  -14.6707 C   0  0  0  0  0  0  0  0  0  0  0  0
   -8.8511    6.3766  -14.5123 O   0  0  0  0  0  0  0  0  0  0  0  0
   -8.0141    4.2286  -13.6432 N   0  0  0  0  0  0  0  0  0  0  0  0
   -7.6059    3.4213  -14.0316 H   0  0  0  0  0  0  0  0  0  0  0  0
   -8.1245    4.2151  -12.2854 C   0  0  0  0  0  0  0  0  0  0  0  0
   -7.9153    5.2789  -11.3848 C   0  0  0  0  0  0  0  0  0  0  0  0
   -8.0977    4.9128  -10.1127 N   0  0  0  0  0  0  0  0  0  0  0  0
   -8.4770    3.6211  -10.2171 N   0  0  0  0  0  0  0  0  0  0  0  0
   -8.8116    2.8771   -9.0325 C   0  0  0  0  0  0  0  0  0  0  0  0
   -8.4738    3.1478  -11.5006 C   0  0  0  0  0  0  0  0  0  0  0  0
   -5.2659    6.9751  -14.5814 C   0  0  0  0  0  0  0  0  0  0  0  0
   -5.5911    5.6018  -14.9463 N   0  0  0  0  0  0  0  0  0  0  0  0
   -4.5602    4.6526  -14.5679 C   0  0  0  0  0  0  0  0  0  0  0  0
   -5.0796    3.3946  -14.5958 F   0  0  0  0  0  0  0  0  0  0  0  0
 21 22  1  0  0  0
 22 23  1  0  0  0
 23 24  1  0  0  0
 22  1  1  0  0  0
  1  2  2  0  0  0
  2  3  1  0  0  0
  3  4  2  0  0  0
  4  5  1  0  0  0
  5  6  2  0  0  0
  6  7  1  0  0  0
  7  8  2  0  0  0
  8  9  1  0  0  0
  9 11  1  0  0  0
 11 12  2  0  0  0
 11 13  1  0  0  0
 13 15  1  0  0  0
 15 16  1  0  0  0
 16 17  2  0  0  0
 17 18  1  0  0  0
 18 19  1  0  0  0
 18 20  1  0  0  0
  9 10  2  0  0  0
 10  1  1  0  0  0
 10  5  1  0  0  0
 20 15  2  0  0  0
 13 14  1  0  0  0
M  END
> <minimizedAffinity>
-6.93413

> <minimizedRMSD>
0.82012

$$$$
P4693


 24 26  0  0  0  0  0  0  0  0999 V2000
   -4.8826    4.8854  -16.7242 C   0  0  0  0  0  0  0  0  0  0  0  0
   -3.9763    4.9492  -17.7300 N   0  0  0  0  0  0  0  0  0  0  0  0
   -4.4193    4.8976  -18.9983 C   0  0  0  0  0  0  0  0  0  0  0  0
   -5.7451    4.7737  -19.3384 C   0  0  0  0  0  0  0  0  0  0  0  0
   -6.6863    4.6728  -18.3201 C   0  0  0  0  0  0  0  0  0  0  0  0
   -8.0389    4.5283  -18.6643 C   0  0  0  0  0  0  0  0  0  0  0  0
   -9.0091    4.3744  -17.6856 C   0  0  0  0  0  0  0  0  0  0  0  0
   -8.6324    4.3880  -16.3518 C   0  0  0  0  0  0  0  0  0  0  0  0
   -7.2989    4.6053  -15.9888 C   0  0  0  0  0  0  0  0  0  0  0  0
   -6.2759    4.7262  -16.9638 C   0  0  0  0  0  0  0  0  0  0  0  0
   -7.0958    4.9129  -14.5518 C   0  0  0  0  0  0  0  0  0  0  0  0
   -7.0120    6.0360  -14.2396 O   0  0  0  0  0  0  0  0  0  0  0  0
   -7.1323    3.6331  -13.6874 N   0  0  0  0  0  0  0  0  0  0  0  0
   -7.1302    2.7911  -14.1975 H   0  0  0  0  0  0  0  0  0  0  0  0
   -7.1679    3.4756  -12.2961 C   0  0  0  0  0  0  0  0  0  0  0  0
   -8.2861    3.8636  -11.5682 C   0  0  0  0  0  0  0  0  0  0  0  0
   -8.3279    3.5684  -10.2152 C   0  0  0  0  0  0  0  0  0  0  0  0
   -7.3539    2.9164   -9.5518 N   0  0  0  0  0  0  0  0  0  0  0  0
   -6.2579    2.5835  -10.2719 C   0  0  0  0  0  0  0  0  0  0  0  0
   -6.0948    2.8794  -11.6255 C   0  0  0  0  0  0  0  0  0  0  0  0
   -4.7698    2.6718  -12.2882 C   0  0  0  0  0  0  0  0  0  0  0  0
   -2.9791    5.1949  -15.2838 C   0  0  0  0  0  0  0  0  0  0  0  0
   -4.3965    4.9252  -15.4044 N   0  0  0  0  0  0  0  0  0  0  0  0
   -4.9763    4.7807  -14.6220 H   0  0  0  0  0  0  0  0  0  0  0  0
 22 23  1  0  0  0
 23  1  1  0  0  0
  1  2  2  0  0  0
  2  3  1  0  0  0
  3  4  2  0  0  0
  4  5  1  0  0  0
  5  6  2  0  0  0
  6  7  1  0  0  0
  7  8  2  0  0  0
  8  9  1  0  0  0
  9 11  1  0  0  0
 11 12  2  0  0  0
 11 13  1  0  0  0
 13 15  1  0  0  0
 15 16  2  0  0  0
 16 17  1  0  0  0
 17 18  2  0  0  0
 18 19  1  0  0  0
 19 20  2  0  0  0
 20 21  1  0  0  0
  9 10  2  0  0  0
 10  1  1  0  0  0
 10  5  1  0  0  0
 20 15  1  0  0  0
 23 24  1  0  0  0
 13 14  1  0  0  0
M  END
> <minimizedAffinity>
-7.01748

> <minimizedRMSD>
1.16520

$$$$
P4724


 28 31  0  0  0  0  0  0  0  0999 V2000
   -5.2444    5.6515  -15.4414 C   0  0  0  0  0  0  0  0  0  0  0  0
   -4.0805    5.5586  -16.1253 N   0  0  0  0  0  0  0  0  0  0  0  0
   -4.1104    5.1251  -17.3974 C   0  0  0  0  0  0  0  0  0  0  0  0
   -5.2618    4.7889  -18.0719 C   0  0  0  0  0  0  0  0  0  0  0  0
   -6.4705    4.8666  -17.3927 C   0  0  0  0  0  0  0  0  0  0  0  0
   -7.6421    4.5536  -18.1003 C   0  0  0  0  0  0  0  0  0  0  0  0
   -8.8733    4.5689  -17.4678 C   0  0  0  0  0  0  0  0  0  0  0  0
  -10.3001    4.2800  -18.3729 Cl  0  0  0  0  0  0  0  0  0  0  0  0
   -8.9495    4.8701  -16.1209 C   0  0  0  0  0  0  0  0  0  0  0  0
   -7.7984    5.2591  -15.4217 C   0  0  0  0  0  0  0  0  0  0  0  0
   -6.5043    5.2762  -16.0289 C   0  0  0  0  0  0  0  0  0  0  0  0
   -8.0361    5.7378  -14.0403 C   0  0  0  0  0  0  0  0  0  0  0  0
   -8.2215    6.8767  -13.8664 O   0  0  0  0  0  0  0  0  0  0  0  0
   -7.9778    4.5661  -13.0320 N   0  0  0  0  0  0  0  0  0  0  0  0
   -7.8819    3.6753  -13.4403 H   0  0  0  0  0  0  0  0  0  0  0  0
   -8.0389    4.5664  -11.6380 C   0  0  0  0  0  0  0  0  0  0  0  0
   -7.7397    5.7294  -10.9095 C   0  0  0  0  0  0  0  0  0  0  0  0
   -7.7886    5.7354   -9.5116 C   0  0  0  0  0  0  0  0  0  0  0  0
   -8.1761    4.5772   -8.8659 C   0  0  0  0  0  0  0  0  0  0  0  0
   -8.4864    3.4250   -9.5812 C   0  0  0  0  0  0  0  0  0  0  0  0
   -8.3990    3.3934  -10.9666 C   0  0  0  0  0  0  0  0  0  0  0  0
   -8.8828    2.3534   -8.6160 C   0  0  0  0  0  0  0  0  0  0  0  0
   -9.1182    3.0558   -7.3256 N   0  0  0  0  0  0  0  0  0  0  0  0
   -8.3367    4.3061   -7.4075 C   0  0  0  0  0  0  0  0  0  0  0  0
   -8.7954    2.4844   -6.5448 H   0  0  0  0  0  0  0  0  0  0  0  0
   -4.4234    5.4284  -13.1701 C   0  0  0  0  0  0  0  0  0  0  0  0
   -5.1702    6.1945  -14.1508 N   0  0  0  0  0  0  0  0  0  0  0  0
   -5.6016    7.0494  -13.9221 H   0  0  0  0  0  0  0  0  0  0  0  0
 26 27  1  0  0  0
 27  1  1  0  0  0
  1  2  2  0  0  0
  2  3  1  0  0  0
  3  4  2  0  0  0
  4  5  1  0  0  0
  5  6  2  0  0  0
  6  7  1  0  0  0
  7  8  1  0  0  0
  7  9  2  0  0  0
  9 10  1  0  0  0
 10 12  1  0  0  0
 12 13  2  0  0  0
 12 14  1  0  0  0
 14 16  1  0  0  0
 16 17  2  0  0  0
 17 18  1  0  0  0
 18 19  2  0  0  0
 19 20  1  0  0  0
 20 21  2  0  0  0
 20 22  1  0  0  0
 22 23  1  0  0  0
 23 24  1  0  0  0
 10 11  2  0  0  0
 11  1  1  0  0  0
 11  5  1  0  0  0
 21 16  1  0  0  0
 24 19  1  0  0  0
 27 28  1  0  0  0
 14 15  1  0  0  0
 23 25  1  0  0  0
M  END
> <minimizedAffinity>
-7.57321

> <minimizedRMSD>
0.58506

$$$$
P4764


 32 35  0  0  0  0  0  0  0  0999 V2000
   -4.1060    5.1159  -17.6852 C   0  0  0  0  0  0  0  0  0  0  0  0
   -5.2690    4.9306  -18.4148 C   0  0  0  0  0  0  0  0  0  0  0  0
   -6.4343    4.6882  -17.7022 C   0  0  0  0  0  0  0  0  0  0  0  0
   -7.6557    4.5653  -18.3769 C   0  0  0  0  0  0  0  0  0  0  0  0
   -8.8345    4.4618  -17.6519 C   0  0  0  0  0  0  0  0  0  0  0  0
  -10.4759    4.3224  -18.5530 Br  0  0  0  0  0  0  0  0  0  0  0  0
   -8.8227    4.5618  -16.2707 C   0  0  0  0  0  0  0  0  0  0  0  0
   -7.6140    4.7184  -15.6027 C   0  0  0  0  0  0  0  0  0  0  0  0
   -6.3842    4.6724  -16.2881 C   0  0  0  0  0  0  0  0  0  0  0  0
   -5.1090    4.6328  -15.6833 C   0  0  0  0  0  0  0  0  0  0  0  0
   -3.9831    4.8159  -16.3747 N   0  0  0  0  0  0  0  0  0  0  0  0
   -7.6613    5.3635  -14.2721 C   0  0  0  0  0  0  0  0  0  0  0  0
   -7.2771    6.4610  -14.1841 O   0  0  0  0  0  0  0  0  0  0  0  0
   -8.1405    4.3874  -13.1906 N   0  0  0  0  0  0  0  0  0  0  0  0
   -8.4910    3.5334  -13.5326 H   0  0  0  0  0  0  0  0  0  0  0  0
   -8.1607    4.5117  -11.8071 C   0  0  0  0  0  0  0  0  0  0  0  0
   -7.8608    5.7179  -11.1564 C   0  0  0  0  0  0  0  0  0  0  0  0
   -7.8320    5.7842   -9.7579 C   0  0  0  0  0  0  0  0  0  0  0  0
   -8.1574    4.6455   -9.0427 C   0  0  0  0  0  0  0  0  0  0  0  0
   -8.4701    3.4578   -9.6923 C   0  0  0  0  0  0  0  0  0  0  0  0
   -8.4504    3.3725  -11.0690 C   0  0  0  0  0  0  0  0  0  0  0  0
   -8.7841    2.4075   -8.6826 C   0  0  0  0  0  0  0  0  0  0  0  0
   -9.0132    3.1571   -7.4187 N   0  0  0  0  0  0  0  0  0  0  0  0
   -8.2609    4.4231   -7.5712 C   0  0  0  0  0  0  0  0  0  0  0  0
   -8.6623    2.6272   -6.6209 H   0  0  0  0  0  0  0  0  0  0  0  0
   -4.9171    4.3254  -14.3274 N   0  0  0  0  0  0  0  0  0  0  0  0
   -3.9149    5.2210  -13.7390 C   0  0  0  0  0  0  0  0  0  0  0  0
   -5.3879    3.6109  -13.8405 H   0  0  0  0  0  0  0  0  0  0  0  0
   -3.0388    6.0446  -18.1923 C   0  0  0  0  0  0  0  0  0  0  0  0
   -3.7966    8.2493  -17.4394 C   0  0  0  0  0  0  0  0  0  0  0  0
   -2.8285    7.1748  -17.2583 N   0  0  0  0  0  0  0  0  0  0  0  0
   -2.9049    6.8258  -16.3029 H   0  0  0  0  0  0  0  0  0  0  0  0
 30 31  1  0  0  0
 31 29  1  0  0  0
 29  1  1  0  0  0
  1  2  2  0  0  0
  2  3  1  0  0  0
  3  4  2  0  0  0
  4  5  1  0  0  0
  5  6  1  0  0  0
  5  7  2  0  0  0
  7  8  1  0  0  0
  8 12  1  0  0  0
 12 13  2  0  0  0
 12 14  1  0  0  0
 14 16  1  0  0  0
 16 17  2  0  0  0
 17 18  1  0  0  0
 18 19  2  0  0  0
 19 20  1  0  0  0
 20 21  2  0  0  0
 20 22  1  0  0  0
 22 23  1  0  0  0
 23 24  1  0  0  0
  8  9  2  0  0  0
  9 10  1  0  0  0
 10 26  1  0  0  0
 26 27  1  0  0  0
 10 11  2  0  0  0
 11  1  1  0  0  0
  9  3  1  0  0  0
 21 16  1  0  0  0
 24 19  1  0  0  0
 31 32  1  0  0  0
 14 15  1  0  0  0
 23 25  1  0  0  0
 26 28  1  0  0  0
M  END
> <minimizedAffinity>
-7.58467

> <minimizedRMSD>
1.12849

$$$$
P4911


 32 33  0  0  0  0  0  0  0  0999 V2000
   -2.4210    5.7249  -15.6110 C   0  0  0  0  0  0  0  0  0  0  0  0
   -1.6010    5.7429  -16.4520 O   0  0  0  0  0  0  0  0  0  0  0  0
   -3.9460    5.3799  -15.6888 N   0  0  0  0  0  0  0  0  0  0  0  0
   -4.4099    5.3632  -14.8206 H   0  0  0  0  0  0  0  0  0  0  0  0
   -4.7610    5.0899  -16.7980 C   0  0  0  0  0  0  0  0  0  0  0  0
   -4.1251    5.1169  -18.0477 C   0  0  0  0  0  0  0  0  0  0  0  0
   -4.8479    4.9832  -19.2152 C   0  0  0  0  0  0  0  0  0  0  0  0
   -6.2221    4.8429  -19.1458 C   0  0  0  0  0  0  0  0  0  0  0  0
   -6.9134    4.8027  -17.9196 C   0  0  0  0  0  0  0  0  0  0  0  0
   -8.3203    4.6814  -17.9224 C   0  0  0  0  0  0  0  0  0  0  0  0
   -9.0711    4.6924  -19.0638 O   0  0  0  0  0  0  0  0  0  0  0  0
   -9.0600    4.5398  -16.7656 C   0  0  0  0  0  0  0  0  0  0  0  0
   -8.4026    4.4896  -15.5565 C   0  0  0  0  0  0  0  0  0  0  0  0
   -7.0070    4.6277  -15.5067 C   0  0  0  0  0  0  0  0  0  0  0  0
   -6.1940    4.8522  -16.6866 C   0  0  0  0  0  0  0  0  0  0  0  0
   -8.6542    4.7844  -19.8979 H   0  0  0  0  0  0  0  0  0  0  0  0
   -6.2534    4.4176  -13.9160 S   0  0  0  0  0  0  0  0  0  0  0  0
   -7.4681    3.9808  -12.7148 C   0  0  0  0  0  0  0  0  0  0  0  0
   -5.7564    5.7383  -13.5535 O   0  0  0  0  0  0  0  0  0  0  0  0
   -5.3157    3.3156  -14.0220 O   0  0  0  0  0  0  0  0  0  0  0  0
   -2.0818    6.0098  -14.1225 C   0  0  0  0  0  0  0  0  0  0  0  0
    1.4372    7.4902  -13.4727 C   0  0  0  0  0  0  0  0  0  0  0  0
    0.0775    7.1392  -12.9093 C   0  0  0  0  0  0  0  0  0  0  0  0
   -0.2335    7.3480  -11.8061 O   0  0  0  0  0  0  0  0  0  0  0  0
   -0.7073    6.4739  -14.0623 N   0  0  0  0  0  0  0  0  0  0  0  0
   -0.1915    6.3434  -14.8906 H   0  0  0  0  0  0  0  0  0  0  0  0
   -2.2834    4.7979  -13.2051 C   0  0  0  0  0  0  0  0  0  0  0  0
   -1.3022    3.6485  -13.4689 C   0  0  0  0  0  0  0  0  0  0  0  0
   -2.0013    2.2922  -13.3695 C   0  0  0  0  0  0  0  0  0  0  0  0
   -1.0295    1.2030  -13.4289 N   0  0  0  0  0  0  0  0  0  0  0  0
   -0.5293    1.2416  -14.3170 H   0  0  0  0  0  0  0  0  0  0  0  0
   -1.5152    0.3094  -13.3509 H   0  0  0  0  0  0  0  0  0  0  0  0
 22 23  1  0  0  0
 23 24  2  0  0  0
 23 25  1  0  0  0
 25 21  1  0  0  0
 21 27  1  0  0  0
 27 28  1  0  0  0
 28 29  1  0  0  0
 29 30  1  0  0  0
 21  1  1  0  0  0
  1  2  2  0  0  0
  1  3  1  0  0  0
  3  5  1  0  0  0
  5  6  2  0  0  0
  6  7  1  0  0  0
  7  8  2  0  0  0
  8  9  1  0  0  0
  9 10  2  0  0  0
 10 11  1  0  0  0
 10 12  1  0  0  0
 12 13  2  0  0  0
 13 14  1  0  0  0
 14 17  1  0  0  0
 17 18  1  0  0  0
 17 19  2  0  0  0
 17 20  2  0  0  0
 14 15  2  0  0  0
 15  5  1  0  0  0
 15  9  1  0  0  0
 25 26  1  0  0  0
 30 31  1  0  0  0
 30 32  1  0  0  0
  3  4  1  0  0  0
 11 16  1  0  0  0
M  END
> <minimizedAffinity>
-6.06929

> <minimizedRMSD>
1.18246

$$$$
P5034


 17 18  0  0  0  0  0  0  0  0999 V2000
   -8.2207    4.4894  -13.5086 N   0  0  0  0  0  0  0  0  0  0  0  0
   -7.0331    4.7136  -14.4774 C   0  0  0  0  0  0  0  0  0  0  0  0
   -5.9268    5.0204  -14.2607 O   0  0  0  0  0  0  0  0  0  0  0  0
   -9.0825    4.3075  -13.9483 H   0  0  0  0  0  0  0  0  0  0  0  0
   -8.1116    7.0574  -11.7745 C   0  0  0  0  0  0  0  0  0  0  0  0
   -8.1829    5.6431  -11.2936 C   0  0  0  0  0  0  0  0  0  0  0  0
   -8.2075    5.4430   -9.9098 C   0  0  0  0  0  0  0  0  0  0  0  0
   -8.3510    4.2512   -9.2966 N   0  0  0  0  0  0  0  0  0  0  0  0
   -8.4666    3.1807  -10.1040 C   0  0  0  0  0  0  0  0  0  0  0  0
   -8.4418    3.2599  -11.4878 C   0  0  0  0  0  0  0  0  0  0  0  0
   -8.2682    4.5035  -12.1036 C   0  0  0  0  0  0  0  0  0  0  0  0
   -7.4574    4.5693  -15.8823 C   0  0  0  0  0  0  0  0  0  0  0  0
   -8.7601    4.3423  -16.2803 C   0  0  0  0  0  0  0  0  0  0  0  0
   -8.9893    4.4582  -17.9667 S   0  0  0  0  0  0  0  0  0  0  0  0
   -7.3171    4.7127  -18.2119 C   0  0  0  0  0  0  0  0  0  0  0  0
   -6.5941    4.7303  -17.0318 C   0  0  0  0  0  0  0  0  0  0  0  0
   -5.1115    4.9004  -16.9467 C   0  0  0  0  0  0  0  0  0  0  0  0
  5  6  1  0  0  0
  6  7  2  0  0  0
  7  8  1  0  0  0
  8  9  2  0  0  0
  9 10  1  0  0  0
 10 11  2  0  0  0
 11  1  1  0  0  0
  1  2  1  0  0  0
  2  3  2  0  0  0
  2 12  1  0  0  0
 12 13  2  0  0  0
 13 14  1  0  0  0
 14 15  1  0  0  0
 15 16  2  0  0  0
 16 17  1  0  0  0
 11  6  1  0  0  0
 16 12  1  0  0  0
  1  4  1  0  0  0
M  END
> <minimizedAffinity>
-5.63178

> <minimizedRMSD>
0.78788

$$$$
P5576


 41 45  0  0  0  0  0  0  0  0999 V2000
   -3.8778    7.7599  -23.6891 C   0  0  0  0  0  0  0  0  0  0  0  0
   -2.7676    7.1799  -24.2987 C   0  0  0  0  0  0  0  0  0  0  0  0
   -1.8339    6.4645  -23.5488 C   0  0  0  0  0  0  0  0  0  0  0  0
   -2.0571    6.2538  -22.1903 C   0  0  0  0  0  0  0  0  0  0  0  0
   -1.2395    5.3412  -21.5844 O   0  0  0  0  0  0  0  0  0  0  0  0
   -3.1402    6.8538  -21.5443 C   0  0  0  0  0  0  0  0  0  0  0  0
   -4.0223    7.6387  -22.3107 C   0  0  0  0  0  0  0  0  0  0  0  0
   -0.5243    4.9652  -22.0589 H   0  0  0  0  0  0  0  0  0  0  0  0
   -4.8720    8.3953  -24.4489 N   0  0  0  0  0  0  0  0  0  0  0  0
   -4.8654    9.3689  -24.5947 H   0  0  0  0  0  0  0  0  0  0  0  0
   -5.8867    7.5697  -24.9970 O   0  0  0  0  0  0  0  0  0  0  0  0
   -5.8809    7.7436  -26.4208 C   0  0  0  0  0  0  0  0  0  0  0  0
   -6.3196    6.6062  -27.0143 F   0  0  0  0  0  0  0  0  0  0  0  0
   -4.5835    7.8861  -26.8110 F   0  0  0  0  0  0  0  0  0  0  0  0
   -6.5843    8.8863  -26.8777 O   0  0  0  0  0  0  0  0  0  0  0  0
  -11.5616   12.1883  -25.9734 N   0  0  0  0  0  0  0  0  0  0  0  0
  -10.2165   11.8317  -26.0501 C   0  0  0  0  0  0  0  0  0  0  0  0
   -9.2664   12.8234  -25.8286 C   0  0  0  0  0  0  0  0  0  0  0  0
   -7.9359   12.4880  -25.9177 C   0  0  0  0  0  0  0  0  0  0  0  0
   -7.5014   11.2504  -26.2170 N   0  0  0  0  0  0  0  0  0  0  0  0
   -8.4017   10.2892  -26.5207 C   0  0  0  0  0  0  0  0  0  0  0  0
   -7.9467    8.9976  -26.8570 C   0  0  0  0  0  0  0  0  0  0  0  0
   -8.8451    7.9721  -27.1516 C   0  0  0  0  0  0  0  0  0  0  0  0
  -10.2090    8.2395  -27.1814 C   0  0  0  0  0  0  0  0  0  0  0  0
  -10.6792    9.5096  -26.8548 C   0  0  0  0  0  0  0  0  0  0  0  0
   -9.7917   10.5466  -26.4855 C   0  0  0  0  0  0  0  0  0  0  0  0
  -11.8155   13.0887  -25.6668 H   0  0  0  0  0  0  0  0  0  0  0  0
  -12.2580   11.5397  -26.2259 H   0  0  0  0  0  0  0  0  0  0  0  0
   -3.5141    6.5703  -20.1121 C   0  0  0  0  0  0  0  0  0  0  0  0
   -3.9813    5.1985  -20.0281 N   0  0  0  0  0  0  0  0  0  0  0  0
   -3.5964    4.4904  -20.5935 H   0  0  0  0  0  0  0  0  0  0  0  0
   -4.9593    4.9357  -19.1482 C   0  0  0  0  0  0  0  0  0  0  0  0
   -4.8899    4.9795  -17.8420 N   0  0  0  0  0  0  0  0  0  0  0  0
   -6.1566    4.6890  -17.4075 C   0  0  0  0  0  0  0  0  0  0  0  0
   -6.6425    4.5942  -16.0976 C   0  0  0  0  0  0  0  0  0  0  0  0
   -7.9994    4.3276  -15.9142 C   0  0  0  0  0  0  0  0  0  0  0  0
   -8.8434    4.1759  -17.0154 C   0  0  0  0  0  0  0  0  0  0  0  0
   -8.3843    4.2622  -18.3312 C   0  0  0  0  0  0  0  0  0  0  0  0
   -7.0241    4.5059  -18.4780 C   0  0  0  0  0  0  0  0  0  0  0  0
   -6.2224    4.6314  -19.5792 N   0  0  0  0  0  0  0  0  0  0  0  0
   -6.5041    4.5222  -20.5162 H   0  0  0  0  0  0  0  0  0  0  0  0
 16 17  1  0  0  0
 17 18  2  0  0  0
 18 19  1  0  0  0
 19 20  2  0  0  0
 20 21  1  0  0  0
 21 22  2  0  0  0
 22 15  1  0  0  0
 15 12  1  0  0  0
 12 13  1  0  0  0
 12 14  1  0  0  0
 12 11  1  0  0  0
 11  9  1  0  0  0
  9  1  1  0  0  0
  1  2  2  0  0  0
  2  3  1  0  0  0
  3  4  2  0  0  0
  4  5  1  0  0  0
  4  6  1  0  0  0
  6 29  1  0  0  0
 29 30  1  0  0  0
 30 32  1  0  0  0
 32 33  2  0  0  0
 33 34  1  0  0  0
 34 35  2  0  0  0
 35 36  1  0  0  0
 36 37  2  0  0  0
 37 38  1  0  0  0
 38 39  2  0  0  0
 39 40  1  0  0  0
  6  7  2  0  0  0
 22 23  1  0  0  0
 23 24  2  0  0  0
 24 25  1  0  0  0
 25 26  2  0  0  0
 26 17  1  0  0  0
 26 21  1  0  0  0
  7  1  1  0  0  0
 40 32  1  0  0  0
 39 34  1  0  0  0
 16 27  1  0  0  0
 16 28  1  0  0  0
  9 10  1  0  0  0
  5  8  1  0  0  0
 30 31  1  0  0  0
 40 41  1  0  0  0
M  END
> <minimizedAffinity>
-7.30964

> <minimizedRMSD>
0.71975

$$$$
P5988


 49 55  0  0  0  0  0  0  0  0999 V2000
   -5.6272    5.3881  -18.4888 C   0  0  0  0  0  0  0  0  0  0  0  0
   -4.3242    4.9416  -18.7610 C   0  0  0  0  0  0  0  0  0  0  0  0
   -3.6865    5.7391  -19.6246 N   0  0  0  0  0  0  0  0  0  0  0  0
   -4.5923    6.6819  -19.9148 N   0  0  0  0  0  0  0  0  0  0  0  0
   -5.7637    6.5285  -19.2449 C   0  0  0  0  0  0  0  0  0  0  0  0
   -7.3241    4.5586  -15.2874 C   0  0  0  0  0  0  0  0  0  0  0  0
   -8.6030    4.2424  -15.7310 C   0  0  0  0  0  0  0  0  0  0  0  0
   -8.8869    4.2793  -17.0913 C   0  0  0  0  0  0  0  0  0  0  0  0
  -10.1350    4.0359  -17.5066 F   0  0  0  0  0  0  0  0  0  0  0  0
   -7.9151    4.6142  -18.0217 C   0  0  0  0  0  0  0  0  0  0  0  0
   -6.6292    4.9189  -17.5758 C   0  0  0  0  0  0  0  0  0  0  0  0
   -6.3292    4.8815  -16.2117 C   0  0  0  0  0  0  0  0  0  0  0  0
   -5.9262    5.0465  -13.5700 O   0  0  0  0  0  0  0  0  0  0  0  0
   -7.0223    4.7516  -13.8472 C   0  0  0  0  0  0  0  0  0  0  0  0
   -8.2528    4.5052  -12.9442 N   0  0  0  0  0  0  0  0  0  0  0  0
   -9.0937    4.3407  -13.4292 H   0  0  0  0  0  0  0  0  0  0  0  0
   -8.3655    4.4780  -11.5537 C   0  0  0  0  0  0  0  0  0  0  0  0
   -8.2174    5.6543  -10.8015 C   0  0  0  0  0  0  0  0  0  0  0  0
   -8.3214    5.6340   -9.4074 C   0  0  0  0  0  0  0  0  0  0  0  0
   -8.5546    4.4220   -8.7852 C   0  0  0  0  0  0  0  0  0  0  0  0
   -8.6968    3.2545   -9.5225 C   0  0  0  0  0  0  0  0  0  0  0  0
   -8.6185    3.2659  -10.9086 C   0  0  0  0  0  0  0  0  0  0  0  0
   -8.9283    2.1081   -8.5959 C   0  0  0  0  0  0  0  0  0  0  0  0
   -8.8074    2.6535   -7.2163 N   0  0  0  0  0  0  0  0  0  0  0  0
   -8.7176    4.1223   -7.3365 C   0  0  0  0  0  0  0  0  0  0  0  0
   -7.9679    2.2872   -6.7676 H   0  0  0  0  0  0  0  0  0  0  0  0
   -4.1553    7.8039  -20.5495 N   0  0  0  0  0  0  0  0  0  0  0  0
   -3.6396    8.4546  -20.0204 H   0  0  0  0  0  0  0  0  0  0  0  0
   -4.3861    8.1048  -21.9101 C   0  0  0  0  0  0  0  0  0  0  0  0
   -3.7978    9.2593  -22.4436 C   0  0  0  0  0  0  0  0  0  0  0  0
   -4.0284    9.6448  -23.7688 C   0  0  0  0  0  0  0  0  0  0  0  0
   -4.8674    8.8917  -24.6016 C   0  0  0  0  0  0  0  0  0  0  0  0
   -5.4724    7.7533  -24.0563 C   0  0  0  0  0  0  0  0  0  0  0  0
   -6.2822    6.9925  -24.8561 O   0  0  0  0  0  0  0  0  0  0  0  0
   -5.2624    7.3799  -22.7226 C   0  0  0  0  0  0  0  0  0  0  0  0
   -6.4247    7.2395  -25.7487 H   0  0  0  0  0  0  0  0  0  0  0  0
   -5.0138    9.2938  -26.0562 C   0  0  0  0  0  0  0  0  0  0  0  0
   -6.3912    9.2447  -26.5268 N   0  0  0  0  0  0  0  0  0  0  0  0
   -6.7308    8.4553  -27.0072 H   0  0  0  0  0  0  0  0  0  0  0  0
   -7.1904   10.3029  -26.2904 C   0  0  0  0  0  0  0  0  0  0  0  0
   -6.9337   11.4199  -25.6526 N   0  0  0  0  0  0  0  0  0  0  0  0
   -8.1242   12.1026  -25.6156 C   0  0  0  0  0  0  0  0  0  0  0  0
   -8.4400   13.3207  -24.9970 C   0  0  0  0  0  0  0  0  0  0  0  0
   -9.7637   13.7748  -25.0460 C   0  0  0  0  0  0  0  0  0  0  0  0
  -10.7485   13.0375  -25.7076 C   0  0  0  0  0  0  0  0  0  0  0  0
  -10.4458   11.8385  -26.3663 C   0  0  0  0  0  0  0  0  0  0  0  0
   -9.1214   11.4035  -26.2876 C   0  0  0  0  0  0  0  0  0  0  0  0
   -8.4821   10.2818  -26.7476 N   0  0  0  0  0  0  0  0  0  0  0  0
   -8.8826    9.5804  -27.3105 H   0  0  0  0  0  0  0  0  0  0  0  0
 13 14  2  0  0  0
 14 15  1  0  0  0
 15 17  1  0  0  0
 17 18  2  0  0  0
 18 19  1  0  0  0
 19 20  2  0  0  0
 20 21  1  0  0  0
 21 22  2  0  0  0
 21 23  1  0  0  0
 23 24  1  0  0  0
 24 25  1  0  0  0
 14  6  1  0  0  0
  6  7  2  0  0  0
  7  8  1  0  0  0
  8  9  1  0  0  0
  8 10  2  0  0  0
 10 11  1  0  0  0
 11  1  1  0  0  0
  1  2  1  0  0  0
  2  3  2  0  0  0
  3  4  1  0  0  0
  4 27  1  0  0  0
 27 29  1  0  0  0
 29 30  2  0  0  0
 30 31  1  0  0  0
 31 32  2  0  0  0
 32 37  1  0  0  0
 37 38  1  0  0  0
 38 40  1  0  0  0
 40 41  2  0  0  0
 41 42  1  0  0  0
 42 43  2  0  0  0
 43 44  1  0  0  0
 44 45  2  0  0  0
 45 46  1  0  0  0
 46 47  2  0  0  0
 47 48  1  0  0  0
 32 33  1  0  0  0
 33 34  1  0  0  0
 33 35  2  0  0  0
  4  5  1  0  0  0
 11 12  2  0  0  0
 22 17  1  0  0  0
 12  6  1  0  0  0
 25 20  1  0  0  0
  5  1  2  0  0  0
 35 29  1  0  0  0
 48 40  1  0  0  0
 47 42  1  0  0  0
 15 16  1  0  0  0
 24 26  1  0  0  0
 27 28  1  0  0  0
 38 39  1  0  0  0
 48 49  1  0  0  0
 34 36  1  0  0  0
M  END
> <minimizedAffinity>
-8.36307

> <minimizedRMSD>
0.62988

$$$$
P6018


 20 21  0  0  0  0  0  0  0  0999 V2000
   -7.9107    4.9666  -12.9193 N   0  0  0  0  0  0  0  0  0  0  0  0
   -6.8652    5.5061  -13.9188 C   0  0  0  0  0  0  0  0  0  0  0  0
   -5.9589    6.2243  -13.7525 O   0  0  0  0  0  0  0  0  0  0  0  0
   -8.6295    4.4299  -13.3248 H   0  0  0  0  0  0  0  0  0  0  0  0
   -8.4040    2.6023  -11.3594 C   0  0  0  0  0  0  0  0  0  0  0  0
   -8.2512    3.9582  -10.7510 C   0  0  0  0  0  0  0  0  0  0  0  0
   -8.3407    4.0391   -9.3510 C   0  0  0  0  0  0  0  0  0  0  0  0
   -8.2407    5.2635   -8.7098 C   0  0  0  0  0  0  0  0  0  0  0  0
   -8.0373    6.4129   -9.4627 C   0  0  0  0  0  0  0  0  0  0  0  0
   -7.9038    6.3432  -10.8521 C   0  0  0  0  0  0  0  0  0  0  0  0
   -7.6984    7.5569  -11.4482 O   0  0  0  0  0  0  0  0  0  0  0  0
   -8.0038    5.1168  -11.5226 C   0  0  0  0  0  0  0  0  0  0  0  0
   -7.6435    8.3324  -10.9252 H   0  0  0  0  0  0  0  0  0  0  0  0
   -7.1318    5.0512  -15.3062 C   0  0  0  0  0  0  0  0  0  0  0  0
   -6.1424    5.2043  -16.2784 C   0  0  0  0  0  0  0  0  0  0  0  0
   -6.4643    4.8862  -17.5858 C   0  0  0  0  0  0  0  0  0  0  0  0
   -7.6841    4.4532  -17.9695 N   0  0  0  0  0  0  0  0  0  0  0  0
   -8.6217    4.3049  -17.0040 C   0  0  0  0  0  0  0  0  0  0  0  0
   -8.3895    4.5962  -15.6745 C   0  0  0  0  0  0  0  0  0  0  0  0
   -9.3741    4.4993  -14.7728 F   0  0  0  0  0  0  0  0  0  0  0  0
  5  6  1  0  0  0
  6  7  2  0  0  0
  7  8  1  0  0  0
  8  9  2  0  0  0
  9 10  1  0  0  0
 10 11  1  0  0  0
 10 12  2  0  0  0
 12  1  1  0  0  0
  1  2  1  0  0  0
  2  3  2  0  0  0
  2 14  1  0  0  0
 14 15  2  0  0  0
 15 16  1  0  0  0
 16 17  2  0  0  0
 17 18  1  0  0  0
 18 19  2  0  0  0
 19 20  1  0  0  0
 12  6  1  0  0  0
 19 14  1  0  0  0
 11 13  1  0  0  0
  1  4  1  0  0  0
M  END
> <minimizedAffinity>
-5.51914

> <minimizedRMSD>
0.80568

$$$$
P6035


 30 32  0  0  0  0  0  0  0  0999 V2000
   -7.3954    4.8469  -15.4914 C   0  0  0  0  0  0  0  0  0  0  0  0
   -8.7111    4.4863  -15.8003 C   0  0  0  0  0  0  0  0  0  0  0  0
   -9.1228    4.2719  -17.0996 C   0  0  0  0  0  0  0  0  0  0  0  0
   -8.2111    4.4249  -18.1224 C   0  0  0  0  0  0  0  0  0  0  0  0
   -8.7140    4.1973  -19.3619 O   0  0  0  0  0  0  0  0  0  0  0  0
   -6.8714    4.7596  -17.8725 C   0  0  0  0  0  0  0  0  0  0  0  0
   -6.4485    4.9449  -16.5330 C   0  0  0  0  0  0  0  0  0  0  0  0
   -5.0075    5.2839  -16.2361 C   0  0  0  0  0  0  0  0  0  0  0  0
   -4.0464    4.7981  -17.3150 C   0  0  0  0  0  0  0  0  0  0  0  0
   -4.4520    5.2784  -18.7171 C   0  0  0  0  0  0  0  0  0  0  0  0
   -3.5763    4.5948  -19.6495 O   0  0  0  0  0  0  0  0  0  0  0  0
   -5.9005    4.8273  -19.0292 C   0  0  0  0  0  0  0  0  0  0  0  0
   -9.6186    3.9769  -19.4673 H   0  0  0  0  0  0  0  0  0  0  0  0
   -2.6575    4.8559  -19.4809 H   0  0  0  0  0  0  0  0  0  0  0  0
   -4.1222    6.7602  -18.8804 C   0  0  0  0  0  0  0  0  0  0  0  0
   -2.7774    7.1819  -18.8300 C   0  0  0  0  0  0  0  0  0  0  0  0
   -2.4633    8.5286  -18.9618 C   0  0  0  0  0  0  0  0  0  0  0  0
   -3.3852    9.4961  -19.1346 N   0  0  0  0  0  0  0  0  0  0  0  0
   -4.6714    9.0848  -19.1761 C   0  0  0  0  0  0  0  0  0  0  0  0
   -5.0757    7.7613  -19.0576 C   0  0  0  0  0  0  0  0  0  0  0  0
   -6.3842    7.4927  -19.1091 F   0  0  0  0  0  0  0  0  0  0  0  0
   -7.1242    5.1454  -14.0321 C   0  0  0  0  0  0  0  0  0  0  0  0
   -7.1840    2.6230  -13.7472 N   0  0  0  0  0  0  0  0  0  0  0  0
   -7.1054    3.9606  -13.0696 C   0  0  0  0  0  0  0  0  0  0  0  0
   -6.4454    2.5525  -14.4471 H   0  0  0  0  0  0  0  0  0  0  0  0
   -8.0924    2.5242  -14.2003 H   0  0  0  0  0  0  0  0  0  0  0  0
   -7.0674    1.8835  -13.0543 H   0  0  0  0  0  0  0  0  0  0  0  0
   -8.2262    4.0713  -12.0052 C   0  0  0  0  0  0  0  0  0  0  0  0
   -8.4486    2.9498  -11.4520 O   0  0  0  0  0  0  0  0  0  0  0  0
   -8.7671    5.1854  -11.8140 O   0  0  0  0  0  0  0  0  0  0  0  0
 24 23  1  0  0  0
 24 22  1  0  0  0
 22  1  1  0  0  0
  1  2  2  0  0  0
  2  3  1  0  0  0
  3  4  2  0  0  0
  4  5  1  0  0  0
  4  6  1  0  0  0
  6  7  2  0  0  0
  7  8  1  0  0  0
  8  9  1  0  0  0
  9 10  1  0  0  0
 10 11  1  0  0  0
 10 15  1  0  0  0
 15 16  2  0  0  0
 16 17  1  0  0  0
 17 18  2  0  0  0
 18 19  1  0  0  0
 19 20  2  0  0  0
 20 21  1  0  0  0
 10 12  1  0  0  0
 24 28  1  0  0  0
 28 29  2  0  0  0
 28 30  1  0  0  0
  7  1  1  0  0  0
 20 15  1  0  0  0
 12  6  1  0  0  0
 23 25  1  0  0  0
 23 26  1  0  0  0
 23 27  1  0  0  0
  5 13  1  0  0  0
 11 14  1  0  0  0
M  CHG 1  23   1
M  CHG 1  30  -1
M  END
> <minimizedAffinity>
-7.85353

> <minimizedRMSD>
0.69836

$$$$
P6615


 33 37  0  0  0  0  0  0  0  0999 V2000
   -2.5538    9.7239  -15.8076 C   0  0  0  0  0  0  0  0  0  0  0  0
   -3.3930    8.9297  -16.6904 N   0  0  0  0  0  0  0  0  0  0  0  0
   -3.3082    7.4925  -16.3907 C   0  0  0  0  0  0  0  0  0  0  0  0
   -2.6991    6.8679  -17.6330 C   0  0  0  0  0  0  0  0  0  0  0  0
   -3.2778    7.7457  -18.6976 N   0  0  0  0  0  0  0  0  0  0  0  0
   -3.1842    9.1029  -18.1276 C   0  0  0  0  0  0  0  0  0  0  0  0
   -1.8562    9.7390  -18.6337 C   0  0  0  0  0  0  0  0  0  0  0  0
   -2.1586   10.3533  -20.0201 C   0  0  0  0  0  0  0  0  0  0  0  0
   -3.6868   10.2855  -20.1785 C   0  0  0  0  0  0  0  0  0  0  0  0
   -3.9951    9.1546  -20.9829 O   0  0  0  0  0  0  0  0  0  0  0  0
   -4.2874   11.4380  -20.8233 N   0  0  0  0  0  0  0  0  0  0  0  0
   -5.6357   11.7496  -20.3374 C   0  0  0  0  0  0  0  0  0  0  0  0
   -6.4235   10.5361  -19.8259 C   0  0  0  0  0  0  0  0  0  0  0  0
   -5.6893    9.7796  -18.7070 C   0  0  0  0  0  0  0  0  0  0  0  0
   -4.1934   10.0962  -18.7400 C   0  0  0  0  0  0  0  0  0  0  0  0
   -4.2491    7.4970  -18.8849 H   0  0  0  0  0  0  0  0  0  0  0  0
   -3.6655    9.2991  -21.8837 H   0  0  0  0  0  0  0  0  0  0  0  0
   -4.3406   11.2549  -21.8253 H   0  0  0  0  0  0  0  0  0  0  0  0
   -2.9424    5.3439  -17.7462 C   0  0  0  0  0  0  0  0  0  0  0  0
   -1.8110    4.7555  -18.2242 F   0  0  0  0  0  0  0  0  0  0  0  0
   -3.1274    4.8002  -16.5131 F   0  0  0  0  0  0  0  0  0  0  0  0
   -3.9740    5.0099  -18.6681 O   0  0  0  0  0  0  0  0  0  0  0  0
   -5.2495    4.8243  -18.2439 C   0  0  0  0  0  0  0  0  0  0  0  0
   -6.1962    4.6762  -19.2812 C   0  0  0  0  0  0  0  0  0  0  0  0
   -7.5452    4.4746  -19.0045 C   0  0  0  0  0  0  0  0  0  0  0  0
   -7.8927    4.4407  -17.6835 C   0  0  0  0  0  0  0  0  0  0  0  0
   -6.9679    4.5750  -16.6526 C   0  0  0  0  0  0  0  0  0  0  0  0
   -5.6468    4.7902  -16.9134 C   0  0  0  0  0  0  0  0  0  0  0  0
   -7.6070    4.4274  -15.3335 C   0  0  0  0  0  0  0  0  0  0  0  0
   -8.9389    4.1130  -15.7293 N   0  0  0  0  0  0  0  0  0  0  0  0
   -9.1863    4.2763  -17.0594 C   0  0  0  0  0  0  0  0  0  0  0  0
  -10.2929    4.3092  -17.5442 O   0  0  0  0  0  0  0  0  0  0  0  0
   -9.6243    3.8032  -15.0941 H   0  0  0  0  0  0  0  0  0  0  0  0
  1  2  1  0  0  0
  2  3  1  0  0  0
  3  4  1  0  0  0
  4 19  1  0  0  0
 19 20  1  0  0  0
 19 21  1  0  0  0
 19 22  1  0  0  0
 22 23  1  0  0  0
 23 24  2  0  0  0
 24 25  1  0  0  0
 25 26  2  0  0  0
 26 27  1  0  0  0
 27 28  2  0  0  0
 27 29  1  0  0  0
 29 30  1  0  0  0
 30 31  1  0  0  0
 31 32  2  0  0  0
  4  5  1  0  0  0
  5  6  1  0  0  0
  6  7  1  0  0  0
  7  8  1  0  0  0
  8  9  1  0  0  0
  9 10  1  0  0  0
  9 11  1  0  0  0
 11 12  1  0  0  0
 12 13  1  0  0  0
 13 14  1  0  0  0
 15 14  1  0  0  0
  6  2  1  0  0  0
 15  9  1  0  0  0
 28 23  1  0  0  0
 15  6  1  0  0  0
 31 26  1  0  0  0
 30 33  1  0  0  0
  5 16  1  0  0  0
 10 17  1  0  0  0
 11 18  1  0  0  0
M  END
> <minimizedAffinity>
-6.60491

> <minimizedRMSD>
1.93185

$$$$
P6738


 30 32  0  0  0  0  0  0  0  0999 V2000
   -7.7925    6.6701  -10.2999 C   0  0  0  0  0  0  0  0  0  0  0  0
   -7.9144    6.2027  -11.5709 C   0  0  0  0  0  0  0  0  0  0  0  0
   -8.2229    4.8800  -11.6489 C   0  0  0  0  0  0  0  0  0  0  0  0
   -8.4319    4.0843  -10.5880 N   0  0  0  0  0  0  0  0  0  0  0  0
   -8.2927    4.6344   -9.3633 C   0  0  0  0  0  0  0  0  0  0  0  0
   -7.9619    5.9274   -9.1928 N   0  0  0  0  0  0  0  0  0  0  0  0
   -8.4696    3.8380   -8.2321 N   0  0  0  0  0  0  0  0  0  0  0  0
   -8.6992    4.5460   -6.9667 C   0  0  0  0  0  0  0  0  0  0  0  0
   -9.1027    3.6302   -5.7903 C   0  0  0  0  0  0  0  0  0  0  0  0
  -10.1004    2.6106   -6.1406 N   0  0  0  0  0  0  0  0  0  0  0  0
   -9.4944    1.7993   -7.2132 C   0  0  0  0  0  0  0  0  0  0  0  0
   -9.2077    2.5964   -8.4949 C   0  0  0  0  0  0  0  0  0  0  0  0
  -10.9576    3.0528   -6.4723 H   0  0  0  0  0  0  0  0  0  0  0  0
   -7.8672    8.5787   -9.0088 C   0  0  0  0  0  0  0  0  0  0  0  0
   -7.3664    7.9776  -10.1903 O   0  0  0  0  0  0  0  0  0  0  0  0
   -8.3513    4.3930  -12.9284 O   0  0  0  0  0  0  0  0  0  0  0  0
   -7.1874    3.7234  -13.3928 C   0  0  0  0  0  0  0  0  0  0  0  0
   -6.5140    4.5821  -14.3722 N   0  0  0  0  0  0  0  0  0  0  0  0
   -5.7397    5.1193  -14.0873 H   0  0  0  0  0  0  0  0  0  0  0  0
   -6.9437    4.6570  -15.6999 C   0  0  0  0  0  0  0  0  0  0  0  0
   -5.9902    4.8584  -16.7132 C   0  0  0  0  0  0  0  0  0  0  0  0
   -6.3208    4.7543  -18.0745 C   0  0  0  0  0  0  0  0  0  0  0  0
   -5.2943    4.9079  -19.1531 C   0  0  0  0  0  0  0  0  0  0  0  0
   -7.6384    4.4906  -18.4290 C   0  0  0  0  0  0  0  0  0  0  0  0
   -8.6060    4.3035  -17.4493 C   0  0  0  0  0  0  0  0  0  0  0  0
   -8.2493    4.3738  -16.0967 C   0  0  0  0  0  0  0  0  0  0  0  0
   -9.9816    3.8947  -17.8427 C   0  0  0  0  0  0  0  0  0  0  0  0
  -10.8476    4.9796  -18.2414 N   0  0  0  0  0  0  0  0  0  0  0  0
  -10.9840    5.6129  -17.4536 H   0  0  0  0  0  0  0  0  0  0  0  0
  -11.7492    4.6043  -18.5360 H   0  0  0  0  0  0  0  0  0  0  0  0
 14 15  1  0  0  0
 15  1  1  0  0  0
  1  2  2  0  0  0
  2  3  1  0  0  0
  3 16  1  0  0  0
 16 17  1  0  0  0
 17 18  1  0  0  0
 18 20  1  0  0  0
 20 21  2  0  0  0
 21 22  1  0  0  0
 22 23  1  0  0  0
 22 24  2  0  0  0
 24 25  1  0  0  0
 25 27  1  0  0  0
 27 28  1  0  0  0
 25 26  2  0  0  0
  3  4  2  0  0  0
  4  5  1  0  0  0
  5  7  1  0  0  0
  7  8  1  0  0  0
  8  9  1  0  0  0
  9 10  1  0  0  0
 10 11  1  0  0  0
 11 12  1  0  0  0
  5  6  2  0  0  0
  6  1  1  0  0  0
 26 20  1  0  0  0
 12  7  1  0  0  0
 18 19  1  0  0  0
 28 29  1  0  0  0
 28 30  1  0  0  0
 10 13  1  0  0  0
M  END
> <minimizedAffinity>
-7.85557

> <minimizedRMSD>
0.61494

$$$$
P6749


 33 37  0  0  0  0  0  0  0  0999 V2000
   -8.2699    4.2053  -17.8696 C   0  0  0  0  0  0  0  0  0  0  0  0
   -8.8632    4.5999  -16.5208 C   0  0  0  0  0  0  0  0  0  0  0  0
   -7.8102    4.4358  -15.4304 C   0  0  0  0  0  0  0  0  0  0  0  0
   -6.5700    5.1736  -15.7894 N   0  0  0  0  0  0  0  0  0  0  0  0
   -6.1164    4.7335  -17.1014 C   0  0  0  0  0  0  0  0  0  0  0  0
   -7.1209    5.0820  -18.1189 N   0  0  0  0  0  0  0  0  0  0  0  0
   -6.4301    4.8664  -19.3214 N   0  0  0  0  0  0  0  0  0  0  0  0
   -5.0598    5.0386  -19.1507 C   0  0  0  0  0  0  0  0  0  0  0  0
   -4.2174    5.0775  -20.0333 O   0  0  0  0  0  0  0  0  0  0  0  0
   -4.8024    5.2945  -17.6687 C   0  0  0  0  0  0  0  0  0  0  0  0
   -4.6195    6.8148  -17.5085 C   0  0  0  0  0  0  0  0  0  0  0  0
   -4.2015    7.2138  -16.0938 C   0  0  0  0  0  0  0  0  0  0  0  0
   -3.2594    6.2930  -15.4546 N   0  0  0  0  0  0  0  0  0  0  0  0
   -2.5855    5.4244  -16.4134 C   0  0  0  0  0  0  0  0  0  0  0  0
   -3.5834    4.5200  -17.1296 C   0  0  0  0  0  0  0  0  0  0  0  0
   -5.8464    4.9830  -15.0962 H   0  0  0  0  0  0  0  0  0  0  0  0
   -6.8588    4.6249  -20.1741 H   0  0  0  0  0  0  0  0  0  0  0  0
   -3.7706    5.7117  -14.7903 H   0  0  0  0  0  0  0  0  0  0  0  0
  -10.5130    4.5965  -18.6336 C   0  0  0  0  0  0  0  0  0  0  0  0
   -9.2422    4.0538  -18.8988 O   0  0  0  0  0  0  0  0  0  0  0  0
   -8.3954    4.9440  -14.1095 C   0  0  0  0  0  0  0  0  0  0  0  0
   -9.3038    5.7559  -13.9950 O   0  0  0  0  0  0  0  0  0  0  0  0
   -7.7345    4.2797  -13.0724 O   0  0  0  0  0  0  0  0  0  0  0  0
   -7.9436    4.4898  -11.6908 C   0  0  0  0  0  0  0  0  0  0  0  0
   -7.5780    5.6566  -11.0132 C   0  0  0  0  0  0  0  0  0  0  0  0
   -7.7357    5.7302   -9.6239 C   0  0  0  0  0  0  0  0  0  0  0  0
   -8.2499    4.6309   -8.9524 C   0  0  0  0  0  0  0  0  0  0  0  0
   -8.6138    3.4789   -9.6363 C   0  0  0  0  0  0  0  0  0  0  0  0
   -8.4669    3.3906  -11.0083 C   0  0  0  0  0  0  0  0  0  0  0  0
   -9.0784    2.4469   -8.6659 C   0  0  0  0  0  0  0  0  0  0  0  0
   -9.1981    3.1432   -7.3587 N   0  0  0  0  0  0  0  0  0  0  0  0
   -8.4748    4.4263   -7.4918 C   0  0  0  0  0  0  0  0  0  0  0  0
   -8.7788    2.5785   -6.6200 H   0  0  0  0  0  0  0  0  0  0  0  0
 19 20  1  0  0  0
  1 20  1  0  0  0
  1  2  1  0  0  0
  2  3  1  0  0  0
  3 21  1  0  0  0
 21 22  2  0  0  0
 21 23  1  0  0  0
 23 24  1  0  0  0
 24 25  2  0  0  0
 25 26  1  0  0  0
 26 27  2  0  0  0
 27 28  1  0  0  0
 28 29  2  0  0  0
 28 30  1  0  0  0
 30 31  1  0  0  0
 31 32  1  0  0  0
  3  4  1  0  0  0
  5  4  1  0  0  0
  5  6  1  0  0  0
  6  7  1  0  0  0
  7  8  1  0  0  0
  8  9  2  0  0  0
  8 10  1  0  0  0
 10 11  1  0  0  0
 11 12  1  0  0  0
 12 13  1  0  0  0
 13 14  1  0  0  0
 14 15  1  0  0  0
  6  1  1  0  0  0
 15 10  1  0  0  0
 29 24  1  0  0  0
 10  5  1  0  0  0
 32 27  1  0  0  0
 31 33  1  0  0  0
  4 16  1  0  0  0
  7 17  1  0  0  0
 13 18  1  0  0  0
M  END
> <minimizedAffinity>
-8.14744

> <minimizedRMSD>
0.73590

$$$$
P6834


 31 34  0  0  0  0  0  0  0  0999 V2000
   -8.5358    4.2153  -12.7487 N   0  0  0  0  0  0  0  0  0  0  0  0
   -9.1576    3.5555  -13.1325 H   0  0  0  0  0  0  0  0  0  0  0  0
   -8.4842    4.3146  -11.3611 C   0  0  0  0  0  0  0  0  0  0  0  0
   -8.0084    5.4398  -10.6605 C   0  0  0  0  0  0  0  0  0  0  0  0
   -7.9580    5.4904   -9.2574 C   0  0  0  0  0  0  0  0  0  0  0  0
   -8.2964    4.3615   -8.5416 C   0  0  0  0  0  0  0  0  0  0  0  0
   -8.6613    3.2054   -9.2117 C   0  0  0  0  0  0  0  0  0  0  0  0
   -8.7859    3.1791  -10.5972 C   0  0  0  0  0  0  0  0  0  0  0  0
   -8.7782    2.0899   -8.2299 C   0  0  0  0  0  0  0  0  0  0  0  0
   -8.8274    2.7411   -6.9005 N   0  0  0  0  0  0  0  0  0  0  0  0
   -8.2310    4.0901   -7.0651 C   0  0  0  0  0  0  0  0  0  0  0  0
   -8.2903    2.1993   -6.2234 H   0  0  0  0  0  0  0  0  0  0  0  0
   -8.9565    5.1333   -6.2221 C   0  0  0  0  0  0  0  0  0  0  0  0
   -8.9622    4.8163   -4.7562 C   0  0  0  0  0  0  0  0  0  0  0  0
   -9.5711    5.4379   -3.8975 O   0  0  0  0  0  0  0  0  0  0  0  0
   -8.1420    3.8137   -4.3867 O   0  0  0  0  0  0  0  0  0  0  0  0
   -7.6704    3.3306   -5.0365 H   0  0  0  0  0  0  0  0  0  0  0  0
   -7.7436    5.0095  -13.6785 C   0  0  0  0  0  0  0  0  0  0  0  0
   -7.8706    4.5736  -15.1166 C   0  0  0  0  0  0  0  0  0  0  0  0
   -8.9998    4.2535  -15.7317 N   0  0  0  0  0  0  0  0  0  0  0  0
   -8.7895    4.3090  -17.0844 N   0  0  0  0  0  0  0  0  0  0  0  0
   -7.5270    4.6172  -17.2736 C   0  0  0  0  0  0  0  0  0  0  0  0
   -6.7496    4.7623  -18.4458 C   0  0  0  0  0  0  0  0  0  0  0  0
   -5.4350    5.0401  -18.3445 C   0  0  0  0  0  0  0  0  0  0  0  0
   -4.7937    5.1909  -17.0492 C   0  0  0  0  0  0  0  0  0  0  0  0
   -3.1044    5.4795  -16.9823 Cl  0  0  0  0  0  0  0  0  0  0  0  0
   -5.5268    5.0675  -15.9320 C   0  0  0  0  0  0  0  0  0  0  0  0
   -6.8842    4.7686  -16.0536 N   0  0  0  0  0  0  0  0  0  0  0  0
   -9.3099    6.8229  -13.7480 C   0  0  0  0  0  0  0  0  0  0  0  0
   -7.9015    6.4740  -13.7015 N   0  0  0  0  0  0  0  0  0  0  0  0
   -7.4829    6.8718  -12.8607 H   0  0  0  0  0  0  0  0  0  0  0  0
 29 30  1  0  0  0
 18 30  1  0  0  0
 18  1  1  0  0  0
  1  3  1  0  0  0
  3  4  2  0  0  0
  4  5  1  0  0  0
  5  6  2  0  0  0
  6  7  1  0  0  0
  7  8  2  0  0  0
  7  9  1  0  0  0
  9 10  1  0  0  0
 10 11  1  0  0  0
 11 13  1  0  0  0
 13 14  1  0  0  0
 14 15  2  0  0  0
 14 16  1  0  0  0
 18 19  1  0  0  0
 19 20  2  0  0  0
 20 21  1  0  0  0
 21 22  2  0  0  0
 22 23  1  0  0  0
 23 24  2  0  0  0
 24 25  1  0  0  0
 25 26  1  0  0  0
 25 27  2  0  0  0
 27 28  1  0  0  0
  8  3  1  0  0  0
 28 19  1  0  0  0
 11  6  1  0  0  0
 28 22  1  0  0  0
 30 31  1  0  0  0
  1  2  1  0  0  0
 10 12  1  0  0  0
 16 17  1  0  0  0
M  END
> <minimizedAffinity>
-7.39137

> <minimizedRMSD>
0.49159

$$$$
P6845


 11 11  0  0  0  0  0  0  0  0999 V2000
   -8.0212    5.0507  -15.6718 C   0  0  0  0  0  0  0  0  0  0  0  0
   -6.6407    5.2290  -15.8408 C   0  0  0  0  0  0  0  0  0  0  0  0
   -6.0575    5.0523  -17.0968 C   0  0  0  0  0  0  0  0  0  0  0  0
   -6.8511    4.6921  -18.1799 C   0  0  0  0  0  0  0  0  0  0  0  0
   -6.2835    4.4902  -19.3728 F   0  0  0  0  0  0  0  0  0  0  0  0
   -8.2170    4.5086  -18.0373 C   0  0  0  0  0  0  0  0  0  0  0  0
   -8.7955    4.6752  -16.7812 C   0  0  0  0  0  0  0  0  0  0  0  0
   -8.6688    5.2272  -14.3183 C   0  0  0  0  0  0  0  0  0  0  0  0
   -8.2960    4.4947  -12.0520 C   0  0  0  0  0  0  0  0  0  0  0  0
   -8.3967    4.0954  -13.4459 N   0  0  0  0  0  0  0  0  0  0  0  0
   -9.1528    3.4173  -13.5405 H   0  0  0  0  0  0  0  0  0  0  0  0
  9 10  1  0  0  0
 10  8  1  0  0  0
  8  1  1  0  0  0
  1  2  2  0  0  0
  2  3  1  0  0  0
  3  4  2  0  0  0
  4  5  1  0  0  0
  4  6  1  0  0  0
  6  7  2  0  0  0
  7  1  1  0  0  0
 10 11  1  0  0  0
M  END
> <minimizedAffinity>
-4.53966

> <minimizedRMSD>
0.70846

$$$$
P7018


 14 15  0  0  0  0  0  0  0  0999 V2000
   -1.2592    6.0998  -17.0866 C   0  0  0  0  0  0  0  0  0  0  0  0
   -2.4853    6.2283  -17.9824 C   0  0  0  0  0  0  0  0  0  0  0  0
   -2.3356    7.3705  -18.9759 C   0  0  0  0  0  0  0  0  0  0  0  0
   -3.7085    7.6617  -19.4118 N   0  0  0  0  0  0  0  0  0  0  0  0
   -4.0676    6.8052  -20.5503 C   0  0  0  0  0  0  0  0  0  0  0  0
   -4.5245    7.4468  -18.2077 N   0  0  0  0  0  0  0  0  0  0  0  0
   -5.9222    7.0438  -18.4065 C   0  0  0  0  0  0  0  0  0  0  0  0
   -6.2175    5.5232  -18.4343 C   0  0  0  0  0  0  0  0  0  0  0  0
   -5.2973    4.6533  -17.6775 N   0  0  0  0  0  0  0  0  0  0  0  0
   -4.5865    5.3990  -16.6655 C   0  0  0  0  0  0  0  0  0  0  0  0
   -3.7418    4.4731  -16.0192 O   0  0  0  0  0  0  0  0  0  0  0  0
   -3.7792    6.5993  -17.2463 C   0  0  0  0  0  0  0  0  0  0  0  0
   -4.6228    4.2416  -18.3225 H   0  0  0  0  0  0  0  0  0  0  0  0
   -3.1289    4.0889  -16.6654 H   0  0  0  0  0  0  0  0  0  0  0  0
  2  1  1  0  0  0
  2  3  1  0  0  0
  3  4  1  0  0  0
  4  5  1  0  0  0
  4  6  1  0  0  0
  6  7  1  0  0  0
  7  8  1  0  0  0
  8  9  1  0  0  0
  9 10  1  0  0  0
 10 11  1  0  0  0
 10 12  1  0  0  0
 12  2  1  0  0  0
 12  6  1  0  0  0
  9 13  1  0  0  0
 11 14  1  0  0  0
M  END
> <minimizedAffinity>
-2.54720

> <minimizedRMSD>
0.88688

$$$$
P7197


 32 35  0  0  0  0  0  0  0  0999 V2000
   -7.5590    5.4424  -13.9370 C   0  0  0  0  0  0  0  0  0  0  0  0
   -4.1797    5.6591  -17.7813 C   0  0  0  0  0  0  0  0  0  0  0  0
   -5.5766    5.3144  -17.3517 C   0  0  0  0  0  0  0  0  0  0  0  0
   -5.9477    5.4704  -15.9600 C   0  0  0  0  0  0  0  0  0  0  0  0
   -7.2222    5.1616  -15.3994 C   0  0  0  0  0  0  0  0  0  0  0  0
   -8.0129    4.6397  -16.4242 C   0  0  0  0  0  0  0  0  0  0  0  0
   -9.2783    4.1785  -16.2866 C   0  0  0  0  0  0  0  0  0  0  0  0
   -9.7495    4.0014  -17.5484 N   0  0  0  0  0  0  0  0  0  0  0  0
   -8.7906    4.0075  -18.4784 N   0  0  0  0  0  0  0  0  0  0  0  0
   -7.7099    4.4724  -17.8267 C   0  0  0  0  0  0  0  0  0  0  0  0
   -6.4546    4.8033  -18.3325 C   0  0  0  0  0  0  0  0  0  0  0  0
  -10.7040    3.8804  -17.7570 H   0  0  0  0  0  0  0  0  0  0  0  0
   -8.8025    6.4249  -13.7466 C   0  0  0  0  0  0  0  0  0  0  0  0
   -9.8934    6.1155  -14.0484 O   0  0  0  0  0  0  0  0  0  0  0  0
   -8.2749    7.7168  -13.0299 N   0  0  0  0  0  0  0  0  0  0  0  0
   -7.2950    7.7767  -12.9560 H   0  0  0  0  0  0  0  0  0  0  0  0
   -8.9956    8.8352  -12.4594 C   0  0  0  0  0  0  0  0  0  0  0  0
  -10.0768    9.4593  -13.3466 C   0  0  0  0  0  0  0  0  0  0  0  0
  -11.4813    9.1198  -12.8465 C   0  0  0  0  0  0  0  0  0  0  0  0
   -9.9159   10.9827  -13.3760 C   0  0  0  0  0  0  0  0  0  0  0  0
   -7.8042    4.1839  -13.1919 N   0  0  0  0  0  0  0  0  0  0  0  0
   -7.8907    3.3370  -13.6864 H   0  0  0  0  0  0  0  0  0  0  0  0
   -7.9150    4.1813  -11.7882 C   0  0  0  0  0  0  0  0  0  0  0  0
   -7.2643    5.1076  -10.9506 C   0  0  0  0  0  0  0  0  0  0  0  0
   -7.3959    5.0867   -9.5550 C   0  0  0  0  0  0  0  0  0  0  0  0
   -8.1257    4.0705   -8.9824 C   0  0  0  0  0  0  0  0  0  0  0  0
   -8.6925    3.0845   -9.7716 C   0  0  0  0  0  0  0  0  0  0  0  0
   -8.5937    3.1238  -11.1603 C   0  0  0  0  0  0  0  0  0  0  0  0
   -9.3117    2.0600   -8.8811 C   0  0  0  0  0  0  0  0  0  0  0  0
   -9.3226    2.6449   -7.5163 N   0  0  0  0  0  0  0  0  0  0  0  0
   -8.3918    3.7883   -7.5440 C   0  0  0  0  0  0  0  0  0  0  0  0
   -9.0114    1.9535   -6.8340 H   0  0  0  0  0  0  0  0  0  0  0  0
  2  3  1  0  0  0
  3  4  1  0  0  0
  4  5  2  0  0  0
  5  1  1  0  0  0
  1 21  1  0  0  0
 21 23  1  0  0  0
 23 24  2  0  0  0
 24 25  1  0  0  0
 25 26  2  0  0  0
 26 27  1  0  0  0
 27 28  2  0  0  0
 27 29  1  0  0  0
 29 30  1  0  0  0
 30 31  1  0  0  0
  1 13  1  0  0  0
 13 14  2  0  0  0
 13 15  1  0  0  0
 15 17  1  0  0  0
 17 18  1  0  0  0
 18 19  1  0  0  0
 18 20  1  0  0  0
  5  6  1  0  0  0
  6  7  2  0  0  0
  7  8  1  0  0  0
  8  9  1  0  0  0
  9 10  2  0  0  0
 10 11  1  0  0  0
 11  3  2  0  0  0
 28 23  1  0  0  0
 10  6  1  0  0  0
 31 26  1  0  0  0
 21 22  1  0  0  0
 30 32  1  0  0  0
 15 16  1  0  0  0
  8 12  1  0  0  0
M  END
> <minimizedAffinity>
-8.04845

> <minimizedRMSD>
0.39294

$$$$
P7220


 37 40  0  0  0  0  0  0  0  0999 V2000
   -6.9782    4.7138  -14.1711 C   0  0  0  0  0  0  0  0  0  0  0  0
   -7.3345    4.6631  -15.6843 C   0  0  0  0  0  0  0  0  0  0  0  0
   -8.6686    4.4596  -16.0789 C   0  0  0  0  0  0  0  0  0  0  0  0
   -9.0687    4.3769  -17.4147 C   0  0  0  0  0  0  0  0  0  0  0  0
   -8.1277    4.4627  -18.4173 C   0  0  0  0  0  0  0  0  0  0  0  0
   -6.7949    4.6340  -18.0708 C   0  0  0  0  0  0  0  0  0  0  0  0
   -6.3735    4.7777  -16.7244 C   0  0  0  0  0  0  0  0  0  0  0  0
   -4.8897    4.9960  -16.4739 C   0  0  0  0  0  0  0  0  0  0  0  0
   -4.4648    4.1758  -15.4700 F   0  0  0  0  0  0  0  0  0  0  0  0
   -4.1231    4.6326  -17.5420 F   0  0  0  0  0  0  0  0  0  0  0  0
   -4.5245    6.3625  -16.0907 N   0  0  0  0  0  0  0  0  0  0  0  0
   -5.1147    7.4127  -16.9348 C   0  0  0  0  0  0  0  0  0  0  0  0
   -4.5657    7.5214  -18.3816 C   0  0  0  0  0  0  0  0  0  0  0  0
   -3.2118    6.9621  -18.5716 N   0  0  0  0  0  0  0  0  0  0  0  0
   -2.4270    7.1769  -17.3449 C   0  0  0  0  0  0  0  0  0  0  0  0
   -3.0529    6.5291  -16.0798 C   0  0  0  0  0  0  0  0  0  0  0  0
   -2.7559    7.4293  -19.3554 H   0  0  0  0  0  0  0  0  0  0  0  0
   -7.1262    7.1254  -13.9794 O   0  0  0  0  0  0  0  0  0  0  0  0
   -6.4964    6.1624  -13.7619 C   0  0  0  0  0  0  0  0  0  0  0  0
   -5.1165    5.9964  -13.0511 N   0  0  0  0  0  0  0  0  0  0  0  0
   -4.7559    5.0803  -13.0592 H   0  0  0  0  0  0  0  0  0  0  0  0
   -4.2823    6.9697  -12.3828 C   0  0  0  0  0  0  0  0  0  0  0  0
   -2.9716    6.4106  -11.8441 C   0  0  0  0  0  0  0  0  0  0  0  0
   -3.1954    5.2622  -11.1568 F   0  0  0  0  0  0  0  0  0  0  0  0
   -2.1242    6.1040  -12.8580 F   0  0  0  0  0  0  0  0  0  0  0  0
   -8.1296    4.2450  -13.3306 N   0  0  0  0  0  0  0  0  0  0  0  0
   -8.9371    3.8912  -13.7688 H   0  0  0  0  0  0  0  0  0  0  0  0
   -8.0729    4.3033  -11.9255 C   0  0  0  0  0  0  0  0  0  0  0  0
   -7.9582    5.5232  -11.2299 C   0  0  0  0  0  0  0  0  0  0  0  0
   -8.0133    5.5906   -9.8297 C   0  0  0  0  0  0  0  0  0  0  0  0
   -8.2392    4.4242   -9.1280 C   0  0  0  0  0  0  0  0  0  0  0  0
   -8.3720    3.2122   -9.7908 C   0  0  0  0  0  0  0  0  0  0  0  0
   -8.2675    3.1328  -11.1735 C   0  0  0  0  0  0  0  0  0  0  0  0
   -8.6682    2.1396   -8.7917 C   0  0  0  0  0  0  0  0  0  0  0  0
   -9.0320    2.8637   -7.5420 N   0  0  0  0  0  0  0  0  0  0  0  0
   -8.4203    4.2016   -7.6648 C   0  0  0  0  0  0  0  0  0  0  0  0
   -8.6604    2.3759   -6.7270 H   0  0  0  0  0  0  0  0  0  0  0  0
 18 19  2  0  0  0
 19 20  1  0  0  0
 20 22  1  0  0  0
 22 23  1  0  0  0
 23 24  1  0  0  0
 23 25  1  0  0  0
 19  1  1  0  0  0
  1 26  1  0  0  0
 26 28  1  0  0  0
 28 29  2  0  0  0
 29 30  1  0  0  0
 30 31  2  0  0  0
 31 32  1  0  0  0
 32 33  2  0  0  0
 32 34  1  0  0  0
 34 35  1  0  0  0
 35 36  1  0  0  0
  1  2  1  0  0  0
  2  3  2  0  0  0
  3  4  1  0  0  0
  4  5  2  0  0  0
  5  6  1  0  0  0
  6  7  2  0  0  0
  7  8  1  0  0  0
  8  9  1  0  0  0
  8 10  1  0  0  0
  8 11  1  0  0  0
 11 12  1  0  0  0
 12 13  1  0  0  0
 13 14  1  0  0  0
 14 15  1  0  0  0
 15 16  1  0  0  0
 33 28  1  0  0  0
  7  2  1  0  0  0
 16 11  1  0  0  0
 36 31  1  0  0  0
 20 21  1  0  0  0
 26 27  1  0  0  0
 35 37  1  0  0  0
 14 17  1  0  0  0
M  END
> <minimizedAffinity>
-6.78759

> <minimizedRMSD>
0.58948

$$$$
P7236


 32 36  0  0  0  0  0  0  0  0999 V2000
   -8.3739    4.7713  -15.7963 C   0  0  0  0  0  0  0  0  0  0  0  0
   -9.2296    4.0717  -16.6428 C   0  0  0  0  0  0  0  0  0  0  0  0
   -8.9003    3.9185  -18.0019 C   0  0  0  0  0  0  0  0  0  0  0  0
   -7.7122    4.4482  -18.5238 C   0  0  0  0  0  0  0  0  0  0  0  0
   -6.8485    5.1089  -17.6670 C   0  0  0  0  0  0  0  0  0  0  0  0
   -7.1786    5.2507  -16.3180 C   0  0  0  0  0  0  0  0  0  0  0  0
   -6.1069    6.0205  -15.6286 C   0  0  0  0  0  0  0  0  0  0  0  0
   -5.7568    5.4323  -14.4052 O   0  0  0  0  0  0  0  0  0  0  0  0
   -4.9715    5.9739  -16.5464 N   0  0  0  0  0  0  0  0  0  0  0  0
   -5.5350    5.8138  -17.9205 C   0  0  0  0  0  0  0  0  0  0  0  0
   -4.5426    5.0142  -18.7816 C   0  0  0  0  0  0  0  0  0  0  0  0
   -3.6706    5.9025  -19.6760 C   0  0  0  0  0  0  0  0  0  0  0  0
   -3.2870    7.1510  -19.0205 N   0  0  0  0  0  0  0  0  0  0  0  0
   -4.4702    7.9806  -18.7809 C   0  0  0  0  0  0  0  0  0  0  0  0
   -5.7726    7.1953  -18.5695 C   0  0  0  0  0  0  0  0  0  0  0  0
   -5.4614    4.5210  -14.5573 H   0  0  0  0  0  0  0  0  0  0  0  0
   -4.3686    5.1830  -16.3196 H   0  0  0  0  0  0  0  0  0  0  0  0
   -2.6348    7.6588  -19.6181 H   0  0  0  0  0  0  0  0  0  0  0  0
   -9.4103    6.1127  -14.3026 O   0  0  0  0  0  0  0  0  0  0  0  0
   -8.7323    5.1666  -14.4113 C   0  0  0  0  0  0  0  0  0  0  0  0
   -8.0490    4.2965  -13.3351 N   0  0  0  0  0  0  0  0  0  0  0  0
   -7.4608    3.5905  -13.6884 H   0  0  0  0  0  0  0  0  0  0  0  0
   -8.1291    4.3474  -11.9426 C   0  0  0  0  0  0  0  0  0  0  0  0
   -7.8520    5.5438  -11.2573 C   0  0  0  0  0  0  0  0  0  0  0  0
   -7.8874    5.6016   -9.8608 C   0  0  0  0  0  0  0  0  0  0  0  0
   -8.2041    4.4497   -9.1672 C   0  0  0  0  0  0  0  0  0  0  0  0
   -8.4891    3.2682   -9.8374 C   0  0  0  0  0  0  0  0  0  0  0  0
   -8.4526    3.1961  -11.2244 C   0  0  0  0  0  0  0  0  0  0  0  0
   -8.8165    2.2034   -8.8457 C   0  0  0  0  0  0  0  0  0  0  0  0
   -8.6690    2.8173   -7.4983 N   0  0  0  0  0  0  0  0  0  0  0  0
   -8.3200    4.2365   -7.6986 C   0  0  0  0  0  0  0  0  0  0  0  0
   -7.9285    2.3456   -6.9791 H   0  0  0  0  0  0  0  0  0  0  0  0
 19 20  2  0  0  0
 20 21  1  0  0  0
 21 23  1  0  0  0
 23 24  2  0  0  0
 24 25  1  0  0  0
 25 26  2  0  0  0
 26 27  1  0  0  0
 27 28  2  0  0  0
 27 29  1  0  0  0
 29 30  1  0  0  0
 30 31  1  0  0  0
 20  1  1  0  0  0
  1  2  2  0  0  0
  2  3  1  0  0  0
  3  4  2  0  0  0
  4  5  1  0  0  0
  5  6  2  0  0  0
  6  7  1  0  0  0
  7  8  1  0  0  0
  7  9  1  0  0  0
  9 10  1  0  0  0
 10 11  1  0  0  0
 11 12  1  0  0  0
 12 13  1  0  0  0
 13 14  1  0  0  0
 14 15  1  0  0  0
 28 23  1  0  0  0
  6  1  1  0  0  0
 15 10  1  0  0  0
 31 26  1  0  0  0
 10  5  1  0  0  0
 21 22  1  0  0  0
 30 32  1  0  0  0
  8 16  1  0  0  0
  9 17  1  0  0  0
 13 18  1  0  0  0
M  END
> <minimizedAffinity>
-9.04527

> <minimizedRMSD>
0.74283

$$$$
P8116


 31 35  0  0  0  0  0  0  0  0999 V2000
   -8.0924    4.3188  -16.2835 C   0  0  0  0  0  0  0  0  0  0  0  0
   -9.3480    3.9512  -16.8079 C   0  0  0  0  0  0  0  0  0  0  0  0
   -9.5832    3.8754  -18.1725 C   0  0  0  0  0  0  0  0  0  0  0  0
   -8.5426    4.1217  -19.0343 C   0  0  0  0  0  0  0  0  0  0  0  0
   -7.2841    4.4437  -18.5204 C   0  0  0  0  0  0  0  0  0  0  0  0
   -6.9890    4.5433  -17.1343 C   0  0  0  0  0  0  0  0  0  0  0  0
   -5.5937    4.8817  -16.7238 C   0  0  0  0  0  0  0  0  0  0  0  0
   -5.1601    5.2437  -15.4339 C   0  0  0  0  0  0  0  0  0  0  0  0
   -3.8381    5.6091  -15.1749 C   0  0  0  0  0  0  0  0  0  0  0  0
   -2.8506    5.6875  -16.0874 N   0  0  0  0  0  0  0  0  0  0  0  0
   -3.2834    5.3359  -17.3094 C   0  0  0  0  0  0  0  0  0  0  0  0
   -4.5551    4.9141  -17.6897 C   0  0  0  0  0  0  0  0  0  0  0  0
   -4.5517    4.6230  -19.0396 N   0  0  0  0  0  0  0  0  0  0  0  0
   -3.3600    4.9387  -19.4764 C   0  0  0  0  0  0  0  0  0  0  0  0
   -2.5533    5.3598  -18.4625 N   0  0  0  0  0  0  0  0  0  0  0  0
   -1.1901    5.8002  -18.5721 C   0  0  0  0  0  0  0  0  0  0  0  0
   -7.8835    3.4920  -13.9233 N   0  0  0  0  0  0  0  0  0  0  0  0
   -8.1736    4.6903  -14.8437 C   0  0  0  0  0  0  0  0  0  0  0  0
   -8.5072    5.7768  -14.5866 O   0  0  0  0  0  0  0  0  0  0  0  0
   -7.5389    2.6928  -14.3837 H   0  0  0  0  0  0  0  0  0  0  0  0
   -7.3648    2.7318   -9.4658 C   0  0  0  0  0  0  0  0  0  0  0  0
   -6.5654    3.3009  -10.5575 N   0  0  0  0  0  0  0  0  0  0  0  0
   -6.8674    2.6009  -11.8274 C   0  0  0  0  0  0  0  0  0  0  0  0
   -8.0354    3.3471  -12.4833 C   0  0  0  0  0  0  0  0  0  0  0  0
   -8.1484    4.6496  -11.6843 C   0  0  0  0  0  0  0  0  0  0  0  0
   -6.8761    4.7173  -10.8344 C   0  0  0  0  0  0  0  0  0  0  0  0
   -5.7300    5.4024  -11.5893 C   0  0  0  0  0  0  0  0  0  0  0  0
   -5.9920    6.8904  -11.3893 C   0  0  0  0  0  0  0  0  0  0  0  0
   -6.8359    7.0362  -10.1916 N   0  0  0  0  0  0  0  0  0  0  0  0
   -7.0024    5.6776   -9.6409 C   0  0  0  0  0  0  0  0  0  0  0  0
   -7.7426    7.4299  -10.4432 H   0  0  0  0  0  0  0  0  0  0  0  0
 21 22  1  0  0  0
 22 23  1  0  0  0
 23 24  1  0  0  0
 24 17  1  0  0  0
 17 18  1  0  0  0
 18 19  2  0  0  0
 18  1  1  0  0  0
  1  2  2  0  0  0
  2  3  1  0  0  0
  3  4  2  0  0  0
  4  5  1  0  0  0
  5  6  2  0  0  0
  6  7  1  0  0  0
  7  8  2  0  0  0
  8  9  1  0  0  0
  9 10  2  0  0  0
 10 11  1  0  0  0
 11 12  2  0  0  0
 12 13  1  0  0  0
 13 14  2  0  0  0
 14 15  1  0  0  0
 15 16  1  0  0  0
 24 25  1  0  0  0
 26 25  1  0  0  0
 26 27  1  0  0  0
 27 28  1  0  0  0
 28 29  1  0  0  0
 29 30  1  0  0  0
 26 22  1  0  0  0
  6  1  1  0  0  0
 12  7  1  0  0  0
 30 26  1  0  0  0
 15 11  1  0  0  0
 17 20  1  0  0  0
 29 31  1  0  0  0
M  END
> <minimizedAffinity>
-8.09429

> <minimizedRMSD>
0.80395

$$$$
P8158


 34 37  0  0  0  0  0  0  0  0999 V2000
   -6.6671    4.7527  -16.6582 C   0  0  0  0  0  0  0  0  0  0  0  0
   -6.7687    4.3926  -18.0127 C   0  0  0  0  0  0  0  0  0  0  0  0
   -7.9990    4.1292  -18.6244 C   0  0  0  0  0  0  0  0  0  0  0  0
   -9.1624    4.1204  -17.8776 C   0  0  0  0  0  0  0  0  0  0  0  0
   -9.0896    4.3954  -16.5212 C   0  0  0  0  0  0  0  0  0  0  0  0
   -7.8723    4.7500  -15.9232 C   0  0  0  0  0  0  0  0  0  0  0  0
   -3.6240    4.5609  -14.4490 C   0  0  0  0  0  0  0  0  0  0  0  0
   -4.7635    4.2035  -15.1487 C   0  0  0  0  0  0  0  0  0  0  0  0
   -5.3582    5.1096  -16.0487 C   0  0  0  0  0  0  0  0  0  0  0  0
   -4.6929    6.3386  -16.2523 C   0  0  0  0  0  0  0  0  0  0  0  0
   -3.5256    6.5753  -15.5143 C   0  0  0  0  0  0  0  0  0  0  0  0
   -2.9764    5.7242  -14.6233 N   0  0  0  0  0  0  0  0  0  0  0  0
   -2.0212    4.0996  -12.8110 C   0  0  0  0  0  0  0  0  0  0  0  0
   -3.1820    3.6562  -13.5034 O   0  0  0  0  0  0  0  0  0  0  0  0
   -5.1727    7.4451  -17.1658 C   0  0  0  0  0  0  0  0  0  0  0  0
   -4.7061    7.3200  -18.6253 C   0  0  0  0  0  0  0  0  0  0  0  0
   -3.4123    7.9675  -18.8736 N   0  0  0  0  0  0  0  0  0  0  0  0
   -3.4903    8.9667  -18.6841 H   0  0  0  0  0  0  0  0  0  0  0  0
   -3.1427    7.8261  -19.8471 H   0  0  0  0  0  0  0  0  0  0  0  0
   -7.9585    5.3309  -14.5543 C   0  0  0  0  0  0  0  0  0  0  0  0
   -7.9833    6.4906  -14.4634 O   0  0  0  0  0  0  0  0  0  0  0  0
   -8.0990    4.2456  -13.4785 N   0  0  0  0  0  0  0  0  0  0  0  0
   -7.9649    3.3253  -13.8016 H   0  0  0  0  0  0  0  0  0  0  0  0
   -8.3941    4.3536  -12.0775 C   0  0  0  0  0  0  0  0  0  0  0  0
   -8.5743    3.0549  -11.3141 C   0  0  0  0  0  0  0  0  0  0  0  0
   -8.5644    3.5439   -9.9332 N   0  0  0  0  0  0  0  0  0  0  0  0
   -8.5096    2.4651   -8.9662 C   0  0  0  0  0  0  0  0  0  0  0  0
   -7.5442    4.5954   -9.8249 C   0  0  0  0  0  0  0  0  0  0  0  0
   -6.2088    4.2618   -9.1506 C   0  0  0  0  0  0  0  0  0  0  0  0
   -5.6641    5.6390   -8.8157 C   0  0  0  0  0  0  0  0  0  0  0  0
   -6.8313    6.4179   -8.3903 N   0  0  0  0  0  0  0  0  0  0  0  0
   -8.0303    5.7577   -8.9368 C   0  0  0  0  0  0  0  0  0  0  0  0
   -7.3093    5.0621  -11.2812 C   0  0  0  0  0  0  0  0  0  0  0  0
   -6.7641    7.3701   -8.7499 H   0  0  0  0  0  0  0  0  0  0  0  0
 13 14  1  0  0  0
 14  7  1  0  0  0
  7  8  2  0  0  0
  8  9  1  0  0  0
  9  1  1  0  0  0
  1  2  2  0  0  0
  2  3  1  0  0  0
  3  4  2  0  0  0
  4  5  1  0  0  0
  5  6  2  0  0  0
  6 20  1  0  0  0
 20 21  2  0  0  0
 20 22  1  0  0  0
 24 22  1  0  0  0
 24 25  1  0  0  0
 25 26  1  0  0  0
 26 27  1  0  0  0
 26 28  1  0  0  0
 28 29  1  0  0  0
 29 30  1  0  0  0
 30 31  1  0  0  0
 31 32  1  0  0  0
 28 33  1  0  0  0
  9 10  2  0  0  0
 10 15  1  0  0  0
 15 16  1  0  0  0
 16 17  1  0  0  0
 10 11  1  0  0  0
 11 12  2  0  0  0
 12  7  1  0  0  0
  6  1  1  0  0  0
 33 24  1  0  0  0
 32 28  1  0  0  0
 22 23  1  0  0  0
 31 34  1  0  0  0
 17 18  1  0  0  0
 17 19  1  0  0  0
M  END
> <minimizedAffinity>
-6.40563

> <minimizedRMSD>
1.18652

$$$$
P8317


 35 37  0  0  0  0  0  0  0  0999 V2000
   -6.4831    5.2633  -16.4650 C   0  0  0  0  0  0  0  0  0  0  0  0
   -7.6253    4.9677  -15.6981 C   0  0  0  0  0  0  0  0  0  0  0  0
   -8.7786    4.4705  -16.2955 C   0  0  0  0  0  0  0  0  0  0  0  0
   -8.7918    4.2810  -17.6701 C   0  0  0  0  0  0  0  0  0  0  0  0
  -10.2588    3.8626  -18.3968 Cl  0  0  0  0  0  0  0  0  0  0  0  0
   -7.6766    4.5194  -18.4627 C   0  0  0  0  0  0  0  0  0  0  0  0
   -6.5261    5.0133  -17.8598 C   0  0  0  0  0  0  0  0  0  0  0  0
   -3.5718    9.2427  -15.6944 C   0  0  0  0  0  0  0  0  0  0  0  0
   -3.8829    7.7977  -15.5033 C   0  0  0  0  0  0  0  0  0  0  0  0
   -5.0669    7.2457  -15.9814 C   0  0  0  0  0  0  0  0  0  0  0  0
   -5.2973    5.8712  -15.8632 C   0  0  0  0  0  0  0  0  0  0  0  0
   -4.3234    5.1142  -15.2173 C   0  0  0  0  0  0  0  0  0  0  0  0
   -3.1686    5.6151  -14.7301 N   0  0  0  0  0  0  0  0  0  0  0  0
   -2.9728    6.9379  -14.9000 C   0  0  0  0  0  0  0  0  0  0  0  0
   -1.8134    7.4431  -14.4500 F   0  0  0  0  0  0  0  0  0  0  0  0
   -7.7330    5.3569  -14.2717 C   0  0  0  0  0  0  0  0  0  0  0  0
   -7.8148    6.4897  -14.0065 O   0  0  0  0  0  0  0  0  0  0  0  0
   -7.7922    4.1107  -13.3648 N   0  0  0  0  0  0  0  0  0  0  0  0
   -7.6193    3.2576  -13.8248 H   0  0  0  0  0  0  0  0  0  0  0  0
   -8.0454    3.9981  -12.0279 C   0  0  0  0  0  0  0  0  0  0  0  0
   -8.5452    2.8967  -11.3050 C   0  0  0  0  0  0  0  0  0  0  0  0
   -8.6284    3.1477   -9.9962 N   0  0  0  0  0  0  0  0  0  0  0  0
   -8.2099    4.4194   -9.8922 N   0  0  0  0  0  0  0  0  0  0  0  0
   -8.1242    5.0390   -8.5945 C   0  0  0  0  0  0  0  0  0  0  0  0
   -7.8492    4.9743  -11.0844 C   0  0  0  0  0  0  0  0  0  0  0  0
   -5.3353    5.3432  -18.6975 C   0  0  0  0  0  0  0  0  0  0  0  0
   -4.3749    4.6936  -18.5812 O   0  0  0  0  0  0  0  0  0  0  0  0
   -5.5875    6.6123  -19.5345 N   0  0  0  0  0  0  0  0  0  0  0  0
   -6.5176    6.9349  -19.5237 H   0  0  0  0  0  0  0  0  0  0  0  0
   -4.6695    7.4163  -20.3429 C   0  0  0  0  0  0  0  0  0  0  0  0
   -5.4307    8.0610  -21.5070 C   0  0  0  0  0  0  0  0  0  0  0  0
   -3.5194    6.5699  -20.9077 C   0  0  0  0  0  0  0  0  0  0  0  0
   -4.0511    8.5169  -19.4423 C   0  0  0  0  0  0  0  0  0  0  0  0
   -5.0483    9.3798  -18.8765 O   0  0  0  0  0  0  0  0  0  0  0  0
   -5.5265    9.8321  -19.5891 H   0  0  0  0  0  0  0  0  0  0  0  0
  8  9  1  0  0  0
  9 10  2  0  0  0
 10 11  1  0  0  0
 11  1  1  0  0  0
  1  2  1  0  0  0
  2 16  1  0  0  0
 16 17  2  0  0  0
 16 18  1  0  0  0
 18 20  1  0  0  0
 20 21  1  0  0  0
 21 22  2  0  0  0
 22 23  1  0  0  0
 23 24  1  0  0  0
 23 25  1  0  0  0
  2  3  2  0  0  0
  3  4  1  0  0  0
  4  5  1  0  0  0
  4  6  2  0  0  0
  6  7  1  0  0  0
  7 26  1  0  0  0
 26 27  2  0  0  0
 26 28  1  0  0  0
 28 30  1  0  0  0
 30 31  1  0  0  0
 30 32  1  0  0  0
 30 33  1  0  0  0
 33 34  1  0  0  0
 11 12  2  0  0  0
 12 13  1  0  0  0
 13 14  2  0  0  0
 14 15  1  0  0  0
 14  9  1  0  0  0
  7  1  2  0  0  0
 25 20  2  0  0  0
 18 19  1  0  0  0
 28 29  1  0  0  0
 34 35  1  0  0  0
M  END
> <minimizedAffinity>
-7.33892

> <minimizedRMSD>
0.67627

$$$$
P8322


 26 28  0  0  0  0  0  0  0  0999 V2000
   -6.7695    5.1952  -16.2720 C   0  0  0  0  0  0  0  0  0  0  0  0
   -8.0148    4.9196  -15.6731 C   0  0  0  0  0  0  0  0  0  0  0  0
   -9.0578    4.3315  -16.3911 C   0  0  0  0  0  0  0  0  0  0  0  0
   -8.8850    4.0061  -17.7181 C   0  0  0  0  0  0  0  0  0  0  0  0
   -7.6533    4.2284  -18.3384 C   0  0  0  0  0  0  0  0  0  0  0  0
   -7.5656    3.7526  -19.7491 C   0  0  0  0  0  0  0  0  0  0  0  0
   -6.5822    4.8147  -17.6290 C   0  0  0  0  0  0  0  0  0  0  0  0
   -5.2672    5.0707  -18.3269 C   0  0  0  0  0  0  0  0  0  0  0  0
   -4.2135    9.2649  -14.8213 C   0  0  0  0  0  0  0  0  0  0  0  0
   -4.4387    7.7898  -14.8146 C   0  0  0  0  0  0  0  0  0  0  0  0
   -5.5128    7.2166  -15.4964 C   0  0  0  0  0  0  0  0  0  0  0  0
   -5.6820    5.8271  -15.5109 C   0  0  0  0  0  0  0  0  0  0  0  0
   -4.7401    5.0749  -14.8101 C   0  0  0  0  0  0  0  0  0  0  0  0
   -3.6683    5.5883  -14.1645 N   0  0  0  0  0  0  0  0  0  0  0  0
   -3.5488    6.9304  -14.1815 C   0  0  0  0  0  0  0  0  0  0  0  0
   -2.4809    7.4526  -13.5584 F   0  0  0  0  0  0  0  0  0  0  0  0
   -8.3394    5.2929  -14.2734 C   0  0  0  0  0  0  0  0  0  0  0  0
   -8.9388    6.2687  -14.0510 O   0  0  0  0  0  0  0  0  0  0  0  0
   -7.8559    4.1760  -13.3223 N   0  0  0  0  0  0  0  0  0  0  0  0
   -7.2962    3.4864  -13.7471 H   0  0  0  0  0  0  0  0  0  0  0  0
   -8.0778    3.9901  -11.9925 C   0  0  0  0  0  0  0  0  0  0  0  0
   -8.5858    2.8515  -11.3378 C   0  0  0  0  0  0  0  0  0  0  0  0
   -8.6741    3.0300  -10.0181 N   0  0  0  0  0  0  0  0  0  0  0  0
   -8.2469    4.2914   -9.8427 N   0  0  0  0  0  0  0  0  0  0  0  0
   -8.1904    4.8435   -8.5147 C   0  0  0  0  0  0  0  0  0  0  0  0
   -7.8729    4.9096  -10.9981 C   0  0  0  0  0  0  0  0  0  0  0  0
  9 10  1  0  0  0
 10 11  2  0  0  0
 11 12  1  0  0  0
 12  1  1  0  0  0
  1  2  1  0  0  0
  2 17  1  0  0  0
 17 18  2  0  0  0
 17 19  1  0  0  0
 19 21  1  0  0  0
 21 22  1  0  0  0
 22 23  2  0  0  0
 23 24  1  0  0  0
 24 25  1  0  0  0
 24 26  1  0  0  0
  2  3  2  0  0  0
  3  4  1  0  0  0
  4  5  2  0  0  0
  5  6  1  0  0  0
  5  7  1  0  0  0
  7  8  1  0  0  0
 12 13  2  0  0  0
 13 14  1  0  0  0
 14 15  2  0  0  0
 15 16  1  0  0  0
 15 10  1  0  0  0
  7  1  2  0  0  0
 26 21  2  0  0  0
 19 20  1  0  0  0
M  END
> <minimizedAffinity>
-7.22426

> <minimizedRMSD>
1.16032

$$$$
P8323


 26 28  0  0  0  0  0  0  0  0999 V2000
  -10.1363    3.8525  -18.2681 C   0  0  0  0  0  0  0  0  0  0  0  0
   -8.8545    4.2181  -17.6127 C   0  0  0  0  0  0  0  0  0  0  0  0
   -7.7116    4.3744  -18.3883 C   0  0  0  0  0  0  0  0  0  0  0  0
   -6.5181    4.8382  -17.8226 C   0  0  0  0  0  0  0  0  0  0  0  0
   -5.3419    5.0127  -18.7406 C   0  0  0  0  0  0  0  0  0  0  0  0
   -6.4677    5.1815  -16.4493 C   0  0  0  0  0  0  0  0  0  0  0  0
   -7.6166    4.9470  -15.6706 C   0  0  0  0  0  0  0  0  0  0  0  0
   -8.7910    4.4550  -16.2476 C   0  0  0  0  0  0  0  0  0  0  0  0
   -5.2554    5.7855  -15.8852 C   0  0  0  0  0  0  0  0  0  0  0  0
   -4.2950    5.0387  -15.2082 C   0  0  0  0  0  0  0  0  0  0  0  0
   -3.1202    5.5308  -14.7531 N   0  0  0  0  0  0  0  0  0  0  0  0
   -2.9087    6.8486  -14.9439 C   0  0  0  0  0  0  0  0  0  0  0  0
   -1.7387    7.3446  -14.5119 F   0  0  0  0  0  0  0  0  0  0  0  0
   -3.8068    7.7055  -15.5671 C   0  0  0  0  0  0  0  0  0  0  0  0
   -3.4861    9.1480  -15.7738 C   0  0  0  0  0  0  0  0  0  0  0  0
   -4.9922    7.1515  -16.0477 C   0  0  0  0  0  0  0  0  0  0  0  0
   -7.7212    5.3552  -14.2454 C   0  0  0  0  0  0  0  0  0  0  0  0
   -7.6916    6.4898  -13.9736 O   0  0  0  0  0  0  0  0  0  0  0  0
   -7.9600    4.1172  -13.3521 N   0  0  0  0  0  0  0  0  0  0  0  0
   -8.0129    3.2625  -13.8379 H   0  0  0  0  0  0  0  0  0  0  0  0
   -8.1093    4.0159  -12.0013 C   0  0  0  0  0  0  0  0  0  0  0  0
   -8.5588    2.9195  -11.2398 C   0  0  0  0  0  0  0  0  0  0  0  0
   -8.5763    3.1881   -9.9321 N   0  0  0  0  0  0  0  0  0  0  0  0
   -8.1816    4.4702   -9.8701 N   0  0  0  0  0  0  0  0  0  0  0  0
   -8.1094    5.1285   -8.5915 C   0  0  0  0  0  0  0  0  0  0  0  0
   -7.8664    5.0048  -11.0835 C   0  0  0  0  0  0  0  0  0  0  0  0
  1  2  1  0  0  0
  2  3  2  0  0  0
  3  4  1  0  0  0
  4  5  1  0  0  0
  4  6  2  0  0  0
  6  9  1  0  0  0
  9 10  2  0  0  0
 10 11  1  0  0  0
 11 12  2  0  0  0
 12 13  1  0  0  0
 12 14  1  0  0  0
 14 15  1  0  0  0
 14 16  2  0  0  0
  6  7  1  0  0  0
  7 17  1  0  0  0
 17 18  2  0  0  0
 17 19  1  0  0  0
 19 21  1  0  0  0
 21 22  1  0  0  0
 22 23  2  0  0  0
 23 24  1  0  0  0
 24 25  1  0  0  0
 24 26  1  0  0  0
  7  8  2  0  0  0
  8  2  1  0  0  0
 16  9  1  0  0  0
 26 21  2  0  0  0
 19 20  1  0  0  0
M  END
> <minimizedAffinity>
-7.57371

> <minimizedRMSD>
0.56045

$$$$
P8333


 31 33  0  0  0  0  0  0  0  0999 V2000
   -7.1107    4.3879  -14.0516 N   0  0  0  0  0  0  0  0  0  0  0  0
   -8.1587    5.0402  -14.9628 C   0  0  0  0  0  0  0  0  0  0  0  0
   -9.0571    5.7319  -14.7039 O   0  0  0  0  0  0  0  0  0  0  0  0
   -6.4897    3.7766  -14.5098 H   0  0  0  0  0  0  0  0  0  0  0  0
   -7.9546    4.6373  -16.3724 C   0  0  0  0  0  0  0  0  0  0  0  0
   -9.0452    3.9948  -16.9713 C   0  0  0  0  0  0  0  0  0  0  0  0
   -9.0228    3.6880  -18.3244 C   0  0  0  0  0  0  0  0  0  0  0  0
   -7.9048    4.0110  -19.0790 C   0  0  0  0  0  0  0  0  0  0  0  0
   -6.8111    4.6450  -18.4824 C   0  0  0  0  0  0  0  0  0  0  0  0
   -6.8068    4.9816  -17.1135 C   0  0  0  0  0  0  0  0  0  0  0  0
   -5.6359    5.6845  -16.5620 C   0  0  0  0  0  0  0  0  0  0  0  0
   -4.3816    5.0878  -16.4468 C   0  0  0  0  0  0  0  0  0  0  0  0
   -3.2567    5.7065  -16.0134 N   0  0  0  0  0  0  0  0  0  0  0  0
   -3.3865    6.9960  -15.6504 C   0  0  0  0  0  0  0  0  0  0  0  0
   -2.2787    7.6243  -15.2276 F   0  0  0  0  0  0  0  0  0  0  0  0
   -4.5799    7.7041  -15.7013 C   0  0  0  0  0  0  0  0  0  0  0  0
   -4.6307    9.1446  -15.3111 C   0  0  0  0  0  0  0  0  0  0  0  0
   -5.7091    7.0331  -16.1838 C   0  0  0  0  0  0  0  0  0  0  0  0
   -6.8849    4.5256  -12.6192 C   0  0  0  0  0  0  0  0  0  0  0  0
   -5.7525    5.5319  -12.4257 C   0  0  0  0  0  0  0  0  0  0  0  0
   -8.1857    4.9237  -11.9029 C   0  0  0  0  0  0  0  0  0  0  0  0
   -8.2337    4.3363   -8.4979 C   0  0  0  0  0  0  0  0  0  0  0  0
   -8.5508    3.0572   -8.8664 N   0  0  0  0  0  0  0  0  0  0  0  0
   -8.5803    3.1211  -10.1787 C   0  0  0  0  0  0  0  0  0  0  0  0
   -8.3371    4.3987  -10.5683 N   0  0  0  0  0  0  0  0  0  0  0  0
   -8.2572    5.2154   -9.5011 N   0  0  0  0  0  0  0  0  0  0  0  0
   -7.7899    4.6559   -7.1198 C   0  0  0  0  0  0  0  0  0  0  0  0
   -6.5331    5.5258   -7.0180 C   0  0  0  0  0  0  0  0  0  0  0  0
   -4.6388    4.8017   -8.3182 C   0  0  0  0  0  0  0  0  0  0  0  0
   -5.2923    4.7183   -7.0111 N   0  0  0  0  0  0  0  0  0  0  0  0
   -4.6607    5.0741   -6.2935 H   0  0  0  0  0  0  0  0  0  0  0  0
 29 30  1  0  0  0
 30 28  1  0  0  0
 28 27  1  0  0  0
 27 22  1  0  0  0
 22 23  1  0  0  0
 23 24  2  0  0  0
 24 25  1  0  0  0
 25 21  1  0  0  0
 21 19  1  0  0  0
 19 20  1  0  0  0
 19  1  1  0  0  0
  1  2  1  0  0  0
  2  3  2  0  0  0
  2  5  1  0  0  0
  5  6  2  0  0  0
  6  7  1  0  0  0
  7  8  2  0  0  0
  8  9  1  0  0  0
  9 10  2  0  0  0
 10 11  1  0  0  0
 11 12  2  0  0  0
 12 13  1  0  0  0
 13 14  2  0  0  0
 14 15  1  0  0  0
 14 16  1  0  0  0
 16 17  1  0  0  0
 16 18  2  0  0  0
 25 26  1  0  0  0
 26 22  2  0  0  0
 10  5  1  0  0  0
 18 11  1  0  0  0
 30 31  1  0  0  0
  1  4  1  0  0  0
M  END
> <minimizedAffinity>
-6.82777

> <minimizedRMSD>
0.88814

$$$$
P8336


 30 32  0  0  0  0  0  0  0  0999 V2000
   -9.9730    3.9100  -17.9912 C   0  0  0  0  0  0  0  0  0  0  0  0
   -8.6414    4.2665  -17.4410 C   0  0  0  0  0  0  0  0  0  0  0  0
   -7.5589    4.3977  -18.2949 C   0  0  0  0  0  0  0  0  0  0  0  0
   -6.3266    4.8550  -17.8231 C   0  0  0  0  0  0  0  0  0  0  0  0
   -5.2430    5.0803  -18.8427 C   0  0  0  0  0  0  0  0  0  0  0  0
   -6.1556    5.1497  -16.4459 C   0  0  0  0  0  0  0  0  0  0  0  0
   -7.2353    4.8845  -15.5456 C   0  0  0  0  0  0  0  0  0  0  0  0
   -8.4705    4.4794  -16.0825 C   0  0  0  0  0  0  0  0  0  0  0  0
   -4.8874    5.7812  -16.0194 C   0  0  0  0  0  0  0  0  0  0  0  0
   -3.7509    5.0569  -15.6698 C   0  0  0  0  0  0  0  0  0  0  0  0
   -2.5476    5.5862  -15.3397 N   0  0  0  0  0  0  0  0  0  0  0  0
   -2.4702    6.9279  -15.3550 C   0  0  0  0  0  0  0  0  0  0  0  0
   -1.2794    7.4714  -15.0579 F   0  0  0  0  0  0  0  0  0  0  0  0
   -3.5235    7.7675  -15.6906 C   0  0  0  0  0  0  0  0  0  0  0  0
   -3.3341    9.2450  -15.7579 C   0  0  0  0  0  0  0  0  0  0  0  0
   -4.7404    7.1730  -16.0339 C   0  0  0  0  0  0  0  0  0  0  0  0
   -7.1118    5.0384  -14.0382 C   0  0  0  0  0  0  0  0  0  0  0  0
   -6.7809    6.3695  -13.7657 O   0  0  0  0  0  0  0  0  0  0  0  0
   -6.0571    4.2165  -13.6332 O   0  0  0  0  0  0  0  0  0  0  0  0
   -7.3837    7.0549  -13.9775 H   0  0  0  0  0  0  0  0  0  0  0  0
   -6.1169    3.2881  -13.7453 H   0  0  0  0  0  0  0  0  0  0  0  0
   -8.2919    4.6275  -13.2994 N   0  0  0  0  0  0  0  0  0  0  0  0
   -9.1435    4.5481  -13.7869 H   0  0  0  0  0  0  0  0  0  0  0  0
   -8.2818    4.3461  -11.9668 C   0  0  0  0  0  0  0  0  0  0  0  0
   -8.4277    3.0609  -11.4004 C   0  0  0  0  0  0  0  0  0  0  0  0
   -8.2980    3.0794  -10.0769 N   0  0  0  0  0  0  0  0  0  0  0  0
   -8.1805    4.3836   -9.7841 N   0  0  0  0  0  0  0  0  0  0  0  0
   -8.0218    4.7681   -8.4018 C   0  0  0  0  0  0  0  0  0  0  0  0
   -8.1918    5.2040  -10.8909 C   0  0  0  0  0  0  0  0  0  0  0  0
   -8.1769    6.6852  -10.7784 C   0  0  0  0  0  0  0  0  0  0  0  0
  1  2  1  0  0  0
  2  3  2  0  0  0
  3  4  1  0  0  0
  4  5  1  0  0  0
  4  6  2  0  0  0
  6  9  1  0  0  0
  9 10  2  0  0  0
 10 11  1  0  0  0
 11 12  2  0  0  0
 12 13  1  0  0  0
 12 14  1  0  0  0
 14 15  1  0  0  0
 14 16  2  0  0  0
  6  7  1  0  0  0
  7 17  1  0  0  0
 17 18  1  0  0  0
 17 19  1  0  0  0
 17 22  1  0  0  0
 22 24  1  0  0  0
 24 25  1  0  0  0
 25 26  2  0  0  0
 26 27  1  0  0  0
 27 28  1  0  0  0
 27 29  1  0  0  0
 29 30  1  0  0  0
  7  8  2  0  0  0
  8  2  1  0  0  0
 16  9  1  0  0  0
 29 24  2  0  0  0
 18 20  1  0  0  0
 19 21  1  0  0  0
 22 23  1  0  0  0
M  END
> <minimizedAffinity>
-7.86695

> <minimizedRMSD>
0.67491

$$$$
P8337


 39 41  0  0  0  0  0  0  0  0999 V2000
   -6.6047    5.3424  -16.3013 C   0  0  0  0  0  0  0  0  0  0  0  0
   -7.7457    5.0362  -15.5324 C   0  0  0  0  0  0  0  0  0  0  0  0
   -8.8647    4.4582  -16.1244 C   0  0  0  0  0  0  0  0  0  0  0  0
   -8.8535    4.1803  -17.4831 C   0  0  0  0  0  0  0  0  0  0  0  0
  -10.3147    3.6416  -18.1611 Cl  0  0  0  0  0  0  0  0  0  0  0  0
   -7.7328    4.4230  -18.2738 C   0  0  0  0  0  0  0  0  0  0  0  0
   -6.6124    5.0102  -17.6853 C   0  0  0  0  0  0  0  0  0  0  0  0
   -3.8853    9.4880  -15.6413 C   0  0  0  0  0  0  0  0  0  0  0  0
   -4.1296    8.0363  -15.3986 C   0  0  0  0  0  0  0  0  0  0  0  0
   -5.2765    7.4087  -15.8784 C   0  0  0  0  0  0  0  0  0  0  0  0
   -5.4487    6.0296  -15.7123 C   0  0  0  0  0  0  0  0  0  0  0  0
   -4.4516    5.3476  -15.0181 C   0  0  0  0  0  0  0  0  0  0  0  0
   -3.3258    5.9193  -14.5365 N   0  0  0  0  0  0  0  0  0  0  0  0
   -3.1905    7.2434  -14.7503 C   0  0  0  0  0  0  0  0  0  0  0  0
   -2.0611    7.8171  -14.3058 F   0  0  0  0  0  0  0  0  0  0  0  0
   -7.8677    5.4343  -14.1023 C   0  0  0  0  0  0  0  0  0  0  0  0
   -7.8827    6.5678  -13.8261 O   0  0  0  0  0  0  0  0  0  0  0  0
   -7.9305    4.1833  -13.1996 N   0  0  0  0  0  0  0  0  0  0  0  0
   -7.8236    3.3272  -13.6738 H   0  0  0  0  0  0  0  0  0  0  0  0
   -8.1096    4.0715  -11.8558 C   0  0  0  0  0  0  0  0  0  0  0  0
   -8.6493    2.9686  -11.1700 C   0  0  0  0  0  0  0  0  0  0  0  0
   -8.5941    3.2383   -9.8165 C   0  0  0  0  0  0  0  0  0  0  0  0
   -9.0183    2.3773   -8.6820 C   0  0  0  0  0  0  0  0  0  0  0  0
   -8.0032    4.4767   -9.6702 N   0  0  0  0  0  0  0  0  0  0  0  0
   -7.7495    5.0027  -10.9187 C   0  0  0  0  0  0  0  0  0  0  0  0
   -7.4508    5.0316   -8.4336 C   0  0  0  0  0  0  0  0  0  0  0  0
   -8.3737    5.9972   -7.8134 N   0  0  0  0  0  0  0  0  0  0  0  0
   -8.7471    5.4929   -6.4899 C   0  0  0  0  0  0  0  0  0  0  0  0
   -7.7507    7.3185   -7.6694 C   0  0  0  0  0  0  0  0  0  0  0  0
   -5.3975    5.3566  -18.4931 C   0  0  0  0  0  0  0  0  0  0  0  0
   -4.4386    4.7103  -18.3430 O   0  0  0  0  0  0  0  0  0  0  0  0
   -5.6257    6.6250  -19.3415 N   0  0  0  0  0  0  0  0  0  0  0  0
   -6.5568    6.9444  -19.3630 H   0  0  0  0  0  0  0  0  0  0  0  0
   -4.6792    7.4344  -20.1229 C   0  0  0  0  0  0  0  0  0  0  0  0
   -3.9613    6.5906  -21.1885 C   0  0  0  0  0  0  0  0  0  0  0  0
   -5.4054    8.5974  -20.8114 C   0  0  0  0  0  0  0  0  0  0  0  0
   -3.6102    7.9975  -19.1462 C   0  0  0  0  0  0  0  0  0  0  0  0
   -2.8008    9.0263  -19.7043 O   0  0  0  0  0  0  0  0  0  0  0  0
   -2.3010    8.6723  -20.4565 H   0  0  0  0  0  0  0  0  0  0  0  0
  8  9  1  0  0  0
  9 10  2  0  0  0
 10 11  1  0  0  0
 11  1  1  0  0  0
  1  2  1  0  0  0
  2 16  1  0  0  0
 16 17  2  0  0  0
 16 18  1  0  0  0
 18 20  1  0  0  0
 20 21  1  0  0  0
 21 22  2  0  0  0
 22 23  1  0  0  0
 22 24  1  0  0  0
 24 26  1  0  0  0
 26 27  1  0  0  0
 27 28  1  0  0  0
 27 29  1  0  0  0
 24 25  1  0  0  0
  2  3  2  0  0  0
  3  4  1  0  0  0
  4  5  1  0  0  0
  4  6  2  0  0  0
  6  7  1  0  0  0
  7 30  1  0  0  0
 30 31  2  0  0  0
 30 32  1  0  0  0
 32 34  1  0  0  0
 34 35  1  0  0  0
 34 36  1  0  0  0
 34 37  1  0  0  0
 37 38  1  0  0  0
 11 12  2  0  0  0
 12 13  1  0  0  0
 13 14  2  0  0  0
 14 15  1  0  0  0
 14  9  1  0  0  0
  7  1  2  0  0  0
 25 20  2  0  0  0
 18 19  1  0  0  0
 32 33  1  0  0  0
 38 39  1  0  0  0
M  END
> <minimizedAffinity>
-7.31621

> <minimizedRMSD>
1.00004

$$$$
P8342


 31 33  0  0  0  0  0  0  0  0999 V2000
   -6.5447    4.7613  -17.6144 C   0  0  0  0  0  0  0  0  0  0  0  0
   -7.4672    4.3198  -18.5585 C   0  0  0  0  0  0  0  0  0  0  0  0
   -8.7563    3.9648  -18.1542 C   0  0  0  0  0  0  0  0  0  0  0  0
   -9.1352    4.0970  -16.8162 C   0  0  0  0  0  0  0  0  0  0  0  0
   -8.2283    4.6171  -15.8836 C   0  0  0  0  0  0  0  0  0  0  0  0
   -6.9138    4.9454  -16.2620 C   0  0  0  0  0  0  0  0  0  0  0  0
   -5.9428    5.5804  -15.3525 C   0  0  0  0  0  0  0  0  0  0  0  0
   -5.0365    4.8542  -14.5901 C   0  0  0  0  0  0  0  0  0  0  0  0
   -4.0115    5.4055  -13.9006 N   0  0  0  0  0  0  0  0  0  0  0  0
   -3.9102    6.7517  -13.9319 C   0  0  0  0  0  0  0  0  0  0  0  0
   -2.8769    7.2979  -13.2726 F   0  0  0  0  0  0  0  0  0  0  0  0
   -4.7829    7.5868  -14.6146 C   0  0  0  0  0  0  0  0  0  0  0  0
   -4.5809    9.0648  -14.6634 C   0  0  0  0  0  0  0  0  0  0  0  0
   -5.8119    6.9792  -15.3293 C   0  0  0  0  0  0  0  0  0  0  0  0
   -4.6065    5.8630  -19.1002 C   0  0  0  0  0  0  0  0  0  0  0  0
   -5.1268    6.4336  -19.9743 O   0  0  0  0  0  0  0  0  0  0  0  0
   -5.2133    5.0043  -17.9565 N   0  0  0  0  0  0  0  0  0  0  0  0
   -4.5514    4.5593  -17.3794 H   0  0  0  0  0  0  0  0  0  0  0  0
   -2.5542    4.4347  -18.8964 C   0  0  0  0  0  0  0  0  0  0  0  0
   -3.1031    5.8455  -18.8569 C   0  0  0  0  0  0  0  0  0  0  0  0
   -8.7169    4.9878  -14.5312 C   0  0  0  0  0  0  0  0  0  0  0  0
   -9.3786    5.9422  -14.4287 O   0  0  0  0  0  0  0  0  0  0  0  0
   -8.1731    4.0291  -13.4547 N   0  0  0  0  0  0  0  0  0  0  0  0
   -7.6959    3.2430  -13.8062 H   0  0  0  0  0  0  0  0  0  0  0  0
   -8.2457    4.0923  -12.0850 C   0  0  0  0  0  0  0  0  0  0  0  0
   -8.6117    3.0340  -11.2270 C   0  0  0  0  0  0  0  0  0  0  0  0
   -8.5353    3.3651   -9.9411 N   0  0  0  0  0  0  0  0  0  0  0  0
   -8.1580    4.6515   -9.9670 N   0  0  0  0  0  0  0  0  0  0  0  0
   -7.9608    5.3355   -8.7109 C   0  0  0  0  0  0  0  0  0  0  0  0
   -7.9649    5.1472  -11.2368 C   0  0  0  0  0  0  0  0  0  0  0  0
   -7.5313    6.5449  -11.4889 C   0  0  0  0  0  0  0  0  0  0  0  0
 19 20  1  0  0  0
 20 15  1  0  0  0
 15 16  2  0  0  0
 15 17  1  0  0  0
 17  1  1  0  0  0
  1  2  2  0  0  0
  2  3  1  0  0  0
  3  4  2  0  0  0
  4  5  1  0  0  0
  5 21  1  0  0  0
 21 22  2  0  0  0
 21 23  1  0  0  0
 23 25  1  0  0  0
 25 26  1  0  0  0
 26 27  2  0  0  0
 27 28  1  0  0  0
 28 29  1  0  0  0
 28 30  1  0  0  0
 30 31  1  0  0  0
  5  6  2  0  0  0
  6  7  1  0  0  0
  7  8  2  0  0  0
  8  9  1  0  0  0
  9 10  2  0  0  0
 10 11  1  0  0  0
 10 12  1  0  0  0
 12 13  1  0  0  0
 12 14  2  0  0  0
  6  1  1  0  0  0
 14  7  1  0  0  0
 30 25  2  0  0  0
 17 18  1  0  0  0
 23 24  1  0  0  0
M  END
> <minimizedAffinity>
-8.10641

> <minimizedRMSD>
1.25621

$$$$
P8343


 29 31  0  0  0  0  0  0  0  0999 V2000
   -6.8534    5.0631  -16.2715 C   0  0  0  0  0  0  0  0  0  0  0  0
   -6.5585    4.8375  -17.6414 C   0  0  0  0  0  0  0  0  0  0  0  0
   -5.2295    5.1929  -18.2536 C   0  0  0  0  0  0  0  0  0  0  0  0
   -7.5338    4.2953  -18.5002 C   0  0  0  0  0  0  0  0  0  0  0  0
   -8.7845    3.9332  -18.0255 C   0  0  0  0  0  0  0  0  0  0  0  0
   -9.0802    4.1185  -16.6836 C   0  0  0  0  0  0  0  0  0  0  0  0
   -8.1372    4.6882  -15.8146 C   0  0  0  0  0  0  0  0  0  0  0  0
   -4.6854    9.0298  -14.0486 C   0  0  0  0  0  0  0  0  0  0  0  0
   -4.7696    7.5651  -14.3239 C   0  0  0  0  0  0  0  0  0  0  0  0
   -5.7699    7.0298  -15.1399 C   0  0  0  0  0  0  0  0  0  0  0  0
   -5.8444    5.6494  -15.3668 C   0  0  0  0  0  0  0  0  0  0  0  0
   -4.8961    4.8659  -14.7076 C   0  0  0  0  0  0  0  0  0  0  0  0
   -3.9040    5.3434  -13.9183 N   0  0  0  0  0  0  0  0  0  0  0  0
   -3.8754    6.6774  -13.7390 C   0  0  0  0  0  0  0  0  0  0  0  0
   -2.9035    7.1652  -12.9523 F   0  0  0  0  0  0  0  0  0  0  0  0
   -8.6032    5.0132  -14.4354 C   0  0  0  0  0  0  0  0  0  0  0  0
   -9.3938    5.8613  -14.2980 O   0  0  0  0  0  0  0  0  0  0  0  0
   -7.9817    4.0451  -13.4020 N   0  0  0  0  0  0  0  0  0  0  0  0
   -7.3862    3.3608  -13.7846 H   0  0  0  0  0  0  0  0  0  0  0  0
   -8.1250    3.9845  -12.0394 C   0  0  0  0  0  0  0  0  0  0  0  0
   -8.7662    2.9238  -11.4399 C   0  0  0  0  0  0  0  0  0  0  0  0
   -8.7793    3.1289  -10.0956 N   0  0  0  0  0  0  0  0  0  0  0  0
   -9.3332    2.2344   -9.1602 N   0  0  0  0  0  0  0  0  0  0  0  0
   -8.1705    4.3181   -9.8013 C   0  0  0  0  0  0  0  0  0  0  0  0
   -8.0545    4.8298   -8.4106 C   0  0  0  0  0  0  0  0  0  0  0  0
   -7.7216    4.8737  -11.0004 C   0  0  0  0  0  0  0  0  0  0  0  0
   -6.9766    6.1548  -11.1328 C   0  0  0  0  0  0  0  0  0  0  0  0
   -9.7219    1.4283   -9.6495 H   0  0  0  0  0  0  0  0  0  0  0  0
  -10.0727    2.7039   -8.6375 H   0  0  0  0  0  0  0  0  0  0  0  0
  8  9  1  0  0  0
  9 10  2  0  0  0
 10 11  1  0  0  0
 11  1  1  0  0  0
  1  2  2  0  0  0
  2  3  1  0  0  0
  2  4  1  0  0  0
  4  5  2  0  0  0
  5  6  1  0  0  0
  6  7  2  0  0  0
  7 16  1  0  0  0
 16 17  2  0  0  0
 16 18  1  0  0  0
 18 20  1  0  0  0
 20 21  2  0  0  0
 21 22  1  0  0  0
 22 23  1  0  0  0
 22 24  1  0  0  0
 24 25  1  0  0  0
 24 26  2  0  0  0
 26 27  1  0  0  0
 11 12  2  0  0  0
 12 13  1  0  0  0
 13 14  2  0  0  0
 14 15  1  0  0  0
 14  9  1  0  0  0
  7  1  1  0  0  0
 26 20  1  0  0  0
 18 19  1  0  0  0
 23 28  1  0  0  0
 23 29  1  0  0  0
M  END
> <minimizedAffinity>
-8.82442

> <minimizedRMSD>
1.40713

$$$$
P8351


 34 36  0  0  0  0  0  0  0  0999 V2000
   -8.2514    4.6018  -12.9588 C   0  0  0  0  0  0  0  0  0  0  0  0
   -7.9054    3.4713  -13.2858 O   0  0  0  0  0  0  0  0  0  0  0  0
   -8.1992    4.9581  -11.5425 C   0  0  0  0  0  0  0  0  0  0  0  0
   -8.2836    3.9516  -10.5913 C   0  0  0  0  0  0  0  0  0  0  0  0
   -8.2872    4.4802   -9.3448 N   0  0  0  0  0  0  0  0  0  0  0  0
   -8.1366    5.8408   -9.4374 C   0  0  0  0  0  0  0  0  0  0  0  0
   -8.0610    6.7148   -8.2362 C   0  0  0  0  0  0  0  0  0  0  0  0
   -8.0686    6.1768  -10.7949 C   0  0  0  0  0  0  0  0  0  0  0  0
   -8.6437    3.7150   -8.2249 N   0  0  0  0  0  0  0  0  0  0  0  0
   -9.2648    4.2764   -7.6423 H   0  0  0  0  0  0  0  0  0  0  0  0
   -9.3076    2.4826   -8.5237 C   0  0  0  0  0  0  0  0  0  0  0  0
   -8.9626    1.5639   -7.5023 O   0  0  0  0  0  0  0  0  0  0  0  0
   -7.9993    1.4518   -7.4801 H   0  0  0  0  0  0  0  0  0  0  0  0
   -7.8850    7.5664  -11.3269 C   0  0  0  0  0  0  0  0  0  0  0  0
   -9.1770    8.3958  -11.2633 C   0  0  0  0  0  0  0  0  0  0  0  0
   -9.6593    8.7652  -12.5994 N   0  0  0  0  0  0  0  0  0  0  0  0
   -8.9564    9.3363  -13.0688 H   0  0  0  0  0  0  0  0  0  0  0  0
  -10.5262    9.2956  -12.5133 H   0  0  0  0  0  0  0  0  0  0  0  0
   -8.7144    5.4363  -14.1395 C   0  0  0  0  0  0  0  0  0  0  0  0
   -9.5701    6.3018  -14.0488 O   0  0  0  0  0  0  0  0  0  0  0  0
   -6.7067    5.4501  -15.6880 C   0  0  0  0  0  0  0  0  0  0  0  0
   -6.1864    5.1580  -16.9654 C   0  0  0  0  0  0  0  0  0  0  0  0
   -6.9802    4.5972  -17.9690 C   0  0  0  0  0  0  0  0  0  0  0  0
   -8.3171    4.3245  -17.7294 C   0  0  0  0  0  0  0  0  0  0  0  0
   -8.8554    4.6035  -16.4789 C   0  0  0  0  0  0  0  0  0  0  0  0
   -8.0645    5.1588  -15.4567 C   0  0  0  0  0  0  0  0  0  0  0  0
   -4.9527    9.3711  -13.0910 C   0  0  0  0  0  0  0  0  0  0  0  0
   -4.9426    7.9187  -13.4357 C   0  0  0  0  0  0  0  0  0  0  0  0
   -5.8069    7.3912  -14.3983 C   0  0  0  0  0  0  0  0  0  0  0  0
   -5.8127    6.0177  -14.6705 C   0  0  0  0  0  0  0  0  0  0  0  0
   -4.9189    5.2352  -13.9385 C   0  0  0  0  0  0  0  0  0  0  0  0
   -4.0634    5.7068  -13.0016 N   0  0  0  0  0  0  0  0  0  0  0  0
   -4.1057    7.0326  -12.7684 C   0  0  0  0  0  0  0  0  0  0  0  0
   -3.2757    7.5119  -11.8289 F   0  0  0  0  0  0  0  0  0  0  0  0
 27 28  1  0  0  0
 28 29  2  0  0  0
 29 30  1  0  0  0
 30 21  1  0  0  0
 21 22  2  0  0  0
 22 23  1  0  0  0
 23 24  2  0  0  0
 24 25  1  0  0  0
 25 26  2  0  0  0
 26 19  1  0  0  0
 19 20  2  0  0  0
 19  1  1  0  0  0
  1  2  2  0  0  0
  1  3  1  0  0  0
  3  4  2  0  0  0
  4  5  1  0  0  0
  5  9  1  0  0  0
  9 11  1  0  0  0
 11 12  1  0  0  0
  5  6  1  0  0  0
  6  7  1  0  0  0
  6  8  2  0  0  0
  8 14  1  0  0  0
 14 15  1  0  0  0
 15 16  1  0  0  0
 30 31  2  0  0  0
 31 32  1  0  0  0
 32 33  2  0  0  0
 33 34  1  0  0  0
 33 28  1  0  0  0
 26 21  1  0  0  0
  8  3  1  0  0  0
  9 10  1  0  0  0
 12 13  1  0  0  0
 16 17  1  0  0  0
 16 18  1  0  0  0
M  END
> <minimizedAffinity>
-6.99850

> <minimizedRMSD>
1.93930

$$$$
P8359


 33 35  0  0  0  0  0  0  0  0999 V2000
   -6.3149    5.3926  -16.5939 C   0  0  0  0  0  0  0  0  0  0  0  0
   -6.4773    5.0636  -17.9703 C   0  0  0  0  0  0  0  0  0  0  0  0
   -7.6823    4.4677  -18.3894 C   0  0  0  0  0  0  0  0  0  0  0  0
   -8.7080    4.2251  -17.4899 C   0  0  0  0  0  0  0  0  0  0  0  0
  -10.2627    3.8332  -18.0655 Cl  0  0  0  0  0  0  0  0  0  0  0  0
   -8.5356    4.4656  -16.1411 C   0  0  0  0  0  0  0  0  0  0  0  0
   -7.3497    5.0500  -15.6913 C   0  0  0  0  0  0  0  0  0  0  0  0
   -3.6761    9.6113  -16.0331 C   0  0  0  0  0  0  0  0  0  0  0  0
   -3.8380    8.1390  -15.8578 C   0  0  0  0  0  0  0  0  0  0  0  0
   -5.0171    7.4933  -16.2238 C   0  0  0  0  0  0  0  0  0  0  0  0
   -5.1209    6.1012  -16.1224 C   0  0  0  0  0  0  0  0  0  0  0  0
   -4.0182    5.4237  -15.6047 C   0  0  0  0  0  0  0  0  0  0  0  0
   -2.8535    6.0114  -15.2538 N   0  0  0  0  0  0  0  0  0  0  0  0
   -2.7942    7.3493  -15.3925 C   0  0  0  0  0  0  0  0  0  0  0  0
   -1.6324    7.9398  -15.0800 F   0  0  0  0  0  0  0  0  0  0  0  0
   -5.5005    5.4429  -19.0707 C   0  0  0  0  0  0  0  0  0  0  0  0
   -4.3075    4.6089  -19.1602 N   0  0  0  0  0  0  0  0  0  0  0  0
   -3.7640    4.6998  -18.3019 H   0  0  0  0  0  0  0  0  0  0  0  0
   -3.7418    4.9087  -19.9542 H   0  0  0  0  0  0  0  0  0  0  0  0
   -7.3262    5.4362  -14.2479 C   0  0  0  0  0  0  0  0  0  0  0  0
   -7.3263    6.5631  -13.9455 O   0  0  0  0  0  0  0  0  0  0  0  0
   -7.3697    4.1650  -13.3726 N   0  0  0  0  0  0  0  0  0  0  0  0
   -7.2816    3.3195  -13.8692 H   0  0  0  0  0  0  0  0  0  0  0  0
   -7.5103    4.0228  -12.0243 C   0  0  0  0  0  0  0  0  0  0  0  0
   -8.4317    3.1656  -11.3938 C   0  0  0  0  0  0  0  0  0  0  0  0
   -8.3144    3.3248  -10.0290 C   0  0  0  0  0  0  0  0  0  0  0  0
   -9.0987    2.6593   -8.9526 C   0  0  0  0  0  0  0  0  0  0  0  0
   -7.2925    4.2260   -9.8209 N   0  0  0  0  0  0  0  0  0  0  0  0
   -6.8212    4.6763  -11.0352 C   0  0  0  0  0  0  0  0  0  0  0  0
   -6.7592    4.6351   -8.5308 C   0  0  0  0  0  0  0  0  0  0  0  0
   -5.3689    4.2032   -8.4714 N   0  0  0  0  0  0  0  0  0  0  0  0
   -5.3225    3.1904   -8.5830 H   0  0  0  0  0  0  0  0  0  0  0  0
   -4.9699    4.4645   -7.5698 H   0  0  0  0  0  0  0  0  0  0  0  0
  8  9  1  0  0  0
  9 10  2  0  0  0
 10 11  1  0  0  0
 11  1  1  0  0  0
  1  2  2  0  0  0
  2 16  1  0  0  0
 16 17  1  0  0  0
  2  3  1  0  0  0
  3  4  2  0  0  0
  4  5  1  0  0  0
  4  6  1  0  0  0
  6  7  2  0  0  0
  7 20  1  0  0  0
 20 21  2  0  0  0
 20 22  1  0  0  0
 22 24  1  0  0  0
 24 25  1  0  0  0
 25 26  2  0  0  0
 26 27  1  0  0  0
 26 28  1  0  0  0
 28 30  1  0  0  0
 30 31  1  0  0  0
 28 29  1  0  0  0
 11 12  2  0  0  0
 12 13  1  0  0  0
 13 14  2  0  0  0
 14 15  1  0  0  0
 14  9  1  0  0  0
  7  1  1  0  0  0
 29 24  2  0  0  0
 17 18  1  0  0  0
 17 19  1  0  0  0
 22 23  1  0  0  0
 31 32  1  0  0  0
 31 33  1  0  0  0
M  END
> <minimizedAffinity>
-7.21154

> <minimizedRMSD>
0.66325

$$$$
P8362


 29 32  0  0  0  0  0  0  0  0999 V2000
   -7.8516    5.2966  -14.9120 C   0  0  0  0  0  0  0  0  0  0  0  0
   -7.6870    6.4409  -14.7861 O   0  0  0  0  0  0  0  0  0  0  0  0
   -8.1446    4.2136  -13.8670 N   0  0  0  0  0  0  0  0  0  0  0  0
   -8.1670    3.2952  -14.2208 H   0  0  0  0  0  0  0  0  0  0  0  0
   -8.3910    4.3202  -12.4598 C   0  0  0  0  0  0  0  0  0  0  0  0
   -7.7355    5.4747  -11.7215 C   0  0  0  0  0  0  0  0  0  0  0  0
   -8.1045    5.1581  -10.3403 N   0  0  0  0  0  0  0  0  0  0  0  0
   -7.4266    5.9811   -9.3623 C   0  0  0  0  0  0  0  0  0  0  0  0
   -7.9964    3.6922  -10.1758 C   0  0  0  0  0  0  0  0  0  0  0  0
   -9.1933    3.1628   -9.3742 C   0  0  0  0  0  0  0  0  0  0  0  0
   -8.6980    1.9860   -8.5647 C   0  0  0  0  0  0  0  0  0  0  0  0
   -7.3542    1.7764   -9.0805 N   0  0  0  0  0  0  0  0  0  0  0  0
   -6.8456    3.1143   -9.3578 C   0  0  0  0  0  0  0  0  0  0  0  0
   -7.9915    3.1237  -11.6231 C   0  0  0  0  0  0  0  0  0  0  0  0
   -7.3805    1.2184   -9.9340 H   0  0  0  0  0  0  0  0  0  0  0  0
   -6.8956    4.9809  -17.2369 C   0  0  0  0  0  0  0  0  0  0  0  0
   -7.1218    4.5275  -18.5510 C   0  0  0  0  0  0  0  0  0  0  0  0
   -8.2935    3.8481  -18.8990 C   0  0  0  0  0  0  0  0  0  0  0  0
   -9.2688    3.5983  -17.9444 C   0  0  0  0  0  0  0  0  0  0  0  0
   -9.0700    4.0290  -16.6386 C   0  0  0  0  0  0  0  0  0  0  0  0
   -7.8965    4.7180  -16.2845 C   0  0  0  0  0  0  0  0  0  0  0  0
   -3.9477    9.0381  -17.5567 C   0  0  0  0  0  0  0  0  0  0  0  0
   -4.2258    7.6546  -17.0713 C   0  0  0  0  0  0  0  0  0  0  0  0
   -5.4124    6.9903  -17.3937 C   0  0  0  0  0  0  0  0  0  0  0  0
   -5.6507    5.6946  -16.9198 C   0  0  0  0  0  0  0  0  0  0  0  0
   -4.6426    5.1237  -16.1406 C   0  0  0  0  0  0  0  0  0  0  0  0
   -3.4604    5.7143  -15.8447 N   0  0  0  0  0  0  0  0  0  0  0  0
   -3.2876    6.9647  -16.3127 C   0  0  0  0  0  0  0  0  0  0  0  0
   -2.1221    7.5660  -16.0263 F   0  0  0  0  0  0  0  0  0  0  0  0
 22 23  1  0  0  0
 23 24  2  0  0  0
 24 25  1  0  0  0
 25 16  1  0  0  0
 16 17  2  0  0  0
 17 18  1  0  0  0
 18 19  2  0  0  0
 19 20  1  0  0  0
 20 21  2  0  0  0
 21  1  1  0  0  0
  1  2  2  0  0  0
  1  3  1  0  0  0
  5  3  1  0  0  0
  5  6  1  0  0  0
  6  7  1  0  0  0
  7  8  1  0  0  0
  7  9  1  0  0  0
  9 10  1  0  0  0
 10 11  1  0  0  0
 11 12  1  0  0  0
 12 13  1  0  0  0
  9 14  1  0  0  0
 25 26  2  0  0  0
 26 27  1  0  0  0
 27 28  2  0  0  0
 28 29  1  0  0  0
 28 23  1  0  0  0
 21 16  1  0  0  0
 14  5  1  0  0  0
 13  9  1  0  0  0
  3  4  1  0  0  0
 12 15  1  0  0  0
M  END
> <minimizedAffinity>
-7.16498

> <minimizedRMSD>
0.42102

$$$$
P8383


 33 36  0  0  0  0  0  0  0  0999 V2000
   -6.6604    5.1929  -17.0249 C   0  0  0  0  0  0  0  0  0  0  0  0
   -6.8573    4.6941  -18.3338 C   0  0  0  0  0  0  0  0  0  0  0  0
   -8.0014    3.9809  -18.6972 C   0  0  0  0  0  0  0  0  0  0  0  0
   -8.9677    3.7034  -17.7471 C   0  0  0  0  0  0  0  0  0  0  0  0
   -8.7809    4.1341  -16.4363 C   0  0  0  0  0  0  0  0  0  0  0  0
   -7.6540    4.8912  -16.0681 C   0  0  0  0  0  0  0  0  0  0  0  0
   -5.1087    7.1795  -17.3552 C   0  0  0  0  0  0  0  0  0  0  0  0
   -3.8844    7.8297  -17.1560 C   0  0  0  0  0  0  0  0  0  0  0  0
   -3.6080    9.2358  -17.5861 C   0  0  0  0  0  0  0  0  0  0  0  0
   -2.8545    7.1001  -16.5783 C   0  0  0  0  0  0  0  0  0  0  0  0
   -1.5988    7.5832  -16.6157 F   0  0  0  0  0  0  0  0  0  0  0  0
   -3.1027    5.8884  -15.9707 N   0  0  0  0  0  0  0  0  0  0  0  0
   -2.1361    5.2552  -15.4545 O   0  0  0  0  0  0  0  0  0  0  0  0
   -4.3946    5.3736  -15.9320 C   0  0  0  0  0  0  0  0  0  0  0  0
   -4.5933    4.2851  -14.9272 C   0  0  0  0  0  0  0  0  0  0  0  0
   -5.4043    5.9385  -16.7398 C   0  0  0  0  0  0  0  0  0  0  0  0
   -5.6690    7.7089  -19.5347 C   0  0  0  0  0  0  0  0  0  0  0  0
   -6.0572    7.7759  -18.1568 O   0  0  0  0  0  0  0  0  0  0  0  0
   -7.6314    5.4846  -14.6883 C   0  0  0  0  0  0  0  0  0  0  0  0
   -7.4333    6.6286  -14.5972 O   0  0  0  0  0  0  0  0  0  0  0  0
   -7.9645    4.4407  -13.6073 N   0  0  0  0  0  0  0  0  0  0  0  0
   -8.0123    3.5123  -13.9316 H   0  0  0  0  0  0  0  0  0  0  0  0
   -8.2174    4.6006  -12.2004 C   0  0  0  0  0  0  0  0  0  0  0  0
   -8.5038    3.3345  -11.4077 C   0  0  0  0  0  0  0  0  0  0  0  0
   -8.5142    3.8584  -10.0341 N   0  0  0  0  0  0  0  0  0  0  0  0
   -8.5139    2.7895   -9.0514 C   0  0  0  0  0  0  0  0  0  0  0  0
   -7.4375    4.8616   -9.9357 C   0  0  0  0  0  0  0  0  0  0  0  0
   -7.9606    6.1069   -9.2073 C   0  0  0  0  0  0  0  0  0  0  0  0
   -6.7038    6.8290   -8.7249 C   0  0  0  0  0  0  0  0  0  0  0  0
   -5.5828    5.8956   -8.8825 N   0  0  0  0  0  0  0  0  0  0  0  0
   -6.1774    4.5700   -9.1008 C   0  0  0  0  0  0  0  0  0  0  0  0
   -7.0708    5.2003  -11.4050 C   0  0  0  0  0  0  0  0  0  0  0  0
   -5.0068    5.8900   -8.0407 H   0  0  0  0  0  0  0  0  0  0  0  0
 17 18  1  0  0  0
 18  7  1  0  0  0
  7  8  2  0  0  0
  8  9  1  0  0  0
  8 10  1  0  0  0
 10 11  1  0  0  0
 10 12  2  0  0  0
 12 13  1  0  0  0
 12 14  1  0  0  0
 14 15  1  0  0  0
 14 16  2  0  0  0
 16  1  1  0  0  0
  1  2  2  0  0  0
  2  3  1  0  0  0
  3  4  2  0  0  0
  4  5  1  0  0  0
  5  6  2  0  0  0
  6 19  1  0  0  0
 19 20  2  0  0  0
 19 21  1  0  0  0
 23 21  1  0  0  0
 23 24  1  0  0  0
 24 25  1  0  0  0
 25 26  1  0  0  0
 25 27  1  0  0  0
 27 28  1  0  0  0
 28 29  1  0  0  0
 29 30  1  0  0  0
 30 31  1  0  0  0
 27 32  1  0  0  0
 16  7  1  0  0  0
  6  1  1  0  0  0
 32 23  1  0  0  0
 31 27  1  0  0  0
 21 22  1  0  0  0
 30 33  1  0  0  0
M  CHG 1  12   1
M  CHG 1  13  -1
M  END
> <minimizedAffinity>
-7.06756

> <minimizedRMSD>
0.59384

$$$$
P8396


 28 30  0  0  0  0  0  0  0  0999 V2000
   -6.4820    4.9515  -16.8173 C   0  0  0  0  0  0  0  0  0  0  0  0
   -6.6385    4.5980  -18.1687 C   0  0  0  0  0  0  0  0  0  0  0  0
   -7.8693    4.1728  -18.6762 C   0  0  0  0  0  0  0  0  0  0  0  0
   -8.9658    4.0404  -17.8371 C   0  0  0  0  0  0  0  0  0  0  0  0
   -8.8334    4.3332  -16.4855 C   0  0  0  0  0  0  0  0  0  0  0  0
   -7.6120    4.7970  -15.9761 C   0  0  0  0  0  0  0  0  0  0  0  0
   -4.6701    6.7538  -16.5335 C   0  0  0  0  0  0  0  0  0  0  0  0
   -5.1792    5.4488  -16.3154 C   0  0  0  0  0  0  0  0  0  0  0  0
   -4.3910    4.5997  -15.5265 C   0  0  0  0  0  0  0  0  0  0  0  0
   -3.2182    4.9245  -14.9404 N   0  0  0  0  0  0  0  0  0  0  0  0
   -2.8161    6.1951  -15.0972 C   0  0  0  0  0  0  0  0  0  0  0  0
   -1.6740    6.5407  -14.4817 F   0  0  0  0  0  0  0  0  0  0  0  0
   -3.4868    7.1490  -15.8564 C   0  0  0  0  0  0  0  0  0  0  0  0
   -2.9357    8.5441  -15.9346 C   0  0  0  0  0  0  0  0  0  0  0  0
   -5.2845    7.7118  -17.5370 C   0  0  0  0  0  0  0  0  0  0  0  0
   -5.5551    7.8084  -19.9468 C   0  0  0  0  0  0  0  0  0  0  0  0
   -4.6672    7.4988  -18.8449 N   0  0  0  0  0  0  0  0  0  0  0  0
   -3.8417    8.0937  -18.9155 H   0  0  0  0  0  0  0  0  0  0  0  0
   -7.6054    5.2961  -14.5686 C   0  0  0  0  0  0  0  0  0  0  0  0
   -7.3226    6.4149  -14.3965 O   0  0  0  0  0  0  0  0  0  0  0  0
   -8.0611    4.2143  -13.5670 N   0  0  0  0  0  0  0  0  0  0  0  0
   -8.3169    3.3559  -13.9755 H   0  0  0  0  0  0  0  0  0  0  0  0
   -8.1672    4.2539  -12.2082 C   0  0  0  0  0  0  0  0  0  0  0  0
   -8.0239    5.3656  -11.3524 C   0  0  0  0  0  0  0  0  0  0  0  0
   -8.2047    5.0483  -10.0661 N   0  0  0  0  0  0  0  0  0  0  0  0
   -8.4543    3.7207  -10.1103 N   0  0  0  0  0  0  0  0  0  0  0  0
   -8.6653    2.9988   -8.8795 C   0  0  0  0  0  0  0  0  0  0  0  0
   -8.4441    3.2016  -11.3756 C   0  0  0  0  0  0  0  0  0  0  0  0
 16 17  1  0  0  0
 17 15  1  0  0  0
 15  7  1  0  0  0
  7  8  2  0  0  0
  8  1  1  0  0  0
  1  2  2  0  0  0
  2  3  1  0  0  0
  3  4  2  0  0  0
  4  5  1  0  0  0
  5  6  2  0  0  0
  6 19  1  0  0  0
 19 20  2  0  0  0
 19 21  1  0  0  0
 21 23  1  0  0  0
 23 24  1  0  0  0
 24 25  2  0  0  0
 25 26  1  0  0  0
 26 27  1  0  0  0
 26 28  1  0  0  0
  8  9  1  0  0  0
  9 10  2  0  0  0
 10 11  1  0  0  0
 11 12  1  0  0  0
 11 13  2  0  0  0
 13 14  1  0  0  0
 13  7  1  0  0  0
  6  1  1  0  0  0
 28 23  2  0  0  0
 17 18  1  0  0  0
 21 22  1  0  0  0
M  END
> <minimizedAffinity>
-6.76756

> <minimizedRMSD>
0.70489

$$$$
P8423


 30 33  0  0  0  0  0  0  0  0999 V2000
   -6.4466    4.8900  -16.5980 C   0  0  0  0  0  0  0  0  0  0  0  0
   -6.6253    4.5661  -17.9577 C   0  0  0  0  0  0  0  0  0  0  0  0
   -7.8908    4.2961  -18.4698 C   0  0  0  0  0  0  0  0  0  0  0  0
   -8.9836    4.3288  -17.6193 C   0  0  0  0  0  0  0  0  0  0  0  0
  -10.5574    4.3002  -18.2621 Cl  0  0  0  0  0  0  0  0  0  0  0  0
   -8.8305    4.5525  -16.2595 C   0  0  0  0  0  0  0  0  0  0  0  0
   -7.5695    4.8582  -15.7462 C   0  0  0  0  0  0  0  0  0  0  0  0
   -2.7990    8.3111  -16.5184 C   0  0  0  0  0  0  0  0  0  0  0  0
   -3.3743    7.0024  -16.0903 C   0  0  0  0  0  0  0  0  0  0  0  0
   -4.6021    6.5547  -16.5754 C   0  0  0  0  0  0  0  0  0  0  0  0
   -5.1277    5.3302  -16.1448 C   0  0  0  0  0  0  0  0  0  0  0  0
   -4.3578    4.5912  -15.2503 C   0  0  0  0  0  0  0  0  0  0  0  0
   -3.1426    4.9689  -14.7924 N   0  0  0  0  0  0  0  0  0  0  0  0
   -2.6883    6.1650  -15.2188 C   0  0  0  0  0  0  0  0  0  0  0  0
   -1.4862    6.5543  -14.7652 F   0  0  0  0  0  0  0  0  0  0  0  0
   -7.5412    5.4281  -14.3662 C   0  0  0  0  0  0  0  0  0  0  0  0
   -7.2638    6.5523  -14.2451 O   0  0  0  0  0  0  0  0  0  0  0  0
   -7.9995    4.3974  -13.3229 N   0  0  0  0  0  0  0  0  0  0  0  0
   -8.1004    3.4803  -13.6664 H   0  0  0  0  0  0  0  0  0  0  0  0
   -8.3050    4.5541  -11.9271 C   0  0  0  0  0  0  0  0  0  0  0  0
   -8.5472    3.2739  -11.1498 C   0  0  0  0  0  0  0  0  0  0  0  0
   -8.5754    3.7695   -9.7633 N   0  0  0  0  0  0  0  0  0  0  0  0
   -8.5334    2.6512   -8.8361 C   0  0  0  0  0  0  0  0  0  0  0  0
   -7.5403    4.8320   -9.6607 C   0  0  0  0  0  0  0  0  0  0  0  0
   -6.2922    4.5547   -8.8184 C   0  0  0  0  0  0  0  0  0  0  0  0
   -6.6518    4.9916   -7.4019 C   0  0  0  0  0  0  0  0  0  0  0  0
   -7.9332    5.7132   -7.4647 N   0  0  0  0  0  0  0  0  0  0  0  0
   -8.1132    6.0446   -8.8944 C   0  0  0  0  0  0  0  0  0  0  0  0
   -7.1931    5.1941  -11.1167 C   0  0  0  0  0  0  0  0  0  0  0  0
   -7.8947    6.5627   -6.9014 H   0  0  0  0  0  0  0  0  0  0  0  0
  8  9  1  0  0  0
  9 10  2  0  0  0
 10 11  1  0  0  0
 11  1  1  0  0  0
  1  2  2  0  0  0
  2  3  1  0  0  0
  3  4  2  0  0  0
  4  5  1  0  0  0
  4  6  1  0  0  0
  6  7  2  0  0  0
  7 16  1  0  0  0
 16 17  2  0  0  0
 16 18  1  0  0  0
 20 18  1  0  0  0
 20 21  1  0  0  0
 21 22  1  0  0  0
 22 23  1  0  0  0
 22 24  1  0  0  0
 24 25  1  0  0  0
 25 26  1  0  0  0
 26 27  1  0  0  0
 27 28  1  0  0  0
 24 29  1  0  0  0
 11 12  2  0  0  0
 12 13  1  0  0  0
 13 14  2  0  0  0
 14 15  1  0  0  0
 14  9  1  0  0  0
  7  1  1  0  0  0
 29 20  1  0  0  0
 28 24  1  0  0  0
 18 19  1  0  0  0
 27 30  1  0  0  0
M  END
> <minimizedAffinity>
-7.44516

> <minimizedRMSD>
0.71520

$$$$
P8637


 29 32  0  0  0  0  0  0  0  0999 V2000
   -7.7464    4.7919  -14.9592 C   0  0  0  0  0  0  0  0  0  0  0  0
   -8.7132    4.5234  -15.9195 C   0  0  0  0  0  0  0  0  0  0  0  0
   -8.3765    4.5535  -17.2593 C   0  0  0  0  0  0  0  0  0  0  0  0
   -9.6245    4.3822  -18.3928 Cl  0  0  0  0  0  0  0  0  0  0  0  0
   -7.0896    4.8470  -17.7025 C   0  0  0  0  0  0  0  0  0  0  0  0
   -6.1413    5.1379  -16.7160 C   0  0  0  0  0  0  0  0  0  0  0  0
   -6.4326    5.0944  -15.3529 C   0  0  0  0  0  0  0  0  0  0  0  0
   -5.2174    5.4406  -14.7260 C   0  0  0  0  0  0  0  0  0  0  0  0
   -4.2487    5.7298  -15.5964 N   0  0  0  0  0  0  0  0  0  0  0  0
   -4.8447    5.5835  -16.7945 N   0  0  0  0  0  0  0  0  0  0  0  0
   -4.2799    6.1241  -18.0453 C   0  0  0  0  0  0  0  0  0  0  0  0
   -2.9117    6.8286  -17.9176 C   0  0  0  0  0  0  0  0  0  0  0  0
   -2.4877    6.1056  -19.2338 C   0  0  0  0  0  0  0  0  0  0  0  0
   -2.7271    6.8897  -20.5184 C   0  0  0  0  0  0  0  0  0  0  0  0
   -1.1407    5.5849  -19.2449 O   0  0  0  0  0  0  0  0  0  0  0  0
   -3.5781    5.0510  -18.8974 C   0  0  0  0  0  0  0  0  0  0  0  0
   -0.5201    6.2982  -19.4615 H   0  0  0  0  0  0  0  0  0  0  0  0
   -8.1787    4.8540  -13.5615 C   0  0  0  0  0  0  0  0  0  0  0  0
   -9.1581    5.5524  -13.3092 O   0  0  0  0  0  0  0  0  0  0  0  0
   -7.3941    4.0018  -12.6018 C   0  0  0  0  0  0  0  0  0  0  0  0
   -8.6327    3.5228   -9.2765 C   0  0  0  0  0  0  0  0  0  0  0  0
   -8.5843    3.3395  -10.5794 N   0  0  0  0  0  0  0  0  0  0  0  0
   -7.7208    4.2285  -11.1763 C   0  0  0  0  0  0  0  0  0  0  0  0
   -7.1798    5.1665  -10.3232 C   0  0  0  0  0  0  0  0  0  0  0  0
   -7.6533    4.8230   -8.7165 S   0  0  0  0  0  0  0  0  0  0  0  0
   -9.4712    2.6245   -8.3987 C   0  0  0  0  0  0  0  0  0  0  0  0
  -10.1067    3.8687   -6.3474 C   0  0  0  0  0  0  0  0  0  0  0  0
   -9.3779    2.7552   -6.9279 N   0  0  0  0  0  0  0  0  0  0  0  0
   -9.9322    1.5259   -6.3509 C   0  0  0  0  0  0  0  0  0  0  0  0
 27 28  1  0  0  0
 28 29  1  0  0  0
 28 26  1  0  0  0
 26 21  1  0  0  0
 21 22  2  0  0  0
 22 23  1  0  0  0
 23 20  1  0  0  0
 20 18  1  0  0  0
 18 19  2  0  0  0
 18  1  1  0  0  0
  1  2  2  0  0  0
  2  3  1  0  0  0
  3  4  1  0  0  0
  3  5  2  0  0  0
  5  6  1  0  0  0
  6  7  2  0  0  0
  7  8  1  0  0  0
  8  9  2  0  0  0
  9 10  1  0  0  0
 11 10  1  0  0  0
 11 12  1  0  0  0
 12 13  1  0  0  0
 13 14  1  0  0  0
 13 15  1  0  0  0
 13 16  1  0  0  0
 23 24  2  0  0  0
 24 25  1  0  0  0
 25 21  1  0  0  0
  7  1  1  0  0  0
 16 11  1  0  0  0
 10  6  1  0  0  0
 15 17  1  0  0  0
M  END
> <minimizedAffinity>
-7.05181

> <minimizedRMSD>
0.38694

$$$$
P8811


 22 23  0  0  0  0  0  0  0  0999 V2000
   -6.4963    4.7195  -17.9729 C   0  0  0  0  0  0  0  0  0  0  0  0
   -7.8267    4.4924  -18.3511 C   0  0  0  0  0  0  0  0  0  0  0  0
   -8.8495    4.4292  -17.4114 C   0  0  0  0  0  0  0  0  0  0  0  0
  -10.1666    4.2479  -17.8356 N   0  0  0  0  0  0  0  0  0  0  0  0
   -8.5316    4.4295  -16.0609 C   0  0  0  0  0  0  0  0  0  0  0  0
   -7.2104    4.6372  -15.6571 C   0  0  0  0  0  0  0  0  0  0  0  0
   -6.1976    4.8142  -16.6096 C   0  0  0  0  0  0  0  0  0  0  0  0
  -10.3788    4.2497  -18.7970 H   0  0  0  0  0  0  0  0  0  0  0  0
  -10.8836    4.1181  -17.1735 H   0  0  0  0  0  0  0  0  0  0  0  0
   -6.9023    4.8061  -14.2099 C   0  0  0  0  0  0  0  0  0  0  0  0
   -5.9736    5.4464  -13.9068 O   0  0  0  0  0  0  0  0  0  0  0  0
   -7.9811    4.1287  -13.3346 N   0  0  0  0  0  0  0  0  0  0  0  0
   -8.7131    3.7041  -13.8377 H   0  0  0  0  0  0  0  0  0  0  0  0
   -8.0842    4.0235  -11.9781 C   0  0  0  0  0  0  0  0  0  0  0  0
   -8.2974    2.8604  -11.2168 C   0  0  0  0  0  0  0  0  0  0  0  0
   -8.3509    3.1116   -9.9091 N   0  0  0  0  0  0  0  0  0  0  0  0
   -8.1764    4.4378   -9.8396 N   0  0  0  0  0  0  0  0  0  0  0  0
   -8.1428    5.0524   -8.5427 C   0  0  0  0  0  0  0  0  0  0  0  0
   -8.0166    5.0371  -11.0545 C   0  0  0  0  0  0  0  0  0  0  0  0
   -5.5013    4.9222  -19.0858 C   0  0  0  0  0  0  0  0  0  0  0  0
   -3.0957    4.4022  -19.5366 C   0  0  0  0  0  0  0  0  0  0  0  0
   -4.0580    5.2193  -18.6866 C   0  0  0  0  0  0  0  0  0  0  0  0
 21 22  1  0  0  0
 22 20  1  0  0  0
 20  1  1  0  0  0
  1  2  2  0  0  0
  2  3  1  0  0  0
  3  4  1  0  0  0
  3  5  2  0  0  0
  5  6  1  0  0  0
  6 10  1  0  0  0
 10 11  2  0  0  0
 10 12  1  0  0  0
 12 14  1  0  0  0
 14 15  1  0  0  0
 15 16  2  0  0  0
 16 17  1  0  0  0
 17 18  1  0  0  0
 17 19  1  0  0  0
  6  7  2  0  0  0
  7  1  1  0  0  0
 19 14  2  0  0  0
  4  8  1  0  0  0
  4  9  1  0  0  0
 12 13  1  0  0  0
M  END
> <minimizedAffinity>
-7.15763

> <minimizedRMSD>
0.50081

$$$$
P8890


 42 47  0  0  0  0  0  0  0  0999 V2000
   -5.8211    8.7875  -14.2565 C   0  0  0  0  0  0  0  0  0  0  0  0
   -5.2652    8.8512  -15.6849 C   0  0  0  0  0  0  0  0  0  0  0  0
   -5.2719    7.5577  -16.5274 C   0  0  0  0  0  0  0  0  0  0  0  0
   -5.5258    6.1658  -15.8149 C   0  0  0  0  0  0  0  0  0  0  0  0
   -5.7080    6.4116  -14.3071 C   0  0  0  0  0  0  0  0  0  0  0  0
   -6.5581    7.5620  -14.0266 N   0  0  0  0  0  0  0  0  0  0  0  0
   -6.7058    5.4034  -16.5376 C   0  0  0  0  0  0  0  0  0  0  0  0
   -6.4053    4.9783  -17.8614 C   0  0  0  0  0  0  0  0  0  0  0  0
   -7.3705    4.3560  -18.6778 C   0  0  0  0  0  0  0  0  0  0  0  0
   -8.6369    4.0750  -18.2016 C   0  0  0  0  0  0  0  0  0  0  0  0
   -8.9358    4.4041  -16.8944 C   0  0  0  0  0  0  0  0  0  0  0  0
   -7.9980    5.0674  -16.0697 C   0  0  0  0  0  0  0  0  0  0  0  0
   -5.0788    4.9944  -18.3517 N   0  0  0  0  0  0  0  0  0  0  0  0
   -3.9648    5.2383  -17.5409 N   0  0  0  0  0  0  0  0  0  0  0  0
   -4.3063    5.1879  -16.0864 C   0  0  0  0  0  0  0  0  0  0  0  0
   -6.8629    7.5281  -13.0538 H   0  0  0  0  0  0  0  0  0  0  0  0
   -4.9321    4.8258  -19.3105 H   0  0  0  0  0  0  0  0  0  0  0  0
   -3.5946    6.1631  -17.7600 H   0  0  0  0  0  0  0  0  0  0  0  0
   -2.9601    5.3123  -15.2985 C   0  0  0  0  0  0  0  0  0  0  0  0
   -2.3852    6.7289  -15.2026 C   0  0  0  0  0  0  0  0  0  0  0  0
   -1.0727    6.7667  -14.4235 C   0  0  0  0  0  0  0  0  0  0  0  0
   -1.2332    6.1957  -13.0881 N   0  0  0  0  0  0  0  0  0  0  0  0
   -1.6254    4.7916  -13.1765 C   0  0  0  0  0  0  0  0  0  0  0  0
   -2.9476    4.5994  -13.9253 C   0  0  0  0  0  0  0  0  0  0  0  0
   -1.9533    6.7145  -12.5854 H   0  0  0  0  0  0  0  0  0  0  0  0
   -8.5943    5.3359  -14.7423 C   0  0  0  0  0  0  0  0  0  0  0  0
   -9.5250    6.0212  -14.6721 O   0  0  0  0  0  0  0  0  0  0  0  0
   -7.8794    4.5331  -13.6696 N   0  0  0  0  0  0  0  0  0  0  0  0
   -7.0560    4.0852  -13.9706 H   0  0  0  0  0  0  0  0  0  0  0  0
   -8.2053    4.3227  -12.3006 C   0  0  0  0  0  0  0  0  0  0  0  0
   -8.0794    5.5878  -11.4385 C   0  0  0  0  0  0  0  0  0  0  0  0
   -7.3904    5.1618  -10.2134 N   0  0  0  0  0  0  0  0  0  0  0  0
   -7.7755    5.9553   -9.0580 C   0  0  0  0  0  0  0  0  0  0  0  0
   -7.5624    3.7025  -10.1238 C   0  0  0  0  0  0  0  0  0  0  0  0
   -8.9090    3.1880   -9.5766 C   0  0  0  0  0  0  0  0  0  0  0  0
   -8.5613    2.0293   -8.6660 C   0  0  0  0  0  0  0  0  0  0  0  0
   -7.2028    1.6682   -9.0735 N   0  0  0  0  0  0  0  0  0  0  0  0
   -6.5386    2.9638   -9.2780 C   0  0  0  0  0  0  0  0  0  0  0  0
   -7.3723    3.2953  -11.5940 C   0  0  0  0  0  0  0  0  0  0  0  0
   -7.2152    1.1264   -9.9377 H   0  0  0  0  0  0  0  0  0  0  0  0
   -7.6217    9.7952  -13.0579 C   0  0  0  0  0  0  0  0  0  0  0  0
   -6.6457    9.9383  -14.0791 O   0  0  0  0  0  0  0  0  0  0  0  0
 41 42  1  0  0  0
  1 42  1  0  0  0
  1  2  1  0  0  0
  2  3  1  0  0  0
  4  3  1  0  0  0
  4  5  1  0  0  0
  5  6  1  0  0  0
  4  7  1  0  0  0
  7  8  1  0  0  0
  8  9  2  0  0  0
  9 10  1  0  0  0
 10 11  2  0  0  0
 11 12  1  0  0  0
 12 26  1  0  0  0
 26 27  2  0  0  0
 26 28  1  0  0  0
 30 28  1  0  0  0
 30 31  1  0  0  0
 31 32  1  0  0  0
 32 33  1  0  0  0
 32 34  1  0  0  0
 34 35  1  0  0  0
 35 36  1  0  0  0
 36 37  1  0  0  0
 37 38  1  0  0  0
 34 39  1  0  0  0
  8 13  1  0  0  0
 13 14  1  0  0  0
 14 15  1  0  0  0
 15 19  1  0  0  0
 19 20  1  0  0  0
 20 21  1  0  0  0
 21 22  1  0  0  0
 22 23  1  0  0  0
 23 24  1  0  0  0
  6  1  1  0  0  0
 12  7  2  0  0  0
 39 30  1  0  0  0
 24 19  1  0  0  0
 15  4  1  0  0  0
 38 34  1  0  0  0
  6 16  1  0  0  0
 28 29  1  0  0  0
 37 40  1  0  0  0
 13 17  1  0  0  0
 14 18  1  0  0  0
 22 25  1  0  0  0
M  END
> <minimizedAffinity>
-7.50184

> <minimizedRMSD>
0.50147

$$$$
P8891


 36 40  0  0  0  0  0  0  0  0999 V2000
   -5.2009    5.5886  -17.6392 C   0  0  0  0  0  0  0  0  0  0  0  0
   -5.3436    7.1200  -17.8867 C   0  0  0  0  0  0  0  0  0  0  0  0
   -4.1490    7.5674  -18.7410 C   0  0  0  0  0  0  0  0  0  0  0  0
   -3.4756    6.2941  -19.2424 C   0  0  0  0  0  0  0  0  0  0  0  0
   -4.4897    5.1775  -18.9781 C   0  0  0  0  0  0  0  0  0  0  0  0
   -5.3973    5.1621  -20.1283 N   0  0  0  0  0  0  0  0  0  0  0  0
   -6.4354    4.2561  -19.8998 N   0  0  0  0  0  0  0  0  0  0  0  0
   -7.1540    4.3567  -18.6744 C   0  0  0  0  0  0  0  0  0  0  0  0
   -8.4343    3.7760  -18.6555 C   0  0  0  0  0  0  0  0  0  0  0  0
   -9.2107    3.8016  -17.5160 C   0  0  0  0  0  0  0  0  0  0  0  0
   -8.6878    4.3659  -16.3647 C   0  0  0  0  0  0  0  0  0  0  0  0
   -7.3913    4.9251  -16.3372 C   0  0  0  0  0  0  0  0  0  0  0  0
   -6.5891    4.9320  -17.5083 C   0  0  0  0  0  0  0  0  0  0  0  0
   -4.8816    4.8827  -20.9628 H   0  0  0  0  0  0  0  0  0  0  0  0
   -6.6637    3.5684  -20.5662 H   0  0  0  0  0  0  0  0  0  0  0  0
   -7.0549    5.6537  -15.0659 C   0  0  0  0  0  0  0  0  0  0  0  0
   -6.5665    6.7068  -15.1492 O   0  0  0  0  0  0  0  0  0  0  0  0
   -7.5322    4.8703  -13.8297 N   0  0  0  0  0  0  0  0  0  0  0  0
   -7.8448    3.9557  -14.0167 H   0  0  0  0  0  0  0  0  0  0  0  0
   -7.5957    5.2576  -12.4444 C   0  0  0  0  0  0  0  0  0  0  0  0
   -6.2519    5.6088  -11.8230 C   0  0  0  0  0  0  0  0  0  0  0  0
   -6.4667    5.5174  -10.3662 N   0  0  0  0  0  0  0  0  0  0  0  0
   -7.0025    6.7733   -9.8363 C   0  0  0  0  0  0  0  0  0  0  0  0
   -7.3696    4.3564  -10.1921 C   0  0  0  0  0  0  0  0  0  0  0  0
   -8.2857    4.3827   -8.9695 C   0  0  0  0  0  0  0  0  0  0  0  0
   -8.7344    2.9455   -8.8306 C   0  0  0  0  0  0  0  0  0  0  0  0
   -7.6222    2.1259   -9.3509 N   0  0  0  0  0  0  0  0  0  0  0  0
   -6.6037    3.0591   -9.8761 C   0  0  0  0  0  0  0  0  0  0  0  0
   -8.1460    4.1819  -11.5244 C   0  0  0  0  0  0  0  0  0  0  0  0
   -7.9562    1.5162  -10.0973 H   0  0  0  0  0  0  0  0  0  0  0  0
   -4.2391    5.2316  -16.4508 C   0  0  0  0  0  0  0  0  0  0  0  0
   -3.7746    6.4178  -15.7406 N   0  0  0  0  0  0  0  0  0  0  0  0
   -4.0444    7.2396  -16.2810 H   0  0  0  0  0  0  0  0  0  0  0  0
   -2.3588    6.4640  -15.5314 C   0  0  0  0  0  0  0  0  0  0  0  0
   -1.9494    8.7566  -15.9621 C   0  0  0  0  0  0  0  0  0  0  0  0
   -2.0038    7.7261  -14.9871 O   0  0  0  0  0  0  0  0  0  0  0  0
 35 36  1  0  0  0
 36 34  1  0  0  0
 34 32  1  0  0  0
 32 31  1  0  0  0
  1 31  1  0  0  0
  1  2  1  0  0  0
  2  3  1  0  0  0
  3  4  1  0  0  0
  5  4  1  0  0  0
  5  6  1  0  0  0
  6  7  1  0  0  0
  7  8  1  0  0  0
  8  9  2  0  0  0
  9 10  1  0  0  0
 10 11  2  0  0  0
 11 12  1  0  0  0
 12 16  1  0  0  0
 16 17  2  0  0  0
 16 18  1  0  0  0
 20 18  1  0  0  0
 20 21  1  0  0  0
 21 22  1  0  0  0
 22 23  1  0  0  0
 22 24  1  0  0  0
 24 25  1  0  0  0
 25 26  1  0  0  0
 26 27  1  0  0  0
 27 28  1  0  0  0
 24 29  1  0  0  0
 12 13  2  0  0  0
  5  1  1  0  0  0
 13  8  1  0  0  0
 13  1  1  0  0  0
 29 20  1  0  0  0
 28 24  1  0  0  0
 32 33  1  0  0  0
  6 14  1  0  0  0
  7 15  1  0  0  0
 18 19  1  0  0  0
 27 30  1  0  0  0
M  END
> <minimizedAffinity>
-7.81116

> <minimizedRMSD>
0.65114

$$$$
P8893


 35 38  0  0  0  0  0  0  0  0999 V2000
   -6.3168    5.0719  -17.0348 C   0  0  0  0  0  0  0  0  0  0  0  0
   -6.7006    4.5974  -18.3023 C   0  0  0  0  0  0  0  0  0  0  0  0
   -8.0128    4.2204  -18.6008 C   0  0  0  0  0  0  0  0  0  0  0  0
   -8.9753    4.2562  -17.6119 C   0  0  0  0  0  0  0  0  0  0  0  0
  -10.6085    3.9899  -18.0066 Cl  0  0  0  0  0  0  0  0  0  0  0  0
   -8.6374    4.6072  -16.3194 C   0  0  0  0  0  0  0  0  0  0  0  0
   -7.3359    5.0354  -16.0430 C   0  0  0  0  0  0  0  0  0  0  0  0
   -4.3672    6.7546  -17.3576 C   0  0  0  0  0  0  0  0  0  0  0  0
   -3.2332    7.3269  -16.7382 C   0  0  0  0  0  0  0  0  0  0  0  0
   -2.6159    6.6820  -15.6867 C   0  0  0  0  0  0  0  0  0  0  0  0
   -2.9938    5.4775  -15.2535 N   0  0  0  0  0  0  0  0  0  0  0  0
   -4.1441    4.9999  -15.7823 C   0  0  0  0  0  0  0  0  0  0  0  0
   -4.9462    5.6091  -16.7664 C   0  0  0  0  0  0  0  0  0  0  0  0
   -1.5408    7.3197  -15.1092 O   0  0  0  0  0  0  0  0  0  0  0  0
   -1.0393    6.6346  -13.9654 C   0  0  0  0  0  0  0  0  0  0  0  0
   -4.8054    7.4383  -18.6329 C   0  0  0  0  0  0  0  0  0  0  0  0
   -5.7827    9.3806  -19.5942 C   0  0  0  0  0  0  0  0  0  0  0  0
   -5.7971    8.4920  -18.4338 N   0  0  0  0  0  0  0  0  0  0  0  0
   -6.7230    8.0761  -18.3324 H   0  0  0  0  0  0  0  0  0  0  0  0
   -7.1571    5.5461  -14.6601 C   0  0  0  0  0  0  0  0  0  0  0  0
   -6.9518    6.6783  -14.4886 O   0  0  0  0  0  0  0  0  0  0  0  0
   -7.2670    4.3888  -13.6526 N   0  0  0  0  0  0  0  0  0  0  0  0
   -7.5255    3.5238  -14.0453 H   0  0  0  0  0  0  0  0  0  0  0  0
   -7.0531    4.3647  -12.2268 C   0  0  0  0  0  0  0  0  0  0  0  0
   -7.9362    3.3731  -11.4626 C   0  0  0  0  0  0  0  0  0  0  0  0
   -8.3505    4.0241  -10.2008 N   0  0  0  0  0  0  0  0  0  0  0  0
   -7.5392    5.2613  -10.0670 C   0  0  0  0  0  0  0  0  0  0  0  0
   -8.2439    6.3738   -9.2765 C   0  0  0  0  0  0  0  0  0  0  0  0
   -8.3653    6.0506   -7.7856 C   0  0  0  0  0  0  0  0  0  0  0  0
   -7.0529    5.7773   -7.1825 N   0  0  0  0  0  0  0  0  0  0  0  0
   -7.2004    5.5012   -5.7547 C   0  0  0  0  0  0  0  0  0  0  0  0
   -6.4150    4.6416   -7.8632 C   0  0  0  0  0  0  0  0  0  0  0  0
   -6.2115    4.9424   -9.3492 C   0  0  0  0  0  0  0  0  0  0  0  0
   -7.3311    5.6813  -11.5244 C   0  0  0  0  0  0  0  0  0  0  0  0
   -8.1751    3.4025   -9.4114 H   0  0  0  0  0  0  0  0  0  0  0  0
 17 18  1  0  0  0
 18 16  1  0  0  0
 16  8  1  0  0  0
  8  9  2  0  0  0
  9 10  1  0  0  0
 10 14  1  0  0  0
 14 15  1  0  0  0
 10 11  2  0  0  0
 11 12  1  0  0  0
 12 13  2  0  0  0
 13  1  1  0  0  0
  1  2  2  0  0  0
  2  3  1  0  0  0
  3  4  2  0  0  0
  4  5  1  0  0  0
  4  6  1  0  0  0
  6  7  2  0  0  0
  7 20  1  0  0  0
 20 21  2  0  0  0
 20 22  1  0  0  0
 24 22  1  0  0  0
 24 25  1  0  0  0
 25 26  1  0  0  0
 26 27  1  0  0  0
 27 28  1  0  0  0
 28 29  1  0  0  0
 29 30  1  0  0  0
 30 31  1  0  0  0
 30 32  1  0  0  0
 32 33  1  0  0  0
 27 34  1  0  0  0
 13  8  1  0  0  0
  7  1  1  0  0  0
 34 24  1  0  0  0
 33 27  1  0  0  0
 18 19  1  0  0  0
 22 23  1  0  0  0
 26 35  1  0  0  0
M  END
> <minimizedAffinity>
-6.64411

> <minimizedRMSD>
0.68614

$$$$
P8907


 30 33  0  0  0  0  0  0  0  0999 V2000
   -6.3226    5.0878  -16.9426 C   0  0  0  0  0  0  0  0  0  0  0  0
   -6.6060    4.7227  -18.2778 C   0  0  0  0  0  0  0  0  0  0  0  0
   -7.8700    4.2731  -18.6580 C   0  0  0  0  0  0  0  0  0  0  0  0
   -8.8653    4.1750  -17.7021 C   0  0  0  0  0  0  0  0  0  0  0  0
  -10.4892    3.9632  -18.1652 Cl  0  0  0  0  0  0  0  0  0  0  0  0
   -8.5938    4.4194  -16.3670 C   0  0  0  0  0  0  0  0  0  0  0  0
   -7.3326    4.8839  -15.9826 C   0  0  0  0  0  0  0  0  0  0  0  0
   -2.5899    6.8217  -16.0046 C   0  0  0  0  0  0  0  0  0  0  0  0
   -3.5037    7.5844  -16.7103 C   0  0  0  0  0  0  0  0  0  0  0  0
   -4.7317    7.0138  -17.0294 C   0  0  0  0  0  0  0  0  0  0  0  0
   -5.0258    5.7032  -16.6300 C   0  0  0  0  0  0  0  0  0  0  0  0
   -4.0296    5.0388  -15.9147 C   0  0  0  0  0  0  0  0  0  0  0  0
   -2.8163    5.5548  -15.6092 N   0  0  0  0  0  0  0  0  0  0  0  0
   -0.3827    6.5046  -15.3063 C   0  0  0  0  0  0  0  0  0  0  0  0
   -1.3871    7.4291  -15.7114 O   0  0  0  0  0  0  0  0  0  0  0  0
   -7.2387    5.3571  -14.5717 C   0  0  0  0  0  0  0  0  0  0  0  0
   -6.8100    6.4184  -14.3581 O   0  0  0  0  0  0  0  0  0  0  0  0
   -7.8551    4.3194  -13.6165 N   0  0  0  0  0  0  0  0  0  0  0  0
   -8.0763    3.4555  -14.0337 H   0  0  0  0  0  0  0  0  0  0  0  0
   -8.1601    4.4060  -12.2155 C   0  0  0  0  0  0  0  0  0  0  0  0
   -8.1887    5.8101  -11.6311 C   0  0  0  0  0  0  0  0  0  0  0  0
   -8.3644    5.5434  -10.1987 N   0  0  0  0  0  0  0  0  0  0  0  0
   -8.0501    6.7203   -9.4048 C   0  0  0  0  0  0  0  0  0  0  0  0
   -7.6368    4.2787   -9.8942 C   0  0  0  0  0  0  0  0  0  0  0  0
   -8.5844    3.3129   -9.1778 C   0  0  0  0  0  0  0  0  0  0  0  0
   -8.5132    3.7653   -7.7340 C   0  0  0  0  0  0  0  0  0  0  0  0
   -7.1102    4.1755   -7.5150 N   0  0  0  0  0  0  0  0  0  0  0  0
   -6.5023    4.3290   -8.8602 C   0  0  0  0  0  0  0  0  0  0  0  0
   -7.1966    3.7233  -11.2667 C   0  0  0  0  0  0  0  0  0  0  0  0
   -6.6130    3.4613   -6.9829 H   0  0  0  0  0  0  0  0  0  0  0  0
 14 15  1  0  0  0
 15  8  1  0  0  0
  8  9  2  0  0  0
  9 10  1  0  0  0
 10 11  2  0  0  0
 11  1  1  0  0  0
  1  2  2  0  0  0
  2  3  1  0  0  0
  3  4  2  0  0  0
  4  5  1  0  0  0
  4  6  1  0  0  0
  6  7  2  0  0  0
  7 16  1  0  0  0
 16 17  2  0  0  0
 16 18  1  0  0  0
 20 18  1  0  0  0
 20 21  1  0  0  0
 21 22  1  0  0  0
 22 23  1  0  0  0
 22 24  1  0  0  0
 24 25  1  0  0  0
 25 26  1  0  0  0
 26 27  1  0  0  0
 27 28  1  0  0  0
 24 29  1  0  0  0
 11 12  1  0  0  0
 12 13  2  0  0  0
 13  8  1  0  0  0
  7  1  1  0  0  0
 29 20  1  0  0  0
 28 24  1  0  0  0
 18 19  1  0  0  0
 27 30  1  0  0  0
M  END
> <minimizedAffinity>
-7.34832

> <minimizedRMSD>
0.34171

$$$$
P8920


 35 39  0  0  0  0  0  0  0  0999 V2000
   -7.7455    4.6340  -16.3637 C   0  0  0  0  0  0  0  0  0  0  0  0
   -8.9976    4.0847  -16.6404 C   0  0  0  0  0  0  0  0  0  0  0  0
   -9.3045    3.6916  -17.9365 C   0  0  0  0  0  0  0  0  0  0  0  0
   -8.3656    3.8640  -18.9505 C   0  0  0  0  0  0  0  0  0  0  0  0
   -7.1126    4.4383  -18.6876 C   0  0  0  0  0  0  0  0  0  0  0  0
   -6.7692    4.7618  -17.3582 C   0  0  0  0  0  0  0  0  0  0  0  0
   -5.4114    5.2335  -17.1214 C   0  0  0  0  0  0  0  0  0  0  0  0
   -4.6574    5.6103  -18.1538 C   0  0  0  0  0  0  0  0  0  0  0  0
   -5.0494    5.4641  -19.5809 C   0  0  0  0  0  0  0  0  0  0  0  0
   -6.1900    4.5615  -19.7475 N   0  0  0  0  0  0  0  0  0  0  0  0
   -3.3485    6.1218  -17.6613 C   0  0  0  0  0  0  0  0  0  0  0  0
   -3.2373    5.5120  -16.3084 N   0  0  0  0  0  0  0  0  0  0  0  0
   -4.6379    5.3089  -15.8578 C   0  0  0  0  0  0  0  0  0  0  0  0
   -6.3104    4.0516  -20.5810 H   0  0  0  0  0  0  0  0  0  0  0  0
   -2.7442    6.1391  -15.6727 H   0  0  0  0  0  0  0  0  0  0  0  0
   -7.4965    4.1467  -13.9623 N   0  0  0  0  0  0  0  0  0  0  0  0
   -7.5317    5.2325  -15.0331 C   0  0  0  0  0  0  0  0  0  0  0  0
   -7.3492    6.3767  -14.9520 O   0  0  0  0  0  0  0  0  0  0  0  0
   -7.6125    3.2298  -14.3016 H   0  0  0  0  0  0  0  0  0  0  0  0
   -7.7597    6.0876   -9.4995 C   0  0  0  0  0  0  0  0  0  0  0  0
   -8.2316    5.2009  -10.5446 N   0  0  0  0  0  0  0  0  0  0  0  0
   -7.7378    5.5613  -11.8828 C   0  0  0  0  0  0  0  0  0  0  0  0
   -7.3223    4.2430  -12.5446 C   0  0  0  0  0  0  0  0  0  0  0  0
   -8.1218    3.2145  -11.7803 C   0  0  0  0  0  0  0  0  0  0  0  0
   -8.0342    3.7564  -10.3433 C   0  0  0  0  0  0  0  0  0  0  0  0
   -9.0976    3.1258   -9.4434 C   0  0  0  0  0  0  0  0  0  0  0  0
   -8.4136    1.9997   -8.7015 C   0  0  0  0  0  0  0  0  0  0  0  0
   -7.0999    1.8732   -9.3504 N   0  0  0  0  0  0  0  0  0  0  0  0
   -6.7417    3.2607   -9.6803 C   0  0  0  0  0  0  0  0  0  0  0  0
   -7.1637    1.3032  -10.1939 H   0  0  0  0  0  0  0  0  0  0  0  0
   -3.2471    7.6540  -17.5093 C   0  0  0  0  0  0  0  0  0  0  0  0
   -2.8354    8.4353  -18.7558 C   0  0  0  0  0  0  0  0  0  0  0  0
   -3.9826    9.0311  -19.4489 N   0  0  0  0  0  0  0  0  0  0  0  0
   -4.6134    8.2922  -19.7597 H   0  0  0  0  0  0  0  0  0  0  0  0
   -3.6544    9.5601  -20.2569 H   0  0  0  0  0  0  0  0  0  0  0  0
 20 21  1  0  0  0
 21 22  1  0  0  0
 22 23  1  0  0  0
 23 16  1  0  0  0
 16 17  1  0  0  0
 17 18  2  0  0  0
 17  1  1  0  0  0
  1  2  2  0  0  0
  2  3  1  0  0  0
  3  4  2  0  0  0
  4  5  1  0  0  0
  5  6  2  0  0  0
  6  7  1  0  0  0
  7  8  2  0  0  0
  8  9  1  0  0  0
  9 10  1  0  0  0
  8 11  1  0  0  0
 11 31  1  0  0  0
 31 32  1  0  0  0
 32 33  1  0  0  0
 11 12  1  0  0  0
 12 13  1  0  0  0
 23 24  1  0  0  0
 25 24  1  0  0  0
 25 26  1  0  0  0
 26 27  1  0  0  0
 27 28  1  0  0  0
 28 29  1  0  0  0
 25 21  1  0  0  0
  6  1  1  0  0  0
 13  7  1  0  0  0
 29 25  1  0  0  0
 10  5  1  0  0  0
 16 19  1  0  0  0
 10 14  1  0  0  0
 33 34  1  0  0  0
 33 35  1  0  0  0
 12 15  1  0  0  0
 28 30  1  0  0  0
M  END
> <minimizedAffinity>
-7.94509

> <minimizedRMSD>
0.59378

$$$$
P8923


 34 37  0  0  0  0  0  0  0  0999 V2000
   -6.8589    5.1013  -16.7443 C   0  0  0  0  0  0  0  0  0  0  0  0
   -6.8509    4.5619  -18.0532 C   0  0  0  0  0  0  0  0  0  0  0  0
   -7.9446    3.8764  -18.5728 C   0  0  0  0  0  0  0  0  0  0  0  0
   -9.0412    3.6619  -17.7668 C   0  0  0  0  0  0  0  0  0  0  0  0
  -10.0859    2.9873  -18.2352 F   0  0  0  0  0  0  0  0  0  0  0  0
   -9.0801    4.1239  -16.4698 C   0  0  0  0  0  0  0  0  0  0  0  0
   -8.0026    4.8453  -15.9520 C   0  0  0  0  0  0  0  0  0  0  0  0
   -5.1548    6.9895  -17.0412 C   0  0  0  0  0  0  0  0  0  0  0  0
   -3.9180    7.5223  -16.6341 C   0  0  0  0  0  0  0  0  0  0  0  0
   -3.2591    6.9781  -15.5447 C   0  0  0  0  0  0  0  0  0  0  0  0
   -3.7334    5.9469  -14.8287 N   0  0  0  0  0  0  0  0  0  0  0  0
   -4.9151    5.4304  -15.2370 C   0  0  0  0  0  0  0  0  0  0  0  0
   -5.6758    5.8801  -16.3229 C   0  0  0  0  0  0  0  0  0  0  0  0
   -2.0375    7.5369  -15.2281 O   0  0  0  0  0  0  0  0  0  0  0  0
   -1.4587    6.9764  -14.0535 C   0  0  0  0  0  0  0  0  0  0  0  0
   -5.8192    7.5551  -18.2912 C   0  0  0  0  0  0  0  0  0  0  0  0
   -5.6726    9.5145  -19.7180 C   0  0  0  0  0  0  0  0  0  0  0  0
   -5.8512    9.0295  -18.3573 N   0  0  0  0  0  0  0  0  0  0  0  0
   -6.7514    9.3561  -18.0060 H   0  0  0  0  0  0  0  0  0  0  0  0
   -8.3510    5.5211  -14.6829 C   0  0  0  0  0  0  0  0  0  0  0  0
   -9.3224    6.1476  -14.7101 O   0  0  0  0  0  0  0  0  0  0  0  0
   -7.4086    5.2179  -13.5350 N   0  0  0  0  0  0  0  0  0  0  0  0
   -6.5996    4.7169  -13.7876 H   0  0  0  0  0  0  0  0  0  0  0  0
   -7.5032    5.5418  -12.1405 C   0  0  0  0  0  0  0  0  0  0  0  0
   -6.1820    5.8678  -11.4655 C   0  0  0  0  0  0  0  0  0  0  0  0
   -6.4369    5.6762  -10.0261 N   0  0  0  0  0  0  0  0  0  0  0  0
   -7.0248    6.8762   -9.4264 C   0  0  0  0  0  0  0  0  0  0  0  0
   -7.3218    4.4948   -9.9716 C   0  0  0  0  0  0  0  0  0  0  0  0
   -8.1902    4.3307   -8.7277 C   0  0  0  0  0  0  0  0  0  0  0  0
   -8.6163    2.8804   -8.8253 C   0  0  0  0  0  0  0  0  0  0  0  0
   -7.5197    2.1664   -9.5187 N   0  0  0  0  0  0  0  0  0  0  0  0
   -6.5187    3.1826   -9.8724 C   0  0  0  0  0  0  0  0  0  0  0  0
   -8.1478    4.4794  -11.2822 C   0  0  0  0  0  0  0  0  0  0  0  0
   -7.8725    1.7113  -10.3606 H   0  0  0  0  0  0  0  0  0  0  0  0
 17 18  1  0  0  0
 18 16  1  0  0  0
 16  8  1  0  0  0
  8  9  2  0  0  0
  9 10  1  0  0  0
 10 14  1  0  0  0
 14 15  1  0  0  0
 10 11  2  0  0  0
 11 12  1  0  0  0
 12 13  2  0  0  0
 13  1  1  0  0  0
  1  2  2  0  0  0
  2  3  1  0  0  0
  3  4  2  0  0  0
  4  5  1  0  0  0
  4  6  1  0  0  0
  6  7  2  0  0  0
  7 20  1  0  0  0
 20 21  2  0  0  0
 20 22  1  0  0  0
 24 22  1  0  0  0
 24 25  1  0  0  0
 25 26  1  0  0  0
 26 27  1  0  0  0
 26 28  1  0  0  0
 28 29  1  0  0  0
 29 30  1  0  0  0
 30 31  1  0  0  0
 31 32  1  0  0  0
 28 33  1  0  0  0
 13  8  1  0  0  0
  7  1  1  0  0  0
 33 24  1  0  0  0
 32 28  1  0  0  0
 18 19  1  0  0  0
 22 23  1  0  0  0
 31 34  1  0  0  0
M  END
> <minimizedAffinity>
-7.07048

> <minimizedRMSD>
0.42643

$$$$
P8924


 37 41  0  0  0  0  0  0  0  0999 V2000
   -3.4182    7.0527  -15.1965 C   0  0  0  0  0  0  0  0  0  0  0  0
   -4.0782    7.7339  -16.4104 C   0  0  0  0  0  0  0  0  0  0  0  0
   -5.4713    7.1550  -16.7172 C   0  0  0  0  0  0  0  0  0  0  0  0
   -5.4446    5.6038  -16.8136 C   0  0  0  0  0  0  0  0  0  0  0  0
   -4.8163    5.1096  -15.4592 C   0  0  0  0  0  0  0  0  0  0  0  0
   -3.4234    5.5904  -15.2978 N   0  0  0  0  0  0  0  0  0  0  0  0
   -4.3972    5.2251  -17.8262 N   0  0  0  0  0  0  0  0  0  0  0  0
   -4.7155    5.6520  -19.1513 C   0  0  0  0  0  0  0  0  0  0  0  0
   -3.4921    5.4840  -19.8855 N   0  0  0  0  0  0  0  0  0  0  0  0
   -5.9604    4.5976  -19.8356 S   0  0  0  0  0  0  0  0  0  0  0  0
   -7.0868    4.4971  -18.4579 C   0  0  0  0  0  0  0  0  0  0  0  0
   -8.3029    3.8718  -18.7961 C   0  0  0  0  0  0  0  0  0  0  0  0
   -9.2806    3.6604  -17.8471 C   0  0  0  0  0  0  0  0  0  0  0  0
   -9.0428    4.0783  -16.5501 C   0  0  0  0  0  0  0  0  0  0  0  0
   -7.8385    4.7282  -16.1891 C   0  0  0  0  0  0  0  0  0  0  0  0
   -6.8084    4.9502  -17.1396 C   0  0  0  0  0  0  0  0  0  0  0  0
   -2.8694    5.3038  -16.1048 H   0  0  0  0  0  0  0  0  0  0  0  0
   -4.2996    4.2097  -17.8275 H   0  0  0  0  0  0  0  0  0  0  0  0
   -3.1888    4.5121  -19.8231 H   0  0  0  0  0  0  0  0  0  0  0  0
   -2.7730    6.0906  -19.4913 H   0  0  0  0  0  0  0  0  0  0  0  0
   -7.8693    5.3081  -14.8115 C   0  0  0  0  0  0  0  0  0  0  0  0
   -7.9722    6.4573  -14.7012 O   0  0  0  0  0  0  0  0  0  0  0  0
   -7.8540    4.2096  -13.7518 N   0  0  0  0  0  0  0  0  0  0  0  0
   -7.6758    3.3054  -14.0981 H   0  0  0  0  0  0  0  0  0  0  0  0
   -8.0572    4.2800  -12.3317 C   0  0  0  0  0  0  0  0  0  0  0  0
   -7.2449    5.3625  -11.6221 C   0  0  0  0  0  0  0  0  0  0  0  0
   -7.0354    4.8531  -10.2510 N   0  0  0  0  0  0  0  0  0  0  0  0
   -8.1637    5.1803   -9.3830 C   0  0  0  0  0  0  0  0  0  0  0  0
   -6.8285    3.4036  -10.4301 C   0  0  0  0  0  0  0  0  0  0  0  0
   -5.3542    3.1325  -10.7556 C   0  0  0  0  0  0  0  0  0  0  0  0
   -5.2171    1.6364  -10.5334 C   0  0  0  0  0  0  0  0  0  0  0  0
   -6.3430    1.2223   -9.6817 N   0  0  0  0  0  0  0  0  0  0  0  0
   -7.0086    2.4535   -9.2395 C   0  0  0  0  0  0  0  0  0  0  0  0
   -7.7220    2.9869  -11.6158 C   0  0  0  0  0  0  0  0  0  0  0  0
   -6.0010    0.6983   -8.8762 H   0  0  0  0  0  0  0  0  0  0  0  0
   -3.8348    8.8013  -13.6480 C   0  0  0  0  0  0  0  0  0  0  0  0
   -4.0812    7.4498  -14.0003 O   0  0  0  0  0  0  0  0  0  0  0  0
 36 37  1  0  0  0
  1 37  1  0  0  0
  1  2  1  0  0  0
  2  3  1  0  0  0
  4  3  1  0  0  0
  4  5  1  0  0  0
  5  6  1  0  0  0
  4  7  1  0  0  0
  7  8  1  0  0  0
  8  9  1  0  0  0
  8 10  1  0  0  0
 10 11  1  0  0  0
 11 12  2  0  0  0
 12 13  1  0  0  0
 13 14  2  0  0  0
 14 15  1  0  0  0
 15 21  1  0  0  0
 21 22  2  0  0  0
 21 23  1  0  0  0
 25 23  1  0  0  0
 25 26  1  0  0  0
 26 27  1  0  0  0
 27 28  1  0  0  0
 27 29  1  0  0  0
 29 30  1  0  0  0
 30 31  1  0  0  0
 31 32  1  0  0  0
 32 33  1  0  0  0
 29 34  1  0  0  0
 15 16  2  0  0  0
  6  1  1  0  0  0
 16 11  1  0  0  0
 16  4  1  0  0  0
 34 25  1  0  0  0
 33 29  1  0  0  0
  6 17  1  0  0  0
  7 18  1  0  0  0
  9 19  1  0  0  0
  9 20  1  0  0  0
 23 24  1  0  0  0
 32 35  1  0  0  0
M  END
> <minimizedAffinity>
-7.33755

> <minimizedRMSD>
0.79646

$$$$
P9086


 33 37  0  0  0  0  0  0  0  0999 V2000
   -6.9202    4.2081  -14.1529 N   0  0  0  0  0  0  0  0  0  0  0  0
   -5.5824    4.3111  -14.0139 N   0  0  0  0  0  0  0  0  0  0  0  0
   -5.1463    4.5471  -15.2462 C   0  0  0  0  0  0  0  0  0  0  0  0
   -6.1872    4.5795  -16.1981 C   0  0  0  0  0  0  0  0  0  0  0  0
   -6.2714    4.7584  -17.5913 C   0  0  0  0  0  0  0  0  0  0  0  0
   -7.5260    4.6590  -18.2006 C   0  0  0  0  0  0  0  0  0  0  0  0
   -8.6729    4.4497  -17.4440 C   0  0  0  0  0  0  0  0  0  0  0  0
  -10.1684    4.3760  -18.2765 Cl  0  0  0  0  0  0  0  0  0  0  0  0
   -8.6232    4.3232  -16.0543 C   0  0  0  0  0  0  0  0  0  0  0  0
   -7.3519    4.3618  -15.4568 C   0  0  0  0  0  0  0  0  0  0  0  0
   -7.3672    4.4867  -10.9189 N   0  0  0  0  0  0  0  0  0  0  0  0
   -7.2705    3.2926  -11.8001 C   0  0  0  0  0  0  0  0  0  0  0  0
   -7.8097    4.1096  -12.9842 C   0  0  0  0  0  0  0  0  0  0  0  0
   -7.6154    5.3331  -12.0888 C   0  0  0  0  0  0  0  0  0  0  0  0
   -8.7483    6.1826  -11.9529 O   0  0  0  0  0  0  0  0  0  0  0  0
   -9.5167    5.6560  -11.6825 H   0  0  0  0  0  0  0  0  0  0  0  0
   -8.1394    4.6662   -8.5858 C   0  0  0  0  0  0  0  0  0  0  0  0
   -8.5271    4.3912  -10.0271 C   0  0  0  0  0  0  0  0  0  0  0  0
   -5.0291    5.0255  -18.3611 C   0  0  0  0  0  0  0  0  0  0  0  0
   -3.9816    5.2497  -17.7613 O   0  0  0  0  0  0  0  0  0  0  0  0
   -5.0994    5.0402  -19.8697 C   0  0  0  0  0  0  0  0  0  0  0  0
   -3.9109    5.7394  -20.5510 C   0  0  0  0  0  0  0  0  0  0  0  0
   -4.0934    5.7567  -22.0815 C   0  0  0  0  0  0  0  0  0  0  0  0
   -4.8839    6.9233  -22.6636 C   0  0  0  0  0  0  0  0  0  0  0  0
   -5.1991    8.0020  -21.9067 C   0  0  0  0  0  0  0  0  0  0  0  0
   -5.8917    9.1245  -22.3379 O   0  0  0  0  0  0  0  0  0  0  0  0
   -5.5405    9.7280  -23.5178 C   0  0  0  0  0  0  0  0  0  0  0  0
   -5.6217    9.1422  -24.7146 C   0  0  0  0  0  0  0  0  0  0  0  0
   -6.1070    7.7382  -24.8459 C   0  0  0  0  0  0  0  0  0  0  0  0
   -5.2128    6.7235  -24.1344 C   0  0  0  0  0  0  0  0  0  0  0  0
   -4.7949    8.1275  -20.4584 C   0  0  0  0  0  0  0  0  0  0  0  0
   -5.8771    7.9318  -19.6476 F   0  0  0  0  0  0  0  0  0  0  0  0
   -3.6782    7.1716  -20.0528 C   0  0  0  0  0  0  0  0  0  0  0  0
 17 18  1  0  0  0
 18 11  1  0  0  0
 11 12  1  0  0  0
 12 13  1  0  0  0
 13  1  1  0  0  0
  1  2  1  0  0  0
  2  3  2  0  0  0
  3  4  1  0  0  0
  4  5  2  0  0  0
  5 19  1  0  0  0
 19 20  2  0  0  0
 19 21  1  0  0  0
 22 21  1  0  0  0
 22 23  1  0  0  0
 23 24  1  0  0  0
 24 25  2  0  0  0
 25 26  1  0  0  0
 26 27  1  0  0  0
 27 28  2  0  0  0
 28 29  1  0  0  0
 29 30  1  0  0  0
 25 31  1  0  0  0
 31 32  1  0  0  0
 31 33  1  0  0  0
  5  6  1  0  0  0
  6  7  2  0  0  0
  7  8  1  0  0  0
  7  9  1  0  0  0
  9 10  2  0  0  0
 13 14  1  0  0  0
 14 15  1  0  0  0
 14 11  1  0  0  0
 10  1  1  0  0  0
 10  4  1  0  0  0
 33 22  1  0  0  0
 30 24  1  0  0  0
 15 16  1  0  0  0
M  END
> <minimizedAffinity>
-8.03983

> <minimizedRMSD>
0.54053

$$$$
P9091


 34 37  0  0  0  0  0  0  0  0999 V2000
   -5.0599    5.0509  -18.0369 C   0  0  0  0  0  0  0  0  0  0  0  0
   -4.1088    5.3338  -17.3031 O   0  0  0  0  0  0  0  0  0  0  0  0
   -6.3907    4.7826  -17.4077 C   0  0  0  0  0  0  0  0  0  0  0  0
   -7.5771    4.6088  -18.1318 C   0  0  0  0  0  0  0  0  0  0  0  0
   -8.7877    4.3930  -17.4740 C   0  0  0  0  0  0  0  0  0  0  0  0
  -10.2319    4.2855  -18.3956 Cl  0  0  0  0  0  0  0  0  0  0  0  0
   -8.8701    4.3032  -16.0840 C   0  0  0  0  0  0  0  0  0  0  0  0
   -7.6881    4.4829  -15.3583 C   0  0  0  0  0  0  0  0  0  0  0  0
   -6.4664    4.7261  -15.9920 C   0  0  0  0  0  0  0  0  0  0  0  0
   -5.5507    4.8617  -14.9245 C   0  0  0  0  0  0  0  0  0  0  0  0
   -6.1171    4.7321  -13.7309 N   0  0  0  0  0  0  0  0  0  0  0  0
   -7.4115    4.4798  -14.0026 N   0  0  0  0  0  0  0  0  0  0  0  0
   -8.4316    4.3336  -12.9402 C   0  0  0  0  0  0  0  0  0  0  0  0
   -8.2502    5.3774  -11.8223 C   0  0  0  0  0  0  0  0  0  0  0  0
   -7.6209    4.3557  -10.9765 N   0  0  0  0  0  0  0  0  0  0  0  0
   -8.2152    4.3111   -9.6487 C   0  0  0  0  0  0  0  0  0  0  0  0
   -8.0902    3.2768  -11.8674 C   0  0  0  0  0  0  0  0  0  0  0  0
   -9.2101    2.5444  -11.3422 O   0  0  0  0  0  0  0  0  0  0  0  0
   -9.8974    3.1661  -11.0559 H   0  0  0  0  0  0  0  0  0  0  0  0
   -4.8429    5.0219  -19.5437 C   0  0  0  0  0  0  0  0  0  0  0  0
   -3.6506    7.9552  -21.7397 C   0  0  0  0  0  0  0  0  0  0  0  0
   -3.8758    6.6417  -21.2612 C   0  0  0  0  0  0  0  0  0  0  0  0
   -4.6821    6.4070  -20.1376 C   0  0  0  0  0  0  0  0  0  0  0  0
   -5.3417    7.4929  -19.5570 C   0  0  0  0  0  0  0  0  0  0  0  0
   -5.1555    8.7949  -20.0251 C   0  0  0  0  0  0  0  0  0  0  0  0
   -4.2855    9.0300  -21.0920 C   0  0  0  0  0  0  0  0  0  0  0  0
   -4.0058   10.2970  -21.5339 O   0  0  0  0  0  0  0  0  0  0  0  0
   -4.4114   11.0361  -21.1249 H   0  0  0  0  0  0  0  0  0  0  0  0
   -5.8943    9.8414  -19.3882 C   0  0  0  0  0  0  0  0  0  0  0  0
   -6.5519   10.6528  -18.8821 N   0  0  0  0  0  0  0  0  0  0  0  0
   -2.6771    8.1858  -22.8854 C   0  0  0  0  0  0  0  0  0  0  0  0
   -2.8466    6.5693  -24.7176 C   0  0  0  0  0  0  0  0  0  0  0  0
   -3.1400    7.9142  -24.2539 N   0  0  0  0  0  0  0  0  0  0  0  0
   -4.5372    8.2601  -24.4806 C   0  0  0  0  0  0  0  0  0  0  0  0
 32 33  1  0  0  0
 33 34  1  0  0  0
 33 31  1  0  0  0
 31 21  1  0  0  0
 21 22  2  0  0  0
 22 23  1  0  0  0
 23 20  1  0  0  0
 20  1  1  0  0  0
  1  2  2  0  0  0
  1  3  1  0  0  0
  3  4  2  0  0  0
  4  5  1  0  0  0
  5  6  1  0  0  0
  5  7  2  0  0  0
  7  8  1  0  0  0
  8  9  2  0  0  0
  9 10  1  0  0  0
 10 11  2  0  0  0
 11 12  1  0  0  0
 13 12  1  0  0  0
 13 14  1  0  0  0
 14 15  1  0  0  0
 15 16  1  0  0  0
 15 17  1  0  0  0
 17 18  1  0  0  0
 23 24  2  0  0  0
 24 25  1  0  0  0
 25 29  1  0  0  0
 29 30  3  0  0  0
 25 26  2  0  0  0
 26 27  1  0  0  0
 26 21  1  0  0  0
  9  3  1  0  0  0
 17 13  1  0  0  0
 12  8  1  0  0  0
 18 19  1  0  0  0
 27 28  1  0  0  0
M  END
> <minimizedAffinity>
-7.35413

> <minimizedRMSD>
0.95062

$$$$
P9115


 40 42  0  0  0  0  0  0  0  0999 V2000
   -7.4312    3.8737  -13.0607 C   0  0  0  0  0  0  0  0  0  0  0  0
   -5.9892    3.8942  -13.1090 N   0  0  0  0  0  0  0  0  0  0  0  0
   -7.7338    2.5717  -13.4894 O   0  0  0  0  0  0  0  0  0  0  0  0
   -5.6175    3.1946  -12.4665 H   0  0  0  0  0  0  0  0  0  0  0  0
   -5.6530    4.8181  -12.8372 H   0  0  0  0  0  0  0  0  0  0  0  0
   -7.2445    1.9315  -12.9494 H   0  0  0  0  0  0  0  0  0  0  0  0
   -7.3070    7.1404   -9.2997 N   0  0  0  0  0  0  0  0  0  0  0  0
   -6.2142    6.8137   -8.3829 C   0  0  0  0  0  0  0  0  0  0  0  0
   -6.2855    5.2886   -8.2370 C   0  0  0  0  0  0  0  0  0  0  0  0
   -7.4334    4.8271   -9.1695 C   0  0  0  0  0  0  0  0  0  0  0  0
   -6.8668    4.5312  -10.5837 C   0  0  0  0  0  0  0  0  0  0  0  0
   -7.9408    4.0088  -11.5740 C   0  0  0  0  0  0  0  0  0  0  0  0
   -8.5203    2.7079  -10.9990 C   0  0  0  0  0  0  0  0  0  0  0  0
   -9.1032    2.9265   -9.6164 C   0  0  0  0  0  0  0  0  0  0  0  0
   -8.1155    3.5495   -8.6404 C   0  0  0  0  0  0  0  0  0  0  0  0
   -8.8184    3.8054   -7.4263 O   0  0  0  0  0  0  0  0  0  0  0  0
   -8.3154    6.0847   -9.1555 C   0  0  0  0  0  0  0  0  0  0  0  0
   -9.5398    4.4312   -7.5962 H   0  0  0  0  0  0  0  0  0  0  0  0
   -8.1296    8.9429   -7.8712 C   0  0  0  0  0  0  0  0  0  0  0  0
   -7.7584    8.5020   -9.2143 N   0  0  0  0  0  0  0  0  0  0  0  0
   -7.0086    9.1064   -9.5504 H   0  0  0  0  0  0  0  0  0  0  0  0
   -8.1974    4.8048  -13.9102 N   0  0  0  0  0  0  0  0  0  0  0  0
   -8.0106    6.2170  -13.5472 C   0  0  0  0  0  0  0  0  0  0  0  0
   -8.0426    4.6223  -15.3045 C   0  0  0  0  0  0  0  0  0  0  0  0
   -9.1675    4.3412  -16.0814 C   0  0  0  0  0  0  0  0  0  0  0  0
   -9.0767    4.2915  -17.4692 C   0  0  0  0  0  0  0  0  0  0  0  0
  -10.5031    4.0858  -18.4006 Cl  0  0  0  0  0  0  0  0  0  0  0  0
   -7.8609    4.5017  -18.1146 C   0  0  0  0  0  0  0  0  0  0  0  0
   -6.7173    4.7679  -17.3606 C   0  0  0  0  0  0  0  0  0  0  0  0
   -6.8198    4.8070  -15.9617 C   0  0  0  0  0  0  0  0  0  0  0  0
   -5.3941    5.1680  -17.9490 C   0  0  0  0  0  0  0  0  0  0  0  0
   -4.5891    5.5627  -17.2051 O   0  0  0  0  0  0  0  0  0  0  0  0
   -5.3393    4.9921  -19.4757 N   0  0  0  0  0  0  0  0  0  0  0  0
   -6.1328    4.5627  -19.8698 H   0  0  0  0  0  0  0  0  0  0  0  0
   -4.3016    5.3583  -20.4365 C   0  0  0  0  0  0  0  0  0  0  0  0
   -4.7008    4.8640  -21.8280 C   0  0  0  0  0  0  0  0  0  0  0  0
   -2.9793    4.7078  -20.0198 C   0  0  0  0  0  0  0  0  0  0  0  0
   -4.1383    6.8999  -20.4580 C   0  0  0  0  0  0  0  0  0  0  0  0
   -5.3996    7.5485  -20.6457 O   0  0  0  0  0  0  0  0  0  0  0  0
   -5.7807    7.2749  -21.4947 H   0  0  0  0  0  0  0  0  0  0  0  0
 19 20  1  0  0  0
 20  7  1  0  0  0
  7  8  1  0  0  0
  8  9  1  0  0  0
 10  9  1  0  0  0
 10 11  1  0  0  0
 12 11  1  0  0  0
 12  1  1  0  0  0
  1  2  1  0  0  0
  1  3  1  0  0  0
  1 22  1  0  0  0
 22 23  1  0  0  0
 22 24  1  0  0  0
 24 25  2  0  0  0
 25 26  1  0  0  0
 26 27  1  0  0  0
 26 28  2  0  0  0
 28 29  1  0  0  0
 29 31  1  0  0  0
 31 32  2  0  0  0
 31 33  1  0  0  0
 33 35  1  0  0  0
 35 36  1  0  0  0
 35 37  1  0  0  0
 35 38  1  0  0  0
 38 39  1  0  0  0
 29 30  2  0  0  0
 12 13  1  0  0  0
 13 14  1  0  0  0
 14 15  1  0  0  0
 15 16  1  0  0  0
 10 17  1  0  0  0
 17  7  1  0  0  0
 15 10  1  0  0  0
 30 24  1  0  0  0
 20 21  1  0  0  0
  2  4  1  0  0  0
  2  5  1  0  0  0
  3  6  1  0  0  0
 33 34  1  0  0  0
 39 40  1  0  0  0
 16 18  1  0  0  0
M  END
> <minimizedAffinity>
-7.85803

> <minimizedRMSD>
0.62467

$$$$
P9142


 34 36  0  0  0  0  0  0  0  0999 V2000
   -7.7916    4.7016  -15.8311 C   0  0  0  0  0  0  0  0  0  0  0  0
   -9.0682    4.4693  -16.3526 C   0  0  0  0  0  0  0  0  0  0  0  0
   -9.2176    4.3039  -17.7225 C   0  0  0  0  0  0  0  0  0  0  0  0
  -10.7795    4.1352  -18.4161 Cl  0  0  0  0  0  0  0  0  0  0  0  0
   -8.1144    4.3714  -18.5626 C   0  0  0  0  0  0  0  0  0  0  0  0
   -6.8452    4.5938  -18.0649 C   0  0  0  0  0  0  0  0  0  0  0  0
   -5.8516    4.7166  -18.9555 N   0  0  0  0  0  0  0  0  0  0  0  0
   -4.6076    4.9593  -18.5360 C   0  0  0  0  0  0  0  0  0  0  0  0
   -4.3073    5.0024  -17.1776 C   0  0  0  0  0  0  0  0  0  0  0  0
   -3.0296    5.2456  -16.7546 O   0  0  0  0  0  0  0  0  0  0  0  0
   -5.3213    4.8925  -16.2414 C   0  0  0  0  0  0  0  0  0  0  0  0
   -6.6523    4.7247  -16.6758 C   0  0  0  0  0  0  0  0  0  0  0  0
   -2.3357    5.3219  -17.3796 H   0  0  0  0  0  0  0  0  0  0  0  0
   -8.1789    4.0364  -13.4507 N   0  0  0  0  0  0  0  0  0  0  0  0
   -7.6797    5.1307  -14.4095 C   0  0  0  0  0  0  0  0  0  0  0  0
   -7.2366    6.1855  -14.1872 O   0  0  0  0  0  0  0  0  0  0  0  0
   -8.4391    3.1933  -13.8874 H   0  0  0  0  0  0  0  0  0  0  0  0
   -8.7603    3.3979  -10.0403 N   0  0  0  0  0  0  0  0  0  0  0  0
   -8.6607    2.9606  -11.3382 C   0  0  0  0  0  0  0  0  0  0  0  0
   -8.3195    4.0438  -12.0955 C   0  0  0  0  0  0  0  0  0  0  0  0
   -8.1928    5.1003  -11.1739 C   0  0  0  0  0  0  0  0  0  0  0  0
   -8.4765    4.7253   -9.9210 N   0  0  0  0  0  0  0  0  0  0  0  0
   -9.3258    2.5942   -8.9487 C   0  0  0  0  0  0  0  0  0  0  0  0
   -8.2554    2.9687   -6.7713 C   0  0  0  0  0  0  0  0  0  0  0  0
   -8.3682    2.1258   -7.9521 N   0  0  0  0  0  0  0  0  0  0  0  0
   -7.0759    1.8738   -8.5515 C   0  0  0  0  0  0  0  0  0  0  0  0
   -3.5653    5.1699  -19.4554 N   0  0  0  0  0  0  0  0  0  0  0  0
   -2.6777    4.7706  -19.3073 H   0  0  0  0  0  0  0  0  0  0  0  0
   -3.8288    6.0075  -20.6569 C   0  0  0  0  0  0  0  0  0  0  0  0
   -4.7103    7.2207  -20.3070 C   0  0  0  0  0  0  0  0  0  0  0  0
   -2.4424    6.5588  -21.0693 C   0  0  0  0  0  0  0  0  0  0  0  0
   -4.4388    5.2009  -21.8404 C   0  0  0  0  0  0  0  0  0  0  0  0
   -5.3307    5.9614  -22.6632 O   0  0  0  0  0  0  0  0  0  0  0  0
   -6.0881    6.2553  -22.1332 H   0  0  0  0  0  0  0  0  0  0  0  0
 24 25  1  0  0  0
 25 26  1  0  0  0
 25 23  1  0  0  0
 23 18  1  0  0  0
 18 19  1  0  0  0
 19 20  2  0  0  0
 20 14  1  0  0  0
 14 15  1  0  0  0
 15 16  2  0  0  0
 15  1  1  0  0  0
  1  2  2  0  0  0
  2  3  1  0  0  0
  3  4  1  0  0  0
  3  5  2  0  0  0
  5  6  1  0  0  0
  6  7  2  0  0  0
  7  8  1  0  0  0
  8 27  1  0  0  0
 27 29  1  0  0  0
 29 30  1  0  0  0
 29 31  1  0  0  0
 29 32  1  0  0  0
 32 33  1  0  0  0
  8  9  2  0  0  0
  9 10  1  0  0  0
  9 11  1  0  0  0
 11 12  2  0  0  0
 20 21  1  0  0  0
 21 22  2  0  0  0
 22 18  1  0  0  0
 12  1  1  0  0  0
 12  6  1  0  0  0
 14 17  1  0  0  0
 27 28  1  0  0  0
 33 34  1  0  0  0
 10 13  1  0  0  0
M  END
> <minimizedAffinity>
-7.99651

> <minimizedRMSD>
0.72950

$$$$
P9212


 25 27  0  0  0  0  0  0  0  0999 V2000
   -4.2600    4.9841  -18.5421 C   0  0  0  0  0  0  0  0  0  0  0  0
   -3.8895    4.8999  -17.2082 C   0  0  0  0  0  0  0  0  0  0  0  0
   -4.8824    4.7177  -16.2527 C   0  0  0  0  0  0  0  0  0  0  0  0
   -6.2343    4.6307  -16.6349 C   0  0  0  0  0  0  0  0  0  0  0  0
   -7.3154    4.6049  -15.7179 C   0  0  0  0  0  0  0  0  0  0  0  0
   -8.6319    4.5309  -16.1593 C   0  0  0  0  0  0  0  0  0  0  0  0
   -8.8747    4.5205  -17.5203 C   0  0  0  0  0  0  0  0  0  0  0  0
  -10.4959    4.6501  -18.0466 Cl  0  0  0  0  0  0  0  0  0  0  0  0
   -7.8272    4.5526  -18.4380 C   0  0  0  0  0  0  0  0  0  0  0  0
   -6.5064    4.6238  -18.0200 C   0  0  0  0  0  0  0  0  0  0  0  0
   -5.5398    4.7819  -18.9469 N   0  0  0  0  0  0  0  0  0  0  0  0
   -7.1245    4.9502  -14.2870 C   0  0  0  0  0  0  0  0  0  0  0  0
   -6.4163    5.8408  -14.0303 O   0  0  0  0  0  0  0  0  0  0  0  0
   -7.9920    4.0678  -13.3697 N   0  0  0  0  0  0  0  0  0  0  0  0
   -8.4477    3.3233  -13.8248 H   0  0  0  0  0  0  0  0  0  0  0  0
   -8.2313    4.1500  -12.0305 C   0  0  0  0  0  0  0  0  0  0  0  0
   -8.3034    5.2897  -11.2020 C   0  0  0  0  0  0  0  0  0  0  0  0
   -8.5182    4.9722   -9.9190 N   0  0  0  0  0  0  0  0  0  0  0  0
   -8.5658    3.6224   -9.9413 N   0  0  0  0  0  0  0  0  0  0  0  0
   -8.6605    2.8810   -8.7085 C   0  0  0  0  0  0  0  0  0  0  0  0
   -8.4433    3.0887  -11.1928 C   0  0  0  0  0  0  0  0  0  0  0  0
   -3.2662    5.5186  -19.5662 C   0  0  0  0  0  0  0  0  0  0  0  0
   -1.5540    3.8418  -19.8841 C   0  0  0  0  0  0  0  0  0  0  0  0
   -2.6841    4.5299  -20.4770 N   0  0  0  0  0  0  0  0  0  0  0  0
   -3.3987    3.8428  -20.7169 H   0  0  0  0  0  0  0  0  0  0  0  0
 23 24  1  0  0  0
 24 22  1  0  0  0
 22  1  1  0  0  0
  1  2  2  0  0  0
  2  3  1  0  0  0
  3  4  2  0  0  0
  4  5  1  0  0  0
  5 12  1  0  0  0
 12 13  2  0  0  0
 12 14  1  0  0  0
 14 16  1  0  0  0
 16 17  1  0  0  0
 17 18  2  0  0  0
 18 19  1  0  0  0
 19 20  1  0  0  0
 19 21  1  0  0  0
  5  6  2  0  0  0
  6  7  1  0  0  0
  7  8  1  0  0  0
  7  9  2  0  0  0
  9 10  1  0  0  0
 10 11  2  0  0  0
 11  1  1  0  0  0
 10  4  1  0  0  0
 21 16  2  0  0  0
 24 25  1  0  0  0
 14 15  1  0  0  0
M  END
> <minimizedAffinity>
-7.77207

> <minimizedRMSD>
0.66660

$$$$
P9217


 26 28  0  0  0  0  0  0  0  0999 V2000
   -4.2655    4.7829  -18.5746 C   0  0  0  0  0  0  0  0  0  0  0  0
   -3.8662    4.8550  -17.2483 C   0  0  0  0  0  0  0  0  0  0  0  0
   -4.8402    4.8219  -16.2602 C   0  0  0  0  0  0  0  0  0  0  0  0
   -6.1999    4.7302  -16.6099 C   0  0  0  0  0  0  0  0  0  0  0  0
   -7.2575    4.7626  -15.6772 C   0  0  0  0  0  0  0  0  0  0  0  0
   -8.5817    4.6618  -16.0835 C   0  0  0  0  0  0  0  0  0  0  0  0
   -8.8581    4.5706  -17.4317 C   0  0  0  0  0  0  0  0  0  0  0  0
  -10.4935    4.6127  -17.9028 Cl  0  0  0  0  0  0  0  0  0  0  0  0
   -7.8367    4.5532  -18.3736 C   0  0  0  0  0  0  0  0  0  0  0  0
   -6.5094    4.6267  -17.9819 C   0  0  0  0  0  0  0  0  0  0  0  0
   -5.5634    4.6503  -18.9322 N   0  0  0  0  0  0  0  0  0  0  0  0
   -7.0463    5.0947  -14.2537 C   0  0  0  0  0  0  0  0  0  0  0  0
   -6.3437    5.9838  -13.9776 O   0  0  0  0  0  0  0  0  0  0  0  0
   -7.9098    4.1884  -13.3564 N   0  0  0  0  0  0  0  0  0  0  0  0
   -8.3605    3.4509  -13.8277 H   0  0  0  0  0  0  0  0  0  0  0  0
   -8.1507    4.2410  -12.0217 C   0  0  0  0  0  0  0  0  0  0  0  0
   -8.1444    5.3788  -11.1907 C   0  0  0  0  0  0  0  0  0  0  0  0
   -8.4258    4.9568   -9.9050 C   0  0  0  0  0  0  0  0  0  0  0  0
   -8.5243    5.7499   -8.6608 C   0  0  0  0  0  0  0  0  0  0  0  0
   -8.5758    3.5873   -9.9510 N   0  0  0  0  0  0  0  0  0  0  0  0
   -8.7756    2.6942   -8.8312 C   0  0  0  0  0  0  0  0  0  0  0  0
   -8.4581    3.1540  -11.2472 C   0  0  0  0  0  0  0  0  0  0  0  0
   -3.2708    4.9736  -19.6983 C   0  0  0  0  0  0  0  0  0  0  0  0
   -0.8732    4.9109  -19.5195 C   0  0  0  0  0  0  0  0  0  0  0  0
   -2.0876    4.1128  -19.5824 N   0  0  0  0  0  0  0  0  0  0  0  0
   -2.1637    3.5520  -18.7338 H   0  0  0  0  0  0  0  0  0  0  0  0
 24 25  1  0  0  0
 25 23  1  0  0  0
 23  1  1  0  0  0
  1  2  2  0  0  0
  2  3  1  0  0  0
  3  4  2  0  0  0
  4  5  1  0  0  0
  5 12  1  0  0  0
 12 13  2  0  0  0
 12 14  1  0  0  0
 14 16  1  0  0  0
 16 17  1  0  0  0
 17 18  2  0  0  0
 18 19  1  0  0  0
 18 20  1  0  0  0
 20 21  1  0  0  0
 20 22  1  0  0  0
  5  6  2  0  0  0
  6  7  1  0  0  0
  7  8  1  0  0  0
  7  9  2  0  0  0
  9 10  1  0  0  0
 10 11  2  0  0  0
 11  1  1  0  0  0
 10  4  1  0  0  0
 22 16  2  0  0  0
 25 26  1  0  0  0
 14 15  1  0  0  0
M  END
> <minimizedAffinity>
-7.62580

> <minimizedRMSD>
0.76622

$$$$
P9223


 36 40  0  0  0  0  0  0  0  0999 V2000
   -8.5103    5.1397  -13.4751 N   0  0  0  0  0  0  0  0  0  0  0  0
   -7.6096    5.5947  -14.6406 C   0  0  0  0  0  0  0  0  0  0  0  0
   -6.7869    6.4213  -14.6826 O   0  0  0  0  0  0  0  0  0  0  0  0
   -9.0787    4.3608  -13.6736 H   0  0  0  0  0  0  0  0  0  0  0  0
   -7.7884    4.7975  -15.8698 C   0  0  0  0  0  0  0  0  0  0  0  0
   -9.1094    4.5309  -16.2370 C   0  0  0  0  0  0  0  0  0  0  0  0
   -9.4004    4.2739  -17.5648 C   0  0  0  0  0  0  0  0  0  0  0  0
   -8.3729    4.3219  -18.5054 C   0  0  0  0  0  0  0  0  0  0  0  0
   -7.0456    4.5358  -18.1493 C   0  0  0  0  0  0  0  0  0  0  0  0
   -6.1414    4.5867  -19.1378 N   0  0  0  0  0  0  0  0  0  0  0  0
   -4.8518    4.8070  -18.8249 C   0  0  0  0  0  0  0  0  0  0  0  0
   -4.3747    4.9344  -17.5332 C   0  0  0  0  0  0  0  0  0  0  0  0
   -5.3056    4.8411  -16.4904 C   0  0  0  0  0  0  0  0  0  0  0  0
   -6.7038    4.7172  -16.7928 C   0  0  0  0  0  0  0  0  0  0  0  0
   -4.7641    4.8738  -15.0737 C   0  0  0  0  0  0  0  0  0  0  0  0
   -3.2724    4.5296  -15.0006 C   0  0  0  0  0  0  0  0  0  0  0  0
   -2.5173    5.3858  -15.9148 N   0  0  0  0  0  0  0  0  0  0  0  0
   -2.8990    5.1019  -17.2999 C   0  0  0  0  0  0  0  0  0  0  0  0
   -1.5198    5.2087  -15.7965 H   0  0  0  0  0  0  0  0  0  0  0  0
   -8.8528    6.9950  -11.8129 C   0  0  0  0  0  0  0  0  0  0  0  0
   -8.7856    7.3768  -10.4673 C   0  0  0  0  0  0  0  0  0  0  0  0
   -8.5653    6.4263   -9.4785 C   0  0  0  0  0  0  0  0  0  0  0  0
   -8.4588    5.0662   -9.7844 C   0  0  0  0  0  0  0  0  0  0  0  0
   -8.5086    4.7088  -11.1440 C   0  0  0  0  0  0  0  0  0  0  0  0
   -8.6522    5.6554  -12.1759 C   0  0  0  0  0  0  0  0  0  0  0  0
   -8.3831    4.1370   -8.7619 N   0  0  0  0  0  0  0  0  0  0  0  0
   -8.7919    2.7364   -8.9868 C   0  0  0  0  0  0  0  0  0  0  0  0
   -8.7335    1.8889   -7.6935 C   0  0  0  0  0  0  0  0  0  0  0  0
   -8.9409    2.6246   -6.4369 N   0  0  0  0  0  0  0  0  0  0  0  0
   -8.0045    3.7551   -6.3394 C   0  0  0  0  0  0  0  0  0  0  0  0
   -7.4405    4.3326   -7.6609 C   0  0  0  0  0  0  0  0  0  0  0  0
   -8.7883    1.9939   -5.6499 H   0  0  0  0  0  0  0  0  0  0  0  0
   -8.0788    9.1552  -13.4249 C   0  0  0  0  0  0  0  0  0  0  0  0
   -9.5147    8.2345  -12.9030 S   0  0  0  0  0  0  0  0  0  0  0  0
  -10.3043    9.1548  -12.0980 O   0  0  0  0  0  0  0  0  0  0  0  0
  -10.1895    7.5554  -13.9918 O   0  0  0  0  0  0  0  0  0  0  0  0
 33 34  1  0  0  0
 34 35  2  0  0  0
 34 36  2  0  0  0
 34 20  1  0  0  0
 20 21  2  0  0  0
 21 22  1  0  0  0
 22 23  2  0  0  0
 23 26  1  0  0  0
 26 27  1  0  0  0
 27 28  1  0  0  0
 28 29  1  0  0  0
 29 30  1  0  0  0
 30 31  1  0  0  0
 23 24  1  0  0  0
 24 25  2  0  0  0
 25  1  1  0  0  0
  1  2  1  0  0  0
  2  3  2  0  0  0
  2  5  1  0  0  0
  5  6  2  0  0  0
  6  7  1  0  0  0
  7  8  2  0  0  0
  8  9  1  0  0  0
  9 10  2  0  0  0
 10 11  1  0  0  0
 11 12  2  0  0  0
 12 13  1  0  0  0
 13 14  2  0  0  0
 13 15  1  0  0  0
 15 16  1  0  0  0
 16 17  1  0  0  0
 17 18  1  0  0  0
 25 20  1  0  0  0
 14  5  1  0  0  0
 31 26  1  0  0  0
 14  9  1  0  0  0
 18 12  1  0  0  0
 29 32  1  0  0  0
  1  4  1  0  0  0
 17 19  1  0  0  0
M  END
> <minimizedAffinity>
-8.79454

> <minimizedRMSD>
0.73714

$$$$
P9224


 34 37  0  0  0  0  0  0  0  0999 V2000
   -8.6298    6.8133  -11.6352 C   0  0  0  0  0  0  0  0  0  0  0  0
   -8.7015    7.2263  -10.3021 C   0  0  0  0  0  0  0  0  0  0  0  0
   -8.6535    6.2856   -9.2822 C   0  0  0  0  0  0  0  0  0  0  0  0
   -8.5862    4.9127   -9.5522 C   0  0  0  0  0  0  0  0  0  0  0  0
   -8.5091    4.5219  -10.9023 C   0  0  0  0  0  0  0  0  0  0  0  0
   -8.4675    5.4553  -11.9494 C   0  0  0  0  0  0  0  0  0  0  0  0
   -8.6663    4.0105   -8.5040 N   0  0  0  0  0  0  0  0  0  0  0  0
   -9.0655    2.6109   -8.7488 C   0  0  0  0  0  0  0  0  0  0  0  0
   -9.1439    1.7823   -7.4445 C   0  0  0  0  0  0  0  0  0  0  0  0
   -9.4739    2.5361   -6.2264 N   0  0  0  0  0  0  0  0  0  0  0  0
   -8.5453    3.6626   -6.0484 C   0  0  0  0  0  0  0  0  0  0  0  0
   -7.8421    4.2152   -7.3121 C   0  0  0  0  0  0  0  0  0  0  0  0
   -9.4069    1.9156   -5.4195 H   0  0  0  0  0  0  0  0  0  0  0  0
   -7.6025    8.6962  -13.4518 C   0  0  0  0  0  0  0  0  0  0  0  0
   -9.1310    8.0332  -12.8292 S   0  0  0  0  0  0  0  0  0  0  0  0
   -9.7812    9.1172  -12.1081 O   0  0  0  0  0  0  0  0  0  0  0  0
   -9.8920    7.3578  -13.8620 O   0  0  0  0  0  0  0  0  0  0  0  0
   -8.2622    4.9441  -13.2383 N   0  0  0  0  0  0  0  0  0  0  0  0
   -7.0547    5.0893  -14.1974 C   0  0  0  0  0  0  0  0  0  0  0  0
   -6.0127    5.5926  -14.0325 O   0  0  0  0  0  0  0  0  0  0  0  0
   -9.0066    4.4051  -13.5913 H   0  0  0  0  0  0  0  0  0  0  0  0
   -7.3378    4.5800  -15.5737 C   0  0  0  0  0  0  0  0  0  0  0  0
   -8.6829    4.3682  -15.8958 C   0  0  0  0  0  0  0  0  0  0  0  0
   -9.0756    4.2252  -17.2165 C   0  0  0  0  0  0  0  0  0  0  0  0
   -8.1264    4.3408  -18.2246 C   0  0  0  0  0  0  0  0  0  0  0  0
   -6.7576    4.5524  -17.9428 C   0  0  0  0  0  0  0  0  0  0  0  0
   -5.8005    4.7234  -18.9769 C   0  0  0  0  0  0  0  0  0  0  0  0
   -6.1825    4.7115  -20.3271 N   0  0  0  0  0  0  0  0  0  0  0  0
   -4.4382    4.7677  -18.6620 C   0  0  0  0  0  0  0  0  0  0  0  0
   -4.0155    4.7725  -17.3389 C   0  0  0  0  0  0  0  0  0  0  0  0
   -4.9584    4.7246  -16.3156 C   0  0  0  0  0  0  0  0  0  0  0  0
   -6.3426    4.6162  -16.5868 C   0  0  0  0  0  0  0  0  0  0  0  0
   -7.1364    4.6805  -20.5686 H   0  0  0  0  0  0  0  0  0  0  0  0
   -5.4965    4.7341  -21.0330 H   0  0  0  0  0  0  0  0  0  0  0  0
 14 15  1  0  0  0
 15 16  2  0  0  0
 15 17  2  0  0  0
 15  1  1  0  0  0
  1  2  2  0  0  0
  2  3  1  0  0  0
  3  4  2  0  0  0
  4  7  1  0  0  0
  7  8  1  0  0  0
  8  9  1  0  0  0
  9 10  1  0  0  0
 10 11  1  0  0  0
 11 12  1  0  0  0
  4  5  1  0  0  0
  5  6  2  0  0  0
  6 18  1  0  0  0
 18 19  1  0  0  0
 19 20  2  0  0  0
 19 22  1  0  0  0
 22 23  2  0  0  0
 23 24  1  0  0  0
 24 25  2  0  0  0
 25 26  1  0  0  0
 26 27  2  0  0  0
 27 28  1  0  0  0
 27 29  1  0  0  0
 29 30  2  0  0  0
 30 31  1  0  0  0
 31 32  2  0  0  0
  6  1  1  0  0  0
 32 22  1  0  0  0
 12  7  1  0  0  0
 32 26  1  0  0  0
 10 13  1  0  0  0
 18 21  1  0  0  0
 28 33  1  0  0  0
 28 34  1  0  0  0
M  END
> <minimizedAffinity>
-9.65483

> <minimizedRMSD>
0.43352

$$$$
P9225


 35 38  0  0  0  0  0  0  0  0999 V2000
   -6.8476    5.1976  -13.7953 C   0  0  0  0  0  0  0  0  0  0  0  0
   -5.7863    5.6456  -13.6078 O   0  0  0  0  0  0  0  0  0  0  0  0
   -8.0822    5.1222  -12.8666 N   0  0  0  0  0  0  0  0  0  0  0  0
   -8.8451    4.6207  -13.2350 H   0  0  0  0  0  0  0  0  0  0  0  0
   -8.1607    4.3831  -17.7126 C   0  0  0  0  0  0  0  0  0  0  0  0
   -9.0247    4.2955  -16.6187 C   0  0  0  0  0  0  0  0  0  0  0  0
   -8.5462    4.4924  -15.3557 C   0  0  0  0  0  0  0  0  0  0  0  0
   -7.1792    4.6826  -15.1500 C   0  0  0  0  0  0  0  0  0  0  0  0
   -6.2699    4.6821  -16.2389 C   0  0  0  0  0  0  0  0  0  0  0  0
   -4.8708    4.8377  -16.1083 C   0  0  0  0  0  0  0  0  0  0  0  0
   -4.0554    4.8969  -17.2323 C   0  0  0  0  0  0  0  0  0  0  0  0
   -4.6722    4.8150  -18.4542 C   0  0  0  0  0  0  0  0  0  0  0  0
   -3.9640    4.9373  -19.6069 O   0  0  0  0  0  0  0  0  0  0  0  0
   -5.9838    4.6465  -18.6407 N   0  0  0  0  0  0  0  0  0  0  0  0
   -6.7811    4.5574  -17.5532 C   0  0  0  0  0  0  0  0  0  0  0  0
   -3.0355    5.0590  -19.5757 H   0  0  0  0  0  0  0  0  0  0  0  0
  -10.3041    4.5842  -18.8546 C   0  0  0  0  0  0  0  0  0  0  0  0
   -8.8249    4.3884  -19.0597 C   0  0  0  0  0  0  0  0  0  0  0  0
   -8.2894    5.6460  -11.5995 C   0  0  0  0  0  0  0  0  0  0  0  0
   -8.3179    4.7081  -10.5611 C   0  0  0  0  0  0  0  0  0  0  0  0
   -8.5175    5.0779   -9.2267 C   0  0  0  0  0  0  0  0  0  0  0  0
   -8.6981    6.4442   -8.9695 C   0  0  0  0  0  0  0  0  0  0  0  0
   -8.7621    7.3857   -9.9981 C   0  0  0  0  0  0  0  0  0  0  0  0
   -8.5881    6.9846  -11.3240 C   0  0  0  0  0  0  0  0  0  0  0  0
   -8.6263    4.1446   -8.2091 N   0  0  0  0  0  0  0  0  0  0  0  0
   -8.9923    2.7378   -8.5154 C   0  0  0  0  0  0  0  0  0  0  0  0
   -9.2925    1.9449   -7.2195 C   0  0  0  0  0  0  0  0  0  0  0  0
   -9.7088    2.8137   -6.0996 N   0  0  0  0  0  0  0  0  0  0  0  0
   -8.5808    3.7110   -5.7738 C   0  0  0  0  0  0  0  0  0  0  0  0
   -7.8227    4.2989   -6.9901 C   0  0  0  0  0  0  0  0  0  0  0  0
   -9.9428    2.2429   -5.2873 H   0  0  0  0  0  0  0  0  0  0  0  0
   -9.1638    8.1269  -12.5725 S   0  0  0  0  0  0  0  0  0  0  0  0
   -7.6865    8.8332  -13.2584 C   0  0  0  0  0  0  0  0  0  0  0  0
   -9.8573    9.2090  -11.8910 O   0  0  0  0  0  0  0  0  0  0  0  0
   -9.8987    7.3783  -13.5760 O   0  0  0  0  0  0  0  0  0  0  0  0
 17 18  1  0  0  0
 18  5  1  0  0  0
  5  6  2  0  0  0
  6  7  1  0  0  0
  7  8  2  0  0  0
  8  1  1  0  0  0
  1  2  2  0  0  0
  1  3  1  0  0  0
  3 19  1  0  0  0
 19 20  2  0  0  0
 20 21  1  0  0  0
 21 25  1  0  0  0
 25 26  1  0  0  0
 26 27  1  0  0  0
 27 28  1  0  0  0
 28 29  1  0  0  0
 29 30  1  0  0  0
 21 22  2  0  0  0
 22 23  1  0  0  0
 23 24  2  0  0  0
 24 32  1  0  0  0
 32 33  1  0  0  0
 32 34  2  0  0  0
 32 35  2  0  0  0
  8  9  1  0  0  0
  9 10  2  0  0  0
 10 11  1  0  0  0
 11 12  2  0  0  0
 12 13  1  0  0  0
 12 14  1  0  0  0
 14 15  2  0  0  0
 15  5  1  0  0  0
 24 19  1  0  0  0
 15  9  1  0  0  0
 30 25  1  0  0  0
  3  4  1  0  0  0
 28 31  1  0  0  0
 13 16  1  0  0  0
M  END
> <minimizedAffinity>
-8.49745

> <minimizedRMSD>
0.45603

$$$$
P9239


 39 44  0  0  0  0  0  0  0  0999 V2000
   -8.8072    7.1499  -11.6437 C   0  0  0  0  0  0  0  0  0  0  0  0
   -8.8703    7.4110  -10.2854 C   0  0  0  0  0  0  0  0  0  0  0  0
   -8.5809    6.3903   -9.3972 C   0  0  0  0  0  0  0  0  0  0  0  0
   -8.2183    5.0975   -9.8348 C   0  0  0  0  0  0  0  0  0  0  0  0
   -8.0391    4.8805  -11.2329 C   0  0  0  0  0  0  0  0  0  0  0  0
   -8.3960    5.9003  -12.1326 C   0  0  0  0  0  0  0  0  0  0  0  0
   -8.4210    5.6566  -13.5119 N   0  0  0  0  0  0  0  0  0  0  0  0
   -7.3326    4.8615  -14.0718 C   0  0  0  0  0  0  0  0  0  0  0  0
   -6.1990    5.6989  -13.8903 O   0  0  0  0  0  0  0  0  0  0  0  0
   -7.2293    3.5260  -13.2900 C   0  0  0  0  0  0  0  0  0  0  0  0
   -6.9328    2.4464  -13.8137 O   0  0  0  0  0  0  0  0  0  0  0  0
   -7.3809    3.6081  -11.7696 C   0  0  0  0  0  0  0  0  0  0  0  0
   -5.9646    3.4536  -11.1819 C   0  0  0  0  0  0  0  0  0  0  0  0
   -5.9146    2.9128   -9.7556 C   0  0  0  0  0  0  0  0  0  0  0  0
   -6.5259    3.7549   -8.7400 N   0  0  0  0  0  0  0  0  0  0  0  0
   -7.9847    3.9711   -8.7940 C   0  0  0  0  0  0  0  0  0  0  0  0
   -8.8693    2.7256   -9.1322 C   0  0  0  0  0  0  0  0  0  0  0  0
   -9.5791    2.0810   -7.9480 C   0  0  0  0  0  0  0  0  0  0  0  0
   -8.7127    1.9918   -6.7909 N   0  0  0  0  0  0  0  0  0  0  0  0
   -8.3291    3.3043   -6.2989 C   0  0  0  0  0  0  0  0  0  0  0  0
   -8.3833    4.4123   -7.3483 C   0  0  0  0  0  0  0  0  0  0  0  0
   -9.1437    6.0076  -14.0808 H   0  0  0  0  0  0  0  0  0  0  0  0
   -6.3162    6.5164  -14.3991 H   0  0  0  0  0  0  0  0  0  0  0  0
   -6.0825    4.6714   -8.8010 H   0  0  0  0  0  0  0  0  0  0  0  0
   -7.8707    1.4770   -7.0483 H   0  0  0  0  0  0  0  0  0  0  0  0
   -7.5309    4.6554  -15.5906 C   0  0  0  0  0  0  0  0  0  0  0  0
   -8.8277    4.4545  -16.1162 C   0  0  0  0  0  0  0  0  0  0  0  0
   -9.0542    4.3500  -17.4836 C   0  0  0  0  0  0  0  0  0  0  0  0
   -7.9874    4.4483  -18.3640 C   0  0  0  0  0  0  0  0  0  0  0  0
   -6.6888    4.5956  -17.9149 C   0  0  0  0  0  0  0  0  0  0  0  0
   -5.7270    4.6693  -18.8502 N   0  0  0  0  0  0  0  0  0  0  0  0
   -4.4456    4.7487  -18.4577 C   0  0  0  0  0  0  0  0  0  0  0  0
   -4.0601    4.7574  -17.1395 C   0  0  0  0  0  0  0  0  0  0  0  0
   -5.0596    4.7043  -16.1737 C   0  0  0  0  0  0  0  0  0  0  0  0
   -6.4322    4.6562  -16.5214 C   0  0  0  0  0  0  0  0  0  0  0  0
   -7.5783    8.9399  -13.3921 C   0  0  0  0  0  0  0  0  0  0  0  0
   -9.1758    8.4704  -12.7638 S   0  0  0  0  0  0  0  0  0  0  0  0
   -9.6550    9.5963  -11.9819 O   0  0  0  0  0  0  0  0  0  0  0  0
  -10.0060    7.9220  -13.8179 O   0  0  0  0  0  0  0  0  0  0  0  0
 36 37  1  0  0  0
 37 38  2  0  0  0
 37 39  2  0  0  0
 37  1  1  0  0  0
  1  2  2  0  0  0
  2  3  1  0  0  0
  3  4  2  0  0  0
  4  5  1  0  0  0
  5  6  2  0  0  0
  6  7  1  0  0  0
  7  8  1  0  0  0
  8  9  1  0  0  0
  8 26  1  0  0  0
 26 27  2  0  0  0
 27 28  1  0  0  0
 28 29  2  0  0  0
 29 30  1  0  0  0
 30 31  2  0  0  0
 31 32  1  0  0  0
 32 33  2  0  0  0
 33 34  1  0  0  0
 34 35  2  0  0  0
  8 10  1  0  0  0
 10 11  2  0  0  0
 10 12  1  0  0  0
 12 13  1  0  0  0
 13 14  1  0  0  0
 14 15  1  0  0  0
 15 16  1  0  0  0
 16 17  1  0  0  0
 17 18  1  0  0  0
 18 19  1  0  0  0
 19 20  1  0  0  0
 20 21  1  0  0  0
  6  1  1  0  0  0
 35 26  1  0  0  0
 21 16  1  0  0  0
 16  4  1  0  0  0
 12  5  1  0  0  0
 35 30  1  0  0  0
  7 22  1  0  0  0
  9 23  1  0  0  0
 15 24  1  0  0  0
 19 25  1  0  0  0
M  END
> <minimizedAffinity>
-11.10679

> <minimizedRMSD>
0.24338

$$$$
P9248


 39 43  0  0  0  0  0  0  0  0999 V2000
   -8.7519    6.9654  -11.5535 C   0  0  0  0  0  0  0  0  0  0  0  0
   -8.5315    5.6122  -11.8382 C   0  0  0  0  0  0  0  0  0  0  0  0
   -8.5275    4.7164  -10.7782 C   0  0  0  0  0  0  0  0  0  0  0  0
   -8.6015    5.1633   -9.4431 C   0  0  0  0  0  0  0  0  0  0  0  0
   -8.6995    6.5629   -9.1946 C   0  0  0  0  0  0  0  0  0  0  0  0
   -8.7712    7.0799   -7.9568 N   0  0  0  0  0  0  0  0  0  0  0  0
   -8.8199    8.3740   -7.7797 N   0  0  0  0  0  0  0  0  0  0  0  0
   -8.8127    9.1795   -8.7492 N   0  0  0  0  0  0  0  0  0  0  0  0
   -8.7860    8.7701   -9.9844 N   0  0  0  0  0  0  0  0  0  0  0  0
   -8.7571    7.4551  -10.2488 C   0  0  0  0  0  0  0  0  0  0  0  0
   -8.5881    4.2440   -8.3915 N   0  0  0  0  0  0  0  0  0  0  0  0
   -9.1590    2.8869   -8.5391 C   0  0  0  0  0  0  0  0  0  0  0  0
   -9.0612    2.0593   -7.2327 C   0  0  0  0  0  0  0  0  0  0  0  0
   -9.1394    2.8364   -5.9879 N   0  0  0  0  0  0  0  0  0  0  0  0
   -8.1324    3.9117   -5.9819 C   0  0  0  0  0  0  0  0  0  0  0  0
   -7.5582    4.3410   -7.3530 C   0  0  0  0  0  0  0  0  0  0  0  0
   -8.9724    2.2167   -5.1952 H   0  0  0  0  0  0  0  0  0  0  0  0
   -8.0316    9.0104  -13.3499 C   0  0  0  0  0  0  0  0  0  0  0  0
   -9.4259    8.0697  -12.7739 S   0  0  0  0  0  0  0  0  0  0  0  0
  -10.3377    8.9894  -12.1164 O   0  0  0  0  0  0  0  0  0  0  0  0
   -9.9805    7.2631  -13.8446 O   0  0  0  0  0  0  0  0  0  0  0  0
   -8.2590    5.1094  -13.1151 N   0  0  0  0  0  0  0  0  0  0  0  0
   -7.0740    5.3892  -14.0759 C   0  0  0  0  0  0  0  0  0  0  0  0
   -6.1040    6.0227  -13.9180 O   0  0  0  0  0  0  0  0  0  0  0  0
   -8.9282    4.4748  -13.4597 H   0  0  0  0  0  0  0  0  0  0  0  0
   -7.2840    4.8250  -15.4446 C   0  0  0  0  0  0  0  0  0  0  0  0
   -8.6157    4.7019  -15.8517 C   0  0  0  0  0  0  0  0  0  0  0  0
   -8.9109    4.5427  -17.1925 C   0  0  0  0  0  0  0  0  0  0  0  0
  -10.5377    4.5518  -17.7158 Cl  0  0  0  0  0  0  0  0  0  0  0  0
   -7.9023    4.5180  -18.1393 C   0  0  0  0  0  0  0  0  0  0  0  0
   -6.5532    4.6548  -17.7713 C   0  0  0  0  0  0  0  0  0  0  0  0
   -5.5377    4.7219  -18.7563 C   0  0  0  0  0  0  0  0  0  0  0  0
   -5.8574    4.6767  -20.1261 N   0  0  0  0  0  0  0  0  0  0  0  0
   -4.1971    4.7267  -18.3637 C   0  0  0  0  0  0  0  0  0  0  0  0
   -3.8545    4.7773  -17.0165 C   0  0  0  0  0  0  0  0  0  0  0  0
   -4.8548    4.8172  -16.0463 C   0  0  0  0  0  0  0  0  0  0  0  0
   -6.2238    4.7609  -16.3929 C   0  0  0  0  0  0  0  0  0  0  0  0
   -6.7995    4.6729  -20.4119 H   0  0  0  0  0  0  0  0  0  0  0  0
   -5.1389    4.6489  -20.7986 H   0  0  0  0  0  0  0  0  0  0  0  0
 18 19  1  0  0  0
 19 20  2  0  0  0
 19 21  2  0  0  0
 19  1  1  0  0  0
  1  2  2  0  0  0
  2 22  1  0  0  0
 22 23  1  0  0  0
 23 24  2  0  0  0
 23 26  1  0  0  0
 26 27  2  0  0  0
 27 28  1  0  0  0
 28 29  1  0  0  0
 28 30  2  0  0  0
 30 31  1  0  0  0
 31 32  2  0  0  0
 32 33  1  0  0  0
 32 34  1  0  0  0
 34 35  2  0  0  0
 35 36  1  0  0  0
 36 37  2  0  0  0
  2  3  1  0  0  0
  3  4  2  0  0  0
  4 11  1  0  0  0
 11 12  1  0  0  0
 12 13  1  0  0  0
 13 14  1  0  0  0
 14 15  1  0  0  0
 15 16  1  0  0  0
  4  5  1  0  0  0
  5  6  2  0  0  0
  6  7  1  0  0  0
  7  8  2  0  0  0
  8  9  1  0  0  0
  9 10  2  0  0  0
 10  1  1  0  0  0
 37 26  1  0  0  0
 16 11  1  0  0  0
 10  5  1  0  0  0
 37 31  1  0  0  0
 22 25  1  0  0  0
 33 38  1  0  0  0
 33 39  1  0  0  0
 14 17  1  0  0  0
M  END
> <minimizedAffinity>
-10.48096

> <minimizedRMSD>
0.37700

$$$$
P9250


 33 36  0  0  0  0  0  0  0  0999 V2000
   -8.4234    5.4433   -9.2462 C   0  0  0  0  0  0  0  0  0  0  0  0
   -8.5711    6.8361   -9.0979 C   0  0  0  0  0  0  0  0  0  0  0  0
   -8.7794    7.6941  -10.1704 C   0  0  0  0  0  0  0  0  0  0  0  0
   -8.7783    7.1959  -11.4684 C   0  0  0  0  0  0  0  0  0  0  0  0
   -8.5229    5.8422  -11.7020 C   0  0  0  0  0  0  0  0  0  0  0  0
   -8.4338    4.9857  -10.5836 C   0  0  0  0  0  0  0  0  0  0  0  0
   -9.2060    2.3955   -9.1681 C   0  0  0  0  0  0  0  0  0  0  0  0
   -8.5230    3.1422   -8.0609 C   0  0  0  0  0  0  0  0  0  0  0  0
   -9.2038    2.7214   -6.7167 C   0  0  0  0  0  0  0  0  0  0  0  0
   -8.8861    3.5656   -5.5447 N   0  0  0  0  0  0  0  0  0  0  0  0
   -7.5555    4.1392   -5.7519 C   0  0  0  0  0  0  0  0  0  0  0  0
   -7.5162    5.0820   -6.9785 C   0  0  0  0  0  0  0  0  0  0  0  0
   -8.3728    4.6222   -8.1185 N   0  0  0  0  0  0  0  0  0  0  0  0
   -8.8909    2.9982   -4.6971 H   0  0  0  0  0  0  0  0  0  0  0  0
   -9.4899    8.2754  -12.6857 S   0  0  0  0  0  0  0  0  0  0  0  0
   -8.1071    9.2146  -13.2970 C   0  0  0  0  0  0  0  0  0  0  0  0
  -10.3492    9.2171  -11.9849 O   0  0  0  0  0  0  0  0  0  0  0  0
  -10.0867    7.4447  -13.7128 O   0  0  0  0  0  0  0  0  0  0  0  0
   -8.2995    5.2854  -12.9764 N   0  0  0  0  0  0  0  0  0  0  0  0
   -7.1716    5.5506  -14.0077 C   0  0  0  0  0  0  0  0  0  0  0  0
   -6.2120    6.2144  -13.9272 O   0  0  0  0  0  0  0  0  0  0  0  0
   -8.9678    4.6198  -13.2584 H   0  0  0  0  0  0  0  0  0  0  0  0
   -7.3917    4.9216  -15.3449 C   0  0  0  0  0  0  0  0  0  0  0  0
   -8.7014    4.6823  -15.7591 C   0  0  0  0  0  0  0  0  0  0  0  0
   -8.9494    4.4305  -17.1001 C   0  0  0  0  0  0  0  0  0  0  0  0
  -10.2063    4.2179  -17.5133 F   0  0  0  0  0  0  0  0  0  0  0  0
   -7.9233    4.4417  -18.0330 C   0  0  0  0  0  0  0  0  0  0  0  0
   -6.6096    4.6383  -17.6460 C   0  0  0  0  0  0  0  0  0  0  0  0
   -5.6601    4.6267  -18.5957 N   0  0  0  0  0  0  0  0  0  0  0  0
   -4.3740    4.7965  -18.2375 C   0  0  0  0  0  0  0  0  0  0  0  0
   -3.9677    4.9845  -16.9365 C   0  0  0  0  0  0  0  0  0  0  0  0
   -4.9498    5.0194  -15.9540 C   0  0  0  0  0  0  0  0  0  0  0  0
   -6.3175    4.8574  -16.2819 C   0  0  0  0  0  0  0  0  0  0  0  0
  8  7  1  0  0  0
  8  9  1  0  0  0
  9 10  1  0  0  0
 10 11  1  0  0  0
 11 12  1  0  0  0
 12 13  1  0  0  0
 13  1  1  0  0  0
  1  2  2  0  0  0
  2  3  1  0  0  0
  3  4  2  0  0  0
  4 15  1  0  0  0
 15 16  1  0  0  0
 15 17  2  0  0  0
 15 18  2  0  0  0
  4  5  1  0  0  0
  5 19  1  0  0  0
 19 20  1  0  0  0
 20 21  2  0  0  0
 20 23  1  0  0  0
 23 24  2  0  0  0
 24 25  1  0  0  0
 25 26  1  0  0  0
 25 27  2  0  0  0
 27 28  1  0  0  0
 28 29  2  0  0  0
 29 30  1  0  0  0
 30 31  2  0  0  0
 31 32  1  0  0  0
 32 33  2  0  0  0
  5  6  2  0  0  0
 13  8  1  0  0  0
  6  1  1  0  0  0
 33 23  1  0  0  0
 33 28  1  0  0  0
 10 14  1  0  0  0
 19 22  1  0  0  0
M  END
> <minimizedAffinity>
-8.43374

> <minimizedRMSD>
0.57448

$$$$
P9251


 34 37  0  0  0  0  0  0  0  0999 V2000
   -8.7047    6.9854  -11.3616 C   0  0  0  0  0  0  0  0  0  0  0  0
   -8.8807    7.4111  -10.0433 C   0  0  0  0  0  0  0  0  0  0  0  0
   -8.7887    6.4938   -9.0036 C   0  0  0  0  0  0  0  0  0  0  0  0
   -8.5914    5.1273   -9.2444 C   0  0  0  0  0  0  0  0  0  0  0  0
   -8.4184    4.7235  -10.5795 C   0  0  0  0  0  0  0  0  0  0  0  0
   -8.4039    5.6438  -11.6371 C   0  0  0  0  0  0  0  0  0  0  0  0
   -8.6350    4.2366   -8.1850 N   0  0  0  0  0  0  0  0  0  0  0  0
   -9.0810    2.8445   -8.3933 C   0  0  0  0  0  0  0  0  0  0  0  0
   -9.1201    2.0339   -7.0762 C   0  0  0  0  0  0  0  0  0  0  0  0
   -9.3558    2.8143   -5.8531 N   0  0  0  0  0  0  0  0  0  0  0  0
   -8.3758    3.9045   -5.7379 C   0  0  0  0  0  0  0  0  0  0  0  0
   -7.7370    4.4312   -7.0461 C   0  0  0  0  0  0  0  0  0  0  0  0
   -9.2714    2.2007   -5.0426 H   0  0  0  0  0  0  0  0  0  0  0  0
   -7.7469    8.9133  -13.1732 C   0  0  0  0  0  0  0  0  0  0  0  0
   -9.2413    8.1291  -12.6136 S   0  0  0  0  0  0  0  0  0  0  0  0
  -10.0280    9.1631  -11.9601 O   0  0  0  0  0  0  0  0  0  0  0  0
   -9.8695    7.3634  -13.6738 O   0  0  0  0  0  0  0  0  0  0  0  0
   -8.0259    5.1445  -12.8884 N   0  0  0  0  0  0  0  0  0  0  0  0
   -6.7508    5.3904  -13.7224 C   0  0  0  0  0  0  0  0  0  0  0  0
   -5.7810    5.9867  -13.4642 O   0  0  0  0  0  0  0  0  0  0  0  0
   -8.6798    4.5374  -13.3045 H   0  0  0  0  0  0  0  0  0  0  0  0
   -6.8261    4.8359  -15.0952 C   0  0  0  0  0  0  0  0  0  0  0  0
   -8.0918    4.6587  -15.6446 C   0  0  0  0  0  0  0  0  0  0  0  0
   -8.2126    4.4817  -17.0186 C   0  0  0  0  0  0  0  0  0  0  0  0
   -9.8117    4.3822  -17.6345 Cl  0  0  0  0  0  0  0  0  0  0  0  0
   -7.0802    4.4805  -17.8419 C   0  0  0  0  0  0  0  0  0  0  0  0
   -5.8014    4.6282  -17.2994 C   0  0  0  0  0  0  0  0  0  0  0  0
   -4.7198    4.6407  -18.1109 N   0  0  0  0  0  0  0  0  0  0  0  0
   -3.4877    4.7725  -17.5896 C   0  0  0  0  0  0  0  0  0  0  0  0
   -3.2521    4.9069  -16.2445 C   0  0  0  0  0  0  0  0  0  0  0  0
   -4.3519    4.9198  -15.3987 C   0  0  0  0  0  0  0  0  0  0  0  0
   -5.6647    4.7899  -15.9056 C   0  0  0  0  0  0  0  0  0  0  0  0
   -7.1644    4.3165  -19.2639 C   0  0  0  0  0  0  0  0  0  0  0  0
   -7.2214    4.0828  -20.4014 N   0  0  0  0  0  0  0  0  0  0  0  0
 14 15  1  0  0  0
 15 16  2  0  0  0
 15 17  2  0  0  0
 15  1  1  0  0  0
  1  2  2  0  0  0
  2  3  1  0  0  0
  3  4  2  0  0  0
  4  7  1  0  0  0
  7  8  1  0  0  0
  8  9  1  0  0  0
  9 10  1  0  0  0
 10 11  1  0  0  0
 11 12  1  0  0  0
  4  5  1  0  0  0
  5  6  2  0  0  0
  6 18  1  0  0  0
 18 19  1  0  0  0
 19 20  2  0  0  0
 19 22  1  0  0  0
 22 23  2  0  0  0
 23 24  1  0  0  0
 24 25  1  0  0  0
 24 26  2  0  0  0
 26 33  1  0  0  0
 33 34  3  0  0  0
 26 27  1  0  0  0
 27 28  2  0  0  0
 28 29  1  0  0  0
 29 30  2  0  0  0
 30 31  1  0  0  0
 31 32  2  0  0  0
  6  1  1  0  0  0
 32 22  1  0  0  0
 12  7  1  0  0  0
 32 27  1  0  0  0
 10 13  1  0  0  0
 18 21  1  0  0  0
M  END
> <minimizedAffinity>
-7.86692

> <minimizedRMSD>
0.45610

$$$$
P9252


 34 37  0  0  0  0  0  0  0  0999 V2000
   -8.6728    7.2678  -11.5316 C   0  0  0  0  0  0  0  0  0  0  0  0
   -8.8427    7.5389  -10.1731 C   0  0  0  0  0  0  0  0  0  0  0  0
   -8.7464    6.5078   -9.2514 C   0  0  0  0  0  0  0  0  0  0  0  0
   -8.5470    5.1801   -9.6530 C   0  0  0  0  0  0  0  0  0  0  0  0
   -8.3615    4.9329  -11.0275 C   0  0  0  0  0  0  0  0  0  0  0  0
   -8.3475    5.9735  -11.9689 C   0  0  0  0  0  0  0  0  0  0  0  0
   -8.5999    4.1807   -8.6999 N   0  0  0  0  0  0  0  0  0  0  0  0
   -8.9744    2.8006   -9.0594 C   0  0  0  0  0  0  0  0  0  0  0  0
   -9.0842    1.8808   -7.8176 C   0  0  0  0  0  0  0  0  0  0  0  0
   -9.4852    2.5410   -6.5637 N   0  0  0  0  0  0  0  0  0  0  0  0
   -8.6029    3.6806   -6.2702 C   0  0  0  0  0  0  0  0  0  0  0  0
   -7.8394    4.3142   -7.4579 C   0  0  0  0  0  0  0  0  0  0  0  0
   -9.4293    1.8687   -5.7987 H   0  0  0  0  0  0  0  0  0  0  0  0
   -7.8547    9.4284  -13.1460 C   0  0  0  0  0  0  0  0  0  0  0  0
   -9.2921    8.5205  -12.6334 S   0  0  0  0  0  0  0  0  0  0  0  0
  -10.0979    9.4432  -11.8503 O   0  0  0  0  0  0  0  0  0  0  0  0
   -9.9245    7.8492  -13.7512 O   0  0  0  0  0  0  0  0  0  0  0  0
   -8.0254    5.6560  -13.2965 N   0  0  0  0  0  0  0  0  0  0  0  0
   -6.7581    5.9894  -14.1362 C   0  0  0  0  0  0  0  0  0  0  0  0
   -5.7573    6.5125  -13.8246 O   0  0  0  0  0  0  0  0  0  0  0  0
   -8.7126    5.1382  -13.7750 H   0  0  0  0  0  0  0  0  0  0  0  0
   -6.9515    5.6423  -15.6188 C   0  0  0  0  0  0  0  0  0  0  0  0
   -8.3452    5.1135  -15.9454 C   0  0  0  0  0  0  0  0  0  0  0  0
   -8.5620    5.1721  -17.4516 C   0  0  0  0  0  0  0  0  0  0  0  0
  -10.3524    4.5603  -17.8180 Br  0  0  0  0  0  0  0  0  0  0  0  0
   -7.5557    4.3215  -18.1528 C   0  0  0  0  0  0  0  0  0  0  0  0
   -6.1174    4.7037  -17.8172 C   0  0  0  0  0  0  0  0  0  0  0  0
   -5.7252    5.9677  -18.4472 N   0  0  0  0  0  0  0  0  0  0  0  0
   -4.2585    6.0230  -18.5464 C   0  0  0  0  0  0  0  0  0  0  0  0
   -3.5952    5.4961  -17.2783 C   0  0  0  0  0  0  0  0  0  0  0  0
   -2.3902    5.2340  -17.2527 O   0  0  0  0  0  0  0  0  0  0  0  0
   -4.4468    5.3947  -16.0278 C   0  0  0  0  0  0  0  0  0  0  0  0
   -5.8491    4.8054  -16.2917 C   0  0  0  0  0  0  0  0  0  0  0  0
   -6.0588    6.7487  -17.8822 H   0  0  0  0  0  0  0  0  0  0  0  0
 14 15  1  0  0  0
 15 16  2  0  0  0
 15 17  2  0  0  0
 15  1  1  0  0  0
  1  2  2  0  0  0
  2  3  1  0  0  0
  3  4  2  0  0  0
  4  7  1  0  0  0
  7  8  1  0  0  0
  8  9  1  0  0  0
  9 10  1  0  0  0
 10 11  1  0  0  0
 11 12  1  0  0  0
  4  5  1  0  0  0
  5  6  2  0  0  0
  6 18  1  0  0  0
 18 19  1  0  0  0
 19 20  2  0  0  0
 22 19  1  0  0  0
 22 23  1  0  0  0
 23 24  1  0  0  0
 24 25  1  0  0  0
 24 26  1  0  0  0
 27 26  1  0  0  0
 27 28  1  0  0  0
 28 29  1  0  0  0
 29 30  1  0  0  0
 30 31  2  0  0  0
 30 32  1  0  0  0
 33 32  1  0  0  0
  6  1  1  0  0  0
 33 22  1  0  0  0
 12  7  1  0  0  0
 33 27  1  0  0  0
 10 13  1  0  0  0
 18 21  1  0  0  0
 28 34  1  0  0  0
M  END
> <minimizedAffinity>
-7.60303

> <minimizedRMSD>
0.40940

$$$$
P9255


 36 41  0  0  0  0  0  0  0  0999 V2000
   -8.6460    7.0150  -11.3236 C   0  0  0  0  0  0  0  0  0  0  0  0
   -8.7399    7.5896  -10.0532 C   0  0  0  0  0  0  0  0  0  0  0  0
   -8.6363    6.8070   -8.9147 C   0  0  0  0  0  0  0  0  0  0  0  0
   -8.5611    5.4216   -9.0878 C   0  0  0  0  0  0  0  0  0  0  0  0
   -8.4915    4.8040  -10.3428 C   0  0  0  0  0  0  0  0  0  0  0  0
   -8.4949    3.3924  -10.0948 C   0  0  0  0  0  0  0  0  0  0  0  0
   -8.6428    3.1953   -8.7332 C   0  0  0  0  0  0  0  0  0  0  0  0
   -8.5746    4.4257   -8.1426 N   0  0  0  0  0  0  0  0  0  0  0  0
   -8.6856    4.6358   -6.7116 C   0  0  0  0  0  0  0  0  0  0  0  0
   -8.7197    3.3318   -5.9210 C   0  0  0  0  0  0  0  0  0  0  0  0
   -9.4694    2.2864   -6.6143 N   0  0  0  0  0  0  0  0  0  0  0  0
   -8.8464    1.9688   -7.9104 C   0  0  0  0  0  0  0  0  0  0  0  0
   -8.4219    5.6273  -11.4957 C   0  0  0  0  0  0  0  0  0  0  0  0
  -10.4243    2.6083   -6.7721 H   0  0  0  0  0  0  0  0  0  0  0  0
   -7.6946    8.8013  -13.2981 C   0  0  0  0  0  0  0  0  0  0  0  0
   -9.1860    8.0712  -12.6630 S   0  0  0  0  0  0  0  0  0  0  0  0
   -9.9555    9.1556  -12.0724 O   0  0  0  0  0  0  0  0  0  0  0  0
   -9.8330    7.2457  -13.6658 O   0  0  0  0  0  0  0  0  0  0  0  0
   -8.0727    5.0603  -12.7240 N   0  0  0  0  0  0  0  0  0  0  0  0
   -6.7779    5.1934  -13.5602 C   0  0  0  0  0  0  0  0  0  0  0  0
   -5.7720    5.7354  -13.3168 O   0  0  0  0  0  0  0  0  0  0  0  0
   -8.7628    4.4820  -13.1221 H   0  0  0  0  0  0  0  0  0  0  0  0
   -6.9489    4.5844  -14.9189 C   0  0  0  0  0  0  0  0  0  0  0  0
   -8.2231    4.4247  -15.3511 C   0  0  0  0  0  0  0  0  0  0  0  0
   -8.4565    4.3246  -16.7753 C   0  0  0  0  0  0  0  0  0  0  0  0
   -9.6203    4.3290  -17.4285 C   0  0  0  0  0  0  0  0  0  0  0  0
   -9.1499    4.4544  -18.8141 C   0  0  0  0  0  0  0  0  0  0  0  0
   -7.8684    4.4494  -18.9987 N   0  0  0  0  0  0  0  0  0  0  0  0
   -7.3774    4.4264  -17.7322 C   0  0  0  0  0  0  0  0  0  0  0  0
   -6.1062    4.5986  -17.3533 C   0  0  0  0  0  0  0  0  0  0  0  0
   -5.0522    4.7919  -18.2265 N   0  0  0  0  0  0  0  0  0  0  0  0
   -3.7596    4.9014  -17.8023 C   0  0  0  0  0  0  0  0  0  0  0  0
   -3.4523    4.8627  -16.4965 C   0  0  0  0  0  0  0  0  0  0  0  0
   -4.5257    4.7302  -15.5171 C   0  0  0  0  0  0  0  0  0  0  0  0
   -5.8238    4.6177  -15.8919 C   0  0  0  0  0  0  0  0  0  0  0  0
   -5.2411    4.8529  -19.1908 H   0  0  0  0  0  0  0  0  0  0  0  0
 15 16  1  0  0  0
 16 17  2  0  0  0
 16 18  2  0  0  0
 16  1  1  0  0  0
  1  2  2  0  0  0
  2  3  1  0  0  0
  3  4  2  0  0  0
  4  5  1  0  0  0
  5  6  1  0  0  0
  6  7  2  0  0  0
  7  8  1  0  0  0
  8  9  1  0  0  0
  9 10  1  0  0  0
 10 11  1  0  0  0
 11 12  1  0  0  0
  5 13  2  0  0  0
 13 19  1  0  0  0
 19 20  1  0  0  0
 20 21  2  0  0  0
 20 23  1  0  0  0
 23 24  2  0  0  0
 24 25  1  0  0  0
 25 26  2  0  0  0
 26 27  1  0  0  0
 27 28  2  0  0  0
 28 29  1  0  0  0
 29 30  2  0  0  0
 30 31  1  0  0  0
 31 32  1  0  0  0
 32 33  2  0  0  0
 33 34  1  0  0  0
 34 35  2  0  0  0
 13  1  1  0  0  0
 35 23  1  0  0  0
  8  4  1  0  0  0
 29 25  1  0  0  0
 35 30  1  0  0  0
 12  7  1  0  0  0
 11 14  1  0  0  0
 19 22  1  0  0  0
 31 36  1  0  0  0
M  END
> <minimizedAffinity>
-9.44407

> <minimizedRMSD>
0.40499

$$$$
P9257


 35 38  0  0  0  0  0  0  0  0999 V2000
   -8.0111    5.4124  -13.3164 N   0  0  0  0  0  0  0  0  0  0  0  0
   -7.2787    4.1412  -13.8124 C   0  0  0  0  0  0  0  0  0  0  0  0
   -6.8975    3.2084  -13.2218 O   0  0  0  0  0  0  0  0  0  0  0  0
   -8.2983    6.0273  -14.0295 H   0  0  0  0  0  0  0  0  0  0  0  0
   -6.9488    4.2148  -15.2590 C   0  0  0  0  0  0  0  0  0  0  0  0
   -8.0257    4.1921  -16.1408 C   0  0  0  0  0  0  0  0  0  0  0  0
   -7.8173    4.4234  -17.4955 C   0  0  0  0  0  0  0  0  0  0  0  0
   -6.5448    4.7678  -17.9493 C   0  0  0  0  0  0  0  0  0  0  0  0
   -5.4553    4.7844  -17.0968 C   0  0  0  0  0  0  0  0  0  0  0  0
   -4.2557    5.0766  -17.6202 N   0  0  0  0  0  0  0  0  0  0  0  0
   -3.1784    5.0470  -16.8159 C   0  0  0  0  0  0  0  0  0  0  0  0
   -3.2386    4.7424  -15.4734 C   0  0  0  0  0  0  0  0  0  0  0  0
   -4.4844    4.4650  -14.9248 C   0  0  0  0  0  0  0  0  0  0  0  0
   -5.6413    4.4814  -15.7300 C   0  0  0  0  0  0  0  0  0  0  0  0
   -8.9472    4.2083  -18.4384 C   0  0  0  0  0  0  0  0  0  0  0  0
  -10.2778    4.7805  -18.0856 C   0  0  0  0  0  0  0  0  0  0  0  0
  -11.0846    3.7404  -17.7437 F   0  0  0  0  0  0  0  0  0  0  0  0
  -10.1924    5.4844  -16.9623 F   0  0  0  0  0  0  0  0  0  0  0  0
   -8.6303    7.1455  -11.6519 C   0  0  0  0  0  0  0  0  0  0  0  0
   -8.8104    7.4714  -10.3062 C   0  0  0  0  0  0  0  0  0  0  0  0
   -8.7451    6.4753   -9.3373 C   0  0  0  0  0  0  0  0  0  0  0  0
   -8.5616    5.1277   -9.6765 C   0  0  0  0  0  0  0  0  0  0  0  0
   -8.3652    4.8309  -11.0364 C   0  0  0  0  0  0  0  0  0  0  0  0
   -8.3307    5.8285  -12.0213 C   0  0  0  0  0  0  0  0  0  0  0  0
   -8.6578    4.1486   -8.6994 N   0  0  0  0  0  0  0  0  0  0  0  0
   -8.8528    2.7297   -9.0812 C   0  0  0  0  0  0  0  0  0  0  0  0
   -9.1547    1.8550   -7.8404 C   0  0  0  0  0  0  0  0  0  0  0  0
   -9.7345    2.6195   -6.7174 N   0  0  0  0  0  0  0  0  0  0  0  0
   -8.7329    3.6132   -6.2784 C   0  0  0  0  0  0  0  0  0  0  0  0
   -7.9646    4.3334   -7.4156 C   0  0  0  0  0  0  0  0  0  0  0  0
   -9.9573    1.9887   -5.9475 H   0  0  0  0  0  0  0  0  0  0  0  0
   -7.7346    9.1255  -13.4500 C   0  0  0  0  0  0  0  0  0  0  0  0
   -9.2070    8.3573  -12.8219 S   0  0  0  0  0  0  0  0  0  0  0  0
   -9.9193    9.3834  -12.0770 O   0  0  0  0  0  0  0  0  0  0  0  0
   -9.9241    7.6520  -13.8669 O   0  0  0  0  0  0  0  0  0  0  0  0
 32 33  1  0  0  0
 33 34  2  0  0  0
 33 35  2  0  0  0
 33 19  1  0  0  0
 19 20  2  0  0  0
 20 21  1  0  0  0
 21 22  2  0  0  0
 22 25  1  0  0  0
 25 26  1  0  0  0
 26 27  1  0  0  0
 27 28  1  0  0  0
 28 29  1  0  0  0
 29 30  1  0  0  0
 22 23  1  0  0  0
 23 24  2  0  0  0
 24  1  1  0  0  0
  1  2  1  0  0  0
  2  3  2  0  0  0
  2  5  1  0  0  0
  5  6  2  0  0  0
  6  7  1  0  0  0
  7 15  1  0  0  0
 15 16  1  0  0  0
 16 17  1  0  0  0
 16 18  1  0  0  0
  7  8  2  0  0  0
  8  9  1  0  0  0
  9 10  2  0  0  0
 10 11  1  0  0  0
 11 12  2  0  0  0
 12 13  1  0  0  0
 13 14  2  0  0  0
 24 19  1  0  0  0
 14  5  1  0  0  0
 30 25  1  0  0  0
 14  9  1  0  0  0
 28 31  1  0  0  0
  1  4  1  0  0  0
M  END
> <minimizedAffinity>
-8.10684

> <minimizedRMSD>
1.09982

$$$$
P9258


 33 36  0  0  0  0  0  0  0  0999 V2000
   -8.4350    5.5728  -11.8533 C   0  0  0  0  0  0  0  0  0  0  0  0
   -8.4546    4.6238  -10.8212 C   0  0  0  0  0  0  0  0  0  0  0  0
   -8.5647    4.9895   -9.4664 C   0  0  0  0  0  0  0  0  0  0  0  0
   -8.6817    6.3569   -9.1816 C   0  0  0  0  0  0  0  0  0  0  0  0
   -8.7487    7.3111  -10.1901 C   0  0  0  0  0  0  0  0  0  0  0  0
   -8.6475    6.9195  -11.5264 C   0  0  0  0  0  0  0  0  0  0  0  0
   -8.6412    4.0595   -8.4411 N   0  0  0  0  0  0  0  0  0  0  0  0
   -8.9863    2.6492   -8.7364 C   0  0  0  0  0  0  0  0  0  0  0  0
   -9.2397    1.8544   -7.4331 C   0  0  0  0  0  0  0  0  0  0  0  0
   -9.6656    2.7096   -6.3067 N   0  0  0  0  0  0  0  0  0  0  0  0
   -8.5574    3.6374   -5.9983 C   0  0  0  0  0  0  0  0  0  0  0  0
   -7.8274    4.2346   -7.2282 C   0  0  0  0  0  0  0  0  0  0  0  0
   -9.8715    2.1323   -5.4914 H   0  0  0  0  0  0  0  0  0  0  0  0
   -6.9359    5.2317  -14.0433 C   0  0  0  0  0  0  0  0  0  0  0  0
   -5.8929    5.7083  -13.8215 O   0  0  0  0  0  0  0  0  0  0  0  0
   -8.1846    5.0894  -13.1423 N   0  0  0  0  0  0  0  0  0  0  0  0
   -8.9236    4.5749  -13.5403 H   0  0  0  0  0  0  0  0  0  0  0  0
  -10.1976    4.5907  -17.7062 C   0  0  0  0  0  0  0  0  0  0  0  0
   -8.7905    4.5778  -17.2120 C   0  0  0  0  0  0  0  0  0  0  0  0
   -8.5044    4.6883  -15.8567 C   0  0  0  0  0  0  0  0  0  0  0  0
   -7.1737    4.7617  -15.4358 C   0  0  0  0  0  0  0  0  0  0  0  0
   -6.1074    4.6925  -16.3734 C   0  0  0  0  0  0  0  0  0  0  0  0
   -4.7367    4.7502  -16.0422 C   0  0  0  0  0  0  0  0  0  0  0  0
   -3.7647    4.7700  -17.0370 C   0  0  0  0  0  0  0  0  0  0  0  0
   -4.1758    4.7307  -18.3578 C   0  0  0  0  0  0  0  0  0  0  0  0
   -3.1821    4.8526  -19.4728 C   0  0  0  0  0  0  0  0  0  0  0  0
   -5.4736    4.6150  -18.7055 N   0  0  0  0  0  0  0  0  0  0  0  0
   -6.4129    4.5972  -17.7444 C   0  0  0  0  0  0  0  0  0  0  0  0
   -7.7395    4.5357  -18.1342 C   0  0  0  0  0  0  0  0  0  0  0  0
   -9.1918    8.1252  -12.7169 S   0  0  0  0  0  0  0  0  0  0  0  0
   -7.6944    8.8228  -13.3720 C   0  0  0  0  0  0  0  0  0  0  0  0
   -9.8576    9.1930  -11.9869 O   0  0  0  0  0  0  0  0  0  0  0  0
   -9.9474    7.4230  -13.7358 O   0  0  0  0  0  0  0  0  0  0  0  0
 18 19  1  0  0  0
 19 20  2  0  0  0
 20 21  1  0  0  0
 21 14  1  0  0  0
 14 15  2  0  0  0
 14 16  1  0  0  0
 16  1  1  0  0  0
  1  2  2  0  0  0
  2  3  1  0  0  0
  3  7  1  0  0  0
  7  8  1  0  0  0
  8  9  1  0  0  0
  9 10  1  0  0  0
 10 11  1  0  0  0
 11 12  1  0  0  0
  3  4  2  0  0  0
  4  5  1  0  0  0
  5  6  2  0  0  0
  6 30  1  0  0  0
 30 31  1  0  0  0
 30 32  2  0  0  0
 30 33  2  0  0  0
 21 22  2  0  0  0
 22 23  1  0  0  0
 23 24  2  0  0  0
 24 25  1  0  0  0
 25 26  1  0  0  0
 25 27  2  0  0  0
 27 28  1  0  0  0
 28 29  2  0  0  0
 29 19  1  0  0  0
  6  1  1  0  0  0
 28 22  1  0  0  0
 12  7  1  0  0  0
 16 17  1  0  0  0
 10 13  1  0  0  0
M  END
> <minimizedAffinity>
-9.39201

> <minimizedRMSD>
0.39993

$$$$
P9259


 34 37  0  0  0  0  0  0  0  0999 V2000
   -6.6913    5.1270  -13.7618 C   0  0  0  0  0  0  0  0  0  0  0  0
   -5.6754    5.6353  -13.4936 O   0  0  0  0  0  0  0  0  0  0  0  0
   -7.9835    4.9742  -12.9313 N   0  0  0  0  0  0  0  0  0  0  0  0
   -8.6855    4.4311  -13.3575 H   0  0  0  0  0  0  0  0  0  0  0  0
   -8.4026    4.2795  -16.9601 C   0  0  0  0  0  0  0  0  0  0  0  0
   -8.1457    4.4151  -15.6026 C   0  0  0  0  0  0  0  0  0  0  0  0
   -6.8401    4.6163  -15.1537 C   0  0  0  0  0  0  0  0  0  0  0  0
   -5.7542    4.6533  -16.0619 C   0  0  0  0  0  0  0  0  0  0  0  0
   -4.4065    4.7045  -15.6430 C   0  0  0  0  0  0  0  0  0  0  0  0
   -3.3615    4.8193  -16.5535 C   0  0  0  0  0  0  0  0  0  0  0  0
   -3.6427    4.9610  -17.9026 C   0  0  0  0  0  0  0  0  0  0  0  0
   -4.9667    4.9317  -18.3564 C   0  0  0  0  0  0  0  0  0  0  0  0
   -5.2341    5.2800  -19.7945 C   0  0  0  0  0  0  0  0  0  0  0  0
   -6.0311    4.6746  -17.4500 C   0  0  0  0  0  0  0  0  0  0  0  0
   -7.3630    4.4684  -17.8726 C   0  0  0  0  0  0  0  0  0  0  0  0
  -10.4103    4.8592  -18.3936 C   0  0  0  0  0  0  0  0  0  0  0  0
   -9.7827    3.9274  -17.4031 C   0  0  0  0  0  0  0  0  0  0  0  0
   -8.3181    5.4796  -11.6769 C   0  0  0  0  0  0  0  0  0  0  0  0
   -8.3626    4.5602  -10.6224 C   0  0  0  0  0  0  0  0  0  0  0  0
   -8.5489    4.9652   -9.2908 C   0  0  0  0  0  0  0  0  0  0  0  0
   -8.7171    6.3382   -9.0579 C   0  0  0  0  0  0  0  0  0  0  0  0
   -8.7718    7.2589  -10.1003 C   0  0  0  0  0  0  0  0  0  0  0  0
   -8.5940    6.8284  -11.4153 C   0  0  0  0  0  0  0  0  0  0  0  0
   -8.6468    4.0634   -8.2438 N   0  0  0  0  0  0  0  0  0  0  0  0
   -9.0445    2.6582   -8.4973 C   0  0  0  0  0  0  0  0  0  0  0  0
   -9.3298    1.9136   -7.1707 C   0  0  0  0  0  0  0  0  0  0  0  0
   -9.7239    2.8197   -6.0733 N   0  0  0  0  0  0  0  0  0  0  0  0
   -8.5839    3.7168   -5.7913 C   0  0  0  0  0  0  0  0  0  0  0  0
   -7.8288    4.2464   -7.0363 C   0  0  0  0  0  0  0  0  0  0  0  0
   -9.9513    2.2765   -5.2405 H   0  0  0  0  0  0  0  0  0  0  0  0
   -9.1249    7.9659  -12.6826 S   0  0  0  0  0  0  0  0  0  0  0  0
   -7.6302    8.6867  -13.3151 C   0  0  0  0  0  0  0  0  0  0  0  0
   -9.8526    9.0407  -12.0260 O   0  0  0  0  0  0  0  0  0  0  0  0
   -9.8169    7.2044  -13.7061 O   0  0  0  0  0  0  0  0  0  0  0  0
 16 17  1  0  0  0
 17  5  1  0  0  0
  5  6  2  0  0  0
  6  7  1  0  0  0
  7  1  1  0  0  0
  1  2  2  0  0  0
  1  3  1  0  0  0
  3 18  1  0  0  0
 18 19  2  0  0  0
 19 20  1  0  0  0
 20 24  1  0  0  0
 24 25  1  0  0  0
 25 26  1  0  0  0
 26 27  1  0  0  0
 27 28  1  0  0  0
 28 29  1  0  0  0
 20 21  2  0  0  0
 21 22  1  0  0  0
 22 23  2  0  0  0
 23 31  1  0  0  0
 31 32  1  0  0  0
 31 33  2  0  0  0
 31 34  2  0  0  0
  7  8  2  0  0  0
  8  9  1  0  0  0
  9 10  2  0  0  0
 10 11  1  0  0  0
 11 12  2  0  0  0
 12 13  1  0  0  0
 12 14  1  0  0  0
 14 15  2  0  0  0
 15  5  1  0  0  0
 23 18  1  0  0  0
 14  8  1  0  0  0
 29 24  1  0  0  0
  3  4  1  0  0  0
 27 30  1  0  0  0
M  END
> <minimizedAffinity>
-9.07829

> <minimizedRMSD>
0.52534

$$$$
P9260


 41 45  0  0  0  0  0  0  0  0999 V2000
   -7.1748    4.6921  -13.9706 C   0  0  0  0  0  0  0  0  0  0  0  0
   -7.3780    4.6080  -15.4885 C   0  0  0  0  0  0  0  0  0  0  0  0
   -8.6779    4.5539  -16.0146 C   0  0  0  0  0  0  0  0  0  0  0  0
   -8.8998    4.5399  -17.3822 C   0  0  0  0  0  0  0  0  0  0  0  0
  -10.5152    4.5540  -17.9514 Cl  0  0  0  0  0  0  0  0  0  0  0  0
   -7.8376    4.5774  -18.2694 C   0  0  0  0  0  0  0  0  0  0  0  0
   -6.5364    4.6378  -17.8077 C   0  0  0  0  0  0  0  0  0  0  0  0
   -5.5572    4.6945  -18.7259 N   0  0  0  0  0  0  0  0  0  0  0  0
   -4.2816    4.7615  -18.3080 C   0  0  0  0  0  0  0  0  0  0  0  0
   -3.9184    4.7976  -16.9810 C   0  0  0  0  0  0  0  0  0  0  0  0
   -4.9314    4.7562  -16.0292 C   0  0  0  0  0  0  0  0  0  0  0  0
   -6.2874    4.6611  -16.4097 C   0  0  0  0  0  0  0  0  0  0  0  0
   -8.4374    4.4764  -13.2356 N   0  0  0  0  0  0  0  0  0  0  0  0
   -9.1768    3.9346  -13.5948 H   0  0  0  0  0  0  0  0  0  0  0  0
   -8.5453    6.4978  -11.8108 C   0  0  0  0  0  0  0  0  0  0  0  0
   -8.5180    7.0548  -10.5302 C   0  0  0  0  0  0  0  0  0  0  0  0
   -8.4906    6.2273   -9.4053 C   0  0  0  0  0  0  0  0  0  0  0  0
   -8.4810    4.8322   -9.5127 C   0  0  0  0  0  0  0  0  0  0  0  0
   -8.4627    4.3102  -10.8162 C   0  0  0  0  0  0  0  0  0  0  0  0
   -8.4975    5.1106  -11.9760 C   0  0  0  0  0  0  0  0  0  0  0  0
   -8.5848    4.0233   -8.3887 N   0  0  0  0  0  0  0  0  0  0  0  0
   -8.9909    2.6012   -8.5381 C   0  0  0  0  0  0  0  0  0  0  0  0
   -9.2848    1.9533   -7.1628 C   0  0  0  0  0  0  0  0  0  0  0  0
   -9.6517    2.9478   -6.1328 N   0  0  0  0  0  0  0  0  0  0  0  0
   -8.4811    3.8248   -5.9204 C   0  0  0  0  0  0  0  0  0  0  0  0
   -7.7439    4.2740   -7.2096 C   0  0  0  0  0  0  0  0  0  0  0  0
   -9.8936    2.4740   -5.2626 H   0  0  0  0  0  0  0  0  0  0  0  0
   -9.5192    9.0566  -12.5669 C   0  0  0  0  0  0  0  0  0  0  0  0
   -8.8299    7.5569  -13.2021 S   0  0  0  0  0  0  0  0  0  0  0  0
   -9.8877    6.9784  -14.0103 O   0  0  0  0  0  0  0  0  0  0  0  0
   -7.5328    7.8852  -13.7694 O   0  0  0  0  0  0  0  0  0  0  0  0
   -6.0897    3.8569  -13.4477 N   0  0  0  0  0  0  0  0  0  0  0  0
   -6.3258    2.7140  -13.1611 C   0  0  0  0  0  0  0  0  0  0  0  0
   -5.4946    1.6830  -12.3257 N   0  0  0  0  0  0  0  0  0  0  0  0
   -5.5996    0.7454  -12.6070 H   0  0  0  0  0  0  0  0  0  0  0  0
   -4.6040    1.8806  -11.2165 C   0  0  0  0  0  0  0  0  0  0  0  0
   -3.1289    1.9512  -11.6178 C   0  0  0  0  0  0  0  0  0  0  0  0
   -2.8712    1.9525  -13.1168 C   0  0  0  0  0  0  0  0  0  0  0  0
   -1.4400    1.4810  -13.1710 C   0  0  0  0  0  0  0  0  0  0  0  0
   -1.4072    0.4386  -12.0730 C   0  0  0  0  0  0  0  0  0  0  0  0
   -2.4314    0.7807  -11.1258 O   0  0  0  0  0  0  0  0  0  0  0  0
 28 29  1  0  0  0
 29 30  2  0  0  0
 29 31  2  0  0  0
 29 15  1  0  0  0
 15 16  2  0  0  0
 16 17  1  0  0  0
 17 18  2  0  0  0
 18 21  1  0  0  0
 21 22  1  0  0  0
 22 23  1  0  0  0
 23 24  1  0  0  0
 24 25  1  0  0  0
 25 26  1  0  0  0
 18 19  1  0  0  0
 19 20  2  0  0  0
 20 13  1  0  0  0
  1 13  1  0  0  0
  1 32  1  0  0  0
 32 33  2  0  0  0
 33 34  1  0  0  0
 34 36  1  0  0  0
 37 36  1  0  0  0
 37 38  1  0  0  0
 38 39  1  0  0  0
 39 40  1  0  0  0
 40 41  1  0  0  0
  1  2  1  0  0  0
  2  3  2  0  0  0
  3  4  1  0  0  0
  4  5  1  0  0  0
  4  6  2  0  0  0
  6  7  1  0  0  0
  7  8  2  0  0  0
  8  9  1  0  0  0
  9 10  2  0  0  0
 10 11  1  0  0  0
 11 12  2  0  0  0
 20 15  1  0  0  0
 41 37  1  0  0  0
 12  2  1  0  0  0
 26 21  1  0  0  0
 12  7  1  0  0  0
 24 27  1  0  0  0
 13 14  1  0  0  0
 34 35  1  0  0  0
M  END
> <minimizedAffinity>
-9.48506

> <minimizedRMSD>
0.79994

$$$$
P9261


 38 42  0  0  0  0  0  0  0  0999 V2000
   -8.4313    5.0687  -13.4952 N   0  0  0  0  0  0  0  0  0  0  0  0
   -7.2998    5.2208  -14.5355 C   0  0  0  0  0  0  0  0  0  0  0  0
   -6.2481    5.7196  -14.4423 O   0  0  0  0  0  0  0  0  0  0  0  0
   -9.2010    4.5349  -13.7986 H   0  0  0  0  0  0  0  0  0  0  0  0
   -7.6569    4.6875  -15.8762 C   0  0  0  0  0  0  0  0  0  0  0  0
   -9.0043    4.4394  -16.1386 C   0  0  0  0  0  0  0  0  0  0  0  0
   -9.4183    4.2850  -17.4511 C   0  0  0  0  0  0  0  0  0  0  0  0
  -10.7139    4.0640  -17.7093 F   0  0  0  0  0  0  0  0  0  0  0  0
   -8.5207    4.4117  -18.5036 C   0  0  0  0  0  0  0  0  0  0  0  0
   -7.1547    4.5898  -18.2551 C   0  0  0  0  0  0  0  0  0  0  0  0
   -6.7109    4.7154  -16.9262 C   0  0  0  0  0  0  0  0  0  0  0  0
   -5.2247    4.7930  -16.6562 C   0  0  0  0  0  0  0  0  0  0  0  0
   -4.4010    5.3739  -17.8278 C   0  0  0  0  0  0  0  0  0  0  0  0
   -4.5874    6.9098  -17.9034 C   0  0  0  0  0  0  0  0  0  0  0  0
   -3.6547    7.5884  -18.9074 C   0  0  0  0  0  0  0  0  0  0  0  0
   -2.1933    7.2498  -18.6375 C   0  0  0  0  0  0  0  0  0  0  0  0
   -1.9624    5.7453  -18.5637 C   0  0  0  0  0  0  0  0  0  0  0  0
   -2.9033    5.0814  -17.5594 C   0  0  0  0  0  0  0  0  0  0  0  0
   -4.8649    4.6649  -19.1141 C   0  0  0  0  0  0  0  0  0  0  0  0
   -6.2912    4.8134  -19.3316 N   0  0  0  0  0  0  0  0  0  0  0  0
   -6.6428    5.0655  -20.2159 H   0  0  0  0  0  0  0  0  0  0  0  0
   -8.6045    6.9190  -11.8192 C   0  0  0  0  0  0  0  0  0  0  0  0
   -8.5573    7.2853  -10.4706 C   0  0  0  0  0  0  0  0  0  0  0  0
   -8.4970    6.3089   -9.4845 C   0  0  0  0  0  0  0  0  0  0  0  0
   -8.5261    4.9454   -9.7989 C   0  0  0  0  0  0  0  0  0  0  0  0
   -8.5521    4.6039  -11.1653 C   0  0  0  0  0  0  0  0  0  0  0  0
   -8.5410    5.5675  -12.1878 C   0  0  0  0  0  0  0  0  0  0  0  0
   -8.6131    4.0026   -8.7866 N   0  0  0  0  0  0  0  0  0  0  0  0
   -8.8503    2.5767   -9.1134 C   0  0  0  0  0  0  0  0  0  0  0  0
   -9.1590    1.7594   -7.8360 C   0  0  0  0  0  0  0  0  0  0  0  0
   -9.7206    2.5817   -6.7434 N   0  0  0  0  0  0  0  0  0  0  0  0
   -8.6925    3.5669   -6.3470 C   0  0  0  0  0  0  0  0  0  0  0  0
   -7.9047    4.2131   -7.5152 C   0  0  0  0  0  0  0  0  0  0  0  0
   -9.9574    1.9880   -5.9485 H   0  0  0  0  0  0  0  0  0  0  0  0
   -7.5780    8.9089  -13.5149 C   0  0  0  0  0  0  0  0  0  0  0  0
   -9.1085    8.2147  -12.9271 S   0  0  0  0  0  0  0  0  0  0  0  0
   -9.7425    9.2550  -12.1307 O   0  0  0  0  0  0  0  0  0  0  0  0
   -9.8894    7.6082  -13.9866 O   0  0  0  0  0  0  0  0  0  0  0  0
 35 36  1  0  0  0
 36 37  2  0  0  0
 36 38  2  0  0  0
 36 22  1  0  0  0
 22 23  2  0  0  0
 23 24  1  0  0  0
 24 25  2  0  0  0
 25 28  1  0  0  0
 28 29  1  0  0  0
 29 30  1  0  0  0
 30 31  1  0  0  0
 31 32  1  0  0  0
 32 33  1  0  0  0
 25 26  1  0  0  0
 26 27  2  0  0  0
 27  1  1  0  0  0
  1  2  1  0  0  0
  2  3  2  0  0  0
  2  5  1  0  0  0
  5  6  2  0  0  0
  6  7  1  0  0  0
  7  8  1  0  0  0
  7  9  2  0  0  0
  9 10  1  0  0  0
 10 11  2  0  0  0
 11 12  1  0  0  0
 12 13  1  0  0  0
 13 14  1  0  0  0
 14 15  1  0  0  0
 15 16  1  0  0  0
 16 17  1  0  0  0
 17 18  1  0  0  0
 13 19  1  0  0  0
 19 20  1  0  0  0
 27 22  1  0  0  0
 11  5  1  0  0  0
 18 13  1  0  0  0
 33 28  1  0  0  0
 20 10  1  0  0  0
 31 34  1  0  0  0
  1  4  1  0  0  0
 20 21  1  0  0  0
M  END
> <minimizedAffinity>
-9.43147

> <minimizedRMSD>
0.71114

$$$$
P9262


 42 47  0  0  0  0  0  0  0  0999 V2000
   -8.7802    6.8144  -11.6270 C   0  0  0  0  0  0  0  0  0  0  0  0
   -7.8214    5.7531  -12.1500 C   0  0  0  0  0  0  0  0  0  0  0  0
   -7.8099    4.5898  -11.1607 C   0  0  0  0  0  0  0  0  0  0  0  0
   -7.4896    4.9563   -9.6485 C   0  0  0  0  0  0  0  0  0  0  0  0
   -7.1292    6.5420   -9.5247 C   0  0  0  0  0  0  0  0  0  0  0  0
   -5.6462    6.6029  -10.1116 C   0  0  0  0  0  0  0  0  0  0  0  0
   -5.0307    7.9733  -10.3175 C   0  0  0  0  0  0  0  0  0  0  0  0
   -4.7423    8.7294   -8.7438 S   0  0  0  0  0  0  0  0  0  0  0  0
   -4.4379   10.1300   -8.9550 O   0  0  0  0  0  0  0  0  0  0  0  0
   -3.8529    7.8809   -7.9732 O   0  0  0  0  0  0  0  0  0  0  0  0
   -6.3526    8.6105   -8.0431 C   0  0  0  0  0  0  0  0  0  0  0  0
   -6.9666    7.1768   -8.0638 C   0  0  0  0  0  0  0  0  0  0  0  0
   -8.3081    7.3506   -7.3513 C   0  0  0  0  0  0  0  0  0  0  0  0
   -9.1017    8.2081   -8.1518 O   0  0  0  0  0  0  0  0  0  0  0  0
   -9.4621    7.5690   -9.3609 C   0  0  0  0  0  0  0  0  0  0  0  0
   -8.2471    7.3887  -10.2853 C   0  0  0  0  0  0  0  0  0  0  0  0
   -8.4439    4.3363   -8.6704 N   0  0  0  0  0  0  0  0  0  0  0  0
   -8.9313    2.9785   -9.1334 C   0  0  0  0  0  0  0  0  0  0  0  0
   -9.3990    1.9910   -8.0292 C   0  0  0  0  0  0  0  0  0  0  0  0
   -9.8352    2.6934   -6.8170 N   0  0  0  0  0  0  0  0  0  0  0  0
   -8.6846    3.4355   -6.2906 C   0  0  0  0  0  0  0  0  0  0  0  0
   -7.7667    4.0601   -7.3720 C   0  0  0  0  0  0  0  0  0  0  0  0
  -10.1604    2.0196   -6.1236 H   0  0  0  0  0  0  0  0  0  0  0  0
   -9.9585    9.4202  -12.0283 C   0  0  0  0  0  0  0  0  0  0  0  0
   -9.1218    8.0891  -12.8469 S   0  0  0  0  0  0  0  0  0  0  0  0
  -10.1033    7.5294  -13.7610 O   0  0  0  0  0  0  0  0  0  0  0  0
   -7.8597    8.6361  -13.3035 O   0  0  0  0  0  0  0  0  0  0  0  0
   -7.9268    5.3069  -13.5183 N   0  0  0  0  0  0  0  0  0  0  0  0
   -7.0046    5.5557  -14.7238 C   0  0  0  0  0  0  0  0  0  0  0  0
   -5.9742    6.0955  -14.7874 O   0  0  0  0  0  0  0  0  0  0  0  0
   -8.7176    4.7532  -13.7116 H   0  0  0  0  0  0  0  0  0  0  0  0
   -7.4738    4.9209  -15.9854 C   0  0  0  0  0  0  0  0  0  0  0  0
   -8.8310    4.6676  -16.1806 C   0  0  0  0  0  0  0  0  0  0  0  0
   -9.2688    4.3641  -17.4614 C   0  0  0  0  0  0  0  0  0  0  0  0
  -10.5727    4.1441  -17.6842 F   0  0  0  0  0  0  0  0  0  0  0  0
   -8.3885    4.3471  -18.5351 C   0  0  0  0  0  0  0  0  0  0  0  0
   -7.0321    4.5615  -18.3552 C   0  0  0  0  0  0  0  0  0  0  0  0
   -6.2298    4.5476  -19.4311 N   0  0  0  0  0  0  0  0  0  0  0  0
   -4.9066    4.7422  -19.2663 C   0  0  0  0  0  0  0  0  0  0  0  0
   -4.3093    4.9197  -18.0413 C   0  0  0  0  0  0  0  0  0  0  0  0
   -5.1383    4.9488  -16.9309 C   0  0  0  0  0  0  0  0  0  0  0  0
   -6.5436    4.8060  -17.0595 C   0  0  0  0  0  0  0  0  0  0  0  0
 24 25  1  0  0  0
 25 26  2  0  0  0
 25 27  2  0  0  0
  1 25  1  0  0  0
  1  2  1  0  0  0
  2 28  1  0  0  0
 28 29  1  0  0  0
 29 30  2  0  0  0
 29 32  1  0  0  0
 32 33  2  0  0  0
 33 34  1  0  0  0
 34 35  1  0  0  0
 34 36  2  0  0  0
 36 37  1  0  0  0
 37 38  2  0  0  0
 38 39  1  0  0  0
 39 40  2  0  0  0
 40 41  1  0  0  0
 41 42  2  0  0  0
  2  3  1  0  0  0
  3  4  1  0  0  0
  4 17  1  0  0  0
 17 18  1  0  0  0
 18 19  1  0  0  0
 19 20  1  0  0  0
 20 21  1  0  0  0
 21 22  1  0  0  0
  4  5  1  0  0  0
  5  6  1  0  0  0
  6  7  1  0  0  0
  7  8  1  0  0  0
  8  9  2  0  0  0
  8 10  2  0  0  0
  8 11  1  0  0  0
 12 11  1  0  0  0
 12 13  1  0  0  0
 13 14  1  0  0  0
 14 15  1  0  0  0
 16 15  1  0  0  0
 16  1  1  0  0  0
 42 32  1  0  0  0
 22 17  1  0  0  0
 12  5  1  0  0  0
 42 37  1  0  0  0
 16  5  1  0  0  0
 28 31  1  0  0  0
 20 23  1  0  0  0
M  END
> <minimizedAffinity>
-9.11572

> <minimizedRMSD>
0.43601

$$$$
P9269


 39 44  0  0  0  0  0  0  0  0999 V2000
   -8.5588    7.1133  -11.4644 C   0  0  0  0  0  0  0  0  0  0  0  0
   -8.0832    5.7242  -11.9770 C   0  0  0  0  0  0  0  0  0  0  0  0
   -8.5011    4.6994  -10.9335 C   0  0  0  0  0  0  0  0  0  0  0  0
   -7.8319    4.9767   -9.5294 C   0  0  0  0  0  0  0  0  0  0  0  0
   -7.6980    6.5355   -9.1510 C   0  0  0  0  0  0  0  0  0  0  0  0
   -8.9005    7.0553   -8.2657 C   0  0  0  0  0  0  0  0  0  0  0  0
   -8.5415    7.7888   -6.9567 C   0  0  0  0  0  0  0  0  0  0  0  0
   -8.0334    9.0932   -7.1850 O   0  0  0  0  0  0  0  0  0  0  0  0
   -6.6494    9.1389   -7.4942 C   0  0  0  0  0  0  0  0  0  0  0  0
   -6.2778    8.4079   -8.6965 N   0  0  0  0  0  0  0  0  0  0  0  0
   -7.1551    8.7834   -9.8428 C   0  0  0  0  0  0  0  0  0  0  0  0
   -7.5036    7.4268  -10.4146 C   0  0  0  0  0  0  0  0  0  0  0  0
   -6.3578    6.9369   -8.5046 C   0  0  0  0  0  0  0  0  0  0  0  0
   -8.4947    4.1693   -8.4751 N   0  0  0  0  0  0  0  0  0  0  0  0
   -8.8587    2.7870   -8.8736 C   0  0  0  0  0  0  0  0  0  0  0  0
   -9.3118    1.8589   -7.7182 C   0  0  0  0  0  0  0  0  0  0  0  0
   -9.6840    2.5586   -6.4832 N   0  0  0  0  0  0  0  0  0  0  0  0
   -8.5748    3.4215   -6.0617 C   0  0  0  0  0  0  0  0  0  0  0  0
   -7.7861    4.1301   -7.1939 C   0  0  0  0  0  0  0  0  0  0  0  0
   -9.8819    1.8762   -5.7513 H   0  0  0  0  0  0  0  0  0  0  0  0
   -9.8129    9.5909  -11.8190 C   0  0  0  0  0  0  0  0  0  0  0  0
   -8.8916    8.3459  -12.6857 S   0  0  0  0  0  0  0  0  0  0  0  0
   -9.8414    7.7839  -13.6326 O   0  0  0  0  0  0  0  0  0  0  0  0
   -7.6556    8.9699  -13.1108 O   0  0  0  0  0  0  0  0  0  0  0  0
   -8.2203    5.3894  -13.3665 N   0  0  0  0  0  0  0  0  0  0  0  0
   -7.2750    5.6481  -14.5559 C   0  0  0  0  0  0  0  0  0  0  0  0
   -6.2728    6.2409  -14.6090 O   0  0  0  0  0  0  0  0  0  0  0  0
   -9.0534    4.9181  -13.5969 H   0  0  0  0  0  0  0  0  0  0  0  0
   -7.6850    4.9987  -15.8340 C   0  0  0  0  0  0  0  0  0  0  0  0
   -9.0344    4.7665  -16.0867 C   0  0  0  0  0  0  0  0  0  0  0  0
   -9.4273    4.4544  -17.3789 C   0  0  0  0  0  0  0  0  0  0  0  0
  -10.7257    4.2518  -17.6454 F   0  0  0  0  0  0  0  0  0  0  0  0
   -8.5061    4.4060  -18.4162 C   0  0  0  0  0  0  0  0  0  0  0  0
   -7.1546    4.5999  -18.1849 C   0  0  0  0  0  0  0  0  0  0  0  0
   -6.3137    4.5524  -19.2313 N   0  0  0  0  0  0  0  0  0  0  0  0
   -4.9941    4.7235  -19.0211 C   0  0  0  0  0  0  0  0  0  0  0  0
   -4.4406    4.9154  -17.7779 C   0  0  0  0  0  0  0  0  0  0  0  0
   -5.3101    4.9788  -16.6988 C   0  0  0  0  0  0  0  0  0  0  0  0
   -6.7133    4.8563  -16.8728 C   0  0  0  0  0  0  0  0  0  0  0  0
 21 22  1  0  0  0
 22 23  2  0  0  0
 22 24  2  0  0  0
  1 22  1  0  0  0
  1  2  1  0  0  0
  2 25  1  0  0  0
 25 26  1  0  0  0
 26 27  2  0  0  0
 26 29  1  0  0  0
 29 30  2  0  0  0
 30 31  1  0  0  0
 31 32  1  0  0  0
 31 33  2  0  0  0
 33 34  1  0  0  0
 34 35  2  0  0  0
 35 36  1  0  0  0
 36 37  2  0  0  0
 37 38  1  0  0  0
 38 39  2  0  0  0
  2  3  1  0  0  0
  3  4  1  0  0  0
  4 14  1  0  0  0
 14 15  1  0  0  0
 15 16  1  0  0  0
 16 17  1  0  0  0
 17 18  1  0  0  0
 18 19  1  0  0  0
  4  5  1  0  0  0
  5  6  1  0  0  0
  6  7  1  0  0  0
  7  8  1  0  0  0
  8  9  1  0  0  0
  9 10  1  0  0  0
 10 11  1  0  0  0
 12 11  1  0  0  0
 10 13  1  0  0  0
 12  1  1  0  0  0
 39 29  1  0  0  0
 19 14  1  0  0  0
 12  5  1  0  0  0
 39 34  1  0  0  0
 13  5  1  0  0  0
 25 28  1  0  0  0
 17 20  1  0  0  0
M  END
> <minimizedAffinity>
-8.78185

> <minimizedRMSD>
0.34442

$$$$
P9270


 37 42  0  0  0  0  0  0  0  0999 V2000
   -8.6207    6.7224  -11.6442 C   0  0  0  0  0  0  0  0  0  0  0  0
   -7.4556    7.1286  -10.7542 C   0  0  0  0  0  0  0  0  0  0  0  0
   -7.5472    6.2878   -9.4831 C   0  0  0  0  0  0  0  0  0  0  0  0
   -6.2345    6.8080   -8.3296 S   0  0  0  0  0  0  0  0  0  0  0  0
   -7.0142    6.4533   -6.7213 C   0  0  0  0  0  0  0  0  0  0  0  0
   -8.1905    5.4799   -6.6360 C   0  0  0  0  0  0  0  0  0  0  0  0
   -7.9624    4.1255   -7.3110 C   0  0  0  0  0  0  0  0  0  0  0  0
   -8.8064    3.1143   -6.6655 N   0  0  0  0  0  0  0  0  0  0  0  0
   -8.7787    1.9688   -7.5540 C   0  0  0  0  0  0  0  0  0  0  0  0
  -10.0459    1.3524   -7.2980 N   0  0  0  0  0  0  0  0  0  0  0  0
   -8.5602    2.5128   -8.9679 C   0  0  0  0  0  0  0  0  0  0  0  0
   -8.4145    4.0260   -8.7807 C   0  0  0  0  0  0  0  0  0  0  0  0
   -7.4693    4.7634   -9.7505 C   0  0  0  0  0  0  0  0  0  0  0  0
   -7.6138    4.3899  -11.2479 C   0  0  0  0  0  0  0  0  0  0  0  0
   -8.5010    5.2807  -12.1499 C   0  0  0  0  0  0  0  0  0  0  0  0
   -9.7599    3.4604   -6.5584 H   0  0  0  0  0  0  0  0  0  0  0  0
  -10.7896    2.0390   -7.4240 H   0  0  0  0  0  0  0  0  0  0  0  0
  -10.0660    1.0013   -6.3406 H   0  0  0  0  0  0  0  0  0  0  0  0
   -8.1405    5.1314  -13.5597 N   0  0  0  0  0  0  0  0  0  0  0  0
   -9.1754    4.8811  -14.5164 N   0  0  0  0  0  0  0  0  0  0  0  0
   -8.4574    4.7191  -15.7248 C   0  0  0  0  0  0  0  0  0  0  0  0
   -8.9824    4.4862  -16.9781 C   0  0  0  0  0  0  0  0  0  0  0  0
   -8.0963    4.4449  -18.0649 C   0  0  0  0  0  0  0  0  0  0  0  0
   -6.7142    4.6166  -17.9139 C   0  0  0  0  0  0  0  0  0  0  0  0
   -5.9229    4.5901  -18.9969 N   0  0  0  0  0  0  0  0  0  0  0  0
   -4.5920    4.7428  -18.8362 C   0  0  0  0  0  0  0  0  0  0  0  0
   -3.9824    4.9429  -17.6144 C   0  0  0  0  0  0  0  0  0  0  0  0
   -4.7935    4.9992  -16.4910 C   0  0  0  0  0  0  0  0  0  0  0  0
   -6.1850    4.8381  -16.6261 C   0  0  0  0  0  0  0  0  0  0  0  0
   -7.0888    4.8946  -15.5677 C   0  0  0  0  0  0  0  0  0  0  0  0
   -6.8995    5.2272  -14.1550 C   0  0  0  0  0  0  0  0  0  0  0  0
   -5.8647    5.6083  -13.6398 O   0  0  0  0  0  0  0  0  0  0  0  0
  -10.1478    4.8334  -14.3697 H   0  0  0  0  0  0  0  0  0  0  0  0
   -7.6129    8.4837  -13.6638 C   0  0  0  0  0  0  0  0  0  0  0  0
   -9.0953    7.9704  -12.8194 S   0  0  0  0  0  0  0  0  0  0  0  0
   -9.5448    9.1229  -12.0575 O   0  0  0  0  0  0  0  0  0  0  0  0
  -10.0093    7.3836  -13.7848 O   0  0  0  0  0  0  0  0  0  0  0  0
 34 35  1  0  0  0
 35 36  2  0  0  0
 35 37  2  0  0  0
  1 35  1  0  0  0
  1  2  1  0  0  0
  3  2  1  0  0  0
  3  4  1  0  0  0
  4  5  1  0  0  0
  5  6  1  0  0  0
  7  6  1  0  0  0
  7  8  1  0  0  0
  8  9  1  0  0  0
  9 10  1  0  0  0
  9 11  1  0  0  0
 12 11  1  0  0  0
 12 13  1  0  0  0
 13 14  1  0  0  0
 14 15  1  0  0  0
 15 19  1  0  0  0
 19 20  1  0  0  0
 20 21  1  0  0  0
 21 22  2  0  0  0
 22 23  1  0  0  0
 23 24  2  0  0  0
 24 25  1  0  0  0
 25 26  2  0  0  0
 26 27  1  0  0  0
 27 28  2  0  0  0
 28 29  1  0  0  0
 29 30  2  0  0  0
 30 31  1  0  0  0
 31 32  2  0  0  0
 15  1  1  0  0  0
 31 19  1  0  0  0
 13  3  1  0  0  0
 30 21  1  0  0  0
 12  7  1  0  0  0
 29 24  1  0  0  0
  8 16  1  0  0  0
 10 17  1  0  0  0
 10 18  1  0  0  0
 20 33  1  0  0  0
M  END
> <minimizedAffinity>
-9.71505

> <minimizedRMSD>
0.30554

$$$$
P9273


 42 46  0  0  0  0  0  0  0  0999 V2000
   -2.5069    7.4487  -17.9268 C   0  0  0  0  0  0  0  0  0  0  0  0
   -1.9077    6.1083  -18.0227 N   0  0  0  0  0  0  0  0  0  0  0  0
   -2.6619    5.1955  -17.1596 N   0  0  0  0  0  0  0  0  0  0  0  0
   -4.1063    5.3987  -17.4772 C   0  0  0  0  0  0  0  0  0  0  0  0
   -4.5002    4.6843  -18.7892 C   0  0  0  0  0  0  0  0  0  0  0  0
   -5.9292    4.7629  -19.0652 N   0  0  0  0  0  0  0  0  0  0  0  0
   -6.8288    4.5545  -18.0196 C   0  0  0  0  0  0  0  0  0  0  0  0
   -8.1798    4.3563  -18.3267 C   0  0  0  0  0  0  0  0  0  0  0  0
   -9.1230    4.2411  -17.3158 C   0  0  0  0  0  0  0  0  0  0  0  0
  -10.4074    4.0280  -17.6307 F   0  0  0  0  0  0  0  0  0  0  0  0
   -8.7681    4.4061  -15.9872 C   0  0  0  0  0  0  0  0  0  0  0  0
   -7.4365    4.6677  -15.6616 C   0  0  0  0  0  0  0  0  0  0  0  0
   -6.4457    4.7075  -16.6713 C   0  0  0  0  0  0  0  0  0  0  0  0
   -4.9708    4.8267  -16.3382 C   0  0  0  0  0  0  0  0  0  0  0  0
   -4.2768    7.2271  -17.5997 S   0  0  0  0  0  0  0  0  0  0  0  0
   -0.9350    6.1442  -17.7179 H   0  0  0  0  0  0  0  0  0  0  0  0
   -2.4840    5.4119  -16.1788 H   0  0  0  0  0  0  0  0  0  0  0  0
   -6.2538    4.9597  -19.9735 H   0  0  0  0  0  0  0  0  0  0  0  0
   -7.1502    5.1892  -14.2958 C   0  0  0  0  0  0  0  0  0  0  0  0
   -6.1164    5.7122  -14.1512 O   0  0  0  0  0  0  0  0  0  0  0  0
   -8.3269    5.0071  -13.3108 N   0  0  0  0  0  0  0  0  0  0  0  0
   -9.0685    4.4565  -13.6518 H   0  0  0  0  0  0  0  0  0  0  0  0
   -8.5105    5.4989  -12.0093 C   0  0  0  0  0  0  0  0  0  0  0  0
   -8.5016    4.5437  -10.9797 C   0  0  0  0  0  0  0  0  0  0  0  0
   -8.5402    4.8979   -9.6163 C   0  0  0  0  0  0  0  0  0  0  0  0
   -8.6050    6.2637   -9.3148 C   0  0  0  0  0  0  0  0  0  0  0  0
   -8.6897    7.2273  -10.3113 C   0  0  0  0  0  0  0  0  0  0  0  0
   -8.6663    6.8476  -11.6562 C   0  0  0  0  0  0  0  0  0  0  0  0
   -8.5975    3.9601   -8.5981 N   0  0  0  0  0  0  0  0  0  0  0  0
   -8.9603    2.5549   -8.8934 C   0  0  0  0  0  0  0  0  0  0  0  0
   -9.2065    1.7575   -7.5906 C   0  0  0  0  0  0  0  0  0  0  0  0
   -9.6370    2.6083   -6.4625 N   0  0  0  0  0  0  0  0  0  0  0  0
   -8.5361    3.5436   -6.1528 C   0  0  0  0  0  0  0  0  0  0  0  0
   -7.7924    4.1301   -7.3795 C   0  0  0  0  0  0  0  0  0  0  0  0
   -9.8382    2.0281   -5.6481 H   0  0  0  0  0  0  0  0  0  0  0  0
   -9.2135    8.0988  -12.7958 S   0  0  0  0  0  0  0  0  0  0  0  0
   -7.7081    8.8044  -13.4313 C   0  0  0  0  0  0  0  0  0  0  0  0
   -9.8574    9.1489  -12.0210 O   0  0  0  0  0  0  0  0  0  0  0  0
   -9.9959    7.4418  -13.8236 O   0  0  0  0  0  0  0  0  0  0  0  0
   -3.0362    7.9465  -20.4120 C   0  0  0  0  0  0  0  0  0  0  0  0
   -2.2256    8.3281  -19.1667 C   0  0  0  0  0  0  0  0  0  0  0  0
   -0.7310    8.3182  -19.5149 C   0  0  0  0  0  0  0  0  0  0  0  0
 40 41  1  0  0  0
 41 42  1  0  0  0
  1 41  1  0  0  0
  1  2  1  0  0  0
  2  3  1  0  0  0
  3  4  1  0  0  0
  4  5  1  0  0  0
  5  6  1  0  0  0
  6  7  1  0  0  0
  7  8  2  0  0  0
  8  9  1  0  0  0
  9 10  1  0  0  0
  9 11  2  0  0  0
 11 12  1  0  0  0
 12 19  1  0  0  0
 19 20  2  0  0  0
 19 21  1  0  0  0
 21 23  1  0  0  0
 23 24  2  0  0  0
 24 25  1  0  0  0
 25 29  1  0  0  0
 29 30  1  0  0  0
 30 31  1  0  0  0
 31 32  1  0  0  0
 32 33  1  0  0  0
 33 34  1  0  0  0
 25 26  2  0  0  0
 26 27  1  0  0  0
 27 28  2  0  0  0
 28 36  1  0  0  0
 36 37  1  0  0  0
 36 38  2  0  0  0
 36 39  2  0  0  0
 12 13  2  0  0  0
 13 14  1  0  0  0
  4 15  1  0  0  0
 15  1  1  0  0  0
 14  4  1  0  0  0
 13  7  1  0  0  0
 28 23  1  0  0  0
 34 29  1  0  0  0
  2 16  1  0  0  0
  3 17  1  0  0  0
  6 18  1  0  0  0
 21 22  1  0  0  0
 32 35  1  0  0  0
M  END
> <minimizedAffinity>
-8.87129

> <minimizedRMSD>
0.46270

$$$$
P9276


 41 44  0  0  0  0  0  0  0  0999 V2000
   -7.5067    6.2288  -14.5254 C   0  0  0  0  0  0  0  0  0  0  0  0
   -6.8294    7.1829  -14.5239 O   0  0  0  0  0  0  0  0  0  0  0  0
   -8.3422    5.5866  -13.3852 N   0  0  0  0  0  0  0  0  0  0  0  0
   -8.7719    4.7324  -13.6198 H   0  0  0  0  0  0  0  0  0  0  0  0
   -3.3214    5.3141  -19.4805 C   0  0  0  0  0  0  0  0  0  0  0  0
   -4.3530    4.6165  -18.5997 C   0  0  0  0  0  0  0  0  0  0  0  0
   -5.6864    5.1232  -18.9528 N   0  0  0  0  0  0  0  0  0  0  0  0
   -6.6971    4.6552  -18.0161 C   0  0  0  0  0  0  0  0  0  0  0  0
   -8.1293    4.8038  -18.5049 C   0  0  0  0  0  0  0  0  0  0  0  0
   -9.0814    4.1663  -17.4901 C   0  0  0  0  0  0  0  0  0  0  0  0
  -10.3262    4.6697  -17.6888 F   0  0  0  0  0  0  0  0  0  0  0  0
   -8.6690    4.3428  -16.0182 C   0  0  0  0  0  0  0  0  0  0  0  0
   -7.7192    5.5173  -15.8573 C   0  0  0  0  0  0  0  0  0  0  0  0
   -6.4271    5.4065  -16.6985 C   0  0  0  0  0  0  0  0  0  0  0  0
   -5.1770    4.7445  -16.0787 C   0  0  0  0  0  0  0  0  0  0  0  0
   -4.0059    4.7769  -17.1096 C   0  0  0  0  0  0  0  0  0  0  0  0
   -2.8214    4.7655  -16.7532 O   0  0  0  0  0  0  0  0  0  0  0  0
   -5.9270    4.7998  -19.8897 H   0  0  0  0  0  0  0  0  0  0  0  0
   -4.9146    5.1647  -14.7468 O   0  0  0  0  0  0  0  0  0  0  0  0
   -3.7817    6.0242  -14.5758 C   0  0  0  0  0  0  0  0  0  0  0  0
   -3.6398    6.3518  -13.0916 C   0  0  0  0  0  0  0  0  0  0  0  0
   -2.3937    7.1696  -12.7893 C   0  0  0  0  0  0  0  0  0  0  0  0
   -2.3594    8.3577  -13.5653 O   0  0  0  0  0  0  0  0  0  0  0  0
   -2.3453    8.1281  -14.5076 H   0  0  0  0  0  0  0  0  0  0  0  0
   -8.5843    6.0252  -12.0759 C   0  0  0  0  0  0  0  0  0  0  0  0
   -8.4358    5.0649  -11.0584 C   0  0  0  0  0  0  0  0  0  0  0  0
   -8.5272    5.3896   -9.6915 C   0  0  0  0  0  0  0  0  0  0  0  0
   -8.7673    6.7331   -9.3778 C   0  0  0  0  0  0  0  0  0  0  0  0
   -8.9766    7.6930  -10.3642 C   0  0  0  0  0  0  0  0  0  0  0  0
   -8.9366    7.3321  -11.7122 C   0  0  0  0  0  0  0  0  0  0  0  0
   -8.4662    4.4403   -8.6805 N   0  0  0  0  0  0  0  0  0  0  0  0
   -8.7780    3.0196   -8.9744 C   0  0  0  0  0  0  0  0  0  0  0  0
   -8.8357    2.1790   -7.6743 C   0  0  0  0  0  0  0  0  0  0  0  0
   -9.1630    2.9808   -6.4763 N   0  0  0  0  0  0  0  0  0  0  0  0
   -8.0782    3.9646   -6.2763 C   0  0  0  0  0  0  0  0  0  0  0  0
   -7.5149    4.6104   -7.5694 C   0  0  0  0  0  0  0  0  0  0  0  0
   -9.2334    2.3722   -5.6608 H   0  0  0  0  0  0  0  0  0  0  0  0
   -9.6754    8.4615  -12.8690 S   0  0  0  0  0  0  0  0  0  0  0  0
  -10.8820    9.3974  -11.9849 C   0  0  0  0  0  0  0  0  0  0  0  0
  -10.4524    7.6661  -13.8056 O   0  0  0  0  0  0  0  0  0  0  0  0
   -8.6641    9.4188  -13.2739 O   0  0  0  0  0  0  0  0  0  0  0  0
  6  5  1  0  0  0
  6  7  1  0  0  0
  7  8  1  0  0  0
  8  9  1  0  0  0
  9 10  1  0  0  0
 10 11  1  0  0  0
 10 12  1  0  0  0
 12 13  1  0  0  0
 13  1  1  0  0  0
  1  2  2  0  0  0
  1  3  1  0  0  0
  3 25  1  0  0  0
 25 26  2  0  0  0
 26 27  1  0  0  0
 27 31  1  0  0  0
 31 32  1  0  0  0
 32 33  1  0  0  0
 33 34  1  0  0  0
 34 35  1  0  0  0
 35 36  1  0  0  0
 27 28  2  0  0  0
 28 29  1  0  0  0
 29 30  2  0  0  0
 30 38  1  0  0  0
 38 39  1  0  0  0
 38 40  2  0  0  0
 38 41  2  0  0  0
 14 13  1  0  0  0
 14 15  1  0  0  0
 15 19  1  0  0  0
 19 20  1  0  0  0
 20 21  1  0  0  0
 21 22  1  0  0  0
 22 23  1  0  0  0
 15 16  1  0  0  0
 16 17  2  0  0  0
 16  6  1  0  0  0
 14  8  1  0  0  0
 30 25  1  0  0  0
 36 31  1  0  0  0
  7 18  1  0  0  0
  3  4  1  0  0  0
 34 37  1  0  0  0
 23 24  1  0  0  0
M  END
> <minimizedAffinity>
-7.30628

> <minimizedRMSD>
0.57705

$$$$
P9278


 35 38  0  0  0  0  0  0  0  0999 V2000
   -8.8338    8.6465   -9.9496 C   0  0  0  0  0  0  0  0  0  0  0  0
   -8.6686    7.2219  -10.4099 C   0  0  0  0  0  0  0  0  0  0  0  0
   -8.5339    6.2534   -9.4060 C   0  0  0  0  0  0  0  0  0  0  0  0
   -8.4431    4.8757   -9.6602 C   0  0  0  0  0  0  0  0  0  0  0  0
   -8.4003    4.4984  -11.0142 C   0  0  0  0  0  0  0  0  0  0  0  0
   -8.4874    5.4339  -12.0617 C   0  0  0  0  0  0  0  0  0  0  0  0
   -8.7085    6.7929  -11.7483 C   0  0  0  0  0  0  0  0  0  0  0  0
   -8.3822    3.9604   -8.6115 N   0  0  0  0  0  0  0  0  0  0  0  0
   -8.5062    4.4312   -7.2271 C   0  0  0  0  0  0  0  0  0  0  0  0
   -8.2363    3.3493   -6.1811 C   0  0  0  0  0  0  0  0  0  0  0  0
   -9.0938    2.1777   -6.3015 N   0  0  0  0  0  0  0  0  0  0  0  0
   -9.3154    1.8053   -7.7081 C   0  0  0  0  0  0  0  0  0  0  0  0
   -8.4999    2.5147   -8.8577 C   0  0  0  0  0  0  0  0  0  0  0  0
   -7.2594    1.8012   -9.0967 N   0  0  0  0  0  0  0  0  0  0  0  0
   -9.9944    2.3816   -5.8681 H   0  0  0  0  0  0  0  0  0  0  0  0
   -6.6941    1.8085   -8.2478 H   0  0  0  0  0  0  0  0  0  0  0  0
   -6.7456    2.2560   -9.8514 H   0  0  0  0  0  0  0  0  0  0  0  0
   -8.3014    4.9316  -13.3608 N   0  0  0  0  0  0  0  0  0  0  0  0
   -7.1038    5.0744  -14.3326 C   0  0  0  0  0  0  0  0  0  0  0  0
   -6.0548    5.5664  -14.1753 O   0  0  0  0  0  0  0  0  0  0  0  0
   -9.0549    4.4029  -13.7100 H   0  0  0  0  0  0  0  0  0  0  0  0
   -7.3961    4.5848  -15.7129 C   0  0  0  0  0  0  0  0  0  0  0  0
   -8.7369    4.3766  -16.0547 C   0  0  0  0  0  0  0  0  0  0  0  0
   -9.0996    4.2611  -17.3908 C   0  0  0  0  0  0  0  0  0  0  0  0
   -8.1245    4.3763  -18.3810 C   0  0  0  0  0  0  0  0  0  0  0  0
   -6.7820    4.5539  -18.0738 C   0  0  0  0  0  0  0  0  0  0  0  0
   -5.9026    4.6641  -19.0847 N   0  0  0  0  0  0  0  0  0  0  0  0
   -4.5973    4.8244  -18.7968 C   0  0  0  0  0  0  0  0  0  0  0  0
   -4.1021    4.8871  -17.5139 C   0  0  0  0  0  0  0  0  0  0  0  0
   -5.0116    4.7985  -16.4681 C   0  0  0  0  0  0  0  0  0  0  0  0
   -6.3941    4.6389  -16.7200 C   0  0  0  0  0  0  0  0  0  0  0  0
   -9.3533    7.9258  -12.9774 S   0  0  0  0  0  0  0  0  0  0  0  0
   -7.9226    8.8425  -13.5123 C   0  0  0  0  0  0  0  0  0  0  0  0
  -10.2363    8.8758  -12.3195 O   0  0  0  0  0  0  0  0  0  0  0  0
   -9.9216    7.1450  -14.0597 O   0  0  0  0  0  0  0  0  0  0  0  0
  1  2  1  0  0  0
  2  3  2  0  0  0
  3  4  1  0  0  0
  4  8  1  0  0  0
  8  9  1  0  0  0
  9 10  1  0  0  0
 10 11  1  0  0  0
 11 12  1  0  0  0
 12 13  1  0  0  0
 13 14  1  0  0  0
  4  5  2  0  0  0
  5  6  1  0  0  0
  6 18  1  0  0  0
 18 19  1  0  0  0
 19 20  2  0  0  0
 19 22  1  0  0  0
 22 23  2  0  0  0
 23 24  1  0  0  0
 24 25  2  0  0  0
 25 26  1  0  0  0
 26 27  2  0  0  0
 27 28  1  0  0  0
 28 29  2  0  0  0
 29 30  1  0  0  0
 30 31  2  0  0  0
  6  7  2  0  0  0
  7 32  1  0  0  0
 32 33  1  0  0  0
 32 34  2  0  0  0
 32 35  2  0  0  0
  7  2  1  0  0  0
 13  8  1  0  0  0
 31 22  1  0  0  0
 31 26  1  0  0  0
 11 15  1  0  0  0
 14 16  1  0  0  0
 14 17  1  0  0  0
 18 21  1  0  0  0
M  END
> <minimizedAffinity>
-9.57890

> <minimizedRMSD>
0.58237

$$$$
P9280


 36 39  0  0  0  0  0  0  0  0999 V2000
   -8.4992    6.7790  -11.7462 C   0  0  0  0  0  0  0  0  0  0  0  0
   -8.5625    7.1635  -10.4085 C   0  0  0  0  0  0  0  0  0  0  0  0
   -8.5750    6.1942   -9.4198 C   0  0  0  0  0  0  0  0  0  0  0  0
   -8.5583    4.8237   -9.7244 C   0  0  0  0  0  0  0  0  0  0  0  0
   -8.4745    4.4611  -11.0787 C   0  0  0  0  0  0  0  0  0  0  0  0
   -8.3932    5.4230  -12.0948 C   0  0  0  0  0  0  0  0  0  0  0  0
   -8.7067    3.9051   -8.6923 N   0  0  0  0  0  0  0  0  0  0  0  0
   -8.5232    2.4581   -8.9368 C   0  0  0  0  0  0  0  0  0  0  0  0
   -9.1930    1.6537   -7.7976 C   0  0  0  0  0  0  0  0  0  0  0  0
   -8.7773    2.0556   -6.4368 N   0  0  0  0  0  0  0  0  0  0  0  0
   -8.9723    3.5262   -6.2751 C   0  0  0  0  0  0  0  0  0  0  0  0
   -8.2380    4.3280   -7.3621 C   0  0  0  0  0  0  0  0  0  0  0  0
   -7.7932    1.8253   -6.2993 H   0  0  0  0  0  0  0  0  0  0  0  0
   -8.3424    3.9699   -4.9625 C   0  0  0  0  0  0  0  0  0  0  0  0
   -8.6672    4.9488   -4.3087 O   0  0  0  0  0  0  0  0  0  0  0  0
   -7.2848    3.1861   -4.6304 O   0  0  0  0  0  0  0  0  0  0  0  0
   -7.0682    2.4432   -5.1586 H   0  0  0  0  0  0  0  0  0  0  0  0
   -7.4084    8.6752  -13.5103 C   0  0  0  0  0  0  0  0  0  0  0  0
   -8.9573    8.0429  -12.9076 S   0  0  0  0  0  0  0  0  0  0  0  0
   -9.5819    9.1239  -12.1604 O   0  0  0  0  0  0  0  0  0  0  0  0
   -9.7293    7.4067  -13.9564 O   0  0  0  0  0  0  0  0  0  0  0  0
   -8.2053    4.9487  -13.3971 N   0  0  0  0  0  0  0  0  0  0  0  0
   -6.9614    4.9961  -14.3130 C   0  0  0  0  0  0  0  0  0  0  0  0
   -5.8761    5.3691  -14.0967 O   0  0  0  0  0  0  0  0  0  0  0  0
   -8.9939    4.5140  -13.7951 H   0  0  0  0  0  0  0  0  0  0  0  0
   -7.2535    4.5846  -15.7107 C   0  0  0  0  0  0  0  0  0  0  0  0
   -8.5974    4.4757  -16.0630 C   0  0  0  0  0  0  0  0  0  0  0  0
   -8.9374    4.4487  -17.4048 C   0  0  0  0  0  0  0  0  0  0  0  0
  -10.5902    4.4441  -17.8329 Cl  0  0  0  0  0  0  0  0  0  0  0  0
   -7.9634    4.5283  -18.3924 C   0  0  0  0  0  0  0  0  0  0  0  0
   -6.6211    4.6067  -18.0648 C   0  0  0  0  0  0  0  0  0  0  0  0
   -5.7276    4.7017  -19.0624 N   0  0  0  0  0  0  0  0  0  0  0  0
   -4.4186    4.7788  -18.7584 C   0  0  0  0  0  0  0  0  0  0  0  0
   -3.9349    4.7700  -17.4694 C   0  0  0  0  0  0  0  0  0  0  0  0
   -4.8577    4.6948  -16.4344 C   0  0  0  0  0  0  0  0  0  0  0  0
   -6.2420    4.6195  -16.7055 C   0  0  0  0  0  0  0  0  0  0  0  0
 18 19  1  0  0  0
 19 20  2  0  0  0
 19 21  2  0  0  0
 19  1  1  0  0  0
  1  2  2  0  0  0
  2  3  1  0  0  0
  3  4  2  0  0  0
  4  7  1  0  0  0
  7  8  1  0  0  0
  8  9  1  0  0  0
  9 10  1  0  0  0
 10 11  1  0  0  0
 11 14  1  0  0  0
 14 15  2  0  0  0
 14 16  1  0  0  0
 11 12  1  0  0  0
  4  5  1  0  0  0
  5  6  2  0  0  0
  6 22  1  0  0  0
 22 23  1  0  0  0
 23 24  2  0  0  0
 23 26  1  0  0  0
 26 27  2  0  0  0
 27 28  1  0  0  0
 28 29  1  0  0  0
 28 30  2  0  0  0
 30 31  1  0  0  0
 31 32  2  0  0  0
 32 33  1  0  0  0
 33 34  2  0  0  0
 34 35  1  0  0  0
 35 36  2  0  0  0
  6  1  1  0  0  0
 36 26  1  0  0  0
 12  7  1  0  0  0
 36 31  1  0  0  0
 10 13  1  0  0  0
 16 17  1  0  0  0
 22 25  1  0  0  0
M  END
> <minimizedAffinity>
-9.92694

> <minimizedRMSD>
0.62843

$$$$
P9281


 39 42  0  0  0  0  0  0  0  0999 V2000
   -7.9024    4.9121  -14.1747 C   0  0  0  0  0  0  0  0  0  0  0  0
   -7.4788    3.8763  -13.8471 O   0  0  0  0  0  0  0  0  0  0  0  0
   -8.4363    6.0933  -13.3239 N   0  0  0  0  0  0  0  0  0  0  0  0
   -8.8141    6.8387  -13.8444 H   0  0  0  0  0  0  0  0  0  0  0  0
   -4.2240    6.2020  -17.9026 C   0  0  0  0  0  0  0  0  0  0  0  0
   -5.2747    5.2897  -18.3204 N   0  0  0  0  0  0  0  0  0  0  0  0
   -6.6341    5.6503  -17.8982 C   0  0  0  0  0  0  0  0  0  0  0  0
   -7.5419    4.5734  -18.4783 C   0  0  0  0  0  0  0  0  0  0  0  0
   -8.9148    4.4854  -17.8719 C   0  0  0  0  0  0  0  0  0  0  0  0
   -9.5724    3.4234  -18.4154 F   0  0  0  0  0  0  0  0  0  0  0  0
   -8.8039    4.2640  -16.3838 C   0  0  0  0  0  0  0  0  0  0  0  0
   -8.0397    5.3629  -15.6600 C   0  0  0  0  0  0  0  0  0  0  0  0
   -6.7536    5.9018  -16.3631 C   0  0  0  0  0  0  0  0  0  0  0  0
   -5.4015    5.8394  -15.6054 C   0  0  0  0  0  0  0  0  0  0  0  0
   -4.8084    4.4701  -15.3272 C   0  0  0  0  0  0  0  0  0  0  0  0
   -4.3934    6.6251  -16.4269 C   0  0  0  0  0  0  0  0  0  0  0  0
   -3.7338    7.5383  -15.9209 O   0  0  0  0  0  0  0  0  0  0  0  0
   -5.0612    4.3688  -17.9372 H   0  0  0  0  0  0  0  0  0  0  0  0
   -4.1970    7.2894  -18.7993 O   0  0  0  0  0  0  0  0  0  0  0  0
   -2.6139    8.8890  -19.5635 C   0  0  0  0  0  0  0  0  0  0  0  0
   -2.9729    7.4084  -19.5274 C   0  0  0  0  0  0  0  0  0  0  0  0
   -3.1575    6.8726  -20.9445 C   0  0  0  0  0  0  0  0  0  0  0  0
   -8.4683    6.2718  -11.9392 C   0  0  0  0  0  0  0  0  0  0  0  0
   -8.3927    5.1873  -11.0584 C   0  0  0  0  0  0  0  0  0  0  0  0
   -8.4880    5.3670   -9.6649 C   0  0  0  0  0  0  0  0  0  0  0  0
   -8.5688    6.6879   -9.1908 C   0  0  0  0  0  0  0  0  0  0  0  0
   -8.6401    7.7820  -10.0501 C   0  0  0  0  0  0  0  0  0  0  0  0
   -8.6212    7.5632  -11.4218 C   0  0  0  0  0  0  0  0  0  0  0  0
   -8.6094    4.3140   -8.7755 N   0  0  0  0  0  0  0  0  0  0  0  0
   -8.7495    2.9200   -9.2626 C   0  0  0  0  0  0  0  0  0  0  0  0
   -9.2304    1.9829   -8.1219 C   0  0  0  0  0  0  0  0  0  0  0  0
   -9.9807    2.6912   -7.0578 N   0  0  0  0  0  0  0  0  0  0  0  0
   -9.0721    3.6735   -6.4292 C   0  0  0  0  0  0  0  0  0  0  0  0
   -8.1161    4.4181   -7.3972 C   0  0  0  0  0  0  0  0  0  0  0  0
  -10.3032    2.0222   -6.3586 H   0  0  0  0  0  0  0  0  0  0  0  0
   -8.8215    8.9092  -12.5455 S   0  0  0  0  0  0  0  0  0  0  0  0
   -9.0739   10.3735  -11.5990 C   0  0  0  0  0  0  0  0  0  0  0  0
  -10.0625    8.6499  -13.2586 O   0  0  0  0  0  0  0  0  0  0  0  0
   -7.5799    9.0338  -13.2854 O   0  0  0  0  0  0  0  0  0  0  0  0
 20 21  1  0  0  0
 21 22  1  0  0  0
 21 19  1  0  0  0
  5 19  1  0  0  0
  5  6  1  0  0  0
  6  7  1  0  0  0
  7  8  1  0  0  0
  8  9  1  0  0  0
  9 10  1  0  0  0
  9 11  1  0  0  0
 11 12  1  0  0  0
 12  1  1  0  0  0
  1  2  2  0  0  0
  1  3  1  0  0  0
  3 23  1  0  0  0
 23 24  2  0  0  0
 24 25  1  0  0  0
 25 29  1  0  0  0
 29 30  1  0  0  0
 30 31  1  0  0  0
 31 32  1  0  0  0
 32 33  1  0  0  0
 33 34  1  0  0  0
 25 26  2  0  0  0
 26 27  1  0  0  0
 27 28  2  0  0  0
 28 36  1  0  0  0
 36 37  1  0  0  0
 36 38  2  0  0  0
 36 39  2  0  0  0
 13 12  1  0  0  0
 13 14  1  0  0  0
 14 15  1  0  0  0
 14 16  1  0  0  0
 16 17  2  0  0  0
 16  5  1  0  0  0
 13  7  1  0  0  0
 28 23  1  0  0  0
 34 29  1  0  0  0
  6 18  1  0  0  0
  3  4  1  0  0  0
 32 35  1  0  0  0
M  END
> <minimizedAffinity>
-7.72039

> <minimizedRMSD>
0.57065

$$$$
P9283


 47 51  0  0  0  0  0  0  0  0999 V2000
   -6.8957    4.5410  -13.9557 C   0  0  0  0  0  0  0  0  0  0  0  0
   -7.0550    4.5228  -15.5050 C   0  0  0  0  0  0  0  0  0  0  0  0
   -8.3590    4.4640  -16.0352 C   0  0  0  0  0  0  0  0  0  0  0  0
   -8.5824    4.5347  -17.3999 C   0  0  0  0  0  0  0  0  0  0  0  0
  -10.3478    4.5426  -18.0344 Br  0  0  0  0  0  0  0  0  0  0  0  0
   -7.5260    4.6604  -18.2829 C   0  0  0  0  0  0  0  0  0  0  0  0
   -6.2263    4.6601  -17.8268 C   0  0  0  0  0  0  0  0  0  0  0  0
   -5.2653    4.7658  -18.7572 N   0  0  0  0  0  0  0  0  0  0  0  0
   -3.9833    4.6901  -18.3686 C   0  0  0  0  0  0  0  0  0  0  0  0
   -3.6041    4.5078  -17.0616 C   0  0  0  0  0  0  0  0  0  0  0  0
   -4.6034    4.4132  -16.0984 C   0  0  0  0  0  0  0  0  0  0  0  0
   -5.9668    4.5365  -16.4362 C   0  0  0  0  0  0  0  0  0  0  0  0
   -6.3431    3.0622  -13.5093 C   0  0  0  0  0  0  0  0  0  0  0  0
   -6.9666    2.0806  -13.6224 O   0  0  0  0  0  0  0  0  0  0  0  0
   -4.8897    3.2790  -12.9983 N   0  0  0  0  0  0  0  0  0  0  0  0
   -4.5606    4.2041  -13.0709 H   0  0  0  0  0  0  0  0  0  0  0  0
   -3.9433    2.3417  -12.4338 C   0  0  0  0  0  0  0  0  0  0  0  0
   -2.8320    1.9408  -13.3993 C   0  0  0  0  0  0  0  0  0  0  0  0
   -3.3300    1.4389  -14.5587 F   0  0  0  0  0  0  0  0  0  0  0  0
   -2.1182    3.0498  -13.7489 F   0  0  0  0  0  0  0  0  0  0  0  0
   -8.2228    4.8134  -13.3278 N   0  0  0  0  0  0  0  0  0  0  0  0
   -9.0302    4.6082  -13.8524 H   0  0  0  0  0  0  0  0  0  0  0  0
   -8.7268    6.6924  -11.8120 C   0  0  0  0  0  0  0  0  0  0  0  0
   -8.8132    7.2011  -10.5183 C   0  0  0  0  0  0  0  0  0  0  0  0
   -8.6784    6.3401   -9.4371 C   0  0  0  0  0  0  0  0  0  0  0  0
   -8.4629    4.9661   -9.6089 C   0  0  0  0  0  0  0  0  0  0  0  0
   -8.2770    4.5038  -10.9230 C   0  0  0  0  0  0  0  0  0  0  0  0
   -8.3947    5.3394  -12.0469 C   0  0  0  0  0  0  0  0  0  0  0  0
   -8.5566    4.1268   -8.5064 N   0  0  0  0  0  0  0  0  0  0  0  0
   -8.6963    2.6611   -8.6873 C   0  0  0  0  0  0  0  0  0  0  0  0
   -9.2945    2.0325   -7.4065 C   0  0  0  0  0  0  0  0  0  0  0  0
   -8.5483    2.3669   -6.1893 N   0  0  0  0  0  0  0  0  0  0  0  0
   -8.4018    3.8172   -6.0655 C   0  0  0  0  0  0  0  0  0  0  0  0
   -7.7746    4.4773   -7.3091 C   0  0  0  0  0  0  0  0  0  0  0  0
   -7.6239    1.9378   -6.2328 H   0  0  0  0  0  0  0  0  0  0  0  0
  -10.4035    8.9034  -12.5472 C   0  0  0  0  0  0  0  0  0  0  0  0
   -9.1983    7.7639  -13.1497 S   0  0  0  0  0  0  0  0  0  0  0  0
   -9.8692    6.9191  -14.1219 O   0  0  0  0  0  0  0  0  0  0  0  0
   -8.0286    8.5348  -13.5253 O   0  0  0  0  0  0  0  0  0  0  0  0
   -5.9348    5.5140  -13.5037 O   0  0  0  0  0  0  0  0  0  0  0  0
   -5.8744    6.7587  -14.1918 C   0  0  0  0  0  0  0  0  0  0  0  0
   -4.4380    7.1934  -14.4019 C   0  0  0  0  0  0  0  0  0  0  0  0
   -3.4424    6.7891  -13.5121 C   0  0  0  0  0  0  0  0  0  0  0  0
   -2.1290    7.1890  -13.7408 C   0  0  0  0  0  0  0  0  0  0  0  0
   -1.8428    7.9843  -14.8429 C   0  0  0  0  0  0  0  0  0  0  0  0
   -2.8887    8.3537  -15.6710 C   0  0  0  0  0  0  0  0  0  0  0  0
   -4.1721    7.9860  -15.4716 N   0  0  0  0  0  0  0  0  0  0  0  0
 36 37  1  0  0  0
 37 38  2  0  0  0
 37 39  2  0  0  0
 37 23  1  0  0  0
 23 24  2  0  0  0
 24 25  1  0  0  0
 25 26  2  0  0  0
 26 29  1  0  0  0
 29 30  1  0  0  0
 30 31  1  0  0  0
 31 32  1  0  0  0
 32 33  1  0  0  0
 33 34  1  0  0  0
 26 27  1  0  0  0
 27 28  2  0  0  0
 28 21  1  0  0  0
  1 21  1  0  0  0
  1 40  1  0  0  0
 40 41  1  0  0  0
 41 42  1  0  0  0
 42 43  2  0  0  0
 43 44  1  0  0  0
 44 45  2  0  0  0
 45 46  1  0  0  0
 46 47  2  0  0  0
  1 13  1  0  0  0
 13 14  2  0  0  0
 13 15  1  0  0  0
 15 17  1  0  0  0
 17 18  1  0  0  0
 18 19  1  0  0  0
 18 20  1  0  0  0
  1  2  1  0  0  0
  2  3  2  0  0  0
  3  4  1  0  0  0
  4  5  1  0  0  0
  4  6  2  0  0  0
  6  7  1  0  0  0
  7  8  2  0  0  0
  8  9  1  0  0  0
  9 10  2  0  0  0
 10 11  1  0  0  0
 11 12  2  0  0  0
 28 23  1  0  0  0
 47 42  1  0  0  0
 12  2  1  0  0  0
 34 29  1  0  0  0
 12  7  1  0  0  0
 32 35  1  0  0  0
 21 22  1  0  0  0
 15 16  1  0  0  0
M  END
> <minimizedAffinity>
-8.96575

> <minimizedRMSD>
0.67155

$$$$
P9284


 45 48  0  0  0  0  0  0  0  0999 V2000
   -7.0791    4.6933  -14.0582 C   0  0  0  0  0  0  0  0  0  0  0  0
   -7.3415    4.6070  -15.6100 C   0  0  0  0  0  0  0  0  0  0  0  0
   -8.6608    4.6028  -16.1119 C   0  0  0  0  0  0  0  0  0  0  0  0
   -8.9099    4.6079  -17.4802 C   0  0  0  0  0  0  0  0  0  0  0  0
  -10.5215    4.6555  -18.0635 Cl  0  0  0  0  0  0  0  0  0  0  0  0
   -7.8671    4.6433  -18.3877 C   0  0  0  0  0  0  0  0  0  0  0  0
   -6.5598    4.6447  -17.9599 C   0  0  0  0  0  0  0  0  0  0  0  0
   -5.6253    4.7309  -18.9174 N   0  0  0  0  0  0  0  0  0  0  0  0
   -4.3327    4.7181  -18.5677 C   0  0  0  0  0  0  0  0  0  0  0  0
   -3.9162    4.6222  -17.2609 C   0  0  0  0  0  0  0  0  0  0  0  0
   -4.8875    4.5447  -16.2650 C   0  0  0  0  0  0  0  0  0  0  0  0
   -6.2667    4.5833  -16.5728 C   0  0  0  0  0  0  0  0  0  0  0  0
   -5.9706    5.9143  -13.7279 C   0  0  0  0  0  0  0  0  0  0  0  0
   -5.1505    5.7576  -12.9041 O   0  0  0  0  0  0  0  0  0  0  0  0
   -6.1906    7.0991  -14.7248 N   0  0  0  0  0  0  0  0  0  0  0  0
   -7.0050    7.0304  -15.2738 H   0  0  0  0  0  0  0  0  0  0  0  0
   -5.3895    8.2828  -14.9719 C   0  0  0  0  0  0  0  0  0  0  0  0
   -3.8982    8.1880  -14.6503 C   0  0  0  0  0  0  0  0  0  0  0  0
   -3.6875    8.2750  -13.3155 F   0  0  0  0  0  0  0  0  0  0  0  0
   -3.3759    7.0162  -15.0838 F   0  0  0  0  0  0  0  0  0  0  0  0
   -8.3781    4.9181  -13.3556 N   0  0  0  0  0  0  0  0  0  0  0  0
   -9.2128    4.7039  -13.8317 H   0  0  0  0  0  0  0  0  0  0  0  0
   -8.7307    6.7586  -11.7221 C   0  0  0  0  0  0  0  0  0  0  0  0
   -8.7735    7.1928  -10.3931 C   0  0  0  0  0  0  0  0  0  0  0  0
   -8.5893    6.2916   -9.3567 C   0  0  0  0  0  0  0  0  0  0  0  0
   -8.4232    4.9236   -9.6006 C   0  0  0  0  0  0  0  0  0  0  0  0
   -8.3158    4.5314  -10.9579 C   0  0  0  0  0  0  0  0  0  0  0  0
   -8.4635    5.4211  -12.0470 C   0  0  0  0  0  0  0  0  0  0  0  0
   -8.3651    3.9802   -8.5428 N   0  0  0  0  0  0  0  0  0  0  0  0
   -9.1332    2.7320   -8.8279 C   0  0  0  0  0  0  0  0  0  0  0  0
   -9.1739    1.7546   -7.6372 C   0  0  0  0  0  0  0  0  0  0  0  0
   -9.5537    2.3619   -6.3469 N   0  0  0  0  0  0  0  0  0  0  0  0
   -8.6189    3.4578   -6.0790 C   0  0  0  0  0  0  0  0  0  0  0  0
   -8.6081    4.5204   -7.1854 C   0  0  0  0  0  0  0  0  0  0  0  0
   -9.4946    1.6653   -5.6042 H   0  0  0  0  0  0  0  0  0  0  0  0
   -7.9926    9.2735  -12.6265 C   0  0  0  0  0  0  0  0  0  0  0  0
   -9.1830    7.9907  -12.9006 S   0  0  0  0  0  0  0  0  0  0  0  0
  -10.4710    8.5399  -12.5185 O   0  0  0  0  0  0  0  0  0  0  0  0
   -8.9893    7.4629  -14.2335 O   0  0  0  0  0  0  0  0  0  0  0  0
   -6.7089    3.3567  -13.7729 O   0  0  0  0  0  0  0  0  0  0  0  0
   -5.5892    3.1451  -12.9269 C   0  0  0  0  0  0  0  0  0  0  0  0
   -5.8799    2.1459  -11.8167 C   0  0  0  0  0  0  0  0  0  0  0  0
   -5.4861    2.2429  -10.6617 O   0  0  0  0  0  0  0  0  0  0  0  0
   -6.6159    1.0989  -12.2287 O   0  0  0  0  0  0  0  0  0  0  0  0
   -6.9042    1.0502  -13.1189 H   0  0  0  0  0  0  0  0  0  0  0  0
 36 37  1  0  0  0
 37 38  2  0  0  0
 37 39  2  0  0  0
 37 23  1  0  0  0
 23 24  2  0  0  0
 24 25  1  0  0  0
 25 26  2  0  0  0
 26 29  1  0  0  0
 29 30  1  0  0  0
 30 31  1  0  0  0
 31 32  1  0  0  0
 32 33  1  0  0  0
 33 34  1  0  0  0
 26 27  1  0  0  0
 27 28  2  0  0  0
 28 21  1  0  0  0
  1 21  1  0  0  0
  1 40  1  0  0  0
 40 41  1  0  0  0
 41 42  1  0  0  0
 42 43  2  0  0  0
 42 44  1  0  0  0
  1 13  1  0  0  0
 13 14  2  0  0  0
 13 15  1  0  0  0
 15 17  1  0  0  0
 17 18  1  0  0  0
 18 19  1  0  0  0
 18 20  1  0  0  0
  1  2  1  0  0  0
  2  3  2  0  0  0
  3  4  1  0  0  0
  4  5  1  0  0  0
  4  6  2  0  0  0
  6  7  1  0  0  0
  7  8  2  0  0  0
  8  9  1  0  0  0
  9 10  2  0  0  0
 10 11  1  0  0  0
 11 12  2  0  0  0
 28 23  1  0  0  0
 12  2  1  0  0  0
 34 29  1  0  0  0
 12  7  1  0  0  0
 32 35  1  0  0  0
 21 22  1  0  0  0
 44 45  1  0  0  0
 15 16  1  0  0  0
M  END
> <minimizedAffinity>
-8.26245

> <minimizedRMSD>
0.53546

$$$$
P9285


 32 36  0  0  0  0  0  0  0  0999 V2000
   -8.5751    7.0458  -11.6651 C   0  0  0  0  0  0  0  0  0  0  0  0
   -8.5054    7.5850  -10.3782 C   0  0  0  0  0  0  0  0  0  0  0  0
   -8.4166    6.7585   -9.2683 C   0  0  0  0  0  0  0  0  0  0  0  0
   -8.4717    5.3781   -9.4805 C   0  0  0  0  0  0  0  0  0  0  0  0
   -8.5157    4.7979  -10.7569 C   0  0  0  0  0  0  0  0  0  0  0  0
   -8.5869    3.3820  -10.5450 C   0  0  0  0  0  0  0  0  0  0  0  0
   -8.6703    3.1521   -9.1832 C   0  0  0  0  0  0  0  0  0  0  0  0
   -8.4916    4.3560   -8.5618 N   0  0  0  0  0  0  0  0  0  0  0  0
   -8.4994    4.5198   -7.1183 C   0  0  0  0  0  0  0  0  0  0  0  0
   -8.7385    3.2092   -6.3634 C   0  0  0  0  0  0  0  0  0  0  0  0
   -9.5598    2.2501   -7.1055 N   0  0  0  0  0  0  0  0  0  0  0  0
   -8.8964    1.9177   -8.3783 C   0  0  0  0  0  0  0  0  0  0  0  0
   -8.4642    5.6509  -11.8925 C   0  0  0  0  0  0  0  0  0  0  0  0
  -10.4740    2.6606   -7.2956 H   0  0  0  0  0  0  0  0  0  0  0  0
  -10.1936    9.3345  -12.1401 C   0  0  0  0  0  0  0  0  0  0  0  0
   -9.1630    8.1443  -12.9475 S   0  0  0  0  0  0  0  0  0  0  0  0
  -10.0790    7.3954  -13.7935 O   0  0  0  0  0  0  0  0  0  0  0  0
   -8.0389    8.8949  -13.4717 O   0  0  0  0  0  0  0  0  0  0  0  0
   -8.2479    5.1162  -13.1703 N   0  0  0  0  0  0  0  0  0  0  0  0
   -7.0883    5.3439  -14.1733 C   0  0  0  0  0  0  0  0  0  0  0  0
   -6.0966    5.9513  -14.0589 O   0  0  0  0  0  0  0  0  0  0  0  0
   -8.9459    4.4953  -13.4810 H   0  0  0  0  0  0  0  0  0  0  0  0
   -7.3335    4.7733  -15.5305 C   0  0  0  0  0  0  0  0  0  0  0  0
   -8.6601    4.5689  -15.9213 C   0  0  0  0  0  0  0  0  0  0  0  0
   -8.9627    4.3722  -17.2631 C   0  0  0  0  0  0  0  0  0  0  0  0
   -7.9411    4.4038  -18.2120 C   0  0  0  0  0  0  0  0  0  0  0  0
   -6.6111    4.5816  -17.8551 C   0  0  0  0  0  0  0  0  0  0  0  0
   -5.6865    4.6132  -18.8305 N   0  0  0  0  0  0  0  0  0  0  0  0
   -4.3936    4.7865  -18.4964 C   0  0  0  0  0  0  0  0  0  0  0  0
   -3.9544    4.9255  -17.1996 C   0  0  0  0  0  0  0  0  0  0  0  0
   -4.9104    4.9074  -16.1923 C   0  0  0  0  0  0  0  0  0  0  0  0
   -6.2840    4.7477  -16.4932 C   0  0  0  0  0  0  0  0  0  0  0  0
 15 16  1  0  0  0
 16 17  2  0  0  0
 16 18  2  0  0  0
 16  1  1  0  0  0
  1  2  2  0  0  0
  2  3  1  0  0  0
  3  4  2  0  0  0
  4  5  1  0  0  0
  5  6  1  0  0  0
  6  7  2  0  0  0
  7  8  1  0  0  0
  8  9  1  0  0  0
  9 10  1  0  0  0
 10 11  1  0  0  0
 11 12  1  0  0  0
  5 13  2  0  0  0
 13 19  1  0  0  0
 19 20  1  0  0  0
 20 21  2  0  0  0
 20 23  1  0  0  0
 23 24  2  0  0  0
 24 25  1  0  0  0
 25 26  2  0  0  0
 26 27  1  0  0  0
 27 28  2  0  0  0
 28 29  1  0  0  0
 29 30  2  0  0  0
 30 31  1  0  0  0
 31 32  2  0  0  0
 13  1  1  0  0  0
 32 23  1  0  0  0
  8  4  1  0  0  0
 32 27  1  0  0  0
 12  7  1  0  0  0
 11 14  1  0  0  0
 19 22  1  0  0  0
M  END
> <minimizedAffinity>
-9.20590

> <minimizedRMSD>
0.34985

$$$$
P9287


 34 37  0  0  0  0  0  0  0  0999 V2000
   -8.5174    5.3919   -9.3736 C   0  0  0  0  0  0  0  0  0  0  0  0
   -8.7558    6.7635   -9.2017 C   0  0  0  0  0  0  0  0  0  0  0  0
   -8.8942    7.6288  -10.2722 C   0  0  0  0  0  0  0  0  0  0  0  0
   -8.7875    7.1423  -11.5742 C   0  0  0  0  0  0  0  0  0  0  0  0
   -8.5332    5.7799  -11.8099 C   0  0  0  0  0  0  0  0  0  0  0  0
   -8.4489    4.9161  -10.6988 C   0  0  0  0  0  0  0  0  0  0  0  0
   -9.1497    2.7115   -6.7439 C   0  0  0  0  0  0  0  0  0  0  0  0
   -8.9499    3.1999   -8.2261 C   0  0  0  0  0  0  0  0  0  0  0  0
   -8.4257    4.5861   -8.2464 N   0  0  0  0  0  0  0  0  0  0  0  0
   -7.2289    4.7278   -7.3942 C   0  0  0  0  0  0  0  0  0  0  0  0
   -7.6135    4.4261   -5.9389 C   0  0  0  0  0  0  0  0  0  0  0  0
   -8.0634    3.0556   -5.7985 N   0  0  0  0  0  0  0  0  0  0  0  0
   -8.4039    2.9198   -4.8466 H   0  0  0  0  0  0  0  0  0  0  0  0
  -11.0393    2.5477   -4.9624 C   0  0  0  0  0  0  0  0  0  0  0  0
  -10.5348    3.1555   -6.2605 C   0  0  0  0  0  0  0  0  0  0  0  0
   -9.3059    8.2883  -12.8263 S   0  0  0  0  0  0  0  0  0  0  0  0
   -7.7755    8.9629  -13.4408 C   0  0  0  0  0  0  0  0  0  0  0  0
   -9.9963    9.3868  -12.1668 O   0  0  0  0  0  0  0  0  0  0  0  0
  -10.0292    7.5398  -13.8338 O   0  0  0  0  0  0  0  0  0  0  0  0
   -8.3228    5.2125  -13.0789 N   0  0  0  0  0  0  0  0  0  0  0  0
   -7.1322    5.3546  -14.0597 C   0  0  0  0  0  0  0  0  0  0  0  0
   -6.1074    5.9031  -13.9327 O   0  0  0  0  0  0  0  0  0  0  0  0
   -9.0505    4.6300  -13.3958 H   0  0  0  0  0  0  0  0  0  0  0  0
   -7.3836    4.7803  -15.4118 C   0  0  0  0  0  0  0  0  0  0  0  0
   -8.7058    4.5713  -15.8039 C   0  0  0  0  0  0  0  0  0  0  0  0
   -8.9819    4.3836  -17.1490 C   0  0  0  0  0  0  0  0  0  0  0  0
  -10.2466    4.1969  -17.5464 F   0  0  0  0  0  0  0  0  0  0  0  0
   -7.9756    4.4302  -18.1029 C   0  0  0  0  0  0  0  0  0  0  0  0
   -6.6519    4.5948  -17.7360 C   0  0  0  0  0  0  0  0  0  0  0  0
   -5.7201    4.6156  -18.7035 N   0  0  0  0  0  0  0  0  0  0  0  0
   -4.4259    4.7514  -18.3597 C   0  0  0  0  0  0  0  0  0  0  0  0
   -3.9943    4.8797  -17.0590 C   0  0  0  0  0  0  0  0  0  0  0  0
   -4.9577    4.8854  -16.0584 C   0  0  0  0  0  0  0  0  0  0  0  0
   -6.3307    4.7498  -16.3704 C   0  0  0  0  0  0  0  0  0  0  0  0
 14 15  1  0  0  0
  7 15  1  0  0  0
  7  8  1  0  0  0
  8  9  1  0  0  0
  9  1  1  0  0  0
  1  2  2  0  0  0
  2  3  1  0  0  0
  3  4  2  0  0  0
  4 16  1  0  0  0
 16 17  1  0  0  0
 16 18  2  0  0  0
 16 19  2  0  0  0
  4  5  1  0  0  0
  5 20  1  0  0  0
 20 21  1  0  0  0
 21 22  2  0  0  0
 21 24  1  0  0  0
 24 25  2  0  0  0
 25 26  1  0  0  0
 26 27  1  0  0  0
 26 28  2  0  0  0
 28 29  1  0  0  0
 29 30  2  0  0  0
 30 31  1  0  0  0
 31 32  2  0  0  0
 32 33  1  0  0  0
 33 34  2  0  0  0
  5  6  2  0  0  0
  9 10  1  0  0  0
 10 11  1  0  0  0
 11 12  1  0  0  0
 12  7  1  0  0  0
  6  1  1  0  0  0
 34 24  1  0  0  0
 34 29  1  0  0  0
 20 23  1  0  0  0
 12 13  1  0  0  0
M  END
> <minimizedAffinity>
-9.05644

> <minimizedRMSD>
0.55274

$$$$
P9288


 39 43  0  0  0  0  0  0  0  0999 V2000
   -8.3900    5.4279  -13.4319 N   0  0  0  0  0  0  0  0  0  0  0  0
   -7.2691    5.7447  -14.4450 C   0  0  0  0  0  0  0  0  0  0  0  0
   -6.3729    6.4904  -14.3739 O   0  0  0  0  0  0  0  0  0  0  0  0
   -9.0804    4.8083  -13.7616 H   0  0  0  0  0  0  0  0  0  0  0  0
   -7.4235    5.0276  -15.7374 C   0  0  0  0  0  0  0  0  0  0  0  0
   -8.7013    4.9123  -16.2870 C   0  0  0  0  0  0  0  0  0  0  0  0
   -8.8447    4.6204  -17.6421 C   0  0  0  0  0  0  0  0  0  0  0  0
   -7.7139    4.5034  -18.4549 C   0  0  0  0  0  0  0  0  0  0  0  0
   -6.4301    4.6303  -17.9173 C   0  0  0  0  0  0  0  0  0  0  0  0
   -6.2895    4.7953  -16.5334 C   0  0  0  0  0  0  0  0  0  0  0  0
   -4.8882    4.7379  -15.9980 C   0  0  0  0  0  0  0  0  0  0  0  0
   -4.0575    5.6863  -16.8345 C   0  0  0  0  0  0  0  0  0  0  0  0
   -4.1010    5.3619  -18.3566 C   0  0  0  0  0  0  0  0  0  0  0  0
   -2.8272    4.5712  -18.7293 C   0  0  0  0  0  0  0  0  0  0  0  0
   -2.5312    4.5671  -20.2247 C   0  0  0  0  0  0  0  0  0  0  0  0
   -2.4922    5.9191  -20.7794 N   0  0  0  0  0  0  0  0  0  0  0  0
   -3.7861    6.5762  -20.6001 C   0  0  0  0  0  0  0  0  0  0  0  0
   -4.1257    6.7083  -19.1215 C   0  0  0  0  0  0  0  0  0  0  0  0
   -5.2896    4.5481  -18.7313 N   0  0  0  0  0  0  0  0  0  0  0  0
   -2.2749    5.8688  -21.7747 H   0  0  0  0  0  0  0  0  0  0  0  0
   -5.2762    3.9689  -19.5272 H   0  0  0  0  0  0  0  0  0  0  0  0
   -8.5020    5.2034   -9.7356 C   0  0  0  0  0  0  0  0  0  0  0  0
   -8.6583    6.5513   -9.3961 C   0  0  0  0  0  0  0  0  0  0  0  0
   -8.8366    7.5348  -10.3641 C   0  0  0  0  0  0  0  0  0  0  0  0
   -8.8093    7.2003  -11.7206 C   0  0  0  0  0  0  0  0  0  0  0  0
   -8.5852    5.8797  -12.1164 C   0  0  0  0  0  0  0  0  0  0  0  0
   -8.5102    4.9044  -11.1143 C   0  0  0  0  0  0  0  0  0  0  0  0
   -6.8511    2.5053   -9.6685 C   0  0  0  0  0  0  0  0  0  0  0  0
   -8.2541    2.7801   -9.1237 C   0  0  0  0  0  0  0  0  0  0  0  0
   -8.5606    1.8749   -7.8874 C   0  0  0  0  0  0  0  0  0  0  0  0
   -9.5049    2.4911   -6.9316 N   0  0  0  0  0  0  0  0  0  0  0  0
   -8.8636    3.7005   -6.3781 C   0  0  0  0  0  0  0  0  0  0  0  0
   -8.0072    4.5197   -7.3760 C   0  0  0  0  0  0  0  0  0  0  0  0
   -8.4056    4.2211   -8.7640 N   0  0  0  0  0  0  0  0  0  0  0  0
   -9.7148    1.8348   -6.1796 H   0  0  0  0  0  0  0  0  0  0  0  0
   -9.4306    8.4409  -12.8235 S   0  0  0  0  0  0  0  0  0  0  0  0
   -7.9826    9.3573  -13.3058 C   0  0  0  0  0  0  0  0  0  0  0  0
  -10.2496    9.3552  -12.0428 O   0  0  0  0  0  0  0  0  0  0  0  0
  -10.0555    7.7580  -13.9385 O   0  0  0  0  0  0  0  0  0  0  0  0
 29 28  1  0  0  0
 29 30  1  0  0  0
 30 31  1  0  0  0
 31 32  1  0  0  0
 32 33  1  0  0  0
 33 34  1  0  0  0
 34 22  1  0  0  0
 22 23  2  0  0  0
 23 24  1  0  0  0
 24 25  2  0  0  0
 25 36  1  0  0  0
 36 37  1  0  0  0
 36 38  2  0  0  0
 36 39  2  0  0  0
 25 26  1  0  0  0
 26  1  1  0  0  0
  1  2  1  0  0  0
  2  3  2  0  0  0
  2  5  1  0  0  0
  5  6  2  0  0  0
  6  7  1  0  0  0
  7  8  2  0  0  0
  8  9  1  0  0  0
  9 10  2  0  0  0
 10 11  1  0  0  0
 11 12  1  0  0  0
 12 13  1  0  0  0
 13 14  1  0  0  0
 14 15  1  0  0  0
 15 16  1  0  0  0
 16 17  1  0  0  0
 17 18  1  0  0  0
 13 19  1  0  0  0
 26 27  2  0  0  0
 34 29  1  0  0  0
 27 22  1  0  0  0
 10  5  1  0  0  0
 18 13  1  0  0  0
 19  9  1  0  0  0
 31 35  1  0  0  0
  1  4  1  0  0  0
 16 20  1  0  0  0
 19 21  1  0  0  0
M  END
> <minimizedAffinity>
-8.54305

> <minimizedRMSD>
0.38363

$$$$
P9289


 37 40  0  0  0  0  0  0  0  0999 V2000
   -8.1799    5.0069  -13.0732 N   0  0  0  0  0  0  0  0  0  0  0  0
   -6.8629    4.9230  -13.8708 C   0  0  0  0  0  0  0  0  0  0  0  0
   -5.7712    5.1918  -13.5584 O   0  0  0  0  0  0  0  0  0  0  0  0
   -8.9679    4.6454  -13.5398 H   0  0  0  0  0  0  0  0  0  0  0  0
   -7.0705    4.5238  -15.2884 C   0  0  0  0  0  0  0  0  0  0  0  0
   -8.3943    4.4653  -15.7325 C   0  0  0  0  0  0  0  0  0  0  0  0
   -8.6559    4.4929  -17.0910 C   0  0  0  0  0  0  0  0  0  0  0  0
  -10.2794    4.5303  -17.6281 Cl  0  0  0  0  0  0  0  0  0  0  0  0
   -7.6201    4.6168  -18.0068 C   0  0  0  0  0  0  0  0  0  0  0  0
   -6.2788    4.6677  -17.5785 C   0  0  0  0  0  0  0  0  0  0  0  0
   -5.2165    4.8900  -18.4776 C   0  0  0  0  0  0  0  0  0  0  0  0
   -3.8833    4.8240  -18.0698 C   0  0  0  0  0  0  0  0  0  0  0  0
   -3.5866    4.6301  -16.7302 C   0  0  0  0  0  0  0  0  0  0  0  0
   -4.6243    4.5267  -15.8052 C   0  0  0  0  0  0  0  0  0  0  0  0
   -5.9848    4.5564  -16.2010 C   0  0  0  0  0  0  0  0  0  0  0  0
   -5.5138    5.1972  -19.7825 O   0  0  0  0  0  0  0  0  0  0  0  0
   -5.1813    6.5520  -20.1108 C   0  0  0  0  0  0  0  0  0  0  0  0
   -6.2499    7.5018  -19.8072 N   0  0  0  0  0  0  0  0  0  0  0  0
   -7.0752    7.2736  -20.3616 H   0  0  0  0  0  0  0  0  0  0  0  0
   -5.9392    8.4467  -20.0329 H   0  0  0  0  0  0  0  0  0  0  0  0
   -8.6304    6.8675  -11.5003 C   0  0  0  0  0  0  0  0  0  0  0  0
   -8.7294    7.2820  -10.1714 C   0  0  0  0  0  0  0  0  0  0  0  0
   -8.6670    6.3434   -9.1466 C   0  0  0  0  0  0  0  0  0  0  0  0
   -8.5603    4.9694   -9.4067 C   0  0  0  0  0  0  0  0  0  0  0  0
   -8.4610    4.5795  -10.7533 C   0  0  0  0  0  0  0  0  0  0  0  0
   -8.4367    5.5115  -11.7982 C   0  0  0  0  0  0  0  0  0  0  0  0
   -8.6336    4.0541   -8.3693 N   0  0  0  0  0  0  0  0  0  0  0  0
   -8.9975    2.6423   -8.6396 C   0  0  0  0  0  0  0  0  0  0  0  0
   -9.2610    1.8750   -7.3216 C   0  0  0  0  0  0  0  0  0  0  0  0
   -9.6876    2.7586   -6.2172 N   0  0  0  0  0  0  0  0  0  0  0  0
   -8.5745    3.6843   -5.9209 C   0  0  0  0  0  0  0  0  0  0  0  0
   -7.8241    4.2408   -7.1570 C   0  0  0  0  0  0  0  0  0  0  0  0
   -9.9040    2.2011   -5.3909 H   0  0  0  0  0  0  0  0  0  0  0  0
   -7.6157    8.6764  -13.4118 C   0  0  0  0  0  0  0  0  0  0  0  0
   -9.1341    8.0648  -12.7199 S   0  0  0  0  0  0  0  0  0  0  0  0
   -9.7421    9.1807  -12.0115 O   0  0  0  0  0  0  0  0  0  0  0  0
   -9.9314    7.3766  -13.7171 O   0  0  0  0  0  0  0  0  0  0  0  0
 34 35  1  0  0  0
 35 36  2  0  0  0
 35 37  2  0  0  0
 35 21  1  0  0  0
 21 22  2  0  0  0
 22 23  1  0  0  0
 23 24  2  0  0  0
 24 27  1  0  0  0
 27 28  1  0  0  0
 28 29  1  0  0  0
 29 30  1  0  0  0
 30 31  1  0  0  0
 31 32  1  0  0  0
 24 25  1  0  0  0
 25 26  2  0  0  0
 26  1  1  0  0  0
  1  2  1  0  0  0
  2  3  2  0  0  0
  2  5  1  0  0  0
  5  6  2  0  0  0
  6  7  1  0  0  0
  7  8  1  0  0  0
  7  9  2  0  0  0
  9 10  1  0  0  0
 10 11  2  0  0  0
 11 16  1  0  0  0
 16 17  1  0  0  0
 17 18  1  0  0  0
 11 12  1  0  0  0
 12 13  2  0  0  0
 13 14  1  0  0  0
 14 15  2  0  0  0
 26 21  1  0  0  0
 15  5  1  0  0  0
 32 27  1  0  0  0
 15 10  1  0  0  0
 30 33  1  0  0  0
  1  4  1  0  0  0
 18 19  1  0  0  0
 18 20  1  0  0  0
M  END
> <minimizedAffinity>
-9.25404

> <minimizedRMSD>
0.49347

$$$$
P9290


 36 39  0  0  0  0  0  0  0  0999 V2000
   -6.8459    5.1200  -13.9154 C   0  0  0  0  0  0  0  0  0  0  0  0
   -5.8191    5.6161  -13.6696 O   0  0  0  0  0  0  0  0  0  0  0  0
   -8.1175    4.9811  -13.0592 N   0  0  0  0  0  0  0  0  0  0  0  0
   -8.8348    4.4468  -13.4705 H   0  0  0  0  0  0  0  0  0  0  0  0
   -5.0737    4.8282  -18.4590 C   0  0  0  0  0  0  0  0  0  0  0  0
   -3.7570    4.7818  -17.9627 C   0  0  0  0  0  0  0  0  0  0  0  0
   -3.5150    4.6198  -16.6107 C   0  0  0  0  0  0  0  0  0  0  0  0
   -4.5889    4.5525  -15.7342 C   0  0  0  0  0  0  0  0  0  0  0  0
   -5.9264    4.5905  -16.1894 C   0  0  0  0  0  0  0  0  0  0  0  0
   -7.0284    4.6152  -15.3004 C   0  0  0  0  0  0  0  0  0  0  0  0
   -8.3417    4.5359  -15.7605 C   0  0  0  0  0  0  0  0  0  0  0  0
   -8.5700    4.5090  -17.1222 C   0  0  0  0  0  0  0  0  0  0  0  0
  -10.3395    4.5281  -17.7403 Br  0  0  0  0  0  0  0  0  0  0  0  0
   -7.5160    4.6059  -18.0246 C   0  0  0  0  0  0  0  0  0  0  0  0
   -6.1764    4.6562  -17.5816 C   0  0  0  0  0  0  0  0  0  0  0  0
   -5.2404    5.2267  -19.9102 C   0  0  0  0  0  0  0  0  0  0  0  0
   -4.9659    7.2549  -21.1965 C   0  0  0  0  0  0  0  0  0  0  0  0
   -5.5219    6.6587  -19.9954 N   0  0  0  0  0  0  0  0  0  0  0  0
   -6.5327    6.7955  -19.9982 H   0  0  0  0  0  0  0  0  0  0  0  0
   -8.4185    5.4882  -11.7977 C   0  0  0  0  0  0  0  0  0  0  0  0
   -8.4397    4.5627  -10.7484 C   0  0  0  0  0  0  0  0  0  0  0  0
   -8.5601    4.9607   -9.4074 C   0  0  0  0  0  0  0  0  0  0  0  0
   -8.6937    6.3351   -9.1596 C   0  0  0  0  0  0  0  0  0  0  0  0
   -8.7635    7.2655  -10.1927 C   0  0  0  0  0  0  0  0  0  0  0  0
   -8.6397    6.8430  -11.5164 C   0  0  0  0  0  0  0  0  0  0  0  0
   -8.6265    4.0502   -8.3661 N   0  0  0  0  0  0  0  0  0  0  0  0
   -8.9918    2.6365   -8.6269 C   0  0  0  0  0  0  0  0  0  0  0  0
   -9.2546    1.8788   -7.3031 C   0  0  0  0  0  0  0  0  0  0  0  0
   -9.6797    2.7722   -6.2057 N   0  0  0  0  0  0  0  0  0  0  0  0
   -8.5654    3.6993   -5.9171 C   0  0  0  0  0  0  0  0  0  0  0  0
   -7.8136    4.2430   -7.1577 C   0  0  0  0  0  0  0  0  0  0  0  0
   -9.8966    2.2217   -5.3749 H   0  0  0  0  0  0  0  0  0  0  0  0
   -9.1422    8.0202  -12.7572 S   0  0  0  0  0  0  0  0  0  0  0  0
   -7.6269    8.7101  -13.3775 C   0  0  0  0  0  0  0  0  0  0  0  0
   -9.8368    9.1017  -12.0752 O   0  0  0  0  0  0  0  0  0  0  0  0
   -9.8559    7.3016  -13.7957 O   0  0  0  0  0  0  0  0  0  0  0  0
 17 18  1  0  0  0
 18 16  1  0  0  0
 16  5  1  0  0  0
  5  6  2  0  0  0
  6  7  1  0  0  0
  7  8  2  0  0  0
  8  9  1  0  0  0
  9 10  2  0  0  0
 10  1  1  0  0  0
  1  2  2  0  0  0
  1  3  1  0  0  0
  3 20  1  0  0  0
 20 21  2  0  0  0
 21 22  1  0  0  0
 22 26  1  0  0  0
 26 27  1  0  0  0
 27 28  1  0  0  0
 28 29  1  0  0  0
 29 30  1  0  0  0
 30 31  1  0  0  0
 22 23  2  0  0  0
 23 24  1  0  0  0
 24 25  2  0  0  0
 25 33  1  0  0  0
 33 34  1  0  0  0
 33 35  2  0  0  0
 33 36  2  0  0  0
 10 11  1  0  0  0
 11 12  2  0  0  0
 12 13  1  0  0  0
 12 14  1  0  0  0
 14 15  2  0  0  0
 15  5  1  0  0  0
 15  9  1  0  0  0
 25 20  1  0  0  0
 31 26  1  0  0  0
 18 19  1  0  0  0
  3  4  1  0  0  0
 29 32  1  0  0  0
M  END
> <minimizedAffinity>
-8.87280

> <minimizedRMSD>
0.42020

$$$$
P9292


 38 41  0  0  0  0  0  0  0  0999 V2000
   -8.3289    4.4891  -13.3126 N   0  0  0  0  0  0  0  0  0  0  0  0
   -9.1369    4.5871  -13.8665 H   0  0  0  0  0  0  0  0  0  0  0  0
   -8.5009    6.3741  -11.7954 C   0  0  0  0  0  0  0  0  0  0  0  0
   -8.4897    6.9322  -10.5168 C   0  0  0  0  0  0  0  0  0  0  0  0
   -8.4402    6.0948   -9.4085 C   0  0  0  0  0  0  0  0  0  0  0  0
   -8.4733    4.7022   -9.5469 C   0  0  0  0  0  0  0  0  0  0  0  0
   -8.4507    4.1854  -10.8580 C   0  0  0  0  0  0  0  0  0  0  0  0
   -8.4021    4.9890  -12.0068 C   0  0  0  0  0  0  0  0  0  0  0  0
   -8.6239    3.8950   -8.4280 N   0  0  0  0  0  0  0  0  0  0  0  0
   -9.0352    2.4770   -8.5860 C   0  0  0  0  0  0  0  0  0  0  0  0
   -9.4031    1.8486   -7.2188 C   0  0  0  0  0  0  0  0  0  0  0  0
   -9.7763    2.8518   -6.1982 N   0  0  0  0  0  0  0  0  0  0  0  0
   -8.6013    3.7147   -5.9562 C   0  0  0  0  0  0  0  0  0  0  0  0
   -7.8242    4.1554   -7.2241 C   0  0  0  0  0  0  0  0  0  0  0  0
  -10.0453    2.3825   -5.3334 H   0  0  0  0  0  0  0  0  0  0  0  0
   -7.1766    7.5331  -13.9656 C   0  0  0  0  0  0  0  0  0  0  0  0
   -8.7637    7.4527  -13.1731 S   0  0  0  0  0  0  0  0  0  0  0  0
   -9.0561    8.7831  -12.6700 O   0  0  0  0  0  0  0  0  0  0  0  0
   -9.7159    6.7881  -14.0465 O   0  0  0  0  0  0  0  0  0  0  0  0
   -7.1641    3.8271  -13.9520 C   0  0  0  0  0  0  0  0  0  0  0  0
   -7.3316    2.4313  -13.7681 O   0  0  0  0  0  0  0  0  0  0  0  0
   -7.2641    2.2191  -12.8240 H   0  0  0  0  0  0  0  0  0  0  0  0
   -7.2687    4.1960  -15.4673 C   0  0  0  0  0  0  0  0  0  0  0  0
   -8.5885    4.2878  -15.9881 C   0  0  0  0  0  0  0  0  0  0  0  0
   -8.8477    4.5233  -17.3318 C   0  0  0  0  0  0  0  0  0  0  0  0
  -10.4632    4.6964  -17.8779 Cl  0  0  0  0  0  0  0  0  0  0  0  0
   -7.8067    4.6454  -18.2253 C   0  0  0  0  0  0  0  0  0  0  0  0
   -6.5033    4.6188  -17.7863 C   0  0  0  0  0  0  0  0  0  0  0  0
   -5.5798    4.7854  -18.7437 N   0  0  0  0  0  0  0  0  0  0  0  0
   -4.2872    4.8438  -18.4027 C   0  0  0  0  0  0  0  0  0  0  0  0
   -3.8662    4.8091  -17.0993 C   0  0  0  0  0  0  0  0  0  0  0  0
   -4.8319    4.6510  -16.1058 C   0  0  0  0  0  0  0  0  0  0  0  0
   -6.2035    4.4687  -16.3987 C   0  0  0  0  0  0  0  0  0  0  0  0
   -5.9049    4.1973  -13.1367 C   0  0  0  0  0  0  0  0  0  0  0  0
   -5.1329    3.0588  -12.5239 C   0  0  0  0  0  0  0  0  0  0  0  0
   -5.4158    2.3535  -11.5719 O   0  0  0  0  0  0  0  0  0  0  0  0
   -3.9181    2.9023  -13.1036 O   0  0  0  0  0  0  0  0  0  0  0  0
   -3.6772    3.4330  -13.8373 H   0  0  0  0  0  0  0  0  0  0  0  0
 16 17  1  0  0  0
 17 18  2  0  0  0
 17 19  2  0  0  0
 17  3  1  0  0  0
  3  4  2  0  0  0
  4  5  1  0  0  0
  5  6  2  0  0  0
  6  9  1  0  0  0
  9 10  1  0  0  0
 10 11  1  0  0  0
 11 12  1  0  0  0
 12 13  1  0  0  0
 13 14  1  0  0  0
  6  7  1  0  0  0
  7  8  2  0  0  0
  8  1  1  0  0  0
  1 20  1  0  0  0
 20 21  1  0  0  0
 20 34  1  0  0  0
 34 35  1  0  0  0
 35 36  2  0  0  0
 35 37  1  0  0  0
 20 23  1  0  0  0
 23 24  2  0  0  0
 24 25  1  0  0  0
 25 26  1  0  0  0
 25 27  2  0  0  0
 27 28  1  0  0  0
 28 29  2  0  0  0
 29 30  1  0  0  0
 30 31  2  0  0  0
 31 32  1  0  0  0
 32 33  2  0  0  0
  8  3  1  0  0  0
 33 23  1  0  0  0
 14  9  1  0  0  0
 33 28  1  0  0  0
 12 15  1  0  0  0
  1  2  1  0  0  0
 21 22  1  0  0  0
 37 38  1  0  0  0
M  END
> <minimizedAffinity>
-9.53938

> <minimizedRMSD>
0.72685

$$$$
P9293


 41 44  0  0  0  0  0  0  0  0999 V2000
   -7.2315    3.9116  -13.7822 C   0  0  0  0  0  0  0  0  0  0  0  0
   -7.3201    2.5011  -13.7232 O   0  0  0  0  0  0  0  0  0  0  0  0
   -7.3743    2.2190  -12.7968 H   0  0  0  0  0  0  0  0  0  0  0  0
   -7.1511    4.2478  -15.2858 C   0  0  0  0  0  0  0  0  0  0  0  0
   -8.3635    4.3199  -16.0080 C   0  0  0  0  0  0  0  0  0  0  0  0
   -8.3877    4.6142  -17.3621 C   0  0  0  0  0  0  0  0  0  0  0  0
   -9.8913    4.7084  -18.1693 Cl  0  0  0  0  0  0  0  0  0  0  0  0
   -7.2138    4.8525  -18.0485 C   0  0  0  0  0  0  0  0  0  0  0  0
   -5.9958    4.7430  -17.4129 C   0  0  0  0  0  0  0  0  0  0  0  0
   -4.9114    4.9625  -18.1709 N   0  0  0  0  0  0  0  0  0  0  0  0
   -3.6960    4.7929  -17.6293 C   0  0  0  0  0  0  0  0  0  0  0  0
   -3.5028    4.4032  -16.3266 C   0  0  0  0  0  0  0  0  0  0  0  0
   -4.6283    4.1960  -15.5342 C   0  0  0  0  0  0  0  0  0  0  0  0
   -5.9360    4.3959  -16.0338 C   0  0  0  0  0  0  0  0  0  0  0  0
   -5.9858    4.4483  -12.9060 C   0  0  0  0  0  0  0  0  0  0  0  0
   -5.6605    5.5712  -12.8395 O   0  0  0  0  0  0  0  0  0  0  0  0
   -5.3809    3.1786  -12.2282 N   0  0  0  0  0  0  0  0  0  0  0  0
   -5.7915    2.3279  -12.5053 H   0  0  0  0  0  0  0  0  0  0  0  0
   -4.3225    3.0506  -11.2659 C   0  0  0  0  0  0  0  0  0  0  0  0
   -4.8098    3.3559   -9.8582 C   0  0  0  0  0  0  0  0  0  0  0  0
   -3.6494    3.5017   -8.8947 C   0  0  0  0  0  0  0  0  0  0  0  0
   -4.0833    4.1199   -7.7633 F   0  0  0  0  0  0  0  0  0  0  0  0
   -8.4802    4.4558  -13.1983 N   0  0  0  0  0  0  0  0  0  0  0  0
   -9.3158    4.4267  -13.7180 H   0  0  0  0  0  0  0  0  0  0  0  0
   -8.5979    6.3915  -11.6580 C   0  0  0  0  0  0  0  0  0  0  0  0
   -8.5762    6.8927  -10.3526 C   0  0  0  0  0  0  0  0  0  0  0  0
   -8.4412    6.0228   -9.2716 C   0  0  0  0  0  0  0  0  0  0  0  0
   -8.3549    4.6407   -9.4571 C   0  0  0  0  0  0  0  0  0  0  0  0
   -8.3615    4.1719  -10.7876 C   0  0  0  0  0  0  0  0  0  0  0  0
   -8.4802    5.0133  -11.9075 C   0  0  0  0  0  0  0  0  0  0  0  0
   -8.2648    3.7338   -8.4017 N   0  0  0  0  0  0  0  0  0  0  0  0
   -9.1668    2.5544   -8.5089 C   0  0  0  0  0  0  0  0  0  0  0  0
   -9.4155    1.8566   -7.1554 C   0  0  0  0  0  0  0  0  0  0  0  0
   -9.8385    2.7307   -6.0433 N   0  0  0  0  0  0  0  0  0  0  0  0
   -9.1904    4.0480   -6.1103 C   0  0  0  0  0  0  0  0  0  0  0  0
   -7.9621    4.1650   -7.0318 C   0  0  0  0  0  0  0  0  0  0  0  0
   -9.5907    2.2849   -5.1599 H   0  0  0  0  0  0  0  0  0  0  0  0
   -7.3666    7.9133  -13.6863 C   0  0  0  0  0  0  0  0  0  0  0  0
   -8.9370    7.5532  -12.9564 S   0  0  0  0  0  0  0  0  0  0  0  0
   -9.4239    8.7792  -12.3521 O   0  0  0  0  0  0  0  0  0  0  0  0
   -9.7505    6.8580  -13.9381 O   0  0  0  0  0  0  0  0  0  0  0  0
 38 39  1  0  0  0
 39 40  2  0  0  0
 39 41  2  0  0  0
 39 25  1  0  0  0
 25 26  2  0  0  0
 26 27  1  0  0  0
 27 28  2  0  0  0
 28 31  1  0  0  0
 31 32  1  0  0  0
 32 33  1  0  0  0
 33 34  1  0  0  0
 34 35  1  0  0  0
 35 36  1  0  0  0
 28 29  1  0  0  0
 29 30  2  0  0  0
 30 23  1  0  0  0
 23  1  1  0  0  0
  1  2  1  0  0  0
  1 15  1  0  0  0
 15 16  2  0  0  0
 15 17  1  0  0  0
 17 19  1  0  0  0
 19 20  1  0  0  0
 20 21  1  0  0  0
 21 22  1  0  0  0
  1  4  1  0  0  0
  4  5  2  0  0  0
  5  6  1  0  0  0
  6  7  1  0  0  0
  6  8  2  0  0  0
  8  9  1  0  0  0
  9 10  2  0  0  0
 10 11  1  0  0  0
 11 12  2  0  0  0
 12 13  1  0  0  0
 13 14  2  0  0  0
 30 25  1  0  0  0
 14  4  1  0  0  0
 36 31  1  0  0  0
 14  9  1  0  0  0
 34 37  1  0  0  0
 23 24  1  0  0  0
  2  3  1  0  0  0
 17 18  1  0  0  0
M  END
> <minimizedAffinity>
-8.73446

> <minimizedRMSD>
0.96785

$$$$
P9295


 39 43  0  0  0  0  0  0  0  0999 V2000
   -8.2556    5.4245  -13.3543 N   0  0  0  0  0  0  0  0  0  0  0  0
   -7.4225    4.3174  -14.0423 C   0  0  0  0  0  0  0  0  0  0  0  0
   -6.7443    3.4864  -13.5837 O   0  0  0  0  0  0  0  0  0  0  0  0
   -8.8105    5.9621  -13.9644 H   0  0  0  0  0  0  0  0  0  0  0  0
   -7.5679    4.4295  -15.5263 C   0  0  0  0  0  0  0  0  0  0  0  0
   -8.8554    4.3864  -16.0605 C   0  0  0  0  0  0  0  0  0  0  0  0
   -9.0367    4.4708  -17.4311 C   0  0  0  0  0  0  0  0  0  0  0  0
  -10.6275    4.4973  -18.0613 Cl  0  0  0  0  0  0  0  0  0  0  0  0
   -7.9479    4.5924  -18.2836 C   0  0  0  0  0  0  0  0  0  0  0  0
   -6.6482    4.6380  -17.7687 C   0  0  0  0  0  0  0  0  0  0  0  0
   -6.4548    4.5976  -16.3725 C   0  0  0  0  0  0  0  0  0  0  0  0
   -5.0577    4.7029  -15.8119 C   0  0  0  0  0  0  0  0  0  0  0  0
   -4.0572    5.3814  -16.7786 C   0  0  0  0  0  0  0  0  0  0  0  0
   -4.3105    6.9086  -16.8391 C   0  0  0  0  0  0  0  0  0  0  0  0
   -3.2660    7.6458  -17.6836 C   0  0  0  0  0  0  0  0  0  0  0  0
   -1.8928    6.9736  -17.6746 C   0  0  0  0  0  0  0  0  0  0  0  0
   -1.6513    6.2403  -16.4382 N   0  0  0  0  0  0  0  0  0  0  0  0
   -2.6176    5.1473  -16.2422 C   0  0  0  0  0  0  0  0  0  0  0  0
   -4.2453    4.6988  -18.1517 C   0  0  0  0  0  0  0  0  0  0  0  0
   -5.5934    4.9060  -18.6532 N   0  0  0  0  0  0  0  0  0  0  0  0
   -1.7236    6.8874  -15.6531 H   0  0  0  0  0  0  0  0  0  0  0  0
   -5.7586    5.2201  -19.5716 H   0  0  0  0  0  0  0  0  0  0  0  0
   -8.6126    7.1033  -11.6188 C   0  0  0  0  0  0  0  0  0  0  0  0
   -8.7396    7.4455  -10.2760 C   0  0  0  0  0  0  0  0  0  0  0  0
   -8.6547    6.4454   -9.3118 C   0  0  0  0  0  0  0  0  0  0  0  0
   -8.4656    5.0979   -9.6589 C   0  0  0  0  0  0  0  0  0  0  0  0
   -8.2586    4.8016  -11.0191 C   0  0  0  0  0  0  0  0  0  0  0  0
   -8.3488    5.7858  -12.0066 C   0  0  0  0  0  0  0  0  0  0  0  0
   -8.6029    4.1118   -8.6989 N   0  0  0  0  0  0  0  0  0  0  0  0
   -8.7917    2.6968   -9.0996 C   0  0  0  0  0  0  0  0  0  0  0  0
   -9.3601    1.8603   -7.9255 C   0  0  0  0  0  0  0  0  0  0  0  0
  -10.0624    2.6785   -6.9106 N   0  0  0  0  0  0  0  0  0  0  0  0
   -9.0781    3.6084   -6.3184 C   0  0  0  0  0  0  0  0  0  0  0  0
   -8.1276    4.3053   -7.3261 C   0  0  0  0  0  0  0  0  0  0  0  0
  -10.4489    2.0745   -6.1852 H   0  0  0  0  0  0  0  0  0  0  0  0
   -7.1582    8.5680  -13.4709 C   0  0  0  0  0  0  0  0  0  0  0  0
   -8.8030    8.3657  -12.8317 S   0  0  0  0  0  0  0  0  0  0  0  0
   -9.1769    9.6031  -12.1754 O   0  0  0  0  0  0  0  0  0  0  0  0
   -9.6439    7.8057  -13.8743 O   0  0  0  0  0  0  0  0  0  0  0  0
 36 37  1  0  0  0
 37 38  2  0  0  0
 37 39  2  0  0  0
 37 23  1  0  0  0
 23 24  2  0  0  0
 24 25  1  0  0  0
 25 26  2  0  0  0
 26 29  1  0  0  0
 29 30  1  0  0  0
 30 31  1  0  0  0
 31 32  1  0  0  0
 32 33  1  0  0  0
 33 34  1  0  0  0
 26 27  1  0  0  0
 27 28  2  0  0  0
 28  1  1  0  0  0
  1  2  1  0  0  0
  2  3  2  0  0  0
  2  5  1  0  0  0
  5  6  2  0  0  0
  6  7  1  0  0  0
  7  8  1  0  0  0
  7  9  2  0  0  0
  9 10  1  0  0  0
 10 11  2  0  0  0
 11 12  1  0  0  0
 13 12  1  0  0  0
 13 14  1  0  0  0
 14 15  1  0  0  0
 15 16  1  0  0  0
 16 17  1  0  0  0
 17 18  1  0  0  0
 13 19  1  0  0  0
 19 20  1  0  0  0
 28 23  1  0  0  0
 11  5  1  0  0  0
 18 13  1  0  0  0
 34 29  1  0  0  0
 20 10  1  0  0  0
 32 35  1  0  0  0
  1  4  1  0  0  0
 17 21  1  0  0  0
 20 22  1  0  0  0
M  END
> <minimizedAffinity>
-9.01789

> <minimizedRMSD>
0.33821

$$$$
P9296


 39 44  0  0  0  0  0  0  0  0999 V2000
   -8.1288    5.4543  -13.1093 N   0  0  0  0  0  0  0  0  0  0  0  0
   -7.1949    4.3989  -13.7535 C   0  0  0  0  0  0  0  0  0  0  0  0
   -6.3938    3.7007  -13.2688 O   0  0  0  0  0  0  0  0  0  0  0  0
   -8.6680    5.9727  -13.7494 H   0  0  0  0  0  0  0  0  0  0  0  0
   -7.3806    4.4447  -15.2537 C   0  0  0  0  0  0  0  0  0  0  0  0
   -8.6915    4.4258  -15.7447 C   0  0  0  0  0  0  0  0  0  0  0  0
   -8.9453    4.4280  -17.1109 C   0  0  0  0  0  0  0  0  0  0  0  0
   -7.8830    4.4952  -18.0022 C   0  0  0  0  0  0  0  0  0  0  0  0
   -6.5627    4.6122  -17.5441 C   0  0  0  0  0  0  0  0  0  0  0  0
   -6.2982    4.5525  -16.1575 C   0  0  0  0  0  0  0  0  0  0  0  0
   -4.8821    4.7126  -15.6716 C   0  0  0  0  0  0  0  0  0  0  0  0
   -3.8377    4.5199  -16.7707 C   0  0  0  0  0  0  0  0  0  0  0  0
   -4.2271    5.1854  -18.1018 C   0  0  0  0  0  0  0  0  0  0  0  0
   -3.1961    4.7829  -19.1915 C   0  0  0  0  0  0  0  0  0  0  0  0
   -2.8588    5.9058  -20.1764 C   0  0  0  0  0  0  0  0  0  0  0  0
   -4.0572    6.8011  -20.4550 C   0  0  0  0  0  0  0  0  0  0  0  0
   -4.5815    7.4560  -19.2547 N   0  0  0  0  0  0  0  0  0  0  0  0
   -4.2568    6.7370  -18.0044 C   0  0  0  0  0  0  0  0  0  0  0  0
   -5.5435    4.6768  -18.5075 N   0  0  0  0  0  0  0  0  0  0  0  0
   -5.5962    7.5186  -19.3376 H   0  0  0  0  0  0  0  0  0  0  0  0
   -5.7077    4.3878  -19.4342 H   0  0  0  0  0  0  0  0  0  0  0  0
   -8.5725    7.1609  -11.4566 C   0  0  0  0  0  0  0  0  0  0  0  0
   -8.6823    7.6505  -10.1568 C   0  0  0  0  0  0  0  0  0  0  0  0
   -8.5834    6.7849   -9.0840 C   0  0  0  0  0  0  0  0  0  0  0  0
   -8.4889    5.4163   -9.3596 C   0  0  0  0  0  0  0  0  0  0  0  0
   -8.3717    4.8895  -10.6593 C   0  0  0  0  0  0  0  0  0  0  0  0
   -8.4746    3.4653  -10.5044 C   0  0  0  0  0  0  0  0  0  0  0  0
   -8.7257    3.1890   -9.1691 C   0  0  0  0  0  0  0  0  0  0  0  0
   -8.5548    4.3576   -8.4830 N   0  0  0  0  0  0  0  0  0  0  0  0
   -8.7154    4.4696   -7.0425 C   0  0  0  0  0  0  0  0  0  0  0  0
   -9.1154    3.1542   -6.3713 C   0  0  0  0  0  0  0  0  0  0  0  0
   -9.9136    2.2856   -7.2349 N   0  0  0  0  0  0  0  0  0  0  0  0
   -9.1489    1.9508   -8.4508 C   0  0  0  0  0  0  0  0  0  0  0  0
   -8.3319    5.7929  -11.7566 C   0  0  0  0  0  0  0  0  0  0  0  0
  -10.7736    2.7671   -7.4976 H   0  0  0  0  0  0  0  0  0  0  0  0
   -7.1514    8.4902  -13.4475 C   0  0  0  0  0  0  0  0  0  0  0  0
   -8.7847    8.3344  -12.7679 S   0  0  0  0  0  0  0  0  0  0  0  0
   -9.1500    9.6173  -12.1980 O   0  0  0  0  0  0  0  0  0  0  0  0
   -9.6488    7.7037  -13.7504 O   0  0  0  0  0  0  0  0  0  0  0  0
 36 37  1  0  0  0
 37 38  2  0  0  0
 37 39  2  0  0  0
 37 22  1  0  0  0
 22 23  2  0  0  0
 23 24  1  0  0  0
 24 25  2  0  0  0
 25 26  1  0  0  0
 26 27  1  0  0  0
 27 28  2  0  0  0
 28 29  1  0  0  0
 29 30  1  0  0  0
 30 31  1  0  0  0
 31 32  1  0  0  0
 32 33  1  0  0  0
 26 34  2  0  0  0
 34  1  1  0  0  0
  1  2  1  0  0  0
  2  3  2  0  0  0
  2  5  1  0  0  0
  5  6  2  0  0  0
  6  7  1  0  0  0
  7  8  2  0  0  0
  8  9  1  0  0  0
  9 10  2  0  0  0
 10 11  1  0  0  0
 11 12  1  0  0  0
 13 12  1  0  0  0
 13 14  1  0  0  0
 14 15  1  0  0  0
 15 16  1  0  0  0
 16 17  1  0  0  0
 17 18  1  0  0  0
 13 19  1  0  0  0
 34 22  1  0  0  0
 10  5  1  0  0  0
 18 13  1  0  0  0
 29 25  1  0  0  0
 19  9  1  0  0  0
 33 28  1  0  0  0
 32 35  1  0  0  0
  1  4  1  0  0  0
 17 20  1  0  0  0
 19 21  1  0  0  0
M  END
> <minimizedAffinity>
-9.85413

> <minimizedRMSD>
0.26688

$$$$
P9297


 40 44  0  0  0  0  0  0  0  0999 V2000
   -8.0841    5.5122  -13.3064 N   0  0  0  0  0  0  0  0  0  0  0  0
   -7.4631    4.2662  -13.9804 C   0  0  0  0  0  0  0  0  0  0  0  0
   -6.9210    3.3453  -13.5130 O   0  0  0  0  0  0  0  0  0  0  0  0
   -8.4206    6.1943  -13.9315 H   0  0  0  0  0  0  0  0  0  0  0  0
   -7.5863    4.3944  -15.4669 C   0  0  0  0  0  0  0  0  0  0  0  0
   -8.8650    4.3778  -16.0265 C   0  0  0  0  0  0  0  0  0  0  0  0
   -9.0187    4.4892  -17.4004 C   0  0  0  0  0  0  0  0  0  0  0  0
  -10.5940    4.5311  -18.0751 Cl  0  0  0  0  0  0  0  0  0  0  0  0
   -7.9113    4.6229  -18.2276 C   0  0  0  0  0  0  0  0  0  0  0  0
   -6.6213    4.6469  -17.6869 C   0  0  0  0  0  0  0  0  0  0  0  0
   -6.4551    4.5683  -16.2887 C   0  0  0  0  0  0  0  0  0  0  0  0
   -5.0646    4.6283  -15.7029 C   0  0  0  0  0  0  0  0  0  0  0  0
   -4.0446    5.3439  -16.6241 C   0  0  0  0  0  0  0  0  0  0  0  0
   -2.5973    5.0796  -16.1228 C   0  0  0  0  0  0  0  0  0  0  0  0
   -1.9565    6.2813  -15.4255 C   0  0  0  0  0  0  0  0  0  0  0  0
   -2.9703    7.0623  -14.6030 C   0  0  0  0  0  0  0  0  0  0  0  0
   -4.0908    7.5744  -15.3934 N   0  0  0  0  0  0  0  0  0  0  0  0
   -4.2892    6.8747  -16.6723 C   0  0  0  0  0  0  0  0  0  0  0  0
   -4.2097    4.7271  -18.0281 C   0  0  0  0  0  0  0  0  0  0  0  0
   -5.5495    4.9312  -18.5454 N   0  0  0  0  0  0  0  0  0  0  0  0
   -3.9203    8.5606  -15.5904 H   0  0  0  0  0  0  0  0  0  0  0  0
   -5.7002    5.2563  -19.4623 H   0  0  0  0  0  0  0  0  0  0  0  0
   -8.3341    5.1477   -9.5825 C   0  0  0  0  0  0  0  0  0  0  0  0
   -8.6449    6.4809   -9.2613 C   0  0  0  0  0  0  0  0  0  0  0  0
   -8.8158    7.4566  -10.2391 C   0  0  0  0  0  0  0  0  0  0  0  0
   -8.6437    7.1165  -11.5751 C   0  0  0  0  0  0  0  0  0  0  0  0
   -8.2458    5.8284  -11.9499 C   0  0  0  0  0  0  0  0  0  0  0  0
   -8.0627    4.8696  -10.9459 C   0  0  0  0  0  0  0  0  0  0  0  0
   -7.2514    5.0675   -6.5902 C   0  0  0  0  0  0  0  0  0  0  0  0
   -8.5390    4.4744   -7.1781 C   0  0  0  0  0  0  0  0  0  0  0  0
   -8.9905    3.3083   -6.2605 C   0  0  0  0  0  0  0  0  0  0  0  0
  -10.0234    2.4551   -6.8532 N   0  0  0  0  0  0  0  0  0  0  0  0
   -9.4036    1.8534   -8.0443 C   0  0  0  0  0  0  0  0  0  0  0  0
   -9.0171    2.8829   -9.1164 C   0  0  0  0  0  0  0  0  0  0  0  0
   -8.3254    4.1118   -8.6083 N   0  0  0  0  0  0  0  0  0  0  0  0
  -10.8364    3.0115   -7.1175 H   0  0  0  0  0  0  0  0  0  0  0  0
   -8.9260    8.3565  -12.7966 S   0  0  0  0  0  0  0  0  0  0  0  0
   -7.2953    8.7045  -13.4100 C   0  0  0  0  0  0  0  0  0  0  0  0
   -9.4188    9.5559  -12.1481 O   0  0  0  0  0  0  0  0  0  0  0  0
   -9.7011    7.7209  -13.8474 O   0  0  0  0  0  0  0  0  0  0  0  0
 30 29  1  0  0  0
 30 31  1  0  0  0
 31 32  1  0  0  0
 32 33  1  0  0  0
 33 34  1  0  0  0
 34 35  1  0  0  0
 35 23  1  0  0  0
 23 24  2  0  0  0
 24 25  1  0  0  0
 25 26  2  0  0  0
 26 37  1  0  0  0
 37 38  1  0  0  0
 37 39  2  0  0  0
 37 40  2  0  0  0
 26 27  1  0  0  0
 27  1  1  0  0  0
  1  2  1  0  0  0
  2  3  2  0  0  0
  2  5  1  0  0  0
  5  6  2  0  0  0
  6  7  1  0  0  0
  7  8  1  0  0  0
  7  9  2  0  0  0
  9 10  1  0  0  0
 10 11  2  0  0  0
 11 12  1  0  0  0
 13 12  1  0  0  0
 13 14  1  0  0  0
 14 15  1  0  0  0
 15 16  1  0  0  0
 16 17  1  0  0  0
 17 18  1  0  0  0
 13 19  1  0  0  0
 19 20  1  0  0  0
 27 28  2  0  0  0
 35 30  1  0  0  0
 28 23  1  0  0  0
 11  5  1  0  0  0
 18 13  1  0  0  0
 20 10  1  0  0  0
 32 36  1  0  0  0
  1  4  1  0  0  0
 17 21  1  0  0  0
 20 22  1  0  0  0
M  END
> <minimizedAffinity>
-9.09213

> <minimizedRMSD>
0.29004

$$$$
P9298


 36 39  0  0  0  0  0  0  0  0999 V2000
   -6.8344    5.2339  -14.0776 C   0  0  0  0  0  0  0  0  0  0  0  0
   -5.8052    5.7297  -13.8365 O   0  0  0  0  0  0  0  0  0  0  0  0
   -8.0968    5.0698  -13.2014 N   0  0  0  0  0  0  0  0  0  0  0  0
   -8.8182    4.5413  -13.6129 H   0  0  0  0  0  0  0  0  0  0  0  0
   -3.6522    5.0244  -17.0902 C   0  0  0  0  0  0  0  0  0  0  0  0
   -4.0835    4.8981  -18.3977 C   0  0  0  0  0  0  0  0  0  0  0  0
   -5.3699    4.7121  -18.7511 N   0  0  0  0  0  0  0  0  0  0  0  0
   -6.3034    4.6497  -17.7899 C   0  0  0  0  0  0  0  0  0  0  0  0
   -7.6259    4.5138  -18.1721 C   0  0  0  0  0  0  0  0  0  0  0  0
   -8.6411    4.4873  -17.2243 C   0  0  0  0  0  0  0  0  0  0  0  0
  -10.4334    4.4864  -17.7603 Br  0  0  0  0  0  0  0  0  0  0  0  0
   -8.3646    4.5962  -15.8738 C   0  0  0  0  0  0  0  0  0  0  0  0
   -7.0422    4.7565  -15.4693 C   0  0  0  0  0  0  0  0  0  0  0  0
   -5.9894    4.7696  -16.4196 C   0  0  0  0  0  0  0  0  0  0  0  0
   -4.6263    4.9390  -16.0943 C   0  0  0  0  0  0  0  0  0  0  0  0
   -2.2088    5.2803  -16.7642 C   0  0  0  0  0  0  0  0  0  0  0  0
   -2.1174    7.7086  -16.7490 C   0  0  0  0  0  0  0  0  0  0  0  0
   -1.9832    6.4879  -15.9650 N   0  0  0  0  0  0  0  0  0  0  0  0
   -2.6643    6.5099  -15.2061 H   0  0  0  0  0  0  0  0  0  0  0  0
   -8.3807    5.5494  -11.9207 C   0  0  0  0  0  0  0  0  0  0  0  0
   -8.4011    4.5993  -10.8907 C   0  0  0  0  0  0  0  0  0  0  0  0
   -8.5454    4.9624   -9.5403 C   0  0  0  0  0  0  0  0  0  0  0  0
   -8.6981    6.3274   -9.2592 C   0  0  0  0  0  0  0  0  0  0  0  0
   -8.7692    7.2802  -10.2700 C   0  0  0  0  0  0  0  0  0  0  0  0
   -8.6314    6.8909  -11.6033 C   0  0  0  0  0  0  0  0  0  0  0  0
   -8.6203    4.0294   -8.5179 N   0  0  0  0  0  0  0  0  0  0  0  0
   -8.9452    2.6143   -8.8195 C   0  0  0  0  0  0  0  0  0  0  0  0
   -9.2044    1.8145   -7.5200 C   0  0  0  0  0  0  0  0  0  0  0  0
   -9.6485    2.6653   -6.3969 N   0  0  0  0  0  0  0  0  0  0  0  0
   -8.5518    3.6026   -6.0772 C   0  0  0  0  0  0  0  0  0  0  0  0
   -7.8182    4.2109   -7.2990 C   0  0  0  0  0  0  0  0  0  0  0  0
   -9.8571    2.0854   -5.5841 H   0  0  0  0  0  0  0  0  0  0  0  0
   -9.1731    8.0811  -12.8115 S   0  0  0  0  0  0  0  0  0  0  0  0
   -7.6755    8.7825  -13.4605 C   0  0  0  0  0  0  0  0  0  0  0  0
   -9.8542    9.1514  -12.0998 O   0  0  0  0  0  0  0  0  0  0  0  0
   -9.9103    7.3672  -13.8364 O   0  0  0  0  0  0  0  0  0  0  0  0
 17 18  1  0  0  0
 18 16  1  0  0  0
 16  5  1  0  0  0
  5  6  2  0  0  0
  6  7  1  0  0  0
  7  8  2  0  0  0
  8  9  1  0  0  0
  9 10  2  0  0  0
 10 11  1  0  0  0
 10 12  1  0  0  0
 12 13  2  0  0  0
 13  1  1  0  0  0
  1  2  2  0  0  0
  1  3  1  0  0  0
  3 20  1  0  0  0
 20 21  2  0  0  0
 21 22  1  0  0  0
 22 26  1  0  0  0
 26 27  1  0  0  0
 27 28  1  0  0  0
 28 29  1  0  0  0
 29 30  1  0  0  0
 30 31  1  0  0  0
 22 23  2  0  0  0
 23 24  1  0  0  0
 24 25  2  0  0  0
 25 33  1  0  0  0
 33 34  1  0  0  0
 33 35  2  0  0  0
 33 36  2  0  0  0
 13 14  1  0  0  0
 14 15  2  0  0  0
 15  5  1  0  0  0
 14  8  1  0  0  0
 25 20  1  0  0  0
 31 26  1  0  0  0
 18 19  1  0  0  0
  3  4  1  0  0  0
 29 32  1  0  0  0
M  END
> <minimizedAffinity>
-7.96992

> <minimizedRMSD>
0.41979

$$$$
P9300


 40 44  0  0  0  0  0  0  0  0999 V2000
   -8.0769    5.1633  -12.9801 N   0  0  0  0  0  0  0  0  0  0  0  0
   -6.8059    5.2434  -13.8494 C   0  0  0  0  0  0  0  0  0  0  0  0
   -5.7551    5.6929  -13.6133 O   0  0  0  0  0  0  0  0  0  0  0  0
   -8.8214    4.6615  -13.3841 H   0  0  0  0  0  0  0  0  0  0  0  0
   -7.0096    4.7341  -15.2305 C   0  0  0  0  0  0  0  0  0  0  0  0
   -8.3206    4.6111  -15.6811 C   0  0  0  0  0  0  0  0  0  0  0  0
   -8.5412    4.5369  -17.0476 C   0  0  0  0  0  0  0  0  0  0  0  0
  -10.1496    4.5430  -17.6221 Cl  0  0  0  0  0  0  0  0  0  0  0  0
   -7.4839    4.5823  -17.9564 C   0  0  0  0  0  0  0  0  0  0  0  0
   -6.1708    4.6982  -17.5275 C   0  0  0  0  0  0  0  0  0  0  0  0
   -5.1855    4.8514  -18.4391 N   0  0  0  0  0  0  0  0  0  0  0  0
   -3.9201    5.0791  -18.0146 C   0  0  0  0  0  0  0  0  0  0  0  0
   -3.5759    5.0116  -16.6732 C   0  0  0  0  0  0  0  0  0  0  0  0
   -4.5808    4.8369  -15.7365 C   0  0  0  0  0  0  0  0  0  0  0  0
   -5.9226    4.7364  -16.1407 C   0  0  0  0  0  0  0  0  0  0  0  0
   -2.8375    5.4540  -19.0173 C   0  0  0  0  0  0  0  0  0  0  0  0
   -3.3725    5.9735  -20.3596 C   0  0  0  0  0  0  0  0  0  0  0  0
   -2.2350    6.0777  -21.3807 C   0  0  0  0  0  0  0  0  0  0  0  0
   -1.5134    4.8237  -21.6256 N   0  0  0  0  0  0  0  0  0  0  0  0
   -1.7835    3.8055  -20.6230 C   0  0  0  0  0  0  0  0  0  0  0  0
   -1.8256    4.3194  -19.1979 C   0  0  0  0  0  0  0  0  0  0  0  0
   -0.5125    5.0201  -21.6275 H   0  0  0  0  0  0  0  0  0  0  0  0
   -8.3755    5.1645   -9.2935 C   0  0  0  0  0  0  0  0  0  0  0  0
   -8.7446    6.4947   -9.0620 C   0  0  0  0  0  0  0  0  0  0  0  0
   -8.9427    7.3983  -10.1047 C   0  0  0  0  0  0  0  0  0  0  0  0
   -8.7534    6.9986  -11.4311 C   0  0  0  0  0  0  0  0  0  0  0  0
   -8.3448    5.6878  -11.7101 C   0  0  0  0  0  0  0  0  0  0  0  0
   -8.1684    4.7990  -10.6350 C   0  0  0  0  0  0  0  0  0  0  0  0
   -9.3976    2.4161   -9.4992 C   0  0  0  0  0  0  0  0  0  0  0  0
   -8.4292    2.7775   -8.3811 C   0  0  0  0  0  0  0  0  0  0  0  0
   -9.0415    2.2047   -7.0434 C   0  0  0  0  0  0  0  0  0  0  0  0
  -10.0357    3.1071   -6.4172 N   0  0  0  0  0  0  0  0  0  0  0  0
   -9.3713    4.3740   -6.0575 C   0  0  0  0  0  0  0  0  0  0  0  0
   -8.1058    4.7293   -6.8675 C   0  0  0  0  0  0  0  0  0  0  0  0
   -8.2213    4.2625   -8.2562 N   0  0  0  0  0  0  0  0  0  0  0  0
  -10.4149    2.6690   -5.5777 H   0  0  0  0  0  0  0  0  0  0  0  0
   -9.3217    8.1454  -12.6664 S   0  0  0  0  0  0  0  0  0  0  0  0
   -7.8315    8.9089  -13.2690 C   0  0  0  0  0  0  0  0  0  0  0  0
  -10.0681    9.1941  -11.9892 O   0  0  0  0  0  0  0  0  0  0  0  0
  -10.0005    7.3873  -13.6996 O   0  0  0  0  0  0  0  0  0  0  0  0
 30 29  1  0  0  0
 30 31  1  0  0  0
 31 32  1  0  0  0
 32 33  1  0  0  0
 33 34  1  0  0  0
 34 35  1  0  0  0
 35 23  1  0  0  0
 23 24  2  0  0  0
 24 25  1  0  0  0
 25 26  2  0  0  0
 26 37  1  0  0  0
 37 38  1  0  0  0
 37 39  2  0  0  0
 37 40  2  0  0  0
 26 27  1  0  0  0
 27  1  1  0  0  0
  1  2  1  0  0  0
  2  3  2  0  0  0
  2  5  1  0  0  0
  5  6  2  0  0  0
  6  7  1  0  0  0
  7  8  1  0  0  0
  7  9  2  0  0  0
  9 10  1  0  0  0
 10 11  2  0  0  0
 11 12  1  0  0  0
 12 16  1  0  0  0
 16 17  1  0  0  0
 17 18  1  0  0  0
 18 19  1  0  0  0
 19 20  1  0  0  0
 20 21  1  0  0  0
 12 13  2  0  0  0
 13 14  1  0  0  0
 14 15  2  0  0  0
 27 28  2  0  0  0
 35 30  1  0  0  0
 28 23  1  0  0  0
 15  5  1  0  0  0
 15 10  1  0  0  0
 21 16  1  0  0  0
 32 36  1  0  0  0
  1  4  1  0  0  0
 19 22  1  0  0  0
M  END
> <minimizedAffinity>
-9.21414

> <minimizedRMSD>
0.50879

$$$$
P9301


 38 42  0  0  0  0  0  0  0  0999 V2000
   -8.2377    5.0547  -13.1675 N   0  0  0  0  0  0  0  0  0  0  0  0
   -7.0082    5.2208  -14.0885 C   0  0  0  0  0  0  0  0  0  0  0  0
   -5.9767    5.7310  -13.8894 O   0  0  0  0  0  0  0  0  0  0  0  0
   -8.9669    4.5130  -13.5471 H   0  0  0  0  0  0  0  0  0  0  0  0
   -7.2414    4.7286  -15.4724 C   0  0  0  0  0  0  0  0  0  0  0  0
   -8.5635    4.6507  -15.9016 C   0  0  0  0  0  0  0  0  0  0  0  0
   -8.8221    4.5584  -17.2594 C   0  0  0  0  0  0  0  0  0  0  0  0
  -10.4514    4.6124  -17.7832 Cl  0  0  0  0  0  0  0  0  0  0  0  0
   -7.7833    4.5439  -18.1865 C   0  0  0  0  0  0  0  0  0  0  0  0
   -6.4578    4.5967  -17.7806 C   0  0  0  0  0  0  0  0  0  0  0  0
   -5.4907    4.6278  -18.7170 N   0  0  0  0  0  0  0  0  0  0  0  0
   -4.1950    4.6863  -18.3401 C   0  0  0  0  0  0  0  0  0  0  0  0
   -3.8152    4.7036  -17.0088 C   0  0  0  0  0  0  0  0  0  0  0  0
   -4.8081    4.6979  -16.0391 C   0  0  0  0  0  0  0  0  0  0  0  0
   -6.1700    4.6645  -16.4019 C   0  0  0  0  0  0  0  0  0  0  0  0
   -3.1543    4.7761  -19.4274 C   0  0  0  0  0  0  0  0  0  0  0  0
   -2.9284    6.2345  -19.8094 C   0  0  0  0  0  0  0  0  0  0  0  0
   -3.9961    6.8603  -20.7340 C   0  0  0  0  0  0  0  0  0  0  0  0
   -3.1194    6.5711  -21.8885 N   0  0  0  0  0  0  0  0  0  0  0  0
   -1.9613    6.4726  -20.9895 C   0  0  0  0  0  0  0  0  0  0  0  0
   -3.0575    7.3323  -22.5646 H   0  0  0  0  0  0  0  0  0  0  0  0
   -8.6537    6.9039  -11.5609 C   0  0  0  0  0  0  0  0  0  0  0  0
   -8.7212    7.3092  -10.2261 C   0  0  0  0  0  0  0  0  0  0  0  0
   -8.6516    6.3619   -9.2127 C   0  0  0  0  0  0  0  0  0  0  0  0
   -8.5774    4.9904   -9.4919 C   0  0  0  0  0  0  0  0  0  0  0  0
   -8.5130    4.6072  -10.8434 C   0  0  0  0  0  0  0  0  0  0  0  0
   -8.4833    5.5490  -11.8815 C   0  0  0  0  0  0  0  0  0  0  0  0
   -8.6336    4.0807   -8.4486 N   0  0  0  0  0  0  0  0  0  0  0  0
   -9.0257    2.6796   -8.6983 C   0  0  0  0  0  0  0  0  0  0  0  0
   -9.0764    1.8408   -7.3996 C   0  0  0  0  0  0  0  0  0  0  0  0
   -9.3807    2.5849   -6.1691 N   0  0  0  0  0  0  0  0  0  0  0  0
   -8.4485    3.7097   -6.0008 C   0  0  0  0  0  0  0  0  0  0  0  0
   -7.7820    4.2815   -7.2757 C   0  0  0  0  0  0  0  0  0  0  0  0
   -9.2975    1.9580   -5.3688 H   0  0  0  0  0  0  0  0  0  0  0  0
   -7.6483    8.7872  -13.3959 C   0  0  0  0  0  0  0  0  0  0  0  0
   -9.1661    8.1206  -12.7538 S   0  0  0  0  0  0  0  0  0  0  0  0
   -9.8153    9.2021  -12.0289 O   0  0  0  0  0  0  0  0  0  0  0  0
   -9.9268    7.4392  -13.7834 O   0  0  0  0  0  0  0  0  0  0  0  0
 35 36  1  0  0  0
 36 37  2  0  0  0
 36 38  2  0  0  0
 36 22  1  0  0  0
 22 23  2  0  0  0
 23 24  1  0  0  0
 24 25  2  0  0  0
 25 28  1  0  0  0
 28 29  1  0  0  0
 29 30  1  0  0  0
 30 31  1  0  0  0
 31 32  1  0  0  0
 32 33  1  0  0  0
 25 26  1  0  0  0
 26 27  2  0  0  0
 27  1  1  0  0  0
  1  2  1  0  0  0
  2  3  2  0  0  0
  2  5  1  0  0  0
  5  6  2  0  0  0
  6  7  1  0  0  0
  7  8  1  0  0  0
  7  9  2  0  0  0
  9 10  1  0  0  0
 10 11  2  0  0  0
 11 12  1  0  0  0
 12 16  1  0  0  0
 16 17  1  0  0  0
 17 18  1  0  0  0
 18 19  1  0  0  0
 19 20  1  0  0  0
 12 13  2  0  0  0
 13 14  1  0  0  0
 14 15  2  0  0  0
 27 22  1  0  0  0
 15  5  1  0  0  0
 33 28  1  0  0  0
 15 10  1  0  0  0
 20 17  1  0  0  0
 31 34  1  0  0  0
  1  4  1  0  0  0
 19 21  1  0  0  0
M  END
> <minimizedAffinity>
-9.18264

> <minimizedRMSD>
0.41493

$$$$
P9327


 25 27  0  0  0  0  0  0  0  0999 V2000
   -6.9577    5.0256  -16.3742 C   0  0  0  0  0  0  0  0  0  0  0  0
   -8.2017    4.6160  -15.8367 C   0  0  0  0  0  0  0  0  0  0  0  0
   -9.1586    3.9822  -16.6273 C   0  0  0  0  0  0  0  0  0  0  0  0
   -8.9043    3.7592  -17.9636 C   0  0  0  0  0  0  0  0  0  0  0  0
   -7.6799    4.1371  -18.5271 C   0  0  0  0  0  0  0  0  0  0  0  0
   -7.5204    3.7922  -19.9694 C   0  0  0  0  0  0  0  0  0  0  0  0
   -6.6895    4.7709  -17.7485 C   0  0  0  0  0  0  0  0  0  0  0  0
   -5.3923    5.2265  -18.3898 C   0  0  0  0  0  0  0  0  0  0  0  0
   -2.9330    7.4835  -13.2111 C   0  0  0  0  0  0  0  0  0  0  0  0
   -4.0143    6.8390  -14.0144 C   0  0  0  0  0  0  0  0  0  0  0  0
   -3.9797    5.4997  -14.1344 N   0  0  0  0  0  0  0  0  0  0  0  0
   -4.9629    4.9455  -14.8721 C   0  0  0  0  0  0  0  0  0  0  0  0
   -5.9494    5.6621  -15.5229 C   0  0  0  0  0  0  0  0  0  0  0  0
   -5.8727    7.0282  -15.3305 C   0  0  0  0  0  0  0  0  0  0  0  0
   -4.9197    7.6438  -14.6011 N   0  0  0  0  0  0  0  0  0  0  0  0
   -8.6263    4.9734  -14.4552 C   0  0  0  0  0  0  0  0  0  0  0  0
   -9.3709    5.8610  -14.3111 O   0  0  0  0  0  0  0  0  0  0  0  0
   -8.0387    3.9807  -13.4256 N   0  0  0  0  0  0  0  0  0  0  0  0
   -7.4840    3.2654  -13.8128 H   0  0  0  0  0  0  0  0  0  0  0  0
   -8.1639    3.9349  -12.0684 C   0  0  0  0  0  0  0  0  0  0  0  0
   -8.4986    2.8489  -11.2351 C   0  0  0  0  0  0  0  0  0  0  0  0
   -8.5290    3.1984   -9.9450 N   0  0  0  0  0  0  0  0  0  0  0  0
   -8.2399    4.5103   -9.9664 N   0  0  0  0  0  0  0  0  0  0  0  0
   -8.1950    5.2469   -8.7295 C   0  0  0  0  0  0  0  0  0  0  0  0
   -8.0042    4.9972  -11.2161 C   0  0  0  0  0  0  0  0  0  0  0  0
  9 10  1  0  0  0
 10 11  2  0  0  0
 11 12  1  0  0  0
 12 13  2  0  0  0
 13  1  1  0  0  0
  1  2  1  0  0  0
  2 16  1  0  0  0
 16 17  2  0  0  0
 16 18  1  0  0  0
 18 20  1  0  0  0
 20 21  1  0  0  0
 21 22  2  0  0  0
 22 23  1  0  0  0
 23 24  1  0  0  0
 23 25  1  0  0  0
  2  3  2  0  0  0
  3  4  1  0  0  0
  4  5  2  0  0  0
  5  6  1  0  0  0
  5  7  1  0  0  0
  7  8  1  0  0  0
 13 14  1  0  0  0
 14 15  2  0  0  0
 15 10  1  0  0  0
  7  1  2  0  0  0
 25 20  2  0  0  0
 18 19  1  0  0  0
M  END
> <minimizedAffinity>
-7.40506

> <minimizedRMSD>
1.26983

$$$$
P9343


 24 26  0  0  0  0  0  0  0  0999 V2000
   -6.9387    4.9079  -16.7153 C   0  0  0  0  0  0  0  0  0  0  0  0
   -6.7475    4.6643  -18.0894 C   0  0  0  0  0  0  0  0  0  0  0  0
   -7.7397    4.0761  -18.8815 C   0  0  0  0  0  0  0  0  0  0  0  0
   -8.9460    3.6860  -18.3191 C   0  0  0  0  0  0  0  0  0  0  0  0
   -9.1707    3.9037  -16.9659 C   0  0  0  0  0  0  0  0  0  0  0  0
   -8.1937    4.5311  -16.1777 C   0  0  0  0  0  0  0  0  0  0  0  0
   -2.8831    7.2746  -13.4505 C   0  0  0  0  0  0  0  0  0  0  0  0
   -3.8903    6.6432  -14.3556 C   0  0  0  0  0  0  0  0  0  0  0  0
   -4.1479    5.3382  -14.1930 N   0  0  0  0  0  0  0  0  0  0  0  0
   -5.1276    4.8148  -14.9651 C   0  0  0  0  0  0  0  0  0  0  0  0
   -5.8574    5.5153  -15.9086 C   0  0  0  0  0  0  0  0  0  0  0  0
   -5.4363    6.8308  -16.0147 C   0  0  0  0  0  0  0  0  0  0  0  0
   -5.9440    7.6141  -16.9770 F   0  0  0  0  0  0  0  0  0  0  0  0
   -4.4943    7.4260  -15.2527 N   0  0  0  0  0  0  0  0  0  0  0  0
   -8.6063    4.9516  -14.8098 C   0  0  0  0  0  0  0  0  0  0  0  0
   -9.1970    5.9523  -14.6995 O   0  0  0  0  0  0  0  0  0  0  0  0
   -8.1346    3.9440  -13.7384 N   0  0  0  0  0  0  0  0  0  0  0  0
   -7.7157    3.1280  -14.0960 H   0  0  0  0  0  0  0  0  0  0  0  0
   -8.2043    4.0011  -12.3741 C   0  0  0  0  0  0  0  0  0  0  0  0
   -8.4075    2.9677  -11.4374 C   0  0  0  0  0  0  0  0  0  0  0  0
   -8.3779    3.4149  -10.1776 N   0  0  0  0  0  0  0  0  0  0  0  0
   -8.1959    4.7384  -10.3159 N   0  0  0  0  0  0  0  0  0  0  0  0
   -8.1275    5.5709   -9.1410 C   0  0  0  0  0  0  0  0  0  0  0  0
   -8.0721    5.1371  -11.6136 C   0  0  0  0  0  0  0  0  0  0  0  0
  7  8  1  0  0  0
  8  9  2  0  0  0
  9 10  1  0  0  0
 10 11  2  0  0  0
 11  1  1  0  0  0
  1  2  2  0  0  0
  2  3  1  0  0  0
  3  4  2  0  0  0
  4  5  1  0  0  0
  5  6  2  0  0  0
  6 15  1  0  0  0
 15 16  2  0  0  0
 15 17  1  0  0  0
 17 19  1  0  0  0
 19 20  1  0  0  0
 20 21  2  0  0  0
 21 22  1  0  0  0
 22 23  1  0  0  0
 22 24  1  0  0  0
 11 12  1  0  0  0
 12 13  1  0  0  0
 12 14  2  0  0  0
 14  8  1  0  0  0
  6  1  1  0  0  0
 24 19  2  0  0  0
 17 18  1  0  0  0
M  END
> <minimizedAffinity>
-7.50821

> <minimizedRMSD>
1.09352

$$$$
P9366


 35 38  0  0  0  0  0  0  0  0999 V2000
   -8.1417    4.6652  -15.9295 C   0  0  0  0  0  0  0  0  0  0  0  0
   -9.1605    3.9062  -16.5328 C   0  0  0  0  0  0  0  0  0  0  0  0
   -9.0983    3.5697  -17.8844 C   0  0  0  0  0  0  0  0  0  0  0  0
   -8.0171    3.9952  -18.6444 C   0  0  0  0  0  0  0  0  0  0  0  0
   -7.0120    4.7371  -18.0359 C   0  0  0  0  0  0  0  0  0  0  0  0
   -7.0256    5.0517  -16.6745 C   0  0  0  0  0  0  0  0  0  0  0  0
   -5.6843    5.7117  -16.3051 C   0  0  0  0  0  0  0  0  0  0  0  0
   -5.8073    6.9548  -15.4047 C   0  0  0  0  0  0  0  0  0  0  0  0
   -4.5860    7.3506  -14.6965 N   0  0  0  0  0  0  0  0  0  0  0  0
   -4.0034    6.2744  -13.9237 C   0  0  0  0  0  0  0  0  0  0  0  0
   -4.8284    5.8387  -12.7117 C   0  0  0  0  0  0  0  0  0  0  0  0
   -3.6641    5.2120  -14.8474 N   0  0  0  0  0  0  0  0  0  0  0  0
   -4.8326    4.6784  -15.5537 C   0  0  0  0  0  0  0  0  0  0  0  0
   -5.1835    6.0896  -17.7710 C   0  0  0  0  0  0  0  0  0  0  0  0
   -5.8428    5.1385  -18.6950 N   0  0  0  0  0  0  0  0  0  0  0  0
   -4.8119    8.1187  -14.0644 H   0  0  0  0  0  0  0  0  0  0  0  0
   -3.2249    4.4539  -14.3250 H   0  0  0  0  0  0  0  0  0  0  0  0
   -5.5273    4.8501  -19.5818 H   0  0  0  0  0  0  0  0  0  0  0  0
   -8.1013    3.9663  -13.5494 N   0  0  0  0  0  0  0  0  0  0  0  0
   -8.4062    5.0999  -14.5425 C   0  0  0  0  0  0  0  0  0  0  0  0
   -8.8252    6.1721  -14.3601 O   0  0  0  0  0  0  0  0  0  0  0  0
   -7.8223    3.1185  -13.9649 H   0  0  0  0  0  0  0  0  0  0  0  0
   -8.9888    2.4899   -8.8735 C   0  0  0  0  0  0  0  0  0  0  0  0
   -8.5328    3.2617  -10.0662 C   0  0  0  0  0  0  0  0  0  0  0  0
   -8.5860    2.8712  -11.3922 C   0  0  0  0  0  0  0  0  0  0  0  0
   -8.1542    3.9438  -12.1883 C   0  0  0  0  0  0  0  0  0  0  0  0
   -7.7984    4.9626  -11.3408 C   0  0  0  0  0  0  0  0  0  0  0  0
   -7.9649    4.5212  -10.0466 N   0  0  0  0  0  0  0  0  0  0  0  0
   -7.5458    5.2821   -8.8763 C   0  0  0  0  0  0  0  0  0  0  0  0
   -6.3291    4.6490   -8.3567 N   0  0  0  0  0  0  0  0  0  0  0  0
   -6.5274    3.6777   -8.1162 H   0  0  0  0  0  0  0  0  0  0  0  0
   -6.0150    5.1480   -7.5244 H   0  0  0  0  0  0  0  0  0  0  0  0
   -3.7056    6.2069  -18.2420 C   0  0  0  0  0  0  0  0  0  0  0  0
   -2.8263    7.2126  -17.5137 C   0  0  0  0  0  0  0  0  0  0  0  0
   -2.9563    4.8877  -18.3927 C   0  0  0  0  0  0  0  0  0  0  0  0
 23 24  1  0  0  0
 24 25  2  0  0  0
 25 26  1  0  0  0
 26 19  1  0  0  0
 19 20  1  0  0  0
 20 21  2  0  0  0
 20  1  1  0  0  0
  1  2  2  0  0  0
  2  3  1  0  0  0
  3  4  2  0  0  0
  4  5  1  0  0  0
  5  6  2  0  0  0
  6  7  1  0  0  0
  7  8  1  0  0  0
  8  9  1  0  0  0
  9 10  1  0  0  0
 10 11  1  0  0  0
 10 12  1  0  0  0
 12 13  1  0  0  0
  7 14  1  0  0  0
 14 33  1  0  0  0
 33 34  1  0  0  0
 33 35  1  0  0  0
 14 15  1  0  0  0
 26 27  2  0  0  0
 27 28  1  0  0  0
 28 29  1  0  0  0
 29 30  1  0  0  0
 28 24  1  0  0  0
  6  1  1  0  0  0
 13  7  1  0  0  0
 15  5  1  0  0  0
 19 22  1  0  0  0
  9 16  1  0  0  0
 12 17  1  0  0  0
 15 18  1  0  0  0
 30 31  1  0  0  0
 30 32  1  0  0  0
M  END
> <minimizedAffinity>
-7.94768

> <minimizedRMSD>
0.64005

$$$$
P9369


 28 31  0  0  0  0  0  0  0  0999 V2000
   -8.5774    4.8173  -14.8952 C   0  0  0  0  0  0  0  0  0  0  0  0
   -9.3470    5.6491  -14.6395 O   0  0  0  0  0  0  0  0  0  0  0  0
   -7.6608    4.0015  -13.9846 N   0  0  0  0  0  0  0  0  0  0  0  0
   -7.1497    3.2947  -14.4411 H   0  0  0  0  0  0  0  0  0  0  0  0
   -7.4240    4.0972  -12.5763 C   0  0  0  0  0  0  0  0  0  0  0  0
   -7.7411    5.4392  -11.9086 C   0  0  0  0  0  0  0  0  0  0  0  0
   -8.2537    5.1066  -10.5694 N   0  0  0  0  0  0  0  0  0  0  0  0
   -7.7519    5.9857   -9.5289 C   0  0  0  0  0  0  0  0  0  0  0  0
   -8.0949    3.6557  -10.3530 C   0  0  0  0  0  0  0  0  0  0  0  0
   -9.1562    3.0638   -9.4166 C   0  0  0  0  0  0  0  0  0  0  0  0
   -8.4282    2.0530   -8.5550 C   0  0  0  0  0  0  0  0  0  0  0  0
   -7.1640    1.7984   -9.2604 N   0  0  0  0  0  0  0  0  0  0  0  0
   -6.7822    3.1202   -9.7561 C   0  0  0  0  0  0  0  0  0  0  0  0
   -8.2444    3.1081  -11.7798 C   0  0  0  0  0  0  0  0  0  0  0  0
   -7.3011    1.1448  -10.0313 H   0  0  0  0  0  0  0  0  0  0  0  0
   -7.1020    4.9236  -16.9139 C   0  0  0  0  0  0  0  0  0  0  0  0
   -6.9566    4.6817  -18.2883 C   0  0  0  0  0  0  0  0  0  0  0  0
   -7.9535    4.0240  -19.0170 C   0  0  0  0  0  0  0  0  0  0  0  0
   -9.1117    3.5794  -18.3900 C   0  0  0  0  0  0  0  0  0  0  0  0
   -9.2815    3.7983  -17.0300 C   0  0  0  0  0  0  0  0  0  0  0  0
   -8.2975    4.4863  -16.3111 C   0  0  0  0  0  0  0  0  0  0  0  0
   -2.9935    7.4743  -13.9063 C   0  0  0  0  0  0  0  0  0  0  0  0
   -4.0739    6.8089  -14.6965 C   0  0  0  0  0  0  0  0  0  0  0  0
   -3.8680    5.5347  -15.0689 N   0  0  0  0  0  0  0  0  0  0  0  0
   -4.8641    4.9575  -15.7757 C   0  0  0  0  0  0  0  0  0  0  0  0
   -6.0350    5.5905  -16.1584 C   0  0  0  0  0  0  0  0  0  0  0  0
   -6.1112    6.9049  -15.7411 C   0  0  0  0  0  0  0  0  0  0  0  0
   -5.1604    7.5376  -15.0158 N   0  0  0  0  0  0  0  0  0  0  0  0
 22 23  1  0  0  0
 23 24  2  0  0  0
 24 25  1  0  0  0
 25 26  2  0  0  0
 26 16  1  0  0  0
 16 17  2  0  0  0
 17 18  1  0  0  0
 18 19  2  0  0  0
 19 20  1  0  0  0
 20 21  2  0  0  0
 21  1  1  0  0  0
  1  2  2  0  0  0
  1  3  1  0  0  0
  5  3  1  0  0  0
  5  6  1  0  0  0
  6  7  1  0  0  0
  7  8  1  0  0  0
  7  9  1  0  0  0
  9 10  1  0  0  0
 10 11  1  0  0  0
 11 12  1  0  0  0
 12 13  1  0  0  0
  9 14  1  0  0  0
 26 27  1  0  0  0
 27 28  2  0  0  0
 28 23  1  0  0  0
 21 16  1  0  0  0
 14  5  1  0  0  0
 13  9  1  0  0  0
  3  4  1  0  0  0
 12 15  1  0  0  0
M  END
> <minimizedAffinity>
-7.27190

> <minimizedRMSD>
0.98133

$$$$
P9371


 31 34  0  0  0  0  0  0  0  0999 V2000
   -7.3287    5.5360  -14.5243 C   0  0  0  0  0  0  0  0  0  0  0  0
   -7.0269    6.6491  -14.3716 O   0  0  0  0  0  0  0  0  0  0  0  0
   -7.8036    4.4855  -13.5105 N   0  0  0  0  0  0  0  0  0  0  0  0
   -7.9255    3.5813  -13.8806 H   0  0  0  0  0  0  0  0  0  0  0  0
   -8.0972    4.6058  -12.1193 C   0  0  0  0  0  0  0  0  0  0  0  0
   -8.1158    5.9998  -11.5230 C   0  0  0  0  0  0  0  0  0  0  0  0
   -8.4041    5.7241  -10.1035 N   0  0  0  0  0  0  0  0  0  0  0  0
   -7.9737    6.8394   -9.2715 C   0  0  0  0  0  0  0  0  0  0  0  0
   -7.8635    4.3566   -9.7779 C   0  0  0  0  0  0  0  0  0  0  0  0
   -6.8292    4.2948   -8.6341 C   0  0  0  0  0  0  0  0  0  0  0  0
   -7.2206    4.5033   -7.2152 N   0  0  0  0  0  0  0  0  0  0  0  0
   -8.5953    4.1095   -6.8798 C   0  0  0  0  0  0  0  0  0  0  0  0
   -8.9861    2.6731   -7.2343 C   0  0  0  0  0  0  0  0  0  0  0  0
   -8.6774    2.3208   -8.5757 O   0  0  0  0  0  0  0  0  0  0  0  0
   -9.0213    3.3326   -9.5130 C   0  0  0  0  0  0  0  0  0  0  0  0
   -7.2082    3.8991  -11.1215 C   0  0  0  0  0  0  0  0  0  0  0  0
   -7.1157    5.4952   -7.0017 H   0  0  0  0  0  0  0  0  0  0  0  0
   -6.3289    5.0173  -16.8150 C   0  0  0  0  0  0  0  0  0  0  0  0
   -6.5976    4.6210  -18.1422 C   0  0  0  0  0  0  0  0  0  0  0  0
   -7.8858    4.2650  -18.5489 C   0  0  0  0  0  0  0  0  0  0  0  0
   -8.9182    4.2933  -17.6277 C   0  0  0  0  0  0  0  0  0  0  0  0
  -10.5383    4.1222  -18.1081 Cl  0  0  0  0  0  0  0  0  0  0  0  0
   -8.6731    4.5998  -16.3035 C   0  0  0  0  0  0  0  0  0  0  0  0
   -7.3882    4.9710  -15.8970 C   0  0  0  0  0  0  0  0  0  0  0  0
   -1.2058    6.9677  -15.3529 C   0  0  0  0  0  0  0  0  0  0  0  0
   -2.5346    6.4298  -15.7705 C   0  0  0  0  0  0  0  0  0  0  0  0
   -2.9459    5.2850  -15.1973 N   0  0  0  0  0  0  0  0  0  0  0  0
   -4.1759    4.8547  -15.5463 C   0  0  0  0  0  0  0  0  0  0  0  0
   -4.9986    5.4952  -16.4533 C   0  0  0  0  0  0  0  0  0  0  0  0
   -4.4604    6.6559  -16.9780 C   0  0  0  0  0  0  0  0  0  0  0  0
   -3.2469    7.1492  -16.6568 N   0  0  0  0  0  0  0  0  0  0  0  0
 25 26  1  0  0  0
 26 27  2  0  0  0
 27 28  1  0  0  0
 28 29  2  0  0  0
 29 18  1  0  0  0
 18 19  2  0  0  0
 19 20  1  0  0  0
 20 21  2  0  0  0
 21 22  1  0  0  0
 21 23  1  0  0  0
 23 24  2  0  0  0
 24  1  1  0  0  0
  1  2  2  0  0  0
  1  3  1  0  0  0
  5  3  1  0  0  0
  5  6  1  0  0  0
  6  7  1  0  0  0
  7  8  1  0  0  0
  7  9  1  0  0  0
  9 10  1  0  0  0
 10 11  1  0  0  0
 11 12  1  0  0  0
 12 13  1  0  0  0
 13 14  1  0  0  0
 14 15  1  0  0  0
  9 16  1  0  0  0
 29 30  1  0  0  0
 30 31  2  0  0  0
 31 26  1  0  0  0
 24 18  1  0  0  0
 16  5  1  0  0  0
 15  9  1  0  0  0
  3  4  1  0  0  0
 11 17  1  0  0  0
M  END
> <minimizedAffinity>
-7.30562

> <minimizedRMSD>
0.35988

$$$$
P9372


 35 38  0  0  0  0  0  0  0  0999 V2000
   -7.4730    5.2550  -14.1120 C   0  0  0  0  0  0  0  0  0  0  0  0
   -6.1588    5.5764  -13.6884 O   0  0  0  0  0  0  0  0  0  0  0  0
   -6.1686    5.7979  -12.7441 H   0  0  0  0  0  0  0  0  0  0  0  0
   -7.5070    4.8897  -15.6329 C   0  0  0  0  0  0  0  0  0  0  0  0
   -8.6906    4.2754  -16.0980 C   0  0  0  0  0  0  0  0  0  0  0  0
   -8.9236    4.0303  -17.4481 C   0  0  0  0  0  0  0  0  0  0  0  0
  -10.4924    3.6220  -17.9617 Cl  0  0  0  0  0  0  0  0  0  0  0  0
   -7.9375    4.2447  -18.3855 C   0  0  0  0  0  0  0  0  0  0  0  0
   -6.7273    4.7711  -17.9622 C   0  0  0  0  0  0  0  0  0  0  0  0
   -6.4947    5.1303  -16.6079 C   0  0  0  0  0  0  0  0  0  0  0  0
   -5.2122    5.7843  -16.3549 C   0  0  0  0  0  0  0  0  0  0  0  0
   -4.0315    5.1118  -16.1113 C   0  0  0  0  0  0  0  0  0  0  0  0
   -2.8550    5.7182  -15.8471 N   0  0  0  0  0  0  0  0  0  0  0  0
   -2.8688    7.0618  -15.8156 C   0  0  0  0  0  0  0  0  0  0  0  0
   -1.5802    7.7545  -15.5162 C   0  0  0  0  0  0  0  0  0  0  0  0
   -3.9500    7.8255  -16.0560 N   0  0  0  0  0  0  0  0  0  0  0  0
   -5.0895    7.1636  -16.3383 C   0  0  0  0  0  0  0  0  0  0  0  0
   -7.8184    9.0477  -12.9488 C   0  0  0  0  0  0  0  0  0  0  0  0
   -7.5112    7.7160  -13.3742 N   0  0  0  0  0  0  0  0  0  0  0  0
   -8.4536    6.5476  -13.8099 C   0  0  0  0  0  0  0  0  0  0  0  0
   -9.6151    6.5259  -13.9593 O   0  0  0  0  0  0  0  0  0  0  0  0
   -6.5507    7.5012  -13.3959 H   0  0  0  0  0  0  0  0  0  0  0  0
   -8.0073    4.1466  -13.3215 N   0  0  0  0  0  0  0  0  0  0  0  0
   -7.8466    3.2923  -13.8552 H   0  0  0  0  0  0  0  0  0  0  0  0
   -7.4771    3.9225  -11.9835 C   0  0  0  0  0  0  0  0  0  0  0  0
   -7.3646    5.1240  -11.0188 C   0  0  0  0  0  0  0  0  0  0  0  0
   -7.4541    4.4552   -9.6613 C   0  0  0  0  0  0  0  0  0  0  0  0
   -7.6828    5.3319   -8.4459 C   0  0  0  0  0  0  0  0  0  0  0  0
   -8.0218    4.4289   -7.2557 C   0  0  0  0  0  0  0  0  0  0  0  0
   -9.1237    3.5716   -7.5302 O   0  0  0  0  0  0  0  0  0  0  0  0
   -8.9151    2.7049   -8.6533 C   0  0  0  0  0  0  0  0  0  0  0  0
  -10.0610    1.8986   -8.8165 O   0  0  0  0  0  0  0  0  0  0  0  0
   -8.6497    3.5442   -9.8841 C   0  0  0  0  0  0  0  0  0  0  0  0
   -8.3360    2.8747  -11.2171 C   0  0  0  0  0  0  0  0  0  0  0  0
  -10.8361    2.4637   -8.9605 H   0  0  0  0  0  0  0  0  0  0  0  0
 18 19  1  0  0  0
 19 20  1  0  0  0
 20 21  2  0  0  0
 20  1  1  0  0  0
  1  2  1  0  0  0
  1 23  1  0  0  0
 25 23  1  0  0  0
 25 26  1  0  0  0
 27 26  1  0  0  0
 27 28  1  0  0  0
 28 29  1  0  0  0
 29 30  1  0  0  0
 30 31  1  0  0  0
 31 32  1  0  0  0
 31 33  1  0  0  0
 33 34  1  0  0  0
  1  4  1  0  0  0
  4  5  2  0  0  0
  5  6  1  0  0  0
  6  7  1  0  0  0
  6  8  2  0  0  0
  8  9  1  0  0  0
  9 10  2  0  0  0
 10 11  1  0  0  0
 11 12  2  0  0  0
 12 13  1  0  0  0
 13 14  2  0  0  0
 14 15  1  0  0  0
 14 16  1  0  0  0
 16 17  2  0  0  0
 34 25  1  0  0  0
 10  4  1  0  0  0
 17 11  1  0  0  0
 33 27  1  0  0  0
 19 22  1  0  0  0
  2  3  1  0  0  0
 23 24  1  0  0  0
 32 35  1  0  0  0
M  END
> <minimizedAffinity>
-8.22526

> <minimizedRMSD>
0.40915

$$$$
P9379


 33 36  0  0  0  0  0  0  0  0999 V2000
   -6.5251    5.0233  -16.6289 C   0  0  0  0  0  0  0  0  0  0  0  0
   -6.6910    4.6879  -17.9879 C   0  0  0  0  0  0  0  0  0  0  0  0
   -7.9338    4.3219  -18.4921 C   0  0  0  0  0  0  0  0  0  0  0  0
   -9.0216    4.2689  -17.6364 C   0  0  0  0  0  0  0  0  0  0  0  0
  -10.5839    4.0628  -18.2826 Cl  0  0  0  0  0  0  0  0  0  0  0  0
   -8.8762    4.5110  -16.2773 C   0  0  0  0  0  0  0  0  0  0  0  0
   -7.6364    4.9057  -15.7715 C   0  0  0  0  0  0  0  0  0  0  0  0
   -2.7578    6.3969  -15.4621 C   0  0  0  0  0  0  0  0  0  0  0  0
   -3.1305    5.1701  -15.0471 N   0  0  0  0  0  0  0  0  0  0  0  0
   -4.3651    4.7690  -15.4009 C   0  0  0  0  0  0  0  0  0  0  0  0
   -5.2208    5.5054  -16.1929 C   0  0  0  0  0  0  0  0  0  0  0  0
   -4.7282    6.7439  -16.5642 C   0  0  0  0  0  0  0  0  0  0  0  0
   -3.5174    7.2194  -16.2143 N   0  0  0  0  0  0  0  0  0  0  0  0
   -1.4198    6.9177  -14.9748 C   0  0  0  0  0  0  0  0  0  0  0  0
   -1.6744    7.4887  -12.6229 C   0  0  0  0  0  0  0  0  0  0  0  0
   -1.4950    8.0029  -13.9761 N   0  0  0  0  0  0  0  0  0  0  0  0
   -0.6306    8.5432  -14.0112 H   0  0  0  0  0  0  0  0  0  0  0  0
   -7.6043    5.3738  -14.3556 C   0  0  0  0  0  0  0  0  0  0  0  0
   -7.3109    6.4824  -14.1374 O   0  0  0  0  0  0  0  0  0  0  0  0
   -8.0672    4.2528  -13.3977 N   0  0  0  0  0  0  0  0  0  0  0  0
   -8.3318    3.4147  -13.8413 H   0  0  0  0  0  0  0  0  0  0  0  0
   -8.1688    4.2357  -12.0368 C   0  0  0  0  0  0  0  0  0  0  0  0
   -8.5090    3.1219  -11.2500 C   0  0  0  0  0  0  0  0  0  0  0  0
   -8.5238    3.5104   -9.9228 C   0  0  0  0  0  0  0  0  0  0  0  0
   -8.8098    2.6470   -8.7375 C   0  0  0  0  0  0  0  0  0  0  0  0
   -8.2246    4.8613   -9.8960 N   0  0  0  0  0  0  0  0  0  0  0  0
   -7.9740    5.2900  -11.1813 C   0  0  0  0  0  0  0  0  0  0  0  0
   -8.1325    5.6837   -8.7015 C   0  0  0  0  0  0  0  0  0  0  0  0
   -8.5710    7.1474   -8.8346 C   0  0  0  0  0  0  0  0  0  0  0  0
   -7.2930    7.9429   -8.6338 C   0  0  0  0  0  0  0  0  0  0  0  0
   -6.5184    7.1418   -7.6744 N   0  0  0  0  0  0  0  0  0  0  0  0
   -6.6961    5.7612   -8.1691 C   0  0  0  0  0  0  0  0  0  0  0  0
   -6.8893    7.2427   -6.7296 H   0  0  0  0  0  0  0  0  0  0  0  0
 15 16  1  0  0  0
 16 14  1  0  0  0
 14  8  1  0  0  0
  8  9  2  0  0  0
  9 10  1  0  0  0
 10 11  2  0  0  0
 11  1  1  0  0  0
  1  2  2  0  0  0
  2  3  1  0  0  0
  3  4  2  0  0  0
  4  5  1  0  0  0
  4  6  1  0  0  0
  6  7  2  0  0  0
  7 18  1  0  0  0
 18 19  2  0  0  0
 18 20  1  0  0  0
 20 22  1  0  0  0
 22 23  1  0  0  0
 23 24  2  0  0  0
 24 25  1  0  0  0
 24 26  1  0  0  0
 28 26  1  0  0  0
 28 29  1  0  0  0
 29 30  1  0  0  0
 30 31  1  0  0  0
 31 32  1  0  0  0
 26 27  1  0  0  0
 11 12  1  0  0  0
 12 13  2  0  0  0
 13  8  1  0  0  0
  7  1  1  0  0  0
 27 22  2  0  0  0
 32 28  1  0  0  0
 16 17  1  0  0  0
 20 21  1  0  0  0
 31 33  1  0  0  0
M  END
> <minimizedAffinity>
-6.61027

> <minimizedRMSD>
0.30659

$$$$
P9398


 30 33  0  0  0  0  0  0  0  0999 V2000
   -7.5223    5.3012  -15.0607 C   0  0  0  0  0  0  0  0  0  0  0  0
   -7.3606    6.4539  -15.0554 O   0  0  0  0  0  0  0  0  0  0  0  0
   -7.5278    4.2913  -13.9036 N   0  0  0  0  0  0  0  0  0  0  0  0
   -7.7663    3.3714  -14.1606 H   0  0  0  0  0  0  0  0  0  0  0  0
   -7.2379    4.4728  -12.4881 C   0  0  0  0  0  0  0  0  0  0  0  0
   -7.8124    3.3741  -11.6182 C   0  0  0  0  0  0  0  0  0  0  0  0
   -7.9763    4.0167  -10.2344 C   0  0  0  0  0  0  0  0  0  0  0  0
   -8.8860    3.1175   -9.4010 C   0  0  0  0  0  0  0  0  0  0  0  0
   -8.5942    3.4433   -7.9594 C   0  0  0  0  0  0  0  0  0  0  0  0
   -7.2609    4.0627   -7.9442 N   0  0  0  0  0  0  0  0  0  0  0  0
   -6.7414    3.9855   -9.3344 C   0  0  0  0  0  0  0  0  0  0  0  0
   -8.4272    5.3887  -10.5664 N   0  0  0  0  0  0  0  0  0  0  0  0
   -8.2997    6.4209   -9.5397 C   0  0  0  0  0  0  0  0  0  0  0  0
   -7.8003    5.7772  -11.8709 C   0  0  0  0  0  0  0  0  0  0  0  0
   -6.6444    3.5556   -7.3094 H   0  0  0  0  0  0  0  0  0  0  0  0
   -6.7061    6.7845  -11.8155 C   0  0  0  0  0  0  0  0  0  0  0  0
   -5.8441    7.5605  -11.7312 N   0  0  0  0  0  0  0  0  0  0  0  0
   -6.8375    4.8816  -17.4466 C   0  0  0  0  0  0  0  0  0  0  0  0
   -7.2105    4.4138  -18.7210 C   0  0  0  0  0  0  0  0  0  0  0  0
   -8.4207    3.7471  -18.9236 C   0  0  0  0  0  0  0  0  0  0  0  0
   -9.2741    3.5111  -17.8527 C   0  0  0  0  0  0  0  0  0  0  0  0
   -8.9210    3.9419  -16.5759 C   0  0  0  0  0  0  0  0  0  0  0  0
   -7.7255    4.6400  -16.3774 C   0  0  0  0  0  0  0  0  0  0  0  0
   -1.9235    7.6664  -16.7536 C   0  0  0  0  0  0  0  0  0  0  0  0
   -3.2157    6.9387  -16.9377 C   0  0  0  0  0  0  0  0  0  0  0  0
   -3.3084    5.7048  -16.4128 N   0  0  0  0  0  0  0  0  0  0  0  0
   -4.4908    5.0760  -16.5818 C   0  0  0  0  0  0  0  0  0  0  0  0
   -5.5684    5.5958  -17.2765 C   0  0  0  0  0  0  0  0  0  0  0  0
   -5.3351    6.8547  -17.7976 C   0  0  0  0  0  0  0  0  0  0  0  0
   -4.1834    7.5465  -17.6495 N   0  0  0  0  0  0  0  0  0  0  0  0
 24 25  1  0  0  0
 25 26  2  0  0  0
 26 27  1  0  0  0
 27 28  2  0  0  0
 28 18  1  0  0  0
 18 19  2  0  0  0
 19 20  1  0  0  0
 20 21  2  0  0  0
 21 22  1  0  0  0
 22 23  2  0  0  0
 23  1  1  0  0  0
  1  2  2  0  0  0
  1  3  1  0  0  0
  5  3  1  0  0  0
  5  6  1  0  0  0
  7  6  1  0  0  0
  7  8  1  0  0  0
  8  9  1  0  0  0
  9 10  1  0  0  0
 10 11  1  0  0  0
  7 12  1  0  0  0
 12 13  1  0  0  0
 12 14  1  0  0  0
 14 16  1  0  0  0
 16 17  3  0  0  0
 28 29  1  0  0  0
 29 30  2  0  0  0
 30 25  1  0  0  0
 23 18  1  0  0  0
 14  5  1  0  0  0
 11  7  1  0  0  0
  3  4  1  0  0  0
 10 15  1  0  0  0
M  END
> <minimizedAffinity>
-7.07075

> <minimizedRMSD>
0.74677

$$$$
P9415


 30 33  0  0  0  0  0  0  0  0999 V2000
   -8.6287    5.0659  -14.5791 C   0  0  0  0  0  0  0  0  0  0  0  0
   -9.3888    5.9432  -14.4980 O   0  0  0  0  0  0  0  0  0  0  0  0
   -7.9200    4.2605  -13.4841 N   0  0  0  0  0  0  0  0  0  0  0  0
   -7.3750    3.5093  -13.8126 H   0  0  0  0  0  0  0  0  0  0  0  0
   -7.9215    4.4238  -12.0520 C   0  0  0  0  0  0  0  0  0  0  0  0
   -6.5370    4.6822  -11.4534 C   0  0  0  0  0  0  0  0  0  0  0  0
   -6.4512    3.8701  -10.2303 N   0  0  0  0  0  0  0  0  0  0  0  0
   -5.7119    4.5587   -9.1823 C   0  0  0  0  0  0  0  0  0  0  0  0
   -7.8156    3.3890   -9.8929 C   0  0  0  0  0  0  0  0  0  0  0  0
   -8.5827    4.3826   -9.0122 C   0  0  0  0  0  0  0  0  0  0  0  0
   -8.5268    4.0565   -7.5170 C   0  0  0  0  0  0  0  0  0  0  0  0
   -9.1991    2.7056   -7.2698 C   0  0  0  0  0  0  0  0  0  0  0  0
   -9.0699    1.8047   -8.4083 N   0  0  0  0  0  0  0  0  0  0  0  0
   -7.8385    2.0234   -9.1830 C   0  0  0  0  0  0  0  0  0  0  0  0
   -8.4360    3.2232  -11.2913 C   0  0  0  0  0  0  0  0  0  0  0  0
   -9.8702    1.9448   -9.0250 H   0  0  0  0  0  0  0  0  0  0  0  0
   -7.0393    4.9438  -16.5320 C   0  0  0  0  0  0  0  0  0  0  0  0
   -6.8654    4.6710  -17.9010 C   0  0  0  0  0  0  0  0  0  0  0  0
   -7.8729    4.0638  -18.6532 C   0  0  0  0  0  0  0  0  0  0  0  0
   -9.0659    3.6905  -18.0497 C   0  0  0  0  0  0  0  0  0  0  0  0
   -9.2612    3.9373  -16.6947 C   0  0  0  0  0  0  0  0  0  0  0  0
   -8.2702    4.5826  -15.9441 C   0  0  0  0  0  0  0  0  0  0  0  0
   -2.7956    7.4620  -13.6137 C   0  0  0  0  0  0  0  0  0  0  0  0
   -3.9046    6.8138  -14.3681 C   0  0  0  0  0  0  0  0  0  0  0  0
   -4.8560    7.5849  -14.9749 N   0  0  0  0  0  0  0  0  0  0  0  0
   -5.8374    6.9533  -15.6580 C   0  0  0  0  0  0  0  0  0  0  0  0
   -5.9527    5.5784  -15.7764 C   0  0  0  0  0  0  0  0  0  0  0  0
   -4.9677    4.8321  -15.1347 C   0  0  0  0  0  0  0  0  0  0  0  0
   -3.9282    5.4296  -14.4448 N   0  0  0  0  0  0  0  0  0  0  0  0
   -3.0158    4.7066  -13.9241 O   0  0  0  0  0  0  0  0  0  0  0  0
 23 24  1  0  0  0
 24 25  2  0  0  0
 25 26  1  0  0  0
 26 27  2  0  0  0
 27 17  1  0  0  0
 17 18  2  0  0  0
 18 19  1  0  0  0
 19 20  2  0  0  0
 20 21  1  0  0  0
 21 22  2  0  0  0
 22  1  1  0  0  0
  1  2  2  0  0  0
  1  3  1  0  0  0
  5  3  1  0  0  0
  5  6  1  0  0  0
  6  7  1  0  0  0
  7  8  1  0  0  0
  7  9  1  0  0  0
  9 10  1  0  0  0
 10 11  1  0  0  0
 11 12  1  0  0  0
 12 13  1  0  0  0
 13 14  1  0  0  0
  9 15  1  0  0  0
 27 28  1  0  0  0
 28 29  2  0  0  0
 29 30  1  0  0  0
 29 24  1  0  0  0
 22 17  1  0  0  0
 15  5  1  0  0  0
 14  9  1  0  0  0
  3  4  1  0  0  0
 13 16  1  0  0  0
M  CHG 1  29   1
M  CHG 1  30  -1
M  END
> <minimizedAffinity>
-7.90619

> <minimizedRMSD>
1.00496

$$$$
P9434


 32 35  0  0  0  0  0  0  0  0999 V2000
   -6.6542    4.9603  -17.1843 C   0  0  0  0  0  0  0  0  0  0  0  0
   -7.1404    4.4749  -18.4079 C   0  0  0  0  0  0  0  0  0  0  0  0
   -8.4256    3.9461  -18.5377 C   0  0  0  0  0  0  0  0  0  0  0  0
   -9.2578    3.8492  -17.4391 C   0  0  0  0  0  0  0  0  0  0  0  0
   -8.7838    4.2405  -16.1988 C   0  0  0  0  0  0  0  0  0  0  0  0
   -7.5089    4.8088  -16.0756 C   0  0  0  0  0  0  0  0  0  0  0  0
   -4.9265    6.7358  -17.7883 C   0  0  0  0  0  0  0  0  0  0  0  0
   -3.7425    7.3721  -17.5516 N   0  0  0  0  0  0  0  0  0  0  0  0
   -2.9083    6.8230  -16.6526 C   0  0  0  0  0  0  0  0  0  0  0  0
   -1.6365    7.5432  -16.3448 C   0  0  0  0  0  0  0  0  0  0  0  0
   -3.1485    5.6903  -15.9869 N   0  0  0  0  0  0  0  0  0  0  0  0
   -4.3521    5.1247  -16.2116 C   0  0  0  0  0  0  0  0  0  0  0  0
   -5.3237    5.5975  -17.0878 C   0  0  0  0  0  0  0  0  0  0  0  0
   -5.7469    7.3310  -18.9193 C   0  0  0  0  0  0  0  0  0  0  0  0
   -5.1714    7.6666  -21.2458 C   0  0  0  0  0  0  0  0  0  0  0  0
   -5.5027    6.6859  -20.2239 N   0  0  0  0  0  0  0  0  0  0  0  0
   -4.7276    6.0295  -20.1299 H   0  0  0  0  0  0  0  0  0  0  0  0
   -7.1171    5.2827  -14.7235 C   0  0  0  0  0  0  0  0  0  0  0  0
   -6.6008    6.3121  -14.5901 O   0  0  0  0  0  0  0  0  0  0  0  0
   -7.4224    4.1921  -13.7062 N   0  0  0  0  0  0  0  0  0  0  0  0
   -7.9438    3.4348  -14.0583 H   0  0  0  0  0  0  0  0  0  0  0  0
   -7.0773    4.0884  -12.3292 C   0  0  0  0  0  0  0  0  0  0  0  0
   -6.7017    5.3962  -11.6239 C   0  0  0  0  0  0  0  0  0  0  0  0
   -7.2573    5.2903  -10.2622 N   0  0  0  0  0  0  0  0  0  0  0  0
   -6.3546    5.8044   -9.2493 C   0  0  0  0  0  0  0  0  0  0  0  0
   -7.7270    3.9054  -10.0848 C   0  0  0  0  0  0  0  0  0  0  0  0
   -8.8348    3.7200   -9.0520 C   0  0  0  0  0  0  0  0  0  0  0  0
   -8.8028    2.2418   -8.7109 C   0  0  0  0  0  0  0  0  0  0  0  0
   -7.6252    1.7112   -9.4083 N   0  0  0  0  0  0  0  0  0  0  0  0
   -6.7303    2.8525   -9.6032 C   0  0  0  0  0  0  0  0  0  0  0  0
   -8.2081    3.5454  -11.4969 C   0  0  0  0  0  0  0  0  0  0  0  0
   -7.8945    1.3132  -10.3080 H   0  0  0  0  0  0  0  0  0  0  0  0
 15 16  1  0  0  0
 16 14  1  0  0  0
 14  7  1  0  0  0
  7  8  2  0  0  0
  8  9  1  0  0  0
  9 10  1  0  0  0
  9 11  2  0  0  0
 11 12  1  0  0  0
 12 13  2  0  0  0
 13  1  1  0  0  0
  1  2  2  0  0  0
  2  3  1  0  0  0
  3  4  2  0  0  0
  4  5  1  0  0  0
  5  6  2  0  0  0
  6 18  1  0  0  0
 18 19  2  0  0  0
 18 20  1  0  0  0
 22 20  1  0  0  0
 22 23  1  0  0  0
 23 24  1  0  0  0
 24 25  1  0  0  0
 24 26  1  0  0  0
 26 27  1  0  0  0
 27 28  1  0  0  0
 28 29  1  0  0  0
 29 30  1  0  0  0
 26 31  1  0  0  0
 13  7  1  0  0  0
  6  1  1  0  0  0
 31 22  1  0  0  0
 30 26  1  0  0  0
 16 17  1  0  0  0
 20 21  1  0  0  0
 29 32  1  0  0  0
M  END
> <minimizedAffinity>
-7.18677

> <minimizedRMSD>
0.80611

$$$$
P9439


 34 37  0  0  0  0  0  0  0  0999 V2000
   -7.1959    5.1063  -14.7869 C   0  0  0  0  0  0  0  0  0  0  0  0
   -6.2011    4.1855  -14.3756 O   0  0  0  0  0  0  0  0  0  0  0  0
   -5.4681    4.1963  -15.0109 H   0  0  0  0  0  0  0  0  0  0  0  0
   -6.8214    4.8421  -17.3714 C   0  0  0  0  0  0  0  0  0  0  0  0
   -7.3080    4.4159  -18.6244 C   0  0  0  0  0  0  0  0  0  0  0  0
   -8.5622    3.8261  -18.7557 C   0  0  0  0  0  0  0  0  0  0  0  0
   -9.3598    3.6497  -17.6371 C   0  0  0  0  0  0  0  0  0  0  0  0
   -8.8966    4.0386  -16.3788 C   0  0  0  0  0  0  0  0  0  0  0  0
   -7.6316    4.6368  -16.2017 C   0  0  0  0  0  0  0  0  0  0  0  0
   -1.9972    7.7741  -16.7185 C   0  0  0  0  0  0  0  0  0  0  0  0
   -3.2178    6.9774  -17.0454 C   0  0  0  0  0  0  0  0  0  0  0  0
   -3.1816    5.6634  -16.7785 N   0  0  0  0  0  0  0  0  0  0  0  0
   -4.3358    4.9920  -16.9646 C   0  0  0  0  0  0  0  0  0  0  0  0
   -5.5323    5.5550  -17.3560 C   0  0  0  0  0  0  0  0  0  0  0  0
   -5.4160    6.8920  -17.6860 C   0  0  0  0  0  0  0  0  0  0  0  0
   -4.2938    7.6284  -17.5256 N   0  0  0  0  0  0  0  0  0  0  0  0
   -8.2521    5.0175  -13.7718 N   0  0  0  0  0  0  0  0  0  0  0  0
   -8.7170    4.1145  -13.8657 H   0  0  0  0  0  0  0  0  0  0  0  0
   -7.7445    5.1421  -12.3938 C   0  0  0  0  0  0  0  0  0  0  0  0
   -8.1767    6.4054  -11.6299 C   0  0  0  0  0  0  0  0  0  0  0  0
   -8.4737    5.9619  -10.2688 N   0  0  0  0  0  0  0  0  0  0  0  0
   -8.2474    6.9992   -9.2823 C   0  0  0  0  0  0  0  0  0  0  0  0
   -7.8408    4.6425  -10.0788 C   0  0  0  0  0  0  0  0  0  0  0  0
   -6.3480    4.6817   -9.7361 C   0  0  0  0  0  0  0  0  0  0  0  0
   -6.3206    4.7687   -8.2232 C   0  0  0  0  0  0  0  0  0  0  0  0
   -7.5388    4.1139   -7.7302 N   0  0  0  0  0  0  0  0  0  0  0  0
   -8.3905    3.8200   -8.9140 C   0  0  0  0  0  0  0  0  0  0  0  0
   -8.1376    4.0115  -11.4471 C   0  0  0  0  0  0  0  0  0  0  0  0
   -8.0337    4.7338   -7.0889 H   0  0  0  0  0  0  0  0  0  0  0  0
   -6.6248    6.5362  -14.9042 C   0  0  0  0  0  0  0  0  0  0  0  0
   -5.5138    6.9880  -13.9879 C   0  0  0  0  0  0  0  0  0  0  0  0
   -5.5648    8.0651  -13.4019 O   0  0  0  0  0  0  0  0  0  0  0  0
   -4.4340    6.1942  -13.8837 O   0  0  0  0  0  0  0  0  0  0  0  0
   -4.4096    5.3745  -14.3371 H   0  0  0  0  0  0  0  0  0  0  0  0
 10 11  1  0  0  0
 11 12  2  0  0  0
 12 13  1  0  0  0
 13 14  2  0  0  0
 14  4  1  0  0  0
  4  5  2  0  0  0
  5  6  1  0  0  0
  6  7  2  0  0  0
  7  8  1  0  0  0
  8  9  2  0  0  0
  9  1  1  0  0  0
  1  2  1  0  0  0
  1 30  1  0  0  0
 30 31  1  0  0  0
 31 32  2  0  0  0
 31 33  1  0  0  0
  1 17  1  0  0  0
 19 17  1  0  0  0
 19 20  1  0  0  0
 20 21  1  0  0  0
 21 22  1  0  0  0
 21 23  1  0  0  0
 23 24  1  0  0  0
 24 25  1  0  0  0
 25 26  1  0  0  0
 26 27  1  0  0  0
 23 28  1  0  0  0
 14 15  1  0  0  0
 15 16  2  0  0  0
 16 11  1  0  0  0
  9  4  1  0  0  0
 28 19  1  0  0  0
 27 23  1  0  0  0
  2  3  1  0  0  0
 33 34  1  0  0  0
 17 18  1  0  0  0
 26 29  1  0  0  0
M  END
> <minimizedAffinity>
-6.81508

> <minimizedRMSD>
0.64963

$$$$
P9441


 32 35  0  0  0  0  0  0  0  0999 V2000
   -6.3040    5.1550  -16.5759 C   0  0  0  0  0  0  0  0  0  0  0  0
   -6.4896    4.8229  -17.9327 C   0  0  0  0  0  0  0  0  0  0  0  0
   -7.7086    4.3340  -18.4131 C   0  0  0  0  0  0  0  0  0  0  0  0
   -8.7634    4.1096  -17.5404 C   0  0  0  0  0  0  0  0  0  0  0  0
   -8.5971    4.3701  -16.1850 C   0  0  0  0  0  0  0  0  0  0  0  0
   -7.3934    4.9080  -15.7092 C   0  0  0  0  0  0  0  0  0  0  0  0
   -4.4869    6.9543  -16.3990 C   0  0  0  0  0  0  0  0  0  0  0  0
   -3.2995    7.4018  -15.8955 N   0  0  0  0  0  0  0  0  0  0  0  0
   -2.6085    6.5725  -15.0994 C   0  0  0  0  0  0  0  0  0  0  0  0
   -1.2974    7.0531  -14.5708 C   0  0  0  0  0  0  0  0  0  0  0  0
   -2.9842    5.3268  -14.7921 N   0  0  0  0  0  0  0  0  0  0  0  0
   -4.1772    4.9369  -15.2886 C   0  0  0  0  0  0  0  0  0  0  0  0
   -5.0103    5.6951  -16.1038 C   0  0  0  0  0  0  0  0  0  0  0  0
   -5.1178    7.9190  -17.3820 C   0  0  0  0  0  0  0  0  0  0  0  0
   -5.3805    7.8295  -19.7924 C   0  0  0  0  0  0  0  0  0  0  0  0
   -4.4486    7.8096  -18.6824 N   0  0  0  0  0  0  0  0  0  0  0  0
   -3.8025    8.5923  -18.7841 H   0  0  0  0  0  0  0  0  0  0  0  0
   -7.3315    5.2431  -14.2565 C   0  0  0  0  0  0  0  0  0  0  0  0
   -7.2311    6.3540  -13.9244 O   0  0  0  0  0  0  0  0  0  0  0  0
   -7.3341    3.9505  -13.4244 N   0  0  0  0  0  0  0  0  0  0  0  0
   -7.5123    3.1300  -13.9384 H   0  0  0  0  0  0  0  0  0  0  0  0
   -7.1179    3.7435  -12.0123 C   0  0  0  0  0  0  0  0  0  0  0  0
   -5.8716    4.3381  -11.3522 C   0  0  0  0  0  0  0  0  0  0  0  0
   -6.2920    4.6828   -9.9872 N   0  0  0  0  0  0  0  0  0  0  0  0
   -5.2842    4.4920   -8.9713 C   0  0  0  0  0  0  0  0  0  0  0  0
   -7.6367    4.1490   -9.7183 C   0  0  0  0  0  0  0  0  0  0  0  0
   -7.8548    2.7070   -9.2459 C   0  0  0  0  0  0  0  0  0  0  0  0
   -9.1571    2.8277   -8.4528 C   0  0  0  0  0  0  0  0  0  0  0  0
   -8.8743    3.9938   -7.6270 N   0  0  0  0  0  0  0  0  0  0  0  0
   -8.3809    4.9414   -8.6252 C   0  0  0  0  0  0  0  0  0  0  0  0
   -8.2409    4.2739  -11.1312 C   0  0  0  0  0  0  0  0  0  0  0  0
   -8.1645    3.7896   -6.9236 H   0  0  0  0  0  0  0  0  0  0  0  0
 15 16  1  0  0  0
 16 14  1  0  0  0
 14  7  1  0  0  0
  7  8  2  0  0  0
  8  9  1  0  0  0
  9 10  1  0  0  0
  9 11  2  0  0  0
 11 12  1  0  0  0
 12 13  2  0  0  0
 13  1  1  0  0  0
  1  2  2  0  0  0
  2  3  1  0  0  0
  3  4  2  0  0  0
  4  5  1  0  0  0
  5  6  2  0  0  0
  6 18  1  0  0  0
 18 19  2  0  0  0
 18 20  1  0  0  0
 22 20  1  0  0  0
 22 23  1  0  0  0
 23 24  1  0  0  0
 24 25  1  0  0  0
 24 26  1  0  0  0
 26 27  1  0  0  0
 27 28  1  0  0  0
 28 29  1  0  0  0
 29 30  1  0  0  0
 26 31  1  0  0  0
 13  7  1  0  0  0
  6  1  1  0  0  0
 31 22  1  0  0  0
 30 26  1  0  0  0
 16 17  1  0  0  0
 20 21  1  0  0  0
 29 32  1  0  0  0
M  END
> <minimizedAffinity>
-6.97891

> <minimizedRMSD>
0.88287

$$$$
P9459


 34 37  0  0  0  0  0  0  0  0999 V2000
   -6.0994    5.1497  -16.7877 C   0  0  0  0  0  0  0  0  0  0  0  0
   -6.3705    4.8188  -18.1266 C   0  0  0  0  0  0  0  0  0  0  0  0
   -7.6443    4.4121  -18.5190 C   0  0  0  0  0  0  0  0  0  0  0  0
   -8.6531    4.3065  -17.5710 C   0  0  0  0  0  0  0  0  0  0  0  0
  -10.2603    4.0682  -18.0866 Cl  0  0  0  0  0  0  0  0  0  0  0  0
   -8.4000    4.5317  -16.2224 C   0  0  0  0  0  0  0  0  0  0  0  0
   -7.1318    4.9693  -15.8353 C   0  0  0  0  0  0  0  0  0  0  0  0
   -4.3107    6.9546  -16.6320 C   0  0  0  0  0  0  0  0  0  0  0  0
   -3.1043    7.3891  -16.1657 N   0  0  0  0  0  0  0  0  0  0  0  0
   -2.3415    6.5105  -15.4969 C   0  0  0  0  0  0  0  0  0  0  0  0
   -1.0604    7.0110  -14.9189 C   0  0  0  0  0  0  0  0  0  0  0  0
   -2.6760    5.2385  -15.2562 N   0  0  0  0  0  0  0  0  0  0  0  0
   -3.8851    4.8569  -15.7094 C   0  0  0  0  0  0  0  0  0  0  0  0
   -4.7739    5.6602  -16.4116 C   0  0  0  0  0  0  0  0  0  0  0  0
   -5.1262    8.0482  -17.2950 C   0  0  0  0  0  0  0  0  0  0  0  0
   -5.6081    9.1746  -19.3849 C   0  0  0  0  0  0  0  0  0  0  0  0
   -4.9068    8.0737  -18.7530 N   0  0  0  0  0  0  0  0  0  0  0  0
   -3.9079    8.1710  -18.9347 H   0  0  0  0  0  0  0  0  0  0  0  0
   -6.9357    5.4050  -14.4233 C   0  0  0  0  0  0  0  0  0  0  0  0
   -6.3992    6.4225  -14.2388 O   0  0  0  0  0  0  0  0  0  0  0  0
   -7.4593    4.3583  -13.4247 N   0  0  0  0  0  0  0  0  0  0  0  0
   -7.9495    3.6085  -13.8330 H   0  0  0  0  0  0  0  0  0  0  0  0
   -7.3479    4.2959  -11.9717 C   0  0  0  0  0  0  0  0  0  0  0  0
   -8.2096    3.2157  -11.3325 C   0  0  0  0  0  0  0  0  0  0  0  0
   -8.1907    3.5950   -9.9230 N   0  0  0  0  0  0  0  0  0  0  0  0
   -9.2001    2.9692   -9.2210 F   0  0  0  0  0  0  0  0  0  0  0  0
   -8.3375    5.0307   -9.8999 N   0  0  0  0  0  0  0  0  0  0  0  0
   -7.8749    5.5251   -8.6116 C   0  0  0  0  0  0  0  0  0  0  0  0
   -7.6656    5.5514  -11.1250 C   0  0  0  0  0  0  0  0  0  0  0  0
   -8.5865    6.6311  -11.7232 C   0  0  0  0  0  0  0  0  0  0  0  0
   -8.0489    7.9725  -11.2361 C   0  0  0  0  0  0  0  0  0  0  0  0
   -6.5423    7.8085  -11.1757 C   0  0  0  0  0  0  0  0  0  0  0  0
   -6.3871    6.3467  -10.8480 C   0  0  0  0  0  0  0  0  0  0  0  0
   -5.3391    5.8862  -10.4032 O   0  0  0  0  0  0  0  0  0  0  0  0
 16 17  1  0  0  0
 17 15  1  0  0  0
 15  8  1  0  0  0
  8  9  2  0  0  0
  9 10  1  0  0  0
 10 11  1  0  0  0
 10 12  2  0  0  0
 12 13  1  0  0  0
 13 14  2  0  0  0
 14  1  1  0  0  0
  1  2  2  0  0  0
  2  3  1  0  0  0
  3  4  2  0  0  0
  4  5  1  0  0  0
  4  6  1  0  0  0
  6  7  2  0  0  0
  7 19  1  0  0  0
 19 20  2  0  0  0
 19 21  1  0  0  0
 23 21  1  0  0  0
 23 24  1  0  0  0
 24 25  1  0  0  0
 25 26  1  0  0  0
 25 27  1  0  0  0
 27 28  1  0  0  0
 27 29  1  0  0  0
 29 30  1  0  0  0
 30 31  1  0  0  0
 31 32  1  0  0  0
 32 33  1  0  0  0
 33 34  2  0  0  0
 14  8  1  0  0  0
  7  1  1  0  0  0
 29 23  1  0  0  0
 33 29  1  0  0  0
 17 18  1  0  0  0
 21 22  1  0  0  0
M  END
> <minimizedAffinity>
-6.87763

> <minimizedRMSD>
0.44567

$$$$
P9463


 30 32  0  0  0  0  0  0  0  0999 V2000
   -7.5557    4.9012  -15.9251 C   0  0  0  0  0  0  0  0  0  0  0  0
   -8.8184    4.5014  -16.3588 C   0  0  0  0  0  0  0  0  0  0  0  0
   -9.0236    4.2484  -17.7036 C   0  0  0  0  0  0  0  0  0  0  0  0
  -10.6196    4.1000  -18.2630 Cl  0  0  0  0  0  0  0  0  0  0  0  0
   -7.9690    4.2555  -18.6012 C   0  0  0  0  0  0  0  0  0  0  0  0
   -6.6968    4.6054  -18.1538 C   0  0  0  0  0  0  0  0  0  0  0  0
   -6.4751    5.0050  -16.8231 C   0  0  0  0  0  0  0  0  0  0  0  0
   -5.1615    5.5222  -16.4206 C   0  0  0  0  0  0  0  0  0  0  0  0
   -4.3459    4.7910  -15.5667 C   0  0  0  0  0  0  0  0  0  0  0  0
   -3.1423    5.1878  -15.1119 N   0  0  0  0  0  0  0  0  0  0  0  0
   -2.7525    6.4101  -15.4943 C   0  0  0  0  0  0  0  0  0  0  0  0
   -1.4422    6.9127  -14.9863 C   0  0  0  0  0  0  0  0  0  0  0  0
   -3.4403    7.2076  -16.3262 N   0  0  0  0  0  0  0  0  0  0  0  0
   -4.6346    6.7593  -16.7977 C   0  0  0  0  0  0  0  0  0  0  0  0
   -5.3697    7.7447  -17.6933 C   0  0  0  0  0  0  0  0  0  0  0  0
   -4.6618    8.1226  -18.9321 N   0  0  0  0  0  0  0  0  0  0  0  0
   -4.6156    7.0369  -19.9022 C   0  0  0  0  0  0  0  0  0  0  0  0
   -3.7065    8.3896  -18.6944 H   0  0  0  0  0  0  0  0  0  0  0  0
   -7.8859    4.2471  -13.5483 N   0  0  0  0  0  0  0  0  0  0  0  0
   -7.4760    5.3740  -14.5221 C   0  0  0  0  0  0  0  0  0  0  0  0
   -7.1603    6.4778  -14.3122 O   0  0  0  0  0  0  0  0  0  0  0  0
   -8.0357    3.3710  -13.9714 H   0  0  0  0  0  0  0  0  0  0  0  0
   -8.2582    4.9933  -10.1026 N   0  0  0  0  0  0  0  0  0  0  0  0
   -7.9760    5.3736  -11.3920 C   0  0  0  0  0  0  0  0  0  0  0  0
   -8.0738    4.2685  -12.1987 C   0  0  0  0  0  0  0  0  0  0  0  0
   -8.3998    3.1730  -11.3754 C   0  0  0  0  0  0  0  0  0  0  0  0
   -8.4849    3.6334  -10.0732 C   0  0  0  0  0  0  0  0  0  0  0  0
   -8.7597    2.8556   -8.8347 C   0  0  0  0  0  0  0  0  0  0  0  0
   -8.8068    7.2729   -9.2255 C   0  0  0  0  0  0  0  0  0  0  0  0
   -8.2377    5.8873   -8.9558 C   0  0  0  0  0  0  0  0  0  0  0  0
 29 30  1  0  0  0
 30 23  1  0  0  0
 23 24  1  0  0  0
 24 25  2  0  0  0
 25 19  1  0  0  0
 19 20  1  0  0  0
 20 21  2  0  0  0
 20  1  1  0  0  0
  1  2  2  0  0  0
  2  3  1  0  0  0
  3  4  1  0  0  0
  3  5  2  0  0  0
  5  6  1  0  0  0
  6  7  2  0  0  0
  7  8  1  0  0  0
  8  9  2  0  0  0
  9 10  1  0  0  0
 10 11  2  0  0  0
 11 12  1  0  0  0
 11 13  1  0  0  0
 13 14  2  0  0  0
 14 15  1  0  0  0
 15 16  1  0  0  0
 16 17  1  0  0  0
 25 26  1  0  0  0
 26 27  2  0  0  0
 27 28  1  0  0  0
 27 23  1  0  0  0
  7  1  1  0  0  0
 14  8  1  0  0  0
 19 22  1  0  0  0
 16 18  1  0  0  0
M  END
> <minimizedAffinity>
-6.82904

> <minimizedRMSD>
0.41980

$$$$
P9485


 36 38  0  0  0  0  0  0  0  0999 V2000
   -7.4372    4.4594  -15.6901 C   0  0  0  0  0  0  0  0  0  0  0  0
   -8.7738    4.3284  -16.1405 C   0  0  0  0  0  0  0  0  0  0  0  0
   -9.0775    4.3030  -17.4913 C   0  0  0  0  0  0  0  0  0  0  0  0
  -10.7060    4.3125  -18.0312 Cl  0  0  0  0  0  0  0  0  0  0  0  0
   -8.0642    4.3485  -18.4228 C   0  0  0  0  0  0  0  0  0  0  0  0
   -6.7411    4.5337  -18.0250 C   0  0  0  0  0  0  0  0  0  0  0  0
   -5.7475    4.6628  -19.0076 C   0  0  0  0  0  0  0  0  0  0  0  0
   -4.4172    4.9364  -18.6959 C   0  0  0  0  0  0  0  0  0  0  0  0
   -4.1605    4.9943  -17.3432 C   0  0  0  0  0  0  0  0  0  0  0  0
   -5.0939    4.8729  -16.3562 N   0  0  0  0  0  0  0  0  0  0  0  0
   -6.3936    4.6254  -16.6662 C   0  0  0  0  0  0  0  0  0  0  0  0
   -3.5050    5.0205  -19.7353 N   0  0  0  0  0  0  0  0  0  0  0  0
   -3.0780    4.1747  -20.0027 H   0  0  0  0  0  0  0  0  0  0  0  0
   -3.0918    6.2220  -20.4938 C   0  0  0  0  0  0  0  0  0  0  0  0
   -2.9946    5.7850  -21.9766 C   0  0  0  0  0  0  0  0  0  0  0  0
   -1.6920    6.6872  -20.0719 C   0  0  0  0  0  0  0  0  0  0  0  0
   -4.1242    7.3743  -20.3870 C   0  0  0  0  0  0  0  0  0  0  0  0
   -5.1984    7.2174  -21.3192 O   0  0  0  0  0  0  0  0  0  0  0  0
   -4.8463    7.2286  -22.2230 H   0  0  0  0  0  0  0  0  0  0  0  0
   -7.1398    4.4704  -14.2802 N   0  0  0  0  0  0  0  0  0  0  0  0
   -6.4313    3.2448  -13.8991 C   0  0  0  0  0  0  0  0  0  0  0  0
   -5.6071    3.4970  -12.8495 F   0  0  0  0  0  0  0  0  0  0  0  0
   -7.3264    2.3122  -13.4783 F   0  0  0  0  0  0  0  0  0  0  0  0
   -8.2741    4.7833  -13.4000 C   0  0  0  0  0  0  0  0  0  0  0  0
   -8.2706    4.3202   -9.6191 C   0  0  0  0  0  0  0  0  0  0  0  0
   -8.4590    4.1145  -10.9935 C   0  0  0  0  0  0  0  0  0  0  0  0
   -7.9354    5.0007  -11.9462 C   0  0  0  0  0  0  0  0  0  0  0  0
   -7.1987    6.1053  -11.5087 C   0  0  0  0  0  0  0  0  0  0  0  0
   -6.9862    6.3127  -10.1433 C   0  0  0  0  0  0  0  0  0  0  0  0
   -7.5238    5.4247   -9.2097 C   0  0  0  0  0  0  0  0  0  0  0  0
   -7.3469    5.6496   -7.8728 O   0  0  0  0  0  0  0  0  0  0  0  0
   -6.8474    6.3879   -7.5840 H   0  0  0  0  0  0  0  0  0  0  0  0
   -8.8883    3.3497   -8.6411 C   0  0  0  0  0  0  0  0  0  0  0  0
   -7.1647    1.6517   -8.6639 C   0  0  0  0  0  0  0  0  0  0  0  0
   -7.9128    2.6019   -7.8405 N   0  0  0  0  0  0  0  0  0  0  0  0
   -8.6212    1.8932   -6.7746 C   0  0  0  0  0  0  0  0  0  0  0  0
 34 35  1  0  0  0
 35 36  1  0  0  0
 35 33  1  0  0  0
 33 25  1  0  0  0
 25 26  2  0  0  0
 26 27  1  0  0  0
 27 24  1  0  0  0
 24 20  1  0  0  0
 20  1  1  0  0  0
  1  2  2  0  0  0
  2  3  1  0  0  0
  3  4  1  0  0  0
  3  5  2  0  0  0
  5  6  1  0  0  0
  6  7  2  0  0  0
  7  8  1  0  0  0
  8 12  1  0  0  0
 12 14  1  0  0  0
 14 15  1  0  0  0
 14 16  1  0  0  0
 14 17  1  0  0  0
 17 18  1  0  0  0
  8  9  2  0  0  0
  9 10  1  0  0  0
 10 11  2  0  0  0
 20 21  1  0  0  0
 21 22  1  0  0  0
 21 23  1  0  0  0
 27 28  2  0  0  0
 28 29  1  0  0  0
 29 30  2  0  0  0
 30 31  1  0  0  0
 30 25  1  0  0  0
 11  1  1  0  0  0
 11  6  1  0  0  0
 12 13  1  0  0  0
 18 19  1  0  0  0
 31 32  1  0  0  0
M  END
> <minimizedAffinity>
-7.36213

> <minimizedRMSD>
1.20016

$$$$
P9489


 33 35  0  0  0  0  0  0  0  0999 V2000
   -8.1403    4.6993  -15.2919 C   0  0  0  0  0  0  0  0  0  0  0  0
   -9.0044    4.3382  -16.3291 C   0  0  0  0  0  0  0  0  0  0  0  0
   -8.5471    4.2666  -17.6579 C   0  0  0  0  0  0  0  0  0  0  0  0
   -9.6443    4.0079  -18.9399 Cl  0  0  0  0  0  0  0  0  0  0  0  0
   -7.1994    4.5328  -17.9718 C   0  0  0  0  0  0  0  0  0  0  0  0
   -6.4164    4.4744  -19.1241 N   0  0  0  0  0  0  0  0  0  0  0  0
   -5.2573    5.0525  -18.8388 C   0  0  0  0  0  0  0  0  0  0  0  0
   -5.2636    5.3828  -17.5164 N   0  0  0  0  0  0  0  0  0  0  0  0
   -4.3298    6.1663  -16.8709 O   0  0  0  0  0  0  0  0  0  0  0  0
   -6.4158    4.9920  -16.9264 C   0  0  0  0  0  0  0  0  0  0  0  0
   -6.8372    5.0874  -15.6055 C   0  0  0  0  0  0  0  0  0  0  0  0
   -3.5813    6.3328  -17.4649 H   0  0  0  0  0  0  0  0  0  0  0  0
   -4.1014    5.4072  -19.7698 C   0  0  0  0  0  0  0  0  0  0  0  0
   -2.7629    4.8746  -19.2208 C   0  0  0  0  0  0  0  0  0  0  0  0
   -4.3052    4.7737  -21.1584 C   0  0  0  0  0  0  0  0  0  0  0  0
   -4.0388    6.9459  -19.9857 C   0  0  0  0  0  0  0  0  0  0  0  0
   -5.2332    7.6475  -19.6475 O   0  0  0  0  0  0  0  0  0  0  0  0
   -5.9566    7.3495  -20.2210 H   0  0  0  0  0  0  0  0  0  0  0  0
   -8.5170    4.8928  -13.9646 N   0  0  0  0  0  0  0  0  0  0  0  0
   -8.9839    4.1790  -13.4731 H   0  0  0  0  0  0  0  0  0  0  0  0
   -8.2173    6.1506  -13.3125 C   0  0  0  0  0  0  0  0  0  0  0  0
   -8.4111    4.3915   -9.9443 C   0  0  0  0  0  0  0  0  0  0  0  0
   -8.3397    4.6421  -11.3224 C   0  0  0  0  0  0  0  0  0  0  0  0
   -8.2135    5.9426  -11.8174 C   0  0  0  0  0  0  0  0  0  0  0  0
   -8.1567    7.0079  -10.9059 C   0  0  0  0  0  0  0  0  0  0  0  0
   -8.1894    6.7703   -9.5307 C   0  0  0  0  0  0  0  0  0  0  0  0
   -8.3146    5.4658   -9.0582 C   0  0  0  0  0  0  0  0  0  0  0  0
   -8.3903    5.2310   -7.7142 O   0  0  0  0  0  0  0  0  0  0  0  0
   -8.3268    5.9441   -7.1097 H   0  0  0  0  0  0  0  0  0  0  0  0
   -8.6224    2.9740   -9.4762 C   0  0  0  0  0  0  0  0  0  0  0  0
   -6.6160    1.6604   -9.1675 C   0  0  0  0  0  0  0  0  0  0  0  0
   -7.6161    2.5084   -8.5200 N   0  0  0  0  0  0  0  0  0  0  0  0
   -8.2954    1.7644   -7.4594 C   0  0  0  0  0  0  0  0  0  0  0  0
 31 32  1  0  0  0
 32 33  1  0  0  0
 32 30  1  0  0  0
 30 22  1  0  0  0
 22 23  2  0  0  0
 23 24  1  0  0  0
 24 21  1  0  0  0
 21 19  1  0  0  0
 19  1  1  0  0  0
  1  2  2  0  0  0
  2  3  1  0  0  0
  3  4  1  0  0  0
  3  5  2  0  0  0
  5  6  1  0  0  0
  6  7  2  0  0  0
  7 13  1  0  0  0
 13 14  1  0  0  0
 13 15  1  0  0  0
 13 16  1  0  0  0
 16 17  1  0  0  0
  7  8  1  0  0  0
  8  9  1  0  0  0
  8 10  1  0  0  0
 10 11  2  0  0  0
 24 25  2  0  0  0
 25 26  1  0  0  0
 26 27  2  0  0  0
 27 28  1  0  0  0
 27 22  1  0  0  0
 11  1  1  0  0  0
 10  5  1  0  0  0
 19 20  1  0  0  0
 17 18  1  0  0  0
  9 12  1  0  0  0
 28 29  1  0  0  0
M  END
> <minimizedAffinity>
-7.07347

> <minimizedRMSD>
0.86836

$$$$
P9499


 42 44  0  0  0  0  0  0  0  0999 V2000
   -8.2817    4.5826  -15.4739 C   0  0  0  0  0  0  0  0  0  0  0  0
   -9.2098    4.3694  -16.4673 C   0  0  0  0  0  0  0  0  0  0  0  0
   -8.7808    4.2934  -17.7809 C   0  0  0  0  0  0  0  0  0  0  0  0
   -9.9523    3.9826  -18.9908 Cl  0  0  0  0  0  0  0  0  0  0  0  0
   -7.4356    4.5122  -18.1214 C   0  0  0  0  0  0  0  0  0  0  0  0
   -6.4689    4.8541  -17.1518 C   0  0  0  0  0  0  0  0  0  0  0  0
   -6.9581    4.8309  -15.8412 C   0  0  0  0  0  0  0  0  0  0  0  0
   -8.6525    4.6783  -14.1277 N   0  0  0  0  0  0  0  0  0  0  0  0
   -9.2292    4.0205  -13.6760 H   0  0  0  0  0  0  0  0  0  0  0  0
   -8.0990    5.8488  -13.4635 C   0  0  0  0  0  0  0  0  0  0  0  0
   -8.4389    4.2284  -10.0151 C   0  0  0  0  0  0  0  0  0  0  0  0
   -8.3466    4.3982  -11.4015 C   0  0  0  0  0  0  0  0  0  0  0  0
   -8.1636    5.6709  -11.9661 C   0  0  0  0  0  0  0  0  0  0  0  0
   -8.0904    6.7849  -11.1175 C   0  0  0  0  0  0  0  0  0  0  0  0
   -8.1564    6.6261   -9.7335 C   0  0  0  0  0  0  0  0  0  0  0  0
   -8.3108    5.3553   -9.1954 C   0  0  0  0  0  0  0  0  0  0  0  0
   -8.3010    5.2366   -7.8324 O   0  0  0  0  0  0  0  0  0  0  0  0
   -8.2145    6.0002   -7.2962 H   0  0  0  0  0  0  0  0  0  0  0  0
   -8.7109    2.8568   -9.4413 C   0  0  0  0  0  0  0  0  0  0  0  0
   -6.7215    1.6012   -9.0269 C   0  0  0  0  0  0  0  0  0  0  0  0
   -7.7099    2.5042   -8.4185 N   0  0  0  0  0  0  0  0  0  0  0  0
   -8.3768    1.8232   -7.3036 C   0  0  0  0  0  0  0  0  0  0  0  0
   -4.9896    5.2620  -17.4938 C   0  0  0  0  0  0  0  0  0  0  0  0
   -4.8527    6.7036  -17.8267 N   0  0  0  0  0  0  0  0  0  0  0  0
   -3.7807    7.5632  -17.7394 C   0  0  0  0  0  0  0  0  0  0  0  0
   -4.2271    8.7823  -18.1905 C   0  0  0  0  0  0  0  0  0  0  0  0
   -5.4996    8.6752  -18.6729 N   0  0  0  0  0  0  0  0  0  0  0  0
   -5.7651    7.3926  -18.5600 C   0  0  0  0  0  0  0  0  0  0  0  0
   -4.5783    4.5175  -18.7223 N   0  0  0  0  0  0  0  0  0  0  0  0
   -5.1583    4.8174  -19.5060 H   0  0  0  0  0  0  0  0  0  0  0  0
   -3.1689    4.7798  -19.0370 O   0  0  0  0  0  0  0  0  0  0  0  0
   -2.9388    5.1528  -20.4010 C   0  0  0  0  0  0  0  0  0  0  0  0
   -1.7524    5.9297  -20.4732 O   0  0  0  0  0  0  0  0  0  0  0  0
   -1.8523    6.7242  -19.9258 H   0  0  0  0  0  0  0  0  0  0  0  0
   -3.9876    4.9272  -16.4734 N   0  0  0  0  0  0  0  0  0  0  0  0
   -3.0915    5.1805  -16.8895 H   0  0  0  0  0  0  0  0  0  0  0  0
   -3.9288    5.4504  -15.0830 C   0  0  0  0  0  0  0  0  0  0  0  0
   -4.7444    6.7138  -14.7077 C   0  0  0  0  0  0  0  0  0  0  0  0
   -2.4435    5.8374  -14.8127 C   0  0  0  0  0  0  0  0  0  0  0  0
   -4.2199    4.3112  -14.0130 C   0  0  0  0  0  0  0  0  0  0  0  0
   -4.2321    3.0166  -14.6206 O   0  0  0  0  0  0  0  0  0  0  0  0
   -4.9329    2.9803  -15.2903 H   0  0  0  0  0  0  0  0  0  0  0  0
 20 21  1  0  0  0
 21 22  1  0  0  0
 21 19  1  0  0  0
 19 11  1  0  0  0
 11 12  2  0  0  0
 12 13  1  0  0  0
 13 10  1  0  0  0
 10  8  1  0  0  0
  8  1  1  0  0  0
  1  2  2  0  0  0
  2  3  1  0  0  0
  3  4  1  0  0  0
  3  5  2  0  0  0
  5  6  1  0  0  0
  6 23  1  0  0  0
 23 29  1  0  0  0
 29 31  1  0  0  0
 31 32  1  0  0  0
 32 33  1  0  0  0
 23 35  1  0  0  0
 35 37  1  0  0  0
 37 38  1  0  0  0
 37 39  1  0  0  0
 37 40  1  0  0  0
 40 41  1  0  0  0
 23 24  1  0  0  0
 24 25  1  0  0  0
 25 26  2  0  0  0
 26 27  1  0  0  0
 27 28  2  0  0  0
  6  7  2  0  0  0
 13 14  2  0  0  0
 14 15  1  0  0  0
 15 16  2  0  0  0
 16 17  1  0  0  0
 16 11  1  0  0  0
  7  1  1  0  0  0
 28 24  1  0  0  0
  8  9  1  0  0  0
 29 30  1  0  0  0
 33 34  1  0  0  0
 35 36  1  0  0  0
 41 42  1  0  0  0
 17 18  1  0  0  0
M  END
> <minimizedAffinity>
-6.51548

> <minimizedRMSD>
0.70054

$$$$
P9501


 33 35  0  0  0  0  0  0  0  0999 V2000
   -4.0907    6.2650  -16.7413 C   0  0  0  0  0  0  0  0  0  0  0  0
   -5.2773    5.6510  -17.3805 C   0  0  0  0  0  0  0  0  0  0  0  0
   -6.4395    5.1817  -16.8106 C   0  0  0  0  0  0  0  0  0  0  0  0
   -6.7307    5.1809  -15.4580 C   0  0  0  0  0  0  0  0  0  0  0  0
   -8.0365    4.6875  -15.2171 C   0  0  0  0  0  0  0  0  0  0  0  0
   -8.9603    4.3195  -16.2535 C   0  0  0  0  0  0  0  0  0  0  0  0
   -8.6167    4.2951  -17.6080 C   0  0  0  0  0  0  0  0  0  0  0  0
   -9.6878    3.8940  -18.8486 Cl  0  0  0  0  0  0  0  0  0  0  0  0
   -7.3146    4.7350  -17.8318 C   0  0  0  0  0  0  0  0  0  0  0  0
   -6.5798    4.7659  -18.9830 C   0  0  0  0  0  0  0  0  0  0  0  0
   -5.4296    5.4831  -18.7476 N   0  0  0  0  0  0  0  0  0  0  0  0
   -8.4830    4.6716  -13.8732 N   0  0  0  0  0  0  0  0  0  0  0  0
   -9.0091    3.9474  -13.4633 H   0  0  0  0  0  0  0  0  0  0  0  0
   -8.0517    5.8820  -13.1837 C   0  0  0  0  0  0  0  0  0  0  0  0
   -8.1413    5.7057  -11.6920 C   0  0  0  0  0  0  0  0  0  0  0  0
   -8.0240    6.8205  -10.8476 C   0  0  0  0  0  0  0  0  0  0  0  0
   -8.0976    6.6734   -9.4635 C   0  0  0  0  0  0  0  0  0  0  0  0
   -8.3064    5.4132   -8.9225 C   0  0  0  0  0  0  0  0  0  0  0  0
   -8.2834    5.2879   -7.5611 O   0  0  0  0  0  0  0  0  0  0  0  0
   -8.4938    4.2949   -9.7390 C   0  0  0  0  0  0  0  0  0  0  0  0
   -8.3883    4.4501  -11.1230 C   0  0  0  0  0  0  0  0  0  0  0  0
   -8.1570    6.0445   -7.0230 H   0  0  0  0  0  0  0  0  0  0  0  0
   -8.8076    2.9368   -9.1663 C   0  0  0  0  0  0  0  0  0  0  0  0
   -7.7668    2.5135   -8.2196 N   0  0  0  0  0  0  0  0  0  0  0  0
   -6.8447    1.5988   -8.9108 C   0  0  0  0  0  0  0  0  0  0  0  0
   -8.4002    1.8206   -7.0957 C   0  0  0  0  0  0  0  0  0  0  0  0
   -4.6036    6.1068  -19.7754 C   0  0  0  0  0  0  0  0  0  0  0  0
   -3.6189    5.2007  -20.5474 C   0  0  0  0  0  0  0  0  0  0  0  0
   -2.9562    4.1692  -19.6235 C   0  0  0  0  0  0  0  0  0  0  0  0
   -2.5128    6.1004  -21.1429 C   0  0  0  0  0  0  0  0  0  0  0  0
   -4.3356    4.4862  -21.7078 C   0  0  0  0  0  0  0  0  0  0  0  0
   -5.1252    5.3792  -22.4829 O   0  0  0  0  0  0  0  0  0  0  0  0
   -5.8129    5.7720  -21.9229 H   0  0  0  0  0  0  0  0  0  0  0  0
  1  2  1  0  0  0
  2  3  2  0  0  0
  3  4  1  0  0  0
  4  5  2  0  0  0
  5 12  1  0  0  0
 12 14  1  0  0  0
 14 15  1  0  0  0
 15 16  2  0  0  0
 16 17  1  0  0  0
 17 18  2  0  0  0
 18 19  1  0  0  0
 18 20  1  0  0  0
 20 23  1  0  0  0
 23 24  1  0  0  0
 24 25  1  0  0  0
 24 26  1  0  0  0
 20 21  2  0  0  0
  5  6  1  0  0  0
  6  7  2  0  0  0
  7  8  1  0  0  0
  7  9  1  0  0  0
  9 10  2  0  0  0
 10 11  1  0  0  0
 11 27  1  0  0  0
 27 28  1  0  0  0
 28 29  1  0  0  0
 28 30  1  0  0  0
 28 31  1  0  0  0
 31 32  1  0  0  0
 11  2  1  0  0  0
  9  3  1  0  0  0
 21 15  1  0  0  0
 12 13  1  0  0  0
 19 22  1  0  0  0
 32 33  1  0  0  0
M  END
> <minimizedAffinity>
-7.43433

> <minimizedRMSD>
0.35587

$$$$
P9502


 41 43  0  0  0  0  0  0  0  0999 V2000
   -4.3336    6.4335  -15.6249 C   0  0  0  0  0  0  0  0  0  0  0  0
   -3.7642    5.4759  -14.5562 C   0  0  0  0  0  0  0  0  0  0  0  0
   -4.4123    4.1660  -14.5452 N   0  0  0  0  0  0  0  0  0  0  0  0
   -5.0473    3.9076  -15.8290 C   0  0  0  0  0  0  0  0  0  0  0  0
   -6.2829    4.8380  -16.1514 C   0  0  0  0  0  0  0  0  0  0  0  0
   -5.8745    6.2691  -15.6561 C   0  0  0  0  0  0  0  0  0  0  0  0
   -7.5127    4.2567  -15.3377 C   0  0  0  0  0  0  0  0  0  0  0  0
   -8.8913    4.5057  -15.9383 C   0  0  0  0  0  0  0  0  0  0  0  0
   -8.9457    4.0017  -17.3539 C   0  0  0  0  0  0  0  0  0  0  0  0
  -10.5959    3.9923  -18.0216 Cl  0  0  0  0  0  0  0  0  0  0  0  0
   -7.9743    4.7433  -18.2428 C   0  0  0  0  0  0  0  0  0  0  0  0
   -6.5161    4.7317  -17.7441 C   0  0  0  0  0  0  0  0  0  0  0  0
   -5.1189    4.1461  -13.8099 H   0  0  0  0  0  0  0  0  0  0  0  0
   -7.5335    4.6379  -13.9402 N   0  0  0  0  0  0  0  0  0  0  0  0
   -8.3719    5.7025  -13.2048 C   0  0  0  0  0  0  0  0  0  0  0  0
   -9.1218    6.4928  -13.6196 O   0  0  0  0  0  0  0  0  0  0  0  0
   -6.9108    4.1352  -13.3667 H   0  0  0  0  0  0  0  0  0  0  0  0
   -8.1730    5.6103  -11.7509 C   0  0  0  0  0  0  0  0  0  0  0  0
   -7.7220    6.7317  -11.0544 C   0  0  0  0  0  0  0  0  0  0  0  0
   -7.5492    6.6505   -9.6774 C   0  0  0  0  0  0  0  0  0  0  0  0
   -7.8509    5.4616   -9.0230 C   0  0  0  0  0  0  0  0  0  0  0  0
   -7.5888    5.3904   -7.6825 O   0  0  0  0  0  0  0  0  0  0  0  0
   -8.3755    4.3544   -9.7065 C   0  0  0  0  0  0  0  0  0  0  0  0
   -8.5138    4.4281  -11.0914 C   0  0  0  0  0  0  0  0  0  0  0  0
   -7.2385    6.1344   -7.2335 H   0  0  0  0  0  0  0  0  0  0  0  0
   -8.8070    3.1104   -8.9732 C   0  0  0  0  0  0  0  0  0  0  0  0
   -7.7046    2.6044   -8.1461 N   0  0  0  0  0  0  0  0  0  0  0  0
   -6.8863    1.6919   -8.9565 C   0  0  0  0  0  0  0  0  0  0  0  0
   -8.2510    1.8943   -6.9887 C   0  0  0  0  0  0  0  0  0  0  0  0
   -5.7723    5.7780  -18.6417 C   0  0  0  0  0  0  0  0  0  0  0  0
   -5.9414    6.9232  -18.5230 O   0  0  0  0  0  0  0  0  0  0  0  0
   -4.9141    4.9942  -19.6581 N   0  0  0  0  0  0  0  0  0  0  0  0
   -4.9968    4.0150  -19.5991 H   0  0  0  0  0  0  0  0  0  0  0  0
   -3.9972    5.4706  -20.6954 C   0  0  0  0  0  0  0  0  0  0  0  0
   -2.6520    5.7675  -20.0287 C   0  0  0  0  0  0  0  0  0  0  0  0
   -3.8166    4.4010  -21.7765 C   0  0  0  0  0  0  0  0  0  0  0  0
   -4.5585    6.7499  -21.3821 C   0  0  0  0  0  0  0  0  0  0  0  0
   -4.1341    7.9677  -20.7741 O   0  0  0  0  0  0  0  0  0  0  0  0
   -4.4577    8.0028  -19.8604 H   0  0  0  0  0  0  0  0  0  0  0  0
   -3.6910    8.6012  -16.3691 C   0  0  0  0  0  0  0  0  0  0  0  0
   -3.8937    7.7347  -15.2625 O   0  0  0  0  0  0  0  0  0  0  0  0
 40 41  1  0  0  0
  1 41  1  0  0  0
  1  2  1  0  0  0
  2  3  1  0  0  0
  3  4  1  0  0  0
  5  4  1  0  0  0
  5  6  1  0  0  0
  5  7  1  0  0  0
  7 14  1  0  0  0
 14 15  1  0  0  0
 15 16  2  0  0  0
 15 18  1  0  0  0
 18 19  2  0  0  0
 19 20  1  0  0  0
 20 21  2  0  0  0
 21 22  1  0  0  0
 21 23  1  0  0  0
 23 26  1  0  0  0
 26 27  1  0  0  0
 27 28  1  0  0  0
 27 29  1  0  0  0
 23 24  2  0  0  0
  7  8  1  0  0  0
  8  9  1  0  0  0
  9 10  1  0  0  0
  9 11  1  0  0  0
 11 12  1  0  0  0
 12 30  1  0  0  0
 30 31  2  0  0  0
 30 32  1  0  0  0
 32 34  1  0  0  0
 34 35  1  0  0  0
 34 36  1  0  0  0
 34 37  1  0  0  0
 37 38  1  0  0  0
  6  1  1  0  0  0
 24 18  1  0  0  0
 12  5  1  0  0  0
  3 13  1  0  0  0
 14 17  1  0  0  0
 22 25  1  0  0  0
 32 33  1  0  0  0
 38 39  1  0  0  0
M  END
> <minimizedAffinity>
-7.67373

> <minimizedRMSD>
0.55373

$$$$
P9506


 41 43  0  0  0  0  0  0  0  0999 V2000
   -4.9538    8.1456  -14.2733 C   0  0  0  0  0  0  0  0  0  0  0  0
   -5.2982    6.6541  -14.2657 C   0  0  0  0  0  0  0  0  0  0  0  0
   -6.1036    6.2765  -15.5264 C   0  0  0  0  0  0  0  0  0  0  0  0
   -6.1450    4.7648  -15.9083 C   0  0  0  0  0  0  0  0  0  0  0  0
   -4.8588    4.0183  -15.4124 C   0  0  0  0  0  0  0  0  0  0  0  0
   -4.3981    4.4009  -14.0858 N   0  0  0  0  0  0  0  0  0  0  0  0
   -4.0439    5.8104  -14.1053 C   0  0  0  0  0  0  0  0  0  0  0  0
   -3.4702    6.0824  -12.9044 F   0  0  0  0  0  0  0  0  0  0  0  0
   -7.4186    4.1065  -15.2271 C   0  0  0  0  0  0  0  0  0  0  0  0
   -8.7441    4.4276  -15.9313 C   0  0  0  0  0  0  0  0  0  0  0  0
   -8.6791    4.1316  -17.4039 C   0  0  0  0  0  0  0  0  0  0  0  0
  -10.2657    4.3071  -18.1889 Cl  0  0  0  0  0  0  0  0  0  0  0  0
   -7.5680    4.8990  -18.1005 C   0  0  0  0  0  0  0  0  0  0  0  0
   -6.1914    4.5766  -17.4967 C   0  0  0  0  0  0  0  0  0  0  0  0
   -3.5813    3.8450  -13.8323 H   0  0  0  0  0  0  0  0  0  0  0  0
   -7.5472    4.4435  -13.8171 N   0  0  0  0  0  0  0  0  0  0  0  0
   -8.4050    5.5178  -13.1179 C   0  0  0  0  0  0  0  0  0  0  0  0
   -9.0851    6.3528  -13.5669 O   0  0  0  0  0  0  0  0  0  0  0  0
   -6.9971    3.8966  -13.2109 H   0  0  0  0  0  0  0  0  0  0  0  0
   -8.2630    5.4586  -11.6538 C   0  0  0  0  0  0  0  0  0  0  0  0
   -8.0081    6.6514  -10.9736 C   0  0  0  0  0  0  0  0  0  0  0  0
   -7.9823    6.6577   -9.5848 C   0  0  0  0  0  0  0  0  0  0  0  0
   -8.2451    5.4779   -8.8920 C   0  0  0  0  0  0  0  0  0  0  0  0
   -8.2838    5.5026   -7.5264 O   0  0  0  0  0  0  0  0  0  0  0  0
   -8.5216    4.2792   -9.5654 C   0  0  0  0  0  0  0  0  0  0  0  0
   -8.5057    4.2708  -10.9666 C   0  0  0  0  0  0  0  0  0  0  0  0
   -8.1006    6.2983   -7.0669 H   0  0  0  0  0  0  0  0  0  0  0  0
   -8.8723    3.0175   -8.8173 C   0  0  0  0  0  0  0  0  0  0  0  0
   -7.7620    2.5097   -8.0091 N   0  0  0  0  0  0  0  0  0  0  0  0
   -6.9541    1.5556   -8.7637 C   0  0  0  0  0  0  0  0  0  0  0  0
   -8.3018    1.8895   -6.8017 C   0  0  0  0  0  0  0  0  0  0  0  0
   -5.0190    5.3243  -18.2355 C   0  0  0  0  0  0  0  0  0  0  0  0
   -4.2835    6.0152  -17.6506 O   0  0  0  0  0  0  0  0  0  0  0  0
   -5.0599    4.9462  -19.7338 N   0  0  0  0  0  0  0  0  0  0  0  0
   -5.7416    4.2769  -19.9716 H   0  0  0  0  0  0  0  0  0  0  0  0
   -4.2507    5.4211  -20.8553 C   0  0  0  0  0  0  0  0  0  0  0  0
   -2.7724    5.2397  -20.5015 C   0  0  0  0  0  0  0  0  0  0  0  0
   -4.5682    4.6089  -22.1147 C   0  0  0  0  0  0  0  0  0  0  0  0
   -4.5673    6.9148  -21.1376 C   0  0  0  0  0  0  0  0  0  0  0  0
   -3.9022    7.8278  -20.2671 O   0  0  0  0  0  0  0  0  0  0  0  0
   -4.1927    7.6744  -19.3545 H   0  0  0  0  0  0  0  0  0  0  0  0
  2  1  1  0  0  0
  2  3  1  0  0  0
  4  3  1  0  0  0
  4  5  1  0  0  0
  5  6  1  0  0  0
  6  7  1  0  0  0
  7  8  1  0  0  0
  4  9  1  0  0  0
  9 16  1  0  0  0
 16 17  1  0  0  0
 17 18  2  0  0  0
 17 20  1  0  0  0
 20 21  2  0  0  0
 21 22  1  0  0  0
 22 23  2  0  0  0
 23 24  1  0  0  0
 23 25  1  0  0  0
 25 28  1  0  0  0
 28 29  1  0  0  0
 29 30  1  0  0  0
 29 31  1  0  0  0
 25 26  2  0  0  0
  9 10  1  0  0  0
 10 11  1  0  0  0
 11 12  1  0  0  0
 11 13  1  0  0  0
 13 14  1  0  0  0
 14 32  1  0  0  0
 32 33  2  0  0  0
 32 34  1  0  0  0
 34 36  1  0  0  0
 36 37  1  0  0  0
 36 38  1  0  0  0
 36 39  1  0  0  0
 39 40  1  0  0  0
  7  2  1  0  0  0
 26 20  1  0  0  0
 14  4  1  0  0  0
  6 15  1  0  0  0
 16 19  1  0  0  0
 24 27  1  0  0  0
 34 35  1  0  0  0
 40 41  1  0  0  0
M  END
> <minimizedAffinity>
-7.91967

> <minimizedRMSD>
0.25700

$$$$
P9508


 34 36  0  0  0  0  0  0  0  0999 V2000
   -7.6283    4.3633  -15.1465 C   0  0  0  0  0  0  0  0  0  0  0  0
   -8.9123    4.1547  -15.6559 N   0  0  0  0  0  0  0  0  0  0  0  0
   -8.9012    4.2682  -17.0143 C   0  0  0  0  0  0  0  0  0  0  0  0
  -10.3776    4.2500  -17.8422 Cl  0  0  0  0  0  0  0  0  0  0  0  0
   -7.6108    4.4209  -17.4051 C   0  0  0  0  0  0  0  0  0  0  0  0
   -7.1348    4.5530  -18.6438 N   0  0  0  0  0  0  0  0  0  0  0  0
   -5.7909    4.7117  -18.6974 C   0  0  0  0  0  0  0  0  0  0  0  0
   -4.9400    4.7470  -17.5695 C   0  0  0  0  0  0  0  0  0  0  0  0
   -5.4183    4.6375  -16.2486 C   0  0  0  0  0  0  0  0  0  0  0  0
   -6.7979    4.4646  -16.2485 C   0  0  0  0  0  0  0  0  0  0  0  0
   -9.7090    3.9550  -15.1131 H   0  0  0  0  0  0  0  0  0  0  0  0
   -7.3018    4.4828  -13.7379 C   0  0  0  0  0  0  0  0  0  0  0  0
   -6.4400    3.7913  -13.2005 O   0  0  0  0  0  0  0  0  0  0  0  0
   -8.0183    5.5932  -13.0074 C   0  0  0  0  0  0  0  0  0  0  0  0
   -8.5933    4.2000   -9.5279 C   0  0  0  0  0  0  0  0  0  0  0  0
   -8.4324    4.3008  -10.9143 C   0  0  0  0  0  0  0  0  0  0  0  0
   -8.0346    5.5011  -11.5097 C   0  0  0  0  0  0  0  0  0  0  0  0
   -7.7502    6.6045  -10.6986 C   0  0  0  0  0  0  0  0  0  0  0  0
   -7.8705    6.5065   -9.3130 C   0  0  0  0  0  0  0  0  0  0  0  0
   -8.2975    5.3111   -8.7380 C   0  0  0  0  0  0  0  0  0  0  0  0
   -8.4677    5.2306   -7.3852 O   0  0  0  0  0  0  0  0  0  0  0  0
   -8.2726    5.9699   -6.8436 H   0  0  0  0  0  0  0  0  0  0  0  0
   -9.1011    2.9053   -8.9468 C   0  0  0  0  0  0  0  0  0  0  0  0
   -7.2171    1.5010   -8.3764 C   0  0  0  0  0  0  0  0  0  0  0  0
   -8.2684    2.3787   -7.8646 N   0  0  0  0  0  0  0  0  0  0  0  0
   -9.1241    1.6503   -6.9298 C   0  0  0  0  0  0  0  0  0  0  0  0
   -5.3937    4.7407  -20.0034 N   0  0  0  0  0  0  0  0  0  0  0  0
   -5.8633    4.0978  -20.5825 H   0  0  0  0  0  0  0  0  0  0  0  0
   -4.3999    5.5516  -20.6945 C   0  0  0  0  0  0  0  0  0  0  0  0
   -2.9767    5.1902  -20.2598 C   0  0  0  0  0  0  0  0  0  0  0  0
   -4.5352    5.1429  -22.1809 C   0  0  0  0  0  0  0  0  0  0  0  0
   -4.6948    7.0711  -20.6069 C   0  0  0  0  0  0  0  0  0  0  0  0
   -4.0952    7.7404  -19.5009 O   0  0  0  0  0  0  0  0  0  0  0  0
   -4.4493    7.3786  -18.6735 H   0  0  0  0  0  0  0  0  0  0  0  0
 24 25  1  0  0  0
 25 26  1  0  0  0
 25 23  1  0  0  0
 23 15  1  0  0  0
 15 16  2  0  0  0
 16 17  1  0  0  0
 17 14  1  0  0  0
 14 12  1  0  0  0
 12 13  2  0  0  0
 12  1  1  0  0  0
  1  2  1  0  0  0
  2  3  1  0  0  0
  3  4  1  0  0  0
  3  5  2  0  0  0
  5  6  1  0  0  0
  6  7  2  0  0  0
  7 27  1  0  0  0
 27 29  1  0  0  0
 29 30  1  0  0  0
 29 31  1  0  0  0
 29 32  1  0  0  0
 32 33  1  0  0  0
  7  8  1  0  0  0
  8  9  2  0  0  0
  9 10  1  0  0  0
 17 18  2  0  0  0
 18 19  1  0  0  0
 19 20  2  0  0  0
 20 21  1  0  0  0
 20 15  1  0  0  0
 10  1  2  0  0  0
 10  5  1  0  0  0
  2 11  1  0  0  0
 27 28  1  0  0  0
 33 34  1  0  0  0
 21 22  1  0  0  0
M  END
> <minimizedAffinity>
-7.68228

> <minimizedRMSD>
0.58314

$$$$
P9511


 40 42  0  0  0  0  0  0  0  0999 V2000
   -2.3693    7.1998  -15.8500 C   0  0  0  0  0  0  0  0  0  0  0  0
   -3.2569    6.0303  -15.4323 C   0  0  0  0  0  0  0  0  0  0  0  0
   -3.6750    5.3001  -16.6195 N   0  0  0  0  0  0  0  0  0  0  0  0
   -4.7925    4.4207  -16.3428 C   0  0  0  0  0  0  0  0  0  0  0  0
   -6.0533    5.2991  -16.1811 C   0  0  0  0  0  0  0  0  0  0  0  0
   -5.5856    6.6554  -15.5333 C   0  0  0  0  0  0  0  0  0  0  0  0
   -4.4067    6.5149  -14.6834 N   0  0  0  0  0  0  0  0  0  0  0  0
   -7.1040    4.5225  -15.2756 C   0  0  0  0  0  0  0  0  0  0  0  0
   -8.5554    4.6332  -15.7635 C   0  0  0  0  0  0  0  0  0  0  0  0
   -8.7231    4.1228  -17.1785 C   0  0  0  0  0  0  0  0  0  0  0  0
  -10.3479    4.4619  -17.8188 Cl  0  0  0  0  0  0  0  0  0  0  0  0
   -7.5953    4.5167  -18.1257 C   0  0  0  0  0  0  0  0  0  0  0  0
   -6.6926    5.6211  -17.5740 C   0  0  0  0  0  0  0  0  0  0  0  0
   -2.8910    4.7418  -16.9572 H   0  0  0  0  0  0  0  0  0  0  0  0
   -4.6158    5.8542  -13.9349 H   0  0  0  0  0  0  0  0  0  0  0  0
   -5.8345    6.3583  -18.6430 C   0  0  0  0  0  0  0  0  0  0  0  0
   -5.7808    7.5272  -18.6293 O   0  0  0  0  0  0  0  0  0  0  0  0
   -5.2121    5.3376  -19.6253 N   0  0  0  0  0  0  0  0  0  0  0  0
   -5.4691    4.4010  -19.4640 H   0  0  0  0  0  0  0  0  0  0  0  0
   -4.3026    5.5378  -20.7567 C   0  0  0  0  0  0  0  0  0  0  0  0
   -2.8672    5.5337  -20.2244 C   0  0  0  0  0  0  0  0  0  0  0  0
   -4.4896    4.3896  -21.7610 C   0  0  0  0  0  0  0  0  0  0  0  0
   -4.5943    6.8614  -21.5161 C   0  0  0  0  0  0  0  0  0  0  0  0
   -3.8713    7.9759  -21.0014 O   0  0  0  0  0  0  0  0  0  0  0  0
   -4.1308    8.1320  -20.0799 H   0  0  0  0  0  0  0  0  0  0  0  0
   -6.9900    4.8828  -13.7904 C   0  0  0  0  0  0  0  0  0  0  0  0
   -6.0176    4.4726  -13.1512 O   0  0  0  0  0  0  0  0  0  0  0  0
   -8.0147    5.8217  -13.1752 C   0  0  0  0  0  0  0  0  0  0  0  0
   -8.1206    5.6940  -11.6836 C   0  0  0  0  0  0  0  0  0  0  0  0
   -7.9350    6.7967  -10.8420 C   0  0  0  0  0  0  0  0  0  0  0  0
   -8.0027    6.6386   -9.4589 C   0  0  0  0  0  0  0  0  0  0  0  0
   -8.2567    5.3818   -8.9252 C   0  0  0  0  0  0  0  0  0  0  0  0
   -8.2302    5.2446   -7.5645 O   0  0  0  0  0  0  0  0  0  0  0  0
   -8.4846    4.2746   -9.7478 C   0  0  0  0  0  0  0  0  0  0  0  0
   -8.3811    4.4360  -11.1297 C   0  0  0  0  0  0  0  0  0  0  0  0
   -8.0767    5.9923   -7.0211 H   0  0  0  0  0  0  0  0  0  0  0  0
   -8.8344    2.9224   -9.1829 C   0  0  0  0  0  0  0  0  0  0  0  0
   -7.8256    2.4790   -8.2120 N   0  0  0  0  0  0  0  0  0  0  0  0
   -6.8952    1.5570   -8.8808 C   0  0  0  0  0  0  0  0  0  0  0  0
   -8.4991    1.7894   -7.1093 C   0  0  0  0  0  0  0  0  0  0  0  0
  2  1  1  0  0  0
  2  3  1  0  0  0
  3  4  1  0  0  0
  5  4  1  0  0  0
  5  6  1  0  0  0
  6  7  1  0  0  0
  5  8  1  0  0  0
  8 26  1  0  0  0
 26 27  2  0  0  0
 26 28  1  0  0  0
 28 29  1  0  0  0
 29 30  2  0  0  0
 30 31  1  0  0  0
 31 32  2  0  0  0
 32 33  1  0  0  0
 32 34  1  0  0  0
 34 37  1  0  0  0
 37 38  1  0  0  0
 38 39  1  0  0  0
 38 40  1  0  0  0
 34 35  2  0  0  0
  8  9  1  0  0  0
  9 10  1  0  0  0
 10 11  1  0  0  0
 10 12  1  0  0  0
 12 13  1  0  0  0
 13 16  1  0  0  0
 16 17  2  0  0  0
 16 18  1  0  0  0
 18 20  1  0  0  0
 20 21  1  0  0  0
 20 22  1  0  0  0
 20 23  1  0  0  0
 23 24  1  0  0  0
  7  2  1  0  0  0
 35 29  1  0  0  0
 13  5  1  0  0  0
  3 14  1  0  0  0
  7 15  1  0  0  0
 33 36  1  0  0  0
 18 19  1  0  0  0
 24 25  1  0  0  0
M  END
> <minimizedAffinity>
-7.69401

> <minimizedRMSD>
0.36944

$$$$
P9513


 41 43  0  0  0  0  0  0  0  0999 V2000
   -3.7826    5.7055  -14.2668 C   0  0  0  0  0  0  0  0  0  0  0  0
   -3.6818    6.3176  -15.6690 C   0  0  0  0  0  0  0  0  0  0  0  0
   -5.0764    6.4394  -16.2946 C   0  0  0  0  0  0  0  0  0  0  0  0
   -5.8889    5.0961  -16.2617 C   0  0  0  0  0  0  0  0  0  0  0  0
   -5.0531    4.0222  -15.5069 C   0  0  0  0  0  0  0  0  0  0  0  0
   -4.5289    4.4628  -14.2175 N   0  0  0  0  0  0  0  0  0  0  0  0
   -7.2571    5.3541  -15.5341 C   0  0  0  0  0  0  0  0  0  0  0  0
   -8.3457    4.3172  -15.7932 C   0  0  0  0  0  0  0  0  0  0  0  0
   -8.6261    4.1330  -17.2756 C   0  0  0  0  0  0  0  0  0  0  0  0
  -10.3179    4.4781  -17.7114 Cl  0  0  0  0  0  0  0  0  0  0  0  0
   -7.6169    4.7836  -18.2178 C   0  0  0  0  0  0  0  0  0  0  0  0
   -6.1732    4.5488  -17.7472 C   0  0  0  0  0  0  0  0  0  0  0  0
   -3.9120    3.7343  -13.8582 H   0  0  0  0  0  0  0  0  0  0  0  0
   -5.0024    4.8401  -18.7556 C   0  0  0  0  0  0  0  0  0  0  0  0
   -4.0131    4.1894  -18.5780 O   0  0  0  0  0  0  0  0  0  0  0  0
   -5.2905    5.8527  -19.7248 N   0  0  0  0  0  0  0  0  0  0  0  0
   -6.2176    6.1834  -19.7064 H   0  0  0  0  0  0  0  0  0  0  0  0
   -4.4399    6.4825  -20.7416 C   0  0  0  0  0  0  0  0  0  0  0  0
   -4.3370    5.5888  -21.9857 C   0  0  0  0  0  0  0  0  0  0  0  0
   -5.0405    7.8239  -21.1769 C   0  0  0  0  0  0  0  0  0  0  0  0
   -3.0320    6.7386  -20.1437 C   0  0  0  0  0  0  0  0  0  0  0  0
   -2.0851    5.7077  -20.4127 O   0  0  0  0  0  0  0  0  0  0  0  0
   -2.3854    4.8791  -20.0075 H   0  0  0  0  0  0  0  0  0  0  0  0
   -1.3654    5.8194  -14.4006 C   0  0  0  0  0  0  0  0  0  0  0  0
   -2.5191    5.3409  -13.6496 N   0  0  0  0  0  0  0  0  0  0  0  0
   -2.4868    5.7415  -12.7121 H   0  0  0  0  0  0  0  0  0  0  0  0
   -7.2133    5.7622  -14.0527 C   0  0  0  0  0  0  0  0  0  0  0  0
   -6.6664    6.8292  -13.7555 O   0  0  0  0  0  0  0  0  0  0  0  0
   -7.9162    4.8783  -13.0389 C   0  0  0  0  0  0  0  0  0  0  0  0
   -7.2592    4.6509  -11.6975 C   0  0  0  0  0  0  0  0  0  0  0  0
   -5.9140    4.3076  -11.5128 C   0  0  0  0  0  0  0  0  0  0  0  0
   -5.4186    4.0035  -10.2429 C   0  0  0  0  0  0  0  0  0  0  0  0
   -6.2793    3.9993   -9.1566 C   0  0  0  0  0  0  0  0  0  0  0  0
   -5.8013    3.5463   -7.9582 O   0  0  0  0  0  0  0  0  0  0  0  0
   -7.6201    4.3587   -9.2996 C   0  0  0  0  0  0  0  0  0  0  0  0
   -8.0979    4.6801  -10.5744 C   0  0  0  0  0  0  0  0  0  0  0  0
   -4.8991    3.3077   -7.8737 H   0  0  0  0  0  0  0  0  0  0  0  0
   -8.5804    4.3083   -8.1401 C   0  0  0  0  0  0  0  0  0  0  0  0
   -8.5265    3.0085   -7.4622 N   0  0  0  0  0  0  0  0  0  0  0  0
   -9.1817    1.9884   -8.2936 C   0  0  0  0  0  0  0  0  0  0  0  0
   -9.2325    3.0938   -6.1836 C   0  0  0  0  0  0  0  0  0  0  0  0
 24 25  1  0  0  0
  1 25  1  0  0  0
  1  2  1  0  0  0
  2  3  1  0  0  0
  4  3  1  0  0  0
  4  5  1  0  0  0
  5  6  1  0  0  0
  4  7  1  0  0  0
  7 27  1  0  0  0
 27 28  2  0  0  0
 27 29  1  0  0  0
 29 30  1  0  0  0
 30 31  2  0  0  0
 31 32  1  0  0  0
 32 33  2  0  0  0
 33 34  1  0  0  0
 33 35  1  0  0  0
 35 38  1  0  0  0
 38 39  1  0  0  0
 39 40  1  0  0  0
 39 41  1  0  0  0
 35 36  2  0  0  0
  7  8  1  0  0  0
  8  9  1  0  0  0
  9 10  1  0  0  0
  9 11  1  0  0  0
 11 12  1  0  0  0
 12 14  1  0  0  0
 14 15  2  0  0  0
 14 16  1  0  0  0
 16 18  1  0  0  0
 18 19  1  0  0  0
 18 20  1  0  0  0
 18 21  1  0  0  0
 21 22  1  0  0  0
  6  1  1  0  0  0
 36 30  1  0  0  0
 12  4  1  0  0  0
 25 26  1  0  0  0
  6 13  1  0  0  0
 34 37  1  0  0  0
 16 17  1  0  0  0
 22 23  1  0  0  0
M  END
> <minimizedAffinity>
-7.33611

> <minimizedRMSD>
1.20058

$$$$
P9514


 33 35  0  0  0  0  0  0  0  0999 V2000
   -7.1599    4.3547  -14.8957 C   0  0  0  0  0  0  0  0  0  0  0  0
   -8.4352    4.7728  -15.6347 C   0  0  0  0  0  0  0  0  0  0  0  0
   -8.4006    4.2485  -17.0421 C   0  0  0  0  0  0  0  0  0  0  0  0
  -10.0049    4.2816  -17.8070 Cl  0  0  0  0  0  0  0  0  0  0  0  0
   -7.2725    4.8507  -17.8796 C   0  0  0  0  0  0  0  0  0  0  0  0
   -5.9368    5.0714  -17.1173 C   0  0  0  0  0  0  0  0  0  0  0  0
   -5.9404    4.1890  -15.8300 C   0  0  0  0  0  0  0  0  0  0  0  0
   -5.7316    6.4577  -16.6558 N   0  0  0  0  0  0  0  0  0  0  0  0
   -4.3119    6.5689  -16.2927 C   0  0  0  0  0  0  0  0  0  0  0  0
   -3.5813    5.4601  -17.0420 C   0  0  0  0  0  0  0  0  0  0  0  0
   -4.6402    4.8410  -17.9795 C   0  0  0  0  0  0  0  0  0  0  0  0
   -6.3193    6.6499  -15.8445 H   0  0  0  0  0  0  0  0  0  0  0  0
   -4.4616    5.4179  -19.4618 C   0  0  0  0  0  0  0  0  0  0  0  0
   -5.0983    4.5334  -20.5464 C   0  0  0  0  0  0  0  0  0  0  0  0
   -5.0476    6.8344  -19.6534 C   0  0  0  0  0  0  0  0  0  0  0  0
   -2.9374    5.4841  -19.8210 C   0  0  0  0  0  0  0  0  0  0  0  0
   -2.3976    4.1815  -20.0203 O   0  0  0  0  0  0  0  0  0  0  0  0
   -2.4897    3.6650  -19.2044 H   0  0  0  0  0  0  0  0  0  0  0  0
   -6.8487    5.2943  -13.8012 N   0  0  0  0  0  0  0  0  0  0  0  0
   -6.3735    4.7920  -13.0514 H   0  0  0  0  0  0  0  0  0  0  0  0
   -8.0794    5.8913  -13.2782 C   0  0  0  0  0  0  0  0  0  0  0  0
   -8.4996    4.3296   -9.8690 C   0  0  0  0  0  0  0  0  0  0  0  0
   -8.3789    4.5048  -11.2446 C   0  0  0  0  0  0  0  0  0  0  0  0
   -8.1742    5.7743  -11.7886 C   0  0  0  0  0  0  0  0  0  0  0  0
   -8.0899    6.8844  -10.9403 C   0  0  0  0  0  0  0  0  0  0  0  0
   -8.1715    6.7146   -9.5581 C   0  0  0  0  0  0  0  0  0  0  0  0
   -8.3454    5.4388   -9.0356 C   0  0  0  0  0  0  0  0  0  0  0  0
   -8.3095    5.2823   -7.6781 O   0  0  0  0  0  0  0  0  0  0  0  0
   -8.2058    6.0300   -7.1229 H   0  0  0  0  0  0  0  0  0  0  0  0
   -8.7565    2.9496   -9.3315 C   0  0  0  0  0  0  0  0  0  0  0  0
   -6.7470    1.6848   -9.0293 C   0  0  0  0  0  0  0  0  0  0  0  0
   -7.7216    2.5658   -8.3682 N   0  0  0  0  0  0  0  0  0  0  0  0
   -8.3543    1.8512   -7.2597 C   0  0  0  0  0  0  0  0  0  0  0  0
 31 32  1  0  0  0
 32 33  1  0  0  0
 32 30  1  0  0  0
 30 22  1  0  0  0
 22 23  2  0  0  0
 23 24  1  0  0  0
 24 21  1  0  0  0
 21 19  1  0  0  0
  1 19  1  0  0  0
  1  2  1  0  0  0
  2  3  1  0  0  0
  3  4  1  0  0  0
  3  5  1  0  0  0
  6  5  1  0  0  0
  6  7  1  0  0  0
  6  8  1  0  0  0
  8  9  1  0  0  0
  9 10  1  0  0  0
 10 11  1  0  0  0
 11 13  1  0  0  0
 13 14  1  0  0  0
 13 15  1  0  0  0
 13 16  1  0  0  0
 16 17  1  0  0  0
 24 25  2  0  0  0
 25 26  1  0  0  0
 26 27  2  0  0  0
 27 28  1  0  0  0
 27 22  1  0  0  0
  7  1  1  0  0  0
 11  6  1  0  0  0
 19 20  1  0  0  0
  8 12  1  0  0  0
 17 18  1  0  0  0
 28 29  1  0  0  0
M  END
> <minimizedAffinity>
-7.03747

> <minimizedRMSD>
0.66285

$$$$
P9515


 34 36  0  0  0  0  0  0  0  0999 V2000
   -6.6764    4.7868  -14.2812 C   0  0  0  0  0  0  0  0  0  0  0  0
   -7.8528    4.5047  -14.9736 C   0  0  0  0  0  0  0  0  0  0  0  0
   -7.8609    4.4572  -16.3590 C   0  0  0  0  0  0  0  0  0  0  0  0
   -9.4001    4.2482  -17.1329 Cl  0  0  0  0  0  0  0  0  0  0  0  0
   -6.6707    4.6639  -17.0779 C   0  0  0  0  0  0  0  0  0  0  0  0
   -6.6001    4.4731  -18.4476 C   0  0  0  0  0  0  0  0  0  0  0  0
   -5.4465    4.7519  -19.1799 C   0  0  0  0  0  0  0  0  0  0  0  0
   -4.3384    5.3559  -18.6061 C   0  0  0  0  0  0  0  0  0  0  0  0
   -4.3624    5.4372  -17.2046 C   0  0  0  0  0  0  0  0  0  0  0  0
   -3.2520    5.9361  -16.5673 O   0  0  0  0  0  0  0  0  0  0  0  0
   -5.4972    5.0695  -16.4215 C   0  0  0  0  0  0  0  0  0  0  0  0
   -5.5349    5.1313  -15.0160 C   0  0  0  0  0  0  0  0  0  0  0  0
   -2.4974    6.1829  -17.0650 H   0  0  0  0  0  0  0  0  0  0  0  0
   -3.2521    5.9616  -19.5152 C   0  0  0  0  0  0  0  0  0  0  0  0
   -1.8589    5.4213  -19.1583 C   0  0  0  0  0  0  0  0  0  0  0  0
   -3.4672    5.6373  -21.0252 C   0  0  0  0  0  0  0  0  0  0  0  0
   -3.3146    7.5153  -19.4160 C   0  0  0  0  0  0  0  0  0  0  0  0
   -2.4087    8.0862  -18.4789 O   0  0  0  0  0  0  0  0  0  0  0  0
   -2.6252    7.7719  -17.5871 H   0  0  0  0  0  0  0  0  0  0  0  0
   -6.6118    4.9069  -12.8886 N   0  0  0  0  0  0  0  0  0  0  0  0
   -6.1848    4.2191  -12.3283 H   0  0  0  0  0  0  0  0  0  0  0  0
   -7.2078    6.0991  -12.3135 C   0  0  0  0  0  0  0  0  0  0  0  0
   -8.5215    4.3884   -9.2001 C   0  0  0  0  0  0  0  0  0  0  0  0
   -8.0801    4.6344  -10.5048 C   0  0  0  0  0  0  0  0  0  0  0  0
   -7.5546    5.8762  -10.8693 C   0  0  0  0  0  0  0  0  0  0  0  0
   -7.4681    6.8878   -9.9050 C   0  0  0  0  0  0  0  0  0  0  0  0
   -7.8789    6.6484   -8.5938 C   0  0  0  0  0  0  0  0  0  0  0  0
   -8.4022    5.4030   -8.2498 C   0  0  0  0  0  0  0  0  0  0  0  0
   -8.8450    5.1772   -6.9776 O   0  0  0  0  0  0  0  0  0  0  0  0
   -8.7710    5.8498   -6.3294 H   0  0  0  0  0  0  0  0  0  0  0  0
   -9.1244    3.0444   -8.8847 C   0  0  0  0  0  0  0  0  0  0  0  0
   -7.3649    1.4962   -8.2756 C   0  0  0  0  0  0  0  0  0  0  0  0
   -8.4542    2.3422   -7.7892 N   0  0  0  0  0  0  0  0  0  0  0  0
   -9.4420    1.5324   -7.0807 C   0  0  0  0  0  0  0  0  0  0  0  0
 32 33  1  0  0  0
 33 34  1  0  0  0
 33 31  1  0  0  0
 31 23  1  0  0  0
 23 24  2  0  0  0
 24 25  1  0  0  0
 25 22  1  0  0  0
 22 20  1  0  0  0
 20  1  1  0  0  0
  1  2  2  0  0  0
  2  3  1  0  0  0
  3  4  1  0  0  0
  3  5  2  0  0  0
  5  6  1  0  0  0
  6  7  2  0  0  0
  7  8  1  0  0  0
  8 14  1  0  0  0
 14 15  1  0  0  0
 14 16  1  0  0  0
 14 17  1  0  0  0
 17 18  1  0  0  0
  8  9  2  0  0  0
  9 10  1  0  0  0
  9 11  1  0  0  0
 11 12  2  0  0  0
 25 26  2  0  0  0
 26 27  1  0  0  0
 27 28  2  0  0  0
 28 29  1  0  0  0
 28 23  1  0  0  0
 12  1  1  0  0  0
 11  5  1  0  0  0
 20 21  1  0  0  0
 18 19  1  0  0  0
 10 13  1  0  0  0
 29 30  1  0  0  0
M  END
> <minimizedAffinity>
-6.81171

> <minimizedRMSD>
1.15043

$$$$
P9540


 40 42  0  0  0  0  0  0  0  0999 V2000
   -7.3329    4.8599  -15.3368 C   0  0  0  0  0  0  0  0  0  0  0  0
   -8.5120    4.3736  -15.8990 C   0  0  0  0  0  0  0  0  0  0  0  0
   -8.6350    4.3190  -17.2839 C   0  0  0  0  0  0  0  0  0  0  0  0
  -10.1250    3.8127  -17.9746 Cl  0  0  0  0  0  0  0  0  0  0  0  0
   -7.5996    4.7535  -18.1116 C   0  0  0  0  0  0  0  0  0  0  0  0
   -6.4045    5.2410  -17.5663 C   0  0  0  0  0  0  0  0  0  0  0  0
   -6.2773    5.2432  -16.1681 C   0  0  0  0  0  0  0  0  0  0  0  0
   -7.1688    5.1337  -13.8848 C   0  0  0  0  0  0  0  0  0  0  0  0
   -6.1145    4.8140  -13.3367 O   0  0  0  0  0  0  0  0  0  0  0  0
   -8.2436    5.9216  -13.1862 C   0  0  0  0  0  0  0  0  0  0  0  0
   -8.4601    4.2952   -9.7698 C   0  0  0  0  0  0  0  0  0  0  0  0
   -8.4136    4.4837  -11.1512 C   0  0  0  0  0  0  0  0  0  0  0  0
   -8.2312    5.7592  -11.6910 C   0  0  0  0  0  0  0  0  0  0  0  0
   -8.0480    6.8513  -10.8320 C   0  0  0  0  0  0  0  0  0  0  0  0
   -8.0336    6.6634   -9.4503 C   0  0  0  0  0  0  0  0  0  0  0  0
   -8.2228    5.3889   -8.9328 C   0  0  0  0  0  0  0  0  0  0  0  0
   -8.1336    5.2215   -7.5784 O   0  0  0  0  0  0  0  0  0  0  0  0
   -7.9743    5.9603   -7.0245 H   0  0  0  0  0  0  0  0  0  0  0  0
   -8.7805    2.9288   -9.2263 C   0  0  0  0  0  0  0  0  0  0  0  0
   -6.8408    1.5595   -8.9620 C   0  0  0  0  0  0  0  0  0  0  0  0
   -7.7570    2.4820   -8.2750 N   0  0  0  0  0  0  0  0  0  0  0  0
   -8.4193    1.7912   -7.1666 C   0  0  0  0  0  0  0  0  0  0  0  0
   -5.2694    5.8471  -18.3908 C   0  0  0  0  0  0  0  0  0  0  0  0
   -5.0821    7.2958  -17.9997 N   0  0  0  0  0  0  0  0  0  0  0  0
   -5.8334    8.0753  -18.6012 O   0  0  0  0  0  0  0  0  0  0  0  0
   -5.3861    5.5760  -19.8298 N   0  0  0  0  0  0  0  0  0  0  0  0
   -5.8907    6.3586  -20.2460 H   0  0  0  0  0  0  0  0  0  0  0  0
   -4.1316    5.3927  -20.6105 C   0  0  0  0  0  0  0  0  0  0  0  0
   -3.0931    4.5256  -19.8846 C   0  0  0  0  0  0  0  0  0  0  0  0
   -4.5346    4.5889  -21.8870 C   0  0  0  0  0  0  0  0  0  0  0  0
   -5.1094    5.4317  -22.8767 O   0  0  0  0  0  0  0  0  0  0  0  0
   -5.9138    5.8429  -22.5236 H   0  0  0  0  0  0  0  0  0  0  0  0
   -3.6429    6.8025  -21.0941 C   0  0  0  0  0  0  0  0  0  0  0  0
   -2.2358    7.2670  -20.6917 C   0  0  0  0  0  0  0  0  0  0  0  0
   -1.1338    6.9664  -21.6822 C   0  0  0  0  0  0  0  0  0  0  0  0
   -1.4178    6.5895  -23.0022 C   0  0  0  0  0  0  0  0  0  0  0  0
   -0.3856    6.3402  -23.9094 C   0  0  0  0  0  0  0  0  0  0  0  0
    0.9424    6.4777  -23.5130 C   0  0  0  0  0  0  0  0  0  0  0  0
    1.2395    6.8690  -22.2100 C   0  0  0  0  0  0  0  0  0  0  0  0
    0.2082    7.1177  -21.3023 C   0  0  0  0  0  0  0  0  0  0  0  0
 20 21  1  0  0  0
 21 22  1  0  0  0
 21 19  1  0  0  0
 19 11  1  0  0  0
 11 12  2  0  0  0
 12 13  1  0  0  0
 13 10  1  0  0  0
 10  8  1  0  0  0
  8  9  2  0  0  0
  8  1  1  0  0  0
  1  2  2  0  0  0
  2  3  1  0  0  0
  3  4  1  0  0  0
  3  5  2  0  0  0
  5  6  1  0  0  0
  6 23  1  0  0  0
 23 24  1  0  0  0
 24 25  2  0  0  0
 23 26  1  0  0  0
 26 28  1  0  0  0
 28 29  1  0  0  0
 28 30  1  0  0  0
 30 31  1  0  0  0
 28 33  1  0  0  0
 33 34  1  0  0  0
 34 35  1  0  0  0
 35 36  2  0  0  0
 36 37  1  0  0  0
 37 38  2  0  0  0
 38 39  1  0  0  0
 39 40  2  0  0  0
  6  7  2  0  0  0
 13 14  2  0  0  0
 14 15  1  0  0  0
 15 16  2  0  0  0
 16 17  1  0  0  0
 16 11  1  0  0  0
  7  1  1  0  0  0
 40 35  1  0  0  0
 26 27  1  0  0  0
 31 32  1  0  0  0
 17 18  1  0  0  0
M  END
> <minimizedAffinity>
-7.28095

> <minimizedRMSD>
0.89143

$$$$
P9543


 40 42  0  0  0  0  0  0  0  0999 V2000
   -6.5495    4.9121   -9.6311 C   0  0  0  0  0  0  0  0  0  0  0  0
   -6.7131    4.9345  -11.1646 C   0  0  0  0  0  0  0  0  0  0  0  0
   -7.1230    3.5673  -11.7313 C   0  0  0  0  0  0  0  0  0  0  0  0
   -8.4337    3.0811  -11.0960 C   0  0  0  0  0  0  0  0  0  0  0  0
   -8.2994    2.9498   -9.5628 C   0  0  0  0  0  0  0  0  0  0  0  0
   -7.3623    1.8518   -9.2489 N   0  0  0  0  0  0  0  0  0  0  0  0
   -7.9767    1.1764   -8.1550 N   0  0  0  0  0  0  0  0  0  0  0  0
   -9.3600    1.2455   -8.3995 N   0  0  0  0  0  0  0  0  0  0  0  0
   -9.5837    2.5372   -8.9767 N   0  0  0  0  0  0  0  0  0  0  0  0
   -7.8314    4.3348   -8.9709 C   0  0  0  0  0  0  0  0  0  0  0  0
   -7.6777    4.3370   -7.5452 O   0  0  0  0  0  0  0  0  0  0  0  0
   -6.4494    2.2197   -8.9812 H   0  0  0  0  0  0  0  0  0  0  0  0
   -7.7466    1.6392   -7.2757 H   0  0  0  0  0  0  0  0  0  0  0  0
   -9.8810    1.1496   -7.5279 H   0  0  0  0  0  0  0  0  0  0  0  0
   -9.8744    3.2004   -8.2584 H   0  0  0  0  0  0  0  0  0  0  0  0
   -6.9421    3.7549   -7.2984 H   0  0  0  0  0  0  0  0  0  0  0  0
   -5.2107    4.2226   -9.2415 C   0  0  0  0  0  0  0  0  0  0  0  0
   -3.2695    4.1117   -7.8135 C   0  0  0  0  0  0  0  0  0  0  0  0
   -4.6218    4.6501   -7.9599 N   0  0  0  0  0  0  0  0  0  0  0  0
   -4.6042    6.1065   -7.8192 C   0  0  0  0  0  0  0  0  0  0  0  0
   -7.1572    3.5372  -13.2567 C   0  0  0  0  0  0  0  0  0  0  0  0
   -8.0860    4.5154  -13.9497 C   0  0  0  0  0  0  0  0  0  0  0  0
   -8.8640    5.2888  -13.4055 O   0  0  0  0  0  0  0  0  0  0  0  0
   -8.0228    4.4926  -15.4190 C   0  0  0  0  0  0  0  0  0  0  0  0
   -9.1916    4.3178  -16.1446 C   0  0  0  0  0  0  0  0  0  0  0  0
   -9.1184    4.2982  -17.5288 C   0  0  0  0  0  0  0  0  0  0  0  0
  -10.5647    4.1889  -18.4414 Cl  0  0  0  0  0  0  0  0  0  0  0  0
   -7.8970    4.4622  -18.1891 C   0  0  0  0  0  0  0  0  0  0  0  0
   -6.7263    4.6842  -17.4618 C   0  0  0  0  0  0  0  0  0  0  0  0
   -6.7992    4.6833  -16.0626 C   0  0  0  0  0  0  0  0  0  0  0  0
   -5.3987    5.0545  -18.0628 C   0  0  0  0  0  0  0  0  0  0  0  0
   -4.6052    5.4743  -17.3199 O   0  0  0  0  0  0  0  0  0  0  0  0
   -5.3092    4.7970  -19.5737 N   0  0  0  0  0  0  0  0  0  0  0  0
   -6.1005    4.3611  -19.9649 H   0  0  0  0  0  0  0  0  0  0  0  0
   -4.2389    5.0942  -20.5279 C   0  0  0  0  0  0  0  0  0  0  0  0
   -2.9427    4.4303  -20.0442 C   0  0  0  0  0  0  0  0  0  0  0  0
   -4.6090    4.5346  -21.9057 C   0  0  0  0  0  0  0  0  0  0  0  0
   -4.0482    6.6296  -20.6543 C   0  0  0  0  0  0  0  0  0  0  0  0
   -3.3172    7.2167  -19.5806 O   0  0  0  0  0  0  0  0  0  0  0  0
   -3.8020    7.0873  -18.7505 H   0  0  0  0  0  0  0  0  0  0  0  0
 18 19  1  0  0  0
 19 20  1  0  0  0
 19 17  1  0  0  0
  1 17  1  0  0  0
  1  2  1  0  0  0
  2  3  1  0  0  0
  3 21  1  0  0  0
 21 22  1  0  0  0
 22 23  2  0  0  0
 22 24  1  0  0  0
 24 25  2  0  0  0
 25 26  1  0  0  0
 26 27  1  0  0  0
 26 28  2  0  0  0
 28 29  1  0  0  0
 29 31  1  0  0  0
 31 32  2  0  0  0
 31 33  1  0  0  0
 33 35  1  0  0  0
 35 36  1  0  0  0
 35 37  1  0  0  0
 35 38  1  0  0  0
 38 39  1  0  0  0
 29 30  2  0  0  0
  3  4  1  0  0  0
  4  5  1  0  0  0
  5  6  1  0  0  0
  6  7  1  0  0  0
  7  8  1  0  0  0
  8  9  1  0  0  0
  5 10  1  0  0  0
 10 11  1  0  0  0
 10  1  1  0  0  0
 30 24  1  0  0  0
  9  5  1  0  0  0
 33 34  1  0  0  0
 39 40  1  0  0  0
  6 12  1  0  0  0
  7 13  1  0  0  0
  8 14  1  0  0  0
  9 15  1  0  0  0
 11 16  1  0  0  0
M  END
> <minimizedAffinity>
-9.02988

> <minimizedRMSD>
0.74883

$$$$
P9555


 36 38  0  0  0  0  0  0  0  0999 V2000
   -7.5554    4.9783  -15.1779 C   0  0  0  0  0  0  0  0  0  0  0  0
   -8.7914    4.6832  -15.7502 C   0  0  0  0  0  0  0  0  0  0  0  0
   -8.8852    4.4876  -17.1337 C   0  0  0  0  0  0  0  0  0  0  0  0
  -10.4563    4.2073  -17.7827 Cl  0  0  0  0  0  0  0  0  0  0  0  0
   -7.7421    4.5338  -17.9424 C   0  0  0  0  0  0  0  0  0  0  0  0
   -6.5207    4.9184  -17.3723 C   0  0  0  0  0  0  0  0  0  0  0  0
   -6.4288    5.1372  -15.9898 C   0  0  0  0  0  0  0  0  0  0  0  0
   -5.2542    4.9661  -18.1634 C   0  0  0  0  0  0  0  0  0  0  0  0
   -4.3722    4.3029  -17.7882 O   0  0  0  0  0  0  0  0  0  0  0  0
   -5.3517    5.9029  -19.3879 N   0  0  0  0  0  0  0  0  0  0  0  0
   -6.1884    6.4183  -19.4469 H   0  0  0  0  0  0  0  0  0  0  0  0
   -4.4004    6.1496  -20.4770 C   0  0  0  0  0  0  0  0  0  0  0  0
   -2.9907    6.4235  -19.9416 C   0  0  0  0  0  0  0  0  0  0  0  0
   -4.3513    4.9281  -21.4073 C   0  0  0  0  0  0  0  0  0  0  0  0
   -4.9189    7.3624  -21.2802 C   0  0  0  0  0  0  0  0  0  0  0  0
   -5.1243    8.5008  -20.4422 O   0  0  0  0  0  0  0  0  0  0  0  0
   -5.7897    8.2905  -19.7685 H   0  0  0  0  0  0  0  0  0  0  0  0
   -7.3991    5.1432  -13.7130 C   0  0  0  0  0  0  0  0  0  0  0  0
   -6.5958    5.9774  -13.3079 O   0  0  0  0  0  0  0  0  0  0  0  0
   -8.2312    4.2595  -12.8042 C   0  0  0  0  0  0  0  0  0  0  0  0
   -7.6646    3.4486   -6.9854 N   0  0  0  0  0  0  0  0  0  0  0  0
   -8.9675    2.7999   -7.0286 C   0  0  0  0  0  0  0  0  0  0  0  0
   -8.8884    1.9951   -8.3122 C   0  0  0  0  0  0  0  0  0  0  0  0
   -7.8859    2.7189   -9.2423 C   0  0  0  0  0  0  0  0  0  0  0  0
   -8.5766    3.2642  -10.5078 C   0  0  0  0  0  0  0  0  0  0  0  0
   -7.6064    4.0535  -11.4157 C   0  0  0  0  0  0  0  0  0  0  0  0
   -6.2202    3.3823  -11.5011 C   0  0  0  0  0  0  0  0  0  0  0  0
   -6.2701    1.9142  -11.1066 C   0  0  0  0  0  0  0  0  0  0  0  0
   -6.7498    1.7306   -9.6619 C   0  0  0  0  0  0  0  0  0  0  0  0
   -5.6003    1.8258   -8.8341 O   0  0  0  0  0  0  0  0  0  0  0  0
   -7.4263    3.8980   -8.3599 C   0  0  0  0  0  0  0  0  0  0  0  0
   -5.1945    2.7000   -8.9436 H   0  0  0  0  0  0  0  0  0  0  0  0
   -7.7860    4.0915   -4.5911 C   0  0  0  0  0  0  0  0  0  0  0  0
   -7.5811    4.5503   -6.0290 C   0  0  0  0  0  0  0  0  0  0  0  0
   -7.7438    4.0382  -19.2870 C   0  0  0  0  0  0  0  0  0  0  0  0
   -7.5848    3.5968  -20.3537 N   0  0  0  0  0  0  0  0  0  0  0  0
 33 34  1  0  0  0
 34 21  1  0  0  0
 21 22  1  0  0  0
 22 23  1  0  0  0
 24 23  1  0  0  0
 24 25  1  0  0  0
 25 26  1  0  0  0
 26 20  1  0  0  0
 20 18  1  0  0  0
 18 19  2  0  0  0
 18  1  1  0  0  0
  1  2  2  0  0  0
  2  3  1  0  0  0
  3  4  1  0  0  0
  3  5  2  0  0  0
  5 35  1  0  0  0
 35 36  3  0  0  0
  5  6  1  0  0  0
  6  8  1  0  0  0
  8  9  2  0  0  0
  8 10  1  0  0  0
 10 12  1  0  0  0
 12 13  1  0  0  0
 12 14  1  0  0  0
 12 15  1  0  0  0
 15 16  1  0  0  0
  6  7  2  0  0  0
 26 27  1  0  0  0
 27 28  1  0  0  0
 28 29  1  0  0  0
 29 30  1  0  0  0
 24 31  1  0  0  0
 31 21  1  0  0  0
 29 24  1  0  0  0
  7  1  1  0  0  0
 10 11  1  0  0  0
 16 17  1  0  0  0
 30 32  1  0  0  0
M  END
> <minimizedAffinity>
-5.84717

> <minimizedRMSD>
0.59793

$$$$
P9597


 34 36  0  0  0  0  0  0  0  0999 V2000
   -7.6419    4.7061  -15.3060 C   0  0  0  0  0  0  0  0  0  0  0  0
   -8.9670    4.4028  -15.6788 N   0  0  0  0  0  0  0  0  0  0  0  0
   -9.0725    4.3234  -17.0339 C   0  0  0  0  0  0  0  0  0  0  0  0
  -10.5900    4.2580  -17.7587 Cl  0  0  0  0  0  0  0  0  0  0  0  0
   -7.8203    4.4014  -17.5145 C   0  0  0  0  0  0  0  0  0  0  0  0
   -6.9254    4.6982  -16.4912 C   0  0  0  0  0  0  0  0  0  0  0  0
   -5.6640    4.9383  -17.1365 C   0  0  0  0  0  0  0  0  0  0  0  0
   -4.5953    5.3154  -16.7018 O   0  0  0  0  0  0  0  0  0  0  0  0
   -6.0213    4.6966  -18.6405 C   0  0  0  0  0  0  0  0  0  0  0  0
   -7.2861    4.3757  -18.7836 N   0  0  0  0  0  0  0  0  0  0  0  0
   -9.7110    4.2675  -15.0484 H   0  0  0  0  0  0  0  0  0  0  0  0
   -7.2431    5.0066  -13.9394 C   0  0  0  0  0  0  0  0  0  0  0  0
   -6.1359    4.7223  -13.4951 O   0  0  0  0  0  0  0  0  0  0  0  0
   -8.2513    5.8182  -13.1409 C   0  0  0  0  0  0  0  0  0  0  0  0
   -8.5075    4.3108   -9.6719 C   0  0  0  0  0  0  0  0  0  0  0  0
   -8.4172    4.4485  -11.0583 C   0  0  0  0  0  0  0  0  0  0  0  0
   -8.1981    5.7017  -11.6448 C   0  0  0  0  0  0  0  0  0  0  0  0
   -8.0264    6.8218  -10.8234 C   0  0  0  0  0  0  0  0  0  0  0  0
   -8.0710    6.6877   -9.4351 C   0  0  0  0  0  0  0  0  0  0  0  0
   -8.2999    5.4381   -8.8727 C   0  0  0  0  0  0  0  0  0  0  0  0
   -8.2792    5.3308   -7.5093 O   0  0  0  0  0  0  0  0  0  0  0  0
   -8.1393    6.0922   -6.9815 H   0  0  0  0  0  0  0  0  0  0  0  0
   -8.8427    2.9647   -9.0803 C   0  0  0  0  0  0  0  0  0  0  0  0
   -6.9178    1.5675   -8.8371 C   0  0  0  0  0  0  0  0  0  0  0  0
   -7.7990    2.5218   -8.1468 N   0  0  0  0  0  0  0  0  0  0  0  0
   -8.4334    1.8659   -6.9999 C   0  0  0  0  0  0  0  0  0  0  0  0
   -5.3305    4.7586  -19.8130 N   0  0  0  0  0  0  0  0  0  0  0  0
   -5.8479    4.4021  -20.5709 H   0  0  0  0  0  0  0  0  0  0  0  0
   -4.0211    5.2217  -20.2121 C   0  0  0  0  0  0  0  0  0  0  0  0
   -2.9187    4.3669  -19.5900 C   0  0  0  0  0  0  0  0  0  0  0  0
   -3.9674    5.0158  -21.7478 C   0  0  0  0  0  0  0  0  0  0  0  0
   -3.8381    6.7346  -19.9458 C   0  0  0  0  0  0  0  0  0  0  0  0
   -3.2704    7.0658  -18.6850 O   0  0  0  0  0  0  0  0  0  0  0  0
   -3.8627    6.7702  -17.9760 H   0  0  0  0  0  0  0  0  0  0  0  0
 24 25  1  0  0  0
 25 26  1  0  0  0
 25 23  1  0  0  0
 23 15  1  0  0  0
 15 16  2  0  0  0
 16 17  1  0  0  0
 17 14  1  0  0  0
 14 12  1  0  0  0
 12 13  2  0  0  0
 12  1  1  0  0  0
  1  2  1  0  0  0
  2  3  1  0  0  0
  3  4  1  0  0  0
  3  5  2  0  0  0
  5  6  1  0  0  0
  6  7  1  0  0  0
  7  8  2  0  0  0
  7  9  1  0  0  0
  9 27  1  0  0  0
 27 29  1  0  0  0
 29 30  1  0  0  0
 29 31  1  0  0  0
 29 32  1  0  0  0
 32 33  1  0  0  0
  9 10  2  0  0  0
 17 18  2  0  0  0
 18 19  1  0  0  0
 19 20  2  0  0  0
 20 21  1  0  0  0
 20 15  1  0  0  0
  6  1  2  0  0  0
 10  5  1  0  0  0
  2 11  1  0  0  0
 27 28  1  0  0  0
 33 34  1  0  0  0
 21 22  1  0  0  0
M  END
> <minimizedAffinity>
-7.36198

> <minimizedRMSD>
0.51726

$$$$
P9621


 34 36  0  0  0  0  0  0  0  0999 V2000
   -7.4607    4.6693  -15.5697 C   0  0  0  0  0  0  0  0  0  0  0  0
   -8.7536    4.4526  -16.0710 C   0  0  0  0  0  0  0  0  0  0  0  0
   -8.9730    4.3189  -17.4342 C   0  0  0  0  0  0  0  0  0  0  0  0
  -10.5756    4.2229  -18.0366 Cl  0  0  0  0  0  0  0  0  0  0  0  0
   -7.9188    4.3598  -18.3359 C   0  0  0  0  0  0  0  0  0  0  0  0
   -6.6131    4.5974  -17.8714 C   0  0  0  0  0  0  0  0  0  0  0  0
   -5.3533    4.7903  -18.5141 C   0  0  0  0  0  0  0  0  0  0  0  0
   -4.4148    4.9643  -17.5291 C   0  0  0  0  0  0  0  0  0  0  0  0
   -5.0605    4.9255  -16.3184 N   0  0  0  0  0  0  0  0  0  0  0  0
   -6.4112    4.7293  -16.5010 C   0  0  0  0  0  0  0  0  0  0  0  0
   -4.6202    5.0239  -15.4433 H   0  0  0  0  0  0  0  0  0  0  0  0
   -7.1921    4.9254  -14.1278 C   0  0  0  0  0  0  0  0  0  0  0  0
   -6.1264    4.5464  -13.6447 O   0  0  0  0  0  0  0  0  0  0  0  0
   -8.2328    5.7145  -13.3732 C   0  0  0  0  0  0  0  0  0  0  0  0
   -8.4820    4.2170   -9.9040 C   0  0  0  0  0  0  0  0  0  0  0  0
   -8.4095    4.3602  -11.2900 C   0  0  0  0  0  0  0  0  0  0  0  0
   -8.2010    5.6140  -11.8741 C   0  0  0  0  0  0  0  0  0  0  0  0
   -8.0573    6.7366  -11.0490 C   0  0  0  0  0  0  0  0  0  0  0  0
   -8.0852    6.5978   -9.6599 C   0  0  0  0  0  0  0  0  0  0  0  0
   -8.2743    5.3406   -9.1009 C   0  0  0  0  0  0  0  0  0  0  0  0
   -8.2080    5.2165   -7.7404 O   0  0  0  0  0  0  0  0  0  0  0  0
   -8.0684    5.9741   -7.2071 H   0  0  0  0  0  0  0  0  0  0  0  0
   -8.7750    2.8612   -9.3181 C   0  0  0  0  0  0  0  0  0  0  0  0
   -6.8010    1.5541   -8.9940 C   0  0  0  0  0  0  0  0  0  0  0  0
   -7.7471    2.4749   -8.3448 N   0  0  0  0  0  0  0  0  0  0  0  0
   -8.3934    1.8023   -7.2159 C   0  0  0  0  0  0  0  0  0  0  0  0
   -5.2333    4.8112  -19.8624 N   0  0  0  0  0  0  0  0  0  0  0  0
   -5.8441    4.2013  -20.3359 H   0  0  0  0  0  0  0  0  0  0  0  0
   -4.3481    5.5877  -20.7394 C   0  0  0  0  0  0  0  0  0  0  0  0
   -2.8601    5.4050  -20.4347 C   0  0  0  0  0  0  0  0  0  0  0  0
   -4.5985    5.0625  -22.1705 C   0  0  0  0  0  0  0  0  0  0  0  0
   -4.7528    7.0846  -20.7175 C   0  0  0  0  0  0  0  0  0  0  0  0
   -4.0286    7.8479  -19.7566 O   0  0  0  0  0  0  0  0  0  0  0  0
   -4.2121    7.5063  -18.8674 H   0  0  0  0  0  0  0  0  0  0  0  0
 24 25  1  0  0  0
 25 26  1  0  0  0
 25 23  1  0  0  0
 23 15  1  0  0  0
 15 16  2  0  0  0
 16 17  1  0  0  0
 17 14  1  0  0  0
 14 12  1  0  0  0
 12 13  2  0  0  0
 12  1  1  0  0  0
  1  2  2  0  0  0
  2  3  1  0  0  0
  3  4  1  0  0  0
  3  5  2  0  0  0
  5  6  1  0  0  0
  6  7  1  0  0  0
  7 27  1  0  0  0
 27 29  1  0  0  0
 29 30  1  0  0  0
 29 31  1  0  0  0
 29 32  1  0  0  0
 32 33  1  0  0  0
  7  8  2  0  0  0
  8  9  1  0  0  0
  9 10  1  0  0  0
 17 18  2  0  0  0
 18 19  1  0  0  0
 19 20  2  0  0  0
 20 21  1  0  0  0
 20 15  1  0  0  0
 10  1  1  0  0  0
 10  6  2  0  0  0
 27 28  1  0  0  0
 33 34  1  0  0  0
  9 11  1  0  0  0
 21 22  1  0  0  0
M  END
> <minimizedAffinity>
-7.63181

> <minimizedRMSD>
0.43947

$$$$
P9623


 35 38  0  0  0  0  0  0  0  0999 V2000
   -5.4293    4.9314  -18.3622 C   0  0  0  0  0  0  0  0  0  0  0  0
   -4.4872    4.7336  -17.3908 N   0  0  0  0  0  0  0  0  0  0  0  0
   -4.9959    4.5791  -16.1699 N   0  0  0  0  0  0  0  0  0  0  0  0
   -6.3277    4.5412  -16.3390 C   0  0  0  0  0  0  0  0  0  0  0  0
   -7.3841    4.5141  -15.4028 C   0  0  0  0  0  0  0  0  0  0  0  0
   -8.6720    4.3642  -15.9664 C   0  0  0  0  0  0  0  0  0  0  0  0
   -8.8939    4.3414  -17.3707 C   0  0  0  0  0  0  0  0  0  0  0  0
  -10.5301    4.2051  -17.9108 Cl  0  0  0  0  0  0  0  0  0  0  0  0
   -7.8769    4.4989  -18.3333 C   0  0  0  0  0  0  0  0  0  0  0  0
   -6.6130    4.5818  -17.7609 C   0  0  0  0  0  0  0  0  0  0  0  0
   -3.5208    4.7078  -17.5771 H   0  0  0  0  0  0  0  0  0  0  0  0
   -3.3260    4.3571  -20.9784 C   0  0  0  0  0  0  0  0  0  0  0  0
   -4.3823    5.4418  -20.8917 C   0  0  0  0  0  0  0  0  0  0  0  0
   -5.1177    5.8148  -19.5922 C   0  0  0  0  0  0  0  0  0  0  0  0
   -3.9542    6.8177  -19.3918 C   0  0  0  0  0  0  0  0  0  0  0  0
   -3.7032    6.7797  -20.8516 N   0  0  0  0  0  0  0  0  0  0  0  0
   -4.4824    7.8022  -21.5277 C   0  0  0  0  0  0  0  0  0  0  0  0
   -3.6465    8.4539  -22.4605 O   0  0  0  0  0  0  0  0  0  0  0  0
   -2.8938    8.8529  -21.9966 H   0  0  0  0  0  0  0  0  0  0  0  0
   -7.1466    4.8528  -13.9865 C   0  0  0  0  0  0  0  0  0  0  0  0
   -6.1082    4.4767  -13.4481 O   0  0  0  0  0  0  0  0  0  0  0  0
   -8.1314    5.7691  -13.3065 C   0  0  0  0  0  0  0  0  0  0  0  0
   -8.1372    5.6981  -11.7999 C   0  0  0  0  0  0  0  0  0  0  0  0
   -7.9725    6.8327  -10.9937 C   0  0  0  0  0  0  0  0  0  0  0  0
   -8.0120    6.7206   -9.6046 C   0  0  0  0  0  0  0  0  0  0  0  0
   -7.7621    8.2787   -8.5535 Br  0  0  0  0  0  0  0  0  0  0  0  0
   -8.2570    5.4839   -9.0048 C   0  0  0  0  0  0  0  0  0  0  0  0
   -8.3370    5.3650   -7.6424 O   0  0  0  0  0  0  0  0  0  0  0  0
   -8.4668    4.3498   -9.7919 C   0  0  0  0  0  0  0  0  0  0  0  0
   -8.3870    4.4677  -11.1874 C   0  0  0  0  0  0  0  0  0  0  0  0
   -8.1993    6.1149   -7.0978 H   0  0  0  0  0  0  0  0  0  0  0  0
   -8.7935    3.0040   -9.1989 C   0  0  0  0  0  0  0  0  0  0  0  0
   -7.7645    2.4959   -8.2911 N   0  0  0  0  0  0  0  0  0  0  0  0
   -6.8566    1.5742   -8.9729 C   0  0  0  0  0  0  0  0  0  0  0  0
   -8.4228    1.8229   -7.1737 C   0  0  0  0  0  0  0  0  0  0  0  0
 13 12  1  0  0  0
 13 14  1  0  0  0
 14  1  1  0  0  0
  1  2  1  0  0  0
  2  3  1  0  0  0
  3  4  2  0  0  0
  4  5  1  0  0  0
  5 20  1  0  0  0
 20 21  2  0  0  0
 20 22  1  0  0  0
 22 23  1  0  0  0
 23 24  2  0  0  0
 24 25  1  0  0  0
 25 26  1  0  0  0
 25 27  2  0  0  0
 27 28  1  0  0  0
 27 29  1  0  0  0
 29 32  1  0  0  0
 32 33  1  0  0  0
 33 34  1  0  0  0
 33 35  1  0  0  0
 29 30  2  0  0  0
  5  6  2  0  0  0
  6  7  1  0  0  0
  7  8  1  0  0  0
  7  9  2  0  0  0
  9 10  1  0  0  0
 14 15  1  0  0  0
 15 16  1  0  0  0
 16 17  1  0  0  0
 17 18  1  0  0  0
 16 13  1  0  0  0
 10  1  2  0  0  0
 10  4  1  0  0  0
 30 23  1  0  0  0
  2 11  1  0  0  0
 28 31  1  0  0  0
 18 19  1  0  0  0
M  END
> <minimizedAffinity>
-7.62571

> <minimizedRMSD>
0.76418

$$$$
P9629


 34 37  0  0  0  0  0  0  0  0999 V2000
   -5.3111    4.9464  -18.3368 C   0  0  0  0  0  0  0  0  0  0  0  0
   -4.4277    5.1509  -17.3229 N   0  0  0  0  0  0  0  0  0  0  0  0
   -4.9525    5.0120  -16.0970 N   0  0  0  0  0  0  0  0  0  0  0  0
   -6.2470    4.7037  -16.2899 C   0  0  0  0  0  0  0  0  0  0  0  0
   -7.3121    4.5099  -15.3834 C   0  0  0  0  0  0  0  0  0  0  0  0
   -8.5775    4.3464  -16.0024 C   0  0  0  0  0  0  0  0  0  0  0  0
   -8.7608    4.3517  -17.4139 C   0  0  0  0  0  0  0  0  0  0  0  0
  -10.3731    4.3078  -18.0245 Cl  0  0  0  0  0  0  0  0  0  0  0  0
   -7.7178    4.4689  -18.3418 C   0  0  0  0  0  0  0  0  0  0  0  0
   -6.4952    4.6615  -17.7163 C   0  0  0  0  0  0  0  0  0  0  0  0
   -3.4830    5.3813  -17.4762 H   0  0  0  0  0  0  0  0  0  0  0  0
   -3.6194    3.9554  -21.6738 C   0  0  0  0  0  0  0  0  0  0  0  0
   -3.6196    4.7346  -20.3738 C   0  0  0  0  0  0  0  0  0  0  0  0
   -5.0159    5.1625  -19.8516 C   0  0  0  0  0  0  0  0  0  0  0  0
   -4.5797    6.6073  -20.1807 C   0  0  0  0  0  0  0  0  0  0  0  0
   -3.2746    6.1417  -20.6400 N   0  0  0  0  0  0  0  0  0  0  0  0
   -2.1774    6.6054  -19.8126 C   0  0  0  0  0  0  0  0  0  0  0  0
   -1.6560    5.6234  -18.9305 O   0  0  0  0  0  0  0  0  0  0  0  0
   -2.3462    5.3506  -18.3059 H   0  0  0  0  0  0  0  0  0  0  0  0
   -7.1182    4.5948  -13.9211 C   0  0  0  0  0  0  0  0  0  0  0  0
   -6.2344    3.9517  -13.3624 O   0  0  0  0  0  0  0  0  0  0  0  0
   -8.0086    5.5630  -13.1762 C   0  0  0  0  0  0  0  0  0  0  0  0
   -7.8583    5.4884  -11.6805 C   0  0  0  0  0  0  0  0  0  0  0  0
   -7.1867    6.4844  -10.9607 C   0  0  0  0  0  0  0  0  0  0  0  0
   -7.0495    6.3776   -9.5768 C   0  0  0  0  0  0  0  0  0  0  0  0
   -7.5913    5.2816   -8.9177 C   0  0  0  0  0  0  0  0  0  0  0  0
   -7.3796    5.1697   -7.5707 O   0  0  0  0  0  0  0  0  0  0  0  0
   -8.2983    4.2946   -9.6112 C   0  0  0  0  0  0  0  0  0  0  0  0
   -8.3891    4.3870  -11.0010 C   0  0  0  0  0  0  0  0  0  0  0  0
   -6.9047    5.8359   -7.1141 H   0  0  0  0  0  0  0  0  0  0  0  0
   -8.9778    3.1533   -8.9016 C   0  0  0  0  0  0  0  0  0  0  0  0
   -8.0634    2.4817   -7.9680 N   0  0  0  0  0  0  0  0  0  0  0  0
   -7.2074    1.5583   -8.7262 C   0  0  0  0  0  0  0  0  0  0  0  0
   -8.8521    1.7385   -6.9845 C   0  0  0  0  0  0  0  0  0  0  0  0
 13 12  1  0  0  0
 13 14  1  0  0  0
 14  1  1  0  0  0
  1  2  1  0  0  0
  2  3  1  0  0  0
  3  4  2  0  0  0
  4  5  1  0  0  0
  5 20  1  0  0  0
 20 21  2  0  0  0
 20 22  1  0  0  0
 22 23  1  0  0  0
 23 24  2  0  0  0
 24 25  1  0  0  0
 25 26  2  0  0  0
 26 27  1  0  0  0
 26 28  1  0  0  0
 28 31  1  0  0  0
 31 32  1  0  0  0
 32 33  1  0  0  0
 32 34  1  0  0  0
 28 29  2  0  0  0
  5  6  2  0  0  0
  6  7  1  0  0  0
  7  8  1  0  0  0
  7  9  2  0  0  0
  9 10  1  0  0  0
 14 15  1  0  0  0
 15 16  1  0  0  0
 16 17  1  0  0  0
 17 18  1  0  0  0
 16 13  1  0  0  0
 10  1  2  0  0  0
 10  4  1  0  0  0
 29 23  1  0  0  0
  2 11  1  0  0  0
 27 30  1  0  0  0
 18 19  1  0  0  0
M  END
> <minimizedAffinity>
-7.39216

> <minimizedRMSD>
0.75016

$$$$
P9634


 33 36  0  0  0  0  0  0  0  0999 V2000
   -7.0046    4.8233  -15.4918 C   0  0  0  0  0  0  0  0  0  0  0  0
   -8.1784    4.4926  -16.1871 C   0  0  0  0  0  0  0  0  0  0  0  0
   -8.1599    4.3612  -17.5671 C   0  0  0  0  0  0  0  0  0  0  0  0
   -9.6411    4.1007  -18.4020 Cl  0  0  0  0  0  0  0  0  0  0  0  0
   -6.9751    4.4858  -18.2919 C   0  0  0  0  0  0  0  0  0  0  0  0
   -5.8010    4.8397  -17.6057 C   0  0  0  0  0  0  0  0  0  0  0  0
   -5.8081    5.0343  -16.2219 C   0  0  0  0  0  0  0  0  0  0  0  0
   -4.4861    5.4463  -15.9247 C   0  0  0  0  0  0  0  0  0  0  0  0
   -3.7024    5.5190  -17.0029 N   0  0  0  0  0  0  0  0  0  0  0  0
   -4.4886    5.0508  -17.9966 N   0  0  0  0  0  0  0  0  0  0  0  0
   -3.8536    4.5914  -19.2425 C   0  0  0  0  0  0  0  0  0  0  0  0
   -4.6051    4.9378  -20.5245 C   0  0  0  0  0  0  0  0  0  0  0  0
   -3.2891    5.0619  -21.1956 N   0  0  0  0  0  0  0  0  0  0  0  0
   -3.3258    6.0832  -22.2316 C   0  0  0  0  0  0  0  0  0  0  0  0
   -2.7463    5.5246  -19.8585 C   0  0  0  0  0  0  0  0  0  0  0  0
   -2.7747    7.0395  -19.6044 C   0  0  0  0  0  0  0  0  0  0  0  0
   -1.8721    7.3903  -18.5639 O   0  0  0  0  0  0  0  0  0  0  0  0
   -2.1299    6.9373  -17.7459 H   0  0  0  0  0  0  0  0  0  0  0  0
   -7.0005    5.0066  -14.0159 C   0  0  0  0  0  0  0  0  0  0  0  0
   -6.0207    4.6378  -13.3712 O   0  0  0  0  0  0  0  0  0  0  0  0
   -8.1754    5.7231  -13.3872 C   0  0  0  0  0  0  0  0  0  0  0  0
   -8.4714    4.2220   -9.9150 C   0  0  0  0  0  0  0  0  0  0  0  0
   -8.3928    4.3584  -11.3018 C   0  0  0  0  0  0  0  0  0  0  0  0
   -8.2136    5.6163  -11.8865 C   0  0  0  0  0  0  0  0  0  0  0  0
   -8.0756    6.7439  -11.0663 C   0  0  0  0  0  0  0  0  0  0  0  0
   -8.1044    6.6107   -9.6781 C   0  0  0  0  0  0  0  0  0  0  0  0
   -8.2823    5.3538   -9.1157 C   0  0  0  0  0  0  0  0  0  0  0  0
   -8.2302    5.2415   -7.7533 O   0  0  0  0  0  0  0  0  0  0  0  0
   -8.1031    6.0047   -7.2249 H   0  0  0  0  0  0  0  0  0  0  0  0
   -8.7829    2.8739   -9.3209 C   0  0  0  0  0  0  0  0  0  0  0  0
   -6.8121    1.5668   -8.9912 C   0  0  0  0  0  0  0  0  0  0  0  0
   -7.7625    2.4785   -8.3410 N   0  0  0  0  0  0  0  0  0  0  0  0
   -8.4158    1.8076   -7.2170 C   0  0  0  0  0  0  0  0  0  0  0  0
 31 32  1  0  0  0
 32 33  1  0  0  0
 32 30  1  0  0  0
 30 22  1  0  0  0
 22 23  2  0  0  0
 23 24  1  0  0  0
 24 21  1  0  0  0
 21 19  1  0  0  0
 19 20  2  0  0  0
 19  1  1  0  0  0
  1  2  2  0  0  0
  2  3  1  0  0  0
  3  4  1  0  0  0
  3  5  2  0  0  0
  5  6  1  0  0  0
  6  7  2  0  0  0
  7  8  1  0  0  0
  8  9  2  0  0  0
  9 10  1  0  0  0
 11 10  1  0  0  0
 11 12  1  0  0  0
 12 13  1  0  0  0
 13 14  1  0  0  0
 13 15  1  0  0  0
 15 16  1  0  0  0
 16 17  1  0  0  0
 24 25  2  0  0  0
 25 26  1  0  0  0
 26 27  2  0  0  0
 27 28  1  0  0  0
 27 22  1  0  0  0
  7  1  1  0  0  0
 15 11  1  0  0  0
 10  6  1  0  0  0
 17 18  1  0  0  0
 28 29  1  0  0  0
M  END
> <minimizedAffinity>
-7.22108

> <minimizedRMSD>
0.60970

$$$$
P9658


 35 38  0  0  0  0  0  0  0  0999 V2000
   -7.5480    4.5575  -15.3670 C   0  0  0  0  0  0  0  0  0  0  0  0
   -8.7861    4.3919  -16.0051 C   0  0  0  0  0  0  0  0  0  0  0  0
   -8.8638    4.3586  -17.3936 C   0  0  0  0  0  0  0  0  0  0  0  0
  -10.4116    4.1877  -18.1245 Cl  0  0  0  0  0  0  0  0  0  0  0  0
   -7.7278    4.4930  -18.1949 C   0  0  0  0  0  0  0  0  0  0  0  0
   -6.4885    4.6257  -17.5528 C   0  0  0  0  0  0  0  0  0  0  0  0
   -6.3815    4.6391  -16.1602 C   0  0  0  0  0  0  0  0  0  0  0  0
   -4.9947    4.7594  -15.9181 C   0  0  0  0  0  0  0  0  0  0  0  0
   -4.2782    4.8374  -17.0360 N   0  0  0  0  0  0  0  0  0  0  0  0
   -5.1962    4.7663  -18.0205 N   0  0  0  0  0  0  0  0  0  0  0  0
   -4.8277    5.0142  -19.4300 C   0  0  0  0  0  0  0  0  0  0  0  0
   -3.4034    4.5528  -19.8240 C   0  0  0  0  0  0  0  0  0  0  0  0
   -3.1986    5.8699  -20.4863 N   0  0  0  0  0  0  0  0  0  0  0  0
   -1.8747    6.3820  -20.1215 C   0  0  0  0  0  0  0  0  0  0  0  0
   -4.2425    6.4369  -19.5905 C   0  0  0  0  0  0  0  0  0  0  0  0
   -5.1385    7.4313  -20.2938 C   0  0  0  0  0  0  0  0  0  0  0  0
   -4.4840    8.6951  -20.3295 O   0  0  0  0  0  0  0  0  0  0  0  0
   -4.3050    8.9923  -19.4237 H   0  0  0  0  0  0  0  0  0  0  0  0
   -7.4303    4.7143  -13.8922 C   0  0  0  0  0  0  0  0  0  0  0  0
   -6.6974    3.9562  -13.2610 O   0  0  0  0  0  0  0  0  0  0  0  0
   -8.1310    5.8814  -13.2372 C   0  0  0  0  0  0  0  0  0  0  0  0
   -8.4769    4.3493   -9.7821 C   0  0  0  0  0  0  0  0  0  0  0  0
   -8.4005    4.5027  -11.1673 C   0  0  0  0  0  0  0  0  0  0  0  0
   -8.1921    5.7605  -11.7370 C   0  0  0  0  0  0  0  0  0  0  0  0
   -8.0116    6.8718  -10.9011 C   0  0  0  0  0  0  0  0  0  0  0  0
   -8.0268    6.7255   -9.5070 C   0  0  0  0  0  0  0  0  0  0  0  0
   -8.2495    5.4621   -8.9587 C   0  0  0  0  0  0  0  0  0  0  0  0
   -8.2067    5.2892   -7.5988 O   0  0  0  0  0  0  0  0  0  0  0  0
   -8.0556    6.0241   -7.0376 H   0  0  0  0  0  0  0  0  0  0  0  0
   -7.7773    7.8701   -8.6796 C   0  0  0  0  0  0  0  0  0  0  0  0
   -7.5563    8.8320   -8.0657 N   0  0  0  0  0  0  0  0  0  0  0  0
   -8.8129    2.9934   -9.2138 C   0  0  0  0  0  0  0  0  0  0  0  0
   -6.8423    1.6618   -8.9836 C   0  0  0  0  0  0  0  0  0  0  0  0
   -7.7765    2.5512   -8.2741 N   0  0  0  0  0  0  0  0  0  0  0  0
   -8.4137    1.8244   -7.1731 C   0  0  0  0  0  0  0  0  0  0  0  0
 33 34  1  0  0  0
 34 35  1  0  0  0
 34 32  1  0  0  0
 32 22  1  0  0  0
 22 23  2  0  0  0
 23 24  1  0  0  0
 24 21  1  0  0  0
 21 19  1  0  0  0
 19 20  2  0  0  0
 19  1  1  0  0  0
  1  2  2  0  0  0
  2  3  1  0  0  0
  3  4  1  0  0  0
  3  5  2  0  0  0
  5  6  1  0  0  0
  6  7  2  0  0  0
  7  8  1  0  0  0
  8  9  2  0  0  0
  9 10  1  0  0  0
 11 10  1  0  0  0
 11 12  1  0  0  0
 12 13  1  0  0  0
 13 14  1  0  0  0
 13 15  1  0  0  0
 15 16  1  0  0  0
 16 17  1  0  0  0
 24 25  2  0  0  0
 25 26  1  0  0  0
 26 30  1  0  0  0
 30 31  3  0  0  0
 26 27  2  0  0  0
 27 28  1  0  0  0
 27 22  1  0  0  0
  7  1  1  0  0  0
 15 11  1  0  0  0
 10  6  1  0  0  0
 17 18  1  0  0  0
 28 29  1  0  0  0
M  END
> <minimizedAffinity>
-7.47346

> <minimizedRMSD>
0.49932

$$$$
P9674


 34 37  0  0  0  0  0  0  0  0999 V2000
   -7.4991    4.3358  -15.4027 C   0  0  0  0  0  0  0  0  0  0  0  0
   -8.6445    4.1814  -16.1905 C   0  0  0  0  0  0  0  0  0  0  0  0
   -8.5577    4.3280  -17.5730 C   0  0  0  0  0  0  0  0  0  0  0  0
  -10.0129    4.2224  -18.4920 Cl  0  0  0  0  0  0  0  0  0  0  0  0
   -7.3468    4.6490  -18.2080 C   0  0  0  0  0  0  0  0  0  0  0  0
   -6.1949    4.7605  -17.4131 C   0  0  0  0  0  0  0  0  0  0  0  0
   -6.2576    4.5416  -16.0345 C   0  0  0  0  0  0  0  0  0  0  0  0
   -4.9214    4.6014  -15.5960 C   0  0  0  0  0  0  0  0  0  0  0  0
   -4.0736    4.8640  -16.5791 N   0  0  0  0  0  0  0  0  0  0  0  0
   -4.8716    5.1044  -17.6479 N   0  0  0  0  0  0  0  0  0  0  0  0
   -4.3557    6.1192  -18.5832 C   0  0  0  0  0  0  0  0  0  0  0  0
   -5.0023    6.3829  -19.9309 C   0  0  0  0  0  0  0  0  0  0  0  0
   -3.6569    6.4169  -20.5641 N   0  0  0  0  0  0  0  0  0  0  0  0
   -3.1220    5.6124  -19.4170 C   0  0  0  0  0  0  0  0  0  0  0  0
   -1.7547    6.0072  -18.8511 C   0  0  0  0  0  0  0  0  0  0  0  0
   -3.0798    4.1493  -19.8825 C   0  0  0  0  0  0  0  0  0  0  0  0
   -3.1152    7.7560  -20.7172 C   0  0  0  0  0  0  0  0  0  0  0  0
   -2.3806    7.9752  -21.9083 O   0  0  0  0  0  0  0  0  0  0  0  0
   -1.6009    7.3983  -21.9181 H   0  0  0  0  0  0  0  0  0  0  0  0
   -7.5377    4.4130  -13.9208 C   0  0  0  0  0  0  0  0  0  0  0  0
   -6.9661    3.5342  -13.2769 O   0  0  0  0  0  0  0  0  0  0  0  0
   -8.1921    5.6041  -13.2782 C   0  0  0  0  0  0  0  0  0  0  0  0
   -8.4979    4.3425   -9.7004 C   0  0  0  0  0  0  0  0  0  0  0  0
   -8.4024    4.3858  -11.0987 C   0  0  0  0  0  0  0  0  0  0  0  0
   -8.1760    5.5907  -11.7697 C   0  0  0  0  0  0  0  0  0  0  0  0
   -8.0235    6.7637  -11.0180 C   0  0  0  0  0  0  0  0  0  0  0  0
   -8.0645    6.7266   -9.6250 C   0  0  0  0  0  0  0  0  0  0  0  0
   -8.3028    5.5193   -8.9751 C   0  0  0  0  0  0  0  0  0  0  0  0
   -8.3961    5.4887   -7.6124 O   0  0  0  0  0  0  0  0  0  0  0  0
   -8.2669    6.2730   -7.1162 H   0  0  0  0  0  0  0  0  0  0  0  0
   -8.8554    3.0397   -9.0332 C   0  0  0  0  0  0  0  0  0  0  0  0
   -8.4694    1.9065   -6.9834 C   0  0  0  0  0  0  0  0  0  0  0  0
   -7.8186    2.5293   -8.1337 N   0  0  0  0  0  0  0  0  0  0  0  0
   -6.9495    1.5737   -8.8127 C   0  0  0  0  0  0  0  0  0  0  0  0
 32 33  1  0  0  0
 33 34  1  0  0  0
 33 31  1  0  0  0
 31 23  1  0  0  0
 23 24  2  0  0  0
 24 25  1  0  0  0
 25 22  1  0  0  0
 22 20  1  0  0  0
 20 21  2  0  0  0
 20  1  1  0  0  0
  1  2  2  0  0  0
  2  3  1  0  0  0
  3  4  1  0  0  0
  3  5  2  0  0  0
  5  6  1  0  0  0
  6  7  2  0  0  0
  7  8  1  0  0  0
  8  9  2  0  0  0
  9 10  1  0  0  0
 11 10  1  0  0  0
 11 12  1  0  0  0
 12 13  1  0  0  0
 13 17  1  0  0  0
 17 18  1  0  0  0
 13 14  1  0  0  0
 14 15  1  0  0  0
 14 16  1  0  0  0
 25 26  2  0  0  0
 26 27  1  0  0  0
 27 28  2  0  0  0
 28 29  1  0  0  0
 28 23  1  0  0  0
  7  1  1  0  0  0
 14 11  1  0  0  0
 10  6  1  0  0  0
 18 19  1  0  0  0
 29 30  1  0  0  0
M  END
> <minimizedAffinity>
-7.47730

> <minimizedRMSD>
0.75015

$$$$
P9707


 46 52  0  0  0  0  0  0  0  0999 V2000
   -6.1507    5.4030  -13.9087 N   0  0  0  0  0  0  0  0  0  0  0  0
   -7.1104    4.7127  -14.1815 C   0  0  0  0  0  0  0  0  0  0  0  0
   -7.3878    4.5472  -15.6856 C   0  0  0  0  0  0  0  0  0  0  0  0
   -8.6353    4.0447  -16.0905 C   0  0  0  0  0  0  0  0  0  0  0  0
   -8.9359    3.8837  -17.4386 C   0  0  0  0  0  0  0  0  0  0  0  0
   -8.0076    4.2647  -18.3975 C   0  0  0  0  0  0  0  0  0  0  0  0
   -6.7839    4.8076  -18.0477 C   0  0  0  0  0  0  0  0  0  0  0  0
   -5.9777    5.1865  -19.0497 N   0  0  0  0  0  0  0  0  0  0  0  0
   -4.7764    5.7127  -18.7628 C   0  0  0  0  0  0  0  0  0  0  0  0
   -4.3069    5.8703  -17.4860 C   0  0  0  0  0  0  0  0  0  0  0  0
   -5.1415    5.4730  -16.4521 C   0  0  0  0  0  0  0  0  0  0  0  0
   -6.4393    4.9466  -16.6852 C   0  0  0  0  0  0  0  0  0  0  0  0
   -8.1938    4.0338  -13.2389 N   0  0  0  0  0  0  0  0  0  0  0  0
   -8.9772    3.6676  -13.7094 H   0  0  0  0  0  0  0  0  0  0  0  0
   -8.2158    3.8781  -11.9092 C   0  0  0  0  0  0  0  0  0  0  0  0
   -8.3496    2.6605  -11.2056 C   0  0  0  0  0  0  0  0  0  0  0  0
   -8.3249    2.8420   -9.8817 N   0  0  0  0  0  0  0  0  0  0  0  0
   -8.2364    4.1723   -9.7542 N   0  0  0  0  0  0  0  0  0  0  0  0
   -8.2490    4.8572  -10.9392 C   0  0  0  0  0  0  0  0  0  0  0  0
   -8.3070    6.3431  -10.9410 C   0  0  0  0  0  0  0  0  0  0  0  0
   -7.6588    6.9036   -9.7456 N   0  0  0  0  0  0  0  0  0  0  0  0
   -8.2387    6.2971   -8.5325 C   0  0  0  0  0  0  0  0  0  0  0  0
   -8.0183    4.7825   -8.4589 C   0  0  0  0  0  0  0  0  0  0  0  0
   -7.8050    7.9128   -9.7228 H   0  0  0  0  0  0  0  0  0  0  0  0
   -5.4814    5.5517  -12.6375 C   0  0  0  0  0  0  0  0  0  0  0  0
   -0.3583    3.1397  -12.6211 O   0  0  0  0  0  0  0  0  0  0  0  0
   -1.6219    3.6564  -12.5894 C   0  0  0  0  0  0  0  0  0  0  0  0
   -1.7652    4.9167  -13.1708 C   0  0  0  0  0  0  0  0  0  0  0  0
   -3.0109    5.5380  -13.2003 C   0  0  0  0  0  0  0  0  0  0  0  0
   -4.1193    4.8996  -12.6405 C   0  0  0  0  0  0  0  0  0  0  0  0
   -3.9647    3.6257  -12.0689 C   0  0  0  0  0  0  0  0  0  0  0  0
   -2.7136    2.9904  -12.0168 C   0  0  0  0  0  0  0  0  0  0  0  0
    0.3374    3.6270  -13.0168 H   0  0  0  0  0  0  0  0  0  0  0  0
   -2.6134    1.6634  -11.2985 C   0  0  0  0  0  0  0  0  0  0  0  0
   -2.2866    0.5957  -12.2324 N   0  0  0  0  0  0  0  0  0  0  0  0
   -2.9692    0.2540  -12.8542 H   0  0  0  0  0  0  0  0  0  0  0  0
   -1.0484    0.0813  -12.2391 C   0  0  0  0  0  0  0  0  0  0  0  0
   -0.1678    0.2387  -13.1940 N   0  0  0  0  0  0  0  0  0  0  0  0
    0.9867   -0.3334  -12.7095 C   0  0  0  0  0  0  0  0  0  0  0  0
    2.2565   -0.4299  -13.2956 C   0  0  0  0  0  0  0  0  0  0  0  0
    3.2823   -1.0575  -12.5779 C   0  0  0  0  0  0  0  0  0  0  0  0
    3.0509   -1.5705  -11.2996 C   0  0  0  0  0  0  0  0  0  0  0  0
    1.7892   -1.4860  -10.7003 C   0  0  0  0  0  0  0  0  0  0  0  0
    0.7798   -0.8749  -11.4448 C   0  0  0  0  0  0  0  0  0  0  0  0
   -0.5566   -0.6722  -11.2073 N   0  0  0  0  0  0  0  0  0  0  0  0
   -1.0681   -1.0074  -10.4358 H   0  0  0  0  0  0  0  0  0  0  0  0
 26 27  1  0  0  0
 27 28  2  0  0  0
 28 29  1  0  0  0
 29 30  2  0  0  0
 30 25  1  0  0  0
 25  1  1  0  0  0
  1  2  2  0  0  0
  2 13  1  0  0  0
 13 15  1  0  0  0
 15 16  1  0  0  0
 16 17  2  0  0  0
 17 18  1  0  0  0
 18 19  1  0  0  0
 19 20  1  0  0  0
 20 21  1  0  0  0
 21 22  1  0  0  0
 22 23  1  0  0  0
  2  3  1  0  0  0
  3  4  2  0  0  0
  4  5  1  0  0  0
  5  6  2  0  0  0
  6  7  1  0  0  0
  7  8  2  0  0  0
  8  9  1  0  0  0
  9 10  2  0  0  0
 10 11  1  0  0  0
 11 12  2  0  0  0
 30 31  1  0  0  0
 31 32  2  0  0  0
 32 34  1  0  0  0
 34 35  1  0  0  0
 35 37  1  0  0  0
 37 38  2  0  0  0
 38 39  1  0  0  0
 39 40  2  0  0  0
 40 41  1  0  0  0
 41 42  2  0  0  0
 42 43  1  0  0  0
 43 44  2  0  0  0
 44 45  1  0  0  0
 32 27  1  0  0  0
 45 37  1  0  0  0
 19 15  2  0  0  0
 12  3  1  0  0  0
 44 39  1  0  0  0
 23 18  1  0  0  0
 12  7  1  0  0  0
 26 33  1  0  0  0
 13 14  1  0  0  0
 21 24  1  0  0  0
 35 36  1  0  0  0
 45 46  1  0  0  0
M  END
> <minimizedAffinity>
-8.97658

> <minimizedRMSD>
0.54363

$$$$
P9712


 30 33  0  0  0  0  0  0  0  0999 V2000
   -8.0796    5.0998  -14.1793 C   0  0  0  0  0  0  0  0  0  0  0  0
   -7.6246    6.4004  -13.9652 O   0  0  0  0  0  0  0  0  0  0  0  0
   -9.4742    5.0924  -13.9609 O   0  0  0  0  0  0  0  0  0  0  0  0
   -6.7147    6.6008  -14.0648 H   0  0  0  0  0  0  0  0  0  0  0  0
   -9.9596    4.2970  -14.0591 H   0  0  0  0  0  0  0  0  0  0  0  0
   -4.4064    5.6302  -17.9492 C   0  0  0  0  0  0  0  0  0  0  0  0
   -4.3194    5.8600  -16.5968 C   0  0  0  0  0  0  0  0  0  0  0  0
   -5.4058    5.5128  -15.7995 C   0  0  0  0  0  0  0  0  0  0  0  0
   -6.5981    4.9626  -16.3347 C   0  0  0  0  0  0  0  0  0  0  0  0
   -7.8021    4.6633  -15.6031 C   0  0  0  0  0  0  0  0  0  0  0  0
   -8.8470    3.9942  -16.2614 C   0  0  0  0  0  0  0  0  0  0  0  0
   -8.7696    3.6997  -17.6025 C   0  0  0  0  0  0  0  0  0  0  0  0
   -7.6346    4.0719  -18.3178 C   0  0  0  0  0  0  0  0  0  0  0  0
   -7.5919    3.7065  -19.7603 C   0  0  0  0  0  0  0  0  0  0  0  0
   -6.5480    4.7023  -17.7175 C   0  0  0  0  0  0  0  0  0  0  0  0
   -5.4859    5.0379  -18.4878 N   0  0  0  0  0  0  0  0  0  0  0  0
   -2.5812    4.8821  -19.5312 C   0  0  0  0  0  0  0  0  0  0  0  0
   -3.3099    6.0516  -18.8884 C   0  0  0  0  0  0  0  0  0  0  0  0
   -7.5371    4.2228  -13.1915 N   0  0  0  0  0  0  0  0  0  0  0  0
   -6.7216    3.7333  -13.4457 H   0  0  0  0  0  0  0  0  0  0  0  0
   -8.0147    3.9847  -11.9416 C   0  0  0  0  0  0  0  0  0  0  0  0
   -8.5575    2.7558  -11.4920 C   0  0  0  0  0  0  0  0  0  0  0  0
   -8.8143    2.7695  -10.1811 N   0  0  0  0  0  0  0  0  0  0  0  0
   -8.4068    3.9878   -9.8008 N   0  0  0  0  0  0  0  0  0  0  0  0
   -8.0749    4.8180  -10.8392 C   0  0  0  0  0  0  0  0  0  0  0  0
   -7.8134    6.2435  -10.5043 C   0  0  0  0  0  0  0  0  0  0  0  0
   -6.9086    6.3046   -9.3574 N   0  0  0  0  0  0  0  0  0  0  0  0
   -7.5973    5.7165   -8.1961 C   0  0  0  0  0  0  0  0  0  0  0  0
   -8.1163    4.2776   -8.4077 C   0  0  0  0  0  0  0  0  0  0  0  0
   -6.6665    7.2756   -9.1600 H   0  0  0  0  0  0  0  0  0  0  0  0
 17 18  1  0  0  0
 18  6  1  0  0  0
  6  7  2  0  0  0
  7  8  1  0  0  0
  8  9  2  0  0  0
  9 10  1  0  0  0
 10  1  1  0  0  0
  1  2  1  0  0  0
  1  3  1  0  0  0
  1 19  1  0  0  0
 19 21  1  0  0  0
 21 22  1  0  0  0
 22 23  2  0  0  0
 23 24  1  0  0  0
 24 25  1  0  0  0
 25 26  1  0  0  0
 26 27  1  0  0  0
 27 28  1  0  0  0
 28 29  1  0  0  0
 10 11  2  0  0  0
 11 12  1  0  0  0
 12 13  2  0  0  0
 13 14  1  0  0  0
 13 15  1  0  0  0
 15 16  2  0  0  0
 16  6  1  0  0  0
 15  9  1  0  0  0
 25 21  2  0  0  0
 29 24  1  0  0  0
  2  4  1  0  0  0
  3  5  1  0  0  0
 19 20  1  0  0  0
 27 30  1  0  0  0
M  END
> <minimizedAffinity>
-8.01265

> <minimizedRMSD>
0.89787

$$$$
P9714


 29 32  0  0  0  0  0  0  0  0999 V2000
   -6.1225    5.3080  -13.5180 C   0  0  0  0  0  0  0  0  0  0  0  0
   -6.6284    4.9822  -14.9825 C   0  0  0  0  0  0  0  0  0  0  0  0
   -7.9483    4.4801  -15.0491 C   0  0  0  0  0  0  0  0  0  0  0  0
   -8.5646    4.1471  -16.2500 C   0  0  0  0  0  0  0  0  0  0  0  0
   -7.8850    4.3150  -17.4402 C   0  0  0  0  0  0  0  0  0  0  0  0
   -6.6137    4.8389  -17.4645 C   0  0  0  0  0  0  0  0  0  0  0  0
   -6.1012    4.9895  -18.6933 N   0  0  0  0  0  0  0  0  0  0  0  0
   -4.8827    5.5182  -18.8377 C   0  0  0  0  0  0  0  0  0  0  0  0
   -4.1237    5.9182  -17.7770 C   0  0  0  0  0  0  0  0  0  0  0  0
   -4.6640    5.7586  -16.5033 C   0  0  0  0  0  0  0  0  0  0  0  0
   -5.9513    5.2033  -16.2552 C   0  0  0  0  0  0  0  0  0  0  0  0
   -4.0254    5.2042  -11.7899 C   0  0  0  0  0  0  0  0  0  0  0  0
   -4.5874    5.2152  -13.2173 C   0  0  0  0  0  0  0  0  0  0  0  0
   -3.9268    6.3456  -13.8074 O   0  0  0  0  0  0  0  0  0  0  0  0
   -4.0591    3.9965  -13.7238 O   0  0  0  0  0  0  0  0  0  0  0  0
   -4.1771    7.2147  -13.5628 H   0  0  0  0  0  0  0  0  0  0  0  0
   -4.4000    3.1772  -13.4231 H   0  0  0  0  0  0  0  0  0  0  0  0
   -6.8518    4.5096  -12.4248 C   0  0  0  0  0  0  0  0  0  0  0  0
   -6.7526    3.2876  -12.3728 O   0  0  0  0  0  0  0  0  0  0  0  0
   -7.5763    5.1818  -11.3490 C   0  0  0  0  0  0  0  0  0  0  0  0
   -7.7096    4.6412  -10.0382 C   0  0  0  0  0  0  0  0  0  0  0  0
   -8.2300    5.5137   -9.1773 N   0  0  0  0  0  0  0  0  0  0  0  0
   -8.4366    6.5989   -9.9246 N   0  0  0  0  0  0  0  0  0  0  0  0
   -8.1749    6.4356  -11.2627 C   0  0  0  0  0  0  0  0  0  0  0  0
   -8.5107    7.5416  -12.2086 C   0  0  0  0  0  0  0  0  0  0  0  0
   -8.5829    8.8475  -11.5487 N   0  0  0  0  0  0  0  0  0  0  0  0
   -9.4244    8.7845  -10.3461 C   0  0  0  0  0  0  0  0  0  0  0  0
   -8.8143    7.8519   -9.3043 C   0  0  0  0  0  0  0  0  0  0  0  0
   -8.9791    9.5275  -12.1976 H   0  0  0  0  0  0  0  0  0  0  0  0
 12 13  1  0  0  0
 13 14  1  0  0  0
 13 15  1  0  0  0
  1 13  1  0  0  0
  1 18  1  0  0  0
 18 19  2  0  0  0
 18 20  1  0  0  0
 20 21  1  0  0  0
 21 22  2  0  0  0
 22 23  1  0  0  0
 23 24  1  0  0  0
 24 25  1  0  0  0
 25 26  1  0  0  0
 26 27  1  0  0  0
 27 28  1  0  0  0
  1  2  1  0  0  0
  2  3  2  0  0  0
  3  4  1  0  0  0
  4  5  2  0  0  0
  5  6  1  0  0  0
  6  7  2  0  0  0
  7  8  1  0  0  0
  8  9  2  0  0  0
  9 10  1  0  0  0
 10 11  2  0  0  0
 24 20  2  0  0  0
 11  2  1  0  0  0
 28 23  1  0  0  0
 11  6  1  0  0  0
 14 16  1  0  0  0
 15 17  1  0  0  0
 26 29  1  0  0  0
M  END
> <minimizedAffinity>
-6.37284

> <minimizedRMSD>
1.16943

$$$$
P9718


 30 33  0  0  0  0  0  0  0  0999 V2000
   -5.0082    5.6148  -18.4240 C   0  0  0  0  0  0  0  0  0  0  0  0
   -3.8152    5.8779  -17.7477 C   0  0  0  0  0  0  0  0  0  0  0  0
   -3.7691    5.8311  -16.3652 C   0  0  0  0  0  0  0  0  0  0  0  0
   -4.9293    5.5587  -15.6551 C   0  0  0  0  0  0  0  0  0  0  0  0
   -6.1316    5.2071  -16.3054 C   0  0  0  0  0  0  0  0  0  0  0  0
   -7.3259    4.9599  -15.5830 C   0  0  0  0  0  0  0  0  0  0  0  0
   -8.4406    4.3988  -16.2071 C   0  0  0  0  0  0  0  0  0  0  0  0
   -8.4066    4.1585  -17.5770 C   0  0  0  0  0  0  0  0  0  0  0  0
   -7.2962    4.5615  -18.3273 C   0  0  0  0  0  0  0  0  0  0  0  0
   -6.1445    5.1193  -17.7189 C   0  0  0  0  0  0  0  0  0  0  0  0
   -4.6290    7.3756  -20.4313 C   0  0  0  0  0  0  0  0  0  0  0  0
   -4.0253    8.2790  -19.9888 O   0  0  0  0  0  0  0  0  0  0  0  0
   -5.1004    6.0426  -19.7568 N   0  0  0  0  0  0  0  0  0  0  0  0
   -5.5311    5.4013  -20.3671 H   0  0  0  0  0  0  0  0  0  0  0  0
   -4.2013    7.9248  -22.8662 C   0  0  0  0  0  0  0  0  0  0  0  0
   -5.1967    7.3958  -21.8457 C   0  0  0  0  0  0  0  0  0  0  0  0
   -7.4838    5.5948  -14.2379 C   0  0  0  0  0  0  0  0  0  0  0  0
   -7.2916    6.7437  -14.1791 O   0  0  0  0  0  0  0  0  0  0  0  0
   -7.8647    4.5905  -13.1382 N   0  0  0  0  0  0  0  0  0  0  0  0
   -8.0473    3.6778  -13.4590 H   0  0  0  0  0  0  0  0  0  0  0  0
   -7.9912    4.7583  -11.7880 C   0  0  0  0  0  0  0  0  0  0  0  0
   -7.7319    5.9211  -11.0286 C   0  0  0  0  0  0  0  0  0  0  0  0
   -7.9019    5.7330   -9.7145 N   0  0  0  0  0  0  0  0  0  0  0  0
   -8.2520    4.4362   -9.6404 N   0  0  0  0  0  0  0  0  0  0  0  0
   -8.3895    3.8332  -10.8605 C   0  0  0  0  0  0  0  0  0  0  0  0
   -8.8696    2.4496  -10.9380 C   0  0  0  0  0  0  0  0  0  0  0  0
   -9.6931    2.1169   -9.7758 N   0  0  0  0  0  0  0  0  0  0  0  0
   -8.9187    2.3404   -8.5451 C   0  0  0  0  0  0  0  0  0  0  0  0
   -8.5546    3.8120   -8.3643 C   0  0  0  0  0  0  0  0  0  0  0  0
   -9.9742    1.1378   -9.8274 H   0  0  0  0  0  0  0  0  0  0  0  0
 15 16  1  0  0  0
 16 11  1  0  0  0
 11 12  2  0  0  0
 11 13  1  0  0  0
 13  1  1  0  0  0
  1  2  2  0  0  0
  2  3  1  0  0  0
  3  4  2  0  0  0
  4  5  1  0  0  0
  5  6  2  0  0  0
  6 17  1  0  0  0
 17 18  2  0  0  0
 17 19  1  0  0  0
 19 21  1  0  0  0
 21 22  1  0  0  0
 22 23  2  0  0  0
 23 24  1  0  0  0
 24 25  1  0  0  0
 25 26  1  0  0  0
 26 27  1  0  0  0
 27 28  1  0  0  0
 28 29  1  0  0  0
  6  7  1  0  0  0
  7  8  2  0  0  0
  8  9  1  0  0  0
  9 10  2  0  0  0
 10  1  1  0  0  0
 10  5  1  0  0  0
 25 21  2  0  0  0
 29 24  1  0  0  0
 13 14  1  0  0  0
 19 20  1  0  0  0
 27 30  1  0  0  0
M  END
> <minimizedAffinity>
-8.63220

> <minimizedRMSD>
0.45504

$$$$
P9809


 30 33  0  0  0  0  0  0  0  0999 V2000
   -3.3581    5.6259  -13.6866 C   0  0  0  0  0  0  0  0  0  0  0  0
   -3.9902    6.7854  -14.4621 C   0  0  0  0  0  0  0  0  0  0  0  0
   -5.2862    6.3716  -15.1484 C   0  0  0  0  0  0  0  0  0  0  0  0
   -5.0965    5.1216  -16.0543 C   0  0  0  0  0  0  0  0  0  0  0  0
   -4.1306    5.5531  -17.2070 C   0  0  0  0  0  0  0  0  0  0  0  0
   -4.3221    4.6990  -18.4382 C   0  0  0  0  0  0  0  0  0  0  0  0
   -5.6525    4.9579  -18.9395 N   0  0  0  0  0  0  0  0  0  0  0  0
   -6.6863    4.7078  -18.0174 C   0  0  0  0  0  0  0  0  0  0  0  0
   -7.9853    4.5765  -18.5438 C   0  0  0  0  0  0  0  0  0  0  0  0
   -9.0895    4.3707  -17.7311 C   0  0  0  0  0  0  0  0  0  0  0  0
   -8.8945    4.2476  -16.3692 C   0  0  0  0  0  0  0  0  0  0  0  0
   -7.6099    4.3907  -15.8187 C   0  0  0  0  0  0  0  0  0  0  0  0
   -6.4807    4.7109  -16.6175 C   0  0  0  0  0  0  0  0  0  0  0  0
   -4.3756    4.0051  -15.2461 C   0  0  0  0  0  0  0  0  0  0  0  0
   -3.1614    4.4587  -14.5345 N   0  0  0  0  0  0  0  0  0  0  0  0
   -5.8223    5.2833  -19.8530 H   0  0  0  0  0  0  0  0  0  0  0  0
   -2.4510    4.6865  -15.2301 H   0  0  0  0  0  0  0  0  0  0  0  0
   -7.5537    4.0196  -14.3850 C   0  0  0  0  0  0  0  0  0  0  0  0
   -7.2410    2.9318  -14.1082 O   0  0  0  0  0  0  0  0  0  0  0  0
   -8.0324    5.1803  -13.4900 N   0  0  0  0  0  0  0  0  0  0  0  0
   -8.3129    5.9882  -13.9776 H   0  0  0  0  0  0  0  0  0  0  0  0
   -8.1305    5.2698  -12.1310 C   0  0  0  0  0  0  0  0  0  0  0  0
   -8.1656    6.3934  -11.2835 C   0  0  0  0  0  0  0  0  0  0  0  0
   -8.2731    6.0578   -9.9899 N   0  0  0  0  0  0  0  0  0  0  0  0
   -8.3704    4.7061  -10.0313 N   0  0  0  0  0  0  0  0  0  0  0  0
   -8.5806    3.9455   -8.8227 C   0  0  0  0  0  0  0  0  0  0  0  0
   -8.2398    4.1958  -11.2868 C   0  0  0  0  0  0  0  0  0  0  0  0
   -4.4340    6.1876  -11.5728 C   0  0  0  0  0  0  0  0  0  0  0  0
   -4.0816    5.1524  -12.5284 N   0  0  0  0  0  0  0  0  0  0  0  0
   -4.9423    4.7093  -12.8498 H   0  0  0  0  0  0  0  0  0  0  0  0
 28 29  1  0  0  0
  1 29  1  0  0  0
  1  2  1  0  0  0
  2  3  1  0  0  0
  4  3  1  0  0  0
  4  5  1  0  0  0
  5  6  1  0  0  0
  6  7  1  0  0  0
  7  8  1  0  0  0
  8  9  2  0  0  0
  9 10  1  0  0  0
 10 11  2  0  0  0
 11 12  1  0  0  0
 12 18  1  0  0  0
 18 19  2  0  0  0
 18 20  1  0  0  0
 20 22  1  0  0  0
 22 23  1  0  0  0
 23 24  2  0  0  0
 24 25  1  0  0  0
 25 26  1  0  0  0
 25 27  1  0  0  0
 12 13  2  0  0  0
  4 14  1  0  0  0
 14 15  1  0  0  0
 15  1  1  0  0  0
 13  4  1  0  0  0
 13  8  1  0  0  0
 27 22  2  0  0  0
 29 30  1  0  0  0
  7 16  1  0  0  0
 20 21  1  0  0  0
 15 17  1  0  0  0
M  END
> <minimizedAffinity>
-7.19200

> <minimizedRMSD>
0.39036

$$$$
P10313


 46 51  0  0  0  0  0  0  0  0999 V2000
   -7.3544    6.0068  -13.6683 C   0  0  0  0  0  0  0  0  0  0  0  0
   -8.2962    5.4153  -12.9264 C   0  0  0  0  0  0  0  0  0  0  0  0
   -5.9180    9.4325  -14.0155 C   0  0  0  0  0  0  0  0  0  0  0  0
   -5.9747    8.0625  -14.0809 C   0  0  0  0  0  0  0  0  0  0  0  0
   -7.1410    7.4792  -13.6425 C   0  0  0  0  0  0  0  0  0  0  0  0
   -8.1481    8.2279  -13.1367 N   0  0  0  0  0  0  0  0  0  0  0  0
   -8.0201    9.5660  -13.1296 C   0  0  0  0  0  0  0  0  0  0  0  0
   -6.9106   10.2059  -13.5559 N   0  0  0  0  0  0  0  0  0  0  0  0
   -9.1359   10.4545  -12.5229 C   0  0  0  0  0  0  0  0  0  0  0  0
   -8.5297   11.3720  -11.5026 N   0  0  0  0  0  0  0  0  0  0  0  0
  -10.2288    9.6390  -11.8041 C   0  0  0  0  0  0  0  0  0  0  0  0
  -11.1228    8.8546  -12.7710 C   0  0  0  0  0  0  0  0  0  0  0  0
  -11.2894    9.4802  -14.0856 N   0  0  0  0  0  0  0  0  0  0  0  0
  -11.1851   10.9255  -14.0061 C   0  0  0  0  0  0  0  0  0  0  0  0
   -9.7605   11.3396  -13.6354 C   0  0  0  0  0  0  0  0  0  0  0  0
   -8.1094   10.8193  -10.7555 H   0  0  0  0  0  0  0  0  0  0  0  0
   -9.2552   11.9741  -11.1133 H   0  0  0  0  0  0  0  0  0  0  0  0
  -12.2078    9.2344  -14.4552 H   0  0  0  0  0  0  0  0  0  0  0  0
   -4.7942   11.4355  -14.4783 C   0  0  0  0  0  0  0  0  0  0  0  0
   -4.7484   10.0114  -14.4729 O   0  0  0  0  0  0  0  0  0  0  0  0
   -8.2786    4.0899  -12.5263 N   0  0  0  0  0  0  0  0  0  0  0  0
   -8.2287    3.3527  -13.1768 H   0  0  0  0  0  0  0  0  0  0  0  0
   -8.3367    3.8495  -11.1214 C   0  0  0  0  0  0  0  0  0  0  0  0
   -8.7125    2.6050  -10.6253 C   0  0  0  0  0  0  0  0  0  0  0  0
   -8.9489    2.4406   -9.2502 C   0  0  0  0  0  0  0  0  0  0  0  0
   -8.8306    3.5057   -8.3319 C   0  0  0  0  0  0  0  0  0  0  0  0
   -8.3639    4.7158   -8.8527 C   0  0  0  0  0  0  0  0  0  0  0  0
   -8.1875    5.7966   -8.0729 F   0  0  0  0  0  0  0  0  0  0  0  0
   -8.1439    4.8926  -10.2057 C   0  0  0  0  0  0  0  0  0  0  0  0
   -9.1846    3.3597   -6.9925 N   0  0  0  0  0  0  0  0  0  0  0  0
   -9.1578    4.5024   -6.0832 C   0  0  0  0  0  0  0  0  0  0  0  0
   -9.2966    4.0358   -4.6411 C   0  0  0  0  0  0  0  0  0  0  0  0
  -10.6304    3.3314   -4.4297 C   0  0  0  0  0  0  0  0  0  0  0  0
  -11.0989    2.5709   -5.6715 C   0  0  0  0  0  0  0  0  0  0  0  0
   -9.9632    2.1754   -6.6111 C   0  0  0  0  0  0  0  0  0  0  0  0
   -6.3683    5.2117  -14.2289 O   0  0  0  0  0  0  0  0  0  0  0  0
   -6.3581    5.0253  -15.6081 C   0  0  0  0  0  0  0  0  0  0  0  0
   -5.2027    5.2454  -16.2503 C   0  0  0  0  0  0  0  0  0  0  0  0
   -5.2346    5.1295  -17.7308 C   0  0  0  0  0  0  0  0  0  0  0  0
   -3.9571    5.4339  -18.4730 C   0  0  0  0  0  0  0  0  0  0  0  0
   -6.2789    4.8158  -18.4327 N   0  0  0  0  0  0  0  0  0  0  0  0
   -7.4160    4.5082  -17.7409 C   0  0  0  0  0  0  0  0  0  0  0  0
   -8.5719    4.0912  -18.2039 N   0  0  0  0  0  0  0  0  0  0  0  0
   -9.3136    3.9010  -17.0837 C   0  0  0  0  0  0  0  0  0  0  0  0
   -8.7147    4.2110  -15.9339 N   0  0  0  0  0  0  0  0  0  0  0  0
   -7.4814    4.5984  -16.3412 N   0  0  0  0  0  0  0  0  0  0  0  0
 19 20  1  0  0  0
 20  3  1  0  0  0
  3  4  2  0  0  0
  4  5  1  0  0  0
  5  1  1  0  0  0
  1  2  2  0  0  0
  2 21  1  0  0  0
 21 23  1  0  0  0
 23 24  2  0  0  0
 24 25  1  0  0  0
 25 26  2  0  0  0
 26 30  1  0  0  0
 30 31  1  0  0  0
 31 32  1  0  0  0
 32 33  1  0  0  0
 33 34  1  0  0  0
 34 35  1  0  0  0
 26 27  1  0  0  0
 27 28  1  0  0  0
 27 29  2  0  0  0
  1 36  1  0  0  0
 36 37  1  0  0  0
 37 38  2  0  0  0
 38 39  1  0  0  0
 39 40  1  0  0  0
 39 41  2  0  0  0
 41 42  1  0  0  0
 42 43  2  0  0  0
 43 44  1  0  0  0
 44 45  2  0  0  0
 45 46  1  0  0  0
  5  6  2  0  0  0
  6  7  1  0  0  0
  7  9  1  0  0  0
  9 10  1  0  0  0
  9 11  1  0  0  0
 11 12  1  0  0  0
 12 13  1  0  0  0
 13 14  1  0  0  0
 14 15  1  0  0  0
  7  8  2  0  0  0
  8  3  1  0  0  0
 29 23  1  0  0  0
 46 37  1  0  0  0
 15  9  1  0  0  0
 35 30  1  0  0  0
 46 42  1  0  0  0
 21 22  1  0  0  0
 10 16  1  0  0  0
 10 17  1  0  0  0
 13 18  1  0  0  0
M  END
> <minimizedAffinity>
-8.58378

> <minimizedRMSD>
0.87021

$$$$
P10332


 46 53  0  0  0  0  0  0  0  0999 V2000
   -8.0535    5.5903  -12.8715 C   0  0  0  0  0  0  0  0  0  0  0  0
   -8.5619    6.8432  -12.8645 C   0  0  0  0  0  0  0  0  0  0  0  0
   -5.0213    5.4397  -15.0111 C   0  0  0  0  0  0  0  0  0  0  0  0
   -5.8293    5.4107  -13.8822 C   0  0  0  0  0  0  0  0  0  0  0  0
   -7.2024    5.2677  -14.0367 C   0  0  0  0  0  0  0  0  0  0  0  0
   -7.8373    5.0820  -15.2207 N   0  0  0  0  0  0  0  0  0  0  0  0
   -7.0254    5.0761  -16.2983 C   0  0  0  0  0  0  0  0  0  0  0  0
   -5.6493    5.2994  -16.2610 C   0  0  0  0  0  0  0  0  0  0  0  0
   -5.1406    5.3608  -17.5134 N   0  0  0  0  0  0  0  0  0  0  0  0
   -6.1357    5.0257  -18.2984 C   0  0  0  0  0  0  0  0  0  0  0  0
   -7.3436    4.8532  -17.6368 N   0  0  0  0  0  0  0  0  0  0  0  0
   -8.5014    4.1522  -18.2420 C   0  0  0  0  0  0  0  0  0  0  0  0
   -9.2119    3.3178  -17.1704 C   0  0  0  0  0  0  0  0  0  0  0  0
  -10.2558    4.2474  -16.6017 C   0  0  0  0  0  0  0  0  0  0  0  0
  -10.8854    4.7116  -17.8147 N   0  0  0  0  0  0  0  0  0  0  0  0
   -9.7775    4.8858  -18.7458 C   0  0  0  0  0  0  0  0  0  0  0  0
   -8.0577    3.4545  -19.5555 C   0  0  0  0  0  0  0  0  0  0  0  0
   -6.7069    3.5641  -20.1126 N   0  0  0  0  0  0  0  0  0  0  0  0
   -5.9677    4.7510  -19.7229 C   0  0  0  0  0  0  0  0  0  0  0  0
  -11.3681    5.5961  -17.6566 H   0  0  0  0  0  0  0  0  0  0  0  0
   -6.7847    3.5614  -21.1296 H   0  0  0  0  0  0  0  0  0  0  0  0
   -3.0750    4.7387  -13.8468 C   0  0  0  0  0  0  0  0  0  0  0  0
   -3.6734    5.6553  -14.7566 O   0  0  0  0  0  0  0  0  0  0  0  0
   -9.3771    7.5038  -11.9828 N   0  0  0  0  0  0  0  0  0  0  0  0
   -9.7241    6.9529  -11.2443 H   0  0  0  0  0  0  0  0  0  0  0  0
   -9.7961    8.8503  -11.9693 C   0  0  0  0  0  0  0  0  0  0  0  0
  -10.3038    9.3780  -10.7575 C   0  0  0  0  0  0  0  0  0  0  0  0
  -10.7541   10.6981  -10.6502 C   0  0  0  0  0  0  0  0  0  0  0  0
  -10.6877   11.4971  -11.7711 C   0  0  0  0  0  0  0  0  0  0  0  0
  -10.1732   11.0078  -12.9658 C   0  0  0  0  0  0  0  0  0  0  0  0
   -9.7138    9.7023  -13.0788 C   0  0  0  0  0  0  0  0  0  0  0  0
  -10.1994   12.0937  -13.9867 C   0  0  0  0  0  0  0  0  0  0  0  0
  -11.0747   13.1526  -13.4192 N   0  0  0  0  0  0  0  0  0  0  0  0
  -11.0784   12.9242  -11.9472 C   0  0  0  0  0  0  0  0  0  0  0  0
  -12.0198   13.0719  -13.7943 H   0  0  0  0  0  0  0  0  0  0  0  0
   -8.1788    4.5703  -11.9433 O   0  0  0  0  0  0  0  0  0  0  0  0
   -8.0749    4.7391  -10.5617 C   0  0  0  0  0  0  0  0  0  0  0  0
   -7.4336    5.7606   -9.9603 C   0  0  0  0  0  0  0  0  0  0  0  0
   -7.5953    5.8754   -8.4810 C   0  0  0  0  0  0  0  0  0  0  0  0
   -7.1550    7.1669   -7.8531 C   0  0  0  0  0  0  0  0  0  0  0  0
   -8.1353    4.9874   -7.7100 N   0  0  0  0  0  0  0  0  0  0  0  0
   -8.5904    3.8673   -8.3296 C   0  0  0  0  0  0  0  0  0  0  0  0
   -9.1076    2.8018   -7.7729 N   0  0  0  0  0  0  0  0  0  0  0  0
   -9.3766    2.0114   -8.8376 C   0  0  0  0  0  0  0  0  0  0  0  0
   -9.1791    2.5445  -10.0451 N   0  0  0  0  0  0  0  0  0  0  0  0
   -8.6119    3.7353   -9.7299 N   0  0  0  0  0  0  0  0  0  0  0  0
 22 23  1  0  0  0
 23  3  1  0  0  0
  3  4  2  0  0  0
  4  5  1  0  0  0
  5  1  1  0  0  0
  1  2  2  0  0  0
  2 24  1  0  0  0
 24 26  1  0  0  0
 26 27  2  0  0  0
 27 28  1  0  0  0
 28 29  2  0  0  0
 29 30  1  0  0  0
 30 31  2  0  0  0
 30 32  1  0  0  0
 32 33  1  0  0  0
 33 34  1  0  0  0
  1 36  1  0  0  0
 36 37  1  0  0  0
 37 38  2  0  0  0
 38 39  1  0  0  0
 39 40  1  0  0  0
 39 41  2  0  0  0
 41 42  1  0  0  0
 42 43  2  0  0  0
 43 44  1  0  0  0
 44 45  2  0  0  0
 45 46  1  0  0  0
  5  6  2  0  0  0
  6  7  1  0  0  0
  7  8  2  0  0  0
  8  9  1  0  0  0
  9 10  2  0  0  0
 10 11  1  0  0  0
 11 12  1  0  0  0
 12 13  1  0  0  0
 13 14  1  0  0  0
 14 15  1  0  0  0
 15 16  1  0  0  0
 12 17  1  0  0  0
 17 18  1  0  0  0
 18 19  1  0  0  0
  8  3  1  0  0  0
 19 10  1  0  0  0
 31 26  1  0  0  0
 46 37  1  0  0  0
 11  7  1  0  0  0
 16 12  1  0  0  0
 34 29  1  0  0  0
 46 42  1  0  0  0
 24 25  1  0  0  0
 33 35  1  0  0  0
 15 20  1  0  0  0
 18 21  1  0  0  0
M  END
> <minimizedAffinity>
-5.41355

> <minimizedRMSD>
0.64342

$$$$
P10425


 29 31  0  0  0  0  0  0  0  0999 V2000
   -7.3059    4.9899  -14.6044 C   0  0  0  0  0  0  0  0  0  0  0  0
   -6.4240    5.7521  -14.5313 O   0  0  0  0  0  0  0  0  0  0  0  0
   -8.2342    4.4249  -13.5074 N   0  0  0  0  0  0  0  0  0  0  0  0
   -8.9592    3.8471  -13.8386 H   0  0  0  0  0  0  0  0  0  0  0  0
   -5.1062    5.6462  -18.4509 C   0  0  0  0  0  0  0  0  0  0  0  0
   -4.0071    4.8708  -18.8781 O   0  0  0  0  0  0  0  0  0  0  0  0
   -5.3952    5.3885  -16.9556 C   0  0  0  0  0  0  0  0  0  0  0  0
   -6.7649    4.8144  -17.0046 C   0  0  0  0  0  0  0  0  0  0  0  0
   -7.1877    4.6998  -18.3164 C   0  0  0  0  0  0  0  0  0  0  0  0
   -8.4405    4.1638  -18.5546 C   0  0  0  0  0  0  0  0  0  0  0  0
   -9.2722    3.7617  -17.5542 N   0  0  0  0  0  0  0  0  0  0  0  0
   -8.8437    3.9610  -16.2764 C   0  0  0  0  0  0  0  0  0  0  0  0
   -7.6053    4.4857  -15.9534 C   0  0  0  0  0  0  0  0  0  0  0  0
   -6.2359    5.1584  -19.2578 N   0  0  0  0  0  0  0  0  0  0  0  0
   -3.2139    5.1359  -18.3866 H   0  0  0  0  0  0  0  0  0  0  0  0
   -6.3128    5.1524  -20.2392 H   0  0  0  0  0  0  0  0  0  0  0  0
   -5.0905    8.0201  -17.5402 C   0  0  0  0  0  0  0  0  0  0  0  0
   -4.7557    7.1098  -18.7239 C   0  0  0  0  0  0  0  0  0  0  0  0
   -8.2128    4.6015  -12.1100 C   0  0  0  0  0  0  0  0  0  0  0  0
   -8.2323    3.4202  -11.3571 C   0  0  0  0  0  0  0  0  0  0  0  0
   -8.1166    3.4792   -9.9678 C   0  0  0  0  0  0  0  0  0  0  0  0
   -8.0268    4.6498   -9.2933 N   0  0  0  0  0  0  0  0  0  0  0  0
   -8.0521    5.7713  -10.0328 C   0  0  0  0  0  0  0  0  0  0  0  0
   -8.1509    5.8235  -11.4253 C   0  0  0  0  0  0  0  0  0  0  0  0
   -8.2162    7.1928  -12.0227 C   0  0  0  0  0  0  0  0  0  0  0  0
   -8.0460    2.2086   -9.1524 C   0  0  0  0  0  0  0  0  0  0  0  0
   -9.3544    1.7268   -8.7073 N   0  0  0  0  0  0  0  0  0  0  0  0
   -9.7847    2.4239   -8.0996 H   0  0  0  0  0  0  0  0  0  0  0  0
   -9.2384    0.8532   -8.1938 H   0  0  0  0  0  0  0  0  0  0  0  0
 17 18  1  0  0  0
 18  5  1  0  0  0
  5  6  1  0  0  0
  5  7  1  0  0  0
  7  8  1  0  0  0
  8  9  2  0  0  0
  9 10  1  0  0  0
 10 11  2  0  0  0
 11 12  1  0  0  0
 12 13  2  0  0  0
 13  1  1  0  0  0
  1  2  2  0  0  0
  1  3  1  0  0  0
  3 19  1  0  0  0
 19 20  2  0  0  0
 20 21  1  0  0  0
 21 26  1  0  0  0
 26 27  1  0  0  0
 21 22  2  0  0  0
 22 23  1  0  0  0
 23 24  2  0  0  0
 24 25  1  0  0  0
  9 14  1  0  0  0
 14  5  1  0  0  0
 13  8  1  0  0  0
 24 19  1  0  0  0
  6 15  1  0  0  0
  3  4  1  0  0  0
 27 28  1  0  0  0
 27 29  1  0  0  0
 14 16  1  0  0  0
M  END
> <minimizedAffinity>
-7.84733

> <minimizedRMSD>
0.78046

$$$$
P10429


 28 30  0  0  0  0  0  0  0  0999 V2000
   -8.6537    4.8714  -14.5348 C   0  0  0  0  0  0  0  0  0  0  0  0
   -9.3978    5.7716  -14.5120 O   0  0  0  0  0  0  0  0  0  0  0  0
   -7.9982    4.0836  -13.3775 N   0  0  0  0  0  0  0  0  0  0  0  0
   -7.4602    3.3087  -13.6593 H   0  0  0  0  0  0  0  0  0  0  0  0
   -4.9229    5.7292  -16.7892 C   0  0  0  0  0  0  0  0  0  0  0  0
   -5.3937    5.3660  -17.9538 N   0  0  0  0  0  0  0  0  0  0  0  0
   -6.6572    4.7802  -17.6907 C   0  0  0  0  0  0  0  0  0  0  0  0
   -7.5890    4.2691  -18.5655 C   0  0  0  0  0  0  0  0  0  0  0  0
   -8.8069    3.8130  -18.1440 N   0  0  0  0  0  0  0  0  0  0  0  0
   -9.1183    3.9434  -16.8189 C   0  0  0  0  0  0  0  0  0  0  0  0
   -8.2451    4.4280  -15.8711 C   0  0  0  0  0  0  0  0  0  0  0  0
   -7.0138    4.8006  -16.3509 C   0  0  0  0  0  0  0  0  0  0  0  0
   -5.8554    5.3233  -15.6609 C   0  0  0  0  0  0  0  0  0  0  0  0
   -5.6105    5.3380  -14.4803 O   0  0  0  0  0  0  0  0  0  0  0  0
   -2.4684    5.7680  -16.0743 C   0  0  0  0  0  0  0  0  0  0  0  0
   -3.6853    6.5393  -16.5517 C   0  0  0  0  0  0  0  0  0  0  0  0
   -8.0452    4.2946  -11.9799 C   0  0  0  0  0  0  0  0  0  0  0  0
   -8.4413    3.1777  -11.2320 C   0  0  0  0  0  0  0  0  0  0  0  0
   -8.4982    3.2575   -9.8453 C   0  0  0  0  0  0  0  0  0  0  0  0
   -8.1309    4.3746   -9.1706 N   0  0  0  0  0  0  0  0  0  0  0  0
   -7.7601    5.4568   -9.8866 C   0  0  0  0  0  0  0  0  0  0  0  0
   -7.4057    6.6514   -9.0445 C   0  0  0  0  0  0  0  0  0  0  0  0
   -7.7512    5.4918  -11.2957 C   0  0  0  0  0  0  0  0  0  0  0  0
   -7.4729    6.8018  -11.9717 C   0  0  0  0  0  0  0  0  0  0  0  0
   -9.0454    2.0909   -9.0352 C   0  0  0  0  0  0  0  0  0  0  0  0
   -8.3557    1.9201   -7.7461 N   0  0  0  0  0  0  0  0  0  0  0  0
   -7.3691    1.7211   -7.9120 H   0  0  0  0  0  0  0  0  0  0  0  0
   -8.7776    1.1449   -7.2348 H   0  0  0  0  0  0  0  0  0  0  0  0
 15 16  1  0  0  0
 16  5  1  0  0  0
  5  6  2  0  0  0
  6  7  1  0  0  0
  7  8  2  0  0  0
  8  9  1  0  0  0
  9 10  2  0  0  0
 10 11  1  0  0  0
 11  1  1  0  0  0
  1  2  2  0  0  0
  1  3  1  0  0  0
  3 17  1  0  0  0
 17 18  2  0  0  0
 18 19  1  0  0  0
 19 25  1  0  0  0
 25 26  1  0  0  0
 19 20  2  0  0  0
 20 21  1  0  0  0
 21 22  1  0  0  0
 21 23  2  0  0  0
 23 24  1  0  0  0
 11 12  2  0  0  0
 12 13  1  0  0  0
 13 14  2  0  0  0
 13  5  1  0  0  0
 12  7  1  0  0  0
 23 17  1  0  0  0
  3  4  1  0  0  0
 26 27  1  0  0  0
 26 28  1  0  0  0
M  END
> <minimizedAffinity>
-8.19292

> <minimizedRMSD>
0.77930

$$$$
P10615


 26 28  0  0  0  0  0  0  0  0999 V2000
   -8.5912    4.1749  -13.1413 N   0  0  0  0  0  0  0  0  0  0  0  0
   -9.3942    4.5081  -13.6031 H   0  0  0  0  0  0  0  0  0  0  0  0
   -8.4732    4.2917  -11.7361 C   0  0  0  0  0  0  0  0  0  0  0  0
   -8.7508    3.2055  -10.8886 C   0  0  0  0  0  0  0  0  0  0  0  0
   -8.7287    3.3395   -9.4814 C   0  0  0  0  0  0  0  0  0  0  0  0
   -8.3409    4.5544   -8.9080 C   0  0  0  0  0  0  0  0  0  0  0  0
   -8.0073    5.6246   -9.7432 C   0  0  0  0  0  0  0  0  0  0  0  0
   -8.0793    5.5117  -11.1441 C   0  0  0  0  0  0  0  0  0  0  0  0
   -7.7755    6.7318  -11.9681 C   0  0  0  0  0  0  0  0  0  0  0  0
   -8.3826    4.7505   -7.4106 C   0  0  0  0  0  0  0  0  0  0  0  0
   -8.8527    3.5376   -6.5953 C   0  0  0  0  0  0  0  0  0  0  0  0
   -9.7447    2.6510   -7.3247 N   0  0  0  0  0  0  0  0  0  0  0  0
   -9.1278    2.1978   -8.5785 C   0  0  0  0  0  0  0  0  0  0  0  0
  -10.6084    3.1494   -7.5391 H   0  0  0  0  0  0  0  0  0  0  0  0
   -7.5182    3.5602  -13.8910 C   0  0  0  0  0  0  0  0  0  0  0  0
   -6.2978    3.8655  -13.2641 O   0  0  0  0  0  0  0  0  0  0  0  0
   -7.6677    2.1655  -13.9460 O   0  0  0  0  0  0  0  0  0  0  0  0
   -6.0424    4.7593  -13.1462 H   0  0  0  0  0  0  0  0  0  0  0  0
   -8.4330    1.7913  -14.3362 H   0  0  0  0  0  0  0  0  0  0  0  0
   -4.9487    5.4084  -17.8739 C   0  0  0  0  0  0  0  0  0  0  0  0
   -6.2271    4.9116  -17.2713 C   0  0  0  0  0  0  0  0  0  0  0  0
   -7.3725    4.7930  -18.0631 C   0  0  0  0  0  0  0  0  0  0  0  0
   -8.5603    4.3324  -17.5071 C   0  0  0  0  0  0  0  0  0  0  0  0
   -8.6058    3.9884  -16.1568 C   0  0  0  0  0  0  0  0  0  0  0  0
   -7.4780    4.0932  -15.3277 C   0  0  0  0  0  0  0  0  0  0  0  0
   -6.2914    4.5768  -15.9090 C   0  0  0  0  0  0  0  0  0  0  0  0
 20 21  1  0  0  0
 21 22  2  0  0  0
 22 23  1  0  0  0
 23 24  2  0  0  0
 24 25  1  0  0  0
 25 15  1  0  0  0
 15 16  1  0  0  0
 15 17  1  0  0  0
 15  1  1  0  0  0
  1  3  1  0  0  0
  3  4  2  0  0  0
  4  5  1  0  0  0
  5  6  2  0  0  0
  6  7  1  0  0  0
  7  8  2  0  0  0
  8  9  1  0  0  0
  6 10  1  0  0  0
 10 11  1  0  0  0
 11 12  1  0  0  0
 12 13  1  0  0  0
 25 26  2  0  0  0
 26 21  1  0  0  0
  8  3  1  0  0  0
 13  5  1  0  0  0
 16 18  1  0  0  0
 17 19  1  0  0  0
  1  2  1  0  0  0
 12 14  1  0  0  0
M  END
> <minimizedAffinity>
-8.23000

> <minimizedRMSD>
0.42754

$$$$
P10660


 24 27  0  0  0  0  0  0  0  0999 V2000
   -7.2249    5.5848  -14.7255 N   0  0  0  0  0  0  0  0  0  0  0  0
   -8.5489    5.7305  -13.9657 C   0  0  0  0  0  0  0  0  0  0  0  0
   -9.6014    6.0556  -14.3397 O   0  0  0  0  0  0  0  0  0  0  0  0
   -6.4830    5.2161  -14.1937 H   0  0  0  0  0  0  0  0  0  0  0  0
   -8.4139    4.2670  -17.3354 C   0  0  0  0  0  0  0  0  0  0  0  0
   -6.9765    4.7060  -17.0490 C   0  0  0  0  0  0  0  0  0  0  0  0
   -6.1945    4.9707  -18.3585 C   0  0  0  0  0  0  0  0  0  0  0  0
   -5.9745    6.4549  -18.6708 C   0  0  0  0  0  0  0  0  0  0  0  0
   -4.9689    6.6987  -19.7938 C   0  0  0  0  0  0  0  0  0  0  0  0
   -4.1320    7.8170  -19.3309 N   0  0  0  0  0  0  0  0  0  0  0  0
   -3.9672    7.5812  -17.9000 C   0  0  0  0  0  0  0  0  0  0  0  0
   -5.3893    7.2466  -17.4939 C   0  0  0  0  0  0  0  0  0  0  0  0
   -5.5099    6.5448  -16.1531 C   0  0  0  0  0  0  0  0  0  0  0  0
   -6.8910    5.8984  -16.0865 C   0  0  0  0  0  0  0  0  0  0  0  0
   -4.5973    8.7091  -19.4982 H   0  0  0  0  0  0  0  0  0  0  0  0
   -8.3626    5.4970  -12.5215 C   0  0  0  0  0  0  0  0  0  0  0  0
   -8.2799    6.6185  -11.6920 C   0  0  0  0  0  0  0  0  0  0  0  0
   -8.1650    6.4722  -10.3111 C   0  0  0  0  0  0  0  0  0  0  0  0
   -8.1571    5.1688   -9.7942 C   0  0  0  0  0  0  0  0  0  0  0  0
   -8.0895    4.6581   -8.1503 S   0  0  0  0  0  0  0  0  0  0  0  0
   -8.1368    3.0277   -8.6659 C   0  0  0  0  0  0  0  0  0  0  0  0
   -8.1979    2.8388   -9.9627 N   0  0  0  0  0  0  0  0  0  0  0  0
   -8.2256    4.0432  -10.6177 C   0  0  0  0  0  0  0  0  0  0  0  0
   -8.3200    4.2014  -12.0097 C   0  0  0  0  0  0  0  0  0  0  0  0
  6  5  1  0  0  0
  6  7  1  0  0  0
  8  7  1  0  0  0
  8  9  1  0  0  0
  9 10  1  0  0  0
 10 11  1  0  0  0
 12 11  1  0  0  0
 12 13  1  0  0  0
 13 14  1  0  0  0
 14  1  1  0  0  0
  1  2  1  0  0  0
  2  3  2  0  0  0
  2 16  1  0  0  0
 16 17  2  0  0  0
 17 18  1  0  0  0
 18 19  2  0  0  0
 19 20  1  0  0  0
 20 21  1  0  0  0
 21 22  2  0  0  0
 22 23  1  0  0  0
 23 24  2  0  0  0
 14  6  1  0  0  0
 24 16  1  0  0  0
 12  8  1  0  0  0
 23 19  1  0  0  0
 10 15  1  0  0  0
  1  4  1  0  0  0
M  END
> <minimizedAffinity>
-6.76685

> <minimizedRMSD>
0.53340

$$$$
P10665


 30 33  0  0  0  0  0  0  0  0999 V2000
   -7.0002    5.1398  -14.2758 N   0  0  0  0  0  0  0  0  0  0  0  0
   -8.3389    5.7121  -13.7823 C   0  0  0  0  0  0  0  0  0  0  0  0
   -9.2940    6.0151  -14.3738 O   0  0  0  0  0  0  0  0  0  0  0  0
   -6.3699    4.8915  -13.5615 H   0  0  0  0  0  0  0  0  0  0  0  0
   -8.7582    4.0742  -16.5443 C   0  0  0  0  0  0  0  0  0  0  0  0
   -7.3362    4.5489  -16.6603 C   0  0  0  0  0  0  0  0  0  0  0  0
   -6.7540    4.5612  -17.9361 C   0  0  0  0  0  0  0  0  0  0  0  0
   -5.4108    4.8898  -18.0906 C   0  0  0  0  0  0  0  0  0  0  0  0
   -4.8714    4.9430  -19.3119 F   0  0  0  0  0  0  0  0  0  0  0  0
   -4.5962    5.2021  -17.0046 C   0  0  0  0  0  0  0  0  0  0  0  0
   -3.2088    5.3896  -17.1649 N   0  0  0  0  0  0  0  0  0  0  0  0
   -5.1583    5.1445  -15.7365 C   0  0  0  0  0  0  0  0  0  0  0  0
   -6.5344    4.9156  -15.5674 C   0  0  0  0  0  0  0  0  0  0  0  0
   -2.8185    5.4293  -18.0679 H   0  0  0  0  0  0  0  0  0  0  0  0
   -2.6298    5.4810  -16.3739 H   0  0  0  0  0  0  0  0  0  0  0  0
   -8.2867    5.8876  -12.3324 C   0  0  0  0  0  0  0  0  0  0  0  0
   -8.2689    7.1637  -11.7691 C   0  0  0  0  0  0  0  0  0  0  0  0
   -8.2857    7.3109  -10.3865 C   0  0  0  0  0  0  0  0  0  0  0  0
   -8.3474    6.1901   -9.5495 C   0  0  0  0  0  0  0  0  0  0  0  0
   -8.3690    4.9010  -10.1146 C   0  0  0  0  0  0  0  0  0  0  0  0
   -8.5528    3.5765   -9.6593 C   0  0  0  0  0  0  0  0  0  0  0  0
   -8.5289    2.6930  -10.6588 N   0  0  0  0  0  0  0  0  0  0  0  0
   -8.4080    3.4401  -11.7588 N   0  0  0  0  0  0  0  0  0  0  0  0
   -8.3133    4.7768  -11.4969 C   0  0  0  0  0  0  0  0  0  0  0  0
   -8.3890    3.0644  -12.6686 H   0  0  0  0  0  0  0  0  0  0  0  0
   -9.0052    3.2036   -8.2273 C   0  0  0  0  0  0  0  0  0  0  0  0
   -8.7252    1.7884   -7.7317 C   0  0  0  0  0  0  0  0  0  0  0  0
   -8.4426    2.3601   -6.3839 N   0  0  0  0  0  0  0  0  0  0  0  0
   -8.1099    3.6344   -7.0588 C   0  0  0  0  0  0  0  0  0  0  0  0
   -7.6626    1.9235   -5.8926 H   0  0  0  0  0  0  0  0  0  0  0  0
  5  6  1  0  0  0
  6  7  2  0  0  0
  7  8  1  0  0  0
  8  9  1  0  0  0
  8 10  2  0  0  0
 10 11  1  0  0  0
 10 12  1  0  0  0
 12 13  2  0  0  0
 13  1  1  0  0  0
  1  2  1  0  0  0
  2  3  2  0  0  0
  2 16  1  0  0  0
 16 17  2  0  0  0
 17 18  1  0  0  0
 18 19  2  0  0  0
 19 20  1  0  0  0
 20 21  1  0  0  0
 21 26  1  0  0  0
 26 27  1  0  0  0
 27 28  1  0  0  0
 28 29  1  0  0  0
 21 22  2  0  0  0
 22 23  1  0  0  0
 23 24  1  0  0  0
 13  6  1  0  0  0
 24 16  1  0  0  0
 24 20  2  0  0  0
 29 26  1  0  0  0
 11 14  1  0  0  0
 11 15  1  0  0  0
  1  4  1  0  0  0
 28 30  1  0  0  0
 23 25  1  0  0  0
M  END
> <minimizedAffinity>
-8.02230

> <minimizedRMSD>
0.49791

$$$$
P10672


 31 35  0  0  0  0  0  0  0  0999 V2000
   -8.3359    5.0409  -12.2524 C   0  0  0  0  0  0  0  0  0  0  0  0
   -8.2352    3.6702  -11.9707 C   0  0  0  0  0  0  0  0  0  0  0  0
   -8.1059    3.2463  -10.6496 C   0  0  0  0  0  0  0  0  0  0  0  0
   -8.0599    4.2069   -9.6482 C   0  0  0  0  0  0  0  0  0  0  0  0
   -8.1374    5.5772   -9.9277 C   0  0  0  0  0  0  0  0  0  0  0  0
   -8.3092    6.0034  -11.2335 C   0  0  0  0  0  0  0  0  0  0  0  0
   -8.0373    6.4013   -8.6630 C   0  0  0  0  0  0  0  0  0  0  0  0
   -8.3812    5.3050   -7.6146 C   0  0  0  0  0  0  0  0  0  0  0  0
   -7.9021    3.9669   -8.1830 C   0  0  0  0  0  0  0  0  0  0  0  0
   -6.6408    7.0489   -8.4291 C   0  0  0  0  0  0  0  0  0  0  0  0
   -6.2994    7.0966   -6.9193 C   0  0  0  0  0  0  0  0  0  0  0  0
   -5.3848    8.2663   -6.5608 C   0  0  0  0  0  0  0  0  0  0  0  0
   -5.9646    9.5758   -6.8786 N   0  0  0  0  0  0  0  0  0  0  0  0
   -6.6079   10.1910   -5.7190 C   0  0  0  0  0  0  0  0  0  0  0  0
   -6.8915    9.5447   -8.0200 C   0  0  0  0  0  0  0  0  0  0  0  0
   -6.5123    8.4656   -9.0333 C   0  0  0  0  0  0  0  0  0  0  0  0
   -7.2184    5.1704  -14.4621 N   0  0  0  0  0  0  0  0  0  0  0  0
   -8.4767    5.5170  -13.6479 C   0  0  0  0  0  0  0  0  0  0  0  0
   -9.4236    6.1275  -13.9441 O   0  0  0  0  0  0  0  0  0  0  0  0
   -6.5165    4.7008  -13.9561 H   0  0  0  0  0  0  0  0  0  0  0  0
   -8.9113    4.0621  -16.6748 C   0  0  0  0  0  0  0  0  0  0  0  0
   -7.4131    4.3332  -16.7997 C   0  0  0  0  0  0  0  0  0  0  0  0
   -7.0889    4.7271  -18.2445 C   0  0  0  0  0  0  0  0  0  0  0  0
   -5.6051    5.0046  -18.4644 C   0  0  0  0  0  0  0  0  0  0  0  0
   -5.2993    6.3536  -19.1202 C   0  0  0  0  0  0  0  0  0  0  0  0
   -4.0260    6.8215  -18.5444 N   0  0  0  0  0  0  0  0  0  0  0  0
   -3.5026    5.7452  -17.7027 C   0  0  0  0  0  0  0  0  0  0  0  0
   -4.7435    5.0134  -17.2086 C   0  0  0  0  0  0  0  0  0  0  0  0
   -5.3995    5.7109  -16.0119 C   0  0  0  0  0  0  0  0  0  0  0  0
   -6.8988    5.4218  -15.8483 C   0  0  0  0  0  0  0  0  0  0  0  0
   -4.1845    7.6576  -17.9822 H   0  0  0  0  0  0  0  0  0  0  0  0
 22 21  1  0  0  0
 22 23  1  0  0  0
 24 23  1  0  0  0
 24 25  1  0  0  0
 25 26  1  0  0  0
 26 27  1  0  0  0
 28 27  1  0  0  0
 28 29  1  0  0  0
 29 30  1  0  0  0
 30 17  1  0  0  0
 17 18  1  0  0  0
 18 19  2  0  0  0
 18  1  1  0  0  0
  1  2  2  0  0  0
  2  3  1  0  0  0
  3  4  2  0  0  0
  4  5  1  0  0  0
  5  6  2  0  0  0
  5  7  1  0  0  0
  7 10  1  0  0  0
 10 11  1  0  0  0
 11 12  1  0  0  0
 12 13  1  0  0  0
 13 14  1  0  0  0
 13 15  1  0  0  0
 15 16  1  0  0  0
  7  8  1  0  0  0
  8  9  1  0  0  0
 30 22  1  0  0  0
  6  1  1  0  0  0
 16 10  1  0  0  0
 28 24  1  0  0  0
  9  4  1  0  0  0
 26 31  1  0  0  0
 17 20  1  0  0  0
M  END
> <minimizedAffinity>
-7.21953

> <minimizedRMSD>
0.52349

$$$$
P10675


 30 33  0  0  0  0  0  0  0  0999 V2000
   -7.0110    5.7393  -14.0509 N   0  0  0  0  0  0  0  0  0  0  0  0
   -8.3725    6.1507  -13.4418 C   0  0  0  0  0  0  0  0  0  0  0  0
   -9.3962    6.3721  -13.9572 O   0  0  0  0  0  0  0  0  0  0  0  0
   -6.2700    5.6848  -13.4049 H   0  0  0  0  0  0  0  0  0  0  0  0
   -8.8744    4.2383  -15.7854 C   0  0  0  0  0  0  0  0  0  0  0  0
   -7.5747    4.8415  -16.2385 C   0  0  0  0  0  0  0  0  0  0  0  0
   -7.2199    4.7419  -17.5823 C   0  0  0  0  0  0  0  0  0  0  0  0
   -8.5025    4.1197  -18.7946 Br  0  0  0  0  0  0  0  0  0  0  0  0
   -5.9587    5.1124  -18.0408 C   0  0  0  0  0  0  0  0  0  0  0  0
   -5.0222    5.6295  -17.1515 C   0  0  0  0  0  0  0  0  0  0  0  0
   -3.7069    5.8731  -17.5804 N   0  0  0  0  0  0  0  0  0  0  0  0
   -5.3648    5.7320  -15.7983 C   0  0  0  0  0  0  0  0  0  0  0  0
   -6.6634    5.4338  -15.3633 C   0  0  0  0  0  0  0  0  0  0  0  0
   -3.4786    5.7977  -18.5351 H   0  0  0  0  0  0  0  0  0  0  0  0
   -3.0135    6.1194  -16.9264 H   0  0  0  0  0  0  0  0  0  0  0  0
   -8.2890    6.1453  -11.9905 C   0  0  0  0  0  0  0  0  0  0  0  0
   -8.1911    7.3351  -11.2770 C   0  0  0  0  0  0  0  0  0  0  0  0
   -8.0830    7.2910   -9.8939 C   0  0  0  0  0  0  0  0  0  0  0  0
   -8.0742    6.0657   -9.2132 C   0  0  0  0  0  0  0  0  0  0  0  0
   -8.2115    4.8614   -9.9301 C   0  0  0  0  0  0  0  0  0  0  0  0
   -8.2947    3.4811   -9.6381 C   0  0  0  0  0  0  0  0  0  0  0  0
   -8.3930    2.7399  -10.7445 N   0  0  0  0  0  0  0  0  0  0  0  0
   -8.4448    3.6323  -11.7377 N   0  0  0  0  0  0  0  0  0  0  0  0
   -8.3085    4.9254  -11.3135 C   0  0  0  0  0  0  0  0  0  0  0  0
   -8.5688    3.3834  -12.6821 H   0  0  0  0  0  0  0  0  0  0  0  0
   -8.2270    2.8577   -8.2144 C   0  0  0  0  0  0  0  0  0  0  0  0
   -9.2035    1.7058   -7.9401 C   0  0  0  0  0  0  0  0  0  0  0  0
   -9.4234    2.2439   -6.5699 N   0  0  0  0  0  0  0  0  0  0  0  0
   -9.0270    3.5685   -7.1013 C   0  0  0  0  0  0  0  0  0  0  0  0
   -8.7980    1.8658   -5.8583 H   0  0  0  0  0  0  0  0  0  0  0  0
  5  6  1  0  0  0
  6  7  2  0  0  0
  7  8  1  0  0  0
  7  9  1  0  0  0
  9 10  2  0  0  0
 10 11  1  0  0  0
 10 12  1  0  0  0
 12 13  2  0  0  0
 13  1  1  0  0  0
  1  2  1  0  0  0
  2  3  2  0  0  0
  2 16  1  0  0  0
 16 17  2  0  0  0
 17 18  1  0  0  0
 18 19  2  0  0  0
 19 20  1  0  0  0
 20 21  1  0  0  0
 21 26  1  0  0  0
 26 27  1  0  0  0
 27 28  1  0  0  0
 28 29  1  0  0  0
 21 22  2  0  0  0
 22 23  1  0  0  0
 23 24  1  0  0  0
 13  6  1  0  0  0
 24 16  1  0  0  0
 24 20  2  0  0  0
 29 26  1  0  0  0
 11 14  1  0  0  0
 11 15  1  0  0  0
  1  4  1  0  0  0
 28 30  1  0  0  0
 23 25  1  0  0  0
M  END
> <minimizedAffinity>
-6.85368

> <minimizedRMSD>
0.46316

$$$$
P10796


 24 24  0  0  0  0  0  0  0  0999 V2000
   -7.4563    4.8097  -14.9516 C   0  0  0  0  0  0  0  0  0  0  0  0
   -8.6880    4.7197  -15.6074 C   0  0  0  0  0  0  0  0  0  0  0  0
   -8.7511    4.5981  -16.9881 C   0  0  0  0  0  0  0  0  0  0  0  0
  -10.3157    4.4685  -17.7024 Cl  0  0  0  0  0  0  0  0  0  0  0  0
   -7.5703    4.5745  -17.7324 C   0  0  0  0  0  0  0  0  0  0  0  0
   -7.6204    4.0858  -19.3584 Cl  0  0  0  0  0  0  0  0  0  0  0  0
   -6.3261    4.8055  -17.1333 C   0  0  0  0  0  0  0  0  0  0  0  0
   -6.2918    4.8953  -15.7328 C   0  0  0  0  0  0  0  0  0  0  0  0
   -7.3401    4.7061  -13.4427 C   0  0  0  0  0  0  0  0  0  0  0  0
   -8.5274    4.1297  -12.8124 N   0  0  0  0  0  0  0  0  0  0  0  0
   -9.3184    4.7618  -12.9356 H   0  0  0  0  0  0  0  0  0  0  0  0
   -8.3520    3.9947  -11.8167 H   0  0  0  0  0  0  0  0  0  0  0  0
   -6.9100    6.0144  -12.7495 C   0  0  0  0  0  0  0  0  0  0  0  0
   -8.8086    7.7349  -12.5337 C   0  0  0  0  0  0  0  0  0  0  0  0
   -7.5336    7.3222  -13.2640 C   0  0  0  0  0  0  0  0  0  0  0  0
   -6.5366    8.3977  -13.1165 N   0  0  0  0  0  0  0  0  0  0  0  0
   -6.3086    8.5170  -12.1295 H   0  0  0  0  0  0  0  0  0  0  0  0
   -6.9190    9.2687  -13.4848 H   0  0  0  0  0  0  0  0  0  0  0  0
   -5.0043    4.7914  -17.8743 C   0  0  0  0  0  0  0  0  0  0  0  0
   -4.9076    5.6673  -19.0502 N   0  0  0  0  0  0  0  0  0  0  0  0
   -3.6821    5.4035  -19.7633 N   0  0  0  0  0  0  0  0  0  0  0  0
   -4.9192    6.6413  -18.7476 H   0  0  0  0  0  0  0  0  0  0  0  0
   -3.6682    4.4299  -20.0669 H   0  0  0  0  0  0  0  0  0  0  0  0
   -2.8868    5.5795  -19.1492 H   0  0  0  0  0  0  0  0  0  0  0  0
 15 14  1  0  0  0
 15 16  1  0  0  0
 15 13  1  0  0  0
 13  9  1  0  0  0
  9 10  1  0  0  0
  9  1  1  0  0  0
  1  2  2  0  0  0
  2  3  1  0  0  0
  3  4  1  0  0  0
  3  5  2  0  0  0
  5  6  1  0  0  0
  5  7  1  0  0  0
  7 19  1  0  0  0
 19 20  1  0  0  0
 20 21  1  0  0  0
  7  8  2  0  0  0
  8  1  1  0  0  0
 16 17  1  0  0  0
 16 18  1  0  0  0
 10 11  1  0  0  0
 10 12  1  0  0  0
 20 22  1  0  0  0
 21 23  1  0  0  0
 21 24  1  0  0  0
M  END
> <minimizedAffinity>
-4.82605

> <minimizedRMSD>
0.28440

$$$$
P11025


 15 17  0  0  0  0  0  0  0  0999 V2000
   -6.7935    4.0029  -20.0724 Cl  0  0  0  0  0  0  0  0  0  0  0  0
   -7.4291    4.3304  -18.5048 C   0  0  0  0  0  0  0  0  0  0  0  0
   -8.7821    4.0720  -18.2798 C   0  0  0  0  0  0  0  0  0  0  0  0
   -9.3057    4.2117  -17.0024 C   0  0  0  0  0  0  0  0  0  0  0  0
   -8.4750    4.5766  -15.9432 C   0  0  0  0  0  0  0  0  0  0  0  0
   -7.1279    4.9259  -16.2082 C   0  0  0  0  0  0  0  0  0  0  0  0
   -6.2951    5.3997  -15.1789 C   0  0  0  0  0  0  0  0  0  0  0  0
   -4.9710    5.7351  -15.4527 C   0  0  0  0  0  0  0  0  0  0  0  0
   -4.5142    5.5679  -16.7426 C   0  0  0  0  0  0  0  0  0  0  0  0
   -5.2801    5.1147  -17.7498 N   0  0  0  0  0  0  0  0  0  0  0  0
   -6.5787    4.7977  -17.5012 C   0  0  0  0  0  0  0  0  0  0  0  0
   -6.8872    5.5887  -13.8051 C   0  0  0  0  0  0  0  0  0  0  0  0
   -8.0447    4.6127  -13.5798 C   0  0  0  0  0  0  0  0  0  0  0  0
   -9.0492    4.6998  -14.6448 N   0  0  0  0  0  0  0  0  0  0  0  0
  -10.0114    4.8287  -14.4812 H   0  0  0  0  0  0  0  0  0  0  0  0
  1  2  1  0  0  0
  2  3  2  0  0  0
  3  4  1  0  0  0
  4  5  2  0  0  0
  5  6  1  0  0  0
  6  7  2  0  0  0
  7  8  1  0  0  0
  8  9  2  0  0  0
  9 10  1  0  0  0
 10 11  2  0  0  0
  7 12  1  0  0  0
 12 13  1  0  0  0
 13 14  1  0  0  0
 11  2  1  0  0  0
 14  5  1  0  0  0
 11  6  1  0  0  0
 14 15  1  0  0  0
M  END
> <minimizedAffinity>
-5.52694

> <minimizedRMSD>
0.55004

$$$$
P11031


 20 21  0  0  0  0  0  0  0  0999 V2000
   -5.8635    4.8902  -13.9092 N   0  0  0  0  0  0  0  0  0  0  0  0
   -5.6849    4.9479  -15.3042 C   0  0  0  0  0  0  0  0  0  0  0  0
   -4.3897    5.1379  -15.7844 C   0  0  0  0  0  0  0  0  0  0  0  0
   -4.2126    5.1003  -17.1462 C   0  0  0  0  0  0  0  0  0  0  0  0
   -5.1798    4.8400  -18.0422 N   0  0  0  0  0  0  0  0  0  0  0  0
   -6.4175    4.5903  -17.5933 C   0  0  0  0  0  0  0  0  0  0  0  0
   -7.4196    4.2737  -18.5077 C   0  0  0  0  0  0  0  0  0  0  0  0
   -6.9981    4.0421  -20.1613 Cl  0  0  0  0  0  0  0  0  0  0  0  0
   -8.7413    4.0732  -18.1232 C   0  0  0  0  0  0  0  0  0  0  0  0
   -9.0673    4.1370  -16.7791 C   0  0  0  0  0  0  0  0  0  0  0  0
   -8.0746    4.3919  -15.8332 C   0  0  0  0  0  0  0  0  0  0  0  0
   -6.7355    4.6392  -16.2176 C   0  0  0  0  0  0  0  0  0  0  0  0
   -5.1157    5.1101  -13.3077 H   0  0  0  0  0  0  0  0  0  0  0  0
   -6.7361    4.6301  -13.5350 H   0  0  0  0  0  0  0  0  0  0  0  0
   -2.7131    5.6327  -17.9248 S   0  0  0  0  0  0  0  0  0  0  0  0
   -3.2049    7.0656  -18.6711 N   0  0  0  0  0  0  0  0  0  0  0  0
   -1.7766    6.0501  -16.9010 O   0  0  0  0  0  0  0  0  0  0  0  0
   -2.3224    4.7134  -18.9715 O   0  0  0  0  0  0  0  0  0  0  0  0
   -3.4886    7.7394  -17.9598 H   0  0  0  0  0  0  0  0  0  0  0  0
   -3.9921    6.8735  -19.2906 H   0  0  0  0  0  0  0  0  0  0  0  0
  1  2  1  0  0  0
  2  3  2  0  0  0
  3  4  1  0  0  0
  4 15  1  0  0  0
 15 16  1  0  0  0
 15 17  2  0  0  0
 15 18  2  0  0  0
  4  5  2  0  0  0
  5  6  1  0  0  0
  6  7  2  0  0  0
  7  8  1  0  0  0
  7  9  1  0  0  0
  9 10  2  0  0  0
 10 11  1  0  0  0
 11 12  2  0  0  0
 12  2  1  0  0  0
 12  6  1  0  0  0
  1 13  1  0  0  0
  1 14  1  0  0  0
 16 19  1  0  0  0
 16 20  1  0  0  0
M  END
> <minimizedAffinity>
-5.04118

> <minimizedRMSD>
0.87891

$$$$
P11046


 26 29  0  0  0  0  0  0  0  0999 V2000
   -5.5535    4.8695  -15.9606 C   0  0  0  0  0  0  0  0  0  0  0  0
   -4.3549    5.1517  -16.6304 C   0  0  0  0  0  0  0  0  0  0  0  0
   -4.3389    5.2279  -18.0124 C   0  0  0  0  0  0  0  0  0  0  0  0
   -5.5107    5.0272  -18.7423 C   0  0  0  0  0  0  0  0  0  0  0  0
   -5.4280    5.0491  -20.1407 N   0  0  0  0  0  0  0  0  0  0  0  0
   -6.7087    4.6372  -18.0802 C   0  0  0  0  0  0  0  0  0  0  0  0
   -7.8448    4.2575  -18.8327 C   0  0  0  0  0  0  0  0  0  0  0  0
   -9.0496    3.9151  -18.2426 C   0  0  0  0  0  0  0  0  0  0  0  0
   -9.1514    3.9617  -16.8692 C   0  0  0  0  0  0  0  0  0  0  0  0
   -8.0485    4.2989  -16.0810 C   0  0  0  0  0  0  0  0  0  0  0  0
   -8.3945    4.3955  -14.3883 Cl  0  0  0  0  0  0  0  0  0  0  0  0
   -6.7751    4.6057  -16.6551 C   0  0  0  0  0  0  0  0  0  0  0  0
   -4.5902    5.3219  -20.5801 H   0  0  0  0  0  0  0  0  0  0  0  0
   -6.2076    4.7916  -20.6840 H   0  0  0  0  0  0  0  0  0  0  0  0
   -5.3962    4.7569  -14.4977 C   0  0  0  0  0  0  0  0  0  0  0  0
   -4.9451    3.7112  -14.0398 O   0  0  0  0  0  0  0  0  0  0  0  0
   -6.4038    8.6994   -8.4285 C   0  0  0  0  0  0  0  0  0  0  0  0
   -6.2791    8.2559   -9.8339 C   0  0  0  0  0  0  0  0  0  0  0  0
   -6.4596    8.9794  -10.9945 C   0  0  0  0  0  0  0  0  0  0  0  0
   -6.2301    8.0985  -12.0191 N   0  0  0  0  0  0  0  0  0  0  0  0
   -6.2682    8.3083  -13.3939 C   0  0  0  0  0  0  0  0  0  0  0  0
   -6.0012    7.2827  -14.2214 C   0  0  0  0  0  0  0  0  0  0  0  0
   -5.6874    5.9672  -13.6553 C   0  0  0  0  0  0  0  0  0  0  0  0
   -5.6550    5.7858  -12.3151 C   0  0  0  0  0  0  0  0  0  0  0  0
   -5.9249    6.8748  -11.4384 C   0  0  0  0  0  0  0  0  0  0  0  0
   -5.9397    6.9546  -10.1245 N   0  0  0  0  0  0  0  0  0  0  0  0
 17 18  1  0  0  0
 18 19  2  0  0  0
 19 20  1  0  0  0
 20 21  1  0  0  0
 21 22  2  0  0  0
 22 23  1  0  0  0
 23 15  1  0  0  0
 15 16  2  0  0  0
 15  1  1  0  0  0
  1  2  2  0  0  0
  2  3  1  0  0  0
  3  4  2  0  0  0
  4  5  1  0  0  0
  4  6  1  0  0  0
  6  7  2  0  0  0
  7  8  1  0  0  0
  8  9  2  0  0  0
  9 10  1  0  0  0
 10 11  1  0  0  0
 10 12  2  0  0  0
 23 24  2  0  0  0
 24 25  1  0  0  0
 25 26  2  0  0  0
 26 18  1  0  0  0
 25 20  1  0  0  0
 12  1  1  0  0  0
 12  6  1  0  0  0
  5 13  1  0  0  0
  5 14  1  0  0  0
M  END
> <minimizedAffinity>
-6.89334

> <minimizedRMSD>
1.15537

$$$$
P11068


 15 17  0  0  0  0  0  0  0  0999 V2000
   -9.2398    4.6131  -13.8611 N   0  0  0  0  0  0  0  0  0  0  0  0
   -7.9190    4.5442  -14.4862 C   0  0  0  0  0  0  0  0  0  0  0  0
   -7.1438    5.8339  -14.1755 C   0  0  0  0  0  0  0  0  0  0  0  0
   -5.7202    5.7841  -14.7374 C   0  0  0  0  0  0  0  0  0  0  0  0
   -5.6349    5.1861  -16.0567 N   0  0  0  0  0  0  0  0  0  0  0  0
   -4.9814    5.8467  -17.1871 C   0  0  0  0  0  0  0  0  0  0  0  0
   -5.3671    5.0234  -18.4437 C   0  0  0  0  0  0  0  0  0  0  0  0
   -6.7209    4.5873  -18.0373 C   0  0  0  0  0  0  0  0  0  0  0  0
   -7.7547    4.0983  -18.8027 C   0  0  0  0  0  0  0  0  0  0  0  0
   -8.9157    3.7246  -18.1322 C   0  0  0  0  0  0  0  0  0  0  0  0
   -9.0263    3.8574  -16.7346 C   0  0  0  0  0  0  0  0  0  0  0  0
   -7.9672    4.3681  -15.9760 C   0  0  0  0  0  0  0  0  0  0  0  0
   -6.8164    4.7104  -16.6537 C   0  0  0  0  0  0  0  0  0  0  0  0
   -9.1333    4.7325  -12.8537 H   0  0  0  0  0  0  0  0  0  0  0  0
   -9.7503    3.7503  -14.0491 H   0  0  0  0  0  0  0  0  0  0  0  0
  2  1  1  0  0  0
  2  3  1  0  0  0
  3  4  1  0  0  0
  4  5  1  0  0  0
  5  6  1  0  0  0
  6  7  1  0  0  0
  7  8  1  0  0  0
  8  9  1  0  0  0
  9 10  2  0  0  0
 10 11  1  0  0  0
 11 12  2  0  0  0
 12 13  1  0  0  0
 12  2  1  0  0  0
 13  5  1  0  0  0
 13  8  2  0  0  0
  1 14  1  0  0  0
  1 15  1  0  0  0
M  END
> <minimizedAffinity>
-6.83512

> <minimizedRMSD>
2.82765

$$$$
P11090


 35 38  0  0  0  0  0  0  0  0999 V2000
   -7.4165    3.7834  -13.3747 C   0  0  0  0  0  0  0  0  0  0  0  0
   -9.2881    3.9821  -17.9282 N   0  0  0  0  0  0  0  0  0  0  0  0
   -8.1982    4.2824  -17.0782 C   0  0  0  0  0  0  0  0  0  0  0  0
   -8.3635    4.0628  -15.7142 C   0  0  0  0  0  0  0  0  0  0  0  0
   -7.2988    4.2234  -14.8449 C   0  0  0  0  0  0  0  0  0  0  0  0
   -6.1162    4.7227  -15.2854 N   0  0  0  0  0  0  0  0  0  0  0  0
   -5.8933    4.8701  -16.6122 C   0  0  0  0  0  0  0  0  0  0  0  0
   -4.6399    5.2786  -17.0982 C   0  0  0  0  0  0  0  0  0  0  0  0
   -3.3661    5.7256  -16.0065 Cl  0  0  0  0  0  0  0  0  0  0  0  0
   -4.3546    5.3562  -18.4653 C   0  0  0  0  0  0  0  0  0  0  0  0
   -5.3322    5.0205  -19.3855 C   0  0  0  0  0  0  0  0  0  0  0  0
   -6.5934    4.6452  -18.9330 C   0  0  0  0  0  0  0  0  0  0  0  0
   -6.9071    4.5940  -17.5580 C   0  0  0  0  0  0  0  0  0  0  0  0
  -10.1692    3.7712  -17.5430 H   0  0  0  0  0  0  0  0  0  0  0  0
   -9.1655    3.9840  -18.9050 H   0  0  0  0  0  0  0  0  0  0  0  0
   -6.4996    2.5190  -13.1736 C   0  0  0  0  0  0  0  0  0  0  0  0
   -6.8765    1.4180  -13.3097 O   0  0  0  0  0  0  0  0  0  0  0  0
   -5.0755    3.0660  -12.8562 N   0  0  0  0  0  0  0  0  0  0  0  0
   -5.0298    4.0392  -12.7143 H   0  0  0  0  0  0  0  0  0  0  0  0
   -3.8165    2.3798  -12.7368 C   0  0  0  0  0  0  0  0  0  0  0  0
   -3.3114    1.8009  -14.0504 C   0  0  0  0  0  0  0  0  0  0  0  0
   -3.3987    2.7162  -15.0493 F   0  0  0  0  0  0  0  0  0  0  0  0
   -1.9856    1.5004  -13.9372 F   0  0  0  0  0  0  0  0  0  0  0  0
   -7.0496    4.9163  -12.4795 N   0  0  0  0  0  0  0  0  0  0  0  0
   -6.5286    5.6886  -12.7976 H   0  0  0  0  0  0  0  0  0  0  0  0
   -7.4972    4.8098  -11.1476 C   0  0  0  0  0  0  0  0  0  0  0  0
   -7.0597    5.7940  -10.2455 C   0  0  0  0  0  0  0  0  0  0  0  0
   -7.3547    5.6916   -8.8849 C   0  0  0  0  0  0  0  0  0  0  0  0
   -8.0801    4.5968   -8.4766 C   0  0  0  0  0  0  0  0  0  0  0  0
   -8.4785    3.6685   -9.4182 C   0  0  0  0  0  0  0  0  0  0  0  0
   -8.2112    3.7432  -10.7403 N   0  0  0  0  0  0  0  0  0  0  0  0
   -9.2279    2.5679   -8.7124 C   0  0  0  0  0  0  0  0  0  0  0  0
   -9.4758    3.0645   -7.3249 N   0  0  0  0  0  0  0  0  0  0  0  0
   -8.5187    4.1718   -7.1202 C   0  0  0  0  0  0  0  0  0  0  0  0
   -9.3105    2.3213   -6.6462 H   0  0  0  0  0  0  0  0  0  0  0  0
  2  3  1  0  0  0
  3  4  2  0  0  0
  4  5  1  0  0  0
  5  1  1  0  0  0
  1 24  1  0  0  0
 24 26  1  0  0  0
 26 27  2  0  0  0
 27 28  1  0  0  0
 28 29  2  0  0  0
 29 30  1  0  0  0
 30 31  2  0  0  0
 30 32  1  0  0  0
 32 33  1  0  0  0
 33 34  1  0  0  0
  1 16  1  0  0  0
 16 17  2  0  0  0
 16 18  1  0  0  0
 18 20  1  0  0  0
 20 21  1  0  0  0
 21 22  1  0  0  0
 21 23  1  0  0  0
  5  6  2  0  0  0
  6  7  1  0  0  0
  7  8  2  0  0  0
  8  9  1  0  0  0
  8 10  1  0  0  0
 10 11  2  0  0  0
 11 12  1  0  0  0
 12 13  2  0  0  0
 13  3  1  0  0  0
 31 26  1  0  0  0
 13  7  1  0  0  0
 34 29  1  0  0  0
  2 14  1  0  0  0
  2 15  1  0  0  0
 24 25  1  0  0  0
 33 35  1  0  0  0
 18 19  1  0  0  0
M  END
> <minimizedAffinity>
-8.33433

> <minimizedRMSD>
0.49914

$$$$
P11091


 35 38  0  0  0  0  0  0  0  0999 V2000
   -7.0339    4.0039  -13.2609 C   0  0  0  0  0  0  0  0  0  0  0  0
   -9.2447    4.6542  -17.6508 N   0  0  0  0  0  0  0  0  0  0  0  0
   -8.0626    4.7010  -16.8699 C   0  0  0  0  0  0  0  0  0  0  0  0
   -8.1672    4.4158  -15.5123 C   0  0  0  0  0  0  0  0  0  0  0  0
   -7.0283    4.4183  -14.7248 C   0  0  0  0  0  0  0  0  0  0  0  0
   -5.8077    4.7166  -15.2365 N   0  0  0  0  0  0  0  0  0  0  0  0
   -5.6545    4.8472  -16.5660 C   0  0  0  0  0  0  0  0  0  0  0  0
   -4.3744    4.9961  -17.1223 C   0  0  0  0  0  0  0  0  0  0  0  0
   -2.9664    5.0853  -16.1093 Cl  0  0  0  0  0  0  0  0  0  0  0  0
   -4.1664    5.0635  -18.5006 C   0  0  0  0  0  0  0  0  0  0  0  0
   -5.2528    4.9689  -19.3526 C   0  0  0  0  0  0  0  0  0  0  0  0
   -6.5356    4.8356  -18.8220 C   0  0  0  0  0  0  0  0  0  0  0  0
   -6.7676    4.8030  -17.4344 C   0  0  0  0  0  0  0  0  0  0  0  0
  -10.1226    4.5831  -17.2111 H   0  0  0  0  0  0  0  0  0  0  0  0
   -9.1877    4.6929  -18.6329 H   0  0  0  0  0  0  0  0  0  0  0  0
   -6.3042    2.6134  -13.1507 C   0  0  0  0  0  0  0  0  0  0  0  0
   -6.7858    1.6119  -13.5198 O   0  0  0  0  0  0  0  0  0  0  0  0
   -4.9039    2.8895  -12.5274 N   0  0  0  0  0  0  0  0  0  0  0  0
   -4.7623    3.8158  -12.2254 H   0  0  0  0  0  0  0  0  0  0  0  0
   -3.7843    2.0112  -12.3215 C   0  0  0  0  0  0  0  0  0  0  0  0
   -2.8804    1.9464  -13.5442 C   0  0  0  0  0  0  0  0  0  0  0  0
   -3.5848    1.6883  -14.6726 F   0  0  0  0  0  0  0  0  0  0  0  0
   -2.2636    3.1440  -13.7260 F   0  0  0  0  0  0  0  0  0  0  0  0
   -8.3904    3.9274  -12.6839 N   0  0  0  0  0  0  0  0  0  0  0  0
   -9.2145    3.7847  -13.2032 H   0  0  0  0  0  0  0  0  0  0  0  0
   -8.3396    4.0870  -11.2881 C   0  0  0  0  0  0  0  0  0  0  0  0
   -7.9543    5.3023  -10.7050 C   0  0  0  0  0  0  0  0  0  0  0  0
   -8.0363    5.4594   -9.3197 C   0  0  0  0  0  0  0  0  0  0  0  0
   -8.5019    4.3871   -8.5906 C   0  0  0  0  0  0  0  0  0  0  0  0
   -8.8072    3.2086   -9.2457 C   0  0  0  0  0  0  0  0  0  0  0  0
   -8.7379    3.0258  -10.5741 N   0  0  0  0  0  0  0  0  0  0  0  0
   -9.2621    2.1955   -8.2326 C   0  0  0  0  0  0  0  0  0  0  0  0
   -9.5772    2.9889   -7.0065 N   0  0  0  0  0  0  0  0  0  0  0  0
   -8.7889    4.2345   -7.1381 C   0  0  0  0  0  0  0  0  0  0  0  0
   -9.3008    2.4773   -6.1684 H   0  0  0  0  0  0  0  0  0  0  0  0
  2  3  1  0  0  0
  3  4  2  0  0  0
  4  5  1  0  0  0
  5  1  1  0  0  0
  1 24  1  0  0  0
 24 26  1  0  0  0
 26 27  2  0  0  0
 27 28  1  0  0  0
 28 29  2  0  0  0
 29 30  1  0  0  0
 30 31  2  0  0  0
 30 32  1  0  0  0
 32 33  1  0  0  0
 33 34  1  0  0  0
  1 16  1  0  0  0
 16 17  2  0  0  0
 16 18  1  0  0  0
 18 20  1  0  0  0
 20 21  1  0  0  0
 21 22  1  0  0  0
 21 23  1  0  0  0
  5  6  2  0  0  0
  6  7  1  0  0  0
  7  8  2  0  0  0
  8  9  1  0  0  0
  8 10  1  0  0  0
 10 11  2  0  0  0
 11 12  1  0  0  0
 12 13  2  0  0  0
 13  3  1  0  0  0
 31 26  1  0  0  0
 13  7  1  0  0  0
 34 29  1  0  0  0
  2 14  1  0  0  0
  2 15  1  0  0  0
 24 25  1  0  0  0
 33 35  1  0  0  0
 18 19  1  0  0  0
M  END
> <minimizedAffinity>
-8.78370

> <minimizedRMSD>
0.51332

$$$$
P11148


 27 30  0  0  0  0  0  0  0  0999 V2000
   -8.0789    2.3291   -9.9156 C   0  0  0  0  0  0  0  0  0  0  0  0
   -8.1093    3.7235  -10.4847 C   0  0  0  0  0  0  0  0  0  0  0  0
   -8.2479    3.8815  -11.8163 C   0  0  0  0  0  0  0  0  0  0  0  0
   -8.4113    5.2078  -12.3727 C   0  0  0  0  0  0  0  0  0  0  0  0
   -8.4869    6.2986  -11.5743 C   0  0  0  0  0  0  0  0  0  0  0  0
   -8.7195    7.7102  -12.0675 C   0  0  0  0  0  0  0  0  0  0  0  0
   -9.4635    8.5674  -11.0519 C   0  0  0  0  0  0  0  0  0  0  0  0
   -8.7161    8.5816   -9.7252 C   0  0  0  0  0  0  0  0  0  0  0  0
   -8.3195    7.1979   -9.2869 C   0  0  0  0  0  0  0  0  0  0  0  0
   -8.2842    6.1364  -10.1234 C   0  0  0  0  0  0  0  0  0  0  0  0
   -8.0545    4.8417   -9.6297 N   0  0  0  0  0  0  0  0  0  0  0  0
   -7.9354    4.7208   -8.1742 C   0  0  0  0  0  0  0  0  0  0  0  0
   -7.3324    5.8305   -7.4303 N   0  0  0  0  0  0  0  0  0  0  0  0
   -8.0047    7.0653   -7.8194 C   0  0  0  0  0  0  0  0  0  0  0  0
   -6.3389    5.8945   -7.6525 H   0  0  0  0  0  0  0  0  0  0  0  0
   -8.5580    5.3723  -13.8515 C   0  0  0  0  0  0  0  0  0  0  0  0
   -9.5882    5.8947  -14.2849 O   0  0  0  0  0  0  0  0  0  0  0  0
   -7.3321    5.0265  -14.7119 C   0  0  0  0  0  0  0  0  0  0  0  0
   -7.6124    4.6253  -16.1743 C   0  0  0  0  0  0  0  0  0  0  0  0
   -8.8059    3.9525  -16.4942 C   0  0  0  0  0  0  0  0  0  0  0  0
   -9.0748    3.5669  -17.7980 C   0  0  0  0  0  0  0  0  0  0  0  0
   -8.2320    3.7789  -18.8154 N   0  0  0  0  0  0  0  0  0  0  0  0
   -7.0680    4.3788  -18.5143 C   0  0  0  0  0  0  0  0  0  0  0  0
   -6.6876    4.7961  -17.2334 C   0  0  0  0  0  0  0  0  0  0  0  0
   -5.3076    5.3755  -17.1010 C   0  0  0  0  0  0  0  0  0  0  0  0
   -6.4308    6.2377  -14.6300 C   0  0  0  0  0  0  0  0  0  0  0  0
   -5.5476    6.3983  -13.7922 O   0  0  0  0  0  0  0  0  0  0  0  0
  1  2  1  0  0  0
  2  3  2  0  0  0
  3  4  1  0  0  0
  4 16  1  0  0  0
 16 17  2  0  0  0
 16 18  1  0  0  0
 18 26  1  0  0  0
 26 27  2  0  0  0
 18 19  1  0  0  0
 19 20  2  0  0  0
 20 21  1  0  0  0
 21 22  2  0  0  0
 22 23  1  0  0  0
 23 24  2  0  0  0
 24 25  1  0  0  0
  4  5  2  0  0  0
  5  6  1  0  0  0
  6  7  1  0  0  0
  7  8  1  0  0  0
  8  9  1  0  0  0
  9 10  2  0  0  0
 10 11  1  0  0  0
 11 12  1  0  0  0
 12 13  1  0  0  0
 13 14  1  0  0  0
 11  2  1  0  0  0
 24 19  1  0  0  0
 10  5  1  0  0  0
 14  9  1  0  0  0
 13 15  1  0  0  0
M  END
> <minimizedAffinity>
-7.74897

> <minimizedRMSD>
0.70914

$$$$
P11185


 34 37  0  0  0  0  0  0  0  0999 V2000
   -9.3985    3.8112  -17.9475 C   0  0  0  0  0  0  0  0  0  0  0  0
   -8.1572    4.2711  -17.2523 C   0  0  0  0  0  0  0  0  0  0  0  0
   -8.1248    4.4794  -15.8890 C   0  0  0  0  0  0  0  0  0  0  0  0
   -6.9426    4.9733  -15.3437 C   0  0  0  0  0  0  0  0  0  0  0  0
   -5.8158    5.2517  -16.1546 C   0  0  0  0  0  0  0  0  0  0  0  0
   -4.6027    5.8166  -15.6803 C   0  0  0  0  0  0  0  0  0  0  0  0
   -3.4987    6.0630  -16.5104 C   0  0  0  0  0  0  0  0  0  0  0  0
   -3.6492    5.7293  -17.8619 C   0  0  0  0  0  0  0  0  0  0  0  0
   -4.8464    5.1823  -18.3609 C   0  0  0  0  0  0  0  0  0  0  0  0
   -4.9564    4.9345  -19.8452 C   0  0  0  0  0  0  0  0  0  0  0  0
   -5.9374    4.9541  -17.5198 C   0  0  0  0  0  0  0  0  0  0  0  0
   -7.0805    4.4759  -18.0358 N   0  0  0  0  0  0  0  0  0  0  0  0
   -2.2042    6.7095  -15.9831 C   0  0  0  0  0  0  0  0  0  0  0  0
   -2.0571    6.6503  -14.4479 C   0  0  0  0  0  0  0  0  0  0  0  0
   -0.9553    6.0416  -16.5919 C   0  0  0  0  0  0  0  0  0  0  0  0
   -2.2802    8.4898  -16.5115 S   0  0  0  0  0  0  0  0  0  0  0  0
   -1.2470    9.3702  -15.3622 C   0  0  0  0  0  0  0  0  0  0  0  0
   -3.6251    9.0019  -16.3128 O   0  0  0  0  0  0  0  0  0  0  0  0
   -1.6368    8.6345  -17.8071 O   0  0  0  0  0  0  0  0  0  0  0  0
   -6.9451    5.3154  -13.9021 C   0  0  0  0  0  0  0  0  0  0  0  0
   -7.1086    6.5004  -13.6248 O   0  0  0  0  0  0  0  0  0  0  0  0
   -6.7259    4.1878  -12.9029 C   0  0  0  0  0  0  0  0  0  0  0  0
   -7.4684    4.2837  -11.5702 C   0  0  0  0  0  0  0  0  0  0  0  0
   -7.4380    5.4383  -10.7558 C   0  0  0  0  0  0  0  0  0  0  0  0
   -7.9236    5.4242   -9.4453 C   0  0  0  0  0  0  0  0  0  0  0  0
   -8.4018    4.2334   -8.9410 C   0  0  0  0  0  0  0  0  0  0  0  0
   -8.4790    3.0995   -9.7368 C   0  0  0  0  0  0  0  0  0  0  0  0
   -8.0394    3.1066  -11.0487 C   0  0  0  0  0  0  0  0  0  0  0  0
   -9.0730    1.9832   -8.9493 C   0  0  0  0  0  0  0  0  0  0  0  0
   -9.0864    2.4462   -7.5364 N   0  0  0  0  0  0  0  0  0  0  0  0
   -8.8774    3.9114   -7.5674 C   0  0  0  0  0  0  0  0  0  0  0  0
   -8.3370    1.9952   -7.0115 H   0  0  0  0  0  0  0  0  0  0  0  0
   -5.2499    3.9912  -12.5769 C   0  0  0  0  0  0  0  0  0  0  0  0
   -4.4340    4.8869  -12.3721 O   0  0  0  0  0  0  0  0  0  0  0  0
  1  2  1  0  0  0
  2  3  2  0  0  0
  3  4  1  0  0  0
  4 20  1  0  0  0
 20 21  2  0  0  0
 20 22  1  0  0  0
 22 33  1  0  0  0
 33 34  2  0  0  0
 22 23  1  0  0  0
 23 24  2  0  0  0
 24 25  1  0  0  0
 25 26  2  0  0  0
 26 27  1  0  0  0
 27 28  2  0  0  0
 27 29  1  0  0  0
 29 30  1  0  0  0
 30 31  1  0  0  0
  4  5  2  0  0  0
  5  6  1  0  0  0
  6  7  2  0  0  0
  7 13  1  0  0  0
 13 14  1  0  0  0
 13 15  1  0  0  0
 13 16  1  0  0  0
 16 17  1  0  0  0
 16 18  2  0  0  0
 16 19  2  0  0  0
  7  8  1  0  0  0
  8  9  2  0  0  0
  9 10  1  0  0  0
  9 11  1  0  0  0
 11 12  2  0  0  0
 12  2  1  0  0  0
 28 23  1  0  0  0
 11  5  1  0  0  0
 31 26  1  0  0  0
 30 32  1  0  0  0
M  END
> <minimizedAffinity>
-7.66754

> <minimizedRMSD>
0.46827

$$$$
P11219


 30 31  0  0  0  0  0  0  0  0999 V2000
   -7.2029    4.3341  -12.7935 C   0  0  0  0  0  0  0  0  0  0  0  0
   -7.9495    4.8434  -14.1477 C   0  0  0  0  0  0  0  0  0  0  0  0
   -7.2711    6.0107  -14.6265 N   0  0  0  0  0  0  0  0  0  0  0  0
   -9.2626    5.1337  -13.7561 O   0  0  0  0  0  0  0  0  0  0  0  0
   -7.2102    6.7000  -13.8771 H   0  0  0  0  0  0  0  0  0  0  0  0
   -7.7884    6.4066  -15.4114 H   0  0  0  0  0  0  0  0  0  0  0  0
   -9.2486    5.7711  -13.0251 H   0  0  0  0  0  0  0  0  0  0  0  0
   -8.0153    3.8939  -15.2346 N   0  0  0  0  0  0  0  0  0  0  0  0
   -8.4583    3.0495  -14.8725 H   0  0  0  0  0  0  0  0  0  0  0  0
   -8.7513    4.2856  -16.4620 C   0  0  0  0  0  0  0  0  0  0  0  0
   -8.0137    4.3597  -17.8156 C   0  0  0  0  0  0  0  0  0  0  0  0
   -6.6714    4.2640  -17.6588 F   0  0  0  0  0  0  0  0  0  0  0  0
   -8.3851    3.3256  -18.6087 F   0  0  0  0  0  0  0  0  0  0  0  0
   -8.1329    3.4452  -12.0844 N   0  0  0  0  0  0  0  0  0  0  0  0
   -8.6378    2.7474  -12.5613 H   0  0  0  0  0  0  0  0  0  0  0  0
   -8.2735    3.6304  -10.6977 C   0  0  0  0  0  0  0  0  0  0  0  0
   -8.0706    4.8761  -10.0678 C   0  0  0  0  0  0  0  0  0  0  0  0
   -8.2666    5.0393   -8.6893 C   0  0  0  0  0  0  0  0  0  0  0  0
   -8.7275    3.9583   -7.9617 C   0  0  0  0  0  0  0  0  0  0  0  0
   -8.9887    2.7440   -8.5816 C   0  0  0  0  0  0  0  0  0  0  0  0
   -8.7656    2.5633   -9.9337 C   0  0  0  0  0  0  0  0  0  0  0  0
   -9.5348    1.7784   -7.5855 C   0  0  0  0  0  0  0  0  0  0  0  0
   -9.8560    2.5975   -6.3859 N   0  0  0  0  0  0  0  0  0  0  0  0
   -9.0521    3.8343   -6.5103 C   0  0  0  0  0  0  0  0  0  0  0  0
   -9.6035    2.0946   -5.5351 H   0  0  0  0  0  0  0  0  0  0  0  0
   -6.0280    3.6038  -13.1173 O   0  0  0  0  0  0  0  0  0  0  0  0
   -4.9784    3.7190  -12.1658 C   0  0  0  0  0  0  0  0  0  0  0  0
   -4.7614    5.1768  -11.7664 C   0  0  0  0  0  0  0  0  0  0  0  0
   -3.0602    6.9691  -11.2830 C   0  0  0  0  0  0  0  0  0  0  0  0
   -3.2765    5.5078  -11.6424 C   0  0  0  0  0  0  0  0  0  0  0  0
 29 30  1  0  0  0
 30 28  1  0  0  0
 28 27  1  0  0  0
 27 26  1  0  0  0
 26  1  1  0  0  0
  1 14  1  0  0  0
 14 16  1  0  0  0
 16 17  2  0  0  0
 17 18  1  0  0  0
 18 19  2  0  0  0
 19 20  1  0  0  0
 20 21  2  0  0  0
 20 22  1  0  0  0
 22 23  1  0  0  0
 23 24  1  0  0  0
  1  2  1  0  0  0
  2  3  1  0  0  0
  2  4  1  0  0  0
  2  8  1  0  0  0
  8 10  1  0  0  0
 10 11  1  0  0  0
 11 12  1  0  0  0
 11 13  1  0  0  0
 21 16  1  0  0  0
 24 19  1  0  0  0
 14 15  1  0  0  0
 23 25  1  0  0  0
  3  5  1  0  0  0
  3  6  1  0  0  0
  4  7  1  0  0  0
  8  9  1  0  0  0
M  END
> <minimizedAffinity>
-6.15904

> <minimizedRMSD>
1.19870

$$$$
P11250


 26 28  0  0  0  0  0  0  0  0999 V2000
   -4.5535    5.4754  -18.3851 C   0  0  0  0  0  0  0  0  0  0  0  0
   -4.3003    5.3346  -17.0094 C   0  0  0  0  0  0  0  0  0  0  0  0
   -2.9071    5.4974  -16.4611 C   0  0  0  0  0  0  0  0  0  0  0  0
   -5.3955    5.1076  -16.1536 C   0  0  0  0  0  0  0  0  0  0  0  0
   -6.6994    4.8602  -16.6672 C   0  0  0  0  0  0  0  0  0  0  0  0
   -7.7703    4.5280  -15.7808 C   0  0  0  0  0  0  0  0  0  0  0  0
   -9.0262    4.1907  -16.3045 C   0  0  0  0  0  0  0  0  0  0  0  0
   -9.2481    4.2240  -17.6730 C   0  0  0  0  0  0  0  0  0  0  0  0
   -8.2195    4.6051  -18.5337 C   0  0  0  0  0  0  0  0  0  0  0  0
   -6.9257    4.9355  -18.0646 C   0  0  0  0  0  0  0  0  0  0  0  0
   -5.8502    5.3081  -18.9224 C   0  0  0  0  0  0  0  0  0  0  0  0
   -6.0830    5.6502  -20.2688 N   0  0  0  0  0  0  0  0  0  0  0  0
   -7.5243    4.5291  -14.3045 C   0  0  0  0  0  0  0  0  0  0  0  0
   -8.5664    4.3222  -13.4255 N   0  0  0  0  0  0  0  0  0  0  0  0
   -6.2623    4.7750  -13.9168 C   0  0  0  0  0  0  0  0  0  0  0  0
   -5.2068    5.0130  -14.7566 N   0  0  0  0  0  0  0  0  0  0  0  0
   -6.9810    5.5391  -20.6567 H   0  0  0  0  0  0  0  0  0  0  0  0
   -5.3477    6.0005  -20.8218 H   0  0  0  0  0  0  0  0  0  0  0  0
   -9.4722    4.1460  -13.7686 H   0  0  0  0  0  0  0  0  0  0  0  0
   -8.4047    4.3508  -12.4548 H   0  0  0  0  0  0  0  0  0  0  0  0
   -4.3030    5.1197  -14.3811 H   0  0  0  0  0  0  0  0  0  0  0  0
   -3.4404    5.8645  -19.2865 C   0  0  0  0  0  0  0  0  0  0  0  0
   -2.6918    5.0999  -19.8785 O   0  0  0  0  0  0  0  0  0  0  0  0
   -3.3821    7.2223  -19.2944 O   0  0  0  0  0  0  0  0  0  0  0  0
   -2.7879    9.2516  -20.4014 C   0  0  0  0  0  0  0  0  0  0  0  0
   -2.5201    7.7630  -20.2996 C   0  0  0  0  0  0  0  0  0  0  0  0
 25 26  1  0  0  0
 26 24  1  0  0  0
 24 22  1  0  0  0
 22 23  2  0  0  0
 22  1  1  0  0  0
  1  2  2  0  0  0
  2  3  1  0  0  0
  2  4  1  0  0  0
  4  5  2  0  0  0
  5  6  1  0  0  0
  6  7  2  0  0  0
  7  8  1  0  0  0
  8  9  2  0  0  0
  9 10  1  0  0  0
 10 11  2  0  0  0
 11 12  1  0  0  0
  6 13  1  0  0  0
 13 14  1  0  0  0
 13 15  2  0  0  0
 15 16  1  0  0  0
 11  1  1  0  0  0
 16  4  1  0  0  0
 10  5  1  0  0  0
 12 17  1  0  0  0
 12 18  1  0  0  0
 14 19  1  0  0  0
 14 20  1  0  0  0
 16 21  1  0  0  0
M  END
> <minimizedAffinity>
-6.99621

> <minimizedRMSD>
0.95032

$$$$
P11265


 23 24  0  0  0  0  0  0  0  0999 V2000
   -3.5879    5.3096  -17.4821 C   0  0  0  0  0  0  0  0  0  0  0  0
   -4.3923    5.2363  -18.6174 C   0  0  0  0  0  0  0  0  0  0  0  0
   -5.7806    5.0682  -18.5374 C   0  0  0  0  0  0  0  0  0  0  0  0
   -6.4477    5.1966  -19.7540 N   0  0  0  0  0  0  0  0  0  0  0  0
   -6.4153    4.9511  -17.2595 C   0  0  0  0  0  0  0  0  0  0  0  0
   -7.7993    4.6713  -17.0355 C   0  0  0  0  0  0  0  0  0  0  0  0
   -8.3640    4.5802  -15.7541 C   0  0  0  0  0  0  0  0  0  0  0  0
   -7.5698    4.7216  -14.6423 C   0  0  0  0  0  0  0  0  0  0  0  0
   -6.2101    4.9470  -14.8171 C   0  0  0  0  0  0  0  0  0  0  0  0
   -5.5988    5.0695  -16.0927 C   0  0  0  0  0  0  0  0  0  0  0  0
   -4.1891    5.2835  -16.2076 C   0  0  0  0  0  0  0  0  0  0  0  0
   -3.3775    5.2898  -15.0385 N   0  0  0  0  0  0  0  0  0  0  0  0
   -5.9350    5.2721  -20.5910 H   0  0  0  0  0  0  0  0  0  0  0  0
   -7.4318    5.2119  -19.7765 H   0  0  0  0  0  0  0  0  0  0  0  0
   -3.7969    5.2716  -14.1480 H   0  0  0  0  0  0  0  0  0  0  0  0
   -2.3967    5.3123  -15.1203 H   0  0  0  0  0  0  0  0  0  0  0  0
   -2.1138    5.5069  -17.6371 C   0  0  0  0  0  0  0  0  0  0  0  0
   -1.4319    6.1789  -16.8768 O   0  0  0  0  0  0  0  0  0  0  0  0
   -1.6546    4.8491  -18.7326 O   0  0  0  0  0  0  0  0  0  0  0  0
   -1.4946    5.8079  -20.9102 C   0  0  0  0  0  0  0  0  0  0  0  0
   -0.7845    5.6062  -19.5852 C   0  0  0  0  0  0  0  0  0  0  0  0
   -8.7188    4.3800  -18.0778 C   0  0  0  0  0  0  0  0  0  0  0  0
   -9.5354    4.1236  -18.8532 N   0  0  0  0  0  0  0  0  0  0  0  0
 20 21  1  0  0  0
 21 19  1  0  0  0
 19 17  1  0  0  0
 17 18  2  0  0  0
 17  1  1  0  0  0
  1  2  2  0  0  0
  2  3  1  0  0  0
  3  4  1  0  0  0
  3  5  2  0  0  0
  5  6  1  0  0  0
  6 22  1  0  0  0
 22 23  3  0  0  0
  6  7  2  0  0  0
  7  8  1  0  0  0
  8  9  2  0  0  0
  9 10  1  0  0  0
 10 11  2  0  0  0
 11 12  1  0  0  0
 11  1  1  0  0  0
 10  5  1  0  0  0
  4 13  1  0  0  0
  4 14  1  0  0  0
 12 15  1  0  0  0
 12 16  1  0  0  0
M  END
> <minimizedAffinity>
-5.95350

> <minimizedRMSD>
0.53605

$$$$
P11266


 24 26  0  0  0  0  0  0  0  0999 V2000
   -4.7826    5.7651  -18.7496 C   0  0  0  0  0  0  0  0  0  0  0  0
   -4.0507    5.4782  -17.4395 C   0  0  0  0  0  0  0  0  0  0  0  0
   -4.9243    5.6009  -16.2723 N   0  0  0  0  0  0  0  0  0  0  0  0
   -4.2929    5.4434  -14.9704 C   0  0  0  0  0  0  0  0  0  0  0  0
   -5.1495    6.1344  -13.9260 C   0  0  0  0  0  0  0  0  0  0  0  0
   -6.5049    5.4484  -13.8492 C   0  0  0  0  0  0  0  0  0  0  0  0
   -7.0858    5.1080  -15.2041 C   0  0  0  0  0  0  0  0  0  0  0  0
   -8.4168    4.6418  -15.2965 C   0  0  0  0  0  0  0  0  0  0  0  0
   -9.2737    4.5868  -14.1677 N   0  0  0  0  0  0  0  0  0  0  0  0
   -8.9558    4.3681  -16.5531 C   0  0  0  0  0  0  0  0  0  0  0  0
   -8.1584    4.4176  -17.6908 C   0  0  0  0  0  0  0  0  0  0  0  0
   -6.8128    4.8041  -17.6068 C   0  0  0  0  0  0  0  0  0  0  0  0
   -6.2586    5.1597  -16.3587 C   0  0  0  0  0  0  0  0  0  0  0  0
   -5.9075    4.7386  -18.8146 C   0  0  0  0  0  0  0  0  0  0  0  0
   -6.5939    4.6326  -20.0827 N   0  0  0  0  0  0  0  0  0  0  0  0
   -8.9175    4.7759  -13.2696 H   0  0  0  0  0  0  0  0  0  0  0  0
  -10.2247    4.3595  -14.2822 H   0  0  0  0  0  0  0  0  0  0  0  0
   -7.1171    5.4903  -20.2588 H   0  0  0  0  0  0  0  0  0  0  0  0
   -7.2372    3.8414  -20.0561 H   0  0  0  0  0  0  0  0  0  0  0  0
   -5.2122    7.2193  -18.8606 C   0  0  0  0  0  0  0  0  0  0  0  0
   -6.2400    7.6440  -19.3745 O   0  0  0  0  0  0  0  0  0  0  0  0
   -4.2281    8.0437  -18.3825 O   0  0  0  0  0  0  0  0  0  0  0  0
   -4.9206    9.1249  -16.3703 C   0  0  0  0  0  0  0  0  0  0  0  0
   -4.6963    9.2917  -17.8603 C   0  0  0  0  0  0  0  0  0  0  0  0
 23 24  1  0  0  0
 24 22  1  0  0  0
 22 20  1  0  0  0
 20 21  2  0  0  0
  1 20  1  0  0  0
  1  2  1  0  0  0
  2  3  1  0  0  0
  3  4  1  0  0  0
  4  5  1  0  0  0
  5  6  1  0  0  0
  6  7  1  0  0  0
  7  8  1  0  0  0
  8  9  1  0  0  0
  8 10  2  0  0  0
 10 11  1  0  0  0
 11 12  2  0  0  0
 12 13  1  0  0  0
 12 14  1  0  0  0
 14 15  1  0  0  0
 14  1  1  0  0  0
 13  3  1  0  0  0
 13  7  2  0  0  0
  9 16  1  0  0  0
  9 17  1  0  0  0
 15 18  1  0  0  0
 15 19  1  0  0  0
M  END
> <minimizedAffinity>
-6.27777

> <minimizedRMSD>
0.57775

$$$$
P11297


 41 46  0  0  0  0  0  0  0  0999 V2000
   -3.9487    4.6472  -14.4296 C   0  0  0  0  0  0  0  0  0  0  0  0
   -3.2239    4.9985  -15.5521 C   0  0  0  0  0  0  0  0  0  0  0  0
   -3.7817    5.2703  -16.7505 N   0  0  0  0  0  0  0  0  0  0  0  0
   -5.1191    5.1793  -16.8811 C   0  0  0  0  0  0  0  0  0  0  0  0
   -5.7250    5.3717  -18.1211 C   0  0  0  0  0  0  0  0  0  0  0  0
   -7.0947    5.1770  -18.3090 C   0  0  0  0  0  0  0  0  0  0  0  0
   -7.8941    4.9067  -17.2196 C   0  0  0  0  0  0  0  0  0  0  0  0
   -9.2169    4.7611  -17.3831 F   0  0  0  0  0  0  0  0  0  0  0  0
   -7.3388    4.8060  -15.9489 C   0  0  0  0  0  0  0  0  0  0  0  0
   -5.9439    4.8628  -15.7836 C   0  0  0  0  0  0  0  0  0  0  0  0
   -5.3432    4.5690  -14.5386 C   0  0  0  0  0  0  0  0  0  0  0  0
   -6.2164    4.0122  -13.4366 C   0  0  0  0  0  0  0  0  0  0  0  0
   -7.5947    4.6760  -13.4129 C   0  0  0  0  0  0  0  0  0  0  0  0
   -8.2586    4.5783  -14.7949 C   0  0  0  0  0  0  0  0  0  0  0  0
   -3.1632    4.3339  -13.2270 C   0  0  0  0  0  0  0  0  0  0  0  0
   -2.4754    3.3329  -13.1238 O   0  0  0  0  0  0  0  0  0  0  0  0
   -3.2674    5.3550  -12.3471 O   0  0  0  0  0  0  0  0  0  0  0  0
   -4.3355    4.4926  -10.3481 C   0  0  0  0  0  0  0  0  0  0  0  0
   -3.0518    5.0116  -10.9703 C   0  0  0  0  0  0  0  0  0  0  0  0
   -4.9026    5.8291  -19.1953 C   0  0  0  0  0  0  0  0  0  0  0  0
   -4.2484    6.3250  -20.0160 N   0  0  0  0  0  0  0  0  0  0  0  0
   -8.4974    4.0193  -12.4721 N   0  0  0  0  0  0  0  0  0  0  0  0
   -9.2329    3.4728  -12.8322 H   0  0  0  0  0  0  0  0  0  0  0  0
   -8.3682    4.1288  -11.0904 C   0  0  0  0  0  0  0  0  0  0  0  0
   -8.8186    3.0569  -10.3129 C   0  0  0  0  0  0  0  0  0  0  0  0
   -8.8019    3.1396   -8.9353 C   0  0  0  0  0  0  0  0  0  0  0  0
   -8.3828    4.2973   -8.2954 C   0  0  0  0  0  0  0  0  0  0  0  0
   -7.9222    5.3851   -9.0265 C   0  0  0  0  0  0  0  0  0  0  0  0
   -7.9209    5.2863  -10.4341 C   0  0  0  0  0  0  0  0  0  0  0  0
   -8.5491    4.1010   -6.8245 C   0  0  0  0  0  0  0  0  0  0  0  0
   -9.3690    2.8787   -6.6667 N   0  0  0  0  0  0  0  0  0  0  0  0
   -9.1884    2.1126   -7.9255 C   0  0  0  0  0  0  0  0  0  0  0  0
  -10.3507    3.1227   -6.5360 H   0  0  0  0  0  0  0  0  0  0  0  0
   -7.4729    6.6292   -8.3805 C   0  0  0  0  0  0  0  0  0  0  0  0
   -8.2740    7.7102   -8.4250 C   0  0  0  0  0  0  0  0  0  0  0  0
   -7.9982    9.0762   -7.8615 C   0  0  0  0  0  0  0  0  0  0  0  0
   -6.2958    9.2629   -7.3606 S   0  0  0  0  0  0  0  0  0  0  0  0
   -5.4652    9.4463   -8.5382 O   0  0  0  0  0  0  0  0  0  0  0  0
   -6.2401   10.2266   -6.2756 O   0  0  0  0  0  0  0  0  0  0  0  0
   -5.9273    7.6707   -6.6721 C   0  0  0  0  0  0  0  0  0  0  0  0
   -6.1245    6.5822   -7.7100 C   0  0  0  0  0  0  0  0  0  0  0  0
 18 19  1  0  0  0
 19 17  1  0  0  0
 17 15  1  0  0  0
 15 16  2  0  0  0
 15  1  1  0  0  0
  1  2  2  0  0  0
  2  3  1  0  0  0
  3  4  2  0  0  0
  4  5  1  0  0  0
  5 20  1  0  0  0
 20 21  3  0  0  0
  5  6  2  0  0  0
  6  7  1  0  0  0
  7  8  1  0  0  0
  7  9  2  0  0  0
  9 10  1  0  0  0
 10 11  2  0  0  0
 11 12  1  0  0  0
 12 13  1  0  0  0
 13 22  1  0  0  0
 22 24  1  0  0  0
 24 25  2  0  0  0
 25 26  1  0  0  0
 26 27  2  0  0  0
 27 28  1  0  0  0
 28 34  1  0  0  0
 34 35  2  0  0  0
 35 36  1  0  0  0
 36 37  1  0  0  0
 37 38  2  0  0  0
 37 39  2  0  0  0
 37 40  1  0  0  0
 40 41  1  0  0  0
 28 29  2  0  0  0
 27 30  1  0  0  0
 30 31  1  0  0  0
 31 32  1  0  0  0
 13 14  1  0  0  0
 11  1  1  0  0  0
 29 24  1  0  0  0
 10  4  1  0  0  0
 32 26  1  0  0  0
 14  9  1  0  0  0
 41 34  1  0  0  0
 22 23  1  0  0  0
 31 33  1  0  0  0
M  END
> <minimizedAffinity>
-7.56082

> <minimizedRMSD>
0.59612

$$$$
P11331


 28 30  0  0  0  0  0  0  0  0999 V2000
   -3.8571    5.4540  -17.2194 C   0  0  0  0  0  0  0  0  0  0  0  0
   -3.8576    5.4804  -15.8633 C   0  0  0  0  0  0  0  0  0  0  0  0
   -4.9880    5.2777  -15.0228 N   0  0  0  0  0  0  0  0  0  0  0  0
   -6.2180    5.0214  -15.6395 C   0  0  0  0  0  0  0  0  0  0  0  0
   -7.5413    4.7787  -15.1621 C   0  0  0  0  0  0  0  0  0  0  0  0
   -8.7024    4.5525  -16.0249 C   0  0  0  0  0  0  0  0  0  0  0  0
   -8.6360    4.4798  -17.4235 C   0  0  0  0  0  0  0  0  0  0  0  0
   -9.9433    4.3088  -18.4651 Cl  0  0  0  0  0  0  0  0  0  0  0  0
   -7.3402    4.6534  -17.8795 C   0  0  0  0  0  0  0  0  0  0  0  0
   -6.7775    4.4860  -19.1188 C   0  0  0  0  0  0  0  0  0  0  0  0
   -7.2644    4.0354  -20.2935 N   0  0  0  0  0  0  0  0  0  0  0  0
   -5.4518    4.8778  -19.0656 N   0  0  0  0  0  0  0  0  0  0  0  0
   -5.1235    5.1360  -17.7610 C   0  0  0  0  0  0  0  0  0  0  0  0
   -6.2662    4.9441  -17.0285 C   0  0  0  0  0  0  0  0  0  0  0  0
   -8.2043    3.7500  -20.3598 H   0  0  0  0  0  0  0  0  0  0  0  0
   -6.6799    3.9920  -21.0845 H   0  0  0  0  0  0  0  0  0  0  0  0
   -4.8453    4.9578  -19.8370 H   0  0  0  0  0  0  0  0  0  0  0  0
   -2.6220    5.8230  -17.9476 C   0  0  0  0  0  0  0  0  0  0  0  0
   -1.5457    6.0383  -17.4072 O   0  0  0  0  0  0  0  0  0  0  0  0
   -2.8661    5.9704  -19.2770 O   0  0  0  0  0  0  0  0  0  0  0  0
   -1.3157    5.9875  -21.0964 C   0  0  0  0  0  0  0  0  0  0  0  0
   -2.0817    5.1172  -20.1188 C   0  0  0  0  0  0  0  0  0  0  0  0
   -7.8677    4.7494  -13.7676 C   0  0  0  0  0  0  0  0  0  0  0  0
   -8.2382    4.7045  -12.6682 N   0  0  0  0  0  0  0  0  0  0  0  0
   -4.8235    5.0377  -13.5862 C   0  0  0  0  0  0  0  0  0  0  0  0
   -4.4234    3.7013  -13.1574 N   0  0  0  0  0  0  0  0  0  0  0  0
   -4.8986    3.3975  -11.8197 C   0  0  0  0  0  0  0  0  0  0  0  0
   -3.4051    3.6429  -13.1669 H   0  0  0  0  0  0  0  0  0  0  0  0
 21 22  1  0  0  0
 22 20  1  0  0  0
 20 18  1  0  0  0
 18 19  2  0  0  0
 18  1  1  0  0  0
  1  2  2  0  0  0
  2  3  1  0  0  0
  3 25  1  0  0  0
 25 26  1  0  0  0
 26 27  1  0  0  0
  3  4  1  0  0  0
  4  5  2  0  0  0
  5 23  1  0  0  0
 23 24  3  0  0  0
  5  6  1  0  0  0
  6  7  2  0  0  0
  7  8  1  0  0  0
  7  9  1  0  0  0
  9 10  2  0  0  0
 10 11  1  0  0  0
 10 12  1  0  0  0
 12 13  1  0  0  0
 13 14  2  0  0  0
 13  1  1  0  0  0
 14  4  1  0  0  0
 14  9  1  0  0  0
 26 28  1  0  0  0
 11 15  1  0  0  0
 11 16  1  0  0  0
 12 17  1  0  0  0
M  END
> <minimizedAffinity>
-6.18330

> <minimizedRMSD>
1.43187

$$$$
P11372


 21 23  0  0  0  0  0  0  0  0999 V2000
   -5.0553    5.2994  -16.5970 C   0  0  0  0  0  0  0  0  0  0  0  0
   -4.8489    5.2859  -17.9847 C   0  0  0  0  0  0  0  0  0  0  0  0
   -5.8934    4.9792  -18.8433 C   0  0  0  0  0  0  0  0  0  0  0  0
   -7.1470    4.6838  -18.3235 C   0  0  0  0  0  0  0  0  0  0  0  0
   -7.3839    4.7326  -16.9410 C   0  0  0  0  0  0  0  0  0  0  0  0
   -8.6430    4.5400  -16.3635 C   0  0  0  0  0  0  0  0  0  0  0  0
   -9.7997    4.3738  -17.1337 N   0  0  0  0  0  0  0  0  0  0  0  0
   -8.8347    4.5118  -15.0452 N   0  0  0  0  0  0  0  0  0  0  0  0
   -7.7449    4.6775  -14.2823 C   0  0  0  0  0  0  0  0  0  0  0  0
   -6.5182    4.9964  -14.7371 N   0  0  0  0  0  0  0  0  0  0  0  0
   -6.3272    5.0042  -16.0622 C   0  0  0  0  0  0  0  0  0  0  0  0
   -9.7421    4.3825  -18.1164 H   0  0  0  0  0  0  0  0  0  0  0  0
  -10.6709    4.2482  -16.6927 H   0  0  0  0  0  0  0  0  0  0  0  0
   -7.9117    4.6804  -12.8281 C   0  0  0  0  0  0  0  0  0  0  0  0
   -7.6787    5.8445  -12.0987 C   0  0  0  0  0  0  0  0  0  0  0  0
   -7.8572    5.8209  -10.7223 C   0  0  0  0  0  0  0  0  0  0  0  0
   -8.2625    4.6403  -10.1088 C   0  0  0  0  0  0  0  0  0  0  0  0
   -8.4585    3.5221  -10.8993 C   0  0  0  0  0  0  0  0  0  0  0  0
   -8.2603    3.5107  -12.2321 N   0  0  0  0  0  0  0  0  0  0  0  0
   -2.6244    5.3779  -15.9734 C   0  0  0  0  0  0  0  0  0  0  0  0
   -3.9192    5.5655  -15.6838 C   0  0  0  0  0  0  0  0  0  0  0  0
 20 21  2  0  0  0
 21  1  1  0  0  0
  1  2  2  0  0  0
  2  3  1  0  0  0
  3  4  2  0  0  0
  4  5  1  0  0  0
  5  6  2  0  0  0
  6  7  1  0  0  0
  6  8  1  0  0  0
  8  9  2  0  0  0
  9 14  1  0  0  0
 14 15  2  0  0  0
 15 16  1  0  0  0
 16 17  2  0  0  0
 17 18  1  0  0  0
 18 19  2  0  0  0
  9 10  1  0  0  0
 10 11  2  0  0  0
 11  1  1  0  0  0
 11  5  1  0  0  0
 19 14  1  0  0  0
  7 12  1  0  0  0
  7 13  1  0  0  0
M  END
> <minimizedAffinity>
-6.63387

> <minimizedRMSD>
1.09578

$$$$
P11392


 22 23  0  0  0  0  0  0  0  0999 V2000
   -7.8870    4.6693   -6.7444 N   0  0  0  0  0  0  0  0  0  0  0  0
   -7.9072    3.7921   -6.2242 H   0  0  0  0  0  0  0  0  0  0  0  0
   -6.7607    5.4534   -6.2775 C   0  0  0  0  0  0  0  0  0  0  0  0
   -6.2550    4.6308   -5.1731 N   0  0  0  0  0  0  0  0  0  0  0  0
   -6.9837    4.5240   -4.4674 H   0  0  0  0  0  0  0  0  0  0  0  0
   -5.4419    5.0841   -4.7562 H   0  0  0  0  0  0  0  0  0  0  0  0
   -7.0699    6.8374   -5.7353 C   0  0  0  0  0  0  0  0  0  0  0  0
   -8.0423    7.0463   -4.7437 C   0  0  0  0  0  0  0  0  0  0  0  0
   -8.2777    8.3209   -4.2247 C   0  0  0  0  0  0  0  0  0  0  0  0
   -7.5287    9.4055   -4.6746 C   0  0  0  0  0  0  0  0  0  0  0  0
   -6.5497    9.2171   -5.6481 C   0  0  0  0  0  0  0  0  0  0  0  0
   -6.3204    7.9427   -6.1733 C   0  0  0  0  0  0  0  0  0  0  0  0
   -7.8308    4.3527   -8.2010 C   0  0  0  0  0  0  0  0  0  0  0  0
   -8.0807    5.5292   -9.1603 C   0  0  0  0  0  0  0  0  0  0  0  0
   -7.6832    5.4217  -10.4950 C   0  0  0  0  0  0  0  0  0  0  0  0
   -7.9170    6.4836  -11.3661 C   0  0  0  0  0  0  0  0  0  0  0  0
   -8.5261    7.6352  -10.8865 C   0  0  0  0  0  0  0  0  0  0  0  0
   -8.9149    7.6578   -9.5595 C   0  0  0  0  0  0  0  0  0  0  0  0
   -8.7358    6.6258   -8.7104 N   0  0  0  0  0  0  0  0  0  0  0  0
   -8.8168    3.2301   -8.6098 C   0  0  0  0  0  0  0  0  0  0  0  0
  -10.0032    1.9590   -6.7407 C   0  0  0  0  0  0  0  0  0  0  0  0
   -8.8781    1.9599   -7.7639 C   0  0  0  0  0  0  0  0  0  0  0  0
 21 22  1  0  0  0
 22 20  1  0  0  0
 13 20  1  0  0  0
 13  1  1  0  0  0
  1  3  1  0  0  0
  3  4  1  0  0  0
  3  7  1  0  0  0
  7  8  2  0  0  0
  8  9  1  0  0  0
  9 10  2  0  0  0
 10 11  1  0  0  0
 11 12  2  0  0  0
 13 14  1  0  0  0
 14 15  2  0  0  0
 15 16  1  0  0  0
 16 17  2  0  0  0
 17 18  1  0  0  0
 18 19  2  0  0  0
 12  7  1  0  0  0
 19 14  1  0  0  0
  1  2  1  0  0  0
  4  5  1  0  0  0
  4  6  1  0  0  0
M  END
> <minimizedAffinity>
-3.64769

> <minimizedRMSD>
1.50134

$$$$
P11393


 28 30  0  0  0  0  0  0  0  0999 V2000
   -7.8958    4.7518  -14.4245 C   0  0  0  0  0  0  0  0  0  0  0  0
   -8.9512    4.5186  -15.2259 N   0  0  0  0  0  0  0  0  0  0  0  0
   -8.7248    4.4769  -16.5499 C   0  0  0  0  0  0  0  0  0  0  0  0
   -9.8599    4.3021  -17.3441 N   0  0  0  0  0  0  0  0  0  0  0  0
   -7.4567    4.6922  -17.1138 C   0  0  0  0  0  0  0  0  0  0  0  0
   -7.1257    4.6997  -18.4935 C   0  0  0  0  0  0  0  0  0  0  0  0
   -5.8342    5.0273  -18.8927 C   0  0  0  0  0  0  0  0  0  0  0  0
   -5.4394    5.1547  -20.1826 O   0  0  0  0  0  0  0  0  0  0  0  0
   -4.8485    5.2796  -17.9577 C   0  0  0  0  0  0  0  0  0  0  0  0
   -5.1637    5.2325  -16.6095 C   0  0  0  0  0  0  0  0  0  0  0  0
   -6.4506    4.9635  -16.1837 C   0  0  0  0  0  0  0  0  0  0  0  0
   -6.6515    5.0100  -14.8759 N   0  0  0  0  0  0  0  0  0  0  0  0
  -10.7371    4.1528  -16.9229 H   0  0  0  0  0  0  0  0  0  0  0  0
   -9.7829    4.3283  -18.3252 H   0  0  0  0  0  0  0  0  0  0  0  0
   -6.0495    5.0003  -20.8768 H   0  0  0  0  0  0  0  0  0  0  0  0
   -8.2160    4.5196   -8.7693 N   0  0  0  0  0  0  0  0  0  0  0  0
   -8.0945    4.6200  -10.1620 C   0  0  0  0  0  0  0  0  0  0  0  0
   -8.2217    3.5170  -10.9952 C   0  0  0  0  0  0  0  0  0  0  0  0
   -8.1977    3.5706  -12.3454 N   0  0  0  0  0  0  0  0  0  0  0  0
   -8.0513    4.7736  -12.9454 C   0  0  0  0  0  0  0  0  0  0  0  0
   -7.9867    5.9587  -12.1766 C   0  0  0  0  0  0  0  0  0  0  0  0
   -8.0468    5.8643  -10.7819 C   0  0  0  0  0  0  0  0  0  0  0  0
   -8.2489    3.6339   -8.3406 H   0  0  0  0  0  0  0  0  0  0  0  0
   -8.2686    5.3347   -8.2197 H   0  0  0  0  0  0  0  0  0  0  0  0
   -7.8393    7.2099  -12.7913 N   0  0  0  0  0  0  0  0  0  0  0  0
   -8.7601    8.4519  -12.7739 C   0  0  0  0  0  0  0  0  0  0  0  0
   -9.8183    8.6011  -12.3101 O   0  0  0  0  0  0  0  0  0  0  0  0
   -7.0156    7.3148  -13.3202 H   0  0  0  0  0  0  0  0  0  0  0  0
 16 17  1  0  0  0
 17 18  2  0  0  0
 18 19  1  0  0  0
 19 20  2  0  0  0
 20  1  1  0  0  0
  1  2  2  0  0  0
  2  3  1  0  0  0
  3  4  1  0  0  0
  3  5  2  0  0  0
  5  6  1  0  0  0
  6  7  2  0  0  0
  7  8  1  0  0  0
  7  9  1  0  0  0
  9 10  2  0  0  0
 10 11  1  0  0  0
 11 12  2  0  0  0
 20 21  1  0  0  0
 21 25  1  0  0  0
 25 26  1  0  0  0
 26 27  2  0  0  0
 21 22  2  0  0  0
 22 17  1  0  0  0
 12  1  1  0  0  0
 11  5  1  0  0  0
 16 23  1  0  0  0
 16 24  1  0  0  0
  4 13  1  0  0  0
  4 14  1  0  0  0
  8 15  1  0  0  0
 25 28  1  0  0  0
M  END
> <minimizedAffinity>
-7.46472

> <minimizedRMSD>
1.51028

$$$$
P11397


 25 26  0  0  0  0  0  0  0  0999 V2000
   -7.3178    4.5522  -15.5224 C   0  0  0  0  0  0  0  0  0  0  0  0
   -8.2566    4.4916  -16.5595 C   0  0  0  0  0  0  0  0  0  0  0  0
   -7.8691    4.5972  -17.8898 C   0  0  0  0  0  0  0  0  0  0  0  0
   -8.8742    4.5894  -18.8682 N   0  0  0  0  0  0  0  0  0  0  0  0
   -6.5120    4.8841  -18.1725 C   0  0  0  0  0  0  0  0  0  0  0  0
   -6.0105    4.8642  -19.4831 C   0  0  0  0  0  0  0  0  0  0  0  0
   -4.6958    5.2058  -19.7919 C   0  0  0  0  0  0  0  0  0  0  0  0
   -3.8192    5.5347  -18.7793 C   0  0  0  0  0  0  0  0  0  0  0  0
   -4.2594    5.4895  -17.4603 C   0  0  0  0  0  0  0  0  0  0  0  0
   -5.5915    5.1486  -17.1220 C   0  0  0  0  0  0  0  0  0  0  0  0
   -6.0086    4.9974  -15.7773 C   0  0  0  0  0  0  0  0  0  0  0  0
   -5.0222    5.1757  -14.6460 C   0  0  0  0  0  0  0  0  0  0  0  0
   -9.8036    4.3831  -18.6176 H   0  0  0  0  0  0  0  0  0  0  0  0
   -8.6501    4.7903  -19.8056 H   0  0  0  0  0  0  0  0  0  0  0  0
   -7.6937    3.9018  -14.2214 C   0  0  0  0  0  0  0  0  0  0  0  0
   -8.4215    4.7506  -13.1914 C   0  0  0  0  0  0  0  0  0  0  0  0
   -8.6303    3.8317  -12.0876 N   0  0  0  0  0  0  0  0  0  0  0  0
   -9.6373    3.6920  -12.0051 H   0  0  0  0  0  0  0  0  0  0  0  0
   -8.1404    4.1785  -10.7574 C   0  0  0  0  0  0  0  0  0  0  0  0
   -6.6003    4.2129  -10.6495 C   0  0  0  0  0  0  0  0  0  0  0  0
   -6.0808    5.5725  -10.4209 N   0  0  0  0  0  0  0  0  0  0  0  0
   -6.3336    6.1699  -11.2081 H   0  0  0  0  0  0  0  0  0  0  0  0
   -5.0652    5.5380  -10.3327 H   0  0  0  0  0  0  0  0  0  0  0  0
   -8.5608    3.3913   -8.3317 C   0  0  0  0  0  0  0  0  0  0  0  0
   -8.7981    3.1576   -9.8111 C   0  0  0  0  0  0  0  0  0  0  0  0
 24 25  1  0  0  0
 19 25  1  0  0  0
 19 20  1  0  0  0
 20 21  1  0  0  0
 19 17  1  0  0  0
 17 16  1  0  0  0
 16 15  1  0  0  0
 15  1  1  0  0  0
  1  2  2  0  0  0
  2  3  1  0  0  0
  3  4  1  0  0  0
  3  5  2  0  0  0
  5  6  1  0  0  0
  6  7  2  0  0  0
  7  8  1  0  0  0
  8  9  2  0  0  0
  9 10  1  0  0  0
 10 11  2  0  0  0
 11 12  1  0  0  0
 11  1  1  0  0  0
 10  5  1  0  0  0
 21 22  1  0  0  0
 21 23  1  0  0  0
 17 18  1  0  0  0
  4 13  1  0  0  0
  4 14  1  0  0  0
M  END
> <minimizedAffinity>
-6.29876

> <minimizedRMSD>
0.76767

$$$$
P11904


 26 29  0  0  0  0  0  0  0  0999 V2000
   -3.5404    5.6202  -20.4355 C   0  0  0  0  0  0  0  0  0  0  0  0
   -2.5893    4.8534  -20.5916 O   0  0  0  0  0  0  0  0  0  0  0  0
   -3.5263    7.0468  -20.9431 C   0  0  0  0  0  0  0  0  0  0  0  0
   -3.2226    8.0858  -19.8563 C   0  0  0  0  0  0  0  0  0  0  0  0
   -3.8000    9.4654  -20.1923 C   0  0  0  0  0  0  0  0  0  0  0  0
   -3.7128    9.7334  -21.6188 N   0  0  0  0  0  0  0  0  0  0  0  0
   -4.5021    8.8048  -22.4513 C   0  0  0  0  0  0  0  0  0  0  0  0
   -5.8076    9.4338  -22.9406 C   0  0  0  0  0  0  0  0  0  0  0  0
   -6.1488    8.6220  -24.1818 C   0  0  0  0  0  0  0  0  0  0  0  0
   -4.8717    8.2046  -24.7740 N   0  0  0  0  0  0  0  0  0  0  0  0
   -3.8132    8.5708  -23.8166 C   0  0  0  0  0  0  0  0  0  0  0  0
   -4.7771    7.4608  -21.7160 C   0  0  0  0  0  0  0  0  0  0  0  0
   -2.7347    9.6639  -21.8995 H   0  0  0  0  0  0  0  0  0  0  0  0
   -4.7232    8.6853  -25.6612 H   0  0  0  0  0  0  0  0  0  0  0  0
   -5.5705    4.4922  -20.3438 O   0  0  0  0  0  0  0  0  0  0  0  0
   -4.7493    5.1094  -19.6815 C   0  0  0  0  0  0  0  0  0  0  0  0
   -4.7900    5.2177  -18.1935 C   0  0  0  0  0  0  0  0  0  0  0  0
   -3.5823    5.3366  -17.4795 C   0  0  0  0  0  0  0  0  0  0  0  0
   -3.5841    5.3418  -16.0890 C   0  0  0  0  0  0  0  0  0  0  0  0
   -4.7832    5.1860  -15.4045 C   0  0  0  0  0  0  0  0  0  0  0  0
   -5.9895    5.0367  -16.1060 C   0  0  0  0  0  0  0  0  0  0  0  0
   -7.1866    4.7852  -15.4191 C   0  0  0  0  0  0  0  0  0  0  0  0
   -8.3603    4.5678  -16.1267 C   0  0  0  0  0  0  0  0  0  0  0  0
   -8.3122    4.6796  -17.4976 C   0  0  0  0  0  0  0  0  0  0  0  0
   -7.1851    4.9804  -18.1710 N   0  0  0  0  0  0  0  0  0  0  0  0
   -6.0148    5.0856  -17.5188 C   0  0  0  0  0  0  0  0  0  0  0  0
 15 16  2  0  0  0
 16  1  1  0  0  0
  1  2  2  0  0  0
  3  1  1  0  0  0
  3  4  1  0  0  0
  4  5  1  0  0  0
  5  6  1  0  0  0
  6  7  1  0  0  0
  7  8  1  0  0  0
  8  9  1  0  0  0
  9 10  1  0  0  0
 10 11  1  0  0  0
  7 12  1  0  0  0
 16 17  1  0  0  0
 17 18  2  0  0  0
 18 19  1  0  0  0
 19 20  2  0  0  0
 20 21  1  0  0  0
 21 22  2  0  0  0
 22 23  1  0  0  0
 23 24  2  0  0  0
 24 25  1  0  0  0
 25 26  2  0  0  0
 12  3  1  0  0  0
 26 17  1  0  0  0
 11  7  1  0  0  0
 26 21  1  0  0  0
  6 13  1  0  0  0
 10 14  1  0  0  0
M  END
> <minimizedAffinity>
-5.75569

> <minimizedRMSD>
0.39814

$$$$
P11905


 26 29  0  0  0  0  0  0  0  0999 V2000
   -3.9155    5.7888  -19.9972 C   0  0  0  0  0  0  0  0  0  0  0  0
   -2.8482    5.1870  -20.1369 O   0  0  0  0  0  0  0  0  0  0  0  0
   -4.0801    7.2676  -20.3256 C   0  0  0  0  0  0  0  0  0  0  0  0
   -5.4273    7.8761  -19.9455 C   0  0  0  0  0  0  0  0  0  0  0  0
   -5.5313    9.2928  -20.4901 C   0  0  0  0  0  0  0  0  0  0  0  0
   -5.3955    9.4034  -21.9344 N   0  0  0  0  0  0  0  0  0  0  0  0
   -4.8107    8.2411  -22.6288 C   0  0  0  0  0  0  0  0  0  0  0  0
   -4.2254    8.7311  -23.9812 C   0  0  0  0  0  0  0  0  0  0  0  0
   -4.8029    7.8177  -25.0583 C   0  0  0  0  0  0  0  0  0  0  0  0
   -5.2979    6.6595  -24.3338 N   0  0  0  0  0  0  0  0  0  0  0  0
   -5.8648    7.2094  -23.1014 C   0  0  0  0  0  0  0  0  0  0  0  0
   -3.6848    7.5894  -21.7819 C   0  0  0  0  0  0  0  0  0  0  0  0
   -4.8042   10.2113  -22.1296 H   0  0  0  0  0  0  0  0  0  0  0  0
   -4.5367    6.0141  -24.1233 H   0  0  0  0  0  0  0  0  0  0  0  0
   -5.9120    4.5282  -20.0135 O   0  0  0  0  0  0  0  0  0  0  0  0
   -5.0704    5.0706  -19.3177 C   0  0  0  0  0  0  0  0  0  0  0  0
   -5.0907    5.0023  -17.8353 C   0  0  0  0  0  0  0  0  0  0  0  0
   -3.8755    5.0113  -17.1271 C   0  0  0  0  0  0  0  0  0  0  0  0
   -3.8764    4.8714  -15.7454 C   0  0  0  0  0  0  0  0  0  0  0  0
   -5.0827    4.7012  -15.0753 C   0  0  0  0  0  0  0  0  0  0  0  0
   -6.2988    4.6882  -15.7785 C   0  0  0  0  0  0  0  0  0  0  0  0
   -7.5121    4.4758  -15.1078 C   0  0  0  0  0  0  0  0  0  0  0  0
   -8.7056    4.4417  -15.8161 C   0  0  0  0  0  0  0  0  0  0  0  0
   -8.6516    4.6604  -17.1724 C   0  0  0  0  0  0  0  0  0  0  0  0
   -7.5040    4.9097  -17.8295 N   0  0  0  0  0  0  0  0  0  0  0  0
   -6.3246    4.8687  -17.1772 C   0  0  0  0  0  0  0  0  0  0  0  0
 15 16  2  0  0  0
 16  1  1  0  0  0
  1  2  2  0  0  0
  3  1  1  0  0  0
  3  4  1  0  0  0
  4  5  1  0  0  0
  5  6  1  0  0  0
  6  7  1  0  0  0
  7  8  1  0  0  0
  8  9  1  0  0  0
  9 10  1  0  0  0
 10 11  1  0  0  0
  7 12  1  0  0  0
 16 17  1  0  0  0
 17 18  2  0  0  0
 18 19  1  0  0  0
 19 20  2  0  0  0
 20 21  1  0  0  0
 21 22  2  0  0  0
 22 23  1  0  0  0
 23 24  2  0  0  0
 24 25  1  0  0  0
 25 26  2  0  0  0
 12  3  1  0  0  0
 26 17  1  0  0  0
 11  7  1  0  0  0
 26 21  1  0  0  0
  6 13  1  0  0  0
 10 14  1  0  0  0
M  END
> <minimizedAffinity>
-6.01420

> <minimizedRMSD>
0.54415

$$$$
P11960


 26 28  0  0  0  0  0  0  0  0999 V2000
   -7.5813    4.5778  -15.3357 C   0  0  0  0  0  0  0  0  0  0  0  0
   -8.7098    4.3743  -16.1361 C   0  0  0  0  0  0  0  0  0  0  0  0
   -8.6040    4.5571  -17.5005 C   0  0  0  0  0  0  0  0  0  0  0  0
   -7.4679    4.9452  -18.1112 N   0  0  0  0  0  0  0  0  0  0  0  0
   -6.3586    5.1049  -17.3773 C   0  0  0  0  0  0  0  0  0  0  0  0
   -5.1568    5.4528  -17.9902 C   0  0  0  0  0  0  0  0  0  0  0  0
   -3.9501    5.5893  -17.2954 C   0  0  0  0  0  0  0  0  0  0  0  0
   -3.9519    5.4098  -15.9272 C   0  0  0  0  0  0  0  0  0  0  0  0
   -2.4955    5.5941  -15.0335 Cl  0  0  0  0  0  0  0  0  0  0  0  0
   -5.1361    5.0920  -15.2682 C   0  0  0  0  0  0  0  0  0  0  0  0
   -6.3553    4.9238  -15.9726 C   0  0  0  0  0  0  0  0  0  0  0  0
   -5.1117    5.7052  -19.4332 C   0  0  0  0  0  0  0  0  0  0  0  0
   -4.7112    4.8343  -20.1916 O   0  0  0  0  0  0  0  0  0  0  0  0
   -5.3220    7.1500  -19.8978 C   0  0  0  0  0  0  0  0  0  0  0  0
   -5.9582    7.9277  -19.1892 O   0  0  0  0  0  0  0  0  0  0  0  0
   -4.6128    7.5667  -21.1808 C   0  0  0  0  0  0  0  0  0  0  0  0
   -3.1779    8.0229  -20.8757 C   0  0  0  0  0  0  0  0  0  0  0  0
   -2.4817    8.5718  -22.1183 C   0  0  0  0  0  0  0  0  0  0  0  0
   -3.2386    9.6678  -22.7228 N   0  0  0  0  0  0  0  0  0  0  0  0
   -4.5741    9.2132  -23.1061 C   0  0  0  0  0  0  0  0  0  0  0  0
   -5.3587    8.6991  -21.9023 C   0  0  0  0  0  0  0  0  0  0  0  0
   -2.7456    9.9998  -23.5517 H   0  0  0  0  0  0  0  0  0  0  0  0
   -7.6524    4.4875  -13.8221 C   0  0  0  0  0  0  0  0  0  0  0  0
   -6.7793    2.3798  -13.0598 C   0  0  0  0  0  0  0  0  0  0  0  0
   -7.9912    3.1800  -13.2516 N   0  0  0  0  0  0  0  0  0  0  0  0
   -8.4514    3.3147  -12.3513 H   0  0  0  0  0  0  0  0  0  0  0  0
 24 25  1  0  0  0
 25 23  1  0  0  0
 23  1  1  0  0  0
  1  2  2  0  0  0
  2  3  1  0  0  0
  3  4  2  0  0  0
  4  5  1  0  0  0
  5  6  2  0  0  0
  6 12  1  0  0  0
 12 13  2  0  0  0
 12 14  1  0  0  0
 14 15  2  0  0  0
 14 16  1  0  0  0
 16 17  1  0  0  0
 17 18  1  0  0  0
 18 19  1  0  0  0
 19 20  1  0  0  0
 20 21  1  0  0  0
  6  7  1  0  0  0
  7  8  2  0  0  0
  8  9  1  0  0  0
  8 10  1  0  0  0
 10 11  2  0  0  0
 11  1  1  0  0  0
 11  5  1  0  0  0
 21 16  1  0  0  0
 25 26  1  0  0  0
 19 22  1  0  0  0
M  END
> <minimizedAffinity>
-5.81409

> <minimizedRMSD>
1.00585

$$$$
P11981


 28 32  0  0  0  0  0  0  0  0999 V2000
   -5.8312    5.3323  -13.7914 O   0  0  0  0  0  0  0  0  0  0  0  0
   -6.9396    5.1530  -14.2805 C   0  0  0  0  0  0  0  0  0  0  0  0
   -7.2041    4.9218  -15.7287 C   0  0  0  0  0  0  0  0  0  0  0  0
   -8.4874    4.5276  -16.1389 C   0  0  0  0  0  0  0  0  0  0  0  0
   -8.8057    4.3842  -17.4806 C   0  0  0  0  0  0  0  0  0  0  0  0
   -7.8173    4.5710  -18.4273 C   0  0  0  0  0  0  0  0  0  0  0  0
   -6.5142    4.9060  -18.0406 C   0  0  0  0  0  0  0  0  0  0  0  0
   -5.5186    5.0213  -19.0206 C   0  0  0  0  0  0  0  0  0  0  0  0
   -4.2397    5.3096  -18.6197 C   0  0  0  0  0  0  0  0  0  0  0  0
   -4.0012    5.4943  -17.2854 C   0  0  0  0  0  0  0  0  0  0  0  0
   -4.9115    5.4169  -16.3124 N   0  0  0  0  0  0  0  0  0  0  0  0
   -6.1784    5.0991  -16.6685 C   0  0  0  0  0  0  0  0  0  0  0  0
   -2.6713    5.7430  -16.9934 O   0  0  0  0  0  0  0  0  0  0  0  0
   -2.0917    6.0007  -18.2917 C   0  0  0  0  0  0  0  0  0  0  0  0
   -2.9788    5.3860  -19.3754 C   0  0  0  0  0  0  0  0  0  0  0  0
   -8.0778    5.2055  -13.2938 C   0  0  0  0  0  0  0  0  0  0  0  0
   -9.1279    5.7577  -13.6113 O   0  0  0  0  0  0  0  0  0  0  0  0
   -7.7600    4.6478  -11.9209 C   0  0  0  0  0  0  0  0  0  0  0  0
   -8.4852    3.3272  -11.7007 C   0  0  0  0  0  0  0  0  0  0  0  0
   -9.0777    3.2211  -10.3055 C   0  0  0  0  0  0  0  0  0  0  0  0
   -8.1453    3.7477   -9.2121 C   0  0  0  0  0  0  0  0  0  0  0  0
   -8.7555    3.5187   -7.8253 C   0  0  0  0  0  0  0  0  0  0  0  0
   -8.5018    2.0447   -7.5602 C   0  0  0  0  0  0  0  0  0  0  0  0
   -7.4193    1.6495   -8.4720 N   0  0  0  0  0  0  0  0  0  0  0  0
   -6.9139    2.8581   -9.1208 C   0  0  0  0  0  0  0  0  0  0  0  0
   -7.8097    5.2321   -9.4449 C   0  0  0  0  0  0  0  0  0  0  0  0
   -8.0725    5.7129  -10.8718 C   0  0  0  0  0  0  0  0  0  0  0  0
   -7.7772    1.0027   -9.1749 H   0  0  0  0  0  0  0  0  0  0  0  0
  1  2  2  0  0  0
  2 16  1  0  0  0
 16 17  2  0  0  0
 18 16  1  0  0  0
 18 19  1  0  0  0
 19 20  1  0  0  0
 21 20  1  0  0  0
 21 22  1  0  0  0
 22 23  1  0  0  0
 23 24  1  0  0  0
 24 25  1  0  0  0
 21 26  1  0  0  0
 26 27  1  0  0  0
  2  3  1  0  0  0
  3  4  2  0  0  0
  4  5  1  0  0  0
  5  6  2  0  0  0
  6  7  1  0  0  0
  7  8  2  0  0  0
  8  9  1  0  0  0
  9 10  2  0  0  0
 10 11  1  0  0  0
 11 12  2  0  0  0
 10 13  1  0  0  0
 13 14  1  0  0  0
 14 15  1  0  0  0
 27 18  1  0  0  0
 12  3  1  0  0  0
 25 21  1  0  0  0
 12  7  1  0  0  0
 15  9  1  0  0  0
 24 28  1  0  0  0
M  END
> <minimizedAffinity>
-8.66086

> <minimizedRMSD>
0.35725

$$$$
P12067


 32 36  0  0  0  0  0  0  0  0999 V2000
   -4.2426    5.1767  -21.3521 C   0  0  0  0  0  0  0  0  0  0  0  0
   -5.3821    4.6728  -20.4594 C   0  0  0  0  0  0  0  0  0  0  0  0
   -6.1158    3.7885  -20.9262 O   0  0  0  0  0  0  0  0  0  0  0  0
   -5.4548    5.1771  -19.1594 N   0  0  0  0  0  0  0  0  0  0  0  0
   -4.6673    6.3004  -18.7626 N   0  0  0  0  0  0  0  0  0  0  0  0
   -3.4368    6.5147  -19.4148 C   0  0  0  0  0  0  0  0  0  0  0  0
   -2.4795    7.3385  -18.7981 C   0  0  0  0  0  0  0  0  0  0  0  0
   -1.2929    7.6092  -19.4592 C   0  0  0  0  0  0  0  0  0  0  0  0
   -1.0528    7.0993  -20.7270 C   0  0  0  0  0  0  0  0  0  0  0  0
   -1.9984    6.3257  -21.3720 C   0  0  0  0  0  0  0  0  0  0  0  0
   -3.2097    6.0430  -20.7104 C   0  0  0  0  0  0  0  0  0  0  0  0
    0.2815    7.5585  -21.2032 C   0  0  0  0  0  0  0  0  0  0  0  0
    0.9610    8.1207  -20.0044 N   0  0  0  0  0  0  0  0  0  0  0  0
   -0.1206    8.4291  -19.0239 C   0  0  0  0  0  0  0  0  0  0  0  0
   -0.4208    9.9240  -19.0302 C   0  0  0  0  0  0  0  0  0  0  0  0
   -4.9758    6.9085  -18.0525 H   0  0  0  0  0  0  0  0  0  0  0  0
    1.4686    8.9704  -20.2508 H   0  0  0  0  0  0  0  0  0  0  0  0
   -6.4636    4.8087  -18.1861 C   0  0  0  0  0  0  0  0  0  0  0  0
   -7.8111    4.6743  -18.5580 C   0  0  0  0  0  0  0  0  0  0  0  0
   -8.8028    4.4036  -17.6177 C   0  0  0  0  0  0  0  0  0  0  0  0
   -8.4553    4.2100  -16.2898 C   0  0  0  0  0  0  0  0  0  0  0  0
   -7.1134    4.2825  -15.8982 C   0  0  0  0  0  0  0  0  0  0  0  0
   -6.7473    4.0311  -14.5690 C   0  0  0  0  0  0  0  0  0  0  0  0
   -5.4136    4.0836  -14.1892 C   0  0  0  0  0  0  0  0  0  0  0  0
   -4.4837    4.4034  -15.1517 C   0  0  0  0  0  0  0  0  0  0  0  0
   -4.8000    4.6743  -16.4344 N   0  0  0  0  0  0  0  0  0  0  0  0
   -6.1005    4.5971  -16.8343 C   0  0  0  0  0  0  0  0  0  0  0  0
   -5.6745    7.0523  -24.4319 C   0  0  0  0  0  0  0  0  0  0  0  0
   -5.2214    7.1229  -22.9896 C   0  0  0  0  0  0  0  0  0  0  0  0
   -5.2196    8.1107  -22.3694 O   0  0  0  0  0  0  0  0  0  0  0  0
   -4.7407    5.7010  -22.6126 N   0  0  0  0  0  0  0  0  0  0  0  0
   -4.7785    5.0452  -23.3459 H   0  0  0  0  0  0  0  0  0  0  0  0
 28 29  1  0  0  0
 29 30  2  0  0  0
 29 31  1  0  0  0
  1 31  1  0  0  0
  1  2  1  0  0  0
  2  3  2  0  0  0
  2  4  1  0  0  0
  4 18  1  0  0  0
 18 19  2  0  0  0
 19 20  1  0  0  0
 20 21  2  0  0  0
 21 22  1  0  0  0
 22 23  2  0  0  0
 23 24  1  0  0  0
 24 25  2  0  0  0
 25 26  1  0  0  0
 26 27  2  0  0  0
  4  5  1  0  0  0
  5  6  1  0  0  0
  6  7  2  0  0  0
  7  8  1  0  0  0
  8  9  2  0  0  0
  9 10  1  0  0  0
 10 11  2  0  0  0
  9 12  1  0  0  0
 12 13  1  0  0  0
 13 14  1  0  0  0
 14 15  1  0  0  0
 11  1  1  0  0  0
 27 18  1  0  0  0
 11  6  1  0  0  0
 27 22  1  0  0  0
 14  8  1  0  0  0
 31 32  1  0  0  0
  5 16  1  0  0  0
 13 17  1  0  0  0
M  END
> <minimizedAffinity>
-6.34791

> <minimizedRMSD>
0.65713

$$$$
P12075


 35 39  0  0  0  0  0  0  0  0999 V2000
   -4.7261    6.8684  -20.6906 C   0  0  0  0  0  0  0  0  0  0  0  0
   -5.5876    6.6724  -19.4280 C   0  0  0  0  0  0  0  0  0  0  0  0
   -6.2716    7.6067  -18.9846 O   0  0  0  0  0  0  0  0  0  0  0  0
   -5.4590    5.4217  -18.7937 N   0  0  0  0  0  0  0  0  0  0  0  0
   -4.1613    4.7883  -18.8378 N   0  0  0  0  0  0  0  0  0  0  0  0
   -3.0829    5.5297  -19.3953 C   0  0  0  0  0  0  0  0  0  0  0  0
   -1.7703    5.2178  -18.9985 C   0  0  0  0  0  0  0  0  0  0  0  0
   -0.7125    5.9122  -19.5631 C   0  0  0  0  0  0  0  0  0  0  0  0
   -0.9270    6.8262  -20.5850 C   0  0  0  0  0  0  0  0  0  0  0  0
   -2.2045    7.1118  -21.0301 C   0  0  0  0  0  0  0  0  0  0  0  0
   -3.2981    6.4932  -20.3948 C   0  0  0  0  0  0  0  0  0  0  0  0
    0.3684    7.4452  -20.9875 C   0  0  0  0  0  0  0  0  0  0  0  0
    1.4200    6.6660  -20.2845 N   0  0  0  0  0  0  0  0  0  0  0  0
    0.7403    5.9023  -19.2065 C   0  0  0  0  0  0  0  0  0  0  0  0
    1.0059    6.5628  -17.8569 C   0  0  0  0  0  0  0  0  0  0  0  0
   -4.0279    3.8755  -18.4940 H   0  0  0  0  0  0  0  0  0  0  0  0
    2.1151    7.2959  -19.8839 H   0  0  0  0  0  0  0  0  0  0  0  0
   -6.1647    5.2495  -17.5379 C   0  0  0  0  0  0  0  0  0  0  0  0
   -7.4466    4.6802  -17.5629 C   0  0  0  0  0  0  0  0  0  0  0  0
   -8.2192    4.6353  -16.3986 C   0  0  0  0  0  0  0  0  0  0  0  0
   -7.7411    5.2160  -15.2161 C   0  0  0  0  0  0  0  0  0  0  0  0
   -6.4500    5.8036  -15.1808 C   0  0  0  0  0  0  0  0  0  0  0  0
   -5.9219    6.5090  -14.0736 C   0  0  0  0  0  0  0  0  0  0  0  0
   -4.6394    7.0344  -14.0821 C   0  0  0  0  0  0  0  0  0  0  0  0
   -3.8946    6.8600  -15.2160 C   0  0  0  0  0  0  0  0  0  0  0  0
   -4.3626    6.2377  -16.3124 N   0  0  0  0  0  0  0  0  0  0  0  0
   -5.6320    5.7529  -16.3332 C   0  0  0  0  0  0  0  0  0  0  0  0
   -8.6761    5.2884  -14.0533 C   0  0  0  0  0  0  0  0  0  0  0  0
   -8.3384    4.5660  -12.7688 C   0  0  0  0  0  0  0  0  0  0  0  0
   -9.6939    5.9746  -14.1534 O   0  0  0  0  0  0  0  0  0  0  0  0
   -5.3205   10.4623  -22.0339 C   0  0  0  0  0  0  0  0  0  0  0  0
   -5.5130    8.9757  -22.2375 C   0  0  0  0  0  0  0  0  0  0  0  0
   -6.0738    8.5222  -23.1512 O   0  0  0  0  0  0  0  0  0  0  0  0
   -4.8074    8.2830  -21.0523 N   0  0  0  0  0  0  0  0  0  0  0  0
   -4.3352    8.8927  -20.4403 H   0  0  0  0  0  0  0  0  0  0  0  0
 31 32  1  0  0  0
 32 33  2  0  0  0
 32 34  1  0  0  0
  1 34  1  0  0  0
  1  2  1  0  0  0
  2  3  2  0  0  0
  2  4  1  0  0  0
  4 18  1  0  0  0
 18 19  2  0  0  0
 19 20  1  0  0  0
 20 21  2  0  0  0
 21 28  1  0  0  0
 28 29  1  0  0  0
 28 30  2  0  0  0
 21 22  1  0  0  0
 22 23  2  0  0  0
 23 24  1  0  0  0
 24 25  2  0  0  0
 25 26  1  0  0  0
 26 27  2  0  0  0
  4  5  1  0  0  0
  5  6  1  0  0  0
  6  7  2  0  0  0
  7  8  1  0  0  0
  8  9  2  0  0  0
  9 10  1  0  0  0
 10 11  2  0  0  0
  9 12  1  0  0  0
 12 13  1  0  0  0
 13 14  1  0  0  0
 14 15  1  0  0  0
 11  1  1  0  0  0
 27 18  1  0  0  0
 11  6  1  0  0  0
 27 22  1  0  0  0
 14  8  1  0  0  0
 34 35  1  0  0  0
  5 16  1  0  0  0
 13 17  1  0  0  0
M  END
> <minimizedAffinity>
-7.27541

> <minimizedRMSD>
0.66644

$$$$
P12105


 33 35  0  0  0  0  0  0  0  0999 V2000
   -3.7303    7.4455  -21.3667 C   0  0  0  0  0  0  0  0  0  0  0  0
   -2.4180    7.6359  -21.8210 C   0  0  0  0  0  0  0  0  0  0  0  0
   -1.3147    7.3566  -21.0112 C   0  0  0  0  0  0  0  0  0  0  0  0
   -1.4966    6.8705  -19.7157 C   0  0  0  0  0  0  0  0  0  0  0  0
   -2.8208    6.6976  -19.2572 C   0  0  0  0  0  0  0  0  0  0  0  0
   -3.9465    6.9575  -20.0726 C   0  0  0  0  0  0  0  0  0  0  0  0
   -0.3386    6.5987  -18.7780 C   0  0  0  0  0  0  0  0  0  0  0  0
    0.7045    7.7097  -18.8461 C   0  0  0  0  0  0  0  0  0  0  0  0
    0.3497    5.3102  -19.0232 N   0  0  0  0  0  0  0  0  0  0  0  0
    0.7869    5.3282  -19.9446 H   0  0  0  0  0  0  0  0  0  0  0  0
   -0.3287    4.5495  -18.9835 H   0  0  0  0  0  0  0  0  0  0  0  0
    1.0647    5.1656  -18.3103 H   0  0  0  0  0  0  0  0  0  0  0  0
   -6.2420    8.0161  -24.1763 C   0  0  0  0  0  0  0  0  0  0  0  0
   -4.8769    7.5193  -23.7878 C   0  0  0  0  0  0  0  0  0  0  0  0
   -4.1028    7.0861  -24.5495 O   0  0  0  0  0  0  0  0  0  0  0  0
   -4.7870    7.6840  -22.2408 N   0  0  0  0  0  0  0  0  0  0  0  0
   -5.6113    8.0096  -21.8121 H   0  0  0  0  0  0  0  0  0  0  0  0
   -5.3376    6.7578  -19.5269 C   0  0  0  0  0  0  0  0  0  0  0  0
   -6.0863    7.7149  -19.3854 O   0  0  0  0  0  0  0  0  0  0  0  0
   -5.7115    5.3681  -19.0506 C   0  0  0  0  0  0  0  0  0  0  0  0
   -4.9873    4.4576  -19.4446 O   0  0  0  0  0  0  0  0  0  0  0  0
   -6.6427    5.1465  -17.9172 C   0  0  0  0  0  0  0  0  0  0  0  0
   -8.0535    4.8652  -18.0891 C   0  0  0  0  0  0  0  0  0  0  0  0
   -8.8588    4.5855  -17.0490 C   0  0  0  0  0  0  0  0  0  0  0  0
   -8.3429    4.6205  -15.6516 C   0  0  0  0  0  0  0  0  0  0  0  0
   -9.0909    4.5664  -14.6812 O   0  0  0  0  0  0  0  0  0  0  0  0
   -6.8686    4.7918  -15.5198 C   0  0  0  0  0  0  0  0  0  0  0  0
   -6.3097    4.6846  -14.2970 C   0  0  0  0  0  0  0  0  0  0  0  0
   -4.8709    4.7791  -14.1382 C   0  0  0  0  0  0  0  0  0  0  0  0
   -4.1159    4.9637  -15.2307 C   0  0  0  0  0  0  0  0  0  0  0  0
   -4.6583    5.1329  -16.4873 N   0  0  0  0  0  0  0  0  0  0  0  0
   -6.0413    5.0476  -16.7102 C   0  0  0  0  0  0  0  0  0  0  0  0
   -4.0603    5.3182  -17.2471 H   0  0  0  0  0  0  0  0  0  0  0  0
 13 14  1  0  0  0
 14 15  2  0  0  0
 14 16  1  0  0  0
 16  1  1  0  0  0
  1  2  2  0  0  0
  2  3  1  0  0  0
  3  4  2  0  0  0
  4  7  1  0  0  0
  7  8  1  0  0  0
  7  9  1  0  0  0
  4  5  1  0  0  0
  5  6  2  0  0  0
  6 18  1  0  0  0
 18 19  2  0  0  0
 18 20  1  0  0  0
 20 21  2  0  0  0
 20 22  1  0  0  0
 22 23  1  0  0  0
 23 24  2  0  0  0
 24 25  1  0  0  0
 25 26  2  0  0  0
 25 27  1  0  0  0
 27 28  2  0  0  0
 28 29  1  0  0  0
 29 30  2  0  0  0
 30 31  1  0  0  0
 31 32  1  0  0  0
  6  1  1  0  0  0
 32 22  2  0  0  0
 32 27  1  0  0  0
 16 17  1  0  0  0
  9 10  1  0  0  0
  9 11  1  0  0  0
  9 12  1  0  0  0
 31 33  1  0  0  0
M  CHG 1   9   1
M  END
> <minimizedAffinity>
-6.16727

> <minimizedRMSD>
0.60488

$$$$
P12259


 38 42  0  0  0  0  0  0  0  0999 V2000
   -3.2407    4.9146  -14.5502 C   0  0  0  0  0  0  0  0  0  0  0  0
   -4.7191    4.8429  -14.8130 C   0  0  0  0  0  0  0  0  0  0  0  0
   -5.0560    4.9731  -16.1275 N   0  0  0  0  0  0  0  0  0  0  0  0
   -6.3363    4.8550  -16.5247 C   0  0  0  0  0  0  0  0  0  0  0  0
   -6.6957    4.9694  -17.8772 C   0  0  0  0  0  0  0  0  0  0  0  0
   -8.0189    4.7515  -18.2987 C   0  0  0  0  0  0  0  0  0  0  0  0
   -9.0124    4.4743  -17.3788 C   0  0  0  0  0  0  0  0  0  0  0  0
   -8.6799    4.4038  -16.0336 C   0  0  0  0  0  0  0  0  0  0  0  0
   -7.3527    4.5854  -15.5776 C   0  0  0  0  0  0  0  0  0  0  0  0
   -6.9995    4.5012  -14.1954 C   0  0  0  0  0  0  0  0  0  0  0  0
   -5.6562    4.6617  -13.7898 C   0  0  0  0  0  0  0  0  0  0  0  0
   -5.3485    4.6055  -12.4346 N   0  0  0  0  0  0  0  0  0  0  0  0
   -4.8227    5.7836  -11.7364 C   0  0  0  0  0  0  0  0  0  0  0  0
   -3.7442    5.2351  -10.8017 C   0  0  0  0  0  0  0  0  0  0  0  0
   -4.1492    3.7838  -10.5962 C   0  0  0  0  0  0  0  0  0  0  0  0
   -4.6779    3.3835  -11.9692 C   0  0  0  0  0  0  0  0  0  0  0  0
   -8.0781    4.2685  -13.1523 C   0  0  0  0  0  0  0  0  0  0  0  0
   -8.6626    5.5221  -12.7860 O   0  0  0  0  0  0  0  0  0  0  0  0
   -7.9776    6.1037  -12.4206 H   0  0  0  0  0  0  0  0  0  0  0  0
   -5.7171    5.2386  -18.9743 C   0  0  0  0  0  0  0  0  0  0  0  0
   -5.4447    4.2895  -19.7212 O   0  0  0  0  0  0  0  0  0  0  0  0
   -5.1353    6.6524  -19.3088 C   0  0  0  0  0  0  0  0  0  0  0  0
   -5.6704    6.9089  -20.6332 O   0  0  0  0  0  0  0  0  0  0  0  0
   -5.6593    7.7965  -18.4383 C   0  0  0  0  0  0  0  0  0  0  0  0
   -5.8318    9.1587  -19.1190 C   0  0  0  0  0  0  0  0  0  0  0  0
   -4.7153    9.6005  -20.0584 C   0  0  0  0  0  0  0  0  0  0  0  0
   -3.3244    9.2182  -19.5758 C   0  0  0  0  0  0  0  0  0  0  0  0
   -2.7995    7.8260  -20.0128 C   0  0  0  0  0  0  0  0  0  0  0  0
   -1.4674    7.7642  -19.3287 N   0  0  0  0  0  0  0  0  0  0  0  0
   -1.3717    6.4931  -18.6348 C   0  0  0  0  0  0  0  0  0  0  0  0
   -2.8017    6.2331  -18.2278 C   0  0  0  0  0  0  0  0  0  0  0  0
   -3.5868    6.5850  -19.4798 C   0  0  0  0  0  0  0  0  0  0  0  0
   -6.6379    6.9611  -20.5864 H   0  0  0  0  0  0  0  0  0  0  0  0
   -1.3872    8.5297  -18.6594 H   0  0  0  0  0  0  0  0  0  0  0  0
   -2.5789    7.7735  -21.5582 C   0  0  0  0  0  0  0  0  0  0  0  0
   -2.4337    6.4016  -22.1039 N   0  0  0  0  0  0  0  0  0  0  0  0
   -1.6076    5.9605  -21.6997 H   0  0  0  0  0  0  0  0  0  0  0  0
   -2.3327    6.4479  -23.1179 H   0  0  0  0  0  0  0  0  0  0  0  0
  1  2  1  0  0  0
  2  3  2  0  0  0
  3  4  1  0  0  0
  4  5  2  0  0  0
  5 20  1  0  0  0
 20 21  2  0  0  0
 20 22  1  0  0  0
 22 23  1  0  0  0
 22 24  1  0  0  0
 24 25  1  0  0  0
 25 26  1  0  0  0
 26 27  1  0  0  0
 27 28  1  0  0  0
 28 35  1  0  0  0
 35 36  1  0  0  0
 28 29  1  0  0  0
 29 30  1  0  0  0
 30 31  1  0  0  0
 32 31  1  0  0  0
  5  6  1  0  0  0
  6  7  2  0  0  0
  7  8  1  0  0  0
  8  9  2  0  0  0
  9 10  1  0  0  0
 10 17  1  0  0  0
 17 18  1  0  0  0
 10 11  2  0  0  0
 11 12  1  0  0  0
 12 13  1  0  0  0
 13 14  1  0  0  0
 14 15  1  0  0  0
 15 16  1  0  0  0
 11  2  1  0  0  0
 16 12  1  0  0  0
  9  4  1  0  0  0
 32 22  1  0  0  0
 32 28  1  0  0  0
 23 33  1  0  0  0
 36 37  1  0  0  0
 36 38  1  0  0  0
 29 34  1  0  0  0
 18 19  1  0  0  0
M  END
> <minimizedAffinity>
-7.03318

> <minimizedRMSD>
0.95627

$$$$
P12484


 36 40  0  0  0  0  0  0  0  0999 V2000
   -9.9688    4.1680  -18.0294 C   0  0  0  0  0  0  0  0  0  0  0  0
   -8.5149    4.3655  -17.7407 C   0  0  0  0  0  0  0  0  0  0  0  0
   -7.6054    4.5311  -18.7660 C   0  0  0  0  0  0  0  0  0  0  0  0
   -6.2488    4.7871  -18.4908 C   0  0  0  0  0  0  0  0  0  0  0  0
   -5.8489    4.8128  -17.1258 C   0  0  0  0  0  0  0  0  0  0  0  0
   -4.5236    5.0346  -16.6721 C   0  0  0  0  0  0  0  0  0  0  0  0
   -4.1832    5.0015  -15.3219 C   0  0  0  0  0  0  0  0  0  0  0  0
   -5.1534    4.6821  -14.3885 C   0  0  0  0  0  0  0  0  0  0  0  0
   -6.4692    4.4508  -14.8117 C   0  0  0  0  0  0  0  0  0  0  0  0
   -6.8483    4.5529  -16.1455 C   0  0  0  0  0  0  0  0  0  0  0  0
   -8.1367    4.3593  -16.4551 N   0  0  0  0  0  0  0  0  0  0  0  0
   -7.3826    3.8197  -13.8391 C   0  0  0  0  0  0  0  0  0  0  0  0
   -7.2440    2.6216  -13.6274 O   0  0  0  0  0  0  0  0  0  0  0  0
   -8.3226    4.6562  -12.9771 C   0  0  0  0  0  0  0  0  0  0  0  0
   -8.9547    5.5852  -13.4739 O   0  0  0  0  0  0  0  0  0  0  0  0
   -8.2664    4.4686  -11.4648 C   0  0  0  0  0  0  0  0  0  0  0  0
   -8.7921    3.1469  -10.9094 C   0  0  0  0  0  0  0  0  0  0  0  0
   -8.6850    3.1249   -9.3843 C   0  0  0  0  0  0  0  0  0  0  0  0
   -7.3243    3.4106   -8.9043 N   0  0  0  0  0  0  0  0  0  0  0  0
   -6.7593    4.6729   -9.4380 C   0  0  0  0  0  0  0  0  0  0  0  0
   -7.3703    5.9030   -8.7529 C   0  0  0  0  0  0  0  0  0  0  0  0
   -6.5822    6.0665   -7.4546 C   0  0  0  0  0  0  0  0  0  0  0  0
   -5.4471    5.1230   -7.5105 N   0  0  0  0  0  0  0  0  0  0  0  0
   -5.3020    4.8138   -8.9479 C   0  0  0  0  0  0  0  0  0  0  0  0
   -6.8393    4.7136  -10.9683 C   0  0  0  0  0  0  0  0  0  0  0  0
   -6.7156    2.6413   -9.1839 H   0  0  0  0  0  0  0  0  0  0  0  0
   -5.6528    4.2779   -6.9778 H   0  0  0  0  0  0  0  0  0  0  0  0
   -5.3488    4.8332  -19.7223 C   0  0  0  0  0  0  0  0  0  0  0  0
   -4.2456    5.8042  -19.7689 N   0  0  0  0  0  0  0  0  0  0  0  0
   -2.9641    5.1401  -20.0294 C   0  0  0  0  0  0  0  0  0  0  0  0
   -4.4397    6.9724  -20.6496 C   0  0  0  0  0  0  0  0  0  0  0  0
   -5.4590    7.9786  -20.1164 C   0  0  0  0  0  0  0  0  0  0  0  0
   -5.4357    9.2493  -20.9651 C   0  0  0  0  0  0  0  0  0  0  0  0
   -5.0563    9.0391  -22.3249 O   0  0  0  0  0  0  0  0  0  0  0  0
   -5.4598    7.7767  -22.8369 C   0  0  0  0  0  0  0  0  0  0  0  0
   -4.7330    6.6404  -22.1270 C   0  0  0  0  0  0  0  0  0  0  0  0
  1  2  1  0  0  0
  2  3  2  0  0  0
  3  4  1  0  0  0
  4 28  1  0  0  0
 28 29  1  0  0  0
 29 30  1  0  0  0
 29 31  1  0  0  0
 31 32  1  0  0  0
 32 33  1  0  0  0
 33 34  1  0  0  0
 34 35  1  0  0  0
 35 36  1  0  0  0
  4  5  2  0  0  0
  5  6  1  0  0  0
  6  7  2  0  0  0
  7  8  1  0  0  0
  8  9  2  0  0  0
  9 12  1  0  0  0
 12 13  2  0  0  0
 12 14  1  0  0  0
 14 15  2  0  0  0
 16 14  1  0  0  0
 16 17  1  0  0  0
 17 18  1  0  0  0
 18 19  1  0  0  0
 19 20  1  0  0  0
 20 21  1  0  0  0
 21 22  1  0  0  0
 22 23  1  0  0  0
 23 24  1  0  0  0
 20 25  1  0  0  0
  9 10  1  0  0  0
 10 11  2  0  0  0
 11  2  1  0  0  0
 36 31  1  0  0  0
 10  5  1  0  0  0
 25 16  1  0  0  0
 24 20  1  0  0  0
 19 26  1  0  0  0
 23 27  1  0  0  0
M  END
> <minimizedAffinity>
-8.40557

> <minimizedRMSD>
1.35848

$$$$
P12600


 29 32  0  0  0  0  0  0  0  0999 V2000
   -5.3481    4.8615  -17.9681 C   0  0  0  0  0  0  0  0  0  0  0  0
   -4.2538    5.0356  -17.1228 C   0  0  0  0  0  0  0  0  0  0  0  0
   -4.3399    5.1236  -15.7903 N   0  0  0  0  0  0  0  0  0  0  0  0
   -5.5863    5.1027  -15.2743 C   0  0  0  0  0  0  0  0  0  0  0  0
   -6.7690    4.9277  -16.0114 C   0  0  0  0  0  0  0  0  0  0  0  0
   -8.0565    4.9281  -15.4297 C   0  0  0  0  0  0  0  0  0  0  0  0
   -9.2025    4.6612  -16.1739 C   0  0  0  0  0  0  0  0  0  0  0  0
   -9.0768    4.4542  -17.5341 C   0  0  0  0  0  0  0  0  0  0  0  0
  -10.4808    4.2229  -18.4811 Cl  0  0  0  0  0  0  0  0  0  0  0  0
   -7.8280    4.5181  -18.1493 C   0  0  0  0  0  0  0  0  0  0  0  0
   -6.6454    4.7526  -17.4031 C   0  0  0  0  0  0  0  0  0  0  0  0
   -8.2287    5.3707  -14.0319 C   0  0  0  0  0  0  0  0  0  0  0  0
   -8.3844    6.5071  -13.8245 O   0  0  0  0  0  0  0  0  0  0  0  0
   -8.0816    4.1902  -13.0575 N   0  0  0  0  0  0  0  0  0  0  0  0
   -7.8809    3.3260  -13.4844 H   0  0  0  0  0  0  0  0  0  0  0  0
   -8.1856    4.1444  -11.6758 C   0  0  0  0  0  0  0  0  0  0  0  0
   -7.6970    5.1958  -10.8783 C   0  0  0  0  0  0  0  0  0  0  0  0
   -7.8033    5.1498   -9.4870 C   0  0  0  0  0  0  0  0  0  0  0  0
   -8.4150    4.0482   -8.9277 C   0  0  0  0  0  0  0  0  0  0  0  0
   -8.8959    3.0060   -9.7233 C   0  0  0  0  0  0  0  0  0  0  0  0
   -8.7822    3.0284  -11.0976 C   0  0  0  0  0  0  0  0  0  0  0  0
   -9.5041    1.9645   -8.8457 C   0  0  0  0  0  0  0  0  0  0  0  0
   -9.7394    2.6871   -7.5785 N   0  0  0  0  0  0  0  0  0  0  0  0
   -9.7383    1.7908   -6.4479 C   0  0  0  0  0  0  0  0  0  0  0  0
   -8.6969    3.7268   -7.4949 C   0  0  0  0  0  0  0  0  0  0  0  0
   -5.0891    4.9645  -19.4438 C   0  0  0  0  0  0  0  0  0  0  0  0
   -4.7018    7.2682  -20.0527 C   0  0  0  0  0  0  0  0  0  0  0  0
   -4.0844    5.9788  -19.7788 N   0  0  0  0  0  0  0  0  0  0  0  0
   -3.4401    6.0793  -18.9944 H   0  0  0  0  0  0  0  0  0  0  0  0
 27 28  1  0  0  0
 28 26  1  0  0  0
 26  1  1  0  0  0
  1  2  2  0  0  0
  2  3  1  0  0  0
  3  4  2  0  0  0
  4  5  1  0  0  0
  5  6  2  0  0  0
  6 12  1  0  0  0
 12 13  2  0  0  0
 12 14  1  0  0  0
 14 16  1  0  0  0
 16 17  2  0  0  0
 17 18  1  0  0  0
 18 19  2  0  0  0
 19 20  1  0  0  0
 20 21  2  0  0  0
 20 22  1  0  0  0
 22 23  1  0  0  0
 23 24  1  0  0  0
 23 25  1  0  0  0
  6  7  1  0  0  0
  7  8  2  0  0  0
  8  9  1  0  0  0
  8 10  1  0  0  0
 10 11  2  0  0  0
 11  1  1  0  0  0
 11  5  1  0  0  0
 21 16  1  0  0  0
 25 19  1  0  0  0
 28 29  1  0  0  0
 14 15  1  0  0  0
M  END
> <minimizedAffinity>
-7.93585

> <minimizedRMSD>
0.57158

$$$$
P12608


 28 31  0  0  0  0  0  0  0  0999 V2000
   -5.5760    5.8249  -19.6454 N   0  0  0  0  0  0  0  0  0  0  0  0
   -5.4245    5.2643  -18.3644 C   0  0  0  0  0  0  0  0  0  0  0  0
   -4.1842    5.3248  -17.7287 C   0  0  0  0  0  0  0  0  0  0  0  0
   -3.9299    4.9657  -16.4503 N   0  0  0  0  0  0  0  0  0  0  0  0
   -4.9941    4.5743  -15.7179 C   0  0  0  0  0  0  0  0  0  0  0  0
   -6.3068    4.5185  -16.1973 C   0  0  0  0  0  0  0  0  0  0  0  0
   -7.4093    4.1196  -15.4093 C   0  0  0  0  0  0  0  0  0  0  0  0
   -8.6927    4.0711  -15.9524 C   0  0  0  0  0  0  0  0  0  0  0  0
   -8.8840    4.3618  -17.2907 C   0  0  0  0  0  0  0  0  0  0  0  0
  -10.4478    4.2464  -17.9784 Cl  0  0  0  0  0  0  0  0  0  0  0  0
   -7.8182    4.7612  -18.0874 C   0  0  0  0  0  0  0  0  0  0  0  0
   -6.5160    4.8658  -17.5639 C   0  0  0  0  0  0  0  0  0  0  0  0
   -4.7820    6.0871  -20.1650 H   0  0  0  0  0  0  0  0  0  0  0  0
   -6.4761    5.9553  -20.0223 H   0  0  0  0  0  0  0  0  0  0  0  0
   -7.2742    3.5958  -14.0232 C   0  0  0  0  0  0  0  0  0  0  0  0
   -6.9526    2.4851  -13.8791 O   0  0  0  0  0  0  0  0  0  0  0  0
   -7.7025    4.6553  -12.9868 N   0  0  0  0  0  0  0  0  0  0  0  0
   -7.8548    5.5551  -13.3561 H   0  0  0  0  0  0  0  0  0  0  0  0
   -7.9093    4.5456  -11.6105 C   0  0  0  0  0  0  0  0  0  0  0  0
   -7.6036    5.6420  -10.7864 C   0  0  0  0  0  0  0  0  0  0  0  0
   -7.8098    5.5757   -9.4021 C   0  0  0  0  0  0  0  0  0  0  0  0
   -8.3718    4.4257   -8.8755 C   0  0  0  0  0  0  0  0  0  0  0  0
   -8.7088    3.3531   -9.6936 C   0  0  0  0  0  0  0  0  0  0  0  0
   -8.4561    3.3820  -11.0570 C   0  0  0  0  0  0  0  0  0  0  0  0
   -9.3312    2.2751   -8.8659 C   0  0  0  0  0  0  0  0  0  0  0  0
   -9.5887    2.8983   -7.5397 N   0  0  0  0  0  0  0  0  0  0  0  0
   -8.7029    4.0772   -7.4625 C   0  0  0  0  0  0  0  0  0  0  0  0
   -9.3693    2.2410   -6.7911 H   0  0  0  0  0  0  0  0  0  0  0  0
  1  2  1  0  0  0
  2  3  2  0  0  0
  3  4  1  0  0  0
  4  5  2  0  0  0
  5  6  1  0  0  0
  6  7  2  0  0  0
  7 15  1  0  0  0
 15 16  2  0  0  0
 15 17  1  0  0  0
 17 19  1  0  0  0
 19 20  2  0  0  0
 20 21  1  0  0  0
 21 22  2  0  0  0
 22 23  1  0  0  0
 23 24  2  0  0  0
 23 25  1  0  0  0
 25 26  1  0  0  0
 26 27  1  0  0  0
  7  8  1  0  0  0
  8  9  2  0  0  0
  9 10  1  0  0  0
  9 11  1  0  0  0
 11 12  2  0  0  0
 12  2  1  0  0  0
 12  6  1  0  0  0
 24 19  1  0  0  0
 27 22  1  0  0  0
  1 13  1  0  0  0
  1 14  1  0  0  0
 17 18  1  0  0  0
 26 28  1  0  0  0
M  END
> <minimizedAffinity>
-8.77865

> <minimizedRMSD>
0.27346

$$$$
P12719


 38 43  0  0  0  0  0  0  0  0999 V2000
   -7.1474    4.0612  -13.6621 N   0  0  0  0  0  0  0  0  0  0  0  0
   -8.3366    4.0837  -12.7895 N   0  0  0  0  0  0  0  0  0  0  0  0
   -8.0171    3.1114  -11.6845 C   0  0  0  0  0  0  0  0  0  0  0  0
   -8.4791    3.4886  -10.2643 C   0  0  0  0  0  0  0  0  0  0  0  0
   -9.6596    2.7401   -9.6623 C   0  0  0  0  0  0  0  0  0  0  0  0
   -9.2989    2.4214   -8.2165 C   0  0  0  0  0  0  0  0  0  0  0  0
   -8.1514    3.3039   -7.9711 N   0  0  0  0  0  0  0  0  0  0  0  0
   -7.4180    3.1574   -9.2275 C   0  0  0  0  0  0  0  0  0  0  0  0
   -6.1999    4.0341   -9.4005 C   0  0  0  0  0  0  0  0  0  0  0  0
   -5.8111    4.0902  -10.8802 C   0  0  0  0  0  0  0  0  0  0  0  0
   -6.4888    2.9799  -11.7098 C   0  0  0  0  0  0  0  0  0  0  0  0
   -6.1738    3.0286  -13.1970 C   0  0  0  0  0  0  0  0  0  0  0  0
   -6.5432    1.7641  -13.7235 O   0  0  0  0  0  0  0  0  0  0  0  0
   -9.1656    3.7850  -13.3032 H   0  0  0  0  0  0  0  0  0  0  0  0
   -7.5983    2.9875   -7.1747 H   0  0  0  0  0  0  0  0  0  0  0  0
   -5.9121    1.0917  -13.4226 H   0  0  0  0  0  0  0  0  0  0  0  0
   -2.7567    5.9225  -15.4156 C   0  0  0  0  0  0  0  0  0  0  0  0
   -4.0114    5.4984  -16.1012 C   0  0  0  0  0  0  0  0  0  0  0  0
   -4.0618    5.5132  -17.4738 C   0  0  0  0  0  0  0  0  0  0  0  0
   -5.2498    5.1640  -18.1056 C   0  0  0  0  0  0  0  0  0  0  0  0
   -6.3715    4.8215  -17.3073 C   0  0  0  0  0  0  0  0  0  0  0  0
   -7.6279    4.5724  -17.8725 C   0  0  0  0  0  0  0  0  0  0  0  0
   -8.6989    4.2023  -17.0795 C   0  0  0  0  0  0  0  0  0  0  0  0
  -10.2037    3.9519  -17.8625 Cl  0  0  0  0  0  0  0  0  0  0  0  0
   -8.5478    4.0722  -15.7009 C   0  0  0  0  0  0  0  0  0  0  0  0
   -7.3004    4.2900  -15.0780 C   0  0  0  0  0  0  0  0  0  0  0  0
   -6.2172    4.7363  -15.8918 C   0  0  0  0  0  0  0  0  0  0  0  0
   -5.0542    5.1237  -15.3362 N   0  0  0  0  0  0  0  0  0  0  0  0
   -5.2363    5.2453  -19.6133 C   0  0  0  0  0  0  0  0  0  0  0  0
   -6.0878    4.3150  -20.2656 O   0  0  0  0  0  0  0  0  0  0  0  0
   -5.7947    3.4124  -20.0650 H   0  0  0  0  0  0  0  0  0  0  0  0
   -4.8037    3.3469  -13.3998 O   0  0  0  0  0  0  0  0  0  0  0  0
   -3.9778    2.2429  -13.7697 C   0  0  0  0  0  0  0  0  0  0  0  0
   -2.7201    2.1911  -12.9043 C   0  0  0  0  0  0  0  0  0  0  0  0
   -2.9438    1.6930  -11.4847 C   0  0  0  0  0  0  0  0  0  0  0  0
   -1.5846    1.1440  -11.1323 C   0  0  0  0  0  0  0  0  0  0  0  0
   -1.1725    0.5011  -12.4366 C   0  0  0  0  0  0  0  0  0  0  0  0
   -1.7223    1.3133  -13.4854 O   0  0  0  0  0  0  0  0  0  0  0  0
 17 18  1  0  0  0
 18 19  2  0  0  0
 19 20  1  0  0  0
 20 29  1  0  0  0
 29 30  1  0  0  0
 20 21  2  0  0  0
 21 22  1  0  0  0
 22 23  2  0  0  0
 23 24  1  0  0  0
 23 25  1  0  0  0
 25 26  2  0  0  0
 26  1  1  0  0  0
  1  2  1  0  0  0
  3  2  1  0  0  0
  3  4  1  0  0  0
  4  5  1  0  0  0
  5  6  1  0  0  0
  6  7  1  0  0  0
  7  8  1  0  0  0
  8  9  1  0  0  0
  9 10  1  0  0  0
 11 10  1  0  0  0
 11 12  1  0  0  0
 12 13  1  0  0  0
 12 32  1  0  0  0
 32 33  1  0  0  0
 34 33  1  0  0  0
 34 35  1  0  0  0
 35 36  1  0  0  0
 36 37  1  0  0  0
 37 38  1  0  0  0
 26 27  1  0  0  0
 27 28  2  0  0  0
 28 18  1  0  0  0
 27 21  1  0  0  0
 12  1  1  0  0  0
 38 34  1  0  0  0
 11  3  1  0  0  0
  8  4  1  0  0  0
 30 31  1  0  0  0
  2 14  1  0  0  0
  7 15  1  0  0  0
 13 16  1  0  0  0
M  END
> <minimizedAffinity>
-9.05478

> <minimizedRMSD>
0.65145

$$$$
P12724


 27 29  0  0  0  0  0  0  0  0999 V2000
   -6.8631    4.5479  -14.2585 C   0  0  0  0  0  0  0  0  0  0  0  0
   -6.7358    5.6620  -13.7695 O   0  0  0  0  0  0  0  0  0  0  0  0
   -8.9166    4.1915  -17.3097 C   0  0  0  0  0  0  0  0  0  0  0  0
   -8.5309    4.2116  -15.9791 C   0  0  0  0  0  0  0  0  0  0  0  0
   -7.1956    4.4418  -15.6689 C   0  0  0  0  0  0  0  0  0  0  0  0
   -6.2118    4.6689  -16.6256 C   0  0  0  0  0  0  0  0  0  0  0  0
   -4.9284    4.9253  -16.2849 N   0  0  0  0  0  0  0  0  0  0  0  0
   -4.0220    5.1355  -17.2659 C   0  0  0  0  0  0  0  0  0  0  0  0
   -2.6156    5.4288  -16.8408 C   0  0  0  0  0  0  0  0  0  0  0  0
   -4.3548    5.1212  -18.6124 C   0  0  0  0  0  0  0  0  0  0  0  0
   -5.6726    4.8720  -18.9671 C   0  0  0  0  0  0  0  0  0  0  0  0
   -6.6233    4.6413  -17.9713 C   0  0  0  0  0  0  0  0  0  0  0  0
   -7.9602    4.3950  -18.3054 C   0  0  0  0  0  0  0  0  0  0  0  0
  -10.7470    4.5242  -18.9667 C   0  0  0  0  0  0  0  0  0  0  0  0
  -10.3424    3.9420  -17.6501 C   0  0  0  0  0  0  0  0  0  0  0  0
   -6.7584    3.2563  -13.4527 C   0  0  0  0  0  0  0  0  0  0  0  0
   -6.2228    2.2854  -13.9794 O   0  0  0  0  0  0  0  0  0  0  0  0
   -7.4079    3.1841  -12.0747 C   0  0  0  0  0  0  0  0  0  0  0  0
   -6.3394    2.7600  -11.0530 C   0  0  0  0  0  0  0  0  0  0  0  0
   -6.7544    2.9187   -9.5880 C   0  0  0  0  0  0  0  0  0  0  0  0
   -8.2490    3.2179   -9.4171 C   0  0  0  0  0  0  0  0  0  0  0  0
   -8.5597    4.5055  -10.1833 C   0  0  0  0  0  0  0  0  0  0  0  0
   -8.1131    4.4675  -11.6394 C   0  0  0  0  0  0  0  0  0  0  0  0
   -8.6297    3.2443   -7.9915 N   0  0  0  0  0  0  0  0  0  0  0  0
   -8.6681    4.5465   -7.3535 C   0  0  0  0  0  0  0  0  0  0  0  0
   -9.7772    2.3722   -7.7282 C   0  0  0  0  0  0  0  0  0  0  0  0
  -10.3568    2.4295   -6.3203 C   0  0  0  0  0  0  0  0  0  0  0  0
 14 15  1  0  0  0
 15  3  1  0  0  0
  3  4  2  0  0  0
  4  5  1  0  0  0
  5  1  1  0  0  0
  1  2  2  0  0  0
  1 16  1  0  0  0
 16 17  2  0  0  0
 18 16  1  0  0  0
 18 19  1  0  0  0
 19 20  1  0  0  0
 20 21  1  0  0  0
 21 24  1  0  0  0
 24 25  1  0  0  0
 24 26  1  0  0  0
 26 27  1  0  0  0
 21 22  1  0  0  0
 22 23  1  0  0  0
  5  6  2  0  0  0
  6  7  1  0  0  0
  7  8  2  0  0  0
  8  9  1  0  0  0
  8 10  1  0  0  0
 10 11  2  0  0  0
 11 12  1  0  0  0
 12 13  2  0  0  0
 13  3  1  0  0  0
 23 18  1  0  0  0
 12  6  1  0  0  0
M  END
> <minimizedAffinity>
-7.59866

> <minimizedRMSD>
0.42951

$$$$
P12728


 30 32  0  0  0  0  0  0  0  0999 V2000
   -3.4673    5.4712  -14.6908 C   0  0  0  0  0  0  0  0  0  0  0  0
   -4.5269    5.1963  -15.7157 C   0  0  0  0  0  0  0  0  0  0  0  0
   -4.2177    5.2408  -17.0638 C   0  0  0  0  0  0  0  0  0  0  0  0
   -5.2136    4.9768  -18.0081 C   0  0  0  0  0  0  0  0  0  0  0  0
   -6.5258    4.6935  -17.5535 C   0  0  0  0  0  0  0  0  0  0  0  0
   -7.6144    4.4635  -18.4283 C   0  0  0  0  0  0  0  0  0  0  0  0
   -8.8801    4.2007  -17.9353 C   0  0  0  0  0  0  0  0  0  0  0  0
   -9.8993    4.0084  -18.7778 F   0  0  0  0  0  0  0  0  0  0  0  0
   -9.0980    4.1525  -16.5787 C   0  0  0  0  0  0  0  0  0  0  0  0
   -8.0305    4.3536  -15.7032 C   0  0  0  0  0  0  0  0  0  0  0  0
   -6.7445    4.6452  -16.1518 C   0  0  0  0  0  0  0  0  0  0  0  0
   -5.7664    4.9097  -15.2622 N   0  0  0  0  0  0  0  0  0  0  0  0
   -4.8790    5.0465  -19.4761 C   0  0  0  0  0  0  0  0  0  0  0  0
   -3.5131    4.7164  -19.7325 O   0  0  0  0  0  0  0  0  0  0  0  0
   -2.9365    5.3501  -19.2779 H   0  0  0  0  0  0  0  0  0  0  0  0
   -8.3342    4.3121  -14.2650 C   0  0  0  0  0  0  0  0  0  0  0  0
   -9.2773    4.9624  -13.8284 O   0  0  0  0  0  0  0  0  0  0  0  0
   -7.4993    3.4235  -13.3498 C   0  0  0  0  0  0  0  0  0  0  0  0
   -7.4586    2.2214  -13.6024 O   0  0  0  0  0  0  0  0  0  0  0  0
   -6.6540    4.0587  -12.2455 C   0  0  0  0  0  0  0  0  0  0  0  0
   -6.2231    3.0020  -11.2097 C   0  0  0  0  0  0  0  0  0  0  0  0
   -7.3175    2.7219  -10.1814 C   0  0  0  0  0  0  0  0  0  0  0  0
   -7.7244    3.9853   -9.4111 C   0  0  0  0  0  0  0  0  0  0  0  0
   -8.2369    5.0072  -10.4437 C   0  0  0  0  0  0  0  0  0  0  0  0
   -7.2271    5.3124  -11.5590 C   0  0  0  0  0  0  0  0  0  0  0  0
   -8.7895    3.8752   -8.3924 N   0  0  0  0  0  0  0  0  0  0  0  0
   -8.3642    4.4405   -7.1127 C   0  0  0  0  0  0  0  0  0  0  0  0
   -9.3340    2.5350   -8.1928 C   0  0  0  0  0  0  0  0  0  0  0  0
   -6.1152    6.1329  -11.0184 C   0  0  0  0  0  0  0  0  0  0  0  0
   -5.2349    6.7769  -10.6207 N   0  0  0  0  0  0  0  0  0  0  0  0
  1  2  1  0  0  0
  2  3  2  0  0  0
  3  4  1  0  0  0
  4 13  1  0  0  0
 13 14  1  0  0  0
  4  5  2  0  0  0
  5  6  1  0  0  0
  6  7  2  0  0  0
  7  8  1  0  0  0
  7  9  1  0  0  0
  9 10  2  0  0  0
 10 16  1  0  0  0
 16 17  2  0  0  0
 16 18  1  0  0  0
 18 19  2  0  0  0
 20 18  1  0  0  0
 20 21  1  0  0  0
 21 22  1  0  0  0
 22 23  1  0  0  0
 23 26  1  0  0  0
 26 27  1  0  0  0
 26 28  1  0  0  0
 23 24  1  0  0  0
 24 25  1  0  0  0
 25 29  1  0  0  0
 29 30  3  0  0  0
 10 11  1  0  0  0
 11 12  2  0  0  0
 12  2  1  0  0  0
 11  5  1  0  0  0
 25 20  1  0  0  0
 14 15  1  0  0  0
M  END
> <minimizedAffinity>
-8.08238

> <minimizedRMSD>
0.36441

$$$$
P12729


 36 39  0  0  0  0  0  0  0  0999 V2000
   -6.9393    5.2893  -13.2368 C   0  0  0  0  0  0  0  0  0  0  0  0
   -7.3317    6.4555  -13.2439 O   0  0  0  0  0  0  0  0  0  0  0  0
   -6.5361    5.8686   -7.9404 C   0  0  0  0  0  0  0  0  0  0  0  0
   -5.7167    4.7028   -8.5125 C   0  0  0  0  0  0  0  0  0  0  0  0
   -6.1160    4.2377   -9.9473 C   0  0  0  0  0  0  0  0  0  0  0  0
   -7.6765    4.1333   -9.9700 C   0  0  0  0  0  0  0  0  0  0  0  0
   -8.3924    5.3448   -9.3727 C   0  0  0  0  0  0  0  0  0  0  0  0
   -7.9669    5.5969   -7.9953 N   0  0  0  0  0  0  0  0  0  0  0  0
   -5.6573    5.2665  -11.0199 C   0  0  0  0  0  0  0  0  0  0  0  0
   -5.6905    4.8087  -12.4925 C   0  0  0  0  0  0  0  0  0  0  0  0
   -5.2998    3.3471  -12.7289 C   0  0  0  0  0  0  0  0  0  0  0  0
   -5.8354    2.3889  -11.6836 C   0  0  0  0  0  0  0  0  0  0  0  0
   -5.5067    2.8026  -10.2349 C   0  0  0  0  0  0  0  0  0  0  0  0
   -8.1742    4.7769   -7.4252 H   0  0  0  0  0  0  0  0  0  0  0  0
   -4.1064    2.5286   -9.7918 N   0  0  0  0  0  0  0  0  0  0  0  0
   -3.7246    1.1258  -10.0178 C   0  0  0  0  0  0  0  0  0  0  0  0
   -3.0256    3.3914  -10.2363 C   0  0  0  0  0  0  0  0  0  0  0  0
   -4.9958    7.6543   -8.2154 C   0  0  0  0  0  0  0  0  0  0  0  0
   -6.2416    7.0960   -8.5977 O   0  0  0  0  0  0  0  0  0  0  0  0
   -7.7253    4.3033  -14.0703 C   0  0  0  0  0  0  0  0  0  0  0  0
   -8.4576    3.5176  -13.4868 O   0  0  0  0  0  0  0  0  0  0  0  0
   -7.6813    4.3701  -15.5488 C   0  0  0  0  0  0  0  0  0  0  0  0
   -8.8917    4.1944  -16.2287 C   0  0  0  0  0  0  0  0  0  0  0  0
   -8.9097    4.2597  -17.6052 C   0  0  0  0  0  0  0  0  0  0  0  0
  -10.0589    4.0819  -18.2661 F   0  0  0  0  0  0  0  0  0  0  0  0
   -7.7433    4.5133  -18.3111 C   0  0  0  0  0  0  0  0  0  0  0  0
   -6.5076    4.6779  -17.6411 C   0  0  0  0  0  0  0  0  0  0  0  0
   -5.2756    4.9257  -18.2997 C   0  0  0  0  0  0  0  0  0  0  0  0
   -4.1031    5.0587  -17.5550 C   0  0  0  0  0  0  0  0  0  0  0  0
   -4.1598    4.9108  -16.1921 C   0  0  0  0  0  0  0  0  0  0  0  0
   -2.9218    5.0602  -15.3657 C   0  0  0  0  0  0  0  0  0  0  0  0
   -5.3216    4.6894  -15.5471 N   0  0  0  0  0  0  0  0  0  0  0  0
   -6.4788    4.5876  -16.2297 C   0  0  0  0  0  0  0  0  0  0  0  0
   -5.1336    5.1337  -19.7734 C   0  0  0  0  0  0  0  0  0  0  0  0
   -5.3722    6.5081  -20.0341 O   0  0  0  0  0  0  0  0  0  0  0  0
   -6.2624    6.7450  -19.7303 H   0  0  0  0  0  0  0  0  0  0  0  0
 18 19  1  0  0  0
  3 19  1  0  0  0
  3  4  1  0  0  0
  5  4  1  0  0  0
  5  6  1  0  0  0
  6  7  1  0  0  0
  7  8  1  0  0  0
  5  9  1  0  0  0
  9 10  1  0  0  0
 10  1  1  0  0  0
  1  2  2  0  0  0
  1 20  1  0  0  0
 20 21  2  0  0  0
 20 22  1  0  0  0
 22 23  2  0  0  0
 23 24  1  0  0  0
 24 25  1  0  0  0
 24 26  2  0  0  0
 26 27  1  0  0  0
 27 28  2  0  0  0
 28 34  1  0  0  0
 34 35  1  0  0  0
 28 29  1  0  0  0
 29 30  2  0  0  0
 30 31  1  0  0  0
 30 32  1  0  0  0
 32 33  2  0  0  0
 10 11  1  0  0  0
 11 12  1  0  0  0
 12 13  1  0  0  0
 13 15  1  0  0  0
 15 16  1  0  0  0
 15 17  1  0  0  0
  8  3  1  0  0  0
 33 22  1  0  0  0
 13  5  1  0  0  0
 33 27  1  0  0  0
  8 14  1  0  0  0
 35 36  1  0  0  0
M  END
> <minimizedAffinity>
-7.35338

> <minimizedRMSD>
0.35961

$$$$
P12731


 38 41  0  0  0  0  0  0  0  0999 V2000
   -1.7955    6.9389  -17.3907 C   0  0  0  0  0  0  0  0  0  0  0  0
   -2.7481    7.7931  -16.6718 N   0  0  0  0  0  0  0  0  0  0  0  0
   -4.1023    7.5175  -17.1552 N   0  0  0  0  0  0  0  0  0  0  0  0
   -4.3095    6.0283  -17.1675 C   0  0  0  0  0  0  0  0  0  0  0  0
   -2.6384    5.3455  -17.6004 S   0  0  0  0  0  0  0  0  0  0  0  0
   -4.6957    5.4319  -15.7599 C   0  0  0  0  0  0  0  0  0  0  0  0
   -3.8411    5.8592  -14.5568 C   0  0  0  0  0  0  0  0  0  0  0  0
   -6.0926    5.7409  -15.4060 N   0  0  0  0  0  0  0  0  0  0  0  0
   -6.9723    5.0660  -16.2804 C   0  0  0  0  0  0  0  0  0  0  0  0
   -8.1982    4.5758  -15.7984 C   0  0  0  0  0  0  0  0  0  0  0  0
   -9.1671    4.0767  -16.6583 C   0  0  0  0  0  0  0  0  0  0  0  0
   -8.9083    4.0367  -18.0059 C   0  0  0  0  0  0  0  0  0  0  0  0
   -9.8400    3.5632  -18.8375 F   0  0  0  0  0  0  0  0  0  0  0  0
   -7.7028    4.4994  -18.5118 C   0  0  0  0  0  0  0  0  0  0  0  0
   -6.7115    5.0311  -17.6643 C   0  0  0  0  0  0  0  0  0  0  0  0
   -5.4759    5.7371  -18.2227 C   0  0  0  0  0  0  0  0  0  0  0  0
   -2.5196    8.7733  -16.8375 H   0  0  0  0  0  0  0  0  0  0  0  0
   -4.2131    7.8883  -18.0990 H   0  0  0  0  0  0  0  0  0  0  0  0
   -6.3713    6.3308  -14.6687 H   0  0  0  0  0  0  0  0  0  0  0  0
   -1.6584    6.6597  -19.9401 C   0  0  0  0  0  0  0  0  0  0  0  0
   -1.2904    7.5380  -18.7333 C   0  0  0  0  0  0  0  0  0  0  0  0
    0.2341    7.7290  -18.7283 C   0  0  0  0  0  0  0  0  0  0  0  0
   -4.9584    5.1989  -19.5593 C   0  0  0  0  0  0  0  0  0  0  0  0
   -5.1669    6.1644  -20.5942 O   0  0  0  0  0  0  0  0  0  0  0  0
   -6.1154    6.3497  -20.6772 H   0  0  0  0  0  0  0  0  0  0  0  0
   -8.5401    4.5847  -14.3718 C   0  0  0  0  0  0  0  0  0  0  0  0
   -9.4710    5.2891  -14.0003 O   0  0  0  0  0  0  0  0  0  0  0  0
   -7.7686    3.6499  -13.4362 C   0  0  0  0  0  0  0  0  0  0  0  0
   -7.4799    2.5223  -13.8365 O   0  0  0  0  0  0  0  0  0  0  0  0
   -7.3476    4.1247  -12.0516 C   0  0  0  0  0  0  0  0  0  0  0  0
   -7.0825    2.8899  -11.1906 C   0  0  0  0  0  0  0  0  0  0  0  0
   -6.6219    3.2178   -9.7741 C   0  0  0  0  0  0  0  0  0  0  0  0
   -7.4154    4.3126   -9.0263 C   0  0  0  0  0  0  0  0  0  0  0  0
   -7.7183    5.4861   -9.9724 C   0  0  0  0  0  0  0  0  0  0  0  0
   -8.2999    5.0620  -11.3151 C   0  0  0  0  0  0  0  0  0  0  0  0
   -8.6679    3.9925   -8.3100 N   0  0  0  0  0  0  0  0  0  0  0  0
   -8.6042    4.3992   -6.9039 C   0  0  0  0  0  0  0  0  0  0  0  0
   -9.0946    2.6019   -8.3784 C   0  0  0  0  0  0  0  0  0  0  0  0
 20 21  1  0  0  0
 21 22  1  0  0  0
  1 21  1  0  0  0
  1  2  1  0  0  0
  2  3  1  0  0  0
  4  3  1  0  0  0
  4  5  1  0  0  0
  4  6  1  0  0  0
  6  7  1  0  0  0
  6  8  1  0  0  0
  8  9  1  0  0  0
  9 10  2  0  0  0
 10 26  1  0  0  0
 26 27  2  0  0  0
 26 28  1  0  0  0
 28 29  2  0  0  0
 30 28  1  0  0  0
 30 31  1  0  0  0
 31 32  1  0  0  0
 32 33  1  0  0  0
 33 36  1  0  0  0
 36 37  1  0  0  0
 36 38  1  0  0  0
 33 34  1  0  0  0
 34 35  1  0  0  0
 10 11  1  0  0  0
 11 12  2  0  0  0
 12 13  1  0  0  0
 12 14  1  0  0  0
 14 15  2  0  0  0
 15 16  1  0  0  0
 16 23  1  0  0  0
 23 24  1  0  0  0
  5  1  1  0  0  0
 15  9  1  0  0  0
 16  4  1  0  0  0
 35 30  1  0  0  0
  2 17  1  0  0  0
  3 18  1  0  0  0
  8 19  1  0  0  0
 24 25  1  0  0  0
M  END
> <minimizedAffinity>
-8.05359

> <minimizedRMSD>
0.66006

$$$$
P12732


 38 41  0  0  0  0  0  0  0  0999 V2000
   -1.4784    5.6180  -18.0615 C   0  0  0  0  0  0  0  0  0  0  0  0
   -2.0578    6.6722  -17.2219 N   0  0  0  0  0  0  0  0  0  0  0  0
   -3.4803    6.8086  -17.5288 N   0  0  0  0  0  0  0  0  0  0  0  0
   -4.1018    5.4410  -17.5280 C   0  0  0  0  0  0  0  0  0  0  0  0
   -2.7796    4.3618  -18.2493 S   0  0  0  0  0  0  0  0  0  0  0  0
   -4.4325    4.8763  -16.0897 C   0  0  0  0  0  0  0  0  0  0  0  0
   -3.3644    5.0613  -15.0030 C   0  0  0  0  0  0  0  0  0  0  0  0
   -5.6877    5.4324  -15.5475 N   0  0  0  0  0  0  0  0  0  0  0  0
   -6.7769    4.9806  -16.3247 C   0  0  0  0  0  0  0  0  0  0  0  0
   -7.9973    4.6506  -15.7157 C   0  0  0  0  0  0  0  0  0  0  0  0
   -9.1302    4.4010  -16.4696 C   0  0  0  0  0  0  0  0  0  0  0  0
   -9.0480    4.4403  -17.8349 C   0  0  0  0  0  0  0  0  0  0  0  0
  -10.1503    4.2187  -18.5461 F   0  0  0  0  0  0  0  0  0  0  0  0
   -7.8508    4.7144  -18.4717 C   0  0  0  0  0  0  0  0  0  0  0  0
   -6.6948    5.0114  -17.7322 C   0  0  0  0  0  0  0  0  0  0  0  0
   -5.4333    5.5593  -18.3929 C   0  0  0  0  0  0  0  0  0  0  0  0
   -1.5830    7.5555  -17.4083 H   0  0  0  0  0  0  0  0  0  0  0  0
   -3.5944    7.2378  -18.4471 H   0  0  0  0  0  0  0  0  0  0  0  0
   -5.7552    6.0263  -14.7652 H   0  0  0  0  0  0  0  0  0  0  0  0
   -1.4481    5.2901  -20.6041 C   0  0  0  0  0  0  0  0  0  0  0  0
   -0.9228    6.1207  -19.4230 C   0  0  0  0  0  0  0  0  0  0  0  0
    0.6129    6.0809  -19.4610 C   0  0  0  0  0  0  0  0  0  0  0  0
   -5.2526    5.2039  -19.8731 C   0  0  0  0  0  0  0  0  0  0  0  0
   -4.7505    6.3239  -20.6107 O   0  0  0  0  0  0  0  0  0  0  0  0
   -5.3803    7.0591  -20.5508 H   0  0  0  0  0  0  0  0  0  0  0  0
   -8.1936    4.5701  -14.2691 C   0  0  0  0  0  0  0  0  0  0  0  0
   -9.1192    5.2039  -13.7712 O   0  0  0  0  0  0  0  0  0  0  0  0
   -7.3243    3.6135  -13.4515 C   0  0  0  0  0  0  0  0  0  0  0  0
   -6.5138    2.8866  -14.0205 O   0  0  0  0  0  0  0  0  0  0  0  0
   -7.5718    3.5564  -11.9462 C   0  0  0  0  0  0  0  0  0  0  0  0
   -6.4745    2.6962  -11.3165 C   0  0  0  0  0  0  0  0  0  0  0  0
   -6.4851    2.6505   -9.7952 C   0  0  0  0  0  0  0  0  0  0  0  0
   -7.0262    3.9097   -9.0820 C   0  0  0  0  0  0  0  0  0  0  0  0
   -6.8587    5.1084  -10.0220 C   0  0  0  0  0  0  0  0  0  0  0  0
   -7.6307    4.9599  -11.3274 C   0  0  0  0  0  0  0  0  0  0  0  0
   -8.4140    3.9296   -8.5625 N   0  0  0  0  0  0  0  0  0  0  0  0
   -9.0920    2.6368   -8.5896 C   0  0  0  0  0  0  0  0  0  0  0  0
   -8.4320    4.4463   -7.1887 C   0  0  0  0  0  0  0  0  0  0  0  0
 20 21  1  0  0  0
 21 22  1  0  0  0
  1 21  1  0  0  0
  1  2  1  0  0  0
  2  3  1  0  0  0
  4  3  1  0  0  0
  4  5  1  0  0  0
  4  6  1  0  0  0
  6  7  1  0  0  0
  6  8  1  0  0  0
  8  9  1  0  0  0
  9 10  2  0  0  0
 10 26  1  0  0  0
 26 27  2  0  0  0
 26 28  1  0  0  0
 28 29  2  0  0  0
 30 28  1  0  0  0
 30 31  1  0  0  0
 31 32  1  0  0  0
 32 33  1  0  0  0
 33 36  1  0  0  0
 36 37  1  0  0  0
 36 38  1  0  0  0
 33 34  1  0  0  0
 34 35  1  0  0  0
 10 11  1  0  0  0
 11 12  2  0  0  0
 12 13  1  0  0  0
 12 14  1  0  0  0
 14 15  2  0  0  0
 15 16  1  0  0  0
 16 23  1  0  0  0
 23 24  1  0  0  0
  5  1  1  0  0  0
 15  9  1  0  0  0
 16  4  1  0  0  0
 35 30  1  0  0  0
  2 17  1  0  0  0
  3 18  1  0  0  0
  8 19  1  0  0  0
 24 25  1  0  0  0
M  END
> <minimizedAffinity>
-7.51665

> <minimizedRMSD>
0.47380

$$$$
P12735


 33 35  0  0  0  0  0  0  0  0999 V2000
   -8.4032    4.3625  -14.4413 C   0  0  0  0  0  0  0  0  0  0  0  0
   -9.3111    5.0843  -14.0336 O   0  0  0  0  0  0  0  0  0  0  0  0
   -8.0281    4.3968  -15.8466 C   0  0  0  0  0  0  0  0  0  0  0  0
   -9.0694    4.2271  -16.7570 C   0  0  0  0  0  0  0  0  0  0  0  0
   -8.7817    4.2622  -18.0961 C   0  0  0  0  0  0  0  0  0  0  0  0
   -9.7596    4.0826  -18.9862 F   0  0  0  0  0  0  0  0  0  0  0  0
   -7.4838    4.4775  -18.5230 C   0  0  0  0  0  0  0  0  0  0  0  0
   -6.4290    4.6912  -17.6026 C   0  0  0  0  0  0  0  0  0  0  0  0
   -5.0935    4.9531  -17.9906 C   0  0  0  0  0  0  0  0  0  0  0  0
   -4.1262    5.1484  -17.0043 C   0  0  0  0  0  0  0  0  0  0  0  0
   -4.4911    5.0837  -15.6751 C   0  0  0  0  0  0  0  0  0  0  0  0
   -3.4499    5.2593  -14.6150 C   0  0  0  0  0  0  0  0  0  0  0  0
   -5.7632    4.8682  -15.2801 N   0  0  0  0  0  0  0  0  0  0  0  0
   -6.7092    4.6467  -16.2197 C   0  0  0  0  0  0  0  0  0  0  0  0
   -4.7002    5.0852  -19.4323 C   0  0  0  0  0  0  0  0  0  0  0  0
   -3.3851    4.5867  -19.6819 O   0  0  0  0  0  0  0  0  0  0  0  0
   -2.7423    5.0970  -19.1648 H   0  0  0  0  0  0  0  0  0  0  0  0
   -7.6990    3.4149  -13.4831 C   0  0  0  0  0  0  0  0  0  0  0  0
   -7.4416    2.2570  -13.7754 O   0  0  0  0  0  0  0  0  0  0  0  0
   -5.9511    4.2059  -10.1526 C   0  0  0  0  0  0  0  0  0  0  0  0
   -6.1283    3.5312  -11.5221 C   0  0  0  0  0  0  0  0  0  0  0  0
   -7.4523    3.9983  -12.1177 C   0  0  0  0  0  0  0  0  0  0  0  0
   -8.6199    3.6212  -11.2199 C   0  0  0  0  0  0  0  0  0  0  0  0
   -8.4533    4.1404   -9.8035 C   0  0  0  0  0  0  0  0  0  0  0  0
   -7.1003    3.7412   -9.2279 C   0  0  0  0  0  0  0  0  0  0  0  0
   -6.9933    4.3698   -7.8994 N   0  0  0  0  0  0  0  0  0  0  0  0
   -7.0696    5.3824   -7.9953 H   0  0  0  0  0  0  0  0  0  0  0  0
   -6.0922    4.1346   -7.4835 H   0  0  0  0  0  0  0  0  0  0  0  0
   -7.7442    4.0276   -7.2998 H   0  0  0  0  0  0  0  0  0  0  0  0
   -4.5242    3.9677   -9.6362 C   0  0  0  0  0  0  0  0  0  0  0  0
   -4.0430    6.2715   -9.0077 C   0  0  0  0  0  0  0  0  0  0  0  0
   -4.1505    4.8852   -8.5430 N   0  0  0  0  0  0  0  0  0  0  0  0
   -4.8615    4.8360   -7.8132 H   0  0  0  0  0  0  0  0  0  0  0  0
 31 32  1  0  0  0
 32 30  1  0  0  0
 20 30  1  0  0  0
 20 21  1  0  0  0
 21 22  1  0  0  0
 22 18  1  0  0  0
 18 19  2  0  0  0
 18  1  1  0  0  0
  1  2  2  0  0  0
  1  3  1  0  0  0
  3  4  2  0  0  0
  4  5  1  0  0  0
  5  6  1  0  0  0
  5  7  2  0  0  0
  7  8  1  0  0  0
  8  9  2  0  0  0
  9 15  1  0  0  0
 15 16  1  0  0  0
  9 10  1  0  0  0
 10 11  2  0  0  0
 11 12  1  0  0  0
 11 13  1  0  0  0
 13 14  2  0  0  0
 22 23  1  0  0  0
 23 24  1  0  0  0
 24 25  1  0  0  0
 25 26  1  0  0  0
 25 20  1  0  0  0
 14  3  1  0  0  0
 14  8  1  0  0  0
 32 33  1  0  0  0
 16 17  1  0  0  0
 26 27  1  0  0  0
 26 28  1  0  0  0
 26 29  1  0  0  0
M  CHG 1  26   1
M  END
> <minimizedAffinity>
-7.81670

> <minimizedRMSD>
0.71987

$$$$
P12750


 33 36  0  0  0  0  0  0  0  0999 V2000
   -4.6023    6.1561  -16.7956 C   0  0  0  0  0  0  0  0  0  0  0  0
   -5.0495    6.1276  -15.4778 C   0  0  0  0  0  0  0  0  0  0  0  0
   -4.2546    6.6772  -14.3298 C   0  0  0  0  0  0  0  0  0  0  0  0
   -6.2717    5.6678  -15.1386 N   0  0  0  0  0  0  0  0  0  0  0  0
   -7.0987    5.1657  -16.0754 C   0  0  0  0  0  0  0  0  0  0  0  0
   -8.3726    4.7288  -15.7135 C   0  0  0  0  0  0  0  0  0  0  0  0
   -9.2844    4.1477  -16.5927 C   0  0  0  0  0  0  0  0  0  0  0  0
   -8.8983    4.0079  -17.9052 C   0  0  0  0  0  0  0  0  0  0  0  0
   -9.7235    3.4234  -18.7814 F   0  0  0  0  0  0  0  0  0  0  0  0
   -7.6615    4.4830  -18.3304 C   0  0  0  0  0  0  0  0  0  0  0  0
   -6.7380    5.0820  -17.4272 C   0  0  0  0  0  0  0  0  0  0  0  0
   -5.4707    5.6330  -17.7878 C   0  0  0  0  0  0  0  0  0  0  0  0
   -5.1183    5.8104  -19.2386 C   0  0  0  0  0  0  0  0  0  0  0  0
   -5.7554    7.0072  -19.6771 O   0  0  0  0  0  0  0  0  0  0  0  0
   -6.7137    6.9292  -19.5485 H   0  0  0  0  0  0  0  0  0  0  0  0
   -8.7618    4.9112  -14.3203 C   0  0  0  0  0  0  0  0  0  0  0  0
   -9.4988    5.8338  -14.0112 O   0  0  0  0  0  0  0  0  0  0  0  0
   -8.1671    3.9209  -13.3240 C   0  0  0  0  0  0  0  0  0  0  0  0
   -7.5848    2.9364  -13.7731 O   0  0  0  0  0  0  0  0  0  0  0  0
   -8.3925    4.1167  -11.8441 C   0  0  0  0  0  0  0  0  0  0  0  0
   -7.6260    2.9893  -11.1040 C   0  0  0  0  0  0  0  0  0  0  0  0
   -7.6301    3.0706   -9.5731 C   0  0  0  0  0  0  0  0  0  0  0  0
   -8.0704    4.4035   -9.0919 C   0  0  0  0  0  0  0  0  0  0  0  0
   -8.1321    5.5438   -9.8571 C   0  0  0  0  0  0  0  0  0  0  0  0
   -8.3248    6.6267   -8.9826 C   0  0  0  0  0  0  0  0  0  0  0  0
   -8.5416    6.0995   -7.7288 C   0  0  0  0  0  0  0  0  0  0  0  0
   -8.5261    4.7312   -7.8449 N   0  0  0  0  0  0  0  0  0  0  0  0
   -8.9662    3.8329   -6.8053 C   0  0  0  0  0  0  0  0  0  0  0  0
   -7.9832    5.5060  -11.3256 C   0  0  0  0  0  0  0  0  0  0  0  0
   -3.2755    6.7912  -17.1603 C   0  0  0  0  0  0  0  0  0  0  0  0
   -1.4574    5.8263  -18.3982 C   0  0  0  0  0  0  0  0  0  0  0  0
   -2.1827    5.8117  -17.1363 N   0  0  0  0  0  0  0  0  0  0  0  0
   -1.5413    6.0430  -16.3777 H   0  0  0  0  0  0  0  0  0  0  0  0
 31 32  1  0  0  0
 32 30  1  0  0  0
 30  1  1  0  0  0
  1  2  2  0  0  0
  2  3  1  0  0  0
  2  4  1  0  0  0
  4  5  2  0  0  0
  5  6  1  0  0  0
  6 16  1  0  0  0
 16 17  2  0  0  0
 16 18  1  0  0  0
 18 19  2  0  0  0
 20 18  1  0  0  0
 20 21  1  0  0  0
 21 22  1  0  0  0
 22 23  1  0  0  0
 23 24  2  0  0  0
 24 25  1  0  0  0
 25 26  2  0  0  0
 26 27  1  0  0  0
 27 28  1  0  0  0
 24 29  1  0  0  0
  6  7  2  0  0  0
  7  8  1  0  0  0
  8  9  1  0  0  0
  8 10  2  0  0  0
 10 11  1  0  0  0
 11 12  2  0  0  0
 12 13  1  0  0  0
 13 14  1  0  0  0
 12  1  1  0  0  0
 11  5  1  0  0  0
 29 20  1  0  0  0
 27 23  1  0  0  0
 32 33  1  0  0  0
 14 15  1  0  0  0
M  END
> <minimizedAffinity>
-7.81179

> <minimizedRMSD>
1.47875

$$$$
P12762


 31 33  0  0  0  0  0  0  0  0999 V2000
   -5.2757    5.8156  -18.0825 C   0  0  0  0  0  0  0  0  0  0  0  0
   -4.3314    4.7443  -18.6535 C   0  0  0  0  0  0  0  0  0  0  0  0
   -4.5643    6.4856  -16.8780 C   0  0  0  0  0  0  0  0  0  0  0  0
   -4.8042    5.7133  -15.5894 C   0  0  0  0  0  0  0  0  0  0  0  0
   -4.0757    6.3361  -14.4103 C   0  0  0  0  0  0  0  0  0  0  0  0
   -6.2267    5.7776  -15.2875 N   0  0  0  0  0  0  0  0  0  0  0  0
   -6.9963    5.1403  -16.2873 C   0  0  0  0  0  0  0  0  0  0  0  0
   -8.2472    4.6092  -15.9268 C   0  0  0  0  0  0  0  0  0  0  0  0
   -9.1349    4.1271  -16.8845 C   0  0  0  0  0  0  0  0  0  0  0  0
   -8.7386    4.0913  -18.2135 C   0  0  0  0  0  0  0  0  0  0  0  0
   -7.4804    4.5819  -18.5779 C   0  0  0  0  0  0  0  0  0  0  0  0
   -6.6103    5.1704  -17.6425 C   0  0  0  0  0  0  0  0  0  0  0  0
   -6.6050    6.2102  -14.4882 H   0  0  0  0  0  0  0  0  0  0  0  0
   -8.6312    4.5421  -14.5071 C   0  0  0  0  0  0  0  0  0  0  0  0
   -9.6056    5.1640  -14.0961 O   0  0  0  0  0  0  0  0  0  0  0  0
   -7.8087    3.6490  -13.5669 C   0  0  0  0  0  0  0  0  0  0  0  0
   -7.0443    2.7995  -14.0111 O   0  0  0  0  0  0  0  0  0  0  0  0
   -8.0882    3.7617  -12.0762 C   0  0  0  0  0  0  0  0  0  0  0  0
   -7.1487    2.8006  -11.3140 C   0  0  0  0  0  0  0  0  0  0  0  0
   -7.2022    2.9790   -9.7985 C   0  0  0  0  0  0  0  0  0  0  0  0
   -8.4156    3.8058   -9.3893 C   0  0  0  0  0  0  0  0  0  0  0  0
   -8.5234    3.8204   -7.9212 N   0  0  0  0  0  0  0  0  0  0  0  0
   -8.2849    5.2107   -9.9718 C   0  0  0  0  0  0  0  0  0  0  0  0
   -7.9549    5.1716  -11.4822 C   0  0  0  0  0  0  0  0  0  0  0  0
   -7.6777    4.2277   -7.5222 H   0  0  0  0  0  0  0  0  0  0  0  0
   -8.6353    2.8660   -7.5790 H   0  0  0  0  0  0  0  0  0  0  0  0
   -9.3320    4.3775   -7.6452 H   0  0  0  0  0  0  0  0  0  0  0  0
   -5.5082    6.9037  -19.1815 C   0  0  0  0  0  0  0  0  0  0  0  0
   -4.8993    7.6392  -21.4059 C   0  0  0  0  0  0  0  0  0  0  0  0
   -5.1175    6.4887  -20.5414 N   0  0  0  0  0  0  0  0  0  0  0  0
   -4.2558    5.9457  -20.4879 H   0  0  0  0  0  0  0  0  0  0  0  0
 29 30  1  0  0  0
 30 28  1  0  0  0
 28  1  1  0  0  0
  1  2  1  0  0  0
  1  3  1  0  0  0
  3  4  1  0  0  0
  4  5  1  0  0  0
  4  6  1  0  0  0
  6  7  1  0  0  0
  7  8  2  0  0  0
  8 14  1  0  0  0
 14 15  2  0  0  0
 14 16  1  0  0  0
 16 17  2  0  0  0
 18 16  1  0  0  0
 18 19  1  0  0  0
 19 20  1  0  0  0
 20 21  1  0  0  0
 21 22  1  0  0  0
 21 23  1  0  0  0
 23 24  1  0  0  0
  8  9  1  0  0  0
  9 10  2  0  0  0
 10 11  1  0  0  0
 11 12  2  0  0  0
 12  1  1  0  0  0
 12  7  1  0  0  0
 24 18  1  0  0  0
 30 31  1  0  0  0
  6 13  1  0  0  0
 22 25  1  0  0  0
 22 26  1  0  0  0
 22 27  1  0  0  0
M  CHG 1  22   1
M  END
> <minimizedAffinity>
-7.80600

> <minimizedRMSD>
0.78155

$$$$
P12768


 32 34  0  0  0  0  0  0  0  0999 V2000
   -4.5354    5.3624  -17.9831 C   0  0  0  0  0  0  0  0  0  0  0  0
   -4.6193    6.8902  -18.2201 C   0  0  0  0  0  0  0  0  0  0  0  0
   -3.4176    5.0444  -16.9694 C   0  0  0  0  0  0  0  0  0  0  0  0
   -3.7349    5.5473  -15.5730 C   0  0  0  0  0  0  0  0  0  0  0  0
   -2.6213    5.1489  -14.6083 C   0  0  0  0  0  0  0  0  0  0  0  0
   -4.9761    4.9742  -15.0915 N   0  0  0  0  0  0  0  0  0  0  0  0
   -6.0520    4.8474  -15.9830 C   0  0  0  0  0  0  0  0  0  0  0  0
   -7.3209    4.5034  -15.4712 C   0  0  0  0  0  0  0  0  0  0  0  0
   -8.4199    4.2881  -16.2876 C   0  0  0  0  0  0  0  0  0  0  0  0
   -8.2467    4.3720  -17.6543 C   0  0  0  0  0  0  0  0  0  0  0  0
   -9.6071    4.1485  -18.6576 Cl  0  0  0  0  0  0  0  0  0  0  0  0
   -7.0037    4.6820  -18.2070 C   0  0  0  0  0  0  0  0  0  0  0  0
   -5.8837    4.9190  -17.3852 C   0  0  0  0  0  0  0  0  0  0  0  0
   -5.0626    4.6794  -14.1562 H   0  0  0  0  0  0  0  0  0  0  0  0
   -7.5251    4.4390  -14.0238 C   0  0  0  0  0  0  0  0  0  0  0  0
   -7.9044    5.4283  -13.4081 O   0  0  0  0  0  0  0  0  0  0  0  0
   -7.2362    3.1370  -13.2958 C   0  0  0  0  0  0  0  0  0  0  0  0
   -6.9082    2.1262  -13.8994 O   0  0  0  0  0  0  0  0  0  0  0  0
   -7.3467    3.1165  -11.8016 C   0  0  0  0  0  0  0  0  0  0  0  0
   -6.1609    3.7728  -11.1202 C   0  0  0  0  0  0  0  0  0  0  0  0
   -6.1998    3.4610   -9.6326 C   0  0  0  0  0  0  0  0  0  0  0  0
   -7.6047    3.5603   -9.0113 C   0  0  0  0  0  0  0  0  0  0  0  0
   -8.0976    2.2062   -8.6618 N   0  0  0  0  0  0  0  0  0  0  0  0
   -8.6210    4.2413   -9.9129 C   0  0  0  0  0  0  0  0  0  0  0  0
   -8.6939    3.6419  -11.3133 C   0  0  0  0  0  0  0  0  0  0  0  0
   -8.1858    1.6470   -9.5102 H   0  0  0  0  0  0  0  0  0  0  0  0
   -9.0082    2.2823   -8.2085 H   0  0  0  0  0  0  0  0  0  0  0  0
   -7.4378    1.7578   -8.0261 H   0  0  0  0  0  0  0  0  0  0  0  0
   -4.1821    4.6571  -19.3355 C   0  0  0  0  0  0  0  0  0  0  0  0
   -1.9139    4.2722  -20.2495 C   0  0  0  0  0  0  0  0  0  0  0  0
   -3.0213    5.1866  -20.0625 N   0  0  0  0  0  0  0  0  0  0  0  0
   -3.3400    5.4824  -20.9852 H   0  0  0  0  0  0  0  0  0  0  0  0
 30 31  1  0  0  0
 31 29  1  0  0  0
 29  1  1  0  0  0
  1  2  1  0  0  0
  1  3  1  0  0  0
  3  4  1  0  0  0
  4  5  1  0  0  0
  4  6  1  0  0  0
  6  7  1  0  0  0
  7  8  2  0  0  0
  8 15  1  0  0  0
 15 16  2  0  0  0
 15 17  1  0  0  0
 17 18  2  0  0  0
 19 17  1  0  0  0
 19 20  1  0  0  0
 20 21  1  0  0  0
 21 22  1  0  0  0
 22 23  1  0  0  0
 22 24  1  0  0  0
 24 25  1  0  0  0
  8  9  1  0  0  0
  9 10  2  0  0  0
 10 11  1  0  0  0
 10 12  1  0  0  0
 12 13  2  0  0  0
 13  1  1  0  0  0
 13  7  1  0  0  0
 25 19  1  0  0  0
 31 32  1  0  0  0
  6 14  1  0  0  0
 23 26  1  0  0  0
 23 27  1  0  0  0
 23 28  1  0  0  0
M  CHG 1  23   1
M  END
> <minimizedAffinity>
-7.59518

> <minimizedRMSD>
0.69423

$$$$
P12790


 29 32  0  0  0  0  0  0  0  0999 V2000
   -3.2828    5.6347  -15.0219 C   0  0  0  0  0  0  0  0  0  0  0  0
   -4.4013    5.2815  -15.9537 C   0  0  0  0  0  0  0  0  0  0  0  0
   -4.1801    5.1929  -17.3135 C   0  0  0  0  0  0  0  0  0  0  0  0
   -5.2478    4.8835  -18.1633 C   0  0  0  0  0  0  0  0  0  0  0  0
   -6.5357    4.6716  -17.6128 C   0  0  0  0  0  0  0  0  0  0  0  0
   -7.6978    4.4122  -18.3829 C   0  0  0  0  0  0  0  0  0  0  0  0
   -8.9453    4.2902  -17.7829 C   0  0  0  0  0  0  0  0  0  0  0  0
  -10.3671    4.2081  -18.7131 Cl  0  0  0  0  0  0  0  0  0  0  0  0
   -9.0646    4.3588  -16.4178 C   0  0  0  0  0  0  0  0  0  0  0  0
   -7.9223    4.5939  -15.6619 C   0  0  0  0  0  0  0  0  0  0  0  0
   -6.6583    4.7740  -16.2104 C   0  0  0  0  0  0  0  0  0  0  0  0
   -5.6179    5.0902  -15.4112 N   0  0  0  0  0  0  0  0  0  0  0  0
   -4.9700    4.8808  -19.6367 C   0  0  0  0  0  0  0  0  0  0  0  0
   -5.2623    6.1792  -20.1346 O   0  0  0  0  0  0  0  0  0  0  0  0
   -6.1918    6.3919  -19.9569 H   0  0  0  0  0  0  0  0  0  0  0  0
   -8.1342    4.8016  -14.2372 C   0  0  0  0  0  0  0  0  0  0  0  0
   -8.7502    5.8044  -13.9041 O   0  0  0  0  0  0  0  0  0  0  0  0
   -7.6389    3.7408  -13.2586 C   0  0  0  0  0  0  0  0  0  0  0  0
   -7.5420    2.5834  -13.6649 O   0  0  0  0  0  0  0  0  0  0  0  0
   -7.2836    4.1181  -11.8279 C   0  0  0  0  0  0  0  0  0  0  0  0
   -7.5714    2.8543  -10.9851 C   0  0  0  0  0  0  0  0  0  0  0  0
   -7.3643    3.0296   -9.4815 C   0  0  0  0  0  0  0  0  0  0  0  0
   -7.9659    4.3077   -9.0344 C   0  0  0  0  0  0  0  0  0  0  0  0
   -8.0971    5.4240   -9.8241 C   0  0  0  0  0  0  0  0  0  0  0  0
   -8.3764    6.5093   -8.9715 C   0  0  0  0  0  0  0  0  0  0  0  0
   -8.6503    5.9743   -7.7311 C   0  0  0  0  0  0  0  0  0  0  0  0
   -8.5215    4.6105   -7.8232 N   0  0  0  0  0  0  0  0  0  0  0  0
   -8.9858    3.7029   -6.8037 C   0  0  0  0  0  0  0  0  0  0  0  0
   -8.0101    5.3661  -11.2973 C   0  0  0  0  0  0  0  0  0  0  0  0
  1  2  1  0  0  0
  2  3  2  0  0  0
  3  4  1  0  0  0
  4 13  1  0  0  0
 13 14  1  0  0  0
  4  5  2  0  0  0
  5  6  1  0  0  0
  6  7  2  0  0  0
  7  8  1  0  0  0
  7  9  1  0  0  0
  9 10  2  0  0  0
 10 16  1  0  0  0
 16 17  2  0  0  0
 16 18  1  0  0  0
 18 19  2  0  0  0
 20 18  1  0  0  0
 20 21  1  0  0  0
 21 22  1  0  0  0
 22 23  1  0  0  0
 23 24  2  0  0  0
 24 25  1  0  0  0
 25 26  2  0  0  0
 26 27  1  0  0  0
 27 28  1  0  0  0
 24 29  1  0  0  0
 10 11  1  0  0  0
 11 12  2  0  0  0
 12  2  1  0  0  0
 11  5  1  0  0  0
 29 20  1  0  0  0
 27 23  1  0  0  0
 14 15  1  0  0  0
M  END
> <minimizedAffinity>
-7.96244

> <minimizedRMSD>
0.88813

$$$$
P12795


 31 34  0  0  0  0  0  0  0  0999 V2000
   -4.0216    6.0118  -14.7635 C   0  0  0  0  0  0  0  0  0  0  0  0
   -4.9278    5.5249  -15.8561 C   0  0  0  0  0  0  0  0  0  0  0  0
   -6.1486    5.1215  -15.4572 N   0  0  0  0  0  0  0  0  0  0  0  0
   -7.0585    4.7367  -16.3733 C   0  0  0  0  0  0  0  0  0  0  0  0
   -8.3373    4.4056  -15.9493 C   0  0  0  0  0  0  0  0  0  0  0  0
   -9.3692    4.0180  -16.8045 C   0  0  0  0  0  0  0  0  0  0  0  0
   -9.1089    3.9413  -18.1599 C   0  0  0  0  0  0  0  0  0  0  0  0
   -7.8343    4.2740  -18.6247 C   0  0  0  0  0  0  0  0  0  0  0  0
   -6.7869    4.6870  -17.7479 C   0  0  0  0  0  0  0  0  0  0  0  0
   -5.4745    5.0775  -18.1448 C   0  0  0  0  0  0  0  0  0  0  0  0
   -4.5347    5.5302  -17.1918 C   0  0  0  0  0  0  0  0  0  0  0  0
   -3.3271    6.1232  -17.5835 N   0  0  0  0  0  0  0  0  0  0  0  0
   -3.0617    6.1196  -18.5316 H   0  0  0  0  0  0  0  0  0  0  0  0
   -2.7440    6.5435  -16.9107 H   0  0  0  0  0  0  0  0  0  0  0  0
   -5.0388    4.9957  -19.5759 C   0  0  0  0  0  0  0  0  0  0  0  0
   -5.2216    6.2612  -20.1948 O   0  0  0  0  0  0  0  0  0  0  0  0
   -6.1583    6.5094  -20.1529 H   0  0  0  0  0  0  0  0  0  0  0  0
   -8.5934    4.5800  -14.5252 C   0  0  0  0  0  0  0  0  0  0  0  0
   -9.3219    5.4916  -14.1604 O   0  0  0  0  0  0  0  0  0  0  0  0
   -7.8545    3.6692  -13.5544 C   0  0  0  0  0  0  0  0  0  0  0  0
   -7.6579    2.5034  -13.8855 O   0  0  0  0  0  0  0  0  0  0  0  0
   -7.3280    4.2414  -12.2520 C   0  0  0  0  0  0  0  0  0  0  0  0
   -7.3940    3.0881  -11.2211 C   0  0  0  0  0  0  0  0  0  0  0  0
   -7.0987    3.4956   -9.7822 C   0  0  0  0  0  0  0  0  0  0  0  0
   -7.8302    4.7423   -9.4620 C   0  0  0  0  0  0  0  0  0  0  0  0
   -8.1448    5.7175  -10.3741 C   0  0  0  0  0  0  0  0  0  0  0  0
   -8.5016    6.8634   -9.6429 C   0  0  0  0  0  0  0  0  0  0  0  0
   -8.6230    6.4820   -8.3261 C   0  0  0  0  0  0  0  0  0  0  0  0
   -8.3332    5.1450   -8.2574 N   0  0  0  0  0  0  0  0  0  0  0  0
   -8.5774    4.3364   -7.0923 C   0  0  0  0  0  0  0  0  0  0  0  0
   -8.0819    5.5161  -11.8322 C   0  0  0  0  0  0  0  0  0  0  0  0
  1  2  1  0  0  0
  2  3  2  0  0  0
  3  4  1  0  0  0
  4  5  2  0  0  0
  5 18  1  0  0  0
 18 19  2  0  0  0
 18 20  1  0  0  0
 20 21  2  0  0  0
 22 20  1  0  0  0
 22 23  1  0  0  0
 23 24  1  0  0  0
 24 25  1  0  0  0
 25 26  2  0  0  0
 26 27  1  0  0  0
 27 28  2  0  0  0
 28 29  1  0  0  0
 29 30  1  0  0  0
 26 31  1  0  0  0
  5  6  1  0  0  0
  6  7  2  0  0  0
  7  8  1  0  0  0
  8  9  2  0  0  0
  9 10  1  0  0  0
 10 15  1  0  0  0
 15 16  1  0  0  0
 10 11  2  0  0  0
 11 12  1  0  0  0
 11  2  1  0  0  0
  9  4  1  0  0  0
 31 22  1  0  0  0
 29 25  1  0  0  0
 16 17  1  0  0  0
 12 13  1  0  0  0
 12 14  1  0  0  0
M  END
> <minimizedAffinity>
-8.21879

> <minimizedRMSD>
1.32915

$$$$
P12804


 30 33  0  0  0  0  0  0  0  0999 V2000
   -5.0876    4.9710  -17.8769 C   0  0  0  0  0  0  0  0  0  0  0  0
   -4.1798    5.2162  -16.8421 C   0  0  0  0  0  0  0  0  0  0  0  0
   -4.6316    5.2636  -15.5418 C   0  0  0  0  0  0  0  0  0  0  0  0
   -3.6694    5.5330  -14.4293 C   0  0  0  0  0  0  0  0  0  0  0  0
   -5.9258    5.0804  -15.2219 N   0  0  0  0  0  0  0  0  0  0  0  0
   -6.8121    4.7655  -16.1890 C   0  0  0  0  0  0  0  0  0  0  0  0
   -8.1415    4.5009  -15.8577 C   0  0  0  0  0  0  0  0  0  0  0  0
   -9.1249    4.2490  -16.8150 C   0  0  0  0  0  0  0  0  0  0  0  0
   -8.7620    4.2099  -18.1407 C   0  0  0  0  0  0  0  0  0  0  0  0
   -9.6892    3.9645  -19.0702 F   0  0  0  0  0  0  0  0  0  0  0  0
   -7.4445    4.4286  -18.5164 C   0  0  0  0  0  0  0  0  0  0  0  0
   -6.4468    4.7211  -17.5569 C   0  0  0  0  0  0  0  0  0  0  0  0
   -8.5776    4.5253  -14.4574 C   0  0  0  0  0  0  0  0  0  0  0  0
   -9.4828    5.2859  -14.1340 O   0  0  0  0  0  0  0  0  0  0  0  0
   -7.9570    3.5503  -13.4574 C   0  0  0  0  0  0  0  0  0  0  0  0
   -7.5124    2.4767  -13.8494 O   0  0  0  0  0  0  0  0  0  0  0  0
   -8.0496    3.9120  -11.9936 C   0  0  0  0  0  0  0  0  0  0  0  0
   -7.1312    2.9732  -11.1650 C   0  0  0  0  0  0  0  0  0  0  0  0
   -7.0722    3.2876   -9.6605 C   0  0  0  0  0  0  0  0  0  0  0  0
   -7.7149    4.5917   -9.3495 C   0  0  0  0  0  0  0  0  0  0  0  0
   -7.8991    5.6165  -10.2510 C   0  0  0  0  0  0  0  0  0  0  0  0
   -8.3233    6.7434   -9.5202 C   0  0  0  0  0  0  0  0  0  0  0  0
   -8.5495    6.3216   -8.2252 C   0  0  0  0  0  0  0  0  0  0  0  0
   -8.3276    4.9670   -8.1858 N   0  0  0  0  0  0  0  0  0  0  0  0
   -8.8149    4.0936   -7.1485 C   0  0  0  0  0  0  0  0  0  0  0  0
   -7.6939    5.3885  -11.7044 C   0  0  0  0  0  0  0  0  0  0  0  0
   -4.5270    5.0224  -19.2775 C   0  0  0  0  0  0  0  0  0  0  0  0
   -5.0122    7.4041  -19.7064 C   0  0  0  0  0  0  0  0  0  0  0  0
   -5.1262    6.0322  -20.1463 N   0  0  0  0  0  0  0  0  0  0  0  0
   -4.6792    5.9606  -21.0603 H   0  0  0  0  0  0  0  0  0  0  0  0
 28 29  1  0  0  0
 29 27  1  0  0  0
 27  1  1  0  0  0
  1  2  2  0  0  0
  2  3  1  0  0  0
  3  4  1  0  0  0
  3  5  2  0  0  0
  5  6  1  0  0  0
  6  7  2  0  0  0
  7 13  1  0  0  0
 13 14  2  0  0  0
 13 15  1  0  0  0
 15 16  2  0  0  0
 17 15  1  0  0  0
 17 18  1  0  0  0
 18 19  1  0  0  0
 19 20  1  0  0  0
 20 21  2  0  0  0
 21 22  1  0  0  0
 22 23  2  0  0  0
 23 24  1  0  0  0
 24 25  1  0  0  0
 21 26  1  0  0  0
  7  8  1  0  0  0
  8  9  2  0  0  0
  9 10  1  0  0  0
  9 11  1  0  0  0
 11 12  2  0  0  0
 12  1  1  0  0  0
 12  6  1  0  0  0
 26 17  1  0  0  0
 24 20  1  0  0  0
 29 30  1  0  0  0
M  END
> <minimizedAffinity>
-8.48393

> <minimizedRMSD>
1.04465

$$$$
P12807


 33 37  0  0  0  0  0  0  0  0999 V2000
   -3.2280    5.0115  -14.6472 C   0  0  0  0  0  0  0  0  0  0  0  0
   -4.3197    4.8744  -15.6630 C   0  0  0  0  0  0  0  0  0  0  0  0
   -4.0579    5.0235  -17.0065 C   0  0  0  0  0  0  0  0  0  0  0  0
   -5.0946    4.9056  -17.9438 C   0  0  0  0  0  0  0  0  0  0  0  0
   -6.4092    4.6124  -17.4810 C   0  0  0  0  0  0  0  0  0  0  0  0
   -7.5593    4.4317  -18.2965 C   0  0  0  0  0  0  0  0  0  0  0  0
   -8.8377    4.3230  -17.7400 C   0  0  0  0  0  0  0  0  0  0  0  0
  -10.2263    4.2784  -18.7308 Cl  0  0  0  0  0  0  0  0  0  0  0  0
   -9.0115    4.3831  -16.3757 C   0  0  0  0  0  0  0  0  0  0  0  0
   -7.8741    4.5019  -15.5903 C   0  0  0  0  0  0  0  0  0  0  0  0
   -6.5815    4.5738  -16.0858 C   0  0  0  0  0  0  0  0  0  0  0  0
   -5.5634    4.6781  -15.2105 N   0  0  0  0  0  0  0  0  0  0  0  0
   -8.0233    4.7998  -14.1785 C   0  0  0  0  0  0  0  0  0  0  0  0
   -8.3386    5.9373  -13.8612 O   0  0  0  0  0  0  0  0  0  0  0  0
   -7.6939    3.7154  -13.1753 C   0  0  0  0  0  0  0  0  0  0  0  0
   -7.7502    2.5478  -13.5522 O   0  0  0  0  0  0  0  0  0  0  0  0
   -7.2493    4.1160  -11.7818 C   0  0  0  0  0  0  0  0  0  0  0  0
   -7.4754    2.8684  -10.9027 C   0  0  0  0  0  0  0  0  0  0  0  0
   -7.2811    3.0962   -9.4106 C   0  0  0  0  0  0  0  0  0  0  0  0
   -7.9582    4.3486   -9.0033 C   0  0  0  0  0  0  0  0  0  0  0  0
   -8.1337    5.4406   -9.8153 C   0  0  0  0  0  0  0  0  0  0  0  0
   -8.4806    6.5243   -8.9857 C   0  0  0  0  0  0  0  0  0  0  0  0
   -8.7362    6.0026   -7.7365 C   0  0  0  0  0  0  0  0  0  0  0  0
   -8.5276    4.6486   -7.7986 N   0  0  0  0  0  0  0  0  0  0  0  0
   -8.8969    3.7364   -6.7463 C   0  0  0  0  0  0  0  0  0  0  0  0
   -7.9654    5.3868  -11.2787 C   0  0  0  0  0  0  0  0  0  0  0  0
   -4.7910    5.1950  -19.3979 C   0  0  0  0  0  0  0  0  0  0  0  0
   -3.8299    6.2575  -19.5375 O   0  0  0  0  0  0  0  0  0  0  0  0
   -2.5889    5.9098  -20.1910 C   0  0  0  0  0  0  0  0  0  0  0  0
   -1.2776    6.1402  -19.4047 C   0  0  0  0  0  0  0  0  0  0  0  0
   -0.7476    4.8857  -20.0145 N   0  0  0  0  0  0  0  0  0  0  0  0
   -2.1485    4.4223  -20.1322 C   0  0  0  0  0  0  0  0  0  0  0  0
   -0.1653    4.3243  -19.3931 H   0  0  0  0  0  0  0  0  0  0  0  0
  1  2  1  0  0  0
  2  3  2  0  0  0
  3  4  1  0  0  0
  4 27  1  0  0  0
 27 28  1  0  0  0
 28 29  1  0  0  0
 29 30  1  0  0  0
 30 31  1  0  0  0
 31 32  1  0  0  0
  4  5  2  0  0  0
  5  6  1  0  0  0
  6  7  2  0  0  0
  7  8  1  0  0  0
  7  9  1  0  0  0
  9 10  2  0  0  0
 10 13  1  0  0  0
 13 14  2  0  0  0
 13 15  1  0  0  0
 15 16  2  0  0  0
 17 15  1  0  0  0
 17 18  1  0  0  0
 18 19  1  0  0  0
 19 20  1  0  0  0
 20 21  2  0  0  0
 21 22  1  0  0  0
 22 23  2  0  0  0
 23 24  1  0  0  0
 24 25  1  0  0  0
 21 26  1  0  0  0
 10 11  1  0  0  0
 11 12  2  0  0  0
 12  2  1  0  0  0
 32 29  1  0  0  0
 11  5  1  0  0  0
 26 17  1  0  0  0
 24 20  1  0  0  0
 31 33  1  0  0  0
M  END
> <minimizedAffinity>
-7.90617

> <minimizedRMSD>
1.14054

$$$$
P13040


 28 31  0  0  0  0  0  0  0  0999 V2000
   -3.3162    5.4930  -14.7460 C   0  0  0  0  0  0  0  0  0  0  0  0
   -4.4833    5.3020  -15.6678 C   0  0  0  0  0  0  0  0  0  0  0  0
   -4.3009    5.3854  -17.0396 C   0  0  0  0  0  0  0  0  0  0  0  0
   -5.3887    5.1694  -17.8874 C   0  0  0  0  0  0  0  0  0  0  0  0
   -6.6472    4.8626  -17.3164 C   0  0  0  0  0  0  0  0  0  0  0  0
   -7.7901    4.5889  -18.1045 C   0  0  0  0  0  0  0  0  0  0  0  0
   -9.0091    4.2974  -17.5234 C   0  0  0  0  0  0  0  0  0  0  0  0
  -10.0770    4.0454  -18.2869 F   0  0  0  0  0  0  0  0  0  0  0  0
   -9.1306    4.2785  -16.1567 C   0  0  0  0  0  0  0  0  0  0  0  0
   -8.0085    4.5336  -15.3678 C   0  0  0  0  0  0  0  0  0  0  0  0
   -6.7510    4.8197  -15.9031 C   0  0  0  0  0  0  0  0  0  0  0  0
   -5.6863    5.0478  -15.1036 N   0  0  0  0  0  0  0  0  0  0  0  0
   -5.2447    5.2989  -19.3836 C   0  0  0  0  0  0  0  0  0  0  0  0
   -3.9196    5.0575  -19.8509 O   0  0  0  0  0  0  0  0  0  0  0  0
   -3.3173    5.7152  -19.4694 H   0  0  0  0  0  0  0  0  0  0  0  0
   -8.2443    4.5227  -13.9206 C   0  0  0  0  0  0  0  0  0  0  0  0
   -8.8958    5.4296  -13.4153 O   0  0  0  0  0  0  0  0  0  0  0  0
   -7.8382    3.2883  -13.1253 C   0  0  0  0  0  0  0  0  0  0  0  0
   -7.3514    2.3171  -13.6957 O   0  0  0  0  0  0  0  0  0  0  0  0
   -8.1519    3.3111  -11.6320 C   0  0  0  0  0  0  0  0  0  0  0  0
   -7.0502    2.6814  -10.7265 C   0  0  0  0  0  0  0  0  0  0  0  0
   -7.4834    3.6689   -9.6233 C   0  0  0  0  0  0  0  0  0  0  0  0
   -6.3626    4.2443   -8.7857 C   0  0  0  0  0  0  0  0  0  0  0  0
   -7.0715    4.7443   -7.5359 C   0  0  0  0  0  0  0  0  0  0  0  0
   -8.4976    4.4069   -7.6481 N   0  0  0  0  0  0  0  0  0  0  0  0
   -8.5437    3.2865   -8.6027 C   0  0  0  0  0  0  0  0  0  0  0  0
   -7.9824    4.5861  -10.7818 C   0  0  0  0  0  0  0  0  0  0  0  0
   -9.0286    5.2027   -8.0019 H   0  0  0  0  0  0  0  0  0  0  0  0
  1  2  1  0  0  0
  2  3  2  0  0  0
  3  4  1  0  0  0
  4 13  1  0  0  0
 13 14  1  0  0  0
  4  5  2  0  0  0
  5  6  1  0  0  0
  6  7  2  0  0  0
  7  8  1  0  0  0
  7  9  1  0  0  0
  9 10  2  0  0  0
 10 16  1  0  0  0
 16 17  2  0  0  0
 16 18  1  0  0  0
 18 19  2  0  0  0
 20 18  1  0  0  0
 20 21  1  0  0  0
 22 21  1  0  0  0
 22 23  1  0  0  0
 23 24  1  0  0  0
 24 25  1  0  0  0
 25 26  1  0  0  0
 22 27  1  0  0  0
 10 11  1  0  0  0
 11 12  2  0  0  0
 12  2  1  0  0  0
 11  5  1  0  0  0
 27 20  1  0  0  0
 26 22  1  0  0  0
 14 15  1  0  0  0
 25 28  1  0  0  0
M  END
> <minimizedAffinity>
-8.14678

> <minimizedRMSD>
0.39175

$$$$
P13041


 30 33  0  0  0  0  0  0  0  0999 V2000
   -7.8549    4.3901  -13.6764 C   0  0  0  0  0  0  0  0  0  0  0  0
   -8.3074    5.3742  -13.1032 O   0  0  0  0  0  0  0  0  0  0  0  0
   -7.7289    4.4486  -15.1416 C   0  0  0  0  0  0  0  0  0  0  0  0
   -8.9215    4.3441  -15.8563 C   0  0  0  0  0  0  0  0  0  0  0  0
   -8.9074    4.4532  -17.2267 C   0  0  0  0  0  0  0  0  0  0  0  0
  -10.0407    4.3164  -17.9219 F   0  0  0  0  0  0  0  0  0  0  0  0
   -7.7266    4.7223  -17.8914 C   0  0  0  0  0  0  0  0  0  0  0  0
   -6.5120    4.8595  -17.1840 C   0  0  0  0  0  0  0  0  0  0  0  0
   -5.2871    5.1334  -17.8431 C   0  0  0  0  0  0  0  0  0  0  0  0
   -4.1287    5.2468  -17.0730 C   0  0  0  0  0  0  0  0  0  0  0  0
   -4.2078    5.0794  -15.6980 C   0  0  0  0  0  0  0  0  0  0  0  0
   -2.9702    5.1848  -14.8586 C   0  0  0  0  0  0  0  0  0  0  0  0
   -5.3699    4.8241  -15.0538 N   0  0  0  0  0  0  0  0  0  0  0  0
   -6.5075    4.7097  -15.7682 C   0  0  0  0  0  0  0  0  0  0  0  0
   -5.2441    5.3364  -19.3420 C   0  0  0  0  0  0  0  0  0  0  0  0
   -3.9586    5.0949  -19.9123 O   0  0  0  0  0  0  0  0  0  0  0  0
   -3.3177    5.7216  -19.5418 H   0  0  0  0  0  0  0  0  0  0  0  0
   -7.6122    3.0655  -12.9468 C   0  0  0  0  0  0  0  0  0  0  0  0
   -7.2705    2.0794  -13.6005 O   0  0  0  0  0  0  0  0  0  0  0  0
   -6.8860    2.6612  -10.3838 C   0  0  0  0  0  0  0  0  0  0  0  0
   -7.9720    3.0426  -11.4452 C   0  0  0  0  0  0  0  0  0  0  0  0
   -8.2261    4.3142  -10.6044 C   0  0  0  0  0  0  0  0  0  0  0  0
   -7.6486    3.5637   -9.3595 C   0  0  0  0  0  0  0  0  0  0  0  0
   -6.9097    4.4647   -8.3705 C   0  0  0  0  0  0  0  0  0  0  0  0
   -7.7564    4.4459   -7.1011 C   0  0  0  0  0  0  0  0  0  0  0  0
   -9.0557    3.9030   -7.4937 N   0  0  0  0  0  0  0  0  0  0  0  0
   -8.7124    2.8789   -8.4979 C   0  0  0  0  0  0  0  0  0  0  0  0
   -9.6461    4.6286   -7.9003 H   0  0  0  0  0  0  0  0  0  0  0  0
   -4.2812    1.8846  -10.1860 C   0  0  0  0  0  0  0  0  0  0  0  0
   -5.2103    3.3108  -10.7886 S   0  0  0  0  0  0  0  0  0  0  0  0
 29 30  1  0  0  0
 20 30  1  0  0  0
 20 21  1  0  0  0
 21 18  1  0  0  0
 18 19  2  0  0  0
 18  1  1  0  0  0
  1  2  2  0  0  0
  1  3  1  0  0  0
  3  4  2  0  0  0
  4  5  1  0  0  0
  5  6  1  0  0  0
  5  7  2  0  0  0
  7  8  1  0  0  0
  8  9  2  0  0  0
  9 15  1  0  0  0
 15 16  1  0  0  0
  9 10  1  0  0  0
 10 11  2  0  0  0
 11 12  1  0  0  0
 11 13  1  0  0  0
 13 14  2  0  0  0
 21 22  1  0  0  0
 23 22  1  0  0  0
 23 24  1  0  0  0
 24 25  1  0  0  0
 25 26  1  0  0  0
 26 27  1  0  0  0
 23 20  1  0  0  0
 14  3  1  0  0  0
 27 23  1  0  0  0
 14  8  1  0  0  0
 16 17  1  0  0  0
 26 28  1  0  0  0
M  END
> <minimizedAffinity>
-8.12049

> <minimizedRMSD>
0.35365

$$$$
P13042


 30 33  0  0  0  0  0  0  0  0999 V2000
   -8.0003    4.5533  -14.2611 C   0  0  0  0  0  0  0  0  0  0  0  0
   -8.7923    5.3844  -13.8310 O   0  0  0  0  0  0  0  0  0  0  0  0
   -7.7772    4.4825  -15.7064 C   0  0  0  0  0  0  0  0  0  0  0  0
   -8.9085    4.3192  -16.5008 C   0  0  0  0  0  0  0  0  0  0  0  0
   -8.7854    4.3533  -17.8685 C   0  0  0  0  0  0  0  0  0  0  0  0
   -9.8614    4.1696  -18.6393 F   0  0  0  0  0  0  0  0  0  0  0  0
   -7.5527    4.5855  -18.4520 C   0  0  0  0  0  0  0  0  0  0  0  0
   -6.3958    4.7578  -17.6573 C   0  0  0  0  0  0  0  0  0  0  0  0
   -5.1159    4.9918  -18.2167 C   0  0  0  0  0  0  0  0  0  0  0  0
   -4.0333    5.1676  -17.3484 C   0  0  0  0  0  0  0  0  0  0  0  0
   -4.2338    5.0919  -15.9778 C   0  0  0  0  0  0  0  0  0  0  0  0
   -3.0820    5.2816  -15.0374 C   0  0  0  0  0  0  0  0  0  0  0  0
   -5.4472    4.8660  -15.4283 N   0  0  0  0  0  0  0  0  0  0  0  0
   -6.5098    4.6977  -16.2416 C   0  0  0  0  0  0  0  0  0  0  0  0
   -4.9213    5.0844  -19.7157 C   0  0  0  0  0  0  0  0  0  0  0  0
   -3.5771    4.8113  -20.1020 O   0  0  0  0  0  0  0  0  0  0  0  0
   -2.9854    5.4649  -19.6977 H   0  0  0  0  0  0  0  0  0  0  0  0
   -7.3257    3.5494  -13.3388 C   0  0  0  0  0  0  0  0  0  0  0  0
   -7.0906    2.4133  -13.7425 O   0  0  0  0  0  0  0  0  0  0  0  0
   -6.7691    3.0603  -10.8285 C   0  0  0  0  0  0  0  0  0  0  0  0
   -6.9702    4.1237  -11.9450 C   0  0  0  0  0  0  0  0  0  0  0  0
   -8.0485    4.7986  -11.0694 C   0  0  0  0  0  0  0  0  0  0  0  0
   -7.9521    3.6770  -10.0198 C   0  0  0  0  0  0  0  0  0  0  0  0
   -7.8400    4.0742   -8.5592 C   0  0  0  0  0  0  0  0  0  0  0  0
   -8.1916    2.7687   -7.8604 C   0  0  0  0  0  0  0  0  0  0  0  0
   -9.2415    2.1436   -8.6736 N   0  0  0  0  0  0  0  0  0  0  0  0
   -9.2126    2.8224   -9.9742 C   0  0  0  0  0  0  0  0  0  0  0  0
  -10.1520    2.2671   -8.2307 H   0  0  0  0  0  0  0  0  0  0  0  0
   -4.7020    1.4797  -10.0480 C   0  0  0  0  0  0  0  0  0  0  0  0
   -5.1180    3.2386  -10.0465 S   0  0  0  0  0  0  0  0  0  0  0  0
 29 30  1  0  0  0
 20 30  1  0  0  0
 20 21  1  0  0  0
 21 18  1  0  0  0
 18 19  2  0  0  0
 18  1  1  0  0  0
  1  2  2  0  0  0
  1  3  1  0  0  0
  3  4  2  0  0  0
  4  5  1  0  0  0
  5  6  1  0  0  0
  5  7  2  0  0  0
  7  8  1  0  0  0
  8  9  2  0  0  0
  9 15  1  0  0  0
 15 16  1  0  0  0
  9 10  1  0  0  0
 10 11  2  0  0  0
 11 12  1  0  0  0
 11 13  1  0  0  0
 13 14  2  0  0  0
 21 22  1  0  0  0
 23 22  1  0  0  0
 23 24  1  0  0  0
 24 25  1  0  0  0
 25 26  1  0  0  0
 26 27  1  0  0  0
 23 20  1  0  0  0
 14  3  1  0  0  0
 27 23  1  0  0  0
 14  8  1  0  0  0
 16 17  1  0  0  0
 26 28  1  0  0  0
M  END
> <minimizedAffinity>
-8.20750

> <minimizedRMSD>
0.51058

$$$$
P13059


 28 30  0  0  0  0  0  0  0  0999 V2000
   -2.7951    5.2276  -14.6811 C   0  0  0  0  0  0  0  0  0  0  0  0
   -4.0197    5.1168  -15.5367 C   0  0  0  0  0  0  0  0  0  0  0  0
   -3.9204    5.3106  -16.9043 C   0  0  0  0  0  0  0  0  0  0  0  0
   -5.0597    5.1892  -17.7061 C   0  0  0  0  0  0  0  0  0  0  0  0
   -6.2924    4.8889  -17.0721 C   0  0  0  0  0  0  0  0  0  0  0  0
   -7.4991    4.7539  -17.7894 C   0  0  0  0  0  0  0  0  0  0  0  0
   -8.6892    4.4757  -17.1296 C   0  0  0  0  0  0  0  0  0  0  0  0
  -10.1547    4.3944  -17.9949 Cl  0  0  0  0  0  0  0  0  0  0  0  0
   -8.7148    4.3237  -15.7596 C   0  0  0  0  0  0  0  0  0  0  0  0
   -7.5276    4.4311  -15.0430 C   0  0  0  0  0  0  0  0  0  0  0  0
   -6.3065    4.7159  -15.6576 C   0  0  0  0  0  0  0  0  0  0  0  0
   -5.1849    4.8270  -14.9207 N   0  0  0  0  0  0  0  0  0  0  0  0
   -7.6458    4.2888  -13.5814 C   0  0  0  0  0  0  0  0  0  0  0  0
   -8.0086    5.2536  -12.9232 O   0  0  0  0  0  0  0  0  0  0  0  0
   -7.4526    2.9054  -12.9717 C   0  0  0  0  0  0  0  0  0  0  0  0
   -7.2002    1.9624  -13.7242 O   0  0  0  0  0  0  0  0  0  0  0  0
   -7.6476    2.6993  -11.4811 C   0  0  0  0  0  0  0  0  0  0  0  0
   -8.7220    3.4194  -10.6473 C   0  0  0  0  0  0  0  0  0  0  0  0
   -7.7610    3.4042   -9.4422 C   0  0  0  0  0  0  0  0  0  0  0  0
   -8.0432    2.2174   -8.6393 N   0  0  0  0  0  0  0  0  0  0  0  0
   -6.5957    3.1662  -10.4455 C   0  0  0  0  0  0  0  0  0  0  0  0
   -5.4962    2.1803  -10.0926 C   0  0  0  0  0  0  0  0  0  0  0  0
   -8.1153    1.4033   -9.2496 H   0  0  0  0  0  0  0  0  0  0  0  0
   -8.9228    2.3465   -8.1393 H   0  0  0  0  0  0  0  0  0  0  0  0
   -4.9499    5.3814  -19.2127 C   0  0  0  0  0  0  0  0  0  0  0  0
   -3.5795    5.1263  -19.7172 N   0  0  0  0  0  0  0  0  0  0  0  0
   -3.1923    5.8451  -20.6550 N   0  0  0  0  0  0  0  0  0  0  0  0
   -2.2909    5.7208  -21.0307 H   0  0  0  0  0  0  0  0  0  0  0  0
  1  2  1  0  0  0
  2  3  2  0  0  0
  3  4  1  0  0  0
  4 25  1  0  0  0
 25 26  1  0  0  0
 26 27  2  0  0  0
  4  5  2  0  0  0
  5  6  1  0  0  0
  6  7  2  0  0  0
  7  8  1  0  0  0
  7  9  1  0  0  0
  9 10  2  0  0  0
 10 13  1  0  0  0
 13 14  2  0  0  0
 13 15  1  0  0  0
 15 16  2  0  0  0
 17 15  1  0  0  0
 17 18  1  0  0  0
 18 19  1  0  0  0
 19 20  1  0  0  0
 19 21  1  0  0  0
 21 22  1  0  0  0
 10 11  1  0  0  0
 11 12  2  0  0  0
 12  2  1  0  0  0
 11  5  1  0  0  0
 21 17  1  0  0  0
 27 28  1  0  0  0
 20 23  1  0  0  0
 20 24  1  0  0  0
M  END
> <minimizedAffinity>
-8.06915

> <minimizedRMSD>
0.32161

$$$$
P13067


 35 39  0  0  0  0  0  0  0  0999 V2000
   -1.4173    6.7754  -17.1150 N   0  0  0  0  0  0  0  0  0  0  0  0
   -1.5382    5.4347  -17.6932 C   0  0  0  0  0  0  0  0  0  0  0  0
   -2.9618    5.0440  -18.1244 C   0  0  0  0  0  0  0  0  0  0  0  0
   -4.1443    5.7648  -17.3942 C   0  0  0  0  0  0  0  0  0  0  0  0
   -3.8047    7.2949  -17.3015 C   0  0  0  0  0  0  0  0  0  0  0  0
   -2.3835    7.6811  -17.7232 C   0  0  0  0  0  0  0  0  0  0  0  0
   -4.3122    5.1044  -15.9772 C   0  0  0  0  0  0  0  0  0  0  0  0
   -3.1969    5.2927  -14.9446 C   0  0  0  0  0  0  0  0  0  0  0  0
   -5.5504    5.5840  -15.3694 N   0  0  0  0  0  0  0  0  0  0  0  0
   -6.6881    5.0394  -15.9946 C   0  0  0  0  0  0  0  0  0  0  0  0
   -7.8094    4.6017  -15.2619 C   0  0  0  0  0  0  0  0  0  0  0  0
   -8.9721    4.1768  -15.9051 C   0  0  0  0  0  0  0  0  0  0  0  0
   -9.0273    4.1771  -17.2879 C   0  0  0  0  0  0  0  0  0  0  0  0
   -7.9154    4.5860  -18.0214 C   0  0  0  0  0  0  0  0  0  0  0  0
   -6.7278    5.0144  -17.3960 C   0  0  0  0  0  0  0  0  0  0  0  0
   -5.5671    5.6395  -18.1737 C   0  0  0  0  0  0  0  0  0  0  0  0
   -5.5853    6.2131  -14.6129 H   0  0  0  0  0  0  0  0  0  0  0  0
   -5.4248    5.1400  -19.6130 C   0  0  0  0  0  0  0  0  0  0  0  0
   -5.5081    6.2431  -20.5164 O   0  0  0  0  0  0  0  0  0  0  0  0
   -6.3674    6.6812  -20.4134 H   0  0  0  0  0  0  0  0  0  0  0  0
    0.2357    8.4564  -16.3095 C   0  0  0  0  0  0  0  0  0  0  0  0
   -0.0316    7.2516  -17.2051 C   0  0  0  0  0  0  0  0  0  0  0  0
   -7.7562    4.5741  -13.7917 C   0  0  0  0  0  0  0  0  0  0  0  0
   -8.0028    5.5728  -13.1248 O   0  0  0  0  0  0  0  0  0  0  0  0
   -7.3096    3.3165  -13.0870 C   0  0  0  0  0  0  0  0  0  0  0  0
   -7.4921    2.2253  -13.6131 O   0  0  0  0  0  0  0  0  0  0  0  0
   -6.5145    3.6298  -11.7912 C   0  0  0  0  0  0  0  0  0  0  0  0
   -5.0619    4.1540  -11.9867 C   0  0  0  0  0  0  0  0  0  0  0  0
   -4.6182    2.6599  -11.9909 C   0  0  0  0  0  0  0  0  0  0  0  0
   -3.2759    2.3815  -11.3745 C   0  0  0  0  0  0  0  0  0  0  0  0
   -2.3451    2.6391  -12.5483 C   0  0  0  0  0  0  0  0  0  0  0  0
   -3.0423    2.1542  -13.7439 N   0  0  0  0  0  0  0  0  0  0  0  0
   -4.4705    2.0472  -13.3844 C   0  0  0  0  0  0  0  0  0  0  0  0
   -5.8758    2.4057  -11.1020 C   0  0  0  0  0  0  0  0  0  0  0  0
   -2.6788    1.2413  -14.0174 H   0  0  0  0  0  0  0  0  0  0  0  0
 21 22  1  0  0  0
 22  1  1  0  0  0
  1  2  1  0  0  0
  2  3  1  0  0  0
  3  4  1  0  0  0
  4  5  1  0  0  0
  5  6  1  0  0  0
  4  7  1  0  0  0
  7  8  1  0  0  0
  7  9  1  0  0  0
  9 10  1  0  0  0
 10 11  2  0  0  0
 11 23  1  0  0  0
 23 24  2  0  0  0
 23 25  1  0  0  0
 25 26  2  0  0  0
 27 25  1  0  0  0
 27 28  1  0  0  0
 29 28  1  0  0  0
 29 30  1  0  0  0
 30 31  1  0  0  0
 31 32  1  0  0  0
 32 33  1  0  0  0
 29 34  1  0  0  0
 11 12  1  0  0  0
 12 13  2  0  0  0
 13 14  1  0  0  0
 14 15  2  0  0  0
 15 16  1  0  0  0
 16 18  1  0  0  0
 18 19  1  0  0  0
  6  1  1  0  0  0
 15 10  1  0  0  0
 16  4  1  0  0  0
 34 27  1  0  0  0
 33 29  1  0  0  0
  9 17  1  0  0  0
 32 35  1  0  0  0
 19 20  1  0  0  0
M  END
> <minimizedAffinity>
-7.49790

> <minimizedRMSD>
1.50584

$$$$
P13068


 28 30  0  0  0  0  0  0  0  0999 V2000
   -4.9726    5.5487  -17.7500 C   0  0  0  0  0  0  0  0  0  0  0  0
   -4.8279    7.0737  -17.5329 C   0  0  0  0  0  0  0  0  0  0  0  0
   -3.7758    4.8181  -17.0929 C   0  0  0  0  0  0  0  0  0  0  0  0
   -3.8726    4.6240  -15.5723 C   0  0  0  0  0  0  0  0  0  0  0  0
   -2.6315    5.1672  -14.8702 C   0  0  0  0  0  0  0  0  0  0  0  0
   -5.0504    5.2527  -14.9889 N   0  0  0  0  0  0  0  0  0  0  0  0
   -6.2478    4.9461  -15.6681 C   0  0  0  0  0  0  0  0  0  0  0  0
   -7.4253    4.5732  -14.9959 C   0  0  0  0  0  0  0  0  0  0  0  0
   -8.6073    4.3322  -15.6948 C   0  0  0  0  0  0  0  0  0  0  0  0
   -8.6239    4.4446  -17.0795 C   0  0  0  0  0  0  0  0  0  0  0  0
   -7.4643    4.8138  -17.7625 C   0  0  0  0  0  0  0  0  0  0  0  0
   -6.2678    5.0768  -17.0715 C   0  0  0  0  0  0  0  0  0  0  0  0
   -5.0139    5.8358  -14.1965 H   0  0  0  0  0  0  0  0  0  0  0  0
   -7.4092    4.4156  -13.5331 C   0  0  0  0  0  0  0  0  0  0  0  0
   -7.2312    5.3915  -12.8181 O   0  0  0  0  0  0  0  0  0  0  0  0
   -7.4727    3.0194  -12.9545 C   0  0  0  0  0  0  0  0  0  0  0  0
   -7.2228    2.0618  -13.6877 O   0  0  0  0  0  0  0  0  0  0  0  0
   -7.8484    2.8593  -11.4998 C   0  0  0  0  0  0  0  0  0  0  0  0
   -6.6445    2.7192  -10.5083 C   0  0  0  0  0  0  0  0  0  0  0  0
   -7.6908    3.0614   -9.4245 C   0  0  0  0  0  0  0  0  0  0  0  0
   -7.0595    3.8668   -8.4015 N   0  0  0  0  0  0  0  0  0  0  0  0
   -8.3369    3.9532  -10.5186 C   0  0  0  0  0  0  0  0  0  0  0  0
   -6.4989    4.5967   -8.8411 H   0  0  0  0  0  0  0  0  0  0  0  0
   -6.4584    3.2763   -7.8266 H   0  0  0  0  0  0  0  0  0  0  0  0
   -4.9755    5.2431  -19.2737 C   0  0  0  0  0  0  0  0  0  0  0  0
   -3.0621    6.1681  -20.4526 C   0  0  0  0  0  0  0  0  0  0  0  0
   -3.6749    4.9518  -19.9152 N   0  0  0  0  0  0  0  0  0  0  0  0
   -3.0477    4.5416  -19.2234 H   0  0  0  0  0  0  0  0  0  0  0  0
 26 27  1  0  0  0
 27 25  1  0  0  0
 25  1  1  0  0  0
  1  2  1  0  0  0
  1  3  1  0  0  0
  3  4  1  0  0  0
  4  5  1  0  0  0
  4  6  1  0  0  0
  6  7  1  0  0  0
  7  8  2  0  0  0
  8 14  1  0  0  0
 14 15  2  0  0  0
 14 16  1  0  0  0
 16 17  2  0  0  0
 18 16  1  0  0  0
 18 19  1  0  0  0
 19 20  1  0  0  0
 20 21  1  0  0  0
 20 22  1  0  0  0
  8  9  1  0  0  0
  9 10  2  0  0  0
 10 11  1  0  0  0
 11 12  2  0  0  0
 12  1  1  0  0  0
 12  7  1  0  0  0
 22 18  1  0  0  0
 27 28  1  0  0  0
  6 13  1  0  0  0
 21 23  1  0  0  0
 21 24  1  0  0  0
M  END
> <minimizedAffinity>
-7.21746

> <minimizedRMSD>
0.58219

$$$$
P13069


 27 29  0  0  0  0  0  0  0  0999 V2000
   -5.0765    5.2273  -17.8596 C   0  0  0  0  0  0  0  0  0  0  0  0
   -3.9248    5.2516  -17.0705 C   0  0  0  0  0  0  0  0  0  0  0  0
   -4.0271    5.0220  -15.7068 C   0  0  0  0  0  0  0  0  0  0  0  0
   -2.8041    5.0812  -14.8438 C   0  0  0  0  0  0  0  0  0  0  0  0
   -5.2016    4.7592  -15.0933 N   0  0  0  0  0  0  0  0  0  0  0  0
   -6.3255    4.6941  -15.8347 C   0  0  0  0  0  0  0  0  0  0  0  0
   -7.5569    4.4176  -15.2412 C   0  0  0  0  0  0  0  0  0  0  0  0
   -8.7442    4.3152  -15.9582 C   0  0  0  0  0  0  0  0  0  0  0  0
   -8.7046    4.4874  -17.3224 C   0  0  0  0  0  0  0  0  0  0  0  0
  -10.1381    4.3978  -18.2297 Cl  0  0  0  0  0  0  0  0  0  0  0  0
   -7.5117    4.7891  -17.9600 C   0  0  0  0  0  0  0  0  0  0  0  0
   -6.3085    4.9083  -17.2348 C   0  0  0  0  0  0  0  0  0  0  0  0
   -7.6717    4.3369  -13.7893 C   0  0  0  0  0  0  0  0  0  0  0  0
   -8.2728    5.2216  -13.1916 O   0  0  0  0  0  0  0  0  0  0  0  0
   -7.1216    3.1173  -13.0667 C   0  0  0  0  0  0  0  0  0  0  0  0
   -7.4382    1.9921  -13.4393 O   0  0  0  0  0  0  0  0  0  0  0  0
   -6.1709    3.5136  -11.9067 C   0  0  0  0  0  0  0  0  0  0  0  0
   -5.9219    2.4560  -10.8005 C   0  0  0  0  0  0  0  0  0  0  0  0
   -6.9796    3.1871   -9.9482 C   0  0  0  0  0  0  0  0  0  0  0  0
   -6.4561    3.3792   -8.6053 N   0  0  0  0  0  0  0  0  0  0  0  0
   -6.7168    4.4417  -10.7834 C   0  0  0  0  0  0  0  0  0  0  0  0
   -5.5078    3.7509   -8.6600 H   0  0  0  0  0  0  0  0  0  0  0  0
   -6.4430    2.4852   -8.1143 H   0  0  0  0  0  0  0  0  0  0  0  0
   -5.0316    5.5038  -19.3511 C   0  0  0  0  0  0  0  0  0  0  0  0
   -3.0599    6.3665  -20.4600 C   0  0  0  0  0  0  0  0  0  0  0  0
   -3.7801    5.1600  -20.0526 N   0  0  0  0  0  0  0  0  0  0  0  0
   -3.1875    4.6124  -19.4286 H   0  0  0  0  0  0  0  0  0  0  0  0
 25 26  1  0  0  0
 26 24  1  0  0  0
 24  1  1  0  0  0
  1  2  2  0  0  0
  2  3  1  0  0  0
  3  4  1  0  0  0
  3  5  2  0  0  0
  5  6  1  0  0  0
  6  7  2  0  0  0
  7 13  1  0  0  0
 13 14  2  0  0  0
 13 15  1  0  0  0
 15 16  2  0  0  0
 17 15  1  0  0  0
 17 18  1  0  0  0
 18 19  1  0  0  0
 19 20  1  0  0  0
 19 21  1  0  0  0
  7  8  1  0  0  0
  8  9  2  0  0  0
  9 10  1  0  0  0
  9 11  1  0  0  0
 11 12  2  0  0  0
 12  1  1  0  0  0
 12  6  1  0  0  0
 21 17  1  0  0  0
 26 27  1  0  0  0
 20 22  1  0  0  0
 20 23  1  0  0  0
M  END
> <minimizedAffinity>
-7.47511

> <minimizedRMSD>
0.70043

$$$$
P13092


 29 32  0  0  0  0  0  0  0  0999 V2000
   -2.8814    5.2364  -14.8570 C   0  0  0  0  0  0  0  0  0  0  0  0
   -4.0851    5.0967  -15.7369 C   0  0  0  0  0  0  0  0  0  0  0  0
   -3.9635    5.2168  -17.1092 C   0  0  0  0  0  0  0  0  0  0  0  0
   -5.1020    5.1077  -17.9167 C   0  0  0  0  0  0  0  0  0  0  0  0
   -6.3520    4.8440  -17.3003 C   0  0  0  0  0  0  0  0  0  0  0  0
   -7.5576    4.6719  -18.0262 C   0  0  0  0  0  0  0  0  0  0  0  0
   -8.7697    4.4281  -17.3845 C   0  0  0  0  0  0  0  0  0  0  0  0
   -8.8010    4.3683  -16.0023 C   0  0  0  0  0  0  0  0  0  0  0  0
   -7.6139    4.5176  -15.2819 C   0  0  0  0  0  0  0  0  0  0  0  0
   -6.3816    4.7460  -15.8885 C   0  0  0  0  0  0  0  0  0  0  0  0
   -5.2686    4.8721  -15.1339 N   0  0  0  0  0  0  0  0  0  0  0  0
   -7.6978    4.5825  -13.8232 C   0  0  0  0  0  0  0  0  0  0  0  0
   -8.0037    5.6485  -13.2984 O   0  0  0  0  0  0  0  0  0  0  0  0
   -7.4525    3.3340  -12.9783 C   0  0  0  0  0  0  0  0  0  0  0  0
   -7.3755    2.2302  -13.5046 O   0  0  0  0  0  0  0  0  0  0  0  0
   -7.3670    3.6972  -11.4662 C   0  0  0  0  0  0  0  0  0  0  0  0
   -7.0475    2.6040  -10.4194 C   0  0  0  0  0  0  0  0  0  0  0  0
   -8.0733    3.3022   -9.4549 C   0  0  0  0  0  0  0  0  0  0  0  0
   -8.9419    2.4133   -8.5712 C   0  0  0  0  0  0  0  0  0  0  0  0
   -9.0554    3.1887   -7.2673 C   0  0  0  0  0  0  0  0  0  0  0  0
   -7.7615    3.8805   -7.1470 N   0  0  0  0  0  0  0  0  0  0  0  0
   -7.4933    4.3588   -8.5109 C   0  0  0  0  0  0  0  0  0  0  0  0
   -8.7252    3.8727  -10.7417 C   0  0  0  0  0  0  0  0  0  0  0  0
   -7.0328    3.2375   -6.8373 H   0  0  0  0  0  0  0  0  0  0  0  0
   -4.9863    5.2702  -19.4198 C   0  0  0  0  0  0  0  0  0  0  0  0
   -3.6457    5.6038  -19.8111 O   0  0  0  0  0  0  0  0  0  0  0  0
   -3.5473    6.8636  -20.4880 C   0  0  0  0  0  0  0  0  0  0  0  0
   -3.2750    8.0039  -19.5083 C   0  0  0  0  0  0  0  0  0  0  0  0
   -2.3966    6.7499  -21.4824 C   0  0  0  0  0  0  0  0  0  0  0  0
  1  2  1  0  0  0
  2  3  2  0  0  0
  3  4  1  0  0  0
  4 25  1  0  0  0
 25 26  1  0  0  0
 26 27  1  0  0  0
 27 28  1  0  0  0
 27 29  1  0  0  0
  4  5  2  0  0  0
  5  6  1  0  0  0
  6  7  2  0  0  0
  7  8  1  0  0  0
  8  9  2  0  0  0
  9 12  1  0  0  0
 12 13  2  0  0  0
 12 14  1  0  0  0
 14 15  2  0  0  0
 16 14  1  0  0  0
 16 17  1  0  0  0
 18 17  1  0  0  0
 18 19  1  0  0  0
 19 20  1  0  0  0
 20 21  1  0  0  0
 21 22  1  0  0  0
 18 23  1  0  0  0
  9 10  1  0  0  0
 10 11  2  0  0  0
 11  2  1  0  0  0
 10  5  1  0  0  0
 23 16  1  0  0  0
 22 18  1  0  0  0
 21 24  1  0  0  0
M  END
> <minimizedAffinity>
-7.49977

> <minimizedRMSD>
0.42335

$$$$
P13093


 31 34  0  0  0  0  0  0  0  0999 V2000
   -3.6979    5.3982  -17.1575 C   0  0  0  0  0  0  0  0  0  0  0  0
   -3.6734    5.1097  -15.7892 C   0  0  0  0  0  0  0  0  0  0  0  0
   -2.4208    5.1759  -14.9646 C   0  0  0  0  0  0  0  0  0  0  0  0
   -4.7759    4.7695  -15.0875 N   0  0  0  0  0  0  0  0  0  0  0  0
   -5.9714    4.7182  -15.6955 C   0  0  0  0  0  0  0  0  0  0  0  0
   -7.1152    4.4633  -14.9402 C   0  0  0  0  0  0  0  0  0  0  0  0
   -8.3918    4.4105  -15.4997 C   0  0  0  0  0  0  0  0  0  0  0  0
   -8.5437    4.5781  -16.8623 C   0  0  0  0  0  0  0  0  0  0  0  0
   -7.4185    4.8343  -17.6433 C   0  0  0  0  0  0  0  0  0  0  0  0
   -6.1116    4.9205  -17.0862 C   0  0  0  0  0  0  0  0  0  0  0  0
   -4.9293    5.2156  -17.8395 C   0  0  0  0  0  0  0  0  0  0  0  0
   -5.0439    5.4074  -19.3397 C   0  0  0  0  0  0  0  0  0  0  0  0
   -3.9321    4.8917  -20.0651 O   0  0  0  0  0  0  0  0  0  0  0  0
   -3.1264    5.3618  -19.7991 H   0  0  0  0  0  0  0  0  0  0  0  0
   -6.9967    4.2980  -13.4821 C   0  0  0  0  0  0  0  0  0  0  0  0
   -6.8153    5.2756  -12.7689 O   0  0  0  0  0  0  0  0  0  0  0  0
   -7.1747    2.9000  -12.9026 C   0  0  0  0  0  0  0  0  0  0  0  0
   -6.8397    1.9232  -13.5715 O   0  0  0  0  0  0  0  0  0  0  0  0
   -7.8277    2.7753  -11.5358 C   0  0  0  0  0  0  0  0  0  0  0  0
   -7.0377    2.7554  -10.2200 C   0  0  0  0  0  0  0  0  0  0  0  0
   -8.2550    3.4767   -9.5440 C   0  0  0  0  0  0  0  0  0  0  0  0
   -9.3007    2.6134   -8.8398 C   0  0  0  0  0  0  0  0  0  0  0  0
   -9.0480    2.9277   -7.3734 C   0  0  0  0  0  0  0  0  0  0  0  0
   -8.7532    4.3699   -7.3664 N   0  0  0  0  0  0  0  0  0  0  0  0
   -7.8681    4.5496   -8.5309 C   0  0  0  0  0  0  0  0  0  0  0  0
   -8.6525    3.9427  -10.9700 C   0  0  0  0  0  0  0  0  0  0  0  0
   -8.2799    4.6404   -6.5043 H   0  0  0  0  0  0  0  0  0  0  0  0
   -2.4559    5.9389  -17.8393 C   0  0  0  0  0  0  0  0  0  0  0  0
   -2.3783    8.2849  -17.2040 C   0  0  0  0  0  0  0  0  0  0  0  0
   -2.5969    7.3352  -18.2871 N   0  0  0  0  0  0  0  0  0  0  0  0
   -1.9147    7.5144  -19.0239 H   0  0  0  0  0  0  0  0  0  0  0  0
 29 30  1  0  0  0
 30 28  1  0  0  0
 28  1  1  0  0  0
  1  2  2  0  0  0
  2  3  1  0  0  0
  2  4  1  0  0  0
  4  5  2  0  0  0
  5  6  1  0  0  0
  6 15  1  0  0  0
 15 16  2  0  0  0
 15 17  1  0  0  0
 17 18  2  0  0  0
 19 17  1  0  0  0
 19 20  1  0  0  0
 21 20  1  0  0  0
 21 22  1  0  0  0
 22 23  1  0  0  0
 23 24  1  0  0  0
 24 25  1  0  0  0
 21 26  1  0  0  0
  6  7  2  0  0  0
  7  8  1  0  0  0
  8  9  2  0  0  0
  9 10  1  0  0  0
 10 11  2  0  0  0
 11 12  1  0  0  0
 12 13  1  0  0  0
 11  1  1  0  0  0
 10  5  1  0  0  0
 26 19  1  0  0  0
 25 21  1  0  0  0
 30 31  1  0  0  0
 24 27  1  0  0  0
 13 14  1  0  0  0
M  END
> <minimizedAffinity>
-7.29931

> <minimizedRMSD>
0.60945

$$$$
P13097


 31 34  0  0  0  0  0  0  0  0999 V2000
   -2.9643    5.4238  -14.6935 C   0  0  0  0  0  0  0  0  0  0  0  0
   -4.0753    5.2239  -15.6848 C   0  0  0  0  0  0  0  0  0  0  0  0
   -5.2736    4.9618  -15.1188 N   0  0  0  0  0  0  0  0  0  0  0  0
   -6.3599    4.7991  -15.8895 C   0  0  0  0  0  0  0  0  0  0  0  0
   -7.5932    4.5452  -15.2937 C   0  0  0  0  0  0  0  0  0  0  0  0
   -8.7663    4.3543  -16.0229 C   0  0  0  0  0  0  0  0  0  0  0  0
   -8.7175    4.4086  -17.4026 C   0  0  0  0  0  0  0  0  0  0  0  0
   -7.5019    4.6829  -18.0278 C   0  0  0  0  0  0  0  0  0  0  0  0
   -6.2978    4.8848  -17.2948 C   0  0  0  0  0  0  0  0  0  0  0  0
   -5.0237    5.1627  -17.8972 C   0  0  0  0  0  0  0  0  0  0  0  0
   -3.8791    5.3050  -17.0699 C   0  0  0  0  0  0  0  0  0  0  0  0
   -2.4866    5.5464  -17.6031 C   0  0  0  0  0  0  0  0  0  0  0  0
   -2.2991    6.9287  -18.0313 N   0  0  0  0  0  0  0  0  0  0  0  0
   -2.9532    7.1432  -18.7840 H   0  0  0  0  0  0  0  0  0  0  0  0
   -1.3435    7.0546  -18.3651 H   0  0  0  0  0  0  0  0  0  0  0  0
   -5.0137    5.3210  -19.4100 C   0  0  0  0  0  0  0  0  0  0  0  0
   -3.8247    4.9300  -20.0830 O   0  0  0  0  0  0  0  0  0  0  0  0
   -3.0914    5.4985  -19.8004 H   0  0  0  0  0  0  0  0  0  0  0  0
   -7.6907    4.6060  -13.8347 C   0  0  0  0  0  0  0  0  0  0  0  0
   -7.9994    5.6652  -13.2977 O   0  0  0  0  0  0  0  0  0  0  0  0
   -7.4472    3.3510  -13.0007 C   0  0  0  0  0  0  0  0  0  0  0  0
   -7.3895    2.2492  -13.5343 O   0  0  0  0  0  0  0  0  0  0  0  0
   -7.3265    3.7138  -11.4903 C   0  0  0  0  0  0  0  0  0  0  0  0
   -6.9879    2.6205  -10.4520 C   0  0  0  0  0  0  0  0  0  0  0  0
   -7.9952    3.3087   -9.4706 C   0  0  0  0  0  0  0  0  0  0  0  0
   -8.9046    2.4386   -8.6152 C   0  0  0  0  0  0  0  0  0  0  0  0
   -9.0447    3.1903   -7.2934 C   0  0  0  0  0  0  0  0  0  0  0  0
   -8.5123    4.5404   -7.5214 N   0  0  0  0  0  0  0  0  0  0  0  0
   -7.4453    4.3527   -8.5042 C   0  0  0  0  0  0  0  0  0  0  0  0
   -8.6678    3.9043  -10.7391 C   0  0  0  0  0  0  0  0  0  0  0  0
   -8.1406    4.9322   -6.6562 H   0  0  0  0  0  0  0  0  0  0  0  0
  1  2  1  0  0  0
  2  3  2  0  0  0
  3  4  1  0  0  0
  4  5  2  0  0  0
  5 19  1  0  0  0
 19 20  2  0  0  0
 19 21  1  0  0  0
 21 22  2  0  0  0
 23 21  1  0  0  0
 23 24  1  0  0  0
 25 24  1  0  0  0
 25 26  1  0  0  0
 26 27  1  0  0  0
 27 28  1  0  0  0
 28 29  1  0  0  0
 25 30  1  0  0  0
  5  6  1  0  0  0
  6  7  2  0  0  0
  7  8  1  0  0  0
  8  9  2  0  0  0
  9 10  1  0  0  0
 10 16  1  0  0  0
 16 17  1  0  0  0
 10 11  2  0  0  0
 11 12  1  0  0  0
 12 13  1  0  0  0
 11  2  1  0  0  0
  9  4  1  0  0  0
 30 23  1  0  0  0
 29 25  1  0  0  0
 28 31  1  0  0  0
 17 18  1  0  0  0
 13 14  1  0  0  0
 13 15  1  0  0  0
M  END
> <minimizedAffinity>
-7.63390

> <minimizedRMSD>
0.44027

$$$$
P13099


 31 33  0  0  0  0  0  0  0  0999 V2000
   -5.2647    5.2024  -17.6840 C   0  0  0  0  0  0  0  0  0  0  0  0
   -4.1521    5.2567  -16.8373 C   0  0  0  0  0  0  0  0  0  0  0  0
   -4.3203    5.0590  -15.4797 C   0  0  0  0  0  0  0  0  0  0  0  0
   -3.1576    5.1671  -14.5436 C   0  0  0  0  0  0  0  0  0  0  0  0
   -5.5233    4.8028  -14.9348 N   0  0  0  0  0  0  0  0  0  0  0  0
   -6.6089    4.7239  -15.7305 C   0  0  0  0  0  0  0  0  0  0  0  0
   -7.8611    4.4559  -15.1860 C   0  0  0  0  0  0  0  0  0  0  0  0
   -9.0214    4.3109  -15.9362 C   0  0  0  0  0  0  0  0  0  0  0  0
   -8.9264    4.4410  -17.3005 C   0  0  0  0  0  0  0  0  0  0  0  0
  -10.3346    4.3116  -18.2437 Cl  0  0  0  0  0  0  0  0  0  0  0  0
   -7.7067    4.7340  -17.8976 C   0  0  0  0  0  0  0  0  0  0  0  0
   -6.5313    4.8926  -17.1263 C   0  0  0  0  0  0  0  0  0  0  0  0
   -7.9811    4.3567  -13.7413 C   0  0  0  0  0  0  0  0  0  0  0  0
   -8.5938    5.2222  -13.1366 O   0  0  0  0  0  0  0  0  0  0  0  0
   -7.3513    3.1549  -13.0707 C   0  0  0  0  0  0  0  0  0  0  0  0
   -7.3925    2.0538  -13.6166 O   0  0  0  0  0  0  0  0  0  0  0  0
   -6.6251    3.3860  -11.7865 C   0  0  0  0  0  0  0  0  0  0  0  0
   -5.9400    4.7132  -11.3845 C   0  0  0  0  0  0  0  0  0  0  0  0
   -6.1056    4.1917   -9.9324 C   0  0  0  0  0  0  0  0  0  0  0  0
   -6.4114    5.3204   -9.0559 N   0  0  0  0  0  0  0  0  0  0  0  0
   -7.4194    3.5594  -10.4602 C   0  0  0  0  0  0  0  0  0  0  0  0
   -5.5423    5.7301   -8.7135 H   0  0  0  0  0  0  0  0  0  0  0  0
   -6.9689    4.9959   -8.2658 H   0  0  0  0  0  0  0  0  0  0  0  0
   -5.0387    3.2576   -9.3757 C   0  0  0  0  0  0  0  0  0  0  0  0
   -4.4879    3.7906   -8.1131 N   0  0  0  0  0  0  0  0  0  0  0  0
   -3.0437    3.9502   -8.1433 C   0  0  0  0  0  0  0  0  0  0  0  0
   -4.7278    3.1485   -7.3577 H   0  0  0  0  0  0  0  0  0  0  0  0
   -5.1328    5.4406  -19.1717 C   0  0  0  0  0  0  0  0  0  0  0  0
   -3.1567    6.3122  -20.2676 C   0  0  0  0  0  0  0  0  0  0  0  0
   -3.8246    5.1105  -19.7686 N   0  0  0  0  0  0  0  0  0  0  0  0
   -3.2361    4.6718  -19.0603 H   0  0  0  0  0  0  0  0  0  0  0  0
 29 30  1  0  0  0
 30 28  1  0  0  0
 28  1  1  0  0  0
  1  2  2  0  0  0
  2  3  1  0  0  0
  3  4  1  0  0  0
  3  5  2  0  0  0
  5  6  1  0  0  0
  6  7  2  0  0  0
  7 13  1  0  0  0
 13 14  2  0  0  0
 13 15  1  0  0  0
 15 16  2  0  0  0
 17 15  1  0  0  0
 17 18  1  0  0  0
 18 19  1  0  0  0
 19 20  1  0  0  0
 19 24  1  0  0  0
 24 25  1  0  0  0
 25 26  1  0  0  0
 19 21  1  0  0  0
  7  8  1  0  0  0
  8  9  2  0  0  0
  9 10  1  0  0  0
  9 11  1  0  0  0
 11 12  2  0  0  0
 12  1  1  0  0  0
 12  6  1  0  0  0
 21 17  1  0  0  0
 30 31  1  0  0  0
 20 22  1  0  0  0
 20 23  1  0  0  0
 25 27  1  0  0  0
M  END
> <minimizedAffinity>
-7.04958

> <minimizedRMSD>
1.12622

$$$$
P13102


 30 32  0  0  0  0  0  0  0  0999 V2000
   -5.0883    5.5583  -18.1609 C   0  0  0  0  0  0  0  0  0  0  0  0
   -5.1417    4.9699  -19.5860 C   0  0  0  0  0  0  0  0  0  0  0  0
   -3.7562    5.0690  -17.5220 C   0  0  0  0  0  0  0  0  0  0  0  0
   -3.7935    4.8197  -16.0056 C   0  0  0  0  0  0  0  0  0  0  0  0
   -2.4840    5.2362  -15.3428 C   0  0  0  0  0  0  0  0  0  0  0  0
   -4.8966    5.5269  -15.3681 N   0  0  0  0  0  0  0  0  0  0  0  0
   -6.1370    5.0958  -15.9064 C   0  0  0  0  0  0  0  0  0  0  0  0
   -7.2187    4.6926  -15.0976 C   0  0  0  0  0  0  0  0  0  0  0  0
   -8.4417    4.3516  -15.6702 C   0  0  0  0  0  0  0  0  0  0  0  0
   -8.5848    4.4309  -17.0490 C   0  0  0  0  0  0  0  0  0  0  0  0
  -10.1192    4.1981  -17.7599 Cl  0  0  0  0  0  0  0  0  0  0  0  0
   -7.5192    4.7927  -17.8665 C   0  0  0  0  0  0  0  0  0  0  0  0
   -6.2792    5.1206  -17.3097 C   0  0  0  0  0  0  0  0  0  0  0  0
   -4.7957    6.2074  -14.6638 H   0  0  0  0  0  0  0  0  0  0  0  0
   -7.0567    4.6122  -13.6332 C   0  0  0  0  0  0  0  0  0  0  0  0
   -6.4344    5.4635  -13.0088 O   0  0  0  0  0  0  0  0  0  0  0  0
   -7.5849    3.4047  -12.8953 C   0  0  0  0  0  0  0  0  0  0  0  0
   -7.4387    2.2974  -13.4055 O   0  0  0  0  0  0  0  0  0  0  0  0
   -8.2209    3.7760  -11.5329 C   0  0  0  0  0  0  0  0  0  0  0  0
   -9.0858    2.6746  -10.8911 C   0  0  0  0  0  0  0  0  0  0  0  0
   -8.7048    3.2615   -9.5280 C   0  0  0  0  0  0  0  0  0  0  0  0
   -8.5382    2.1925   -8.5639 N   0  0  0  0  0  0  0  0  0  0  0  0
   -7.3683    3.7026  -10.1998 C   0  0  0  0  0  0  0  0  0  0  0  0
   -6.1539    2.7778  -10.1612 C   0  0  0  0  0  0  0  0  0  0  0  0
   -7.9697    1.4511   -8.9732 H   0  0  0  0  0  0  0  0  0  0  0  0
   -9.4524    1.8187   -8.3092 H   0  0  0  0  0  0  0  0  0  0  0  0
   -5.0909    7.1157  -18.3565 C   0  0  0  0  0  0  0  0  0  0  0  0
   -4.0440    8.7437  -16.8775 C   0  0  0  0  0  0  0  0  0  0  0  0
   -5.2261    7.9458  -17.1522 N   0  0  0  0  0  0  0  0  0  0  0  0
   -6.0202    8.5736  -17.2776 H   0  0  0  0  0  0  0  0  0  0  0  0
 28 29  1  0  0  0
 29 27  1  0  0  0
 27  1  1  0  0  0
  1  2  1  0  0  0
  1  3  1  0  0  0
  3  4  1  0  0  0
  4  5  1  0  0  0
  4  6  1  0  0  0
  6  7  1  0  0  0
  7  8  2  0  0  0
  8 15  1  0  0  0
 15 16  2  0  0  0
 15 17  1  0  0  0
 17 18  2  0  0  0
 19 17  1  0  0  0
 19 20  1  0  0  0
 20 21  1  0  0  0
 21 22  1  0  0  0
 21 23  1  0  0  0
 23 24  1  0  0  0
  8  9  1  0  0  0
  9 10  2  0  0  0
 10 11  1  0  0  0
 10 12  1  0  0  0
 12 13  2  0  0  0
 13  1  1  0  0  0
 13  7  1  0  0  0
 23 19  1  0  0  0
 29 30  1  0  0  0
  6 14  1  0  0  0
 22 25  1  0  0  0
 22 26  1  0  0  0
M  END
> <minimizedAffinity>
-7.49826

> <minimizedRMSD>
0.32367

$$$$
P13107


 28 32  0  0  0  0  0  0  0  0999 V2000
   -2.7897    5.2567  -15.3200 C   0  0  0  0  0  0  0  0  0  0  0  0
   -4.0498    5.0993  -16.0969 C   0  0  0  0  0  0  0  0  0  0  0  0
   -5.2391    4.8922  -15.4161 N   0  0  0  0  0  0  0  0  0  0  0  0
   -6.4756    4.7468  -16.0354 C   0  0  0  0  0  0  0  0  0  0  0  0
   -7.6285    4.5381  -15.2805 C   0  0  0  0  0  0  0  0  0  0  0  0
   -8.9008    4.3712  -15.8507 C   0  0  0  0  0  0  0  0  0  0  0  0
   -9.0495    4.3930  -17.2304 C   0  0  0  0  0  0  0  0  0  0  0  0
  -10.2592    4.2234  -17.7782 F   0  0  0  0  0  0  0  0  0  0  0  0
   -7.9600    4.6129  -18.0504 C   0  0  0  0  0  0  0  0  0  0  0  0
   -6.6944    4.7907  -17.4523 C   0  0  0  0  0  0  0  0  0  0  0  0
   -5.4769    5.0166  -18.1214 C   0  0  0  0  0  0  0  0  0  0  0  0
   -5.2374    5.1302  -19.4661 C   0  0  0  0  0  0  0  0  0  0  0  0
   -3.8972    5.3296  -19.6794 O   0  0  0  0  0  0  0  0  0  0  0  0
   -3.2864    5.3553  -18.4542 C   0  0  0  0  0  0  0  0  0  0  0  0
   -4.2236    5.1609  -17.4774 C   0  0  0  0  0  0  0  0  0  0  0  0
   -7.5309    4.6268  -13.8189 C   0  0  0  0  0  0  0  0  0  0  0  0
   -7.5885    5.7325  -13.2909 O   0  0  0  0  0  0  0  0  0  0  0  0
   -7.3888    3.3603  -12.9738 C   0  0  0  0  0  0  0  0  0  0  0  0
   -7.3673    2.2605  -13.5146 O   0  0  0  0  0  0  0  0  0  0  0  0
   -7.2984    3.7007  -11.4534 C   0  0  0  0  0  0  0  0  0  0  0  0
   -7.0347    2.5797  -10.4183 C   0  0  0  0  0  0  0  0  0  0  0  0
   -8.0386    3.2990   -9.4513 C   0  0  0  0  0  0  0  0  0  0  0  0
   -9.0105    2.4688   -8.6161 C   0  0  0  0  0  0  0  0  0  0  0  0
   -9.0795    3.1754   -7.2666 C   0  0  0  0  0  0  0  0  0  0  0  0
   -8.5239    4.5188   -7.4821 N   0  0  0  0  0  0  0  0  0  0  0  0
   -7.4628    4.3149   -8.4689 C   0  0  0  0  0  0  0  0  0  0  0  0
   -8.6493    3.9327  -10.7337 C   0  0  0  0  0  0  0  0  0  0  0  0
   -8.1431    4.8961   -6.6143 H   0  0  0  0  0  0  0  0  0  0  0  0
  1  2  1  0  0  0
  2  3  2  0  0  0
  3  4  1  0  0  0
  4  5  2  0  0  0
  5 16  1  0  0  0
 16 17  2  0  0  0
 16 18  1  0  0  0
 18 19  2  0  0  0
 20 18  1  0  0  0
 20 21  1  0  0  0
 22 21  1  0  0  0
 22 23  1  0  0  0
 23 24  1  0  0  0
 24 25  1  0  0  0
 25 26  1  0  0  0
 22 27  1  0  0  0
  5  6  1  0  0  0
  6  7  2  0  0  0
  7  8  1  0  0  0
  7  9  1  0  0  0
  9 10  2  0  0  0
 10 11  1  0  0  0
 11 12  2  0  0  0
 12 13  1  0  0  0
 13 14  1  0  0  0
 14 15  2  0  0  0
 15  2  1  0  0  0
 10  4  1  0  0  0
 15 11  1  0  0  0
 27 20  1  0  0  0
 26 22  1  0  0  0
 25 28  1  0  0  0
M  END
> <minimizedAffinity>
-8.54734

> <minimizedRMSD>
0.22981

$$$$
P13110


 29 31  0  0  0  0  0  0  0  0999 V2000
   -5.2602    5.5908  -17.7565 C   0  0  0  0  0  0  0  0  0  0  0  0
   -5.1049    4.9219  -19.1312 C   0  0  0  0  0  0  0  0  0  0  0  0
   -4.0593    5.2005  -16.8652 C   0  0  0  0  0  0  0  0  0  0  0  0
   -4.2835    5.6270  -15.4145 C   0  0  0  0  0  0  0  0  0  0  0  0
   -3.0895    5.2312  -14.5490 C   0  0  0  0  0  0  0  0  0  0  0  0
   -5.4628    4.9696  -14.8721 N   0  0  0  0  0  0  0  0  0  0  0  0
   -6.6091    4.8841  -15.6775 C   0  0  0  0  0  0  0  0  0  0  0  0
   -7.8164    4.3784  -15.1299 C   0  0  0  0  0  0  0  0  0  0  0  0
   -8.9524    4.1880  -15.9110 C   0  0  0  0  0  0  0  0  0  0  0  0
   -8.8786    4.4870  -17.2592 C   0  0  0  0  0  0  0  0  0  0  0  0
  -10.2356    4.3349  -18.2698 Cl  0  0  0  0  0  0  0  0  0  0  0  0
   -7.7085    4.9640  -17.8288 C   0  0  0  0  0  0  0  0  0  0  0  0
   -6.5503    5.1428  -17.0641 C   0  0  0  0  0  0  0  0  0  0  0  0
   -5.4568    4.5939  -13.9622 H   0  0  0  0  0  0  0  0  0  0  0  0
   -7.9173    4.1311  -13.6826 C   0  0  0  0  0  0  0  0  0  0  0  0
   -8.5417    4.9257  -12.9863 O   0  0  0  0  0  0  0  0  0  0  0  0
   -7.2205    2.9344  -13.0500 C   0  0  0  0  0  0  0  0  0  0  0  0
   -7.2943    1.8290  -13.5728 O   0  0  0  0  0  0  0  0  0  0  0  0
   -6.4376    3.3184  -11.7614 C   0  0  0  0  0  0  0  0  0  0  0  0
   -5.2468    2.4088  -11.3788 C   0  0  0  0  0  0  0  0  0  0  0  0
   -5.8061    2.2940   -9.9448 C   0  0  0  0  0  0  0  0  0  0  0  0
   -5.0579    3.2082   -9.0872 N   0  0  0  0  0  0  0  0  0  0  0  0
   -7.1043    2.9541  -10.4149 C   0  0  0  0  0  0  0  0  0  0  0  0
   -4.9969    4.1221   -9.5359 H   0  0  0  0  0  0  0  0  0  0  0  0
   -4.1187    2.8404   -8.9358 H   0  0  0  0  0  0  0  0  0  0  0  0
   -5.2935    7.1127  -18.0414 C   0  0  0  0  0  0  0  0  0  0  0  0
   -5.7268    8.8408  -19.6748 C   0  0  0  0  0  0  0  0  0  0  0  0
   -5.5928    7.4060  -19.4595 N   0  0  0  0  0  0  0  0  0  0  0  0
   -4.8347    7.0500  -20.0417 H   0  0  0  0  0  0  0  0  0  0  0  0
 27 28  1  0  0  0
 28 26  1  0  0  0
 26  1  1  0  0  0
  1  2  1  0  0  0
  1  3  1  0  0  0
  3  4  1  0  0  0
  4  5  1  0  0  0
  4  6  1  0  0  0
  6  7  1  0  0  0
  7  8  2  0  0  0
  8 15  1  0  0  0
 15 16  2  0  0  0
 15 17  1  0  0  0
 17 18  2  0  0  0
 19 17  1  0  0  0
 19 20  1  0  0  0
 20 21  1  0  0  0
 21 22  1  0  0  0
 21 23  1  0  0  0
  8  9  1  0  0  0
  9 10  2  0  0  0
 10 11  1  0  0  0
 10 12  1  0  0  0
 12 13  2  0  0  0
 13  1  1  0  0  0
 13  7  1  0  0  0
 23 19  1  0  0  0
 28 29  1  0  0  0
  6 14  1  0  0  0
 22 24  1  0  0  0
 22 25  1  0  0  0
M  END
> <minimizedAffinity>
-7.32019

> <minimizedRMSD>
1.13377

$$$$
P13113


 34 38  0  0  0  0  0  0  0  0999 V2000
   -2.5943    5.7603  -14.7026 C   0  0  0  0  0  0  0  0  0  0  0  0
   -3.8620    5.9887  -15.5411 C   0  0  0  0  0  0  0  0  0  0  0  0
   -4.8271    5.0084  -15.0388 N   0  0  0  0  0  0  0  0  0  0  0  0
   -6.0781    5.0059  -15.6842 C   0  0  0  0  0  0  0  0  0  0  0  0
   -7.2829    4.8576  -14.9537 C   0  0  0  0  0  0  0  0  0  0  0  0
   -8.4801    4.5917  -15.6127 C   0  0  0  0  0  0  0  0  0  0  0  0
   -8.4872    4.5221  -16.9954 C   0  0  0  0  0  0  0  0  0  0  0  0
   -9.9634    4.2749  -17.8226 Cl  0  0  0  0  0  0  0  0  0  0  0  0
   -7.3214    4.7207  -17.7269 C   0  0  0  0  0  0  0  0  0  0  0  0
   -6.0981    4.9661  -17.0823 C   0  0  0  0  0  0  0  0  0  0  0  0
   -4.7698    5.0656  -17.8218 C   0  0  0  0  0  0  0  0  0  0  0  0
   -3.7172    6.0171  -17.1186 C   0  0  0  0  0  0  0  0  0  0  0  0
   -2.2747    5.6120  -17.5858 C   0  0  0  0  0  0  0  0  0  0  0  0
   -1.3824    6.8088  -17.9087 C   0  0  0  0  0  0  0  0  0  0  0  0
   -1.5918    7.8548  -16.9683 O   0  0  0  0  0  0  0  0  0  0  0  0
   -2.8765    8.4577  -17.0822 C   0  0  0  0  0  0  0  0  0  0  0  0
   -3.9630    7.4953  -17.5643 C   0  0  0  0  0  0  0  0  0  0  0  0
   -4.6154    4.3932  -14.3000 H   0  0  0  0  0  0  0  0  0  0  0  0
   -4.9897    5.3293  -19.3303 C   0  0  0  0  0  0  0  0  0  0  0  0
   -3.8929    4.9277  -20.1410 O   0  0  0  0  0  0  0  0  0  0  0  0
   -3.1051    5.4371  -19.8947 H   0  0  0  0  0  0  0  0  0  0  0  0
   -7.2602    5.1333  -13.5002 C   0  0  0  0  0  0  0  0  0  0  0  0
   -6.9081    6.2350  -13.0797 O   0  0  0  0  0  0  0  0  0  0  0  0
   -7.6407    4.1072  -12.4714 C   0  0  0  0  0  0  0  0  0  0  0  0
   -8.8221    3.8801  -12.2892 O   0  0  0  0  0  0  0  0  0  0  0  0
   -6.3789    3.5937  -11.7453 C   0  0  0  0  0  0  0  0  0  0  0  0
   -6.4039    3.1776  -10.2568 C   0  0  0  0  0  0  0  0  0  0  0  0
   -5.3462    2.0845  -10.6313 C   0  0  0  0  0  0  0  0  0  0  0  0
   -3.8626    2.4313  -10.6252 C   0  0  0  0  0  0  0  0  0  0  0  0
   -3.2344    1.0734  -10.9159 C   0  0  0  0  0  0  0  0  0  0  0  0
   -4.0963    0.0667  -10.2823 N   0  0  0  0  0  0  0  0  0  0  0  0
   -5.3768    0.7284   -9.9523 C   0  0  0  0  0  0  0  0  0  0  0  0
   -5.9702    2.1262  -12.0525 C   0  0  0  0  0  0  0  0  0  0  0  0
   -3.6558   -0.2846   -9.4321 H   0  0  0  0  0  0  0  0  0  0  0  0
  2  1  1  0  0  0
  2  3  1  0  0  0
  3  4  1  0  0  0
  4  5  2  0  0  0
  5 22  1  0  0  0
 22 23  2  0  0  0
 22 24  1  0  0  0
 24 25  2  0  0  0
 26 24  1  0  0  0
 26 27  1  0  0  0
 28 27  1  0  0  0
 28 29  1  0  0  0
 29 30  1  0  0  0
 30 31  1  0  0  0
 31 32  1  0  0  0
 28 33  1  0  0  0
  5  6  1  0  0  0
  6  7  2  0  0  0
  7  8  1  0  0  0
  7  9  1  0  0  0
  9 10  2  0  0  0
 10 11  1  0  0  0
 11 19  1  0  0  0
 19 20  1  0  0  0
 11 12  1  0  0  0
 12 13  1  0  0  0
 13 14  1  0  0  0
 14 15  1  0  0  0
 15 16  1  0  0  0
 16 17  1  0  0  0
 12  2  1  0  0  0
 10  4  1  0  0  0
 17 12  1  0  0  0
 33 26  1  0  0  0
 32 28  1  0  0  0
  3 18  1  0  0  0
 31 34  1  0  0  0
 20 21  1  0  0  0
M  END
> <minimizedAffinity>
-8.29637

> <minimizedRMSD>
0.88258

$$$$
P13114


 32 36  0  0  0  0  0  0  0  0999 V2000
   -2.7521    5.2962  -14.7621 C   0  0  0  0  0  0  0  0  0  0  0  0
   -3.9710    5.1284  -15.6150 C   0  0  0  0  0  0  0  0  0  0  0  0
   -3.8804    5.2373  -16.9918 C   0  0  0  0  0  0  0  0  0  0  0  0
   -5.0363    5.1134  -17.7657 C   0  0  0  0  0  0  0  0  0  0  0  0
   -6.2655    4.8686  -17.1051 C   0  0  0  0  0  0  0  0  0  0  0  0
   -7.4723    4.7104  -17.8094 C   0  0  0  0  0  0  0  0  0  0  0  0
   -8.6673    4.4892  -17.1398 C   0  0  0  0  0  0  0  0  0  0  0  0
  -10.0997    4.3852  -18.0676 Cl  0  0  0  0  0  0  0  0  0  0  0  0
   -8.6962    4.4135  -15.7570 C   0  0  0  0  0  0  0  0  0  0  0  0
   -7.4985    4.5469  -15.0496 C   0  0  0  0  0  0  0  0  0  0  0  0
   -6.2743    4.7769  -15.6895 C   0  0  0  0  0  0  0  0  0  0  0  0
   -5.1372    4.9011  -14.9776 N   0  0  0  0  0  0  0  0  0  0  0  0
   -7.5387    4.5090  -13.5724 C   0  0  0  0  0  0  0  0  0  0  0  0
   -7.5355    5.5565  -12.9411 O   0  0  0  0  0  0  0  0  0  0  0  0
   -7.5819    3.1541  -12.8794 C   0  0  0  0  0  0  0  0  0  0  0  0
   -7.2544    2.1591  -13.5301 O   0  0  0  0  0  0  0  0  0  0  0  0
   -8.0749    3.0780  -11.4370 C   0  0  0  0  0  0  0  0  0  0  0  0
   -7.0638    2.7361  -10.3087 C   0  0  0  0  0  0  0  0  0  0  0  0
   -8.0476    3.4390   -9.3127 C   0  0  0  0  0  0  0  0  0  0  0  0
   -9.1247    2.5756   -8.6418 C   0  0  0  0  0  0  0  0  0  0  0  0
   -9.2151    3.1039   -7.2146 C   0  0  0  0  0  0  0  0  0  0  0  0
   -8.5829    4.4309   -7.2403 N   0  0  0  0  0  0  0  0  0  0  0  0
   -7.4749    4.2799   -8.1855 C   0  0  0  0  0  0  0  0  0  0  0  0
   -8.5086    4.2610  -10.5616 C   0  0  0  0  0  0  0  0  0  0  0  0
   -8.2373    4.6855   -6.3150 H   0  0  0  0  0  0  0  0  0  0  0  0
   -4.9719    5.2400  -19.2751 C   0  0  0  0  0  0  0  0  0  0  0  0
   -3.6250    5.1612  -19.7557 O   0  0  0  0  0  0  0  0  0  0  0  0
   -3.1640    6.3352  -20.4774 C   0  0  0  0  0  0  0  0  0  0  0  0
   -1.9699    7.0829  -19.8532 C   0  0  0  0  0  0  0  0  0  0  0  0
   -2.9209    8.0159  -19.2015 N   0  0  0  0  0  0  0  0  0  0  0  0
   -3.9282    7.6521  -20.2252 C   0  0  0  0  0  0  0  0  0  0  0  0
   -2.6328    8.9941  -19.2233 H   0  0  0  0  0  0  0  0  0  0  0  0
  1  2  1  0  0  0
  2  3  2  0  0  0
  3  4  1  0  0  0
  4 26  1  0  0  0
 26 27  1  0  0  0
 27 28  1  0  0  0
 28 29  1  0  0  0
 29 30  1  0  0  0
 30 31  1  0  0  0
  4  5  2  0  0  0
  5  6  1  0  0  0
  6  7  2  0  0  0
  7  8  1  0  0  0
  7  9  1  0  0  0
  9 10  2  0  0  0
 10 13  1  0  0  0
 13 14  2  0  0  0
 13 15  1  0  0  0
 15 16  2  0  0  0
 17 15  1  0  0  0
 17 18  1  0  0  0
 19 18  1  0  0  0
 19 20  1  0  0  0
 20 21  1  0  0  0
 21 22  1  0  0  0
 22 23  1  0  0  0
 19 24  1  0  0  0
 10 11  1  0  0  0
 11 12  2  0  0  0
 12  2  1  0  0  0
 31 28  1  0  0  0
 11  5  1  0  0  0
 24 17  1  0  0  0
 23 19  1  0  0  0
 30 32  1  0  0  0
 22 25  1  0  0  0
M  END
> <minimizedAffinity>
-7.95804

> <minimizedRMSD>
0.64245

$$$$
P13143


 31 33  0  0  0  0  0  0  0  0999 V2000
   -3.8558    6.1386  -14.3686 C   0  0  0  0  0  0  0  0  0  0  0  0
   -8.6263    4.7639  -14.4733 C   0  0  0  0  0  0  0  0  0  0  0  0
   -8.1561    4.7217  -15.9006 C   0  0  0  0  0  0  0  0  0  0  0  0
   -9.0649    4.3898  -16.9134 C   0  0  0  0  0  0  0  0  0  0  0  0
   -8.6561    4.3749  -18.2344 C   0  0  0  0  0  0  0  0  0  0  0  0
   -9.5881    4.1608  -19.2000 O   0  0  0  0  0  0  0  0  0  0  0  0
   -7.3362    4.6230  -18.5672 C   0  0  0  0  0  0  0  0  0  0  0  0
   -6.4211    4.9523  -17.5622 C   0  0  0  0  0  0  0  0  0  0  0  0
   -5.0866    5.2283  -17.8677 C   0  0  0  0  0  0  0  0  0  0  0  0
   -4.2020    5.5892  -16.8561 C   0  0  0  0  0  0  0  0  0  0  0  0
   -4.6731    5.6785  -15.5549 C   0  0  0  0  0  0  0  0  0  0  0  0
   -5.9583    5.3812  -15.2514 N   0  0  0  0  0  0  0  0  0  0  0  0
   -6.8272    5.0218  -16.2165 C   0  0  0  0  0  0  0  0  0  0  0  0
  -10.4790    3.9938  -18.9626 H   0  0  0  0  0  0  0  0  0  0  0  0
   -3.2026    7.5245  -14.4824 C   0  0  0  0  0  0  0  0  0  0  0  0
   -2.0714    7.6023  -15.5116 N   0  0  0  0  0  0  0  0  0  0  0  0
   -1.3088    6.9882  -15.2257 H   0  0  0  0  0  0  0  0  0  0  0  0
   -1.7311    8.5621  -15.5709 H   0  0  0  0  0  0  0  0  0  0  0  0
   -2.4209    7.3085  -16.4237 H   0  0  0  0  0  0  0  0  0  0  0  0
   -2.6080    7.9486  -13.1201 C   0  0  0  0  0  0  0  0  0  0  0  0
   -3.3343    7.9794  -12.1077 O   0  0  0  0  0  0  0  0  0  0  0  0
   -1.3614    8.1947  -13.2439 O   0  0  0  0  0  0  0  0  0  0  0  0
   -2.8325    5.0824  -13.9972 C   0  0  0  0  0  0  0  0  0  0  0  0
   -1.7421    5.0701  -14.5842 O   0  0  0  0  0  0  0  0  0  0  0  0
   -3.1919    4.0792  -12.9041 C   0  0  0  0  0  0  0  0  0  0  0  0
   -1.9002    3.5597  -12.2619 C   0  0  0  0  0  0  0  0  0  0  0  0
   -2.0583    2.1295  -11.7636 C   0  0  0  0  0  0  0  0  0  0  0  0
   -2.4090    1.1889  -12.8251 N   0  0  0  0  0  0  0  0  0  0  0  0
   -3.2113    1.7590  -13.9057 C   0  0  0  0  0  0  0  0  0  0  0  0
   -4.0647    2.9425  -13.4567 C   0  0  0  0  0  0  0  0  0  0  0  0
   -2.9365    0.4218  -12.4084 H   0  0  0  0  0  0  0  0  0  0  0  0
  2  3  1  0  0  0
  3  4  2  0  0  0
  4  5  1  0  0  0
  5  6  1  0  0  0
  5  7  2  0  0  0
  7  8  1  0  0  0
  8  9  2  0  0  0
  9 10  1  0  0  0
 10 11  2  0  0  0
 11  1  1  0  0  0
  1 23  1  0  0  0
 23 24  2  0  0  0
 23 25  1  0  0  0
 25 26  1  0  0  0
 26 27  1  0  0  0
 27 28  1  0  0  0
 28 29  1  0  0  0
 29 30  1  0  0  0
  1 15  1  0  0  0
 15 16  1  0  0  0
 15 20  1  0  0  0
 20 21  2  0  0  0
 20 22  1  0  0  0
 11 12  1  0  0  0
 12 13  2  0  0  0
 13  3  1  0  0  0
 13  8  1  0  0  0
 30 25  1  0  0  0
  6 14  1  0  0  0
 28 31  1  0  0  0
 16 17  1  0  0  0
 16 18  1  0  0  0
 16 19  1  0  0  0
M  CHG 1  16   1
M  CHG 1  22  -1
M  END
> <minimizedAffinity>
-5.99591

> <minimizedRMSD>
1.54411

$$$$
P13144


 31 33  0  0  0  0  0  0  0  0999 V2000
   -3.2383    4.5504  -14.4893 C   0  0  0  0  0  0  0  0  0  0  0  0
   -8.1908    4.2886  -14.2160 C   0  0  0  0  0  0  0  0  0  0  0  0
   -7.8604    4.5242  -15.6656 C   0  0  0  0  0  0  0  0  0  0  0  0
   -8.8744    4.4336  -16.6260 C   0  0  0  0  0  0  0  0  0  0  0  0
   -8.5776    4.5971  -17.9699 C   0  0  0  0  0  0  0  0  0  0  0  0
   -9.5911    4.5258  -18.8733 O   0  0  0  0  0  0  0  0  0  0  0  0
   -7.2805    4.8363  -18.3888 C   0  0  0  0  0  0  0  0  0  0  0  0
   -6.2566    4.8998  -17.4441 C   0  0  0  0  0  0  0  0  0  0  0  0
   -4.9257    5.0583  -17.8464 C   0  0  0  0  0  0  0  0  0  0  0  0
   -3.9100    4.9853  -16.9038 C   0  0  0  0  0  0  0  0  0  0  0  0
   -4.2691    4.8127  -15.5762 C   0  0  0  0  0  0  0  0  0  0  0  0
   -5.5635    4.7834  -15.1552 N   0  0  0  0  0  0  0  0  0  0  0  0
   -6.5427    4.7506  -16.0699 C   0  0  0  0  0  0  0  0  0  0  0  0
  -10.4671    4.3636  -18.5829 H   0  0  0  0  0  0  0  0  0  0  0  0
   -2.9485    5.8854  -13.8009 C   0  0  0  0  0  0  0  0  0  0  0  0
   -4.1864    6.5585  -13.2310 N   0  0  0  0  0  0  0  0  0  0  0  0
   -4.5755    5.9802  -12.4863 H   0  0  0  0  0  0  0  0  0  0  0  0
   -4.8807    6.6745  -13.9692 H   0  0  0  0  0  0  0  0  0  0  0  0
   -3.9339    7.4725  -12.8551 H   0  0  0  0  0  0  0  0  0  0  0  0
   -1.8556    5.7470  -12.7403 C   0  0  0  0  0  0  0  0  0  0  0  0
   -0.8347    5.0823  -13.0229 O   0  0  0  0  0  0  0  0  0  0  0  0
   -2.1790    6.3270  -11.6570 O   0  0  0  0  0  0  0  0  0  0  0  0
   -3.7332    3.3499  -13.6437 C   0  0  0  0  0  0  0  0  0  0  0  0
   -3.6995    2.2262  -14.1849 O   0  0  0  0  0  0  0  0  0  0  0  0
   -4.1250    3.4745  -12.1445 C   0  0  0  0  0  0  0  0  0  0  0  0
   -4.2652    2.1402  -11.3445 C   0  0  0  0  0  0  0  0  0  0  0  0
   -5.7935    2.2884  -11.3836 C   0  0  0  0  0  0  0  0  0  0  0  0
   -6.3242    1.6148  -12.5654 N   0  0  0  0  0  0  0  0  0  0  0  0
   -5.6011    3.7662  -11.7500 C   0  0  0  0  0  0  0  0  0  0  0  0
   -5.7814    1.8877  -13.3848 H   0  0  0  0  0  0  0  0  0  0  0  0
   -7.2996    1.8814  -12.6995 H   0  0  0  0  0  0  0  0  0  0  0  0
  2  3  1  0  0  0
  3  4  2  0  0  0
  4  5  1  0  0  0
  5  6  1  0  0  0
  5  7  2  0  0  0
  7  8  1  0  0  0
  8  9  2  0  0  0
  9 10  1  0  0  0
 10 11  2  0  0  0
 11  1  1  0  0  0
  1 23  1  0  0  0
 23 24  2  0  0  0
 25 23  1  0  0  0
 25 26  1  0  0  0
 26 27  1  0  0  0
 27 28  1  0  0  0
 27 29  1  0  0  0
  1 15  1  0  0  0
 15 16  1  0  0  0
 15 20  1  0  0  0
 20 21  2  0  0  0
 20 22  1  0  0  0
 11 12  1  0  0  0
 12 13  2  0  0  0
 13  3  1  0  0  0
 13  8  1  0  0  0
 29 25  1  0  0  0
  6 14  1  0  0  0
 28 30  1  0  0  0
 28 31  1  0  0  0
 16 17  1  0  0  0
 16 18  1  0  0  0
 16 19  1  0  0  0
M  CHG 1  16   1
M  CHG 1  22  -1
M  END
> <minimizedAffinity>
-6.63330

> <minimizedRMSD>
1.25272

$$$$
P13192


 26 29  0  0  0  0  0  0  0  0999 V2000
   -2.9226    4.8180  -14.7382 C   0  0  0  0  0  0  0  0  0  0  0  0
   -3.3504    4.0438  -13.4991 C   0  0  0  0  0  0  0  0  0  0  0  0
   -3.0358    2.6756  -13.4015 C   0  0  0  0  0  0  0  0  0  0  0  0
   -3.4124    1.9471  -12.2728 C   0  0  0  0  0  0  0  0  0  0  0  0
   -4.0819    2.6232  -11.2784 C   0  0  0  0  0  0  0  0  0  0  0  0
   -4.3687    3.9640  -11.4490 C   0  0  0  0  0  0  0  0  0  0  0  0
   -4.0413    4.6995  -12.5219 N   0  0  0  0  0  0  0  0  0  0  0  0
   -5.1092    4.4580  -10.2402 C   0  0  0  0  0  0  0  0  0  0  0  0
   -4.9436    3.3933   -9.1994 N   0  0  0  0  0  0  0  0  0  0  0  0
   -4.6103    2.1611   -9.9694 C   0  0  0  0  0  0  0  0  0  0  0  0
   -5.8085    3.2662   -8.6738 H   0  0  0  0  0  0  0  0  0  0  0  0
   -1.3807    6.6182  -14.9926 O   0  0  0  0  0  0  0  0  0  0  0  0
   -1.5360    5.4517  -14.5168 C   0  0  0  0  0  0  0  0  0  0  0  0
   -0.6548    4.7296  -13.9639 O   0  0  0  0  0  0  0  0  0  0  0  0
   -3.9595    5.8879  -15.0998 C   0  0  0  0  0  0  0  0  0  0  0  0
   -4.9900    5.4211  -16.0968 C   0  0  0  0  0  0  0  0  0  0  0  0
   -4.7136    5.3503  -17.4508 C   0  0  0  0  0  0  0  0  0  0  0  0
   -5.7541    5.0190  -18.3036 C   0  0  0  0  0  0  0  0  0  0  0  0
   -5.5179    4.9716  -19.6249 F   0  0  0  0  0  0  0  0  0  0  0  0
   -7.0370    4.7564  -17.8149 C   0  0  0  0  0  0  0  0  0  0  0  0
   -8.1258    4.4453  -18.6488 C   0  0  0  0  0  0  0  0  0  0  0  0
   -9.3796    4.1888  -18.1044 C   0  0  0  0  0  0  0  0  0  0  0  0
   -9.5394    4.2215  -16.7255 C   0  0  0  0  0  0  0  0  0  0  0  0
   -8.4598    4.5311  -15.8994 C   0  0  0  0  0  0  0  0  0  0  0  0
   -7.2098    4.8114  -16.4244 C   0  0  0  0  0  0  0  0  0  0  0  0
   -6.2168    5.1382  -15.5881 N   0  0  0  0  0  0  0  0  0  0  0  0
 12 13  2  0  0  0
 13 14  1  0  0  0
 13  1  1  0  0  0
  1 15  1  0  0  0
 15 16  1  0  0  0
 16 17  2  0  0  0
 17 18  1  0  0  0
 18 19  1  0  0  0
 18 20  2  0  0  0
 20 21  1  0  0  0
 21 22  2  0  0  0
 22 23  1  0  0  0
 23 24  2  0  0  0
 24 25  1  0  0  0
 25 26  2  0  0  0
  1  2  1  0  0  0
  2  3  2  0  0  0
  3  4  1  0  0  0
  4  5  2  0  0  0
  5  6  1  0  0  0
  6  7  2  0  0  0
  6  8  1  0  0  0
  8  9  1  0  0  0
  9 10  1  0  0  0
 26 16  1  0  0  0
  7  2  1  0  0  0
 25 20  1  0  0  0
 10  5  1  0  0  0
  9 11  1  0  0  0
M  CHG 1  14  -1
M  END
> <minimizedAffinity>
-6.16508

> <minimizedRMSD>
2.23757

$$$$
P13247


 39 43  0  0  0  0  0  0  0  0999 V2000
   -5.9549    4.1611  -11.1025 C   0  0  0  0  0  0  0  0  0  0  0  0
   -5.6861    3.1440  -12.2260 C   0  0  0  0  0  0  0  0  0  0  0  0
   -6.8095    3.0549  -13.2127 C   0  0  0  0  0  0  0  0  0  0  0  0
   -7.0847    1.9549  -13.7036 O   0  0  0  0  0  0  0  0  0  0  0  0
   -7.5005    4.3460  -13.6401 C   0  0  0  0  0  0  0  0  0  0  0  0
   -7.0016    5.6132  -12.9189 C   0  0  0  0  0  0  0  0  0  0  0  0
   -7.3963    6.8857  -13.3810 C   0  0  0  0  0  0  0  0  0  0  0  0
   -6.9456    8.0534  -12.7677 C   0  0  0  0  0  0  0  0  0  0  0  0
   -6.1161    7.9747  -11.6577 C   0  0  0  0  0  0  0  0  0  0  0  0
   -5.7554    6.7284  -11.1479 C   0  0  0  0  0  0  0  0  0  0  0  0
   -6.1922    5.5342  -11.7613 C   0  0  0  0  0  0  0  0  0  0  0  0
   -7.5203    4.4477  -15.1738 C   0  0  0  0  0  0  0  0  0  0  0  0
   -8.7648    4.3513  -15.8166 C   0  0  0  0  0  0  0  0  0  0  0  0
   -8.8740    4.5124  -17.1862 C   0  0  0  0  0  0  0  0  0  0  0  0
   -7.7362    4.8072  -17.9250 C   0  0  0  0  0  0  0  0  0  0  0  0
   -6.4595    4.8802  -17.3179 C   0  0  0  0  0  0  0  0  0  0  0  0
   -5.2698    5.2082  -18.0256 C   0  0  0  0  0  0  0  0  0  0  0  0
   -4.0555    5.2351  -17.3312 C   0  0  0  0  0  0  0  0  0  0  0  0
   -4.0402    4.9239  -15.9856 C   0  0  0  0  0  0  0  0  0  0  0  0
   -2.7704    5.0081  -15.1985 C   0  0  0  0  0  0  0  0  0  0  0  0
   -5.1594    4.6190  -15.3012 N   0  0  0  0  0  0  0  0  0  0  0  0
   -6.3519    4.6317  -15.9265 C   0  0  0  0  0  0  0  0  0  0  0  0
   -5.2967    5.6419  -19.4761 C   0  0  0  0  0  0  0  0  0  0  0  0
   -5.4218    7.1597  -19.5670 C   0  0  0  0  0  0  0  0  0  0  0  0
   -4.0939    5.2703  -20.1650 O   0  0  0  0  0  0  0  0  0  0  0  0
   -3.3354    5.7127  -19.7528 H   0  0  0  0  0  0  0  0  0  0  0  0
   -7.1853    3.8406  -10.3305 N   0  0  0  0  0  0  0  0  0  0  0  0
   -7.6603    4.8523   -9.3809 C   0  0  0  0  0  0  0  0  0  0  0  0
   -8.7011    4.1066   -8.5764 C   0  0  0  0  0  0  0  0  0  0  0  0
   -8.0412    2.7563   -8.3548 C   0  0  0  0  0  0  0  0  0  0  0  0
   -7.2854    2.5216   -9.6832 C   0  0  0  0  0  0  0  0  0  0  0  0
   -9.0234    1.7210   -8.0063 N   0  0  0  0  0  0  0  0  0  0  0  0
   -9.2841    1.7066   -6.5797 N   0  0  0  0  0  0  0  0  0  0  0  0
   -8.6610    0.8100   -8.2878 H   0  0  0  0  0  0  0  0  0  0  0  0
   -9.6469    2.6152   -6.2912 H   0  0  0  0  0  0  0  0  0  0  0  0
   -8.4179    1.5114   -6.0777 H   0  0  0  0  0  0  0  0  0  0  0  0
   -3.3427    3.8254  -10.8586 C   0  0  0  0  0  0  0  0  0  0  0  0
   -4.6703    4.1338  -10.1938 C   0  0  0  0  0  0  0  0  0  0  0  0
   -4.6762    4.3244   -8.9718 O   0  0  0  0  0  0  0  0  0  0  0  0
 37 38  1  0  0  0
 38 39  2  0  0  0
 38  1  1  0  0  0
  1 27  1  0  0  0
 27 28  1  0  0  0
 28 29  1  0  0  0
 29 30  1  0  0  0
 30 32  1  0  0  0
 32 33  1  0  0  0
 30 31  1  0  0  0
  1  2  1  0  0  0
  2  3  1  0  0  0
  3  4  2  0  0  0
  3  5  1  0  0  0
  5 12  1  0  0  0
 12 13  2  0  0  0
 13 14  1  0  0  0
 14 15  2  0  0  0
 15 16  1  0  0  0
 16 17  2  0  0  0
 17 23  1  0  0  0
 23 24  1  0  0  0
 23 25  1  0  0  0
 17 18  1  0  0  0
 18 19  2  0  0  0
 19 20  1  0  0  0
 19 21  1  0  0  0
 21 22  2  0  0  0
  5  6  1  0  0  0
  6  7  2  0  0  0
  7  8  1  0  0  0
  8  9  2  0  0  0
  9 10  1  0  0  0
 10 11  2  0  0  0
 11  1  1  0  0  0
 31 27  1  0  0  0
 22 12  1  0  0  0
 11  6  1  0  0  0
 22 16  1  0  0  0
 32 34  1  0  0  0
 33 35  1  0  0  0
 33 36  1  0  0  0
 25 26  1  0  0  0
M  END
> <minimizedAffinity>
-9.26592

> <minimizedRMSD>
0.67142

$$$$
P13283


 34 38  0  0  0  0  0  0  0  0999 V2000
   -7.2554    4.7838  -13.5186 C   0  0  0  0  0  0  0  0  0  0  0  0
   -7.7135    6.1559  -13.0863 C   0  0  0  0  0  0  0  0  0  0  0  0
   -7.0146    7.0664  -12.5046 N   0  0  0  0  0  0  0  0  0  0  0  0
   -5.5923    6.7842  -12.2491 C   0  0  0  0  0  0  0  0  0  0  0  0
   -5.2384    5.3006  -12.0919 C   0  0  0  0  0  0  0  0  0  0  0  0
   -4.1109    4.8473  -11.3850 C   0  0  0  0  0  0  0  0  0  0  0  0
   -3.7916    3.4896  -11.3198 C   0  0  0  0  0  0  0  0  0  0  0  0
   -4.5823    2.5563  -11.9779 C   0  0  0  0  0  0  0  0  0  0  0  0
   -5.6908    2.9765  -12.7060 C   0  0  0  0  0  0  0  0  0  0  0  0
   -6.0222    4.3401  -12.7685 C   0  0  0  0  0  0  0  0  0  0  0  0
   -8.6097    4.3039  -17.0360 C   0  0  0  0  0  0  0  0  0  0  0  0
   -8.4697    4.3364  -15.6508 C   0  0  0  0  0  0  0  0  0  0  0  0
   -7.2586    4.6922  -15.0434 C   0  0  0  0  0  0  0  0  0  0  0  0
   -6.1609    5.0101  -15.8474 C   0  0  0  0  0  0  0  0  0  0  0  0
   -5.0053    5.3334  -15.2558 N   0  0  0  0  0  0  0  0  0  0  0  0
   -3.9223    5.6198  -15.9953 C   0  0  0  0  0  0  0  0  0  0  0  0
   -2.6479    5.8891  -15.2602 C   0  0  0  0  0  0  0  0  0  0  0  0
   -3.9576    5.6457  -17.3742 C   0  0  0  0  0  0  0  0  0  0  0  0
   -5.1359    5.2876  -18.0412 C   0  0  0  0  0  0  0  0  0  0  0  0
   -6.2816    4.9795  -17.2647 C   0  0  0  0  0  0  0  0  0  0  0  0
   -7.5215    4.6354  -17.8353 C   0  0  0  0  0  0  0  0  0  0  0  0
   -5.1345    5.2646  -19.5567 C   0  0  0  0  0  0  0  0  0  0  0  0
   -3.7910    5.1301  -20.0513 O   0  0  0  0  0  0  0  0  0  0  0  0
   -3.2586    5.8829  -19.7499 H   0  0  0  0  0  0  0  0  0  0  0  0
  -10.5278    4.7166  -18.6539 C   0  0  0  0  0  0  0  0  0  0  0  0
   -9.8994    3.8294  -17.6213 C   0  0  0  0  0  0  0  0  0  0  0  0
   -5.1972    7.6628  -11.1637 N   0  0  0  0  0  0  0  0  0  0  0  0
   -3.8571    8.2060  -11.1216 C   0  0  0  0  0  0  0  0  0  0  0  0
   -3.8157    8.8861   -9.7606 C   0  0  0  0  0  0  0  0  0  0  0  0
   -4.6361    7.9406   -8.8897 C   0  0  0  0  0  0  0  0  0  0  0  0
   -5.0931    8.5705   -7.6532 N   0  0  0  0  0  0  0  0  0  0  0  0
   -5.7491    7.4559   -9.8367 C   0  0  0  0  0  0  0  0  0  0  0  0
   -5.6525    9.3934   -7.8774 H   0  0  0  0  0  0  0  0  0  0  0  0
   -4.2860    8.8496   -7.0954 H   0  0  0  0  0  0  0  0  0  0  0  0
 25 26  1  0  0  0
 26 11  1  0  0  0
 11 12  2  0  0  0
 12 13  1  0  0  0
  1 13  1  0  0  0
  1  2  1  0  0  0
  2  3  2  0  0  0
  3  4  1  0  0  0
  4 27  1  0  0  0
 27 28  1  0  0  0
 28 29  1  0  0  0
 29 30  1  0  0  0
 30 31  1  0  0  0
 30 32  1  0  0  0
  4  5  1  0  0  0
  5  6  2  0  0  0
  6  7  1  0  0  0
  7  8  2  0  0  0
  8  9  1  0  0  0
  9 10  2  0  0  0
 13 14  2  0  0  0
 14 15  1  0  0  0
 15 16  2  0  0  0
 16 17  1  0  0  0
 16 18  1  0  0  0
 18 19  2  0  0  0
 19 22  1  0  0  0
 22 23  1  0  0  0
 19 20  1  0  0  0
 20 21  2  0  0  0
 21 11  1  0  0  0
 10  1  1  0  0  0
 20 14  1  0  0  0
 32 27  1  0  0  0
 10  5  1  0  0  0
 31 33  1  0  0  0
 31 34  1  0  0  0
 23 24  1  0  0  0
M  END
> <minimizedAffinity>
-6.64980

> <minimizedRMSD>
0.18459

$$$$
P13315


 38 42  0  0  0  0  0  0  0  0999 V2000
   -7.7429    5.2100  -14.1468 C   0  0  0  0  0  0  0  0  0  0  0  0
   -7.6428    4.8325  -15.6339 C   0  0  0  0  0  0  0  0  0  0  0  0
   -8.7695    4.4569  -16.3791 C   0  0  0  0  0  0  0  0  0  0  0  0
   -8.7083    4.3692  -17.7580 C   0  0  0  0  0  0  0  0  0  0  0  0
   -7.5102    4.6456  -18.4015 C   0  0  0  0  0  0  0  0  0  0  0  0
   -6.3248    4.9091  -17.6732 C   0  0  0  0  0  0  0  0  0  0  0  0
   -5.0568    5.1792  -18.2639 C   0  0  0  0  0  0  0  0  0  0  0  0
   -3.9206    5.1881  -17.4479 C   0  0  0  0  0  0  0  0  0  0  0  0
   -4.0770    5.1007  -16.0806 C   0  0  0  0  0  0  0  0  0  0  0  0
   -2.8866    5.1447  -15.1751 C   0  0  0  0  0  0  0  0  0  0  0  0
   -5.2897    5.0342  -15.5005 N   0  0  0  0  0  0  0  0  0  0  0  0
   -6.3929    4.9187  -16.2630 C   0  0  0  0  0  0  0  0  0  0  0  0
   -4.9211    5.6165  -19.7100 C   0  0  0  0  0  0  0  0  0  0  0  0
   -3.6504    5.2447  -20.2214 O   0  0  0  0  0  0  0  0  0  0  0  0
   -2.9567    5.7296  -19.7475 H   0  0  0  0  0  0  0  0  0  0  0  0
   -5.1366    7.0381  -19.9823 N   0  0  0  0  0  0  0  0  0  0  0  0
   -3.9769    7.8441  -20.3403 C   0  0  0  0  0  0  0  0  0  0  0  0
   -4.5304    9.2662  -20.3278 C   0  0  0  0  0  0  0  0  0  0  0  0
   -5.7915    9.1995  -19.4718 C   0  0  0  0  0  0  0  0  0  0  0  0
   -5.8073    7.7812  -18.9278 C   0  0  0  0  0  0  0  0  0  0  0  0
   -6.3286    4.7139  -12.0259 C   0  0  0  0  0  0  0  0  0  0  0  0
   -5.7093    3.7717  -11.1776 C   0  0  0  0  0  0  0  0  0  0  0  0
   -5.8543    2.4051  -11.3914 C   0  0  0  0  0  0  0  0  0  0  0  0
   -6.6275    1.9654  -12.4532 C   0  0  0  0  0  0  0  0  0  0  0  0
   -7.2268    2.8764  -13.3208 C   0  0  0  0  0  0  0  0  0  0  0  0
   -7.0689    4.2668  -13.1549 C   0  0  0  0  0  0  0  0  0  0  0  0
   -7.4389    8.8768  -10.1894 C   0  0  0  0  0  0  0  0  0  0  0  0
   -8.5367    8.1716  -10.9178 C   0  0  0  0  0  0  0  0  0  0  0  0
   -8.2859    6.7644  -10.4162 C   0  0  0  0  0  0  0  0  0  0  0  0
   -6.8139    6.4244  -10.2934 N   0  0  0  0  0  0  0  0  0  0  0  0
   -6.1946    6.1776  -11.6469 C   0  0  0  0  0  0  0  0  0  0  0  0
   -5.6745    6.9219  -12.3910 O   0  0  0  0  0  0  0  0  0  0  0  0
   -6.8614    7.6683   -9.4502 C   0  0  0  0  0  0  0  0  0  0  0  0
   -7.9320    9.5536   -7.9199 C   0  0  0  0  0  0  0  0  0  0  0  0
   -7.9511    9.9415   -9.3253 N   0  0  0  0  0  0  0  0  0  0  0  0
   -7.3721   10.7724   -9.4465 H   0  0  0  0  0  0  0  0  0  0  0  0
   -9.1373    5.5911  -13.6538 C   0  0  0  0  0  0  0  0  0  0  0  0
   -9.8269    6.5431  -14.0155 O   0  0  0  0  0  0  0  0  0  0  0  0
 34 35  1  0  0  0
 27 35  1  0  0  0
 27 28  1  0  0  0
 28 29  1  0  0  0
 29 30  1  0  0  0
 30 31  1  0  0  0
 31 32  2  0  0  0
 31 21  1  0  0  0
 21 22  2  0  0  0
 22 23  1  0  0  0
 23 24  2  0  0  0
 24 25  1  0  0  0
 25 26  2  0  0  0
 26  1  1  0  0  0
  1 37  1  0  0  0
 37 38  2  0  0  0
  1  2  1  0  0  0
  2  3  2  0  0  0
  3  4  1  0  0  0
  4  5  2  0  0  0
  5  6  1  0  0  0
  6  7  2  0  0  0
  7 13  1  0  0  0
 13 14  1  0  0  0
 13 16  1  0  0  0
 16 17  1  0  0  0
 17 18  1  0  0  0
 18 19  1  0  0  0
 19 20  1  0  0  0
  7  8  1  0  0  0
  8  9  2  0  0  0
  9 10  1  0  0  0
  9 11  1  0  0  0
 11 12  2  0  0  0
 30 33  1  0  0  0
 33 27  1  0  0  0
 26 21  1  0  0  0
 12  2  1  0  0  0
 12  6  1  0  0  0
 20 16  1  0  0  0
 35 36  1  0  0  0
 14 15  1  0  0  0
M  END
> <minimizedAffinity>
-7.46841

> <minimizedRMSD>
0.74585

$$$$
P13326


 33 36  0  0  0  0  0  0  0  0999 V2000
   -6.9911    5.1300  -13.4999 C   0  0  0  0  0  0  0  0  0  0  0  0
   -7.3431    6.6323  -13.2970 C   0  0  0  0  0  0  0  0  0  0  0  0
   -5.9979    7.3602  -13.3249 C   0  0  0  0  0  0  0  0  0  0  0  0
   -4.9861    6.4051  -12.6868 C   0  0  0  0  0  0  0  0  0  0  0  0
   -5.6919    5.0343  -12.5991 C   0  0  0  0  0  0  0  0  0  0  0  0
   -4.8618    3.8265  -12.7097 N   0  0  0  0  0  0  0  0  0  0  0  0
   -4.5665    3.2320  -11.3983 C   0  0  0  0  0  0  0  0  0  0  0  0
   -5.5803    2.1287  -11.0660 C   0  0  0  0  0  0  0  0  0  0  0  0
   -6.1083    2.0874   -9.6249 C   0  0  0  0  0  0  0  0  0  0  0  0
   -6.8632    3.2440   -9.1224 N   0  0  0  0  0  0  0  0  0  0  0  0
   -8.3354    3.2299   -9.3495 C   0  0  0  0  0  0  0  0  0  0  0  0
   -9.0603    2.2284   -8.4459 C   0  0  0  0  0  0  0  0  0  0  0  0
   -8.7771    3.1379  -10.8202 C   0  0  0  0  0  0  0  0  0  0  0  0
   -8.4462    4.4333  -11.5680 C   0  0  0  0  0  0  0  0  0  0  0  0
   -8.0449    4.2244  -12.9594 N   0  0  0  0  0  0  0  0  0  0  0  0
   -3.9824    4.0731  -13.1639 H   0  0  0  0  0  0  0  0  0  0  0  0
   -6.4885    4.0781   -9.5744 H   0  0  0  0  0  0  0  0  0  0  0  0
   -8.8758    4.3371  -13.5402 H   0  0  0  0  0  0  0  0  0  0  0  0
   -2.1276    5.4917  -15.2562 C   0  0  0  0  0  0  0  0  0  0  0  0
   -3.4112    5.2844  -15.9965 C   0  0  0  0  0  0  0  0  0  0  0  0
   -3.4364    5.3075  -17.3739 C   0  0  0  0  0  0  0  0  0  0  0  0
   -4.6545    5.1355  -18.0224 C   0  0  0  0  0  0  0  0  0  0  0  0
   -5.8221    4.9520  -17.2420 C   0  0  0  0  0  0  0  0  0  0  0  0
   -7.0619    4.7531  -17.8604 C   0  0  0  0  0  0  0  0  0  0  0  0
   -8.2063    4.5993  -17.1106 C   0  0  0  0  0  0  0  0  0  0  0  0
   -9.8241    4.3793  -18.0359 Br  0  0  0  0  0  0  0  0  0  0  0  0
   -8.1453    4.6832  -15.7298 C   0  0  0  0  0  0  0  0  0  0  0  0
   -6.9126    4.8935  -15.0496 C   0  0  0  0  0  0  0  0  0  0  0  0
   -5.7326    4.9874  -15.8219 C   0  0  0  0  0  0  0  0  0  0  0  0
   -4.5277    5.1500  -15.2503 N   0  0  0  0  0  0  0  0  0  0  0  0
   -4.7332    5.1908  -19.5278 C   0  0  0  0  0  0  0  0  0  0  0  0
   -3.4510    5.1427  -20.1557 O   0  0  0  0  0  0  0  0  0  0  0  0
   -2.9278    5.9122  -19.8818 H   0  0  0  0  0  0  0  0  0  0  0  0
 19 20  1  0  0  0
 20 21  2  0  0  0
 21 22  1  0  0  0
 22 31  1  0  0  0
 31 32  1  0  0  0
 22 23  2  0  0  0
 23 24  1  0  0  0
 24 25  2  0  0  0
 25 26  1  0  0  0
 25 27  1  0  0  0
 27 28  2  0  0  0
  1 28  1  0  0  0
  1  2  1  0  0  0
  2  3  1  0  0  0
  3  4  1  0  0  0
  5  4  1  0  0  0
  5  6  1  0  0  0
  6  7  1  0  0  0
  7  8  1  0  0  0
  8  9  1  0  0  0
  9 10  1  0  0  0
 10 11  1  0  0  0
 11 12  1  0  0  0
 11 13  1  0  0  0
 13 14  1  0  0  0
 14 15  1  0  0  0
 28 29  1  0  0  0
 29 30  2  0  0  0
 30 20  1  0  0  0
 29 23  1  0  0  0
  5  1  1  0  0  0
 15  1  1  0  0  0
 32 33  1  0  0  0
  6 16  1  0  0  0
 10 17  1  0  0  0
 15 18  1  0  0  0
M  END
> <minimizedAffinity>
-9.07889

> <minimizedRMSD>
0.41009

$$$$
P13337


 33 36  0  0  0  0  0  0  0  0999 V2000
   -6.8404    5.1605  -13.5888 C   0  0  0  0  0  0  0  0  0  0  0  0
   -7.3870    6.6184  -13.4298 C   0  0  0  0  0  0  0  0  0  0  0  0
   -6.1407    7.5040  -13.5722 C   0  0  0  0  0  0  0  0  0  0  0  0
   -4.9882    6.7109  -12.9478 C   0  0  0  0  0  0  0  0  0  0  0  0
   -5.5689    5.3182  -12.6687 C   0  0  0  0  0  0  0  0  0  0  0  0
   -4.6787    4.1575  -12.6549 N   0  0  0  0  0  0  0  0  0  0  0  0
   -3.8006    4.0596  -11.5018 C   0  0  0  0  0  0  0  0  0  0  0  0
   -4.4652    3.8162  -10.1277 C   0  0  0  0  0  0  0  0  0  0  0  0
   -5.2150    2.4821   -9.9471 C   0  0  0  0  0  0  0  0  0  0  0  0
   -6.5167    2.3844  -10.5899 N   0  0  0  0  0  0  0  0  0  0  0  0
   -7.6133    3.0904   -9.9111 C   0  0  0  0  0  0  0  0  0  0  0  0
   -8.1190    2.3945   -8.6409 C   0  0  0  0  0  0  0  0  0  0  0  0
   -8.7528    3.2416  -10.9259 C   0  0  0  0  0  0  0  0  0  0  0  0
   -8.4930    4.3680  -11.9198 C   0  0  0  0  0  0  0  0  0  0  0  0
   -7.5871    4.0297  -12.9988 N   0  0  0  0  0  0  0  0  0  0  0  0
   -4.0964    4.1975  -13.4914 H   0  0  0  0  0  0  0  0  0  0  0  0
   -6.7660    1.3969  -10.6458 H   0  0  0  0  0  0  0  0  0  0  0  0
   -8.1337    3.5939  -13.7416 H   0  0  0  0  0  0  0  0  0  0  0  0
   -2.0434    5.4538  -15.4053 C   0  0  0  0  0  0  0  0  0  0  0  0
   -3.3466    5.3002  -16.1217 C   0  0  0  0  0  0  0  0  0  0  0  0
   -3.3947    5.3538  -17.4944 C   0  0  0  0  0  0  0  0  0  0  0  0
   -4.6123    5.1416  -18.1440 C   0  0  0  0  0  0  0  0  0  0  0  0
   -5.7861    4.9834  -17.3567 C   0  0  0  0  0  0  0  0  0  0  0  0
   -7.0667    4.8317  -17.9297 C   0  0  0  0  0  0  0  0  0  0  0  0
   -8.1852    4.6665  -17.1290 C   0  0  0  0  0  0  0  0  0  0  0  0
   -9.7341    4.4824  -17.8440 Cl  0  0  0  0  0  0  0  0  0  0  0  0
   -8.0552    4.7023  -15.7513 C   0  0  0  0  0  0  0  0  0  0  0  0
   -6.7970    4.9151  -15.1255 C   0  0  0  0  0  0  0  0  0  0  0  0
   -5.6543    4.9989  -15.9342 C   0  0  0  0  0  0  0  0  0  0  0  0
   -4.4450    5.1239  -15.3679 N   0  0  0  0  0  0  0  0  0  0  0  0
   -4.6174    5.1461  -19.6598 C   0  0  0  0  0  0  0  0  0  0  0  0
   -3.2766    5.1139  -20.1912 O   0  0  0  0  0  0  0  0  0  0  0  0
   -2.7924    5.9005  -19.8950 H   0  0  0  0  0  0  0  0  0  0  0  0
 19 20  1  0  0  0
 20 21  2  0  0  0
 21 22  1  0  0  0
 22 31  1  0  0  0
 31 32  1  0  0  0
 22 23  2  0  0  0
 23 24  1  0  0  0
 24 25  2  0  0  0
 25 26  1  0  0  0
 25 27  1  0  0  0
 27 28  2  0  0  0
  1 28  1  0  0  0
  1  2  1  0  0  0
  2  3  1  0  0  0
  3  4  1  0  0  0
  5  4  1  0  0  0
  5  6  1  0  0  0
  6  7  1  0  0  0
  7  8  1  0  0  0
  8  9  1  0  0  0
  9 10  1  0  0  0
 10 11  1  0  0  0
 11 12  1  0  0  0
 11 13  1  0  0  0
 13 14  1  0  0  0
 14 15  1  0  0  0
 28 29  1  0  0  0
 29 30  2  0  0  0
 30 20  1  0  0  0
 29 23  1  0  0  0
  5  1  1  0  0  0
 15  1  1  0  0  0
 32 33  1  0  0  0
  6 16  1  0  0  0
 10 17  1  0  0  0
 15 18  1  0  0  0
M  END
> <minimizedAffinity>
-8.23163

> <minimizedRMSD>
0.38151

$$$$
P13419


 21 22  0  0  0  0  0  0  0  0999 V2000
   -7.6186    4.3442  -15.7808 C   0  0  0  0  0  0  0  0  0  0  0  0
   -8.8415    3.9792  -16.3938 C   0  0  0  0  0  0  0  0  0  0  0  0
   -9.0569    4.0162  -17.7652 C   0  0  0  0  0  0  0  0  0  0  0  0
   -8.0336    4.4100  -18.6123 C   0  0  0  0  0  0  0  0  0  0  0  0
   -6.7778    4.7449  -18.0721 C   0  0  0  0  0  0  0  0  0  0  0  0
   -5.5645    5.1983  -18.6588 C   0  0  0  0  0  0  0  0  0  0  0  0
   -4.6438    5.3624  -17.6595 C   0  0  0  0  0  0  0  0  0  0  0  0
   -5.2606    5.0379  -16.4774 N   0  0  0  0  0  0  0  0  0  0  0  0
   -6.5848    4.6933  -16.6817 C   0  0  0  0  0  0  0  0  0  0  0  0
   -4.8182    5.0490  -15.5980 H   0  0  0  0  0  0  0  0  0  0  0  0
   -7.3534    5.6713  -13.5823 C   0  0  0  0  0  0  0  0  0  0  0  0
   -7.5952    4.3173  -14.2533 C   0  0  0  0  0  0  0  0  0  0  0  0
   -6.6426    3.2563  -13.6901 C   0  0  0  0  0  0  0  0  0  0  0  0
   -7.3392    2.0221  -13.5204 O   0  0  0  0  0  0  0  0  0  0  0  0
   -8.0759    2.1490  -12.9024 H   0  0  0  0  0  0  0  0  0  0  0  0
   -5.3698    5.4265  -19.9813 N   0  0  0  0  0  0  0  0  0  0  0  0
   -5.5329    4.7117  -20.6383 H   0  0  0  0  0  0  0  0  0  0  0  0
   -4.9212    6.7270  -20.4158 C   0  0  0  0  0  0  0  0  0  0  0  0
   -5.4185    7.1503  -21.7099 N   0  0  0  0  0  0  0  0  0  0  0  0
   -5.0780    6.5132  -22.4300 H   0  0  0  0  0  0  0  0  0  0  0  0
   -5.0890    8.0950  -21.9084 H   0  0  0  0  0  0  0  0  0  0  0  0
 12 11  1  0  0  0
 12 13  1  0  0  0
 13 14  1  0  0  0
 12  1  1  0  0  0
  1  2  2  0  0  0
  2  3  1  0  0  0
  3  4  2  0  0  0
  4  5  1  0  0  0
  5  6  1  0  0  0
  6 16  1  0  0  0
 16 18  1  0  0  0
 18 19  1  0  0  0
  6  7  2  0  0  0
  7  8  1  0  0  0
  8  9  1  0  0  0
  9  1  1  0  0  0
  9  5  2  0  0  0
 14 15  1  0  0  0
 16 17  1  0  0  0
 19 20  1  0  0  0
 19 21  1  0  0  0
  8 10  1  0  0  0
M  END
> <minimizedAffinity>
-6.53953

> <minimizedRMSD>
0.76557

$$$$
P13568


 30 32  0  0  0  0  0  0  0  0999 V2000
   -7.3685    4.4297  -13.5436 C   0  0  0  0  0  0  0  0  0  0  0  0
   -7.5733    5.4662  -12.9152 O   0  0  0  0  0  0  0  0  0  0  0  0
   -7.3029    4.4915  -14.9971 C   0  0  0  0  0  0  0  0  0  0  0  0
   -8.5350    4.4257  -15.6567 C   0  0  0  0  0  0  0  0  0  0  0  0
   -8.5928    4.5886  -17.0223 C   0  0  0  0  0  0  0  0  0  0  0  0
   -7.4131    4.8347  -17.7072 C   0  0  0  0  0  0  0  0  0  0  0  0
   -6.1594    4.9137  -17.0481 C   0  0  0  0  0  0  0  0  0  0  0  0
   -4.9571    5.1863  -17.7440 C   0  0  0  0  0  0  0  0  0  0  0  0
   -3.7609    5.2579  -17.0298 C   0  0  0  0  0  0  0  0  0  0  0  0
   -3.7837    5.0591  -15.6595 C   0  0  0  0  0  0  0  0  0  0  0  0
   -2.5123    5.1289  -14.8686 C   0  0  0  0  0  0  0  0  0  0  0  0
   -4.9231    4.8086  -14.9746 N   0  0  0  0  0  0  0  0  0  0  0  0
   -6.0942    4.7283  -15.6491 C   0  0  0  0  0  0  0  0  0  0  0  0
   -4.9944    5.4334  -19.2300 C   0  0  0  0  0  0  0  0  0  0  0  0
   -3.8110    5.0265  -19.9113 O   0  0  0  0  0  0  0  0  0  0  0  0
   -3.0559    5.5386  -19.5817 H   0  0  0  0  0  0  0  0  0  0  0  0
   -7.4530    3.1860  -11.4729 N   0  0  0  0  0  0  0  0  0  0  0  0
   -6.2646    3.2390  -10.6511 C   0  0  0  0  0  0  0  0  0  0  0  0
   -7.3276    3.0715  -12.8385 C   0  0  0  0  0  0  0  0  0  0  0  0
   -7.2770    2.0126  -13.4439 O   0  0  0  0  0  0  0  0  0  0  0  0
   -8.8045    3.2468  -10.9470 C   0  0  0  0  0  0  0  0  0  0  0  0
   -8.7635    3.5705   -7.2642 C   0  0  0  0  0  0  0  0  0  0  0  0
   -9.3040    2.3262   -7.4731 C   0  0  0  0  0  0  0  0  0  0  0  0
   -9.3740    2.1050   -8.8214 N   0  0  0  0  0  0  0  0  0  0  0  0
   -8.8541    3.1937   -9.4763 C   0  0  0  0  0  0  0  0  0  0  0  0
   -8.4600    4.1158   -8.5255 C   0  0  0  0  0  0  0  0  0  0  0  0
   -9.7375    1.2974   -9.2514 H   0  0  0  0  0  0  0  0  0  0  0  0
   -9.5673    4.1876   -5.0509 C   0  0  0  0  0  0  0  0  0  0  0  0
   -8.5540    4.1930   -6.0838 N   0  0  0  0  0  0  0  0  0  0  0  0
   -7.7003    4.6566   -5.9241 H   0  0  0  0  0  0  0  0  0  0  0  0
 28 29  1  0  0  0
 29 22  1  0  0  0
 22 23  2  0  0  0
 23 24  1  0  0  0
 24 25  1  0  0  0
 25 21  1  0  0  0
 21 17  1  0  0  0
 17 18  1  0  0  0
 17 19  1  0  0  0
 19 20  2  0  0  0
 19  1  1  0  0  0
  1  2  2  0  0  0
  1  3  1  0  0  0
  3  4  2  0  0  0
  4  5  1  0  0  0
  5  6  2  0  0  0
  6  7  1  0  0  0
  7  8  2  0  0  0
  8 14  1  0  0  0
 14 15  1  0  0  0
  8  9  1  0  0  0
  9 10  2  0  0  0
 10 11  1  0  0  0
 10 12  1  0  0  0
 12 13  2  0  0  0
 25 26  2  0  0  0
 26 22  1  0  0  0
 13  3  1  0  0  0
 13  7  1  0  0  0
 29 30  1  0  0  0
 24 27  1  0  0  0
 15 16  1  0  0  0
M  END
> <minimizedAffinity>
-8.29608

> <minimizedRMSD>
0.80310

$$$$
P13572


 31 33  0  0  0  0  0  0  0  0999 V2000
   -7.3847    4.4146  -13.6448 C   0  0  0  0  0  0  0  0  0  0  0  0
   -7.6530    5.4652  -13.0662 O   0  0  0  0  0  0  0  0  0  0  0  0
   -7.2858    4.4393  -15.0935 C   0  0  0  0  0  0  0  0  0  0  0  0
   -8.5030    4.3649  -15.7595 C   0  0  0  0  0  0  0  0  0  0  0  0
   -8.5348    4.5481  -17.1170 C   0  0  0  0  0  0  0  0  0  0  0  0
  -10.0419    4.6119  -17.8966 Cl  0  0  0  0  0  0  0  0  0  0  0  0
   -7.3613    4.7821  -17.8126 C   0  0  0  0  0  0  0  0  0  0  0  0
   -6.1207    4.8704  -17.1385 C   0  0  0  0  0  0  0  0  0  0  0  0
   -4.9106    5.1637  -17.8090 C   0  0  0  0  0  0  0  0  0  0  0  0
   -3.7400    5.2862  -17.0588 C   0  0  0  0  0  0  0  0  0  0  0  0
   -3.7955    5.1107  -15.6844 C   0  0  0  0  0  0  0  0  0  0  0  0
   -2.5587    5.2660  -14.8521 C   0  0  0  0  0  0  0  0  0  0  0  0
   -4.9385    4.8199  -15.0291 N   0  0  0  0  0  0  0  0  0  0  0  0
   -6.0799    4.6978  -15.7343 C   0  0  0  0  0  0  0  0  0  0  0  0
   -4.9114    5.4010  -19.2965 C   0  0  0  0  0  0  0  0  0  0  0  0
   -3.6975    5.0102  -19.9357 O   0  0  0  0  0  0  0  0  0  0  0  0
   -2.9628    5.5368  -19.5839 H   0  0  0  0  0  0  0  0  0  0  0  0
   -7.4360    3.2382  -11.5371 N   0  0  0  0  0  0  0  0  0  0  0  0
   -6.2470    3.3397  -10.7216 C   0  0  0  0  0  0  0  0  0  0  0  0
   -7.3147    3.0833  -12.8969 C   0  0  0  0  0  0  0  0  0  0  0  0
   -7.2465    2.0090  -13.4727 O   0  0  0  0  0  0  0  0  0  0  0  0
   -8.7877    3.2896  -11.0105 C   0  0  0  0  0  0  0  0  0  0  0  0
   -8.7570    3.6123   -7.3312 C   0  0  0  0  0  0  0  0  0  0  0  0
   -9.3170    2.3771   -7.5438 C   0  0  0  0  0  0  0  0  0  0  0  0
   -9.3712    2.1523   -8.8917 N   0  0  0  0  0  0  0  0  0  0  0  0
   -8.8365    3.2368   -9.5417 C   0  0  0  0  0  0  0  0  0  0  0  0
   -8.4345    4.1541   -8.5894 C   0  0  0  0  0  0  0  0  0  0  0  0
   -9.7339    1.3458   -9.3245 H   0  0  0  0  0  0  0  0  0  0  0  0
   -9.6236    4.1230   -5.0998 C   0  0  0  0  0  0  0  0  0  0  0  0
   -8.5929    4.1571   -6.1075 N   0  0  0  0  0  0  0  0  0  0  0  0
   -7.7369    4.5945   -5.8947 H   0  0  0  0  0  0  0  0  0  0  0  0
 29 30  1  0  0  0
 30 23  1  0  0  0
 23 24  2  0  0  0
 24 25  1  0  0  0
 25 26  1  0  0  0
 26 22  1  0  0  0
 22 18  1  0  0  0
 18 19  1  0  0  0
 18 20  1  0  0  0
 20 21  2  0  0  0
 20  1  1  0  0  0
  1  2  2  0  0  0
  1  3  1  0  0  0
  3  4  2  0  0  0
  4  5  1  0  0  0
  5  6  1  0  0  0
  5  7  2  0  0  0
  7  8  1  0  0  0
  8  9  2  0  0  0
  9 15  1  0  0  0
 15 16  1  0  0  0
  9 10  1  0  0  0
 10 11  2  0  0  0
 11 12  1  0  0  0
 11 13  1  0  0  0
 13 14  2  0  0  0
 26 27  2  0  0  0
 27 23  1  0  0  0
 14  3  1  0  0  0
 14  8  1  0  0  0
 30 31  1  0  0  0
 25 28  1  0  0  0
 16 17  1  0  0  0
M  END
> <minimizedAffinity>
-8.62067

> <minimizedRMSD>
0.87997

$$$$
P13576


 28 31  0  0  0  0  0  0  0  0999 V2000
   -2.6381    5.2931  -15.0651 C   0  0  0  0  0  0  0  0  0  0  0  0
   -3.9267    5.1761  -15.8208 C   0  0  0  0  0  0  0  0  0  0  0  0
   -3.9239    5.2561  -17.2043 C   0  0  0  0  0  0  0  0  0  0  0  0
   -5.1200    5.0859  -17.9103 C   0  0  0  0  0  0  0  0  0  0  0  0
   -6.3128    4.8981  -17.1711 C   0  0  0  0  0  0  0  0  0  0  0  0
   -7.5725    4.7538  -17.7964 C   0  0  0  0  0  0  0  0  0  0  0  0
   -8.7287    4.5224  -17.0633 C   0  0  0  0  0  0  0  0  0  0  0  0
   -8.6453    4.4528  -15.6870 C   0  0  0  0  0  0  0  0  0  0  0  0
   -7.4110    4.6089  -15.0518 C   0  0  0  0  0  0  0  0  0  0  0  0
   -6.2284    4.8367  -15.7528 C   0  0  0  0  0  0  0  0  0  0  0  0
   -5.0542    4.9903  -15.1022 N   0  0  0  0  0  0  0  0  0  0  0  0
   -5.0958    5.1322  -19.4264 C   0  0  0  0  0  0  0  0  0  0  0  0
   -3.7509    5.0201  -19.9107 O   0  0  0  0  0  0  0  0  0  0  0  0
   -3.2221    5.7588  -19.5707 H   0  0  0  0  0  0  0  0  0  0  0  0
   -7.4287    4.5580  -13.5863 C   0  0  0  0  0  0  0  0  0  0  0  0
   -7.6378    5.5816  -12.9418 O   0  0  0  0  0  0  0  0  0  0  0  0
   -7.3503    3.1918  -12.9011 C   0  0  0  0  0  0  0  0  0  0  0  0
   -7.3099    2.1553  -13.5481 O   0  0  0  0  0  0  0  0  0  0  0  0
   -7.4291    3.2366  -11.5360 N   0  0  0  0  0  0  0  0  0  0  0  0
   -6.2983    3.2667  -10.6465 C   0  0  0  0  0  0  0  0  0  0  0  0
   -6.8761    2.7190   -9.3474 C   0  0  0  0  0  0  0  0  0  0  0  0
   -8.3231    3.2639   -9.3505 C   0  0  0  0  0  0  0  0  0  0  0  0
   -9.2600    2.4520   -8.4669 C   0  0  0  0  0  0  0  0  0  0  0  0
   -9.2369    3.1523   -7.1147 C   0  0  0  0  0  0  0  0  0  0  0  0
   -8.4407    4.3795   -7.2829 N   0  0  0  0  0  0  0  0  0  0  0  0
   -8.4152    4.6483   -8.7209 C   0  0  0  0  0  0  0  0  0  0  0  0
   -8.6930    3.2585  -10.8332 C   0  0  0  0  0  0  0  0  0  0  0  0
   -7.4935    4.2386   -6.9317 H   0  0  0  0  0  0  0  0  0  0  0  0
  1  2  1  0  0  0
  2  3  2  0  0  0
  3  4  1  0  0  0
  4 12  1  0  0  0
 12 13  1  0  0  0
  4  5  2  0  0  0
  5  6  1  0  0  0
  6  7  2  0  0  0
  7  8  1  0  0  0
  8  9  2  0  0  0
  9 15  1  0  0  0
 15 16  2  0  0  0
 15 17  1  0  0  0
 17 18  2  0  0  0
 17 19  1  0  0  0
 19 20  1  0  0  0
 20 21  1  0  0  0
 22 21  1  0  0  0
 22 23  1  0  0  0
 23 24  1  0  0  0
 24 25  1  0  0  0
 25 26  1  0  0  0
 22 27  1  0  0  0
  9 10  1  0  0  0
 10 11  2  0  0  0
 11  2  1  0  0  0
 10  5  1  0  0  0
 27 19  1  0  0  0
 26 22  1  0  0  0
 13 14  1  0  0  0
 25 28  1  0  0  0
M  END
> <minimizedAffinity>
-8.65768

> <minimizedRMSD>
0.54626

$$$$
P13594


 29 31  0  0  0  0  0  0  0  0999 V2000
   -7.5371    4.3611  -13.4744 C   0  0  0  0  0  0  0  0  0  0  0  0
   -2.7036    5.0850  -14.9083 C   0  0  0  0  0  0  0  0  0  0  0  0
   -3.9837    5.1126  -15.6892 C   0  0  0  0  0  0  0  0  0  0  0  0
   -3.9466    5.2441  -17.0664 C   0  0  0  0  0  0  0  0  0  0  0  0
   -5.1352    5.1545  -17.7911 C   0  0  0  0  0  0  0  0  0  0  0  0
   -6.3459    4.9266  -17.0927 C   0  0  0  0  0  0  0  0  0  0  0  0
   -7.5844    4.7847  -17.7600 C   0  0  0  0  0  0  0  0  0  0  0  0
   -8.7510    4.5108  -17.0675 C   0  0  0  0  0  0  0  0  0  0  0  0
   -8.6950    4.3879  -15.6925 C   0  0  0  0  0  0  0  0  0  0  0  0
   -7.4856    4.5422  -14.9900 C   0  0  0  0  0  0  0  0  0  0  0  0
   -6.2968    4.8183  -15.6790 C   0  0  0  0  0  0  0  0  0  0  0  0
   -5.1367    4.9520  -14.9992 N   0  0  0  0  0  0  0  0  0  0  0  0
   -5.1370    5.2994  -19.2919 C   0  0  0  0  0  0  0  0  0  0  0  0
   -3.8781    5.0129  -19.8999 O   0  0  0  0  0  0  0  0  0  0  0  0
   -3.2133    5.6419  -19.5786 H   0  0  0  0  0  0  0  0  0  0  0  0
   -7.0155    3.0060  -12.9093 C   0  0  0  0  0  0  0  0  0  0  0  0
   -7.6378    1.9458  -13.5889 O   0  0  0  0  0  0  0  0  0  0  0  0
   -5.6264    2.8935  -13.1106 O   0  0  0  0  0  0  0  0  0  0  0  0
   -8.5705    1.8584  -13.5667 H   0  0  0  0  0  0  0  0  0  0  0  0
   -5.0452    3.5208  -12.7274 H   0  0  0  0  0  0  0  0  0  0  0  0
   -7.3524    2.7924  -11.5176 N   0  0  0  0  0  0  0  0  0  0  0  0
   -6.2116    2.4952  -10.6391 C   0  0  0  0  0  0  0  0  0  0  0  0
   -6.7616    2.6669   -9.2289 C   0  0  0  0  0  0  0  0  0  0  0  0
   -8.2136    3.0925   -9.4521 C   0  0  0  0  0  0  0  0  0  0  0  0
   -8.1477    3.7955  -10.8058 C   0  0  0  0  0  0  0  0  0  0  0  0
   -8.8694    3.8021   -8.2800 C   0  0  0  0  0  0  0  0  0  0  0  0
   -9.5689    2.9538   -7.3242 N   0  0  0  0  0  0  0  0  0  0  0  0
  -10.3520    2.4931   -7.7878 H   0  0  0  0  0  0  0  0  0  0  0  0
   -9.9178    3.5250   -6.5544 H   0  0  0  0  0  0  0  0  0  0  0  0
  2  3  1  0  0  0
  3  4  2  0  0  0
  4  5  1  0  0  0
  5 13  1  0  0  0
 13 14  1  0  0  0
  5  6  2  0  0  0
  6  7  1  0  0  0
  7  8  2  0  0  0
  8  9  1  0  0  0
  9 10  2  0  0  0
 10  1  1  0  0  0
  1 16  1  0  0  0
 16 17  1  0  0  0
 16 18  1  0  0  0
 16 21  1  0  0  0
 21 22  1  0  0  0
 22 23  1  0  0  0
 23 24  1  0  0  0
 24 26  1  0  0  0
 26 27  1  0  0  0
 24 25  1  0  0  0
 10 11  1  0  0  0
 11 12  2  0  0  0
 12  3  1  0  0  0
 11  6  1  0  0  0
 25 21  1  0  0  0
 14 15  1  0  0  0
 17 19  1  0  0  0
 18 20  1  0  0  0
 27 28  1  0  0  0
 27 29  1  0  0  0
M  END
> <minimizedAffinity>
-7.51218

> <minimizedRMSD>
0.93191

$$$$
P13620


 31 33  0  0  0  0  0  0  0  0999 V2000
   -7.3600    4.4378  -13.5514 C   0  0  0  0  0  0  0  0  0  0  0  0
   -7.5450    5.4744  -12.9221 O   0  0  0  0  0  0  0  0  0  0  0  0
   -7.2958    4.4940  -15.0036 C   0  0  0  0  0  0  0  0  0  0  0  0
   -8.5074    4.4147  -15.6803 C   0  0  0  0  0  0  0  0  0  0  0  0
   -8.5075    4.5637  -17.0473 C   0  0  0  0  0  0  0  0  0  0  0  0
   -9.9845    4.5374  -17.8901 Cl  0  0  0  0  0  0  0  0  0  0  0  0
   -7.3227    4.7979  -17.7315 C   0  0  0  0  0  0  0  0  0  0  0  0
   -6.0941    4.8901  -17.0456 C   0  0  0  0  0  0  0  0  0  0  0  0
   -4.8685    5.1374  -17.7132 C   0  0  0  0  0  0  0  0  0  0  0  0
   -3.7036    5.2056  -16.9382 C   0  0  0  0  0  0  0  0  0  0  0  0
   -3.7793    5.0416  -15.5645 C   0  0  0  0  0  0  0  0  0  0  0  0
   -2.5399    5.1310  -14.7282 C   0  0  0  0  0  0  0  0  0  0  0  0
   -4.9409    4.8063  -14.9236 N   0  0  0  0  0  0  0  0  0  0  0  0
   -6.0796    4.7279  -15.6374 C   0  0  0  0  0  0  0  0  0  0  0  0
   -4.8285    5.2754  -19.2270 C   0  0  0  0  0  0  0  0  0  0  0  0
   -3.9420    6.3782  -19.7204 N   0  0  0  0  0  0  0  0  0  0  0  0
   -2.9501    5.9608  -20.3319 O   0  0  0  0  0  0  0  0  0  0  0  0
   -7.4624    3.1664  -11.5003 N   0  0  0  0  0  0  0  0  0  0  0  0
   -6.2802    3.2105  -10.6678 C   0  0  0  0  0  0  0  0  0  0  0  0
   -7.3230    3.0710  -12.8631 C   0  0  0  0  0  0  0  0  0  0  0  0
   -7.2631    2.0234  -13.4886 O   0  0  0  0  0  0  0  0  0  0  0  0
   -8.8188    3.2174  -10.9838 C   0  0  0  0  0  0  0  0  0  0  0  0
   -8.7376    3.6034   -7.3101 C   0  0  0  0  0  0  0  0  0  0  0  0
   -9.2865    2.3602   -7.4948 C   0  0  0  0  0  0  0  0  0  0  0  0
   -9.3730    2.1213   -8.8366 N   0  0  0  0  0  0  0  0  0  0  0  0
   -8.8647    3.2017   -9.5134 C   0  0  0  0  0  0  0  0  0  0  0  0
   -8.4622    4.1406   -8.5820 C   0  0  0  0  0  0  0  0  0  0  0  0
   -9.7399    1.3071   -9.2508 H   0  0  0  0  0  0  0  0  0  0  0  0
   -9.5496    4.1214   -5.0695 C   0  0  0  0  0  0  0  0  0  0  0  0
   -8.5332    4.1519   -6.0940 N   0  0  0  0  0  0  0  0  0  0  0  0
   -7.6697    4.5835   -5.9009 H   0  0  0  0  0  0  0  0  0  0  0  0
 29 30  1  0  0  0
 30 23  1  0  0  0
 23 24  2  0  0  0
 24 25  1  0  0  0
 25 26  1  0  0  0
 26 22  1  0  0  0
 22 18  1  0  0  0
 18 19  1  0  0  0
 18 20  1  0  0  0
 20 21  2  0  0  0
 20  1  1  0  0  0
  1  2  2  0  0  0
  1  3  1  0  0  0
  3  4  2  0  0  0
  4  5  1  0  0  0
  5  6  1  0  0  0
  5  7  2  0  0  0
  7  8  1  0  0  0
  8  9  2  0  0  0
  9 15  1  0  0  0
 15 16  1  0  0  0
 16 17  2  0  0  0
  9 10  1  0  0  0
 10 11  2  0  0  0
 11 12  1  0  0  0
 11 13  1  0  0  0
 13 14  2  0  0  0
 26 27  2  0  0  0
 27 23  1  0  0  0
 14  3  1  0  0  0
 14  8  1  0  0  0
 30 31  1  0  0  0
 25 28  1  0  0  0
M  END
> <minimizedAffinity>
-8.22368

> <minimizedRMSD>
0.77297

$$$$
P13621


 37 40  0  0  0  0  0  0  0  0999 V2000
   -7.0898    5.4489  -12.7665 C   0  0  0  0  0  0  0  0  0  0  0  0
   -7.0020    6.8853  -13.0877 N   0  0  0  0  0  0  0  0  0  0  0  0
   -8.1538    7.6480  -12.5925 C   0  0  0  0  0  0  0  0  0  0  0  0
   -7.6692    9.1001  -12.5420 C   0  0  0  0  0  0  0  0  0  0  0  0
   -6.1427    9.0150  -12.7770 C   0  0  0  0  0  0  0  0  0  0  0  0
   -5.3564    9.9935  -11.9146 C   0  0  0  0  0  0  0  0  0  0  0  0
   -5.4109   11.2906  -12.7083 C   0  0  0  0  0  0  0  0  0  0  0  0
   -5.7131   10.9374  -14.0985 N   0  0  0  0  0  0  0  0  0  0  0  0
   -5.7939    9.4888  -14.1979 C   0  0  0  0  0  0  0  0  0  0  0  0
   -4.4932    9.1348  -14.7238 N   0  0  0  0  0  0  0  0  0  0  0  0
   -5.8487    7.5487  -12.4838 C   0  0  0  0  0  0  0  0  0  0  0  0
   -4.9740   11.2837  -14.7102 H   0  0  0  0  0  0  0  0  0  0  0  0
   -3.7663    9.5474  -14.1392 H   0  0  0  0  0  0  0  0  0  0  0  0
   -4.4043    9.4876  -15.6767 H   0  0  0  0  0  0  0  0  0  0  0  0
   -5.8649    4.8705  -12.1963 N   0  0  0  0  0  0  0  0  0  0  0  0
   -5.4487    3.7894  -12.5042 C   0  0  0  0  0  0  0  0  0  0  0  0
   -4.2982    2.9316  -11.8860 N   0  0  0  0  0  0  0  0  0  0  0  0
   -4.2016    2.0319  -12.2739 H   0  0  0  0  0  0  0  0  0  0  0  0
   -3.3601    3.2401  -10.8467 C   0  0  0  0  0  0  0  0  0  0  0  0
   -3.8226    2.7387   -9.4763 C   0  0  0  0  0  0  0  0  0  0  0  0
   -4.6638    3.6068   -8.8629 F   0  0  0  0  0  0  0  0  0  0  0  0
   -4.4886    1.5605   -9.6137 F   0  0  0  0  0  0  0  0  0  0  0  0
   -7.8443    4.6099  -13.8380 C   0  0  0  0  0  0  0  0  0  0  0  0
   -2.9124    5.7235  -14.9744 C   0  0  0  0  0  0  0  0  0  0  0  0
   -4.1204    5.5682  -15.8454 C   0  0  0  0  0  0  0  0  0  0  0  0
   -4.0175    5.7291  -17.2127 C   0  0  0  0  0  0  0  0  0  0  0  0
   -5.1311    5.4673  -18.0148 C   0  0  0  0  0  0  0  0  0  0  0  0
   -6.3400    5.0622  -17.3880 C   0  0  0  0  0  0  0  0  0  0  0  0
   -7.4881    4.7062  -18.1291 C   0  0  0  0  0  0  0  0  0  0  0  0
   -8.6496    4.2845  -17.5058 C   0  0  0  0  0  0  0  0  0  0  0  0
   -8.6947    4.2701  -16.1251 C   0  0  0  0  0  0  0  0  0  0  0  0
   -7.5899    4.6611  -15.3381 C   0  0  0  0  0  0  0  0  0  0  0  0
   -6.3829    5.0006  -15.9660 C   0  0  0  0  0  0  0  0  0  0  0  0
   -5.2787    5.2444  -15.2397 N   0  0  0  0  0  0  0  0  0  0  0  0
   -5.0360    5.6602  -19.5134 C   0  0  0  0  0  0  0  0  0  0  0  0
   -3.9550    4.9224  -20.0910 O   0  0  0  0  0  0  0  0  0  0  0  0
   -3.1158    5.2302  -19.7144 H   0  0  0  0  0  0  0  0  0  0  0  0
 24 25  1  0  0  0
 25 26  2  0  0  0
 26 27  1  0  0  0
 27 35  1  0  0  0
 35 36  1  0  0  0
 27 28  2  0  0  0
 28 29  1  0  0  0
 29 30  2  0  0  0
 30 31  1  0  0  0
 31 32  2  0  0  0
 32 23  1  0  0  0
  1 23  1  0  0  0
  1 15  1  0  0  0
 15 16  2  0  0  0
 16 17  1  0  0  0
 17 19  1  0  0  0
 19 20  1  0  0  0
 20 21  1  0  0  0
 20 22  1  0  0  0
  1  2  1  0  0  0
  2  3  1  0  0  0
  3  4  1  0  0  0
  5  4  1  0  0  0
  5  6  1  0  0  0
  6  7  1  0  0  0
  7  8  1  0  0  0
  8  9  1  0  0  0
  9 10  1  0  0  0
  5 11  1  0  0  0
 32 33  1  0  0  0
 33 34  2  0  0  0
 34 25  1  0  0  0
 33 28  1  0  0  0
 11  2  1  0  0  0
  9  5  1  0  0  0
 36 37  1  0  0  0
 17 18  1  0  0  0
  8 12  1  0  0  0
 10 13  1  0  0  0
 10 14  1  0  0  0
M  END
> <minimizedAffinity>
-6.38570

> <minimizedRMSD>
0.37802

$$$$
P13650


 37 41  0  0  0  0  0  0  0  0999 V2000
   -5.9619    5.1224  -13.8533 C   0  0  0  0  0  0  0  0  0  0  0  0
   -7.2760    4.9468  -13.1316 N   0  0  0  0  0  0  0  0  0  0  0  0
   -6.8287    5.0294  -11.7447 C   0  0  0  0  0  0  0  0  0  0  0  0
   -7.5272    4.3205  -10.6101 C   0  0  0  0  0  0  0  0  0  0  0  0
   -8.5153    4.9825   -9.7098 C   0  0  0  0  0  0  0  0  0  0  0  0
   -8.1368    4.7047   -8.3036 N   0  0  0  0  0  0  0  0  0  0  0  0
   -7.0076    3.7495   -8.3704 C   0  0  0  0  0  0  0  0  0  0  0  0
   -7.5694    2.3568   -8.3027 C   0  0  0  0  0  0  0  0  0  0  0  0
   -6.3601    4.1636   -9.6581 C   0  0  0  0  0  0  0  0  0  0  0  0
   -5.4086    3.4417  -10.5657 C   0  0  0  0  0  0  0  0  0  0  0  0
   -5.5211    4.3812  -11.6860 N   0  0  0  0  0  0  0  0  0  0  0  0
   -4.9759    4.2034  -12.9900 C   0  0  0  0  0  0  0  0  0  0  0  0
   -3.6960    4.7475  -12.8912 O   0  0  0  0  0  0  0  0  0  0  0  0
   -7.7010    4.0426  -13.3373 H   0  0  0  0  0  0  0  0  0  0  0  0
   -8.9217    4.2921   -7.7995 H   0  0  0  0  0  0  0  0  0  0  0  0
   -3.1347    4.1597  -12.3617 H   0  0  0  0  0  0  0  0  0  0  0  0
   -1.3471    6.0491  -15.4500 C   0  0  0  0  0  0  0  0  0  0  0  0
   -2.5888    5.7624  -16.2350 C   0  0  0  0  0  0  0  0  0  0  0  0
   -2.5658    5.7727  -17.6143 C   0  0  0  0  0  0  0  0  0  0  0  0
   -3.7454    5.5057  -18.3065 C   0  0  0  0  0  0  0  0  0  0  0  0
   -4.9226    5.2297  -17.5657 C   0  0  0  0  0  0  0  0  0  0  0  0
   -6.1458    4.9658  -18.1930 C   0  0  0  0  0  0  0  0  0  0  0  0
   -7.2814    4.7186  -17.4436 C   0  0  0  0  0  0  0  0  0  0  0  0
   -8.7372    4.4344  -18.2951 Cl  0  0  0  0  0  0  0  0  0  0  0  0
   -7.2316    4.7390  -16.0537 C   0  0  0  0  0  0  0  0  0  0  0  0
   -6.0182    4.9812  -15.3830 C   0  0  0  0  0  0  0  0  0  0  0  0
   -4.8634    5.2354  -16.1499 C   0  0  0  0  0  0  0  0  0  0  0  0
   -3.7130    5.5132  -15.5333 N   0  0  0  0  0  0  0  0  0  0  0  0
   -3.7750    5.5570  -19.8135 C   0  0  0  0  0  0  0  0  0  0  0  0
   -2.6459    4.9255  -20.4141 O   0  0  0  0  0  0  0  0  0  0  0  0
   -1.8358    5.3842  -20.1413 H   0  0  0  0  0  0  0  0  0  0  0  0
   -4.9901    2.7948  -13.3353 N   0  0  0  0  0  0  0  0  0  0  0  0
   -5.6606    2.6545  -14.0910 H   0  0  0  0  0  0  0  0  0  0  0  0
   -3.6768    2.2821  -13.7747 C   0  0  0  0  0  0  0  0  0  0  0  0
   -2.8225    1.5122  -12.7570 C   0  0  0  0  0  0  0  0  0  0  0  0
   -1.6142    1.2291  -13.3306 F   0  0  0  0  0  0  0  0  0  0  0  0
   -2.5398    2.2694  -11.6648 F   0  0  0  0  0  0  0  0  0  0  0  0
 17 18  1  0  0  0
 18 19  2  0  0  0
 19 20  1  0  0  0
 20 29  1  0  0  0
 29 30  1  0  0  0
 20 21  2  0  0  0
 21 22  1  0  0  0
 22 23  2  0  0  0
 23 24  1  0  0  0
 23 25  1  0  0  0
 25 26  2  0  0  0
  1 26  1  0  0  0
  1  2  1  0  0  0
  3  2  1  0  0  0
  3  4  1  0  0  0
  4  5  1  0  0  0
  5  6  1  0  0  0
  6  7  1  0  0  0
  7  8  1  0  0  0
  7  9  1  0  0  0
  9 10  1  0  0  0
 10 11  1  0  0  0
 11 12  1  0  0  0
 12 13  1  0  0  0
 12 32  1  0  0  0
 32 34  1  0  0  0
 34 35  1  0  0  0
 35 36  1  0  0  0
 35 37  1  0  0  0
 26 27  1  0  0  0
 27 28  2  0  0  0
 28 18  1  0  0  0
 27 21  1  0  0  0
 12  1  1  0  0  0
 11  3  1  0  0  0
  9  4  1  0  0  0
 30 31  1  0  0  0
  2 14  1  0  0  0
  6 15  1  0  0  0
 13 16  1  0  0  0
 32 33  1  0  0  0
M  END
> <minimizedAffinity>
-7.15581

> <minimizedRMSD>
1.36441

$$$$
P13668


 35 39  0  0  0  0  0  0  0  0999 V2000
   -2.9356    5.5972  -14.3794 C   0  0  0  0  0  0  0  0  0  0  0  0
   -4.0114    5.4159  -15.4122 C   0  0  0  0  0  0  0  0  0  0  0  0
   -5.1751    4.9682  -14.8888 N   0  0  0  0  0  0  0  0  0  0  0  0
   -6.2538    4.8192  -15.6647 C   0  0  0  0  0  0  0  0  0  0  0  0
   -7.4687    4.4445  -15.0940 C   0  0  0  0  0  0  0  0  0  0  0  0
   -8.6458    4.3407  -15.8348 C   0  0  0  0  0  0  0  0  0  0  0  0
   -8.6124    4.5402  -17.1993 C   0  0  0  0  0  0  0  0  0  0  0  0
   -7.4067    4.8971  -17.7969 C   0  0  0  0  0  0  0  0  0  0  0  0
   -6.2040    5.0702  -17.0507 C   0  0  0  0  0  0  0  0  0  0  0  0
   -4.9525    5.5043  -17.6242 C   0  0  0  0  0  0  0  0  0  0  0  0
   -3.8297    5.7136  -16.7748 C   0  0  0  0  0  0  0  0  0  0  0  0
   -2.4688    6.2489  -17.2275 C   0  0  0  0  0  0  0  0  0  0  0  0
   -2.5523    7.6603  -17.8469 C   0  0  0  0  0  0  0  0  0  0  0  0
   -1.2834    8.0409  -18.6044 C   0  0  0  0  0  0  0  0  0  0  0  0
   -0.8761    6.9731  -19.5225 N   0  0  0  0  0  0  0  0  0  0  0  0
   -0.4628    5.8055  -18.7414 C   0  0  0  0  0  0  0  0  0  0  0  0
   -1.6481    5.1984  -18.0011 C   0  0  0  0  0  0  0  0  0  0  0  0
   -0.0963    7.2942  -20.0963 H   0  0  0  0  0  0  0  0  0  0  0  0
   -4.9919    5.7503  -19.1297 C   0  0  0  0  0  0  0  0  0  0  0  0
   -4.1907    4.9353  -19.9632 O   0  0  0  0  0  0  0  0  0  0  0  0
   -3.2541    5.0958  -19.7686 H   0  0  0  0  0  0  0  0  0  0  0  0
   -7.5608    4.1760  -13.6507 C   0  0  0  0  0  0  0  0  0  0  0  0
   -8.1812    4.9288  -12.9103 O   0  0  0  0  0  0  0  0  0  0  0  0
   -6.9429    2.8643  -13.1427 C   0  0  0  0  0  0  0  0  0  0  0  0
   -7.3402    1.8432  -13.5648 O   0  0  0  0  0  0  0  0  0  0  0  0
   -5.8380    3.1483  -12.1652 N   0  0  0  0  0  0  0  0  0  0  0  0
   -6.3555    3.1745  -10.7455 C   0  0  0  0  0  0  0  0  0  0  0  0
   -5.2823    3.6064   -9.7618 C   0  0  0  0  0  0  0  0  0  0  0  0
   -4.1191    2.8726  -10.3641 C   0  0  0  0  0  0  0  0  0  0  0  0
   -3.4547    1.8756   -9.4235 C   0  0  0  0  0  0  0  0  0  0  0  0
   -2.2883    2.6413   -8.8089 C   0  0  0  0  0  0  0  0  0  0  0  0
   -2.2170    3.9439   -9.4892 N   0  0  0  0  0  0  0  0  0  0  0  0
   -2.9579    3.7727  -10.7484 C   0  0  0  0  0  0  0  0  0  0  0  0
   -4.8514    2.2311  -11.5168 C   0  0  0  0  0  0  0  0  0  0  0  0
   -1.2464    4.1944   -9.6782 H   0  0  0  0  0  0  0  0  0  0  0  0
  1  2  1  0  0  0
  2  3  2  0  0  0
  3  4  1  0  0  0
  4  5  2  0  0  0
  5 22  1  0  0  0
 22 23  2  0  0  0
 22 24  1  0  0  0
 24 25  2  0  0  0
 24 26  1  0  0  0
 26 27  1  0  0  0
 27 28  1  0  0  0
 29 28  1  0  0  0
 29 30  1  0  0  0
 30 31  1  0  0  0
 31 32  1  0  0  0
 32 33  1  0  0  0
 29 34  1  0  0  0
  5  6  1  0  0  0
  6  7  2  0  0  0
  7  8  1  0  0  0
  8  9  2  0  0  0
  9 10  1  0  0  0
 10 19  1  0  0  0
 19 20  1  0  0  0
 10 11  2  0  0  0
 11 12  1  0  0  0
 12 13  1  0  0  0
 13 14  1  0  0  0
 14 15  1  0  0  0
 15 16  1  0  0  0
 16 17  1  0  0  0
 11  2  1  0  0  0
 17 12  1  0  0  0
  9  4  1  0  0  0
 34 26  1  0  0  0
 33 29  1  0  0  0
 32 35  1  0  0  0
 20 21  1  0  0  0
 15 18  1  0  0  0
M  END
> <minimizedAffinity>
-7.85790

> <minimizedRMSD>
0.83591

$$$$
P13695


 30 32  0  0  0  0  0  0  0  0999 V2000
   -4.9214    5.0663  -17.7240 C   0  0  0  0  0  0  0  0  0  0  0  0
   -3.7915    5.2692  -16.9307 C   0  0  0  0  0  0  0  0  0  0  0  0
   -3.8688    5.0746  -15.5643 C   0  0  0  0  0  0  0  0  0  0  0  0
   -2.6386    5.1855  -14.7212 C   0  0  0  0  0  0  0  0  0  0  0  0
   -5.0218    4.7822  -14.9395 N   0  0  0  0  0  0  0  0  0  0  0  0
   -6.1563    4.7158  -15.6572 C   0  0  0  0  0  0  0  0  0  0  0  0
   -7.3776    4.5429  -15.0130 C   0  0  0  0  0  0  0  0  0  0  0  0
   -8.5919    4.4946  -15.6951 C   0  0  0  0  0  0  0  0  0  0  0  0
   -8.5806    4.5728  -17.0734 C   0  0  0  0  0  0  0  0  0  0  0  0
  -10.0452    4.5152  -17.9506 Cl  0  0  0  0  0  0  0  0  0  0  0  0
   -7.3830    4.7289  -17.7601 C   0  0  0  0  0  0  0  0  0  0  0  0
   -6.1562    4.8285  -17.0680 C   0  0  0  0  0  0  0  0  0  0  0  0
   -7.3956    4.4836  -13.5492 C   0  0  0  0  0  0  0  0  0  0  0  0
   -7.4866    5.5157  -12.8948 O   0  0  0  0  0  0  0  0  0  0  0  0
   -7.3428    3.0976  -12.8863 C   0  0  0  0  0  0  0  0  0  0  0  0
   -7.2906    2.0667  -13.5413 O   0  0  0  0  0  0  0  0  0  0  0  0
   -7.4584    3.1314  -11.5260 N   0  0  0  0  0  0  0  0  0  0  0  0
   -6.3253    3.1468  -10.6366 C   0  0  0  0  0  0  0  0  0  0  0  0
   -6.9180    2.7606   -9.2923 C   0  0  0  0  0  0  0  0  0  0  0  0
   -8.3280    3.3627   -9.3624 C   0  0  0  0  0  0  0  0  0  0  0  0
   -8.7258    3.1556  -10.8242 C   0  0  0  0  0  0  0  0  0  0  0  0
   -9.3330    2.8417   -8.3337 C   0  0  0  0  0  0  0  0  0  0  0  0
   -9.1292    3.4972   -6.9738 C   0  0  0  0  0  0  0  0  0  0  0  0
   -9.3688    1.4082   -8.1150 N   0  0  0  0  0  0  0  0  0  0  0  0
   -8.4947    1.1082   -7.6834 H   0  0  0  0  0  0  0  0  0  0  0  0
   -9.4881    0.9308   -9.0085 H   0  0  0  0  0  0  0  0  0  0  0  0
   -4.8579    5.0974  -19.2388 C   0  0  0  0  0  0  0  0  0  0  0  0
   -3.1745    6.5201  -20.3395 C   0  0  0  0  0  0  0  0  0  0  0  0
   -4.5506    6.3824  -19.8897 N   0  0  0  0  0  0  0  0  0  0  0  0
   -5.1616    6.4824  -20.7003 H   0  0  0  0  0  0  0  0  0  0  0  0
 28 29  1  0  0  0
 29 27  1  0  0  0
 27  1  1  0  0  0
  1  2  2  0  0  0
  2  3  1  0  0  0
  3  4  1  0  0  0
  3  5  2  0  0  0
  5  6  1  0  0  0
  6  7  2  0  0  0
  7 13  1  0  0  0
 13 14  2  0  0  0
 13 15  1  0  0  0
 15 16  2  0  0  0
 15 17  1  0  0  0
 17 18  1  0  0  0
 18 19  1  0  0  0
 20 19  1  0  0  0
 20 22  1  0  0  0
 22 23  1  0  0  0
 22 24  1  0  0  0
 20 21  1  0  0  0
  7  8  1  0  0  0
  8  9  2  0  0  0
  9 10  1  0  0  0
  9 11  1  0  0  0
 11 12  2  0  0  0
 12  1  1  0  0  0
 12  6  1  0  0  0
 21 17  1  0  0  0
 29 30  1  0  0  0
 24 25  1  0  0  0
 24 26  1  0  0  0
M  END
> <minimizedAffinity>
-8.58459

> <minimizedRMSD>
0.49245

$$$$
P13710


 31 33  0  0  0  0  0  0  0  0999 V2000
   -7.3929    4.7410  -13.9400 N   0  0  0  0  0  0  0  0  0  0  0  0
   -6.8440    5.9955  -13.5257 N   0  0  0  0  0  0  0  0  0  0  0  0
   -7.1235    6.7228  -14.1840 H   0  0  0  0  0  0  0  0  0  0  0  0
   -5.8264    5.9305  -13.5028 H   0  0  0  0  0  0  0  0  0  0  0  0
   -2.5455    5.3862  -15.2989 C   0  0  0  0  0  0  0  0  0  0  0  0
   -3.8078    5.2588  -16.0945 C   0  0  0  0  0  0  0  0  0  0  0  0
   -3.7942    5.4193  -17.4619 C   0  0  0  0  0  0  0  0  0  0  0  0
   -4.9931    5.2951  -18.1662 C   0  0  0  0  0  0  0  0  0  0  0  0
   -6.1915    4.9753  -17.4766 C   0  0  0  0  0  0  0  0  0  0  0  0
   -7.4411    4.8147  -18.1263 C   0  0  0  0  0  0  0  0  0  0  0  0
   -8.6042    4.5457  -17.4191 C   0  0  0  0  0  0  0  0  0  0  0  0
   -8.5420    4.4559  -16.0410 C   0  0  0  0  0  0  0  0  0  0  0  0
   -7.3209    4.6016  -15.3623 C   0  0  0  0  0  0  0  0  0  0  0  0
   -6.1210    4.8418  -16.0774 C   0  0  0  0  0  0  0  0  0  0  0  0
   -4.9435    5.0103  -15.4159 N   0  0  0  0  0  0  0  0  0  0  0  0
   -5.0288    5.5521  -19.6422 C   0  0  0  0  0  0  0  0  0  0  0  0
   -3.7284    5.6822  -20.2215 O   0  0  0  0  0  0  0  0  0  0  0  0
   -3.2728    6.4417  -19.8260 H   0  0  0  0  0  0  0  0  0  0  0  0
   -7.1037    3.5277  -13.1080 C   0  0  0  0  0  0  0  0  0  0  0  0
   -5.6212    3.2804  -12.8369 C   0  0  0  0  0  0  0  0  0  0  0  0
   -7.5430    2.3470  -13.7730 O   0  0  0  0  0  0  0  0  0  0  0  0
   -7.0687    2.2541  -14.6140 H   0  0  0  0  0  0  0  0  0  0  0  0
   -7.9081    3.6023  -11.7764 C   0  0  0  0  0  0  0  0  0  0  0  0
   -7.0919    3.9374  -10.5073 C   0  0  0  0  0  0  0  0  0  0  0  0
   -7.6738    5.1061   -9.6741 C   0  0  0  0  0  0  0  0  0  0  0  0
   -6.6063    6.1510   -9.2730 C   0  0  0  0  0  0  0  0  0  0  0  0
   -6.1276    5.9711   -7.8405 C   0  0  0  0  0  0  0  0  0  0  0  0
   -7.2005    6.0756   -6.8530 N   0  0  0  0  0  0  0  0  0  0  0  0
   -8.5065    5.6211   -7.3427 C   0  0  0  0  0  0  0  0  0  0  0  0
   -8.3879    4.5561   -8.4263 C   0  0  0  0  0  0  0  0  0  0  0  0
   -7.2850    7.0528   -6.5730 H   0  0  0  0  0  0  0  0  0  0  0  0
  5  6  1  0  0  0
  6  7  2  0  0  0
  7  8  1  0  0  0
  8 16  1  0  0  0
 16 17  1  0  0  0
  8  9  2  0  0  0
  9 10  1  0  0  0
 10 11  2  0  0  0
 11 12  1  0  0  0
 12 13  2  0  0  0
 13  1  1  0  0  0
  1  2  1  0  0  0
  1 19  1  0  0  0
 19 20  1  0  0  0
 19 21  1  0  0  0
 19 23  1  0  0  0
 23 24  1  0  0  0
 24 25  1  0  0  0
 25 26  1  0  0  0
 26 27  1  0  0  0
 27 28  1  0  0  0
 28 29  1  0  0  0
 29 30  1  0  0  0
 13 14  1  0  0  0
 14 15  2  0  0  0
 15  6  1  0  0  0
 14  9  1  0  0  0
 30 25  1  0  0  0
 17 18  1  0  0  0
  2  3  1  0  0  0
  2  4  1  0  0  0
 21 22  1  0  0  0
 28 31  1  0  0  0
M  END
> <minimizedAffinity>
-6.42415

> <minimizedRMSD>
1.46487

$$$$
P13745


 28 30  0  0  0  0  0  0  0  0999 V2000
   -2.0762    5.2339  -15.6420 C   0  0  0  0  0  0  0  0  0  0  0  0
   -3.4942    5.1505  -16.1126 C   0  0  0  0  0  0  0  0  0  0  0  0
   -3.8202    5.4477  -17.4188 C   0  0  0  0  0  0  0  0  0  0  0  0
   -5.1530    5.3514  -17.8249 C   0  0  0  0  0  0  0  0  0  0  0  0
   -6.1380    4.9558  -16.8843 C   0  0  0  0  0  0  0  0  0  0  0  0
   -7.4994    4.7841  -17.2223 C   0  0  0  0  0  0  0  0  0  0  0  0
   -8.4277    4.3366  -16.3002 C   0  0  0  0  0  0  0  0  0  0  0  0
   -8.0232    4.1125  -14.9988 C   0  0  0  0  0  0  0  0  0  0  0  0
   -6.6909    4.3268  -14.6018 C   0  0  0  0  0  0  0  0  0  0  0  0
   -5.7239    4.7132  -15.5501 C   0  0  0  0  0  0  0  0  0  0  0  0
   -4.4238    4.8214  -15.1939 N   0  0  0  0  0  0  0  0  0  0  0  0
   -6.3841    4.1519  -13.1921 N   0  0  0  0  0  0  0  0  0  0  0  0
   -6.1900    2.8497  -12.7447 C   0  0  0  0  0  0  0  0  0  0  0  0
   -5.8092    1.9420  -13.4939 O   0  0  0  0  0  0  0  0  0  0  0  0
   -6.4088    2.5097  -11.2821 C   0  0  0  0  0  0  0  0  0  0  0  0
   -7.4875    3.2405  -10.4881 C   0  0  0  0  0  0  0  0  0  0  0  0
   -8.4068    4.1526  -11.2812 C   0  0  0  0  0  0  0  0  0  0  0  0
   -7.8128    5.4161  -11.6920 N   0  0  0  0  0  0  0  0  0  0  0  0
   -6.4720    5.3352  -12.3151 C   0  0  0  0  0  0  0  0  0  0  0  0
   -7.7365    6.0078  -10.8647 H   0  0  0  0  0  0  0  0  0  0  0  0
   -5.3100    5.5351  -11.2639 C   0  0  0  0  0  0  0  0  0  0  0  0
   -4.0117    6.0272  -11.8890 C   0  0  0  0  0  0  0  0  0  0  0  0
   -5.7054    6.4846  -10.1932 N   0  0  0  0  0  0  0  0  0  0  0  0
   -5.8677    7.4062  -10.5990 H   0  0  0  0  0  0  0  0  0  0  0  0
   -4.9597    6.5449   -9.4999 H   0  0  0  0  0  0  0  0  0  0  0  0
   -5.4704    5.7550  -19.2382 C   0  0  0  0  0  0  0  0  0  0  0  0
   -5.7825    4.6395  -20.0470 O   0  0  0  0  0  0  0  0  0  0  0  0
   -5.0193    4.0418  -20.0818 H   0  0  0  0  0  0  0  0  0  0  0  0
  1  2  1  0  0  0
  2  3  2  0  0  0
  3  4  1  0  0  0
  4 26  1  0  0  0
 26 27  1  0  0  0
  4  5  2  0  0  0
  5  6  1  0  0  0
  6  7  2  0  0  0
  7  8  1  0  0  0
  8  9  2  0  0  0
  9 12  1  0  0  0
 12 13  1  0  0  0
 13 14  2  0  0  0
 13 15  1  0  0  0
 15 16  1  0  0  0
 16 17  1  0  0  0
 17 18  1  0  0  0
 19 18  1  0  0  0
 19 21  1  0  0  0
 21 22  1  0  0  0
 21 23  1  0  0  0
  9 10  1  0  0  0
 10 11  2  0  0  0
 11  2  1  0  0  0
 10  5  1  0  0  0
 19 12  1  0  0  0
 27 28  1  0  0  0
 18 20  1  0  0  0
 23 24  1  0  0  0
 23 25  1  0  0  0
M  END
> <minimizedAffinity>
-6.62141

> <minimizedRMSD>
1.23419

$$$$
P13750


 31 35  0  0  0  0  0  0  0  0999 V2000
   -6.4015    4.0754  -13.6992 C   0  0  0  0  0  0  0  0  0  0  0  0
   -5.4449    4.5211  -13.0759 O   0  0  0  0  0  0  0  0  0  0  0  0
   -2.0876    5.3816  -15.6568 C   0  0  0  0  0  0  0  0  0  0  0  0
   -3.4154    5.2476  -16.3207 C   0  0  0  0  0  0  0  0  0  0  0  0
   -4.4368    4.9213  -15.5091 N   0  0  0  0  0  0  0  0  0  0  0  0
   -5.7066    4.8112  -15.9595 C   0  0  0  0  0  0  0  0  0  0  0  0
   -6.7459    4.4399  -15.1024 C   0  0  0  0  0  0  0  0  0  0  0  0
   -8.0714    4.3698  -15.5605 C   0  0  0  0  0  0  0  0  0  0  0  0
   -8.3691    4.6255  -16.8954 C   0  0  0  0  0  0  0  0  0  0  0  0
   -7.3434    4.9571  -17.7733 C   0  0  0  0  0  0  0  0  0  0  0  0
   -6.0144    5.0505  -17.3115 C   0  0  0  0  0  0  0  0  0  0  0  0
   -4.9312    5.3441  -18.1415 C   0  0  0  0  0  0  0  0  0  0  0  0
   -3.6310    5.4246  -17.6600 C   0  0  0  0  0  0  0  0  0  0  0  0
   -2.7060    5.7523  -18.7730 C   0  0  0  0  0  0  0  0  0  0  0  0
   -1.4658    4.8830  -18.8968 C   0  0  0  0  0  0  0  0  0  0  0  0
   -3.5101    5.5254  -19.9545 O   0  0  0  0  0  0  0  0  0  0  0  0
   -4.9165    5.6039  -19.5992 C   0  0  0  0  0  0  0  0  0  0  0  0
   -7.2453    3.0685  -12.9676 C   0  0  0  0  0  0  0  0  0  0  0  0
   -7.0398    1.8771  -13.1763 O   0  0  0  0  0  0  0  0  0  0  0  0
   -8.3406    3.6082  -12.0802 C   0  0  0  0  0  0  0  0  0  0  0  0
   -8.1535    5.0416  -11.6184 C   0  0  0  0  0  0  0  0  0  0  0  0
   -8.5539    6.0844  -12.4755 C   0  0  0  0  0  0  0  0  0  0  0  0
   -8.3028    7.4158  -12.1519 C   0  0  0  0  0  0  0  0  0  0  0  0
   -7.6500    7.7283  -10.9640 C   0  0  0  0  0  0  0  0  0  0  0  0
   -7.2386    6.7112  -10.0889 C   0  0  0  0  0  0  0  0  0  0  0  0
   -7.5066    5.3595  -10.4030 C   0  0  0  0  0  0  0  0  0  0  0  0
   -6.9994    4.2741   -9.4724 C   0  0  0  0  0  0  0  0  0  0  0  0
   -6.5281    4.8034   -8.1125 C   0  0  0  0  0  0  0  0  0  0  0  0
   -5.7103    6.0153   -8.2460 N   0  0  0  0  0  0  0  0  0  0  0  0
   -6.5411    7.0891   -8.8015 C   0  0  0  0  0  0  0  0  0  0  0  0
   -4.9251    5.8317   -8.8707 H   0  0  0  0  0  0  0  0  0  0  0  0
  3  4  1  0  0  0
  4  5  2  0  0  0
  5  6  1  0  0  0
  6  7  2  0  0  0
  7  1  1  0  0  0
  1  2  2  0  0  0
  1 18  1  0  0  0
 18 19  2  0  0  0
 18 20  1  0  0  0
 20 21  1  0  0  0
 21 22  2  0  0  0
 22 23  1  0  0  0
 23 24  2  0  0  0
 24 25  1  0  0  0
 25 26  2  0  0  0
 26 27  1  0  0  0
 27 28  1  0  0  0
 28 29  1  0  0  0
 29 30  1  0  0  0
  7  8  1  0  0  0
  8  9  2  0  0  0
  9 10  1  0  0  0
 10 11  2  0  0  0
 11 12  1  0  0  0
 12 13  2  0  0  0
 13 14  1  0  0  0
 14 15  1  0  0  0
 14 16  1  0  0  0
 16 17  1  0  0  0
 13  4  1  0  0  0
 11  6  1  0  0  0
 17 12  1  0  0  0
 26 21  1  0  0  0
 30 25  1  0  0  0
 29 31  1  0  0  0
M  END
> <minimizedAffinity>
-7.24552

> <minimizedRMSD>
0.66092

$$$$
P13766


 41 45  0  0  0  0  0  0  0  0999 V2000
   -7.1371    3.7716  -13.0008 C   0  0  0  0  0  0  0  0  0  0  0  0
   -7.2793    2.5808  -13.7342 O   0  0  0  0  0  0  0  0  0  0  0  0
   -6.6256    2.5622  -14.4506 H   0  0  0  0  0  0  0  0  0  0  0  0
   -7.3622    4.9308  -13.8704 N   0  0  0  0  0  0  0  0  0  0  0  0
   -7.5331    5.8140  -13.4704 H   0  0  0  0  0  0  0  0  0  0  0  0
   -2.6200    5.7279  -15.1937 C   0  0  0  0  0  0  0  0  0  0  0  0
   -3.8630    5.4796  -15.9928 C   0  0  0  0  0  0  0  0  0  0  0  0
   -3.8103    5.4734  -17.3745 C   0  0  0  0  0  0  0  0  0  0  0  0
   -4.9816    5.2439  -18.0977 C   0  0  0  0  0  0  0  0  0  0  0  0
   -6.1843    4.9766  -17.4002 C   0  0  0  0  0  0  0  0  0  0  0  0
   -7.4133    4.7185  -18.0461 C   0  0  0  0  0  0  0  0  0  0  0  0
   -8.5693    4.4959  -17.3132 C   0  0  0  0  0  0  0  0  0  0  0  0
  -10.0636    4.3131  -18.1177 Cl  0  0  0  0  0  0  0  0  0  0  0  0
   -8.5345    4.5202  -15.9344 C   0  0  0  0  0  0  0  0  0  0  0  0
   -7.3365    4.7933  -15.2747 C   0  0  0  0  0  0  0  0  0  0  0  0
   -6.1441    5.0026  -15.9913 C   0  0  0  0  0  0  0  0  0  0  0  0
   -5.0076    5.2719  -15.3087 N   0  0  0  0  0  0  0  0  0  0  0  0
   -4.9861    5.3342  -19.5956 C   0  0  0  0  0  0  0  0  0  0  0  0
   -3.6973    5.1284  -20.1783 O   0  0  0  0  0  0  0  0  0  0  0  0
   -3.0893    5.8185  -19.8703 H   0  0  0  0  0  0  0  0  0  0  0  0
   -8.1507    3.6961  -11.9677 N   0  0  0  0  0  0  0  0  0  0  0  0
   -8.0101    2.8282  -11.4506 H   0  0  0  0  0  0  0  0  0  0  0  0
   -8.1459    4.7936  -11.0140 C   0  0  0  0  0  0  0  0  0  0  0  0
   -8.7666    4.3606   -9.6705 C   0  0  0  0  0  0  0  0  0  0  0  0
   -7.9971    5.0011   -8.5000 C   0  0  0  0  0  0  0  0  0  0  0  0
   -8.0519    4.1588   -7.2294 C   0  0  0  0  0  0  0  0  0  0  0  0
   -9.2998    3.4858   -7.1349 O   0  0  0  0  0  0  0  0  0  0  0  0
   -9.4449    2.4718   -8.1359 C   0  0  0  0  0  0  0  0  0  0  0  0
   -8.8139    2.8398   -9.4797 C   0  0  0  0  0  0  0  0  0  0  0  0
   -5.6365    3.8006  -12.5066 C   0  0  0  0  0  0  0  0  0  0  0  0
   -4.9988    2.6758  -11.7066 C   0  0  0  0  0  0  0  0  0  0  0  0
   -5.6915    2.0026  -10.6968 C   0  0  0  0  0  0  0  0  0  0  0  0
   -5.0778    1.0138   -9.9388 C   0  0  0  0  0  0  0  0  0  0  0  0
   -3.7815    0.6156  -10.2294 C   0  0  0  0  0  0  0  0  0  0  0  0
   -3.0888    1.1858  -11.3010 C   0  0  0  0  0  0  0  0  0  0  0  0
   -3.6777    2.2483  -12.0176 C   0  0  0  0  0  0  0  0  0  0  0  0
   -2.9061    2.8381  -13.1803 C   0  0  0  0  0  0  0  0  0  0  0  0
   -1.4242    2.4450  -13.1951 C   0  0  0  0  0  0  0  0  0  0  0  0
   -1.2504    1.0081  -12.9906 N   0  0  0  0  0  0  0  0  0  0  0  0
   -1.7163    0.6539  -11.6402 C   0  0  0  0  0  0  0  0  0  0  0  0
   -0.2641    0.7663  -13.0860 H   0  0  0  0  0  0  0  0  0  0  0  0
  6  7  1  0  0  0
  7  8  2  0  0  0
  8  9  1  0  0  0
  9 18  1  0  0  0
 18 19  1  0  0  0
  9 10  2  0  0  0
 10 11  1  0  0  0
 11 12  2  0  0  0
 12 13  1  0  0  0
 12 14  1  0  0  0
 14 15  2  0  0  0
 15  4  1  0  0  0
  4  1  1  0  0  0
  1  2  1  0  0  0
  1 30  1  0  0  0
 30 31  1  0  0  0
 31 32  2  0  0  0
 32 33  1  0  0  0
 33 34  2  0  0  0
 34 35  1  0  0  0
 35 36  2  0  0  0
 36 37  1  0  0  0
 37 38  1  0  0  0
 38 39  1  0  0  0
 39 40  1  0  0  0
  1 21  1  0  0  0
 21 23  1  0  0  0
 23 24  1  0  0  0
 24 25  1  0  0  0
 25 26  1  0  0  0
 26 27  1  0  0  0
 27 28  1  0  0  0
 28 29  1  0  0  0
 15 16  1  0  0  0
 16 17  2  0  0  0
 17  7  1  0  0  0
 16 10  1  0  0  0
 36 31  1  0  0  0
 29 24  1  0  0  0
 40 35  1  0  0  0
 19 20  1  0  0  0
  4  5  1  0  0  0
  2  3  1  0  0  0
 39 41  1  0  0  0
 21 22  1  0  0  0
M  END
> <minimizedAffinity>
-8.65967

> <minimizedRMSD>
0.98328

$$$$
P13769


 38 42  0  0  0  0  0  0  0  0999 V2000
   -3.2989    4.6933  -15.1497 C   0  0  0  0  0  0  0  0  0  0  0  0
   -4.1771    5.8915  -15.5248 C   0  0  0  0  0  0  0  0  0  0  0  0
   -5.5523    5.5348  -15.2127 N   0  0  0  0  0  0  0  0  0  0  0  0
   -6.4854    5.2044  -16.1934 C   0  0  0  0  0  0  0  0  0  0  0  0
   -7.8147    4.9061  -15.8142 C   0  0  0  0  0  0  0  0  0  0  0  0
   -8.7812    4.5182  -16.7335 C   0  0  0  0  0  0  0  0  0  0  0  0
   -8.4094    4.3802  -18.0531 C   0  0  0  0  0  0  0  0  0  0  0  0
   -9.3163    3.9733  -18.9500 F   0  0  0  0  0  0  0  0  0  0  0  0
   -7.1053    4.6477  -18.4628 C   0  0  0  0  0  0  0  0  0  0  0  0
   -6.1197    5.0671  -17.5438 C   0  0  0  0  0  0  0  0  0  0  0  0
   -4.6675    5.3524  -17.9441 C   0  0  0  0  0  0  0  0  0  0  0  0
   -4.0254    6.4347  -16.9842 C   0  0  0  0  0  0  0  0  0  0  0  0
   -4.7830    7.8120  -17.1017 C   0  0  0  0  0  0  0  0  0  0  0  0
   -3.8859    9.0558  -17.0867 C   0  0  0  0  0  0  0  0  0  0  0  0
   -2.7467    8.9349  -16.0864 C   0  0  0  0  0  0  0  0  0  0  0  0
   -1.8652    7.7167  -16.3578 C   0  0  0  0  0  0  0  0  0  0  0  0
   -2.5234    6.6966  -17.2936 C   0  0  0  0  0  0  0  0  0  0  0  0
   -5.8354    5.5264  -14.2699 H   0  0  0  0  0  0  0  0  0  0  0  0
   -4.4918    5.6544  -19.4410 C   0  0  0  0  0  0  0  0  0  0  0  0
   -3.5014    4.8187  -20.0381 O   0  0  0  0  0  0  0  0  0  0  0  0
   -2.6456    4.9742  -19.6088 H   0  0  0  0  0  0  0  0  0  0  0  0
   -8.2045    5.1023  -14.4151 C   0  0  0  0  0  0  0  0  0  0  0  0
   -8.7331    6.1611  -14.0977 O   0  0  0  0  0  0  0  0  0  0  0  0
   -7.8720    4.0430  -13.3810 C   0  0  0  0  0  0  0  0  0  0  0  0
   -7.1945    3.0769  -13.7214 O   0  0  0  0  0  0  0  0  0  0  0  0
   -8.4182    4.1945  -11.9757 C   0  0  0  0  0  0  0  0  0  0  0  0
   -7.8162    5.2767  -11.0576 C   0  0  0  0  0  0  0  0  0  0  0  0
   -6.2805    5.2566  -11.0801 C   0  0  0  0  0  0  0  0  0  0  0  0
   -5.7206    4.0805  -10.3050 C   0  0  0  0  0  0  0  0  0  0  0  0
   -6.2007    4.1495   -8.8685 C   0  0  0  0  0  0  0  0  0  0  0  0
   -7.7467    4.1094   -8.6839 C   0  0  0  0  0  0  0  0  0  0  0  0
   -7.9830    4.3986   -7.1742 C   0  0  0  0  0  0  0  0  0  0  0  0
   -9.3812    4.1213   -6.6345 C   0  0  0  0  0  0  0  0  0  0  0  0
  -10.0937    3.0500   -7.3051 N   0  0  0  0  0  0  0  0  0  0  0  0
   -9.1989    2.0822   -7.9228 C   0  0  0  0  0  0  0  0  0  0  0  0
   -8.4032    2.7435   -9.0482 C   0  0  0  0  0  0  0  0  0  0  0  0
   -8.3400    5.2242   -9.5907 C   0  0  0  0  0  0  0  0  0  0  0  0
  -10.6863    3.4555   -8.0295 H   0  0  0  0  0  0  0  0  0  0  0  0
  2  1  1  0  0  0
  2  3  1  0  0  0
  3  4  1  0  0  0
  4  5  2  0  0  0
  5 22  1  0  0  0
 22 23  2  0  0  0
 22 24  1  0  0  0
 24 25  2  0  0  0
 24 26  1  0  0  0
 27 26  1  0  0  0
 27 28  1  0  0  0
 28 29  1  0  0  0
 29 30  1  0  0  0
 30 31  1  0  0  0
 31 32  1  0  0  0
 32 33  1  0  0  0
 33 34  1  0  0  0
 34 35  1  0  0  0
 35 36  1  0  0  0
 31 37  1  0  0  0
  5  6  1  0  0  0
  6  7  2  0  0  0
  7  8  1  0  0  0
  7  9  1  0  0  0
  9 10  2  0  0  0
 10 11  1  0  0  0
 11 19  1  0  0  0
 19 20  1  0  0  0
 11 12  1  0  0  0
 12 13  1  0  0  0
 13 14  1  0  0  0
 14 15  1  0  0  0
 15 16  1  0  0  0
 16 17  1  0  0  0
 12  2  1  0  0  0
 10  4  1  0  0  0
 17 12  1  0  0  0
 37 27  1  0  0  0
 36 31  1  0  0  0
  3 18  1  0  0  0
 34 38  1  0  0  0
 20 21  1  0  0  0
M  END
> <minimizedAffinity>
-8.52924

> <minimizedRMSD>
0.74936

$$$$
P13772


 40 45  0  0  0  0  0  0  0  0999 V2000
   -3.0336    6.2706  -16.7579 C   0  0  0  0  0  0  0  0  0  0  0  0
   -4.3678    5.5801  -17.0568 C   0  0  0  0  0  0  0  0  0  0  0  0
   -5.3365    5.9946  -16.0044 N   0  0  0  0  0  0  0  0  0  0  0  0
   -6.6494    5.5544  -16.1775 C   0  0  0  0  0  0  0  0  0  0  0  0
   -7.6260    5.4771  -15.1867 C   0  0  0  0  0  0  0  0  0  0  0  0
   -8.9155    4.9937  -15.4356 C   0  0  0  0  0  0  0  0  0  0  0  0
   -9.2961    4.5260  -16.6906 C   0  0  0  0  0  0  0  0  0  0  0  0
   -8.3042    4.5533  -17.6559 C   0  0  0  0  0  0  0  0  0  0  0  0
   -8.2786    4.0920  -18.9373 N   0  0  0  0  0  0  0  0  0  0  0  0
   -7.0452    4.3064  -19.4952 C   0  0  0  0  0  0  0  0  0  0  0  0
   -6.8603    3.8066  -20.6963 O   0  0  0  0  0  0  0  0  0  0  0  0
   -6.2761    5.0280  -18.6121 C   0  0  0  0  0  0  0  0  0  0  0  0
   -7.0448    5.0712  -17.4234 C   0  0  0  0  0  0  0  0  0  0  0  0
   -4.8991    5.6978  -18.5761 C   0  0  0  0  0  0  0  0  0  0  0  0
   -5.0858    7.1904  -18.9847 C   0  0  0  0  0  0  0  0  0  0  0  0
   -5.0497    7.3564  -20.5051 C   0  0  0  0  0  0  0  0  0  0  0  0
   -3.7892    6.9225  -21.1147 N   0  0  0  0  0  0  0  0  0  0  0  0
   -2.9984    6.0369  -20.2651 C   0  0  0  0  0  0  0  0  0  0  0  0
   -3.8776    5.0270  -19.5308 C   0  0  0  0  0  0  0  0  0  0  0  0
   -5.0672    6.5453  -15.2340 H   0  0  0  0  0  0  0  0  0  0  0  0
   -9.0376    3.6655  -19.3970 H   0  0  0  0  0  0  0  0  0  0  0  0
   -7.5509    3.3350  -21.1189 H   0  0  0  0  0  0  0  0  0  0  0  0
   -3.2313    7.7503  -21.3239 H   0  0  0  0  0  0  0  0  0  0  0  0
   -7.2920    5.8324  -13.8134 C   0  0  0  0  0  0  0  0  0  0  0  0
   -6.9655    6.9770  -13.5398 O   0  0  0  0  0  0  0  0  0  0  0  0
   -7.3734    4.7201  -12.7765 C   0  0  0  0  0  0  0  0  0  0  0  0
   -6.7377    3.6853  -12.9665 O   0  0  0  0  0  0  0  0  0  0  0  0
   -8.2735    4.8897  -11.5797 C   0  0  0  0  0  0  0  0  0  0  0  0
   -7.8473    5.8697  -10.4746 C   0  0  0  0  0  0  0  0  0  0  0  0
   -6.3183    6.0281  -10.3556 C   0  0  0  0  0  0  0  0  0  0  0  0
   -5.7346    5.4078   -9.0941 C   0  0  0  0  0  0  0  0  0  0  0  0
   -6.3880    4.0640   -8.8006 C   0  0  0  0  0  0  0  0  0  0  0  0
   -7.9100    4.1776   -8.4773 C   0  0  0  0  0  0  0  0  0  0  0  0
   -8.0761    4.2351   -6.9344 C   0  0  0  0  0  0  0  0  0  0  0  0
   -9.5116    4.0252   -6.4640 C   0  0  0  0  0  0  0  0  0  0  0  0
  -10.1683    2.8447   -6.9996 N   0  0  0  0  0  0  0  0  0  0  0  0
   -9.3604    2.0800   -7.9408 C   0  0  0  0  0  0  0  0  0  0  0  0
   -8.7109    2.9471   -9.0178 C   0  0  0  0  0  0  0  0  0  0  0  0
   -8.4596    5.4860   -9.1130 C   0  0  0  0  0  0  0  0  0  0  0  0
  -11.0187    3.1422   -7.4778 H   0  0  0  0  0  0  0  0  0  0  0  0
  2  1  1  0  0  0
  2  3  1  0  0  0
  3  4  1  0  0  0
  4  5  1  0  0  0
  5 24  1  0  0  0
 24 25  2  0  0  0
 24 26  1  0  0  0
 26 27  2  0  0  0
 26 28  1  0  0  0
 29 28  1  0  0  0
 29 30  1  0  0  0
 30 31  1  0  0  0
 31 32  1  0  0  0
 32 33  1  0  0  0
 33 34  1  0  0  0
 34 35  1  0  0  0
 35 36  1  0  0  0
 36 37  1  0  0  0
 37 38  1  0  0  0
 33 39  1  0  0  0
  5  6  2  0  0  0
  6  7  1  0  0  0
  7  8  2  0  0  0
  8  9  1  0  0  0
  9 10  1  0  0  0
 10 11  1  0  0  0
 10 12  2  0  0  0
 12 13  1  0  0  0
 12 14  1  0  0  0
 14 15  1  0  0  0
 15 16  1  0  0  0
 16 17  1  0  0  0
 17 18  1  0  0  0
 18 19  1  0  0  0
 14  2  1  0  0  0
 13  4  2  0  0  0
 19 14  1  0  0  0
 39 29  1  0  0  0
 13  8  1  0  0  0
 38 33  1  0  0  0
  3 20  1  0  0  0
 36 40  1  0  0  0
  9 21  1  0  0  0
 11 22  1  0  0  0
 17 23  1  0  0  0
M  END
> <minimizedAffinity>
-8.77209

> <minimizedRMSD>
0.55995

$$$$
P13776


 35 38  0  0  0  0  0  0  0  0999 V2000
   -6.9697    4.0182  -13.8892 N   0  0  0  0  0  0  0  0  0  0  0  0
   -7.9018    4.4840  -12.7384 C   0  0  0  0  0  0  0  0  0  0  0  0
   -8.8551    5.1584  -12.7627 O   0  0  0  0  0  0  0  0  0  0  0  0
   -6.2671    3.3835  -13.6196 H   0  0  0  0  0  0  0  0  0  0  0  0
   -2.2516    5.2295  -14.9195 C   0  0  0  0  0  0  0  0  0  0  0  0
   -3.4809    5.1153  -15.7698 C   0  0  0  0  0  0  0  0  0  0  0  0
   -3.4380    5.4644  -17.1107 C   0  0  0  0  0  0  0  0  0  0  0  0
   -4.6082    5.4025  -17.8686 C   0  0  0  0  0  0  0  0  0  0  0  0
   -5.8118    5.0100  -17.2396 C   0  0  0  0  0  0  0  0  0  0  0  0
   -7.0427    4.9382  -17.9274 C   0  0  0  0  0  0  0  0  0  0  0  0
   -8.2051    4.5895  -17.2648 C   0  0  0  0  0  0  0  0  0  0  0  0
   -9.8373    4.5454  -18.1718 Br  0  0  0  0  0  0  0  0  0  0  0  0
   -8.1792    4.3183  -15.9180 C   0  0  0  0  0  0  0  0  0  0  0  0
   -6.9660    4.3512  -15.2357 C   0  0  0  0  0  0  0  0  0  0  0  0
   -5.7657    4.6858  -15.8663 C   0  0  0  0  0  0  0  0  0  0  0  0
   -4.6159    4.7204  -15.1540 N   0  0  0  0  0  0  0  0  0  0  0  0
   -4.6162    5.7897  -19.3211 C   0  0  0  0  0  0  0  0  0  0  0  0
   -3.6611    5.0778  -20.1088 O   0  0  0  0  0  0  0  0  0  0  0  0
   -2.7669    5.2753  -19.7891 H   0  0  0  0  0  0  0  0  0  0  0  0
   -7.3902    3.8293  -11.4376 C   0  0  0  0  0  0  0  0  0  0  0  0
   -6.0782    4.5070  -11.0571 C   0  0  0  0  0  0  0  0  0  0  0  0
   -6.1102    5.8568  -10.6494 C   0  0  0  0  0  0  0  0  0  0  0  0
   -4.9390    6.5755  -10.4353 C   0  0  0  0  0  0  0  0  0  0  0  0
   -3.7085    5.9532  -10.6023 C   0  0  0  0  0  0  0  0  0  0  0  0
   -3.6371    4.6063  -10.9892 C   0  0  0  0  0  0  0  0  0  0  0  0
   -4.8253    3.8672  -11.1973 C   0  0  0  0  0  0  0  0  0  0  0  0
   -4.7140    2.4216  -11.6371 C   0  0  0  0  0  0  0  0  0  0  0  0
   -3.3049    1.8394  -11.4768 C   0  0  0  0  0  0  0  0  0  0  0  0
   -2.2811    2.7623  -11.9759 N   0  0  0  0  0  0  0  0  0  0  0  0
   -2.2759    3.9598  -11.1262 C   0  0  0  0  0  0  0  0  0  0  0  0
   -2.4946    3.0246  -12.9382 H   0  0  0  0  0  0  0  0  0  0  0  0
   -8.5278    3.9254  -10.4102 C   0  0  0  0  0  0  0  0  0  0  0  0
   -8.4056    3.0382   -9.2032 C   0  0  0  0  0  0  0  0  0  0  0  0
   -8.0688    3.7971   -8.1289 F   0  0  0  0  0  0  0  0  0  0  0  0
   -9.6279    2.5190   -8.9262 F   0  0  0  0  0  0  0  0  0  0  0  0
  5  6  1  0  0  0
  6  7  2  0  0  0
  7  8  1  0  0  0
  8 17  1  0  0  0
 17 18  1  0  0  0
  8  9  2  0  0  0
  9 10  1  0  0  0
 10 11  2  0  0  0
 11 12  1  0  0  0
 11 13  1  0  0  0
 13 14  2  0  0  0
 14  1  1  0  0  0
  1  2  1  0  0  0
  2  3  2  0  0  0
  2 20  1  0  0  0
 20 32  1  0  0  0
 32 33  1  0  0  0
 33 34  1  0  0  0
 33 35  1  0  0  0
 20 21  1  0  0  0
 21 22  2  0  0  0
 22 23  1  0  0  0
 23 24  2  0  0  0
 24 25  1  0  0  0
 25 26  2  0  0  0
 26 27  1  0  0  0
 27 28  1  0  0  0
 28 29  1  0  0  0
 29 30  1  0  0  0
 14 15  1  0  0  0
 15 16  2  0  0  0
 16  6  1  0  0  0
 15  9  1  0  0  0
 26 21  1  0  0  0
 30 25  1  0  0  0
 18 19  1  0  0  0
  1  4  1  0  0  0
 29 31  1  0  0  0
M  END
> <minimizedAffinity>
-7.32985

> <minimizedRMSD>
1.71614

$$$$
P13784


 31 34  0  0  0  0  0  0  0  0999 V2000
   -6.3709    4.2669  -13.5282 C   0  0  0  0  0  0  0  0  0  0  0  0
   -5.3368    4.6840  -13.0203 O   0  0  0  0  0  0  0  0  0  0  0  0
   -2.0523    5.4905  -15.6374 C   0  0  0  0  0  0  0  0  0  0  0  0
   -3.4237    5.3567  -16.2212 C   0  0  0  0  0  0  0  0  0  0  0  0
   -3.6737    5.6852  -17.5317 C   0  0  0  0  0  0  0  0  0  0  0  0
   -4.9826    5.5798  -18.0081 C   0  0  0  0  0  0  0  0  0  0  0  0
   -6.0276    5.1449  -17.1546 C   0  0  0  0  0  0  0  0  0  0  0  0
   -7.3713    4.9770  -17.5799 C   0  0  0  0  0  0  0  0  0  0  0  0
   -8.3704    4.5801  -16.6995 C   0  0  0  0  0  0  0  0  0  0  0  0
   -8.0438    4.3554  -15.3734 C   0  0  0  0  0  0  0  0  0  0  0  0
   -6.7133    4.4824  -14.9500 C   0  0  0  0  0  0  0  0  0  0  0  0
   -5.6865    4.8644  -15.8217 C   0  0  0  0  0  0  0  0  0  0  0  0
   -4.4052    4.9593  -15.3962 N   0  0  0  0  0  0  0  0  0  0  0  0
   -5.2358    5.9117  -19.4386 C   0  0  0  0  0  0  0  0  0  0  0  0
   -5.8531    4.7753  -20.0025 O   0  0  0  0  0  0  0  0  0  0  0  0
   -5.2701    4.0067  -19.9009 H   0  0  0  0  0  0  0  0  0  0  0  0
   -7.3368    3.5766  -12.6067 C   0  0  0  0  0  0  0  0  0  0  0  0
   -7.3001    2.3515  -12.5516 O   0  0  0  0  0  0  0  0  0  0  0  0
   -8.3161    4.4406  -11.8288 C   0  0  0  0  0  0  0  0  0  0  0  0
   -8.0616    5.9507  -11.8763 C   0  0  0  0  0  0  0  0  0  0  0  0
   -8.8854    6.7024  -12.9162 C   0  0  0  0  0  0  0  0  0  0  0  0
   -8.6810    8.1525  -12.5171 C   0  0  0  0  0  0  0  0  0  0  0  0
   -8.4740    8.1056  -10.9842 C   0  0  0  0  0  0  0  0  0  0  0  0
   -7.1496    8.7671  -10.5642 C   0  0  0  0  0  0  0  0  0  0  0  0
   -7.1248   10.2636  -10.9052 C   0  0  0  0  0  0  0  0  0  0  0  0
   -8.4507   10.8737  -11.0148 N   0  0  0  0  0  0  0  0  0  0  0  0
   -9.3856   10.3143  -10.0433 C   0  0  0  0  0  0  0  0  0  0  0  0
   -9.6236    8.8104  -10.2402 C   0  0  0  0  0  0  0  0  0  0  0  0
   -8.4957    6.6551  -10.6557 N   0  0  0  0  0  0  0  0  0  0  0  0
   -8.8131   10.7100  -11.9541 H   0  0  0  0  0  0  0  0  0  0  0  0
   -9.4386    6.3652  -10.3965 H   0  0  0  0  0  0  0  0  0  0  0  0
  3  4  1  0  0  0
  4  5  2  0  0  0
  5  6  1  0  0  0
  6 14  1  0  0  0
 14 15  1  0  0  0
  6  7  2  0  0  0
  7  8  1  0  0  0
  8  9  2  0  0  0
  9 10  1  0  0  0
 10 11  2  0  0  0
 11  1  1  0  0  0
  1  2  2  0  0  0
  1 17  1  0  0  0
 17 18  2  0  0  0
 17 19  1  0  0  0
 20 19  1  0  0  0
 20 21  1  0  0  0
 21 22  1  0  0  0
 22 23  1  0  0  0
 23 24  1  0  0  0
 24 25  1  0  0  0
 25 26  1  0  0  0
 26 27  1  0  0  0
 27 28  1  0  0  0
 23 29  1  0  0  0
 11 12  1  0  0  0
 12 13  2  0  0  0
 13  4  1  0  0  0
 12  7  1  0  0  0
 29 20  1  0  0  0
 28 23  1  0  0  0
 15 16  1  0  0  0
 26 30  1  0  0  0
 29 31  1  0  0  0
M  END
> <minimizedAffinity>
-6.37865

> <minimizedRMSD>
1.03144

$$$$
P13789


 29 32  0  0  0  0  0  0  0  0999 V2000
   -8.2165    4.5998  -14.3625 C   0  0  0  0  0  0  0  0  0  0  0  0
   -9.1892    5.2657  -14.0046 O   0  0  0  0  0  0  0  0  0  0  0  0
   -3.1782    5.5996  -14.8589 C   0  0  0  0  0  0  0  0  0  0  0  0
   -4.2752    5.3743  -15.8555 C   0  0  0  0  0  0  0  0  0  0  0  0
   -4.0083    5.4718  -17.2122 C   0  0  0  0  0  0  0  0  0  0  0  0
   -5.0428    5.2551  -18.1198 C   0  0  0  0  0  0  0  0  0  0  0  0
   -6.3327    4.9374  -17.6258 C   0  0  0  0  0  0  0  0  0  0  0  0
   -7.4187    4.6896  -18.4994 C   0  0  0  0  0  0  0  0  0  0  0  0
   -8.6879    4.4093  -18.0309 C   0  0  0  0  0  0  0  0  0  0  0  0
   -8.8872    4.3777  -16.6702 C   0  0  0  0  0  0  0  0  0  0  0  0
   -7.8266    4.5975  -15.7796 C   0  0  0  0  0  0  0  0  0  0  0  0
   -6.5294    4.8743  -16.2219 C   0  0  0  0  0  0  0  0  0  0  0  0
   -5.5090    5.1081  -15.3635 N   0  0  0  0  0  0  0  0  0  0  0  0
   -4.8194    5.3934  -19.6033 C   0  0  0  0  0  0  0  0  0  0  0  0
   -3.5383    4.9494  -20.0519 O   0  0  0  0  0  0  0  0  0  0  0  0
   -2.8464    5.4923  -19.6426 H   0  0  0  0  0  0  0  0  0  0  0  0
   -7.5391    3.7208  -13.3408 C   0  0  0  0  0  0  0  0  0  0  0  0
   -7.2291    2.5706  -13.6317 O   0  0  0  0  0  0  0  0  0  0  0  0
   -7.4322    4.2962  -11.9473 C   0  0  0  0  0  0  0  0  0  0  0  0
   -6.1586    5.0790  -11.7153 C   0  0  0  0  0  0  0  0  0  0  0  0
   -6.1456    6.4838  -11.8659 C   0  0  0  0  0  0  0  0  0  0  0  0
   -4.9694    7.2197  -11.7053 C   0  0  0  0  0  0  0  0  0  0  0  0
   -3.8134    6.5348  -11.3861 C   0  0  0  0  0  0  0  0  0  0  0  0
   -3.8142    5.1508  -11.2306 C   0  0  0  0  0  0  0  0  0  0  0  0
   -4.9712    4.4075  -11.3893 C   0  0  0  0  0  0  0  0  0  0  0  0
   -2.4413    4.7006  -10.8633 C   0  0  0  0  0  0  0  0  0  0  0  0
   -1.5546    5.8578  -11.1607 N   0  0  0  0  0  0  0  0  0  0  0  0
   -2.4395    7.0535  -11.1299 C   0  0  0  0  0  0  0  0  0  0  0  0
   -1.1284    5.7532  -12.0814 H   0  0  0  0  0  0  0  0  0  0  0  0
  3  4  1  0  0  0
  4  5  2  0  0  0
  5  6  1  0  0  0
  6 14  1  0  0  0
 14 15  1  0  0  0
  6  7  2  0  0  0
  7  8  1  0  0  0
  8  9  2  0  0  0
  9 10  1  0  0  0
 10 11  2  0  0  0
 11  1  1  0  0  0
  1  2  2  0  0  0
  1 17  1  0  0  0
 17 18  2  0  0  0
 17 19  1  0  0  0
 19 20  1  0  0  0
 20 21  2  0  0  0
 21 22  1  0  0  0
 22 23  2  0  0  0
 23 24  1  0  0  0
 24 25  2  0  0  0
 24 26  1  0  0  0
 26 27  1  0  0  0
 27 28  1  0  0  0
 11 12  1  0  0  0
 12 13  2  0  0  0
 13  4  1  0  0  0
 12  7  1  0  0  0
 25 20  1  0  0  0
 28 23  1  0  0  0
 15 16  1  0  0  0
 27 29  1  0  0  0
M  END
> <minimizedAffinity>
-6.34929

> <minimizedRMSD>
1.63820

$$$$
P13804


 34 37  0  0  0  0  0  0  0  0999 V2000
   -2.7081    5.1099  -15.4678 C   0  0  0  0  0  0  0  0  0  0  0  0
   -4.0059    5.0461  -16.2121 C   0  0  0  0  0  0  0  0  0  0  0  0
   -4.0754    5.3910  -17.5436 C   0  0  0  0  0  0  0  0  0  0  0  0
   -5.3176    5.3805  -18.1942 C   0  0  0  0  0  0  0  0  0  0  0  0
   -6.4728    4.9725  -17.4651 C   0  0  0  0  0  0  0  0  0  0  0  0
   -7.7574    4.8062  -18.0307 C   0  0  0  0  0  0  0  0  0  0  0  0
   -8.8651    4.4952  -17.2473 C   0  0  0  0  0  0  0  0  0  0  0  0
  -10.3881    4.3030  -18.0030 Cl  0  0  0  0  0  0  0  0  0  0  0  0
   -8.7472    4.4153  -15.8724 C   0  0  0  0  0  0  0  0  0  0  0  0
   -7.4793    4.5623  -15.3061 C   0  0  0  0  0  0  0  0  0  0  0  0
   -6.3243    4.7544  -16.0804 C   0  0  0  0  0  0  0  0  0  0  0  0
   -5.1061    4.7526  -15.5002 N   0  0  0  0  0  0  0  0  0  0  0  0
   -5.4193    6.0077  -19.5688 C   0  0  0  0  0  0  0  0  0  0  0  0
   -4.1411    6.3637  -20.1566 N   0  0  0  0  0  0  0  0  0  0  0  0
   -6.1546    7.2126  -19.4685 O   0  0  0  0  0  0  0  0  0  0  0  0
   -3.6847    7.0681  -19.5770 H   0  0  0  0  0  0  0  0  0  0  0  0
   -4.2904    6.7389  -21.0933 H   0  0  0  0  0  0  0  0  0  0  0  0
   -5.6801    7.8341  -18.8946 H   0  0  0  0  0  0  0  0  0  0  0  0
   -7.3416    4.6888  -13.8427 C   0  0  0  0  0  0  0  0  0  0  0  0
   -7.0951    5.7858  -13.3557 O   0  0  0  0  0  0  0  0  0  0  0  0
   -7.5510    3.4930  -12.9327 C   0  0  0  0  0  0  0  0  0  0  0  0
   -7.0359    2.4253  -13.2582 O   0  0  0  0  0  0  0  0  0  0  0  0
   -8.4014    3.6329  -11.6729 C   0  0  0  0  0  0  0  0  0  0  0  0
   -7.7745    4.2575  -10.4049 C   0  0  0  0  0  0  0  0  0  0  0  0
   -8.1910    5.7353  -10.2438 C   0  0  0  0  0  0  0  0  0  0  0  0
   -7.2618    6.6007   -9.3747 C   0  0  0  0  0  0  0  0  0  0  0  0
   -6.3255    5.8744   -8.4089 C   0  0  0  0  0  0  0  0  0  0  0  0
   -6.9939    5.0007   -7.3440 C   0  0  0  0  0  0  0  0  0  0  0  0
   -8.2114    4.2086   -7.8133 C   0  0  0  0  0  0  0  0  0  0  0  0
   -8.6129    3.1665   -6.8448 N   0  0  0  0  0  0  0  0  0  0  0  0
   -9.4397    2.2112   -7.6037 C   0  0  0  0  0  0  0  0  0  0  0  0
   -9.2603    2.5370   -9.0819 C   0  0  0  0  0  0  0  0  0  0  0  0
   -8.0224    3.4250   -9.1147 C   0  0  0  0  0  0  0  0  0  0  0  0
   -9.1534    3.5779   -6.0839 H   0  0  0  0  0  0  0  0  0  0  0  0
  1  2  1  0  0  0
  2  3  2  0  0  0
  3  4  1  0  0  0
  4 13  1  0  0  0
 13 14  1  0  0  0
 13 15  1  0  0  0
  4  5  2  0  0  0
  5  6  1  0  0  0
  6  7  2  0  0  0
  7  8  1  0  0  0
  7  9  1  0  0  0
  9 10  2  0  0  0
 10 19  1  0  0  0
 19 20  2  0  0  0
 19 21  1  0  0  0
 21 22  2  0  0  0
 21 23  1  0  0  0
 24 23  1  0  0  0
 24 25  1  0  0  0
 25 26  1  0  0  0
 26 27  1  0  0  0
 27 28  1  0  0  0
 29 28  1  0  0  0
 29 30  1  0  0  0
 30 31  1  0  0  0
 31 32  1  0  0  0
 33 32  1  0  0  0
 10 11  1  0  0  0
 11 12  2  0  0  0
 12  2  1  0  0  0
 11  5  1  0  0  0
 33 24  1  0  0  0
 33 29  1  0  0  0
 14 16  1  0  0  0
 14 17  1  0  0  0
 15 18  1  0  0  0
 30 34  1  0  0  0
M  END
> <minimizedAffinity>
-8.51225

> <minimizedRMSD>
1.58694

$$$$
P13819


 35 39  0  0  0  0  0  0  0  0999 V2000
   -3.3159    4.6682  -14.6168 C   0  0  0  0  0  0  0  0  0  0  0  0
   -4.2198    5.4041  -15.6051 C   0  0  0  0  0  0  0  0  0  0  0  0
   -3.8784    5.0174  -17.0378 C   0  0  0  0  0  0  0  0  0  0  0  0
   -4.9071    5.5740  -18.0560 C   0  0  0  0  0  0  0  0  0  0  0  0
   -4.4387    5.1852  -19.4667 C   0  0  0  0  0  0  0  0  0  0  0  0
   -3.0891    5.8261  -19.8482 C   0  0  0  0  0  0  0  0  0  0  0  0
   -2.8383    7.1178  -19.1910 N   0  0  0  0  0  0  0  0  0  0  0  0
   -1.8395    7.8925  -19.9212 C   0  0  0  0  0  0  0  0  0  0  0  0
   -4.0823    7.8571  -19.0214 C   0  0  0  0  0  0  0  0  0  0  0  0
   -5.0173    7.1357  -18.0403 C   0  0  0  0  0  0  0  0  0  0  0  0
   -6.2747    5.0169  -17.6374 C   0  0  0  0  0  0  0  0  0  0  0  0
   -7.2766    4.6719  -18.5638 C   0  0  0  0  0  0  0  0  0  0  0  0
   -8.5755    4.3478  -18.1599 C   0  0  0  0  0  0  0  0  0  0  0  0
   -8.9067    4.3752  -16.8138 C   0  0  0  0  0  0  0  0  0  0  0  0
   -7.9105    4.6825  -15.8882 C   0  0  0  0  0  0  0  0  0  0  0  0
   -6.5834    4.9771  -16.2680 C   0  0  0  0  0  0  0  0  0  0  0  0
   -5.5954    5.0896  -15.2823 N   0  0  0  0  0  0  0  0  0  0  0  0
   -5.8442    4.9505  -14.3399 H   0  0  0  0  0  0  0  0  0  0  0  0
   -8.2596    4.8889  -14.4862 C   0  0  0  0  0  0  0  0  0  0  0  0
   -8.8510    5.9187  -14.1682 O   0  0  0  0  0  0  0  0  0  0  0  0
   -7.9034    3.8871  -13.4228 C   0  0  0  0  0  0  0  0  0  0  0  0
   -7.1573    2.9525  -13.6820 O   0  0  0  0  0  0  0  0  0  0  0  0
   -8.4729    4.1736  -12.0530 C   0  0  0  0  0  0  0  0  0  0  0  0
   -7.6336    5.1251  -11.1787 C   0  0  0  0  0  0  0  0  0  0  0  0
   -6.1461    4.7634  -11.1207 C   0  0  0  0  0  0  0  0  0  0  0  0
   -5.9612    3.4336  -10.4330 C   0  0  0  0  0  0  0  0  0  0  0  0
   -6.4919    3.4903   -9.0128 C   0  0  0  0  0  0  0  0  0  0  0  0
   -7.9131    4.0841   -8.7825 C   0  0  0  0  0  0  0  0  0  0  0  0
   -8.9867    2.9860   -8.9933 C   0  0  0  0  0  0  0  0  0  0  0  0
   -9.2656    2.1705   -7.7378 C   0  0  0  0  0  0  0  0  0  0  0  0
   -9.7474    2.9646   -6.6055 N   0  0  0  0  0  0  0  0  0  0  0  0
   -9.3247    4.3545   -6.6261 C   0  0  0  0  0  0  0  0  0  0  0  0
   -7.9854    4.5906   -7.3043 C   0  0  0  0  0  0  0  0  0  0  0  0
   -8.1683    5.2792   -9.7426 C   0  0  0  0  0  0  0  0  0  0  0  0
   -9.4010    2.5382   -5.7461 H   0  0  0  0  0  0  0  0  0  0  0  0
  2  1  1  0  0  0
  2  3  1  0  0  0
  3  4  1  0  0  0
  4  5  1  0  0  0
  5  6  1  0  0  0
  6  7  1  0  0  0
  7  8  1  0  0  0
  7  9  1  0  0  0
  9 10  1  0  0  0
  4 11  1  0  0  0
 11 12  2  0  0  0
 12 13  1  0  0  0
 13 14  2  0  0  0
 14 15  1  0  0  0
 15 19  1  0  0  0
 19 20  2  0  0  0
 19 21  1  0  0  0
 21 22  2  0  0  0
 21 23  1  0  0  0
 24 23  1  0  0  0
 24 25  1  0  0  0
 25 26  1  0  0  0
 26 27  1  0  0  0
 27 28  1  0  0  0
 28 29  1  0  0  0
 29 30  1  0  0  0
 30 31  1  0  0  0
 31 32  1  0  0  0
 32 33  1  0  0  0
 28 34  1  0  0  0
 15 16  2  0  0  0
 16 17  1  0  0  0
 17  2  1  0  0  0
 10  4  1  0  0  0
 16 11  1  0  0  0
 34 24  1  0  0  0
 33 28  1  0  0  0
 31 35  1  0  0  0
 17 18  1  0  0  0
M  END
> <minimizedAffinity>
-8.74315

> <minimizedRMSD>
0.79855

$$$$
P13828


 32 35  0  0  0  0  0  0  0  0999 V2000
   -4.8330    5.6229  -18.1715 C   0  0  0  0  0  0  0  0  0  0  0  0
   -3.5477    5.6720  -17.6153 C   0  0  0  0  0  0  0  0  0  0  0  0
   -3.3678    5.2832  -16.3103 C   0  0  0  0  0  0  0  0  0  0  0  0
   -2.0262    5.3701  -15.6522 C   0  0  0  0  0  0  0  0  0  0  0  0
   -4.3954    4.8760  -15.5524 N   0  0  0  0  0  0  0  0  0  0  0  0
   -5.6542    4.8294  -16.0287 C   0  0  0  0  0  0  0  0  0  0  0  0
   -6.7151    4.4258  -15.1964 C   0  0  0  0  0  0  0  0  0  0  0  0
   -8.0206    4.3104  -15.6928 C   0  0  0  0  0  0  0  0  0  0  0  0
   -8.2685    4.5923  -17.0276 C   0  0  0  0  0  0  0  0  0  0  0  0
   -9.8472    4.4049  -17.6731 Cl  0  0  0  0  0  0  0  0  0  0  0  0
   -7.2437    5.0393  -17.8543 C   0  0  0  0  0  0  0  0  0  0  0  0
   -5.9227    5.1721  -17.3757 C   0  0  0  0  0  0  0  0  0  0  0  0
   -6.4189    4.0992  -13.7676 C   0  0  0  0  0  0  0  0  0  0  0  0
   -5.5541    4.6534  -13.0996 O   0  0  0  0  0  0  0  0  0  0  0  0
   -7.1843    3.0127  -13.0620 C   0  0  0  0  0  0  0  0  0  0  0  0
   -6.7508    1.8664  -13.1279 O   0  0  0  0  0  0  0  0  0  0  0  0
   -8.4775    3.4002  -12.3869 C   0  0  0  0  0  0  0  0  0  0  0  0
   -8.4006    4.5901  -11.4498 C   0  0  0  0  0  0  0  0  0  0  0  0
   -8.1994    5.8692  -12.0017 C   0  0  0  0  0  0  0  0  0  0  0  0
   -8.0449    6.9866  -11.1846 C   0  0  0  0  0  0  0  0  0  0  0  0
   -8.0968    6.8456   -9.8017 C   0  0  0  0  0  0  0  0  0  0  0  0
   -8.2956    5.5833   -9.2202 C   0  0  0  0  0  0  0  0  0  0  0  0
   -8.4609    4.4484  -10.0444 C   0  0  0  0  0  0  0  0  0  0  0  0
   -8.5953    3.0885   -9.3893 C   0  0  0  0  0  0  0  0  0  0  0  0
   -8.9630    3.1539   -7.9013 C   0  0  0  0  0  0  0  0  0  0  0  0
   -8.1271    4.1290   -7.1886 N   0  0  0  0  0  0  0  0  0  0  0  0
   -8.3733    4.0759   -5.7516 C   0  0  0  0  0  0  0  0  0  0  0  0
   -8.3853    5.4785   -7.7106 C   0  0  0  0  0  0  0  0  0  0  0  0
   -4.9578    6.1251  -19.5924 C   0  0  0  0  0  0  0  0  0  0  0  0
   -5.3671    8.0221  -20.9938 C   0  0  0  0  0  0  0  0  0  0  0  0
   -5.3819    7.5330  -19.6195 N   0  0  0  0  0  0  0  0  0  0  0  0
   -6.3262    7.6104  -19.2417 H   0  0  0  0  0  0  0  0  0  0  0  0
 30 31  1  0  0  0
 31 29  1  0  0  0
 29  1  1  0  0  0
  1  2  2  0  0  0
  2  3  1  0  0  0
  3  4  1  0  0  0
  3  5  2  0  0  0
  5  6  1  0  0  0
  6  7  2  0  0  0
  7 13  1  0  0  0
 13 14  2  0  0  0
 13 15  1  0  0  0
 15 16  2  0  0  0
 15 17  1  0  0  0
 17 18  1  0  0  0
 18 19  2  0  0  0
 19 20  1  0  0  0
 20 21  2  0  0  0
 21 22  1  0  0  0
 22 23  2  0  0  0
 23 24  1  0  0  0
 24 25  1  0  0  0
 25 26  1  0  0  0
 26 27  1  0  0  0
 26 28  1  0  0  0
  7  8  1  0  0  0
  8  9  2  0  0  0
  9 10  1  0  0  0
  9 11  1  0  0  0
 11 12  2  0  0  0
 12  1  1  0  0  0
 12  6  1  0  0  0
 23 18  1  0  0  0
 28 22  1  0  0  0
 31 32  1  0  0  0
M  END
> <minimizedAffinity>
-7.41272

> <minimizedRMSD>
1.81971

$$$$
P13835


 39 43  0  0  0  0  0  0  0  0999 V2000
   -2.6974    5.3465  -15.4412 C   0  0  0  0  0  0  0  0  0  0  0  0
   -3.9116    5.2569  -16.3143 C   0  0  0  0  0  0  0  0  0  0  0  0
   -5.0441    5.0292  -15.6100 N   0  0  0  0  0  0  0  0  0  0  0  0
   -6.2326    4.9148  -16.2265 C   0  0  0  0  0  0  0  0  0  0  0  0
   -7.4070    4.7730  -15.4848 C   0  0  0  0  0  0  0  0  0  0  0  0
   -8.6640    4.5940  -16.0621 C   0  0  0  0  0  0  0  0  0  0  0  0
   -8.7522    4.5668  -17.4367 C   0  0  0  0  0  0  0  0  0  0  0  0
  -10.2703    4.4259  -18.2088 Cl  0  0  0  0  0  0  0  0  0  0  0  0
   -7.6124    4.7447  -18.2091 C   0  0  0  0  0  0  0  0  0  0  0  0
   -6.3354    4.9342  -17.6226 C   0  0  0  0  0  0  0  0  0  0  0  0
   -5.1434    5.1736  -18.3653 C   0  0  0  0  0  0  0  0  0  0  0  0
   -3.9074    5.4142  -17.7019 C   0  0  0  0  0  0  0  0  0  0  0  0
   -2.6692    5.8094  -18.5034 C   0  0  0  0  0  0  0  0  0  0  0  0
   -1.6944    4.6335  -18.6969 C   0  0  0  0  0  0  0  0  0  0  0  0
   -0.2508    5.1038  -18.8867 C   0  0  0  0  0  0  0  0  0  0  0  0
   -0.2078    6.2888  -19.7355 N   0  0  0  0  0  0  0  0  0  0  0  0
   -0.8562    7.4466  -19.1110 C   0  0  0  0  0  0  0  0  0  0  0  0
   -1.9155    7.0735  -18.0633 C   0  0  0  0  0  0  0  0  0  0  0  0
   -0.6838    6.0806  -20.6133 H   0  0  0  0  0  0  0  0  0  0  0  0
   -5.2377    5.2202  -19.8669 C   0  0  0  0  0  0  0  0  0  0  0  0
   -5.5425    6.5511  -20.2552 O   0  0  0  0  0  0  0  0  0  0  0  0
   -6.3841    6.8200  -19.8547 H   0  0  0  0  0  0  0  0  0  0  0  0
   -7.3310    4.9640  -14.0367 C   0  0  0  0  0  0  0  0  0  0  0  0
   -7.2859    6.0965  -13.5772 O   0  0  0  0  0  0  0  0  0  0  0  0
   -7.3636    3.7477  -13.1354 C   0  0  0  0  0  0  0  0  0  0  0  0
   -6.9533    2.6774  -13.5776 O   0  0  0  0  0  0  0  0  0  0  0  0
   -7.9863    3.8701  -11.7594 C   0  0  0  0  0  0  0  0  0  0  0  0
   -7.5491    5.0238  -10.8394 C   0  0  0  0  0  0  0  0  0  0  0  0
   -6.0598    4.9231  -10.4641 C   0  0  0  0  0  0  0  0  0  0  0  0
   -5.8279    4.6198   -8.9892 C   0  0  0  0  0  0  0  0  0  0  0  0
   -6.8123    3.5753   -8.4675 C   0  0  0  0  0  0  0  0  0  0  0  0
   -8.2971    4.0171   -8.5393 C   0  0  0  0  0  0  0  0  0  0  0  0
   -9.2466    2.8425   -8.9124 C   0  0  0  0  0  0  0  0  0  0  0  0
   -9.5592    1.8653   -7.7868 C   0  0  0  0  0  0  0  0  0  0  0  0
  -10.0014    2.5370   -6.5637 N   0  0  0  0  0  0  0  0  0  0  0  0
   -8.9938    3.4838   -6.1067 C   0  0  0  0  0  0  0  0  0  0  0  0
   -8.7416    4.5662   -7.1552 C   0  0  0  0  0  0  0  0  0  0  0  0
   -8.4237    5.1567   -9.5814 C   0  0  0  0  0  0  0  0  0  0  0  0
  -10.1603    1.8395   -5.8367 H   0  0  0  0  0  0  0  0  0  0  0  0
  1  2  1  0  0  0
  2  3  2  0  0  0
  3  4  1  0  0  0
  4  5  2  0  0  0
  5 23  1  0  0  0
 23 24  2  0  0  0
 23 25  1  0  0  0
 25 26  2  0  0  0
 25 27  1  0  0  0
 28 27  1  0  0  0
 28 29  1  0  0  0
 29 30  1  0  0  0
 30 31  1  0  0  0
 31 32  1  0  0  0
 32 33  1  0  0  0
 33 34  1  0  0  0
 34 35  1  0  0  0
 35 36  1  0  0  0
 36 37  1  0  0  0
 32 38  1  0  0  0
  5  6  1  0  0  0
  6  7  2  0  0  0
  7  8  1  0  0  0
  7  9  1  0  0  0
  9 10  2  0  0  0
 10 11  1  0  0  0
 11 20  1  0  0  0
 20 21  1  0  0  0
 11 12  2  0  0  0
 12 13  1  0  0  0
 13 14  1  0  0  0
 14 15  1  0  0  0
 15 16  1  0  0  0
 16 17  1  0  0  0
 17 18  1  0  0  0
 12  2  1  0  0  0
 18 13  1  0  0  0
 10  4  1  0  0  0
 38 28  1  0  0  0
 37 32  1  0  0  0
 35 39  1  0  0  0
 21 22  1  0  0  0
 16 19  1  0  0  0
M  END
> <minimizedAffinity>
-8.29643

> <minimizedRMSD>
0.37603

$$$$
P13836


 37 41  0  0  0  0  0  0  0  0999 V2000
   -8.6214    4.4626  -17.4088 C   0  0  0  0  0  0  0  0  0  0  0  0
   -8.7072    4.6065  -16.0380 C   0  0  0  0  0  0  0  0  0  0  0  0
   -7.5437    4.9382  -15.3487 C   0  0  0  0  0  0  0  0  0  0  0  0
   -6.3032    5.0932  -15.9786 C   0  0  0  0  0  0  0  0  0  0  0  0
   -5.2050    5.3378  -15.2506 N   0  0  0  0  0  0  0  0  0  0  0  0
   -4.0054    5.5648  -15.8369 C   0  0  0  0  0  0  0  0  0  0  0  0
   -3.8429    5.5821  -17.2237 C   0  0  0  0  0  0  0  0  0  0  0  0
   -4.9783    5.2309  -18.0045 C   0  0  0  0  0  0  0  0  0  0  0  0
   -6.2372    4.9870  -17.3758 C   0  0  0  0  0  0  0  0  0  0  0  0
   -7.4212    4.6635  -18.0783 C   0  0  0  0  0  0  0  0  0  0  0  0
   -2.5330    5.9328  -17.9052 C   0  0  0  0  0  0  0  0  0  0  0  0
   -1.5186    6.7906  -17.1514 C   0  0  0  0  0  0  0  0  0  0  0  0
   -0.7283    6.0295  -16.0969 C   0  0  0  0  0  0  0  0  0  0  0  0
   -1.5819    5.1843  -15.1629 C   0  0  0  0  0  0  0  0  0  0  0  0
   -2.9169    5.8303  -14.8248 C   0  0  0  0  0  0  0  0  0  0  0  0
   -4.8992    5.1497  -19.5102 C   0  0  0  0  0  0  0  0  0  0  0  0
   -5.3769    6.3591  -20.0588 O   0  0  0  0  0  0  0  0  0  0  0  0
   -6.2961    6.4987  -19.7823 H   0  0  0  0  0  0  0  0  0  0  0  0
  -10.8430    4.6041  -17.9051 O   0  0  0  0  0  0  0  0  0  0  0  0
   -9.7843    4.0585  -18.1797 C   0  0  0  0  0  0  0  0  0  0  0  0
   -7.6477    5.2661  -13.9218 C   0  0  0  0  0  0  0  0  0  0  0  0
   -7.8272    6.4320  -13.5857 O   0  0  0  0  0  0  0  0  0  0  0  0
   -7.6547    4.1732  -12.8713 C   0  0  0  0  0  0  0  0  0  0  0  0
   -8.0492    4.4505  -11.7454 O   0  0  0  0  0  0  0  0  0  0  0  0
   -7.1228    2.8247  -13.2703 C   0  0  0  0  0  0  0  0  0  0  0  0
   -5.8986    2.3555  -12.4751 C   0  0  0  0  0  0  0  0  0  0  0  0
   -6.2263    2.1662  -10.9853 C   0  0  0  0  0  0  0  0  0  0  0  0
   -4.9859    2.1523  -10.0923 C   0  0  0  0  0  0  0  0  0  0  0  0
   -3.7555    1.6563  -10.8415 C   0  0  0  0  0  0  0  0  0  0  0  0
   -3.3752    2.5852  -12.0355 C   0  0  0  0  0  0  0  0  0  0  0  0
   -2.6247    1.7480  -13.1196 C   0  0  0  0  0  0  0  0  0  0  0  0
   -1.1096    1.9826  -13.1503 C   0  0  0  0  0  0  0  0  0  0  0  0
   -0.5560    2.0756  -11.8103 N   0  0  0  0  0  0  0  0  0  0  0  0
   -1.0666    3.2391  -11.0860 C   0  0  0  0  0  0  0  0  0  0  0  0
   -2.4405    3.7272  -11.5625 C   0  0  0  0  0  0  0  0  0  0  0  0
   -4.6571    3.2381  -12.6428 C   0  0  0  0  0  0  0  0  0  0  0  0
    0.4591    2.1491  -11.8778 H   0  0  0  0  0  0  0  0  0  0  0  0
 19 20  2  0  0  0
 20  1  1  0  0  0
  1  2  2  0  0  0
  2  3  1  0  0  0
  3 21  1  0  0  0
 21 22  2  0  0  0
 21 23  1  0  0  0
 23 24  2  0  0  0
 23 25  1  0  0  0
 26 25  1  0  0  0
 26 27  1  0  0  0
 27 28  1  0  0  0
 28 29  1  0  0  0
 29 30  1  0  0  0
 30 31  1  0  0  0
 31 32  1  0  0  0
 32 33  1  0  0  0
 33 34  1  0  0  0
 34 35  1  0  0  0
 30 36  1  0  0  0
  3  4  2  0  0  0
  4  5  1  0  0  0
  5  6  2  0  0  0
  6  7  1  0  0  0
  7  8  2  0  0  0
  8 16  1  0  0  0
 16 17  1  0  0  0
  8  9  1  0  0  0
  9 10  2  0  0  0
  7 11  1  0  0  0
 11 12  1  0  0  0
 12 13  1  0  0  0
 13 14  1  0  0  0
 14 15  1  0  0  0
 10  1  1  0  0  0
 36 26  1  0  0  0
  9  4  1  0  0  0
 35 30  1  0  0  0
 15  6  1  0  0  0
 33 37  1  0  0  0
 17 18  1  0  0  0
M  END
> <minimizedAffinity>
-8.42963

> <minimizedRMSD>
0.85658

$$$$
P14502


 31 30  0  0  0  0  0  0  0  0999 V2000
   -7.4465    4.6879  -15.5070 C   0  0  0  0  0  0  0  0  0  0  0  0
   -6.1568    5.3940  -14.9873 C   0  0  0  0  0  0  0  0  0  0  0  0
   -5.0202    4.5117  -14.6660 N   0  0  0  0  0  0  0  0  0  0  0  0
   -5.2774    3.8920  -13.8977 H   0  0  0  0  0  0  0  0  0  0  0  0
   -4.2172    5.0778  -14.3919 H   0  0  0  0  0  0  0  0  0  0  0  0
   -8.7065    5.3672  -15.0845 N   0  0  0  0  0  0  0  0  0  0  0  0
   -8.5077    6.3553  -14.9282 H   0  0  0  0  0  0  0  0  0  0  0  0
   -9.2713    4.8008  -13.8517 N   0  0  0  0  0  0  0  0  0  0  0  0
  -10.1742    5.2388  -13.6689 H   0  0  0  0  0  0  0  0  0  0  0  0
   -8.3942    5.0280  -12.7088 C   0  0  0  0  0  0  0  0  0  0  0  0
   -8.7471    6.3551  -12.2319 N   0  0  0  0  0  0  0  0  0  0  0  0
   -9.7319    6.3703  -11.9667 H   0  0  0  0  0  0  0  0  0  0  0  0
   -8.5838    7.0371  -12.9725 H   0  0  0  0  0  0  0  0  0  0  0  0
   -8.4917    3.9411  -11.6009 C   0  0  0  0  0  0  0  0  0  0  0  0
   -6.8156    2.2910  -12.3576 C   0  0  0  0  0  0  0  0  0  0  0  0
   -8.1723    2.5474  -11.9278 N   0  0  0  0  0  0  0  0  0  0  0  0
   -8.3477    1.9838  -11.0959 H   0  0  0  0  0  0  0  0  0  0  0  0
   -7.4361    4.6574  -17.0666 C   0  0  0  0  0  0  0  0  0  0  0  0
   -6.0680    4.5573  -17.5967 N   0  0  0  0  0  0  0  0  0  0  0  0
   -5.8698    3.5708  -17.7640 H   0  0  0  0  0  0  0  0  0  0  0  0
   -5.8125    5.2664  -18.8105 C   0  0  0  0  0  0  0  0  0  0  0  0
   -4.4418    5.0838  -19.0620 O   0  0  0  0  0  0  0  0  0  0  0  0
   -6.4977    4.5917  -19.8179 O   0  0  0  0  0  0  0  0  0  0  0  0
   -3.8056    5.4651  -18.4894 H   0  0  0  0  0  0  0  0  0  0  0  0
   -7.4347    4.5927  -19.8290 H   0  0  0  0  0  0  0  0  0  0  0  0
   -6.1745    6.7594  -18.8054 C   0  0  0  0  0  0  0  0  0  0  0  0
   -5.2919    7.6102  -19.7322 C   0  0  0  0  0  0  0  0  0  0  0  0
   -5.7186    9.0793  -19.7383 C   0  0  0  0  0  0  0  0  0  0  0  0
   -5.3929    7.1002  -21.1162 N   0  0  0  0  0  0  0  0  0  0  0  0
   -6.3580    7.1771  -21.4373 H   0  0  0  0  0  0  0  0  0  0  0  0
   -5.1035    6.1225  -21.1402 H   0  0  0  0  0  0  0  0  0  0  0  0
 15 16  1  0  0  0
 16 14  1  0  0  0
 14 10  1  0  0  0
 10 11  1  0  0  0
 10  8  1  0  0  0
  8  6  1  0  0  0
  6  1  1  0  0  0
  1  2  1  0  0  0
  2  3  1  0  0  0
  1 18  1  0  0  0
 18 19  1  0  0  0
 19 21  1  0  0  0
 21 22  1  0  0  0
 21 23  1  0  0  0
 21 26  1  0  0  0
 26 27  1  0  0  0
 27 28  1  0  0  0
 27 29  1  0  0  0
 16 17  1  0  0  0
 11 12  1  0  0  0
 11 13  1  0  0  0
  8  9  1  0  0  0
  6  7  1  0  0  0
  3  4  1  0  0  0
  3  5  1  0  0  0
 19 20  1  0  0  0
 22 24  1  0  0  0
 23 25  1  0  0  0
 29 30  1  0  0  0
 29 31  1  0  0  0
M  END
> <minimizedAffinity>
-4.98116

> <minimizedRMSD>
1.60384

$$$$
P15434


 40 43  0  0  0  0  0  0  0  0999 V2000
   -5.3255    4.9162  -18.2748 C   0  0  0  0  0  0  0  0  0  0  0  0
   -4.4418    4.9321  -17.2741 N   0  0  0  0  0  0  0  0  0  0  0  0
   -5.2009    4.6436  -16.2050 N   0  0  0  0  0  0  0  0  0  0  0  0
   -6.5381    4.5384  -16.4757 C   0  0  0  0  0  0  0  0  0  0  0  0
   -7.6278    4.2831  -15.6458 C   0  0  0  0  0  0  0  0  0  0  0  0
   -8.8838    4.1710  -16.2541 C   0  0  0  0  0  0  0  0  0  0  0  0
   -9.0229    4.3232  -17.6367 C   0  0  0  0  0  0  0  0  0  0  0  0
  -10.5888    4.2879  -18.3624 Cl  0  0  0  0  0  0  0  0  0  0  0  0
   -7.9112    4.5534  -18.4528 C   0  0  0  0  0  0  0  0  0  0  0  0
   -6.6470    4.6651  -17.8553 C   0  0  0  0  0  0  0  0  0  0  0  0
   -4.8272    4.5183  -15.3029 H   0  0  0  0  0  0  0  0  0  0  0  0
   -7.4511    4.2027  -14.2715 N   0  0  0  0  0  0  0  0  0  0  0  0
   -7.2822    2.9922  -13.3650 C   0  0  0  0  0  0  0  0  0  0  0  0
   -7.1861    1.8672  -13.6238 O   0  0  0  0  0  0  0  0  0  0  0  0
   -7.4320    5.0706  -13.8073 H   0  0  0  0  0  0  0  0  0  0  0  0
   -7.3178    3.5016  -12.1072 O   0  0  0  0  0  0  0  0  0  0  0  0
   -8.2757    2.8848  -11.2324 C   0  0  0  0  0  0  0  0  0  0  0  0
   -8.3351    3.6281   -9.9148 C   0  0  0  0  0  0  0  0  0  0  0  0
   -8.7303    2.9294   -8.7651 C   0  0  0  0  0  0  0  0  0  0  0  0
   -8.7472    3.5570   -7.5175 C   0  0  0  0  0  0  0  0  0  0  0  0
   -8.3859    4.8968   -7.4044 C   0  0  0  0  0  0  0  0  0  0  0  0
   -7.9957    5.6054   -8.5376 C   0  0  0  0  0  0  0  0  0  0  0  0
   -7.9601    4.9728   -9.7828 C   0  0  0  0  0  0  0  0  0  0  0  0
   -4.9230    5.3019  -19.4975 O   0  0  0  0  0  0  0  0  0  0  0  0
   -3.6593    4.7548  -19.8928 C   0  0  0  0  0  0  0  0  0  0  0  0
   -3.0611    6.5863  -21.3761 C   0  0  0  0  0  0  0  0  0  0  0  0
   -2.6321    5.7566  -20.2539 N   0  0  0  0  0  0  0  0  0  0  0  0
   -2.3639    6.6007  -19.1432 N   0  0  0  0  0  0  0  0  0  0  0  0
   -2.9557    7.3556  -18.9217 H   0  0  0  0  0  0  0  0  0  0  0  0
   -1.2123    6.3163  -18.3647 C   0  0  0  0  0  0  0  0  0  0  0  0
   -1.3172    6.3130  -16.9680 C   0  0  0  0  0  0  0  0  0  0  0  0
   -0.1939    6.1091  -16.1634 C   0  0  0  0  0  0  0  0  0  0  0  0
    1.0606    5.9371  -16.7458 C   0  0  0  0  0  0  0  0  0  0  0  0
    1.2020    5.9755  -18.1374 C   0  0  0  0  0  0  0  0  0  0  0  0
    0.0611    6.1712  -18.9331 C   0  0  0  0  0  0  0  0  0  0  0  0
    2.5614    5.8443  -18.7813 C   0  0  0  0  0  0  0  0  0  0  0  0
    2.7479    6.7286  -20.0242 C   0  0  0  0  0  0  0  0  0  0  0  0
    3.1135    8.1110  -19.7076 N   0  0  0  0  0  0  0  0  0  0  0  0
    2.3658    8.5451  -19.1664 H   0  0  0  0  0  0  0  0  0  0  0  0
    3.2536    8.6324  -20.5730 H   0  0  0  0  0  0  0  0  0  0  0  0
 26 27  1  0  0  0
 27 25  1  0  0  0
 25 24  1  0  0  0
 24  1  1  0  0  0
  1  2  2  0  0  0
  2  3  1  0  0  0
  3  4  1  0  0  0
  4  5  2  0  0  0
  5 12  1  0  0  0
 12 13  1  0  0  0
 13 14  2  0  0  0
 13 16  1  0  0  0
 16 17  1  0  0  0
 17 18  1  0  0  0
 18 19  2  0  0  0
 19 20  1  0  0  0
 20 21  2  0  0  0
 21 22  1  0  0  0
 22 23  2  0  0  0
  5  6  1  0  0  0
  6  7  2  0  0  0
  7  8  1  0  0  0
  7  9  1  0  0  0
  9 10  2  0  0  0
 27 28  1  0  0  0
 28 30  1  0  0  0
 30 31  2  0  0  0
 31 32  1  0  0  0
 32 33  2  0  0  0
 33 34  1  0  0  0
 34 36  1  0  0  0
 36 37  1  0  0  0
 37 38  1  0  0  0
 34 35  2  0  0  0
 10  1  1  0  0  0
 35 30  1  0  0  0
 10  4  1  0  0  0
 23 18  1  0  0  0
  3 11  1  0  0  0
 12 15  1  0  0  0
 28 29  1  0  0  0
 38 39  1  0  0  0
 38 40  1  0  0  0
M  END
> <minimizedAffinity>
-7.29715

> <minimizedRMSD>
1.08211

$$$$
P15724


 36 40  0  0  0  0  0  0  0  0999 V2000
   -7.1189    5.1487  -14.7467 C   0  0  0  0  0  0  0  0  0  0  0  0
   -8.2242    4.7324  -15.4870 C   0  0  0  0  0  0  0  0  0  0  0  0
   -8.0873    4.5792  -16.8653 C   0  0  0  0  0  0  0  0  0  0  0  0
   -9.3989    4.1362  -17.8520 Cl  0  0  0  0  0  0  0  0  0  0  0  0
   -6.8664    4.8244  -17.5185 C   0  0  0  0  0  0  0  0  0  0  0  0
   -6.5119    4.7438  -18.8388 N   0  0  0  0  0  0  0  0  0  0  0  0
   -5.2626    5.1290  -18.8967 C   0  0  0  0  0  0  0  0  0  0  0  0
   -4.7409    5.4234  -17.6576 N   0  0  0  0  0  0  0  0  0  0  0  0
   -3.4342    5.8451  -17.3890 C   0  0  0  0  0  0  0  0  0  0  0  0
   -3.0456    6.0774  -16.2557 O   0  0  0  0  0  0  0  0  0  0  0  0
   -5.7775    5.2364  -16.7489 C   0  0  0  0  0  0  0  0  0  0  0  0
   -5.8769    5.4070  -15.3585 C   0  0  0  0  0  0  0  0  0  0  0  0
   -7.8944    4.3464  -12.4897 N   0  0  0  0  0  0  0  0  0  0  0  0
   -7.2551    5.4934  -13.3078 C   0  0  0  0  0  0  0  0  0  0  0  0
   -6.8930    6.5524  -12.9724 O   0  0  0  0  0  0  0  0  0  0  0  0
   -8.1850    3.5718  -13.0234 H   0  0  0  0  0  0  0  0  0  0  0  0
   -9.9434    1.8983   -6.0766 N   0  0  0  0  0  0  0  0  0  0  0  0
   -9.3625    2.5483   -7.1805 N   0  0  0  0  0  0  0  0  0  0  0  0
   -8.8500    3.8197   -7.1309 C   0  0  0  0  0  0  0  0  0  0  0  0
   -8.5154    4.1515   -8.4193 C   0  0  0  0  0  0  0  0  0  0  0  0
   -8.0202    5.3687   -8.8505 C   0  0  0  0  0  0  0  0  0  0  0  0
   -7.8426    5.3551  -10.2558 C   0  0  0  0  0  0  0  0  0  0  0  0
   -8.1271    4.2308  -11.1138 C   0  0  0  0  0  0  0  0  0  0  0  0
   -8.6388    2.9991  -10.6358 C   0  0  0  0  0  0  0  0  0  0  0  0
   -8.8123    3.0414   -9.2551 C   0  0  0  0  0  0  0  0  0  0  0  0
   -9.3291    2.0537   -8.4560 C   0  0  0  0  0  0  0  0  0  0  0  0
   -9.8337    2.4778   -5.2444 H   0  0  0  0  0  0  0  0  0  0  0  0
   -9.4820    1.0007   -5.9291 H   0  0  0  0  0  0  0  0  0  0  0  0
   -2.7362    5.9572  -18.5430 O   0  0  0  0  0  0  0  0  0  0  0  0
   -2.2534    7.2777  -18.7990 C   0  0  0  0  0  0  0  0  0  0  0  0
   -1.6663    7.2678  -20.1842 C   0  0  0  0  0  0  0  0  0  0  0  0
   -2.4567    7.5804  -21.2990 C   0  0  0  0  0  0  0  0  0  0  0  0
   -1.9154    7.5336  -22.5852 C   0  0  0  0  0  0  0  0  0  0  0  0
   -0.5837    7.1661  -22.7701 C   0  0  0  0  0  0  0  0  0  0  0  0
    0.2072    6.8433  -21.6698 C   0  0  0  0  0  0  0  0  0  0  0  0
   -0.3321    6.8915  -20.3836 C   0  0  0  0  0  0  0  0  0  0  0  0
 17 18  1  0  0  0
 18 19  1  0  0  0
 19 20  2  0  0  0
 20 21  1  0  0  0
 21 22  2  0  0  0
 22 23  1  0  0  0
 23 13  1  0  0  0
 13 14  1  0  0  0
 14 15  2  0  0  0
 14  1  1  0  0  0
  1  2  2  0  0  0
  2  3  1  0  0  0
  3  4  1  0  0  0
  3  5  2  0  0  0
  5  6  1  0  0  0
  6  7  2  0  0  0
  7  8  1  0  0  0
  8  9  1  0  0  0
  9 10  2  0  0  0
  9 29  1  0  0  0
 29 30  1  0  0  0
 30 31  1  0  0  0
 31 32  2  0  0  0
 32 33  1  0  0  0
 33 34  2  0  0  0
 34 35  1  0  0  0
 35 36  2  0  0  0
  8 11  1  0  0  0
 11 12  2  0  0  0
 23 24  2  0  0  0
 24 25  1  0  0  0
 25 26  2  0  0  0
 26 18  1  0  0  0
 25 20  1  0  0  0
 12  1  1  0  0  0
 11  5  1  0  0  0
 36 31  1  0  0  0
 17 27  1  0  0  0
 17 28  1  0  0  0
 13 16  1  0  0  0
M  END
> <minimizedAffinity>
-8.38614

> <minimizedRMSD>
0.67181

$$$$
P15754


 42 46  0  0  0  0  0  0  0  0999 V2000
   -5.4069    5.4390  -16.4792 C   0  0  0  0  0  0  0  0  0  0  0  0
   -6.6558    5.0979  -16.1623 C   0  0  0  0  0  0  0  0  0  0  0  0
   -7.6186    4.9135  -15.1161 C   0  0  0  0  0  0  0  0  0  0  0  0
   -8.7529    4.5190  -15.7405 C   0  0  0  0  0  0  0  0  0  0  0  0
   -8.5145    4.4304  -17.1854 C   0  0  0  0  0  0  0  0  0  0  0  0
   -9.7009    3.9625  -18.2870 Cl  0  0  0  0  0  0  0  0  0  0  0  0
   -7.2551    4.7900  -17.4165 C   0  0  0  0  0  0  0  0  0  0  0  0
   -6.3421    4.9642  -18.4059 N   0  0  0  0  0  0  0  0  0  0  0  0
   -5.2447    5.3351  -17.8646 N   0  0  0  0  0  0  0  0  0  0  0  0
   -1.7931    6.8018  -14.4874 C   0  0  0  0  0  0  0  0  0  0  0  0
   -1.8833    5.5910  -15.4329 C   0  0  0  0  0  0  0  0  0  0  0  0
   -3.0241    5.6300  -16.2945 O   0  0  0  0  0  0  0  0  0  0  0  0
   -4.2549    5.8347  -15.5865 C   0  0  0  0  0  0  0  0  0  0  0  0
   -4.2732    4.9311  -14.4745 O   0  0  0  0  0  0  0  0  0  0  0  0
   -4.2638    7.3165  -15.0692 C   0  0  0  0  0  0  0  0  0  0  0  0
   -2.8244    7.8628  -14.8925 C   0  0  0  0  0  0  0  0  0  0  0  0
   -4.2676    4.0175  -14.8002 H   0  0  0  0  0  0  0  0  0  0  0  0
   -1.8978    6.4584  -12.9884 C   0  0  0  0  0  0  0  0  0  0  0  0
   -1.3703    5.0825  -12.5570 C   0  0  0  0  0  0  0  0  0  0  0  0
    0.7907    3.9707  -13.3411 C   0  0  0  0  0  0  0  0  0  0  0  0
    0.1515    4.9905  -12.4106 C   0  0  0  0  0  0  0  0  0  0  0  0
   -5.1333    8.3229  -15.8750 C   0  0  0  0  0  0  0  0  0  0  0  0
   -4.5206    8.8541  -17.1786 C   0  0  0  0  0  0  0  0  0  0  0  0
   -5.5494    9.1715  -18.1802 N   0  0  0  0  0  0  0  0  0  0  0  0
   -5.2536    8.5318  -19.4590 C   0  0  0  0  0  0  0  0  0  0  0  0
   -5.5840   10.1822  -18.3135 H   0  0  0  0  0  0  0  0  0  0  0  0
   -7.4313    5.2711  -13.6898 C   0  0  0  0  0  0  0  0  0  0  0  0
   -6.8365    6.2864  -13.4489 O   0  0  0  0  0  0  0  0  0  0  0  0
   -8.0177    4.2956  -12.8141 N   0  0  0  0  0  0  0  0  0  0  0  0
   -8.3858    3.5054  -13.2716 H   0  0  0  0  0  0  0  0  0  0  0  0
   -8.1557    4.2760  -11.4197 C   0  0  0  0  0  0  0  0  0  0  0  0
   -7.8890    5.4669  -10.6460 C   0  0  0  0  0  0  0  0  0  0  0  0
   -8.0210    5.5651   -9.2370 C   0  0  0  0  0  0  0  0  0  0  0  0
   -8.4335    4.3525   -8.7098 C   0  0  0  0  0  0  0  0  0  0  0  0
   -8.6959    4.0833   -7.3909 C   0  0  0  0  0  0  0  0  0  0  0  0
   -9.1045    2.7742   -7.3345 N   0  0  0  0  0  0  0  0  0  0  0  0
   -9.5784    2.1613   -6.1589 N   0  0  0  0  0  0  0  0  0  0  0  0
   -9.0929    2.1978   -8.5782 C   0  0  0  0  0  0  0  0  0  0  0  0
   -8.6933    3.1727   -9.4588 C   0  0  0  0  0  0  0  0  0  0  0  0
   -8.5784    3.0526  -10.8400 C   0  0  0  0  0  0  0  0  0  0  0  0
   -9.4739    2.8045   -5.3742 H   0  0  0  0  0  0  0  0  0  0  0  0
   -9.0415    1.3133   -5.9772 H   0  0  0  0  0  0  0  0  0  0  0  0
 20 21  1  0  0  0
 21 19  1  0  0  0
 19 18  1  0  0  0
 10 18  1  0  0  0
 10 11  1  0  0  0
 11 12  1  0  0  0
 12 13  1  0  0  0
 13 14  1  0  0  0
 13  1  1  0  0  0
  1  2  2  0  0  0
  2  3  1  0  0  0
  3 27  1  0  0  0
 27 28  2  0  0  0
 27 29  1  0  0  0
 29 31  1  0  0  0
 31 32  1  0  0  0
 32 33  2  0  0  0
 33 34  1  0  0  0
 34 35  2  0  0  0
 35 36  1  0  0  0
 36 37  1  0  0  0
 36 38  1  0  0  0
 38 39  2  0  0  0
 39 40  1  0  0  0
  3  4  2  0  0  0
  4  5  1  0  0  0
  5  6  1  0  0  0
  5  7  2  0  0  0
  7  8  1  0  0  0
  8  9  2  0  0  0
 13 15  1  0  0  0
 15 22  1  0  0  0
 22 23  1  0  0  0
 23 24  1  0  0  0
 24 25  1  0  0  0
 15 16  1  0  0  0
 16 10  1  0  0  0
  9  1  1  0  0  0
  7  2  1  0  0  0
 40 31  2  0  0  0
 39 34  1  0  0  0
 14 17  1  0  0  0
 29 30  1  0  0  0
 37 41  1  0  0  0
 37 42  1  0  0  0
 24 26  1  0  0  0
M  END
> <minimizedAffinity>
-7.17809

> <minimizedRMSD>
1.02309

$$$$
P15795


 40 43  0  0  0  0  0  0  0  0999 V2000
   -7.0806    5.0218  -15.1294 C   0  0  0  0  0  0  0  0  0  0  0  0
   -8.2328    4.6241  -15.8130 C   0  0  0  0  0  0  0  0  0  0  0  0
   -8.1844    4.4815  -17.1938 C   0  0  0  0  0  0  0  0  0  0  0  0
   -9.5849    3.9818  -18.0372 Cl  0  0  0  0  0  0  0  0  0  0  0  0
   -7.0308    4.7810  -17.9077 C   0  0  0  0  0  0  0  0  0  0  0  0
   -5.8718    5.1962  -17.2488 C   0  0  0  0  0  0  0  0  0  0  0  0
   -5.8940    5.2803  -15.8463 C   0  0  0  0  0  0  0  0  0  0  0  0
   -4.7362    5.5637  -18.0134 N   0  0  0  0  0  0  0  0  0  0  0  0
   -3.4111    5.5570  -17.5101 N   0  0  0  0  0  0  0  0  0  0  0  0
   -2.5431    5.8384  -18.6991 C   0  0  0  0  0  0  0  0  0  0  0  0
   -1.4366    6.8086  -18.2947 C   0  0  0  0  0  0  0  0  0  0  0  0
   -3.4639    6.4474  -19.6355 N   0  0  0  0  0  0  0  0  0  0  0  0
   -4.7790    6.1444  -19.2919 C   0  0  0  0  0  0  0  0  0  0  0  0
   -5.7447    6.3931  -19.9869 O   0  0  0  0  0  0  0  0  0  0  0  0
   -3.1849    4.6472  -17.1084 H   0  0  0  0  0  0  0  0  0  0  0  0
   -1.9120    4.5179  -19.2481 C   0  0  0  0  0  0  0  0  0  0  0  0
   -2.6075    4.0119  -20.3931 O   0  0  0  0  0  0  0  0  0  0  0  0
   -3.5230    3.8036  -20.1494 H   0  0  0  0  0  0  0  0  0  0  0  0
   -3.0950    6.8225  -20.9923 C   0  0  0  0  0  0  0  0  0  0  0  0
   -3.4889    8.2357  -21.3486 C   0  0  0  0  0  0  0  0  0  0  0  0
   -4.2794    8.4806  -22.4814 C   0  0  0  0  0  0  0  0  0  0  0  0
   -4.6082    9.7861  -22.8490 C   0  0  0  0  0  0  0  0  0  0  0  0
   -4.1679   10.8600  -22.0788 C   0  0  0  0  0  0  0  0  0  0  0  0
   -3.3942   10.6296  -20.9431 C   0  0  0  0  0  0  0  0  0  0  0  0
   -3.0533    9.3248  -20.5809 C   0  0  0  0  0  0  0  0  0  0  0  0
   -7.7933    4.1943  -12.8486 N   0  0  0  0  0  0  0  0  0  0  0  0
   -7.1420    5.3416  -13.6651 C   0  0  0  0  0  0  0  0  0  0  0  0
   -6.7798    6.4011  -13.3275 O   0  0  0  0  0  0  0  0  0  0  0  0
   -8.0810    3.4195  -13.3836 H   0  0  0  0  0  0  0  0  0  0  0  0
   -8.6158    3.7669   -8.7089 C   0  0  0  0  0  0  0  0  0  0  0  0
   -8.1831    4.9949   -9.2379 C   0  0  0  0  0  0  0  0  0  0  0  0
   -7.8902    5.1494  -10.6038 C   0  0  0  0  0  0  0  0  0  0  0  0
   -8.0376    4.0819  -11.4794 C   0  0  0  0  0  0  0  0  0  0  0  0
   -8.4919    2.8649  -10.9806 C   0  0  0  0  0  0  0  0  0  0  0  0
   -8.7811    2.7105   -9.6189 C   0  0  0  0  0  0  0  0  0  0  0  0
   -8.2899    4.5683   -6.2751 C   0  0  0  0  0  0  0  0  0  0  0  0
   -8.9753    3.5894   -7.2365 C   0  0  0  0  0  0  0  0  0  0  0  0
   -8.6942    2.2452   -6.7342 N   0  0  0  0  0  0  0  0  0  0  0  0
   -7.6870    2.0842   -6.7391 H   0  0  0  0  0  0  0  0  0  0  0  0
   -9.1515    1.5565   -7.3316 H   0  0  0  0  0  0  0  0  0  0  0  0
 37 36  1  0  0  0
 37 38  1  0  0  0
 37 30  1  0  0  0
 30 31  2  0  0  0
 31 32  1  0  0  0
 32 33  2  0  0  0
 33 26  1  0  0  0
 26 27  1  0  0  0
 27 28  2  0  0  0
 27  1  1  0  0  0
  1  2  2  0  0  0
  2  3  1  0  0  0
  3  4  1  0  0  0
  3  5  2  0  0  0
  5  6  1  0  0  0
  6  8  1  0  0  0
  8  9  1  0  0  0
  9 10  1  0  0  0
 10 11  1  0  0  0
 10 16  1  0  0  0
 16 17  1  0  0  0
 10 12  1  0  0  0
 12 19  1  0  0  0
 19 20  1  0  0  0
 20 21  2  0  0  0
 21 22  1  0  0  0
 22 23  2  0  0  0
 23 24  1  0  0  0
 24 25  2  0  0  0
 12 13  1  0  0  0
 13 14  2  0  0  0
  6  7  2  0  0  0
 33 34  1  0  0  0
 34 35  2  0  0  0
 35 30  1  0  0  0
  7  1  1  0  0  0
 13  8  1  0  0  0
 25 20  1  0  0  0
 38 39  1  0  0  0
 38 40  1  0  0  0
 26 29  1  0  0  0
  9 15  1  0  0  0
 17 18  1  0  0  0
M  END
> <minimizedAffinity>
-8.38973

> <minimizedRMSD>
0.43910

$$$$
P15874


 35 39  0  0  0  0  0  0  0  0999 V2000
   -7.6424    5.1811  -14.5898 C   0  0  0  0  0  0  0  0  0  0  0  0
   -8.6894    4.6999  -15.4035 C   0  0  0  0  0  0  0  0  0  0  0  0
   -8.5371    4.4687  -16.8044 C   0  0  0  0  0  0  0  0  0  0  0  0
   -9.9303    4.0889  -17.7244 Cl  0  0  0  0  0  0  0  0  0  0  0  0
   -7.3470    4.6528  -17.5225 C   0  0  0  0  0  0  0  0  0  0  0  0
   -6.3102    5.1512  -16.7360 C   0  0  0  0  0  0  0  0  0  0  0  0
   -5.0771    5.5094  -17.1073 N   0  0  0  0  0  0  0  0  0  0  0  0
   -4.4991    5.9271  -15.9820 N   0  0  0  0  0  0  0  0  0  0  0  0
   -5.2894    5.9210  -14.8796 C   0  0  0  0  0  0  0  0  0  0  0  0
   -6.4767    5.3991  -15.3230 C   0  0  0  0  0  0  0  0  0  0  0  0
   -8.0414    4.4352  -12.2480 N   0  0  0  0  0  0  0  0  0  0  0  0
   -7.8551    5.6268  -13.2029 C   0  0  0  0  0  0  0  0  0  0  0  0
   -7.9274    6.7721  -13.0041 O   0  0  0  0  0  0  0  0  0  0  0  0
   -7.8506    3.5549  -12.6454 H   0  0  0  0  0  0  0  0  0  0  0  0
   -9.5174    4.6207   -5.8937 C   0  0  0  0  0  0  0  0  0  0  0  0
   -8.6816    3.5557   -6.5796 C   0  0  0  0  0  0  0  0  0  0  0  0
   -9.4750    2.3182   -6.7253 N   0  0  0  0  0  0  0  0  0  0  0  0
   -9.1945    1.7617   -8.0625 C   0  0  0  0  0  0  0  0  0  0  0  0
   -9.0709    3.0231   -8.8845 C   0  0  0  0  0  0  0  0  0  0  0  0
   -8.5361    2.9595  -10.3083 C   0  0  0  0  0  0  0  0  0  0  0  0
   -8.4521    4.3973  -10.8590 C   0  0  0  0  0  0  0  0  0  0  0  0
   -7.6348    5.3294   -9.9501 C   0  0  0  0  0  0  0  0  0  0  0  0
   -8.1347    5.3124   -8.4965 C   0  0  0  0  0  0  0  0  0  0  0  0
   -8.1842    3.8792   -7.9953 C   0  0  0  0  0  0  0  0  0  0  0  0
  -10.4690    2.5303   -6.6386 H   0  0  0  0  0  0  0  0  0  0  0  0
   -3.1737    6.3110  -16.0326 O   0  0  0  0  0  0  0  0  0  0  0  0
   -2.4398    5.2568  -16.6342 C   0  0  0  0  0  0  0  0  0  0  0  0
   -1.8410    5.6149  -17.8712 O   0  0  0  0  0  0  0  0  0  0  0  0
   -2.1885    4.7772  -18.9649 C   0  0  0  0  0  0  0  0  0  0  0  0
   -2.5484    5.5971  -20.1742 C   0  0  0  0  0  0  0  0  0  0  0  0
   -3.7232    6.3557  -20.2077 C   0  0  0  0  0  0  0  0  0  0  0  0
   -4.0756    7.0734  -21.3527 C   0  0  0  0  0  0  0  0  0  0  0  0
   -3.2539    7.0444  -22.4763 C   0  0  0  0  0  0  0  0  0  0  0  0
   -2.0770    6.3001  -22.4533 C   0  0  0  0  0  0  0  0  0  0  0  0
   -1.7281    5.5808  -21.3088 C   0  0  0  0  0  0  0  0  0  0  0  0
 16 15  1  0  0  0
 16 17  1  0  0  0
 17 18  1  0  0  0
 19 18  1  0  0  0
 19 20  1  0  0  0
 20 21  1  0  0  0
 21 11  1  0  0  0
 11 12  1  0  0  0
 12 13  2  0  0  0
 12  1  1  0  0  0
  1  2  2  0  0  0
  2  3  1  0  0  0
  3  4  1  0  0  0
  3  5  2  0  0  0
  5  6  1  0  0  0
  6  7  2  0  0  0
  7  8  1  0  0  0
  8 26  1  0  0  0
 26 27  1  0  0  0
 27 28  1  0  0  0
 28 29  1  0  0  0
 29 30  1  0  0  0
 30 31  2  0  0  0
 31 32  1  0  0  0
 32 33  2  0  0  0
 33 34  1  0  0  0
 34 35  2  0  0  0
  8  9  1  0  0  0
  9 10  2  0  0  0
 21 22  1  0  0  0
 22 23  1  0  0  0
 24 23  1  0  0  0
 24 16  1  0  0  0
 24 19  1  0  0  0
 10  1  1  0  0  0
 10  6  1  0  0  0
 35 30  1  0  0  0
 17 25  1  0  0  0
 11 14  1  0  0  0
M  END
> <minimizedAffinity>
-7.56195

> <minimizedRMSD>
0.62978

$$$$
P15917


 39 43  0  0  0  0  0  0  0  0999 V2000
   -7.7518    5.0432  -14.8094 C   0  0  0  0  0  0  0  0  0  0  0  0
   -8.7086    4.5012  -15.6674 C   0  0  0  0  0  0  0  0  0  0  0  0
   -8.4198    4.3513  -17.0251 C   0  0  0  0  0  0  0  0  0  0  0  0
   -9.5989    3.7142  -18.0932 Cl  0  0  0  0  0  0  0  0  0  0  0  0
   -7.1696    4.7630  -17.4998 C   0  0  0  0  0  0  0  0  0  0  0  0
   -6.6710    4.7936  -18.7840 N   0  0  0  0  0  0  0  0  0  0  0  0
   -5.3841    5.2627  -18.7836 C   0  0  0  0  0  0  0  0  0  0  0  0
   -5.0595    5.5736  -17.4860 C   0  0  0  0  0  0  0  0  0  0  0  0
   -6.1838    5.2824  -16.6609 C   0  0  0  0  0  0  0  0  0  0  0  0
   -6.4869    5.4299  -15.2925 C   0  0  0  0  0  0  0  0  0  0  0  0
   -7.1688    4.5176  -19.5872 H   0  0  0  0  0  0  0  0  0  0  0  0
   -3.7187    6.2277  -16.9922 C   0  0  0  0  0  0  0  0  0  0  0  0
   -3.9022    7.6081  -16.5663 O   0  0  0  0  0  0  0  0  0  0  0  0
   -2.9599    5.3250  -15.9660 C   0  0  0  0  0  0  0  0  0  0  0  0
   -1.6835    5.6632  -16.6279 N   0  0  0  0  0  0  0  0  0  0  0  0
   -2.4500    5.9511  -17.8887 C   0  0  0  0  0  0  0  0  0  0  0  0
   -4.7035    7.6753  -16.0238 H   0  0  0  0  0  0  0  0  0  0  0  0
   -1.0287    4.8845  -16.7021 H   0  0  0  0  0  0  0  0  0  0  0  0
   -1.7925    7.0962  -18.6634 C   0  0  0  0  0  0  0  0  0  0  0  0
   -2.3321    7.1880  -20.0691 C   0  0  0  0  0  0  0  0  0  0  0  0
   -1.7653    6.4221  -21.0980 C   0  0  0  0  0  0  0  0  0  0  0  0
   -2.2609    6.5093  -22.3994 C   0  0  0  0  0  0  0  0  0  0  0  0
   -3.3381    7.3478  -22.6802 C   0  0  0  0  0  0  0  0  0  0  0  0
   -3.9088    8.1133  -21.6651 C   0  0  0  0  0  0  0  0  0  0  0  0
   -3.4044    8.0392  -20.3661 C   0  0  0  0  0  0  0  0  0  0  0  0
   -8.1014    4.1031  -12.4931 N   0  0  0  0  0  0  0  0  0  0  0  0
   -8.0708    5.3648  -13.3881 C   0  0  0  0  0  0  0  0  0  0  0  0
   -8.2783    6.4847  -13.1261 O   0  0  0  0  0  0  0  0  0  0  0  0
   -7.9624    3.2544  -12.9723 H   0  0  0  0  0  0  0  0  0  0  0  0
   -8.7177    3.6466   -8.3390 C   0  0  0  0  0  0  0  0  0  0  0  0
   -8.9500    2.5932   -9.2362 C   0  0  0  0  0  0  0  0  0  0  0  0
   -8.7450    2.7564  -10.6114 C   0  0  0  0  0  0  0  0  0  0  0  0
   -8.2938    3.9724  -11.1176 C   0  0  0  0  0  0  0  0  0  0  0  0
   -8.0438    5.0215  -10.2376 C   0  0  0  0  0  0  0  0  0  0  0  0
   -8.2436    4.8567   -8.8598 C   0  0  0  0  0  0  0  0  0  0  0  0
   -8.9320    3.4053   -6.8581 C   0  0  0  0  0  0  0  0  0  0  0  0
   -9.8237    4.1722   -4.7710 C   0  0  0  0  0  0  0  0  0  0  0  0
   -9.4753    4.5662   -6.1310 N   0  0  0  0  0  0  0  0  0  0  0  0
   -8.7741    5.3064   -6.1009 H   0  0  0  0  0  0  0  0  0  0  0  0
 37 38  1  0  0  0
 38 36  1  0  0  0
 36 30  1  0  0  0
 30 31  2  0  0  0
 31 32  1  0  0  0
 32 33  2  0  0  0
 33 26  1  0  0  0
 26 27  1  0  0  0
 27 28  2  0  0  0
 27  1  1  0  0  0
  1  2  2  0  0  0
  2  3  1  0  0  0
  3  4  1  0  0  0
  3  5  2  0  0  0
  5  6  1  0  0  0
  6  7  1  0  0  0
  7  8  2  0  0  0
  8 12  1  0  0  0
 12 13  1  0  0  0
 12 14  1  0  0  0
 14 15  1  0  0  0
 15 16  1  0  0  0
 16 19  1  0  0  0
 19 20  1  0  0  0
 20 21  2  0  0  0
 21 22  1  0  0  0
 22 23  2  0  0  0
 23 24  1  0  0  0
 24 25  2  0  0  0
  8  9  1  0  0  0
  9 10  2  0  0  0
 33 34  1  0  0  0
 34 35  2  0  0  0
 35 30  1  0  0  0
 10  1  1  0  0  0
  9  5  1  0  0  0
 16 12  1  0  0  0
 25 20  1  0  0  0
 38 39  1  0  0  0
 26 29  1  0  0  0
  6 11  1  0  0  0
 13 17  1  0  0  0
 15 18  1  0  0  0
M  END
> <minimizedAffinity>
-8.23597

> <minimizedRMSD>
0.65525

$$$$
P15931


 42 46  0  0  0  0  0  0  0  0999 V2000
   -7.5521    5.0041  -14.8699 C   0  0  0  0  0  0  0  0  0  0  0  0
   -8.6515    4.6371  -15.6592 C   0  0  0  0  0  0  0  0  0  0  0  0
   -8.4959    4.4691  -17.0312 C   0  0  0  0  0  0  0  0  0  0  0  0
   -9.8405    3.9950  -17.9818 Cl  0  0  0  0  0  0  0  0  0  0  0  0
   -7.2813    4.7086  -17.6707 C   0  0  0  0  0  0  0  0  0  0  0  0
   -6.1858    5.0793  -16.8801 C   0  0  0  0  0  0  0  0  0  0  0  0
   -6.2873    5.1969  -15.4883 C   0  0  0  0  0  0  0  0  0  0  0  0
   -4.9756    5.4969  -15.0138 C   0  0  0  0  0  0  0  0  0  0  0  0
   -4.1255    5.5705  -16.0947 C   0  0  0  0  0  0  0  0  0  0  0  0
   -2.8149    5.7759  -16.1393 O   0  0  0  0  0  0  0  0  0  0  0  0
   -4.8911    5.4172  -17.2276 N   0  0  0  0  0  0  0  0  0  0  0  0
   -2.3289    5.8754  -15.3444 H   0  0  0  0  0  0  0  0  0  0  0  0
   -4.5016    5.7176  -18.6231 C   0  0  0  0  0  0  0  0  0  0  0  0
   -3.0648    5.3804  -19.0319 C   0  0  0  0  0  0  0  0  0  0  0  0
   -3.0726    6.6331  -19.8383 N   0  0  0  0  0  0  0  0  0  0  0  0
   -4.0611    7.1802  -18.8726 C   0  0  0  0  0  0  0  0  0  0  0  0
   -3.4245    6.5233  -20.7894 H   0  0  0  0  0  0  0  0  0  0  0  0
   -5.0145    8.0451  -19.5107 O   0  0  0  0  0  0  0  0  0  0  0  0
   -5.5481    9.0534  -18.6536 C   0  0  0  0  0  0  0  0  0  0  0  0
   -6.1237   10.2127  -19.4291 C   0  0  0  0  0  0  0  0  0  0  0  0
   -6.9952   11.1035  -18.7824 C   0  0  0  0  0  0  0  0  0  0  0  0
   -7.5117   12.2117  -19.4561 C   0  0  0  0  0  0  0  0  0  0  0  0
   -7.1477   12.4537  -20.7788 C   0  0  0  0  0  0  0  0  0  0  0  0
   -6.2692   11.5878  -21.4275 C   0  0  0  0  0  0  0  0  0  0  0  0
   -5.7614   10.4728  -20.7574 C   0  0  0  0  0  0  0  0  0  0  0  0
   -8.1639    4.0842  -12.5914 N   0  0  0  0  0  0  0  0  0  0  0  0
   -7.7107    5.3163  -13.4174 C   0  0  0  0  0  0  0  0  0  0  0  0
   -7.5215    6.4220  -13.0870 O   0  0  0  0  0  0  0  0  0  0  0  0
   -8.3267    3.2703  -13.1209 H   0  0  0  0  0  0  0  0  0  0  0  0
   -8.7343    3.5524   -8.4144 C   0  0  0  0  0  0  0  0  0  0  0  0
   -9.0153    2.5355   -9.3445 C   0  0  0  0  0  0  0  0  0  0  0  0
   -8.8345    2.7274  -10.7229 C   0  0  0  0  0  0  0  0  0  0  0  0
   -8.3785    3.9417  -11.2198 C   0  0  0  0  0  0  0  0  0  0  0  0
   -8.1247    4.9749  -10.3262 C   0  0  0  0  0  0  0  0  0  0  0  0
   -8.2922    4.7862   -8.9394 C   0  0  0  0  0  0  0  0  0  0  0  0
   -9.9555    4.0228   -6.1754 C   0  0  0  0  0  0  0  0  0  0  0  0
   -8.8085    3.3220   -6.9032 C   0  0  0  0  0  0  0  0  0  0  0  0
   -8.8660    1.9178   -6.5227 N   0  0  0  0  0  0  0  0  0  0  0  0
   -9.7531    1.5185   -6.8293 H   0  0  0  0  0  0  0  0  0  0  0  0
   -8.7890    1.8369   -5.5088 H   0  0  0  0  0  0  0  0  0  0  0  0
   -7.9400    5.8780   -8.0778 C   0  0  0  0  0  0  0  0  0  0  0  0
   -7.6356    6.7501   -7.3732 N   0  0  0  0  0  0  0  0  0  0  0  0
 37 36  1  0  0  0
 37 38  1  0  0  0
 37 30  1  0  0  0
 30 31  2  0  0  0
 31 32  1  0  0  0
 32 33  2  0  0  0
 33 26  1  0  0  0
 26 27  1  0  0  0
 27 28  2  0  0  0
 27  1  1  0  0  0
  1  2  2  0  0  0
  2  3  1  0  0  0
  3  4  1  0  0  0
  3  5  2  0  0  0
  5  6  1  0  0  0
  6  7  2  0  0  0
  7  8  1  0  0  0
  8  9  2  0  0  0
  9 10  1  0  0  0
  9 11  1  0  0  0
 13 11  1  0  0  0
 13 14  1  0  0  0
 14 15  1  0  0  0
 15 16  1  0  0  0
 16 18  1  0  0  0
 18 19  1  0  0  0
 19 20  1  0  0  0
 20 21  2  0  0  0
 21 22  1  0  0  0
 22 23  2  0  0  0
 23 24  1  0  0  0
 24 25  2  0  0  0
 33 34  1  0  0  0
 34 35  2  0  0  0
 35 41  1  0  0  0
 41 42  3  0  0  0
 35 30  1  0  0  0
  7  1  1  0  0  0
 16 13  1  0  0  0
 25 20  1  0  0  0
 11  6  1  0  0  0
 38 39  1  0  0  0
 38 40  1  0  0  0
 26 29  1  0  0  0
 10 12  1  0  0  0
 15 17  1  0  0  0
M  END
> <minimizedAffinity>
-8.50245

> <minimizedRMSD>
0.62521

$$$$
P16001


 38 43  0  0  0  0  0  0  0  0999 V2000
   -2.2889    4.2680  -19.4038 C   0  0  0  0  0  0  0  0  0  0  0  0
   -3.0338    5.5707  -19.6977 C   0  0  0  0  0  0  0  0  0  0  0  0
   -4.4349    5.3283  -19.9289 N   0  0  0  0  0  0  0  0  0  0  0  0
   -5.2638    5.2117  -18.8816 C   0  0  0  0  0  0  0  0  0  0  0  0
   -6.4534    4.6795  -18.8578 N   0  0  0  0  0  0  0  0  0  0  0  0
   -6.8942    4.8182  -17.5630 C   0  0  0  0  0  0  0  0  0  0  0  0
   -8.1099    4.4664  -16.9456 C   0  0  0  0  0  0  0  0  0  0  0  0
   -9.3161    3.7955  -17.9505 Cl  0  0  0  0  0  0  0  0  0  0  0  0
   -8.3279    4.6913  -15.5850 C   0  0  0  0  0  0  0  0  0  0  0  0
   -7.3187    5.2871  -14.8259 C   0  0  0  0  0  0  0  0  0  0  0  0
   -6.0978    5.6783  -15.4085 C   0  0  0  0  0  0  0  0  0  0  0  0
   -5.9131    5.4300  -16.7778 C   0  0  0  0  0  0  0  0  0  0  0  0
   -4.8805    5.7050  -17.6607 N   0  0  0  0  0  0  0  0  0  0  0  0
   -3.6792    6.3868  -17.4458 C   0  0  0  0  0  0  0  0  0  0  0  0
   -3.4171    6.8325  -16.3369 O   0  0  0  0  0  0  0  0  0  0  0  0
   -2.9076    6.5262  -18.6023 N   0  0  0  0  0  0  0  0  0  0  0  0
   -4.7805    5.2490  -20.8474 H   0  0  0  0  0  0  0  0  0  0  0  0
   -7.5359    5.6307  -13.3921 C   0  0  0  0  0  0  0  0  0  0  0  0
   -7.5075    6.7994  -13.1287 O   0  0  0  0  0  0  0  0  0  0  0  0
   -7.7078    4.4817  -12.5481 N   0  0  0  0  0  0  0  0  0  0  0  0
   -7.6149    3.6177  -13.0108 H   0  0  0  0  0  0  0  0  0  0  0  0
   -7.9843    4.3808  -11.1828 C   0  0  0  0  0  0  0  0  0  0  0  0
   -7.7622    5.4590  -10.3071 C   0  0  0  0  0  0  0  0  0  0  0  0
   -8.0257    5.3439   -8.9373 C   0  0  0  0  0  0  0  0  0  0  0  0
   -8.5314    4.1471   -8.4696 C   0  0  0  0  0  0  0  0  0  0  0  0
   -8.7603    3.0795   -9.3328 C   0  0  0  0  0  0  0  0  0  0  0  0
   -8.4826    3.1712  -10.6882 C   0  0  0  0  0  0  0  0  0  0  0  0
   -9.2983    1.9300   -8.5448 C   0  0  0  0  0  0  0  0  0  0  0  0
   -9.7261    2.5163   -7.2465 N   0  0  0  0  0  0  0  0  0  0  0  0
   -8.9095    3.7393   -7.0839 C   0  0  0  0  0  0  0  0  0  0  0  0
   -9.5479    1.8634   -6.4834 H   0  0  0  0  0  0  0  0  0  0  0  0
   -1.6297    7.2123  -18.4263 C   0  0  0  0  0  0  0  0  0  0  0  0
   -1.0973    7.8569  -19.6819 C   0  0  0  0  0  0  0  0  0  0  0  0
   -1.7540    8.9634  -20.2404 C   0  0  0  0  0  0  0  0  0  0  0  0
   -1.2746    9.5539  -21.4100 C   0  0  0  0  0  0  0  0  0  0  0  0
   -0.1351    9.0462  -22.0313 C   0  0  0  0  0  0  0  0  0  0  0  0
    0.5269    7.9487  -21.4839 C   0  0  0  0  0  0  0  0  0  0  0  0
    0.0498    7.3556  -20.3140 C   0  0  0  0  0  0  0  0  0  0  0  0
  2  1  1  0  0  0
  2  3  1  0  0  0
  3  4  1  0  0  0
  4  5  2  0  0  0
  5  6  1  0  0  0
  6  7  2  0  0  0
  7  8  1  0  0  0
  7  9  1  0  0  0
  9 10  2  0  0  0
 10 18  1  0  0  0
 18 19  2  0  0  0
 18 20  1  0  0  0
 20 22  1  0  0  0
 22 23  2  0  0  0
 23 24  1  0  0  0
 24 25  2  0  0  0
 25 26  1  0  0  0
 26 27  2  0  0  0
 26 28  1  0  0  0
 28 29  1  0  0  0
 29 30  1  0  0  0
 10 11  1  0  0  0
 11 12  2  0  0  0
 12 13  1  0  0  0
 13 14  1  0  0  0
 14 15  2  0  0  0
 14 16  1  0  0  0
 16 32  1  0  0  0
 32 33  1  0  0  0
 33 34  2  0  0  0
 34 35  1  0  0  0
 35 36  2  0  0  0
 36 37  1  0  0  0
 37 38  2  0  0  0
 16  2  1  0  0  0
 38 33  1  0  0  0
 13  4  1  0  0  0
 12  6  1  0  0  0
 27 22  1  0  0  0
 30 25  1  0  0  0
  3 17  1  0  0  0
 20 21  1  0  0  0
 29 31  1  0  0  0
M  END
> <minimizedAffinity>
-8.84261

> <minimizedRMSD>
0.41733

$$$$
P16123


 28 30  0  0  0  0  0  0  0  0999 V2000
   -6.7914    5.1038  -13.9883 C   0  0  0  0  0  0  0  0  0  0  0  0
   -5.7065    5.4689  -13.7669 O   0  0  0  0  0  0  0  0  0  0  0  0
   -8.0068    4.9619  -13.0540 N   0  0  0  0  0  0  0  0  0  0  0  0
   -8.8007    4.5542  -13.4696 H   0  0  0  0  0  0  0  0  0  0  0  0
   -8.1723    5.3299  -11.6651 C   0  0  0  0  0  0  0  0  0  0  0  0
   -8.2447    6.8514  -11.5107 C   0  0  0  0  0  0  0  0  0  0  0  0
   -8.4921    7.2893  -10.0789 C   0  0  0  0  0  0  0  0  0  0  0  0
   -7.5614    6.6134   -9.0981 C   0  0  0  0  0  0  0  0  0  0  0  0
   -7.4294    5.0770   -9.2651 C   0  0  0  0  0  0  0  0  0  0  0  0
   -6.2527    4.6382   -8.3747 C   0  0  0  0  0  0  0  0  0  0  0  0
   -6.5481    4.8888   -6.9443 N   0  0  0  0  0  0  0  0  0  0  0  0
   -7.6960    4.0347   -6.5697 C   0  0  0  0  0  0  0  0  0  0  0  0
   -8.9043    4.3471   -7.4341 C   0  0  0  0  0  0  0  0  0  0  0  0
   -8.6522    4.3236   -8.8866 N   0  0  0  0  0  0  0  0  0  0  0  0
   -7.1118    4.7397  -10.7448 C   0  0  0  0  0  0  0  0  0  0  0  0
   -6.7850    5.8711   -6.8048 H   0  0  0  0  0  0  0  0  0  0  0  0
   -9.4525    4.7383   -9.3640 H   0  0  0  0  0  0  0  0  0  0  0  0
   -6.3974    4.8495  -17.7252 C   0  0  0  0  0  0  0  0  0  0  0  0
   -7.7120    4.5856  -18.1268 C   0  0  0  0  0  0  0  0  0  0  0  0
   -8.7273    4.4752  -17.1873 C   0  0  0  0  0  0  0  0  0  0  0  0
  -10.3471    4.3521  -17.7377 Cl  0  0  0  0  0  0  0  0  0  0  0  0
   -8.4471    4.5731  -15.8278 C   0  0  0  0  0  0  0  0  0  0  0  0
   -7.1309    4.8076  -15.4107 C   0  0  0  0  0  0  0  0  0  0  0  0
   -6.1152    4.9624  -16.3623 C   0  0  0  0  0  0  0  0  0  0  0  0
   -5.7096    6.1095  -19.7076 N   0  0  0  0  0  0  0  0  0  0  0  0
   -5.3321    5.0684  -18.7575 C   0  0  0  0  0  0  0  0  0  0  0  0
   -4.9638    6.2310  -20.3928 H   0  0  0  0  0  0  0  0  0  0  0  0
   -5.8594    6.9866  -19.2091 H   0  0  0  0  0  0  0  0  0  0  0  0
 25 26  1  0  0  0
 26 18  1  0  0  0
 18 19  2  0  0  0
 19 20  1  0  0  0
 20 21  1  0  0  0
 20 22  2  0  0  0
 22 23  1  0  0  0
 23  1  1  0  0  0
  1  2  2  0  0  0
  1  3  1  0  0  0
  5  3  1  0  0  0
  5  6  1  0  0  0
  6  7  1  0  0  0
  7  8  1  0  0  0
  9  8  1  0  0  0
  9 10  1  0  0  0
 10 11  1  0  0  0
 11 12  1  0  0  0
 12 13  1  0  0  0
 13 14  1  0  0  0
  9 15  1  0  0  0
 23 24  2  0  0  0
 24 18  1  0  0  0
 15  5  1  0  0  0
 14  9  1  0  0  0
 25 27  1  0  0  0
 25 28  1  0  0  0
  3  4  1  0  0  0
 11 16  1  0  0  0
 14 17  1  0  0  0
M  END
> <minimizedAffinity>
-6.71246

> <minimizedRMSD>
0.74209

$$$$
P16191


 33 36  0  0  0  0  0  0  0  0999 V2000
   -8.1396    5.2116  -15.0140 C   0  0  0  0  0  0  0  0  0  0  0  0
   -9.2292    4.6050  -15.6409 C   0  0  0  0  0  0  0  0  0  0  0  0
   -9.2001    4.3929  -17.0097 C   0  0  0  0  0  0  0  0  0  0  0  0
  -10.5853    3.8039  -17.8320 Cl  0  0  0  0  0  0  0  0  0  0  0  0
   -8.0795    4.7254  -17.7673 C   0  0  0  0  0  0  0  0  0  0  0  0
   -6.9552    5.2503  -17.1059 C   0  0  0  0  0  0  0  0  0  0  0  0
   -6.9748    5.5072  -15.7386 C   0  0  0  0  0  0  0  0  0  0  0  0
   -5.7158    6.0719  -15.4562 C   0  0  0  0  0  0  0  0  0  0  0  0
   -4.9313    6.1393  -16.5304 N   0  0  0  0  0  0  0  0  0  0  0  0
   -5.6994    5.6472  -17.5263 N   0  0  0  0  0  0  0  0  0  0  0  0
   -5.2118    5.5153  -18.9146 C   0  0  0  0  0  0  0  0  0  0  0  0
   -6.0549    4.8057  -19.8915 N   0  0  0  0  0  0  0  0  0  0  0  0
   -4.6807    6.8280  -19.5344 C   0  0  0  0  0  0  0  0  0  0  0  0
   -3.6337    6.0154  -20.2399 N   0  0  0  0  0  0  0  0  0  0  0  0
   -3.7436    5.0517  -19.0898 C   0  0  0  0  0  0  0  0  0  0  0  0
   -7.0243    5.1042  -19.7843 H   0  0  0  0  0  0  0  0  0  0  0  0
   -5.9888    3.8006  -19.7309 H   0  0  0  0  0  0  0  0  0  0  0  0
   -2.7262    6.4717  -20.3326 H   0  0  0  0  0  0  0  0  0  0  0  0
   -8.2146    4.5436  -12.6173 N   0  0  0  0  0  0  0  0  0  0  0  0
   -8.2621    5.6989  -13.6350 C   0  0  0  0  0  0  0  0  0  0  0  0
   -8.3287    6.8515  -13.4683 O   0  0  0  0  0  0  0  0  0  0  0  0
   -8.0807    3.6518  -13.0122 H   0  0  0  0  0  0  0  0  0  0  0  0
   -8.4599    3.3540   -9.1419 C   0  0  0  0  0  0  0  0  0  0  0  0
   -8.4462    3.3486  -10.5443 C   0  0  0  0  0  0  0  0  0  0  0  0
   -8.3299    4.5552  -11.2340 C   0  0  0  0  0  0  0  0  0  0  0  0
   -8.2770    5.7625  -10.5332 C   0  0  0  0  0  0  0  0  0  0  0  0
   -8.3887    5.7739   -9.1459 C   0  0  0  0  0  0  0  0  0  0  0  0
   -8.4941    4.5730   -8.4636 C   0  0  0  0  0  0  0  0  0  0  0  0
   -8.5876    4.5961   -7.1260 F   0  0  0  0  0  0  0  0  0  0  0  0
   -9.6443    1.4955   -8.0890 N   0  0  0  0  0  0  0  0  0  0  0  0
   -8.3509    2.0905   -8.3508 C   0  0  0  0  0  0  0  0  0  0  0  0
   -9.5216    0.6391   -7.5488 H   0  0  0  0  0  0  0  0  0  0  0  0
  -10.1033    1.2769   -8.9733 H   0  0  0  0  0  0  0  0  0  0  0  0
 30 31  1  0  0  0
 31 23  1  0  0  0
 23 24  2  0  0  0
 24 25  1  0  0  0
 25 19  1  0  0  0
 19 20  1  0  0  0
 20 21  2  0  0  0
 20  1  1  0  0  0
  1  2  2  0  0  0
  2  3  1  0  0  0
  3  4  1  0  0  0
  3  5  2  0  0  0
  5  6  1  0  0  0
  6  7  2  0  0  0
  7  8  1  0  0  0
  8  9  2  0  0  0
  9 10  1  0  0  0
 10 11  1  0  0  0
 11 12  1  0  0  0
 11 13  1  0  0  0
 13 14  1  0  0  0
 14 15  1  0  0  0
 25 26  2  0  0  0
 26 27  1  0  0  0
 27 28  2  0  0  0
 28 29  1  0  0  0
 28 23  1  0  0  0
  7  1  1  0  0  0
 15 11  1  0  0  0
 10  6  1  0  0  0
 30 32  1  0  0  0
 30 33  1  0  0  0
 19 22  1  0  0  0
 12 16  1  0  0  0
 12 17  1  0  0  0
 14 18  1  0  0  0
M  END
> <minimizedAffinity>
-7.92151

> <minimizedRMSD>
0.38233

$$$$
P16478


 31 33  0  0  0  0  0  0  0  0999 V2000
   -8.1991    4.5325  -13.3498 N   0  0  0  0  0  0  0  0  0  0  0  0
   -7.0307    4.7152  -14.3573 C   0  0  0  0  0  0  0  0  0  0  0  0
   -5.9240    5.0559  -14.1821 O   0  0  0  0  0  0  0  0  0  0  0  0
   -9.0232    4.1586  -13.7375 H   0  0  0  0  0  0  0  0  0  0  0  0
   -8.3265    5.9323   -7.8026 C   0  0  0  0  0  0  0  0  0  0  0  0
   -8.3320    5.4883   -9.2453 C   0  0  0  0  0  0  0  0  0  0  0  0
   -8.0738    6.4599  -10.2165 C   0  0  0  0  0  0  0  0  0  0  0  0
   -8.0344    6.1218  -11.5632 C   0  0  0  0  0  0  0  0  0  0  0  0
   -8.2704    4.8130  -11.9811 C   0  0  0  0  0  0  0  0  0  0  0  0
   -8.5675    3.8313  -11.0270 C   0  0  0  0  0  0  0  0  0  0  0  0
   -8.5972    4.1545   -9.6451 C   0  0  0  0  0  0  0  0  0  0  0  0
   -8.9476    3.1533   -8.6318 C   0  0  0  0  0  0  0  0  0  0  0  0
   -9.7632    3.3191   -7.6055 N   0  0  0  0  0  0  0  0  0  0  0  0
   -9.8723    2.1149   -6.9713 N   0  0  0  0  0  0  0  0  0  0  0  0
   -9.1262    1.2087   -7.5725 N   0  0  0  0  0  0  0  0  0  0  0  0
   -8.4825    1.8734   -8.5442 N   0  0  0  0  0  0  0  0  0  0  0  0
   -7.7752    1.4920   -9.1130 H   0  0  0  0  0  0  0  0  0  0  0  0
   -7.3882    4.4406  -15.7773 C   0  0  0  0  0  0  0  0  0  0  0  0
   -8.7066    4.2327  -16.1695 C   0  0  0  0  0  0  0  0  0  0  0  0
   -9.0152    4.2990  -17.5252 C   0  0  0  0  0  0  0  0  0  0  0  0
  -10.6488    4.2838  -18.0466 Cl  0  0  0  0  0  0  0  0  0  0  0  0
   -8.0296    4.5381  -18.4820 C   0  0  0  0  0  0  0  0  0  0  0  0
   -6.6938    4.7527  -18.1158 C   0  0  0  0  0  0  0  0  0  0  0  0
   -6.3925    4.6890  -16.7471 C   0  0  0  0  0  0  0  0  0  0  0  0
   -5.6797    5.2138  -19.1546 C   0  0  0  0  0  0  0  0  0  0  0  0
   -5.8276    4.4936  -20.4503 N   0  0  0  0  0  0  0  0  0  0  0  0
   -5.5813    3.5120  -20.3237 H   0  0  0  0  0  0  0  0  0  0  0  0
   -5.2090    4.9126  -21.1447 H   0  0  0  0  0  0  0  0  0  0  0  0
   -4.2057    5.3295  -18.6816 C   0  0  0  0  0  0  0  0  0  0  0  0
   -3.5808    4.1338  -18.6223 F   0  0  0  0  0  0  0  0  0  0  0  0
   -3.5147    6.0947  -19.5719 F   0  0  0  0  0  0  0  0  0  0  0  0
  5  6  1  0  0  0
  6  7  2  0  0  0
  7  8  1  0  0  0
  8  9  2  0  0  0
  9  1  1  0  0  0
  1  2  1  0  0  0
  2  3  2  0  0  0
  2 18  1  0  0  0
 18 19  2  0  0  0
 19 20  1  0  0  0
 20 21  1  0  0  0
 20 22  2  0  0  0
 22 23  1  0  0  0
 23 25  1  0  0  0
 25 26  1  0  0  0
 25 29  1  0  0  0
 29 30  1  0  0  0
 29 31  1  0  0  0
 23 24  2  0  0  0
  9 10  1  0  0  0
 10 11  2  0  0  0
 11 12  1  0  0  0
 12 13  2  0  0  0
 13 14  1  0  0  0
 14 15  2  0  0  0
 15 16  1  0  0  0
 11  6  1  0  0  0
 16 12  1  0  0  0
 24 18  1  0  0  0
  1  4  1  0  0  0
 26 27  1  0  0  0
 26 28  1  0  0  0
 16 17  1  0  0  0
M  END
> <minimizedAffinity>
-8.43969

> <minimizedRMSD>
0.47380

$$$$
P16483


 36 39  0  0  0  0  0  0  0  0999 V2000
   -7.8693    4.6833  -14.9442 C   0  0  0  0  0  0  0  0  0  0  0  0
   -9.1297    4.9970  -15.7763 C   0  0  0  0  0  0  0  0  0  0  0  0
   -9.0165    4.9766  -17.2860 C   0  0  0  0  0  0  0  0  0  0  0  0
   -9.5803    3.4679  -17.9586 Cl  0  0  0  0  0  0  0  0  0  0  0  0
   -7.6433    5.2835  -17.8176 C   0  0  0  0  0  0  0  0  0  0  0  0
   -6.4546    4.6850  -17.0567 C   0  0  0  0  0  0  0  0  0  0  0  0
   -6.4518    5.1016  -15.5421 C   0  0  0  0  0  0  0  0  0  0  0  0
   -5.3786    4.2402  -14.7927 C   0  0  0  0  0  0  0  0  0  0  0  0
   -4.8076    4.8230  -13.5886 N   0  0  0  0  0  0  0  0  0  0  0  0
   -4.2205    6.1151  -13.8631 C   0  0  0  0  0  0  0  0  0  0  0  0
   -3.3100    5.9818  -14.8613 F   0  0  0  0  0  0  0  0  0  0  0  0
   -5.2940    7.1123  -14.2603 C   0  0  0  0  0  0  0  0  0  0  0  0
   -4.6753    8.4812  -14.5635 C   0  0  0  0  0  0  0  0  0  0  0  0
   -6.1200    6.6243  -15.4646 C   0  0  0  0  0  0  0  0  0  0  0  0
   -4.0860    4.1995  -13.2267 H   0  0  0  0  0  0  0  0  0  0  0  0
   -7.5009    4.4675  -12.4825 N   0  0  0  0  0  0  0  0  0  0  0  0
   -8.2227    5.3054  -13.5781 C   0  0  0  0  0  0  0  0  0  0  0  0
   -8.9717    6.1971  -13.4781 O   0  0  0  0  0  0  0  0  0  0  0  0
   -6.9714    3.7109  -12.8239 H   0  0  0  0  0  0  0  0  0  0  0  0
   -7.2445    5.0129   -6.8190 C   0  0  0  0  0  0  0  0  0  0  0  0
   -7.3825    4.8965   -8.3152 C   0  0  0  0  0  0  0  0  0  0  0  0
   -6.6041    5.7160   -9.1338 C   0  0  0  0  0  0  0  0  0  0  0  0
   -6.6536    5.5711  -10.5170 C   0  0  0  0  0  0  0  0  0  0  0  0
   -7.4827    4.6139  -11.1033 C   0  0  0  0  0  0  0  0  0  0  0  0
   -8.2918    3.8100  -10.3076 C   0  0  0  0  0  0  0  0  0  0  0  0
   -8.2379    3.9451   -8.9144 C   0  0  0  0  0  0  0  0  0  0  0  0
   -9.0428    3.0856   -8.0817 C   0  0  0  0  0  0  0  0  0  0  0  0
   -9.0272    1.7822   -8.0102 N   0  0  0  0  0  0  0  0  0  0  0  0
   -9.7220    1.4466   -6.8739 N   0  0  0  0  0  0  0  0  0  0  0  0
  -10.2356    2.5170   -6.2984 N   0  0  0  0  0  0  0  0  0  0  0  0
   -9.8536    3.5181   -7.0909 N   0  0  0  0  0  0  0  0  0  0  0  0
  -10.1279    4.4558   -6.9696 H   0  0  0  0  0  0  0  0  0  0  0  0
   -5.2204    5.0306  -17.9400 C   0  0  0  0  0  0  0  0  0  0  0  0
   -3.9263    4.4496  -17.6112 N   0  0  0  0  0  0  0  0  0  0  0  0
   -3.6128    4.8065  -16.7085 H   0  0  0  0  0  0  0  0  0  0  0  0
   -3.2481    4.7010  -18.3304 H   0  0  0  0  0  0  0  0  0  0  0  0
 20 21  1  0  0  0
 21 22  2  0  0  0
 22 23  1  0  0  0
 23 24  2  0  0  0
 24 16  1  0  0  0
 16 17  1  0  0  0
 17 18  2  0  0  0
  1 17  1  0  0  0
  1  2  1  0  0  0
  2  3  1  0  0  0
  3  4  1  0  0  0
  3  5  1  0  0  0
  5  6  1  0  0  0
  6 33  1  0  0  0
 33 34  1  0  0  0
  6  7  1  0  0  0
  7  8  1  0  0  0
  8  9  1  0  0  0
  9 10  1  0  0  0
 10 11  1  0  0  0
 10 12  1  0  0  0
 12 13  1  0  0  0
 12 14  1  0  0  0
 24 25  1  0  0  0
 25 26  2  0  0  0
 26 27  1  0  0  0
 27 28  2  0  0  0
 28 29  1  0  0  0
 29 30  2  0  0  0
 30 31  1  0  0  0
 26 21  1  0  0  0
 31 27  1  0  0  0
  7  1  1  0  0  0
 14  7  1  0  0  0
 16 19  1  0  0  0
 34 35  1  0  0  0
 34 36  1  0  0  0
  9 15  1  0  0  0
 31 32  1  0  0  0
M  END
> <minimizedAffinity>
-7.44497

> <minimizedRMSD>
1.36399

$$$$
P16505


 36 40  0  0  0  0  0  0  0  0999 V2000
   -7.3439    7.0180  -11.9091 N   0  0  0  0  0  0  0  0  0  0  0  0
   -7.9975    5.9614  -11.1064 C   0  0  0  0  0  0  0  0  0  0  0  0
   -8.3962    4.6151  -11.8196 C   0  0  0  0  0  0  0  0  0  0  0  0
   -8.1339    3.3448  -11.0119 C   0  0  0  0  0  0  0  0  0  0  0  0
   -8.7073    3.5414   -9.6161 C   0  0  0  0  0  0  0  0  0  0  0  0
   -8.4803    2.4029   -8.6432 C   0  0  0  0  0  0  0  0  0  0  0  0
   -8.4817    3.0876   -7.3425 N   0  0  0  0  0  0  0  0  0  0  0  0
   -7.6731    4.2924   -7.5590 C   0  0  0  0  0  0  0  0  0  0  0  0
   -8.1887    4.7955   -8.8983 C   0  0  0  0  0  0  0  0  0  0  0  0
   -7.2996    5.7342   -9.7340 C   0  0  0  0  0  0  0  0  0  0  0  0
   -7.8379    7.1266  -12.7948 H   0  0  0  0  0  0  0  0  0  0  0  0
   -6.3747    6.7568  -12.0901 H   0  0  0  0  0  0  0  0  0  0  0  0
   -8.0629    2.4970   -6.6240 H   0  0  0  0  0  0  0  0  0  0  0  0
   -5.8620    5.3401   -9.8886 C   0  0  0  0  0  0  0  0  0  0  0  0
   -5.2217    4.2525   -9.5144 N   0  0  0  0  0  0  0  0  0  0  0  0
   -3.9022    4.4419   -9.8487 N   0  0  0  0  0  0  0  0  0  0  0  0
   -3.7219    5.6234  -10.4203 N   0  0  0  0  0  0  0  0  0  0  0  0
   -4.9409    6.1738  -10.4634 N   0  0  0  0  0  0  0  0  0  0  0  0
   -5.1462    7.0542  -10.8534 H   0  0  0  0  0  0  0  0  0  0  0  0
   -8.1724    4.4257  -13.2368 N   0  0  0  0  0  0  0  0  0  0  0  0
   -6.9054    4.6402  -14.0887 C   0  0  0  0  0  0  0  0  0  0  0  0
   -5.8210    4.9296  -13.7711 O   0  0  0  0  0  0  0  0  0  0  0  0
   -8.9574    4.1079  -13.7389 H   0  0  0  0  0  0  0  0  0  0  0  0
   -7.2173    4.5377  -15.5427 C   0  0  0  0  0  0  0  0  0  0  0  0
   -8.5528    4.3997  -15.9630 C   0  0  0  0  0  0  0  0  0  0  0  0
   -8.8889    4.4220  -17.3068 C   0  0  0  0  0  0  0  0  0  0  0  0
  -10.5294    4.4152  -17.7647 Cl  0  0  0  0  0  0  0  0  0  0  0  0
   -7.9306    4.5709  -18.2897 C   0  0  0  0  0  0  0  0  0  0  0  0
   -6.6197    4.7927  -17.8628 C   0  0  0  0  0  0  0  0  0  0  0  0
   -6.2384    4.7880  -16.5243 C   0  0  0  0  0  0  0  0  0  0  0  0
   -4.8558    5.0808  -16.5695 C   0  0  0  0  0  0  0  0  0  0  0  0
   -4.4027    5.2679  -17.8148 N   0  0  0  0  0  0  0  0  0  0  0  0
   -5.4827    5.0580  -18.5742 N   0  0  0  0  0  0  0  0  0  0  0  0
   -5.4441    5.1286  -19.9522 N   0  0  0  0  0  0  0  0  0  0  0  0
   -4.4929    5.3374  -20.2554 H   0  0  0  0  0  0  0  0  0  0  0  0
   -6.0725    5.8654  -20.2726 H   0  0  0  0  0  0  0  0  0  0  0  0
  2  1  1  0  0  0
  2  3  1  0  0  0
  3 20  1  0  0  0
 20 21  1  0  0  0
 21 22  2  0  0  0
 21 24  1  0  0  0
 24 25  2  0  0  0
 25 26  1  0  0  0
 26 27  1  0  0  0
 26 28  2  0  0  0
 28 29  1  0  0  0
 29 30  2  0  0  0
 30 31  1  0  0  0
 31 32  2  0  0  0
 32 33  1  0  0  0
 33 34  1  0  0  0
  3  4  1  0  0  0
  5  4  1  0  0  0
  5  6  1  0  0  0
  6  7  1  0  0  0
  7  8  1  0  0  0
  9  8  1  0  0  0
  9 10  1  0  0  0
 10 14  1  0  0  0
 14 15  2  0  0  0
 15 16  1  0  0  0
 16 17  2  0  0  0
 17 18  1  0  0  0
 10  2  1  0  0  0
 18 14  1  0  0  0
 30 24  1  0  0  0
  9  5  1  0  0  0
 33 29  1  0  0  0
  1 11  1  0  0  0
  1 12  1  0  0  0
 20 23  1  0  0  0
 34 35  1  0  0  0
 34 36  1  0  0  0
  7 13  1  0  0  0
 18 19  1  0  0  0
M  END
> <minimizedAffinity>
-8.00429

> <minimizedRMSD>
0.30751

$$$$
P16529


 42 45  0  0  0  0  0  0  0  0999 V2000
   -7.5188    5.1767  -13.6631 C   0  0  0  0  0  0  0  0  0  0  0  0
   -6.1883    5.0112  -13.1815 O   0  0  0  0  0  0  0  0  0  0  0  0
   -5.5942    5.6098  -13.6607 H   0  0  0  0  0  0  0  0  0  0  0  0
   -6.4165    5.0398  -16.0380 C   0  0  0  0  0  0  0  0  0  0  0  0
   -6.5236    4.8205  -17.4359 C   0  0  0  0  0  0  0  0  0  0  0  0
   -7.7519    4.4354  -17.9844 C   0  0  0  0  0  0  0  0  0  0  0  0
   -8.8562    4.2665  -17.1730 C   0  0  0  0  0  0  0  0  0  0  0  0
  -10.3621    3.9369  -17.9307 Cl  0  0  0  0  0  0  0  0  0  0  0  0
   -8.7544    4.4421  -15.7927 C   0  0  0  0  0  0  0  0  0  0  0  0
   -7.5426    4.8393  -15.1825 C   0  0  0  0  0  0  0  0  0  0  0  0
   -5.3705    4.9991  -18.3824 C   0  0  0  0  0  0  0  0  0  0  0  0
   -5.7430    4.7969  -19.7803 N   0  0  0  0  0  0  0  0  0  0  0  0
   -6.0739    3.8407  -19.9091 H   0  0  0  0  0  0  0  0  0  0  0  0
   -4.9306    4.9587  -20.3755 H   0  0  0  0  0  0  0  0  0  0  0  0
   -5.1389    5.4106  -15.4981 N   0  0  0  0  0  0  0  0  0  0  0  0
   -4.8585    6.3439  -15.3585 H   0  0  0  0  0  0  0  0  0  0  0  0
   -3.0305    4.7797  -14.6895 C   0  0  0  0  0  0  0  0  0  0  0  0
   -4.3152    4.2834  -15.1838 N   0  0  0  0  0  0  0  0  0  0  0  0
   -4.7657    3.7162  -14.4656 H   0  0  0  0  0  0  0  0  0  0  0  0
   -8.2779    4.2330  -12.8661 N   0  0  0  0  0  0  0  0  0  0  0  0
   -7.8195    3.3275  -12.9679 H   0  0  0  0  0  0  0  0  0  0  0  0
   -8.4555    4.4571  -11.4265 C   0  0  0  0  0  0  0  0  0  0  0  0
   -8.7027    3.0868  -10.7532 C   0  0  0  0  0  0  0  0  0  0  0  0
   -8.9988    3.3053   -9.2793 C   0  0  0  0  0  0  0  0  0  0  0  0
   -9.1627    2.0903   -8.3879 C   0  0  0  0  0  0  0  0  0  0  0  0
   -9.0673    2.6454   -7.0178 N   0  0  0  0  0  0  0  0  0  0  0  0
   -8.3655    3.9453   -7.1165 C   0  0  0  0  0  0  0  0  0  0  0  0
   -7.8746    4.0104   -8.5551 C   0  0  0  0  0  0  0  0  0  0  0  0
   -7.4638    5.3377   -9.1757 C   0  0  0  0  0  0  0  0  0  0  0  0
   -7.2919    5.1760  -10.6980 C   0  0  0  0  0  0  0  0  0  0  0  0
   -8.5406    2.0090   -6.4195 H   0  0  0  0  0  0  0  0  0  0  0  0
   -8.2518    6.5347   -8.7526 C   0  0  0  0  0  0  0  0  0  0  0  0
   -8.1039    7.1738   -7.6074 N   0  0  0  0  0  0  0  0  0  0  0  0
   -8.9268    8.2679   -7.6619 N   0  0  0  0  0  0  0  0  0  0  0  0
   -9.5616    8.3237   -8.8212 N   0  0  0  0  0  0  0  0  0  0  0  0
   -9.1541    7.2432   -9.4991 N   0  0  0  0  0  0  0  0  0  0  0  0
   -9.4588    6.9950  -10.4018 H   0  0  0  0  0  0  0  0  0  0  0  0
   -7.7179    6.6918  -13.5023 C   0  0  0  0  0  0  0  0  0  0  0  0
   -9.0738    7.2133  -13.1914 C   0  0  0  0  0  0  0  0  0  0  0  0
   -9.2930    8.0632  -12.3412 O   0  0  0  0  0  0  0  0  0  0  0  0
  -10.0474    6.7541  -13.9847 O   0  0  0  0  0  0  0  0  0  0  0  0
   -9.8573    6.1021  -14.6303 H   0  0  0  0  0  0  0  0  0  0  0  0
 17 18  1  0  0  0
 18 15  1  0  0  0
 15  4  1  0  0  0
  4  5  2  0  0  0
  5 11  1  0  0  0
 11 12  1  0  0  0
  5  6  1  0  0  0
  6  7  2  0  0  0
  7  8  1  0  0  0
  7  9  1  0  0  0
  9 10  2  0  0  0
 10  1  1  0  0  0
  1  2  1  0  0  0
  1 38  1  0  0  0
 38 39  1  0  0  0
 39 40  2  0  0  0
 39 41  1  0  0  0
  1 20  1  0  0  0
 22 20  1  0  0  0
 22 23  1  0  0  0
 24 23  1  0  0  0
 24 25  1  0  0  0
 25 26  1  0  0  0
 26 27  1  0  0  0
 28 27  1  0  0  0
 28 29  1  0  0  0
 29 32  1  0  0  0
 32 33  2  0  0  0
 33 34  1  0  0  0
 34 35  2  0  0  0
 35 36  1  0  0  0
 29 30  1  0  0  0
 10  4  1  0  0  0
 30 22  1  0  0  0
 28 24  1  0  0  0
 36 32  1  0  0  0
 18 19  1  0  0  0
 15 16  1  0  0  0
 12 13  1  0  0  0
 12 14  1  0  0  0
  2  3  1  0  0  0
 41 42  1  0  0  0
 20 21  1  0  0  0
 26 31  1  0  0  0
 36 37  1  0  0  0
M  END
> <minimizedAffinity>
-7.78637

> <minimizedRMSD>
0.32113

$$$$
P16535


 42 48  0  0  0  0  0  0  0  0999 V2000
   -7.6251    4.2520  -15.5123 C   0  0  0  0  0  0  0  0  0  0  0  0
   -8.8792    4.1549  -16.1084 C   0  0  0  0  0  0  0  0  0  0  0  0
   -9.0001    4.4136  -17.4695 C   0  0  0  0  0  0  0  0  0  0  0  0
  -10.5302    4.1944  -18.2314 Cl  0  0  0  0  0  0  0  0  0  0  0  0
   -7.9013    4.8529  -18.2228 C   0  0  0  0  0  0  0  0  0  0  0  0
   -6.6247    5.0170  -17.6451 C   0  0  0  0  0  0  0  0  0  0  0  0
   -6.5008    4.6363  -16.2784 C   0  0  0  0  0  0  0  0  0  0  0  0
   -5.2197    4.7523  -15.6515 N   0  0  0  0  0  0  0  0  0  0  0  0
   -4.0964    4.6399  -16.4824 N   0  0  0  0  0  0  0  0  0  0  0  0
   -4.1401    5.7189  -17.4607 C   0  0  0  0  0  0  0  0  0  0  0  0
   -5.3138    5.5506  -18.4537 C   0  0  0  0  0  0  0  0  0  0  0  0
   -4.9735    4.8555  -19.8130 C   0  0  0  0  0  0  0  0  0  0  0  0
   -4.6642    6.1865  -20.4238 N   0  0  0  0  0  0  0  0  0  0  0  0
   -5.4241    6.8266  -19.3271 C   0  0  0  0  0  0  0  0  0  0  0  0
   -5.1315    4.9038  -14.6828 H   0  0  0  0  0  0  0  0  0  0  0  0
   -4.1105    3.7395  -16.9613 H   0  0  0  0  0  0  0  0  0  0  0  0
   -3.1918    6.3927  -20.4819 C   0  0  0  0  0  0  0  0  0  0  0  0
   -2.6837    5.7298  -21.7792 C   0  0  0  0  0  0  0  0  0  0  0  0
   -2.9870    6.5832  -23.0043 C   0  0  0  0  0  0  0  0  0  0  0  0
   -2.4309    7.8931  -22.8678 O   0  0  0  0  0  0  0  0  0  0  0  0
   -2.9778    8.5829  -21.7466 C   0  0  0  0  0  0  0  0  0  0  0  0
   -2.6623    7.8384  -20.4629 C   0  0  0  0  0  0  0  0  0  0  0  0
   -6.5070    3.1754  -13.8377 O   0  0  0  0  0  0  0  0  0  0  0  0
   -7.4111    3.8675  -14.0842 C   0  0  0  0  0  0  0  0  0  0  0  0
   -8.4129    4.5670  -13.1528 N   0  0  0  0  0  0  0  0  0  0  0  0
   -9.1419    5.0417  -13.6138 H   0  0  0  0  0  0  0  0  0  0  0  0
   -8.4597    4.6419  -11.7079 C   0  0  0  0  0  0  0  0  0  0  0  0
   -8.7129    3.2723  -11.0477 C   0  0  0  0  0  0  0  0  0  0  0  0
   -8.3417    3.2810   -9.5617 C   0  0  0  0  0  0  0  0  0  0  0  0
   -9.2662    2.5515   -8.6019 C   0  0  0  0  0  0  0  0  0  0  0  0
   -9.0973    3.2338   -7.3065 N   0  0  0  0  0  0  0  0  0  0  0  0
   -8.2619    4.4208   -7.4950 C   0  0  0  0  0  0  0  0  0  0  0  0
   -8.3331    4.6880   -8.9854 C   0  0  0  0  0  0  0  0  0  0  0  0
   -7.2096    5.5068   -9.6154 C   0  0  0  0  0  0  0  0  0  0  0  0
   -7.1940    5.3240  -11.1548 C   0  0  0  0  0  0  0  0  0  0  0  0
   -8.6481    2.6018   -6.6437 H   0  0  0  0  0  0  0  0  0  0  0  0
   -7.2505    6.9535   -9.2449 C   0  0  0  0  0  0  0  0  0  0  0  0
   -6.2531    7.6861   -8.7920 N   0  0  0  0  0  0  0  0  0  0  0  0
   -6.7407    8.9631   -8.6620 N   0  0  0  0  0  0  0  0  0  0  0  0
   -8.0111    9.0253   -9.0320 N   0  0  0  0  0  0  0  0  0  0  0  0
   -8.3367    7.7731   -9.3732 N   0  0  0  0  0  0  0  0  0  0  0  0
   -9.2288    7.4843   -9.6730 H   0  0  0  0  0  0  0  0  0  0  0  0
 23 24  2  0  0  0
 24 25  1  0  0  0
 27 25  1  0  0  0
 27 28  1  0  0  0
 29 28  1  0  0  0
 29 30  1  0  0  0
 30 31  1  0  0  0
 31 32  1  0  0  0
 33 32  1  0  0  0
 33 34  1  0  0  0
 34 37  1  0  0  0
 37 38  2  0  0  0
 38 39  1  0  0  0
 39 40  2  0  0  0
 40 41  1  0  0  0
 34 35  1  0  0  0
 24  1  1  0  0  0
  1  2  2  0  0  0
  2  3  1  0  0  0
  3  4  1  0  0  0
  3  5  2  0  0  0
  5  6  1  0  0  0
  6  7  2  0  0  0
  7  8  1  0  0  0
  8  9  1  0  0  0
  9 10  1  0  0  0
 10 11  1  0  0  0
 11 12  1  0  0  0
 12 13  1  0  0  0
 13 17  1  0  0  0
 17 18  1  0  0  0
 18 19  1  0  0  0
 19 20  1  0  0  0
 20 21  1  0  0  0
 21 22  1  0  0  0
 13 14  1  0  0  0
 35 27  1  0  0  0
  7  1  1  0  0  0
 14 11  1  0  0  0
 33 29  1  0  0  0
 41 37  1  0  0  0
 11  6  1  0  0  0
 22 17  1  0  0  0
 25 26  1  0  0  0
 31 36  1  0  0  0
 41 42  1  0  0  0
  8 15  1  0  0  0
  9 16  1  0  0  0
M  END
> <minimizedAffinity>
-9.16595

> <minimizedRMSD>
0.90215

$$$$
P16547


 38 41  0  0  0  0  0  0  0  0999 V2000
   -6.8580    5.0635  -14.7358 C   0  0  0  0  0  0  0  0  0  0  0  0
   -5.8349    5.6228  -14.7676 O   0  0  0  0  0  0  0  0  0  0  0  0
   -7.8023    4.7778  -13.5547 N   0  0  0  0  0  0  0  0  0  0  0  0
   -8.6531    4.3484  -13.8018 H   0  0  0  0  0  0  0  0  0  0  0  0
   -7.6433    5.0373  -12.1405 C   0  0  0  0  0  0  0  0  0  0  0  0
   -8.3340    6.3678  -11.8185 C   0  0  0  0  0  0  0  0  0  0  0  0
   -7.9482    6.8369  -10.4268 C   0  0  0  0  0  0  0  0  0  0  0  0
   -8.9062    7.8730   -9.8620 C   0  0  0  0  0  0  0  0  0  0  0  0
   -8.6137    7.8102   -8.4284 N   0  0  0  0  0  0  0  0  0  0  0  0
   -8.5152    6.3772   -8.1270 C   0  0  0  0  0  0  0  0  0  0  0  0
   -7.8993    5.7206   -9.3727 C   0  0  0  0  0  0  0  0  0  0  0  0
   -8.6274    4.4515   -9.8503 C   0  0  0  0  0  0  0  0  0  0  0  0
   -8.0971    3.9112  -11.1958 C   0  0  0  0  0  0  0  0  0  0  0  0
   -9.3655    8.2398   -7.8893 H   0  0  0  0  0  0  0  0  0  0  0  0
   -8.7669    3.4044   -8.7999 C   0  0  0  0  0  0  0  0  0  0  0  0
   -9.6090    2.3966   -8.8295 N   0  0  0  0  0  0  0  0  0  0  0  0
   -9.6400    1.8713   -7.5677 N   0  0  0  0  0  0  0  0  0  0  0  0
   -8.8273    2.5323   -6.7695 N   0  0  0  0  0  0  0  0  0  0  0  0
   -8.1852    3.3969   -7.5651 N   0  0  0  0  0  0  0  0  0  0  0  0
   -7.4111    3.9443   -7.2997 H   0  0  0  0  0  0  0  0  0  0  0  0
   -6.9052    4.5629  -18.4521 C   0  0  0  0  0  0  0  0  0  0  0  0
   -8.2603    4.3087  -18.6693 C   0  0  0  0  0  0  0  0  0  0  0  0
   -9.1648    4.2607  -17.6082 C   0  0  0  0  0  0  0  0  0  0  0  0
  -10.8358    4.1381  -17.9790 Cl  0  0  0  0  0  0  0  0  0  0  0  0
   -8.7410    4.4195  -16.2909 C   0  0  0  0  0  0  0  0  0  0  0  0
   -7.3840    4.6232  -16.0550 C   0  0  0  0  0  0  0  0  0  0  0  0
   -6.4767    4.6588  -17.1288 C   0  0  0  0  0  0  0  0  0  0  0  0
   -6.0538    4.6318  -19.5539 N   0  0  0  0  0  0  0  0  0  0  0  0
   -6.1243    3.9473  -20.2580 H   0  0  0  0  0  0  0  0  0  0  0  0
   -5.0660    5.6870  -19.6897 C   0  0  0  0  0  0  0  0  0  0  0  0
   -5.5621    6.9788  -20.1543 N   0  0  0  0  0  0  0  0  0  0  0  0
   -5.9299    6.8814  -21.1007 H   0  0  0  0  0  0  0  0  0  0  0  0
   -4.7994    7.6561  -20.1540 H   0  0  0  0  0  0  0  0  0  0  0  0
   -3.9698    5.1820  -20.6543 C   0  0  0  0  0  0  0  0  0  0  0  0
   -2.4819    6.4371  -19.1077 N   0  0  0  0  0  0  0  0  0  0  0  0
   -2.5389    5.4338  -20.1707 C   0  0  0  0  0  0  0  0  0  0  0  0
   -1.5130    6.5712  -18.8185 H   0  0  0  0  0  0  0  0  0  0  0  0
   -3.0338    6.1198  -18.3108 H   0  0  0  0  0  0  0  0  0  0  0  0
 35 36  1  0  0  0
 36 34  1  0  0  0
 34 30  1  0  0  0
 30 31  1  0  0  0
 30 28  1  0  0  0
 28 21  1  0  0  0
 21 22  2  0  0  0
 22 23  1  0  0  0
 23 24  1  0  0  0
 23 25  2  0  0  0
 25 26  1  0  0  0
 26  1  1  0  0  0
  1  2  2  0  0  0
  1  3  1  0  0  0
  5  3  1  0  0  0
  5  6  1  0  0  0
  7  6  1  0  0  0
  7  8  1  0  0  0
  8  9  1  0  0  0
  9 10  1  0  0  0
 11 10  1  0  0  0
 11 12  1  0  0  0
 12 15  1  0  0  0
 15 16  2  0  0  0
 16 17  1  0  0  0
 17 18  2  0  0  0
 18 19  1  0  0  0
 12 13  1  0  0  0
 26 27  2  0  0  0
 27 21  1  0  0  0
 13  5  1  0  0  0
 11  7  1  0  0  0
 19 15  1  0  0  0
 35 37  1  0  0  0
 35 38  1  0  0  0
 31 32  1  0  0  0
 31 33  1  0  0  0
 28 29  1  0  0  0
  3  4  1  0  0  0
  9 14  1  0  0  0
 19 20  1  0  0  0
M  END
> <minimizedAffinity>
-7.68140

> <minimizedRMSD>
0.75914

$$$$
P16556


 34 37  0  0  0  0  0  0  0  0999 V2000
   -7.4807    4.4229  -13.2832 N   0  0  0  0  0  0  0  0  0  0  0  0
   -7.9056    3.5308  -13.5363 H   0  0  0  0  0  0  0  0  0  0  0  0
   -6.9464    4.2830  -11.9117 C   0  0  0  0  0  0  0  0  0  0  0  0
   -7.8179    3.3652  -11.0102 C   0  0  0  0  0  0  0  0  0  0  0  0
   -8.5869    4.0252   -9.8640 C   0  0  0  0  0  0  0  0  0  0  0  0
   -8.0862    5.4044   -9.4132 C   0  0  0  0  0  0  0  0  0  0  0  0
   -6.6265    5.6841   -9.7849 C   0  0  0  0  0  0  0  0  0  0  0  0
   -6.2017    7.0354   -9.1935 C   0  0  0  0  0  0  0  0  0  0  0  0
   -5.7059    6.6891   -7.7873 C   0  0  0  0  0  0  0  0  0  0  0  0
   -5.6081    5.2212   -7.7312 N   0  0  0  0  0  0  0  0  0  0  0  0
   -5.5931    4.7689   -9.1234 C   0  0  0  0  0  0  0  0  0  0  0  0
   -6.5775    5.6535  -11.3069 C   0  0  0  0  0  0  0  0  0  0  0  0
   -6.4116    4.8302   -7.2394 H   0  0  0  0  0  0  0  0  0  0  0  0
   -8.8248    3.1417   -8.6762 C   0  0  0  0  0  0  0  0  0  0  0  0
   -9.6359    2.1089   -8.5871 N   0  0  0  0  0  0  0  0  0  0  0  0
   -9.7653    1.8340   -7.2472 N   0  0  0  0  0  0  0  0  0  0  0  0
   -9.0714    2.6932   -6.5199 N   0  0  0  0  0  0  0  0  0  0  0  0
   -8.3806    3.4139   -7.4100 N   0  0  0  0  0  0  0  0  0  0  0  0
   -7.6596    4.0463   -7.1877 H   0  0  0  0  0  0  0  0  0  0  0  0
   -5.2385    3.9534  -14.2417 C   0  0  0  0  0  0  0  0  0  0  0  0
   -6.5414    4.7781  -14.3513 C   0  0  0  0  0  0  0  0  0  0  0  0
   -6.2520    6.1678  -14.2569 O   0  0  0  0  0  0  0  0  0  0  0  0
   -5.8866    6.3630  -13.3798 H   0  0  0  0  0  0  0  0  0  0  0  0
   -7.1035    4.6257  -15.7722 C   0  0  0  0  0  0  0  0  0  0  0  0
   -8.4523    4.3799  -16.0631 C   0  0  0  0  0  0  0  0  0  0  0  0
   -8.8789    4.3007  -17.3932 C   0  0  0  0  0  0  0  0  0  0  0  0
  -10.5467    4.2197  -17.7843 Cl  0  0  0  0  0  0  0  0  0  0  0  0
   -7.9783    4.3847  -18.4501 C   0  0  0  0  0  0  0  0  0  0  0  0
   -6.6350    4.6453  -18.2061 C   0  0  0  0  0  0  0  0  0  0  0  0
   -6.2372    4.8208  -16.8768 C   0  0  0  0  0  0  0  0  0  0  0  0
   -5.6828    4.8279  -19.3583 C   0  0  0  0  0  0  0  0  0  0  0  0
   -4.2738    4.8097  -18.9484 N   0  0  0  0  0  0  0  0  0  0  0  0
   -4.0964    5.5823  -18.3066 H   0  0  0  0  0  0  0  0  0  0  0  0
   -3.6790    4.9077  -19.7713 H   0  0  0  0  0  0  0  0  0  0  0  0
 21 20  1  0  0  0
 21 22  1  0  0  0
 21  1  1  0  0  0
  3  1  1  0  0  0
  3  4  1  0  0  0
  4  5  1  0  0  0
  5 14  1  0  0  0
 14 15  2  0  0  0
 15 16  1  0  0  0
 16 17  2  0  0  0
 17 18  1  0  0  0
  5  6  1  0  0  0
  7  6  1  0  0  0
  7  8  1  0  0  0
  8  9  1  0  0  0
  9 10  1  0  0  0
 10 11  1  0  0  0
  7 12  1  0  0  0
 21 24  1  0  0  0
 24 25  2  0  0  0
 25 26  1  0  0  0
 26 27  1  0  0  0
 26 28  2  0  0  0
 28 29  1  0  0  0
 29 31  1  0  0  0
 31 32  1  0  0  0
 29 30  2  0  0  0
 12  3  1  0  0  0
 30 24  1  0  0  0
 18 14  1  0  0  0
 11  7  1  0  0  0
 22 23  1  0  0  0
  1  2  1  0  0  0
 18 19  1  0  0  0
 10 13  1  0  0  0
 32 33  1  0  0  0
 32 34  1  0  0  0
M  END
> <minimizedAffinity>
-7.73911

> <minimizedRMSD>
0.40552

$$$$
P16562


 27 30  0  0  0  0  0  0  0  0999 V2000
   -7.2268    4.1342  -13.5923 C   0  0  0  0  0  0  0  0  0  0  0  0
   -5.0296    4.9262  -17.7393 N   0  0  0  0  0  0  0  0  0  0  0  0
   -4.0882    4.9603  -16.7890 N   0  0  0  0  0  0  0  0  0  0  0  0
   -4.7795    4.7119  -15.6756 C   0  0  0  0  0  0  0  0  0  0  0  0
   -6.1736    4.5837  -15.9061 C   0  0  0  0  0  0  0  0  0  0  0  0
   -7.3188    4.3639  -15.1026 C   0  0  0  0  0  0  0  0  0  0  0  0
   -8.5602    4.2972  -15.7863 C   0  0  0  0  0  0  0  0  0  0  0  0
   -8.6536    4.4254  -17.1739 C   0  0  0  0  0  0  0  0  0  0  0  0
  -10.1889    4.3667  -17.9478 Cl  0  0  0  0  0  0  0  0  0  0  0  0
   -7.5243    4.6376  -17.9579 C   0  0  0  0  0  0  0  0  0  0  0  0
   -6.3024    4.7202  -17.2862 C   0  0  0  0  0  0  0  0  0  0  0  0
   -3.3285    4.7925  -19.2275 C   0  0  0  0  0  0  0  0  0  0  0  0
   -4.6652    5.2314  -19.0425 O   0  0  0  0  0  0  0  0  0  0  0  0
   -6.6818    2.7801  -13.3247 C   0  0  0  0  0  0  0  0  0  0  0  0
   -6.1982    1.7384  -13.1436 N   0  0  0  0  0  0  0  0  0  0  0  0
   -8.5298    4.4512  -12.9614 N   0  0  0  0  0  0  0  0  0  0  0  0
   -9.3496    4.6229  -13.4788 H   0  0  0  0  0  0  0  0  0  0  0  0
   -8.4880    4.4843  -11.5470 C   0  0  0  0  0  0  0  0  0  0  0  0
   -8.1046    5.6645  -10.8763 C   0  0  0  0  0  0  0  0  0  0  0  0
   -8.0664    5.7239   -9.4786 C   0  0  0  0  0  0  0  0  0  0  0  0
   -8.4159    4.5920   -8.7669 C   0  0  0  0  0  0  0  0  0  0  0  0
   -8.7569    3.4107   -9.4174 C   0  0  0  0  0  0  0  0  0  0  0  0
   -8.7818    3.3344  -10.8009 C   0  0  0  0  0  0  0  0  0  0  0  0
   -9.0569    2.3624   -8.3941 C   0  0  0  0  0  0  0  0  0  0  0  0
   -9.2682    3.1192   -7.1284 N   0  0  0  0  0  0  0  0  0  0  0  0
   -8.5068    4.3759   -7.2927 C   0  0  0  0  0  0  0  0  0  0  0  0
   -8.9147    2.5890   -6.3319 H   0  0  0  0  0  0  0  0  0  0  0  0
 12 13  1  0  0  0
 13  2  1  0  0  0
  2  3  1  0  0  0
  3  4  2  0  0  0
  4  5  1  0  0  0
  5  6  2  0  0  0
  6  1  1  0  0  0
  1 14  1  0  0  0
 14 15  3  0  0  0
  1 16  1  0  0  0
 16 18  1  0  0  0
 18 19  2  0  0  0
 19 20  1  0  0  0
 20 21  2  0  0  0
 21 22  1  0  0  0
 22 23  2  0  0  0
 22 24  1  0  0  0
 24 25  1  0  0  0
 25 26  1  0  0  0
  6  7  1  0  0  0
  7  8  2  0  0  0
  8  9  1  0  0  0
  8 10  1  0  0  0
 10 11  2  0  0  0
 11  2  1  0  0  0
 11  5  1  0  0  0
 23 18  1  0  0  0
 26 21  1  0  0  0
 16 17  1  0  0  0
 25 27  1  0  0  0
M  END
> <minimizedAffinity>
-8.03769

> <minimizedRMSD>
0.52443

$$$$
P16563


 32 36  0  0  0  0  0  0  0  0999 V2000
   -5.9028    4.8000  -19.2978 C   0  0  0  0  0  0  0  0  0  0  0  0
   -7.2461    4.6077  -19.2715 N   0  0  0  0  0  0  0  0  0  0  0  0
   -7.6375    4.5028  -17.9240 C   0  0  0  0  0  0  0  0  0  0  0  0
   -8.7351    4.3491  -17.0707 C   0  0  0  0  0  0  0  0  0  0  0  0
  -10.2931    4.3321  -17.7359 Cl  0  0  0  0  0  0  0  0  0  0  0  0
   -8.5118    4.2924  -15.6500 C   0  0  0  0  0  0  0  0  0  0  0  0
   -7.2088    4.4026  -15.0191 C   0  0  0  0  0  0  0  0  0  0  0  0
   -6.1485    4.5940  -15.9318 C   0  0  0  0  0  0  0  0  0  0  0  0
   -4.7385    4.8238  -16.0874 C   0  0  0  0  0  0  0  0  0  0  0  0
   -4.3450    4.9737  -17.3849 N   0  0  0  0  0  0  0  0  0  0  0  0
   -5.4831    4.7904  -18.0232 N   0  0  0  0  0  0  0  0  0  0  0  0
   -6.4946    4.6077  -17.2300 C   0  0  0  0  0  0  0  0  0  0  0  0
   -5.1634    4.9505  -20.4312 N   0  0  0  0  0  0  0  0  0  0  0  0
   -5.1049    4.1461  -20.9958 H   0  0  0  0  0  0  0  0  0  0  0  0
   -5.1084    7.4292  -20.5573 C   0  0  0  0  0  0  0  0  0  0  0  0
   -4.4429    6.1126  -20.9446 C   0  0  0  0  0  0  0  0  0  0  0  0
   -2.9431    6.0866  -20.6810 C   0  0  0  0  0  0  0  0  0  0  0  0
   -7.0633    4.4424  -13.4973 C   0  0  0  0  0  0  0  0  0  0  0  0
   -6.0158    3.4911  -13.0256 C   0  0  0  0  0  0  0  0  0  0  0  0
   -5.1589    2.7863  -12.6746 N   0  0  0  0  0  0  0  0  0  0  0  0
   -8.3651    4.2740  -12.8293 N   0  0  0  0  0  0  0  0  0  0  0  0
   -9.1843    4.1278  -13.3554 H   0  0  0  0  0  0  0  0  0  0  0  0
   -8.4147    4.3263  -11.4215 C   0  0  0  0  0  0  0  0  0  0  0  0
   -8.1878    5.5119  -10.6887 C   0  0  0  0  0  0  0  0  0  0  0  0
   -8.1908    5.5265   -9.2883 C   0  0  0  0  0  0  0  0  0  0  0  0
   -8.4868    4.3554   -8.6214 C   0  0  0  0  0  0  0  0  0  0  0  0
   -8.8001    3.2034   -9.3229 C   0  0  0  0  0  0  0  0  0  0  0  0
   -8.7752    3.1730  -10.7109 C   0  0  0  0  0  0  0  0  0  0  0  0
   -9.1466    2.1155   -8.3655 C   0  0  0  0  0  0  0  0  0  0  0  0
   -8.9808    2.6818   -7.0049 N   0  0  0  0  0  0  0  0  0  0  0  0
   -8.5714    4.0910   -7.1585 C   0  0  0  0  0  0  0  0  0  0  0  0
   -8.2635    2.1641   -6.4971 H   0  0  0  0  0  0  0  0  0  0  0  0
 15 16  1  0  0  0
 16 17  1  0  0  0
 16 13  1  0  0  0
 13  1  1  0  0  0
  1  2  2  0  0  0
  2  3  1  0  0  0
  3  4  1  0  0  0
  4  5  1  0  0  0
  4  6  2  0  0  0
  6  7  1  0  0  0
  7 18  1  0  0  0
 18 19  1  0  0  0
 19 20  3  0  0  0
 18 21  1  0  0  0
 21 23  1  0  0  0
 23 24  2  0  0  0
 24 25  1  0  0  0
 25 26  2  0  0  0
 26 27  1  0  0  0
 27 28  2  0  0  0
 27 29  1  0  0  0
 29 30  1  0  0  0
 30 31  1  0  0  0
  7  8  2  0  0  0
  8  9  1  0  0  0
  9 10  2  0  0  0
 10 11  1  0  0  0
 11 12  1  0  0  0
 11  1  1  0  0  0
 12  3  2  0  0  0
 28 23  1  0  0  0
 12  8  1  0  0  0
 31 26  1  0  0  0
 13 14  1  0  0  0
 21 22  1  0  0  0
 30 32  1  0  0  0
M  END
> <minimizedAffinity>
-7.83105

> <minimizedRMSD>
1.23434

$$$$
P16587


 37 41  0  0  0  0  0  0  0  0999 V2000
   -7.2952    4.5515  -15.5057 C   0  0  0  0  0  0  0  0  0  0  0  0
   -8.5544    4.4540  -16.1429 C   0  0  0  0  0  0  0  0  0  0  0  0
   -8.6800    4.4566  -17.5322 C   0  0  0  0  0  0  0  0  0  0  0  0
  -10.2480    4.3839  -18.2333 Cl  0  0  0  0  0  0  0  0  0  0  0  0
   -7.5688    4.5737  -18.3638 C   0  0  0  0  0  0  0  0  0  0  0  0
   -6.3109    4.6784  -17.7546 C   0  0  0  0  0  0  0  0  0  0  0  0
   -6.1637    4.6539  -16.3686 C   0  0  0  0  0  0  0  0  0  0  0  0
   -4.7700    4.7737  -16.1664 C   0  0  0  0  0  0  0  0  0  0  0  0
   -4.0778    4.9040  -17.2912 N   0  0  0  0  0  0  0  0  0  0  0  0
   -5.0322    4.8634  -18.2820 N   0  0  0  0  0  0  0  0  0  0  0  0
   -4.6585    5.0834  -19.6289 C   0  0  0  0  0  0  0  0  0  0  0  0
   -5.4417    4.9758  -20.5603 O   0  0  0  0  0  0  0  0  0  0  0  0
   -7.1514    4.6603  -13.9802 C   0  0  0  0  0  0  0  0  0  0  0  0
   -6.2916    3.5867  -13.5992 O   0  0  0  0  0  0  0  0  0  0  0  0
   -6.1613    3.6023  -12.6381 H   0  0  0  0  0  0  0  0  0  0  0  0
   -5.9890    7.0082  -13.4825 N   0  0  0  0  0  0  0  0  0  0  0  0
   -6.5081    5.9866  -13.6925 C   0  0  0  0  0  0  0  0  0  0  0  0
   -8.4377    4.4660  -13.2888 N   0  0  0  0  0  0  0  0  0  0  0  0
   -9.2745    4.3530  -13.7950 H   0  0  0  0  0  0  0  0  0  0  0  0
   -8.4320    4.4467  -11.8746 C   0  0  0  0  0  0  0  0  0  0  0  0
   -8.5379    3.2079  -11.2066 C   0  0  0  0  0  0  0  0  0  0  0  0
   -8.4980    3.1173   -9.8120 C   0  0  0  0  0  0  0  0  0  0  0  0
   -8.3444    4.2813   -9.0879 C   0  0  0  0  0  0  0  0  0  0  0  0
   -8.2520    5.5120   -9.7237 C   0  0  0  0  0  0  0  0  0  0  0  0
   -8.3040    5.6138  -11.1068 C   0  0  0  0  0  0  0  0  0  0  0  0
   -8.1638    6.5885   -8.6951 C   0  0  0  0  0  0  0  0  0  0  0  0
   -7.9039    5.8923   -7.4052 N   0  0  0  0  0  0  0  0  0  0  0  0
   -8.3060    4.4745   -7.6119 C   0  0  0  0  0  0  0  0  0  0  0  0
   -8.4580    6.3119   -6.6587 H   0  0  0  0  0  0  0  0  0  0  0  0
   -3.3679    5.4969  -19.6830 O   0  0  0  0  0  0  0  0  0  0  0  0
   -2.9208    6.0294  -20.9313 C   0  0  0  0  0  0  0  0  0  0  0  0
   -3.0637    7.5388  -20.9044 C   0  0  0  0  0  0  0  0  0  0  0  0
   -3.3332    8.2410  -22.0885 C   0  0  0  0  0  0  0  0  0  0  0  0
   -3.4189    9.6362  -22.0852 C   0  0  0  0  0  0  0  0  0  0  0  0
   -3.2325   10.3470  -20.9011 C   0  0  0  0  0  0  0  0  0  0  0  0
   -2.9616    9.6646  -19.7186 C   0  0  0  0  0  0  0  0  0  0  0  0
   -2.8730    8.2715  -19.7210 C   0  0  0  0  0  0  0  0  0  0  0  0
 16 17  3  0  0  0
 17 13  1  0  0  0
 13 14  1  0  0  0
 13 18  1  0  0  0
 18 20  1  0  0  0
 20 21  2  0  0  0
 21 22  1  0  0  0
 22 23  2  0  0  0
 23 24  1  0  0  0
 24 25  2  0  0  0
 24 26  1  0  0  0
 26 27  1  0  0  0
 27 28  1  0  0  0
 13  1  1  0  0  0
  1  2  2  0  0  0
  2  3  1  0  0  0
  3  4  1  0  0  0
  3  5  2  0  0  0
  5  6  1  0  0  0
  6  7  2  0  0  0
  7  8  1  0  0  0
  8  9  2  0  0  0
  9 10  1  0  0  0
 10 11  1  0  0  0
 11 12  2  0  0  0
 11 30  1  0  0  0
 30 31  1  0  0  0
 31 32  1  0  0  0
 32 33  2  0  0  0
 33 34  1  0  0  0
 34 35  2  0  0  0
 35 36  1  0  0  0
 36 37  2  0  0  0
 25 20  1  0  0  0
  7  1  1  0  0  0
 37 32  1  0  0  0
 28 23  1  0  0  0
 10  6  1  0  0  0
 14 15  1  0  0  0
 18 19  1  0  0  0
 27 29  1  0  0  0
M  END
> <minimizedAffinity>
-7.31635

> <minimizedRMSD>
0.63358

$$$$
P16590


 29 33  0  0  0  0  0  0  0  0999 V2000
   -6.9728    4.2846  -13.6783 C   0  0  0  0  0  0  0  0  0  0  0  0
   -6.1894    5.3466  -13.1240 O   0  0  0  0  0  0  0  0  0  0  0  0
   -6.1686    5.2628  -12.1579 H   0  0  0  0  0  0  0  0  0  0  0  0
   -6.9222    4.5340  -15.1778 C   0  0  0  0  0  0  0  0  0  0  0  0
   -8.0735    4.4631  -16.0601 C   0  0  0  0  0  0  0  0  0  0  0  0
   -8.0014    4.5442  -17.4941 C   0  0  0  0  0  0  0  0  0  0  0  0
   -9.3800    4.4764  -18.4743 Cl  0  0  0  0  0  0  0  0  0  0  0  0
   -6.7521    4.6907  -18.0996 C   0  0  0  0  0  0  0  0  0  0  0  0
   -6.0832    4.7534  -19.3359 N   0  0  0  0  0  0  0  0  0  0  0  0
   -4.7775    4.9514  -19.0560 C   0  0  0  0  0  0  0  0  0  0  0  0
   -4.6252    4.9537  -17.7458 N   0  0  0  0  0  0  0  0  0  0  0  0
   -3.6200    5.0734  -16.9074 N   0  0  0  0  0  0  0  0  0  0  0  0
   -4.2749    4.9306  -15.7090 C   0  0  0  0  0  0  0  0  0  0  0  0
   -5.6989    4.7620  -15.8467 C   0  0  0  0  0  0  0  0  0  0  0  0
   -5.7791    4.8044  -17.1828 C   0  0  0  0  0  0  0  0  0  0  0  0
   -5.7877    1.9478  -13.2035 N   0  0  0  0  0  0  0  0  0  0  0  0
   -6.3182    2.9605  -13.4156 C   0  0  0  0  0  0  0  0  0  0  0  0
   -8.3471    4.3693  -13.1427 N   0  0  0  0  0  0  0  0  0  0  0  0
   -9.1399    4.4366  -13.7225 H   0  0  0  0  0  0  0  0  0  0  0  0
   -8.4343    4.3460  -11.7250 C   0  0  0  0  0  0  0  0  0  0  0  0
   -8.6161    3.1242  -11.0448 C   0  0  0  0  0  0  0  0  0  0  0  0
   -8.6464    3.0660   -9.6491 C   0  0  0  0  0  0  0  0  0  0  0  0
   -8.4782    4.2408   -8.9434 C   0  0  0  0  0  0  0  0  0  0  0  0
   -8.2976    5.4543   -9.5977 C   0  0  0  0  0  0  0  0  0  0  0  0
   -8.2744    5.5261  -10.9823 C   0  0  0  0  0  0  0  0  0  0  0  0
   -8.2080    6.5446   -8.5842 C   0  0  0  0  0  0  0  0  0  0  0  0
   -8.0295    5.8621   -7.2740 N   0  0  0  0  0  0  0  0  0  0  0  0
   -8.4960    4.4626   -7.4708 C   0  0  0  0  0  0  0  0  0  0  0  0
   -8.5874    6.3235   -6.5556 H   0  0  0  0  0  0  0  0  0  0  0  0
 16 17  3  0  0  0
 17  1  1  0  0  0
  1  2  1  0  0  0
  1 18  1  0  0  0
 18 20  1  0  0  0
 20 21  2  0  0  0
 21 22  1  0  0  0
 22 23  2  0  0  0
 23 24  1  0  0  0
 24 25  2  0  0  0
 24 26  1  0  0  0
 26 27  1  0  0  0
 27 28  1  0  0  0
  1  4  1  0  0  0
  4  5  2  0  0  0
  5  6  1  0  0  0
  6  7  1  0  0  0
  6  8  2  0  0  0
  8  9  1  0  0  0
  9 10  2  0  0  0
 10 11  1  0  0  0
 11 12  1  0  0  0
 12 13  2  0  0  0
 13 14  1  0  0  0
 14 15  2  0  0  0
 25 20  1  0  0  0
 14  4  1  0  0  0
 28 23  1  0  0  0
 15  8  1  0  0  0
 15 11  1  0  0  0
  2  3  1  0  0  0
 18 19  1  0  0  0
 27 29  1  0  0  0
M  END
> <minimizedAffinity>
-7.55352

> <minimizedRMSD>
0.69953

$$$$
P16601


 34 36  0  0  0  0  0  0  0  0999 V2000
   -6.6985    4.2868  -13.8516 C   0  0  0  0  0  0  0  0  0  0  0  0
   -6.1009    5.4639  -13.2946 O   0  0  0  0  0  0  0  0  0  0  0  0
   -6.1577    5.4284  -12.3269 H   0  0  0  0  0  0  0  0  0  0  0  0
   -6.5447    4.4636  -15.3914 C   0  0  0  0  0  0  0  0  0  0  0  0
   -7.6633    4.4119  -16.2454 C   0  0  0  0  0  0  0  0  0  0  0  0
   -7.5446    4.5712  -17.6475 C   0  0  0  0  0  0  0  0  0  0  0  0
   -6.2961    4.7745  -18.2172 C   0  0  0  0  0  0  0  0  0  0  0  0
   -5.1877    4.8887  -17.4083 C   0  0  0  0  0  0  0  0  0  0  0  0
   -5.2968    4.7951  -16.0082 C   0  0  0  0  0  0  0  0  0  0  0  0
   -8.7234    4.6129  -18.5863 C   0  0  0  0  0  0  0  0  0  0  0  0
   -9.9626    4.0707  -17.9430 C   0  0  0  0  0  0  0  0  0  0  0  0
  -11.1294    4.8657  -18.2553 N   0  0  0  0  0  0  0  0  0  0  0  0
  -10.9985    5.8144  -17.9041 H   0  0  0  0  0  0  0  0  0  0  0  0
  -11.9511    4.4509  -17.8159 H   0  0  0  0  0  0  0  0  0  0  0  0
   -4.0239    5.1073  -15.2545 C   0  0  0  0  0  0  0  0  0  0  0  0
   -3.8666    6.5566  -15.0308 N   0  0  0  0  0  0  0  0  0  0  0  0
   -3.4384    6.7887  -13.6721 N   0  0  0  0  0  0  0  0  0  0  0  0
   -4.7588    7.0244  -15.1909 H   0  0  0  0  0  0  0  0  0  0  0  0
   -2.5462    6.3208  -13.5122 H   0  0  0  0  0  0  0  0  0  0  0  0
   -4.1368    6.4183  -13.0276 H   0  0  0  0  0  0  0  0  0  0  0  0
   -5.4471    2.0708  -13.0330 N   0  0  0  0  0  0  0  0  0  0  0  0
   -6.0017    3.0341  -13.3855 C   0  0  0  0  0  0  0  0  0  0  0  0
   -8.1159    4.2713  -13.3970 N   0  0  0  0  0  0  0  0  0  0  0  0
   -8.8757    4.2196  -14.0209 H   0  0  0  0  0  0  0  0  0  0  0  0
   -8.2811    4.3378  -11.9804 C   0  0  0  0  0  0  0  0  0  0  0  0
   -8.5386    3.1539  -11.2562 C   0  0  0  0  0  0  0  0  0  0  0  0
   -8.6464    3.1529   -9.8600 C   0  0  0  0  0  0  0  0  0  0  0  0
   -8.4924    4.3500   -9.1910 C   0  0  0  0  0  0  0  0  0  0  0  0
   -8.2727    5.5316   -9.8852 C   0  0  0  0  0  0  0  0  0  0  0  0
   -8.1865    5.5469  -11.2703 C   0  0  0  0  0  0  0  0  0  0  0  0
   -8.2084    6.6632   -8.9174 C   0  0  0  0  0  0  0  0  0  0  0  0
   -8.1008    6.0374   -7.5703 N   0  0  0  0  0  0  0  0  0  0  0  0
   -8.5677    4.6321   -7.7312 C   0  0  0  0  0  0  0  0  0  0  0  0
   -8.6908    6.5324   -6.9015 H   0  0  0  0  0  0  0  0  0  0  0  0
 21 22  3  0  0  0
 22  1  1  0  0  0
  1  2  1  0  0  0
  1 23  1  0  0  0
 23 25  1  0  0  0
 25 26  2  0  0  0
 26 27  1  0  0  0
 27 28  2  0  0  0
 28 29  1  0  0  0
 29 30  2  0  0  0
 29 31  1  0  0  0
 31 32  1  0  0  0
 32 33  1  0  0  0
  1  4  1  0  0  0
  4  5  2  0  0  0
  5  6  1  0  0  0
  6 10  1  0  0  0
 10 11  1  0  0  0
 11 12  1  0  0  0
  6  7  2  0  0  0
  7  8  1  0  0  0
  8  9  2  0  0  0
  9 15  1  0  0  0
 15 16  1  0  0  0
 16 17  1  0  0  0
 30 25  1  0  0  0
  9  4  1  0  0  0
 33 28  1  0  0  0
  2  3  1  0  0  0
 23 24  1  0  0  0
 32 34  1  0  0  0
 12 13  1  0  0  0
 12 14  1  0  0  0
 16 18  1  0  0  0
 17 19  1  0  0  0
 17 20  1  0  0  0
M  END
> <minimizedAffinity>
-7.05824

> <minimizedRMSD>
1.15249

$$$$
P16610


 34 38  0  0  0  0  0  0  0  0999 V2000
   -7.0521    4.6093  -13.8066 C   0  0  0  0  0  0  0  0  0  0  0  0
   -7.0857    4.5370  -15.3404 C   0  0  0  0  0  0  0  0  0  0  0  0
   -8.2988    4.4489  -16.1358 C   0  0  0  0  0  0  0  0  0  0  0  0
   -8.3115    4.4834  -17.5621 C   0  0  0  0  0  0  0  0  0  0  0  0
   -9.7998    4.3862  -18.4024 Cl  0  0  0  0  0  0  0  0  0  0  0  0
   -7.1122    4.6244  -18.2147 C   0  0  0  0  0  0  0  0  0  0  0  0
   -6.5431    4.8273  -19.4885 N   0  0  0  0  0  0  0  0  0  0  0  0
   -5.1402    5.0852  -19.4085 C   0  0  0  0  0  0  0  0  0  0  0  0
   -4.3215    5.4712  -20.2193 O   0  0  0  0  0  0  0  0  0  0  0  0
   -4.8792    4.8899  -18.0468 N   0  0  0  0  0  0  0  0  0  0  0  0
   -3.8419    4.9870  -17.2016 N   0  0  0  0  0  0  0  0  0  0  0  0
   -4.4551    4.8031  -15.9992 C   0  0  0  0  0  0  0  0  0  0  0  0
   -5.8822    4.6460  -16.0887 C   0  0  0  0  0  0  0  0  0  0  0  0
   -6.0339    4.6712  -17.4165 C   0  0  0  0  0  0  0  0  0  0  0  0
   -7.0510    4.7951  -20.3312 H   0  0  0  0  0  0  0  0  0  0  0  0
   -6.0530    7.0362  -13.4440 N   0  0  0  0  0  0  0  0  0  0  0  0
   -6.4391    5.9397  -13.5052 C   0  0  0  0  0  0  0  0  0  0  0  0
   -6.1117    3.4912  -13.3121 C   0  0  0  0  0  0  0  0  0  0  0  0
   -5.0848    3.6559  -12.6545 O   0  0  0  0  0  0  0  0  0  0  0  0
   -8.4286    4.4150  -13.2312 N   0  0  0  0  0  0  0  0  0  0  0  0
   -9.2350    4.3148  -13.7870 H   0  0  0  0  0  0  0  0  0  0  0  0
   -8.4562    4.3894  -11.8113 C   0  0  0  0  0  0  0  0  0  0  0  0
   -8.5438    3.1587  -11.1253 C   0  0  0  0  0  0  0  0  0  0  0  0
   -8.5077    3.0980   -9.7291 C   0  0  0  0  0  0  0  0  0  0  0  0
   -8.3911    4.2828   -9.0297 C   0  0  0  0  0  0  0  0  0  0  0  0
   -8.3047    5.5041   -9.6895 C   0  0  0  0  0  0  0  0  0  0  0  0
   -8.3291    5.5743  -11.0749 C   0  0  0  0  0  0  0  0  0  0  0  0
   -8.1715    6.5942   -8.6788 C   0  0  0  0  0  0  0  0  0  0  0  0
   -9.1513    7.6303   -8.8238 N   0  0  0  0  0  0  0  0  0  0  0  0
   -8.4606    5.9829   -7.3821 N   0  0  0  0  0  0  0  0  0  0  0  0
   -8.3249    4.5151   -7.5600 C   0  0  0  0  0  0  0  0  0  0  0  0
  -10.0848    7.2322   -8.7215 H   0  0  0  0  0  0  0  0  0  0  0  0
   -9.0624    8.0557   -9.7466 H   0  0  0  0  0  0  0  0  0  0  0  0
   -9.4094    6.2148   -7.0883 H   0  0  0  0  0  0  0  0  0  0  0  0
 16 17  3  0  0  0
  1 17  1  0  0  0
  1 18  1  0  0  0
 18 19  2  0  0  0
  1 20  1  0  0  0
 20 22  1  0  0  0
 22 23  2  0  0  0
 23 24  1  0  0  0
 24 25  2  0  0  0
 25 26  1  0  0  0
 26 27  2  0  0  0
 26 28  1  0  0  0
 28 29  1  0  0  0
 28 30  1  0  0  0
 30 31  1  0  0  0
  1  2  1  0  0  0
  2  3  2  0  0  0
  3  4  1  0  0  0
  4  5  1  0  0  0
  4  6  2  0  0  0
  6  7  1  0  0  0
  7  8  1  0  0  0
  8  9  2  0  0  0
  8 10  1  0  0  0
 10 11  1  0  0  0
 11 12  2  0  0  0
 12 13  1  0  0  0
 13 14  2  0  0  0
 27 22  1  0  0  0
 13  2  1  0  0  0
 31 25  1  0  0  0
 14  6  1  0  0  0
 14 10  1  0  0  0
 20 21  1  0  0  0
 29 32  1  0  0  0
 29 33  1  0  0  0
 30 34  1  0  0  0
  7 15  1  0  0  0
M  END
> <minimizedAffinity>
-7.83662

> <minimizedRMSD>
0.50208

$$$$
P16613


 30 34  0  0  0  0  0  0  0  0999 V2000
   -6.9233    4.7930  -13.4976 C   0  0  0  0  0  0  0  0  0  0  0  0
   -6.6980    6.1848  -13.3198 O   0  0  0  0  0  0  0  0  0  0  0  0
   -6.6798    6.3910  -12.3722 H   0  0  0  0  0  0  0  0  0  0  0  0
   -6.9296    4.6016  -15.0179 C   0  0  0  0  0  0  0  0  0  0  0  0
   -8.2460    4.3924  -15.7395 C   0  0  0  0  0  0  0  0  0  0  0  0
   -8.4080    4.3932  -17.0925 C   0  0  0  0  0  0  0  0  0  0  0  0
   -9.9468    4.2865  -17.8239 Cl  0  0  0  0  0  0  0  0  0  0  0  0
   -7.2181    4.5851  -17.9630 C   0  0  0  0  0  0  0  0  0  0  0  0
   -6.0602    4.6762  -17.1750 C   0  0  0  0  0  0  0  0  0  0  0  0
   -5.8442    4.7476  -15.8050 C   0  0  0  0  0  0  0  0  0  0  0  0
   -4.3716    5.0633  -15.8632 C   0  0  0  0  0  0  0  0  0  0  0  0
   -3.8927    5.1852  -17.0925 N   0  0  0  0  0  0  0  0  0  0  0  0
   -4.9922    4.9324  -17.8808 C   0  0  0  0  0  0  0  0  0  0  0  0
   -5.5250    4.9943  -19.2621 C   0  0  0  0  0  0  0  0  0  0  0  0
   -4.8870    5.2817  -20.2600 O   0  0  0  0  0  0  0  0  0  0  0  0
   -6.8994    4.7079  -19.2071 N   0  0  0  0  0  0  0  0  0  0  0  0
   -4.9726    3.3649  -12.3924 N   0  0  0  0  0  0  0  0  0  0  0  0
   -5.8311    3.9957  -12.8616 C   0  0  0  0  0  0  0  0  0  0  0  0
   -8.2483    4.5445  -12.9240 N   0  0  0  0  0  0  0  0  0  0  0  0
   -9.0429    4.4737  -13.5008 H   0  0  0  0  0  0  0  0  0  0  0  0
   -8.3570    4.4086  -11.5164 C   0  0  0  0  0  0  0  0  0  0  0  0
   -8.6799    3.1409  -10.9865 C   0  0  0  0  0  0  0  0  0  0  0  0
   -8.8012    2.9234   -9.6095 C   0  0  0  0  0  0  0  0  0  0  0  0
   -8.6326    3.9985   -8.7623 C   0  0  0  0  0  0  0  0  0  0  0  0
   -8.3632    5.2649   -9.2619 C   0  0  0  0  0  0  0  0  0  0  0  0
   -8.2342    5.4898  -10.6246 C   0  0  0  0  0  0  0  0  0  0  0  0
   -8.2162    6.2168   -8.1225 C   0  0  0  0  0  0  0  0  0  0  0  0
   -8.7402    5.4955   -6.9319 N   0  0  0  0  0  0  0  0  0  0  0  0
   -8.6649    4.0477   -7.2735 C   0  0  0  0  0  0  0  0  0  0  0  0
   -9.7057    5.7677   -6.7474 H   0  0  0  0  0  0  0  0  0  0  0  0
 17 18  3  0  0  0
 18  1  1  0  0  0
  1  2  1  0  0  0
  1 19  1  0  0  0
 19 21  1  0  0  0
 21 22  2  0  0  0
 22 23  1  0  0  0
 23 24  2  0  0  0
 24 25  1  0  0  0
 25 26  2  0  0  0
 25 27  1  0  0  0
 27 28  1  0  0  0
 28 29  1  0  0  0
  1  4  1  0  0  0
  4  5  1  0  0  0
  5  6  2  0  0  0
  6  7  1  0  0  0
  6  8  1  0  0  0
  8  9  1  0  0  0
  9 10  1  0  0  0
 10 11  1  0  0  0
 11 12  2  0  0  0
 12 13  1  0  0  0
 13 14  1  0  0  0
 14 15  2  0  0  0
 14 16  1  0  0  0
 26 21  1  0  0  0
 10  4  2  0  0  0
 29 24  1  0  0  0
 16  8  2  0  0  0
 13  9  2  0  0  0
  2  3  1  0  0  0
 19 20  1  0  0  0
 28 30  1  0  0  0
M  END
> <minimizedAffinity>
-7.38038

> <minimizedRMSD>
0.85001

$$$$
P16614


 32 35  0  0  0  0  0  0  0  0999 V2000
   -5.3273    4.8191  -18.4527 N   0  0  0  0  0  0  0  0  0  0  0  0
   -6.5721    4.6573  -17.8841 C   0  0  0  0  0  0  0  0  0  0  0  0
   -7.8410    4.5560  -18.4574 C   0  0  0  0  0  0  0  0  0  0  0  0
   -8.9192    4.4365  -17.5893 C   0  0  0  0  0  0  0  0  0  0  0  0
  -10.5068    4.2987  -18.2372 Cl  0  0  0  0  0  0  0  0  0  0  0  0
   -8.7438    4.4882  -16.2068 C   0  0  0  0  0  0  0  0  0  0  0  0
   -7.4648    4.6110  -15.6105 C   0  0  0  0  0  0  0  0  0  0  0  0
   -6.3334    4.6348  -16.4826 C   0  0  0  0  0  0  0  0  0  0  0  0
   -4.8847    4.6842  -16.2204 C   0  0  0  0  0  0  0  0  0  0  0  0
   -4.0706    4.6364  -14.9928 C   0  0  0  0  0  0  0  0  0  0  0  0
   -4.2777    4.8014  -17.4167 N   0  0  0  0  0  0  0  0  0  0  0  0
   -3.0603    4.9413  -17.6993 O   0  0  0  0  0  0  0  0  0  0  0  0
   -5.0967    5.0551  -19.8226 O   0  0  0  0  0  0  0  0  0  0  0  0
   -5.0860    6.4693  -20.0255 C   0  0  0  0  0  0  0  0  0  0  0  0
   -3.7543    6.9045  -20.6242 C   0  0  0  0  0  0  0  0  0  0  0  0
   -3.9429    8.2745  -18.7097 C   0  0  0  0  0  0  0  0  0  0  0  0
   -3.0589    7.6945  -19.6574 O   0  0  0  0  0  0  0  0  0  0  0  0
   -7.2992    4.8680  -14.1109 C   0  0  0  0  0  0  0  0  0  0  0  0
   -7.0594    6.3333  -13.9394 C   0  0  0  0  0  0  0  0  0  0  0  0
   -6.8319    7.4641  -13.7829 N   0  0  0  0  0  0  0  0  0  0  0  0
   -8.4342    4.3611  -13.3076 N   0  0  0  0  0  0  0  0  0  0  0  0
   -9.3070    4.1068  -13.6854 H   0  0  0  0  0  0  0  0  0  0  0  0
   -8.1114    4.2852  -11.9202 C   0  0  0  0  0  0  0  0  0  0  0  0
   -7.4628    3.1386  -11.4209 C   0  0  0  0  0  0  0  0  0  0  0  0
   -7.1351    3.0179  -10.0669 C   0  0  0  0  0  0  0  0  0  0  0  0
   -7.4511    4.0623   -9.2207 C   0  0  0  0  0  0  0  0  0  0  0  0
   -8.0875    5.2009   -9.6947 C   0  0  0  0  0  0  0  0  0  0  0  0
   -8.4319    5.3246  -11.0314 C   0  0  0  0  0  0  0  0  0  0  0  0
   -8.3556    6.1242   -8.5553 C   0  0  0  0  0  0  0  0  0  0  0  0
   -7.5692    5.5894   -7.4100 N   0  0  0  0  0  0  0  0  0  0  0  0
   -7.2588    4.1730   -7.7482 C   0  0  0  0  0  0  0  0  0  0  0  0
   -8.1176    5.6364   -6.5513 H   0  0  0  0  0  0  0  0  0  0  0  0
 16 17  1  0  0  0
 17 15  1  0  0  0
 15 14  1  0  0  0
 14 13  1  0  0  0
 13  1  1  0  0  0
  1  2  1  0  0  0
  2  3  2  0  0  0
  3  4  1  0  0  0
  4  5  1  0  0  0
  4  6  2  0  0  0
  6  7  1  0  0  0
  7 18  1  0  0  0
 18 19  1  0  0  0
 19 20  3  0  0  0
 18 21  1  0  0  0
 21 23  1  0  0  0
 23 24  2  0  0  0
 24 25  1  0  0  0
 25 26  2  0  0  0
 26 27  1  0  0  0
 27 28  2  0  0  0
 27 29  1  0  0  0
 29 30  1  0  0  0
 30 31  1  0  0  0
  7  8  2  0  0  0
  8  9  1  0  0  0
  9 10  1  0  0  0
  9 11  2  0  0  0
 11 12  1  0  0  0
 11  1  1  0  0  0
  8  2  1  0  0  0
 28 23  1  0  0  0
 31 26  1  0  0  0
 21 22  1  0  0  0
 30 32  1  0  0  0
M  CHG 1  11   1
M  CHG 1  12  -1
M  END
> <minimizedAffinity>
-6.52646

> <minimizedRMSD>
0.89385

$$$$
P16620


 29 32  0  0  0  0  0  0  0  0999 V2000
   -7.8268    5.2041  -14.2221 C   0  0  0  0  0  0  0  0  0  0  0  0
   -6.5913    5.8441  -13.9402 O   0  0  0  0  0  0  0  0  0  0  0  0
   -6.5062    6.6390  -14.4896 H   0  0  0  0  0  0  0  0  0  0  0  0
   -5.6408    4.8295  -18.5592 N   0  0  0  0  0  0  0  0  0  0  0  0
   -4.6782    5.1377  -17.6532 N   0  0  0  0  0  0  0  0  0  0  0  0
   -5.3284    5.1529  -16.4889 C   0  0  0  0  0  0  0  0  0  0  0  0
   -6.7114    4.8738  -16.6000 C   0  0  0  0  0  0  0  0  0  0  0  0
   -7.8270    4.8106  -15.7137 C   0  0  0  0  0  0  0  0  0  0  0  0
   -9.0646    4.4716  -16.3215 C   0  0  0  0  0  0  0  0  0  0  0  0
   -9.2132    4.3320  -17.6982 C   0  0  0  0  0  0  0  0  0  0  0  0
  -10.7795    4.1924  -18.3727 Cl  0  0  0  0  0  0  0  0  0  0  0  0
   -8.1265    4.4086  -18.5507 C   0  0  0  0  0  0  0  0  0  0  0  0
   -6.8832    4.6723  -17.9716 C   0  0  0  0  0  0  0  0  0  0  0  0
   -5.2176    4.6770  -21.1759 N   0  0  0  0  0  0  0  0  0  0  0  0
   -5.3964    4.7476  -20.0281 C   0  0  0  0  0  0  0  0  0  0  0  0
   -8.9734    6.1319  -13.9519 C   0  0  0  0  0  0  0  0  0  0  0  0
   -9.8847    6.8449  -13.8233 N   0  0  0  0  0  0  0  0  0  0  0  0
   -7.8614    4.0306  -13.3545 N   0  0  0  0  0  0  0  0  0  0  0  0
   -7.6986    3.1403  -13.7420 H   0  0  0  0  0  0  0  0  0  0  0  0
   -8.1238    4.1446  -11.9688 C   0  0  0  0  0  0  0  0  0  0  0  0
   -8.6122    3.0006  -11.3060 C   0  0  0  0  0  0  0  0  0  0  0  0
   -8.8254    2.9668   -9.9231 C   0  0  0  0  0  0  0  0  0  0  0  0
   -8.5204    4.0911   -9.1885 C   0  0  0  0  0  0  0  0  0  0  0  0
   -8.0289    5.2296   -9.8076 C   0  0  0  0  0  0  0  0  0  0  0  0
   -7.8061    5.2661  -11.1790 C   0  0  0  0  0  0  0  0  0  0  0  0
   -7.8331    6.2927   -8.7800 C   0  0  0  0  0  0  0  0  0  0  0  0
   -7.9165    5.6003   -7.4649 N   0  0  0  0  0  0  0  0  0  0  0  0
   -8.6321    4.3210   -7.7222 C   0  0  0  0  0  0  0  0  0  0  0  0
   -8.4362    6.1693   -6.7966 H   0  0  0  0  0  0  0  0  0  0  0  0
 14 15  3  0  0  0
 15  4  1  0  0  0
  4  5  1  0  0  0
  5  6  2  0  0  0
  6  7  1  0  0  0
  7  8  2  0  0  0
  8  1  1  0  0  0
  1  2  1  0  0  0
  1 16  1  0  0  0
 16 17  3  0  0  0
  1 18  1  0  0  0
 18 20  1  0  0  0
 20 21  2  0  0  0
 21 22  1  0  0  0
 22 23  2  0  0  0
 23 24  1  0  0  0
 24 25  2  0  0  0
 24 26  1  0  0  0
 26 27  1  0  0  0
 27 28  1  0  0  0
  8  9  1  0  0  0
  9 10  2  0  0  0
 10 11  1  0  0  0
 10 12  1  0  0  0
 12 13  2  0  0  0
 13  4  1  0  0  0
 13  7  1  0  0  0
 25 20  1  0  0  0
 28 23  1  0  0  0
  2  3  1  0  0  0
 18 19  1  0  0  0
 27 29  1  0  0  0
M  END
> <minimizedAffinity>
-7.50752

> <minimizedRMSD>
0.22761

$$$$
P16628


 35 38  0  0  0  0  0  0  0  0999 V2000
   -7.0179    5.1589  -13.4059 C   0  0  0  0  0  0  0  0  0  0  0  0
   -5.1240    5.4528  -17.8466 N   0  0  0  0  0  0  0  0  0  0  0  0
   -4.1775    5.8414  -16.9763 N   0  0  0  0  0  0  0  0  0  0  0  0
   -4.7507    5.6601  -15.7869 C   0  0  0  0  0  0  0  0  0  0  0  0
   -6.0801    5.1741  -15.8718 C   0  0  0  0  0  0  0  0  0  0  0  0
   -7.1262    4.8851  -14.9473 C   0  0  0  0  0  0  0  0  0  0  0  0
   -8.3579    4.4687  -15.5358 C   0  0  0  0  0  0  0  0  0  0  0  0
   -8.5124    4.3048  -16.9118 C   0  0  0  0  0  0  0  0  0  0  0  0
  -10.0514    3.9530  -17.5764 Cl  0  0  0  0  0  0  0  0  0  0  0  0
   -7.4696    4.5447  -17.7900 C   0  0  0  0  0  0  0  0  0  0  0  0
   -6.2777    5.0134  -17.2425 C   0  0  0  0  0  0  0  0  0  0  0  0
   -3.5743    5.3528  -19.8165 C   0  0  0  0  0  0  0  0  0  0  0  0
   -4.9533    5.6744  -19.2705 C   0  0  0  0  0  0  0  0  0  0  0  0
   -5.7052    4.4350  -12.7523 C   0  0  0  0  0  0  0  0  0  0  0  0
   -5.4902    3.3115  -12.9933 O   0  0  0  0  0  0  0  0  0  0  0  0
   -4.9008    5.4533  -11.8877 N   0  0  0  0  0  0  0  0  0  0  0  0
   -5.2520    6.3729  -11.9002 H   0  0  0  0  0  0  0  0  0  0  0  0
   -3.7198    5.2654  -11.0686 C   0  0  0  0  0  0  0  0  0  0  0  0
   -3.8627    4.2167   -9.9682 C   0  0  0  0  0  0  0  0  0  0  0  0
   -5.1522    4.1985   -9.5298 F   0  0  0  0  0  0  0  0  0  0  0  0
   -3.1172    4.5920   -8.8929 F   0  0  0  0  0  0  0  0  0  0  0  0
   -6.8520    6.6340  -13.2709 C   0  0  0  0  0  0  0  0  0  0  0  0
   -6.6856    7.7776  -13.1302 N   0  0  0  0  0  0  0  0  0  0  0  0
   -8.2739    4.6272  -12.7675 N   0  0  0  0  0  0  0  0  0  0  0  0
   -9.0373    4.3760  -13.3361 H   0  0  0  0  0  0  0  0  0  0  0  0
   -8.3736    4.4842  -11.3765 C   0  0  0  0  0  0  0  0  0  0  0  0
   -8.5059    3.1823  -10.8434 C   0  0  0  0  0  0  0  0  0  0  0  0
   -8.5231    2.9520   -9.4673 C   0  0  0  0  0  0  0  0  0  0  0  0
   -8.3832    4.0384   -8.6311 C   0  0  0  0  0  0  0  0  0  0  0  0
   -8.2975    5.3319   -9.1345 C   0  0  0  0  0  0  0  0  0  0  0  0
   -8.3490    5.5754  -10.4965 C   0  0  0  0  0  0  0  0  0  0  0  0
   -8.1490    6.2836   -7.9933 C   0  0  0  0  0  0  0  0  0  0  0  0
   -7.7730    5.4311   -6.8285 N   0  0  0  0  0  0  0  0  0  0  0  0
   -8.3079    4.0800   -7.1455 C   0  0  0  0  0  0  0  0  0  0  0  0
   -8.1937    5.7904   -5.9716 H   0  0  0  0  0  0  0  0  0  0  0  0
 12 13  1  0  0  0
 13  2  1  0  0  0
  2  3  1  0  0  0
  3  4  2  0  0  0
  4  5  1  0  0  0
  5  6  2  0  0  0
  6  1  1  0  0  0
  1 22  1  0  0  0
 22 23  3  0  0  0
  1 24  1  0  0  0
 24 26  1  0  0  0
 26 27  2  0  0  0
 27 28  1  0  0  0
 28 29  2  0  0  0
 29 30  1  0  0  0
 30 31  2  0  0  0
 30 32  1  0  0  0
 32 33  1  0  0  0
 33 34  1  0  0  0
  1 14  1  0  0  0
 14 15  2  0  0  0
 14 16  1  0  0  0
 16 18  1  0  0  0
 18 19  1  0  0  0
 19 20  1  0  0  0
 19 21  1  0  0  0
  6  7  1  0  0  0
  7  8  2  0  0  0
  8  9  1  0  0  0
  8 10  1  0  0  0
 10 11  2  0  0  0
 11  2  1  0  0  0
 11  5  1  0  0  0
 31 26  1  0  0  0
 34 29  1  0  0  0
 24 25  1  0  0  0
 33 35  1  0  0  0
 16 17  1  0  0  0
M  END
> <minimizedAffinity>
-7.13364

> <minimizedRMSD>
0.58033

$$$$
P16629


 31 34  0  0  0  0  0  0  0  0999 V2000
   -7.1400    4.8985  -13.6309 C   0  0  0  0  0  0  0  0  0  0  0  0
   -7.1502    6.3134  -13.4826 O   0  0  0  0  0  0  0  0  0  0  0  0
   -6.3718    6.6902  -13.9218 H   0  0  0  0  0  0  0  0  0  0  0  0
   -5.2624    5.4752  -18.0009 N   0  0  0  0  0  0  0  0  0  0  0  0
   -4.3356    5.8709  -17.0908 N   0  0  0  0  0  0  0  0  0  0  0  0
   -4.9130    5.6025  -15.9206 C   0  0  0  0  0  0  0  0  0  0  0  0
   -6.2308    5.0970  -16.0501 C   0  0  0  0  0  0  0  0  0  0  0  0
   -7.2732    4.7430  -15.1482 C   0  0  0  0  0  0  0  0  0  0  0  0
   -8.5162    4.4107  -15.7427 C   0  0  0  0  0  0  0  0  0  0  0  0
   -8.6874    4.3707  -17.1205 C   0  0  0  0  0  0  0  0  0  0  0  0
  -10.2665    4.1990  -17.7520 Cl  0  0  0  0  0  0  0  0  0  0  0  0
   -7.6387    4.6177  -17.9929 C   0  0  0  0  0  0  0  0  0  0  0  0
   -6.4300    5.0241  -17.4272 C   0  0  0  0  0  0  0  0  0  0  0  0
   -5.0736    5.7824  -19.4282 C   0  0  0  0  0  0  0  0  0  0  0  0
   -2.9046    5.8978  -20.4634 C   0  0  0  0  0  0  0  0  0  0  0  0
   -3.9275    5.0137  -19.9350 N   0  0  0  0  0  0  0  0  0  0  0  0
   -3.5318    4.4626  -19.1733 H   0  0  0  0  0  0  0  0  0  0  0  0
   -5.8652    4.3132  -13.1057 C   0  0  0  0  0  0  0  0  0  0  0  0
   -4.8499    3.8974  -12.7146 N   0  0  0  0  0  0  0  0  0  0  0  0
   -8.3408    4.3961  -12.9454 N   0  0  0  0  0  0  0  0  0  0  0  0
   -9.1369    4.1265  -13.4581 H   0  0  0  0  0  0  0  0  0  0  0  0
   -8.3268    4.3089  -11.5342 C   0  0  0  0  0  0  0  0  0  0  0  0
   -8.4730    3.0345  -10.9411 C   0  0  0  0  0  0  0  0  0  0  0  0
   -8.5019    2.8662   -9.5540 C   0  0  0  0  0  0  0  0  0  0  0  0
   -8.4245    3.9920   -8.7618 C   0  0  0  0  0  0  0  0  0  0  0  0
   -8.3055    5.2559   -9.3229 C   0  0  0  0  0  0  0  0  0  0  0  0
   -8.2552    5.4327  -10.6968 C   0  0  0  0  0  0  0  0  0  0  0  0
   -8.2073    6.2664   -8.2304 C   0  0  0  0  0  0  0  0  0  0  0  0
   -8.6207    5.5521   -6.9899 N   0  0  0  0  0  0  0  0  0  0  0  0
   -8.4130    4.1057   -7.2780 C   0  0  0  0  0  0  0  0  0  0  0  0
   -9.6020    5.7371   -6.7818 H   0  0  0  0  0  0  0  0  0  0  0  0
 15 16  1  0  0  0
 16 14  1  0  0  0
 14  4  1  0  0  0
  4  5  1  0  0  0
  5  6  2  0  0  0
  6  7  1  0  0  0
  7  8  2  0  0  0
  8  1  1  0  0  0
  1  2  1  0  0  0
  1 18  1  0  0  0
 18 19  3  0  0  0
  1 20  1  0  0  0
 20 22  1  0  0  0
 22 23  2  0  0  0
 23 24  1  0  0  0
 24 25  2  0  0  0
 25 26  1  0  0  0
 26 27  2  0  0  0
 26 28  1  0  0  0
 28 29  1  0  0  0
 29 30  1  0  0  0
  8  9  1  0  0  0
  9 10  2  0  0  0
 10 11  1  0  0  0
 10 12  1  0  0  0
 12 13  2  0  0  0
 13  4  1  0  0  0
 13  7  1  0  0  0
 27 22  1  0  0  0
 30 25  1  0  0  0
 16 17  1  0  0  0
  2  3  1  0  0  0
 20 21  1  0  0  0
 29 31  1  0  0  0
M  END
> <minimizedAffinity>
-7.78597

> <minimizedRMSD>
0.53849

$$$$
P16630


 35 38  0  0  0  0  0  0  0  0999 V2000
   -7.1842    4.5801  -13.9134 C   0  0  0  0  0  0  0  0  0  0  0  0
   -5.3416    4.8726  -18.3431 N   0  0  0  0  0  0  0  0  0  0  0  0
   -4.3225    4.9626  -17.4669 N   0  0  0  0  0  0  0  0  0  0  0  0
   -4.9193    4.8192  -16.2842 C   0  0  0  0  0  0  0  0  0  0  0  0
   -6.3245    4.6430  -16.3813 C   0  0  0  0  0  0  0  0  0  0  0  0
   -7.3999    4.4850  -15.4549 C   0  0  0  0  0  0  0  0  0  0  0  0
   -8.6926    4.3533  -16.0291 C   0  0  0  0  0  0  0  0  0  0  0  0
   -8.8979    4.3650  -17.4098 C   0  0  0  0  0  0  0  0  0  0  0  0
  -10.4896    4.2585  -18.0510 Cl  0  0  0  0  0  0  0  0  0  0  0  0
   -7.8417    4.5223  -18.2973 C   0  0  0  0  0  0  0  0  0  0  0  0
   -6.5647    4.6686  -17.7537 C   0  0  0  0  0  0  0  0  0  0  0  0
   -4.9211    6.5312  -20.1049 C   0  0  0  0  0  0  0  0  0  0  0  0
   -5.0643    5.0628  -19.7532 C   0  0  0  0  0  0  0  0  0  0  0  0
   -6.1962    3.3868  -13.4171 C   0  0  0  0  0  0  0  0  0  0  0  0
   -6.4467    2.2728  -13.6813 O   0  0  0  0  0  0  0  0  0  0  0  0
   -4.9906    3.9929  -12.6279 N   0  0  0  0  0  0  0  0  0  0  0  0
   -4.9657    4.9768  -12.6047 H   0  0  0  0  0  0  0  0  0  0  0  0
   -3.9103    3.3453  -11.9291 C   0  0  0  0  0  0  0  0  0  0  0  0
   -2.7531    3.0556  -12.8745 C   0  0  0  0  0  0  0  0  0  0  0  0
   -1.6530    2.2807  -12.1762 C   0  0  0  0  0  0  0  0  0  0  0  0
   -2.0843    1.0198  -11.9150 F   0  0  0  0  0  0  0  0  0  0  0  0
   -6.5398    5.9129  -13.6984 C   0  0  0  0  0  0  0  0  0  0  0  0
   -6.0055    6.9341  -13.5337 N   0  0  0  0  0  0  0  0  0  0  0  0
   -8.5100    4.4597  -13.2016 N   0  0  0  0  0  0  0  0  0  0  0  0
   -9.3570    4.3949  -13.6992 H   0  0  0  0  0  0  0  0  0  0  0  0
   -8.4804    4.4440  -11.7887 C   0  0  0  0  0  0  0  0  0  0  0  0
   -8.6470    3.2194  -11.1084 C   0  0  0  0  0  0  0  0  0  0  0  0
   -8.5710    3.1404   -9.7154 C   0  0  0  0  0  0  0  0  0  0  0  0
   -8.3149    4.2987   -9.0098 C   0  0  0  0  0  0  0  0  0  0  0  0
   -8.1600    5.5165   -9.6603 C   0  0  0  0  0  0  0  0  0  0  0  0
   -8.2550    5.6102  -11.0408 C   0  0  0  0  0  0  0  0  0  0  0  0
   -7.9600    6.5911   -8.6456 C   0  0  0  0  0  0  0  0  0  0  0  0
   -7.7084    5.8874   -7.3587 N   0  0  0  0  0  0  0  0  0  0  0  0
   -8.2166    4.5003   -7.5378 C   0  0  0  0  0  0  0  0  0  0  0  0
   -8.2065    6.3511   -6.5989 H   0  0  0  0  0  0  0  0  0  0  0  0
 12 13  1  0  0  0
 13  2  1  0  0  0
  2  3  1  0  0  0
  3  4  2  0  0  0
  4  5  1  0  0  0
  5  6  2  0  0  0
  6  1  1  0  0  0
  1 22  1  0  0  0
 22 23  3  0  0  0
  1 24  1  0  0  0
 24 26  1  0  0  0
 26 27  2  0  0  0
 27 28  1  0  0  0
 28 29  2  0  0  0
 29 30  1  0  0  0
 30 31  2  0  0  0
 30 32  1  0  0  0
 32 33  1  0  0  0
 33 34  1  0  0  0
  1 14  1  0  0  0
 14 15  2  0  0  0
 14 16  1  0  0  0
 16 18  1  0  0  0
 18 19  1  0  0  0
 19 20  1  0  0  0
 20 21  1  0  0  0
  6  7  1  0  0  0
  7  8  2  0  0  0
  8  9  1  0  0  0
  8 10  1  0  0  0
 10 11  2  0  0  0
 11  2  1  0  0  0
 11  5  1  0  0  0
 31 26  1  0  0  0
 34 29  1  0  0  0
 24 25  1  0  0  0
 33 35  1  0  0  0
 16 17  1  0  0  0
M  END
> <minimizedAffinity>
-7.18849

> <minimizedRMSD>
0.91512

$$$$
P16631


 30 33  0  0  0  0  0  0  0  0999 V2000
   -6.9510    5.0317  -13.7219 C   0  0  0  0  0  0  0  0  0  0  0  0
   -5.1284    5.1443  -18.1552 N   0  0  0  0  0  0  0  0  0  0  0  0
   -4.1089    5.3607  -17.2951 N   0  0  0  0  0  0  0  0  0  0  0  0
   -4.6980    5.3240  -16.1019 C   0  0  0  0  0  0  0  0  0  0  0  0
   -6.0815    5.0162  -16.1669 C   0  0  0  0  0  0  0  0  0  0  0  0
   -7.1367    4.8501  -15.2263 C   0  0  0  0  0  0  0  0  0  0  0  0
   -8.3749    4.4251  -15.7567 C   0  0  0  0  0  0  0  0  0  0  0  0
   -8.5830    4.2826  -17.1225 C   0  0  0  0  0  0  0  0  0  0  0  0
  -10.1644    3.9746  -17.6862 Cl  0  0  0  0  0  0  0  0  0  0  0  0
   -7.5621    4.4763  -18.0382 C   0  0  0  0  0  0  0  0  0  0  0  0
   -6.3178    4.8474  -17.5301 C   0  0  0  0  0  0  0  0  0  0  0  0
   -4.8899    5.2408  -19.5945 C   0  0  0  0  0  0  0  0  0  0  0  0
   -4.6832    7.0889  -21.1080 C   0  0  0  0  0  0  0  0  0  0  0  0
   -5.4921    6.4979  -20.0548 N   0  0  0  0  0  0  0  0  0  0  0  0
   -6.4281    6.3108  -20.4142 H   0  0  0  0  0  0  0  0  0  0  0  0
   -5.9341    6.0511  -13.3997 C   0  0  0  0  0  0  0  0  0  0  0  0
   -5.1528    6.8612  -13.1123 N   0  0  0  0  0  0  0  0  0  0  0  0
   -8.1889    5.4454  -12.9383 C   0  0  0  0  0  0  0  0  0  0  0  0
   -9.1129    6.1357  -13.3639 O   0  0  0  0  0  0  0  0  0  0  0  0
   -8.2153    5.0724  -11.5106 C   0  0  0  0  0  0  0  0  0  0  0  0
   -8.1017    6.1008  -10.5567 C   0  0  0  0  0  0  0  0  0  0  0  0
   -8.1873    5.7959   -9.1994 C   0  0  0  0  0  0  0  0  0  0  0  0
   -8.0298    7.1719   -7.9179 Br  0  0  0  0  0  0  0  0  0  0  0  0
   -8.4204    4.4830   -8.8295 C   0  0  0  0  0  0  0  0  0  0  0  0
   -8.5301    3.4732   -9.7887 C   0  0  0  0  0  0  0  0  0  0  0  0
   -8.4100    3.7407  -11.1403 C   0  0  0  0  0  0  0  0  0  0  0  0
   -8.8138    2.1760   -9.1014 C   0  0  0  0  0  0  0  0  0  0  0  0
   -9.2401    2.5520   -7.7355 N   0  0  0  0  0  0  0  0  0  0  0  0
   -8.6170    3.8684   -7.4819 C   0  0  0  0  0  0  0  0  0  0  0  0
   -8.9124    1.8647   -7.0569 H   0  0  0  0  0  0  0  0  0  0  0  0
 13 14  1  0  0  0
 14 12  1  0  0  0
 12  2  1  0  0  0
  2  3  1  0  0  0
  3  4  2  0  0  0
  4  5  1  0  0  0
  5  6  2  0  0  0
  6  1  1  0  0  0
  1 16  1  0  0  0
 16 17  3  0  0  0
  1 18  1  0  0  0
 18 19  2  0  0  0
 18 20  1  0  0  0
 20 21  2  0  0  0
 21 22  1  0  0  0
 22 23  1  0  0  0
 22 24  2  0  0  0
 24 25  1  0  0  0
 25 26  2  0  0  0
 25 27  1  0  0  0
 27 28  1  0  0  0
 28 29  1  0  0  0
  6  7  1  0  0  0
  7  8  2  0  0  0
  8  9  1  0  0  0
  8 10  1  0  0  0
 10 11  2  0  0  0
 11  2  1  0  0  0
 11  5  1  0  0  0
 26 20  1  0  0  0
 29 24  1  0  0  0
 14 15  1  0  0  0
 28 30  1  0  0  0
M  END
> <minimizedAffinity>
-7.88974

> <minimizedRMSD>
0.27187

$$$$
P16633


 36 40  0  0  0  0  0  0  0  0999 V2000
   -5.3799    4.8850  -18.3301 N   0  0  0  0  0  0  0  0  0  0  0  0
   -4.3811    4.9459  -17.4187 N   0  0  0  0  0  0  0  0  0  0  0  0
   -5.0129    4.7900  -16.2538 C   0  0  0  0  0  0  0  0  0  0  0  0
   -6.4162    4.6232  -16.3887 C   0  0  0  0  0  0  0  0  0  0  0  0
   -7.5114    4.4454  -15.4869 C   0  0  0  0  0  0  0  0  0  0  0  0
   -8.7922    4.3311  -16.0820 C   0  0  0  0  0  0  0  0  0  0  0  0
   -8.9702    4.3622  -17.4643 C   0  0  0  0  0  0  0  0  0  0  0  0
  -10.5562    4.2489  -18.1189 Cl  0  0  0  0  0  0  0  0  0  0  0  0
   -7.8942    4.5189  -18.3317 C   0  0  0  0  0  0  0  0  0  0  0  0
   -6.6231    4.6641  -17.7659 C   0  0  0  0  0  0  0  0  0  0  0  0
   -7.3056    4.3981  -13.9645 C   0  0  0  0  0  0  0  0  0  0  0  0
   -6.6135    5.6103  -13.6906 O   0  0  0  0  0  0  0  0  0  0  0  0
   -5.7620    5.6086  -14.1551 H   0  0  0  0  0  0  0  0  0  0  0  0
   -6.4669    3.2107  -13.6015 C   0  0  0  0  0  0  0  0  0  0  0  0
   -5.8006    2.2895  -13.3506 N   0  0  0  0  0  0  0  0  0  0  0  0
   -8.5866    4.4777  -13.2244 N   0  0  0  0  0  0  0  0  0  0  0  0
   -9.4606    4.5422  -13.6730 H   0  0  0  0  0  0  0  0  0  0  0  0
   -8.4432    4.4529  -11.8042 C   0  0  0  0  0  0  0  0  0  0  0  0
   -8.5930    3.2371  -11.1044 C   0  0  0  0  0  0  0  0  0  0  0  0
   -8.4068    3.1627   -9.7208 C   0  0  0  0  0  0  0  0  0  0  0  0
   -8.0723    4.3181   -9.0439 C   0  0  0  0  0  0  0  0  0  0  0  0
   -7.9240    5.5252   -9.7153 C   0  0  0  0  0  0  0  0  0  0  0  0
   -8.1002    5.6108  -11.0877 C   0  0  0  0  0  0  0  0  0  0  0  0
   -7.5389    6.5820   -8.7364 C   0  0  0  0  0  0  0  0  0  0  0  0
   -7.7864    5.9909   -7.3935 N   0  0  0  0  0  0  0  0  0  0  0  0
   -7.7763    4.5147   -7.5970 C   0  0  0  0  0  0  0  0  0  0  0  0
   -8.6908    6.2942   -7.0322 H   0  0  0  0  0  0  0  0  0  0  0  0
   -5.0745    5.0568  -19.7566 C   0  0  0  0  0  0  0  0  0  0  0  0
   -5.6334    7.4636  -19.5966 C   0  0  0  0  0  0  0  0  0  0  0  0
   -4.7415    6.4462  -20.1189 N   0  0  0  0  0  0  0  0  0  0  0  0
   -3.3136    6.7830  -20.1989 C   0  0  0  0  0  0  0  0  0  0  0  0
   -2.9637    7.2574  -21.6168 C   0  0  0  0  0  0  0  0  0  0  0  0
   -1.4611    7.4614  -21.7790 C   0  0  0  0  0  0  0  0  0  0  0  0
   -0.7989    7.8312  -20.5725 O   0  0  0  0  0  0  0  0  0  0  0  0
   -1.6072    8.6217  -19.7117 C   0  0  0  0  0  0  0  0  0  0  0  0
   -2.7847    7.8060  -19.1704 C   0  0  0  0  0  0  0  0  0  0  0  0
 29 30  1  0  0  0
 30 28  1  0  0  0
 28  1  1  0  0  0
  1  2  1  0  0  0
  2  3  2  0  0  0
  3  4  1  0  0  0
  4  5  2  0  0  0
  5 11  1  0  0  0
 11 12  1  0  0  0
 11 14  1  0  0  0
 14 15  3  0  0  0
 11 16  1  0  0  0
 16 18  1  0  0  0
 18 19  2  0  0  0
 19 20  1  0  0  0
 20 21  2  0  0  0
 21 22  1  0  0  0
 22 23  2  0  0  0
 22 24  1  0  0  0
 24 25  1  0  0  0
 25 26  1  0  0  0
  5  6  1  0  0  0
  6  7  2  0  0  0
  7  8  1  0  0  0
  7  9  1  0  0  0
  9 10  2  0  0  0
 30 31  1  0  0  0
 31 32  1  0  0  0
 32 33  1  0  0  0
 33 34  1  0  0  0
 34 35  1  0  0  0
 35 36  1  0  0  0
 10  1  1  0  0  0
 36 31  1  0  0  0
 10  4  1  0  0  0
 23 18  1  0  0  0
 26 21  1  0  0  0
 12 13  1  0  0  0
 16 17  1  0  0  0
 25 27  1  0  0  0
M  END
> <minimizedAffinity>
-7.56240

> <minimizedRMSD>
0.53727

$$$$
P16638


 29 32  0  0  0  0  0  0  0  0999 V2000
   -7.1842    4.3297  -14.0380 C   0  0  0  0  0  0  0  0  0  0  0  0
   -5.4160    5.0233  -18.3727 N   0  0  0  0  0  0  0  0  0  0  0  0
   -4.3885    4.9984  -17.4923 N   0  0  0  0  0  0  0  0  0  0  0  0
   -4.9871    4.7716  -16.3262 C   0  0  0  0  0  0  0  0  0  0  0  0
   -6.3886    4.6011  -16.4452 C   0  0  0  0  0  0  0  0  0  0  0  0
   -7.4511    4.3535  -15.5365 C   0  0  0  0  0  0  0  0  0  0  0  0
   -8.7313    4.1732  -16.1057 C   0  0  0  0  0  0  0  0  0  0  0  0
   -8.9539    4.3218  -17.4748 C   0  0  0  0  0  0  0  0  0  0  0  0
  -10.5549    4.2309  -18.0905 Cl  0  0  0  0  0  0  0  0  0  0  0  0
   -7.9149    4.6076  -18.3536 C   0  0  0  0  0  0  0  0  0  0  0  0
   -6.6357    4.7331  -17.8075 C   0  0  0  0  0  0  0  0  0  0  0  0
   -5.1513    5.3803  -19.7622 C   0  0  0  0  0  0  0  0  0  0  0  0
   -5.0682    7.3370  -21.1469 C   0  0  0  0  0  0  0  0  0  0  0  0
   -5.6688    6.7363  -19.9699 N   0  0  0  0  0  0  0  0  0  0  0  0
   -6.6803    6.6937  -20.0942 H   0  0  0  0  0  0  0  0  0  0  0  0
   -6.8610    2.9698  -13.5819 C   0  0  0  0  0  0  0  0  0  0  0  0
   -6.6368    1.8736  -13.2700 N   0  0  0  0  0  0  0  0  0  0  0  0
   -8.1876    5.0244  -13.1392 C   0  0  0  0  0  0  0  0  0  0  0  0
   -8.9805    5.8875  -13.5186 O   0  0  0  0  0  0  0  0  0  0  0  0
   -8.0911    4.7980  -11.6879 C   0  0  0  0  0  0  0  0  0  0  0  0
   -7.3104    5.6684  -10.9027 C   0  0  0  0  0  0  0  0  0  0  0  0
   -7.2134    5.4672   -9.5224 C   0  0  0  0  0  0  0  0  0  0  0  0
   -7.9267    4.4192   -8.9682 C   0  0  0  0  0  0  0  0  0  0  0  0
   -8.7168    3.5891   -9.7632 C   0  0  0  0  0  0  0  0  0  0  0  0
   -8.7955    3.7379  -11.1300 C   0  0  0  0  0  0  0  0  0  0  0  0
   -9.3759    2.5614   -8.9133 C   0  0  0  0  0  0  0  0  0  0  0  0
   -9.1786    3.0401   -7.5310 N   0  0  0  0  0  0  0  0  0  0  0  0
   -9.0200    1.8995   -6.6469 C   0  0  0  0  0  0  0  0  0  0  0  0
   -8.0018    3.9305   -7.5516 C   0  0  0  0  0  0  0  0  0  0  0  0
 13 14  1  0  0  0
 14 12  1  0  0  0
 12  2  1  0  0  0
  2  3  1  0  0  0
  3  4  2  0  0  0
  4  5  1  0  0  0
  5  6  2  0  0  0
  6  1  1  0  0  0
  1 16  1  0  0  0
 16 17  3  0  0  0
  1 18  1  0  0  0
 18 19  2  0  0  0
 18 20  1  0  0  0
 20 21  2  0  0  0
 21 22  1  0  0  0
 22 23  2  0  0  0
 23 24  1  0  0  0
 24 25  2  0  0  0
 24 26  1  0  0  0
 26 27  1  0  0  0
 27 28  1  0  0  0
 27 29  1  0  0  0
  6  7  1  0  0  0
  7  8  2  0  0  0
  8  9  1  0  0  0
  8 10  1  0  0  0
 10 11  2  0  0  0
 11  2  1  0  0  0
 11  5  1  0  0  0
 25 20  1  0  0  0
 29 23  1  0  0  0
 14 15  1  0  0  0
M  END
> <minimizedAffinity>
-8.21605

> <minimizedRMSD>
0.73330

$$$$
P16639


 30 33  0  0  0  0  0  0  0  0999 V2000
   -7.0315    4.9435  -13.6545 C   0  0  0  0  0  0  0  0  0  0  0  0
   -5.2091    5.3047  -18.0805 N   0  0  0  0  0  0  0  0  0  0  0  0
   -4.2220    5.6147  -17.2141 N   0  0  0  0  0  0  0  0  0  0  0  0
   -4.8100    5.5126  -16.0250 C   0  0  0  0  0  0  0  0  0  0  0  0
   -6.1665    5.1028  -16.0991 C   0  0  0  0  0  0  0  0  0  0  0  0
   -7.2091    4.8328  -15.1674 C   0  0  0  0  0  0  0  0  0  0  0  0
   -8.4203    4.3435  -15.7122 C   0  0  0  0  0  0  0  0  0  0  0  0
   -8.6130    4.2060  -17.0799 C   0  0  0  0  0  0  0  0  0  0  0  0
  -10.1672    3.8054  -17.6716 Cl  0  0  0  0  0  0  0  0  0  0  0  0
   -7.5911    4.4629  -17.9790 C   0  0  0  0  0  0  0  0  0  0  0  0
   -6.3810    4.9285  -17.4649 C   0  0  0  0  0  0  0  0  0  0  0  0
   -4.9571    5.4063  -19.5162 C   0  0  0  0  0  0  0  0  0  0  0  0
   -5.0830    7.0218  -21.2843 C   0  0  0  0  0  0  0  0  0  0  0  0
   -5.6015    6.6396  -19.9846 N   0  0  0  0  0  0  0  0  0  0  0  0
   -6.6074    6.4864  -20.0564 H   0  0  0  0  0  0  0  0  0  0  0  0
   -5.9025    5.8132  -13.2712 C   0  0  0  0  0  0  0  0  0  0  0  0
   -5.0313    6.5019  -12.9286 N   0  0  0  0  0  0  0  0  0  0  0  0
   -8.2345    5.4490  -12.8709 C   0  0  0  0  0  0  0  0  0  0  0  0
   -9.1322    6.1688  -13.3020 O   0  0  0  0  0  0  0  0  0  0  0  0
   -8.2755    5.0817  -11.4483 C   0  0  0  0  0  0  0  0  0  0  0  0
   -8.5427    3.7660  -11.0686 C   0  0  0  0  0  0  0  0  0  0  0  0
   -8.6143    3.5088   -9.7111 C   0  0  0  0  0  0  0  0  0  0  0  0
   -8.3824    4.5065   -8.7653 C   0  0  0  0  0  0  0  0  0  0  0  0
   -8.0985    5.8083   -9.1394 C   0  0  0  0  0  0  0  0  0  0  0  0
   -8.0669    6.0917  -10.4983 C   0  0  0  0  0  0  0  0  0  0  0  0
   -7.8241    7.3508  -10.8893 F   0  0  0  0  0  0  0  0  0  0  0  0
   -8.5110    3.9226   -7.4000 C   0  0  0  0  0  0  0  0  0  0  0  0
   -9.0460    2.5657   -7.5786 N   0  0  0  0  0  0  0  0  0  0  0  0
   -8.9473    2.2315   -9.0143 C   0  0  0  0  0  0  0  0  0  0  0  0
  -10.0210    2.5343   -7.2806 H   0  0  0  0  0  0  0  0  0  0  0  0
 13 14  1  0  0  0
 14 12  1  0  0  0
 12  2  1  0  0  0
  2  3  1  0  0  0
  3  4  2  0  0  0
  4  5  1  0  0  0
  5  6  2  0  0  0
  6  1  1  0  0  0
  1 16  1  0  0  0
 16 17  3  0  0  0
  1 18  1  0  0  0
 18 19  2  0  0  0
 18 20  1  0  0  0
 20 21  2  0  0  0
 21 22  1  0  0  0
 22 23  2  0  0  0
 23 24  1  0  0  0
 24 25  2  0  0  0
 25 26  1  0  0  0
 23 27  1  0  0  0
 27 28  1  0  0  0
 28 29  1  0  0  0
  6  7  1  0  0  0
  7  8  2  0  0  0
  8  9  1  0  0  0
  8 10  1  0  0  0
 10 11  2  0  0  0
 11  2  1  0  0  0
 11  5  1  0  0  0
 25 20  1  0  0  0
 29 22  1  0  0  0
 14 15  1  0  0  0
 28 30  1  0  0  0
M  END
> <minimizedAffinity>
-7.96762

> <minimizedRMSD>
0.34250

$$$$
P16642


 31 34  0  0  0  0  0  0  0  0999 V2000
   -7.0807    5.1803  -13.7789 C   0  0  0  0  0  0  0  0  0  0  0  0
   -5.1632    5.2535  -18.1196 N   0  0  0  0  0  0  0  0  0  0  0  0
   -4.1894    5.5638  -17.2285 N   0  0  0  0  0  0  0  0  0  0  0  0
   -4.8025    5.4553  -16.0519 C   0  0  0  0  0  0  0  0  0  0  0  0
   -6.1522    5.0406  -16.1637 C   0  0  0  0  0  0  0  0  0  0  0  0
   -7.2178    4.8187  -15.2498 C   0  0  0  0  0  0  0  0  0  0  0  0
   -8.4252    4.3458  -15.7988 C   0  0  0  0  0  0  0  0  0  0  0  0
   -8.5931    4.2034  -17.1703 C   0  0  0  0  0  0  0  0  0  0  0  0
  -10.1682    3.9249  -17.7678 Cl  0  0  0  0  0  0  0  0  0  0  0  0
   -7.5582    4.4342  -18.0655 C   0  0  0  0  0  0  0  0  0  0  0  0
   -6.3431    4.8655  -17.5324 C   0  0  0  0  0  0  0  0  0  0  0  0
   -4.8833    5.4310  -19.5420 C   0  0  0  0  0  0  0  0  0  0  0  0
   -4.7764    7.2619  -21.0945 C   0  0  0  0  0  0  0  0  0  0  0  0
   -5.4601    6.7224  -19.9324 N   0  0  0  0  0  0  0  0  0  0  0  0
   -6.4473    6.5943  -20.1546 H   0  0  0  0  0  0  0  0  0  0  0  0
   -6.1482    4.2846  -13.0824 C   0  0  0  0  0  0  0  0  0  0  0  0
   -5.3903    3.5627  -12.5787 N   0  0  0  0  0  0  0  0  0  0  0  0
   -8.3739    5.3975  -13.0068 C   0  0  0  0  0  0  0  0  0  0  0  0
   -9.3623    5.9726  -13.4646 O   0  0  0  0  0  0  0  0  0  0  0  0
   -8.4068    5.0848  -11.5688 C   0  0  0  0  0  0  0  0  0  0  0  0
   -8.3001    6.1526  -10.6584 C   0  0  0  0  0  0  0  0  0  0  0  0
   -8.3412    5.8975   -9.2852 C   0  0  0  0  0  0  0  0  0  0  0  0
   -8.5160    4.5850   -8.8698 C   0  0  0  0  0  0  0  0  0  0  0  0
   -8.6239    3.5376   -9.7841 C   0  0  0  0  0  0  0  0  0  0  0  0
   -8.5646    3.7630  -11.1468 C   0  0  0  0  0  0  0  0  0  0  0  0
   -8.7764    2.2487   -9.0449 C   0  0  0  0  0  0  0  0  0  0  0  0
   -9.0172    2.6275   -7.6402 N   0  0  0  0  0  0  0  0  0  0  0  0
   -8.6014    4.0280   -7.4860 C   0  0  0  0  0  0  0  0  0  0  0  0
   -8.4701    2.0310   -7.0194 H   0  0  0  0  0  0  0  0  0  0  0  0
   -8.1803    6.9551   -8.3342 C   0  0  0  0  0  0  0  0  0  0  0  0
   -8.0933    7.8133   -7.5580 N   0  0  0  0  0  0  0  0  0  0  0  0
 13 14  1  0  0  0
 14 12  1  0  0  0
 12  2  1  0  0  0
  2  3  1  0  0  0
  3  4  2  0  0  0
  4  5  1  0  0  0
  5  6  2  0  0  0
  6  1  1  0  0  0
  1 16  1  0  0  0
 16 17  3  0  0  0
  1 18  1  0  0  0
 18 19  2  0  0  0
 18 20  1  0  0  0
 20 21  2  0  0  0
 21 22  1  0  0  0
 22 30  1  0  0  0
 30 31  3  0  0  0
 22 23  2  0  0  0
 23 24  1  0  0  0
 24 25  2  0  0  0
 24 26  1  0  0  0
 26 27  1  0  0  0
 27 28  1  0  0  0
  6  7  1  0  0  0
  7  8  2  0  0  0
  8  9  1  0  0  0
  8 10  1  0  0  0
 10 11  2  0  0  0
 11  2  1  0  0  0
 11  5  1  0  0  0
 25 20  1  0  0  0
 28 23  1  0  0  0
 14 15  1  0  0  0
 27 29  1  0  0  0
M  END
> <minimizedAffinity>
-8.50906

> <minimizedRMSD>
0.31545

$$$$
P16643


 29 32  0  0  0  0  0  0  0  0999 V2000
   -7.1383    4.2304  -13.9186 C   0  0  0  0  0  0  0  0  0  0  0  0
   -5.2930    4.9981  -18.2167 N   0  0  0  0  0  0  0  0  0  0  0  0
   -4.2914    5.0763  -17.2983 N   0  0  0  0  0  0  0  0  0  0  0  0
   -4.9012    4.7749  -16.1526 C   0  0  0  0  0  0  0  0  0  0  0  0
   -6.2973    4.5878  -16.2994 C   0  0  0  0  0  0  0  0  0  0  0  0
   -7.3792    4.3389  -15.4169 C   0  0  0  0  0  0  0  0  0  0  0  0
   -8.6586    4.2195  -16.0087 C   0  0  0  0  0  0  0  0  0  0  0  0
   -8.8534    4.3950  -17.3781 C   0  0  0  0  0  0  0  0  0  0  0  0
  -10.4399    4.4350  -18.0309 Cl  0  0  0  0  0  0  0  0  0  0  0  0
   -7.7873    4.6215  -18.2365 C   0  0  0  0  0  0  0  0  0  0  0  0
   -6.5200    4.7210  -17.6638 C   0  0  0  0  0  0  0  0  0  0  0  0
   -5.0783    5.4289  -19.6053 C   0  0  0  0  0  0  0  0  0  0  0  0
   -3.3411    5.7229  -21.2427 C   0  0  0  0  0  0  0  0  0  0  0  0
   -3.7258    5.0391  -20.0222 N   0  0  0  0  0  0  0  0  0  0  0  0
   -3.0662    5.2802  -19.2826 H   0  0  0  0  0  0  0  0  0  0  0  0
   -6.8365    2.8435  -13.5428 C   0  0  0  0  0  0  0  0  0  0  0  0
   -6.6387    1.7335  -13.2604 N   0  0  0  0  0  0  0  0  0  0  0  0
   -8.1734    4.8674  -13.0142 C   0  0  0  0  0  0  0  0  0  0  0  0
   -8.9944    5.7070  -13.3874 O   0  0  0  0  0  0  0  0  0  0  0  0
   -8.0718    4.6296  -11.5612 C   0  0  0  0  0  0  0  0  0  0  0  0
   -7.3139    5.5199  -10.7769 C   0  0  0  0  0  0  0  0  0  0  0  0
   -7.2530    5.3533   -9.3905 C   0  0  0  0  0  0  0  0  0  0  0  0
   -7.9739    4.3147   -8.8270 C   0  0  0  0  0  0  0  0  0  0  0  0
   -8.7492    3.4657   -9.6135 C   0  0  0  0  0  0  0  0  0  0  0  0
   -8.7889    3.5812  -10.9888 C   0  0  0  0  0  0  0  0  0  0  0  0
   -9.5253    2.5554   -8.7253 C   0  0  0  0  0  0  0  0  0  0  0  0
   -8.8607    2.6193   -7.4105 N   0  0  0  0  0  0  0  0  0  0  0  0
   -7.9657    1.5685   -7.3491 F   0  0  0  0  0  0  0  0  0  0  0  0
   -8.1271    3.9074   -7.3935 C   0  0  0  0  0  0  0  0  0  0  0  0
 13 14  1  0  0  0
 14 12  1  0  0  0
 12  2  1  0  0  0
  2  3  1  0  0  0
  3  4  2  0  0  0
  4  5  1  0  0  0
  5  6  2  0  0  0
  6  1  1  0  0  0
  1 16  1  0  0  0
 16 17  3  0  0  0
  1 18  1  0  0  0
 18 19  2  0  0  0
 18 20  1  0  0  0
 20 21  2  0  0  0
 21 22  1  0  0  0
 22 23  2  0  0  0
 23 24  1  0  0  0
 24 25  2  0  0  0
 24 26  1  0  0  0
 26 27  1  0  0  0
 27 28  1  0  0  0
 27 29  1  0  0  0
  6  7  1  0  0  0
  7  8  2  0  0  0
  8  9  1  0  0  0
  8 10  1  0  0  0
 10 11  2  0  0  0
 11  2  1  0  0  0
 11  5  1  0  0  0
 25 20  1  0  0  0
 29 23  1  0  0  0
 14 15  1  0  0  0
M  END
> <minimizedAffinity>
-8.12728

> <minimizedRMSD>
0.74095

$$$$
P16644


 35 40  0  0  0  0  0  0  0  0999 V2000
   -4.5150    5.1001  -18.9107 C   0  0  0  0  0  0  0  0  0  0  0  0
   -5.6455    4.8775  -19.7068 C   0  0  0  0  0  0  0  0  0  0  0  0
   -6.9214    4.6034  -19.2768 N   0  0  0  0  0  0  0  0  0  0  0  0
   -7.1558    4.5753  -17.9414 C   0  0  0  0  0  0  0  0  0  0  0  0
   -8.3591    4.4873  -17.2121 C   0  0  0  0  0  0  0  0  0  0  0  0
   -9.8689    4.6494  -18.0242 Cl  0  0  0  0  0  0  0  0  0  0  0  0
   -8.3794    4.3565  -15.7947 C   0  0  0  0  0  0  0  0  0  0  0  0
   -7.1887    4.3635  -15.0357 C   0  0  0  0  0  0  0  0  0  0  0  0
   -6.0361    4.6090  -15.7705 C   0  0  0  0  0  0  0  0  0  0  0  0
   -6.0522    4.6856  -17.1297 C   0  0  0  0  0  0  0  0  0  0  0  0
   -4.7841    4.9439  -17.5659 C   0  0  0  0  0  0  0  0  0  0  0  0
   -3.8921    5.0800  -16.4800 N   0  0  0  0  0  0  0  0  0  0  0  0
   -4.6342    4.8805  -15.4281 C   0  0  0  0  0  0  0  0  0  0  0  0
   -2.0858    7.8427  -21.6461 C   0  0  0  0  0  0  0  0  0  0  0  0
   -1.9407    6.6982  -20.7583 N   0  0  0  0  0  0  0  0  0  0  0  0
   -2.9806    5.6770  -21.0323 C   0  0  0  0  0  0  0  0  0  0  0  0
   -3.1079    5.4797  -19.4935 C   0  0  0  0  0  0  0  0  0  0  0  0
   -2.5947    6.9536  -19.4469 C   0  0  0  0  0  0  0  0  0  0  0  0
   -7.1190    4.2117  -13.5242 C   0  0  0  0  0  0  0  0  0  0  0  0
   -6.3920    5.3729  -13.1374 O   0  0  0  0  0  0  0  0  0  0  0  0
   -5.5074    5.3477  -13.5346 H   0  0  0  0  0  0  0  0  0  0  0  0
   -6.3940    2.9453  -13.1704 C   0  0  0  0  0  0  0  0  0  0  0  0
   -5.8124    1.9594  -12.9597 N   0  0  0  0  0  0  0  0  0  0  0  0
   -8.4402    4.3222  -12.8870 N   0  0  0  0  0  0  0  0  0  0  0  0
   -9.2687    4.4095  -13.4116 H   0  0  0  0  0  0  0  0  0  0  0  0
   -8.4450    4.2948  -11.4619 C   0  0  0  0  0  0  0  0  0  0  0  0
   -8.7130    3.0723  -10.8061 C   0  0  0  0  0  0  0  0  0  0  0  0
   -8.7603    2.9801   -9.4111 C   0  0  0  0  0  0  0  0  0  0  0  0
   -8.5499    4.1274   -8.6743 C   0  0  0  0  0  0  0  0  0  0  0  0
   -8.3017    5.3420   -9.2983 C   0  0  0  0  0  0  0  0  0  0  0  0
   -8.2461    5.4454  -10.6809 C   0  0  0  0  0  0  0  0  0  0  0  0
   -8.1837    6.4083   -8.2617 C   0  0  0  0  0  0  0  0  0  0  0  0
   -8.0670    5.6954   -6.9621 N   0  0  0  0  0  0  0  0  0  0  0  0
   -8.5902    4.3234   -7.1984 C   0  0  0  0  0  0  0  0  0  0  0  0
   -8.6211    6.1678   -6.2479 H   0  0  0  0  0  0  0  0  0  0  0  0
 14 15  1  0  0  0
 15 16  1  0  0  0
 16 17  1  0  0  0
 17  1  1  0  0  0
  1  2  2  0  0  0
  2  3  1  0  0  0
  3  4  2  0  0  0
  4  5  1  0  0  0
  5  6  1  0  0  0
  5  7  2  0  0  0
  7  8  1  0  0  0
  8 19  1  0  0  0
 19 20  1  0  0  0
 19 22  1  0  0  0
 22 23  3  0  0  0
 19 24  1  0  0  0
 24 26  1  0  0  0
 26 27  2  0  0  0
 27 28  1  0  0  0
 28 29  2  0  0  0
 29 30  1  0  0  0
 30 31  2  0  0  0
 30 32  1  0  0  0
 32 33  1  0  0  0
 33 34  1  0  0  0
  8  9  2  0  0  0
  9 10  1  0  0  0
 10 11  2  0  0  0
 11 12  1  0  0  0
 12 13  2  0  0  0
 17 18  1  0  0  0
 18 15  1  0  0  0
 11  1  1  0  0  0
 10  4  1  0  0  0
 31 26  1  0  0  0
 13  9  1  0  0  0
 34 29  1  0  0  0
 20 21  1  0  0  0
 24 25  1  0  0  0
 33 35  1  0  0  0
M  END
> <minimizedAffinity>
-8.20852

> <minimizedRMSD>
1.07112

$$$$
P16648


 34 38  0  0  0  0  0  0  0  0999 V2000
   -7.0406    4.6467  -13.5902 C   0  0  0  0  0  0  0  0  0  0  0  0
   -6.2353    3.5225  -13.2413 O   0  0  0  0  0  0  0  0  0  0  0  0
   -6.1617    3.4646  -12.2758 H   0  0  0  0  0  0  0  0  0  0  0  0
   -7.0828    4.6333  -15.1120 C   0  0  0  0  0  0  0  0  0  0  0  0
   -8.2592    4.5553  -15.8921 C   0  0  0  0  0  0  0  0  0  0  0  0
   -8.2131    4.5495  -17.3151 C   0  0  0  0  0  0  0  0  0  0  0  0
   -9.7093    4.5539  -18.1734 Cl  0  0  0  0  0  0  0  0  0  0  0  0
   -6.9967    4.6124  -18.0232 C   0  0  0  0  0  0  0  0  0  0  0  0
   -6.7448    4.5594  -19.3538 N   0  0  0  0  0  0  0  0  0  0  0  0
   -5.4747    4.8315  -19.7903 C   0  0  0  0  0  0  0  0  0  0  0  0
   -4.3834    5.1151  -18.9749 C   0  0  0  0  0  0  0  0  0  0  0  0
   -4.6286    4.9999  -17.6280 C   0  0  0  0  0  0  0  0  0  0  0  0
   -5.9032    4.7681  -17.2010 C   0  0  0  0  0  0  0  0  0  0  0  0
   -5.9076    4.7599  -15.8404 C   0  0  0  0  0  0  0  0  0  0  0  0
   -4.4969    4.9594  -15.4894 C   0  0  0  0  0  0  0  0  0  0  0  0
   -3.7388    5.1215  -16.5380 N   0  0  0  0  0  0  0  0  0  0  0  0
   -3.0643    5.5241  -19.5307 C   0  0  0  0  0  0  0  0  0  0  0  0
   -3.0853    6.8855  -20.0680 N   0  0  0  0  0  0  0  0  0  0  0  0
   -3.7589    6.9392  -20.8320 H   0  0  0  0  0  0  0  0  0  0  0  0
   -2.1574    7.1284  -20.4151 H   0  0  0  0  0  0  0  0  0  0  0  0
   -5.8634    6.9211  -12.8612 N   0  0  0  0  0  0  0  0  0  0  0  0
   -6.3876    5.9248  -13.1594 C   0  0  0  0  0  0  0  0  0  0  0  0
   -8.3773    4.4393  -13.0096 N   0  0  0  0  0  0  0  0  0  0  0  0
   -9.1799    4.3656  -13.5749 H   0  0  0  0  0  0  0  0  0  0  0  0
   -8.4527    4.3511  -11.5975 C   0  0  0  0  0  0  0  0  0  0  0  0
   -8.6423    3.0880  -10.9975 C   0  0  0  0  0  0  0  0  0  0  0  0
   -8.6443    2.9294   -9.6087 C   0  0  0  0  0  0  0  0  0  0  0  0
   -8.4622    4.0500   -8.8246 C   0  0  0  0  0  0  0  0  0  0  0  0
   -8.2959    5.3048   -9.3958 C   0  0  0  0  0  0  0  0  0  0  0  0
   -8.2940    5.4738  -10.7717 C   0  0  0  0  0  0  0  0  0  0  0  0
   -8.1184    6.3155   -8.3132 C   0  0  0  0  0  0  0  0  0  0  0  0
   -8.4966    5.6200   -7.0524 N   0  0  0  0  0  0  0  0  0  0  0  0
   -8.3820    4.1637   -7.3414 C   0  0  0  0  0  0  0  0  0  0  0  0
   -9.4537    5.8558   -6.7902 H   0  0  0  0  0  0  0  0  0  0  0  0
 21 22  3  0  0  0
 22  1  1  0  0  0
  1  2  1  0  0  0
  1 23  1  0  0  0
 23 25  1  0  0  0
 25 26  2  0  0  0
 26 27  1  0  0  0
 27 28  2  0  0  0
 28 29  1  0  0  0
 29 30  2  0  0  0
 29 31  1  0  0  0
 31 32  1  0  0  0
 32 33  1  0  0  0
  1  4  1  0  0  0
  4  5  2  0  0  0
  5  6  1  0  0  0
  6  7  1  0  0  0
  6  8  2  0  0  0
  8  9  1  0  0  0
  9 10  2  0  0  0
 10 11  1  0  0  0
 11 17  1  0  0  0
 17 18  1  0  0  0
 11 12  2  0  0  0
 12 13  1  0  0  0
 13 14  2  0  0  0
 14 15  1  0  0  0
 15 16  2  0  0  0
 30 25  1  0  0  0
 14  4  1  0  0  0
 33 28  1  0  0  0
 13  8  1  0  0  0
 16 12  1  0  0  0
  2  3  1  0  0  0
 23 24  1  0  0  0
 32 34  1  0  0  0
 18 19  1  0  0  0
 18 20  1  0  0  0
M  END
> <minimizedAffinity>
-7.39381

> <minimizedRMSD>
0.71527

$$$$
P16649


 31 34  0  0  0  0  0  0  0  0999 V2000
   -7.3564    4.5652  -14.2280 C   0  0  0  0  0  0  0  0  0  0  0  0
   -6.7187    5.8325  -14.0255 O   0  0  0  0  0  0  0  0  0  0  0  0
   -5.8998    5.8689  -14.5442 H   0  0  0  0  0  0  0  0  0  0  0  0
   -5.6963    4.8162  -18.7151 N   0  0  0  0  0  0  0  0  0  0  0  0
   -4.6636    4.9715  -17.8664 N   0  0  0  0  0  0  0  0  0  0  0  0
   -5.2189    4.8886  -16.6594 C   0  0  0  0  0  0  0  0  0  0  0  0
   -6.6167    4.6766  -16.7026 C   0  0  0  0  0  0  0  0  0  0  0  0
   -7.6512    4.5318  -15.7332 C   0  0  0  0  0  0  0  0  0  0  0  0
   -8.9581    4.3555  -16.2533 C   0  0  0  0  0  0  0  0  0  0  0  0
   -9.2119    4.2914  -17.6228 C   0  0  0  0  0  0  0  0  0  0  0  0
  -10.8222    4.1289  -18.1963 Cl  0  0  0  0  0  0  0  0  0  0  0  0
   -8.1888    4.3985  -18.5534 C   0  0  0  0  0  0  0  0  0  0  0  0
   -6.8979    4.6153  -18.0649 C   0  0  0  0  0  0  0  0  0  0  0  0
   -5.5728    4.9298  -20.1343 N   0  0  0  0  0  0  0  0  0  0  0  0
   -5.0401    4.1365  -20.4910 H   0  0  0  0  0  0  0  0  0  0  0  0
   -4.8310    6.3348  -21.9913 C   0  0  0  0  0  0  0  0  0  0  0  0
   -4.8825    6.1712  -20.4821 C   0  0  0  0  0  0  0  0  0  0  0  0
   -6.4118    3.4523  -13.8718 C   0  0  0  0  0  0  0  0  0  0  0  0
   -5.6893    2.6026  -13.5408 N   0  0  0  0  0  0  0  0  0  0  0  0
   -8.5997    4.5343  -13.4286 N   0  0  0  0  0  0  0  0  0  0  0  0
   -9.4906    4.5296  -13.8476 H   0  0  0  0  0  0  0  0  0  0  0  0
   -8.4299    4.5118  -12.0222 C   0  0  0  0  0  0  0  0  0  0  0  0
   -8.5259    3.2944  -11.3182 C   0  0  0  0  0  0  0  0  0  0  0  0
   -8.3347    3.2371   -9.9357 C   0  0  0  0  0  0  0  0  0  0  0  0
   -8.0327    4.4085   -9.2699 C   0  0  0  0  0  0  0  0  0  0  0  0
   -7.9295    5.6172   -9.9490 C   0  0  0  0  0  0  0  0  0  0  0  0
   -8.1244    5.6876  -11.3196 C   0  0  0  0  0  0  0  0  0  0  0  0
   -7.6607    6.7062   -8.9663 C   0  0  0  0  0  0  0  0  0  0  0  0
   -7.2946    6.0205   -7.6976 N   0  0  0  0  0  0  0  0  0  0  0  0
   -7.8195    4.6329   -7.8130 C   0  0  0  0  0  0  0  0  0  0  0  0
   -7.7215    6.4956   -6.9023 H   0  0  0  0  0  0  0  0  0  0  0  0
 16 17  1  0  0  0
 17 14  1  0  0  0
 14  4  1  0  0  0
  4  5  1  0  0  0
  5  6  2  0  0  0
  6  7  1  0  0  0
  7  8  2  0  0  0
  8  1  1  0  0  0
  1  2  1  0  0  0
  1 18  1  0  0  0
 18 19  3  0  0  0
  1 20  1  0  0  0
 20 22  1  0  0  0
 22 23  2  0  0  0
 23 24  1  0  0  0
 24 25  2  0  0  0
 25 26  1  0  0  0
 26 27  2  0  0  0
 26 28  1  0  0  0
 28 29  1  0  0  0
 29 30  1  0  0  0
  8  9  1  0  0  0
  9 10  2  0  0  0
 10 11  1  0  0  0
 10 12  1  0  0  0
 12 13  2  0  0  0
 13  4  1  0  0  0
 13  7  1  0  0  0
 27 22  1  0  0  0
 30 25  1  0  0  0
 14 15  1  0  0  0
  2  3  1  0  0  0
 20 21  1  0  0  0
 29 31  1  0  0  0
M  END
> <minimizedAffinity>
-7.41057

> <minimizedRMSD>
0.42612

$$$$
P16650


 29 32  0  0  0  0  0  0  0  0999 V2000
   -7.0357    5.2800  -13.7832 C   0  0  0  0  0  0  0  0  0  0  0  0
   -4.7279    5.1368  -18.0023 N   0  0  0  0  0  0  0  0  0  0  0  0
   -3.7776    5.3099  -17.0499 N   0  0  0  0  0  0  0  0  0  0  0  0
   -4.4874    5.3437  -15.9196 C   0  0  0  0  0  0  0  0  0  0  0  0
   -5.8803    5.1378  -16.1185 C   0  0  0  0  0  0  0  0  0  0  0  0
   -7.0438    5.0787  -15.2973 C   0  0  0  0  0  0  0  0  0  0  0  0
   -8.2488    4.7349  -15.9490 C   0  0  0  0  0  0  0  0  0  0  0  0
   -8.3210    4.5542  -17.3196 C   0  0  0  0  0  0  0  0  0  0  0  0
   -9.8454    4.3313  -18.0456 Cl  0  0  0  0  0  0  0  0  0  0  0  0
   -7.1939    4.6253  -18.1158 C   0  0  0  0  0  0  0  0  0  0  0  0
   -5.9867    4.9370  -17.4933 C   0  0  0  0  0  0  0  0  0  0  0  0
   -4.3466    5.2145  -19.4110 C   0  0  0  0  0  0  0  0  0  0  0  0
   -3.1095    6.5950  -20.9333 C   0  0  0  0  0  0  0  0  0  0  0  0
   -3.7268    6.5299  -19.6225 N   0  0  0  0  0  0  0  0  0  0  0  0
   -4.4422    7.2535  -19.5520 H   0  0  0  0  0  0  0  0  0  0  0  0
   -6.3180    6.5069  -13.3871 C   0  0  0  0  0  0  0  0  0  0  0  0
   -5.7462    7.4647  -13.0610 N   0  0  0  0  0  0  0  0  0  0  0  0
   -8.4072    5.3805  -13.1180 C   0  0  0  0  0  0  0  0  0  0  0  0
   -9.4489    5.7520  -13.6559 O   0  0  0  0  0  0  0  0  0  0  0  0
   -8.4406    5.1124  -11.6698 C   0  0  0  0  0  0  0  0  0  0  0  0
   -8.3696    6.2113  -10.7936 C   0  0  0  0  0  0  0  0  0  0  0  0
   -8.3748    6.0032   -9.4160 C   0  0  0  0  0  0  0  0  0  0  0  0
   -8.4910    4.7016   -8.9576 C   0  0  0  0  0  0  0  0  0  0  0  0
   -8.5876    3.6240   -9.8346 C   0  0  0  0  0  0  0  0  0  0  0  0
   -8.5372    3.8012  -11.2041 C   0  0  0  0  0  0  0  0  0  0  0  0
   -8.7558    2.3642   -9.0544 C   0  0  0  0  0  0  0  0  0  0  0  0
   -8.9567    2.7809   -7.6505 N   0  0  0  0  0  0  0  0  0  0  0  0
   -8.5436    4.1901   -7.5573 C   0  0  0  0  0  0  0  0  0  0  0  0
   -8.3865    2.2068   -7.0296 H   0  0  0  0  0  0  0  0  0  0  0  0
 13 14  1  0  0  0
 14 12  1  0  0  0
 12  2  1  0  0  0
  2  3  1  0  0  0
  3  4  2  0  0  0
  4  5  1  0  0  0
  5  6  2  0  0  0
  6  1  1  0  0  0
  1 16  1  0  0  0
 16 17  3  0  0  0
  1 18  1  0  0  0
 18 19  2  0  0  0
 18 20  1  0  0  0
 20 21  2  0  0  0
 21 22  1  0  0  0
 22 23  2  0  0  0
 23 24  1  0  0  0
 24 25  2  0  0  0
 24 26  1  0  0  0
 26 27  1  0  0  0
 27 28  1  0  0  0
  6  7  1  0  0  0
  7  8  2  0  0  0
  8  9  1  0  0  0
  8 10  1  0  0  0
 10 11  2  0  0  0
 11  2  1  0  0  0
 11  5  1  0  0  0
 25 20  1  0  0  0
 28 23  1  0  0  0
 14 15  1  0  0  0
 27 29  1  0  0  0
M  END
> <minimizedAffinity>
-7.33945

> <minimizedRMSD>
0.49838

$$$$
P16660


 39 42  0  0  0  0  0  0  0  0999 V2000
   -7.3239    5.4624  -14.1283 C   0  0  0  0  0  0  0  0  0  0  0  0
   -7.4057    4.9496  -15.5814 C   0  0  0  0  0  0  0  0  0  0  0  0
   -8.7092    4.6674  -16.0798 C   0  0  0  0  0  0  0  0  0  0  0  0
   -8.9631    4.4347  -17.4306 C   0  0  0  0  0  0  0  0  0  0  0  0
  -10.5667    4.2012  -17.9979 Cl  0  0  0  0  0  0  0  0  0  0  0  0
   -7.9452    4.4877  -18.3674 C   0  0  0  0  0  0  0  0  0  0  0  0
   -6.6540    4.6999  -17.8879 C   0  0  0  0  0  0  0  0  0  0  0  0
   -6.3455    4.8461  -16.5297 C   0  0  0  0  0  0  0  0  0  0  0  0
   -4.9175    4.8050  -16.5256 C   0  0  0  0  0  0  0  0  0  0  0  0
   -3.9681    4.6311  -15.4106 C   0  0  0  0  0  0  0  0  0  0  0  0
   -4.3939    4.8437  -17.7550 N   0  0  0  0  0  0  0  0  0  0  0  0
   -5.4646    4.8344  -18.5597 N   0  0  0  0  0  0  0  0  0  0  0  0
   -5.2733    4.9324  -19.9959 C   0  0  0  0  0  0  0  0  0  0  0  0
   -5.5608    6.2571  -20.4317 O   0  0  0  0  0  0  0  0  0  0  0  0
   -6.4813    6.4754  -20.2174 H   0  0  0  0  0  0  0  0  0  0  0  0
   -6.1494    6.4957  -13.8840 C   0  0  0  0  0  0  0  0  0  0  0  0
   -6.0914    7.4987  -14.4875 O   0  0  0  0  0  0  0  0  0  0  0  0
   -5.2316    5.9448  -12.7511 N   0  0  0  0  0  0  0  0  0  0  0  0
   -5.5374    5.1010  -12.3464 H   0  0  0  0  0  0  0  0  0  0  0  0
   -3.9964    6.4749  -12.1946 C   0  0  0  0  0  0  0  0  0  0  0  0
   -3.0412    5.3371  -11.8279 C   0  0  0  0  0  0  0  0  0  0  0  0
   -4.2846    7.4499  -11.0126 C   0  0  0  0  0  0  0  0  0  0  0  0
   -3.0100    8.1257  -10.5031 C   0  0  0  0  0  0  0  0  0  0  0  0
   -4.9662    6.7982   -9.8902 N   0  0  0  0  0  0  0  0  0  0  0  0
   -4.3573    6.0839   -9.4910 H   0  0  0  0  0  0  0  0  0  0  0  0
   -5.8278    6.3641  -10.2214 H   0  0  0  0  0  0  0  0  0  0  0  0
   -7.3861    4.3571  -13.1497 N   0  0  0  0  0  0  0  0  0  0  0  0
   -7.0544    3.4653  -13.4026 H   0  0  0  0  0  0  0  0  0  0  0  0
   -8.1027    2.4448   -8.6657 C   0  0  0  0  0  0  0  0  0  0  0  0
   -8.1557    3.6324   -9.5769 C   0  0  0  0  0  0  0  0  0  0  0  0
   -7.8944    3.4767  -10.9542 C   0  0  0  0  0  0  0  0  0  0  0  0
   -7.9148    4.5627  -11.8570 C   0  0  0  0  0  0  0  0  0  0  0  0
   -8.2436    5.8282  -11.3480 C   0  0  0  0  0  0  0  0  0  0  0  0
   -8.4606    5.9888   -9.9878 C   0  0  0  0  0  0  0  0  0  0  0  0
   -8.3897    4.9169   -9.1099 C   0  0  0  0  0  0  0  0  0  0  0  0
   -8.5297    5.4290   -7.7151 C   0  0  0  0  0  0  0  0  0  0  0  0
   -8.9864    6.8412   -7.8334 N   0  0  0  0  0  0  0  0  0  0  0  0
   -8.6928    7.2507   -9.2307 C   0  0  0  0  0  0  0  0  0  0  0  0
   -8.4791    7.4340   -7.1764 H   0  0  0  0  0  0  0  0  0  0  0  0
 29 30  1  0  0  0
 30 31  2  0  0  0
 31 32  1  0  0  0
 32 27  1  0  0  0
  1 27  1  0  0  0
  1 16  1  0  0  0
 16 17  2  0  0  0
 16 18  1  0  0  0
 18 20  1  0  0  0
 20 21  1  0  0  0
 20 22  1  0  0  0
 22 23  1  0  0  0
 22 24  1  0  0  0
  1  2  1  0  0  0
  2  3  2  0  0  0
  3  4  1  0  0  0
  4  5  1  0  0  0
  4  6  2  0  0  0
  6  7  1  0  0  0
  7  8  2  0  0  0
  8  9  1  0  0  0
  9 10  1  0  0  0
  9 11  2  0  0  0
 11 12  1  0  0  0
 12 13  1  0  0  0
 13 14  1  0  0  0
 32 33  2  0  0  0
 33 34  1  0  0  0
 34 35  2  0  0  0
 35 36  1  0  0  0
 36 37  1  0  0  0
 37 38  1  0  0  0
 35 30  1  0  0  0
  8  2  1  0  0  0
 38 34  1  0  0  0
 12  7  1  0  0  0
 27 28  1  0  0  0
 18 19  1  0  0  0
 24 25  1  0  0  0
 24 26  1  0  0  0
 14 15  1  0  0  0
 37 39  1  0  0  0
M  END
> <minimizedAffinity>
-6.83624

> <minimizedRMSD>
0.35050

$$$$
P16662


 32 35  0  0  0  0  0  0  0  0999 V2000
   -7.0407    4.1517  -13.7336 C   0  0  0  0  0  0  0  0  0  0  0  0
   -4.3993    5.1184  -17.2776 N   0  0  0  0  0  0  0  0  0  0  0  0
   -4.8893    4.8658  -16.0233 C   0  0  0  0  0  0  0  0  0  0  0  0
   -6.2201    4.5838  -16.2168 C   0  0  0  0  0  0  0  0  0  0  0  0
   -7.2030    4.3089  -15.2436 C   0  0  0  0  0  0  0  0  0  0  0  0
   -8.4831    4.2845  -15.8847 C   0  0  0  0  0  0  0  0  0  0  0  0
   -8.7089    4.4336  -17.2881 C   0  0  0  0  0  0  0  0  0  0  0  0
  -10.3215    4.5469  -17.8764 Cl  0  0  0  0  0  0  0  0  0  0  0  0
   -7.6907    4.5783  -18.2275 C   0  0  0  0  0  0  0  0  0  0  0  0
   -6.4274    4.6928  -17.6515 C   0  0  0  0  0  0  0  0  0  0  0  0
   -5.2654    4.9394  -18.2683 N   0  0  0  0  0  0  0  0  0  0  0  0
   -3.1076    6.3079  -18.7942 C   0  0  0  0  0  0  0  0  0  0  0  0
   -3.1104    5.5797  -17.5643 O   0  0  0  0  0  0  0  0  0  0  0  0
   -6.3510    2.7765  -13.3470 C   0  0  0  0  0  0  0  0  0  0  0  0
   -6.8559    1.7392  -13.5372 O   0  0  0  0  0  0  0  0  0  0  0  0
   -4.9732    3.1260  -12.7079 N   0  0  0  0  0  0  0  0  0  0  0  0
   -4.8063    4.0889  -12.5886 H   0  0  0  0  0  0  0  0  0  0  0  0
   -3.9024    2.2671  -12.2628 C   0  0  0  0  0  0  0  0  0  0  0  0
   -2.9372    3.0346  -11.3694 C   0  0  0  0  0  0  0  0  0  0  0  0
   -3.1871    1.6543  -13.4611 C   0  0  0  0  0  0  0  0  0  0  0  0
   -8.3658    4.2629  -13.0654 N   0  0  0  0  0  0  0  0  0  0  0  0
   -9.1938    4.2797  -13.5976 H   0  0  0  0  0  0  0  0  0  0  0  0
   -8.4174    4.3436  -11.6650 C   0  0  0  0  0  0  0  0  0  0  0  0
   -8.7081    3.1803  -10.9185 C   0  0  0  0  0  0  0  0  0  0  0  0
   -8.7595    3.1962   -9.5203 C   0  0  0  0  0  0  0  0  0  0  0  0
   -8.5402    4.3977   -8.8763 C   0  0  0  0  0  0  0  0  0  0  0  0
   -8.2903    5.5598   -9.5968 C   0  0  0  0  0  0  0  0  0  0  0  0
   -8.2400    5.5544  -10.9834 C   0  0  0  0  0  0  0  0  0  0  0  0
   -8.0785    6.6897   -8.6482 C   0  0  0  0  0  0  0  0  0  0  0  0
   -8.4952    6.1849   -7.3156 N   0  0  0  0  0  0  0  0  0  0  0  0
   -8.4966    4.6996   -7.4185 C   0  0  0  0  0  0  0  0  0  0  0  0
   -9.4287    6.5246   -7.0844 H   0  0  0  0  0  0  0  0  0  0  0  0
 12 13  1  0  0  0
 13  2  1  0  0  0
  2  3  1  0  0  0
  3  4  2  0  0  0
  4  5  1  0  0  0
  5  1  1  0  0  0
  1 21  1  0  0  0
 21 23  1  0  0  0
 23 24  2  0  0  0
 24 25  1  0  0  0
 25 26  2  0  0  0
 26 27  1  0  0  0
 27 28  2  0  0  0
 27 29  1  0  0  0
 29 30  1  0  0  0
 30 31  1  0  0  0
  1 14  1  0  0  0
 14 15  2  0  0  0
 14 16  1  0  0  0
 16 18  1  0  0  0
 18 19  1  0  0  0
 18 20  1  0  0  0
  5  6  2  0  0  0
  6  7  1  0  0  0
  7  8  1  0  0  0
  7  9  2  0  0  0
  9 10  1  0  0  0
 10 11  2  0  0  0
 11  2  1  0  0  0
 10  4  1  0  0  0
 28 23  1  0  0  0
 31 26  1  0  0  0
 21 22  1  0  0  0
 30 32  1  0  0  0
 16 17  1  0  0  0
M  END
> <minimizedAffinity>
-8.09304

> <minimizedRMSD>
1.59667

$$$$
P16670


 36 40  0  0  0  0  0  0  0  0999 V2000
   -7.6110    4.9844  -14.3439 C   0  0  0  0  0  0  0  0  0  0  0  0
   -7.8247    4.7427  -15.8409 C   0  0  0  0  0  0  0  0  0  0  0  0
   -9.1111    4.4348  -16.3965 C   0  0  0  0  0  0  0  0  0  0  0  0
   -9.3849    4.1994  -17.7805 C   0  0  0  0  0  0  0  0  0  0  0  0
  -11.0160    3.9346  -18.2823 Cl  0  0  0  0  0  0  0  0  0  0  0  0
   -8.4125    4.2398  -18.7790 C   0  0  0  0  0  0  0  0  0  0  0  0
   -7.1464    4.5899  -18.3066 C   0  0  0  0  0  0  0  0  0  0  0  0
   -6.0371    4.7991  -19.0260 N   0  0  0  0  0  0  0  0  0  0  0  0
   -5.1335    5.2335  -18.1441 N   0  0  0  0  0  0  0  0  0  0  0  0
   -5.5240    5.1349  -16.8292 C   0  0  0  0  0  0  0  0  0  0  0  0
   -6.8708    4.8142  -16.8909 C   0  0  0  0  0  0  0  0  0  0  0  0
   -4.5609    5.4368  -15.7317 C   0  0  0  0  0  0  0  0  0  0  0  0
   -3.1942    4.7567  -15.8676 C   0  0  0  0  0  0  0  0  0  0  0  0
   -2.2760    5.3855  -16.8236 N   0  0  0  0  0  0  0  0  0  0  0  0
   -2.6568    5.1044  -18.2161 C   0  0  0  0  0  0  0  0  0  0  0  0
   -3.9178    5.8330  -18.6570 C   0  0  0  0  0  0  0  0  0  0  0  0
   -1.3347    5.0280  -16.6606 H   0  0  0  0  0  0  0  0  0  0  0  0
   -7.4734    7.3355  -13.4227 N   0  0  0  0  0  0  0  0  0  0  0  0
   -8.4832    6.2131  -13.8415 C   0  0  0  0  0  0  0  0  0  0  0  0
   -9.6549    6.2079  -13.8399 O   0  0  0  0  0  0  0  0  0  0  0  0
   -6.5269    7.1220  -13.5892 H   0  0  0  0  0  0  0  0  0  0  0  0
   -7.7405    8.5356  -11.3100 C   0  0  0  0  0  0  0  0  0  0  0  0
   -7.7069    8.6351  -12.8306 C   0  0  0  0  0  0  0  0  0  0  0  0
   -6.6572    9.6435  -13.2827 C   0  0  0  0  0  0  0  0  0  0  0  0
   -7.8660    3.7476  -13.5413 N   0  0  0  0  0  0  0  0  0  0  0  0
   -8.1524    2.9124  -13.9768 H   0  0  0  0  0  0  0  0  0  0  0  0
   -7.6850    3.8105  -12.1448 C   0  0  0  0  0  0  0  0  0  0  0  0
   -6.6158    4.5337  -11.5765 C   0  0  0  0  0  0  0  0  0  0  0  0
   -6.4155    4.6029  -10.1937 C   0  0  0  0  0  0  0  0  0  0  0  0
   -7.3440    3.9954   -9.3763 C   0  0  0  0  0  0  0  0  0  0  0  0
   -8.4323    3.3160   -9.9126 C   0  0  0  0  0  0  0  0  0  0  0  0
   -8.6030    3.1911  -11.2846 C   0  0  0  0  0  0  0  0  0  0  0  0
   -9.3054    2.8441   -8.7952 C   0  0  0  0  0  0  0  0  0  0  0  0
   -8.8333    3.5893   -7.5939 N   0  0  0  0  0  0  0  0  0  0  0  0
   -7.4336    3.9660   -7.8889 C   0  0  0  0  0  0  0  0  0  0  0  0
   -8.8758    2.9950   -6.7660 H   0  0  0  0  0  0  0  0  0  0  0  0
 22 23  1  0  0  0
 23 24  1  0  0  0
 23 18  1  0  0  0
 18 19  1  0  0  0
 19 20  2  0  0  0
 19  1  1  0  0  0
  1 25  1  0  0  0
 25 27  1  0  0  0
 27 28  2  0  0  0
 28 29  1  0  0  0
 29 30  2  0  0  0
 30 31  1  0  0  0
 31 32  2  0  0  0
 31 33  1  0  0  0
 33 34  1  0  0  0
 34 35  1  0  0  0
  1  2  1  0  0  0
  2  3  2  0  0  0
  3  4  1  0  0  0
  4  5  1  0  0  0
  4  6  2  0  0  0
  6  7  1  0  0  0
  7  8  2  0  0  0
  8  9  1  0  0  0
  9 10  1  0  0  0
 10 11  2  0  0  0
 10 12  1  0  0  0
 12 13  1  0  0  0
 13 14  1  0  0  0
 14 15  1  0  0  0
 15 16  1  0  0  0
 32 27  1  0  0  0
 11  2  1  0  0  0
 35 30  1  0  0  0
 11  7  1  0  0  0
 16  9  1  0  0  0
 18 21  1  0  0  0
 25 26  1  0  0  0
 34 36  1  0  0  0
 14 17  1  0  0  0
M  END
> <minimizedAffinity>
-8.06426

> <minimizedRMSD>
1.54954

$$$$
P16673


 36 39  0  0  0  0  0  0  0  0999 V2000
   -7.2055    4.4683  -14.3012 C   0  0  0  0  0  0  0  0  0  0  0  0
   -7.4897    4.5375  -15.8005 C   0  0  0  0  0  0  0  0  0  0  0  0
   -8.8089    4.4454  -16.3428 C   0  0  0  0  0  0  0  0  0  0  0  0
   -9.1321    4.4122  -17.7325 C   0  0  0  0  0  0  0  0  0  0  0  0
  -10.7848    4.4406  -18.2046 Cl  0  0  0  0  0  0  0  0  0  0  0  0
   -8.1832    4.4144  -18.7513 C   0  0  0  0  0  0  0  0  0  0  0  0
   -6.8811    4.5812  -18.2851 C   0  0  0  0  0  0  0  0  0  0  0  0
   -5.7606    4.7115  -19.0077 N   0  0  0  0  0  0  0  0  0  0  0  0
   -4.8258    5.0681  -18.1194 N   0  0  0  0  0  0  0  0  0  0  0  0
   -5.2252    4.9203  -16.8082 C   0  0  0  0  0  0  0  0  0  0  0  0
   -6.5719    4.6500  -16.8686 C   0  0  0  0  0  0  0  0  0  0  0  0
   -3.5566    5.6124  -18.6087 C   0  0  0  0  0  0  0  0  0  0  0  0
   -2.4901    4.5165  -18.6423 C   0  0  0  0  0  0  0  0  0  0  0  0
   -3.7136    6.3273  -19.9787 C   0  0  0  0  0  0  0  0  0  0  0  0
   -2.5142    7.0723  -20.3972 N   0  0  0  0  0  0  0  0  0  0  0  0
   -2.3196    7.8109  -19.7211 H   0  0  0  0  0  0  0  0  0  0  0  0
   -2.6742    7.4858  -21.3158 H   0  0  0  0  0  0  0  0  0  0  0  0
   -4.9294    4.7929  -13.2719 N   0  0  0  0  0  0  0  0  0  0  0  0
   -6.1566    5.5622  -13.8669 C   0  0  0  0  0  0  0  0  0  0  0  0
   -6.3254    6.7104  -14.0307 O   0  0  0  0  0  0  0  0  0  0  0  0
   -5.0616    3.8229  -13.1678 H   0  0  0  0  0  0  0  0  0  0  0  0
   -3.7610    6.2618  -11.6959 C   0  0  0  0  0  0  0  0  0  0  0  0
   -3.6339    5.2763  -12.8508 C   0  0  0  0  0  0  0  0  0  0  0  0
   -2.8884    5.9022  -14.0243 C   0  0  0  0  0  0  0  0  0  0  0  0
   -8.4739    4.5350  -13.5117 N   0  0  0  0  0  0  0  0  0  0  0  0
   -9.3461    4.6169  -13.9609 H   0  0  0  0  0  0  0  0  0  0  0  0
   -8.3852    4.4774  -12.1074 C   0  0  0  0  0  0  0  0  0  0  0  0
   -8.3644    3.2269  -11.4549 C   0  0  0  0  0  0  0  0  0  0  0  0
   -8.3286    3.1280  -10.0603 C   0  0  0  0  0  0  0  0  0  0  0  0
   -8.2986    4.2967   -9.3266 C   0  0  0  0  0  0  0  0  0  0  0  0
   -8.3131    5.5379   -9.9535 C   0  0  0  0  0  0  0  0  0  0  0  0
   -8.3515    5.6465  -11.3367 C   0  0  0  0  0  0  0  0  0  0  0  0
   -8.3596    6.6062   -8.9139 C   0  0  0  0  0  0  0  0  0  0  0  0
   -8.0263    5.9282   -7.6300 N   0  0  0  0  0  0  0  0  0  0  0  0
   -8.3053    4.4831   -7.8491 C   0  0  0  0  0  0  0  0  0  0  0  0
   -8.6081    6.2916   -6.8751 H   0  0  0  0  0  0  0  0  0  0  0  0
 22 23  1  0  0  0
 23 24  1  0  0  0
 23 18  1  0  0  0
 18 19  1  0  0  0
 19 20  2  0  0  0
 19  1  1  0  0  0
  1 25  1  0  0  0
 25 27  1  0  0  0
 27 28  2  0  0  0
 28 29  1  0  0  0
 29 30  2  0  0  0
 30 31  1  0  0  0
 31 32  2  0  0  0
 31 33  1  0  0  0
 33 34  1  0  0  0
 34 35  1  0  0  0
  1  2  1  0  0  0
  2  3  2  0  0  0
  3  4  1  0  0  0
  4  5  1  0  0  0
  4  6  2  0  0  0
  6  7  1  0  0  0
  7  8  2  0  0  0
  8  9  1  0  0  0
  9 12  1  0  0  0
 12 13  1  0  0  0
 12 14  1  0  0  0
 14 15  1  0  0  0
  9 10  1  0  0  0
 10 11  2  0  0  0
 32 27  1  0  0  0
 11  2  1  0  0  0
 35 30  1  0  0  0
 11  7  1  0  0  0
 18 21  1  0  0  0
 25 26  1  0  0  0
 34 36  1  0  0  0
 15 16  1  0  0  0
 15 17  1  0  0  0
M  END
> <minimizedAffinity>
-7.14810

> <minimizedRMSD>
0.70458

$$$$
P16684


 41 44  0  0  0  0  0  0  0  0999 V2000
   -7.3200    4.0055  -14.0435 C   0  0  0  0  0  0  0  0  0  0  0  0
   -7.4572    4.3357  -15.5548 C   0  0  0  0  0  0  0  0  0  0  0  0
   -8.7652    4.2330  -16.1199 C   0  0  0  0  0  0  0  0  0  0  0  0
   -9.0319    4.4219  -17.4754 C   0  0  0  0  0  0  0  0  0  0  0  0
  -10.6137    4.2855  -18.1229 Cl  0  0  0  0  0  0  0  0  0  0  0  0
   -8.0266    4.7778  -18.3477 C   0  0  0  0  0  0  0  0  0  0  0  0
   -6.7531    4.9452  -17.8132 C   0  0  0  0  0  0  0  0  0  0  0  0
   -6.4316    4.7036  -16.4752 C   0  0  0  0  0  0  0  0  0  0  0  0
   -5.0304    4.9305  -16.4563 C   0  0  0  0  0  0  0  0  0  0  0  0
   -4.5398    5.3716  -17.6196 N   0  0  0  0  0  0  0  0  0  0  0  0
   -5.6126    5.4019  -18.4220 N   0  0  0  0  0  0  0  0  0  0  0  0
   -5.6095    6.0969  -19.6658 N   0  0  0  0  0  0  0  0  0  0  0  0
   -5.1547    6.9995  -19.5285 H   0  0  0  0  0  0  0  0  0  0  0  0
   -4.9016    5.3770  -20.7526 C   0  0  0  0  0  0  0  0  0  0  0  0
   -5.5989    4.1055  -21.2147 C   0  0  0  0  0  0  0  0  0  0  0  0
   -4.8101    6.3609  -21.9398 C   0  0  0  0  0  0  0  0  0  0  0  0
   -3.4661    5.0289  -20.3202 C   0  0  0  0  0  0  0  0  0  0  0  0
   -2.7528    6.2331  -20.0369 O   0  0  0  0  0  0  0  0  0  0  0  0
   -2.7275    6.7885  -20.8317 H   0  0  0  0  0  0  0  0  0  0  0  0
   -5.2386    3.3004  -12.7874 N   0  0  0  0  0  0  0  0  0  0  0  0
   -5.9908    4.5319  -13.3774 C   0  0  0  0  0  0  0  0  0  0  0  0
   -5.7204    5.6715  -13.3484 O   0  0  0  0  0  0  0  0  0  0  0  0
   -5.6348    2.4280  -13.0135 H   0  0  0  0  0  0  0  0  0  0  0  0
   -4.4243    3.4338  -10.4967 C   0  0  0  0  0  0  0  0  0  0  0  0
   -4.0544    3.2318  -11.9627 C   0  0  0  0  0  0  0  0  0  0  0  0
   -3.3263    1.9121  -12.1672 C   0  0  0  0  0  0  0  0  0  0  0  0
   -8.4652    4.6200  -13.3125 N   0  0  0  0  0  0  0  0  0  0  0  0
   -9.2202    5.0468  -13.7784 H   0  0  0  0  0  0  0  0  0  0  0  0
   -8.3892    4.5456  -11.8983 C   0  0  0  0  0  0  0  0  0  0  0  0
   -8.1209    5.7193  -11.1656 C   0  0  0  0  0  0  0  0  0  0  0  0
   -8.0516    5.7220   -9.7640 C   0  0  0  0  0  0  0  0  0  0  0  0
   -8.3074    4.5521   -9.0716 C   0  0  0  0  0  0  0  0  0  0  0  0
   -8.5363    3.3809   -9.7981 C   0  0  0  0  0  0  0  0  0  0  0  0
   -8.5740    3.3531  -11.1936 C   0  0  0  0  0  0  0  0  0  0  0  0
   -8.6855    2.2513   -8.8386 C   0  0  0  0  0  0  0  0  0  0  0  0
   -8.9181    2.8827   -7.5310 N   0  0  0  0  0  0  0  0  0  0  0  0
   -8.3033    4.2236   -7.5893 C   0  0  0  0  0  0  0  0  0  0  0  0
   -8.4845    2.3295   -6.7919 H   0  0  0  0  0  0  0  0  0  0  0  0
   -9.1146    5.0653   -6.6860 N   0  0  0  0  0  0  0  0  0  0  0  0
   -9.9336    4.2071   -5.8012 C   0  0  0  0  0  0  0  0  0  0  0  0
   -8.2875    5.9122   -5.8259 C   0  0  0  0  0  0  0  0  0  0  0  0
 24 25  1  0  0  0
 25 26  1  0  0  0
 25 20  1  0  0  0
 20 21  1  0  0  0
 21 22  2  0  0  0
 21  1  1  0  0  0
  1 27  1  0  0  0
 27 29  1  0  0  0
 29 30  2  0  0  0
 30 31  1  0  0  0
 31 32  2  0  0  0
 32 33  1  0  0  0
 33 34  2  0  0  0
 33 35  1  0  0  0
 35 36  1  0  0  0
 36 37  1  0  0  0
 37 39  1  0  0  0
 39 40  1  0  0  0
 39 41  1  0  0  0
  1  2  1  0  0  0
  2  3  2  0  0  0
  3  4  1  0  0  0
  4  5  1  0  0  0
  4  6  2  0  0  0
  6  7  1  0  0  0
  7  8  2  0  0  0
  8  9  1  0  0  0
  9 10  2  0  0  0
 10 11  1  0  0  0
 11 12  1  0  0  0
 12 14  1  0  0  0
 14 15  1  0  0  0
 14 16  1  0  0  0
 14 17  1  0  0  0
 17 18  1  0  0  0
 34 29  1  0  0  0
  8  2  1  0  0  0
 37 32  1  0  0  0
 11  7  1  0  0  0
 20 23  1  0  0  0
 27 28  1  0  0  0
 36 38  1  0  0  0
 12 13  1  0  0  0
 18 19  1  0  0  0
M  END
> <minimizedAffinity>
-7.85939

> <minimizedRMSD>
0.47684

$$$$
P16685


 40 43  0  0  0  0  0  0  0  0999 V2000
   -7.1725    4.1403  -13.6259 C   0  0  0  0  0  0  0  0  0  0  0  0
   -7.2857    4.3486  -15.1254 C   0  0  0  0  0  0  0  0  0  0  0  0
   -8.5125    4.2907  -15.8666 C   0  0  0  0  0  0  0  0  0  0  0  0
   -8.6346    4.4411  -17.2922 C   0  0  0  0  0  0  0  0  0  0  0  0
  -10.2082    4.3677  -18.0057 Cl  0  0  0  0  0  0  0  0  0  0  0  0
   -7.5532    4.6745  -18.1546 C   0  0  0  0  0  0  0  0  0  0  0  0
   -6.3690    4.7548  -17.4383 C   0  0  0  0  0  0  0  0  0  0  0  0
   -5.1239    5.0059  -17.9697 C   0  0  0  0  0  0  0  0  0  0  0  0
   -4.2487    4.8850  -16.9106 N   0  0  0  0  0  0  0  0  0  0  0  0
   -2.8679    4.8193  -17.0476 O   0  0  0  0  0  0  0  0  0  0  0  0
   -4.9010    4.7078  -15.7207 C   0  0  0  0  0  0  0  0  0  0  0  0
   -6.2379    4.6029  -16.0200 C   0  0  0  0  0  0  0  0  0  0  0  0
   -2.6271    4.9749  -17.9743 H   0  0  0  0  0  0  0  0  0  0  0  0
   -4.7009    5.2215  -19.2599 N   0  0  0  0  0  0  0  0  0  0  0  0
   -4.5902    4.4658  -19.8811 H   0  0  0  0  0  0  0  0  0  0  0  0
   -4.4112    6.6185  -19.7076 C   0  0  0  0  0  0  0  0  0  0  0  0
   -5.0073    6.7554  -21.1265 C   0  0  0  0  0  0  0  0  0  0  0  0
   -2.8954    6.8438  -19.8294 C   0  0  0  0  0  0  0  0  0  0  0  0
   -5.0197    7.6724  -18.7461 C   0  0  0  0  0  0  0  0  0  0  0  0
   -6.3254    8.1281  -19.1095 O   0  0  0  0  0  0  0  0  0  0  0  0
   -6.2846    8.5732  -19.9703 H   0  0  0  0  0  0  0  0  0  0  0  0
   -5.1142    3.0837  -12.6187 N   0  0  0  0  0  0  0  0  0  0  0  0
   -6.4787    2.7714  -13.2933 C   0  0  0  0  0  0  0  0  0  0  0  0
   -7.0110    1.7503  -13.4853 O   0  0  0  0  0  0  0  0  0  0  0  0
   -4.9193    4.0422  -12.5066 H   0  0  0  0  0  0  0  0  0  0  0  0
   -3.2214    1.7112  -13.2825 C   0  0  0  0  0  0  0  0  0  0  0  0
   -4.0866    2.1967  -12.1298 C   0  0  0  0  0  0  0  0  0  0  0  0
   -3.2527    2.8831  -11.0566 C   0  0  0  0  0  0  0  0  0  0  0  0
   -8.4998    4.1804  -12.9761 N   0  0  0  0  0  0  0  0  0  0  0  0
   -8.9720    3.3013  -13.1871 H   0  0  0  0  0  0  0  0  0  0  0  0
   -8.5252    4.3581  -11.5154 C   0  0  0  0  0  0  0  0  0  0  0  0
   -7.4482    5.2647  -10.8897 C   0  0  0  0  0  0  0  0  0  0  0  0
   -7.7972    5.6271   -9.4312 C   0  0  0  0  0  0  0  0  0  0  0  0
   -8.3750    4.4723   -8.6905 C   0  0  0  0  0  0  0  0  0  0  0  0
   -8.7824    3.3360   -9.2562 C   0  0  0  0  0  0  0  0  0  0  0  0
   -9.3059    2.3869   -8.2461 C   0  0  0  0  0  0  0  0  0  0  0  0
   -9.2338    3.1220   -6.9585 N   0  0  0  0  0  0  0  0  0  0  0  0
   -8.5742    4.4148   -7.2227 C   0  0  0  0  0  0  0  0  0  0  0  0
   -8.7326    3.0469  -10.7148 C   0  0  0  0  0  0  0  0  0  0  0  0
   -8.6910    2.5860   -6.2813 H   0  0  0  0  0  0  0  0  0  0  0  0
 26 27  1  0  0  0
 27 28  1  0  0  0
 27 22  1  0  0  0
 22 23  1  0  0  0
 23 24  2  0  0  0
 23  1  1  0  0  0
  1 29  1  0  0  0
 31 29  1  0  0  0
 31 32  1  0  0  0
 32 33  1  0  0  0
 33 34  1  0  0  0
 34 35  2  0  0  0
 35 36  1  0  0  0
 36 37  1  0  0  0
 37 38  1  0  0  0
 35 39  1  0  0  0
  1  2  1  0  0  0
  2  3  2  0  0  0
  3  4  1  0  0  0
  4  5  1  0  0  0
  4  6  2  0  0  0
  6  7  1  0  0  0
  7  8  2  0  0  0
  8 14  1  0  0  0
 14 16  1  0  0  0
 16 17  1  0  0  0
 16 18  1  0  0  0
 16 19  1  0  0  0
 19 20  1  0  0  0
  8  9  1  0  0  0
  9 10  1  0  0  0
  9 11  1  0  0  0
 11 12  2  0  0  0
 39 31  1  0  0  0
 12  2  1  0  0  0
 38 34  1  0  0  0
 12  7  1  0  0  0
 22 25  1  0  0  0
 29 30  1  0  0  0
 37 40  1  0  0  0
 14 15  1  0  0  0
 20 21  1  0  0  0
 10 13  1  0  0  0
M  END
> <minimizedAffinity>
-8.88180

> <minimizedRMSD>
0.52089

$$$$
P16696


 34 37  0  0  0  0  0  0  0  0999 V2000
   -7.9375    5.5110  -13.7564 C   0  0  0  0  0  0  0  0  0  0  0  0
   -7.8625    5.1553  -15.2258 C   0  0  0  0  0  0  0  0  0  0  0  0
   -8.9922    4.7132  -15.9815 C   0  0  0  0  0  0  0  0  0  0  0  0
   -8.9973    4.4627  -17.3975 C   0  0  0  0  0  0  0  0  0  0  0  0
  -10.5030    4.1246  -18.1671 Cl  0  0  0  0  0  0  0  0  0  0  0  0
   -7.8681    4.5648  -18.2239 C   0  0  0  0  0  0  0  0  0  0  0  0
   -6.7654    4.9635  -17.4857 C   0  0  0  0  0  0  0  0  0  0  0  0
   -5.5082    5.1937  -18.0003 C   0  0  0  0  0  0  0  0  0  0  0  0
   -4.7307    5.5950  -16.9265 N   0  0  0  0  0  0  0  0  0  0  0  0
   -3.3329    5.9642  -16.9988 C   0  0  0  0  0  0  0  0  0  0  0  0
   -5.4774    5.6208  -15.7629 C   0  0  0  0  0  0  0  0  0  0  0  0
   -6.7563    5.2404  -16.0842 C   0  0  0  0  0  0  0  0  0  0  0  0
   -4.9972    5.0697  -19.3903 C   0  0  0  0  0  0  0  0  0  0  0  0
   -5.4675    6.2084  -20.0958 O   0  0  0  0  0  0  0  0  0  0  0  0
   -6.4368    6.2300  -20.0654 H   0  0  0  0  0  0  0  0  0  0  0  0
   -8.1936    7.8163  -12.7003 N   0  0  0  0  0  0  0  0  0  0  0  0
   -8.9594    6.6963  -13.4802 C   0  0  0  0  0  0  0  0  0  0  0  0
  -10.0899    6.6168  -13.7780 O   0  0  0  0  0  0  0  0  0  0  0  0
   -7.2194    7.6863  -12.6423 H   0  0  0  0  0  0  0  0  0  0  0  0
   -9.1067   10.0880  -13.0422 C   0  0  0  0  0  0  0  0  0  0  0  0
   -8.6861    9.0136  -12.0497 C   0  0  0  0  0  0  0  0  0  0  0  0
   -7.6478    9.5510  -11.0714 C   0  0  0  0  0  0  0  0  0  0  0  0
   -8.3087    4.3152  -12.9697 N   0  0  0  0  0  0  0  0  0  0  0  0
   -8.5578    3.4817  -13.4306 H   0  0  0  0  0  0  0  0  0  0  0  0
   -8.3066    4.3665  -11.5660 C   0  0  0  0  0  0  0  0  0  0  0  0
   -7.6883    5.3917  -10.8205 C   0  0  0  0  0  0  0  0  0  0  0  0
   -7.7232    5.4325   -9.4226 C   0  0  0  0  0  0  0  0  0  0  0  0
   -8.3017    4.3724   -8.7639 C   0  0  0  0  0  0  0  0  0  0  0  0
   -8.8035    3.2891   -9.4702 C   0  0  0  0  0  0  0  0  0  0  0  0
   -8.8212    3.2742  -10.8570 C   0  0  0  0  0  0  0  0  0  0  0  0
   -9.2032    2.2244   -8.5046 C   0  0  0  0  0  0  0  0  0  0  0  0
   -9.2779    2.9003   -7.1824 N   0  0  0  0  0  0  0  0  0  0  0  0
   -8.4289    4.1064   -7.3024 C   0  0  0  0  0  0  0  0  0  0  0  0
   -8.9232    2.2870   -6.4486 H   0  0  0  0  0  0  0  0  0  0  0  0
 20 21  1  0  0  0
 21 22  1  0  0  0
 21 16  1  0  0  0
 16 17  1  0  0  0
 17 18  2  0  0  0
 17  1  1  0  0  0
  1 23  1  0  0  0
 23 25  1  0  0  0
 25 26  2  0  0  0
 26 27  1  0  0  0
 27 28  2  0  0  0
 28 29  1  0  0  0
 29 30  2  0  0  0
 29 31  1  0  0  0
 31 32  1  0  0  0
 32 33  1  0  0  0
  1  2  1  0  0  0
  2  3  2  0  0  0
  3  4  1  0  0  0
  4  5  1  0  0  0
  4  6  2  0  0  0
  6  7  1  0  0  0
  7  8  2  0  0  0
  8 13  1  0  0  0
 13 14  1  0  0  0
  8  9  1  0  0  0
  9 10  1  0  0  0
  9 11  1  0  0  0
 11 12  2  0  0  0
 30 25  1  0  0  0
 12  2  1  0  0  0
 33 28  1  0  0  0
 12  7  1  0  0  0
 16 19  1  0  0  0
 23 24  1  0  0  0
 32 34  1  0  0  0
 14 15  1  0  0  0
M  END
> <minimizedAffinity>
-8.28138

> <minimizedRMSD>
0.29652

$$$$
P16702


 37 40  0  0  0  0  0  0  0  0999 V2000
   -7.2410    5.1291  -14.2334 C   0  0  0  0  0  0  0  0  0  0  0  0
   -7.5900    6.5134  -14.1698 O   0  0  0  0  0  0  0  0  0  0  0  0
   -7.5385    6.8179  -13.2503 H   0  0  0  0  0  0  0  0  0  0  0  0
   -7.3592    4.7670  -15.7283 C   0  0  0  0  0  0  0  0  0  0  0  0
   -8.6510    4.4117  -16.2041 C   0  0  0  0  0  0  0  0  0  0  0  0
   -8.9494    4.2549  -17.5522 C   0  0  0  0  0  0  0  0  0  0  0  0
  -10.5684    4.0092  -18.0457 Cl  0  0  0  0  0  0  0  0  0  0  0  0
   -7.9695    4.3849  -18.5165 C   0  0  0  0  0  0  0  0  0  0  0  0
   -6.6802    4.6915  -18.0769 C   0  0  0  0  0  0  0  0  0  0  0  0
   -6.3491    4.8606  -16.7301 C   0  0  0  0  0  0  0  0  0  0  0  0
   -4.9587    5.1214  -16.7908 C   0  0  0  0  0  0  0  0  0  0  0  0
   -4.4555    5.1041  -18.0258 N   0  0  0  0  0  0  0  0  0  0  0  0
   -5.5307    4.9186  -18.8017 N   0  0  0  0  0  0  0  0  0  0  0  0
   -5.4964    4.8907  -20.2195 N   0  0  0  0  0  0  0  0  0  0  0  0
   -6.4452    5.0278  -20.5680 H   0  0  0  0  0  0  0  0  0  0  0  0
   -4.6349    5.9203  -20.8038 C   0  0  0  0  0  0  0  0  0  0  0  0
   -4.5289    5.6459  -22.3078 C   0  0  0  0  0  0  0  0  0  0  0  0
   -5.1947    7.3253  -20.5802 C   0  0  0  0  0  0  0  0  0  0  0  0
   -5.5765    3.3792  -13.3844 N   0  0  0  0  0  0  0  0  0  0  0  0
   -5.7447    4.9002  -13.6839 C   0  0  0  0  0  0  0  0  0  0  0  0
   -4.9982    5.7917  -13.5306 O   0  0  0  0  0  0  0  0  0  0  0  0
   -6.3296    2.8159  -13.6757 H   0  0  0  0  0  0  0  0  0  0  0  0
   -5.0331    1.7594  -11.6441 C   0  0  0  0  0  0  0  0  0  0  0  0
   -4.4942    2.6618  -12.7485 C   0  0  0  0  0  0  0  0  0  0  0  0
   -3.6801    1.8604  -13.7560 C   0  0  0  0  0  0  0  0  0  0  0  0
   -8.2087    4.3802  -13.4190 N   0  0  0  0  0  0  0  0  0  0  0  0
   -8.8161    3.7496  -13.8690 H   0  0  0  0  0  0  0  0  0  0  0  0
   -8.3027    4.5275  -12.0214 C   0  0  0  0  0  0  0  0  0  0  0  0
   -8.0821    5.7399  -11.3323 C   0  0  0  0  0  0  0  0  0  0  0  0
   -8.0268    5.8087   -9.9345 C   0  0  0  0  0  0  0  0  0  0  0  0
   -8.1823    4.6442   -9.2151 C   0  0  0  0  0  0  0  0  0  0  0  0
   -8.4104    3.4403   -9.8605 C   0  0  0  0  0  0  0  0  0  0  0  0
   -8.4723    3.3667  -11.2486 C   0  0  0  0  0  0  0  0  0  0  0  0
   -8.5502    2.3573   -8.8421 C   0  0  0  0  0  0  0  0  0  0  0  0
   -8.2547    2.9793   -7.5242 N   0  0  0  0  0  0  0  0  0  0  0  0
   -8.1586    4.4346   -7.7417 C   0  0  0  0  0  0  0  0  0  0  0  0
   -7.3722    2.6214   -7.1587 H   0  0  0  0  0  0  0  0  0  0  0  0
 23 24  1  0  0  0
 24 25  1  0  0  0
 24 19  1  0  0  0
 19 20  1  0  0  0
 20 21  2  0  0  0
 20  1  1  0  0  0
  1  2  1  0  0  0
  1 26  1  0  0  0
 26 28  1  0  0  0
 28 29  2  0  0  0
 29 30  1  0  0  0
 30 31  2  0  0  0
 31 32  1  0  0  0
 32 33  2  0  0  0
 32 34  1  0  0  0
 34 35  1  0  0  0
 35 36  1  0  0  0
  1  4  1  0  0  0
  4  5  2  0  0  0
  5  6  1  0  0  0
  6  7  1  0  0  0
  6  8  2  0  0  0
  8  9  1  0  0  0
  9 10  2  0  0  0
 10 11  1  0  0  0
 11 12  2  0  0  0
 12 13  1  0  0  0
 13 14  1  0  0  0
 14 16  1  0  0  0
 16 17  1  0  0  0
 16 18  1  0  0  0
 33 28  1  0  0  0
 10  4  1  0  0  0
 36 31  1  0  0  0
 13  9  1  0  0  0
 19 22  1  0  0  0
  2  3  1  0  0  0
 26 27  1  0  0  0
 35 37  1  0  0  0
 14 15  1  0  0  0
M  END
> <minimizedAffinity>
-8.38679

> <minimizedRMSD>
1.10945

$$$$
P16711


 38 42  0  0  0  0  0  0  0  0999 V2000
   -6.9440    4.7296  -13.5804 C   0  0  0  0  0  0  0  0  0  0  0  0
   -6.2979    3.5066  -13.8637 O   0  0  0  0  0  0  0  0  0  0  0  0
   -6.1146    3.0381  -13.0344 H   0  0  0  0  0  0  0  0  0  0  0  0
   -7.2288    5.4660  -14.9317 C   0  0  0  0  0  0  0  0  0  0  0  0
   -8.3104    4.7749  -15.8211 C   0  0  0  0  0  0  0  0  0  0  0  0
   -8.1848    5.0254  -17.3395 C   0  0  0  0  0  0  0  0  0  0  0  0
   -9.5583    4.2558  -18.1795 Cl  0  0  0  0  0  0  0  0  0  0  0  0
   -6.8348    4.5763  -17.8931 C   0  0  0  0  0  0  0  0  0  0  0  0
   -6.4922    5.0312  -19.2300 N   0  0  0  0  0  0  0  0  0  0  0  0
   -5.2378    4.9032  -19.7821 C   0  0  0  0  0  0  0  0  0  0  0  0
   -5.0715    4.8487  -20.9973 O   0  0  0  0  0  0  0  0  0  0  0  0
   -4.0852    4.8402  -18.7908 C   0  0  0  0  0  0  0  0  0  0  0  0
   -4.5522    5.5992  -17.5686 C   0  0  0  0  0  0  0  0  0  0  0  0
   -3.6605    5.7919  -16.4188 N   0  0  0  0  0  0  0  0  0  0  0  0
   -4.5725    5.9915  -15.2486 C   0  0  0  0  0  0  0  0  0  0  0  0
   -6.0005    5.8224  -15.7949 C   0  0  0  0  0  0  0  0  0  0  0  0
   -5.7168    4.8716  -16.9268 C   0  0  0  0  0  0  0  0  0  0  0  0
   -7.1970    5.4548  -19.7714 H   0  0  0  0  0  0  0  0  0  0  0  0
   -3.0700    6.6121  -16.5568 H   0  0  0  0  0  0  0  0  0  0  0  0
   -4.9903    4.7915  -11.9558 N   0  0  0  0  0  0  0  0  0  0  0  0
   -6.0439    5.7013  -12.6589 C   0  0  0  0  0  0  0  0  0  0  0  0
   -6.2151    6.8582  -12.5882 O   0  0  0  0  0  0  0  0  0  0  0  0
   -5.0029    3.8494  -12.2412 H   0  0  0  0  0  0  0  0  0  0  0  0
   -4.5722    4.9322   -9.5537 C   0  0  0  0  0  0  0  0  0  0  0  0
   -3.9998    5.1066  -10.9546 C   0  0  0  0  0  0  0  0  0  0  0  0
   -2.7583    4.2448  -11.1550 C   0  0  0  0  0  0  0  0  0  0  0  0
   -8.2309    4.3876  -12.9277 N   0  0  0  0  0  0  0  0  0  0  0  0
   -9.0251    4.1881  -13.4741 H   0  0  0  0  0  0  0  0  0  0  0  0
   -8.3108    4.3499  -11.5249 C   0  0  0  0  0  0  0  0  0  0  0  0
   -8.2541    5.5414  -10.7714 C   0  0  0  0  0  0  0  0  0  0  0  0
   -8.2354    5.5362   -9.3744 C   0  0  0  0  0  0  0  0  0  0  0  0
   -8.3169    4.3207   -8.7283 C   0  0  0  0  0  0  0  0  0  0  0  0
   -8.4188    3.1375   -9.4458 C   0  0  0  0  0  0  0  0  0  0  0  0
   -8.4029    3.1312  -10.8376 C   0  0  0  0  0  0  0  0  0  0  0  0
   -8.5603    1.9980   -8.4904 C   0  0  0  0  0  0  0  0  0  0  0  0
   -8.5072    2.5804   -7.1260 N   0  0  0  0  0  0  0  0  0  0  0  0
   -8.3473    4.0376   -7.2672 C   0  0  0  0  0  0  0  0  0  0  0  0
   -7.7156    2.1921   -6.6131 H   0  0  0  0  0  0  0  0  0  0  0  0
 24 25  1  0  0  0
 25 26  1  0  0  0
 25 20  1  0  0  0
 20 21  1  0  0  0
 21 22  2  0  0  0
 21  1  1  0  0  0
  1  2  1  0  0  0
  1 27  1  0  0  0
 27 29  1  0  0  0
 29 30  2  0  0  0
 30 31  1  0  0  0
 31 32  2  0  0  0
 32 33  1  0  0  0
 33 34  2  0  0  0
 33 35  1  0  0  0
 35 36  1  0  0  0
 36 37  1  0  0  0
  1  4  1  0  0  0
  4  5  1  0  0  0
  5  6  1  0  0  0
  6  7  1  0  0  0
  6  8  1  0  0  0
  8  9  1  0  0  0
  9 10  1  0  0  0
 10 11  2  0  0  0
 10 12  1  0  0  0
 13 12  1  0  0  0
 13 14  1  0  0  0
 14 15  1  0  0  0
 16 15  1  0  0  0
 16 17  1  0  0  0
 34 29  1  0  0  0
 16  4  1  0  0  0
 37 32  1  0  0  0
 17  8  1  0  0  0
 17 13  1  0  0  0
 20 23  1  0  0  0
  2  3  1  0  0  0
 27 28  1  0  0  0
 36 38  1  0  0  0
  9 18  1  0  0  0
 14 19  1  0  0  0
M  END
> <minimizedAffinity>
-7.99079

> <minimizedRMSD>
0.74579

$$$$
P16714


 32 35  0  0  0  0  0  0  0  0999 V2000
   -7.1156    4.5722  -14.1259 C   0  0  0  0  0  0  0  0  0  0  0  0
   -7.3562    4.6428  -15.6445 C   0  0  0  0  0  0  0  0  0  0  0  0
   -8.6425    4.4976  -16.2215 C   0  0  0  0  0  0  0  0  0  0  0  0
   -8.8450    4.4796  -17.6041 C   0  0  0  0  0  0  0  0  0  0  0  0
  -10.4211    4.3864  -18.2712 Cl  0  0  0  0  0  0  0  0  0  0  0  0
   -7.7870    4.5790  -18.4921 C   0  0  0  0  0  0  0  0  0  0  0  0
   -6.5285    4.7692  -17.9389 C   0  0  0  0  0  0  0  0  0  0  0  0
   -5.3169    4.9460  -18.5476 N   0  0  0  0  0  0  0  0  0  0  0  0
   -4.2962    5.1117  -17.6893 N   0  0  0  0  0  0  0  0  0  0  0  0
   -4.8862    5.0211  -16.4938 C   0  0  0  0  0  0  0  0  0  0  0  0
   -6.2874    4.8097  -16.5706 C   0  0  0  0  0  0  0  0  0  0  0  0
   -5.2028    4.9514  -19.5254 H   0  0  0  0  0  0  0  0  0  0  0  0
   -4.9957    5.1656  -12.9092 N   0  0  0  0  0  0  0  0  0  0  0  0
   -6.2160    5.7850  -13.6653 C   0  0  0  0  0  0  0  0  0  0  0  0
   -6.4598    6.9013  -13.9261 O   0  0  0  0  0  0  0  0  0  0  0  0
   -4.9828    4.1815  -12.8833 H   0  0  0  0  0  0  0  0  0  0  0  0
   -3.8815    5.8046  -12.2411 C   0  0  0  0  0  0  0  0  0  0  0  0
   -4.1993    5.9946  -10.7613 C   0  0  0  0  0  0  0  0  0  0  0  0
   -2.7613    3.9015  -13.5321 C   0  0  0  0  0  0  0  0  0  0  0  0
   -2.6029    4.9882  -12.4793 C   0  0  0  0  0  0  0  0  0  0  0  0
   -8.3873    4.4573  -13.3514 N   0  0  0  0  0  0  0  0  0  0  0  0
   -9.2545    4.3780  -13.8109 H   0  0  0  0  0  0  0  0  0  0  0  0
   -8.3108    4.4657  -11.9416 C   0  0  0  0  0  0  0  0  0  0  0  0
   -8.1517    5.6817  -11.2452 C   0  0  0  0  0  0  0  0  0  0  0  0
   -8.1029    5.7326   -9.8488 C   0  0  0  0  0  0  0  0  0  0  0  0
   -8.2608    4.5539   -9.1485 C   0  0  0  0  0  0  0  0  0  0  0  0
   -8.4289    3.3405   -9.8074 C   0  0  0  0  0  0  0  0  0  0  0  0
   -8.4331    3.2766  -11.1988 C   0  0  0  0  0  0  0  0  0  0  0  0
   -8.6031    2.2635   -8.7740 C   0  0  0  0  0  0  0  0  0  0  0  0
   -8.9090    2.9852   -7.5085 N   0  0  0  0  0  0  0  0  0  0  0  0
   -8.3119    4.3269   -7.6754 C   0  0  0  0  0  0  0  0  0  0  0  0
   -8.4913    2.5040   -6.7121 H   0  0  0  0  0  0  0  0  0  0  0  0
 19 20  1  0  0  0
 20 17  1  0  0  0
 17 18  1  0  0  0
 17 13  1  0  0  0
 13 14  1  0  0  0
 14 15  2  0  0  0
 14  1  1  0  0  0
  1 21  1  0  0  0
 21 23  1  0  0  0
 23 24  2  0  0  0
 24 25  1  0  0  0
 25 26  2  0  0  0
 26 27  1  0  0  0
 27 28  2  0  0  0
 27 29  1  0  0  0
 29 30  1  0  0  0
 30 31  1  0  0  0
  1  2  1  0  0  0
  2  3  2  0  0  0
  3  4  1  0  0  0
  4  5  1  0  0  0
  4  6  2  0  0  0
  6  7  1  0  0  0
  7  8  1  0  0  0
  8  9  1  0  0  0
  9 10  2  0  0  0
 10 11  1  0  0  0
 28 23  1  0  0  0
 11  2  1  0  0  0
 31 26  1  0  0  0
 11  7  2  0  0  0
 13 16  1  0  0  0
 21 22  1  0  0  0
 30 32  1  0  0  0
  8 12  1  0  0  0
M  END
> <minimizedAffinity>
-7.09626

> <minimizedRMSD>
0.99463

$$$$
P16720


 39 42  0  0  0  0  0  0  0  0999 V2000
   -7.0742    4.8568  -13.9717 C   0  0  0  0  0  0  0  0  0  0  0  0
   -6.9187    6.2594  -13.8259 O   0  0  0  0  0  0  0  0  0  0  0  0
   -6.7768    6.4735  -12.8905 H   0  0  0  0  0  0  0  0  0  0  0  0
   -7.2852    4.6793  -15.4686 C   0  0  0  0  0  0  0  0  0  0  0  0
   -8.5691    4.3894  -16.0277 C   0  0  0  0  0  0  0  0  0  0  0  0
   -8.8557    4.2829  -17.4252 C   0  0  0  0  0  0  0  0  0  0  0  0
  -10.4909    4.0201  -17.9042 Cl  0  0  0  0  0  0  0  0  0  0  0  0
   -7.8947    4.4253  -18.4329 C   0  0  0  0  0  0  0  0  0  0  0  0
   -6.6237    4.7352  -17.9408 C   0  0  0  0  0  0  0  0  0  0  0  0
   -5.4883    4.9503  -18.6238 N   0  0  0  0  0  0  0  0  0  0  0  0
   -4.5554    5.2358  -17.6957 N   0  0  0  0  0  0  0  0  0  0  0  0
   -5.0659    5.2718  -16.4223 C   0  0  0  0  0  0  0  0  0  0  0  0
   -6.3723    4.8725  -16.5225 C   0  0  0  0  0  0  0  0  0  0  0  0
   -3.1489    5.4154  -18.1011 C   0  0  0  0  0  0  0  0  0  0  0  0
   -2.6538    4.1988  -18.9116 C   0  0  0  0  0  0  0  0  0  0  0  0
   -2.2444    5.5635  -16.8556 C   0  0  0  0  0  0  0  0  0  0  0  0
   -2.9792    6.9336  -19.1189 S   0  0  0  0  0  0  0  0  0  0  0  0
   -1.3142    7.4977  -18.8402 C   0  0  0  0  0  0  0  0  0  0  0  0
   -3.0528    6.6147  -20.5330 O   0  0  0  0  0  0  0  0  0  0  0  0
   -3.8467    7.9643  -18.5683 O   0  0  0  0  0  0  0  0  0  0  0  0
   -4.7999    5.0121  -12.8866 N   0  0  0  0  0  0  0  0  0  0  0  0
   -5.8336    3.9776  -13.4360 C   0  0  0  0  0  0  0  0  0  0  0  0
   -5.7729    2.8100  -13.5083 O   0  0  0  0  0  0  0  0  0  0  0  0
   -5.0565    5.9550  -13.0065 H   0  0  0  0  0  0  0  0  0  0  0  0
   -2.5849    5.9657  -12.5262 C   0  0  0  0  0  0  0  0  0  0  0  0
   -3.5311    4.8099  -12.2323 C   0  0  0  0  0  0  0  0  0  0  0  0
   -3.7363    4.6253  -10.7335 C   0  0  0  0  0  0  0  0  0  0  0  0
   -8.2888    4.5082  -13.2067 N   0  0  0  0  0  0  0  0  0  0  0  0
   -9.1234    4.2753  -13.6741 H   0  0  0  0  0  0  0  0  0  0  0  0
   -8.2357    4.5139  -11.7884 C   0  0  0  0  0  0  0  0  0  0  0  0
   -8.0281    5.6855  -11.0272 C   0  0  0  0  0  0  0  0  0  0  0  0
   -8.0464    5.6772   -9.6262 C   0  0  0  0  0  0  0  0  0  0  0  0
   -8.3119    4.4880   -8.9837 C   0  0  0  0  0  0  0  0  0  0  0  0
   -8.5491    3.3268   -9.7066 C   0  0  0  0  0  0  0  0  0  0  0  0
   -8.5239    3.3245  -11.0954 C   0  0  0  0  0  0  0  0  0  0  0  0
   -8.7993    2.2087   -8.7464 C   0  0  0  0  0  0  0  0  0  0  0  0
   -9.0801    2.8742   -7.4432 N   0  0  0  0  0  0  0  0  0  0  0  0
   -8.3996    4.1854   -7.5259 C   0  0  0  0  0  0  0  0  0  0  0  0
   -8.7039    2.3234   -6.6715 H   0  0  0  0  0  0  0  0  0  0  0  0
 25 26  1  0  0  0
 26 27  1  0  0  0
 26 21  1  0  0  0
 21 22  1  0  0  0
 22 23  2  0  0  0
 22  1  1  0  0  0
  1  2  1  0  0  0
  1 28  1  0  0  0
 28 30  1  0  0  0
 30 31  2  0  0  0
 31 32  1  0  0  0
 32 33  2  0  0  0
 33 34  1  0  0  0
 34 35  2  0  0  0
 34 36  1  0  0  0
 36 37  1  0  0  0
 37 38  1  0  0  0
  1  4  1  0  0  0
  4  5  2  0  0  0
  5  6  1  0  0  0
  6  7  1  0  0  0
  6  8  2  0  0  0
  8  9  1  0  0  0
  9 10  2  0  0  0
 10 11  1  0  0  0
 11 14  1  0  0  0
 14 15  1  0  0  0
 14 16  1  0  0  0
 14 17  1  0  0  0
 17 18  1  0  0  0
 17 19  2  0  0  0
 17 20  2  0  0  0
 11 12  1  0  0  0
 12 13  2  0  0  0
 35 30  1  0  0  0
 13  4  1  0  0  0
 38 33  1  0  0  0
 13  9  1  0  0  0
 21 24  1  0  0  0
  2  3  1  0  0  0
 28 29  1  0  0  0
 37 39  1  0  0  0
M  END
> <minimizedAffinity>
-8.05684

> <minimizedRMSD>
0.85507

$$$$
P16734


 34 37  0  0  0  0  0  0  0  0999 V2000
   -7.2949    5.0704  -13.8072 C   0  0  0  0  0  0  0  0  0  0  0  0
   -6.0347    4.5291  -13.4665 O   0  0  0  0  0  0  0  0  0  0  0  0
   -5.8718    4.6604  -12.5194 H   0  0  0  0  0  0  0  0  0  0  0  0
   -7.4598    4.8111  -15.3331 C   0  0  0  0  0  0  0  0  0  0  0  0
   -8.7322    4.5013  -15.8904 C   0  0  0  0  0  0  0  0  0  0  0  0
   -8.9390    4.3365  -17.2663 C   0  0  0  0  0  0  0  0  0  0  0  0
  -10.5082    4.0744  -17.9103 Cl  0  0  0  0  0  0  0  0  0  0  0  0
   -7.9032    4.4473  -18.1760 C   0  0  0  0  0  0  0  0  0  0  0  0
   -6.6580    4.7502  -17.6558 C   0  0  0  0  0  0  0  0  0  0  0  0
   -5.4617    4.9239  -18.2956 N   0  0  0  0  0  0  0  0  0  0  0  0
   -4.4177    5.1931  -17.3694 N   0  0  0  0  0  0  0  0  0  0  0  0
   -3.2539    5.3326  -17.8108 O   0  0  0  0  0  0  0  0  0  0  0  0
   -4.9498    5.2414  -16.1358 C   0  0  0  0  0  0  0  0  0  0  0  0
   -6.3831    4.9406  -16.2765 C   0  0  0  0  0  0  0  0  0  0  0  0
   -5.3395    4.8696  -19.2709 H   0  0  0  0  0  0  0  0  0  0  0  0
   -8.8694    7.0968  -13.4090 N   0  0  0  0  0  0  0  0  0  0  0  0
   -7.3699    6.6933  -13.5998 C   0  0  0  0  0  0  0  0  0  0  0  0
   -6.3988    7.3517  -13.5891 O   0  0  0  0  0  0  0  0  0  0  0  0
   -9.5136    6.3636  -13.5387 H   0  0  0  0  0  0  0  0  0  0  0  0
   -9.2918    8.6896  -11.5860 C   0  0  0  0  0  0  0  0  0  0  0  0
   -9.4672    8.3821  -13.0706 C   0  0  0  0  0  0  0  0  0  0  0  0
  -10.9290    8.4870  -13.4986 C   0  0  0  0  0  0  0  0  0  0  0  0
   -8.3063    4.3321  -12.9984 N   0  0  0  0  0  0  0  0  0  0  0  0
   -9.0494    3.8794  -13.4590 H   0  0  0  0  0  0  0  0  0  0  0  0
   -8.2282    4.2634  -11.5818 C   0  0  0  0  0  0  0  0  0  0  0  0
   -7.8655    5.3647  -10.7779 C   0  0  0  0  0  0  0  0  0  0  0  0
   -7.9521    5.3445   -9.3803 C   0  0  0  0  0  0  0  0  0  0  0  0
   -8.3851    4.1918   -8.7688 C   0  0  0  0  0  0  0  0  0  0  0  0
   -8.7027    3.0680   -9.5177 C   0  0  0  0  0  0  0  0  0  0  0  0
   -8.6571    3.0968  -10.9137 C   0  0  0  0  0  0  0  0  0  0  0  0
   -9.0333    1.9586   -8.5613 C   0  0  0  0  0  0  0  0  0  0  0  0
   -9.3167    2.6268   -7.2639 N   0  0  0  0  0  0  0  0  0  0  0  0
   -8.5624    3.8973   -7.3174 C   0  0  0  0  0  0  0  0  0  0  0  0
   -8.9950    2.0509   -6.4859 H   0  0  0  0  0  0  0  0  0  0  0  0
 20 21  1  0  0  0
 21 22  1  0  0  0
 21 16  1  0  0  0
 16 17  1  0  0  0
 17 18  2  0  0  0
 17  1  1  0  0  0
  1  2  1  0  0  0
  1 23  1  0  0  0
 23 25  1  0  0  0
 25 26  2  0  0  0
 26 27  1  0  0  0
 27 28  2  0  0  0
 28 29  1  0  0  0
 29 30  2  0  0  0
 29 31  1  0  0  0
 31 32  1  0  0  0
 32 33  1  0  0  0
  1  4  1  0  0  0
  4  5  2  0  0  0
  5  6  1  0  0  0
  6  7  1  0  0  0
  6  8  2  0  0  0
  8  9  1  0  0  0
  9 10  1  0  0  0
 10 11  1  0  0  0
 11 12  1  0  0  0
 11 13  2  0  0  0
 13 14  1  0  0  0
 30 25  1  0  0  0
 14  4  1  0  0  0
 33 28  1  0  0  0
 14  9  2  0  0  0
 16 19  1  0  0  0
  2  3  1  0  0  0
 23 24  1  0  0  0
 32 34  1  0  0  0
 10 15  1  0  0  0
M  CHG 1  11   1
M  CHG 1  12  -1
M  END
> <minimizedAffinity>
-7.94986

> <minimizedRMSD>
0.33491

$$$$
P16737


 35 38  0  0  0  0  0  0  0  0999 V2000
   -7.0304    4.6184  -14.0676 C   0  0  0  0  0  0  0  0  0  0  0  0
   -6.1525    3.5341  -13.8177 O   0  0  0  0  0  0  0  0  0  0  0  0
   -5.9211    3.5158  -12.8758 H   0  0  0  0  0  0  0  0  0  0  0  0
   -7.3546    4.5899  -15.5640 C   0  0  0  0  0  0  0  0  0  0  0  0
   -8.6557    4.3826  -16.0720 C   0  0  0  0  0  0  0  0  0  0  0  0
   -8.9188    4.4066  -17.4555 C   0  0  0  0  0  0  0  0  0  0  0  0
  -10.5179    4.1867  -18.0368 Cl  0  0  0  0  0  0  0  0  0  0  0  0
   -7.9155    4.6793  -18.3743 C   0  0  0  0  0  0  0  0  0  0  0  0
   -6.6562    4.9449  -17.8861 C   0  0  0  0  0  0  0  0  0  0  0  0
   -6.3788    4.8507  -16.5315 C   0  0  0  0  0  0  0  0  0  0  0  0
   -4.9503    5.1263  -16.4544 C   0  0  0  0  0  0  0  0  0  0  0  0
   -4.4022    5.4884  -17.5764 N   0  0  0  0  0  0  0  0  0  0  0  0
   -5.4992    5.4568  -18.6224 N   0  0  0  0  0  0  0  0  0  0  0  0
   -5.1181    4.6349  -19.6028 O   0  0  0  0  0  0  0  0  0  0  0  0
   -6.1817    5.8940  -19.1813 H   0  0  0  0  0  0  0  0  0  0  0  0
   -5.0047    5.6992  -12.9917 N   0  0  0  0  0  0  0  0  0  0  0  0
   -6.3154    6.0359  -13.7715 C   0  0  0  0  0  0  0  0  0  0  0  0
   -6.7562    7.0696  -14.1042 O   0  0  0  0  0  0  0  0  0  0  0  0
   -4.8929    4.7478  -12.7644 H   0  0  0  0  0  0  0  0  0  0  0  0
   -3.2255    5.9528  -11.3436 C   0  0  0  0  0  0  0  0  0  0  0  0
   -3.9307    6.5567  -12.5503 C   0  0  0  0  0  0  0  0  0  0  0  0
   -2.9553    6.8162  -13.6922 C   0  0  0  0  0  0  0  0  0  0  0  0
   -8.2329    4.3954  -13.2314 N   0  0  0  0  0  0  0  0  0  0  0  0
   -9.0612    4.0862  -13.6643 H   0  0  0  0  0  0  0  0  0  0  0  0
   -8.2336    4.6101  -11.8392 C   0  0  0  0  0  0  0  0  0  0  0  0
   -8.0773    5.8899  -11.2627 C   0  0  0  0  0  0  0  0  0  0  0  0
   -8.0263    6.0993   -9.8745 C   0  0  0  0  0  0  0  0  0  0  0  0
   -8.2055    5.0167   -9.0447 C   0  0  0  0  0  0  0  0  0  0  0  0
   -8.4738    3.7700   -9.5959 C   0  0  0  0  0  0  0  0  0  0  0  0
   -8.4721    3.5338  -10.9664 C   0  0  0  0  0  0  0  0  0  0  0  0
   -8.7929    2.8654   -8.4780 C   0  0  0  0  0  0  0  0  0  0  0  0
   -9.1925    1.7242   -8.5486 O   0  0  0  0  0  0  0  0  0  0  0  0
   -8.6222    3.5861   -7.3155 N   0  0  0  0  0  0  0  0  0  0  0  0
   -8.2004    4.9360   -7.5558 C   0  0  0  0  0  0  0  0  0  0  0  0
   -8.7735    3.2143   -6.4166 H   0  0  0  0  0  0  0  0  0  0  0  0
 20 21  1  0  0  0
 21 22  1  0  0  0
 21 16  1  0  0  0
 16 17  1  0  0  0
 17 18  2  0  0  0
 17  1  1  0  0  0
  1  2  1  0  0  0
  1 23  1  0  0  0
 23 25  1  0  0  0
 25 26  2  0  0  0
 26 27  1  0  0  0
 27 28  2  0  0  0
 28 29  1  0  0  0
 29 30  2  0  0  0
 29 31  1  0  0  0
 31 32  2  0  0  0
 31 33  1  0  0  0
 33 34  1  0  0  0
  1  4  1  0  0  0
  4  5  2  0  0  0
  5  6  1  0  0  0
  6  7  1  0  0  0
  6  8  2  0  0  0
  8  9  1  0  0  0
  9 10  2  0  0  0
 10 11  1  0  0  0
 11 12  2  0  0  0
 12 13  1  0  0  0
 13 14  1  0  0  0
 30 25  1  0  0  0
 10  4  1  0  0  0
 34 28  1  0  0  0
 13  9  1  0  0  0
 16 19  1  0  0  0
  2  3  1  0  0  0
 23 24  1  0  0  0
 33 35  1  0  0  0
 13 15  1  0  0  0
M  CHG 1  13   1
M  CHG 1  14  -1
M  END
> <minimizedAffinity>
-7.75371

> <minimizedRMSD>
0.33909

$$$$
P16751


 40 44  0  0  0  0  0  0  0  0999 V2000
   -7.1894    5.1419  -14.0558 C   0  0  0  0  0  0  0  0  0  0  0  0
   -7.4922    6.5357  -14.0057 O   0  0  0  0  0  0  0  0  0  0  0  0
   -7.4276    6.8479  -13.0895 H   0  0  0  0  0  0  0  0  0  0  0  0
   -7.3341    4.8156  -15.5394 C   0  0  0  0  0  0  0  0  0  0  0  0
   -8.6283    4.5226  -16.0897 C   0  0  0  0  0  0  0  0  0  0  0  0
   -8.9172    4.3037  -17.4715 C   0  0  0  0  0  0  0  0  0  0  0  0
  -10.5493    3.9846  -17.9349 Cl  0  0  0  0  0  0  0  0  0  0  0  0
   -7.9555    4.3672  -18.4825 C   0  0  0  0  0  0  0  0  0  0  0  0
   -6.6750    4.6694  -18.0106 C   0  0  0  0  0  0  0  0  0  0  0  0
   -5.5471    4.8123  -18.7224 N   0  0  0  0  0  0  0  0  0  0  0  0
   -4.5975    5.0868  -17.8176 N   0  0  0  0  0  0  0  0  0  0  0  0
   -5.0612    5.1780  -16.5324 C   0  0  0  0  0  0  0  0  0  0  0  0
   -6.4012    4.8838  -16.5965 C   0  0  0  0  0  0  0  0  0  0  0  0
   -3.2194    5.1988  -18.2643 C   0  0  0  0  0  0  0  0  0  0  0  0
   -2.6803    6.6372  -18.2929 C   0  0  0  0  0  0  0  0  0  0  0  0
   -1.1824    6.6321  -18.6712 C   0  0  0  0  0  0  0  0  0  0  0  0
   -0.7631    7.8496  -19.4999 C   0  0  0  0  0  0  0  0  0  0  0  0
   -1.4249    9.0637  -19.0309 N   0  0  0  0  0  0  0  0  0  0  0  0
   -2.8774    8.9854  -19.2210 C   0  0  0  0  0  0  0  0  0  0  0  0
   -3.4517    7.5633  -19.2418 C   0  0  0  0  0  0  0  0  0  0  0  0
   -1.0639    9.8620  -19.5531 H   0  0  0  0  0  0  0  0  0  0  0  0
   -5.4523    3.4718  -13.3006 N   0  0  0  0  0  0  0  0  0  0  0  0
   -5.7139    4.8766  -13.4727 C   0  0  0  0  0  0  0  0  0  0  0  0
   -5.0323    5.8389  -13.2283 O   0  0  0  0  0  0  0  0  0  0  0  0
   -6.1538    2.8794  -13.6558 H   0  0  0  0  0  0  0  0  0  0  0  0
   -3.5975    1.9330  -13.7182 C   0  0  0  0  0  0  0  0  0  0  0  0
   -4.3346    2.7821  -12.6950 C   0  0  0  0  0  0  0  0  0  0  0  0
   -4.8183    1.9373  -11.5206 C   0  0  0  0  0  0  0  0  0  0  0  0
   -8.2010    4.4093  -13.2647 N   0  0  0  0  0  0  0  0  0  0  0  0
   -8.8719    3.8643  -13.7359 H   0  0  0  0  0  0  0  0  0  0  0  0
   -8.2343    4.4665  -11.8645 C   0  0  0  0  0  0  0  0  0  0  0  0
   -8.0983    5.6686  -11.1402 C   0  0  0  0  0  0  0  0  0  0  0  0
   -8.1295    5.7021   -9.7391 C   0  0  0  0  0  0  0  0  0  0  0  0
   -8.3270    4.5177   -9.0611 C   0  0  0  0  0  0  0  0  0  0  0  0
   -8.4928    3.3242   -9.7502 C   0  0  0  0  0  0  0  0  0  0  0  0
   -8.4587    3.2834  -11.1382 C   0  0  0  0  0  0  0  0  0  0  0  0
   -8.6730    2.2165   -8.7625 C   0  0  0  0  0  0  0  0  0  0  0  0
   -8.9635    2.8922   -7.4686 N   0  0  0  0  0  0  0  0  0  0  0  0
   -8.3959    4.2517   -7.5956 C   0  0  0  0  0  0  0  0  0  0  0  0
   -8.5207    2.3918   -6.6980 H   0  0  0  0  0  0  0  0  0  0  0  0
 26 27  1  0  0  0
 27 28  1  0  0  0
 27 22  1  0  0  0
 22 23  1  0  0  0
 23 24  2  0  0  0
 23  1  1  0  0  0
  1  2  1  0  0  0
  1 29  1  0  0  0
 29 31  1  0  0  0
 31 32  2  0  0  0
 32 33  1  0  0  0
 33 34  2  0  0  0
 34 35  1  0  0  0
 35 36  2  0  0  0
 35 37  1  0  0  0
 37 38  1  0  0  0
 38 39  1  0  0  0
  1  4  1  0  0  0
  4  5  2  0  0  0
  5  6  1  0  0  0
  6  7  1  0  0  0
  6  8  2  0  0  0
  8  9  1  0  0  0
  9 10  2  0  0  0
 10 11  1  0  0  0
 11 14  1  0  0  0
 14 15  1  0  0  0
 15 16  1  0  0  0
 16 17  1  0  0  0
 17 18  1  0  0  0
 18 19  1  0  0  0
 19 20  1  0  0  0
 11 12  1  0  0  0
 12 13  2  0  0  0
 36 31  1  0  0  0
 13  4  1  0  0  0
 39 34  1  0  0  0
 13  9  1  0  0  0
 20 15  1  0  0  0
 22 25  1  0  0  0
  2  3  1  0  0  0
 29 30  1  0  0  0
 38 40  1  0  0  0
 18 21  1  0  0  0
M  END
> <minimizedAffinity>
-7.83769

> <minimizedRMSD>
0.47999

$$$$
P16755


 38 41  0  0  0  0  0  0  0  0999 V2000
   -7.1480    5.4246  -13.7649 C   0  0  0  0  0  0  0  0  0  0  0  0
   -7.3104    6.8444  -13.8043 O   0  0  0  0  0  0  0  0  0  0  0  0
   -8.1559    7.0614  -14.2274 H   0  0  0  0  0  0  0  0  0  0  0  0
   -5.0319    5.3344  -18.1021 N   0  0  0  0  0  0  0  0  0  0  0  0
   -4.1505    5.8505  -17.2185 N   0  0  0  0  0  0  0  0  0  0  0  0
   -4.8189    5.8643  -16.0698 C   0  0  0  0  0  0  0  0  0  0  0  0
   -6.1232    5.3173  -16.1643 C   0  0  0  0  0  0  0  0  0  0  0  0
   -7.1914    5.0495  -15.2548 C   0  0  0  0  0  0  0  0  0  0  0  0
   -8.3886    4.5545  -15.8473 C   0  0  0  0  0  0  0  0  0  0  0  0
   -8.5042    4.3085  -17.2189 C   0  0  0  0  0  0  0  0  0  0  0  0
   -9.9849    3.7275  -17.8924 Cl  0  0  0  0  0  0  0  0  0  0  0  0
   -7.4427    4.5452  -18.0849 C   0  0  0  0  0  0  0  0  0  0  0  0
   -6.2593    5.0457  -17.5297 C   0  0  0  0  0  0  0  0  0  0  0  0
   -4.5745    4.8911  -19.4213 C   0  0  0  0  0  0  0  0  0  0  0  0
   -2.6512    4.4028  -20.8014 C   0  0  0  0  0  0  0  0  0  0  0  0
   -3.1559    4.5124  -19.4317 N   0  0  0  0  0  0  0  0  0  0  0  0
   -2.6178    5.2216  -18.9339 H   0  0  0  0  0  0  0  0  0  0  0  0
   -5.7411    5.0559  -13.0612 C   0  0  0  0  0  0  0  0  0  0  0  0
   -5.0462    5.9093  -12.6538 O   0  0  0  0  0  0  0  0  0  0  0  0
   -5.6018    3.5078  -12.9623 N   0  0  0  0  0  0  0  0  0  0  0  0
   -6.3649    3.0013  -13.3232 H   0  0  0  0  0  0  0  0  0  0  0  0
   -4.5334    2.6936  -12.4264 C   0  0  0  0  0  0  0  0  0  0  0  0
   -5.0790    1.7162  -11.3925 C   0  0  0  0  0  0  0  0  0  0  0  0
   -3.7760    1.9802  -13.5351 C   0  0  0  0  0  0  0  0  0  0  0  0
   -8.2694    4.8682  -12.9780 N   0  0  0  0  0  0  0  0  0  0  0  0
   -9.0263    4.4305  -13.4306 H   0  0  0  0  0  0  0  0  0  0  0  0
   -8.2421    4.9726  -11.5608 C   0  0  0  0  0  0  0  0  0  0  0  0
   -8.1142    6.2129  -10.8939 C   0  0  0  0  0  0  0  0  0  0  0  0
   -8.0284    6.3066   -9.4977 C   0  0  0  0  0  0  0  0  0  0  0  0
   -8.1292    5.1474   -8.7551 C   0  0  0  0  0  0  0  0  0  0  0  0
   -8.3424    3.9215   -9.3867 C   0  0  0  0  0  0  0  0  0  0  0  0
   -8.3993    3.8166  -10.7651 C   0  0  0  0  0  0  0  0  0  0  0  0
   -8.5959    2.6384  -11.3709 F   0  0  0  0  0  0  0  0  0  0  0  0
   -8.5120    2.9189   -8.3260 C   0  0  0  0  0  0  0  0  0  0  0  0
   -8.8084    1.7505   -8.4396 O   0  0  0  0  0  0  0  0  0  0  0  0
   -8.3404    3.5708   -7.1226 N   0  0  0  0  0  0  0  0  0  0  0  0
   -8.0727    4.9690   -7.2760 C   0  0  0  0  0  0  0  0  0  0  0  0
   -8.3963    3.1212   -6.2485 H   0  0  0  0  0  0  0  0  0  0  0  0
 15 16  1  0  0  0
 16 14  1  0  0  0
 14  4  1  0  0  0
  4  5  1  0  0  0
  5  6  2  0  0  0
  6  7  1  0  0  0
  7  8  2  0  0  0
  8  1  1  0  0  0
  1  2  1  0  0  0
  1 25  1  0  0  0
 25 27  1  0  0  0
 27 28  2  0  0  0
 28 29  1  0  0  0
 29 30  2  0  0  0
 30 31  1  0  0  0
 31 32  2  0  0  0
 32 33  1  0  0  0
 31 34  1  0  0  0
 34 35  2  0  0  0
 34 36  1  0  0  0
 36 37  1  0  0  0
  1 18  1  0  0  0
 18 19  2  0  0  0
 18 20  1  0  0  0
 20 22  1  0  0  0
 22 23  1  0  0  0
 22 24  1  0  0  0
  8  9  1  0  0  0
  9 10  2  0  0  0
 10 11  1  0  0  0
 10 12  1  0  0  0
 12 13  2  0  0  0
 13  4  1  0  0  0
 13  7  1  0  0  0
 32 27  1  0  0  0
 37 30  1  0  0  0
 16 17  1  0  0  0
  2  3  1  0  0  0
 25 26  1  0  0  0
 36 38  1  0  0  0
 20 21  1  0  0  0
M  END
> <minimizedAffinity>
-7.83871

> <minimizedRMSD>
0.84005

$$$$
P16768


 36 39  0  0  0  0  0  0  0  0999 V2000
   -7.0035    4.8309  -13.9232 C   0  0  0  0  0  0  0  0  0  0  0  0
   -6.8118    6.2318  -13.7835 O   0  0  0  0  0  0  0  0  0  0  0  0
   -6.6597    6.4459  -12.8497 H   0  0  0  0  0  0  0  0  0  0  0  0
   -7.2271    4.6547  -15.4226 C   0  0  0  0  0  0  0  0  0  0  0  0
   -8.5349    4.4165  -15.9622 C   0  0  0  0  0  0  0  0  0  0  0  0
   -8.8528    4.3275  -17.3531 C   0  0  0  0  0  0  0  0  0  0  0  0
  -10.4907    4.0922  -17.8273 Cl  0  0  0  0  0  0  0  0  0  0  0  0
   -7.9159    4.4739  -18.3773 C   0  0  0  0  0  0  0  0  0  0  0  0
   -6.6259    4.7358  -17.9143 C   0  0  0  0  0  0  0  0  0  0  0  0
   -5.5232    4.9681  -18.6430 N   0  0  0  0  0  0  0  0  0  0  0  0
   -4.5351    5.1046  -17.7396 N   0  0  0  0  0  0  0  0  0  0  0  0
   -4.9725    5.0902  -16.4372 C   0  0  0  0  0  0  0  0  0  0  0  0
   -6.3184    4.8178  -16.4949 C   0  0  0  0  0  0  0  0  0  0  0  0
   -3.1765    5.3589  -18.2251 C   0  0  0  0  0  0  0  0  0  0  0  0
   -2.7864    4.2834  -19.1266 N   0  0  0  0  0  0  0  0  0  0  0  0
   -2.8161    3.3941  -18.6279 H   0  0  0  0  0  0  0  0  0  0  0  0
   -1.8395    4.4512  -19.4665 H   0  0  0  0  0  0  0  0  0  0  0  0
   -4.7353    4.9492  -12.8352 N   0  0  0  0  0  0  0  0  0  0  0  0
   -5.7838    3.9334  -13.3890 C   0  0  0  0  0  0  0  0  0  0  0  0
   -5.7482    2.7648  -13.4505 O   0  0  0  0  0  0  0  0  0  0  0  0
   -4.9692    5.8964  -12.9666 H   0  0  0  0  0  0  0  0  0  0  0  0
   -2.6293    5.9872  -12.1724 C   0  0  0  0  0  0  0  0  0  0  0  0
   -3.4801    4.7246  -12.1625 C   0  0  0  0  0  0  0  0  0  0  0  0
   -3.7278    4.2342  -10.7405 C   0  0  0  0  0  0  0  0  0  0  0  0
   -8.2247    4.5177  -13.1481 N   0  0  0  0  0  0  0  0  0  0  0  0
   -9.0592    4.3031  -13.6242 H   0  0  0  0  0  0  0  0  0  0  0  0
   -8.2115    4.5221  -11.7317 C   0  0  0  0  0  0  0  0  0  0  0  0
   -8.0292    5.6853  -10.9543 C   0  0  0  0  0  0  0  0  0  0  0  0
   -8.0988    5.6641   -9.5523 C   0  0  0  0  0  0  0  0  0  0  0  0
   -8.3737    4.4677   -8.9237 C   0  0  0  0  0  0  0  0  0  0  0  0
   -8.5815    3.3151   -9.6632 C   0  0  0  0  0  0  0  0  0  0  0  0
   -8.5230    3.3295  -11.0525 C   0  0  0  0  0  0  0  0  0  0  0  0
   -8.8175    2.1720   -8.7324 C   0  0  0  0  0  0  0  0  0  0  0  0
   -9.0006    2.7755   -7.3866 N   0  0  0  0  0  0  0  0  0  0  0  0
   -8.4812    4.1548   -7.4700 C   0  0  0  0  0  0  0  0  0  0  0  0
   -8.4795    2.2447   -6.6887 H   0  0  0  0  0  0  0  0  0  0  0  0
 22 23  1  0  0  0
 23 24  1  0  0  0
 23 18  1  0  0  0
 18 19  1  0  0  0
 19 20  2  0  0  0
 19  1  1  0  0  0
  1  2  1  0  0  0
  1 25  1  0  0  0
 25 27  1  0  0  0
 27 28  2  0  0  0
 28 29  1  0  0  0
 29 30  2  0  0  0
 30 31  1  0  0  0
 31 32  2  0  0  0
 31 33  1  0  0  0
 33 34  1  0  0  0
 34 35  1  0  0  0
  1  4  1  0  0  0
  4  5  2  0  0  0
  5  6  1  0  0  0
  6  7  1  0  0  0
  6  8  2  0  0  0
  8  9  1  0  0  0
  9 10  2  0  0  0
 10 11  1  0  0  0
 11 14  1  0  0  0
 14 15  1  0  0  0
 11 12  1  0  0  0
 12 13  2  0  0  0
 32 27  1  0  0  0
 13  4  1  0  0  0
 35 30  1  0  0  0
 13  9  1  0  0  0
 18 21  1  0  0  0
  2  3  1  0  0  0
 25 26  1  0  0  0
 34 36  1  0  0  0
 15 16  1  0  0  0
 15 17  1  0  0  0
M  END
> <minimizedAffinity>
-7.62968

> <minimizedRMSD>
0.64209

$$$$
P16771


 39 43  0  0  0  0  0  0  0  0999 V2000
   -7.0995    4.6408  -13.9342 C   0  0  0  0  0  0  0  0  0  0  0  0
   -6.2342    3.5554  -13.6198 O   0  0  0  0  0  0  0  0  0  0  0  0
   -6.0751    3.5354  -12.6631 H   0  0  0  0  0  0  0  0  0  0  0  0
   -7.3026    4.6067  -15.4553 C   0  0  0  0  0  0  0  0  0  0  0  0
   -8.5749    4.4672  -16.0677 C   0  0  0  0  0  0  0  0  0  0  0  0
   -8.7401    4.4788  -17.4577 C   0  0  0  0  0  0  0  0  0  0  0  0
  -10.2993    4.3315  -18.1696 Cl  0  0  0  0  0  0  0  0  0  0  0  0
   -7.6600    4.6448  -18.3143 C   0  0  0  0  0  0  0  0  0  0  0  0
   -6.4056    4.8079  -17.7251 C   0  0  0  0  0  0  0  0  0  0  0  0
   -6.2097    4.7917  -16.3478 C   0  0  0  0  0  0  0  0  0  0  0  0
   -4.8133    4.9826  -16.2095 C   0  0  0  0  0  0  0  0  0  0  0  0
   -4.1838    5.1271  -17.3759 N   0  0  0  0  0  0  0  0  0  0  0  0
   -5.1609    4.9949  -18.2804 N   0  0  0  0  0  0  0  0  0  0  0  0
   -4.8903    5.0072  -19.6672 N   0  0  0  0  0  0  0  0  0  0  0  0
   -5.7240    4.7162  -20.1779 H   0  0  0  0  0  0  0  0  0  0  0  0
   -4.5104    6.3611  -20.0850 C   0  0  0  0  0  0  0  0  0  0  0  0
   -4.7498    6.5154  -21.6017 C   0  0  0  0  0  0  0  0  0  0  0  0
   -3.4068    7.1418  -21.7126 N   0  0  0  0  0  0  0  0  0  0  0  0
   -3.0143    6.4353  -20.4642 C   0  0  0  0  0  0  0  0  0  0  0  0
   -3.4088    8.1591  -21.6384 H   0  0  0  0  0  0  0  0  0  0  0  0
   -5.0940    5.7512  -12.8533 N   0  0  0  0  0  0  0  0  0  0  0  0
   -6.4299    6.0735  -13.5963 C   0  0  0  0  0  0  0  0  0  0  0  0
   -6.9061    7.1035  -13.8885 O   0  0  0  0  0  0  0  0  0  0  0  0
   -4.8758    4.7930  -12.7940 H   0  0  0  0  0  0  0  0  0  0  0  0
   -3.2852    7.3161  -13.3097 C   0  0  0  0  0  0  0  0  0  0  0  0
   -4.1279    6.6305  -12.2397 C   0  0  0  0  0  0  0  0  0  0  0  0
   -3.2506    5.8681  -11.2553 C   0  0  0  0  0  0  0  0  0  0  0  0
   -8.3437    4.4176  -13.1741 N   0  0  0  0  0  0  0  0  0  0  0  0
   -9.1900    4.2581  -13.6512 H   0  0  0  0  0  0  0  0  0  0  0  0
   -8.3214    4.4326  -11.7635 C   0  0  0  0  0  0  0  0  0  0  0  0
   -8.1168    5.6132  -11.0237 C   0  0  0  0  0  0  0  0  0  0  0  0
   -8.0638    5.6146   -9.6237 C   0  0  0  0  0  0  0  0  0  0  0  0
   -8.2434    4.4196   -8.9581 C   0  0  0  0  0  0  0  0  0  0  0  0
   -8.4673    3.2464   -9.6594 C   0  0  0  0  0  0  0  0  0  0  0  0
   -8.5084    3.2366  -11.0502 C   0  0  0  0  0  0  0  0  0  0  0  0
   -8.6620    2.1241   -8.6940 C   0  0  0  0  0  0  0  0  0  0  0  0
   -8.4453    2.6937   -7.3374 N   0  0  0  0  0  0  0  0  0  0  0  0
   -8.3019    4.1540   -7.4944 C   0  0  0  0  0  0  0  0  0  0  0  0
   -7.5986    2.3018   -6.9251 H   0  0  0  0  0  0  0  0  0  0  0  0
 25 26  1  0  0  0
 26 27  1  0  0  0
 26 21  1  0  0  0
 21 22  1  0  0  0
 22 23  2  0  0  0
 22  1  1  0  0  0
  1  2  1  0  0  0
  1 28  1  0  0  0
 28 30  1  0  0  0
 30 31  2  0  0  0
 31 32  1  0  0  0
 32 33  2  0  0  0
 33 34  1  0  0  0
 34 35  2  0  0  0
 34 36  1  0  0  0
 36 37  1  0  0  0
 37 38  1  0  0  0
  1  4  1  0  0  0
  4  5  2  0  0  0
  5  6  1  0  0  0
  6  7  1  0  0  0
  6  8  2  0  0  0
  8  9  1  0  0  0
  9 10  2  0  0  0
 10 11  1  0  0  0
 11 12  2  0  0  0
 12 13  1  0  0  0
 13 14  1  0  0  0
 14 16  1  0  0  0
 16 17  1  0  0  0
 17 18  1  0  0  0
 18 19  1  0  0  0
 35 30  1  0  0  0
 10  4  1  0  0  0
 19 16  1  0  0  0
 38 33  1  0  0  0
 13  9  1  0  0  0
 21 24  1  0  0  0
  2  3  1  0  0  0
 28 29  1  0  0  0
 37 39  1  0  0  0
 14 15  1  0  0  0
 18 20  1  0  0  0
M  END
> <minimizedAffinity>
-7.78146

> <minimizedRMSD>
0.56356

$$$$
P16787


 35 39  0  0  0  0  0  0  0  0999 V2000
   -7.2939    5.0887  -15.5696 C   0  0  0  0  0  0  0  0  0  0  0  0
   -8.5513    4.6746  -16.0493 C   0  0  0  0  0  0  0  0  0  0  0  0
   -8.7298    4.4167  -17.4032 C   0  0  0  0  0  0  0  0  0  0  0  0
  -10.4419    4.0567  -18.0839 Br  0  0  0  0  0  0  0  0  0  0  0  0
   -7.6843    4.5168  -18.3118 C   0  0  0  0  0  0  0  0  0  0  0  0
   -6.4452    4.9242  -17.8207 C   0  0  0  0  0  0  0  0  0  0  0  0
   -5.2653    5.0866  -18.5038 N   0  0  0  0  0  0  0  0  0  0  0  0
   -4.2590    5.4273  -17.6438 C   0  0  0  0  0  0  0  0  0  0  0  0
   -4.8238    5.5813  -16.3914 C   0  0  0  0  0  0  0  0  0  0  0  0
   -6.2111    5.2274  -16.4760 C   0  0  0  0  0  0  0  0  0  0  0  0
   -5.1591    4.9736  -19.4760 H   0  0  0  0  0  0  0  0  0  0  0  0
   -6.8716    6.5944  -13.8958 O   0  0  0  0  0  0  0  0  0  0  0  0
   -7.1919    5.4964  -14.1408 C   0  0  0  0  0  0  0  0  0  0  0  0
   -7.6497    4.3471  -13.1998 N   0  0  0  0  0  0  0  0  0  0  0  0
   -7.7938    3.4815  -13.6461 H   0  0  0  0  0  0  0  0  0  0  0  0
   -7.8907    4.3429  -11.8198 C   0  0  0  0  0  0  0  0  0  0  0  0
   -7.7104    5.4934  -11.0378 C   0  0  0  0  0  0  0  0  0  0  0  0
   -7.9882    5.4841   -9.6627 C   0  0  0  0  0  0  0  0  0  0  0  0
   -8.4509    4.3149   -9.0892 C   0  0  0  0  0  0  0  0  0  0  0  0
   -8.6359    3.1707   -9.8552 C   0  0  0  0  0  0  0  0  0  0  0  0
   -8.3585    3.1657  -11.2172 C   0  0  0  0  0  0  0  0  0  0  0  0
   -9.1231    2.0751   -8.9611 C   0  0  0  0  0  0  0  0  0  0  0  0
   -9.5594    2.7500   -7.7070 N   0  0  0  0  0  0  0  0  0  0  0  0
   -8.7912    4.0136   -7.6671 C   0  0  0  0  0  0  0  0  0  0  0  0
   -9.3426    2.1725   -6.8947 H   0  0  0  0  0  0  0  0  0  0  0  0
   -2.9943    5.4267  -18.0662 O   0  0  0  0  0  0  0  0  0  0  0  0
   -2.4931    6.6925  -18.4866 C   0  0  0  0  0  0  0  0  0  0  0  0
   -1.8271    6.6578  -19.7496 O   0  0  0  0  0  0  0  0  0  0  0  0
   -2.1557    5.5584  -20.5884 C   0  0  0  0  0  0  0  0  0  0  0  0
   -2.9168    5.9749  -21.8179 C   0  0  0  0  0  0  0  0  0  0  0  0
   -2.2518    6.3088  -22.9993 C   0  0  0  0  0  0  0  0  0  0  0  0
   -2.9793    6.7180  -24.1117 C   0  0  0  0  0  0  0  0  0  0  0  0
   -4.3658    6.8302  -24.0412 C   0  0  0  0  0  0  0  0  0  0  0  0
   -5.0380    6.5047  -22.8737 C   0  0  0  0  0  0  0  0  0  0  0  0
   -4.3175    6.0416  -21.7811 C   0  0  0  0  0  0  0  0  0  0  0  0
 12 13  2  0  0  0
 13 14  1  0  0  0
 14 16  1  0  0  0
 16 17  2  0  0  0
 17 18  1  0  0  0
 18 19  2  0  0  0
 19 20  1  0  0  0
 20 21  2  0  0  0
 20 22  1  0  0  0
 22 23  1  0  0  0
 23 24  1  0  0  0
 13  1  1  0  0  0
  1  2  2  0  0  0
  2  3  1  0  0  0
  3  4  1  0  0  0
  3  5  2  0  0  0
  5  6  1  0  0  0
  6  7  1  0  0  0
  7  8  1  0  0  0
  8 26  1  0  0  0
 26 27  1  0  0  0
 27 28  1  0  0  0
 28 29  1  0  0  0
 29 30  1  0  0  0
 30 31  2  0  0  0
 31 32  1  0  0  0
 32 33  2  0  0  0
 33 34  1  0  0  0
 34 35  2  0  0  0
  8  9  2  0  0  0
  9 10  1  0  0  0
 21 16  1  0  0  0
 10  1  1  0  0  0
 24 19  1  0  0  0
 10  6  2  0  0  0
 35 30  1  0  0  0
 14 15  1  0  0  0
 23 25  1  0  0  0
  7 11  1  0  0  0
M  END
> <minimizedAffinity>
-7.93172

> <minimizedRMSD>
0.96062

$$$$
P16790


 25 28  0  0  0  0  0  0  0  0999 V2000
   -9.4141    5.7026  -14.3051 O   0  0  0  0  0  0  0  0  0  0  0  0
   -8.5068    4.9651  -14.3179 C   0  0  0  0  0  0  0  0  0  0  0  0
   -7.8498    4.1631  -13.1690 N   0  0  0  0  0  0  0  0  0  0  0  0
   -7.1377    3.5451  -13.4524 H   0  0  0  0  0  0  0  0  0  0  0  0
   -7.8684    4.7354  -15.6375 C   0  0  0  0  0  0  0  0  0  0  0  0
   -6.5200    5.0820  -15.7766 C   0  0  0  0  0  0  0  0  0  0  0  0
   -5.9537    5.1611  -17.0448 C   0  0  0  0  0  0  0  0  0  0  0  0
   -4.1466    5.6557  -17.2290 Br  0  0  0  0  0  0  0  0  0  0  0  0
   -6.6934    4.9458  -18.2061 C   0  0  0  0  0  0  0  0  0  0  0  0
   -8.0365    4.6195  -18.0488 C   0  0  0  0  0  0  0  0  0  0  0  0
   -9.0117    4.4785  -19.0119 N   0  0  0  0  0  0  0  0  0  0  0  0
  -10.1994    4.1855  -18.4123 C   0  0  0  0  0  0  0  0  0  0  0  0
   -9.9664    4.1074  -17.0565 C   0  0  0  0  0  0  0  0  0  0  0  0
   -8.6299    4.4638  -16.7945 C   0  0  0  0  0  0  0  0  0  0  0  0
   -8.8721    4.5744  -19.9817 H   0  0  0  0  0  0  0  0  0  0  0  0
   -8.1038    4.1733  -11.7891 C   0  0  0  0  0  0  0  0  0  0  0  0
   -8.0554    5.3780  -11.0658 C   0  0  0  0  0  0  0  0  0  0  0  0
   -8.2683    5.4074   -9.6818 C   0  0  0  0  0  0  0  0  0  0  0  0
   -8.5391    4.2195   -9.0321 C   0  0  0  0  0  0  0  0  0  0  0  0
   -8.6174    3.0274   -9.7374 C   0  0  0  0  0  0  0  0  0  0  0  0
   -8.3939    2.9822  -11.1128 C   0  0  0  0  0  0  0  0  0  0  0  0
   -8.9765    1.9322   -8.7876 C   0  0  0  0  0  0  0  0  0  0  0  0
   -8.9478    2.5186   -7.4203 N   0  0  0  0  0  0  0  0  0  0  0  0
   -8.7927    3.9757   -7.5844 C   0  0  0  0  0  0  0  0  0  0  0  0
   -8.1620    2.1392   -6.8921 H   0  0  0  0  0  0  0  0  0  0  0  0
  1  2  2  0  0  0
  2  3  1  0  0  0
  3 16  1  0  0  0
 16 17  2  0  0  0
 17 18  1  0  0  0
 18 19  2  0  0  0
 19 20  1  0  0  0
 20 21  2  0  0  0
 20 22  1  0  0  0
 22 23  1  0  0  0
 23 24  1  0  0  0
  2  5  1  0  0  0
  5  6  2  0  0  0
  6  7  1  0  0  0
  7  8  1  0  0  0
  7  9  2  0  0  0
  9 10  1  0  0  0
 10 11  1  0  0  0
 11 12  1  0  0  0
 12 13  2  0  0  0
 13 14  1  0  0  0
 21 16  1  0  0  0
 14  5  1  0  0  0
 24 19  1  0  0  0
 14 10  2  0  0  0
  3  4  1  0  0  0
 23 25  1  0  0  0
 11 15  1  0  0  0
M  END
> <minimizedAffinity>
-9.12211

> <minimizedRMSD>
0.72099

$$$$
P16800


 27 30  0  0  0  0  0  0  0  0999 V2000
   -7.4895    4.6722  -13.8192 N   0  0  0  0  0  0  0  0  0  0  0  0
   -6.5019    5.5411  -14.6396 C   0  0  0  0  0  0  0  0  0  0  0  0
   -5.8689    6.4718  -14.3234 O   0  0  0  0  0  0  0  0  0  0  0  0
   -7.9612    3.9820  -14.3392 H   0  0  0  0  0  0  0  0  0  0  0  0
   -6.3905    5.1376  -16.0725 C   0  0  0  0  0  0  0  0  0  0  0  0
   -5.1808    5.4031  -16.7333 C   0  0  0  0  0  0  0  0  0  0  0  0
   -5.0819    5.2463  -18.1122 C   0  0  0  0  0  0  0  0  0  0  0  0
   -3.4527    5.6021  -18.9863 Br  0  0  0  0  0  0  0  0  0  0  0  0
   -6.1662    4.8634  -18.8926 C   0  0  0  0  0  0  0  0  0  0  0  0
   -7.3638    4.6240  -18.2314 C   0  0  0  0  0  0  0  0  0  0  0  0
   -8.5955    4.3472  -18.7750 N   0  0  0  0  0  0  0  0  0  0  0  0
   -9.5052    4.2261  -17.7722 C   0  0  0  0  0  0  0  0  0  0  0  0
   -8.8428    4.3926  -16.5765 C   0  0  0  0  0  0  0  0  0  0  0  0
   -7.4966    4.7128  -16.8419 C   0  0  0  0  0  0  0  0  0  0  0  0
   -8.7879    4.2520  -19.7358 H   0  0  0  0  0  0  0  0  0  0  0  0
   -8.1874    5.8804  -11.7370 C   0  0  0  0  0  0  0  0  0  0  0  0
   -8.4090    5.8361  -10.3426 C   0  0  0  0  0  0  0  0  0  0  0  0
   -8.3191    4.6281   -9.6807 C   0  0  0  0  0  0  0  0  0  0  0  0
   -8.0387    3.4669  -10.3782 C   0  0  0  0  0  0  0  0  0  0  0  0
   -7.7881    3.4871  -11.7489 C   0  0  0  0  0  0  0  0  0  0  0  0
   -7.8227    4.7097  -12.4466 C   0  0  0  0  0  0  0  0  0  0  0  0
   -8.0791    2.3120   -9.4316 C   0  0  0  0  0  0  0  0  0  0  0  0
   -8.3316    2.8728   -8.0818 N   0  0  0  0  0  0  0  0  0  0  0  0
   -8.5323    4.3228   -8.2372 C   0  0  0  0  0  0  0  0  0  0  0  0
   -7.5312    2.6948   -7.4751 H   0  0  0  0  0  0  0  0  0  0  0  0
   -8.8819    8.1489  -12.7851 N   0  0  0  0  0  0  0  0  0  0  0  0
   -8.5133    7.1281  -12.3685 C   0  0  0  0  0  0  0  0  0  0  0  0
 26 27  3  0  0  0
 27 16  1  0  0  0
 16 17  2  0  0  0
 17 18  1  0  0  0
 18 19  2  0  0  0
 19 20  1  0  0  0
 20 21  2  0  0  0
 21  1  1  0  0  0
  1  2  1  0  0  0
  2  3  2  0  0  0
  2  5  1  0  0  0
  5  6  2  0  0  0
  6  7  1  0  0  0
  7  8  1  0  0  0
  7  9  2  0  0  0
  9 10  1  0  0  0
 10 11  1  0  0  0
 11 12  1  0  0  0
 12 13  2  0  0  0
 13 14  1  0  0  0
 19 22  1  0  0  0
 22 23  1  0  0  0
 23 24  1  0  0  0
 21 16  1  0  0  0
 14  5  1  0  0  0
 24 18  1  0  0  0
 14 10  2  0  0  0
  1  4  1  0  0  0
 11 15  1  0  0  0
 23 25  1  0  0  0
M  END
> <minimizedAffinity>
-7.69157

> <minimizedRMSD>
0.59724

$$$$
P16805


 31 34  0  0  0  0  0  0  0  0999 V2000
   -4.6834    5.2878  -17.9493 C   0  0  0  0  0  0  0  0  0  0  0  0
   -5.8991    5.0941  -17.4319 C   0  0  0  0  0  0  0  0  0  0  0  0
   -7.1066    4.6928  -18.1144 C   0  0  0  0  0  0  0  0  0  0  0  0
   -8.2241    4.4998  -17.3850 C   0  0  0  0  0  0  0  0  0  0  0  0
   -9.8273    4.0034  -18.1917 Br  0  0  0  0  0  0  0  0  0  0  0  0
   -8.2464    4.7528  -15.9378 C   0  0  0  0  0  0  0  0  0  0  0  0
   -7.1390    5.1378  -15.2608 C   0  0  0  0  0  0  0  0  0  0  0  0
   -5.8874    5.2933  -15.9883 C   0  0  0  0  0  0  0  0  0  0  0  0
   -4.6415    5.5683  -15.5794 C   0  0  0  0  0  0  0  0  0  0  0  0
   -3.9739    5.7871  -14.2878 C   0  0  0  0  0  0  0  0  0  0  0  0
   -3.8148    5.5847  -16.7966 C   0  0  0  0  0  0  0  0  0  0  0  0
   -2.6163    5.7964  -16.8119 O   0  0  0  0  0  0  0  0  0  0  0  0
   -7.3195    5.6100  -13.8589 C   0  0  0  0  0  0  0  0  0  0  0  0
   -7.2551    6.7472  -13.5965 O   0  0  0  0  0  0  0  0  0  0  0  0
   -7.5904    4.3823  -12.9500 N   0  0  0  0  0  0  0  0  0  0  0  0
   -7.5178    3.5107  -13.4021 H   0  0  0  0  0  0  0  0  0  0  0  0
   -7.9207    4.3124  -11.5943 C   0  0  0  0  0  0  0  0  0  0  0  0
   -7.9267    5.4704  -10.7995 C   0  0  0  0  0  0  0  0  0  0  0  0
   -8.2006    5.4032   -9.4298 C   0  0  0  0  0  0  0  0  0  0  0  0
   -8.4839    4.1697   -8.8778 C   0  0  0  0  0  0  0  0  0  0  0  0
   -8.5127    3.0235   -9.6631 C   0  0  0  0  0  0  0  0  0  0  0  0
   -8.2223    3.0720  -11.0212 C   0  0  0  0  0  0  0  0  0  0  0  0
   -8.8611    1.8570   -8.7970 C   0  0  0  0  0  0  0  0  0  0  0  0
   -9.2434    2.4226   -7.4824 N   0  0  0  0  0  0  0  0  0  0  0  0
   -8.7577    3.8101   -7.4562 C   0  0  0  0  0  0  0  0  0  0  0  0
   -8.8113    1.8856   -6.7306 H   0  0  0  0  0  0  0  0  0  0  0  0
   -4.2904    5.1345  -19.2375 O   0  0  0  0  0  0  0  0  0  0  0  0
   -3.3332    6.0986  -19.6626 C   0  0  0  0  0  0  0  0  0  0  0  0
   -1.9453    5.4933  -19.8316 C   0  0  0  0  0  0  0  0  0  0  0  0
    0.2296    6.0584  -20.5400 C   0  0  0  0  0  0  0  0  0  0  0  0
   -1.0703    6.5424  -20.2477 O   0  0  0  0  0  0  0  0  0  0  0  0
 30 31  1  0  0  0
 31 29  1  0  0  0
 29 28  1  0  0  0
 28 27  1  0  0  0
 27  1  1  0  0  0
  1  2  2  0  0  0
  2  3  1  0  0  0
  3  4  2  0  0  0
  4  5  1  0  0  0
  4  6  1  0  0  0
  6  7  2  0  0  0
  7 13  1  0  0  0
 13 14  2  0  0  0
 13 15  1  0  0  0
 15 17  1  0  0  0
 17 18  2  0  0  0
 18 19  1  0  0  0
 19 20  2  0  0  0
 20 21  1  0  0  0
 21 22  2  0  0  0
 21 23  1  0  0  0
 23 24  1  0  0  0
 24 25  1  0  0  0
  7  8  1  0  0  0
  8  9  2  0  0  0
  9 10  1  0  0  0
  9 11  1  0  0  0
 11 12  2  0  0  0
 11  1  1  0  0  0
  8  2  1  0  0  0
 22 17  1  0  0  0
 25 20  1  0  0  0
 15 16  1  0  0  0
 24 26  1  0  0  0
M  END
> <minimizedAffinity>
-7.24042

> <minimizedRMSD>
0.05667

$$$$
P16808


 26 29  0  0  0  0  0  0  0  0999 V2000
   -7.0375    6.4361  -13.7988 O   0  0  0  0  0  0  0  0  0  0  0  0
   -7.4271    5.3638  -14.0492 C   0  0  0  0  0  0  0  0  0  0  0  0
   -8.0250    4.2730  -13.1279 N   0  0  0  0  0  0  0  0  0  0  0  0
   -8.3531    3.4718  -13.5967 H   0  0  0  0  0  0  0  0  0  0  0  0
   -7.4638    4.9548  -15.4768 C   0  0  0  0  0  0  0  0  0  0  0  0
   -8.6789    4.5612  -16.0575 C   0  0  0  0  0  0  0  0  0  0  0  0
   -8.7684    4.3794  -17.4466 C   0  0  0  0  0  0  0  0  0  0  0  0
  -10.4286    4.0561  -18.2611 Br  0  0  0  0  0  0  0  0  0  0  0  0
   -7.6681    4.5499  -18.2743 C   0  0  0  0  0  0  0  0  0  0  0  0
   -6.4796    4.9224  -17.6806 C   0  0  0  0  0  0  0  0  0  0  0  0
   -6.3591    5.1203  -16.3010 C   0  0  0  0  0  0  0  0  0  0  0  0
   -4.9812    5.5063  -16.0386 C   0  0  0  0  0  0  0  0  0  0  0  0
   -4.3423    5.5263  -17.2202 C   0  0  0  0  0  0  0  0  0  0  0  0
   -5.2114    5.1676  -18.3750 N   0  0  0  0  0  0  0  0  0  0  0  0
   -5.3094    6.2380  -19.1863 O   0  0  0  0  0  0  0  0  0  0  0  0
   -6.1382    4.9170  -18.5931 H   0  0  0  0  0  0  0  0  0  0  0  0
   -8.1746    4.2405  -11.7401 C   0  0  0  0  0  0  0  0  0  0  0  0
   -7.9967    5.4030  -10.9726 C   0  0  0  0  0  0  0  0  0  0  0  0
   -8.1792    5.3853   -9.5857 C   0  0  0  0  0  0  0  0  0  0  0  0
   -8.5445    4.1946   -8.9896 C   0  0  0  0  0  0  0  0  0  0  0  0
   -8.7129    3.0370   -9.7422 C   0  0  0  0  0  0  0  0  0  0  0  0
   -8.5305    3.0400  -11.1173 C   0  0  0  0  0  0  0  0  0  0  0  0
   -9.0817    1.9219   -8.8175 C   0  0  0  0  0  0  0  0  0  0  0  0
   -9.5209    2.5888   -7.5606 N   0  0  0  0  0  0  0  0  0  0  0  0
   -8.8065    3.8856   -7.5531 C   0  0  0  0  0  0  0  0  0  0  0  0
   -9.2611    2.0304   -6.7475 H   0  0  0  0  0  0  0  0  0  0  0  0
  1  2  2  0  0  0
  2  3  1  0  0  0
  3 17  1  0  0  0
 17 18  2  0  0  0
 18 19  1  0  0  0
 19 20  2  0  0  0
 20 21  1  0  0  0
 21 22  2  0  0  0
 21 23  1  0  0  0
 23 24  1  0  0  0
 24 25  1  0  0  0
  2  5  1  0  0  0
  5  6  2  0  0  0
  6  7  1  0  0  0
  7  8  1  0  0  0
  7  9  2  0  0  0
  9 10  1  0  0  0
 10 11  2  0  0  0
 11 12  1  0  0  0
 12 13  2  0  0  0
 13 14  1  0  0  0
 14 15  1  0  0  0
 22 17  1  0  0  0
 11  5  1  0  0  0
 25 20  1  0  0  0
 14 10  1  0  0  0
  3  4  1  0  0  0
 24 26  1  0  0  0
 14 16  1  0  0  0
M  CHG 1  14   1
M  CHG 1  15  -1
M  END
> <minimizedAffinity>
-8.44625

> <minimizedRMSD>
0.20391

$$$$
P16809


 41 45  0  0  0  0  0  0  0  0999 V2000
   -7.3483    5.2467  -13.5845 C   0  0  0  0  0  0  0  0  0  0  0  0
   -7.3095    4.8783  -15.1332 C   0  0  0  0  0  0  0  0  0  0  0  0
   -8.5229    4.4828  -15.7772 C   0  0  0  0  0  0  0  0  0  0  0  0
   -8.6322    4.3555  -17.1628 C   0  0  0  0  0  0  0  0  0  0  0  0
  -10.2770    3.9117  -17.9723 Br  0  0  0  0  0  0  0  0  0  0  0  0
   -7.5657    4.6362  -18.0007 C   0  0  0  0  0  0  0  0  0  0  0  0
   -6.3824    5.0536  -17.3996 C   0  0  0  0  0  0  0  0  0  0  0  0
   -5.2133    5.4301  -18.0185 N   0  0  0  0  0  0  0  0  0  0  0  0
   -4.2865    5.7968  -17.0904 C   0  0  0  0  0  0  0  0  0  0  0  0
   -4.8710    5.6600  -15.8510 C   0  0  0  0  0  0  0  0  0  0  0  0
   -6.2117    5.1744  -16.0150 C   0  0  0  0  0  0  0  0  0  0  0  0
   -5.0674    5.4339  -18.9921 H   0  0  0  0  0  0  0  0  0  0  0  0
   -5.2485    6.0886  -12.5488 O   0  0  0  0  0  0  0  0  0  0  0  0
   -5.8099    5.1432  -12.9582 C   0  0  0  0  0  0  0  0  0  0  0  0
   -5.3924    3.6401  -12.9547 N   0  0  0  0  0  0  0  0  0  0  0  0
   -6.0784    3.0208  -13.2940 H   0  0  0  0  0  0  0  0  0  0  0  0
   -4.1605    3.0082  -12.5336 C   0  0  0  0  0  0  0  0  0  0  0  0
   -4.1526    2.6101  -11.0596 C   0  0  0  0  0  0  0  0  0  0  0  0
   -4.0832    1.2526  -10.9658 F   0  0  0  0  0  0  0  0  0  0  0  0
   -5.3233    2.9825  -10.4867 F   0  0  0  0  0  0  0  0  0  0  0  0
   -7.7233    6.6802  -13.6915 N   0  0  0  0  0  0  0  0  0  0  0  0
   -7.3329    7.0288  -14.5670 H   0  0  0  0  0  0  0  0  0  0  0  0
   -9.1286    7.0313  -13.6807 C   0  0  0  0  0  0  0  0  0  0  0  0
   -9.4344    8.2288  -12.7945 C   0  0  0  0  0  0  0  0  0  0  0  0
   -8.4608    8.6953  -11.9122 C   0  0  0  0  0  0  0  0  0  0  0  0
   -8.7479    9.7978  -11.1124 C   0  0  0  0  0  0  0  0  0  0  0  0
   -9.9930   10.4054  -11.2128 C   0  0  0  0  0  0  0  0  0  0  0  0
  -10.9023    9.8849  -12.1174 C   0  0  0  0  0  0  0  0  0  0  0  0
  -10.6507    8.8214  -12.9103 N   0  0  0  0  0  0  0  0  0  0  0  0
   -8.2202    4.2341  -12.8784 N   0  0  0  0  0  0  0  0  0  0  0  0
   -8.7384    3.6015  -13.4265 H   0  0  0  0  0  0  0  0  0  0  0  0
   -8.3300    4.1486  -11.4751 C   0  0  0  0  0  0  0  0  0  0  0  0
   -8.2403    5.2676  -10.6330 C   0  0  0  0  0  0  0  0  0  0  0  0
   -8.3078    5.2134   -9.2380 C   0  0  0  0  0  0  0  0  0  0  0  0
   -8.6039    4.0078   -8.6660 C   0  0  0  0  0  0  0  0  0  0  0  0
   -8.7973    2.8845   -9.4571 C   0  0  0  0  0  0  0  0  0  0  0  0
   -8.6334    2.9275  -10.8453 C   0  0  0  0  0  0  0  0  0  0  0  0
   -9.2387    1.7737   -8.5569 C   0  0  0  0  0  0  0  0  0  0  0  0
   -9.6505    2.4330   -7.2807 N   0  0  0  0  0  0  0  0  0  0  0  0
   -8.8652    3.6800   -7.2374 C   0  0  0  0  0  0  0  0  0  0  0  0
   -9.4291    1.8399   -6.4810 H   0  0  0  0  0  0  0  0  0  0  0  0
 13 14  2  0  0  0
 14 15  1  0  0  0
 15 17  1  0  0  0
 17 18  1  0  0  0
 18 19  1  0  0  0
 18 20  1  0  0  0
 14  1  1  0  0  0
  1 21  1  0  0  0
 21 23  1  0  0  0
 23 24  1  0  0  0
 24 25  2  0  0  0
 25 26  1  0  0  0
 26 27  2  0  0  0
 27 28  1  0  0  0
 28 29  2  0  0  0
  1 30  1  0  0  0
 30 32  1  0  0  0
 32 33  2  0  0  0
 33 34  1  0  0  0
 34 35  2  0  0  0
 35 36  1  0  0  0
 36 37  2  0  0  0
 36 38  1  0  0  0
 38 39  1  0  0  0
 39 40  1  0  0  0
  1  2  1  0  0  0
  2  3  2  0  0  0
  3  4  1  0  0  0
  4  5  1  0  0  0
  4  6  2  0  0  0
  6  7  1  0  0  0
  7  8  1  0  0  0
  8  9  1  0  0  0
  9 10  2  0  0  0
 10 11  1  0  0  0
 29 24  1  0  0  0
 37 32  1  0  0  0
 11  2  1  0  0  0
 40 35  1  0  0  0
 11  7  2  0  0  0
 15 16  1  0  0  0
 21 22  1  0  0  0
 30 31  1  0  0  0
 39 41  1  0  0  0
  8 12  1  0  0  0
M  END
> <minimizedAffinity>
-7.95201

> <minimizedRMSD>
1.54520

$$$$
P16811


 25 28  0  0  0  0  0  0  0  0999 V2000
   -7.1250    5.6081  -14.2258 C   0  0  0  0  0  0  0  0  0  0  0  0
   -6.9659    6.7406  -13.9809 O   0  0  0  0  0  0  0  0  0  0  0  0
   -7.5963    4.4395  -13.3193 N   0  0  0  0  0  0  0  0  0  0  0  0
   -7.7247    3.5820  -13.7856 H   0  0  0  0  0  0  0  0  0  0  0  0
  -10.9381    4.1316  -18.0189 O   0  0  0  0  0  0  0  0  0  0  0  0
   -9.7566    4.2626  -17.7677 C   0  0  0  0  0  0  0  0  0  0  0  0
   -9.1977    4.4095  -16.4083 C   0  0  0  0  0  0  0  0  0  0  0  0
   -7.9156    4.7184  -16.5198 C   0  0  0  0  0  0  0  0  0  0  0  0
   -6.8776    5.1146  -15.6204 C   0  0  0  0  0  0  0  0  0  0  0  0
   -5.6631    5.3683  -16.1445 C   0  0  0  0  0  0  0  0  0  0  0  0
   -5.3948    5.1997  -17.5693 C   0  0  0  0  0  0  0  0  0  0  0  0
   -3.6697    5.5751  -18.1566 Br  0  0  0  0  0  0  0  0  0  0  0  0
   -6.3398    4.8496  -18.4553 C   0  0  0  0  0  0  0  0  0  0  0  0
   -7.6934    4.6086  -17.9620 C   0  0  0  0  0  0  0  0  0  0  0  0
   -8.7289    4.3045  -18.6615 N   0  0  0  0  0  0  0  0  0  0  0  0
   -7.8693    4.4067  -11.9423 C   0  0  0  0  0  0  0  0  0  0  0  0
   -7.7146    5.5632  -11.1572 C   0  0  0  0  0  0  0  0  0  0  0  0
   -7.9604    5.5477   -9.7783 C   0  0  0  0  0  0  0  0  0  0  0  0
   -8.3974    4.3720   -9.2039 C   0  0  0  0  0  0  0  0  0  0  0  0
   -8.5862    3.2284   -9.9725 C   0  0  0  0  0  0  0  0  0  0  0  0
   -8.3037    3.2198  -11.3366 C   0  0  0  0  0  0  0  0  0  0  0  0
   -9.1072    2.1461   -9.0774 C   0  0  0  0  0  0  0  0  0  0  0  0
   -9.5345    2.8349   -7.8260 N   0  0  0  0  0  0  0  0  0  0  0  0
   -8.7237    4.0698   -7.7792 C   0  0  0  0  0  0  0  0  0  0  0  0
   -9.3461    2.2502   -7.0117 H   0  0  0  0  0  0  0  0  0  0  0  0
  5  6  2  0  0  0
  6  7  1  0  0  0
  7  8  2  0  0  0
  8  9  1  0  0  0
  9  1  1  0  0  0
  1  2  2  0  0  0
  1  3  1  0  0  0
  3 16  1  0  0  0
 16 17  2  0  0  0
 17 18  1  0  0  0
 18 19  2  0  0  0
 19 20  1  0  0  0
 20 21  2  0  0  0
 20 22  1  0  0  0
 22 23  1  0  0  0
 23 24  1  0  0  0
  9 10  2  0  0  0
 10 11  1  0  0  0
 11 12  1  0  0  0
 11 13  2  0  0  0
 13 14  1  0  0  0
 14 15  2  0  0  0
 15  6  1  0  0  0
 14  8  1  0  0  0
 21 16  1  0  0  0
 24 19  1  0  0  0
  3  4  1  0  0  0
 23 25  1  0  0  0
M  END
> <minimizedAffinity>
-8.59143

> <minimizedRMSD>
0.30076

$$$$
P16812


 28 31  0  0  0  0  0  0  0  0999 V2000
   -4.7785    5.5813  -16.4159 N   0  0  0  0  0  0  0  0  0  0  0  0
   -4.5866    6.1262  -15.1663 C   0  0  0  0  0  0  0  0  0  0  0  0
   -5.7390    5.9440  -14.4466 C   0  0  0  0  0  0  0  0  0  0  0  0
   -6.7001    5.3551  -15.3150 C   0  0  0  0  0  0  0  0  0  0  0  0
   -8.0443    4.9612  -15.1550 C   0  0  0  0  0  0  0  0  0  0  0  0
   -8.7729    4.4821  -16.2438 C   0  0  0  0  0  0  0  0  0  0  0  0
   -8.1674    4.4256  -17.4931 C   0  0  0  0  0  0  0  0  0  0  0  0
   -9.2146    3.9846  -18.9937 Br  0  0  0  0  0  0  0  0  0  0  0  0
   -6.8220    4.7568  -17.6853 C   0  0  0  0  0  0  0  0  0  0  0  0
   -6.0979    5.2084  -16.5703 C   0  0  0  0  0  0  0  0  0  0  0  0
   -2.4639    5.3136  -16.6577 N   0  0  0  0  0  0  0  0  0  0  0  0
   -3.7153    5.4409  -17.3951 C   0  0  0  0  0  0  0  0  0  0  0  0
   -1.6906    5.2126  -17.3151 H   0  0  0  0  0  0  0  0  0  0  0  0
   -2.5069    4.4922  -16.0544 H   0  0  0  0  0  0  0  0  0  0  0  0
   -8.6892    5.1696  -13.8426 C   0  0  0  0  0  0  0  0  0  0  0  0
   -9.4984    6.0058  -13.7467 O   0  0  0  0  0  0  0  0  0  0  0  0
   -8.0839    4.2341  -12.7724 N   0  0  0  0  0  0  0  0  0  0  0  0
   -7.4647    3.5535  -13.1226 H   0  0  0  0  0  0  0  0  0  0  0  0
   -8.2717    4.1970  -11.3919 C   0  0  0  0  0  0  0  0  0  0  0  0
   -8.1183    5.3625  -10.6236 C   0  0  0  0  0  0  0  0  0  0  0  0
   -8.2717    5.3333   -9.2362 C   0  0  0  0  0  0  0  0  0  0  0  0
   -8.6132    4.1345   -8.6428 C   0  0  0  0  0  0  0  0  0  0  0  0
   -8.7859    2.9813   -9.3994 C   0  0  0  0  0  0  0  0  0  0  0  0
   -8.5961    2.9860  -10.7742 C   0  0  0  0  0  0  0  0  0  0  0  0
   -9.1811    1.8650   -8.4904 C   0  0  0  0  0  0  0  0  0  0  0  0
   -9.4489    2.4862   -7.1734 N   0  0  0  0  0  0  0  0  0  0  0  0
   -8.8503    3.8291   -7.2030 C   0  0  0  0  0  0  0  0  0  0  0  0
   -9.0253    1.9299   -6.4308 H   0  0  0  0  0  0  0  0  0  0  0  0
 11 12  1  0  0  0
 12  1  1  0  0  0
  1  2  1  0  0  0
  2  3  2  0  0  0
  3  4  1  0  0  0
  4  5  2  0  0  0
  5 15  1  0  0  0
 15 16  2  0  0  0
 15 17  1  0  0  0
 17 19  1  0  0  0
 19 20  2  0  0  0
 20 21  1  0  0  0
 21 22  2  0  0  0
 22 23  1  0  0  0
 23 24  2  0  0  0
 23 25  1  0  0  0
 25 26  1  0  0  0
 26 27  1  0  0  0
  5  6  1  0  0  0
  6  7  2  0  0  0
  7  8  1  0  0  0
  7  9  1  0  0  0
  9 10  2  0  0  0
 10  1  1  0  0  0
 10  4  1  0  0  0
 24 19  1  0  0  0
 27 22  1  0  0  0
 11 13  1  0  0  0
 11 14  1  0  0  0
 17 18  1  0  0  0
 26 28  1  0  0  0
M  END
> <minimizedAffinity>
-8.07874

> <minimizedRMSD>
0.73996

$$$$
P16819


 29 32  0  0  0  0  0  0  0  0999 V2000
   -7.8037    5.5159  -13.9051 C   0  0  0  0  0  0  0  0  0  0  0  0
   -7.5817    6.6363  -13.6654 O   0  0  0  0  0  0  0  0  0  0  0  0
   -8.2087    4.3550  -12.9732 N   0  0  0  0  0  0  0  0  0  0  0  0
   -8.4156    3.5098  -13.4338 H   0  0  0  0  0  0  0  0  0  0  0  0
   -8.3291    4.3080  -11.5874 C   0  0  0  0  0  0  0  0  0  0  0  0
   -8.1826    5.4759  -10.8225 C   0  0  0  0  0  0  0  0  0  0  0  0
   -8.2806    5.4288   -9.4313 C   0  0  0  0  0  0  0  0  0  0  0  0
   -8.0849    7.0158   -8.4245 Br  0  0  0  0  0  0  0  0  0  0  0  0
   -8.5181    4.2123   -8.8220 C   0  0  0  0  0  0  0  0  0  0  0  0
   -8.6676    3.0569   -9.5828 C   0  0  0  0  0  0  0  0  0  0  0  0
   -8.5825    3.0844  -10.9662 C   0  0  0  0  0  0  0  0  0  0  0  0
   -8.9163    1.8964   -8.6811 C   0  0  0  0  0  0  0  0  0  0  0  0
   -8.7064    2.3984   -7.2990 N   0  0  0  0  0  0  0  0  0  0  0  0
   -8.6835    3.8749   -7.3817 C   0  0  0  0  0  0  0  0  0  0  0  0
   -7.8202    2.0533   -6.9306 H   0  0  0  0  0  0  0  0  0  0  0  0
   -5.1721    5.2111  -17.7810 N   0  0  0  0  0  0  0  0  0  0  0  0
   -4.3576    5.5187  -16.7233 C   0  0  0  0  0  0  0  0  0  0  0  0
   -5.1470    5.5394  -15.5966 C   0  0  0  0  0  0  0  0  0  0  0  0
   -6.4746    5.1891  -15.9791 C   0  0  0  0  0  0  0  0  0  0  0  0
   -7.7038    5.0646  -15.3058 C   0  0  0  0  0  0  0  0  0  0  0  0
   -8.8492    4.6519  -15.9964 C   0  0  0  0  0  0  0  0  0  0  0  0
   -8.7904    4.4414  -17.3677 C   0  0  0  0  0  0  0  0  0  0  0  0
  -10.3597    4.0842  -18.3409 Br  0  0  0  0  0  0  0  0  0  0  0  0
   -7.6036    4.5946  -18.0757 C   0  0  0  0  0  0  0  0  0  0  0  0
   -6.4564    4.9535  -17.3512 C   0  0  0  0  0  0  0  0  0  0  0  0
   -4.7951    5.2741  -19.1778 C   0  0  0  0  0  0  0  0  0  0  0  0
   -4.7150    6.8434  -20.9689 C   0  0  0  0  0  0  0  0  0  0  0  0
   -5.0162    6.6624  -19.5573 N   0  0  0  0  0  0  0  0  0  0  0  0
   -5.9907    6.9091  -19.3849 H   0  0  0  0  0  0  0  0  0  0  0  0
 27 28  1  0  0  0
 28 26  1  0  0  0
 26 16  1  0  0  0
 16 17  1  0  0  0
 17 18  2  0  0  0
 18 19  1  0  0  0
 19 20  2  0  0  0
 20  1  1  0  0  0
  1  2  2  0  0  0
  1  3  1  0  0  0
  3  5  1  0  0  0
  5  6  2  0  0  0
  6  7  1  0  0  0
  7  8  1  0  0  0
  7  9  2  0  0  0
  9 10  1  0  0  0
 10 11  2  0  0  0
 10 12  1  0  0  0
 12 13  1  0  0  0
 13 14  1  0  0  0
 20 21  1  0  0  0
 21 22  2  0  0  0
 22 23  1  0  0  0
 22 24  1  0  0  0
 24 25  2  0  0  0
 25 16  1  0  0  0
 25 19  1  0  0  0
 11  5  1  0  0  0
 14  9  1  0  0  0
 28 29  1  0  0  0
  3  4  1  0  0  0
 13 15  1  0  0  0
M  END
> <minimizedAffinity>
-8.07506

> <minimizedRMSD>
0.31150

$$$$
P16825


 29 32  0  0  0  0  0  0  0  0999 V2000
   -8.6769    5.1525  -13.8344 C   0  0  0  0  0  0  0  0  0  0  0  0
   -9.4079    6.0604  -13.7587 O   0  0  0  0  0  0  0  0  0  0  0  0
   -8.1523    4.1953  -12.7411 N   0  0  0  0  0  0  0  0  0  0  0  0
   -7.5984    3.4528  -13.0744 H   0  0  0  0  0  0  0  0  0  0  0  0
   -8.3358    4.2120  -11.3576 C   0  0  0  0  0  0  0  0  0  0  0  0
   -8.1664    5.4068  -10.6393 C   0  0  0  0  0  0  0  0  0  0  0  0
   -8.2374    5.4252   -9.2442 C   0  0  0  0  0  0  0  0  0  0  0  0
   -8.5078    4.2408   -8.5826 C   0  0  0  0  0  0  0  0  0  0  0  0
   -8.7237    3.0634   -9.2933 C   0  0  0  0  0  0  0  0  0  0  0  0
   -8.6313    3.0262  -10.6802 C   0  0  0  0  0  0  0  0  0  0  0  0
   -8.9695    1.9403   -8.3330 C   0  0  0  0  0  0  0  0  0  0  0  0
   -9.0263    2.5564   -6.9769 N   0  0  0  0  0  0  0  0  0  0  0  0
  -10.3466    2.4296   -6.3868 C   0  0  0  0  0  0  0  0  0  0  0  0
   -8.5017    3.9382   -7.1108 C   0  0  0  0  0  0  0  0  0  0  0  0
   -9.1375    5.0194   -6.2415 C   0  0  0  0  0  0  0  0  0  0  0  0
   -4.9149    5.4843  -16.6316 N   0  0  0  0  0  0  0  0  0  0  0  0
   -4.5565    5.7161  -15.3248 C   0  0  0  0  0  0  0  0  0  0  0  0
   -5.6544    5.4878  -14.5349 C   0  0  0  0  0  0  0  0  0  0  0  0
   -6.7326    5.1149  -15.3834 C   0  0  0  0  0  0  0  0  0  0  0  0
   -8.1007    4.8454  -15.1611 C   0  0  0  0  0  0  0  0  0  0  0  0
   -8.9300    4.4797  -16.2222 C   0  0  0  0  0  0  0  0  0  0  0  0
   -8.4062    4.4345  -17.5092 C   0  0  0  0  0  0  0  0  0  0  0  0
   -9.5706    4.0830  -18.9506 Br  0  0  0  0  0  0  0  0  0  0  0  0
   -7.0640    4.7317  -17.7789 C   0  0  0  0  0  0  0  0  0  0  0  0
   -6.2381    5.0745  -16.6931 C   0  0  0  0  0  0  0  0  0  0  0  0
   -4.0836    5.8576  -17.7727 C   0  0  0  0  0  0  0  0  0  0  0  0
   -2.4850    4.5412  -19.0608 C   0  0  0  0  0  0  0  0  0  0  0  0
   -2.8467    5.0983  -17.7699 N   0  0  0  0  0  0  0  0  0  0  0  0
   -2.0937    5.7155  -17.4660 H   0  0  0  0  0  0  0  0  0  0  0  0
 27 28  1  0  0  0
 28 26  1  0  0  0
 26 16  1  0  0  0
 16 17  1  0  0  0
 17 18  2  0  0  0
 18 19  1  0  0  0
 19 20  2  0  0  0
 20  1  1  0  0  0
  1  2  2  0  0  0
  1  3  1  0  0  0
  3  5  1  0  0  0
  5  6  2  0  0  0
  6  7  1  0  0  0
  7  8  2  0  0  0
  8  9  1  0  0  0
  9 10  2  0  0  0
  9 11  1  0  0  0
 11 12  1  0  0  0
 12 13  1  0  0  0
 12 14  1  0  0  0
 14 15  1  0  0  0
 20 21  1  0  0  0
 21 22  2  0  0  0
 22 23  1  0  0  0
 22 24  1  0  0  0
 24 25  2  0  0  0
 25 16  1  0  0  0
 25 19  1  0  0  0
 10  5  1  0  0  0
 14  8  1  0  0  0
 28 29  1  0  0  0
  3  4  1  0  0  0
M  END
> <minimizedAffinity>
-8.59308

> <minimizedRMSD>
0.71409

$$$$
P16829


 28 31  0  0  0  0  0  0  0  0999 V2000
   -4.9145    5.2656  -17.6990 N   0  0  0  0  0  0  0  0  0  0  0  0
   -4.1279    5.6415  -16.6460 C   0  0  0  0  0  0  0  0  0  0  0  0
   -4.8823    5.5703  -15.4918 C   0  0  0  0  0  0  0  0  0  0  0  0
   -6.2185    5.2451  -15.8564 C   0  0  0  0  0  0  0  0  0  0  0  0
   -7.4314    5.0214  -15.1637 C   0  0  0  0  0  0  0  0  0  0  0  0
   -8.5877    4.7034  -15.9014 C   0  0  0  0  0  0  0  0  0  0  0  0
   -8.5476    4.5486  -17.2752 C   0  0  0  0  0  0  0  0  0  0  0  0
  -10.1176    4.0621  -18.2001 Br  0  0  0  0  0  0  0  0  0  0  0  0
   -7.3665    4.7335  -17.9812 C   0  0  0  0  0  0  0  0  0  0  0  0
   -6.2117    5.0789  -17.2550 C   0  0  0  0  0  0  0  0  0  0  0  0
   -7.5426    4.8478  -13.6886 C   0  0  0  0  0  0  0  0  0  0  0  0
   -7.4945    3.7427  -13.3326 O   0  0  0  0  0  0  0  0  0  0  0  0
   -7.7530    6.1391  -12.8923 N   0  0  0  0  0  0  0  0  0  0  0  0
   -7.6768    6.9662  -13.4208 H   0  0  0  0  0  0  0  0  0  0  0  0
   -8.0350    6.3339  -11.5401 C   0  0  0  0  0  0  0  0  0  0  0  0
   -8.5233    7.5532  -11.0650 C   0  0  0  0  0  0  0  0  0  0  0  0
   -8.8047    7.7126   -9.6987 C   0  0  0  0  0  0  0  0  0  0  0  0
   -8.6031    6.6402   -8.8408 C   0  0  0  0  0  0  0  0  0  0  0  0
   -8.1213    5.4289   -9.3124 C   0  0  0  0  0  0  0  0  0  0  0  0
   -7.8278    5.2628  -10.6514 C   0  0  0  0  0  0  0  0  0  0  0  0
   -7.9753    4.4635   -8.1827 C   0  0  0  0  0  0  0  0  0  0  0  0
   -8.7205    5.0856   -7.0528 N   0  0  0  0  0  0  0  0  0  0  0  0
   -8.7970    6.5310   -7.3653 C   0  0  0  0  0  0  0  0  0  0  0  0
   -8.2223    4.9381   -6.1750 H   0  0  0  0  0  0  0  0  0  0  0  0
   -4.5478    5.1891  -19.0877 N   0  0  0  0  0  0  0  0  0  0  0  0
   -4.7818    4.2523  -19.4164 H   0  0  0  0  0  0  0  0  0  0  0  0
   -2.2768    4.1927  -19.4490 C   0  0  0  0  0  0  0  0  0  0  0  0
   -3.1457    5.4350  -19.4192 C   0  0  0  0  0  0  0  0  0  0  0  0
 27 28  1  0  0  0
 28 25  1  0  0  0
 25  1  1  0  0  0
  1  2  1  0  0  0
  2  3  2  0  0  0
  3  4  1  0  0  0
  4  5  2  0  0  0
  5 11  1  0  0  0
 11 12  2  0  0  0
 11 13  1  0  0  0
 13 15  1  0  0  0
 15 16  2  0  0  0
 16 17  1  0  0  0
 17 18  2  0  0  0
 18 19  1  0  0  0
 19 20  2  0  0  0
 19 21  1  0  0  0
 21 22  1  0  0  0
 22 23  1  0  0  0
  5  6  1  0  0  0
  6  7  2  0  0  0
  7  8  1  0  0  0
  7  9  1  0  0  0
  9 10  2  0  0  0
 10  1  1  0  0  0
 10  4  1  0  0  0
 20 15  1  0  0  0
 23 18  1  0  0  0
 25 26  1  0  0  0
 13 14  1  0  0  0
 22 24  1  0  0  0
M  END
> <minimizedAffinity>
-7.12521

> <minimizedRMSD>
1.50189

$$$$
P16852


 33 37  0  0  0  0  0  0  0  0999 V2000
   -8.0776    4.8648  -14.9709 C   0  0  0  0  0  0  0  0  0  0  0  0
   -9.1255    4.4766  -15.8123 C   0  0  0  0  0  0  0  0  0  0  0  0
   -8.8763    4.2995  -17.1671 C   0  0  0  0  0  0  0  0  0  0  0  0
  -10.2898    3.9326  -18.3509 Br  0  0  0  0  0  0  0  0  0  0  0  0
   -7.6035    4.4853  -17.6896 C   0  0  0  0  0  0  0  0  0  0  0  0
   -6.5418    4.8299  -16.8510 C   0  0  0  0  0  0  0  0  0  0  0  0
   -5.2582    4.9716  -17.3903 C   0  0  0  0  0  0  0  0  0  0  0  0
   -4.1570    5.2595  -16.5866 C   0  0  0  0  0  0  0  0  0  0  0  0
   -4.3540    5.4523  -15.2267 C   0  0  0  0  0  0  0  0  0  0  0  0
   -5.6378    5.3511  -14.6752 C   0  0  0  0  0  0  0  0  0  0  0  0
   -6.7590    5.0250  -15.4682 C   0  0  0  0  0  0  0  0  0  0  0  0
   -8.8550    6.3188  -13.3880 O   0  0  0  0  0  0  0  0  0  0  0  0
   -8.4222    5.2503  -13.5755 C   0  0  0  0  0  0  0  0  0  0  0  0
   -8.1621    4.0870  -12.5903 N   0  0  0  0  0  0  0  0  0  0  0  0
   -7.8590    3.2502  -13.0114 H   0  0  0  0  0  0  0  0  0  0  0  0
   -8.2872    4.0302  -11.2014 C   0  0  0  0  0  0  0  0  0  0  0  0
   -7.9861    5.1443  -10.4015 C   0  0  0  0  0  0  0  0  0  0  0  0
   -8.0996    5.0807   -9.0083 C   0  0  0  0  0  0  0  0  0  0  0  0
   -8.5240    3.8948   -8.4375 C   0  0  0  0  0  0  0  0  0  0  0  0
   -8.8335    2.7944   -9.2247 C   0  0  0  0  0  0  0  0  0  0  0  0
   -8.7190    2.8408  -10.6071 C   0  0  0  0  0  0  0  0  0  0  0  0
   -9.2519    1.6604   -8.3524 C   0  0  0  0  0  0  0  0  0  0  0  0
   -9.2927    2.1908   -6.9629 N   0  0  0  0  0  0  0  0  0  0  0  0
   -8.7186    3.5529   -7.0013 C   0  0  0  0  0  0  0  0  0  0  0  0
   -8.7411    1.5957   -6.3448 H   0  0  0  0  0  0  0  0  0  0  0  0
   -2.9795    5.2944  -17.2684 O   0  0  0  0  0  0  0  0  0  0  0  0
   -2.7256    6.3274  -18.2144 C   0  0  0  0  0  0  0  0  0  0  0  0
   -3.3088    5.9465  -19.5534 C   0  0  0  0  0  0  0  0  0  0  0  0
   -2.9931    4.7112  -20.1356 C   0  0  0  0  0  0  0  0  0  0  0  0
   -3.5405    4.3487  -21.3672 C   0  0  0  0  0  0  0  0  0  0  0  0
   -4.4146    5.2124  -22.0249 C   0  0  0  0  0  0  0  0  0  0  0  0
   -4.7416    6.4399  -21.4528 C   0  0  0  0  0  0  0  0  0  0  0  0
   -4.1903    6.8065  -20.2244 C   0  0  0  0  0  0  0  0  0  0  0  0
 12 13  2  0  0  0
 13 14  1  0  0  0
 14 16  1  0  0  0
 16 17  2  0  0  0
 17 18  1  0  0  0
 18 19  2  0  0  0
 19 20  1  0  0  0
 20 21  2  0  0  0
 20 22  1  0  0  0
 22 23  1  0  0  0
 23 24  1  0  0  0
 13  1  1  0  0  0
  1  2  2  0  0  0
  2  3  1  0  0  0
  3  4  1  0  0  0
  3  5  2  0  0  0
  5  6  1  0  0  0
  6  7  2  0  0  0
  7  8  1  0  0  0
  8 26  1  0  0  0
 26 27  1  0  0  0
 27 28  1  0  0  0
 28 29  2  0  0  0
 29 30  1  0  0  0
 30 31  2  0  0  0
 31 32  1  0  0  0
 32 33  2  0  0  0
  8  9  2  0  0  0
  9 10  1  0  0  0
 10 11  2  0  0  0
 21 16  1  0  0  0
 11  1  1  0  0  0
 24 19  1  0  0  0
 11  6  1  0  0  0
 33 28  1  0  0  0
 14 15  1  0  0  0
 23 25  1  0  0  0
M  END
> <minimizedAffinity>
-9.57676

> <minimizedRMSD>
2.15560

$$$$
P16877


 27 30  0  0  0  0  0  0  0  0999 V2000
   -7.8507    4.5223  -13.2092 N   0  0  0  0  0  0  0  0  0  0  0  0
   -6.6991    5.1011  -14.0756 C   0  0  0  0  0  0  0  0  0  0  0  0
   -5.7912    5.7748  -13.7770 O   0  0  0  0  0  0  0  0  0  0  0  0
   -8.5451    4.0411  -13.7147 H   0  0  0  0  0  0  0  0  0  0  0  0
   -6.8905    4.7931  -15.5257 C   0  0  0  0  0  0  0  0  0  0  0  0
   -8.1941    4.4975  -15.9506 C   0  0  0  0  0  0  0  0  0  0  0  0
   -8.4598    4.3869  -17.3066 C   0  0  0  0  0  0  0  0  0  0  0  0
  -10.2230    4.1074  -17.8907 Br  0  0  0  0  0  0  0  0  0  0  0  0
   -7.4564    4.5771  -18.2459 C   0  0  0  0  0  0  0  0  0  0  0  0
   -6.1516    4.8757  -17.8441 C   0  0  0  0  0  0  0  0  0  0  0  0
   -5.1612    5.0778  -18.8179 C   0  0  0  0  0  0  0  0  0  0  0  0
   -3.8386    5.3224  -18.4592 C   0  0  0  0  0  0  0  0  0  0  0  0
   -3.4961    5.3948  -17.1197 C   0  0  0  0  0  0  0  0  0  0  0  0
   -4.4806    5.2321  -16.1374 C   0  0  0  0  0  0  0  0  0  0  0  0
   -5.8352    4.9714  -16.4675 C   0  0  0  0  0  0  0  0  0  0  0  0
   -8.0101    5.7432  -11.0214 C   0  0  0  0  0  0  0  0  0  0  0  0
   -8.1517    5.6452   -9.6215 C   0  0  0  0  0  0  0  0  0  0  0  0
   -8.4084    4.4117   -9.0507 C   0  0  0  0  0  0  0  0  0  0  0  0
   -8.5637    3.2885   -9.8422 C   0  0  0  0  0  0  0  0  0  0  0  0
   -8.3869    3.3467  -11.2160 C   0  0  0  0  0  0  0  0  0  0  0  0
   -8.0628    4.5736  -11.8206 C   0  0  0  0  0  0  0  0  0  0  0  0
   -8.9511    2.1260   -8.9932 C   0  0  0  0  0  0  0  0  0  0  0  0
   -9.0187    2.6307   -7.5961 N   0  0  0  0  0  0  0  0  0  0  0  0
   -8.6150    4.0506   -7.6201 C   0  0  0  0  0  0  0  0  0  0  0  0
   -8.3839    2.0977   -7.0017 H   0  0  0  0  0  0  0  0  0  0  0  0
   -6.4807    8.0165  -11.0284 C   0  0  0  0  0  0  0  0  0  0  0  0
   -8.0590    7.4142  -11.6813 S   0  0  0  0  0  0  0  0  0  0  0  0
 26 27  1  0  0  0
 27 16  1  0  0  0
 16 17  2  0  0  0
 17 18  1  0  0  0
 18 19  2  0  0  0
 19 20  1  0  0  0
 20 21  2  0  0  0
 21  1  1  0  0  0
  1  2  1  0  0  0
  2  3  2  0  0  0
  2  5  1  0  0  0
  5  6  2  0  0  0
  6  7  1  0  0  0
  7  8  1  0  0  0
  7  9  2  0  0  0
  9 10  1  0  0  0
 10 11  2  0  0  0
 11 12  1  0  0  0
 12 13  2  0  0  0
 13 14  1  0  0  0
 14 15  2  0  0  0
 19 22  1  0  0  0
 22 23  1  0  0  0
 23 24  1  0  0  0
 21 16  1  0  0  0
 15  5  1  0  0  0
 24 18  1  0  0  0
 15 10  1  0  0  0
  1  4  1  0  0  0
 23 25  1  0  0  0
M  END
> <minimizedAffinity>
-8.71447

> <minimizedRMSD>
0.32226

$$$$
P16891


 34 39  0  0  0  0  0  0  0  0999 V2000
   -1.8539    7.2082  -16.8818 N   0  0  0  0  0  0  0  0  0  0  0  0
   -1.5750    5.8674  -16.3482 C   0  0  0  0  0  0  0  0  0  0  0  0
   -2.8984    5.1080  -16.3554 C   0  0  0  0  0  0  0  0  0  0  0  0
   -3.9640    6.1246  -16.7622 C   0  0  0  0  0  0  0  0  0  0  0  0
   -4.5432    6.8671  -15.4932 C   0  0  0  0  0  0  0  0  0  0  0  0
   -5.5036    6.0199  -14.5972 C   0  0  0  0  0  0  0  0  0  0  0  0
   -6.5794    5.3521  -15.4146 C   0  0  0  0  0  0  0  0  0  0  0  0
   -7.8518    4.9390  -14.9708 C   0  0  0  0  0  0  0  0  0  0  0  0
   -8.7744    4.3518  -15.8578 C   0  0  0  0  0  0  0  0  0  0  0  0
   -8.4548    4.1714  -17.2081 C   0  0  0  0  0  0  0  0  0  0  0  0
   -9.7309    3.5807  -18.4492 Br  0  0  0  0  0  0  0  0  0  0  0  0
   -7.1876    4.5561  -17.6307 C   0  0  0  0  0  0  0  0  0  0  0  0
   -6.5869    4.5636  -18.8661 N   0  0  0  0  0  0  0  0  0  0  0  0
   -5.3187    5.0960  -18.7890 C   0  0  0  0  0  0  0  0  0  0  0  0
   -5.1039    5.4639  -17.4819 C   0  0  0  0  0  0  0  0  0  0  0  0
   -6.2761    5.1144  -16.7630 C   0  0  0  0  0  0  0  0  0  0  0  0
   -3.1190    7.0844  -17.6268 C   0  0  0  0  0  0  0  0  0  0  0  0
   -7.0056    4.2336  -19.6937 H   0  0  0  0  0  0  0  0  0  0  0  0
   -8.3284    5.2856  -13.6026 C   0  0  0  0  0  0  0  0  0  0  0  0
   -9.0018    6.2322  -13.4782 O   0  0  0  0  0  0  0  0  0  0  0  0
   -7.8897    4.2232  -12.5656 N   0  0  0  0  0  0  0  0  0  0  0  0
   -7.3768    3.4702  -12.9388 H   0  0  0  0  0  0  0  0  0  0  0  0
   -8.1030    4.1590  -11.1874 C   0  0  0  0  0  0  0  0  0  0  0  0
   -7.8451    5.2679  -10.3636 C   0  0  0  0  0  0  0  0  0  0  0  0
   -8.0589    5.2060   -8.9818 C   0  0  0  0  0  0  0  0  0  0  0  0
   -8.5449    4.0281   -8.4483 C   0  0  0  0  0  0  0  0  0  0  0  0
   -8.8028    2.9266   -9.2586 C   0  0  0  0  0  0  0  0  0  0  0  0
   -8.5836    2.9703  -10.6278 C   0  0  0  0  0  0  0  0  0  0  0  0
   -9.2878    1.8027   -8.4022 C   0  0  0  0  0  0  0  0  0  0  0  0
   -9.6553    2.4303   -7.1056 N   0  0  0  0  0  0  0  0  0  0  0  0
   -8.8615    3.6768   -7.0329 C   0  0  0  0  0  0  0  0  0  0  0  0
   -9.4193    1.8113   -6.3300 H   0  0  0  0  0  0  0  0  0  0  0  0
   -0.1097    6.6087  -18.5521 C   0  0  0  0  0  0  0  0  0  0  0  0
   -0.7207    7.6925  -17.6767 C   0  0  0  0  0  0  0  0  0  0  0  0
 33 34  1  0  0  0
 34  1  1  0  0  0
  1  2  1  0  0  0
  2  3  1  0  0  0
  4  3  1  0  0  0
  4  5  1  0  0  0
  5  6  1  0  0  0
  6  7  1  0  0  0
  7  8  2  0  0  0
  8 19  1  0  0  0
 19 20  2  0  0  0
 19 21  1  0  0  0
 21 23  1  0  0  0
 23 24  2  0  0  0
 24 25  1  0  0  0
 25 26  2  0  0  0
 26 27  1  0  0  0
 27 28  2  0  0  0
 27 29  1  0  0  0
 29 30  1  0  0  0
 30 31  1  0  0  0
  8  9  1  0  0  0
  9 10  2  0  0  0
 10 11  1  0  0  0
 10 12  1  0  0  0
 12 13  1  0  0  0
 13 14  1  0  0  0
 14 15  2  0  0  0
 15 16  1  0  0  0
  4 17  1  0  0  0
 17  1  1  0  0  0
 15  4  1  0  0  0
 16  7  1  0  0  0
 28 23  1  0  0  0
 16 12  2  0  0  0
 31 26  1  0  0  0
 21 22  1  0  0  0
 30 32  1  0  0  0
 13 18  1  0  0  0
M  END
> <minimizedAffinity>
-9.62175

> <minimizedRMSD>
0.97709

$$$$
P16893


 33 35  0  0  0  0  0  0  0  0999 V2000
   -7.6214    4.6573  -14.6869 C   0  0  0  0  0  0  0  0  0  0  0  0
   -3.5311    5.6824  -15.5620 C   0  0  0  0  0  0  0  0  0  0  0  0
   -4.5514    6.4413  -16.1232 C   0  0  0  0  0  0  0  0  0  0  0  0
   -5.8721    6.2392  -15.7219 C   0  0  0  0  0  0  0  0  0  0  0  0
   -6.2183    5.2198  -14.8430 C   0  0  0  0  0  0  0  0  0  0  0  0
   -5.1772    4.6239  -14.1243 C   0  0  0  0  0  0  0  0  0  0  0  0
   -3.8502    4.8460  -14.4878 C   0  0  0  0  0  0  0  0  0  0  0  0
   -2.1332    5.7243  -16.1282 C   0  0  0  0  0  0  0  0  0  0  0  0
   -1.1118    5.9231  -15.1045 N   0  0  0  0  0  0  0  0  0  0  0  0
   -1.3461    5.3463  -14.2964 H   0  0  0  0  0  0  0  0  0  0  0  0
   -0.7945    8.2467  -15.8479 C   0  0  0  0  0  0  0  0  0  0  0  0
   -0.9995    7.3081  -14.6679 C   0  0  0  0  0  0  0  0  0  0  0  0
   -8.2589    5.1519  -13.3602 C   0  0  0  0  0  0  0  0  0  0  0  0
   -8.8997    6.1312  -13.2870 O   0  0  0  0  0  0  0  0  0  0  0  0
   -7.8204    4.1415  -12.2473 N   0  0  0  0  0  0  0  0  0  0  0  0
   -7.2133    3.4293  -12.5529 H   0  0  0  0  0  0  0  0  0  0  0  0
   -8.1501    4.0870  -10.8951 C   0  0  0  0  0  0  0  0  0  0  0  0
   -7.9547    5.1824  -10.0414 C   0  0  0  0  0  0  0  0  0  0  0  0
   -8.2226    5.0738   -8.6707 C   0  0  0  0  0  0  0  0  0  0  0  0
   -8.7140    3.8729   -8.1891 C   0  0  0  0  0  0  0  0  0  0  0  0
   -8.9339    2.7956   -9.0399 C   0  0  0  0  0  0  0  0  0  0  0  0
   -8.6408    2.8778  -10.3897 C   0  0  0  0  0  0  0  0  0  0  0  0
   -9.4686    1.6451   -8.2519 C   0  0  0  0  0  0  0  0  0  0  0  0
   -9.8622    2.2241   -6.9393 N   0  0  0  0  0  0  0  0  0  0  0  0
   -9.0673    3.4645   -6.7979 C   0  0  0  0  0  0  0  0  0  0  0  0
   -9.6453    1.5740   -6.1839 H   0  0  0  0  0  0  0  0  0  0  0  0
   -8.6737    4.8046  -15.8059 C   0  0  0  0  0  0  0  0  0  0  0  0
   -8.5105    4.0475  -17.1413 C   0  0  0  0  0  0  0  0  0  0  0  0
  -10.2094    4.1148  -18.1070 Br  0  0  0  0  0  0  0  0  0  0  0  0
   -7.5845    4.5442  -18.1042 N   0  0  0  0  0  0  0  0  0  0  0  0
   -7.2140    4.0164  -19.4902 C   0  0  0  0  0  0  0  0  0  0  0  0
   -7.6562    3.1383  -20.1022 O   0  0  0  0  0  0  0  0  0  0  0  0
   -7.1054    5.3602  -17.8325 H   0  0  0  0  0  0  0  0  0  0  0  0
 11 12  1  0  0  0
 12  9  1  0  0  0
  9  8  1  0  0  0
  8  2  1  0  0  0
  2  3  2  0  0  0
  3  4  1  0  0  0
  4  5  2  0  0  0
  5  1  1  0  0  0
  1 27  1  0  0  0
 27 28  1  0  0  0
 28 29  1  0  0  0
 28 30  1  0  0  0
 30 31  1  0  0  0
 31 32  2  0  0  0
  1 13  1  0  0  0
 13 14  2  0  0  0
 13 15  1  0  0  0
 15 17  1  0  0  0
 17 18  2  0  0  0
 18 19  1  0  0  0
 19 20  2  0  0  0
 20 21  1  0  0  0
 21 22  2  0  0  0
 21 23  1  0  0  0
 23 24  1  0  0  0
 24 25  1  0  0  0
  5  6  1  0  0  0
  6  7  2  0  0  0
  7  2  1  0  0  0
 22 17  1  0  0  0
 25 20  1  0  0  0
  9 10  1  0  0  0
 30 33  1  0  0  0
 15 16  1  0  0  0
 24 26  1  0  0  0
M  END
> <minimizedAffinity>
-6.11636

> <minimizedRMSD>
1.42857

$$$$
P16895


 35 38  0  0  0  0  0  0  0  0999 V2000
   -7.2037    4.9176  -13.5985 C   0  0  0  0  0  0  0  0  0  0  0  0
   -6.0184    4.2391  -13.2406 O   0  0  0  0  0  0  0  0  0  0  0  0
   -5.8945    4.2895  -12.2799 H   0  0  0  0  0  0  0  0  0  0  0  0
   -7.3113    4.7795  -15.1513 C   0  0  0  0  0  0  0  0  0  0  0  0
   -8.5518    4.4850  -15.7631 C   0  0  0  0  0  0  0  0  0  0  0  0
   -8.6574    4.3663  -17.1494 C   0  0  0  0  0  0  0  0  0  0  0  0
  -10.3162    4.0127  -17.9737 Br  0  0  0  0  0  0  0  0  0  0  0  0
   -7.5561    4.5544  -17.9682 C   0  0  0  0  0  0  0  0  0  0  0  0
   -6.3099    4.8466  -17.4172 C   0  0  0  0  0  0  0  0  0  0  0  0
   -5.2075    5.0076  -18.2723 C   0  0  0  0  0  0  0  0  0  0  0  0
   -5.3586    4.8900  -19.6025 F   0  0  0  0  0  0  0  0  0  0  0  0
   -3.9465    5.2783  -17.7704 C   0  0  0  0  0  0  0  0  0  0  0  0
   -2.8978    5.4268  -18.5823 F   0  0  0  0  0  0  0  0  0  0  0  0
   -3.7525    5.4100  -16.4176 C   0  0  0  0  0  0  0  0  0  0  0  0
   -4.8426    5.2647  -15.5555 C   0  0  0  0  0  0  0  0  0  0  0  0
   -6.1588    4.9685  -16.0066 C   0  0  0  0  0  0  0  0  0  0  0  0
   -8.7121    7.0116  -13.2486 N   0  0  0  0  0  0  0  0  0  0  0  0
   -7.2238    6.5296  -13.2616 C   0  0  0  0  0  0  0  0  0  0  0  0
   -6.2298    7.1296  -13.0930 O   0  0  0  0  0  0  0  0  0  0  0  0
   -9.3708    6.3230  -13.4961 H   0  0  0  0  0  0  0  0  0  0  0  0
   -9.1451    8.6050  -11.4372 C   0  0  0  0  0  0  0  0  0  0  0  0
   -9.2809    8.3133  -12.9300 C   0  0  0  0  0  0  0  0  0  0  0  0
  -10.7291    8.4802  -13.3852 C   0  0  0  0  0  0  0  0  0  0  0  0
   -8.3006    4.1937  -12.9028 N   0  0  0  0  0  0  0  0  0  0  0  0
   -9.0307    3.7789  -13.4168 H   0  0  0  0  0  0  0  0  0  0  0  0
   -8.2783    4.1098  -11.4826 C   0  0  0  0  0  0  0  0  0  0  0  0
   -7.9644    5.2068  -10.6524 C   0  0  0  0  0  0  0  0  0  0  0  0
   -8.0650    5.1478   -9.2567 C   0  0  0  0  0  0  0  0  0  0  0  0
   -8.4861    3.9693   -8.6860 C   0  0  0  0  0  0  0  0  0  0  0  0
   -8.7596    2.8588   -9.4737 C   0  0  0  0  0  0  0  0  0  0  0  0
   -8.6781    2.9142  -10.8599 C   0  0  0  0  0  0  0  0  0  0  0  0
   -9.1221    1.7217   -8.5756 C   0  0  0  0  0  0  0  0  0  0  0  0
   -9.4887    2.3572   -7.2817 N   0  0  0  0  0  0  0  0  0  0  0  0
   -8.7450    3.6360   -7.2550 C   0  0  0  0  0  0  0  0  0  0  0  0
   -9.2096    1.7644   -6.5000 H   0  0  0  0  0  0  0  0  0  0  0  0
 21 22  1  0  0  0
 22 23  1  0  0  0
 22 17  1  0  0  0
 17 18  1  0  0  0
 18 19  2  0  0  0
 18  1  1  0  0  0
  1  2  1  0  0  0
  1 24  1  0  0  0
 24 26  1  0  0  0
 26 27  2  0  0  0
 27 28  1  0  0  0
 28 29  2  0  0  0
 29 30  1  0  0  0
 30 31  2  0  0  0
 30 32  1  0  0  0
 32 33  1  0  0  0
 33 34  1  0  0  0
  1  4  1  0  0  0
  4  5  2  0  0  0
  5  6  1  0  0  0
  6  7  1  0  0  0
  6  8  2  0  0  0
  8  9  1  0  0  0
  9 10  2  0  0  0
 10 11  1  0  0  0
 10 12  1  0  0  0
 12 13  1  0  0  0
 12 14  2  0  0  0
 14 15  1  0  0  0
 15 16  2  0  0  0
 31 26  1  0  0  0
 16  4  1  0  0  0
 34 29  1  0  0  0
 16  9  1  0  0  0
 17 20  1  0  0  0
  2  3  1  0  0  0
 24 25  1  0  0  0
 33 35  1  0  0  0
M  END
> <minimizedAffinity>
-9.49092

> <minimizedRMSD>
0.33292

$$$$
P16897


 30 34  0  0  0  0  0  0  0  0999 V2000
   -7.2941    5.0031  -15.2935 C   0  0  0  0  0  0  0  0  0  0  0  0
   -8.4949    4.6263  -15.9054 C   0  0  0  0  0  0  0  0  0  0  0  0
   -8.5057    4.3850  -17.2731 C   0  0  0  0  0  0  0  0  0  0  0  0
  -10.1230    4.0086  -18.1572 Br  0  0  0  0  0  0  0  0  0  0  0  0
   -7.3430    4.4930  -18.0285 C   0  0  0  0  0  0  0  0  0  0  0  0
   -6.1292    4.8293  -17.4204 C   0  0  0  0  0  0  0  0  0  0  0  0
   -4.9536    4.8919  -18.1909 C   0  0  0  0  0  0  0  0  0  0  0  0
   -3.6874    5.1800  -17.6461 C   0  0  0  0  0  0  0  0  0  0  0  0
   -3.6700    5.4563  -16.2699 C   0  0  0  0  0  0  0  0  0  0  0  0
   -4.8336    5.4338  -15.4855 C   0  0  0  0  0  0  0  0  0  0  0  0
   -6.0863    5.0983  -16.0357 C   0  0  0  0  0  0  0  0  0  0  0  0
   -2.3825    5.1556  -18.5796 C   0  0  0  0  0  0  0  0  0  0  0  0
   -1.0001    5.5797  -18.0267 C   0  0  0  0  0  0  0  0  0  0  0  0
   -1.2309    6.9420  -18.5682 N   0  0  0  0  0  0  0  0  0  0  0  0
   -2.1549    6.3417  -19.5568 C   0  0  0  0  0  0  0  0  0  0  0  0
   -0.4047    7.3815  -18.9739 H   0  0  0  0  0  0  0  0  0  0  0  0
   -7.1013    6.5408  -13.6112 O   0  0  0  0  0  0  0  0  0  0  0  0
   -7.3527    5.4294  -13.8685 C   0  0  0  0  0  0  0  0  0  0  0  0
   -7.7432    4.2501  -12.9462 N   0  0  0  0  0  0  0  0  0  0  0  0
   -7.8322    3.3822  -13.4023 H   0  0  0  0  0  0  0  0  0  0  0  0
   -7.9898    4.2165  -11.5720 C   0  0  0  0  0  0  0  0  0  0  0  0
   -7.7319    5.3352  -10.7617 C   0  0  0  0  0  0  0  0  0  0  0  0
   -7.9455    5.2891   -9.3789 C   0  0  0  0  0  0  0  0  0  0  0  0
   -8.4424    4.1211   -8.8327 C   0  0  0  0  0  0  0  0  0  0  0  0
   -8.7174    3.0161   -9.6321 C   0  0  0  0  0  0  0  0  0  0  0  0
   -8.4862    3.0400  -10.9999 C   0  0  0  0  0  0  0  0  0  0  0  0
   -9.2325    1.9104   -8.7684 C   0  0  0  0  0  0  0  0  0  0  0  0
   -9.5756    2.5556   -7.4718 N   0  0  0  0  0  0  0  0  0  0  0  0
   -8.7494    3.7811   -7.4125 C   0  0  0  0  0  0  0  0  0  0  0  0
   -9.3505    1.9355   -6.6939 H   0  0  0  0  0  0  0  0  0  0  0  0
 17 18  2  0  0  0
 18 19  1  0  0  0
 19 21  1  0  0  0
 21 22  2  0  0  0
 22 23  1  0  0  0
 23 24  2  0  0  0
 24 25  1  0  0  0
 25 26  2  0  0  0
 25 27  1  0  0  0
 27 28  1  0  0  0
 28 29  1  0  0  0
 18  1  1  0  0  0
  1  2  2  0  0  0
  2  3  1  0  0  0
  3  4  1  0  0  0
  3  5  2  0  0  0
  5  6  1  0  0  0
  6  7  2  0  0  0
  7  8  1  0  0  0
  8 12  1  0  0  0
 12 13  1  0  0  0
 13 14  1  0  0  0
 14 15  1  0  0  0
  8  9  2  0  0  0
  9 10  1  0  0  0
 10 11  2  0  0  0
 26 21  1  0  0  0
 11  1  1  0  0  0
 29 24  1  0  0  0
 11  6  1  0  0  0
 15 12  1  0  0  0
 19 20  1  0  0  0
 28 30  1  0  0  0
 14 16  1  0  0  0
M  END
> <minimizedAffinity>
-9.31632

> <minimizedRMSD>
0.29703

$$$$
P16907


 33 36  0  0  0  0  0  0  0  0999 V2000
   -5.9907    5.1807  -16.4439 C   0  0  0  0  0  0  0  0  0  0  0  0
   -6.8547    4.6651  -17.4181 C   0  0  0  0  0  0  0  0  0  0  0  0
   -8.1425    4.2580  -17.0634 C   0  0  0  0  0  0  0  0  0  0  0  0
   -9.3215    3.6171  -18.3843 Br  0  0  0  0  0  0  0  0  0  0  0  0
   -8.6024    4.3755  -15.7561 C   0  0  0  0  0  0  0  0  0  0  0  0
   -7.7599    4.9286  -14.7943 C   0  0  0  0  0  0  0  0  0  0  0  0
   -6.4389    5.3202  -15.1086 C   0  0  0  0  0  0  0  0  0  0  0  0
   -2.8292    6.8604  -17.2732 C   0  0  0  0  0  0  0  0  0  0  0  0
   -4.1984    6.7708  -17.4722 C   0  0  0  0  0  0  0  0  0  0  0  0
   -4.6459    5.5862  -16.8279 C   0  0  0  0  0  0  0  0  0  0  0  0
   -3.5156    4.9796  -16.3271 C   0  0  0  0  0  0  0  0  0  0  0  0
   -2.4136    5.6720  -16.7384 N   0  0  0  0  0  0  0  0  0  0  0  0
   -1.4802    5.3683  -16.6631 H   0  0  0  0  0  0  0  0  0  0  0  0
   -1.8952    8.0046  -17.4391 C   0  0  0  0  0  0  0  0  0  0  0  0
   -0.4754    7.7104  -16.9755 C   0  0  0  0  0  0  0  0  0  0  0  0
    0.9224    5.8845  -18.0826 C   0  0  0  0  0  0  0  0  0  0  0  0
    0.4426    7.3277  -18.1371 C   0  0  0  0  0  0  0  0  0  0  0  0
   -8.3344    5.2314  -13.4597 C   0  0  0  0  0  0  0  0  0  0  0  0
   -8.9941    6.1869  -13.3460 O   0  0  0  0  0  0  0  0  0  0  0  0
   -7.8441    4.2231  -12.4008 N   0  0  0  0  0  0  0  0  0  0  0  0
   -7.2285    3.5344  -12.7413 H   0  0  0  0  0  0  0  0  0  0  0  0
   -8.1307    4.1281  -11.0397 C   0  0  0  0  0  0  0  0  0  0  0  0
   -7.9497    5.2406  -10.1998 C   0  0  0  0  0  0  0  0  0  0  0  0
   -8.1553    5.1414   -8.8205 C   0  0  0  0  0  0  0  0  0  0  0  0
   -8.5781    3.9294   -8.3083 C   0  0  0  0  0  0  0  0  0  0  0  0
   -8.7919    2.8379   -9.1398 C   0  0  0  0  0  0  0  0  0  0  0  0
   -8.5515    2.9092  -10.5051 C   0  0  0  0  0  0  0  0  0  0  0  0
   -9.2703    1.6826   -8.3283 C   0  0  0  0  0  0  0  0  0  0  0  0
   -9.4303    2.1823   -6.9359 N   0  0  0  0  0  0  0  0  0  0  0  0
   -8.8617    3.5457   -6.8973 C   0  0  0  0  0  0  0  0  0  0  0  0
   -8.9297    1.5757   -6.2865 H   0  0  0  0  0  0  0  0  0  0  0  0
   -5.5474    5.9051  -14.0344 C   0  0  0  0  0  0  0  0  0  0  0  0
   -5.5913    7.4266  -13.9645 C   0  0  0  0  0  0  0  0  0  0  0  0
 16 17  1  0  0  0
 17 15  1  0  0  0
 15 14  1  0  0  0
 14  8  1  0  0  0
  8  9  2  0  0  0
  9 10  1  0  0  0
 10  1  1  0  0  0
  1  2  2  0  0  0
  2  3  1  0  0  0
  3  4  1  0  0  0
  3  5  2  0  0  0
  5  6  1  0  0  0
  6 18  1  0  0  0
 18 19  2  0  0  0
 18 20  1  0  0  0
 20 22  1  0  0  0
 22 23  2  0  0  0
 23 24  1  0  0  0
 24 25  2  0  0  0
 25 26  1  0  0  0
 26 27  2  0  0  0
 26 28  1  0  0  0
 28 29  1  0  0  0
 29 30  1  0  0  0
  6  7  2  0  0  0
  7 32  1  0  0  0
 32 33  1  0  0  0
 10 11  2  0  0  0
 11 12  1  0  0  0
 12  8  1  0  0  0
  7  1  1  0  0  0
 27 22  1  0  0  0
 30 25  1  0  0  0
 20 21  1  0  0  0
 29 31  1  0  0  0
 12 13  1  0  0  0
M  END
> <minimizedAffinity>
-7.61239

> <minimizedRMSD>
1.31403

$$$$
P16912


 29 32  0  0  0  0  0  0  0  0999 V2000
   -8.6294    5.0007  -13.9065 C   0  0  0  0  0  0  0  0  0  0  0  0
   -9.3476    5.9182  -13.8240 O   0  0  0  0  0  0  0  0  0  0  0  0
   -8.0698    4.0647  -12.8113 N   0  0  0  0  0  0  0  0  0  0  0  0
   -7.5373    3.3083  -13.1483 H   0  0  0  0  0  0  0  0  0  0  0  0
   -3.9391    5.2798  -17.6475 N   0  0  0  0  0  0  0  0  0  0  0  0
   -4.8643    5.2334  -16.6209 N   0  0  0  0  0  0  0  0  0  0  0  0
   -4.4965    5.5719  -15.3863 N   0  0  0  0  0  0  0  0  0  0  0  0
   -5.6118    5.4128  -14.6735 C   0  0  0  0  0  0  0  0  0  0  0  0
   -6.7075    4.9978  -15.4620 C   0  0  0  0  0  0  0  0  0  0  0  0
   -8.0683    4.7105  -15.2419 C   0  0  0  0  0  0  0  0  0  0  0  0
   -8.8693    4.2989  -16.3118 C   0  0  0  0  0  0  0  0  0  0  0  0
   -8.3252    4.2323  -17.5959 C   0  0  0  0  0  0  0  0  0  0  0  0
   -9.3410    3.8077  -18.9193 Cl  0  0  0  0  0  0  0  0  0  0  0  0
   -6.9850    4.5473  -17.8509 C   0  0  0  0  0  0  0  0  0  0  0  0
   -6.1916    4.9087  -16.7507 C   0  0  0  0  0  0  0  0  0  0  0  0
   -3.0291    5.5484  -17.2732 H   0  0  0  0  0  0  0  0  0  0  0  0
   -4.2365    5.9645  -18.3426 H   0  0  0  0  0  0  0  0  0  0  0  0
   -8.1964    4.1174  -11.4223 C   0  0  0  0  0  0  0  0  0  0  0  0
   -7.8316    5.2685  -10.7300 C   0  0  0  0  0  0  0  0  0  0  0  0
   -7.8309    5.2785   -9.3372 C   0  0  0  0  0  0  0  0  0  0  0  0
   -8.2293    4.1501   -8.6223 C   0  0  0  0  0  0  0  0  0  0  0  0
   -8.6547    2.9960   -9.2902 C   0  0  0  0  0  0  0  0  0  0  0  0
   -8.6218    2.9948  -10.7068 C   0  0  0  0  0  0  0  0  0  0  0  0
   -9.0900    1.7184   -8.6085 C   0  0  0  0  0  0  0  0  0  0  0  0
   -9.2189    1.7242   -7.1516 N   0  0  0  0  0  0  0  0  0  0  0  0
  -10.0118    2.8297   -6.6525 C   0  0  0  0  0  0  0  0  0  0  0  0
   -9.2513    4.1498   -6.5215 C   0  0  0  0  0  0  0  0  0  0  0  0
   -8.0371    4.2181   -7.2697 O   0  0  0  0  0  0  0  0  0  0  0  0
   -8.2859    1.7845   -6.7440 H   0  0  0  0  0  0  0  0  0  0  0  0
  5  6  1  0  0  0
  6  7  1  0  0  0
  7  8  2  0  0  0
  8  9  1  0  0  0
  9 10  2  0  0  0
 10  1  1  0  0  0
  1  2  2  0  0  0
  1  3  1  0  0  0
  3 18  1  0  0  0
 18 19  2  0  0  0
 19 20  1  0  0  0
 20 21  2  0  0  0
 21 22  1  0  0  0
 22 23  2  0  0  0
 22 24  1  0  0  0
 24 25  1  0  0  0
 25 26  1  0  0  0
 26 27  1  0  0  0
 27 28  1  0  0  0
 10 11  1  0  0  0
 11 12  2  0  0  0
 12 13  1  0  0  0
 12 14  1  0  0  0
 14 15  2  0  0  0
 15  6  1  0  0  0
 15  9  1  0  0  0
 23 18  1  0  0  0
 28 21  1  0  0  0
  5 16  1  0  0  0
  5 17  1  0  0  0
  3  4  1  0  0  0
 25 29  1  0  0  0
M  END
> <minimizedAffinity>
-9.84366

> <minimizedRMSD>
0.70955

$$$$
P16913


 31 34  0  0  0  0  0  0  0  0999 V2000
   -5.6841    5.4267  -13.5131 O   0  0  0  0  0  0  0  0  0  0  0  0
   -6.7351    5.0315  -13.8364 C   0  0  0  0  0  0  0  0  0  0  0  0
   -7.9621    4.6329  -12.9834 N   0  0  0  0  0  0  0  0  0  0  0  0
   -8.7661    4.3999  -13.5016 H   0  0  0  0  0  0  0  0  0  0  0  0
   -8.1148    4.5497  -11.5996 C   0  0  0  0  0  0  0  0  0  0  0  0
   -7.7744    5.6402  -10.8077 C   0  0  0  0  0  0  0  0  0  0  0  0
   -7.8411    5.5484   -9.4221 C   0  0  0  0  0  0  0  0  0  0  0  0
   -8.3093    4.3904   -8.8025 C   0  0  0  0  0  0  0  0  0  0  0  0
   -8.7137    3.2936   -9.5787 C   0  0  0  0  0  0  0  0  0  0  0  0
   -8.5752    3.3808  -10.9896 C   0  0  0  0  0  0  0  0  0  0  0  0
   -9.3834    2.0626   -9.0182 C   0  0  0  0  0  0  0  0  0  0  0  0
   -8.8503    1.5602   -7.7735 N   0  0  0  0  0  0  0  0  0  0  0  0
   -9.1443    2.3538   -6.5900 C   0  0  0  0  0  0  0  0  0  0  0  0
   -9.3379    3.8497   -6.7544 C   0  0  0  0  0  0  0  0  0  0  0  0
   -8.2583    4.4667   -7.4370 O   0  0  0  0  0  0  0  0  0  0  0  0
   -7.8363    1.5037   -7.8679 H   0  0  0  0  0  0  0  0  0  0  0  0
   -6.9280    4.7658  -15.2789 C   0  0  0  0  0  0  0  0  0  0  0  0
   -8.1737    4.4343  -15.8224 C   0  0  0  0  0  0  0  0  0  0  0  0
   -8.3249    4.3851  -17.2094 C   0  0  0  0  0  0  0  0  0  0  0  0
   -9.8880    4.1182  -17.8782 Cl  0  0  0  0  0  0  0  0  0  0  0  0
   -7.2530    4.6047  -18.0857 C   0  0  0  0  0  0  0  0  0  0  0  0
   -6.0077    4.9015  -17.5145 C   0  0  0  0  0  0  0  0  0  0  0  0
   -5.8358    5.0097  -16.1375 C   0  0  0  0  0  0  0  0  0  0  0  0
   -4.4917    5.4178  -15.9747 C   0  0  0  0  0  0  0  0  0  0  0  0
   -3.8492    5.5560  -17.1341 N   0  0  0  0  0  0  0  0  0  0  0  0
   -4.7624    5.1493  -18.0511 N   0  0  0  0  0  0  0  0  0  0  0  0
   -4.3894    5.0415  -19.4615 C   0  0  0  0  0  0  0  0  0  0  0  0
   -2.9263    5.1456  -19.6258 N   0  0  0  0  0  0  0  0  0  0  0  0
   -2.3702    3.8682  -19.1953 O   0  0  0  0  0  0  0  0  0  0  0  0
   -2.5597    5.9023  -19.0483 H   0  0  0  0  0  0  0  0  0  0  0  0
   -2.7256    3.1571  -19.7511 H   0  0  0  0  0  0  0  0  0  0  0  0
  1  2  2  0  0  0
  2  3  1  0  0  0
  3  5  1  0  0  0
  5  6  2  0  0  0
  6  7  1  0  0  0
  7  8  2  0  0  0
  8  9  1  0  0  0
  9 10  2  0  0  0
  9 11  1  0  0  0
 11 12  1  0  0  0
 12 13  1  0  0  0
 13 14  1  0  0  0
 14 15  1  0  0  0
  2 17  1  0  0  0
 17 18  2  0  0  0
 18 19  1  0  0  0
 19 20  1  0  0  0
 19 21  2  0  0  0
 21 22  1  0  0  0
 22 23  2  0  0  0
 23 24  1  0  0  0
 24 25  2  0  0  0
 25 26  1  0  0  0
 26 27  1  0  0  0
 27 28  1  0  0  0
 28 29  1  0  0  0
 10  5  1  0  0  0
 23 17  1  0  0  0
 15  8  1  0  0  0
 26 22  1  0  0  0
  3  4  1  0  0  0
 12 16  1  0  0  0
 28 30  1  0  0  0
 29 31  1  0  0  0
M  END
> <minimizedAffinity>
-8.58042

> <minimizedRMSD>
0.77971

$$$$
P16915


 50 56  0  0  0  0  0  0  0  0999 V2000
   -7.9753    4.5883  -11.5755 C   0  0  0  0  0  0  0  0  0  0  0  0
   -8.5369    3.4798  -10.9138 C   0  0  0  0  0  0  0  0  0  0  0  0
   -8.4961    3.3463   -9.5038 C   0  0  0  0  0  0  0  0  0  0  0  0
   -7.7637    4.2920   -8.7877 C   0  0  0  0  0  0  0  0  0  0  0  0
   -7.2065    5.3893   -9.4347 C   0  0  0  0  0  0  0  0  0  0  0  0
   -7.4090    5.6196  -10.8013 C   0  0  0  0  0  0  0  0  0  0  0  0
   -7.5491    4.2572   -7.4335 O   0  0  0  0  0  0  0  0  0  0  0  0
   -8.7876    4.2812   -6.7281 C   0  0  0  0  0  0  0  0  0  0  0  0
   -9.3410    2.8787   -6.5010 C   0  0  0  0  0  0  0  0  0  0  0  0
   -9.0053    1.8731   -7.4974 N   0  0  0  0  0  0  0  0  0  0  0  0
   -9.3115    2.2435   -8.8689 C   0  0  0  0  0  0  0  0  0  0  0  0
   -9.5229    1.0226   -7.2759 H   0  0  0  0  0  0  0  0  0  0  0  0
   -6.2871    6.1747  -13.8172 O   0  0  0  0  0  0  0  0  0  0  0  0
   -7.0743    5.3291  -13.9915 C   0  0  0  0  0  0  0  0  0  0  0  0
   -7.9520    4.5536  -12.9820 N   0  0  0  0  0  0  0  0  0  0  0  0
   -8.6001    3.9347  -13.3897 H   0  0  0  0  0  0  0  0  0  0  0  0
   -7.2644    4.8726  -15.3824 C   0  0  0  0  0  0  0  0  0  0  0  0
   -8.4966    4.4553  -15.9191 C   0  0  0  0  0  0  0  0  0  0  0  0
   -8.6886    4.2220  -17.3178 C   0  0  0  0  0  0  0  0  0  0  0  0
  -10.2861    3.8757  -17.8606 Cl  0  0  0  0  0  0  0  0  0  0  0  0
   -7.6826    4.3422  -18.2967 C   0  0  0  0  0  0  0  0  0  0  0  0
   -6.4451    4.7448  -17.7799 C   0  0  0  0  0  0  0  0  0  0  0  0
   -5.2837    4.9848  -18.4140 N   0  0  0  0  0  0  0  0  0  0  0  0
   -4.4293    5.3475  -17.4447 N   0  0  0  0  0  0  0  0  0  0  0  0
   -4.9721    5.3718  -16.1965 C   0  0  0  0  0  0  0  0  0  0  0  0
   -6.2766    4.9922  -16.3678 C   0  0  0  0  0  0  0  0  0  0  0  0
   -3.4884    5.5768  -17.6216 H   0  0  0  0  0  0  0  0  0  0  0  0
   -7.2561    6.9690  -11.2566 N   0  0  0  0  0  0  0  0  0  0  0  0
   -6.3980    7.2616  -11.6403 H   0  0  0  0  0  0  0  0  0  0  0  0
   -8.3426    7.8941  -11.1574 C   0  0  0  0  0  0  0  0  0  0  0  0
   -9.0713    8.0421   -9.9713 C   0  0  0  0  0  0  0  0  0  0  0  0
  -10.2350    8.8007   -9.9298 C   0  0  0  0  0  0  0  0  0  0  0  0
  -10.6684    9.4619  -11.0682 C   0  0  0  0  0  0  0  0  0  0  0  0
  -11.8895   10.0748  -11.0488 O   0  0  0  0  0  0  0  0  0  0  0  0
   -9.9059    9.4521  -12.2399 C   0  0  0  0  0  0  0  0  0  0  0  0
   -8.7436    8.6477  -12.2720 C   0  0  0  0  0  0  0  0  0  0  0  0
  -12.3987   10.0801  -10.2622 H   0  0  0  0  0  0  0  0  0  0  0  0
  -10.4107   10.1713  -13.4679 C   0  0  0  0  0  0  0  0  0  0  0  0
   -9.8073   11.4917  -13.6053 N   0  0  0  0  0  0  0  0  0  0  0  0
   -9.2505   11.8469  -12.8752 H   0  0  0  0  0  0  0  0  0  0  0  0
   -9.9979   12.2346  -14.7134 C   0  0  0  0  0  0  0  0  0  0  0  0
   -9.7597   13.5178  -14.8377 N   0  0  0  0  0  0  0  0  0  0  0  0
  -10.0801   13.8301  -16.1342 C   0  0  0  0  0  0  0  0  0  0  0  0
  -10.0194   15.0623  -16.8008 C   0  0  0  0  0  0  0  0  0  0  0  0
  -10.4011   15.1186  -18.1474 C   0  0  0  0  0  0  0  0  0  0  0  0
  -10.8342   13.9714  -18.8167 C   0  0  0  0  0  0  0  0  0  0  0  0
  -10.9006   12.7329  -18.1682 C   0  0  0  0  0  0  0  0  0  0  0  0
  -10.5142   12.7050  -16.8255 C   0  0  0  0  0  0  0  0  0  0  0  0
  -10.4383   11.6972  -15.8955 N   0  0  0  0  0  0  0  0  0  0  0  0
  -10.6618   10.7511  -16.0509 H   0  0  0  0  0  0  0  0  0  0  0  0
 13 14  2  0  0  0
 14 15  1  0  0  0
 15  1  1  0  0  0
  1  2  2  0  0  0
  2  3  1  0  0  0
  3  4  2  0  0  0
  4  5  1  0  0  0
  5  6  2  0  0  0
  6 28  1  0  0  0
 28 30  1  0  0  0
 30 31  2  0  0  0
 31 32  1  0  0  0
 32 33  2  0  0  0
 33 34  1  0  0  0
 33 35  1  0  0  0
 35 38  1  0  0  0
 38 39  1  0  0  0
 39 41  1  0  0  0
 41 42  2  0  0  0
 42 43  1  0  0  0
 43 44  2  0  0  0
 44 45  1  0  0  0
 45 46  2  0  0  0
 46 47  1  0  0  0
 47 48  2  0  0  0
 48 49  1  0  0  0
 35 36  2  0  0  0
  4  7  1  0  0  0
  7  8  1  0  0  0
  8  9  1  0  0  0
  9 10  1  0  0  0
 10 11  1  0  0  0
 14 17  1  0  0  0
 17 18  2  0  0  0
 18 19  1  0  0  0
 19 20  1  0  0  0
 19 21  2  0  0  0
 21 22  1  0  0  0
 22 23  2  0  0  0
 23 24  1  0  0  0
 24 25  1  0  0  0
 25 26  2  0  0  0
  6  1  1  0  0  0
 36 30  1  0  0  0
 26 17  1  0  0  0
 11  3  1  0  0  0
 26 22  1  0  0  0
 49 41  1  0  0  0
 48 43  1  0  0  0
 15 16  1  0  0  0
 28 29  1  0  0  0
 34 37  1  0  0  0
 39 40  1  0  0  0
 49 50  1  0  0  0
 10 12  1  0  0  0
 24 27  1  0  0  0
M  END
> <minimizedAffinity>
-9.93625

> <minimizedRMSD>
0.65702

$$$$
P16938


 27 30  0  0  0  0  0  0  0  0999 V2000
   -6.5428    6.1411  -14.9124 O   0  0  0  0  0  0  0  0  0  0  0  0
   -7.3840    5.3364  -14.9976 C   0  0  0  0  0  0  0  0  0  0  0  0
   -8.3259    4.7540  -13.9197 N   0  0  0  0  0  0  0  0  0  0  0  0
   -9.0100    4.1341  -14.2616 H   0  0  0  0  0  0  0  0  0  0  0  0
   -8.3641    4.9623  -12.5515 C   0  0  0  0  0  0  0  0  0  0  0  0
   -8.2688    6.2532  -12.0250 C   0  0  0  0  0  0  0  0  0  0  0  0
   -8.2329    6.4483  -10.6477 C   0  0  0  0  0  0  0  0  0  0  0  0
   -8.2249    5.3383   -9.8170 C   0  0  0  0  0  0  0  0  0  0  0  0
   -8.3759    4.0400  -10.3304 C   0  0  0  0  0  0  0  0  0  0  0  0
   -8.4721    3.8581  -11.7111 C   0  0  0  0  0  0  0  0  0  0  0  0
   -8.0937    2.8717   -9.4308 C   0  0  0  0  0  0  0  0  0  0  0  0
   -6.6371    2.7152   -9.3052 N   0  0  0  0  0  0  0  0  0  0  0  0
   -5.9361    4.0099   -9.1456 C   0  0  0  0  0  0  0  0  0  0  0  0
   -6.6027    5.0117   -8.1657 C   0  0  0  0  0  0  0  0  0  0  0  0
   -7.9091    5.5331   -8.5005 O   0  0  0  0  0  0  0  0  0  0  0  0
   -6.2847    2.2542  -10.1441 H   0  0  0  0  0  0  0  0  0  0  0  0
   -7.7244    4.8137  -16.3387 C   0  0  0  0  0  0  0  0  0  0  0  0
   -9.0608    4.5059  -16.6209 C   0  0  0  0  0  0  0  0  0  0  0  0
   -9.4569    4.2482  -17.9248 C   0  0  0  0  0  0  0  0  0  0  0  0
  -11.1292    4.1989  -18.2625 Cl  0  0  0  0  0  0  0  0  0  0  0  0
   -8.5432    4.1748  -18.9705 C   0  0  0  0  0  0  0  0  0  0  0  0
   -7.2205    4.5169  -18.6745 C   0  0  0  0  0  0  0  0  0  0  0  0
   -6.1265    4.6817  -19.4861 N   0  0  0  0  0  0  0  0  0  0  0  0
   -5.0217    5.0962  -18.8283 N   0  0  0  0  0  0  0  0  0  0  0  0
   -5.4366    5.2006  -17.5614 C   0  0  0  0  0  0  0  0  0  0  0  0
   -6.7942    4.8517  -17.3933 C   0  0  0  0  0  0  0  0  0  0  0  0
   -6.1449    4.5137  -20.4560 H   0  0  0  0  0  0  0  0  0  0  0  0
  1  2  2  0  0  0
  2  3  1  0  0  0
  3  5  1  0  0  0
  5  6  2  0  0  0
  6  7  1  0  0  0
  7  8  2  0  0  0
  8  9  1  0  0  0
  9 10  2  0  0  0
  9 11  1  0  0  0
 11 12  1  0  0  0
 12 13  1  0  0  0
 13 14  1  0  0  0
 14 15  1  0  0  0
  2 17  1  0  0  0
 17 18  2  0  0  0
 18 19  1  0  0  0
 19 20  1  0  0  0
 19 21  2  0  0  0
 21 22  1  0  0  0
 22 23  1  0  0  0
 23 24  1  0  0  0
 24 25  2  0  0  0
 25 26  1  0  0  0
 10  5  1  0  0  0
 26 17  1  0  0  0
 15  8  1  0  0  0
 26 22  2  0  0  0
  3  4  1  0  0  0
 12 16  1  0  0  0
 23 27  1  0  0  0
M  END
> <minimizedAffinity>
-7.91757

> <minimizedRMSD>
0.43557

$$$$
P16940


 33 36  0  0  0  0  0  0  0  0999 V2000
   -7.1104    4.6496  -13.7763 C   0  0  0  0  0  0  0  0  0  0  0  0
   -6.7321    6.0018  -13.5670 O   0  0  0  0  0  0  0  0  0  0  0  0
   -6.5723    6.1503  -12.6219 H   0  0  0  0  0  0  0  0  0  0  0  0
   -7.3231    4.5801  -15.2940 C   0  0  0  0  0  0  0  0  0  0  0  0
   -8.6218    4.4302  -15.8543 C   0  0  0  0  0  0  0  0  0  0  0  0
   -8.8469    4.4561  -17.2329 C   0  0  0  0  0  0  0  0  0  0  0  0
  -10.4430    4.4395  -17.8647 Cl  0  0  0  0  0  0  0  0  0  0  0  0
   -7.8041    4.5930  -18.1348 C   0  0  0  0  0  0  0  0  0  0  0  0
   -6.5403    4.8090  -17.5996 C   0  0  0  0  0  0  0  0  0  0  0  0
   -5.3513    5.0722  -18.2276 N   0  0  0  0  0  0  0  0  0  0  0  0
   -4.3335    5.3073  -17.3788 N   0  0  0  0  0  0  0  0  0  0  0  0
   -4.8938    5.1349  -16.1773 C   0  0  0  0  0  0  0  0  0  0  0  0
   -6.2767    4.8204  -16.2333 C   0  0  0  0  0  0  0  0  0  0  0  0
   -5.2510    5.0879  -19.2068 H   0  0  0  0  0  0  0  0  0  0  0  0
   -3.6515    3.9410  -12.0275 C   0  0  0  0  0  0  0  0  0  0  0  0
   -4.8402    4.3763  -12.6950 N   0  0  0  0  0  0  0  0  0  0  0  0
   -6.0223    3.5541  -13.2984 C   0  0  0  0  0  0  0  0  0  0  0  0
   -6.1628    2.3966  -13.4078 O   0  0  0  0  0  0  0  0  0  0  0  0
   -4.9265    5.3525  -12.7890 H   0  0  0  0  0  0  0  0  0  0  0  0
   -8.3591    4.4598  -13.0082 N   0  0  0  0  0  0  0  0  0  0  0  0
   -9.2046    4.2663  -13.4740 H   0  0  0  0  0  0  0  0  0  0  0  0
   -8.3272    4.5590  -11.5950 C   0  0  0  0  0  0  0  0  0  0  0  0
   -7.9900    5.7200  -10.8972 C   0  0  0  0  0  0  0  0  0  0  0  0
   -8.0274    5.7650   -9.4976 C   0  0  0  0  0  0  0  0  0  0  0  0
   -8.4517    4.6692   -8.7455 C   0  0  0  0  0  0  0  0  0  0  0  0
   -8.8485    3.5056   -9.4108 C   0  0  0  0  0  0  0  0  0  0  0  0
   -8.7857    3.4772  -10.8280 C   0  0  0  0  0  0  0  0  0  0  0  0
   -9.3648    2.2740   -8.7131 C   0  0  0  0  0  0  0  0  0  0  0  0
   -8.5911    1.9433   -7.5432 N   0  0  0  0  0  0  0  0  0  0  0  0
   -8.9919    2.6758   -6.3534 C   0  0  0  0  0  0  0  0  0  0  0  0
   -9.3087    4.1580   -6.5834 C   0  0  0  0  0  0  0  0  0  0  0  0
   -8.3632    4.8599   -7.3899 O   0  0  0  0  0  0  0  0  0  0  0  0
   -7.6112    2.1517   -7.7353 H   0  0  0  0  0  0  0  0  0  0  0  0
 15 16  1  0  0  0
 16 17  1  0  0  0
 17 18  2  0  0  0
 17  1  1  0  0  0
  1  2  1  0  0  0
  1 20  1  0  0  0
 20 22  1  0  0  0
 22 23  2  0  0  0
 23 24  1  0  0  0
 24 25  2  0  0  0
 25 26  1  0  0  0
 26 27  2  0  0  0
 26 28  1  0  0  0
 28 29  1  0  0  0
 29 30  1  0  0  0
 30 31  1  0  0  0
 31 32  1  0  0  0
  1  4  1  0  0  0
  4  5  2  0  0  0
  5  6  1  0  0  0
  6  7  1  0  0  0
  6  8  2  0  0  0
  8  9  1  0  0  0
  9 10  1  0  0  0
 10 11  1  0  0  0
 11 12  2  0  0  0
 12 13  1  0  0  0
 27 22  1  0  0  0
 13  4  1  0  0  0
 32 25  1  0  0  0
 13  9  2  0  0  0
 16 19  1  0  0  0
  2  3  1  0  0  0
 20 21  1  0  0  0
 29 33  1  0  0  0
 10 14  1  0  0  0
M  END
> <minimizedAffinity>
-8.76432

> <minimizedRMSD>
0.66365

$$$$
P16944


 28 31  0  0  0  0  0  0  0  0999 V2000
   -8.8140    5.1691  -14.0699 C   0  0  0  0  0  0  0  0  0  0  0  0
   -9.4910    6.1196  -14.0003 O   0  0  0  0  0  0  0  0  0  0  0  0
   -8.2575    4.2504  -12.9560 N   0  0  0  0  0  0  0  0  0  0  0  0
   -7.7683    3.4598  -13.2798 H   0  0  0  0  0  0  0  0  0  0  0  0
   -4.5287    5.2983  -18.3458 C   0  0  0  0  0  0  0  0  0  0  0  0
   -5.3110    5.0690  -17.1649 N   0  0  0  0  0  0  0  0  0  0  0  0
   -6.6564    4.7866  -17.1286 C   0  0  0  0  0  0  0  0  0  0  0  0
   -7.5809    4.5250  -18.1387 C   0  0  0  0  0  0  0  0  0  0  0  0
   -8.9164    4.4008  -17.7704 C   0  0  0  0  0  0  0  0  0  0  0  0
  -10.0736    4.2945  -19.0376 Cl  0  0  0  0  0  0  0  0  0  0  0  0
   -9.3217    4.4963  -16.4397 C   0  0  0  0  0  0  0  0  0  0  0  0
   -8.3821    4.7681  -15.4331 C   0  0  0  0  0  0  0  0  0  0  0  0
   -7.0079    4.8969  -15.7616 C   0  0  0  0  0  0  0  0  0  0  0  0
   -5.8122    5.1842  -14.9680 C   0  0  0  0  0  0  0  0  0  0  0  0
   -4.7889    5.2735  -15.8302 N   0  0  0  0  0  0  0  0  0  0  0  0
   -3.5726    5.5245  -15.6459 O   0  0  0  0  0  0  0  0  0  0  0  0
   -8.3364    4.3603  -11.5666 C   0  0  0  0  0  0  0  0  0  0  0  0
   -7.9696    5.5471  -10.9396 C   0  0  0  0  0  0  0  0  0  0  0  0
   -7.9910    5.6429   -9.5489 C   0  0  0  0  0  0  0  0  0  0  0  0
   -8.4130    4.5696   -8.7612 C   0  0  0  0  0  0  0  0  0  0  0  0
   -8.8202    3.3751   -9.3719 C   0  0  0  0  0  0  0  0  0  0  0  0
   -8.7632    3.2844  -10.7872 C   0  0  0  0  0  0  0  0  0  0  0  0
   -9.3759    2.1942   -8.6147 C   0  0  0  0  0  0  0  0  0  0  0  0
   -8.6970    1.8731   -7.3773 N   0  0  0  0  0  0  0  0  0  0  0  0
   -9.0142    2.7424   -6.2574 C   0  0  0  0  0  0  0  0  0  0  0  0
   -9.3072    4.1987   -6.6010 C   0  0  0  0  0  0  0  0  0  0  0  0
   -8.3042    4.8000   -7.4140 O   0  0  0  0  0  0  0  0  0  0  0  0
   -7.6923    1.9273   -7.5448 H   0  0  0  0  0  0  0  0  0  0  0  0
  5  6  1  0  0  0
  6  7  1  0  0  0
  7  8  2  0  0  0
  8  9  1  0  0  0
  9 10  1  0  0  0
  9 11  2  0  0  0
 11 12  1  0  0  0
 12  1  1  0  0  0
  1  2  2  0  0  0
  1  3  1  0  0  0
  3 17  1  0  0  0
 17 18  2  0  0  0
 18 19  1  0  0  0
 19 20  2  0  0  0
 20 21  1  0  0  0
 21 22  2  0  0  0
 21 23  1  0  0  0
 23 24  1  0  0  0
 24 25  1  0  0  0
 25 26  1  0  0  0
 26 27  1  0  0  0
 12 13  2  0  0  0
 13 14  1  0  0  0
 14 15  2  0  0  0
 15 16  1  0  0  0
 15  6  1  0  0  0
 13  7  1  0  0  0
 22 17  1  0  0  0
 27 20  1  0  0  0
  3  4  1  0  0  0
 24 28  1  0  0  0
M  CHG 1  15   1
M  CHG 1  16  -1
M  END
> <minimizedAffinity>
-9.58441

> <minimizedRMSD>
0.89704

$$$$
P16947


 30 33  0  0  0  0  0  0  0  0999 V2000
   -7.5429    5.3855  -14.1652 C   0  0  0  0  0  0  0  0  0  0  0  0
   -6.9813    6.4006  -13.9988 O   0  0  0  0  0  0  0  0  0  0  0  0
   -8.1517    4.3873  -13.1337 N   0  0  0  0  0  0  0  0  0  0  0  0
   -8.5092    3.5575  -13.5245 H   0  0  0  0  0  0  0  0  0  0  0  0
   -4.6142    5.6578  -15.5501 N   0  0  0  0  0  0  0  0  0  0  0  0
   -5.4437    5.2730  -16.5372 C   0  0  0  0  0  0  0  0  0  0  0  0
   -4.9775    5.1158  -17.8131 N   0  0  0  0  0  0  0  0  0  0  0  0
   -5.8957    4.7357  -18.6969 N   0  0  0  0  0  0  0  0  0  0  0  0
   -7.0281    4.6478  -17.9875 C   0  0  0  0  0  0  0  0  0  0  0  0
   -8.3004    4.3185  -18.4510 C   0  0  0  0  0  0  0  0  0  0  0  0
   -9.2865    4.3739  -17.4639 C   0  0  0  0  0  0  0  0  0  0  0  0
  -10.8996    4.2103  -18.0262 Cl  0  0  0  0  0  0  0  0  0  0  0  0
   -9.0409    4.6468  -16.0833 C   0  0  0  0  0  0  0  0  0  0  0  0
   -7.7561    4.9498  -15.5720 C   0  0  0  0  0  0  0  0  0  0  0  0
   -6.7809    4.9625  -16.5927 C   0  0  0  0  0  0  0  0  0  0  0  0
   -3.6647    5.8311  -15.7444 H   0  0  0  0  0  0  0  0  0  0  0  0
   -4.9567    5.7661  -14.6334 H   0  0  0  0  0  0  0  0  0  0  0  0
   -4.0367    5.2715  -18.0579 H   0  0  0  0  0  0  0  0  0  0  0  0
   -8.2726    4.4796  -11.7410 C   0  0  0  0  0  0  0  0  0  0  0  0
   -7.9459    5.6536  -11.0732 C   0  0  0  0  0  0  0  0  0  0  0  0
   -8.0088    5.7124   -9.6784 C   0  0  0  0  0  0  0  0  0  0  0  0
   -8.4115    4.6069   -8.9237 C   0  0  0  0  0  0  0  0  0  0  0  0
   -8.7730    3.4175   -9.5697 C   0  0  0  0  0  0  0  0  0  0  0  0
   -8.7061    3.3788  -10.9902 C   0  0  0  0  0  0  0  0  0  0  0  0
   -9.2666    2.1819   -8.8509 C   0  0  0  0  0  0  0  0  0  0  0  0
   -8.6312    1.8885   -7.5795 N   0  0  0  0  0  0  0  0  0  0  0  0
   -9.0820    2.7231   -6.4746 C   0  0  0  0  0  0  0  0  0  0  0  0
   -9.3599    4.1872   -6.8110 C   0  0  0  0  0  0  0  0  0  0  0  0
   -8.3209    4.7996   -7.5688 O   0  0  0  0  0  0  0  0  0  0  0  0
   -7.6254    2.0189   -7.6880 H   0  0  0  0  0  0  0  0  0  0  0  0
  5  6  1  0  0  0
  6  7  1  0  0  0
  7  8  1  0  0  0
  8  9  2  0  0  0
  9 10  1  0  0  0
 10 11  2  0  0  0
 11 12  1  0  0  0
 11 13  1  0  0  0
 13 14  2  0  0  0
 14  1  1  0  0  0
  1  2  2  0  0  0
  1  3  1  0  0  0
  3 19  1  0  0  0
 19 20  2  0  0  0
 20 21  1  0  0  0
 21 22  2  0  0  0
 22 23  1  0  0  0
 23 24  2  0  0  0
 23 25  1  0  0  0
 25 26  1  0  0  0
 26 27  1  0  0  0
 27 28  1  0  0  0
 28 29  1  0  0  0
 14 15  1  0  0  0
 15  6  2  0  0  0
 15  9  1  0  0  0
 24 19  1  0  0  0
 29 22  1  0  0  0
  5 16  1  0  0  0
  5 17  1  0  0  0
  7 18  1  0  0  0
  3  4  1  0  0  0
 26 30  1  0  0  0
M  END
> <minimizedAffinity>
-8.90358

> <minimizedRMSD>
0.55674

$$$$
P16948


 38 42  0  0  0  0  0  0  0  0999 V2000
   -7.2372    4.9215  -14.2621 C   0  0  0  0  0  0  0  0  0  0  0  0
   -7.2833    6.3442  -14.1974 O   0  0  0  0  0  0  0  0  0  0  0  0
   -7.1141    6.6321  -13.2867 H   0  0  0  0  0  0  0  0  0  0  0  0
   -7.5209    4.6456  -15.7467 C   0  0  0  0  0  0  0  0  0  0  0  0
   -8.8581    4.4038  -16.1797 C   0  0  0  0  0  0  0  0  0  0  0  0
   -9.2066    4.2826  -17.5230 C   0  0  0  0  0  0  0  0  0  0  0  0
  -10.8484    4.1658  -17.9939 Cl  0  0  0  0  0  0  0  0  0  0  0  0
   -8.2537    4.3627  -18.5202 C   0  0  0  0  0  0  0  0  0  0  0  0
   -6.9616    4.6877  -18.1249 C   0  0  0  0  0  0  0  0  0  0  0  0
   -5.8651    4.9814  -18.8913 N   0  0  0  0  0  0  0  0  0  0  0  0
   -4.7825    5.3156  -18.1740 N   0  0  0  0  0  0  0  0  0  0  0  0
   -5.2078    5.2165  -16.9080 C   0  0  0  0  0  0  0  0  0  0  0  0
   -6.5716    4.8332  -16.7950 C   0  0  0  0  0  0  0  0  0  0  0  0
   -5.8711    4.9502  -19.8752 H   0  0  0  0  0  0  0  0  0  0  0  0
   -4.9256    5.1463  -13.5445 O   0  0  0  0  0  0  0  0  0  0  0  0
   -5.7975    4.3908  -13.7610 C   0  0  0  0  0  0  0  0  0  0  0  0
   -5.8722    2.8458  -13.5510 N   0  0  0  0  0  0  0  0  0  0  0  0
   -6.6963    2.4236  -13.8855 H   0  0  0  0  0  0  0  0  0  0  0  0
   -4.9242    1.9306  -12.9425 C   0  0  0  0  0  0  0  0  0  0  0  0
   -4.9058    2.1157  -11.4250 C   0  0  0  0  0  0  0  0  0  0  0  0
   -3.9104    1.1645  -10.7807 C   0  0  0  0  0  0  0  0  0  0  0  0
   -2.6040    1.3090  -11.3433 O   0  0  0  0  0  0  0  0  0  0  0  0
   -2.5899    1.0739  -12.7524 C   0  0  0  0  0  0  0  0  0  0  0  0
   -3.5046    2.0431  -13.4912 C   0  0  0  0  0  0  0  0  0  0  0  0
   -8.3006    4.3736  -13.3907 N   0  0  0  0  0  0  0  0  0  0  0  0
   -9.0296    3.8468  -13.7910 H   0  0  0  0  0  0  0  0  0  0  0  0
   -8.2891    4.5907  -12.0067 C   0  0  0  0  0  0  0  0  0  0  0  0
   -8.0099    5.8259  -11.4217 C   0  0  0  0  0  0  0  0  0  0  0  0
   -8.1071    6.0080  -10.0372 C   0  0  0  0  0  0  0  0  0  0  0  0
   -8.4789    4.9522   -9.2071 C   0  0  0  0  0  0  0  0  0  0  0  0
   -8.7677    3.7010   -9.7547 C   0  0  0  0  0  0  0  0  0  0  0  0
   -8.6635    3.5426  -11.1521 C   0  0  0  0  0  0  0  0  0  0  0  0
   -9.3236    2.5616   -8.9437 C   0  0  0  0  0  0  0  0  0  0  0  0
   -8.4771    2.1688   -7.8364 N   0  0  0  0  0  0  0  0  0  0  0  0
   -8.5998    3.0951   -6.7142 C   0  0  0  0  0  0  0  0  0  0  0  0
   -7.8957    4.4195   -7.0173 C   0  0  0  0  0  0  0  0  0  0  0  0
   -8.6641    5.2619   -7.8850 O   0  0  0  0  0  0  0  0  0  0  0  0
   -7.5066    2.1546   -8.1498 H   0  0  0  0  0  0  0  0  0  0  0  0
 15 16  2  0  0  0
 16 17  1  0  0  0
 17 19  1  0  0  0
 19 20  1  0  0  0
 20 21  1  0  0  0
 21 22  1  0  0  0
 22 23  1  0  0  0
 23 24  1  0  0  0
 16  1  1  0  0  0
  1  2  1  0  0  0
  1 25  1  0  0  0
 25 27  1  0  0  0
 27 28  2  0  0  0
 28 29  1  0  0  0
 29 30  2  0  0  0
 30 31  1  0  0  0
 31 32  2  0  0  0
 31 33  1  0  0  0
 33 34  1  0  0  0
 34 35  1  0  0  0
 35 36  1  0  0  0
 36 37  1  0  0  0
  1  4  1  0  0  0
  4  5  2  0  0  0
  5  6  1  0  0  0
  6  7  1  0  0  0
  6  8  2  0  0  0
  8  9  1  0  0  0
  9 10  1  0  0  0
 10 11  1  0  0  0
 11 12  2  0  0  0
 12 13  1  0  0  0
 24 19  1  0  0  0
 32 27  1  0  0  0
 13  4  1  0  0  0
 37 30  1  0  0  0
 13  9  2  0  0  0
 17 18  1  0  0  0
  2  3  1  0  0  0
 25 26  1  0  0  0
 34 38  1  0  0  0
 10 14  1  0  0  0
M  END
> <minimizedAffinity>
-9.70176

> <minimizedRMSD>
0.32366

$$$$
P16949


 27 30  0  0  0  0  0  0  0  0999 V2000
   -7.4575    5.5056  -14.7223 C   0  0  0  0  0  0  0  0  0  0  0  0
   -6.7088    6.3909  -14.6061 O   0  0  0  0  0  0  0  0  0  0  0  0
   -8.3423    4.8043  -13.6779 N   0  0  0  0  0  0  0  0  0  0  0  0
   -8.9523    4.1242  -14.0446 H   0  0  0  0  0  0  0  0  0  0  0  0
   -8.4206    4.9731  -12.3103 C   0  0  0  0  0  0  0  0  0  0  0  0
   -8.3401    6.2475  -11.7413 C   0  0  0  0  0  0  0  0  0  0  0  0
   -8.2602    6.3932  -10.3618 C   0  0  0  0  0  0  0  0  0  0  0  0
   -8.1891    5.2510   -9.5805 C   0  0  0  0  0  0  0  0  0  0  0  0
   -8.3369    3.9691  -10.1371 C   0  0  0  0  0  0  0  0  0  0  0  0
   -8.4870    3.8352  -11.5161 C   0  0  0  0  0  0  0  0  0  0  0  0
   -7.9508    2.7774   -9.3121 C   0  0  0  0  0  0  0  0  0  0  0  0
   -6.4842    2.6716   -9.3196 N   0  0  0  0  0  0  0  0  0  0  0  0
   -5.8159    3.9851   -9.1549 C   0  0  0  0  0  0  0  0  0  0  0  0
   -6.4348    4.9224   -8.0809 C   0  0  0  0  0  0  0  0  0  0  0  0
   -7.7875    5.3952   -8.2805 O   0  0  0  0  0  0  0  0  0  0  0  0
   -6.1907    2.2650  -10.2078 H   0  0  0  0  0  0  0  0  0  0  0  0
   -3.6280    5.1284  -18.7371 C   0  0  0  0  0  0  0  0  0  0  0  0
   -4.9920    4.9998  -18.2845 N   0  0  0  0  0  0  0  0  0  0  0  0
   -5.4486    5.1804  -17.0131 C   0  0  0  0  0  0  0  0  0  0  0  0
   -6.7919    4.9257  -17.0886 C   0  0  0  0  0  0  0  0  0  0  0  0
   -7.7242    4.9741  -16.0563 C   0  0  0  0  0  0  0  0  0  0  0  0
   -9.0260    4.6398  -16.4678 C   0  0  0  0  0  0  0  0  0  0  0  0
   -9.3400    4.3405  -17.8190 C   0  0  0  0  0  0  0  0  0  0  0  0
  -11.0053    4.1474  -18.2016 Cl  0  0  0  0  0  0  0  0  0  0  0  0
   -8.3922    4.2884  -18.8595 C   0  0  0  0  0  0  0  0  0  0  0  0
   -7.0815    4.5964  -18.4592 C   0  0  0  0  0  0  0  0  0  0  0  0
   -5.9452    4.6658  -19.1742 N   0  0  0  0  0  0  0  0  0  0  0  0
 17 18  1  0  0  0
 18 19  1  0  0  0
 19 20  2  0  0  0
 20 21  1  0  0  0
 21  1  1  0  0  0
  1  2  2  0  0  0
  1  3  1  0  0  0
  3  5  1  0  0  0
  5  6  2  0  0  0
  6  7  1  0  0  0
  7  8  2  0  0  0
  8  9  1  0  0  0
  9 10  2  0  0  0
  9 11  1  0  0  0
 11 12  1  0  0  0
 12 13  1  0  0  0
 13 14  1  0  0  0
 14 15  1  0  0  0
 21 22  2  0  0  0
 22 23  1  0  0  0
 23 24  1  0  0  0
 23 25  2  0  0  0
 25 26  1  0  0  0
 26 27  2  0  0  0
 27 18  1  0  0  0
 26 20  1  0  0  0
 10  5  1  0  0  0
 15  8  1  0  0  0
  3  4  1  0  0  0
 12 16  1  0  0  0
M  END
> <minimizedAffinity>
-7.52664

> <minimizedRMSD>
0.57635

$$$$
P16950


 35 38  0  0  0  0  0  0  0  0999 V2000
   -7.2684    4.9354  -14.0236 C   0  0  0  0  0  0  0  0  0  0  0  0
   -7.1934    6.3591  -13.9576 O   0  0  0  0  0  0  0  0  0  0  0  0
   -7.0521    6.6331  -13.0379 H   0  0  0  0  0  0  0  0  0  0  0  0
   -7.4900    4.6839  -15.5250 C   0  0  0  0  0  0  0  0  0  0  0  0
   -8.8020    4.4356  -16.0236 C   0  0  0  0  0  0  0  0  0  0  0  0
   -9.0782    4.3223  -17.3874 C   0  0  0  0  0  0  0  0  0  0  0  0
  -10.6925    4.1492  -17.9475 Cl  0  0  0  0  0  0  0  0  0  0  0  0
   -8.0754    4.4340  -18.3364 C   0  0  0  0  0  0  0  0  0  0  0  0
   -6.7999    4.7349  -17.8709 C   0  0  0  0  0  0  0  0  0  0  0  0
   -5.6493    4.9867  -18.5713 N   0  0  0  0  0  0  0  0  0  0  0  0
   -4.5946    5.2823  -17.7918 N   0  0  0  0  0  0  0  0  0  0  0  0
   -5.1000    5.2104  -16.5555 C   0  0  0  0  0  0  0  0  0  0  0  0
   -6.4808    4.8650  -16.5211 C   0  0  0  0  0  0  0  0  0  0  0  0
   -5.5997    4.9541  -19.5540 H   0  0  0  0  0  0  0  0  0  0  0  0
   -6.0521    2.7391  -13.3891 N   0  0  0  0  0  0  0  0  0  0  0  0
   -5.8945    4.2856  -13.4925 C   0  0  0  0  0  0  0  0  0  0  0  0
   -4.9716    4.9727  -13.2617 O   0  0  0  0  0  0  0  0  0  0  0  0
   -6.9125    2.3896  -13.7159 H   0  0  0  0  0  0  0  0  0  0  0  0
   -5.1424    1.7364  -12.8925 C   0  0  0  0  0  0  0  0  0  0  0  0
   -5.6469    1.7041  -10.4181 C   0  0  0  0  0  0  0  0  0  0  0  0
   -4.6296    2.0513  -11.4918 C   0  0  0  0  0  0  0  0  0  0  0  0
   -8.4094    4.4837  -13.2002 N   0  0  0  0  0  0  0  0  0  0  0  0
   -9.2054    4.1015  -13.6355 H   0  0  0  0  0  0  0  0  0  0  0  0
   -8.3659    4.5961  -11.8005 C   0  0  0  0  0  0  0  0  0  0  0  0
   -7.9667    5.7451  -11.1210 C   0  0  0  0  0  0  0  0  0  0  0  0
   -7.9347    5.7892   -9.7211 C   0  0  0  0  0  0  0  0  0  0  0  0
   -8.3509    4.7033   -8.9494 C   0  0  0  0  0  0  0  0  0  0  0  0
   -8.8188    3.5554   -9.5953 C   0  0  0  0  0  0  0  0  0  0  0  0
   -8.8269    3.5308  -11.0138 C   0  0  0  0  0  0  0  0  0  0  0  0
   -9.3329    2.3344   -8.8783 C   0  0  0  0  0  0  0  0  0  0  0  0
   -8.5092    1.9700   -7.7541 N   0  0  0  0  0  0  0  0  0  0  0  0
   -8.8075    2.7106   -6.5408 C   0  0  0  0  0  0  0  0  0  0  0  0
   -9.0980    4.2019   -6.7443 C   0  0  0  0  0  0  0  0  0  0  0  0
   -8.1854    4.8857   -7.6002 O   0  0  0  0  0  0  0  0  0  0  0  0
   -7.5344    2.1393   -8.0021 H   0  0  0  0  0  0  0  0  0  0  0  0
 20 21  1  0  0  0
 21 19  1  0  0  0
 19 15  1  0  0  0
 15 16  1  0  0  0
 16 17  2  0  0  0
 16  1  1  0  0  0
  1  2  1  0  0  0
  1 22  1  0  0  0
 22 24  1  0  0  0
 24 25  2  0  0  0
 25 26  1  0  0  0
 26 27  2  0  0  0
 27 28  1  0  0  0
 28 29  2  0  0  0
 28 30  1  0  0  0
 30 31  1  0  0  0
 31 32  1  0  0  0
 32 33  1  0  0  0
 33 34  1  0  0  0
  1  4  1  0  0  0
  4  5  2  0  0  0
  5  6  1  0  0  0
  6  7  1  0  0  0
  6  8  2  0  0  0
  8  9  1  0  0  0
  9 10  1  0  0  0
 10 11  1  0  0  0
 11 12  2  0  0  0
 12 13  1  0  0  0
 29 24  1  0  0  0
 13  4  1  0  0  0
 34 27  1  0  0  0
 13  9  2  0  0  0
 15 18  1  0  0  0
  2  3  1  0  0  0
 22 23  1  0  0  0
 31 35  1  0  0  0
 10 14  1  0  0  0
M  END
> <minimizedAffinity>
-8.55725

> <minimizedRMSD>
0.26521

$$$$
P16953


 30 33  0  0  0  0  0  0  0  0999 V2000
   -8.1332    7.1406  -11.4365 N   0  0  0  0  0  0  0  0  0  0  0  0
   -8.1652    5.8358  -10.9070 C   0  0  0  0  0  0  0  0  0  0  0  0
   -8.1396    5.7200   -9.5086 C   0  0  0  0  0  0  0  0  0  0  0  0
   -8.3322    4.4960   -8.8645 C   0  0  0  0  0  0  0  0  0  0  0  0
   -8.6545    3.3586   -9.6002 C   0  0  0  0  0  0  0  0  0  0  0  0
   -8.7060    3.4748  -11.0109 C   0  0  0  0  0  0  0  0  0  0  0  0
   -8.4406    4.6868  -11.6734 C   0  0  0  0  0  0  0  0  0  0  0  0
   -8.7932    1.9911   -8.9837 C   0  0  0  0  0  0  0  0  0  0  0  0
   -9.7146    1.8640   -7.8531 N   0  0  0  0  0  0  0  0  0  0  0  0
   -9.2007    2.4951   -6.6378 C   0  0  0  0  0  0  0  0  0  0  0  0
   -9.1352    4.0167   -6.7245 C   0  0  0  0  0  0  0  0  0  0  0  0
   -8.0525    4.4884   -7.5241 O   0  0  0  0  0  0  0  0  0  0  0  0
   -7.9344    7.9054  -10.8492 H   0  0  0  0  0  0  0  0  0  0  0  0
   -8.3095    7.2878  -12.3938 H   0  0  0  0  0  0  0  0  0  0  0  0
   -9.8691    0.8731   -7.6669 H   0  0  0  0  0  0  0  0  0  0  0  0
   -8.3805    4.6432  -13.0820 N   0  0  0  0  0  0  0  0  0  0  0  0
   -7.3403    5.2378  -14.0633 C   0  0  0  0  0  0  0  0  0  0  0  0
   -6.4132    5.9219  -13.8622 O   0  0  0  0  0  0  0  0  0  0  0  0
   -9.1202    4.1555  -13.5111 H   0  0  0  0  0  0  0  0  0  0  0  0
   -7.5701    4.8253  -15.4620 C   0  0  0  0  0  0  0  0  0  0  0  0
   -8.8393    4.5332  -15.9979 C   0  0  0  0  0  0  0  0  0  0  0  0
   -9.0661    4.3706  -17.4012 C   0  0  0  0  0  0  0  0  0  0  0  0
  -10.6963    4.2432  -17.9506 Cl  0  0  0  0  0  0  0  0  0  0  0  0
   -8.0584    4.4201  -18.3836 C   0  0  0  0  0  0  0  0  0  0  0  0
   -6.7873    4.7073  -17.8710 C   0  0  0  0  0  0  0  0  0  0  0  0
   -5.6191    4.8796  -18.5127 N   0  0  0  0  0  0  0  0  0  0  0  0
   -4.7371    5.1856  -17.5509 N   0  0  0  0  0  0  0  0  0  0  0  0
   -5.2612    5.2097  -16.2945 C   0  0  0  0  0  0  0  0  0  0  0  0
   -6.5862    4.9017  -16.4553 C   0  0  0  0  0  0  0  0  0  0  0  0
   -3.7896    5.3770  -17.7374 H   0  0  0  0  0  0  0  0  0  0  0  0
  1  2  1  0  0  0
  2  3  2  0  0  0
  3  4  1  0  0  0
  4  5  2  0  0  0
  5  6  1  0  0  0
  6  7  2  0  0  0
  7 16  1  0  0  0
 16 17  1  0  0  0
 17 18  2  0  0  0
 17 20  1  0  0  0
 20 21  2  0  0  0
 21 22  1  0  0  0
 22 23  1  0  0  0
 22 24  2  0  0  0
 24 25  1  0  0  0
 25 26  2  0  0  0
 26 27  1  0  0  0
 27 28  1  0  0  0
 28 29  2  0  0  0
  5  8  1  0  0  0
  8  9  1  0  0  0
  9 10  1  0  0  0
 10 11  1  0  0  0
 11 12  1  0  0  0
  7  2  1  0  0  0
 29 20  1  0  0  0
 12  4  1  0  0  0
 29 25  1  0  0  0
  1 13  1  0  0  0
  1 14  1  0  0  0
 16 19  1  0  0  0
 27 30  1  0  0  0
  9 15  1  0  0  0
M  END
> <minimizedAffinity>
-8.58602

> <minimizedRMSD>
0.35515

$$$$
P16959


 31 35  0  0  0  0  0  0  0  0999 V2000
   -7.8422    4.7868  -12.7464 N   0  0  0  0  0  0  0  0  0  0  0  0
   -7.6828    6.0218  -13.6611 C   0  0  0  0  0  0  0  0  0  0  0  0
   -7.4702    7.1389  -13.3943 O   0  0  0  0  0  0  0  0  0  0  0  0
   -8.0963    3.9582  -13.2134 H   0  0  0  0  0  0  0  0  0  0  0  0
   -7.9744    7.1016   -4.7150 C   0  0  0  0  0  0  0  0  0  0  0  0
   -8.0148    6.4555   -6.1063 C   0  0  0  0  0  0  0  0  0  0  0  0
   -9.1347    5.3952   -6.1556 C   0  0  0  0  0  0  0  0  0  0  0  0
   -8.9624    4.3794   -7.2494 C   0  0  0  0  0  0  0  0  0  0  0  0
   -8.3965    4.5686   -8.4597 C   0  0  0  0  0  0  0  0  0  0  0  0
   -7.9002    5.8695   -9.0447 C   0  0  0  0  0  0  0  0  0  0  0  0
   -8.5509    7.1363   -8.4340 C   0  0  0  0  0  0  0  0  0  0  0  0
   -8.1306    7.5381   -7.0883 N   0  0  0  0  0  0  0  0  0  0  0  0
   -8.1330    5.9164  -10.5687 C   0  0  0  0  0  0  0  0  0  0  0  0
   -7.6777    4.6489  -11.3049 C   0  0  0  0  0  0  0  0  0  0  0  0
   -8.4381    3.4413  -10.7598 C   0  0  0  0  0  0  0  0  0  0  0  0
   -8.1876    3.3063   -9.2615 C   0  0  0  0  0  0  0  0  0  0  0  0
   -9.3083    2.1039   -8.5058 S   0  0  0  0  0  0  0  0  0  0  0  0
   -9.3809    2.9688   -6.9355 C   0  0  0  0  0  0  0  0  0  0  0  0
   -8.8122    8.2096   -6.7349 H   0  0  0  0  0  0  0  0  0  0  0  0
   -7.8322    5.6289  -15.1309 C   0  0  0  0  0  0  0  0  0  0  0  0
   -9.1254    4.9324  -15.5698 C   0  0  0  0  0  0  0  0  0  0  0  0
   -9.0185    4.1794  -16.9144 C   0  0  0  0  0  0  0  0  0  0  0  0
  -10.5915    4.1679  -17.7687 Cl  0  0  0  0  0  0  0  0  0  0  0  0
   -7.9327    4.6156  -17.9017 C   0  0  0  0  0  0  0  0  0  0  0  0
   -6.7096    5.2364  -17.2540 C   0  0  0  0  0  0  0  0  0  0  0  0
   -5.3947    4.8066  -17.7044 N   0  0  0  0  0  0  0  0  0  0  0  0
   -4.4558    5.3053  -16.6923 N   0  0  0  0  0  0  0  0  0  0  0  0
   -5.2503    5.5864  -15.4743 C   0  0  0  0  0  0  0  0  0  0  0  0
   -6.6141    4.9911  -15.7611 C   0  0  0  0  0  0  0  0  0  0  0  0
   -5.1814    5.2073  -18.6178 H   0  0  0  0  0  0  0  0  0  0  0  0
   -4.0045    6.1586  -17.0220 H   0  0  0  0  0  0  0  0  0  0  0  0
  6  5  1  0  0  0
  6  7  1  0  0  0
  7  8  1  0  0  0
  8  9  2  0  0  0
  9 10  1  0  0  0
 10 11  1  0  0  0
 11 12  1  0  0  0
 10 13  1  0  0  0
 13 14  1  0  0  0
 14  1  1  0  0  0
  1  2  1  0  0  0
  2  3  2  0  0  0
 20  2  1  0  0  0
 20 21  1  0  0  0
 21 22  1  0  0  0
 22 23  1  0  0  0
 22 24  1  0  0  0
 25 24  1  0  0  0
 25 26  1  0  0  0
 26 27  1  0  0  0
 27 28  1  0  0  0
 29 28  1  0  0  0
 14 15  1  0  0  0
 16 15  1  0  0  0
 16 17  1  0  0  0
 17 18  1  0  0  0
 12  6  1  0  0  0
 29 20  1  0  0  0
 18  8  1  0  0  0
 16  9  1  0  0  0
 29 25  1  0  0  0
 12 19  1  0  0  0
  1  4  1  0  0  0
 26 30  1  0  0  0
 27 31  1  0  0  0
M  END
> <minimizedAffinity>
-7.59038

> <minimizedRMSD>
0.46400

$$$$
P16960


 31 35  0  0  0  0  0  0  0  0999 V2000
   -7.7877    4.7911  -13.1024 N   0  0  0  0  0  0  0  0  0  0  0  0
   -7.3481    5.8969  -14.0945 C   0  0  0  0  0  0  0  0  0  0  0  0
   -6.7733    6.8978  -13.9071 O   0  0  0  0  0  0  0  0  0  0  0  0
   -8.3324    4.0737  -13.4996 H   0  0  0  0  0  0  0  0  0  0  0  0
   -7.3386    7.1220   -5.0968 C   0  0  0  0  0  0  0  0  0  0  0  0
   -7.4882    6.4713   -6.4782 C   0  0  0  0  0  0  0  0  0  0  0  0
   -8.6694    5.4776   -6.4632 C   0  0  0  0  0  0  0  0  0  0  0  0
   -8.6066    4.4452   -7.5540 C   0  0  0  0  0  0  0  0  0  0  0  0
   -8.0874    4.5969   -8.7907 C   0  0  0  0  0  0  0  0  0  0  0  0
   -7.5708    5.8709   -9.4193 C   0  0  0  0  0  0  0  0  0  0  0  0
   -8.1153    7.1712   -8.7771 C   0  0  0  0  0  0  0  0  0  0  0  0
   -7.5873    7.5511   -7.4647 N   0  0  0  0  0  0  0  0  0  0  0  0
   -7.9163    5.9167  -10.9223 C   0  0  0  0  0  0  0  0  0  0  0  0
   -7.5257    4.6402  -11.6750 C   0  0  0  0  0  0  0  0  0  0  0  0
   -8.2353    3.4291  -11.0752 C   0  0  0  0  0  0  0  0  0  0  0  0
   -7.9553    3.3147   -9.5794 C   0  0  0  0  0  0  0  0  0  0  0  0
   -9.1021    2.1694   -8.7633 S   0  0  0  0  0  0  0  0  0  0  0  0
   -9.0912    3.0621   -7.2074 C   0  0  0  0  0  0  0  0  0  0  0  0
   -8.1972    8.2720   -7.0790 H   0  0  0  0  0  0  0  0  0  0  0  0
   -7.7991    5.5812  -15.5572 C   0  0  0  0  0  0  0  0  0  0  0  0
   -8.5247    4.2884  -15.8915 C   0  0  0  0  0  0  0  0  0  0  0  0
   -8.7692    4.0232  -17.3863 C   0  0  0  0  0  0  0  0  0  0  0  0
  -10.1852    4.8271  -18.0782 Cl  0  0  0  0  0  0  0  0  0  0  0  0
   -7.5423    4.2588  -18.2427 C   0  0  0  0  0  0  0  0  0  0  0  0
   -6.7628    5.5252  -17.9550 C   0  0  0  0  0  0  0  0  0  0  0  0
   -5.3878    5.2993  -18.4503 N   0  0  0  0  0  0  0  0  0  0  0  0
   -4.4870    5.3710  -17.3223 N   0  0  0  0  0  0  0  0  0  0  0  0
   -5.2998    5.1128  -16.1302 C   0  0  0  0  0  0  0  0  0  0  0  0
   -6.5844    5.8394  -16.4776 C   0  0  0  0  0  0  0  0  0  0  0  0
   -5.1443    6.0165  -19.1334 H   0  0  0  0  0  0  0  0  0  0  0  0
   -4.0631    6.2971  -17.2671 H   0  0  0  0  0  0  0  0  0  0  0  0
  6  5  1  0  0  0
  6  7  1  0  0  0
  7  8  1  0  0  0
  8  9  2  0  0  0
  9 10  1  0  0  0
 10 11  1  0  0  0
 11 12  1  0  0  0
 10 13  1  0  0  0
 13 14  1  0  0  0
 14  1  1  0  0  0
  1  2  1  0  0  0
  2  3  2  0  0  0
 20  2  1  0  0  0
 20 21  1  0  0  0
 21 22  1  0  0  0
 22 23  1  0  0  0
 22 24  1  0  0  0
 25 24  1  0  0  0
 25 26  1  0  0  0
 26 27  1  0  0  0
 27 28  1  0  0  0
 29 28  1  0  0  0
 14 15  1  0  0  0
 16 15  1  0  0  0
 16 17  1  0  0  0
 17 18  1  0  0  0
 12  6  1  0  0  0
 29 20  1  0  0  0
 18  8  1  0  0  0
 16  9  1  0  0  0
 29 25  1  0  0  0
 12 19  1  0  0  0
  1  4  1  0  0  0
 26 30  1  0  0  0
 27 31  1  0  0  0
M  END
> <minimizedAffinity>
-6.59798

> <minimizedRMSD>
0.20765

$$$$
P16967


 29 32  0  0  0  0  0  0  0  0999 V2000
   -8.3139    4.6633  -13.1468 N   0  0  0  0  0  0  0  0  0  0  0  0
   -7.1576    4.9838  -14.1341 C   0  0  0  0  0  0  0  0  0  0  0  0
   -6.1062    5.4592  -13.9415 O   0  0  0  0  0  0  0  0  0  0  0  0
   -9.1377    4.3305  -13.5708 H   0  0  0  0  0  0  0  0  0  0  0  0
   -8.0881    5.9344  -11.0035 C   0  0  0  0  0  0  0  0  0  0  0  0
   -8.0272    5.8617   -9.6011 C   0  0  0  0  0  0  0  0  0  0  0  0
   -8.3335    4.6917   -8.9048 C   0  0  0  0  0  0  0  0  0  0  0  0
   -8.7493    3.5604   -9.6078 C   0  0  0  0  0  0  0  0  0  0  0  0
   -8.7463    3.6153  -11.0277 C   0  0  0  0  0  0  0  0  0  0  0  0
   -8.3751    4.7720  -11.7398 C   0  0  0  0  0  0  0  0  0  0  0  0
   -9.2850    2.3148   -8.9437 C   0  0  0  0  0  0  0  0  0  0  0  0
   -8.5906    1.8902   -7.7473 N   0  0  0  0  0  0  0  0  0  0  0  0
   -8.8903    2.6587   -6.5491 C   0  0  0  0  0  0  0  0  0  0  0  0
   -9.1311    4.1520   -6.7466 C   0  0  0  0  0  0  0  0  0  0  0  0
   -8.1410    4.7863   -7.5511 O   0  0  0  0  0  0  0  0  0  0  0  0
   -7.5883    1.9591   -7.9234 H   0  0  0  0  0  0  0  0  0  0  0  0
   -6.2732    7.9489  -11.4255 C   0  0  0  0  0  0  0  0  0  0  0  0
   -8.0340    7.6009  -11.6730 S   0  0  0  0  0  0  0  0  0  0  0  0
   -7.4750    4.6696  -15.5489 C   0  0  0  0  0  0  0  0  0  0  0  0
   -8.7718    4.4218  -16.0523 C   0  0  0  0  0  0  0  0  0  0  0  0
   -9.0604    4.3427  -17.4545 C   0  0  0  0  0  0  0  0  0  0  0  0
  -10.7081    4.2120  -17.9556 Cl  0  0  0  0  0  0  0  0  0  0  0  0
   -8.0993    4.4663  -18.4744 C   0  0  0  0  0  0  0  0  0  0  0  0
   -6.8088    4.7268  -18.0011 C   0  0  0  0  0  0  0  0  0  0  0  0
   -5.6755    4.9535  -18.6873 N   0  0  0  0  0  0  0  0  0  0  0  0
   -4.7434    5.1728  -17.7514 N   0  0  0  0  0  0  0  0  0  0  0  0
   -5.2031    5.0959  -16.4736 C   0  0  0  0  0  0  0  0  0  0  0  0
   -6.5400    4.8157  -16.5858 C   0  0  0  0  0  0  0  0  0  0  0  0
   -3.8045    5.3729  -17.9697 H   0  0  0  0  0  0  0  0  0  0  0  0
 17 18  1  0  0  0
 18  5  1  0  0  0
  5  6  2  0  0  0
  6  7  1  0  0  0
  7  8  2  0  0  0
  8  9  1  0  0  0
  9 10  2  0  0  0
 10  1  1  0  0  0
  1  2  1  0  0  0
  2  3  2  0  0  0
  2 19  1  0  0  0
 19 20  2  0  0  0
 20 21  1  0  0  0
 21 22  1  0  0  0
 21 23  2  0  0  0
 23 24  1  0  0  0
 24 25  2  0  0  0
 25 26  1  0  0  0
 26 27  1  0  0  0
 27 28  2  0  0  0
  8 11  1  0  0  0
 11 12  1  0  0  0
 12 13  1  0  0  0
 13 14  1  0  0  0
 14 15  1  0  0  0
 10  5  1  0  0  0
 28 19  1  0  0  0
 15  7  1  0  0  0
 28 24  1  0  0  0
  1  4  1  0  0  0
 26 29  1  0  0  0
 12 16  1  0  0  0
M  END
> <minimizedAffinity>
-8.36217

> <minimizedRMSD>
0.31607

$$$$
P16970


 28 31  0  0  0  0  0  0  0  0999 V2000
   -6.7295    6.4177  -13.9368 O   0  0  0  0  0  0  0  0  0  0  0  0
   -7.3219    5.4245  -14.1137 C   0  0  0  0  0  0  0  0  0  0  0  0
   -8.0456    4.4915  -13.1057 N   0  0  0  0  0  0  0  0  0  0  0  0
   -8.5424    3.7473  -13.5162 H   0  0  0  0  0  0  0  0  0  0  0  0
   -8.1064    4.5364  -11.7098 C   0  0  0  0  0  0  0  0  0  0  0  0
   -7.6676    5.6593  -11.0171 C   0  0  0  0  0  0  0  0  0  0  0  0
   -7.6821    5.6749   -9.6199 C   0  0  0  0  0  0  0  0  0  0  0  0
   -8.1590    4.5848   -8.8853 C   0  0  0  0  0  0  0  0  0  0  0  0
   -8.6474    3.4633   -9.5674 C   0  0  0  0  0  0  0  0  0  0  0  0
   -8.6009    3.4491  -10.9869 C   0  0  0  0  0  0  0  0  0  0  0  0
   -9.2359    2.2728   -8.8611 C   0  0  0  0  0  0  0  0  0  0  0  0
   -8.3695    1.7609   -7.8206 N   0  0  0  0  0  0  0  0  0  0  0  0
   -8.5426    2.4837   -6.5616 C   0  0  0  0  0  0  0  0  0  0  0  0
   -8.8752    3.9798   -6.6767 C   0  0  0  0  0  0  0  0  0  0  0  0
   -8.0197    4.7347   -7.5303 O   0  0  0  0  0  0  0  0  0  0  0  0
   -7.3999    1.8539   -8.1235 H   0  0  0  0  0  0  0  0  0  0  0  0
   -7.4279    4.8767  -15.5043 C   0  0  0  0  0  0  0  0  0  0  0  0
   -8.6123    4.4915  -16.0102 C   0  0  0  0  0  0  0  0  0  0  0  0
   -8.7780    4.2220  -17.4323 C   0  0  0  0  0  0  0  0  0  0  0  0
  -10.3908    3.9992  -17.9858 Cl  0  0  0  0  0  0  0  0  0  0  0  0
   -7.7800    4.2962  -18.3266 C   0  0  0  0  0  0  0  0  0  0  0  0
   -6.4484    4.6943  -17.8434 C   0  0  0  0  0  0  0  0  0  0  0  0
   -6.3242    4.9942  -16.4093 C   0  0  0  0  0  0  0  0  0  0  0  0
   -5.0538    5.3797  -16.3000 C   0  0  0  0  0  0  0  0  0  0  0  0
   -4.3424    5.3119  -17.5850 N   0  0  0  0  0  0  0  0  0  0  0  0
   -3.3981    4.3631  -17.4854 O   0  0  0  0  0  0  0  0  0  0  0  0
   -5.3762    4.8583  -18.5503 N   0  0  0  0  0  0  0  0  0  0  0  0
   -3.7951    5.9522  -18.0946 H   0  0  0  0  0  0  0  0  0  0  0  0
  1  2  2  0  0  0
  2  3  1  0  0  0
  3  5  1  0  0  0
  5  6  2  0  0  0
  6  7  1  0  0  0
  7  8  2  0  0  0
  8  9  1  0  0  0
  9 10  2  0  0  0
  9 11  1  0  0  0
 11 12  1  0  0  0
 12 13  1  0  0  0
 13 14  1  0  0  0
 14 15  1  0  0  0
  2 17  1  0  0  0
 17 18  2  0  0  0
 18 19  1  0  0  0
 19 20  1  0  0  0
 19 21  2  0  0  0
 21 22  1  0  0  0
 22 23  1  0  0  0
 23 24  2  0  0  0
 24 25  1  0  0  0
 25 26  1  0  0  0
 25 27  1  0  0  0
 10  5  1  0  0  0
 23 17  1  0  0  0
 15  8  1  0  0  0
 27 22  2  0  0  0
  3  4  1  0  0  0
 12 16  1  0  0  0
 25 28  1  0  0  0
M  CHG 1  25   1
M  CHG 1  26  -1
M  END
> <minimizedAffinity>
-8.33361

> <minimizedRMSD>
0.19333

$$$$
P16971


 28 31  0  0  0  0  0  0  0  0999 V2000
   -8.7700    5.1361  -14.0530 C   0  0  0  0  0  0  0  0  0  0  0  0
   -9.4758    6.0661  -14.0118 O   0  0  0  0  0  0  0  0  0  0  0  0
   -8.2102    4.2538  -12.9167 N   0  0  0  0  0  0  0  0  0  0  0  0
   -7.6912    3.4735  -13.2185 H   0  0  0  0  0  0  0  0  0  0  0  0
   -8.3198    4.3822  -11.5323 C   0  0  0  0  0  0  0  0  0  0  0  0
   -7.9430    5.5632  -10.8999 C   0  0  0  0  0  0  0  0  0  0  0  0
   -8.0166    5.6712   -9.5100 C   0  0  0  0  0  0  0  0  0  0  0  0
   -8.4852    4.6122   -8.7272 C   0  0  0  0  0  0  0  0  0  0  0  0
   -8.8905    3.4236   -9.3540 C   0  0  0  0  0  0  0  0  0  0  0  0
   -8.7950    3.3234  -10.7641 C   0  0  0  0  0  0  0  0  0  0  0  0
   -9.4303    2.2330   -8.6079 C   0  0  0  0  0  0  0  0  0  0  0  0
   -8.6229    1.9146   -7.4609 N   0  0  0  0  0  0  0  0  0  0  0  0
   -8.9538    2.6855   -6.2742 C   0  0  0  0  0  0  0  0  0  0  0  0
   -9.3190    4.1516   -6.5313 C   0  0  0  0  0  0  0  0  0  0  0  0
   -8.4171    4.8601   -7.3794 O   0  0  0  0  0  0  0  0  0  0  0  0
   -7.6465    2.0917   -7.6967 H   0  0  0  0  0  0  0  0  0  0  0  0
   -5.2134    5.2090  -17.0113 N   0  0  0  0  0  0  0  0  0  0  0  0
   -4.7035    5.1801  -15.7462 N   0  0  0  0  0  0  0  0  0  0  0  0
   -5.7757    5.0474  -14.9695 C   0  0  0  0  0  0  0  0  0  0  0  0
   -6.9573    4.8378  -15.7099 C   0  0  0  0  0  0  0  0  0  0  0  0
   -8.3295    4.7167  -15.4059 C   0  0  0  0  0  0  0  0  0  0  0  0
   -9.2373    4.4637  -16.4397 C   0  0  0  0  0  0  0  0  0  0  0  0
   -8.7820    4.3885  -17.7568 C   0  0  0  0  0  0  0  0  0  0  0  0
   -9.9138    4.2542  -19.0429 Cl  0  0  0  0  0  0  0  0  0  0  0  0
   -7.4337    4.5589  -18.0862 C   0  0  0  0  0  0  0  0  0  0  0  0
   -6.5412    4.8133  -17.0395 C   0  0  0  0  0  0  0  0  0  0  0  0
   -3.9117    6.6136  -18.8456 N   0  0  0  0  0  0  0  0  0  0  0  0
   -4.5035    5.9300  -18.1119 C   0  0  0  0  0  0  0  0  0  0  0  0
 27 28  3  0  0  0
 28 17  1  0  0  0
 17 18  1  0  0  0
 18 19  2  0  0  0
 19 20  1  0  0  0
 20 21  2  0  0  0
 21  1  1  0  0  0
  1  2  2  0  0  0
  1  3  1  0  0  0
  3  5  1  0  0  0
  5  6  2  0  0  0
  6  7  1  0  0  0
  7  8  2  0  0  0
  8  9  1  0  0  0
  9 10  2  0  0  0
  9 11  1  0  0  0
 11 12  1  0  0  0
 12 13  1  0  0  0
 13 14  1  0  0  0
 14 15  1  0  0  0
 21 22  1  0  0  0
 22 23  2  0  0  0
 23 24  1  0  0  0
 23 25  1  0  0  0
 25 26  2  0  0  0
 26 17  1  0  0  0
 26 20  1  0  0  0
 10  5  1  0  0  0
 15  8  1  0  0  0
  3  4  1  0  0  0
 12 16  1  0  0  0
M  END
> <minimizedAffinity>
-9.00124

> <minimizedRMSD>
0.96656

$$$$
P16972


 43 47  0  0  0  0  0  0  0  0999 V2000
   -6.8319    4.5302  -13.8685 C   0  0  0  0  0  0  0  0  0  0  0  0
   -7.1963    4.5533  -15.3995 C   0  0  0  0  0  0  0  0  0  0  0  0
   -8.5467    4.4303  -15.8389 C   0  0  0  0  0  0  0  0  0  0  0  0
   -8.9013    4.5064  -17.1923 C   0  0  0  0  0  0  0  0  0  0  0  0
  -10.5403    4.5040  -17.6986 Cl  0  0  0  0  0  0  0  0  0  0  0  0
   -7.9562    4.6901  -18.1864 C   0  0  0  0  0  0  0  0  0  0  0  0
   -6.6443    4.8629  -17.7746 C   0  0  0  0  0  0  0  0  0  0  0  0
   -5.5295    5.1451  -18.5194 N   0  0  0  0  0  0  0  0  0  0  0  0
   -4.4071    5.2393  -17.7968 N   0  0  0  0  0  0  0  0  0  0  0  0
   -4.8331    5.0098  -16.5492 C   0  0  0  0  0  0  0  0  0  0  0  0
   -6.2378    4.7958  -16.4444 C   0  0  0  0  0  0  0  0  0  0  0  0
   -5.5521    5.2672  -19.4960 H   0  0  0  0  0  0  0  0  0  0  0  0
   -4.7208    5.7738  -13.3319 O   0  0  0  0  0  0  0  0  0  0  0  0
   -5.8454    5.8649  -13.6492 C   0  0  0  0  0  0  0  0  0  0  0  0
   -6.7147    7.1315  -13.9443 N   0  0  0  0  0  0  0  0  0  0  0  0
   -7.6236    6.9409  -14.2712 H   0  0  0  0  0  0  0  0  0  0  0  0
   -6.3977    8.5460  -13.8138 C   0  0  0  0  0  0  0  0  0  0  0  0
   -7.3215    9.3424  -12.8953 C   0  0  0  0  0  0  0  0  0  0  0  0
   -7.0585   10.6679  -13.0357 F   0  0  0  0  0  0  0  0  0  0  0  0
   -7.0641    9.0411  -11.5954 F   0  0  0  0  0  0  0  0  0  0  0  0
   -6.1630    3.2440  -13.6297 N   0  0  0  0  0  0  0  0  0  0  0  0
   -6.2486    2.6947  -14.4849 H   0  0  0  0  0  0  0  0  0  0  0  0
   -4.7559    3.2616  -13.2672 C   0  0  0  0  0  0  0  0  0  0  0  0
   -4.4527    2.3255  -12.1054 C   0  0  0  0  0  0  0  0  0  0  0  0
   -5.4916    1.8325  -11.3135 C   0  0  0  0  0  0  0  0  0  0  0  0
   -5.1854    0.9889  -10.2497 C   0  0  0  0  0  0  0  0  0  0  0  0
   -3.8583    0.6631  -10.0003 C   0  0  0  0  0  0  0  0  0  0  0  0
   -2.8876    1.1955  -10.8315 C   0  0  0  0  0  0  0  0  0  0  0  0
   -3.1539    2.0114  -11.8733 N   0  0  0  0  0  0  0  0  0  0  0  0
   -8.0837    4.6829  -13.0464 N   0  0  0  0  0  0  0  0  0  0  0  0
   -8.9447    4.7883  -13.5122 H   0  0  0  0  0  0  0  0  0  0  0  0
   -8.0732    4.6812  -11.6328 C   0  0  0  0  0  0  0  0  0  0  0  0
   -7.7494    5.7987  -10.8598 C   0  0  0  0  0  0  0  0  0  0  0  0
   -8.0563    5.8787   -9.5022 C   0  0  0  0  0  0  0  0  0  0  0  0
   -8.6003    4.7905   -8.8407 C   0  0  0  0  0  0  0  0  0  0  0  0
   -8.8130    3.5930   -9.5302 C   0  0  0  0  0  0  0  0  0  0  0  0
   -8.5912    3.5794  -10.9347 C   0  0  0  0  0  0  0  0  0  0  0  0
   -9.1790    2.2867   -8.8611 C   0  0  0  0  0  0  0  0  0  0  0  0
  -10.0533    2.3858   -7.6984 N   0  0  0  0  0  0  0  0  0  0  0  0
   -9.3615    2.8475   -6.4940 C   0  0  0  0  0  0  0  0  0  0  0  0
   -8.3796    4.0032   -6.6855 C   0  0  0  0  0  0  0  0  0  0  0  0
   -8.9066    5.0246   -7.5254 O   0  0  0  0  0  0  0  0  0  0  0  0
  -10.4497    1.4647   -7.5115 H   0  0  0  0  0  0  0  0  0  0  0  0
 13 14  2  0  0  0
 14 15  1  0  0  0
 15 17  1  0  0  0
 17 18  1  0  0  0
 18 19  1  0  0  0
 18 20  1  0  0  0
 14  1  1  0  0  0
  1 21  1  0  0  0
 21 23  1  0  0  0
 23 24  1  0  0  0
 24 25  2  0  0  0
 25 26  1  0  0  0
 26 27  2  0  0  0
 27 28  1  0  0  0
 28 29  2  0  0  0
  1 30  1  0  0  0
 30 32  1  0  0  0
 32 33  2  0  0  0
 33 34  1  0  0  0
 34 35  2  0  0  0
 35 36  1  0  0  0
 36 37  2  0  0  0
 36 38  1  0  0  0
 38 39  1  0  0  0
 39 40  1  0  0  0
 40 41  1  0  0  0
 41 42  1  0  0  0
  1  2  1  0  0  0
  2  3  2  0  0  0
  3  4  1  0  0  0
  4  5  1  0  0  0
  4  6  2  0  0  0
  6  7  1  0  0  0
  7  8  1  0  0  0
  8  9  1  0  0  0
  9 10  2  0  0  0
 10 11  1  0  0  0
 29 24  1  0  0  0
 37 32  1  0  0  0
 11  2  1  0  0  0
 42 35  1  0  0  0
 11  7  2  0  0  0
 15 16  1  0  0  0
 21 22  1  0  0  0
 30 31  1  0  0  0
 39 43  1  0  0  0
  8 12  1  0  0  0
M  END
> <minimizedAffinity>
-8.13911

> <minimizedRMSD>
1.94581

$$$$
P16976


 30 33  0  0  0  0  0  0  0  0999 V2000
   -8.8887    5.2667  -14.1722 C   0  0  0  0  0  0  0  0  0  0  0  0
   -9.5333    6.2327  -14.0601 O   0  0  0  0  0  0  0  0  0  0  0  0
   -8.3037    4.3268  -13.1016 N   0  0  0  0  0  0  0  0  0  0  0  0
   -7.8540    3.5265  -13.4573 H   0  0  0  0  0  0  0  0  0  0  0  0
   -8.3073    4.4243  -11.7162 C   0  0  0  0  0  0  0  0  0  0  0  0
   -7.8092    5.5536  -11.0785 C   0  0  0  0  0  0  0  0  0  0  0  0
   -7.8081    5.6259   -9.6853 C   0  0  0  0  0  0  0  0  0  0  0  0
   -8.3134    4.5794   -8.9086 C   0  0  0  0  0  0  0  0  0  0  0  0
   -8.8190    3.4352   -9.5442 C   0  0  0  0  0  0  0  0  0  0  0  0
   -8.8025    3.3728  -10.9555 C   0  0  0  0  0  0  0  0  0  0  0  0
   -9.4116    2.2631   -8.8118 C   0  0  0  0  0  0  0  0  0  0  0  0
   -8.6027    1.8635   -7.6951 N   0  0  0  0  0  0  0  0  0  0  0  0
   -8.8226    2.6338   -6.4840 C   0  0  0  0  0  0  0  0  0  0  0  0
   -9.1084    4.1234   -6.7020 C   0  0  0  0  0  0  0  0  0  0  0  0
   -8.1837    4.7901   -7.5592 O   0  0  0  0  0  0  0  0  0  0  0  0
   -7.6227    1.9610   -7.9608 H   0  0  0  0  0  0  0  0  0  0  0  0
   -5.5337    5.0283  -17.3552 N   0  0  0  0  0  0  0  0  0  0  0  0
   -4.9343    5.1800  -16.1457 N   0  0  0  0  0  0  0  0  0  0  0  0
   -5.9630    5.1843  -15.2950 C   0  0  0  0  0  0  0  0  0  0  0  0
   -7.1983    4.9347  -15.9316 C   0  0  0  0  0  0  0  0  0  0  0  0
   -8.5420    4.8382  -15.5378 C   0  0  0  0  0  0  0  0  0  0  0  0
   -9.5267    4.5232  -16.4820 C   0  0  0  0  0  0  0  0  0  0  0  0
   -9.1782    4.3897  -17.8241 C   0  0  0  0  0  0  0  0  0  0  0  0
  -10.4011    4.2024  -19.0201 Cl  0  0  0  0  0  0  0  0  0  0  0  0
   -7.8572    4.5263  -18.2509 C   0  0  0  0  0  0  0  0  0  0  0  0
   -6.8864    4.7966  -17.2771 C   0  0  0  0  0  0  0  0  0  0  0  0
   -4.7377    4.9947  -18.5751 C   0  0  0  0  0  0  0  0  0  0  0  0
   -4.2564    6.9771  -19.8807 C   0  0  0  0  0  0  0  0  0  0  0  0
   -5.2457    5.9673  -19.5468 N   0  0  0  0  0  0  0  0  0  0  0  0
   -5.5109    5.4729  -20.3986 H   0  0  0  0  0  0  0  0  0  0  0  0
 28 29  1  0  0  0
 29 27  1  0  0  0
 27 17  1  0  0  0
 17 18  1  0  0  0
 18 19  2  0  0  0
 19 20  1  0  0  0
 20 21  2  0  0  0
 21  1  1  0  0  0
  1  2  2  0  0  0
  1  3  1  0  0  0
  3  5  1  0  0  0
  5  6  2  0  0  0
  6  7  1  0  0  0
  7  8  2  0  0  0
  8  9  1  0  0  0
  9 10  2  0  0  0
  9 11  1  0  0  0
 11 12  1  0  0  0
 12 13  1  0  0  0
 13 14  1  0  0  0
 14 15  1  0  0  0
 21 22  1  0  0  0
 22 23  2  0  0  0
 23 24  1  0  0  0
 23 25  1  0  0  0
 25 26  2  0  0  0
 26 17  1  0  0  0
 26 20  1  0  0  0
 10  5  1  0  0  0
 15  8  1  0  0  0
 29 30  1  0  0  0
  3  4  1  0  0  0
 12 16  1  0  0  0
M  END
> <minimizedAffinity>
-8.93327

> <minimizedRMSD>
0.71053

$$$$
P16985


 31 34  0  0  0  0  0  0  0  0999 V2000
   -7.9395    5.5266  -13.9487 C   0  0  0  0  0  0  0  0  0  0  0  0
   -7.6912    6.6606  -13.8261 O   0  0  0  0  0  0  0  0  0  0  0  0
   -8.1993    4.4394  -12.8862 N   0  0  0  0  0  0  0  0  0  0  0  0
   -8.3136    3.5303  -13.2462 H   0  0  0  0  0  0  0  0  0  0  0  0
   -8.2984    4.5342  -11.5019 C   0  0  0  0  0  0  0  0  0  0  0  0
   -8.0422    5.7449  -10.8623 C   0  0  0  0  0  0  0  0  0  0  0  0
   -8.2060    5.8443   -9.4884 C   0  0  0  0  0  0  0  0  0  0  0  0
   -7.9815    7.0261   -8.8929 F   0  0  0  0  0  0  0  0  0  0  0  0
   -8.6122    4.7460   -8.7349 C   0  0  0  0  0  0  0  0  0  0  0  0
   -8.8649    3.5186   -9.3585 C   0  0  0  0  0  0  0  0  0  0  0  0
   -8.6894    3.4225  -10.7543 C   0  0  0  0  0  0  0  0  0  0  0  0
   -9.4804    2.3665   -8.6129 C   0  0  0  0  0  0  0  0  0  0  0  0
   -8.7375    1.8759   -7.4735 N   0  0  0  0  0  0  0  0  0  0  0  0
   -8.7610    2.7684   -6.3265 C   0  0  0  0  0  0  0  0  0  0  0  0
   -8.0812    4.1112   -6.5725 C   0  0  0  0  0  0  0  0  0  0  0  0
   -8.8690    4.9600   -7.4078 O   0  0  0  0  0  0  0  0  0  0  0  0
   -7.7667    1.7421   -7.7565 H   0  0  0  0  0  0  0  0  0  0  0  0
   -5.5112    4.9311  -17.8496 N   0  0  0  0  0  0  0  0  0  0  0  0
   -4.6292    5.1771  -16.8433 N   0  0  0  0  0  0  0  0  0  0  0  0
   -5.4092    5.2405  -15.7647 C   0  0  0  0  0  0  0  0  0  0  0  0
   -6.7689    4.9940  -16.0549 C   0  0  0  0  0  0  0  0  0  0  0  0
   -7.9719    4.9934  -15.3252 C   0  0  0  0  0  0  0  0  0  0  0  0
   -9.1775    4.6973  -15.9720 C   0  0  0  0  0  0  0  0  0  0  0  0
   -9.1756    4.4427  -17.3426 C   0  0  0  0  0  0  0  0  0  0  0  0
  -10.6675    4.2746  -18.1805 Cl  0  0  0  0  0  0  0  0  0  0  0  0
   -7.9947    4.4399  -18.0914 C   0  0  0  0  0  0  0  0  0  0  0  0
   -6.8028    4.7421  -17.4216 C   0  0  0  0  0  0  0  0  0  0  0  0
   -5.0314    4.9476  -19.2310 C   0  0  0  0  0  0  0  0  0  0  0  0
   -5.3408    7.2920  -19.7119 C   0  0  0  0  0  0  0  0  0  0  0  0
   -4.3575    6.2379  -19.5058 N   0  0  0  0  0  0  0  0  0  0  0  0
   -3.7643    6.4825  -18.7129 H   0  0  0  0  0  0  0  0  0  0  0  0
 29 30  1  0  0  0
 30 28  1  0  0  0
 28 18  1  0  0  0
 18 19  1  0  0  0
 19 20  2  0  0  0
 20 21  1  0  0  0
 21 22  2  0  0  0
 22  1  1  0  0  0
  1  2  2  0  0  0
  1  3  1  0  0  0
  3  5  1  0  0  0
  5  6  2  0  0  0
  6  7  1  0  0  0
  7  8  1  0  0  0
  7  9  2  0  0  0
  9 10  1  0  0  0
 10 11  2  0  0  0
 10 12  1  0  0  0
 12 13  1  0  0  0
 13 14  1  0  0  0
 14 15  1  0  0  0
 15 16  1  0  0  0
 22 23  1  0  0  0
 23 24  2  0  0  0
 24 25  1  0  0  0
 24 26  1  0  0  0
 26 27  2  0  0  0
 27 18  1  0  0  0
 27 21  1  0  0  0
 11  5  1  0  0  0
 16  9  1  0  0  0
 30 31  1  0  0  0
  3  4  1  0  0  0
 13 17  1  0  0  0
M  END
> <minimizedAffinity>
-8.11638

> <minimizedRMSD>
0.35638

$$$$
P16988


 30 33  0  0  0  0  0  0  0  0999 V2000
   -7.8235    5.2840  -14.1791 C   0  0  0  0  0  0  0  0  0  0  0  0
   -7.3914    6.3650  -14.0739 O   0  0  0  0  0  0  0  0  0  0  0  0
   -8.3439    4.3035  -13.1030 N   0  0  0  0  0  0  0  0  0  0  0  0
   -8.7316    3.4707  -13.4571 H   0  0  0  0  0  0  0  0  0  0  0  0
   -8.3533    4.4069  -11.7118 C   0  0  0  0  0  0  0  0  0  0  0  0
   -7.8782    5.5655  -11.1033 C   0  0  0  0  0  0  0  0  0  0  0  0
   -7.8415    5.6677   -9.7150 C   0  0  0  0  0  0  0  0  0  0  0  0
   -8.2949    4.6233   -8.9081 C   0  0  0  0  0  0  0  0  0  0  0  0
   -8.7922    3.4508   -9.4968 C   0  0  0  0  0  0  0  0  0  0  0  0
   -8.8149    3.3609  -10.9133 C   0  0  0  0  0  0  0  0  0  0  0  0
   -9.3523    2.2894   -8.7114 C   0  0  0  0  0  0  0  0  0  0  0  0
   -8.6216    1.9462   -7.5084 N   0  0  0  0  0  0  0  0  0  0  0  0
   -8.8559    2.8319   -6.3787 C   0  0  0  0  0  0  0  0  0  0  0  0
   -9.1123    4.2982   -6.7138 C   0  0  0  0  0  0  0  0  0  0  0  0
   -8.1228    4.8594   -7.5694 O   0  0  0  0  0  0  0  0  0  0  0  0
   -7.6253    1.9660   -7.7258 H   0  0  0  0  0  0  0  0  0  0  0  0
   -5.6419    5.0902  -18.2285 N   0  0  0  0  0  0  0  0  0  0  0  0
   -4.6815    5.0564  -17.2880 N   0  0  0  0  0  0  0  0  0  0  0  0
   -5.3739    5.0296  -16.1510 C   0  0  0  0  0  0  0  0  0  0  0  0
   -6.7587    4.8325  -16.3608 C   0  0  0  0  0  0  0  0  0  0  0  0
   -7.9176    4.7685  -15.5627 C   0  0  0  0  0  0  0  0  0  0  0  0
   -9.1500    4.4939  -16.1698 C   0  0  0  0  0  0  0  0  0  0  0  0
   -9.2282    4.3483  -17.5568 C   0  0  0  0  0  0  0  0  0  0  0  0
  -10.7532    4.1735  -18.3258 Cl  0  0  0  0  0  0  0  0  0  0  0  0
   -8.1027    4.4715  -18.3699 C   0  0  0  0  0  0  0  0  0  0  0  0
   -6.8816    4.7363  -17.7408 C   0  0  0  0  0  0  0  0  0  0  0  0
   -5.4617    5.6776  -19.4882 N   0  0  0  0  0  0  0  0  0  0  0  0
   -5.0663    4.9807  -20.1193 H   0  0  0  0  0  0  0  0  0  0  0  0
   -3.3301    6.6399  -20.3107 C   0  0  0  0  0  0  0  0  0  0  0  0
   -4.5733    6.8279  -19.4505 C   0  0  0  0  0  0  0  0  0  0  0  0
 29 30  1  0  0  0
 30 27  1  0  0  0
 27 17  1  0  0  0
 17 18  1  0  0  0
 18 19  2  0  0  0
 19 20  1  0  0  0
 20 21  2  0  0  0
 21  1  1  0  0  0
  1  2  2  0  0  0
  1  3  1  0  0  0
  3  5  1  0  0  0
  5  6  2  0  0  0
  6  7  1  0  0  0
  7  8  2  0  0  0
  8  9  1  0  0  0
  9 10  2  0  0  0
  9 11  1  0  0  0
 11 12  1  0  0  0
 12 13  1  0  0  0
 13 14  1  0  0  0
 14 15  1  0  0  0
 21 22  1  0  0  0
 22 23  2  0  0  0
 23 24  1  0  0  0
 23 25  1  0  0  0
 25 26  2  0  0  0
 26 17  1  0  0  0
 26 20  1  0  0  0
 10  5  1  0  0  0
 15  8  1  0  0  0
 27 28  1  0  0  0
  3  4  1  0  0  0
 12 16  1  0  0  0
M  END
> <minimizedAffinity>
-8.89774

> <minimizedRMSD>
0.22504

$$$$
P16991


 28 31  0  0  0  0  0  0  0  0999 V2000
   -5.3413    5.0817  -17.7166 N   0  0  0  0  0  0  0  0  0  0  0  0
   -5.8393    5.1878  -16.4449 C   0  0  0  0  0  0  0  0  0  0  0  0
   -7.1718    4.8790  -16.5525 C   0  0  0  0  0  0  0  0  0  0  0  0
   -8.1488    4.8730  -15.5466 C   0  0  0  0  0  0  0  0  0  0  0  0
   -9.4271    4.5782  -16.0659 C   0  0  0  0  0  0  0  0  0  0  0  0
   -9.6711    4.3203  -17.4459 C   0  0  0  0  0  0  0  0  0  0  0  0
  -10.9395    4.1334  -17.8403 F   0  0  0  0  0  0  0  0  0  0  0  0
   -8.6806    4.2850  -18.4332 C   0  0  0  0  0  0  0  0  0  0  0  0
   -7.4021    4.5869  -17.9515 C   0  0  0  0  0  0  0  0  0  0  0  0
   -6.2475    4.6781  -18.6254 N   0  0  0  0  0  0  0  0  0  0  0  0
   -3.7786    4.8904  -19.5263 N   0  0  0  0  0  0  0  0  0  0  0  0
   -3.9683    5.3665  -18.1434 C   0  0  0  0  0  0  0  0  0  0  0  0
   -2.8236    5.0874  -19.8258 H   0  0  0  0  0  0  0  0  0  0  0  0
   -4.4341    5.3693  -20.1438 H   0  0  0  0  0  0  0  0  0  0  0  0
   -7.9416    5.3213  -14.1523 C   0  0  0  0  0  0  0  0  0  0  0  0
   -7.5890    6.4251  -13.9891 O   0  0  0  0  0  0  0  0  0  0  0  0
   -8.2894    4.2122  -13.1202 N   0  0  0  0  0  0  0  0  0  0  0  0
   -8.4902    3.3320  -13.5128 H   0  0  0  0  0  0  0  0  0  0  0  0
   -8.3636    4.2616  -11.7217 C   0  0  0  0  0  0  0  0  0  0  0  0
   -8.0230    5.4280  -11.0164 C   0  0  0  0  0  0  0  0  0  0  0  0
   -8.1070    5.4760   -9.6175 C   0  0  0  0  0  0  0  0  0  0  0  0
   -8.5166    4.3399   -8.9414 C   0  0  0  0  0  0  0  0  0  0  0  0
   -8.8354    3.1741   -9.6299 C   0  0  0  0  0  0  0  0  0  0  0  0
   -8.7790    3.1226  -11.0174 C   0  0  0  0  0  0  0  0  0  0  0  0
   -9.1584    2.0982   -8.6403 C   0  0  0  0  0  0  0  0  0  0  0  0
   -9.3862    2.8109   -7.3541 N   0  0  0  0  0  0  0  0  0  0  0  0
   -8.6557    4.0918   -7.4743 C   0  0  0  0  0  0  0  0  0  0  0  0
   -9.0204    2.2642   -6.5745 H   0  0  0  0  0  0  0  0  0  0  0  0
 11 12  1  0  0  0
 12  1  1  0  0  0
  1  2  1  0  0  0
  2  3  2  0  0  0
  3  4  1  0  0  0
  4 15  1  0  0  0
 15 16  2  0  0  0
 15 17  1  0  0  0
 17 19  1  0  0  0
 19 20  2  0  0  0
 20 21  1  0  0  0
 21 22  2  0  0  0
 22 23  1  0  0  0
 23 24  2  0  0  0
 23 25  1  0  0  0
 25 26  1  0  0  0
 26 27  1  0  0  0
  4  5  2  0  0  0
  5  6  1  0  0  0
  6  7  1  0  0  0
  6  8  2  0  0  0
  8  9  1  0  0  0
  9 10  2  0  0  0
 10  1  1  0  0  0
  9  3  1  0  0  0
 24 19  1  0  0  0
 27 22  1  0  0  0
 11 13  1  0  0  0
 11 14  1  0  0  0
 17 18  1  0  0  0
 26 28  1  0  0  0
M  END
> <minimizedAffinity>
-8.52643

> <minimizedRMSD>
0.34998

$$$$
P16994


 30 33  0  0  0  0  0  0  0  0999 V2000
   -6.0875    5.4380  -15.5455 C   0  0  0  0  0  0  0  0  0  0  0  0
   -5.2018    5.4779  -16.5928 N   0  0  0  0  0  0  0  0  0  0  0  0
   -5.7048    5.0730  -17.7605 N   0  0  0  0  0  0  0  0  0  0  0  0
   -6.9843    4.7649  -17.5130 C   0  0  0  0  0  0  0  0  0  0  0  0
   -7.9729    4.2964  -18.3907 C   0  0  0  0  0  0  0  0  0  0  0  0
   -9.2166    4.0792  -17.7773 C   0  0  0  0  0  0  0  0  0  0  0  0
  -10.2272    3.6391  -18.5413 F   0  0  0  0  0  0  0  0  0  0  0  0
   -9.4896    4.3186  -16.4025 C   0  0  0  0  0  0  0  0  0  0  0  0
   -8.5220    4.8100  -15.5068 C   0  0  0  0  0  0  0  0  0  0  0  0
   -7.2689    5.0056  -16.1108 C   0  0  0  0  0  0  0  0  0  0  0  0
   -4.2706    5.7807  -16.4909 H   0  0  0  0  0  0  0  0  0  0  0  0
   -8.8533    5.2315  -14.1387 C   0  0  0  0  0  0  0  0  0  0  0  0
   -9.4151    6.2496  -14.0149 O   0  0  0  0  0  0  0  0  0  0  0  0
   -8.2899    4.2626  -13.0749 N   0  0  0  0  0  0  0  0  0  0  0  0
   -7.7859    3.4992  -13.4387 H   0  0  0  0  0  0  0  0  0  0  0  0
   -8.3792    4.2934  -11.6831 C   0  0  0  0  0  0  0  0  0  0  0  0
   -8.0442    5.4546  -10.9661 C   0  0  0  0  0  0  0  0  0  0  0  0
   -8.0859    5.4748   -9.5684 C   0  0  0  0  0  0  0  0  0  0  0  0
   -8.4539    4.3184   -8.9075 C   0  0  0  0  0  0  0  0  0  0  0  0
   -8.7908    3.1701   -9.6110 C   0  0  0  0  0  0  0  0  0  0  0  0
   -8.7689    3.1397  -10.9988 C   0  0  0  0  0  0  0  0  0  0  0  0
   -9.1284    2.0819   -8.6495 C   0  0  0  0  0  0  0  0  0  0  0  0
   -8.9079    2.6371   -7.2878 N   0  0  0  0  0  0  0  0  0  0  0  0
   -8.5791    4.0683   -7.4450 C   0  0  0  0  0  0  0  0  0  0  0  0
   -8.1361    2.1495   -6.8329 H   0  0  0  0  0  0  0  0  0  0  0  0
   -5.6369    5.8300  -14.1820 C   0  0  0  0  0  0  0  0  0  0  0  0
   -4.9429    8.1051  -14.5636 O   0  0  0  0  0  0  0  0  0  0  0  0
   -5.7224    7.3323  -14.0196 C   0  0  0  0  0  0  0  0  0  0  0  0
   -6.7558    7.7618  -13.2645 O   0  0  0  0  0  0  0  0  0  0  0  0
   -7.3324    7.1418  -12.8633 H   0  0  0  0  0  0  0  0  0  0  0  0
 27 28  2  0  0  0
 28 29  1  0  0  0
 28 26  1  0  0  0
 26  1  1  0  0  0
  1  2  1  0  0  0
  2  3  1  0  0  0
  3  4  2  0  0  0
  4  5  1  0  0  0
  5  6  2  0  0  0
  6  7  1  0  0  0
  6  8  1  0  0  0
  8  9  2  0  0  0
  9 12  1  0  0  0
 12 13  2  0  0  0
 12 14  1  0  0  0
 14 16  1  0  0  0
 16 17  2  0  0  0
 17 18  1  0  0  0
 18 19  2  0  0  0
 19 20  1  0  0  0
 20 21  2  0  0  0
 20 22  1  0  0  0
 22 23  1  0  0  0
 23 24  1  0  0  0
  9 10  1  0  0  0
 10  1  2  0  0  0
 10  4  1  0  0  0
 21 16  1  0  0  0
 24 19  1  0  0  0
 29 30  1  0  0  0
  2 11  1  0  0  0
 14 15  1  0  0  0
 23 25  1  0  0  0
M  END
> <minimizedAffinity>
-8.01345

> <minimizedRMSD>
0.79947

$$$$
P17004


 25 28  0  0  0  0  0  0  0  0999 V2000
   -7.5791    4.7162  -14.6199 C   0  0  0  0  0  0  0  0  0  0  0  0
   -6.4324    4.4839  -14.2553 O   0  0  0  0  0  0  0  0  0  0  0  0
   -8.0045    4.5322  -16.0347 C   0  0  0  0  0  0  0  0  0  0  0  0
   -9.3342    4.2208  -16.3729 C   0  0  0  0  0  0  0  0  0  0  0  0
   -9.7268    4.1018  -17.7008 C   0  0  0  0  0  0  0  0  0  0  0  0
  -11.0085    3.8472  -17.9933 F   0  0  0  0  0  0  0  0  0  0  0  0
   -8.8289    4.2507  -18.7445 C   0  0  0  0  0  0  0  0  0  0  0  0
   -7.5147    4.5731  -18.4080 C   0  0  0  0  0  0  0  0  0  0  0  0
   -6.4279    4.8279  -19.2041 N   0  0  0  0  0  0  0  0  0  0  0  0
   -5.3150    5.1401  -18.5137 N   0  0  0  0  0  0  0  0  0  0  0  0
   -5.7085    5.0537  -17.2355 C   0  0  0  0  0  0  0  0  0  0  0  0
   -7.0778    4.7150  -17.0915 C   0  0  0  0  0  0  0  0  0  0  0  0
   -6.4584    4.7866  -20.1873 H   0  0  0  0  0  0  0  0  0  0  0  0
   -9.3958    6.1043  -13.9850 O   0  0  0  0  0  0  0  0  0  0  0  0
   -8.5311    5.3186  -13.6089 C   0  0  0  0  0  0  0  0  0  0  0  0
   -8.3191    5.1219  -12.1647 C   0  0  0  0  0  0  0  0  0  0  0  0
   -8.0487    6.2733  -11.3968 C   0  0  0  0  0  0  0  0  0  0  0  0
   -8.0149    6.2048  -10.0034 C   0  0  0  0  0  0  0  0  0  0  0  0
   -8.2828    4.9853   -9.4093 C   0  0  0  0  0  0  0  0  0  0  0  0
   -8.5373    3.8423  -10.1702 C   0  0  0  0  0  0  0  0  0  0  0  0
   -8.5497    3.8833  -11.5574 C   0  0  0  0  0  0  0  0  0  0  0  0
   -8.7874    2.6971   -9.2394 C   0  0  0  0  0  0  0  0  0  0  0  0
   -9.0621    3.3267   -7.9225 N   0  0  0  0  0  0  0  0  0  0  0  0
   -8.3676    4.6320   -7.9606 C   0  0  0  0  0  0  0  0  0  0  0  0
   -8.6948    2.7486   -7.1667 H   0  0  0  0  0  0  0  0  0  0  0  0
 14 15  2  0  0  0
 15  1  1  0  0  0
  1  2  2  0  0  0
  1  3  1  0  0  0
  3  4  2  0  0  0
  4  5  1  0  0  0
  5  6  1  0  0  0
  5  7  2  0  0  0
  7  8  1  0  0  0
  8  9  1  0  0  0
  9 10  1  0  0  0
 10 11  2  0  0  0
 11 12  1  0  0  0
 15 16  1  0  0  0
 16 17  2  0  0  0
 17 18  1  0  0  0
 18 19  2  0  0  0
 19 20  1  0  0  0
 20 21  2  0  0  0
 20 22  1  0  0  0
 22 23  1  0  0  0
 23 24  1  0  0  0
 12  3  1  0  0  0
 21 16  1  0  0  0
 12  8  2  0  0  0
 24 19  1  0  0  0
  9 13  1  0  0  0
 23 25  1  0  0  0
M  END
> <minimizedAffinity>
-8.38529

> <minimizedRMSD>
0.45056

$$$$
P17010


 29 32  0  0  0  0  0  0  0  0999 V2000
   -7.3439    4.1025  -13.4654 C   0  0  0  0  0  0  0  0  0  0  0  0
   -7.2383    2.7119  -13.3354 O   0  0  0  0  0  0  0  0  0  0  0  0
   -6.1557    4.5995  -12.9140 O   0  0  0  0  0  0  0  0  0  0  0  0
   -7.9300    2.1588  -13.6415 H   0  0  0  0  0  0  0  0  0  0  0  0
   -6.0006    5.5233  -12.8906 H   0  0  0  0  0  0  0  0  0  0  0  0
   -7.4361    4.4714  -14.9421 C   0  0  0  0  0  0  0  0  0  0  0  0
   -8.6884    4.5170  -15.6047 C   0  0  0  0  0  0  0  0  0  0  0  0
   -8.8133    4.6781  -16.9817 C   0  0  0  0  0  0  0  0  0  0  0  0
  -10.0359    4.6813  -17.5327 F   0  0  0  0  0  0  0  0  0  0  0  0
   -7.7024    4.8159  -17.7978 C   0  0  0  0  0  0  0  0  0  0  0  0
   -6.4709    4.8733  -17.1474 C   0  0  0  0  0  0  0  0  0  0  0  0
   -5.2066    5.0333  -17.6460 N   0  0  0  0  0  0  0  0  0  0  0  0
   -4.2562    5.1354  -16.7003 N   0  0  0  0  0  0  0  0  0  0  0  0
   -4.9309    4.9412  -15.5644 C   0  0  0  0  0  0  0  0  0  0  0  0
   -6.3179    4.7439  -15.7680 C   0  0  0  0  0  0  0  0  0  0  0  0
   -5.0106    5.0703  -18.6101 H   0  0  0  0  0  0  0  0  0  0  0  0
   -8.5154    4.5531  -12.7564 N   0  0  0  0  0  0  0  0  0  0  0  0
   -9.3062    4.8810  -13.2426 H   0  0  0  0  0  0  0  0  0  0  0  0
   -7.8601    6.9771  -11.2295 C   0  0  0  0  0  0  0  0  0  0  0  0
   -8.1773    5.6595  -10.5762 C   0  0  0  0  0  0  0  0  0  0  0  0
   -8.1505    5.5819   -9.1696 C   0  0  0  0  0  0  0  0  0  0  0  0
   -8.4485    4.3777   -8.5564 C   0  0  0  0  0  0  0  0  0  0  0  0
   -8.7604    3.2546   -9.3047 C   0  0  0  0  0  0  0  0  0  0  0  0
   -8.7905    3.3011  -10.6863 C   0  0  0  0  0  0  0  0  0  0  0  0
   -8.4973    4.5109  -11.3435 C   0  0  0  0  0  0  0  0  0  0  0  0
   -9.0748    2.1171   -8.3948 C   0  0  0  0  0  0  0  0  0  0  0  0
   -8.7069    2.5762   -7.0298 N   0  0  0  0  0  0  0  0  0  0  0  0
   -8.5513    4.0454   -7.1078 C   0  0  0  0  0  0  0  0  0  0  0  0
   -7.8305    2.1442   -6.7371 H   0  0  0  0  0  0  0  0  0  0  0  0
 19 20  1  0  0  0
 20 21  2  0  0  0
 21 22  1  0  0  0
 22 23  2  0  0  0
 23 24  1  0  0  0
 24 25  2  0  0  0
 25 17  1  0  0  0
 17  1  1  0  0  0
  1  2  1  0  0  0
  1  3  1  0  0  0
  1  6  1  0  0  0
  6  7  2  0  0  0
  7  8  1  0  0  0
  8  9  1  0  0  0
  8 10  2  0  0  0
 10 11  1  0  0  0
 11 12  1  0  0  0
 12 13  1  0  0  0
 13 14  2  0  0  0
 14 15  1  0  0  0
 23 26  1  0  0  0
 26 27  1  0  0  0
 27 28  1  0  0  0
 25 20  1  0  0  0
 15  6  1  0  0  0
 28 22  1  0  0  0
 15 11  2  0  0  0
 17 18  1  0  0  0
  2  4  1  0  0  0
  3  5  1  0  0  0
 12 16  1  0  0  0
 27 29  1  0  0  0
M  END
> <minimizedAffinity>
-8.14832

> <minimizedRMSD>
0.65813

$$$$
P17011


 30 33  0  0  0  0  0  0  0  0999 V2000
   -8.4427    4.2485  -13.0719 N   0  0  0  0  0  0  0  0  0  0  0  0
   -8.4367    5.3706  -14.1319 C   0  0  0  0  0  0  0  0  0  0  0  0
   -8.3482    6.5284  -14.0081 O   0  0  0  0  0  0  0  0  0  0  0  0
   -8.4521    3.3350  -13.4388 H   0  0  0  0  0  0  0  0  0  0  0  0
   -9.6479    1.2846   -8.5205 N   0  0  0  0  0  0  0  0  0  0  0  0
   -8.5793    2.2283   -8.4779 C   0  0  0  0  0  0  0  0  0  0  0  0
   -8.7925    2.9399   -7.2193 N   0  0  0  0  0  0  0  0  0  0  0  0
   -8.2826    4.3053   -7.4473 C   0  0  0  0  0  0  0  0  0  0  0  0
   -8.3250    4.5023   -8.9247 C   0  0  0  0  0  0  0  0  0  0  0  0
   -8.1039    5.6472   -9.6592 C   0  0  0  0  0  0  0  0  0  0  0  0
   -8.1493    5.5434  -11.0488 C   0  0  0  0  0  0  0  0  0  0  0  0
   -8.4369    4.3180  -11.6812 C   0  0  0  0  0  0  0  0  0  0  0  0
   -8.6689    3.1682  -10.9237 C   0  0  0  0  0  0  0  0  0  0  0  0
   -8.5836    3.2766   -9.5422 C   0  0  0  0  0  0  0  0  0  0  0  0
   -9.5457    0.6204   -7.7532 H   0  0  0  0  0  0  0  0  0  0  0  0
   -9.6242    0.7841   -9.4089 H   0  0  0  0  0  0  0  0  0  0  0  0
   -8.2776    2.4888   -6.4631 H   0  0  0  0  0  0  0  0  0  0  0  0
   -8.4854    4.8523  -15.5132 C   0  0  0  0  0  0  0  0  0  0  0  0
   -9.6970    4.5364  -16.1357 C   0  0  0  0  0  0  0  0  0  0  0  0
   -9.7291    4.2950  -17.5050 C   0  0  0  0  0  0  0  0  0  0  0  0
  -10.9069    4.0880  -18.1095 F   0  0  0  0  0  0  0  0  0  0  0  0
   -8.5778    4.3190  -18.2861 C   0  0  0  0  0  0  0  0  0  0  0  0
   -7.3725    4.6291  -17.6411 C   0  0  0  0  0  0  0  0  0  0  0  0
   -7.3033    4.8846  -16.2764 C   0  0  0  0  0  0  0  0  0  0  0  0
   -5.9435    5.1825  -16.0417 C   0  0  0  0  0  0  0  0  0  0  0  0
   -5.2118    5.1487  -17.1557 N   0  0  0  0  0  0  0  0  0  0  0  0
   -6.0969    4.8263  -18.1073 N   0  0  0  0  0  0  0  0  0  0  0  0
   -5.7439    4.8435  -19.4419 N   0  0  0  0  0  0  0  0  0  0  0  0
   -4.7407    5.0073  -19.5262 H   0  0  0  0  0  0  0  0  0  0  0  0
   -6.2514    5.5892  -19.9182 H   0  0  0  0  0  0  0  0  0  0  0  0
  6  5  1  0  0  0
  6  7  1  0  0  0
  7  8  1  0  0  0
  8  9  1  0  0  0
  9 10  2  0  0  0
 10 11  1  0  0  0
 11 12  2  0  0  0
 12  1  1  0  0  0
  1  2  1  0  0  0
  2  3  2  0  0  0
  2 18  1  0  0  0
 18 19  2  0  0  0
 19 20  1  0  0  0
 20 21  1  0  0  0
 20 22  2  0  0  0
 22 23  1  0  0  0
 23 24  2  0  0  0
 24 25  1  0  0  0
 25 26  2  0  0  0
 26 27  1  0  0  0
 27 28  1  0  0  0
 12 13  1  0  0  0
 13 14  2  0  0  0
 14  6  1  0  0  0
 14  9  1  0  0  0
 24 18  1  0  0  0
 27 23  1  0  0  0
  5 15  1  0  0  0
  5 16  1  0  0  0
  7 17  1  0  0  0
  1  4  1  0  0  0
 28 29  1  0  0  0
 28 30  1  0  0  0
M  END
> <minimizedAffinity>
-9.33549

> <minimizedRMSD>
0.54703

$$$$
P17019


 27 30  0  0  0  0  0  0  0  0999 V2000
   -8.2302    4.2996  -13.2693 N   0  0  0  0  0  0  0  0  0  0  0  0
   -7.5643    5.2109  -14.3327 C   0  0  0  0  0  0  0  0  0  0  0  0
   -6.9853    6.2195  -14.2108 O   0  0  0  0  0  0  0  0  0  0  0  0
   -8.7276    3.5333  -13.6363 H   0  0  0  0  0  0  0  0  0  0  0  0
   -7.8139    4.7286  -15.7214 C   0  0  0  0  0  0  0  0  0  0  0  0
   -9.0714    4.2145  -16.0678 C   0  0  0  0  0  0  0  0  0  0  0  0
   -9.3900    3.9515  -17.3934 C   0  0  0  0  0  0  0  0  0  0  0  0
  -10.6343    3.5644  -17.6959 F   0  0  0  0  0  0  0  0  0  0  0  0
   -8.4802    4.1322  -18.4242 C   0  0  0  0  0  0  0  0  0  0  0  0
   -7.2289    4.6299  -18.0737 C   0  0  0  0  0  0  0  0  0  0  0  0
   -6.1342    4.9500  -18.8387 N   0  0  0  0  0  0  0  0  0  0  0  0
   -5.0650    5.4364  -18.0153 N   0  0  0  0  0  0  0  0  0  0  0  0
   -3.9684    5.7501  -18.5335 O   0  0  0  0  0  0  0  0  0  0  0  0
   -5.4861    5.4620  -16.7410 C   0  0  0  0  0  0  0  0  0  0  0  0
   -6.8520    4.9478  -16.7411 C   0  0  0  0  0  0  0  0  0  0  0  0
   -6.0894    4.8582  -19.8179 H   0  0  0  0  0  0  0  0  0  0  0  0
   -9.1093    2.1092   -8.9322 C   0  0  0  0  0  0  0  0  0  0  0  0
   -8.7088    3.3197   -9.7195 C   0  0  0  0  0  0  0  0  0  0  0  0
   -8.6389    3.2701  -11.1239 C   0  0  0  0  0  0  0  0  0  0  0  0
   -8.2390    4.3889  -11.8770 C   0  0  0  0  0  0  0  0  0  0  0  0
   -7.8902    5.5762  -11.2330 C   0  0  0  0  0  0  0  0  0  0  0  0
   -7.9564    5.6190   -9.8500 C   0  0  0  0  0  0  0  0  0  0  0  0
   -8.3520    4.5113   -9.1039 C   0  0  0  0  0  0  0  0  0  0  0  0
   -8.2704    4.8562   -7.6539 C   0  0  0  0  0  0  0  0  0  0  0  0
   -8.1477    6.3388   -7.5997 N   0  0  0  0  0  0  0  0  0  0  0  0
   -7.6095    6.7380   -8.9280 C   0  0  0  0  0  0  0  0  0  0  0  0
   -7.5070    6.6171   -6.8564 H   0  0  0  0  0  0  0  0  0  0  0  0
 17 18  1  0  0  0
 18 19  2  0  0  0
 19 20  1  0  0  0
 20  1  1  0  0  0
  1  2  1  0  0  0
  2  3  2  0  0  0
  2  5  1  0  0  0
  5  6  2  0  0  0
  6  7  1  0  0  0
  7  8  1  0  0  0
  7  9  2  0  0  0
  9 10  1  0  0  0
 10 11  1  0  0  0
 11 12  1  0  0  0
 12 13  1  0  0  0
 12 14  2  0  0  0
 14 15  1  0  0  0
 20 21  2  0  0  0
 21 22  1  0  0  0
 22 23  2  0  0  0
 23 24  1  0  0  0
 24 25  1  0  0  0
 25 26  1  0  0  0
 23 18  1  0  0  0
 15  5  1  0  0  0
 26 22  1  0  0  0
 15 10  2  0  0  0
  1  4  1  0  0  0
 11 16  1  0  0  0
 25 27  1  0  0  0
M  CHG 1  12   1
M  CHG 1  13  -1
M  END
> <minimizedAffinity>
-8.68886

> <minimizedRMSD>
0.21054

$$$$
P17028


 28 31  0  0  0  0  0  0  0  0999 V2000
   -5.1593    5.4281  -17.6457 N   0  0  0  0  0  0  0  0  0  0  0  0
   -5.6774    5.4040  -16.3818 C   0  0  0  0  0  0  0  0  0  0  0  0
   -6.9626    4.9619  -16.5352 C   0  0  0  0  0  0  0  0  0  0  0  0
   -7.9106    4.7759  -15.5296 C   0  0  0  0  0  0  0  0  0  0  0  0
   -9.1138    4.2582  -16.0407 C   0  0  0  0  0  0  0  0  0  0  0  0
   -9.3222    4.0040  -17.4272 C   0  0  0  0  0  0  0  0  0  0  0  0
  -10.5416    3.6018  -17.8083 F   0  0  0  0  0  0  0  0  0  0  0  0
   -8.3580    4.1922  -18.4278 C   0  0  0  0  0  0  0  0  0  0  0  0
   -7.1445    4.6925  -17.9402 C   0  0  0  0  0  0  0  0  0  0  0  0
   -6.0169    5.0092  -18.5949 N   0  0  0  0  0  0  0  0  0  0  0  0
   -7.7395    5.2422  -14.1415 C   0  0  0  0  0  0  0  0  0  0  0  0
   -7.2966    6.3109  -13.9785 O   0  0  0  0  0  0  0  0  0  0  0  0
   -8.1848    4.1748  -13.1155 N   0  0  0  0  0  0  0  0  0  0  0  0
   -8.4565    3.3139  -13.5082 H   0  0  0  0  0  0  0  0  0  0  0  0
   -8.2643    4.2330  -11.7257 C   0  0  0  0  0  0  0  0  0  0  0  0
   -7.9393    5.4163  -11.0391 C   0  0  0  0  0  0  0  0  0  0  0  0
   -7.9934    5.4766   -9.6439 C   0  0  0  0  0  0  0  0  0  0  0  0
   -8.3761    4.3399   -8.9586 C   0  0  0  0  0  0  0  0  0  0  0  0
   -8.7007    3.1663   -9.6330 C   0  0  0  0  0  0  0  0  0  0  0  0
   -8.6528    3.0935  -11.0167 C   0  0  0  0  0  0  0  0  0  0  0  0
   -9.0338    2.1047   -8.6359 C   0  0  0  0  0  0  0  0  0  0  0  0
   -9.2037    2.8240   -7.3410 N   0  0  0  0  0  0  0  0  0  0  0  0
   -8.4810    4.1069   -7.4909 C   0  0  0  0  0  0  0  0  0  0  0  0
   -8.8038    2.2788   -6.5773 H   0  0  0  0  0  0  0  0  0  0  0  0
   -3.8103    5.8385  -18.0333 C   0  0  0  0  0  0  0  0  0  0  0  0
   -4.1752    8.1653  -18.6269 C   0  0  0  0  0  0  0  0  0  0  0  0
   -3.5644    7.2458  -17.6774 N   0  0  0  0  0  0  0  0  0  0  0  0
   -3.9527    7.4235  -16.7511 H   0  0  0  0  0  0  0  0  0  0  0  0
 26 27  1  0  0  0
 27 25  1  0  0  0
 25  1  1  0  0  0
  1  2  1  0  0  0
  2  3  2  0  0  0
  3  4  1  0  0  0
  4 11  1  0  0  0
 11 12  2  0  0  0
 11 13  1  0  0  0
 13 15  1  0  0  0
 15 16  2  0  0  0
 16 17  1  0  0  0
 17 18  2  0  0  0
 18 19  1  0  0  0
 19 20  2  0  0  0
 19 21  1  0  0  0
 21 22  1  0  0  0
 22 23  1  0  0  0
  4  5  2  0  0  0
  5  6  1  0  0  0
  6  7  1  0  0  0
  6  8  2  0  0  0
  8  9  1  0  0  0
  9 10  2  0  0  0
 10  1  1  0  0  0
  9  3  1  0  0  0
 20 15  1  0  0  0
 23 18  1  0  0  0
 27 28  1  0  0  0
 13 14  1  0  0  0
 22 24  1  0  0  0
M  END
> <minimizedAffinity>
-8.19873

> <minimizedRMSD>
0.23959

$$$$
P17029


 34 37  0  0  0  0  0  0  0  0999 V2000
   -5.4464    6.7935  -17.4863 N   0  0  0  0  0  0  0  0  0  0  0  0
   -5.5717    6.5611  -16.1412 C   0  0  0  0  0  0  0  0  0  0  0  0
   -6.6071    5.6805  -16.0270 C   0  0  0  0  0  0  0  0  0  0  0  0
   -7.1582    5.1371  -14.8668 C   0  0  0  0  0  0  0  0  0  0  0  0
   -8.2197    4.2524  -15.1460 C   0  0  0  0  0  0  0  0  0  0  0  0
   -8.6638    3.9667  -16.4391 C   0  0  0  0  0  0  0  0  0  0  0  0
   -9.6619    3.0913  -16.5328 F   0  0  0  0  0  0  0  0  0  0  0  0
   -8.1620    4.5839  -17.5858 C   0  0  0  0  0  0  0  0  0  0  0  0
   -7.0666    5.4252  -17.3728 C   0  0  0  0  0  0  0  0  0  0  0  0
   -6.3629    6.1625  -18.2471 N   0  0  0  0  0  0  0  0  0  0  0  0
   -6.8975    5.5084  -13.4676 C   0  0  0  0  0  0  0  0  0  0  0  0
   -6.3579    6.5099  -13.2087 O   0  0  0  0  0  0  0  0  0  0  0  0
   -7.5320    4.4436  -12.5429 N   0  0  0  0  0  0  0  0  0  0  0  0
   -7.8625    3.6400  -13.0058 H   0  0  0  0  0  0  0  0  0  0  0  0
   -7.7104    4.4364  -11.1737 C   0  0  0  0  0  0  0  0  0  0  0  0
   -7.3633    5.5285  -10.3697 C   0  0  0  0  0  0  0  0  0  0  0  0
   -7.6659    5.5165   -9.0054 C   0  0  0  0  0  0  0  0  0  0  0  0
   -8.2910    4.3968   -8.4828 C   0  0  0  0  0  0  0  0  0  0  0  0
   -8.6411    3.3232   -9.2927 C   0  0  0  0  0  0  0  0  0  0  0  0
   -8.3725    3.3289  -10.6423 C   0  0  0  0  0  0  0  0  0  0  0  0
   -9.3208    2.2781   -8.4807 C   0  0  0  0  0  0  0  0  0  0  0  0
   -9.0507    2.6468   -7.0704 N   0  0  0  0  0  0  0  0  0  0  0  0
   -8.7113    4.0904   -7.0847 C   0  0  0  0  0  0  0  0  0  0  0  0
   -8.2694    2.1024   -6.7049 H   0  0  0  0  0  0  0  0  0  0  0  0
   -8.8501    4.5671  -18.7674 N   0  0  0  0  0  0  0  0  0  0  0  0
  -10.3516    4.6237  -19.0426 C   0  0  0  0  0  0  0  0  0  0  0  0
  -11.2517    4.6165  -18.3106 O   0  0  0  0  0  0  0  0  0  0  0  0
   -8.2857    4.5092  -19.5720 H   0  0  0  0  0  0  0  0  0  0  0  0
   -4.4755    7.6657  -18.1361 C   0  0  0  0  0  0  0  0  0  0  0  0
   -5.1303    8.9183  -18.5125 N   0  0  0  0  0  0  0  0  0  0  0  0
   -6.0712    8.9271  -18.1188 H   0  0  0  0  0  0  0  0  0  0  0  0
   -5.2264    9.0839  -19.9634 C   0  0  0  0  0  0  0  0  0  0  0  0
   -6.7218   10.9573  -19.1006 C   0  0  0  0  0  0  0  0  0  0  0  0
   -6.0032   10.3568  -20.2991 C   0  0  0  0  0  0  0  0  0  0  0  0
 33 34  1  0  0  0
 34 32  1  0  0  0
 32 30  1  0  0  0
 30 29  1  0  0  0
 29  1  1  0  0  0
  1  2  1  0  0  0
  2  3  2  0  0  0
  3  4  1  0  0  0
  4 11  1  0  0  0
 11 12  2  0  0  0
 11 13  1  0  0  0
 13 15  1  0  0  0
 15 16  2  0  0  0
 16 17  1  0  0  0
 17 18  2  0  0  0
 18 19  1  0  0  0
 19 20  2  0  0  0
 19 21  1  0  0  0
 21 22  1  0  0  0
 22 23  1  0  0  0
  4  5  2  0  0  0
  5  6  1  0  0  0
  6  7  1  0  0  0
  6  8  2  0  0  0
  8 25  1  0  0  0
 25 26  1  0  0  0
 26 27  2  0  0  0
  8  9  1  0  0  0
  9 10  2  0  0  0
 10  1  1  0  0  0
  9  3  1  0  0  0
 20 15  1  0  0  0
 23 18  1  0  0  0
 30 31  1  0  0  0
 13 14  1  0  0  0
 22 24  1  0  0  0
 25 28  1  0  0  0
M  END
> <minimizedAffinity>
-6.44897

> <minimizedRMSD>
1.57346

$$$$
P17031


 28 31  0  0  0  0  0  0  0  0999 V2000
   -5.1105    5.4253  -17.6927 N   0  0  0  0  0  0  0  0  0  0  0  0
   -5.5975    5.4257  -16.4138 C   0  0  0  0  0  0  0  0  0  0  0  0
   -6.8843    4.9731  -16.5262 C   0  0  0  0  0  0  0  0  0  0  0  0
   -7.8148    4.7839  -15.5027 C   0  0  0  0  0  0  0  0  0  0  0  0
   -9.0272    4.2667  -15.9980 C   0  0  0  0  0  0  0  0  0  0  0  0
   -9.2607    4.0092  -17.3793 C   0  0  0  0  0  0  0  0  0  0  0  0
  -10.4807    3.5896  -17.7378 F   0  0  0  0  0  0  0  0  0  0  0  0
   -8.3210    4.2046  -18.3978 C   0  0  0  0  0  0  0  0  0  0  0  0
   -7.1007    4.7013  -17.9301 C   0  0  0  0  0  0  0  0  0  0  0  0
   -5.9941    5.0092  -18.6195 N   0  0  0  0  0  0  0  0  0  0  0  0
   -7.6407    5.2349  -14.1079 C   0  0  0  0  0  0  0  0  0  0  0  0
   -7.1408    6.2761  -13.9298 O   0  0  0  0  0  0  0  0  0  0  0  0
   -8.2509    4.2288  -13.1008 N   0  0  0  0  0  0  0  0  0  0  0  0
   -8.6843    3.4460  -13.5114 H   0  0  0  0  0  0  0  0  0  0  0  0
   -8.2862    4.2515  -11.7056 C   0  0  0  0  0  0  0  0  0  0  0  0
   -7.9105    5.4030  -10.9949 C   0  0  0  0  0  0  0  0  0  0  0  0
   -7.9613    5.4347   -9.5978 C   0  0  0  0  0  0  0  0  0  0  0  0
   -8.3807    4.2972   -8.9320 C   0  0  0  0  0  0  0  0  0  0  0  0
   -8.7522    3.1543   -9.6288 C   0  0  0  0  0  0  0  0  0  0  0  0
   -8.7181    3.1145  -11.0157 C   0  0  0  0  0  0  0  0  0  0  0  0
   -9.1721    2.0968   -8.6645 C   0  0  0  0  0  0  0  0  0  0  0  0
   -8.8963    2.6351   -7.3048 N   0  0  0  0  0  0  0  0  0  0  0  0
   -8.5437    4.0611   -7.4697 C   0  0  0  0  0  0  0  0  0  0  0  0
   -8.1201    2.1291   -6.8782 H   0  0  0  0  0  0  0  0  0  0  0  0
   -3.7642    5.7945  -18.1272 C   0  0  0  0  0  0  0  0  0  0  0  0
   -4.1170    8.1520  -18.6033 C   0  0  0  0  0  0  0  0  0  0  0  0
   -3.4619    7.1816  -17.7232 N   0  0  0  0  0  0  0  0  0  0  0  0
   -2.0135    7.3799  -17.7539 C   0  0  0  0  0  0  0  0  0  0  0  0
 26 27  1  0  0  0
 27 28  1  0  0  0
 27 25  1  0  0  0
 25  1  1  0  0  0
  1  2  1  0  0  0
  2  3  2  0  0  0
  3  4  1  0  0  0
  4 11  1  0  0  0
 11 12  2  0  0  0
 11 13  1  0  0  0
 13 15  1  0  0  0
 15 16  2  0  0  0
 16 17  1  0  0  0
 17 18  2  0  0  0
 18 19  1  0  0  0
 19 20  2  0  0  0
 19 21  1  0  0  0
 21 22  1  0  0  0
 22 23  1  0  0  0
  4  5  2  0  0  0
  5  6  1  0  0  0
  6  7  1  0  0  0
  6  8  2  0  0  0
  8  9  1  0  0  0
  9 10  2  0  0  0
 10  1  1  0  0  0
  9  3  1  0  0  0
 20 15  1  0  0  0
 23 18  1  0  0  0
 13 14  1  0  0  0
 22 24  1  0  0  0
M  END
> <minimizedAffinity>
-8.40271

> <minimizedRMSD>
0.18554

$$$$
P17038


 30 34  0  0  0  0  0  0  0  0999 V2000
   -7.9003    4.8741  -15.4135 C   0  0  0  0  0  0  0  0  0  0  0  0
   -9.0205    4.3158  -16.0328 C   0  0  0  0  0  0  0  0  0  0  0  0
   -8.9824    4.0534  -17.4004 C   0  0  0  0  0  0  0  0  0  0  0  0
  -10.0677    3.5221  -17.9805 F   0  0  0  0  0  0  0  0  0  0  0  0
   -7.8734    4.3673  -18.1948 C   0  0  0  0  0  0  0  0  0  0  0  0
   -6.7397    4.8684  -17.5348 C   0  0  0  0  0  0  0  0  0  0  0  0
   -6.7257    5.0848  -16.1590 C   0  0  0  0  0  0  0  0  0  0  0  0
   -5.4040    5.4827  -15.8747 C   0  0  0  0  0  0  0  0  0  0  0  0
   -4.6267    5.4676  -16.9570 N   0  0  0  0  0  0  0  0  0  0  0  0
   -5.4905    5.2651  -17.9676 N   0  0  0  0  0  0  0  0  0  0  0  0
   -7.6029    6.4880  -13.8625 O   0  0  0  0  0  0  0  0  0  0  0  0
   -7.9353    5.3815  -14.0291 C   0  0  0  0  0  0  0  0  0  0  0  0
   -8.3635    4.3026  -13.0142 N   0  0  0  0  0  0  0  0  0  0  0  0
   -8.6745    3.4593  -13.4159 H   0  0  0  0  0  0  0  0  0  0  0  0
   -8.3819    4.3268  -11.6203 C   0  0  0  0  0  0  0  0  0  0  0  0
   -7.9854    5.4810  -10.9225 C   0  0  0  0  0  0  0  0  0  0  0  0
   -7.9623    5.5057   -9.5254 C   0  0  0  0  0  0  0  0  0  0  0  0
   -8.3389    4.3631   -8.8468 C   0  0  0  0  0  0  0  0  0  0  0  0
   -8.7412    3.2243   -9.5320 C   0  0  0  0  0  0  0  0  0  0  0  0
   -8.7725    3.1856  -10.9188 C   0  0  0  0  0  0  0  0  0  0  0  0
   -9.1010    2.1596   -8.5533 C   0  0  0  0  0  0  0  0  0  0  0  0
   -8.7851    2.7013   -7.2037 N   0  0  0  0  0  0  0  0  0  0  0  0
   -8.4235    4.1224   -7.3801 C   0  0  0  0  0  0  0  0  0  0  0  0
   -8.0030    2.1893   -6.7954 H   0  0  0  0  0  0  0  0  0  0  0  0
   -5.1014    5.3509  -19.3197 N   0  0  0  0  0  0  0  0  0  0  0  0
   -5.7160    4.7414  -19.8592 H   0  0  0  0  0  0  0  0  0  0  0  0
   -5.1503    6.6872  -19.9276 C   0  0  0  0  0  0  0  0  0  0  0  0
   -3.7379    7.3109  -20.0231 C   0  0  0  0  0  0  0  0  0  0  0  0
   -4.3978    8.6682  -19.6908 C   0  0  0  0  0  0  0  0  0  0  0  0
   -5.5484    7.8787  -19.0203 C   0  0  0  0  0  0  0  0  0  0  0  0
 11 12  2  0  0  0
 12 13  1  0  0  0
 13 15  1  0  0  0
 15 16  2  0  0  0
 16 17  1  0  0  0
 17 18  2  0  0  0
 18 19  1  0  0  0
 19 20  2  0  0  0
 19 21  1  0  0  0
 21 22  1  0  0  0
 22 23  1  0  0  0
 12  1  1  0  0  0
  1  2  2  0  0  0
  2  3  1  0  0  0
  3  4  1  0  0  0
  3  5  2  0  0  0
  5  6  1  0  0  0
  6  7  2  0  0  0
  7  8  1  0  0  0
  8  9  2  0  0  0
  9 10  1  0  0  0
 10 25  1  0  0  0
 25 27  1  0  0  0
 27 28  1  0  0  0
 28 29  1  0  0  0
 29 30  1  0  0  0
 20 15  1  0  0  0
  7  1  1  0  0  0
 30 27  1  0  0  0
 23 18  1  0  0  0
 10  6  1  0  0  0
 13 14  1  0  0  0
 22 24  1  0  0  0
 25 26  1  0  0  0
M  END
> <minimizedAffinity>
-8.70015

> <minimizedRMSD>
1.05129

$$$$
P17046


 26 29  0  0  0  0  0  0  0  0999 V2000
   -7.5577    5.2397  -14.1153 C   0  0  0  0  0  0  0  0  0  0  0  0
   -7.0212    6.2596  -13.9257 O   0  0  0  0  0  0  0  0  0  0  0  0
   -8.1416    4.2121  -13.1156 N   0  0  0  0  0  0  0  0  0  0  0  0
   -8.4796    3.3837  -13.5264 H   0  0  0  0  0  0  0  0  0  0  0  0
   -5.1188    5.3741  -17.7054 N   0  0  0  0  0  0  0  0  0  0  0  0
   -5.9707    5.0051  -18.6445 N   0  0  0  0  0  0  0  0  0  0  0  0
   -7.0673    4.7178  -17.9284 C   0  0  0  0  0  0  0  0  0  0  0  0
   -8.3082    4.2326  -18.3646 C   0  0  0  0  0  0  0  0  0  0  0  0
   -9.2362    4.0396  -17.3377 C   0  0  0  0  0  0  0  0  0  0  0  0
  -10.4625    3.6229  -17.6723 F   0  0  0  0  0  0  0  0  0  0  0  0
   -8.9799    4.2926  -15.9697 C   0  0  0  0  0  0  0  0  0  0  0  0
   -7.7530    4.8044  -15.5102 C   0  0  0  0  0  0  0  0  0  0  0  0
   -6.7761    5.0038  -16.5080 C   0  0  0  0  0  0  0  0  0  0  0  0
   -5.5013    5.4293  -16.4336 N   0  0  0  0  0  0  0  0  0  0  0  0
   -3.5500    6.9896  -17.9426 C   0  0  0  0  0  0  0  0  0  0  0  0
   -3.7935    5.5953  -18.0414 O   0  0  0  0  0  0  0  0  0  0  0  0
   -8.2668    4.2690  -11.7273 C   0  0  0  0  0  0  0  0  0  0  0  0
   -7.9652    5.4351  -11.0074 C   0  0  0  0  0  0  0  0  0  0  0  0
   -8.0526    5.4564   -9.6084 C   0  0  0  0  0  0  0  0  0  0  0  0
   -8.4366    4.2994   -8.9515 C   0  0  0  0  0  0  0  0  0  0  0  0
   -8.7533    3.1525   -9.6634 C   0  0  0  0  0  0  0  0  0  0  0  0
   -8.6796    3.1195  -11.0482 C   0  0  0  0  0  0  0  0  0  0  0  0
   -9.1299    2.0630   -8.7185 C   0  0  0  0  0  0  0  0  0  0  0  0
   -8.9766    2.6162   -7.3506 N   0  0  0  0  0  0  0  0  0  0  0  0
   -8.5806    4.0310   -7.4907 C   0  0  0  0  0  0  0  0  0  0  0  0
   -8.2566    2.1008   -6.8443 H   0  0  0  0  0  0  0  0  0  0  0  0
 15 16  1  0  0  0
 16  5  1  0  0  0
  5  6  1  0  0  0
  6  7  2  0  0  0
  7  8  1  0  0  0
  8  9  2  0  0  0
  9 10  1  0  0  0
  9 11  1  0  0  0
 11 12  2  0  0  0
 12  1  1  0  0  0
  1  2  2  0  0  0
  1  3  1  0  0  0
  3 17  1  0  0  0
 17 18  2  0  0  0
 18 19  1  0  0  0
 19 20  2  0  0  0
 20 21  1  0  0  0
 21 22  2  0  0  0
 21 23  1  0  0  0
 23 24  1  0  0  0
 24 25  1  0  0  0
 12 13  1  0  0  0
 13 14  2  0  0  0
 14  5  1  0  0  0
 13  7  1  0  0  0
 22 17  1  0  0  0
 25 20  1  0  0  0
  3  4  1  0  0  0
 24 26  1  0  0  0
M  END
> <minimizedAffinity>
-8.44589

> <minimizedRMSD>
0.17931

$$$$
P17052


 26 29  0  0  0  0  0  0  0  0999 V2000
   -7.1015    5.2219  -13.8277 C   0  0  0  0  0  0  0  0  0  0  0  0
   -6.6679    6.2526  -13.4897 O   0  0  0  0  0  0  0  0  0  0  0  0
   -7.7172    4.0681  -12.9936 N   0  0  0  0  0  0  0  0  0  0  0  0
   -7.9433    3.2611  -13.5102 H   0  0  0  0  0  0  0  0  0  0  0  0
   -8.6488    4.4732  -17.1740 C   0  0  0  0  0  0  0  0  0  0  0  0
   -8.4606    4.5784  -15.7958 C   0  0  0  0  0  0  0  0  0  0  0  0
   -7.2048    4.9282  -15.2750 C   0  0  0  0  0  0  0  0  0  0  0  0
   -6.1494    5.1686  -16.1707 C   0  0  0  0  0  0  0  0  0  0  0  0
   -4.8500    5.5668  -15.9940 N   0  0  0  0  0  0  0  0  0  0  0  0
   -4.2697    5.6568  -17.1872 N   0  0  0  0  0  0  0  0  0  0  0  0
   -5.1838    5.3223  -18.1123 N   0  0  0  0  0  0  0  0  0  0  0  0
   -6.3781    4.9999  -17.5343 C   0  0  0  0  0  0  0  0  0  0  0  0
   -7.6002    4.6259  -18.0783 C   0  0  0  0  0  0  0  0  0  0  0  0
   -5.0146    5.3109  -19.0821 H   0  0  0  0  0  0  0  0  0  0  0  0
  -11.0426    4.2764  -18.0912 N   0  0  0  0  0  0  0  0  0  0  0  0
   -9.9658    4.3542  -17.6828 C   0  0  0  0  0  0  0  0  0  0  0  0
   -8.0022    3.9881  -11.6322 C   0  0  0  0  0  0  0  0  0  0  0  0
   -8.5831    2.8009  -11.1481 C   0  0  0  0  0  0  0  0  0  0  0  0
   -8.9005    2.6530   -9.7953 C   0  0  0  0  0  0  0  0  0  0  0  0
   -8.6486    3.7159   -8.9508 C   0  0  0  0  0  0  0  0  0  0  0  0
   -8.0921    4.8992   -9.4280 C   0  0  0  0  0  0  0  0  0  0  0  0
   -7.7551    5.0527  -10.7647 C   0  0  0  0  0  0  0  0  0  0  0  0
   -7.9039    5.8411   -8.2885 C   0  0  0  0  0  0  0  0  0  0  0  0
   -8.6761    5.2618   -7.1553 N   0  0  0  0  0  0  0  0  0  0  0  0
   -8.8395    3.8142   -7.4766 C   0  0  0  0  0  0  0  0  0  0  0  0
   -9.5871    5.7140   -7.0777 H   0  0  0  0  0  0  0  0  0  0  0  0
 15 16  3  0  0  0
 16  5  1  0  0  0
  5  6  2  0  0  0
  6  7  1  0  0  0
  7  1  1  0  0  0
  1  2  2  0  0  0
  1  3  1  0  0  0
  3 17  1  0  0  0
 17 18  2  0  0  0
 18 19  1  0  0  0
 19 20  2  0  0  0
 20 21  1  0  0  0
 21 22  2  0  0  0
 21 23  1  0  0  0
 23 24  1  0  0  0
 24 25  1  0  0  0
  7  8  2  0  0  0
  8  9  1  0  0  0
  9 10  2  0  0  0
 10 11  1  0  0  0
 11 12  1  0  0  0
 12 13  2  0  0  0
 13  5  1  0  0  0
 22 17  1  0  0  0
 12  8  1  0  0  0
 25 20  1  0  0  0
  3  4  1  0  0  0
 24 26  1  0  0  0
 11 14  1  0  0  0
M  END
> <minimizedAffinity>
-7.68369

> <minimizedRMSD>
0.74280

$$$$
P17056


 34 36  0  0  0  0  0  0  0  0999 V2000
   -8.5341    4.4295  -17.4302 C   0  0  0  0  0  0  0  0  0  0  0  0
   -7.4474    4.5819  -18.2693 C   0  0  0  0  0  0  0  0  0  0  0  0
   -6.2631    5.0513  -17.7512 C   0  0  0  0  0  0  0  0  0  0  0  0
   -6.0840    5.2274  -16.3671 C   0  0  0  0  0  0  0  0  0  0  0  0
   -7.1119    4.8401  -15.4693 C   0  0  0  0  0  0  0  0  0  0  0  0
   -8.3472    4.4629  -16.0359 C   0  0  0  0  0  0  0  0  0  0  0  0
   -6.9559    4.9864  -13.9518 C   0  0  0  0  0  0  0  0  0  0  0  0
   -6.6832    6.3380  -13.6749 O   0  0  0  0  0  0  0  0  0  0  0  0
   -5.8386    4.2434  -13.5220 O   0  0  0  0  0  0  0  0  0  0  0  0
   -7.3136    6.9969  -13.8905 H   0  0  0  0  0  0  0  0  0  0  0  0
   -5.8289    3.3118  -13.6220 H   0  0  0  0  0  0  0  0  0  0  0  0
   -8.1165    4.5179  -13.2171 N   0  0  0  0  0  0  0  0  0  0  0  0
   -8.8889    4.1947  -13.7350 H   0  0  0  0  0  0  0  0  0  0  0  0
   -8.2106    4.4950  -11.8171 C   0  0  0  0  0  0  0  0  0  0  0  0
   -8.0296    5.6336  -11.0081 C   0  0  0  0  0  0  0  0  0  0  0  0
   -8.1596    5.5862   -9.6108 C   0  0  0  0  0  0  0  0  0  0  0  0
   -8.4849    4.3829   -9.0178 C   0  0  0  0  0  0  0  0  0  0  0  0
   -8.7018    3.2548   -9.7911 C   0  0  0  0  0  0  0  0  0  0  0  0
   -8.5832    3.2979  -11.1766 C   0  0  0  0  0  0  0  0  0  0  0  0
   -9.0951    2.1158   -8.9099 C   0  0  0  0  0  0  0  0  0  0  0  0
   -8.9268    2.5969   -7.5105 N   0  0  0  0  0  0  0  0  0  0  0  0
   -8.7044    4.0559   -7.5806 C   0  0  0  0  0  0  0  0  0  0  0  0
   -8.1242    2.1404   -7.0770 H   0  0  0  0  0  0  0  0  0  0  0  0
  -10.8437    3.6951  -17.4115 N   0  0  0  0  0  0  0  0  0  0  0  0
   -9.8840    4.5002  -18.0803 C   0  0  0  0  0  0  0  0  0  0  0  0
  -11.7432    3.7734  -17.8860 H   0  0  0  0  0  0  0  0  0  0  0  0
  -10.9396    4.0113  -16.4465 H   0  0  0  0  0  0  0  0  0  0  0  0
   -4.9340    5.9284  -15.8963 N   0  0  0  0  0  0  0  0  0  0  0  0
   -4.9317    6.9072  -15.7908 H   0  0  0  0  0  0  0  0  0  0  0  0
   -3.8200    5.1605  -15.5950 N   0  0  0  0  0  0  0  0  0  0  0  0
   -2.8731    5.2692  -16.6188 N   0  0  0  0  0  0  0  0  0  0  0  0
   -4.0994    4.1846  -15.4955 H   0  0  0  0  0  0  0  0  0  0  0  0
   -2.5923    6.2446  -16.7201 H   0  0  0  0  0  0  0  0  0  0  0  0
   -3.2797    4.9398  -17.4943 H   0  0  0  0  0  0  0  0  0  0  0  0
 24 25  1  0  0  0
 25  1  1  0  0  0
  1  2  2  0  0  0
  2  3  1  0  0  0
  3  4  2  0  0  0
  4 28  1  0  0  0
 28 30  1  0  0  0
 30 31  1  0  0  0
  4  5  1  0  0  0
  5  7  1  0  0  0
  7  8  1  0  0  0
  7  9  1  0  0  0
  7 12  1  0  0  0
 12 14  1  0  0  0
 14 15  2  0  0  0
 15 16  1  0  0  0
 16 17  2  0  0  0
 17 18  1  0  0  0
 18 19  2  0  0  0
 18 20  1  0  0  0
 20 21  1  0  0  0
 21 22  1  0  0  0
  5  6  2  0  0  0
  6  1  1  0  0  0
 19 14  1  0  0  0
 22 17  1  0  0  0
 24 26  1  0  0  0
 24 27  1  0  0  0
 28 29  1  0  0  0
 30 32  1  0  0  0
 31 33  1  0  0  0
 31 34  1  0  0  0
  8 10  1  0  0  0
  9 11  1  0  0  0
 12 13  1  0  0  0
 21 23  1  0  0  0
M  END
> <minimizedAffinity>
-7.02793

> <minimizedRMSD>
0.75014

$$$$
P17058


 35 38  0  0  0  0  0  0  0  0999 V2000
   -4.6187    5.5366  -15.5913 N   0  0  0  0  0  0  0  0  0  0  0  0
   -5.3724    5.5908  -14.4595 N   0  0  0  0  0  0  0  0  0  0  0  0
   -6.5670    5.1213  -14.8554 C   0  0  0  0  0  0  0  0  0  0  0  0
   -7.7945    4.9223  -14.1818 C   0  0  0  0  0  0  0  0  0  0  0  0
   -8.8604    4.4128  -14.9670 C   0  0  0  0  0  0  0  0  0  0  0  0
   -8.7269    4.1174  -16.3209 C   0  0  0  0  0  0  0  0  0  0  0  0
   -9.8078    3.7299  -17.0001 F   0  0  0  0  0  0  0  0  0  0  0  0
   -7.5458    4.3160  -17.0070 C   0  0  0  0  0  0  0  0  0  0  0  0
   -6.4618    4.8173  -16.2912 C   0  0  0  0  0  0  0  0  0  0  0  0
   -5.2462    5.1607  -16.7300 N   0  0  0  0  0  0  0  0  0  0  0  0
   -3.1729    5.9591  -15.6635 C   0  0  0  0  0  0  0  0  0  0  0  0
   -2.5257    5.4099  -16.8368 N   0  0  0  0  0  0  0  0  0  0  0  0
   -2.4819    5.4281  -14.5677 O   0  0  0  0  0  0  0  0  0  0  0  0
   -1.5515    5.7111  -16.8600 H   0  0  0  0  0  0  0  0  0  0  0  0
   -3.0039    5.7406  -17.6749 H   0  0  0  0  0  0  0  0  0  0  0  0
   -1.5511    5.6979  -14.6108 H   0  0  0  0  0  0  0  0  0  0  0  0
   -2.9998    7.9625  -17.0714 C   0  0  0  0  0  0  0  0  0  0  0  0
   -2.9870    7.3856  -15.7367 N   0  0  0  0  0  0  0  0  0  0  0  0
   -3.7340    7.8256  -15.1994 H   0  0  0  0  0  0  0  0  0  0  0  0
   -8.1319    5.3714  -12.8208 C   0  0  0  0  0  0  0  0  0  0  0  0
   -8.6977    6.3757  -12.6440 O   0  0  0  0  0  0  0  0  0  0  0  0
   -7.7081    4.2700  -11.8207 N   0  0  0  0  0  0  0  0  0  0  0  0
   -7.1671    3.5455  -12.2103 H   0  0  0  0  0  0  0  0  0  0  0  0
   -7.9658    4.1370  -10.4660 C   0  0  0  0  0  0  0  0  0  0  0  0
   -7.8365    5.1944   -9.5578 C   0  0  0  0  0  0  0  0  0  0  0  0
   -8.2155    5.0195   -8.2193 C   0  0  0  0  0  0  0  0  0  0  0  0
   -8.7163    3.7861   -7.8279 C   0  0  0  0  0  0  0  0  0  0  0  0
   -8.8374    2.7449   -8.7377 C   0  0  0  0  0  0  0  0  0  0  0  0
   -8.4724    2.9013  -10.0566 C   0  0  0  0  0  0  0  0  0  0  0  0
   -9.3523    1.5291   -8.0474 C   0  0  0  0  0  0  0  0  0  0  0  0
   -9.8759    2.0162   -6.7518 N   0  0  0  0  0  0  0  0  0  0  0  0
   -9.1694    3.2914   -6.4915 C   0  0  0  0  0  0  0  0  0  0  0  0
   -9.6786    1.3423   -6.0120 H   0  0  0  0  0  0  0  0  0  0  0  0
   -7.5185    4.2629  -18.3965 C   0  0  0  0  0  0  0  0  0  0  0  0
   -7.4870    4.0199  -19.5201 N   0  0  0  0  0  0  0  0  0  0  0  0
 17 18  1  0  0  0
 18 11  1  0  0  0
 11 12  1  0  0  0
 11 13  1  0  0  0
 11  1  1  0  0  0
  1  2  1  0  0  0
  2  3  2  0  0  0
  3  4  1  0  0  0
  4 20  1  0  0  0
 20 21  2  0  0  0
 20 22  1  0  0  0
 22 24  1  0  0  0
 24 25  2  0  0  0
 25 26  1  0  0  0
 26 27  2  0  0  0
 27 28  1  0  0  0
 28 29  2  0  0  0
 28 30  1  0  0  0
 30 31  1  0  0  0
 31 32  1  0  0  0
  4  5  2  0  0  0
  5  6  1  0  0  0
  6  7  1  0  0  0
  6  8  2  0  0  0
  8 34  1  0  0  0
 34 35  3  0  0  0
  8  9  1  0  0  0
  9 10  2  0  0  0
 10  1  1  0  0  0
  9  3  1  0  0  0
 29 24  1  0  0  0
 32 27  1  0  0  0
 18 19  1  0  0  0
 12 14  1  0  0  0
 12 15  1  0  0  0
 13 16  1  0  0  0
 22 23  1  0  0  0
 31 33  1  0  0  0
M  END
> <minimizedAffinity>
-7.55136

> <minimizedRMSD>
1.51428

$$$$
P17062


 26 29  0  0  0  0  0  0  0  0999 V2000
   -7.4934    5.2433  -14.1886 C   0  0  0  0  0  0  0  0  0  0  0  0
   -7.1181    6.3391  -14.0154 O   0  0  0  0  0  0  0  0  0  0  0  0
   -7.9183    4.1471  -13.1637 N   0  0  0  0  0  0  0  0  0  0  0  0
   -8.1254    3.2701  -13.5602 H   0  0  0  0  0  0  0  0  0  0  0  0
   -5.4972    5.4152  -16.7588 N   0  0  0  0  0  0  0  0  0  0  0  0
   -5.0324    5.3576  -18.0151 N   0  0  0  0  0  0  0  0  0  0  0  0
   -6.0158    4.9232  -18.7748 N   0  0  0  0  0  0  0  0  0  0  0  0
   -7.0903    4.6836  -17.9703 C   0  0  0  0  0  0  0  0  0  0  0  0
   -8.3535    4.2137  -18.3206 C   0  0  0  0  0  0  0  0  0  0  0  0
   -9.2826    4.0584  -17.3087 C   0  0  0  0  0  0  0  0  0  0  0  0
  -10.5291    3.7024  -17.6362 F   0  0  0  0  0  0  0  0  0  0  0  0
   -8.9752    4.3169  -15.9759 C   0  0  0  0  0  0  0  0  0  0  0  0
   -7.7126    4.7993  -15.5967 C   0  0  0  0  0  0  0  0  0  0  0  0
   -6.7889    4.9867  -16.6408 C   0  0  0  0  0  0  0  0  0  0  0  0
   -3.8885    6.8882  -16.0754 C   0  0  0  0  0  0  0  0  0  0  0  0
   -4.6104    5.7092  -15.7391 O   0  0  0  0  0  0  0  0  0  0  0  0
   -8.0533    4.2079  -11.7689 C   0  0  0  0  0  0  0  0  0  0  0  0
   -7.7147    5.3558  -11.0392 C   0  0  0  0  0  0  0  0  0  0  0  0
   -7.8906    5.4047   -9.6474 C   0  0  0  0  0  0  0  0  0  0  0  0
   -8.3882    4.2859   -8.9990 C   0  0  0  0  0  0  0  0  0  0  0  0
   -8.7269    3.1437   -9.7102 C   0  0  0  0  0  0  0  0  0  0  0  0
   -8.5773    3.0930  -11.0925 C   0  0  0  0  0  0  0  0  0  0  0  0
   -9.2530    2.1092   -8.7688 C   0  0  0  0  0  0  0  0  0  0  0  0
   -9.0417    2.6469   -7.3965 N   0  0  0  0  0  0  0  0  0  0  0  0
   -8.6663    4.0687   -7.5493 C   0  0  0  0  0  0  0  0  0  0  0  0
   -8.2937    2.1342   -6.9296 H   0  0  0  0  0  0  0  0  0  0  0  0
 15 16  1  0  0  0
 16  5  1  0  0  0
  5  6  1  0  0  0
  6  7  2  0  0  0
  7  8  1  0  0  0
  8  9  2  0  0  0
  9 10  1  0  0  0
 10 11  1  0  0  0
 10 12  2  0  0  0
 12 13  1  0  0  0
 13  1  1  0  0  0
  1  2  2  0  0  0
  1  3  1  0  0  0
  3 17  1  0  0  0
 17 18  2  0  0  0
 18 19  1  0  0  0
 19 20  2  0  0  0
 20 21  1  0  0  0
 21 22  2  0  0  0
 21 23  1  0  0  0
 23 24  1  0  0  0
 24 25  1  0  0  0
 13 14  2  0  0  0
 14  5  1  0  0  0
 14  8  1  0  0  0
 22 17  1  0  0  0
 25 20  1  0  0  0
  3  4  1  0  0  0
 24 26  1  0  0  0
M  END
> <minimizedAffinity>
-8.40026

> <minimizedRMSD>
0.46940

$$$$
P17067


 27 30  0  0  0  0  0  0  0  0999 V2000
   -7.6698    5.1876  -14.1901 C   0  0  0  0  0  0  0  0  0  0  0  0
   -7.3757    6.3007  -13.9980 O   0  0  0  0  0  0  0  0  0  0  0  0
   -8.0400    4.0631  -13.1958 N   0  0  0  0  0  0  0  0  0  0  0  0
   -8.1767    3.1786  -13.6061 H   0  0  0  0  0  0  0  0  0  0  0  0
   -3.8637    5.7684  -18.0745 N   0  0  0  0  0  0  0  0  0  0  0  0
   -5.1591    5.4170  -17.7354 N   0  0  0  0  0  0  0  0  0  0  0  0
   -5.9955    4.9857  -18.6683 N   0  0  0  0  0  0  0  0  0  0  0  0
   -7.1091    4.7131  -17.9784 C   0  0  0  0  0  0  0  0  0  0  0  0
   -8.3553    4.2647  -18.4434 C   0  0  0  0  0  0  0  0  0  0  0  0
   -9.3075    4.0806  -17.4369 C   0  0  0  0  0  0  0  0  0  0  0  0
  -10.5494    3.7317  -17.7956 F   0  0  0  0  0  0  0  0  0  0  0  0
   -9.0583    4.2855  -16.0624 C   0  0  0  0  0  0  0  0  0  0  0  0
   -7.8215    4.7513  -15.5820 C   0  0  0  0  0  0  0  0  0  0  0  0
   -6.8328    4.9672  -16.5608 C   0  0  0  0  0  0  0  0  0  0  0  0
   -5.5625    5.3945  -16.4672 N   0  0  0  0  0  0  0  0  0  0  0  0
   -3.7537    5.7246  -19.0876 H   0  0  0  0  0  0  0  0  0  0  0  0
   -3.2095    5.1221  -17.6332 H   0  0  0  0  0  0  0  0  0  0  0  0
   -8.2116    4.0978  -11.8140 C   0  0  0  0  0  0  0  0  0  0  0  0
   -8.5346    2.9134  -11.1310 C   0  0  0  0  0  0  0  0  0  0  0  0
   -8.6755    2.9084   -9.7379 C   0  0  0  0  0  0  0  0  0  0  0  0
   -8.5115    4.1025   -9.0585 C   0  0  0  0  0  0  0  0  0  0  0  0
   -8.2379    5.2815   -9.7403 C   0  0  0  0  0  0  0  0  0  0  0  0
   -8.0687    5.2969  -11.1132 C   0  0  0  0  0  0  0  0  0  0  0  0
   -8.2157    6.4192   -8.7821 C   0  0  0  0  0  0  0  0  0  0  0  0
   -8.1770    5.8081   -7.4307 N   0  0  0  0  0  0  0  0  0  0  0  0
   -8.6005    4.3867   -7.5984 C   0  0  0  0  0  0  0  0  0  0  0  0
   -8.8179    6.2956   -6.8046 H   0  0  0  0  0  0  0  0  0  0  0  0
  5  6  1  0  0  0
  6  7  1  0  0  0
  7  8  2  0  0  0
  8  9  1  0  0  0
  9 10  2  0  0  0
 10 11  1  0  0  0
 10 12  1  0  0  0
 12 13  2  0  0  0
 13  1  1  0  0  0
  1  2  2  0  0  0
  1  3  1  0  0  0
  3 18  1  0  0  0
 18 19  2  0  0  0
 19 20  1  0  0  0
 20 21  2  0  0  0
 21 22  1  0  0  0
 22 23  2  0  0  0
 22 24  1  0  0  0
 24 25  1  0  0  0
 25 26  1  0  0  0
 13 14  1  0  0  0
 14 15  2  0  0  0
 15  6  1  0  0  0
 14  8  1  0  0  0
 23 18  1  0  0  0
 26 21  1  0  0  0
  5 16  1  0  0  0
  5 17  1  0  0  0
  3  4  1  0  0  0
 25 27  1  0  0  0
M  END
> <minimizedAffinity>
-8.24996

> <minimizedRMSD>
0.41331

$$$$
P17076


 25 28  0  0  0  0  0  0  0  0999 V2000
   -6.8221    6.1034  -14.2614 O   0  0  0  0  0  0  0  0  0  0  0  0
   -7.4904    5.1607  -14.4327 C   0  0  0  0  0  0  0  0  0  0  0  0
   -8.2504    4.2714  -13.4179 N   0  0  0  0  0  0  0  0  0  0  0  0
   -8.8127    3.5721  -13.8229 H   0  0  0  0  0  0  0  0  0  0  0  0
   -7.7897    4.7336  -15.8252 C   0  0  0  0  0  0  0  0  0  0  0  0
   -9.0723    4.2531  -16.1497 C   0  0  0  0  0  0  0  0  0  0  0  0
   -9.4238    3.9956  -17.4711 C   0  0  0  0  0  0  0  0  0  0  0  0
  -10.6828    3.6434  -17.7582 F   0  0  0  0  0  0  0  0  0  0  0  0
   -8.5214    4.1485  -18.5146 C   0  0  0  0  0  0  0  0  0  0  0  0
   -7.2576    4.6228  -18.1696 C   0  0  0  0  0  0  0  0  0  0  0  0
   -6.1569    4.9183  -18.9208 N   0  0  0  0  0  0  0  0  0  0  0  0
   -5.1510    5.3860  -18.1593 N   0  0  0  0  0  0  0  0  0  0  0  0
   -5.5740    5.3954  -16.8979 N   0  0  0  0  0  0  0  0  0  0  0  0
   -6.8660    4.9292  -16.8682 C   0  0  0  0  0  0  0  0  0  0  0  0
   -6.1055    4.8037  -19.8973 H   0  0  0  0  0  0  0  0  0  0  0  0
   -8.2679    4.2999  -12.0228 C   0  0  0  0  0  0  0  0  0  0  0  0
   -8.4734    3.0712  -11.3718 C   0  0  0  0  0  0  0  0  0  0  0  0
   -8.5266    2.9803   -9.9837 C   0  0  0  0  0  0  0  0  0  0  0  0
   -8.3841    4.1407   -9.2611 C   0  0  0  0  0  0  0  0  0  0  0  0
   -8.1895    5.3674   -9.8897 C   0  0  0  0  0  0  0  0  0  0  0  0
   -8.1202    5.4697  -11.2732 C   0  0  0  0  0  0  0  0  0  0  0  0
   -8.0549    6.4136   -8.8388 C   0  0  0  0  0  0  0  0  0  0  0  0
   -8.5073    5.7658   -7.5701 N   0  0  0  0  0  0  0  0  0  0  0  0
   -8.3582    4.3086   -7.7871 C   0  0  0  0  0  0  0  0  0  0  0  0
   -9.4819    5.9989   -7.3799 H   0  0  0  0  0  0  0  0  0  0  0  0
  1  2  2  0  0  0
  2  3  1  0  0  0
  3 16  1  0  0  0
 16 17  2  0  0  0
 17 18  1  0  0  0
 18 19  2  0  0  0
 19 20  1  0  0  0
 20 21  2  0  0  0
 20 22  1  0  0  0
 22 23  1  0  0  0
 23 24  1  0  0  0
  2  5  1  0  0  0
  5  6  2  0  0  0
  6  7  1  0  0  0
  7  8  1  0  0  0
  7  9  2  0  0  0
  9 10  1  0  0  0
 10 11  1  0  0  0
 11 12  1  0  0  0
 12 13  2  0  0  0
 13 14  1  0  0  0
 21 16  1  0  0  0
 14  5  1  0  0  0
 24 19  1  0  0  0
 14 10  2  0  0  0
  3  4  1  0  0  0
 23 25  1  0  0  0
 11 15  1  0  0  0
M  END
> <minimizedAffinity>
-8.27337

> <minimizedRMSD>
0.41396

$$$$
P17081


 32 35  0  0  0  0  0  0  0  0999 V2000
   -6.4224    6.7241  -13.6897 N   0  0  0  0  0  0  0  0  0  0  0  0
   -6.7342    5.5803  -13.8978 C   0  0  0  0  0  0  0  0  0  0  0  0
   -6.9557    5.1051  -15.3387 C   0  0  0  0  0  0  0  0  0  0  0  0
   -8.2116    4.5903  -15.7241 C   0  0  0  0  0  0  0  0  0  0  0  0
   -8.4772    4.2109  -17.0399 C   0  0  0  0  0  0  0  0  0  0  0  0
   -9.6485    3.6496  -17.3578 F   0  0  0  0  0  0  0  0  0  0  0  0
   -7.5577    4.3971  -18.0557 C   0  0  0  0  0  0  0  0  0  0  0  0
   -6.2877    4.8718  -17.7212 C   0  0  0  0  0  0  0  0  0  0  0  0
   -5.2381    5.0927  -18.6207 N   0  0  0  0  0  0  0  0  0  0  0  0
   -4.1585    5.4196  -17.7493 N   0  0  0  0  0  0  0  0  0  0  0  0
   -3.1465    6.0397  -18.1361 O   0  0  0  0  0  0  0  0  0  0  0  0
   -4.6166    5.4225  -16.3904 N   0  0  0  0  0  0  0  0  0  0  0  0
   -3.6636    5.4984  -15.3204 C   0  0  0  0  0  0  0  0  0  0  0  0
   -5.9755    5.1565  -16.3508 C   0  0  0  0  0  0  0  0  0  0  0  0
   -7.0281    4.4010  -12.8915 N   0  0  0  0  0  0  0  0  0  0  0  0
   -6.8999    3.4992  -13.2653 H   0  0  0  0  0  0  0  0  0  0  0  0
   -7.4396    4.4270  -11.5597 C   0  0  0  0  0  0  0  0  0  0  0  0
   -7.0704    5.4967  -10.7156 C   0  0  0  0  0  0  0  0  0  0  0  0
   -7.3959    5.5201   -9.3571 C   0  0  0  0  0  0  0  0  0  0  0  0
   -8.0857    4.4452   -8.8409 C   0  0  0  0  0  0  0  0  0  0  0  0
   -8.4645    3.3857   -9.6513 C   0  0  0  0  0  0  0  0  0  0  0  0
   -8.1528    3.3602  -11.0054 C   0  0  0  0  0  0  0  0  0  0  0  0
   -9.1548    2.3572   -8.8221 C   0  0  0  0  0  0  0  0  0  0  0  0
   -9.2864    2.9288   -7.4604 N   0  0  0  0  0  0  0  0  0  0  0  0
   -8.5015    4.1782   -7.4387 C   0  0  0  0  0  0  0  0  0  0  0  0
   -8.9214    2.2739   -6.7689 H   0  0  0  0  0  0  0  0  0  0  0  0
   -6.1920    7.9308  -14.4198 C   0  0  0  0  0  0  0  0  0  0  0  0
   -4.9411    8.5656  -14.1438 O   0  0  0  0  0  0  0  0  0  0  0  0
   -4.6001    9.5788  -15.0988 C   0  0  0  0  0  0  0  0  0  0  0  0
   -4.3799    9.0277  -16.5117 C   0  0  0  0  0  0  0  0  0  0  0  0
   -5.6378    8.6900  -18.4748 C   0  0  0  0  0  0  0  0  0  0  0  0
   -5.3300    9.5990  -17.4228 O   0  0  0  0  0  0  0  0  0  0  0  0
 31 32  1  0  0  0
 32 30  1  0  0  0
 30 29  1  0  0  0
 29 28  1  0  0  0
 28 27  1  0  0  0
 27  1  1  0  0  0
  1  2  2  0  0  0
  2 15  1  0  0  0
 15 17  1  0  0  0
 17 18  2  0  0  0
 18 19  1  0  0  0
 19 20  2  0  0  0
 20 21  1  0  0  0
 21 22  2  0  0  0
 21 23  1  0  0  0
 23 24  1  0  0  0
 24 25  1  0  0  0
  2  3  1  0  0  0
  3  4  2  0  0  0
  4  5  1  0  0  0
  5  6  1  0  0  0
  5  7  2  0  0  0
  7  8  1  0  0  0
  8  9  1  0  0  0
  9 10  2  0  0  0
 10 11  1  0  0  0
 10 12  1  0  0  0
 12 13  1  0  0  0
 12 14  1  0  0  0
 22 17  1  0  0  0
 14  3  1  0  0  0
 25 20  1  0  0  0
 14  8  2  0  0  0
 15 16  1  0  0  0
 24 26  1  0  0  0
M  CHG 1  10   1
M  CHG 1  11  -1
M  END
> <minimizedAffinity>
-6.19127

> <minimizedRMSD>
0.49205

$$$$
P17082


 27 30  0  0  0  0  0  0  0  0999 V2000
   -7.9202    4.1410  -13.2700 N   0  0  0  0  0  0  0  0  0  0  0  0
   -7.3504    5.1367  -14.3141 C   0  0  0  0  0  0  0  0  0  0  0  0
   -6.8042    6.1592  -14.1658 O   0  0  0  0  0  0  0  0  0  0  0  0
   -8.2712    3.3027  -13.6486 H   0  0  0  0  0  0  0  0  0  0  0  0
   -7.5821    4.6736  -15.7088 C   0  0  0  0  0  0  0  0  0  0  0  0
   -8.8387    4.1785  -16.0952 C   0  0  0  0  0  0  0  0  0  0  0  0
   -9.1186    3.9108  -17.4321 C   0  0  0  0  0  0  0  0  0  0  0  0
  -10.3436    3.5083  -17.7866 F   0  0  0  0  0  0  0  0  0  0  0  0
   -8.1796    4.0905  -18.4358 C   0  0  0  0  0  0  0  0  0  0  0  0
   -6.9357    4.5733  -18.0479 C   0  0  0  0  0  0  0  0  0  0  0  0
   -5.8225    4.8961  -18.7838 N   0  0  0  0  0  0  0  0  0  0  0  0
   -4.7827    5.2991  -17.9140 N   0  0  0  0  0  0  0  0  0  0  0  0
   -3.7194    5.8197  -18.3031 O   0  0  0  0  0  0  0  0  0  0  0  0
   -5.2658    5.3488  -16.5653 N   0  0  0  0  0  0  0  0  0  0  0  0
   -6.5892    4.8724  -16.6969 C   0  0  0  0  0  0  0  0  0  0  0  0
   -5.7581    4.8536  -19.7652 H   0  0  0  0  0  0  0  0  0  0  0  0
   -9.3228    2.0879   -8.9982 C   0  0  0  0  0  0  0  0  0  0  0  0
   -8.7193    3.2308   -9.7561 C   0  0  0  0  0  0  0  0  0  0  0  0
   -8.6005    3.1839  -11.1577 C   0  0  0  0  0  0  0  0  0  0  0  0
   -8.0160    4.2402  -11.8808 C   0  0  0  0  0  0  0  0  0  0  0  0
   -7.5343    5.3623  -11.2062 C   0  0  0  0  0  0  0  0  0  0  0  0
   -7.6399    5.3975   -9.8249 C   0  0  0  0  0  0  0  0  0  0  0  0
   -8.2125    4.3487   -9.1092 C   0  0  0  0  0  0  0  0  0  0  0  0
   -8.1186    4.6541   -7.6499 C   0  0  0  0  0  0  0  0  0  0  0  0
   -7.7821    6.1036   -7.5672 N   0  0  0  0  0  0  0  0  0  0  0  0
   -7.1593    6.4405   -8.8744 C   0  0  0  0  0  0  0  0  0  0  0  0
   -7.1263    6.2747   -6.8050 H   0  0  0  0  0  0  0  0  0  0  0  0
 17 18  1  0  0  0
 18 19  2  0  0  0
 19 20  1  0  0  0
 20  1  1  0  0  0
  1  2  1  0  0  0
  2  3  2  0  0  0
  2  5  1  0  0  0
  5  6  2  0  0  0
  6  7  1  0  0  0
  7  8  1  0  0  0
  7  9  2  0  0  0
  9 10  1  0  0  0
 10 11  1  0  0  0
 11 12  1  0  0  0
 12 13  1  0  0  0
 12 14  2  0  0  0
 14 15  1  0  0  0
 20 21  2  0  0  0
 21 22  1  0  0  0
 22 23  2  0  0  0
 23 24  1  0  0  0
 24 25  1  0  0  0
 25 26  1  0  0  0
 23 18  1  0  0  0
 15  5  1  0  0  0
 26 22  1  0  0  0
 15 10  2  0  0  0
  1  4  1  0  0  0
 11 16  1  0  0  0
 25 27  1  0  0  0
M  CHG 1  12   1
M  CHG 1  13  -1
M  END
> <minimizedAffinity>
-8.47568

> <minimizedRMSD>
0.23507

$$$$
P17084


 26 29  0  0  0  0  0  0  0  0999 V2000
   -8.7348    5.0566  -14.3359 C   0  0  0  0  0  0  0  0  0  0  0  0
   -9.5136    5.9243  -14.2896 O   0  0  0  0  0  0  0  0  0  0  0  0
   -8.0585    4.2593  -13.2032 N   0  0  0  0  0  0  0  0  0  0  0  0
   -7.4879    3.5164  -13.5060 H   0  0  0  0  0  0  0  0  0  0  0  0
   -4.9409    4.9446  -16.9120 N   0  0  0  0  0  0  0  0  0  0  0  0
   -4.7018    5.1461  -15.5934 N   0  0  0  0  0  0  0  0  0  0  0  0
   -5.8516    5.1005  -14.9518 N   0  0  0  0  0  0  0  0  0  0  0  0
   -6.8343    4.8393  -15.8614 C   0  0  0  0  0  0  0  0  0  0  0  0
   -8.2188    4.7030  -15.6710 C   0  0  0  0  0  0  0  0  0  0  0  0
   -9.0247    4.3809  -16.7601 C   0  0  0  0  0  0  0  0  0  0  0  0
   -8.4491    4.2512  -18.0224 C   0  0  0  0  0  0  0  0  0  0  0  0
   -9.2448    3.9520  -19.0545 F   0  0  0  0  0  0  0  0  0  0  0  0
   -7.0788    4.4397  -18.2585 C   0  0  0  0  0  0  0  0  0  0  0  0
   -6.2848    4.7176  -17.1367 C   0  0  0  0  0  0  0  0  0  0  0  0
   -2.9923    4.8381  -18.6634 N   0  0  0  0  0  0  0  0  0  0  0  0
   -3.8244    4.9703  -17.8644 C   0  0  0  0  0  0  0  0  0  0  0  0
   -8.1234    4.4190  -11.8194 C   0  0  0  0  0  0  0  0  0  0  0  0
   -7.7160    5.6255  -11.2207 C   0  0  0  0  0  0  0  0  0  0  0  0
   -7.7276    5.7831   -9.8309 C   0  0  0  0  0  0  0  0  0  0  0  0
   -8.1597    4.7218   -9.0602 C   0  0  0  0  0  0  0  0  0  0  0  0
   -8.5611    3.5264   -9.6474 C   0  0  0  0  0  0  0  0  0  0  0  0
   -8.5454    3.3554  -11.0239 C   0  0  0  0  0  0  0  0  0  0  0  0
   -8.9323    2.5597   -8.5720 C   0  0  0  0  0  0  0  0  0  0  0  0
   -9.0663    3.3738   -7.3368 N   0  0  0  0  0  0  0  0  0  0  0  0
   -8.2619    4.5962   -7.5778 C   0  0  0  0  0  0  0  0  0  0  0  0
   -8.7048    2.8623   -6.5319 H   0  0  0  0  0  0  0  0  0  0  0  0
 15 16  3  0  0  0
 16  5  1  0  0  0
  5  6  1  0  0  0
  6  7  2  0  0  0
  7  8  1  0  0  0
  8  9  2  0  0  0
  9  1  1  0  0  0
  1  2  2  0  0  0
  1  3  1  0  0  0
  3 17  1  0  0  0
 17 18  2  0  0  0
 18 19  1  0  0  0
 19 20  2  0  0  0
 20 21  1  0  0  0
 21 22  2  0  0  0
 21 23  1  0  0  0
 23 24  1  0  0  0
 24 25  1  0  0  0
  9 10  1  0  0  0
 10 11  2  0  0  0
 11 12  1  0  0  0
 11 13  1  0  0  0
 13 14  2  0  0  0
 14  5  1  0  0  0
 14  8  1  0  0  0
 22 17  1  0  0  0
 25 20  1  0  0  0
  3  4  1  0  0  0
 24 26  1  0  0  0
M  END
> <minimizedAffinity>
-8.31924

> <minimizedRMSD>
0.76227

$$$$
P17089


 29 32  0  0  0  0  0  0  0  0999 V2000
   -8.8705    5.1808  -14.2721 C   0  0  0  0  0  0  0  0  0  0  0  0
   -9.5793    6.1017  -14.1684 O   0  0  0  0  0  0  0  0  0  0  0  0
   -8.1645    4.3366  -13.1923 N   0  0  0  0  0  0  0  0  0  0  0  0
   -7.5507    3.6507  -13.5415 H   0  0  0  0  0  0  0  0  0  0  0  0
   -8.2536    4.3863  -11.8039 C   0  0  0  0  0  0  0  0  0  0  0  0
   -7.8615    5.5373  -11.0989 C   0  0  0  0  0  0  0  0  0  0  0  0
   -7.9107    5.5661   -9.7021 C   0  0  0  0  0  0  0  0  0  0  0  0
   -7.3726    7.1219   -8.7761 Br  0  0  0  0  0  0  0  0  0  0  0  0
   -8.3672    4.4493   -9.0295 C   0  0  0  0  0  0  0  0  0  0  0  0
   -8.7525    3.3106   -9.7327 C   0  0  0  0  0  0  0  0  0  0  0  0
   -8.6935    3.2582  -11.1153 C   0  0  0  0  0  0  0  0  0  0  0  0
   -9.1763    2.2537   -8.7669 C   0  0  0  0  0  0  0  0  0  0  0  0
   -9.3684    2.9641   -7.4797 N   0  0  0  0  0  0  0  0  0  0  0  0
   -8.5317    4.1835   -7.5705 C   0  0  0  0  0  0  0  0  0  0  0  0
   -9.0633    2.3798   -6.7013 H   0  0  0  0  0  0  0  0  0  0  0  0
   -5.4032    4.9955  -17.2665 N   0  0  0  0  0  0  0  0  0  0  0  0
   -5.0103    5.4008  -16.0360 N   0  0  0  0  0  0  0  0  0  0  0  0
   -6.0561    5.3145  -15.2386 N   0  0  0  0  0  0  0  0  0  0  0  0
   -7.1325    4.9334  -15.9906 C   0  0  0  0  0  0  0  0  0  0  0  0
   -8.4771    4.7761  -15.6349 C   0  0  0  0  0  0  0  0  0  0  0  0
   -9.3911    4.3872  -16.6150 C   0  0  0  0  0  0  0  0  0  0  0  0
   -8.9750    4.2310  -17.9367 C   0  0  0  0  0  0  0  0  0  0  0  0
   -9.8866    3.9427  -18.8755 F   0  0  0  0  0  0  0  0  0  0  0  0
   -7.6449    4.3983  -18.3269 C   0  0  0  0  0  0  0  0  0  0  0  0
   -6.7442    4.7335  -17.3119 C   0  0  0  0  0  0  0  0  0  0  0  0
   -4.4582    5.0517  -18.3650 C   0  0  0  0  0  0  0  0  0  0  0  0
   -2.3191    4.1789  -19.0138 C   0  0  0  0  0  0  0  0  0  0  0  0
   -3.1859    4.4928  -17.8960 N   0  0  0  0  0  0  0  0  0  0  0  0
   -2.7227    5.1741  -17.2946 H   0  0  0  0  0  0  0  0  0  0  0  0
 27 28  1  0  0  0
 28 26  1  0  0  0
 26 16  1  0  0  0
 16 17  1  0  0  0
 17 18  2  0  0  0
 18 19  1  0  0  0
 19 20  2  0  0  0
 20  1  1  0  0  0
  1  2  2  0  0  0
  1  3  1  0  0  0
  3  5  1  0  0  0
  5  6  2  0  0  0
  6  7  1  0  0  0
  7  8  1  0  0  0
  7  9  2  0  0  0
  9 10  1  0  0  0
 10 11  2  0  0  0
 10 12  1  0  0  0
 12 13  1  0  0  0
 13 14  1  0  0  0
 20 21  1  0  0  0
 21 22  2  0  0  0
 22 23  1  0  0  0
 22 24  1  0  0  0
 24 25  2  0  0  0
 25 16  1  0  0  0
 25 19  1  0  0  0
 11  5  1  0  0  0
 14  9  1  0  0  0
 28 29  1  0  0  0
  3  4  1  0  0  0
 13 15  1  0  0  0
M  END
> <minimizedAffinity>
-8.02824

> <minimizedRMSD>
0.88911

$$$$
P17091


 28 31  0  0  0  0  0  0  0  0999 V2000
   -4.9924    5.2492  -17.9799 N   0  0  0  0  0  0  0  0  0  0  0  0
   -5.8846    4.7879  -18.8702 N   0  0  0  0  0  0  0  0  0  0  0  0
   -6.9606    4.5473  -18.1107 C   0  0  0  0  0  0  0  0  0  0  0  0
   -8.2102    4.0507  -18.5059 C   0  0  0  0  0  0  0  0  0  0  0  0
   -9.1188    3.8949  -17.4596 C   0  0  0  0  0  0  0  0  0  0  0  0
  -10.3507    3.4653  -17.7573 F   0  0  0  0  0  0  0  0  0  0  0  0
   -8.8303    4.1881  -16.1082 C   0  0  0  0  0  0  0  0  0  0  0  0
   -7.5868    4.6989  -15.6820 C   0  0  0  0  0  0  0  0  0  0  0  0
   -6.6345    4.8830  -16.7107 C   0  0  0  0  0  0  0  0  0  0  0  0
   -5.3654    5.3339  -16.6867 N   0  0  0  0  0  0  0  0  0  0  0  0
   -7.3649    5.1358  -14.2863 C   0  0  0  0  0  0  0  0  0  0  0  0
   -6.7932    6.1382  -14.1028 O   0  0  0  0  0  0  0  0  0  0  0  0
   -8.0566    4.1745  -13.2833 N   0  0  0  0  0  0  0  0  0  0  0  0
   -8.5416    3.4249  -13.6982 H   0  0  0  0  0  0  0  0  0  0  0  0
   -8.1027    4.1999  -11.8882 C   0  0  0  0  0  0  0  0  0  0  0  0
   -7.6429    5.3064  -11.1585 C   0  0  0  0  0  0  0  0  0  0  0  0
   -7.7209    5.3243   -9.7595 C   0  0  0  0  0  0  0  0  0  0  0  0
   -8.2553    4.2228   -9.1128 C   0  0  0  0  0  0  0  0  0  0  0  0
   -8.7105    3.1273   -9.8315 C   0  0  0  0  0  0  0  0  0  0  0  0
   -8.6459    3.0995  -11.2167 C   0  0  0  0  0  0  0  0  0  0  0  0
   -9.2408    2.0964   -8.8936 C   0  0  0  0  0  0  0  0  0  0  0  0
   -9.0185    2.6184   -7.5249 N   0  0  0  0  0  0  0  0  0  0  0  0
   -8.4624    3.9814   -7.6560 C   0  0  0  0  0  0  0  0  0  0  0  0
   -8.3601    2.0198   -7.0262 H   0  0  0  0  0  0  0  0  0  0  0  0
   -3.6067    5.5270  -18.3859 C   0  0  0  0  0  0  0  0  0  0  0  0
   -3.4230    7.7637  -19.3051 C   0  0  0  0  0  0  0  0  0  0  0  0
   -3.5751    6.3427  -19.6225 N   0  0  0  0  0  0  0  0  0  0  0  0
   -2.4660    5.8905  -20.4629 C   0  0  0  0  0  0  0  0  0  0  0  0
 26 27  1  0  0  0
 27 28  1  0  0  0
 27 25  1  0  0  0
 25  1  1  0  0  0
  1  2  1  0  0  0
  2  3  2  0  0  0
  3  4  1  0  0  0
  4  5  2  0  0  0
  5  6  1  0  0  0
  5  7  1  0  0  0
  7  8  2  0  0  0
  8 11  1  0  0  0
 11 12  2  0  0  0
 11 13  1  0  0  0
 13 15  1  0  0  0
 15 16  2  0  0  0
 16 17  1  0  0  0
 17 18  2  0  0  0
 18 19  1  0  0  0
 19 20  2  0  0  0
 19 21  1  0  0  0
 21 22  1  0  0  0
 22 23  1  0  0  0
  8  9  1  0  0  0
  9 10  2  0  0  0
 10  1  1  0  0  0
  9  3  1  0  0  0
 20 15  1  0  0  0
 23 18  1  0  0  0
 13 14  1  0  0  0
 22 24  1  0  0  0
M  END
> <minimizedAffinity>
-8.41860

> <minimizedRMSD>
0.38123

$$$$
P17093


 29 32  0  0  0  0  0  0  0  0999 V2000
   -8.5649    4.9745  -14.2397 C   0  0  0  0  0  0  0  0  0  0  0  0
   -9.4394    5.7437  -14.1595 O   0  0  0  0  0  0  0  0  0  0  0  0
   -7.7873    4.2213  -13.1342 N   0  0  0  0  0  0  0  0  0  0  0  0
   -7.0333    3.6774  -13.4582 H   0  0  0  0  0  0  0  0  0  0  0  0
   -7.9822    4.1872  -11.7433 C   0  0  0  0  0  0  0  0  0  0  0  0
   -8.6006    3.0544  -11.1954 C   0  0  0  0  0  0  0  0  0  0  0  0
   -8.8182    3.0023   -9.8237 C   0  0  0  0  0  0  0  0  0  0  0  0
   -8.4155    4.0359   -8.9844 C   0  0  0  0  0  0  0  0  0  0  0  0
   -7.7778    5.1492   -9.4951 C   0  0  0  0  0  0  0  0  0  0  0  0
   -7.5703    5.2197  -10.8761 C   0  0  0  0  0  0  0  0  0  0  0  0
   -6.9388    6.3090  -11.3303 F   0  0  0  0  0  0  0  0  0  0  0  0
   -8.7732    3.6908   -7.5769 C   0  0  0  0  0  0  0  0  0  0  0  0
   -9.7194    2.5595   -7.6811 N   0  0  0  0  0  0  0  0  0  0  0  0
   -9.4437    1.9244   -8.9963 C   0  0  0  0  0  0  0  0  0  0  0  0
  -10.6815    2.8960   -7.6434 H   0  0  0  0  0  0  0  0  0  0  0  0
   -5.0199    5.2473  -17.1832 N   0  0  0  0  0  0  0  0  0  0  0  0
   -4.6539    5.5835  -15.9293 N   0  0  0  0  0  0  0  0  0  0  0  0
   -5.7027    5.3997  -15.1468 N   0  0  0  0  0  0  0  0  0  0  0  0
   -6.7419    4.9567  -15.9191 C   0  0  0  0  0  0  0  0  0  0  0  0
   -8.0701    4.6533  -15.5929 C   0  0  0  0  0  0  0  0  0  0  0  0
   -8.9241    4.2205  -16.6108 C   0  0  0  0  0  0  0  0  0  0  0  0
   -8.4674    4.1271  -17.9239 C   0  0  0  0  0  0  0  0  0  0  0  0
   -9.3122    3.7478  -18.8873 F   0  0  0  0  0  0  0  0  0  0  0  0
   -7.1617    4.4413  -18.2833 C   0  0  0  0  0  0  0  0  0  0  0  0
   -6.3246    4.8467  -17.2430 C   0  0  0  0  0  0  0  0  0  0  0  0
   -4.0889    5.3606  -18.2895 C   0  0  0  0  0  0  0  0  0  0  0  0
   -1.6984    5.6443  -18.4536 C   0  0  0  0  0  0  0  0  0  0  0  0
   -2.7740    4.8294  -17.9098 N   0  0  0  0  0  0  0  0  0  0  0  0
   -2.7011    4.8185  -16.8925 H   0  0  0  0  0  0  0  0  0  0  0  0
 27 28  1  0  0  0
 28 26  1  0  0  0
 26 16  1  0  0  0
 16 17  1  0  0  0
 17 18  2  0  0  0
 18 19  1  0  0  0
 19 20  2  0  0  0
 20  1  1  0  0  0
  1  2  2  0  0  0
  1  3  1  0  0  0
  3  5  1  0  0  0
  5  6  2  0  0  0
  6  7  1  0  0  0
  7  8  2  0  0  0
  8  9  1  0  0  0
  9 10  2  0  0  0
 10 11  1  0  0  0
  8 12  1  0  0  0
 12 13  1  0  0  0
 13 14  1  0  0  0
 20 21  1  0  0  0
 21 22  2  0  0  0
 22 23  1  0  0  0
 22 24  1  0  0  0
 24 25  2  0  0  0
 25 16  1  0  0  0
 25 19  1  0  0  0
 10  5  1  0  0  0
 14  7  1  0  0  0
 28 29  1  0  0  0
  3  4  1  0  0  0
 13 15  1  0  0  0
M  END
> <minimizedAffinity>
-8.62868

> <minimizedRMSD>
0.96943

$$$$
P17099


 31 35  0  0  0  0  0  0  0  0999 V2000
   -7.5997    4.5209  -15.9526 C   0  0  0  0  0  0  0  0  0  0  0  0
   -8.9040    4.0587  -16.1899 C   0  0  0  0  0  0  0  0  0  0  0  0
   -9.3398    3.7983  -17.4918 C   0  0  0  0  0  0  0  0  0  0  0  0
  -10.6068    3.4180  -17.6896 F   0  0  0  0  0  0  0  0  0  0  0  0
   -8.5042    3.9699  -18.5842 C   0  0  0  0  0  0  0  0  0  0  0  0
   -7.2427    4.4730  -18.3442 C   0  0  0  0  0  0  0  0  0  0  0  0
   -6.7809    4.7488  -17.0564 C   0  0  0  0  0  0  0  0  0  0  0  0
   -5.4259    5.1612  -17.1223 N   0  0  0  0  0  0  0  0  0  0  0  0
   -5.2175    5.4690  -18.5536 C   0  0  0  0  0  0  0  0  0  0  0  0
   -3.8034    5.0568  -18.9748 C   0  0  0  0  0  0  0  0  0  0  0  0
   -3.4672    5.5478  -20.3740 C   0  0  0  0  0  0  0  0  0  0  0  0
   -3.6505    6.9599  -20.4688 O   0  0  0  0  0  0  0  0  0  0  0  0
   -5.0050    7.3318  -20.2335 C   0  0  0  0  0  0  0  0  0  0  0  0
   -5.4155    6.9724  -18.8156 C   0  0  0  0  0  0  0  0  0  0  0  0
   -6.2315    4.7018  -19.3255 N   0  0  0  0  0  0  0  0  0  0  0  0
   -4.7752    5.2274  -16.3864 H   0  0  0  0  0  0  0  0  0  0  0  0
   -6.2106    4.4235  -20.2696 H   0  0  0  0  0  0  0  0  0  0  0  0
   -6.4361    5.7851  -14.4373 O   0  0  0  0  0  0  0  0  0  0  0  0
   -7.2276    4.9312  -14.5654 C   0  0  0  0  0  0  0  0  0  0  0  0
   -8.0769    4.1750  -13.5018 N   0  0  0  0  0  0  0  0  0  0  0  0
   -8.7350    3.5436  -13.8726 H   0  0  0  0  0  0  0  0  0  0  0  0
   -8.0568    4.2471  -12.1047 C   0  0  0  0  0  0  0  0  0  0  0  0
   -7.6642    5.4135  -11.4315 C   0  0  0  0  0  0  0  0  0  0  0  0
   -7.7286    5.4921  -10.0322 C   0  0  0  0  0  0  0  0  0  0  0  0
   -8.1822    4.3907   -9.3277 C   0  0  0  0  0  0  0  0  0  0  0  0
   -8.5546    3.2254   -9.9871 C   0  0  0  0  0  0  0  0  0  0  0  0
   -8.5051    3.1393  -11.3710 C   0  0  0  0  0  0  0  0  0  0  0  0
   -8.9404    2.1953   -8.9737 C   0  0  0  0  0  0  0  0  0  0  0  0
   -9.1263    2.9483   -7.7068 N   0  0  0  0  0  0  0  0  0  0  0  0
   -8.3329    4.1860   -7.8564 C   0  0  0  0  0  0  0  0  0  0  0  0
   -8.7868    2.4018   -6.9153 H   0  0  0  0  0  0  0  0  0  0  0  0
 18 19  2  0  0  0
 19 20  1  0  0  0
 20 22  1  0  0  0
 22 23  2  0  0  0
 23 24  1  0  0  0
 24 25  2  0  0  0
 25 26  1  0  0  0
 26 27  2  0  0  0
 26 28  1  0  0  0
 28 29  1  0  0  0
 29 30  1  0  0  0
 19  1  1  0  0  0
  1  2  2  0  0  0
  2  3  1  0  0  0
  3  4  1  0  0  0
  3  5  2  0  0  0
  5  6  1  0  0  0
  6  7  2  0  0  0
  7  8  1  0  0  0
  8  9  1  0  0  0
  9 10  1  0  0  0
 10 11  1  0  0  0
 11 12  1  0  0  0
 12 13  1  0  0  0
 13 14  1  0  0  0
  9 15  1  0  0  0
 27 22  1  0  0  0
  7  1  1  0  0  0
 14  9  1  0  0  0
 30 25  1  0  0  0
 15  6  1  0  0  0
 20 21  1  0  0  0
 29 31  1  0  0  0
  8 16  1  0  0  0
 15 17  1  0  0  0
M  END
> <minimizedAffinity>
-9.82178

> <minimizedRMSD>
0.66334

$$$$
P17115


 49 53  0  0  0  0  0  0  0  0999 V2000
   -7.0919    4.7891  -15.2574 C   0  0  0  0  0  0  0  0  0  0  0  0
   -8.2914    4.5075  -15.9503 C   0  0  0  0  0  0  0  0  0  0  0  0
   -8.3349    4.4218  -17.3402 C   0  0  0  0  0  0  0  0  0  0  0  0
   -9.8232    4.0604  -18.1087 Cl  0  0  0  0  0  0  0  0  0  0  0  0
   -7.2085    4.6400  -18.1263 C   0  0  0  0  0  0  0  0  0  0  0  0
   -6.0228    4.9489  -17.4560 C   0  0  0  0  0  0  0  0  0  0  0  0
   -5.9434    5.0240  -16.0655 C   0  0  0  0  0  0  0  0  0  0  0  0
   -4.5855    5.3504  -15.8228 C   0  0  0  0  0  0  0  0  0  0  0  0
   -3.8642    5.4649  -16.9383 N   0  0  0  0  0  0  0  0  0  0  0  0
   -4.7529    5.2072  -17.9144 N   0  0  0  0  0  0  0  0  0  0  0  0
   -7.0163    4.8076  -13.7243 C   0  0  0  0  0  0  0  0  0  0  0  0
   -4.4154    6.9805  -11.8153 C   0  0  0  0  0  0  0  0  0  0  0  0
   -5.2495    6.0361  -12.5007 N   0  0  0  0  0  0  0  0  0  0  0  0
   -6.4882    6.2166  -13.2271 C   0  0  0  0  0  0  0  0  0  0  0  0
   -7.0915    7.2145  -13.5082 O   0  0  0  0  0  0  0  0  0  0  0  0
   -4.9241    5.1073  -12.4721 H   0  0  0  0  0  0  0  0  0  0  0  0
   -8.3147    4.4362  -13.0912 N   0  0  0  0  0  0  0  0  0  0  0  0
   -9.1368    4.3244  -13.6211 H   0  0  0  0  0  0  0  0  0  0  0  0
   -8.3018    4.2536  -11.6938 C   0  0  0  0  0  0  0  0  0  0  0  0
   -8.4984    2.9681  -11.1445 C   0  0  0  0  0  0  0  0  0  0  0  0
   -8.5237    2.7560   -9.7589 C   0  0  0  0  0  0  0  0  0  0  0  0
   -8.3397    3.8444   -8.9294 C   0  0  0  0  0  0  0  0  0  0  0  0
   -8.1196    5.0929   -9.4643 C   0  0  0  0  0  0  0  0  0  0  0  0
   -8.0977    5.3316  -10.8276 C   0  0  0  0  0  0  0  0  0  0  0  0
   -7.9553    6.0462   -8.3773 C   0  0  0  0  0  0  0  0  0  0  0  0
   -7.6979    7.2289   -8.4766 O   0  0  0  0  0  0  0  0  0  0  0  0
   -8.1298    5.3484   -7.2150 O   0  0  0  0  0  0  0  0  0  0  0  0
   -8.3546    3.9384   -7.4580 C   0  0  0  0  0  0  0  0  0  0  0  0
   -4.2809    5.1026  -19.2802 C   0  0  0  0  0  0  0  0  0  0  0  0
   -4.7210    6.2503  -20.1846 C   0  0  0  0  0  0  0  0  0  0  0  0
   -4.7381    5.7755  -21.6413 C   0  0  0  0  0  0  0  0  0  0  0  0
   -5.2480    6.8066  -22.6168 C   0  0  0  0  0  0  0  0  0  0  0  0
   -5.6602    6.4210  -23.9006 C   0  0  0  0  0  0  0  0  0  0  0  0
   -6.0787    7.3634  -24.8427 C   0  0  0  0  0  0  0  0  0  0  0  0
   -6.1080    8.7143  -24.4902 C   0  0  0  0  0  0  0  0  0  0  0  0
   -5.7209    9.1156  -23.2076 C   0  0  0  0  0  0  0  0  0  0  0  0
   -5.2808    8.1639  -22.2812 C   0  0  0  0  0  0  0  0  0  0  0  0
   -6.4585    6.9059  -26.1090 N   0  0  0  0  0  0  0  0  0  0  0  0
   -7.5834    7.2554  -26.9438 C   0  0  0  0  0  0  0  0  0  0  0  0
   -7.5774    6.3792  -28.1789 C   0  0  0  0  0  0  0  0  0  0  0  0
   -8.4366    8.0837  -26.8006 O   0  0  0  0  0  0  0  0  0  0  0  0
   -5.8562    6.2306  -26.4969 H   0  0  0  0  0  0  0  0  0  0  0  0
   -5.7504   10.4478  -22.7957 N   0  0  0  0  0  0  0  0  0  0  0  0
   -6.3465   11.6142  -23.4036 C   0  0  0  0  0  0  0  0  0  0  0  0
   -6.9013   11.7511  -24.4568 O   0  0  0  0  0  0  0  0  0  0  0  0
   -5.2857   10.6228  -21.9456 H   0  0  0  0  0  0  0  0  0  0  0  0
   -6.1879   12.8048  -22.4387 C   0  0  0  0  0  0  0  0  0  0  0  0
   -5.0171   12.7232  -21.6240 O   0  0  0  0  0  0  0  0  0  0  0  0
   -3.9937   13.6050  -22.0802 C   0  0  0  0  0  0  0  0  0  0  0  0
 12 13  1  0  0  0
 13 14  1  0  0  0
 14 15  2  0  0  0
 14 11  1  0  0  0
 11 17  1  0  0  0
 17 19  1  0  0  0
 19 20  2  0  0  0
 20 21  1  0  0  0
 21 22  2  0  0  0
 22 23  1  0  0  0
 23 24  2  0  0  0
 23 25  1  0  0  0
 25 26  2  0  0  0
 25 27  1  0  0  0
 27 28  1  0  0  0
 11  1  1  0  0  0
  1  2  2  0  0  0
  2  3  1  0  0  0
  3  4  1  0  0  0
  3  5  2  0  0  0
  5  6  1  0  0  0
  6  7  2  0  0  0
  7  8  1  0  0  0
  8  9  2  0  0  0
  9 10  1  0  0  0
 10 29  1  0  0  0
 29 30  1  0  0  0
 30 31  1  0  0  0
 31 32  1  0  0  0
 32 33  2  0  0  0
 33 34  1  0  0  0
 34 38  1  0  0  0
 38 39  1  0  0  0
 39 40  1  0  0  0
 39 41  2  0  0  0
 34 35  2  0  0  0
 35 36  1  0  0  0
 36 43  1  0  0  0
 43 44  1  0  0  0
 44 45  2  0  0  0
 44 47  1  0  0  0
 47 48  1  0  0  0
 48 49  1  0  0  0
 36 37  2  0  0  0
 24 19  1  0  0  0
  7  1  1  0  0  0
 37 32  1  0  0  0
 28 22  1  0  0  0
 10  6  1  0  0  0
 13 16  1  0  0  0
 17 18  1  0  0  0
 38 42  1  0  0  0
 43 46  1  0  0  0
M  END
> <minimizedAffinity>
-7.62052

> <minimizedRMSD>
0.66477

$$$$
P17120


 35 38  0  0  0  0  0  0  0  0999 V2000
   -8.2333    5.3814  -14.1112 C   0  0  0  0  0  0  0  0  0  0  0  0
   -9.5926    5.7499  -13.8684 O   0  0  0  0  0  0  0  0  0  0  0  0
   -9.7016    5.9858  -12.9339 H   0  0  0  0  0  0  0  0  0  0  0  0
   -8.1063    5.0151  -15.6058 C   0  0  0  0  0  0  0  0  0  0  0  0
   -9.3013    4.7040  -16.3129 C   0  0  0  0  0  0  0  0  0  0  0  0
   -9.3441    4.5207  -17.6918 C   0  0  0  0  0  0  0  0  0  0  0  0
  -10.8569    4.4115  -18.4850 Cl  0  0  0  0  0  0  0  0  0  0  0  0
   -8.1882    4.5280  -18.4501 C   0  0  0  0  0  0  0  0  0  0  0  0
   -6.9972    4.7351  -17.7618 C   0  0  0  0  0  0  0  0  0  0  0  0
   -5.7169    4.7742  -18.2425 N   0  0  0  0  0  0  0  0  0  0  0  0
   -4.7958    5.0197  -17.2972 N   0  0  0  0  0  0  0  0  0  0  0  0
   -5.5233    5.1405  -16.1828 C   0  0  0  0  0  0  0  0  0  0  0  0
   -6.9171    4.9737  -16.3881 C   0  0  0  0  0  0  0  0  0  0  0  0
   -5.4924    4.6356  -19.1910 H   0  0  0  0  0  0  0  0  0  0  0  0
   -4.7282    6.7846  -12.8839 C   0  0  0  0  0  0  0  0  0  0  0  0
   -5.8864    6.1035  -13.3808 N   0  0  0  0  0  0  0  0  0  0  0  0
   -7.2993    6.6418  -13.7303 C   0  0  0  0  0  0  0  0  0  0  0  0
   -7.7121    7.7360  -13.7398 O   0  0  0  0  0  0  0  0  0  0  0  0
   -5.7665    5.1368  -13.5238 H   0  0  0  0  0  0  0  0  0  0  0  0
   -7.9151    4.1953  -13.2929 N   0  0  0  0  0  0  0  0  0  0  0  0
   -7.7044    3.3519  -13.7550 H   0  0  0  0  0  0  0  0  0  0  0  0
   -7.8975    4.2080  -11.8841 C   0  0  0  0  0  0  0  0  0  0  0  0
   -8.4057    5.2762  -11.1235 C   0  0  0  0  0  0  0  0  0  0  0  0
   -8.3444    5.2167   -9.7391 C   0  0  0  0  0  0  0  0  0  0  0  0
   -7.8551    4.1294   -9.0623 C   0  0  0  0  0  0  0  0  0  0  0  0
   -7.3045    3.0778   -9.7585 C   0  0  0  0  0  0  0  0  0  0  0  0
   -7.2562    3.1612  -11.1634 C   0  0  0  0  0  0  0  0  0  0  0  0
   -7.9616    4.3541   -7.6116 C   0  0  0  0  0  0  0  0  0  0  0  0
   -8.4613    5.7095   -7.5302 O   0  0  0  0  0  0  0  0  0  0  0  0
   -8.6945    6.2433   -8.7690 C   0  0  0  0  0  0  0  0  0  0  0  0
   -9.0857    7.3674   -9.0108 O   0  0  0  0  0  0  0  0  0  0  0  0
   -6.1216    2.0295  -11.9709 S   0  0  0  0  0  0  0  0  0  0  0  0
   -4.7018    2.9941  -12.3964 C   0  0  0  0  0  0  0  0  0  0  0  0
   -6.7330    1.6011  -13.2139 O   0  0  0  0  0  0  0  0  0  0  0  0
   -5.6361    1.0913  -10.9726 O   0  0  0  0  0  0  0  0  0  0  0  0
 15 16  1  0  0  0
 16 17  1  0  0  0
 17 18  2  0  0  0
 17  1  1  0  0  0
  1  2  1  0  0  0
  1 20  1  0  0  0
 20 22  1  0  0  0
 22 23  2  0  0  0
 23 24  1  0  0  0
 24 25  2  0  0  0
 25 26  1  0  0  0
 26 27  2  0  0  0
 27 32  1  0  0  0
 32 33  1  0  0  0
 32 34  2  0  0  0
 32 35  2  0  0  0
 25 28  1  0  0  0
 28 29  1  0  0  0
 29 30  1  0  0  0
 30 31  2  0  0  0
  1  4  1  0  0  0
  4  5  2  0  0  0
  5  6  1  0  0  0
  6  7  1  0  0  0
  6  8  2  0  0  0
  8  9  1  0  0  0
  9 10  1  0  0  0
 10 11  1  0  0  0
 11 12  2  0  0  0
 12 13  1  0  0  0
 27 22  1  0  0  0
 13  4  1  0  0  0
 30 24  1  0  0  0
 13  9  2  0  0  0
 16 19  1  0  0  0
  2  3  1  0  0  0
 20 21  1  0  0  0
 10 14  1  0  0  0
M  END
> <minimizedAffinity>
-7.98872

> <minimizedRMSD>
0.39117

$$$$
P17137


 31 34  0  0  0  0  0  0  0  0999 V2000
   -7.0225    5.0426  -13.7704 C   0  0  0  0  0  0  0  0  0  0  0  0
   -5.7334    4.5486  -13.4787 O   0  0  0  0  0  0  0  0  0  0  0  0
   -5.5357    4.6952  -12.5404 H   0  0  0  0  0  0  0  0  0  0  0  0
   -7.2626    4.7752  -15.2683 C   0  0  0  0  0  0  0  0  0  0  0  0
   -8.5261    4.3801  -15.7751 C   0  0  0  0  0  0  0  0  0  0  0  0
   -8.7514    4.1970  -17.1443 C   0  0  0  0  0  0  0  0  0  0  0  0
  -10.3334    3.9604  -17.7459 Cl  0  0  0  0  0  0  0  0  0  0  0  0
   -7.7433    4.3435  -18.0838 C   0  0  0  0  0  0  0  0  0  0  0  0
   -6.5238    4.7917  -17.6017 C   0  0  0  0  0  0  0  0  0  0  0  0
   -5.3812    5.1260  -18.2731 N   0  0  0  0  0  0  0  0  0  0  0  0
   -4.3924    5.5693  -17.4802 N   0  0  0  0  0  0  0  0  0  0  0  0
   -4.9249    5.4883  -16.2558 C   0  0  0  0  0  0  0  0  0  0  0  0
   -6.2633    5.0165  -16.2546 C   0  0  0  0  0  0  0  0  0  0  0  0
   -5.2913    5.0487  -19.2504 H   0  0  0  0  0  0  0  0  0  0  0  0
   -9.3768    8.1667  -13.1013 C   0  0  0  0  0  0  0  0  0  0  0  0
   -8.6924    6.9447  -13.4072 N   0  0  0  0  0  0  0  0  0  0  0  0
   -7.1685    6.6486  -13.5593 C   0  0  0  0  0  0  0  0  0  0  0  0
   -6.2488    7.3734  -13.5340 O   0  0  0  0  0  0  0  0  0  0  0  0
   -9.2795    6.1662  -13.5433 H   0  0  0  0  0  0  0  0  0  0  0  0
   -7.9780    4.2862  -12.9182 N   0  0  0  0  0  0  0  0  0  0  0  0
   -8.6702    3.7476  -13.3655 H   0  0  0  0  0  0  0  0  0  0  0  0
   -7.9529    4.2935  -11.5092 C   0  0  0  0  0  0  0  0  0  0  0  0
   -7.4790    5.3840  -10.7430 C   0  0  0  0  0  0  0  0  0  0  0  0
   -7.6225    5.4492   -9.3506 C   0  0  0  0  0  0  0  0  0  0  0  0
   -8.2352    4.3977   -8.7094 C   0  0  0  0  0  0  0  0  0  0  0  0
   -8.6759    3.3120   -9.4292 C   0  0  0  0  0  0  0  0  0  0  0  0
   -8.5726    3.2407  -10.8151 C   0  0  0  0  0  0  0  0  0  0  0  0
   -9.2807    2.3680   -8.4954 C   0  0  0  0  0  0  0  0  0  0  0  0
   -9.7696    1.2931   -8.7640 O   0  0  0  0  0  0  0  0  0  0  0  0
   -9.2553    2.9570   -7.2617 O   0  0  0  0  0  0  0  0  0  0  0  0
   -8.5417    4.2029   -7.2805 C   0  0  0  0  0  0  0  0  0  0  0  0
 15 16  1  0  0  0
 16 17  1  0  0  0
 17 18  2  0  0  0
 17  1  1  0  0  0
  1  2  1  0  0  0
  1 20  1  0  0  0
 20 22  1  0  0  0
 22 23  2  0  0  0
 23 24  1  0  0  0
 24 25  2  0  0  0
 25 26  1  0  0  0
 26 27  2  0  0  0
 26 28  1  0  0  0
 28 29  2  0  0  0
 28 30  1  0  0  0
 30 31  1  0  0  0
  1  4  1  0  0  0
  4  5  2  0  0  0
  5  6  1  0  0  0
  6  7  1  0  0  0
  6  8  2  0  0  0
  8  9  1  0  0  0
  9 10  1  0  0  0
 10 11  1  0  0  0
 11 12  2  0  0  0
 12 13  1  0  0  0
 27 22  1  0  0  0
 13  4  1  0  0  0
 31 25  1  0  0  0
 13  9  2  0  0  0
 16 19  1  0  0  0
  2  3  1  0  0  0
 20 21  1  0  0  0
 10 14  1  0  0  0
M  END
> <minimizedAffinity>
-8.02120

> <minimizedRMSD>
0.33408

$$$$
P17139


 33 36  0  0  0  0  0  0  0  0999 V2000
   -7.5011    5.3864  -13.5745 C   0  0  0  0  0  0  0  0  0  0  0  0
   -6.1655    5.0483  -13.2540 O   0  0  0  0  0  0  0  0  0  0  0  0
   -6.0087    5.2096  -12.3104 H   0  0  0  0  0  0  0  0  0  0  0  0
   -7.6516    5.0987  -15.0797 C   0  0  0  0  0  0  0  0  0  0  0  0
   -8.7603    4.4402  -15.6500 C   0  0  0  0  0  0  0  0  0  0  0  0
   -8.9033    4.3087  -17.0487 C   0  0  0  0  0  0  0  0  0  0  0  0
  -10.3201    3.6317  -17.7368 Cl  0  0  0  0  0  0  0  0  0  0  0  0
   -7.9523    4.8155  -17.9185 C   0  0  0  0  0  0  0  0  0  0  0  0
   -6.8828    5.4991  -17.3762 C   0  0  0  0  0  0  0  0  0  0  0  0
   -6.7212    5.6168  -15.9942 C   0  0  0  0  0  0  0  0  0  0  0  0
   -5.4284    6.3383  -15.7466 C   0  0  0  0  0  0  0  0  0  0  0  0
   -5.1093    6.9921  -17.0175 N   0  0  0  0  0  0  0  0  0  0  0  0
   -3.7035    7.2446  -17.2372 C   0  0  0  0  0  0  0  0  0  0  0  0
   -5.7900    6.1915  -18.1045 N   0  0  0  0  0  0  0  0  0  0  0  0
   -4.9224    5.1842  -18.7704 C   0  0  0  0  0  0  0  0  0  0  0  0
   -6.2783    7.1152  -18.9534 O   0  0  0  0  0  0  0  0  0  0  0  0
  -10.3009    8.2083  -13.4125 C   0  0  0  0  0  0  0  0  0  0  0  0
   -9.4260    7.0820  -13.5577 N   0  0  0  0  0  0  0  0  0  0  0  0
   -7.8828    6.9723  -13.3856 C   0  0  0  0  0  0  0  0  0  0  0  0
   -7.0830    7.8004  -13.1751 O   0  0  0  0  0  0  0  0  0  0  0  0
   -9.8739    6.2414  -13.8067 H   0  0  0  0  0  0  0  0  0  0  0  0
   -8.3670    4.5309  -12.7283 N   0  0  0  0  0  0  0  0  0  0  0  0
   -9.0071    3.9219  -13.1628 H   0  0  0  0  0  0  0  0  0  0  0  0
   -8.3016    4.5628  -11.3147 C   0  0  0  0  0  0  0  0  0  0  0  0
   -8.0355    5.7439  -10.5800 C   0  0  0  0  0  0  0  0  0  0  0  0
   -8.1062    5.8068   -9.1846 C   0  0  0  0  0  0  0  0  0  0  0  0
   -8.4447    4.6649   -8.5003 C   0  0  0  0  0  0  0  0  0  0  0  0
   -8.7045    3.4966   -9.1796 C   0  0  0  0  0  0  0  0  0  0  0  0
   -8.6533    3.4196  -10.5730 C   0  0  0  0  0  0  0  0  0  0  0  0
   -9.0850    2.4883   -8.1854 C   0  0  0  0  0  0  0  0  0  0  0  0
   -9.4228    1.3415   -8.3776 O   0  0  0  0  0  0  0  0  0  0  0  0
   -9.0583    3.1004   -6.9606 O   0  0  0  0  0  0  0  0  0  0  0  0
   -8.6079    4.4560   -7.0515 C   0  0  0  0  0  0  0  0  0  0  0  0
 17 18  1  0  0  0
 18 19  1  0  0  0
 19 20  2  0  0  0
 19  1  1  0  0  0
  1  2  1  0  0  0
  1 22  1  0  0  0
 22 24  1  0  0  0
 24 25  2  0  0  0
 25 26  1  0  0  0
 26 27  2  0  0  0
 27 28  1  0  0  0
 28 29  2  0  0  0
 28 30  1  0  0  0
 30 31  2  0  0  0
 30 32  1  0  0  0
 32 33  1  0  0  0
  1  4  1  0  0  0
  4  5  2  0  0  0
  5  6  1  0  0  0
  6  7  1  0  0  0
  6  8  2  0  0  0
  8  9  1  0  0  0
  9 10  2  0  0  0
 10 11  1  0  0  0
 11 12  1  0  0  0
 12 13  1  0  0  0
 12 14  1  0  0  0
 14 15  1  0  0  0
 14 16  1  0  0  0
 29 24  1  0  0  0
 10  4  1  0  0  0
 33 27  1  0  0  0
 14  9  1  0  0  0
 18 21  1  0  0  0
  2  3  1  0  0  0
 22 23  1  0  0  0
M  CHG 1  14   1
M  CHG 1  16  -1
M  END
> <minimizedAffinity>
-7.74398

> <minimizedRMSD>
0.60189

$$$$
P17143


 34 37  0  0  0  0  0  0  0  0999 V2000
   -7.2793    5.0882  -14.5103 C   0  0  0  0  0  0  0  0  0  0  0  0
   -7.1290    6.4930  -14.6173 O   0  0  0  0  0  0  0  0  0  0  0  0
   -6.9552    6.8673  -13.7395 H   0  0  0  0  0  0  0  0  0  0  0  0
   -7.5421    4.6995  -15.9789 C   0  0  0  0  0  0  0  0  0  0  0  0
   -8.8847    4.3767  -16.3496 C   0  0  0  0  0  0  0  0  0  0  0  0
   -9.2824    4.1673  -17.6668 C   0  0  0  0  0  0  0  0  0  0  0  0
  -10.9357    3.9572  -18.0591 Cl  0  0  0  0  0  0  0  0  0  0  0  0
   -8.3727    4.2120  -18.7018 C   0  0  0  0  0  0  0  0  0  0  0  0
   -7.0720    4.5769  -18.3764 C   0  0  0  0  0  0  0  0  0  0  0  0
   -6.0137    4.7900  -19.2170 N   0  0  0  0  0  0  0  0  0  0  0  0
   -4.9112    5.2116  -18.5931 N   0  0  0  0  0  0  0  0  0  0  0  0
   -5.2711    5.2693  -17.3121 C   0  0  0  0  0  0  0  0  0  0  0  0
   -4.3845    5.7031  -16.4148 N   0  0  0  0  0  0  0  0  0  0  0  0
   -6.6244    4.8474  -17.0775 C   0  0  0  0  0  0  0  0  0  0  0  0
   -6.0607    4.6460  -20.1898 H   0  0  0  0  0  0  0  0  0  0  0  0
   -3.4804    5.9653  -16.7031 H   0  0  0  0  0  0  0  0  0  0  0  0
   -4.6343    5.7610  -15.4643 H   0  0  0  0  0  0  0  0  0  0  0  0
   -5.6373    1.7479  -13.0969 C   0  0  0  0  0  0  0  0  0  0  0  0
   -6.3986    2.8357  -13.6381 N   0  0  0  0  0  0  0  0  0  0  0  0
   -6.0177    4.3362  -13.8435 C   0  0  0  0  0  0  0  0  0  0  0  0
   -5.0518    4.9250  -13.5302 O   0  0  0  0  0  0  0  0  0  0  0  0
   -7.3093    2.5981  -13.9271 H   0  0  0  0  0  0  0  0  0  0  0  0
   -8.4699    4.8968  -13.6259 N   0  0  0  0  0  0  0  0  0  0  0  0
   -9.3241    4.5882  -14.0058 H   0  0  0  0  0  0  0  0  0  0  0  0
   -8.3619    5.1623  -12.2361 C   0  0  0  0  0  0  0  0  0  0  0  0
   -8.2311    6.4729  -11.7204 C   0  0  0  0  0  0  0  0  0  0  0  0
   -8.1894    6.7381  -10.3458 C   0  0  0  0  0  0  0  0  0  0  0  0
   -8.2994    5.6798   -9.4721 C   0  0  0  0  0  0  0  0  0  0  0  0
   -8.4531    4.3981   -9.9482 C   0  0  0  0  0  0  0  0  0  0  0  0
   -8.4910    4.1101  -11.3107 C   0  0  0  0  0  0  0  0  0  0  0  0
   -8.6429    3.5147   -8.7977 C   0  0  0  0  0  0  0  0  0  0  0  0
   -8.8862    2.3282   -8.8114 O   0  0  0  0  0  0  0  0  0  0  0  0
   -8.5780    4.2996   -7.6775 O   0  0  0  0  0  0  0  0  0  0  0  0
   -8.2974    5.6685   -7.9992 C   0  0  0  0  0  0  0  0  0  0  0  0
 18 19  1  0  0  0
 19 20  1  0  0  0
 20 21  2  0  0  0
 20  1  1  0  0  0
  1  2  1  0  0  0
  1 23  1  0  0  0
 23 25  1  0  0  0
 25 26  2  0  0  0
 26 27  1  0  0  0
 27 28  2  0  0  0
 28 29  1  0  0  0
 29 30  2  0  0  0
 29 31  1  0  0  0
 31 32  2  0  0  0
 31 33  1  0  0  0
 33 34  1  0  0  0
  1  4  1  0  0  0
  4  5  2  0  0  0
  5  6  1  0  0  0
  6  7  1  0  0  0
  6  8  2  0  0  0
  8  9  1  0  0  0
  9 10  1  0  0  0
 10 11  1  0  0  0
 11 12  2  0  0  0
 12 13  1  0  0  0
 12 14  1  0  0  0
 30 25  1  0  0  0
 14  4  1  0  0  0
 34 28  1  0  0  0
 14  9  2  0  0  0
 19 22  1  0  0  0
  2  3  1  0  0  0
 23 24  1  0  0  0
 10 15  1  0  0  0
 13 16  1  0  0  0
 13 17  1  0  0  0
M  END
> <minimizedAffinity>
-8.43188

> <minimizedRMSD>
0.64443

$$$$
P17146


 34 37  0  0  0  0  0  0  0  0999 V2000
   -7.2097    4.4623  -14.2139 C   0  0  0  0  0  0  0  0  0  0  0  0
   -6.7664    3.1228  -13.9913 O   0  0  0  0  0  0  0  0  0  0  0  0
   -6.5880    2.9940  -13.0466 H   0  0  0  0  0  0  0  0  0  0  0  0
   -7.4703    4.5899  -15.7204 C   0  0  0  0  0  0  0  0  0  0  0  0
   -8.7858    4.5153  -16.2717 C   0  0  0  0  0  0  0  0  0  0  0  0
   -9.0987    4.4595  -17.6618 C   0  0  0  0  0  0  0  0  0  0  0  0
  -10.7413    4.5110  -18.1476 Cl  0  0  0  0  0  0  0  0  0  0  0  0
   -8.1467    4.4227  -18.6750 C   0  0  0  0  0  0  0  0  0  0  0  0
   -6.8510    4.6151  -18.2053 C   0  0  0  0  0  0  0  0  0  0  0  0
   -5.7306    4.7726  -18.9192 N   0  0  0  0  0  0  0  0  0  0  0  0
   -4.8075    5.1711  -18.0248 N   0  0  0  0  0  0  0  0  0  0  0  0
   -5.2015    4.9571  -16.7206 C   0  0  0  0  0  0  0  0  0  0  0  0
   -6.5486    4.6952  -16.7874 C   0  0  0  0  0  0  0  0  0  0  0  0
   -3.6182    5.9050  -18.4698 C   0  0  0  0  0  0  0  0  0  0  0  0
   -2.5951    5.8046  -17.5757 F   0  0  0  0  0  0  0  0  0  0  0  0
   -3.8851    7.2378  -18.6093 F   0  0  0  0  0  0  0  0  0  0  0  0
   -3.1348    5.4563  -19.6603 F   0  0  0  0  0  0  0  0  0  0  0  0
   -3.7941    5.1092  -12.3753 C   0  0  0  0  0  0  0  0  0  0  0  0
   -4.9774    4.6919  -13.0613 N   0  0  0  0  0  0  0  0  0  0  0  0
   -6.0969    5.5323  -13.7552 C   0  0  0  0  0  0  0  0  0  0  0  0
   -6.1772    6.6882  -13.9355 O   0  0  0  0  0  0  0  0  0  0  0  0
   -5.1078    3.7169  -13.1032 H   0  0  0  0  0  0  0  0  0  0  0  0
   -8.4693    4.5758  -13.4355 N   0  0  0  0  0  0  0  0  0  0  0  0
   -9.3443    4.4982  -13.8802 H   0  0  0  0  0  0  0  0  0  0  0  0
   -8.3844    4.7976  -12.0424 C   0  0  0  0  0  0  0  0  0  0  0  0
   -8.2577    6.1060  -11.5307 C   0  0  0  0  0  0  0  0  0  0  0  0
   -8.1804    6.3598  -10.1570 C   0  0  0  0  0  0  0  0  0  0  0  0
   -8.2900    5.2920   -9.2900 C   0  0  0  0  0  0  0  0  0  0  0  0
   -8.4756    4.0145   -9.7716 C   0  0  0  0  0  0  0  0  0  0  0  0
   -8.4974    3.7320  -11.1326 C   0  0  0  0  0  0  0  0  0  0  0  0
   -8.7558    3.1397   -8.6316 C   0  0  0  0  0  0  0  0  0  0  0  0
   -9.1214    1.9845   -8.6585 O   0  0  0  0  0  0  0  0  0  0  0  0
   -8.6350    3.9109   -7.5050 O   0  0  0  0  0  0  0  0  0  0  0  0
   -8.2964    5.2699   -7.8169 C   0  0  0  0  0  0  0  0  0  0  0  0
 18 19  1  0  0  0
 19 20  1  0  0  0
 20 21  2  0  0  0
 20  1  1  0  0  0
  1  2  1  0  0  0
  1 23  1  0  0  0
 23 25  1  0  0  0
 25 26  2  0  0  0
 26 27  1  0  0  0
 27 28  2  0  0  0
 28 29  1  0  0  0
 29 30  2  0  0  0
 29 31  1  0  0  0
 31 32  2  0  0  0
 31 33  1  0  0  0
 33 34  1  0  0  0
  1  4  1  0  0  0
  4  5  2  0  0  0
  5  6  1  0  0  0
  6  7  1  0  0  0
  6  8  2  0  0  0
  8  9  1  0  0  0
  9 10  2  0  0  0
 10 11  1  0  0  0
 11 14  1  0  0  0
 14 15  1  0  0  0
 14 16  1  0  0  0
 14 17  1  0  0  0
 11 12  1  0  0  0
 12 13  2  0  0  0
 30 25  1  0  0  0
 13  4  1  0  0  0
 34 28  1  0  0  0
 13  9  1  0  0  0
 19 22  1  0  0  0
  2  3  1  0  0  0
 23 24  1  0  0  0
M  END
> <minimizedAffinity>
-8.38598

> <minimizedRMSD>
0.55569

$$$$
P17147


 31 34  0  0  0  0  0  0  0  0999 V2000
   -7.1177    5.4382  -14.4538 C   0  0  0  0  0  0  0  0  0  0  0  0
   -6.9450    6.8368  -14.5871 O   0  0  0  0  0  0  0  0  0  0  0  0
   -6.7699    7.2255  -13.7158 H   0  0  0  0  0  0  0  0  0  0  0  0
   -7.3798    5.0083  -15.9061 C   0  0  0  0  0  0  0  0  0  0  0  0
   -8.7276    4.8117  -16.3045 C   0  0  0  0  0  0  0  0  0  0  0  0
   -9.0917    4.5741  -17.6234 C   0  0  0  0  0  0  0  0  0  0  0  0
  -10.7426    4.5425  -18.0348 Cl  0  0  0  0  0  0  0  0  0  0  0  0
   -8.1533    4.4725  -18.6336 C   0  0  0  0  0  0  0  0  0  0  0  0
   -6.8318    4.7052  -18.2714 C   0  0  0  0  0  0  0  0  0  0  0  0
   -5.7088    4.7479  -19.0560 N   0  0  0  0  0  0  0  0  0  0  0  0
   -4.5965    5.0940  -18.3849 N   0  0  0  0  0  0  0  0  0  0  0  0
   -5.0278    5.2269  -17.1248 C   0  0  0  0  0  0  0  0  0  0  0  0
   -6.4214    4.9842  -16.9665 C   0  0  0  0  0  0  0  0  0  0  0  0
   -5.7160    4.5444  -20.0193 H   0  0  0  0  0  0  0  0  0  0  0  0
   -5.4989    2.0371  -13.1847 C   0  0  0  0  0  0  0  0  0  0  0  0
   -6.2109    3.1425  -13.7571 N   0  0  0  0  0  0  0  0  0  0  0  0
   -5.8557    4.6626  -13.8029 C   0  0  0  0  0  0  0  0  0  0  0  0
   -4.8920    5.2280  -13.4480 O   0  0  0  0  0  0  0  0  0  0  0  0
   -7.0616    2.9045  -14.1917 H   0  0  0  0  0  0  0  0  0  0  0  0
   -8.3218    5.2672  -13.5970 N   0  0  0  0  0  0  0  0  0  0  0  0
   -9.1738    5.0169  -14.0222 H   0  0  0  0  0  0  0  0  0  0  0  0
   -8.2895    5.4492  -12.2043 C   0  0  0  0  0  0  0  0  0  0  0  0
   -8.1194    6.7167  -11.6028 C   0  0  0  0  0  0  0  0  0  0  0  0
   -8.1633    6.9007  -10.2148 C   0  0  0  0  0  0  0  0  0  0  0  0
   -8.3796    5.8004   -9.4159 C   0  0  0  0  0  0  0  0  0  0  0  0
   -8.5580    4.5590   -9.9799 C   0  0  0  0  0  0  0  0  0  0  0  0
   -8.5322    4.3548  -11.3561 C   0  0  0  0  0  0  0  0  0  0  0  0
   -8.8101    3.6078   -8.9004 C   0  0  0  0  0  0  0  0  0  0  0  0
   -9.0400    2.4235   -9.0057 O   0  0  0  0  0  0  0  0  0  0  0  0
   -8.7902    4.3170   -7.7304 O   0  0  0  0  0  0  0  0  0  0  0  0
   -8.4622    5.6974   -7.9480 C   0  0  0  0  0  0  0  0  0  0  0  0
 15 16  1  0  0  0
 16 17  1  0  0  0
 17 18  2  0  0  0
 17  1  1  0  0  0
  1  2  1  0  0  0
  1 20  1  0  0  0
 20 22  1  0  0  0
 22 23  2  0  0  0
 23 24  1  0  0  0
 24 25  2  0  0  0
 25 26  1  0  0  0
 26 27  2  0  0  0
 26 28  1  0  0  0
 28 29  2  0  0  0
 28 30  1  0  0  0
 30 31  1  0  0  0
  1  4  1  0  0  0
  4  5  2  0  0  0
  5  6  1  0  0  0
  6  7  1  0  0  0
  6  8  2  0  0  0
  8  9  1  0  0  0
  9 10  1  0  0  0
 10 11  1  0  0  0
 11 12  2  0  0  0
 12 13  1  0  0  0
 27 22  1  0  0  0
 13  4  1  0  0  0
 31 25  1  0  0  0
 13  9  2  0  0  0
 16 19  1  0  0  0
  2  3  1  0  0  0
 20 21  1  0  0  0
 10 14  1  0  0  0
M  END
> <minimizedAffinity>
-7.62702

> <minimizedRMSD>
0.75706

$$$$
P17150


 34 37  0  0  0  0  0  0  0  0999 V2000
   -7.4517    5.1158  -13.9083 C   0  0  0  0  0  0  0  0  0  0  0  0
   -6.2093    4.6162  -13.4644 O   0  0  0  0  0  0  0  0  0  0  0  0
   -6.0988    4.8157  -12.5216 H   0  0  0  0  0  0  0  0  0  0  0  0
   -7.5936    4.7877  -15.3856 C   0  0  0  0  0  0  0  0  0  0  0  0
   -8.8573    4.5390  -15.9981 C   0  0  0  0  0  0  0  0  0  0  0  0
   -9.0671    4.3953  -17.4051 C   0  0  0  0  0  0  0  0  0  0  0  0
  -10.6787    4.2789  -17.9992 Cl  0  0  0  0  0  0  0  0  0  0  0  0
   -8.0465    4.4294  -18.3595 C   0  0  0  0  0  0  0  0  0  0  0  0
   -6.7928    4.7069  -17.8137 C   0  0  0  0  0  0  0  0  0  0  0  0
   -5.6209    4.8773  -18.4438 N   0  0  0  0  0  0  0  0  0  0  0  0
   -4.7537    5.1811  -17.4790 N   0  0  0  0  0  0  0  0  0  0  0  0
   -5.2907    5.2101  -16.2269 C   0  0  0  0  0  0  0  0  0  0  0  0
   -6.6110    4.8820  -16.3896 C   0  0  0  0  0  0  0  0  0  0  0  0
   -3.8036    5.3690  -17.6561 H   0  0  0  0  0  0  0  0  0  0  0  0
   -9.7639    8.2621  -13.1521 C   0  0  0  0  0  0  0  0  0  0  0  0
   -9.1068    7.0335  -13.5067 N   0  0  0  0  0  0  0  0  0  0  0  0
   -7.6016    6.7426  -13.8325 C   0  0  0  0  0  0  0  0  0  0  0  0
   -6.6912    7.4757  -13.9353 O   0  0  0  0  0  0  0  0  0  0  0  0
   -9.6980    6.2476  -13.5523 H   0  0  0  0  0  0  0  0  0  0  0  0
   -8.4803    4.4288  -13.0852 N   0  0  0  0  0  0  0  0  0  0  0  0
   -9.3000    4.0982  -13.5188 H   0  0  0  0  0  0  0  0  0  0  0  0
   -8.3112    4.2387  -11.6974 C   0  0  0  0  0  0  0  0  0  0  0  0
   -8.5330    2.9866  -11.0968 C   0  0  0  0  0  0  0  0  0  0  0  0
   -8.5460    2.8230   -9.6907 C   0  0  0  0  0  0  0  0  0  0  0  0
   -8.4545    3.9472   -8.8874 C   0  0  0  0  0  0  0  0  0  0  0  0
   -8.3099    5.1803   -9.4787 C   0  0  0  0  0  0  0  0  0  0  0  0
   -8.1260    5.3145  -10.8335 C   0  0  0  0  0  0  0  0  0  0  0  0
   -8.5226    6.2802   -8.4972 C   0  0  0  0  0  0  0  0  0  0  0  0
   -7.5932    7.4647   -8.7073 C   0  0  0  0  0  0  0  0  0  0  0  0
   -8.3606    5.6353   -7.1684 N   0  0  0  0  0  0  0  0  0  0  0  0
   -8.5070    4.1442   -7.4020 C   0  0  0  0  0  0  0  0  0  0  0  0
   -9.3824    6.1078   -6.2364 N   0  0  0  0  0  0  0  0  0  0  0  0
   -8.7776    6.7601   -5.0786 C   0  0  0  0  0  0  0  0  0  0  0  0
   -9.9368    5.3127   -5.9188 H   0  0  0  0  0  0  0  0  0  0  0  0
 15 16  1  0  0  0
 16 17  1  0  0  0
 17 18  2  0  0  0
 17  1  1  0  0  0
  1  2  1  0  0  0
  1 20  1  0  0  0
 20 22  1  0  0  0
 22 23  2  0  0  0
 23 24  1  0  0  0
 24 25  2  0  0  0
 25 26  1  0  0  0
 26 27  2  0  0  0
 26 28  1  0  0  0
 28 29  1  0  0  0
 28 30  1  0  0  0
 30 32  1  0  0  0
 32 33  1  0  0  0
 30 31  1  0  0  0
  1  4  1  0  0  0
  4  5  2  0  0  0
  5  6  1  0  0  0
  6  7  1  0  0  0
  6  8  2  0  0  0
  8  9  1  0  0  0
  9 10  2  0  0  0
 10 11  1  0  0  0
 11 12  1  0  0  0
 12 13  2  0  0  0
 27 22  1  0  0  0
 13  4  1  0  0  0
 31 25  1  0  0  0
 13  9  1  0  0  0
 16 19  1  0  0  0
  2  3  1  0  0  0
 20 21  1  0  0  0
 32 34  1  0  0  0
 11 14  1  0  0  0
M  END
> <minimizedAffinity>
-7.50075

> <minimizedRMSD>
1.02339

$$$$
P17151


 39 43  0  0  0  0  0  0  0  0999 V2000
   -7.2048    4.6529  -14.5017 C   0  0  0  0  0  0  0  0  0  0  0  0
   -7.5207    4.6489  -16.0150 C   0  0  0  0  0  0  0  0  0  0  0  0
   -8.8811    4.4483  -16.3870 C   0  0  0  0  0  0  0  0  0  0  0  0
   -9.2899    4.3239  -17.7099 C   0  0  0  0  0  0  0  0  0  0  0  0
  -10.9398    4.1833  -18.1190 Cl  0  0  0  0  0  0  0  0  0  0  0  0
   -8.3803    4.3387  -18.7432 C   0  0  0  0  0  0  0  0  0  0  0  0
   -7.0603    4.6034  -18.4139 C   0  0  0  0  0  0  0  0  0  0  0  0
   -5.9776    4.7454  -19.2408 N   0  0  0  0  0  0  0  0  0  0  0  0
   -4.8468    5.0401  -18.5866 N   0  0  0  0  0  0  0  0  0  0  0  0
   -5.2225    5.0028  -17.3020 C   0  0  0  0  0  0  0  0  0  0  0  0
   -6.6074    4.7725  -17.1054 C   0  0  0  0  0  0  0  0  0  0  0  0
   -6.0259    4.6411  -20.2186 H   0  0  0  0  0  0  0  0  0  0  0  0
   -5.8222    6.7374  -14.3425 N   0  0  0  0  0  0  0  0  0  0  0  0
   -5.7706    5.1983  -14.1612 C   0  0  0  0  0  0  0  0  0  0  0  0
   -4.8934    4.5054  -13.8227 O   0  0  0  0  0  0  0  0  0  0  0  0
   -6.6663    7.0805  -14.7155 H   0  0  0  0  0  0  0  0  0  0  0  0
   -4.8312    7.7515  -14.0525 C   0  0  0  0  0  0  0  0  0  0  0  0
   -4.2741    8.8261  -15.3837 S   0  0  0  0  0  0  0  0  0  0  0  0
   -5.4134    9.1358  -16.2328 O   0  0  0  0  0  0  0  0  0  0  0  0
   -3.4841    9.9010  -14.8083 O   0  0  0  0  0  0  0  0  0  0  0  0
   -0.5049    5.2621  -18.5397 C   0  0  0  0  0  0  0  0  0  0  0  0
   -1.4245    6.1503  -17.7529 C   0  0  0  0  0  0  0  0  0  0  0  0
   -1.6395    5.9256  -16.3874 C   0  0  0  0  0  0  0  0  0  0  0  0
   -2.4978    6.7539  -15.6618 C   0  0  0  0  0  0  0  0  0  0  0  0
   -3.1449    7.8126  -16.3069 C   0  0  0  0  0  0  0  0  0  0  0  0
   -2.8973    8.0818  -17.6509 C   0  0  0  0  0  0  0  0  0  0  0  0
   -2.0430    7.2448  -18.3716 C   0  0  0  0  0  0  0  0  0  0  0  0
   -8.2670    5.4443  -13.7869 N   0  0  0  0  0  0  0  0  0  0  0  0
   -8.9635    5.9311  -14.2840 H   0  0  0  0  0  0  0  0  0  0  0  0
   -8.2255    5.4615  -12.3715 C   0  0  0  0  0  0  0  0  0  0  0  0
   -8.1983    6.7330  -11.7541 C   0  0  0  0  0  0  0  0  0  0  0  0
   -8.1922    6.8872  -10.3652 C   0  0  0  0  0  0  0  0  0  0  0  0
   -8.2816    5.7522   -9.5909 C   0  0  0  0  0  0  0  0  0  0  0  0
   -8.3865    4.5114  -10.1833 C   0  0  0  0  0  0  0  0  0  0  0  0
   -8.3350    4.3242  -11.5639 C   0  0  0  0  0  0  0  0  0  0  0  0
   -8.6980    3.5527   -9.1291 C   0  0  0  0  0  0  0  0  0  0  0  0
   -9.0533    2.4063   -9.2828 O   0  0  0  0  0  0  0  0  0  0  0  0
   -8.6436    4.2238   -7.9387 O   0  0  0  0  0  0  0  0  0  0  0  0
   -8.3353    5.6110   -8.1246 C   0  0  0  0  0  0  0  0  0  0  0  0
 21 22  1  0  0  0
 22 23  2  0  0  0
 23 24  1  0  0  0
 24 25  2  0  0  0
 25 18  1  0  0  0
 18 19  2  0  0  0
 18 20  2  0  0  0
 18 17  1  0  0  0
 17 13  1  0  0  0
 13 14  1  0  0  0
 14 15  2  0  0  0
 14  1  1  0  0  0
  1 28  1  0  0  0
 28 30  1  0  0  0
 30 31  2  0  0  0
 31 32  1  0  0  0
 32 33  2  0  0  0
 33 34  1  0  0  0
 34 35  2  0  0  0
 34 36  1  0  0  0
 36 37  2  0  0  0
 36 38  1  0  0  0
 38 39  1  0  0  0
  1  2  1  0  0  0
  2  3  2  0  0  0
  3  4  1  0  0  0
  4  5  1  0  0  0
  4  6  2  0  0  0
  6  7  1  0  0  0
  7  8  1  0  0  0
  8  9  1  0  0  0
  9 10  2  0  0  0
 10 11  1  0  0  0
 25 26  1  0  0  0
 26 27  2  0  0  0
 27 22  1  0  0  0
 35 30  1  0  0  0
 11  2  1  0  0  0
 39 33  1  0  0  0
 11  7  2  0  0  0
 13 16  1  0  0  0
 28 29  1  0  0  0
  8 12  1  0  0  0
M  END
> <minimizedAffinity>
-7.48695

> <minimizedRMSD>
0.86692

$$$$
P17152


 35 39  0  0  0  0  0  0  0  0999 V2000
   -7.1516    4.1094  -13.4998 C   0  0  0  0  0  0  0  0  0  0  0  0
   -7.2308    4.3461  -14.9992 C   0  0  0  0  0  0  0  0  0  0  0  0
   -8.4390    4.3545  -15.7628 C   0  0  0  0  0  0  0  0  0  0  0  0
   -8.5271    4.5752  -17.1776 C   0  0  0  0  0  0  0  0  0  0  0  0
  -10.0891    4.5064  -17.9253 Cl  0  0  0  0  0  0  0  0  0  0  0  0
   -7.4195    4.8557  -17.9918 C   0  0  0  0  0  0  0  0  0  0  0  0
   -6.2128    4.9030  -17.2836 C   0  0  0  0  0  0  0  0  0  0  0  0
   -4.9716    5.1714  -17.7279 N   0  0  0  0  0  0  0  0  0  0  0  0
   -4.1837    5.0411  -16.6496 N   0  0  0  0  0  0  0  0  0  0  0  0
   -4.8466    4.7548  -15.4922 C   0  0  0  0  0  0  0  0  0  0  0  0
   -6.1627    4.6507  -15.8556 C   0  0  0  0  0  0  0  0  0  0  0  0
   -3.2054    5.1439  -16.6904 H   0  0  0  0  0  0  0  0  0  0  0  0
   -6.4522    2.7427  -13.0710 C   0  0  0  0  0  0  0  0  0  0  0  0
   -6.8145    1.7003  -13.4545 O   0  0  0  0  0  0  0  0  0  0  0  0
   -5.3369    3.1084  -12.0443 N   0  0  0  0  0  0  0  0  0  0  0  0
   -5.1680    4.0732  -11.9450 H   0  0  0  0  0  0  0  0  0  0  0  0
   -4.5138    2.2635  -11.2179 C   0  0  0  0  0  0  0  0  0  0  0  0
   -3.0893    2.1197  -11.7504 C   0  0  0  0  0  0  0  0  0  0  0  0
   -2.2279    1.3190  -10.7579 C   0  0  0  0  0  0  0  0  0  0  0  0
   -1.0920    0.5703  -11.4530 C   0  0  0  0  0  0  0  0  0  0  0  0
   -0.6551    1.2963  -12.7145 C   0  0  0  0  0  0  0  0  0  0  0  0
   -1.7046    1.4593  -13.6688 O   0  0  0  0  0  0  0  0  0  0  0  0
   -3.0318    1.4530  -13.1252 C   0  0  0  0  0  0  0  0  0  0  0  0
   -8.5014    4.1703  -12.8813 N   0  0  0  0  0  0  0  0  0  0  0  0
   -9.3394    4.0547  -13.3850 H   0  0  0  0  0  0  0  0  0  0  0  0
   -9.4080    1.7220   -8.0657 O   0  0  0  0  0  0  0  0  0  0  0  0
   -8.9379    2.8396   -8.0649 C   0  0  0  0  0  0  0  0  0  0  0  0
   -8.7035    3.6071   -6.9532 O   0  0  0  0  0  0  0  0  0  0  0  0
   -8.2157    4.9146   -7.2908 C   0  0  0  0  0  0  0  0  0  0  0  0
   -8.2272    4.9202   -8.7651 C   0  0  0  0  0  0  0  0  0  0  0  0
   -7.9658    5.9512   -9.6495 C   0  0  0  0  0  0  0  0  0  0  0  0
   -8.0880    5.6920  -11.0168 C   0  0  0  0  0  0  0  0  0  0  0  0
   -8.4487    4.4127  -11.4893 C   0  0  0  0  0  0  0  0  0  0  0  0
   -8.7034    3.3838  -10.5710 C   0  0  0  0  0  0  0  0  0  0  0  0
   -8.6022    3.6730   -9.2204 C   0  0  0  0  0  0  0  0  0  0  0  0
 26 27  2  0  0  0
 27 28  1  0  0  0
 28 29  1  0  0  0
 29 30  1  0  0  0
 30 31  2  0  0  0
 31 32  1  0  0  0
 32 33  2  0  0  0
 33 24  1  0  0  0
  1 24  1  0  0  0
  1 13  1  0  0  0
 13 14  2  0  0  0
 13 15  1  0  0  0
 15 17  1  0  0  0
 18 17  1  0  0  0
 18 19  1  0  0  0
 19 20  1  0  0  0
 20 21  1  0  0  0
 21 22  1  0  0  0
 22 23  1  0  0  0
  1  2  1  0  0  0
  2  3  2  0  0  0
  3  4  1  0  0  0
  4  5  1  0  0  0
  4  6  2  0  0  0
  6  7  1  0  0  0
  7  8  2  0  0  0
  8  9  1  0  0  0
  9 10  1  0  0  0
 10 11  2  0  0  0
 33 34  1  0  0  0
 34 35  2  0  0  0
 35 27  1  0  0  0
 35 30  1  0  0  0
 23 18  1  0  0  0
 11  2  1  0  0  0
 11  7  1  0  0  0
 24 25  1  0  0  0
 15 16  1  0  0  0
  9 12  1  0  0  0
M  END
> <minimizedAffinity>
-8.87359

> <minimizedRMSD>
0.50011

$$$$
P17153


 33 37  0  0  0  0  0  0  0  0999 V2000
   -7.1984    4.6536  -13.9836 C   0  0  0  0  0  0  0  0  0  0  0  0
   -7.4178    4.6016  -15.4866 C   0  0  0  0  0  0  0  0  0  0  0  0
   -8.6867    4.4720  -16.1186 C   0  0  0  0  0  0  0  0  0  0  0  0
   -8.8967    4.4605  -17.5348 C   0  0  0  0  0  0  0  0  0  0  0  0
  -10.5130    4.3187  -18.1230 Cl  0  0  0  0  0  0  0  0  0  0  0  0
   -7.8701    4.5956  -18.4797 C   0  0  0  0  0  0  0  0  0  0  0  0
   -6.6052    4.7618  -17.9082 C   0  0  0  0  0  0  0  0  0  0  0  0
   -5.4169    4.9560  -18.5056 N   0  0  0  0  0  0  0  0  0  0  0  0
   -4.5271    4.9856  -17.5079 N   0  0  0  0  0  0  0  0  0  0  0  0
   -5.0724    4.8626  -16.2634 C   0  0  0  0  0  0  0  0  0  0  0  0
   -6.4225    4.7443  -16.4721 C   0  0  0  0  0  0  0  0  0  0  0  0
   -3.5596    5.0877  -17.6587 H   0  0  0  0  0  0  0  0  0  0  0  0
   -8.4821    4.5119  -13.2236 N   0  0  0  0  0  0  0  0  0  0  0  0
   -9.3336    4.3041  -13.6719 H   0  0  0  0  0  0  0  0  0  0  0  0
   -9.2087    1.8354   -8.4794 O   0  0  0  0  0  0  0  0  0  0  0  0
   -8.7959    2.9739   -8.4385 C   0  0  0  0  0  0  0  0  0  0  0  0
   -8.6523    3.7180   -7.2966 O   0  0  0  0  0  0  0  0  0  0  0  0
   -8.2823    5.0721   -7.5815 C   0  0  0  0  0  0  0  0  0  0  0  0
   -8.2825    5.1247   -9.0541 C   0  0  0  0  0  0  0  0  0  0  0  0
   -8.1835    6.2129   -9.8934 C   0  0  0  0  0  0  0  0  0  0  0  0
   -8.2825    5.9907  -11.2700 C   0  0  0  0  0  0  0  0  0  0  0  0
   -8.3970    4.6949  -11.8203 C   0  0  0  0  0  0  0  0  0  0  0  0
   -8.5180    3.6103  -10.9353 C   0  0  0  0  0  0  0  0  0  0  0  0
   -8.4885    3.8609   -9.5652 C   0  0  0  0  0  0  0  0  0  0  0  0
   -6.4712    5.9696  -13.6803 C   0  0  0  0  0  0  0  0  0  0  0  0
   -6.8288    7.0896  -14.0419 O   0  0  0  0  0  0  0  0  0  0  0  0
   -5.1777    5.8640  -12.8942 C   0  0  0  0  0  0  0  0  0  0  0  0
   -4.7067    4.7639  -12.6340 O   0  0  0  0  0  0  0  0  0  0  0  0
   -4.5380    7.1932  -12.5100 C   0  0  0  0  0  0  0  0  0  0  0  0
   -4.8316    7.5501  -11.0594 C   0  0  0  0  0  0  0  0  0  0  0  0
   -3.5524    8.2065  -10.6052 C   0  0  0  0  0  0  0  0  0  0  0  0
   -2.5167    7.4172  -11.3681 C   0  0  0  0  0  0  0  0  0  0  0  0
   -3.1043    7.1453  -12.6449 O   0  0  0  0  0  0  0  0  0  0  0  0
 15 16  2  0  0  0
 16 17  1  0  0  0
 17 18  1  0  0  0
 18 19  1  0  0  0
 19 20  2  0  0  0
 20 21  1  0  0  0
 21 22  2  0  0  0
 22 13  1  0  0  0
  1 13  1  0  0  0
  1 25  1  0  0  0
 25 26  2  0  0  0
 25 27  1  0  0  0
 27 28  2  0  0  0
 29 27  1  0  0  0
 29 30  1  0  0  0
 30 31  1  0  0  0
 31 32  1  0  0  0
 32 33  1  0  0  0
  1  2  1  0  0  0
  2  3  2  0  0  0
  3  4  1  0  0  0
  4  5  1  0  0  0
  4  6  2  0  0  0
  6  7  1  0  0  0
  7  8  2  0  0  0
  8  9  1  0  0  0
  9 10  1  0  0  0
 10 11  2  0  0  0
 22 23  1  0  0  0
 23 24  2  0  0  0
 24 16  1  0  0  0
 24 19  1  0  0  0
 33 29  1  0  0  0
 11  2  1  0  0  0
 11  7  1  0  0  0
 13 14  1  0  0  0
  9 12  1  0  0  0
M  END
> <minimizedAffinity>
-7.14246

> <minimizedRMSD>
0.49353

$$$$
P17157


 32 35  0  0  0  0  0  0  0  0999 V2000
   -7.3490    5.1737  -14.1488 C   0  0  0  0  0  0  0  0  0  0  0  0
   -7.3894    6.5998  -14.1178 O   0  0  0  0  0  0  0  0  0  0  0  0
   -7.2398    6.9079  -13.2103 H   0  0  0  0  0  0  0  0  0  0  0  0
   -7.5984    4.8742  -15.6228 C   0  0  0  0  0  0  0  0  0  0  0  0
   -8.8312    4.3664  -16.0806 C   0  0  0  0  0  0  0  0  0  0  0  0
   -9.1094    4.2127  -17.4522 C   0  0  0  0  0  0  0  0  0  0  0  0
  -10.7067    3.8420  -17.9480 Cl  0  0  0  0  0  0  0  0  0  0  0  0
   -8.1541    4.4811  -18.4228 C   0  0  0  0  0  0  0  0  0  0  0  0
   -6.9637    5.0282  -17.9960 C   0  0  0  0  0  0  0  0  0  0  0  0
   -6.7263    5.2625  -16.6453 C   0  0  0  0  0  0  0  0  0  0  0  0
   -5.5998    6.1861  -16.6614 C   0  0  0  0  0  0  0  0  0  0  0  0
   -5.1843    6.5222  -17.8490 N   0  0  0  0  0  0  0  0  0  0  0  0
   -5.9147    5.6268  -18.8290 N   0  0  0  0  0  0  0  0  0  0  0  0
   -5.0010    4.7075  -19.1730 O   0  0  0  0  0  0  0  0  0  0  0  0
   -5.8487    4.9309  -18.1358 H   0  0  0  0  0  0  0  0  0  0  0  0
   -4.9106    2.1753  -13.1644 C   0  0  0  0  0  0  0  0  0  0  0  0
   -5.8841    3.0995  -13.6715 N   0  0  0  0  0  0  0  0  0  0  0  0
   -5.9087    4.6547  -13.6478 C   0  0  0  0  0  0  0  0  0  0  0  0
   -5.1020    5.4215  -13.2800 O   0  0  0  0  0  0  0  0  0  0  0  0
   -6.6631    2.6814  -14.1047 H   0  0  0  0  0  0  0  0  0  0  0  0
   -8.4201    4.6384  -13.2677 N   0  0  0  0  0  0  0  0  0  0  0  0
   -9.1716    4.1343  -13.6555 H   0  0  0  0  0  0  0  0  0  0  0  0
   -8.3578    4.8543  -11.8759 C   0  0  0  0  0  0  0  0  0  0  0  0
   -8.2019    6.1433  -11.3255 C   0  0  0  0  0  0  0  0  0  0  0  0
   -8.1448    6.3650   -9.9438 C   0  0  0  0  0  0  0  0  0  0  0  0
   -8.2900    5.2839   -9.1018 C   0  0  0  0  0  0  0  0  0  0  0  0
   -8.4992    4.0246   -9.6157 C   0  0  0  0  0  0  0  0  0  0  0  0
   -8.5264    3.7774  -10.9851 C   0  0  0  0  0  0  0  0  0  0  0  0
   -8.7797    3.1245   -8.4969 C   0  0  0  0  0  0  0  0  0  0  0  0
   -9.1287    1.9658   -8.5535 O   0  0  0  0  0  0  0  0  0  0  0  0
   -8.6684    3.8685   -7.3523 O   0  0  0  0  0  0  0  0  0  0  0  0
   -8.3092    5.2293   -7.6296 C   0  0  0  0  0  0  0  0  0  0  0  0
 16 17  1  0  0  0
 17 18  1  0  0  0
 18 19  2  0  0  0
 18  1  1  0  0  0
  1  2  1  0  0  0
  1 21  1  0  0  0
 21 23  1  0  0  0
 23 24  2  0  0  0
 24 25  1  0  0  0
 25 26  2  0  0  0
 26 27  1  0  0  0
 27 28  2  0  0  0
 27 29  1  0  0  0
 29 30  2  0  0  0
 29 31  1  0  0  0
 31 32  1  0  0  0
  1  4  1  0  0  0
  4  5  2  0  0  0
  5  6  1  0  0  0
  6  7  1  0  0  0
  6  8  2  0  0  0
  8  9  1  0  0  0
  9 10  2  0  0  0
 10 11  1  0  0  0
 11 12  2  0  0  0
 12 13  1  0  0  0
 13 14  1  0  0  0
 28 23  1  0  0  0
 10  4  1  0  0  0
 32 26  1  0  0  0
 13  9  1  0  0  0
 17 20  1  0  0  0
  2  3  1  0  0  0
 21 22  1  0  0  0
 13 15  1  0  0  0
M  CHG 1  13   1
M  CHG 1  14  -1
M  END
> <minimizedAffinity>
-8.03716

> <minimizedRMSD>
0.35433

$$$$
P17161


 32 35  0  0  0  0  0  0  0  0999 V2000
   -7.3196    5.0813  -14.4145 C   0  0  0  0  0  0  0  0  0  0  0  0
   -7.0706    6.4872  -14.4895 O   0  0  0  0  0  0  0  0  0  0  0  0
   -6.8949    6.8323  -13.6001 H   0  0  0  0  0  0  0  0  0  0  0  0
   -7.5699    4.7289  -15.8835 C   0  0  0  0  0  0  0  0  0  0  0  0
   -8.8874    4.4829  -16.3554 C   0  0  0  0  0  0  0  0  0  0  0  0
   -9.1808    4.2981  -17.7063 C   0  0  0  0  0  0  0  0  0  0  0  0
  -10.8063    4.1251  -18.2220 Cl  0  0  0  0  0  0  0  0  0  0  0  0
   -8.1885    4.3225  -18.6721 C   0  0  0  0  0  0  0  0  0  0  0  0
   -6.9020    4.6165  -18.2353 C   0  0  0  0  0  0  0  0  0  0  0  0
   -5.7487    4.7917  -18.9543 N   0  0  0  0  0  0  0  0  0  0  0  0
   -4.6878    5.1278  -18.1978 N   0  0  0  0  0  0  0  0  0  0  0  0
   -5.1905    5.1491  -16.9584 C   0  0  0  0  0  0  0  0  0  0  0  0
   -6.5711    4.8248  -16.8982 C   0  0  0  0  0  0  0  0  0  0  0  0
   -5.7008    4.6822  -19.9315 H   0  0  0  0  0  0  0  0  0  0  0  0
   -6.0159    4.3745  -13.7910 C   0  0  0  0  0  0  0  0  0  0  0  0
   -5.0925    5.0233  -13.4726 O   0  0  0  0  0  0  0  0  0  0  0  0
   -6.2816    2.8515  -13.6265 N   0  0  0  0  0  0  0  0  0  0  0  0
   -5.4361    1.8085  -13.1281 C   0  0  0  0  0  0  0  0  0  0  0  0
   -7.1766    2.5560  -13.9112 H   0  0  0  0  0  0  0  0  0  0  0  0
   -8.5059    4.8387  -13.5513 N   0  0  0  0  0  0  0  0  0  0  0  0
   -9.3513    4.5069  -13.9313 H   0  0  0  0  0  0  0  0  0  0  0  0
   -9.3872    1.8912   -7.3077 C   0  0  0  0  0  0  0  0  0  0  0  0
   -9.1834    2.4020   -8.6598 N   0  0  0  0  0  0  0  0  0  0  0  0
   -8.7231    3.5954   -8.6947 C   0  0  0  0  0  0  0  0  0  0  0  0
   -8.4632    4.3699   -7.5943 O   0  0  0  0  0  0  0  0  0  0  0  0
   -8.0508    5.6905   -7.9695 C   0  0  0  0  0  0  0  0  0  0  0  0
   -8.1191    5.6592   -9.4404 C   0  0  0  0  0  0  0  0  0  0  0  0
   -7.9507    6.6865  -10.3401 C   0  0  0  0  0  0  0  0  0  0  0  0
   -8.1071    6.4013  -11.6980 C   0  0  0  0  0  0  0  0  0  0  0  0
   -8.3811    5.0994  -12.1698 C   0  0  0  0  0  0  0  0  0  0  0  0
   -8.5748    4.0780  -11.2237 C   0  0  0  0  0  0  0  0  0  0  0  0
   -8.4505    4.3938   -9.8752 C   0  0  0  0  0  0  0  0  0  0  0  0
 22 23  1  0  0  0
 23 24  2  0  0  0
 24 25  1  0  0  0
 25 26  1  0  0  0
 26 27  1  0  0  0
 27 28  2  0  0  0
 28 29  1  0  0  0
 29 30  2  0  0  0
 30 20  1  0  0  0
 20  1  1  0  0  0
  1  2  1  0  0  0
  1 15  1  0  0  0
 15 16  2  0  0  0
 15 17  1  0  0  0
 17 18  1  0  0  0
  1  4  1  0  0  0
  4  5  2  0  0  0
  5  6  1  0  0  0
  6  7  1  0  0  0
  6  8  2  0  0  0
  8  9  1  0  0  0
  9 10  1  0  0  0
 10 11  1  0  0  0
 11 12  2  0  0  0
 12 13  1  0  0  0
 30 31  1  0  0  0
 31 32  2  0  0  0
 32 24  1  0  0  0
 32 27  1  0  0  0
 13  4  1  0  0  0
 13  9  2  0  0  0
 20 21  1  0  0  0
  2  3  1  0  0  0
 17 19  1  0  0  0
 10 14  1  0  0  0
M  END
> <minimizedAffinity>
-8.62241

> <minimizedRMSD>
0.27100

$$$$
P17170


 33 36  0  0  0  0  0  0  0  0999 V2000
   -7.2602    4.6127  -14.5171 C   0  0  0  0  0  0  0  0  0  0  0  0
   -6.5860    3.3956  -14.2168 O   0  0  0  0  0  0  0  0  0  0  0  0
   -6.3488    3.3809  -13.2763 H   0  0  0  0  0  0  0  0  0  0  0  0
   -7.6127    4.5842  -16.0162 C   0  0  0  0  0  0  0  0  0  0  0  0
   -8.9602    4.4322  -16.4403 C   0  0  0  0  0  0  0  0  0  0  0  0
   -9.3219    4.3497  -17.7826 C   0  0  0  0  0  0  0  0  0  0  0  0
  -10.9672    4.2768  -18.2342 Cl  0  0  0  0  0  0  0  0  0  0  0  0
   -8.3791    4.3804  -18.7907 C   0  0  0  0  0  0  0  0  0  0  0  0
   -7.0685    4.6115  -18.4073 C   0  0  0  0  0  0  0  0  0  0  0  0
   -5.9397    4.7724  -19.1714 N   0  0  0  0  0  0  0  0  0  0  0  0
   -4.8062    5.0161  -18.3465 N   0  0  0  0  0  0  0  0  0  0  0  0
   -3.6752    5.1825  -18.8646 O   0  0  0  0  0  0  0  0  0  0  0  0
   -5.2016    4.9921  -17.0590 C   0  0  0  0  0  0  0  0  0  0  0  0
   -6.6421    4.7339  -17.0594 C   0  0  0  0  0  0  0  0  0  0  0  0
   -5.9174    4.7257  -20.1545 H   0  0  0  0  0  0  0  0  0  0  0  0
   -3.8719    6.0079  -13.0522 C   0  0  0  0  0  0  0  0  0  0  0  0
   -5.0533    5.3373  -13.5011 N   0  0  0  0  0  0  0  0  0  0  0  0
   -6.3154    5.8905  -14.2362 C   0  0  0  0  0  0  0  0  0  0  0  0
   -6.6100    6.9893  -14.5146 O   0  0  0  0  0  0  0  0  0  0  0  0
   -5.0740    4.3705  -13.3167 H   0  0  0  0  0  0  0  0  0  0  0  0
   -8.4687    4.5991  -13.6636 N   0  0  0  0  0  0  0  0  0  0  0  0
   -9.3450    4.4420  -14.0839 H   0  0  0  0  0  0  0  0  0  0  0  0
   -8.4106    4.8013  -12.2817 C   0  0  0  0  0  0  0  0  0  0  0  0
   -8.4727    3.7029  -11.3944 C   0  0  0  0  0  0  0  0  0  0  0  0
   -8.4172    3.8626   -9.9925 C   0  0  0  0  0  0  0  0  0  0  0  0
   -8.5365    2.6749   -9.0876 C   0  0  0  0  0  0  0  0  0  0  0  0
   -8.2972    5.1480   -9.4933 C   0  0  0  0  0  0  0  0  0  0  0  0
   -8.2635    6.2169  -10.3556 C   0  0  0  0  0  0  0  0  0  0  0  0
   -8.3061    6.0812  -11.7345 C   0  0  0  0  0  0  0  0  0  0  0  0
   -8.2498    7.4463   -9.5741 C   0  0  0  0  0  0  0  0  0  0  0  0
   -8.2733    8.5828  -10.0011 O   0  0  0  0  0  0  0  0  0  0  0  0
   -8.2162    7.0772   -8.2569 O   0  0  0  0  0  0  0  0  0  0  0  0
   -8.2329    5.6416   -8.1047 C   0  0  0  0  0  0  0  0  0  0  0  0
 16 17  1  0  0  0
 17 18  1  0  0  0
 18 19  2  0  0  0
 18  1  1  0  0  0
  1  2  1  0  0  0
  1 21  1  0  0  0
 21 23  1  0  0  0
 23 24  2  0  0  0
 24 25  1  0  0  0
 25 26  1  0  0  0
 25 27  2  0  0  0
 27 28  1  0  0  0
 28 29  2  0  0  0
 28 30  1  0  0  0
 30 31  2  0  0  0
 30 32  1  0  0  0
 32 33  1  0  0  0
  1  4  1  0  0  0
  4  5  2  0  0  0
  5  6  1  0  0  0
  6  7  1  0  0  0
  6  8  2  0  0  0
  8  9  1  0  0  0
  9 10  1  0  0  0
 10 11  1  0  0  0
 11 12  1  0  0  0
 11 13  2  0  0  0
 13 14  1  0  0  0
 29 23  1  0  0  0
 14  4  1  0  0  0
 33 27  1  0  0  0
 14  9  2  0  0  0
 17 20  1  0  0  0
  2  3  1  0  0  0
 21 22  1  0  0  0
 10 15  1  0  0  0
M  CHG 1  11   1
M  CHG 1  12  -1
M  END
> <minimizedAffinity>
-8.16097

> <minimizedRMSD>
0.33584

$$$$
P17171


 33 36  0  0  0  0  0  0  0  0999 V2000
   -7.2892    5.2431  -14.4348 C   0  0  0  0  0  0  0  0  0  0  0  0
   -6.9605    6.5903  -14.6884 O   0  0  0  0  0  0  0  0  0  0  0  0
   -6.7658    7.0388  -13.8506 H   0  0  0  0  0  0  0  0  0  0  0  0
   -7.5423    4.7851  -15.8771 C   0  0  0  0  0  0  0  0  0  0  0  0
   -8.8578    4.5242  -16.3411 C   0  0  0  0  0  0  0  0  0  0  0  0
   -9.1514    4.3190  -17.6900 C   0  0  0  0  0  0  0  0  0  0  0  0
  -10.7809    4.1565  -18.1977 Cl  0  0  0  0  0  0  0  0  0  0  0  0
   -8.1606    4.3273  -18.6589 C   0  0  0  0  0  0  0  0  0  0  0  0
   -6.8719    4.6180  -18.2256 C   0  0  0  0  0  0  0  0  0  0  0  0
   -5.7167    4.7800  -18.9443 N   0  0  0  0  0  0  0  0  0  0  0  0
   -4.6548    5.1209  -18.1911 N   0  0  0  0  0  0  0  0  0  0  0  0
   -5.1635    5.1824  -16.9544 C   0  0  0  0  0  0  0  0  0  0  0  0
   -6.5420    4.8500  -16.8929 C   0  0  0  0  0  0  0  0  0  0  0  0
   -5.6680    4.6584  -19.9200 H   0  0  0  0  0  0  0  0  0  0  0  0
   -5.9515    1.7810  -13.0191 C   0  0  0  0  0  0  0  0  0  0  0  0
   -6.5412    2.9056  -13.6854 N   0  0  0  0  0  0  0  0  0  0  0  0
   -6.1081    4.4060  -13.7178 C   0  0  0  0  0  0  0  0  0  0  0  0
   -5.1619    4.9328  -13.2687 O   0  0  0  0  0  0  0  0  0  0  0  0
   -7.3501    2.6985  -14.2069 H   0  0  0  0  0  0  0  0  0  0  0  0
   -8.5153    5.2285  -13.5771 N   0  0  0  0  0  0  0  0  0  0  0  0
   -9.3982    5.0508  -13.9749 H   0  0  0  0  0  0  0  0  0  0  0  0
   -8.3916    5.4755  -12.1720 C   0  0  0  0  0  0  0  0  0  0  0  0
   -8.4360    4.3579  -11.2989 C   0  0  0  0  0  0  0  0  0  0  0  0
   -8.3735    4.5552   -9.9213 C   0  0  0  0  0  0  0  0  0  0  0  0
   -8.2099    5.8002   -9.3697 C   0  0  0  0  0  0  0  0  0  0  0  0
   -8.1845    6.9185  -10.1734 C   0  0  0  0  0  0  0  0  0  0  0  0
   -8.3123    6.7720  -11.5705 C   0  0  0  0  0  0  0  0  0  0  0  0
   -8.1805    5.7011   -7.9002 C   0  0  0  0  0  0  0  0  0  0  0  0
   -8.4846    4.3237   -7.6569 O   0  0  0  0  0  0  0  0  0  0  0  0
   -8.6152    3.6187   -8.8221 C   0  0  0  0  0  0  0  0  0  0  0  0
   -8.9755    2.4661   -8.9053 O   0  0  0  0  0  0  0  0  0  0  0  0
   -8.6239    8.3234  -12.4325 S   0  0  0  0  0  0  0  0  0  0  0  0
   -7.0350    9.1567  -12.1466 C   0  0  0  0  0  0  0  0  0  0  0  0
 15 16  1  0  0  0
 16 17  1  0  0  0
 17 18  2  0  0  0
 17  1  1  0  0  0
  1  2  1  0  0  0
  1 20  1  0  0  0
 20 22  1  0  0  0
 22 23  2  0  0  0
 23 24  1  0  0  0
 24 25  2  0  0  0
 25 26  1  0  0  0
 26 27  2  0  0  0
 27 32  1  0  0  0
 32 33  1  0  0  0
 25 28  1  0  0  0
 28 29  1  0  0  0
 29 30  1  0  0  0
 30 31  2  0  0  0
  1  4  1  0  0  0
  4  5  2  0  0  0
  5  6  1  0  0  0
  6  7  1  0  0  0
  6  8  2  0  0  0
  8  9  1  0  0  0
  9 10  1  0  0  0
 10 11  1  0  0  0
 11 12  2  0  0  0
 12 13  1  0  0  0
 27 22  1  0  0  0
 13  4  1  0  0  0
 30 24  1  0  0  0
 13  9  2  0  0  0
 16 19  1  0  0  0
  2  3  1  0  0  0
 20 21  1  0  0  0
 10 14  1  0  0  0
M  END
> <minimizedAffinity>
-8.01487

> <minimizedRMSD>
0.69505

$$$$
P17179


 32 35  0  0  0  0  0  0  0  0999 V2000
   -7.2753    4.4588  -14.1798 C   0  0  0  0  0  0  0  0  0  0  0  0
   -6.9188    3.1292  -13.8857 O   0  0  0  0  0  0  0  0  0  0  0  0
   -6.7505    3.0425  -12.9343 H   0  0  0  0  0  0  0  0  0  0  0  0
   -7.5407    4.5592  -15.7352 C   0  0  0  0  0  0  0  0  0  0  0  0
   -8.8743    4.4215  -16.2273 C   0  0  0  0  0  0  0  0  0  0  0  0
   -9.1911    4.4161  -17.5842 C   0  0  0  0  0  0  0  0  0  0  0  0
  -10.8120    4.2939  -18.1139 Cl  0  0  0  0  0  0  0  0  0  0  0  0
   -8.2169    4.5296  -18.5511 C   0  0  0  0  0  0  0  0  0  0  0  0
   -6.9174    4.7042  -18.1129 C   0  0  0  0  0  0  0  0  0  0  0  0
   -5.7708    4.8653  -18.8483 N   0  0  0  0  0  0  0  0  0  0  0  0
   -4.6399    4.9585  -17.9978 N   0  0  0  0  0  0  0  0  0  0  0  0
   -3.4976    5.0926  -18.4985 O   0  0  0  0  0  0  0  0  0  0  0  0
   -5.0602    4.8767  -16.7196 C   0  0  0  0  0  0  0  0  0  0  0  0
   -6.5224    4.7206  -16.7464 C   0  0  0  0  0  0  0  0  0  0  0  0
   -5.7375    4.9100  -19.8312 H   0  0  0  0  0  0  0  0  0  0  0  0
   -6.1176    8.2399  -14.1595 C   0  0  0  0  0  0  0  0  0  0  0  0
   -6.6832    6.9303  -14.2809 N   0  0  0  0  0  0  0  0  0  0  0  0
   -6.1303    5.5426  -13.8294 C   0  0  0  0  0  0  0  0  0  0  0  0
   -5.0964    5.2543  -13.3607 O   0  0  0  0  0  0  0  0  0  0  0  0
   -7.5636    6.9004  -14.7204 H   0  0  0  0  0  0  0  0  0  0  0  0
   -8.5118    4.7428  -13.4062 N   0  0  0  0  0  0  0  0  0  0  0  0
   -9.1578    3.9767  -13.5965 H   0  0  0  0  0  0  0  0  0  0  0  0
   -8.4593    4.8986  -11.9252 C   0  0  0  0  0  0  0  0  0  0  0  0
   -7.5896    6.0253  -11.3328 C   0  0  0  0  0  0  0  0  0  0  0  0
   -7.9110    6.3183   -9.8580 C   0  0  0  0  0  0  0  0  0  0  0  0
   -8.2275    5.0905   -9.0927 C   0  0  0  0  0  0  0  0  0  0  0  0
   -8.3905    3.8879   -9.6400 C   0  0  0  0  0  0  0  0  0  0  0  0
   -8.2878    3.5826  -11.0970 C   0  0  0  0  0  0  0  0  0  0  0  0
   -8.8697    3.0218   -8.5583 C   0  0  0  0  0  0  0  0  0  0  0  0
   -9.2762    1.8836   -8.6695 O   0  0  0  0  0  0  0  0  0  0  0  0
   -8.9028    3.7373   -7.3936 O   0  0  0  0  0  0  0  0  0  0  0  0
   -8.4622    5.0652   -7.6426 C   0  0  0  0  0  0  0  0  0  0  0  0
 16 17  1  0  0  0
 17 18  1  0  0  0
 18 19  2  0  0  0
 18  1  1  0  0  0
  1  2  1  0  0  0
  1 21  1  0  0  0
 23 21  1  0  0  0
 23 24  1  0  0  0
 24 25  1  0  0  0
 25 26  1  0  0  0
 26 27  2  0  0  0
 27 28  1  0  0  0
 27 29  1  0  0  0
 29 30  2  0  0  0
 29 31  1  0  0  0
 31 32  1  0  0  0
  1  4  1  0  0  0
  4  5  2  0  0  0
  5  6  1  0  0  0
  6  7  1  0  0  0
  6  8  2  0  0  0
  8  9  1  0  0  0
  9 10  1  0  0  0
 10 11  1  0  0  0
 11 12  1  0  0  0
 11 13  2  0  0  0
 13 14  1  0  0  0
 28 23  1  0  0  0
 14  4  1  0  0  0
 32 26  1  0  0  0
 14  9  2  0  0  0
 17 20  1  0  0  0
  2  3  1  0  0  0
 21 22  1  0  0  0
 10 15  1  0  0  0
M  CHG 1  11   1
M  CHG 1  12  -1
M  END
> <minimizedAffinity>
-8.25761

> <minimizedRMSD>
0.33655

$$$$
P17187


 29 32  0  0  0  0  0  0  0  0999 V2000
   -6.7018    4.4228  -14.5658 C   0  0  0  0  0  0  0  0  0  0  0  0
   -7.1817    4.5556  -16.0203 C   0  0  0  0  0  0  0  0  0  0  0  0
   -8.5570    4.3806  -16.3287 C   0  0  0  0  0  0  0  0  0  0  0  0
   -9.0328    4.3532  -17.6331 C   0  0  0  0  0  0  0  0  0  0  0  0
  -10.7082    4.2253  -17.9386 Cl  0  0  0  0  0  0  0  0  0  0  0  0
   -8.1772    4.4625  -18.7099 C   0  0  0  0  0  0  0  0  0  0  0  0
   -6.8401    4.7170  -18.4309 C   0  0  0  0  0  0  0  0  0  0  0  0
   -5.7972    4.9531  -19.2880 N   0  0  0  0  0  0  0  0  0  0  0  0
   -4.6314    5.1840  -18.6628 N   0  0  0  0  0  0  0  0  0  0  0  0
   -4.9408    5.0239  -17.3694 C   0  0  0  0  0  0  0  0  0  0  0  0
   -6.3211    4.7700  -17.1395 C   0  0  0  0  0  0  0  0  0  0  0  0
   -5.8935    4.9535  -20.2678 H   0  0  0  0  0  0  0  0  0  0  0  0
   -6.8066    8.2646  -13.7768 C   0  0  0  0  0  0  0  0  0  0  0  0
   -6.9814    6.8675  -14.0311 N   0  0  0  0  0  0  0  0  0  0  0  0
   -5.9410    5.7163  -14.0941 C   0  0  0  0  0  0  0  0  0  0  0  0
   -4.7928    5.7199  -13.8721 O   0  0  0  0  0  0  0  0  0  0  0  0
   -7.9124    6.5911  -14.1923 H   0  0  0  0  0  0  0  0  0  0  0  0
   -7.8541    4.0740  -13.6523 N   0  0  0  0  0  0  0  0  0  0  0  0
   -8.7431    3.8133  -13.9852 H   0  0  0  0  0  0  0  0  0  0  0  0
   -7.5390    4.1562  -12.2733 C   0  0  0  0  0  0  0  0  0  0  0  0
   -8.3729    4.9426  -11.4500 C   0  0  0  0  0  0  0  0  0  0  0  0
   -8.0950    5.1483  -10.0971 C   0  0  0  0  0  0  0  0  0  0  0  0
   -6.9322    4.6042   -9.5997 C   0  0  0  0  0  0  0  0  0  0  0  0
   -6.1139    3.8406  -10.4073 C   0  0  0  0  0  0  0  0  0  0  0  0
   -6.4043    3.5581  -11.7295 C   0  0  0  0  0  0  0  0  0  0  0  0
   -4.8420    3.6465   -9.7243 C   0  0  0  0  0  0  0  0  0  0  0  0
   -3.8348    3.1425  -10.1812 O   0  0  0  0  0  0  0  0  0  0  0  0
   -4.9501    4.3090   -8.5283 O   0  0  0  0  0  0  0  0  0  0  0  0
   -6.2861    4.7810   -8.2897 C   0  0  0  0  0  0  0  0  0  0  0  0
 13 14  1  0  0  0
 14 15  1  0  0  0
 15 16  2  0  0  0
 15  1  1  0  0  0
  1 18  1  0  0  0
 18 20  1  0  0  0
 20 21  2  0  0  0
 21 22  1  0  0  0
 22 23  2  0  0  0
 23 24  1  0  0  0
 24 25  2  0  0  0
 24 26  1  0  0  0
 26 27  2  0  0  0
 26 28  1  0  0  0
 28 29  1  0  0  0
  1  2  1  0  0  0
  2  3  2  0  0  0
  3  4  1  0  0  0
  4  5  1  0  0  0
  4  6  2  0  0  0
  6  7  1  0  0  0
  7  8  1  0  0  0
  8  9  1  0  0  0
  9 10  2  0  0  0
 10 11  1  0  0  0
 25 20  1  0  0  0
 11  2  1  0  0  0
 29 23  1  0  0  0
 11  7  2  0  0  0
 14 17  1  0  0  0
 18 19  1  0  0  0
  8 12  1  0  0  0
M  END
> <minimizedAffinity>
-6.84197

> <minimizedRMSD>
0.66049

$$$$
P17190


 39 43  0  0  0  0  0  0  0  0999 V2000
   -7.0346    4.4278  -13.6553 C   0  0  0  0  0  0  0  0  0  0  0  0
   -6.4239    3.1743  -13.3715 O   0  0  0  0  0  0  0  0  0  0  0  0
   -6.3093    3.0801  -12.4129 H   0  0  0  0  0  0  0  0  0  0  0  0
   -7.1883    4.5168  -15.1804 C   0  0  0  0  0  0  0  0  0  0  0  0
   -8.4455    4.5019  -15.8333 C   0  0  0  0  0  0  0  0  0  0  0  0
   -8.5637    4.5932  -17.2219 C   0  0  0  0  0  0  0  0  0  0  0  0
  -10.1063    4.5909  -17.9767 Cl  0  0  0  0  0  0  0  0  0  0  0  0
   -7.4504    4.7581  -18.0347 C   0  0  0  0  0  0  0  0  0  0  0  0
   -6.2073    4.8308  -17.4097 C   0  0  0  0  0  0  0  0  0  0  0  0
   -6.0559    4.6572  -16.0350 C   0  0  0  0  0  0  0  0  0  0  0  0
   -4.6511    4.6645  -15.8501 C   0  0  0  0  0  0  0  0  0  0  0  0
   -3.9670    4.8924  -16.9706 N   0  0  0  0  0  0  0  0  0  0  0  0
   -4.9464    5.1071  -17.8882 N   0  0  0  0  0  0  0  0  0  0  0  0
   -4.5587    5.6005  -19.2201 C   0  0  0  0  0  0  0  0  0  0  0  0
   -4.9925    7.0007  -19.4910 N   0  0  0  0  0  0  0  0  0  0  0  0
   -4.8071    7.9062  -18.3511 C   0  0  0  0  0  0  0  0  0  0  0  0
   -4.3775    7.5886  -20.7121 C   0  0  0  0  0  0  0  0  0  0  0  0
   -5.3460    7.7085  -21.9035 C   0  0  0  0  0  0  0  0  0  0  0  0
   -4.6169    7.8141  -23.2383 C   0  0  0  0  0  0  0  0  0  0  0  0
   -3.3928    8.5195  -23.0732 O   0  0  0  0  0  0  0  0  0  0  0  0
   -2.4354    7.7904  -22.3073 C   0  0  0  0  0  0  0  0  0  0  0  0
   -3.0544    6.9608  -21.1799 C   0  0  0  0  0  0  0  0  0  0  0  0
   -3.8231    5.6353  -11.6862 C   0  0  0  0  0  0  0  0  0  0  0  0
   -4.9609    5.0345  -12.3108 N   0  0  0  0  0  0  0  0  0  0  0  0
   -6.0865    5.6674  -13.1932 C   0  0  0  0  0  0  0  0  0  0  0  0
   -6.2910    6.7873  -13.4748 O   0  0  0  0  0  0  0  0  0  0  0  0
   -5.0500    4.0656  -12.1610 H   0  0  0  0  0  0  0  0  0  0  0  0
   -8.3281    4.4090  -12.9344 N   0  0  0  0  0  0  0  0  0  0  0  0
   -9.1650    4.2734  -13.4350 H   0  0  0  0  0  0  0  0  0  0  0  0
   -8.3691    4.5839  -11.5380 C   0  0  0  0  0  0  0  0  0  0  0  0
   -8.2398    5.8665  -10.9620 C   0  0  0  0  0  0  0  0  0  0  0  0
   -8.2325    6.0717   -9.5788 C   0  0  0  0  0  0  0  0  0  0  0  0
   -8.4187    4.9782   -8.7616 C   0  0  0  0  0  0  0  0  0  0  0  0
   -8.6127    3.7241   -9.3007 C   0  0  0  0  0  0  0  0  0  0  0  0
   -8.5704    3.4927  -10.6740 C   0  0  0  0  0  0  0  0  0  0  0  0
   -8.9500    2.8129   -8.2026 C   0  0  0  0  0  0  0  0  0  0  0  0
   -9.3005    1.6555   -8.2716 O   0  0  0  0  0  0  0  0  0  0  0  0
   -8.8927    3.5502   -7.0475 O   0  0  0  0  0  0  0  0  0  0  0  0
   -8.5097    4.9103   -7.2934 C   0  0  0  0  0  0  0  0  0  0  0  0
 23 24  1  0  0  0
 24 25  1  0  0  0
 25 26  2  0  0  0
 25  1  1  0  0  0
  1  2  1  0  0  0
  1 28  1  0  0  0
 28 30  1  0  0  0
 30 31  2  0  0  0
 31 32  1  0  0  0
 32 33  2  0  0  0
 33 34  1  0  0  0
 34 35  2  0  0  0
 34 36  1  0  0  0
 36 37  2  0  0  0
 36 38  1  0  0  0
 38 39  1  0  0  0
  1  4  1  0  0  0
  4  5  2  0  0  0
  5  6  1  0  0  0
  6  7  1  0  0  0
  6  8  2  0  0  0
  8  9  1  0  0  0
  9 10  2  0  0  0
 10 11  1  0  0  0
 11 12  2  0  0  0
 12 13  1  0  0  0
 13 14  1  0  0  0
 14 15  1  0  0  0
 15 16  1  0  0  0
 15 17  1  0  0  0
 17 18  1  0  0  0
 18 19  1  0  0  0
 19 20  1  0  0  0
 20 21  1  0  0  0
 21 22  1  0  0  0
 35 30  1  0  0  0
 10  4  1  0  0  0
 22 17  1  0  0  0
 39 33  1  0  0  0
 13  9  1  0  0  0
 24 27  1  0  0  0
  2  3  1  0  0  0
 28 29  1  0  0  0
M  END
> <minimizedAffinity>
-7.89160

> <minimizedRMSD>
0.62289

$$$$
P17196


 35 38  0  0  0  0  0  0  0  0999 V2000
   -7.1584    5.2066  -13.7262 C   0  0  0  0  0  0  0  0  0  0  0  0
   -6.8374    6.5800  -13.8335 O   0  0  0  0  0  0  0  0  0  0  0  0
   -7.5689    7.0505  -14.2629 H   0  0  0  0  0  0  0  0  0  0  0  0
   -5.2050    5.0234  -18.0840 N   0  0  0  0  0  0  0  0  0  0  0  0
   -4.1906    5.1417  -17.2009 N   0  0  0  0  0  0  0  0  0  0  0  0
   -4.8150    5.1320  -16.0219 C   0  0  0  0  0  0  0  0  0  0  0  0
   -6.2151    4.9100  -16.1220 C   0  0  0  0  0  0  0  0  0  0  0  0
   -7.3139    4.8510  -15.2123 C   0  0  0  0  0  0  0  0  0  0  0  0
   -8.5938    4.6908  -15.8156 C   0  0  0  0  0  0  0  0  0  0  0  0
   -8.7636    4.5452  -17.1967 C   0  0  0  0  0  0  0  0  0  0  0  0
  -10.3265    4.4269  -17.9101 Cl  0  0  0  0  0  0  0  0  0  0  0  0
   -7.6815    4.5807  -18.0612 C   0  0  0  0  0  0  0  0  0  0  0  0
   -6.4270    4.8003  -17.4948 C   0  0  0  0  0  0  0  0  0  0  0  0
   -4.9457    5.1380  -19.5192 C   0  0  0  0  0  0  0  0  0  0  0  0
   -4.2503    7.2034  -20.5068 C   0  0  0  0  0  0  0  0  0  0  0  0
   -5.3905    6.4668  -19.9776 N   0  0  0  0  0  0  0  0  0  0  0  0
   -6.0934    6.3569  -20.7085 H   0  0  0  0  0  0  0  0  0  0  0  0
   -5.9754    4.3745  -13.0184 C   0  0  0  0  0  0  0  0  0  0  0  0
   -5.1105    4.9098  -12.4368 O   0  0  0  0  0  0  0  0  0  0  0  0
   -6.2800    2.8591  -13.2018 N   0  0  0  0  0  0  0  0  0  0  0  0
   -5.6450    1.7082  -12.6347 C   0  0  0  0  0  0  0  0  0  0  0  0
   -7.0314    2.6598  -13.8059 H   0  0  0  0  0  0  0  0  0  0  0  0
   -8.4009    5.0573  -12.9282 N   0  0  0  0  0  0  0  0  0  0  0  0
   -9.2618    4.9018  -13.3797 H   0  0  0  0  0  0  0  0  0  0  0  0
   -8.3446    5.1393  -11.5117 C   0  0  0  0  0  0  0  0  0  0  0  0
   -8.5602    3.9790  -10.7366 C   0  0  0  0  0  0  0  0  0  0  0  0
   -8.5459    4.0697   -9.3422 C   0  0  0  0  0  0  0  0  0  0  0  0
   -8.3390    5.2663   -8.6916 C   0  0  0  0  0  0  0  0  0  0  0  0
   -8.1478    6.4269   -9.4047 C   0  0  0  0  0  0  0  0  0  0  0  0
   -8.1607    6.3525  -10.7964 C   0  0  0  0  0  0  0  0  0  0  0  0
   -8.0000    7.5196  -11.4331 F   0  0  0  0  0  0  0  0  0  0  0  0
   -8.3945    5.0638   -7.2338 C   0  0  0  0  0  0  0  0  0  0  0  0
   -8.7325    3.6790   -7.1009 O   0  0  0  0  0  0  0  0  0  0  0  0
   -8.8118    3.0531   -8.3165 C   0  0  0  0  0  0  0  0  0  0  0  0
   -9.1400    1.8979   -8.4694 O   0  0  0  0  0  0  0  0  0  0  0  0
 15 16  1  0  0  0
 16 14  1  0  0  0
 14  4  1  0  0  0
  4  5  1  0  0  0
  5  6  2  0  0  0
  6  7  1  0  0  0
  7  8  2  0  0  0
  8  1  1  0  0  0
  1  2  1  0  0  0
  1 23  1  0  0  0
 23 25  1  0  0  0
 25 26  2  0  0  0
 26 27  1  0  0  0
 27 28  2  0  0  0
 28 29  1  0  0  0
 29 30  2  0  0  0
 30 31  1  0  0  0
 28 32  1  0  0  0
 32 33  1  0  0  0
 33 34  1  0  0  0
 34 35  2  0  0  0
  1 18  1  0  0  0
 18 19  2  0  0  0
 18 20  1  0  0  0
 20 21  1  0  0  0
  8  9  1  0  0  0
  9 10  2  0  0  0
 10 11  1  0  0  0
 10 12  1  0  0  0
 12 13  2  0  0  0
 13  4  1  0  0  0
 13  7  1  0  0  0
 30 25  1  0  0  0
 34 27  1  0  0  0
 16 17  1  0  0  0
  2  3  1  0  0  0
 23 24  1  0  0  0
 20 22  1  0  0  0
M  END
> <minimizedAffinity>
-7.44476

> <minimizedRMSD>
0.71802

$$$$
P17199


 38 41  0  0  0  0  0  0  0  0999 V2000
   -8.0620    5.9658  -13.8149 C   0  0  0  0  0  0  0  0  0  0  0  0
   -9.3974    6.4460  -13.7981 O   0  0  0  0  0  0  0  0  0  0  0  0
  -10.0032    5.7249  -14.0304 H   0  0  0  0  0  0  0  0  0  0  0  0
   -5.1962    5.4523  -17.6812 N   0  0  0  0  0  0  0  0  0  0  0  0
   -4.6008    6.3692  -16.8946 N   0  0  0  0  0  0  0  0  0  0  0  0
   -5.4146    6.4330  -15.8492 C   0  0  0  0  0  0  0  0  0  0  0  0
   -6.6106    5.6828  -16.0045 C   0  0  0  0  0  0  0  0  0  0  0  0
   -7.7920    5.4488  -15.2424 C   0  0  0  0  0  0  0  0  0  0  0  0
   -8.8238    4.7382  -15.9145 C   0  0  0  0  0  0  0  0  0  0  0  0
   -8.7081    4.3180  -17.2384 C   0  0  0  0  0  0  0  0  0  0  0  0
  -10.0779    3.6564  -18.0401 Cl  0  0  0  0  0  0  0  0  0  0  0  0
   -7.5235    4.4827  -17.9459 C   0  0  0  0  0  0  0  0  0  0  0  0
   -6.4840    5.1547  -17.2918 C   0  0  0  0  0  0  0  0  0  0  0  0
   -4.4906    4.9298  -18.8394 C   0  0  0  0  0  0  0  0  0  0  0  0
   -2.2990    4.2666  -19.6535 C   0  0  0  0  0  0  0  0  0  0  0  0
   -3.1003    4.5722  -18.4768 N   0  0  0  0  0  0  0  0  0  0  0  0
   -2.6755    5.3565  -17.9820 H   0  0  0  0  0  0  0  0  0  0  0  0
   -7.0001    7.1186  -13.4361 C   0  0  0  0  0  0  0  0  0  0  0  0
   -7.2070    8.2596  -13.6124 O   0  0  0  0  0  0  0  0  0  0  0  0
   -5.7454    6.3965  -12.8426 N   0  0  0  0  0  0  0  0  0  0  0  0
   -4.5500    6.9338  -12.2674 C   0  0  0  0  0  0  0  0  0  0  0  0
   -5.7845    5.4132  -12.8691 H   0  0  0  0  0  0  0  0  0  0  0  0
   -7.9867    4.8514  -12.8566 N   0  0  0  0  0  0  0  0  0  0  0  0
   -7.7290    3.9627  -13.1929 H   0  0  0  0  0  0  0  0  0  0  0  0
   -8.2638    4.9912  -11.4866 C   0  0  0  0  0  0  0  0  0  0  0  0
   -8.2079    6.2283  -10.7899 C   0  0  0  0  0  0  0  0  0  0  0  0
   -8.2853    6.3338   -9.3997 C   0  0  0  0  0  0  0  0  0  0  0  0
   -8.4722    5.1790   -8.6909 C   0  0  0  0  0  0  0  0  0  0  0  0
   -8.5970    3.9626   -9.3597 C   0  0  0  0  0  0  0  0  0  0  0  0
   -8.4558    3.8306  -10.7291 C   0  0  0  0  0  0  0  0  0  0  0  0
   -8.9510    2.9592   -8.3602 C   0  0  0  0  0  0  0  0  0  0  0  0
   -9.2474    1.8039   -8.5553 O   0  0  0  0  0  0  0  0  0  0  0  0
   -8.9579    3.5998   -7.1478 N   0  0  0  0  0  0  0  0  0  0  0  0
   -8.6129    4.9929   -7.2230 C   0  0  0  0  0  0  0  0  0  0  0  0
   -9.1127    2.8823   -5.9108 C   0  0  0  0  0  0  0  0  0  0  0  0
  -10.5408    2.7968   -5.4175 C   0  0  0  0  0  0  0  0  0  0  0  0
  -10.6392    3.3166   -4.1610 F   0  0  0  0  0  0  0  0  0  0  0  0
  -11.3677    3.5412   -6.1929 F   0  0  0  0  0  0  0  0  0  0  0  0
 15 16  1  0  0  0
 16 14  1  0  0  0
 14  4  1  0  0  0
  4  5  1  0  0  0
  5  6  2  0  0  0
  6  7  1  0  0  0
  7  8  2  0  0  0
  8  1  1  0  0  0
  1  2  1  0  0  0
  1 23  1  0  0  0
 23 25  1  0  0  0
 25 26  2  0  0  0
 26 27  1  0  0  0
 27 28  2  0  0  0
 28 29  1  0  0  0
 29 30  2  0  0  0
 29 31  1  0  0  0
 31 32  2  0  0  0
 31 33  1  0  0  0
 33 35  1  0  0  0
 35 36  1  0  0  0
 36 37  1  0  0  0
 36 38  1  0  0  0
 33 34  1  0  0  0
  1 18  1  0  0  0
 18 19  2  0  0  0
 18 20  1  0  0  0
 20 21  1  0  0  0
  8  9  1  0  0  0
  9 10  2  0  0  0
 10 11  1  0  0  0
 10 12  1  0  0  0
 12 13  2  0  0  0
 13  4  1  0  0  0
 13  7  1  0  0  0
 30 25  1  0  0  0
 34 28  1  0  0  0
 16 17  1  0  0  0
  2  3  1  0  0  0
 23 24  1  0  0  0
 20 22  1  0  0  0
M  END
> <minimizedAffinity>
-7.81584

> <minimizedRMSD>
0.64330

$$$$
P17206


 36 40  0  0  0  0  0  0  0  0999 V2000
   -7.2541    4.9769  -14.4502 C   0  0  0  0  0  0  0  0  0  0  0  0
   -7.5833    4.6839  -15.9202 C   0  0  0  0  0  0  0  0  0  0  0  0
   -8.9171    4.4042  -16.3001 C   0  0  0  0  0  0  0  0  0  0  0  0
   -9.2885    4.2073  -17.6437 C   0  0  0  0  0  0  0  0  0  0  0  0
  -10.9346    3.9672  -18.0705 Cl  0  0  0  0  0  0  0  0  0  0  0  0
   -8.3515    4.2655  -18.6599 C   0  0  0  0  0  0  0  0  0  0  0  0
   -7.0608    4.5971  -18.3184 C   0  0  0  0  0  0  0  0  0  0  0  0
   -6.6779    4.8139  -16.9838 C   0  0  0  0  0  0  0  0  0  0  0  0
   -5.2191    5.1684  -17.0010 C   0  0  0  0  0  0  0  0  0  0  0  0
   -4.9261    5.3795  -18.5246 C   0  0  0  0  0  0  0  0  0  0  0  0
   -3.5723    4.7556  -18.9405 C   0  0  0  0  0  0  0  0  0  0  0  0
   -2.4470    5.7826  -18.9533 C   0  0  0  0  0  0  0  0  0  0  0  0
   -2.7153    6.8959  -19.9673 C   0  0  0  0  0  0  0  0  0  0  0  0
   -4.2027    7.1993  -20.1574 C   0  0  0  0  0  0  0  0  0  0  0  0
   -5.0037    6.8878  -18.8963 C   0  0  0  0  0  0  0  0  0  0  0  0
   -5.9919    4.6556  -19.2348 N   0  0  0  0  0  0  0  0  0  0  0  0
   -5.9644    4.2921  -20.1493 H   0  0  0  0  0  0  0  0  0  0  0  0
   -5.4377    3.3690  -13.7106 N   0  0  0  0  0  0  0  0  0  0  0  0
   -5.7308    4.8553  -14.0589 C   0  0  0  0  0  0  0  0  0  0  0  0
   -5.0332    5.7951  -14.0211 O   0  0  0  0  0  0  0  0  0  0  0  0
   -6.1775    2.7476  -13.8996 H   0  0  0  0  0  0  0  0  0  0  0  0
   -3.6175    1.7905  -14.1468 C   0  0  0  0  0  0  0  0  0  0  0  0
   -4.2553    2.7511  -13.1543 C   0  0  0  0  0  0  0  0  0  0  0  0
   -4.5814    2.0713  -11.8305 C   0  0  0  0  0  0  0  0  0  0  0  0
   -8.1189    4.2102  -13.5021 N   0  0  0  0  0  0  0  0  0  0  0  0
   -8.6449    3.4459  -13.8315 H   0  0  0  0  0  0  0  0  0  0  0  0
   -8.1886    4.5691  -12.1467 C   0  0  0  0  0  0  0  0  0  0  0  0
   -8.0691    5.9097  -11.7187 C   0  0  0  0  0  0  0  0  0  0  0  0
   -8.1140    6.2671  -10.3655 C   0  0  0  0  0  0  0  0  0  0  0  0
   -8.3149    5.2718   -9.4320 C   0  0  0  0  0  0  0  0  0  0  0  0
   -8.4831    3.9638   -9.8280 C   0  0  0  0  0  0  0  0  0  0  0  0
   -8.4283    3.5878  -11.1674 C   0  0  0  0  0  0  0  0  0  0  0  0
   -8.7805    3.1690   -8.6320 C   0  0  0  0  0  0  0  0  0  0  0  0
   -9.0805    1.9981   -8.5625 O   0  0  0  0  0  0  0  0  0  0  0  0
   -8.7583    4.0299   -7.5668 O   0  0  0  0  0  0  0  0  0  0  0  0
   -8.4127    5.3618   -7.9650 C   0  0  0  0  0  0  0  0  0  0  0  0
 22 23  1  0  0  0
 23 24  1  0  0  0
 23 18  1  0  0  0
 18 19  1  0  0  0
 19 20  2  0  0  0
 19  1  1  0  0  0
  1 25  1  0  0  0
 25 27  1  0  0  0
 27 28  2  0  0  0
 28 29  1  0  0  0
 29 30  2  0  0  0
 30 31  1  0  0  0
 31 32  2  0  0  0
 31 33  1  0  0  0
 33 34  2  0  0  0
 33 35  1  0  0  0
 35 36  1  0  0  0
  1  2  1  0  0  0
  2  3  2  0  0  0
  3  4  1  0  0  0
  4  5  1  0  0  0
  4  6  2  0  0  0
  6  7  1  0  0  0
  7  8  2  0  0  0
  8  9  1  0  0  0
  9 10  1  0  0  0
 10 11  1  0  0  0
 11 12  1  0  0  0
 12 13  1  0  0  0
 13 14  1  0  0  0
 14 15  1  0  0  0
 10 16  1  0  0  0
 32 27  1  0  0  0
  8  2  1  0  0  0
 15 10  1  0  0  0
 36 30  1  0  0  0
 16  7  1  0  0  0
 18 21  1  0  0  0
 25 26  1  0  0  0
 16 17  1  0  0  0
M  END
> <minimizedAffinity>
-9.50704

> <minimizedRMSD>
0.78024

$$$$
P17219


 30 33  0  0  0  0  0  0  0  0999 V2000
   -7.8584    5.6093  -14.9941 C   0  0  0  0  0  0  0  0  0  0  0  0
   -8.7580    4.5176  -15.5203 C   0  0  0  0  0  0  0  0  0  0  0  0
   -8.7871    4.8264  -17.0061 C   0  0  0  0  0  0  0  0  0  0  0  0
   -9.1975    3.7276  -17.7890 O   0  0  0  0  0  0  0  0  0  0  0  0
   -7.3514    5.3333  -17.3569 C   0  0  0  0  0  0  0  0  0  0  0  0
   -6.7347    4.4597  -18.3369 N   0  0  0  0  0  0  0  0  0  0  0  0
   -5.6498    4.9633  -19.1325 C   0  0  0  0  0  0  0  0  0  0  0  0
   -5.9110    6.2712  -19.5984 O   0  0  0  0  0  0  0  0  0  0  0  0
   -4.2479    4.8521  -18.5311 C   0  0  0  0  0  0  0  0  0  0  0  0
   -3.9585    5.7474  -17.3338 C   0  0  0  0  0  0  0  0  0  0  0  0
   -4.1583    5.0663  -15.9818 C   0  0  0  0  0  0  0  0  0  0  0  0
   -5.5654    4.5807  -15.6264 C   0  0  0  0  0  0  0  0  0  0  0  0
   -6.6659    5.5923  -15.9850 C   0  0  0  0  0  0  0  0  0  0  0  0
   -8.5862    2.9869  -17.6522 H   0  0  0  0  0  0  0  0  0  0  0  0
   -7.4691    4.1688  -18.9823 H   0  0  0  0  0  0  0  0  0  0  0  0
   -5.9397    6.8827  -18.8461 H   0  0  0  0  0  0  0  0  0  0  0  0
   -6.6771    6.5685  -13.2199 O   0  0  0  0  0  0  0  0  0  0  0  0
   -7.4356    5.7284  -13.5247 C   0  0  0  0  0  0  0  0  0  0  0  0
   -8.2172    4.7076  -12.6462 N   0  0  0  0  0  0  0  0  0  0  0  0
   -8.7416    4.0452  -13.1516 H   0  0  0  0  0  0  0  0  0  0  0  0
   -8.2950    4.5795  -11.2606 C   0  0  0  0  0  0  0  0  0  0  0  0
   -8.0533    5.6887  -10.4341 C   0  0  0  0  0  0  0  0  0  0  0  0
   -8.1809    5.5944   -9.0459 C   0  0  0  0  0  0  0  0  0  0  0  0
   -8.5394    4.3759   -8.5059 C   0  0  0  0  0  0  0  0  0  0  0  0
   -8.7488    3.2642   -9.3163 C   0  0  0  0  0  0  0  0  0  0  0  0
   -8.6413    3.3483  -10.6975 C   0  0  0  0  0  0  0  0  0  0  0  0
   -9.0468    2.0906   -8.4415 C   0  0  0  0  0  0  0  0  0  0  0  0
   -9.4112    2.6714   -7.1216 N   0  0  0  0  0  0  0  0  0  0  0  0
   -8.7461    3.9911   -7.0797 C   0  0  0  0  0  0  0  0  0  0  0  0
   -9.0740    2.0771   -6.3643 H   0  0  0  0  0  0  0  0  0  0  0  0
 17 18  2  0  0  0
 18 19  1  0  0  0
 19 21  1  0  0  0
 21 22  2  0  0  0
 22 23  1  0  0  0
 23 24  2  0  0  0
 24 25  1  0  0  0
 25 26  2  0  0  0
 25 27  1  0  0  0
 27 28  1  0  0  0
 28 29  1  0  0  0
  1 18  1  0  0  0
  1  2  1  0  0  0
  2  3  1  0  0  0
  3  4  1  0  0  0
  3  5  1  0  0  0
  5  6  1  0  0  0
  6  7  1  0  0  0
  7  8  1  0  0  0
  7  9  1  0  0  0
  9 10  1  0  0  0
 10 11  1  0  0  0
 11 12  1  0  0  0
 13 12  1  0  0  0
 26 21  1  0  0  0
 13  1  1  0  0  0
 29 24  1  0  0  0
 13  5  1  0  0  0
 19 20  1  0  0  0
 28 30  1  0  0  0
  4 14  1  0  0  0
  6 15  1  0  0  0
  8 16  1  0  0  0
M  END
> <minimizedAffinity>
-7.86497

> <minimizedRMSD>
0.36744

$$$$
P17243


 33 37  0  0  0  0  0  0  0  0999 V2000
   -4.9025    5.9213  -20.0025 O   0  0  0  0  0  0  0  0  0  0  0  0
   -5.2904    5.3796  -18.9768 C   0  0  0  0  0  0  0  0  0  0  0  0
   -4.3259    5.0484  -17.8710 C   0  0  0  0  0  0  0  0  0  0  0  0
   -4.8623    5.1814  -16.5754 O   0  0  0  0  0  0  0  0  0  0  0  0
   -6.1769    4.7551  -16.4209 C   0  0  0  0  0  0  0  0  0  0  0  0
   -7.0220    4.6288  -17.4700 C   0  0  0  0  0  0  0  0  0  0  0  0
   -6.5892    5.0027  -18.7281 N   0  0  0  0  0  0  0  0  0  0  0  0
   -8.4373    4.1501  -17.2588 C   0  0  0  0  0  0  0  0  0  0  0  0
   -9.5604    4.4547  -18.5940 Cl  0  0  0  0  0  0  0  0  0  0  0  0
   -8.9921    4.6397  -15.9309 C   0  0  0  0  0  0  0  0  0  0  0  0
   -8.0930    4.1917  -14.7767 C   0  0  0  0  0  0  0  0  0  0  0  0
   -6.5778    4.5570  -14.9375 C   0  0  0  0  0  0  0  0  0  0  0  0
   -6.0926    5.7731  -14.1083 C   0  0  0  0  0  0  0  0  0  0  0  0
   -4.6444    5.5491  -13.9491 N   0  0  0  0  0  0  0  0  0  0  0  0
   -4.5267    4.1091  -13.7954 C   0  0  0  0  0  0  0  0  0  0  0  0
   -5.7423    3.4862  -14.3136 N   0  0  0  0  0  0  0  0  0  0  0  0
   -7.2334    4.9990  -19.4725 H   0  0  0  0  0  0  0  0  0  0  0  0
   -4.2914    6.0321  -13.1230 H   0  0  0  0  0  0  0  0  0  0  0  0
   -6.2572    3.0447  -13.5518 H   0  0  0  0  0  0  0  0  0  0  0  0
   -8.6475    4.7948  -13.4866 C   0  0  0  0  0  0  0  0  0  0  0  0
   -9.1450    5.8517  -13.4456 O   0  0  0  0  0  0  0  0  0  0  0  0
   -8.3134    3.7964  -12.3480 N   0  0  0  0  0  0  0  0  0  0  0  0
   -7.9607    2.9287  -12.6510 H   0  0  0  0  0  0  0  0  0  0  0  0
   -8.4303    3.9267  -10.9768 C   0  0  0  0  0  0  0  0  0  0  0  0
   -8.1579    5.1362  -10.3204 C   0  0  0  0  0  0  0  0  0  0  0  0
   -8.2374    5.2126   -8.9257 C   0  0  0  0  0  0  0  0  0  0  0  0
   -8.6519    4.0878   -8.2324 C   0  0  0  0  0  0  0  0  0  0  0  0
   -8.9488    2.9060   -8.8987 C   0  0  0  0  0  0  0  0  0  0  0  0
   -8.8023    2.7942  -10.2639 C   0  0  0  0  0  0  0  0  0  0  0  0
   -9.4112    1.8782   -7.9289 C   0  0  0  0  0  0  0  0  0  0  0  0
   -9.5914    2.5960   -6.6435 N   0  0  0  0  0  0  0  0  0  0  0  0
   -8.8753    3.8843   -6.7720 C   0  0  0  0  0  0  0  0  0  0  0  0
   -9.1974    2.0496   -5.8776 H   0  0  0  0  0  0  0  0  0  0  0  0
  1  2  2  0  0  0
  2  3  1  0  0  0
  3  4  1  0  0  0
  4  5  1  0  0  0
  5  6  2  0  0  0
  6  7  1  0  0  0
  6  8  1  0  0  0
  8  9  1  0  0  0
  8 10  1  0  0  0
 10 11  1  0  0  0
 11 20  1  0  0  0
 20 21  2  0  0  0
 20 22  1  0  0  0
 22 24  1  0  0  0
 24 25  2  0  0  0
 25 26  1  0  0  0
 26 27  2  0  0  0
 27 28  1  0  0  0
 28 29  2  0  0  0
 28 30  1  0  0  0
 30 31  1  0  0  0
 31 32  1  0  0  0
 11 12  1  0  0  0
 12 13  1  0  0  0
 13 14  1  0  0  0
 14 15  1  0  0  0
 15 16  1  0  0  0
  7  2  1  0  0  0
 29 24  1  0  0  0
 16 12  1  0  0  0
 12  5  1  0  0  0
 32 27  1  0  0  0
  7 17  1  0  0  0
 22 23  1  0  0  0
 31 33  1  0  0  0
 14 18  1  0  0  0
 16 19  1  0  0  0
M  END
> <minimizedAffinity>
-9.38507

> <minimizedRMSD>
0.20668

$$$$
P17249


 31 35  0  0  0  0  0  0  0  0999 V2000
   -8.2996    4.4139  -17.4567 C   0  0  0  0  0  0  0  0  0  0  0  0
   -8.8656    4.4752  -16.1104 C   0  0  0  0  0  0  0  0  0  0  0  0
   -8.1326    4.8543  -14.9496 C   0  0  0  0  0  0  0  0  0  0  0  0
   -6.7992    5.0989  -15.2523 C   0  0  0  0  0  0  0  0  0  0  0  0
   -5.7571    5.4998  -14.4506 C   0  0  0  0  0  0  0  0  0  0  0  0
   -4.6355    5.6428  -15.2606 N   0  0  0  0  0  0  0  0  0  0  0  0
   -4.9725    5.3553  -16.5629 C   0  0  0  0  0  0  0  0  0  0  0  0
   -6.2829    4.9981  -16.5470 C   0  0  0  0  0  0  0  0  0  0  0  0
   -6.9416    4.6851  -17.7078 C   0  0  0  0  0  0  0  0  0  0  0  0
   -6.2754    4.7116  -18.9251 N   0  0  0  0  0  0  0  0  0  0  0  0
   -4.9323    5.0068  -19.0357 C   0  0  0  0  0  0  0  0  0  0  0  0
   -4.3700    4.9404  -20.1306 O   0  0  0  0  0  0  0  0  0  0  0  0
   -4.1313    5.4253  -17.7802 C   0  0  0  0  0  0  0  0  0  0  0  0
   -3.7398    5.9085  -14.9502 H   0  0  0  0  0  0  0  0  0  0  0  0
   -6.7829    4.5112  -19.7445 H   0  0  0  0  0  0  0  0  0  0  0  0
   -8.7251    5.1119  -13.6376 C   0  0  0  0  0  0  0  0  0  0  0  0
   -9.5693    5.9117  -13.5488 O   0  0  0  0  0  0  0  0  0  0  0  0
   -8.0159    4.2835  -12.5498 N   0  0  0  0  0  0  0  0  0  0  0  0
   -7.2748    3.7235  -12.8760 H   0  0  0  0  0  0  0  0  0  0  0  0
   -8.2517    4.1977  -11.1830 C   0  0  0  0  0  0  0  0  0  0  0  0
   -7.9772    5.2800  -10.3286 C   0  0  0  0  0  0  0  0  0  0  0  0
   -8.2056    5.1832   -8.9528 C   0  0  0  0  0  0  0  0  0  0  0  0
   -8.7210    3.9990   -8.4630 C   0  0  0  0  0  0  0  0  0  0  0  0
   -8.9793    2.9239   -9.3091 C   0  0  0  0  0  0  0  0  0  0  0  0
   -8.7476    3.0001  -10.6701 C   0  0  0  0  0  0  0  0  0  0  0  0
   -9.4718    1.7756   -8.4974 C   0  0  0  0  0  0  0  0  0  0  0  0
   -9.8786    2.3690   -7.1987 N   0  0  0  0  0  0  0  0  0  0  0  0
   -9.0853    3.6132   -7.0675 C   0  0  0  0  0  0  0  0  0  0  0  0
   -9.6679    1.7292   -6.4327 H   0  0  0  0  0  0  0  0  0  0  0  0
  -10.6320    4.3511  -18.1970 C   0  0  0  0  0  0  0  0  0  0  0  0
   -9.2247    4.1154  -18.6101 C   0  0  0  0  0  0  0  0  0  0  0  0
 30 31  1  0  0  0
 31  1  1  0  0  0
  1  2  1  0  0  0
  2  3  2  0  0  0
  3 16  1  0  0  0
 16 17  2  0  0  0
 16 18  1  0  0  0
 18 20  1  0  0  0
 20 21  2  0  0  0
 21 22  1  0  0  0
 22 23  2  0  0  0
 23 24  1  0  0  0
 24 25  2  0  0  0
 24 26  1  0  0  0
 26 27  1  0  0  0
 27 28  1  0  0  0
  3  4  1  0  0  0
  4  5  2  0  0  0
  5  6  1  0  0  0
  6  7  1  0  0  0
  7  8  2  0  0  0
  8  9  1  0  0  0
  9 10  1  0  0  0
 10 11  1  0  0  0
 11 12  2  0  0  0
 11 13  1  0  0  0
  9  1  2  0  0  0
 25 20  1  0  0  0
  8  4  1  0  0  0
 28 23  1  0  0  0
 13  7  1  0  0  0
 18 19  1  0  0  0
 27 29  1  0  0  0
  6 14  1  0  0  0
 10 15  1  0  0  0
M  END
> <minimizedAffinity>
-9.79103

> <minimizedRMSD>
0.88479

$$$$
P17252


 34 37  0  0  0  0  0  0  0  0999 V2000
   -4.8840    5.5192  -16.6535 N   0  0  0  0  0  0  0  0  0  0  0  0
   -4.2235    5.1607  -17.9364 C   0  0  0  0  0  0  0  0  0  0  0  0
   -5.1172    5.1750  -19.1697 C   0  0  0  0  0  0  0  0  0  0  0  0
   -4.6735    5.4683  -20.2784 O   0  0  0  0  0  0  0  0  0  0  0  0
   -6.4063    4.7877  -18.9731 N   0  0  0  0  0  0  0  0  0  0  0  0
   -6.9633    4.6675  -17.6947 C   0  0  0  0  0  0  0  0  0  0  0  0
   -8.3032    4.2469  -17.5760 C   0  0  0  0  0  0  0  0  0  0  0  0
   -8.9980    3.8671  -18.6598 F   0  0  0  0  0  0  0  0  0  0  0  0
   -8.9592    4.2688  -16.3542 C   0  0  0  0  0  0  0  0  0  0  0  0
   -8.2595    4.7192  -15.2556 C   0  0  0  0  0  0  0  0  0  0  0  0
   -6.9297    5.1210  -15.3777 C   0  0  0  0  0  0  0  0  0  0  0  0
   -6.2143    5.0714  -16.5673 C   0  0  0  0  0  0  0  0  0  0  0  0
   -6.9666    4.5852  -19.7568 H   0  0  0  0  0  0  0  0  0  0  0  0
   -8.8462    5.0081  -13.9330 C   0  0  0  0  0  0  0  0  0  0  0  0
   -9.6158    5.8801  -13.8328 O   0  0  0  0  0  0  0  0  0  0  0  0
   -8.2137    4.1023  -12.8546 N   0  0  0  0  0  0  0  0  0  0  0  0
   -7.6432    3.3806  -13.2053 H   0  0  0  0  0  0  0  0  0  0  0  0
   -8.3184    4.1397  -11.4713 C   0  0  0  0  0  0  0  0  0  0  0  0
   -8.1017    5.3340  -10.7642 C   0  0  0  0  0  0  0  0  0  0  0  0
   -8.1995    5.3620   -9.3683 C   0  0  0  0  0  0  0  0  0  0  0  0
   -8.6130    4.2097   -8.7235 C   0  0  0  0  0  0  0  0  0  0  0  0
   -8.8525    3.0371   -9.4333 C   0  0  0  0  0  0  0  0  0  0  0  0
   -8.6373    2.9635  -10.7974 C   0  0  0  0  0  0  0  0  0  0  0  0
   -9.3929    1.9987   -8.5075 C   0  0  0  0  0  0  0  0  0  0  0  0
   -9.7308    2.7319   -7.2562 N   0  0  0  0  0  0  0  0  0  0  0  0
   -8.9216    3.9694   -7.2839 C   0  0  0  0  0  0  0  0  0  0  0  0
   -9.4920    2.1695   -6.4395 H   0  0  0  0  0  0  0  0  0  0  0  0
   -4.3212    6.9545  -14.6578 C   0  0  0  0  0  0  0  0  0  0  0  0
   -3.9952    5.6468  -15.4125 C   0  0  0  0  0  0  0  0  0  0  0  0
   -2.5054    5.7818  -15.8420 C   0  0  0  0  0  0  0  0  0  0  0  0
   -4.0389    4.1882  -14.1548 S   0  0  0  0  0  0  0  0  0  0  0  0
   -2.5040    4.2848  -13.2610 C   0  0  0  0  0  0  0  0  0  0  0  0
   -3.9941    2.9422  -14.8947 O   0  0  0  0  0  0  0  0  0  0  0  0
   -5.0767    4.3780  -13.1585 O   0  0  0  0  0  0  0  0  0  0  0  0
 28 29  1  0  0  0
 29 30  1  0  0  0
 29  1  1  0  0  0
  1  2  1  0  0  0
  2  3  1  0  0  0
  3  4  2  0  0  0
  3  5  1  0  0  0
  5  6  1  0  0  0
  6  7  2  0  0  0
  7  8  1  0  0  0
  7  9  1  0  0  0
  9 10  2  0  0  0
 10 14  1  0  0  0
 14 15  2  0  0  0
 14 16  1  0  0  0
 16 18  1  0  0  0
 18 19  2  0  0  0
 19 20  1  0  0  0
 20 21  2  0  0  0
 21 22  1  0  0  0
 22 23  2  0  0  0
 22 24  1  0  0  0
 24 25  1  0  0  0
 25 26  1  0  0  0
 10 11  1  0  0  0
 11 12  2  0  0  0
 29 31  1  0  0  0
 31 32  1  0  0  0
 31 33  2  0  0  0
 31 34  2  0  0  0
 12  1  1  0  0  0
 12  6  1  0  0  0
 23 18  1  0  0  0
 26 21  1  0  0  0
  5 13  1  0  0  0
 16 17  1  0  0  0
 25 27  1  0  0  0
M  END
> <minimizedAffinity>
-9.33756

> <minimizedRMSD>
0.41184

$$$$
P17262


 38 41  0  0  0  0  0  0  0  0999 V2000
   -8.0868    5.1394  -13.1399 C   0  0  0  0  0  0  0  0  0  0  0  0
   -9.2074    4.2910  -13.0492 O   0  0  0  0  0  0  0  0  0  0  0  0
   -8.9255    3.3697  -13.1620 H   0  0  0  0  0  0  0  0  0  0  0  0
   -6.2226    5.2259  -15.0420 C   0  0  0  0  0  0  0  0  0  0  0  0
   -7.5455    4.9824  -14.5900 C   0  0  0  0  0  0  0  0  0  0  0  0
   -8.5048    4.6423  -15.5818 C   0  0  0  0  0  0  0  0  0  0  0  0
   -8.1950    4.5464  -16.9376 C   0  0  0  0  0  0  0  0  0  0  0  0
   -9.5979    4.1859  -18.1434 Br  0  0  0  0  0  0  0  0  0  0  0  0
   -6.9043    4.7944  -17.3725 C   0  0  0  0  0  0  0  0  0  0  0  0
   -5.9343    5.1396  -16.4329 C   0  0  0  0  0  0  0  0  0  0  0  0
   -4.6700    5.5280  -16.8155 O   0  0  0  0  0  0  0  0  0  0  0  0
   -4.2503    5.0454  -18.0771 C   0  0  0  0  0  0  0  0  0  0  0  0
   -5.2897    4.8982  -19.1694 C   0  0  0  0  0  0  0  0  0  0  0  0
   -4.9860    4.8523  -20.3575 O   0  0  0  0  0  0  0  0  0  0  0  0
   -6.5727    4.7609  -18.7277 N   0  0  0  0  0  0  0  0  0  0  0  0
   -7.2909    4.6336  -19.3888 H   0  0  0  0  0  0  0  0  0  0  0  0
   -4.1903    4.3604  -13.8299 C   0  0  0  0  0  0  0  0  0  0  0  0
   -5.0488    5.5755  -14.1538 C   0  0  0  0  0  0  0  0  0  0  0  0
   -8.6008    6.6508  -12.9476 C   0  0  0  0  0  0  0  0  0  0  0  0
   -9.7204    6.9375  -13.1351 O   0  0  0  0  0  0  0  0  0  0  0  0
   -7.3792    7.5429  -12.5985 N   0  0  0  0  0  0  0  0  0  0  0  0
   -6.5177    7.0675  -12.5650 H   0  0  0  0  0  0  0  0  0  0  0  0
   -7.3009    8.9593  -12.3144 C   0  0  0  0  0  0  0  0  0  0  0  0
   -6.4415    9.7347  -13.3048 C   0  0  0  0  0  0  0  0  0  0  0  0
   -5.9251    8.9030  -14.2443 F   0  0  0  0  0  0  0  0  0  0  0  0
   -5.3859   10.2960  -12.6592 F   0  0  0  0  0  0  0  0  0  0  0  0
   -7.1264    4.6708  -12.1240 N   0  0  0  0  0  0  0  0  0  0  0  0
   -6.1810    4.5139  -12.3492 H   0  0  0  0  0  0  0  0  0  0  0  0
   -7.6156    4.4544  -10.8094 C   0  0  0  0  0  0  0  0  0  0  0  0
   -7.5113    5.4611   -9.8329 C   0  0  0  0  0  0  0  0  0  0  0  0
   -8.0260    5.2905   -8.5430 C   0  0  0  0  0  0  0  0  0  0  0  0
   -8.6609    4.1022   -8.2417 C   0  0  0  0  0  0  0  0  0  0  0  0
   -8.7984    3.1080   -9.1977 C   0  0  0  0  0  0  0  0  0  0  0  0
   -8.2800    3.2598  -10.4765 C   0  0  0  0  0  0  0  0  0  0  0  0
   -9.5265    1.9478   -8.6084 C   0  0  0  0  0  0  0  0  0  0  0  0
   -9.8768    2.3320   -7.2134 N   0  0  0  0  0  0  0  0  0  0  0  0
   -9.2534    3.6469   -6.9529 C   0  0  0  0  0  0  0  0  0  0  0  0
   -9.5158    1.6381   -6.5586 H   0  0  0  0  0  0  0  0  0  0  0  0
 17 18  1  0  0  0
 18  4  1  0  0  0
  4  5  2  0  0  0
  5  1  1  0  0  0
  1  2  1  0  0  0
  1 27  1  0  0  0
 27 29  1  0  0  0
 29 30  2  0  0  0
 30 31  1  0  0  0
 31 32  2  0  0  0
 32 33  1  0  0  0
 33 34  2  0  0  0
 33 35  1  0  0  0
 35 36  1  0  0  0
 36 37  1  0  0  0
  1 19  1  0  0  0
 19 20  2  0  0  0
 19 21  1  0  0  0
 21 23  1  0  0  0
 23 24  1  0  0  0
 24 25  1  0  0  0
 24 26  1  0  0  0
  5  6  1  0  0  0
  6  7  2  0  0  0
  7  8  1  0  0  0
  7  9  1  0  0  0
  9 10  2  0  0  0
 10 11  1  0  0  0
 11 12  1  0  0  0
 12 13  1  0  0  0
 13 14  2  0  0  0
 13 15  1  0  0  0
 10  4  1  0  0  0
 34 29  1  0  0  0
 15  9  1  0  0  0
 37 32  1  0  0  0
  2  3  1  0  0  0
 27 28  1  0  0  0
 36 38  1  0  0  0
 21 22  1  0  0  0
 15 16  1  0  0  0
M  END
> <minimizedAffinity>
-7.67824

> <minimizedRMSD>
0.44560

$$$$
P17263


 38 41  0  0  0  0  0  0  0  0999 V2000
   -6.9400    5.5048  -12.2654 C   0  0  0  0  0  0  0  0  0  0  0  0
   -5.7405    5.3673  -11.5244 O   0  0  0  0  0  0  0  0  0  0  0  0
   -5.3889    4.4709  -11.6419 H   0  0  0  0  0  0  0  0  0  0  0  0
   -5.5641    5.6500  -14.5433 C   0  0  0  0  0  0  0  0  0  0  0  0
   -6.7263    5.2729  -13.7923 C   0  0  0  0  0  0  0  0  0  0  0  0
   -7.8102    4.6928  -14.4974 C   0  0  0  0  0  0  0  0  0  0  0  0
   -7.8263    4.6194  -15.8766 C   0  0  0  0  0  0  0  0  0  0  0  0
   -9.3359    4.0558  -16.8564 Br  0  0  0  0  0  0  0  0  0  0  0  0
   -6.7324    5.0445  -16.5928 C   0  0  0  0  0  0  0  0  0  0  0  0
   -5.6067    5.5659  -15.9592 C   0  0  0  0  0  0  0  0  0  0  0  0
   -4.5216    5.9725  -16.6953 O   0  0  0  0  0  0  0  0  0  0  0  0
   -4.6907    6.0192  -18.1164 C   0  0  0  0  0  0  0  0  0  0  0  0
   -5.7041    5.0760  -18.7422 C   0  0  0  0  0  0  0  0  0  0  0  0
   -5.6631    4.5486  -19.8461 O   0  0  0  0  0  0  0  0  0  0  0  0
   -6.7659    4.8375  -17.9585 N   0  0  0  0  0  0  0  0  0  0  0  0
   -7.5961    4.5041  -18.3695 H   0  0  0  0  0  0  0  0  0  0  0  0
   -3.1065    5.2024  -13.6921 C   0  0  0  0  0  0  0  0  0  0  0  0
   -4.3197    6.1114  -13.8077 C   0  0  0  0  0  0  0  0  0  0  0  0
   -7.5205    7.0115  -12.0610 C   0  0  0  0  0  0  0  0  0  0  0  0
   -8.5852    7.3521  -12.4099 O   0  0  0  0  0  0  0  0  0  0  0  0
   -6.3812    7.8159  -11.3643 N   0  0  0  0  0  0  0  0  0  0  0  0
   -5.5413    7.3177  -11.2399 H   0  0  0  0  0  0  0  0  0  0  0  0
   -6.3580    9.1756  -10.8709 C   0  0  0  0  0  0  0  0  0  0  0  0
   -7.4532    9.4775   -9.8539 C   0  0  0  0  0  0  0  0  0  0  0  0
   -7.2079   10.6810   -9.2759 F   0  0  0  0  0  0  0  0  0  0  0  0
   -7.4002    8.5558   -8.8530 F   0  0  0  0  0  0  0  0  0  0  0  0
   -7.8439    4.4927  -11.7217 N   0  0  0  0  0  0  0  0  0  0  0  0
   -8.2418    3.8580  -12.3605 H   0  0  0  0  0  0  0  0  0  0  0  0
   -8.1947    4.3446  -10.3735 C   0  0  0  0  0  0  0  0  0  0  0  0
   -8.0243    5.3353   -9.3840 C   0  0  0  0  0  0  0  0  0  0  0  0
   -8.3027    5.0994   -8.0285 C   0  0  0  0  0  0  0  0  0  0  0  0
   -8.7337    3.8444   -7.6553 C   0  0  0  0  0  0  0  0  0  0  0  0
   -8.8790    2.8431   -8.6000 C   0  0  0  0  0  0  0  0  0  0  0  0
   -8.6032    3.0715   -9.9428 C   0  0  0  0  0  0  0  0  0  0  0  0
   -9.3006    1.5830   -7.9226 C   0  0  0  0  0  0  0  0  0  0  0  0
   -9.6233    1.9582   -6.5212 N   0  0  0  0  0  0  0  0  0  0  0  0
   -9.0675    3.3097   -6.3045 C   0  0  0  0  0  0  0  0  0  0  0  0
   -9.1981    1.2953   -5.8730 H   0  0  0  0  0  0  0  0  0  0  0  0
 17 18  1  0  0  0
 18  4  1  0  0  0
  4  5  2  0  0  0
  5  1  1  0  0  0
  1  2  1  0  0  0
  1 27  1  0  0  0
 27 29  1  0  0  0
 29 30  2  0  0  0
 30 31  1  0  0  0
 31 32  2  0  0  0
 32 33  1  0  0  0
 33 34  2  0  0  0
 33 35  1  0  0  0
 35 36  1  0  0  0
 36 37  1  0  0  0
  1 19  1  0  0  0
 19 20  2  0  0  0
 19 21  1  0  0  0
 21 23  1  0  0  0
 23 24  1  0  0  0
 24 25  1  0  0  0
 24 26  1  0  0  0
  5  6  1  0  0  0
  6  7  2  0  0  0
  7  8  1  0  0  0
  7  9  1  0  0  0
  9 10  2  0  0  0
 10 11  1  0  0  0
 11 12  1  0  0  0
 12 13  1  0  0  0
 13 14  2  0  0  0
 13 15  1  0  0  0
 10  4  1  0  0  0
 34 29  1  0  0  0
 15  9  1  0  0  0
 37 32  1  0  0  0
  2  3  1  0  0  0
 27 28  1  0  0  0
 36 38  1  0  0  0
 21 22  1  0  0  0
 15 16  1  0  0  0
M  END
> <minimizedAffinity>
-5.86409

> <minimizedRMSD>
1.61115

$$$$
P17264


 36 39  0  0  0  0  0  0  0  0999 V2000
   -7.7641    5.3550  -13.3990 C   0  0  0  0  0  0  0  0  0  0  0  0
   -6.5845    5.8737  -12.7856 O   0  0  0  0  0  0  0  0  0  0  0  0
   -5.8888    5.1978  -12.7995 H   0  0  0  0  0  0  0  0  0  0  0  0
   -4.8034    5.2007  -20.5296 O   0  0  0  0  0  0  0  0  0  0  0  0
   -5.1057    5.0084  -19.3560 C   0  0  0  0  0  0  0  0  0  0  0  0
   -4.0594    4.9627  -18.2532 C   0  0  0  0  0  0  0  0  0  0  0  0
   -4.4468    5.2472  -16.9245 O   0  0  0  0  0  0  0  0  0  0  0  0
   -5.7571    4.9816  -16.6423 C   0  0  0  0  0  0  0  0  0  0  0  0
   -6.0924    5.1143  -15.2988 C   0  0  0  0  0  0  0  0  0  0  0  0
   -7.4168    4.9893  -14.8512 C   0  0  0  0  0  0  0  0  0  0  0  0
   -8.3838    4.6024  -15.8024 C   0  0  0  0  0  0  0  0  0  0  0  0
   -8.0501    4.4735  -17.1630 C   0  0  0  0  0  0  0  0  0  0  0  0
   -9.3087    4.0957  -18.2870 Cl  0  0  0  0  0  0  0  0  0  0  0  0
   -6.7374    4.7076  -17.5929 C   0  0  0  0  0  0  0  0  0  0  0  0
   -6.3896    4.7694  -18.9491 N   0  0  0  0  0  0  0  0  0  0  0  0
   -7.0896    4.6371  -19.6286 H   0  0  0  0  0  0  0  0  0  0  0  0
   -8.9402    6.4546  -13.3919 C   0  0  0  0  0  0  0  0  0  0  0  0
  -10.0064    6.2652  -13.8371 O   0  0  0  0  0  0  0  0  0  0  0  0
   -8.3302    7.7337  -12.7427 N   0  0  0  0  0  0  0  0  0  0  0  0
   -7.3756    7.6639  -12.5119 H   0  0  0  0  0  0  0  0  0  0  0  0
   -8.9397    9.0081  -12.4237 C   0  0  0  0  0  0  0  0  0  0  0  0
   -7.9777   10.1886  -12.4321 C   0  0  0  0  0  0  0  0  0  0  0  0
   -7.5329   10.4202  -13.6947 F   0  0  0  0  0  0  0  0  0  0  0  0
   -8.6251   11.3143  -12.0405 F   0  0  0  0  0  0  0  0  0  0  0  0
   -8.1139    4.1680  -12.6342 N   0  0  0  0  0  0  0  0  0  0  0  0
   -8.1823    3.3135  -13.1182 H   0  0  0  0  0  0  0  0  0  0  0  0
   -8.3604    4.1593  -11.2521 C   0  0  0  0  0  0  0  0  0  0  0  0
   -8.0416    5.2146  -10.3679 C   0  0  0  0  0  0  0  0  0  0  0  0
   -8.2383    5.1245   -8.9822 C   0  0  0  0  0  0  0  0  0  0  0  0
   -8.7473    3.9513   -8.4746 C   0  0  0  0  0  0  0  0  0  0  0  0
   -9.0191    2.8810   -9.3145 C   0  0  0  0  0  0  0  0  0  0  0  0
   -8.8198    2.9623  -10.6846 C   0  0  0  0  0  0  0  0  0  0  0  0
   -9.4780    1.7270   -8.4896 C   0  0  0  0  0  0  0  0  0  0  0  0
   -9.8582    2.3168   -7.1796 N   0  0  0  0  0  0  0  0  0  0  0  0
   -9.0780    3.5691   -7.0706 C   0  0  0  0  0  0  0  0  0  0  0  0
   -9.6195    1.6805   -6.4190 H   0  0  0  0  0  0  0  0  0  0  0  0
  4  5  2  0  0  0
  5  6  1  0  0  0
  6  7  1  0  0  0
  7  8  1  0  0  0
  8  9  2  0  0  0
  9 10  1  0  0  0
 10  1  1  0  0  0
  1  2  1  0  0  0
  1 25  1  0  0  0
 25 27  1  0  0  0
 27 28  2  0  0  0
 28 29  1  0  0  0
 29 30  2  0  0  0
 30 31  1  0  0  0
 31 32  2  0  0  0
 31 33  1  0  0  0
 33 34  1  0  0  0
 34 35  1  0  0  0
  1 17  1  0  0  0
 17 18  2  0  0  0
 17 19  1  0  0  0
 19 21  1  0  0  0
 21 22  1  0  0  0
 22 23  1  0  0  0
 22 24  1  0  0  0
 10 11  2  0  0  0
 11 12  1  0  0  0
 12 13  1  0  0  0
 12 14  2  0  0  0
 14 15  1  0  0  0
 15  5  1  0  0  0
 14  8  1  0  0  0
 32 27  1  0  0  0
 35 30  1  0  0  0
  2  3  1  0  0  0
 25 26  1  0  0  0
 34 36  1  0  0  0
 19 20  1  0  0  0
 15 16  1  0  0  0
M  END
> <minimizedAffinity>
-8.12404

> <minimizedRMSD>
0.24428

$$$$
P17265


 37 40  0  0  0  0  0  0  0  0999 V2000
   -4.7707    5.3705  -16.7772 C   0  0  0  0  0  0  0  0  0  0  0  0
   -3.9954    4.2509  -17.1968 O   0  0  0  0  0  0  0  0  0  0  0  0
   -4.7172    6.3800  -17.9193 C   0  0  0  0  0  0  0  0  0  0  0  0
   -5.3016    5.8073  -19.1860 C   0  0  0  0  0  0  0  0  0  0  0  0
   -4.8710    6.1602  -20.2822 O   0  0  0  0  0  0  0  0  0  0  0  0
   -6.3968    4.9873  -19.0435 N   0  0  0  0  0  0  0  0  0  0  0  0
   -6.9840    4.6955  -17.8039 C   0  0  0  0  0  0  0  0  0  0  0  0
   -8.3179    4.2661  -17.7020 C   0  0  0  0  0  0  0  0  0  0  0  0
   -9.0297    3.9739  -18.8010 F   0  0  0  0  0  0  0  0  0  0  0  0
   -8.9691    4.2469  -16.4676 C   0  0  0  0  0  0  0  0  0  0  0  0
   -8.2564    4.6055  -15.3349 C   0  0  0  0  0  0  0  0  0  0  0  0
   -6.9052    4.9273  -15.4238 C   0  0  0  0  0  0  0  0  0  0  0  0
   -6.2393    4.9628  -16.6512 C   0  0  0  0  0  0  0  0  0  0  0  0
   -3.0649    4.5133  -17.2756 H   0  0  0  0  0  0  0  0  0  0  0  0
   -6.7881    4.5850  -19.8524 H   0  0  0  0  0  0  0  0  0  0  0  0
   -8.8363    4.9228  -14.0165 C   0  0  0  0  0  0  0  0  0  0  0  0
   -9.5790    5.8178  -13.9272 O   0  0  0  0  0  0  0  0  0  0  0  0
   -8.2352    4.0108  -12.9292 N   0  0  0  0  0  0  0  0  0  0  0  0
   -7.6858    3.2689  -13.2712 H   0  0  0  0  0  0  0  0  0  0  0  0
   -8.3422    4.0651  -11.5468 C   0  0  0  0  0  0  0  0  0  0  0  0
   -8.0893    5.2656  -10.8603 C   0  0  0  0  0  0  0  0  0  0  0  0
   -8.1663    5.3180   -9.4646 C   0  0  0  0  0  0  0  0  0  0  0  0
   -8.5900    4.1835   -8.7971 C   0  0  0  0  0  0  0  0  0  0  0  0
   -8.8605    3.0043   -9.4853 C   0  0  0  0  0  0  0  0  0  0  0  0
   -8.6744    2.9066  -10.8520 C   0  0  0  0  0  0  0  0  0  0  0  0
   -9.3869    1.9855   -8.5306 C   0  0  0  0  0  0  0  0  0  0  0  0
   -9.7024    2.7441   -7.2899 N   0  0  0  0  0  0  0  0  0  0  0  0
   -8.8778    3.9708   -7.3488 C   0  0  0  0  0  0  0  0  0  0  0  0
   -9.4619    2.1934   -6.4657 H   0  0  0  0  0  0  0  0  0  0  0  0
   -4.2516    5.8575  -15.4794 N   0  0  0  0  0  0  0  0  0  0  0  0
   -1.8276    5.5951  -14.7490 C   0  0  0  0  0  0  0  0  0  0  0  0
   -3.2219    4.9906  -14.8811 C   0  0  0  0  0  0  0  0  0  0  0  0
   -3.9871    7.2853  -15.2933 C   0  0  0  0  0  0  0  0  0  0  0  0
   -5.1487    8.0777  -14.6802 C   0  0  0  0  0  0  0  0  0  0  0  0
   -5.5932    7.5362  -13.3274 C   0  0  0  0  0  0  0  0  0  0  0  0
   -7.0073    7.6725  -13.2243 O   0  0  0  0  0  0  0  0  0  0  0  0
   -7.2488    8.6084  -13.3058 H   0  0  0  0  0  0  0  0  0  0  0  0
 31 32  1  0  0  0
 32 30  1  0  0  0
 30 33  1  0  0  0
 33 34  1  0  0  0
 34 35  1  0  0  0
 35 36  1  0  0  0
 30  1  1  0  0  0
  1  2  1  0  0  0
  1  3  1  0  0  0
  3  4  1  0  0  0
  4  5  2  0  0  0
  4  6  1  0  0  0
  6  7  1  0  0  0
  7  8  2  0  0  0
  8  9  1  0  0  0
  8 10  1  0  0  0
 10 11  2  0  0  0
 11 16  1  0  0  0
 16 17  2  0  0  0
 16 18  1  0  0  0
 18 20  1  0  0  0
 20 21  2  0  0  0
 21 22  1  0  0  0
 22 23  2  0  0  0
 23 24  1  0  0  0
 24 25  2  0  0  0
 24 26  1  0  0  0
 26 27  1  0  0  0
 27 28  1  0  0  0
 11 12  1  0  0  0
 12 13  2  0  0  0
 13  1  1  0  0  0
 13  7  1  0  0  0
 25 20  1  0  0  0
 28 23  1  0  0  0
 36 37  1  0  0  0
  2 14  1  0  0  0
  6 15  1  0  0  0
 18 19  1  0  0  0
 27 29  1  0  0  0
M  END
> <minimizedAffinity>
-8.26400

> <minimizedRMSD>
0.77109

$$$$
P17276


 31 34  0  0  0  0  0  0  0  0999 V2000
   -4.8490    5.0798  -16.7229 N   0  0  0  0  0  0  0  0  0  0  0  0
   -4.1994    4.8928  -18.0277 C   0  0  0  0  0  0  0  0  0  0  0  0
   -5.0995    5.0494  -19.2362 C   0  0  0  0  0  0  0  0  0  0  0  0
   -4.6254    5.3170  -20.3389 O   0  0  0  0  0  0  0  0  0  0  0  0
   -6.4309    4.8099  -19.0612 N   0  0  0  0  0  0  0  0  0  0  0  0
   -7.0106    4.6313  -17.8006 C   0  0  0  0  0  0  0  0  0  0  0  0
   -8.3908    4.3878  -17.7026 C   0  0  0  0  0  0  0  0  0  0  0  0
   -9.1363    4.2114  -18.8053 F   0  0  0  0  0  0  0  0  0  0  0  0
   -9.0302    4.3841  -16.4709 C   0  0  0  0  0  0  0  0  0  0  0  0
   -8.2703    4.5944  -15.3343 C   0  0  0  0  0  0  0  0  0  0  0  0
   -6.8855    4.7527  -15.4207 C   0  0  0  0  0  0  0  0  0  0  0  0
   -6.2153    4.7815  -16.6476 C   0  0  0  0  0  0  0  0  0  0  0  0
   -7.0090    4.7606  -19.8566 H   0  0  0  0  0  0  0  0  0  0  0  0
   -8.8518    4.9013  -14.0119 C   0  0  0  0  0  0  0  0  0  0  0  0
   -9.6225    5.7725  -13.9216 O   0  0  0  0  0  0  0  0  0  0  0  0
   -8.2137    4.0151  -12.9248 N   0  0  0  0  0  0  0  0  0  0  0  0
   -7.6431    3.2896  -13.2672 H   0  0  0  0  0  0  0  0  0  0  0  0
   -8.3122    4.0731  -11.5422 C   0  0  0  0  0  0  0  0  0  0  0  0
   -8.0578    5.2695  -10.8510 C   0  0  0  0  0  0  0  0  0  0  0  0
   -8.1427    5.3160   -9.4552 C   0  0  0  0  0  0  0  0  0  0  0  0
   -8.5733    4.1802   -8.7933 C   0  0  0  0  0  0  0  0  0  0  0  0
   -8.8476    3.0058   -9.4874 C   0  0  0  0  0  0  0  0  0  0  0  0
   -8.6565    2.9144  -10.8531 C   0  0  0  0  0  0  0  0  0  0  0  0
   -9.3813    1.9836   -8.5413 C   0  0  0  0  0  0  0  0  0  0  0  0
   -9.6910    2.7342   -7.2944 N   0  0  0  0  0  0  0  0  0  0  0  0
   -8.8622    3.9591   -7.3466 C   0  0  0  0  0  0  0  0  0  0  0  0
   -9.4502    2.1768   -6.4749 H   0  0  0  0  0  0  0  0  0  0  0  0
   -3.9987    4.7963  -15.5738 C   0  0  0  0  0  0  0  0  0  0  0  0
   -2.6494    5.5127  -13.7114 C   0  0  0  0  0  0  0  0  0  0  0  0
   -3.3231    5.9144  -14.9343 N   0  0  0  0  0  0  0  0  0  0  0  0
   -2.6327    6.2961  -15.5810 H   0  0  0  0  0  0  0  0  0  0  0  0
 29 30  1  0  0  0
 30 28  1  0  0  0
 28  1  1  0  0  0
  1  2  1  0  0  0
  2  3  1  0  0  0
  3  4  2  0  0  0
  3  5  1  0  0  0
  5  6  1  0  0  0
  6  7  2  0  0  0
  7  8  1  0  0  0
  7  9  1  0  0  0
  9 10  2  0  0  0
 10 14  1  0  0  0
 14 15  2  0  0  0
 14 16  1  0  0  0
 16 18  1  0  0  0
 18 19  2  0  0  0
 19 20  1  0  0  0
 20 21  2  0  0  0
 21 22  1  0  0  0
 22 23  2  0  0  0
 22 24  1  0  0  0
 24 25  1  0  0  0
 25 26  1  0  0  0
 10 11  1  0  0  0
 11 12  2  0  0  0
 12  1  1  0  0  0
 12  6  1  0  0  0
 23 18  1  0  0  0
 26 21  1  0  0  0
 30 31  1  0  0  0
  5 13  1  0  0  0
 16 17  1  0  0  0
 25 27  1  0  0  0
M  END
> <minimizedAffinity>
-9.06881

> <minimizedRMSD>
0.39821

$$$$
P17283


 33 37  0  0  0  0  0  0  0  0999 V2000
   -4.6386    5.5848  -20.3542 O   0  0  0  0  0  0  0  0  0  0  0  0
   -5.0937    5.1095  -19.3183 C   0  0  0  0  0  0  0  0  0  0  0  0
   -4.1955    4.7141  -18.1823 C   0  0  0  0  0  0  0  0  0  0  0  0
   -4.7342    5.1698  -16.8123 C   0  0  0  0  0  0  0  0  0  0  0  0
   -3.8390    4.4694  -15.7505 C   0  0  0  0  0  0  0  0  0  0  0  0
   -3.7313    5.1588  -14.3910 C   0  0  0  0  0  0  0  0  0  0  0  0
   -3.5000    6.5936  -14.5110 N   0  0  0  0  0  0  0  0  0  0  0  0
   -4.5486    7.2443  -15.2876 C   0  0  0  0  0  0  0  0  0  0  0  0
   -4.5634    6.7105  -16.7170 C   0  0  0  0  0  0  0  0  0  0  0  0
   -6.2171    4.7837  -16.7161 C   0  0  0  0  0  0  0  0  0  0  0  0
   -6.8823    4.7302  -15.4886 C   0  0  0  0  0  0  0  0  0  0  0  0
   -8.2659    4.5358  -15.4078 C   0  0  0  0  0  0  0  0  0  0  0  0
   -9.0211    4.3143  -16.5462 C   0  0  0  0  0  0  0  0  0  0  0  0
   -8.3773    4.3394  -17.7789 C   0  0  0  0  0  0  0  0  0  0  0  0
   -9.1230    4.1709  -18.8830 F   0  0  0  0  0  0  0  0  0  0  0  0
   -6.9990    4.6144  -17.8748 C   0  0  0  0  0  0  0  0  0  0  0  0
   -6.4220    4.8536  -19.1281 N   0  0  0  0  0  0  0  0  0  0  0  0
   -2.6033    6.7467  -14.9724 H   0  0  0  0  0  0  0  0  0  0  0  0
   -7.0083    4.8363  -19.9188 H   0  0  0  0  0  0  0  0  0  0  0  0
   -8.8501    4.8450  -14.0874 C   0  0  0  0  0  0  0  0  0  0  0  0
   -9.6460    5.6937  -14.0117 O   0  0  0  0  0  0  0  0  0  0  0  0
   -8.1845    4.0004  -12.9868 N   0  0  0  0  0  0  0  0  0  0  0  0
   -7.5930    3.2860  -13.3168 H   0  0  0  0  0  0  0  0  0  0  0  0
   -8.2822    4.0815  -11.6043 C   0  0  0  0  0  0  0  0  0  0  0  0
   -8.0515    5.2987  -10.9395 C   0  0  0  0  0  0  0  0  0  0  0  0
   -8.1224    5.3740   -9.5445 C   0  0  0  0  0  0  0  0  0  0  0  0
   -8.5110    4.2411   -8.8536 C   0  0  0  0  0  0  0  0  0  0  0  0
   -8.7613    3.0449   -9.5194 C   0  0  0  0  0  0  0  0  0  0  0  0
   -8.5904    2.9301  -10.8866 C   0  0  0  0  0  0  0  0  0  0  0  0
   -9.2412    2.0262   -8.5407 C   0  0  0  0  0  0  0  0  0  0  0  0
   -9.5564    2.7934   -7.3059 N   0  0  0  0  0  0  0  0  0  0  0  0
   -8.7700    4.0432   -7.3977 C   0  0  0  0  0  0  0  0  0  0  0  0
   -9.2847    2.2625   -6.4785 H   0  0  0  0  0  0  0  0  0  0  0  0
  1  2  2  0  0  0
  2  3  1  0  0  0
  3  4  1  0  0  0
  4  5  1  0  0  0
  5  6  1  0  0  0
  6  7  1  0  0  0
  7  8  1  0  0  0
  8  9  1  0  0  0
  4 10  1  0  0  0
 10 11  2  0  0  0
 11 12  1  0  0  0
 12 20  1  0  0  0
 20 21  2  0  0  0
 20 22  1  0  0  0
 22 24  1  0  0  0
 24 25  2  0  0  0
 25 26  1  0  0  0
 26 27  2  0  0  0
 27 28  1  0  0  0
 28 29  2  0  0  0
 28 30  1  0  0  0
 30 31  1  0  0  0
 31 32  1  0  0  0
 12 13  2  0  0  0
 13 14  1  0  0  0
 14 15  1  0  0  0
 14 16  2  0  0  0
 16 17  1  0  0  0
 17  2  1  0  0  0
  9  4  1  0  0  0
 16 10  1  0  0  0
 29 24  1  0  0  0
 32 27  1  0  0  0
  7 18  1  0  0  0
 22 23  1  0  0  0
 31 33  1  0  0  0
 17 19  1  0  0  0
M  END
> <minimizedAffinity>
-10.86419

> <minimizedRMSD>
0.40952

$$$$
P17312


 27 30  0  0  0  0  0  0  0  0999 V2000
   -8.6832    6.4331  -12.4121 O   0  0  0  0  0  0  0  0  0  0  0  0
   -8.3038    5.3496  -12.6217 C   0  0  0  0  0  0  0  0  0  0  0  0
   -8.0972    4.1585  -11.6619 N   0  0  0  0  0  0  0  0  0  0  0  0
   -7.6898    3.3628  -12.0743 H   0  0  0  0  0  0  0  0  0  0  0  0
   -8.3930    4.0264  -10.3094 C   0  0  0  0  0  0  0  0  0  0  0  0
   -8.1419    5.0727   -9.4061 C   0  0  0  0  0  0  0  0  0  0  0  0
   -8.4137    4.9224   -8.0429 C   0  0  0  0  0  0  0  0  0  0  0  0
   -8.9488    3.7227   -7.6145 C   0  0  0  0  0  0  0  0  0  0  0  0
   -9.1964    2.6870   -8.5102 C   0  0  0  0  0  0  0  0  0  0  0  0
   -8.9218    2.8165   -9.8597 C   0  0  0  0  0  0  0  0  0  0  0  0
   -9.7329    1.5134   -7.7637 C   0  0  0  0  0  0  0  0  0  0  0  0
  -10.1350    2.0469   -6.4374 N   0  0  0  0  0  0  0  0  0  0  0  0
   -9.3426    3.2816   -6.2443 C   0  0  0  0  0  0  0  0  0  0  0  0
   -9.9241    1.3707   -5.7035 H   0  0  0  0  0  0  0  0  0  0  0  0
   -7.9253    4.9813  -14.0042 C   0  0  0  0  0  0  0  0  0  0  0  0
   -8.9618    4.7634  -14.9207 C   0  0  0  0  0  0  0  0  0  0  0  0
   -8.6010    4.5970  -16.2603 C   0  0  0  0  0  0  0  0  0  0  0  0
   -9.6126    4.4120  -17.6359 S   0  0  0  0  0  0  0  0  0  0  0  0
   -8.2239    4.3640  -18.6240 C   0  0  0  0  0  0  0  0  0  0  0  0
   -7.0666    4.4385  -18.0222 N   0  0  0  0  0  0  0  0  0  0  0  0
   -7.2687    4.6115  -16.6757 C   0  0  0  0  0  0  0  0  0  0  0  0
   -6.2565    4.7954  -15.7232 C   0  0  0  0  0  0  0  0  0  0  0  0
   -4.9848    4.7945  -16.1519 F   0  0  0  0  0  0  0  0  0  0  0  0
   -6.5754    4.9819  -14.3778 C   0  0  0  0  0  0  0  0  0  0  0  0
   -5.6672    5.1325  -13.3683 O   0  0  0  0  0  0  0  0  0  0  0  0
   -4.9153    6.3350  -13.3403 C   0  0  0  0  0  0  0  0  0  0  0  0
   -5.5762    7.2504  -12.5860 F   0  0  0  0  0  0  0  0  0  0  0  0
  1  2  2  0  0  0
  2  3  1  0  0  0
  3  5  1  0  0  0
  5  6  2  0  0  0
  6  7  1  0  0  0
  7  8  2  0  0  0
  8  9  1  0  0  0
  9 10  2  0  0  0
  9 11  1  0  0  0
 11 12  1  0  0  0
 12 13  1  0  0  0
  2 15  1  0  0  0
 15 16  2  0  0  0
 16 17  1  0  0  0
 17 18  1  0  0  0
 18 19  1  0  0  0
 19 20  2  0  0  0
 20 21  1  0  0  0
 21 22  1  0  0  0
 22 23  1  0  0  0
 22 24  2  0  0  0
 24 25  1  0  0  0
 25 26  1  0  0  0
 26 27  1  0  0  0
 10  5  1  0  0  0
 24 15  1  0  0  0
 13  8  1  0  0  0
 21 17  2  0  0  0
  3  4  1  0  0  0
 12 14  1  0  0  0
M  END
> <minimizedAffinity>
-6.90739

> <minimizedRMSD>
1.25074

$$$$
P17325


 31 35  0  0  0  0  0  0  0  0999 V2000
   -3.3253    5.8632  -13.1965 C   0  0  0  0  0  0  0  0  0  0  0  0
   -4.3858    5.6289  -14.2301 C   0  0  0  0  0  0  0  0  0  0  0  0
   -4.0708    5.6794  -15.5756 C   0  0  0  0  0  0  0  0  0  0  0  0
   -5.0792    5.4643  -16.5156 C   0  0  0  0  0  0  0  0  0  0  0  0
   -6.3696    5.0851  -16.0543 C   0  0  0  0  0  0  0  0  0  0  0  0
   -6.6168    5.1128  -14.6658 C   0  0  0  0  0  0  0  0  0  0  0  0
   -5.6424    5.4144  -13.7845 N   0  0  0  0  0  0  0  0  0  0  0  0
   -7.9118    4.8623  -14.2304 C   0  0  0  0  0  0  0  0  0  0  0  0
   -8.9748    4.5368  -15.0656 C   0  0  0  0  0  0  0  0  0  0  0  0
   -8.7047    4.4662  -16.4178 C   0  0  0  0  0  0  0  0  0  0  0  0
   -9.8145    4.1608  -17.6778 S   0  0  0  0  0  0  0  0  0  0  0  0
   -8.5288    4.2222  -18.7789 C   0  0  0  0  0  0  0  0  0  0  0  0
   -7.3416    4.5119  -18.3003 N   0  0  0  0  0  0  0  0  0  0  0  0
   -7.4318    4.7016  -16.9343 C   0  0  0  0  0  0  0  0  0  0  0  0
   -4.7613    5.7196  -17.9651 C   0  0  0  0  0  0  0  0  0  0  0  0
   -4.1716    4.5823  -18.5483 O   0  0  0  0  0  0  0  0  0  0  0  0
   -3.3465    4.3717  -18.0838 H   0  0  0  0  0  0  0  0  0  0  0  0
   -8.2545    4.9842  -12.8178 C   0  0  0  0  0  0  0  0  0  0  0  0
   -8.8603    5.9765  -12.4325 O   0  0  0  0  0  0  0  0  0  0  0  0
   -7.9527    3.7938  -11.9297 C   0  0  0  0  0  0  0  0  0  0  0  0
   -7.5141    2.7640  -12.4282 O   0  0  0  0  0  0  0  0  0  0  0  0
   -8.2794    3.8519  -10.4991 C   0  0  0  0  0  0  0  0  0  0  0  0
   -7.9931    4.9910   -9.7262 C   0  0  0  0  0  0  0  0  0  0  0  0
   -8.2510    4.9847   -8.3517 C   0  0  0  0  0  0  0  0  0  0  0  0
   -8.8127    3.8464   -7.7935 C   0  0  0  0  0  0  0  0  0  0  0  0
   -9.1211    2.7380   -8.5730 C   0  0  0  0  0  0  0  0  0  0  0  0
   -8.8428    2.7108   -9.9244 C   0  0  0  0  0  0  0  0  0  0  0  0
   -9.7109    1.6672   -7.7239 C   0  0  0  0  0  0  0  0  0  0  0  0
   -9.9007    2.2713   -6.3794 N   0  0  0  0  0  0  0  0  0  0  0  0
   -9.1575    3.5505   -6.3725 C   0  0  0  0  0  0  0  0  0  0  0  0
   -9.5331    1.6485   -5.6602 H   0  0  0  0  0  0  0  0  0  0  0  0
  1  2  1  0  0  0
  2  3  2  0  0  0
  3  4  1  0  0  0
  4 15  1  0  0  0
 15 16  1  0  0  0
  4  5  2  0  0  0
  5  6  1  0  0  0
  6  7  2  0  0  0
  6  8  1  0  0  0
  8 18  1  0  0  0
 18 19  2  0  0  0
 18 20  1  0  0  0
 20 21  2  0  0  0
 20 22  1  0  0  0
 22 23  2  0  0  0
 23 24  1  0  0  0
 24 25  2  0  0  0
 25 26  1  0  0  0
 26 27  2  0  0  0
 26 28  1  0  0  0
 28 29  1  0  0  0
 29 30  1  0  0  0
  8  9  2  0  0  0
  9 10  1  0  0  0
 10 11  1  0  0  0
 11 12  1  0  0  0
 12 13  2  0  0  0
 13 14  1  0  0  0
  7  2  1  0  0  0
 27 22  1  0  0  0
 14 10  2  0  0  0
 14  5  1  0  0  0
 30 25  1  0  0  0
 16 17  1  0  0  0
 29 31  1  0  0  0
M  END
> <minimizedAffinity>
-7.95484

> <minimizedRMSD>
0.62403

$$$$
P17336


 28 32  0  0  0  0  0  0  0  0999 V2000
   -5.6202    3.1570  -12.9120 O   0  0  0  0  0  0  0  0  0  0  0  0
   -6.4362    3.9837  -13.0493 C   0  0  0  0  0  0  0  0  0  0  0  0
   -7.5826    4.4403  -12.0950 N   0  0  0  0  0  0  0  0  0  0  0  0
   -8.0968    5.2182  -12.4108 H   0  0  0  0  0  0  0  0  0  0  0  0
   -6.6309    4.7834  -14.3295 C   0  0  0  0  0  0  0  0  0  0  0  0
   -8.0172    4.2949  -14.8238 C   0  0  0  0  0  0  0  0  0  0  0  0
   -8.3242    4.8288  -16.1953 C   0  0  0  0  0  0  0  0  0  0  0  0
   -9.7713    4.1672  -17.0308 S   0  0  0  0  0  0  0  0  0  0  0  0
   -9.0562    4.4500  -18.6575 C   0  0  0  0  0  0  0  0  0  0  0  0
   -7.7692    5.1232  -18.4579 N   0  0  0  0  0  0  0  0  0  0  0  0
   -7.2220    4.5853  -17.2258 C   0  0  0  0  0  0  0  0  0  0  0  0
   -5.9367    5.2234  -16.7102 C   0  0  0  0  0  0  0  0  0  0  0  0
   -4.7243    5.0809  -17.5299 N   0  0  0  0  0  0  0  0  0  0  0  0
   -3.5967    5.1366  -16.5793 C   0  0  0  0  0  0  0  0  0  0  0  0
   -4.1820    5.1019  -15.1644 C   0  0  0  0  0  0  0  0  0  0  0  0
   -5.5653    4.5352  -15.3962 C   0  0  0  0  0  0  0  0  0  0  0  0
   -7.9056    6.1307  -18.3749 H   0  0  0  0  0  0  0  0  0  0  0  0
   -4.6591    5.8425  -18.2052 H   0  0  0  0  0  0  0  0  0  0  0  0
   -7.9933    3.9301  -10.8791 C   0  0  0  0  0  0  0  0  0  0  0  0
   -8.6503    2.6944  -10.8250 C   0  0  0  0  0  0  0  0  0  0  0  0
   -9.1662    2.2298   -9.6177 C   0  0  0  0  0  0  0  0  0  0  0  0
   -8.9440    2.9810   -8.4835 C   0  0  0  0  0  0  0  0  0  0  0  0
   -8.2333    4.1755   -8.5312 C   0  0  0  0  0  0  0  0  0  0  0  0
   -7.8061    4.7039   -9.7331 C   0  0  0  0  0  0  0  0  0  0  0  0
   -8.0256    4.6690   -7.1420 C   0  0  0  0  0  0  0  0  0  0  0  0
   -8.4301    3.5457   -6.2546 N   0  0  0  0  0  0  0  0  0  0  0  0
   -9.3346    2.6922   -7.0773 C   0  0  0  0  0  0  0  0  0  0  0  0
   -8.9225    3.8993   -5.4343 H   0  0  0  0  0  0  0  0  0  0  0  0
  1  2  2  0  0  0
  2  3  1  0  0  0
  3 19  1  0  0  0
 19 20  2  0  0  0
 20 21  1  0  0  0
 21 22  2  0  0  0
 22 23  1  0  0  0
 23 24  2  0  0  0
 23 25  1  0  0  0
 25 26  1  0  0  0
 26 27  1  0  0  0
  5  2  1  0  0  0
  5  6  1  0  0  0
  7  6  1  0  0  0
  7  8  1  0  0  0
  8  9  1  0  0  0
  9 10  1  0  0  0
 11 10  1  0  0  0
 11 12  1  0  0  0
 12 13  1  0  0  0
 13 14  1  0  0  0
 14 15  1  0  0  0
 16 15  1  0  0  0
 24 19  1  0  0  0
 16  5  1  0  0  0
 27 22  1  0  0  0
 11  7  1  0  0  0
 16 12  1  0  0  0
  3  4  1  0  0  0
 26 28  1  0  0  0
 10 17  1  0  0  0
 13 18  1  0  0  0
M  END
> <minimizedAffinity>
-7.47552

> <minimizedRMSD>
0.45421

$$$$
P17339


 27 31  0  0  0  0  0  0  0  0999 V2000
   -7.0676    3.6072  -13.3887 C   0  0  0  0  0  0  0  0  0  0  0  0
   -6.4075    2.6472  -13.3330 O   0  0  0  0  0  0  0  0  0  0  0  0
   -7.9095    4.3059  -12.3023 N   0  0  0  0  0  0  0  0  0  0  0  0
   -8.3204    5.1556  -12.5823 H   0  0  0  0  0  0  0  0  0  0  0  0
   -5.1574    5.1673  -18.9813 C   0  0  0  0  0  0  0  0  0  0  0  0
   -5.3367    4.9508  -17.5645 N   0  0  0  0  0  0  0  0  0  0  0  0
   -4.2509    4.9656  -16.7382 N   0  0  0  0  0  0  0  0  0  0  0  0
   -4.7642    4.6563  -15.5340 C   0  0  0  0  0  0  0  0  0  0  0  0
   -6.1681    4.5508  -15.5471 C   0  0  0  0  0  0  0  0  0  0  0  0
   -7.2477    4.2534  -14.6959 C   0  0  0  0  0  0  0  0  0  0  0  0
   -8.5927    4.2750  -15.1589 C   0  0  0  0  0  0  0  0  0  0  0  0
   -8.8138    4.3795  -16.5296 C   0  0  0  0  0  0  0  0  0  0  0  0
  -10.2198    4.2108  -17.4904 S   0  0  0  0  0  0  0  0  0  0  0  0
   -9.2475    4.3518  -18.8861 C   0  0  0  0  0  0  0  0  0  0  0  0
   -7.9649    4.5945  -18.7052 N   0  0  0  0  0  0  0  0  0  0  0  0
   -7.7385    4.6037  -17.3699 C   0  0  0  0  0  0  0  0  0  0  0  0
   -6.4705    4.7372  -16.8772 C   0  0  0  0  0  0  0  0  0  0  0  0
   -8.1821    3.9323  -10.9948 C   0  0  0  0  0  0  0  0  0  0  0  0
   -8.7732    2.6800  -10.7592 C   0  0  0  0  0  0  0  0  0  0  0  0
   -9.1438    2.2950   -9.4737 C   0  0  0  0  0  0  0  0  0  0  0  0
   -8.8445    3.1487   -8.4370 C   0  0  0  0  0  0  0  0  0  0  0  0
   -8.2039    4.3663   -8.6598 C   0  0  0  0  0  0  0  0  0  0  0  0
   -7.9188    4.8079   -9.9419 C   0  0  0  0  0  0  0  0  0  0  0  0
   -7.8928    4.9857   -7.3393 C   0  0  0  0  0  0  0  0  0  0  0  0
   -8.1228    3.9113   -6.3330 N   0  0  0  0  0  0  0  0  0  0  0  0
   -9.0760    2.9651   -6.9785 C   0  0  0  0  0  0  0  0  0  0  0  0
   -8.5273    4.3003   -5.4813 H   0  0  0  0  0  0  0  0  0  0  0  0
  5  6  1  0  0  0
  6  7  1  0  0  0
  7  8  2  0  0  0
  8  9  1  0  0  0
  9 10  2  0  0  0
 10  1  1  0  0  0
  1  2  2  0  0  0
  1  3  1  0  0  0
  3 18  1  0  0  0
 18 19  2  0  0  0
 19 20  1  0  0  0
 20 21  2  0  0  0
 21 22  1  0  0  0
 22 23  2  0  0  0
 22 24  1  0  0  0
 24 25  1  0  0  0
 25 26  1  0  0  0
 10 11  1  0  0  0
 11 12  2  0  0  0
 12 13  1  0  0  0
 13 14  1  0  0  0
 14 15  2  0  0  0
 15 16  1  0  0  0
 16 17  2  0  0  0
 17  6  1  0  0  0
 17  9  1  0  0  0
 23 18  1  0  0  0
 16 12  1  0  0  0
 26 21  1  0  0  0
  3  4  1  0  0  0
 25 27  1  0  0  0
M  END
> <minimizedAffinity>
-7.79305

> <minimizedRMSD>
0.30001

$$$$
P17402


 26 30  0  0  0  0  0  0  0  0999 V2000
   -7.4803    3.2804  -13.0936 C   0  0  0  0  0  0  0  0  0  0  0  0
   -7.3093    2.1304  -13.1796 O   0  0  0  0  0  0  0  0  0  0  0  0
   -7.8687    4.1434  -11.8807 N   0  0  0  0  0  0  0  0  0  0  0  0
   -7.8770    5.1131  -12.0506 H   0  0  0  0  0  0  0  0  0  0  0  0
   -3.8299    4.9760  -17.2362 C   0  0  0  0  0  0  0  0  0  0  0  0
   -5.2981    4.9054  -17.3976 C   0  0  0  0  0  0  0  0  0  0  0  0
   -6.0361    4.8978  -18.5522 C   0  0  0  0  0  0  0  0  0  0  0  0
   -7.4276    4.7359  -18.2607 C   0  0  0  0  0  0  0  0  0  0  0  0
   -8.6439    4.4429  -18.8021 C   0  0  0  0  0  0  0  0  0  0  0  0
   -9.8582    4.3685  -17.5583 S   0  0  0  0  0  0  0  0  0  0  0  0
   -8.6720    4.4517  -16.3109 C   0  0  0  0  0  0  0  0  0  0  0  0
   -8.6949    4.2507  -14.9421 C   0  0  0  0  0  0  0  0  0  0  0  0
   -7.4276    4.0974  -14.3156 C   0  0  0  0  0  0  0  0  0  0  0  0
   -6.1904    4.3724  -14.9296 C   0  0  0  0  0  0  0  0  0  0  0  0
   -6.2261    4.7246  -16.2589 C   0  0  0  0  0  0  0  0  0  0  0  0
   -7.4614    4.7061  -16.8862 C   0  0  0  0  0  0  0  0  0  0  0  0
   -8.2083    3.7785  -10.5893 C   0  0  0  0  0  0  0  0  0  0  0  0
   -8.8539    2.5507  -10.3733 C   0  0  0  0  0  0  0  0  0  0  0  0
   -9.2453    2.1653   -9.0960 C   0  0  0  0  0  0  0  0  0  0  0  0
   -8.9151    2.9962   -8.0505 C   0  0  0  0  0  0  0  0  0  0  0  0
   -8.2365    4.1964   -8.2582 C   0  0  0  0  0  0  0  0  0  0  0  0
   -7.9234    4.6377   -9.5309 C   0  0  0  0  0  0  0  0  0  0  0  0
   -7.9227    4.8004   -6.9333 C   0  0  0  0  0  0  0  0  0  0  0  0
   -8.1690    3.7190   -5.9395 N   0  0  0  0  0  0  0  0  0  0  0  0
   -9.1424    2.7980   -6.5939 C   0  0  0  0  0  0  0  0  0  0  0  0
   -8.5634    4.1050   -5.0818 H   0  0  0  0  0  0  0  0  0  0  0  0
  5  6  1  0  0  0
  6  7  2  0  0  0
  7  8  1  0  0  0
  8  9  2  0  0  0
  9 10  1  0  0  0
 10 11  1  0  0  0
 11 12  2  0  0  0
 12 13  1  0  0  0
 13  1  1  0  0  0
  1  2  2  0  0  0
  1  3  1  0  0  0
  3 17  1  0  0  0
 17 18  2  0  0  0
 18 19  1  0  0  0
 19 20  2  0  0  0
 20 21  1  0  0  0
 21 22  2  0  0  0
 21 23  1  0  0  0
 23 24  1  0  0  0
 24 25  1  0  0  0
 13 14  2  0  0  0
 14 15  1  0  0  0
 15 16  2  0  0  0
 15  6  1  0  0  0
 16  8  1  0  0  0
 16 11  1  0  0  0
 22 17  1  0  0  0
 25 20  1  0  0  0
  3  4  1  0  0  0
 24 26  1  0  0  0
M  END
> <minimizedAffinity>
-8.91895

> <minimizedRMSD>
0.40325

$$$$
P17416


 28 31  0  0  0  0  0  0  0  0999 V2000
   -4.5401    4.8979  -16.6528 N   0  0  0  0  0  0  0  0  0  0  0  0
   -5.1361    4.4637  -15.5108 C   0  0  0  0  0  0  0  0  0  0  0  0
   -6.4683    4.4271  -15.8228 C   0  0  0  0  0  0  0  0  0  0  0  0
   -7.5350    4.0384  -15.0161 C   0  0  0  0  0  0  0  0  0  0  0  0
   -8.7754    4.1393  -15.6850 C   0  0  0  0  0  0  0  0  0  0  0  0
   -8.9298    4.5333  -17.0466 C   0  0  0  0  0  0  0  0  0  0  0  0
  -10.2207    4.4619  -17.6208 N   0  0  0  0  0  0  0  0  0  0  0  0
   -7.8195    4.8294  -17.8678 C   0  0  0  0  0  0  0  0  0  0  0  0
   -6.5750    4.8235  -17.2125 C   0  0  0  0  0  0  0  0  0  0  0  0
   -5.3574    5.1504  -17.6798 N   0  0  0  0  0  0  0  0  0  0  0  0
  -11.0001    4.2561  -17.0556 H   0  0  0  0  0  0  0  0  0  0  0  0
  -10.3397    4.6180  -18.5855 H   0  0  0  0  0  0  0  0  0  0  0  0
   -7.4583    3.3908  -13.6984 C   0  0  0  0  0  0  0  0  0  0  0  0
   -7.1344    2.2709  -13.6489 O   0  0  0  0  0  0  0  0  0  0  0  0
   -7.9406    4.3435  -12.5826 N   0  0  0  0  0  0  0  0  0  0  0  0
   -8.0833    5.2746  -12.8688 H   0  0  0  0  0  0  0  0  0  0  0  0
   -8.2067    4.0996  -11.2362 C   0  0  0  0  0  0  0  0  0  0  0  0
   -8.5667    2.8083  -10.8185 C   0  0  0  0  0  0  0  0  0  0  0  0
   -8.8833    2.5427   -9.4852 C   0  0  0  0  0  0  0  0  0  0  0  0
   -8.7839    3.5738   -8.5752 C   0  0  0  0  0  0  0  0  0  0  0  0
   -8.3808    4.8431   -8.9734 C   0  0  0  0  0  0  0  0  0  0  0  0
   -8.1275    5.1393  -10.3074 C   0  0  0  0  0  0  0  0  0  0  0  0
   -8.2152    5.6980   -7.7651 C   0  0  0  0  0  0  0  0  0  0  0  0
   -8.7571    4.9268   -6.6193 N   0  0  0  0  0  0  0  0  0  0  0  0
   -9.0157    3.5446   -7.1055 C   0  0  0  0  0  0  0  0  0  0  0  0
   -9.6251    5.3505   -6.2915 H   0  0  0  0  0  0  0  0  0  0  0  0
   -2.8608    6.4307  -16.5049 C   0  0  0  0  0  0  0  0  0  0  0  0
   -3.1747    5.0834  -16.8285 O   0  0  0  0  0  0  0  0  0  0  0  0
 27 28  1  0  0  0
 28  1  1  0  0  0
  1  2  1  0  0  0
  2  3  2  0  0  0
  3  4  1  0  0  0
  4 13  1  0  0  0
 13 14  2  0  0  0
 13 15  1  0  0  0
 15 17  1  0  0  0
 17 18  2  0  0  0
 18 19  1  0  0  0
 19 20  2  0  0  0
 20 21  1  0  0  0
 21 22  2  0  0  0
 21 23  1  0  0  0
 23 24  1  0  0  0
 24 25  1  0  0  0
  4  5  2  0  0  0
  5  6  1  0  0  0
  6  7  1  0  0  0
  6  8  2  0  0  0
  8  9  1  0  0  0
  9 10  2  0  0  0
 10  1  1  0  0  0
  9  3  1  0  0  0
 22 17  1  0  0  0
 25 20  1  0  0  0
 15 16  1  0  0  0
 24 26  1  0  0  0
  7 11  1  0  0  0
  7 12  1  0  0  0
M  END
> <minimizedAffinity>
-8.04616

> <minimizedRMSD>
0.28051

$$$$
P17417


 29 33  0  0  0  0  0  0  0  0999 V2000
   -7.6173    4.0663  -14.9926 C   0  0  0  0  0  0  0  0  0  0  0  0
   -8.8578    4.1071  -15.6119 C   0  0  0  0  0  0  0  0  0  0  0  0
   -9.0701    4.5526  -16.8775 N   0  0  0  0  0  0  0  0  0  0  0  0
   -7.9979    4.9946  -17.5685 C   0  0  0  0  0  0  0  0  0  0  0  0
   -6.7337    5.0313  -17.0223 C   0  0  0  0  0  0  0  0  0  0  0  0
   -6.5366    4.5367  -15.7196 C   0  0  0  0  0  0  0  0  0  0  0  0
   -5.0890    4.5424  -15.3415 C   0  0  0  0  0  0  0  0  0  0  0  0
   -4.4169    5.0953  -16.5955 C   0  0  0  0  0  0  0  0  0  0  0  0
   -3.2042    5.2304  -16.7300 O   0  0  0  0  0  0  0  0  0  0  0  0
   -5.4631    5.5093  -17.6597 C   0  0  0  0  0  0  0  0  0  0  0  0
   -5.1387    4.9201  -19.0319 C   0  0  0  0  0  0  0  0  0  0  0  0
   -4.8687    6.1241  -19.9184 C   0  0  0  0  0  0  0  0  0  0  0  0
   -5.6360    7.2349  -19.2407 C   0  0  0  0  0  0  0  0  0  0  0  0
   -5.4277    6.9934  -17.8072 N   0  0  0  0  0  0  0  0  0  0  0  0
   -6.1705    7.4265  -17.2585 H   0  0  0  0  0  0  0  0  0  0  0  0
   -7.1487    2.2476  -13.7178 O   0  0  0  0  0  0  0  0  0  0  0  0
   -7.5137    3.3560  -13.7028 C   0  0  0  0  0  0  0  0  0  0  0  0
   -8.0252    4.2264  -12.5325 N   0  0  0  0  0  0  0  0  0  0  0  0
   -8.2036    5.1663  -12.7651 H   0  0  0  0  0  0  0  0  0  0  0  0
   -8.2752    3.8969  -11.2005 C   0  0  0  0  0  0  0  0  0  0  0  0
   -8.8065    2.6331  -10.8931 C   0  0  0  0  0  0  0  0  0  0  0  0
   -9.1130    2.2754   -9.5811 C   0  0  0  0  0  0  0  0  0  0  0  0
   -8.8129    3.1715   -8.5829 C   0  0  0  0  0  0  0  0  0  0  0  0
   -8.2360    4.4068   -8.8706 C   0  0  0  0  0  0  0  0  0  0  0  0
   -8.0104    4.8137  -10.1799 C   0  0  0  0  0  0  0  0  0  0  0  0
   -7.9133    5.0836   -7.5794 C   0  0  0  0  0  0  0  0  0  0  0  0
   -8.0521    4.0308   -6.5326 N   0  0  0  0  0  0  0  0  0  0  0  0
   -8.9836    3.0235   -7.1117 C   0  0  0  0  0  0  0  0  0  0  0  0
   -8.4407    4.4268   -5.6766 H   0  0  0  0  0  0  0  0  0  0  0  0
 16 17  2  0  0  0
 17 18  1  0  0  0
 18 20  1  0  0  0
 20 21  2  0  0  0
 21 22  1  0  0  0
 22 23  2  0  0  0
 23 24  1  0  0  0
 24 25  2  0  0  0
 24 26  1  0  0  0
 26 27  1  0  0  0
 27 28  1  0  0  0
 17  1  1  0  0  0
  1  2  2  0  0  0
  2  3  1  0  0  0
  3  4  2  0  0  0
  4  5  1  0  0  0
  5  6  2  0  0  0
  6  7  1  0  0  0
  7  8  1  0  0  0
  8  9  2  0  0  0
  8 10  1  0  0  0
 10 11  1  0  0  0
 11 12  1  0  0  0
 12 13  1  0  0  0
 13 14  1  0  0  0
 25 20  1  0  0  0
  6  1  1  0  0  0
 14 10  1  0  0  0
 28 23  1  0  0  0
 10  5  1  0  0  0
 18 19  1  0  0  0
 27 29  1  0  0  0
 14 15  1  0  0  0
M  END
> <minimizedAffinity>
-8.69047

> <minimizedRMSD>
0.36536

$$$$
P17419


 28 31  0  0  0  0  0  0  0  0999 V2000
   -6.8729    2.5571  -13.8501 O   0  0  0  0  0  0  0  0  0  0  0  0
   -7.4265    3.5845  -13.8700 C   0  0  0  0  0  0  0  0  0  0  0  0
   -8.1046    4.3788  -12.7313 N   0  0  0  0  0  0  0  0  0  0  0  0
   -8.4400    5.2672  -12.9914 H   0  0  0  0  0  0  0  0  0  0  0  0
   -8.3190    4.0421  -11.3949 C   0  0  0  0  0  0  0  0  0  0  0  0
   -8.7749    2.7499  -11.0803 C   0  0  0  0  0  0  0  0  0  0  0  0
   -9.0446    2.3758   -9.7651 C   0  0  0  0  0  0  0  0  0  0  0  0
   -8.7825    3.2886   -8.7713 C   0  0  0  0  0  0  0  0  0  0  0  0
   -8.2791    4.5542   -9.0666 C   0  0  0  0  0  0  0  0  0  0  0  0
   -8.0931    4.9730  -10.3787 C   0  0  0  0  0  0  0  0  0  0  0  0
   -7.9785    5.2489   -7.7796 C   0  0  0  0  0  0  0  0  0  0  0  0
   -8.0456    4.1912   -6.7308 N   0  0  0  0  0  0  0  0  0  0  0  0
   -8.9266    3.1329   -7.2979 C   0  0  0  0  0  0  0  0  0  0  0  0
   -8.4452    4.5658   -5.8703 H   0  0  0  0  0  0  0  0  0  0  0  0
   -7.6185    4.2183  -15.1817 C   0  0  0  0  0  0  0  0  0  0  0  0
   -8.8921    4.2294  -15.7302 C   0  0  0  0  0  0  0  0  0  0  0  0
   -9.1709    4.5264  -17.0207 N   0  0  0  0  0  0  0  0  0  0  0  0
   -8.1553    4.8016  -17.8689 C   0  0  0  0  0  0  0  0  0  0  0  0
   -6.8589    4.8392  -17.3744 C   0  0  0  0  0  0  0  0  0  0  0  0
   -6.5662    4.5706  -16.0348 C   0  0  0  0  0  0  0  0  0  0  0  0
   -5.1630    4.6846  -15.9550 C   0  0  0  0  0  0  0  0  0  0  0  0
   -4.5981    4.9998  -17.1250 N   0  0  0  0  0  0  0  0  0  0  0  0
   -5.6440    5.0184  -17.9924 N   0  0  0  0  0  0  0  0  0  0  0  0
   -5.3857    4.9846  -19.4337 C   0  0  0  0  0  0  0  0  0  0  0  0
   -5.4819    6.3474  -19.9768 N   0  0  0  0  0  0  0  0  0  0  0  0
   -5.2480    6.1802  -21.4083 O   0  0  0  0  0  0  0  0  0  0  0  0
   -4.7730    6.9526  -19.5627 H   0  0  0  0  0  0  0  0  0  0  0  0
   -5.9315    5.6025  -21.7824 H   0  0  0  0  0  0  0  0  0  0  0  0
  1  2  2  0  0  0
  2  3  1  0  0  0
  3  5  1  0  0  0
  5  6  2  0  0  0
  6  7  1  0  0  0
  7  8  2  0  0  0
  8  9  1  0  0  0
  9 10  2  0  0  0
  9 11  1  0  0  0
 11 12  1  0  0  0
 12 13  1  0  0  0
  2 15  1  0  0  0
 15 16  2  0  0  0
 16 17  1  0  0  0
 17 18  2  0  0  0
 18 19  1  0  0  0
 19 20  2  0  0  0
 20 21  1  0  0  0
 21 22  2  0  0  0
 22 23  1  0  0  0
 23 24  1  0  0  0
 24 25  1  0  0  0
 25 26  1  0  0  0
 10  5  1  0  0  0
 20 15  1  0  0  0
 13  8  1  0  0  0
 23 19  1  0  0  0
  3  4  1  0  0  0
 12 14  1  0  0  0
 25 27  1  0  0  0
 26 28  1  0  0  0
M  END
> <minimizedAffinity>
-7.89991

> <minimizedRMSD>
0.50276

$$$$
P17426


 30 34  0  0  0  0  0  0  0  0999 V2000
   -7.0671    2.5174  -13.6236 O   0  0  0  0  0  0  0  0  0  0  0  0
   -7.4317    3.8789  -13.6884 C   0  0  0  0  0  0  0  0  0  0  0  0
   -6.4316    4.5769  -13.0905 F   0  0  0  0  0  0  0  0  0  0  0  0
   -6.9673    2.2532  -12.6956 H   0  0  0  0  0  0  0  0  0  0  0  0
   -7.5724    4.2348  -15.1358 C   0  0  0  0  0  0  0  0  0  0  0  0
   -8.7955    4.2529  -15.8510 C   0  0  0  0  0  0  0  0  0  0  0  0
   -9.0481    4.4719  -17.2081 N   0  0  0  0  0  0  0  0  0  0  0  0
   -8.0180    4.7389  -18.0681 C   0  0  0  0  0  0  0  0  0  0  0  0
   -6.7760    4.7805  -17.4515 C   0  0  0  0  0  0  0  0  0  0  0  0
   -5.5643    5.0148  -18.0493 C   0  0  0  0  0  0  0  0  0  0  0  0
   -4.6219    4.9002  -17.0553 N   0  0  0  0  0  0  0  0  0  0  0  0
   -5.2096    4.6261  -15.8430 C   0  0  0  0  0  0  0  0  0  0  0  0
   -6.5654    4.5359  -16.0619 C   0  0  0  0  0  0  0  0  0  0  0  0
   -3.2265    5.0874  -17.2536 N   0  0  0  0  0  0  0  0  0  0  0  0
   -2.8534    4.8285  -18.6494 C   0  0  0  0  0  0  0  0  0  0  0  0
   -3.7259    5.6339  -19.6141 C   0  0  0  0  0  0  0  0  0  0  0  0
   -5.1942    5.2691  -19.4660 C   0  0  0  0  0  0  0  0  0  0  0  0
   -2.7147    4.4465  -16.6472 H   0  0  0  0  0  0  0  0  0  0  0  0
   -8.6587    4.0572  -12.9301 N   0  0  0  0  0  0  0  0  0  0  0  0
   -9.5016    4.2992  -13.3776 H   0  0  0  0  0  0  0  0  0  0  0  0
   -8.6037    3.8724  -11.5297 C   0  0  0  0  0  0  0  0  0  0  0  0
   -8.9338    2.6011  -11.0119 C   0  0  0  0  0  0  0  0  0  0  0  0
   -8.9441    2.3202   -9.6475 C   0  0  0  0  0  0  0  0  0  0  0  0
   -8.6365    3.3433   -8.7882 C   0  0  0  0  0  0  0  0  0  0  0  0
   -8.2931    4.6058   -9.2671 C   0  0  0  0  0  0  0  0  0  0  0  0
   -8.2780    4.8922  -10.6297 C   0  0  0  0  0  0  0  0  0  0  0  0
   -8.0088    5.4826   -8.0926 C   0  0  0  0  0  0  0  0  0  0  0  0
   -7.8444    4.5543   -6.9358 N   0  0  0  0  0  0  0  0  0  0  0  0
   -8.6397    3.3486   -7.2992 C   0  0  0  0  0  0  0  0  0  0  0  0
   -8.2049    4.9782   -6.0810 H   0  0  0  0  0  0  0  0  0  0  0  0
  2  1  1  0  0  0
  2  3  1  0  0  0
  2 19  1  0  0  0
 19 21  1  0  0  0
 21 22  2  0  0  0
 22 23  1  0  0  0
 23 24  2  0  0  0
 24 25  1  0  0  0
 25 26  2  0  0  0
 25 27  1  0  0  0
 27 28  1  0  0  0
 28 29  1  0  0  0
  2  5  1  0  0  0
  5  6  2  0  0  0
  6  7  1  0  0  0
  7  8  2  0  0  0
  8  9  1  0  0  0
  9 10  2  0  0  0
 10 11  1  0  0  0
 11 12  1  0  0  0
 12 13  2  0  0  0
 11 14  1  0  0  0
 14 15  1  0  0  0
 15 16  1  0  0  0
 16 17  1  0  0  0
 26 21  1  0  0  0
 13  5  1  0  0  0
 29 24  1  0  0  0
 13  9  1  0  0  0
 17 10  1  0  0  0
  1  4  1  0  0  0
 19 20  1  0  0  0
 28 30  1  0  0  0
 14 18  1  0  0  0
M  END
> <minimizedAffinity>
-8.73370

> <minimizedRMSD>
0.41511

$$$$
P17429


 26 29  0  0  0  0  0  0  0  0999 V2000
   -7.4397    3.7029  -13.9936 C   0  0  0  0  0  0  0  0  0  0  0  0
   -6.6897    2.8127  -13.9108 O   0  0  0  0  0  0  0  0  0  0  0  0
   -8.2657    4.4211  -12.9033 N   0  0  0  0  0  0  0  0  0  0  0  0
   -8.7737    5.2030  -13.2192 H   0  0  0  0  0  0  0  0  0  0  0  0
   -8.4086    4.1421  -11.5455 C   0  0  0  0  0  0  0  0  0  0  0  0
   -8.6947    2.8321  -11.1288 C   0  0  0  0  0  0  0  0  0  0  0  0
   -8.8752    2.5271   -9.7783 C   0  0  0  0  0  0  0  0  0  0  0  0
   -8.7231    3.5410   -8.8562 C   0  0  0  0  0  0  0  0  0  0  0  0
   -8.4019    4.8319   -9.2588 C   0  0  0  0  0  0  0  0  0  0  0  0
   -8.2772    5.1638  -10.6026 C   0  0  0  0  0  0  0  0  0  0  0  0
   -8.1633    5.6695   -8.0506 C   0  0  0  0  0  0  0  0  0  0  0  0
   -8.5746    4.8557   -6.8796 N   0  0  0  0  0  0  0  0  0  0  0  0
   -8.8110    3.4715   -7.3722 C   0  0  0  0  0  0  0  0  0  0  0  0
   -9.4305    5.2339   -6.4737 H   0  0  0  0  0  0  0  0  0  0  0  0
   -5.1660    4.9505  -17.6079 N   0  0  0  0  0  0  0  0  0  0  0  0
   -5.5369    4.6688  -16.3167 C   0  0  0  0  0  0  0  0  0  0  0  0
   -6.9014    4.5598  -16.3556 C   0  0  0  0  0  0  0  0  0  0  0  0
   -7.7693    4.2075  -15.3261 C   0  0  0  0  0  0  0  0  0  0  0  0
   -9.0874    4.1702  -15.7938 C   0  0  0  0  0  0  0  0  0  0  0  0
   -9.5370    4.4167  -17.0789 N   0  0  0  0  0  0  0  0  0  0  0  0
   -8.6501    4.7148  -18.0862 C   0  0  0  0  0  0  0  0  0  0  0  0
   -7.2956    4.8119  -17.7250 C   0  0  0  0  0  0  0  0  0  0  0  0
   -6.2078    5.0997  -18.4606 N   0  0  0  0  0  0  0  0  0  0  0  0
   -3.8108    4.8740  -18.1473 C   0  0  0  0  0  0  0  0  0  0  0  0
   -2.6222    5.8253  -19.9356 C   0  0  0  0  0  0  0  0  0  0  0  0
   -3.4700    6.0818  -18.8236 O   0  0  0  0  0  0  0  0  0  0  0  0
 25 26  1  0  0  0
 26 24  1  0  0  0
 24 15  1  0  0  0
 15 16  1  0  0  0
 16 17  2  0  0  0
 17 18  1  0  0  0
 18  1  1  0  0  0
  1  2  2  0  0  0
  1  3  1  0  0  0
  3  5  1  0  0  0
  5  6  2  0  0  0
  6  7  1  0  0  0
  7  8  2  0  0  0
  8  9  1  0  0  0
  9 10  2  0  0  0
  9 11  1  0  0  0
 11 12  1  0  0  0
 12 13  1  0  0  0
 18 19  2  0  0  0
 19 20  1  0  0  0
 20 21  2  0  0  0
 21 22  1  0  0  0
 22 23  2  0  0  0
 23 15  1  0  0  0
 22 17  1  0  0  0
 10  5  1  0  0  0
 13  8  1  0  0  0
  3  4  1  0  0  0
 12 14  1  0  0  0
M  END
> <minimizedAffinity>
-7.22101

> <minimizedRMSD>
1.11973

$$$$
P17444


 34 37  0  0  0  0  0  0  0  0999 V2000
   -7.5032    4.6772  -15.4521 C   0  0  0  0  0  0  0  0  0  0  0  0
   -8.7798    4.4834  -16.0242 C   0  0  0  0  0  0  0  0  0  0  0  0
   -8.9422    4.4400  -17.4091 C   0  0  0  0  0  0  0  0  0  0  0  0
  -10.4762    4.3499  -18.1714 Cl  0  0  0  0  0  0  0  0  0  0  0  0
   -7.8624    4.5511  -18.2635 C   0  0  0  0  0  0  0  0  0  0  0  0
   -6.6090    4.7393  -17.6927 C   0  0  0  0  0  0  0  0  0  0  0  0
   -6.3953    4.8074  -16.3227 C   0  0  0  0  0  0  0  0  0  0  0  0
   -5.0048    5.0582  -16.2144 C   0  0  0  0  0  0  0  0  0  0  0  0
   -4.4012    5.2127  -17.4004 N   0  0  0  0  0  0  0  0  0  0  0  0
   -5.3897    4.9350  -18.2922 N   0  0  0  0  0  0  0  0  0  0  0  0
   -7.2901    4.8306  -13.9884 C   0  0  0  0  0  0  0  0  0  0  0  0
   -6.1653    4.9253  -13.5093 O   0  0  0  0  0  0  0  0  0  0  0  0
   -8.4559    4.9944  -13.0451 C   0  0  0  0  0  0  0  0  0  0  0  0
   -9.4827    5.5191  -13.4679 O   0  0  0  0  0  0  0  0  0  0  0  0
   -7.8125    2.1793  -12.1200 C   0  0  0  0  0  0  0  0  0  0  0  0
   -8.1867    3.2856  -11.1843 C   0  0  0  0  0  0  0  0  0  0  0  0
   -8.3102    2.9922   -9.8129 C   0  0  0  0  0  0  0  0  0  0  0  0
   -8.4269    4.0326   -8.9101 C   0  0  0  0  0  0  0  0  0  0  0  0
   -8.3511    5.3501   -9.3326 C   0  0  0  0  0  0  0  0  0  0  0  0
   -8.3562    5.6689  -10.6802 C   0  0  0  0  0  0  0  0  0  0  0  0
   -8.3175    4.6231  -11.6158 C   0  0  0  0  0  0  0  0  0  0  0  0
   -8.2276    6.2327   -8.1391 C   0  0  0  0  0  0  0  0  0  0  0  0
   -8.6134    5.4048   -6.9714 N   0  0  0  0  0  0  0  0  0  0  0  0
   -8.6106    3.9880   -7.4316 C   0  0  0  0  0  0  0  0  0  0  0  0
   -9.5440    5.6671   -6.6465 H   0  0  0  0  0  0  0  0  0  0  0  0
   -5.2544    5.1232  -19.7421 C   0  0  0  0  0  0  0  0  0  0  0  0
   -3.8619    5.2659  -20.1346 N   0  0  0  0  0  0  0  0  0  0  0  0
   -3.6450    4.5207  -20.7964 H   0  0  0  0  0  0  0  0  0  0  0  0
   -3.5005    6.5585  -20.7689 C   0  0  0  0  0  0  0  0  0  0  0  0
   -2.5442    6.1857  -21.9240 C   0  0  0  0  0  0  0  0  0  0  0  0
   -4.7343    7.2526  -21.3826 C   0  0  0  0  0  0  0  0  0  0  0  0
   -2.7252    7.5453  -19.8507 C   0  0  0  0  0  0  0  0  0  0  0  0
   -3.3790    7.7864  -18.6088 O   0  0  0  0  0  0  0  0  0  0  0  0
   -4.2442    8.1934  -18.7726 H   0  0  0  0  0  0  0  0  0  0  0  0
 15 16  1  0  0  0
 16 17  2  0  0  0
 17 18  1  0  0  0
 18 19  2  0  0  0
 19 20  1  0  0  0
 20 21  2  0  0  0
 21 13  1  0  0  0
 13 14  2  0  0  0
 13 11  1  0  0  0
 11 12  2  0  0  0
 11  1  1  0  0  0
  1  2  2  0  0  0
  2  3  1  0  0  0
  3  4  1  0  0  0
  3  5  2  0  0  0
  5  6  1  0  0  0
  6  7  2  0  0  0
  7  8  1  0  0  0
  8  9  2  0  0  0
  9 10  1  0  0  0
 10 26  1  0  0  0
 26 27  1  0  0  0
 27 29  1  0  0  0
 29 30  1  0  0  0
 29 31  1  0  0  0
 29 32  1  0  0  0
 32 33  1  0  0  0
 19 22  1  0  0  0
 22 23  1  0  0  0
 23 24  1  0  0  0
 21 16  1  0  0  0
  7  1  1  0  0  0
 24 18  1  0  0  0
 10  6  1  0  0  0
 27 28  1  0  0  0
 33 34  1  0  0  0
 23 25  1  0  0  0
M  END
> <minimizedAffinity>
-8.08172

> <minimizedRMSD>
0.55843

$$$$
P17447


 27 30  0  0  0  0  0  0  0  0999 V2000
   -7.3658    4.0965  -13.6278 C   0  0  0  0  0  0  0  0  0  0  0  0
   -6.4261    5.0629  -13.1423 O   0  0  0  0  0  0  0  0  0  0  0  0
   -6.3017    4.9419  -12.1879 H   0  0  0  0  0  0  0  0  0  0  0  0
   -7.5245    4.3307  -15.1307 C   0  0  0  0  0  0  0  0  0  0  0  0
   -8.6913    4.3248  -15.8300 C   0  0  0  0  0  0  0  0  0  0  0  0
   -8.7422    4.5163  -17.2073 N   0  0  0  0  0  0  0  0  0  0  0  0
  -10.2515    4.5107  -17.9957 Cl  0  0  0  0  0  0  0  0  0  0  0  0
   -7.6199    4.7572  -17.9786 C   0  0  0  0  0  0  0  0  0  0  0  0
   -6.4190    4.7901  -17.3921 C   0  0  0  0  0  0  0  0  0  0  0  0
   -5.1526    4.9907  -17.8741 N   0  0  0  0  0  0  0  0  0  0  0  0
   -4.3268    4.8794  -16.9138 N   0  0  0  0  0  0  0  0  0  0  0  0
   -5.0224    4.6062  -15.7540 C   0  0  0  0  0  0  0  0  0  0  0  0
   -6.3386    4.5576  -15.9679 C   0  0  0  0  0  0  0  0  0  0  0  0
   -6.5138    1.5935  -13.3489 N   0  0  0  0  0  0  0  0  0  0  0  0
   -6.8479    2.7024  -13.4599 C   0  0  0  0  0  0  0  0  0  0  0  0
   -8.6165    4.4313  -12.9250 N   0  0  0  0  0  0  0  0  0  0  0  0
   -9.3883    4.8380  -13.3812 H   0  0  0  0  0  0  0  0  0  0  0  0
   -8.6231    4.1224  -11.5392 C   0  0  0  0  0  0  0  0  0  0  0  0
   -8.9215    2.8108  -11.1323 C   0  0  0  0  0  0  0  0  0  0  0  0
   -8.9573    2.4453   -9.7864 C   0  0  0  0  0  0  0  0  0  0  0  0
   -8.6559    3.4032   -8.8474 C   0  0  0  0  0  0  0  0  0  0  0  0
   -8.2980    4.6917   -9.2290 C   0  0  0  0  0  0  0  0  0  0  0  0
   -8.2810    5.0726  -10.5658 C   0  0  0  0  0  0  0  0  0  0  0  0
   -7.9923    5.4784   -7.9984 C   0  0  0  0  0  0  0  0  0  0  0  0
   -7.8817    4.4808   -6.8993 N   0  0  0  0  0  0  0  0  0  0  0  0
   -8.6626    3.2979   -7.3613 C   0  0  0  0  0  0  0  0  0  0  0  0
   -8.2766    4.8547   -6.0364 H   0  0  0  0  0  0  0  0  0  0  0  0
 14 15  3  0  0  0
 15  1  1  0  0  0
  1  2  1  0  0  0
  1 16  1  0  0  0
 16 18  1  0  0  0
 18 19  2  0  0  0
 19 20  1  0  0  0
 20 21  2  0  0  0
 21 22  1  0  0  0
 22 23  2  0  0  0
 22 24  1  0  0  0
 24 25  1  0  0  0
 25 26  1  0  0  0
  1  4  1  0  0  0
  4  5  2  0  0  0
  5  6  1  0  0  0
  6  7  1  0  0  0
  6  8  1  0  0  0
  8  9  2  0  0  0
  9 10  1  0  0  0
 10 11  2  0  0  0
 11 12  1  0  0  0
 12 13  2  0  0  0
 23 18  1  0  0  0
 13  4  1  0  0  0
 26 21  1  0  0  0
 13  9  1  0  0  0
  2  3  1  0  0  0
 16 17  1  0  0  0
 25 27  1  0  0  0
M  END
> <minimizedAffinity>
-7.91581

> <minimizedRMSD>
0.40594

$$$$
P17448


 32 35  0  0  0  0  0  0  0  0999 V2000
   -7.3771    4.1229  -13.6187 C   0  0  0  0  0  0  0  0  0  0  0  0
   -6.6793    5.2575  -13.1230 O   0  0  0  0  0  0  0  0  0  0  0  0
   -6.5617    5.1713  -12.1640 H   0  0  0  0  0  0  0  0  0  0  0  0
   -7.5212    4.3317  -15.1201 C   0  0  0  0  0  0  0  0  0  0  0  0
   -8.6744    4.3267  -15.8412 C   0  0  0  0  0  0  0  0  0  0  0  0
   -8.7075    4.4974  -17.2214 N   0  0  0  0  0  0  0  0  0  0  0  0
  -10.2095    4.4811  -18.0233 Cl  0  0  0  0  0  0  0  0  0  0  0  0
   -7.5745    4.7194  -17.9805 C   0  0  0  0  0  0  0  0  0  0  0  0
   -6.3835    4.7635  -17.3744 C   0  0  0  0  0  0  0  0  0  0  0  0
   -5.1120    4.9728  -17.8409 N   0  0  0  0  0  0  0  0  0  0  0  0
   -4.3036    4.9187  -16.8612 N   0  0  0  0  0  0  0  0  0  0  0  0
   -5.0174    4.6715  -15.7060 C   0  0  0  0  0  0  0  0  0  0  0  0
   -6.3257    4.5661  -15.9423 C   0  0  0  0  0  0  0  0  0  0  0  0
   -5.2648    3.1039  -12.7592 N   0  0  0  0  0  0  0  0  0  0  0  0
   -6.6336    2.7187  -13.3895 C   0  0  0  0  0  0  0  0  0  0  0  0
   -7.0814    1.6685  -13.6458 O   0  0  0  0  0  0  0  0  0  0  0  0
   -5.1527    4.0639  -12.5716 H   0  0  0  0  0  0  0  0  0  0  0  0
   -3.2706    3.0399  -11.4107 C   0  0  0  0  0  0  0  0  0  0  0  0
   -4.1369    2.2857  -12.4061 C   0  0  0  0  0  0  0  0  0  0  0  0
   -3.3505    1.9151  -13.6588 C   0  0  0  0  0  0  0  0  0  0  0  0
   -8.6812    4.1349  -12.9227 N   0  0  0  0  0  0  0  0  0  0  0  0
   -9.5389    4.1736  -13.4044 H   0  0  0  0  0  0  0  0  0  0  0  0
   -8.6008    4.0860  -11.4943 C   0  0  0  0  0  0  0  0  0  0  0  0
   -8.7181    2.8415  -10.8418 C   0  0  0  0  0  0  0  0  0  0  0  0
   -8.6917    2.7176   -9.4514 C   0  0  0  0  0  0  0  0  0  0  0  0
   -8.5487    3.8639   -8.7052 C   0  0  0  0  0  0  0  0  0  0  0  0
   -8.3752    5.0956   -9.3218 C   0  0  0  0  0  0  0  0  0  0  0  0
   -8.3973    5.2281  -10.7081 C   0  0  0  0  0  0  0  0  0  0  0  0
   -8.1694    6.1315   -8.2703 C   0  0  0  0  0  0  0  0  0  0  0  0
   -8.5226    5.4938   -6.9759 N   0  0  0  0  0  0  0  0  0  0  0  0
   -8.5637    4.0264   -7.2260 C   0  0  0  0  0  0  0  0  0  0  0  0
   -9.4342    5.8229   -6.6579 H   0  0  0  0  0  0  0  0  0  0  0  0
 18 19  1  0  0  0
 19 20  1  0  0  0
 19 14  1  0  0  0
 14 15  1  0  0  0
 15 16  2  0  0  0
 15  1  1  0  0  0
  1  2  1  0  0  0
  1 21  1  0  0  0
 21 23  1  0  0  0
 23 24  2  0  0  0
 24 25  1  0  0  0
 25 26  2  0  0  0
 26 27  1  0  0  0
 27 28  2  0  0  0
 27 29  1  0  0  0
 29 30  1  0  0  0
 30 31  1  0  0  0
  1  4  1  0  0  0
  4  5  2  0  0  0
  5  6  1  0  0  0
  6  7  1  0  0  0
  6  8  1  0  0  0
  8  9  2  0  0  0
  9 10  1  0  0  0
 10 11  2  0  0  0
 11 12  1  0  0  0
 12 13  2  0  0  0
 28 23  1  0  0  0
 13  4  1  0  0  0
 31 26  1  0  0  0
 13  9  1  0  0  0
 14 17  1  0  0  0
  2  3  1  0  0  0
 21 22  1  0  0  0
 30 32  1  0  0  0
M  END
> <minimizedAffinity>
-8.78426

> <minimizedRMSD>
0.40748

$$$$
P17450


 30 33  0  0  0  0  0  0  0  0999 V2000
   -7.3368    4.1166  -13.5966 C   0  0  0  0  0  0  0  0  0  0  0  0
   -6.6711    5.2685  -13.1040 O   0  0  0  0  0  0  0  0  0  0  0  0
   -6.5508    5.1871  -12.1450 H   0  0  0  0  0  0  0  0  0  0  0  0
   -7.4901    4.3145  -15.1017 C   0  0  0  0  0  0  0  0  0  0  0  0
   -8.6502    4.3224  -15.8140 C   0  0  0  0  0  0  0  0  0  0  0  0
   -8.6979    4.5126  -17.1921 N   0  0  0  0  0  0  0  0  0  0  0  0
  -10.2009    4.4321  -17.9905 Cl  0  0  0  0  0  0  0  0  0  0  0  0
   -7.5711    4.7368  -17.9599 C   0  0  0  0  0  0  0  0  0  0  0  0
   -6.3749    4.7689  -17.3625 C   0  0  0  0  0  0  0  0  0  0  0  0
   -5.1063    4.9740  -17.8381 N   0  0  0  0  0  0  0  0  0  0  0  0
   -4.2883    4.8909  -16.8681 N   0  0  0  0  0  0  0  0  0  0  0  0
   -4.9916    4.6274  -15.7095 C   0  0  0  0  0  0  0  0  0  0  0  0
   -6.3034    4.5464  -15.9341 C   0  0  0  0  0  0  0  0  0  0  0  0
   -4.3220    2.2646  -11.8731 C   0  0  0  0  0  0  0  0  0  0  0  0
   -5.2900    3.0956  -12.5234 N   0  0  0  0  0  0  0  0  0  0  0  0
   -6.5810    2.7188  -13.3106 C   0  0  0  0  0  0  0  0  0  0  0  0
   -7.0066    1.6702  -13.6122 O   0  0  0  0  0  0  0  0  0  0  0  0
   -5.1108    4.0618  -12.4634 H   0  0  0  0  0  0  0  0  0  0  0  0
   -8.6579    4.1194  -12.9203 N   0  0  0  0  0  0  0  0  0  0  0  0
   -9.5065    4.1512  -13.4185 H   0  0  0  0  0  0  0  0  0  0  0  0
   -8.6078    4.0725  -11.4926 C   0  0  0  0  0  0  0  0  0  0  0  0
   -8.7354    2.8297  -10.8382 C   0  0  0  0  0  0  0  0  0  0  0  0
   -8.7101    2.7108   -9.4476 C   0  0  0  0  0  0  0  0  0  0  0  0
   -8.5598    3.8593   -8.7055 C   0  0  0  0  0  0  0  0  0  0  0  0
   -8.3835    5.0892   -9.3256 C   0  0  0  0  0  0  0  0  0  0  0  0
   -8.4032    5.2173  -10.7115 C   0  0  0  0  0  0  0  0  0  0  0  0
   -8.1755    6.1285   -8.2785 C   0  0  0  0  0  0  0  0  0  0  0  0
   -8.5156    5.4927   -6.9798 N   0  0  0  0  0  0  0  0  0  0  0  0
   -8.5685    4.0252   -7.2265 C   0  0  0  0  0  0  0  0  0  0  0  0
   -9.4211    5.8273   -6.6505 H   0  0  0  0  0  0  0  0  0  0  0  0
 14 15  1  0  0  0
 15 16  1  0  0  0
 16 17  2  0  0  0
 16  1  1  0  0  0
  1  2  1  0  0  0
  1 19  1  0  0  0
 19 21  1  0  0  0
 21 22  2  0  0  0
 22 23  1  0  0  0
 23 24  2  0  0  0
 24 25  1  0  0  0
 25 26  2  0  0  0
 25 27  1  0  0  0
 27 28  1  0  0  0
 28 29  1  0  0  0
  1  4  1  0  0  0
  4  5  2  0  0  0
  5  6  1  0  0  0
  6  7  1  0  0  0
  6  8  1  0  0  0
  8  9  2  0  0  0
  9 10  1  0  0  0
 10 11  2  0  0  0
 11 12  1  0  0  0
 12 13  2  0  0  0
 26 21  1  0  0  0
 13  4  1  0  0  0
 29 24  1  0  0  0
 13  9  1  0  0  0
 15 18  1  0  0  0
  2  3  1  0  0  0
 19 20  1  0  0  0
 28 30  1  0  0  0
M  END
> <minimizedAffinity>
-8.61466

> <minimizedRMSD>
0.39757

$$$$
P17451


 25 28  0  0  0  0  0  0  0  0999 V2000
   -7.0608    2.4659  -13.7572 O   0  0  0  0  0  0  0  0  0  0  0  0
   -7.4509    3.5649  -13.7987 C   0  0  0  0  0  0  0  0  0  0  0  0
   -7.9794    4.4830  -12.6742 N   0  0  0  0  0  0  0  0  0  0  0  0
   -8.1797    5.4052  -12.9549 H   0  0  0  0  0  0  0  0  0  0  0  0
   -7.5679    4.1887  -15.1237 C   0  0  0  0  0  0  0  0  0  0  0  0
   -8.7991    4.1883  -15.7580 C   0  0  0  0  0  0  0  0  0  0  0  0
   -8.9803    4.4779  -17.0786 N   0  0  0  0  0  0  0  0  0  0  0  0
   -7.8871    4.7789  -17.8211 C   0  0  0  0  0  0  0  0  0  0  0  0
   -6.6406    4.8116  -17.2580 C   0  0  0  0  0  0  0  0  0  0  0  0
   -6.4963    4.5185  -15.9172 C   0  0  0  0  0  0  0  0  0  0  0  0
   -5.0711    4.5585  -15.6798 C   0  0  0  0  0  0  0  0  0  0  0  0
   -4.3591    4.8272  -16.7353 N   0  0  0  0  0  0  0  0  0  0  0  0
   -5.3508    5.0193  -17.8982 N   0  0  0  0  0  0  0  0  0  0  0  0
   -5.2408    6.2910  -18.3111 O   0  0  0  0  0  0  0  0  0  0  0  0
   -4.6278    4.3784  -17.7089 H   0  0  0  0  0  0  0  0  0  0  0  0
   -8.2188    4.2182  -11.3267 C   0  0  0  0  0  0  0  0  0  0  0  0
   -8.5502    2.9153  -10.9212 C   0  0  0  0  0  0  0  0  0  0  0  0
   -8.8531    2.6311   -9.5877 C   0  0  0  0  0  0  0  0  0  0  0  0
   -8.7639    3.6533   -8.6659 C   0  0  0  0  0  0  0  0  0  0  0  0
   -8.3789    4.9314   -9.0519 C   0  0  0  0  0  0  0  0  0  0  0  0
   -8.1463    5.2476  -10.3855 C   0  0  0  0  0  0  0  0  0  0  0  0
   -8.2089    5.7728   -7.8340 C   0  0  0  0  0  0  0  0  0  0  0  0
   -8.7293    4.9814   -6.6925 N   0  0  0  0  0  0  0  0  0  0  0  0
   -8.9996    3.6085   -7.1967 C   0  0  0  0  0  0  0  0  0  0  0  0
   -9.5901    5.4003   -6.3404 H   0  0  0  0  0  0  0  0  0  0  0  0
  1  2  2  0  0  0
  2  3  1  0  0  0
  3 16  1  0  0  0
 16 17  2  0  0  0
 17 18  1  0  0  0
 18 19  2  0  0  0
 19 20  1  0  0  0
 20 21  2  0  0  0
 20 22  1  0  0  0
 22 23  1  0  0  0
 23 24  1  0  0  0
  2  5  1  0  0  0
  5  6  2  0  0  0
  6  7  1  0  0  0
  7  8  2  0  0  0
  8  9  1  0  0  0
  9 10  2  0  0  0
 10 11  1  0  0  0
 11 12  2  0  0  0
 12 13  1  0  0  0
 13 14  1  0  0  0
 21 16  1  0  0  0
 10  5  1  0  0  0
 24 19  1  0  0  0
 13  9  1  0  0  0
  3  4  1  0  0  0
 23 25  1  0  0  0
 13 15  1  0  0  0
M  CHG 1  13   1
M  CHG 1  14  -1
M  END
> <minimizedAffinity>
-7.43186

> <minimizedRMSD>
0.22722

$$$$
P17453


 25 28  0  0  0  0  0  0  0  0999 V2000
   -7.1631    2.1803  -13.6747 O   0  0  0  0  0  0  0  0  0  0  0  0
   -7.3758    3.3265  -13.7369 C   0  0  0  0  0  0  0  0  0  0  0  0
   -7.7927    4.3315  -12.6339 N   0  0  0  0  0  0  0  0  0  0  0  0
   -7.8376    5.2703  -12.9270 H   0  0  0  0  0  0  0  0  0  0  0  0
   -7.3692    4.0325  -15.0507 C   0  0  0  0  0  0  0  0  0  0  0  0
   -8.5405    4.0601  -15.7289 C   0  0  0  0  0  0  0  0  0  0  0  0
   -8.6427    4.4439  -17.0667 N   0  0  0  0  0  0  0  0  0  0  0  0
  -10.2732    4.4058  -17.9393 Br  0  0  0  0  0  0  0  0  0  0  0  0
   -7.5061    4.7888  -17.7844 C   0  0  0  0  0  0  0  0  0  0  0  0
   -6.3105    4.8288  -17.1891 C   0  0  0  0  0  0  0  0  0  0  0  0
   -5.0987    5.2240  -17.6589 N   0  0  0  0  0  0  0  0  0  0  0  0
   -4.2777    5.1695  -16.6812 N   0  0  0  0  0  0  0  0  0  0  0  0
   -3.0799    5.5825  -16.7646 O   0  0  0  0  0  0  0  0  0  0  0  0
   -4.9182    4.6646  -15.4694 C   0  0  0  0  0  0  0  0  0  0  0  0
   -6.1986    4.4741  -15.7867 C   0  0  0  0  0  0  0  0  0  0  0  0
   -8.1149    4.1221  -11.2924 C   0  0  0  0  0  0  0  0  0  0  0  0
   -8.5171    2.8446  -10.8668 C   0  0  0  0  0  0  0  0  0  0  0  0
   -8.8703    2.6011   -9.5378 C   0  0  0  0  0  0  0  0  0  0  0  0
   -8.7710    3.6404   -8.6374 C   0  0  0  0  0  0  0  0  0  0  0  0
   -8.3351    4.8966   -9.0419 C   0  0  0  0  0  0  0  0  0  0  0  0
   -8.0399    5.1711  -10.3737 C   0  0  0  0  0  0  0  0  0  0  0  0
   -8.1897    5.7661   -7.8405 C   0  0  0  0  0  0  0  0  0  0  0  0
   -8.7561    5.0127   -6.6950 N   0  0  0  0  0  0  0  0  0  0  0  0
   -9.0377    3.6329   -7.1730 C   0  0  0  0  0  0  0  0  0  0  0  0
   -9.6184    5.4555   -6.3775 H   0  0  0  0  0  0  0  0  0  0  0  0
  1  2  2  0  0  0
  2  3  1  0  0  0
  3 16  1  0  0  0
 16 17  2  0  0  0
 17 18  1  0  0  0
 18 19  2  0  0  0
 19 20  1  0  0  0
 20 21  2  0  0  0
 20 22  1  0  0  0
 22 23  1  0  0  0
 23 24  1  0  0  0
  2  5  1  0  0  0
  5  6  2  0  0  0
  6  7  1  0  0  0
  7  8  1  0  0  0
  7  9  1  0  0  0
  9 10  2  0  0  0
 10 11  1  0  0  0
 11 12  2  0  0  0
 12 13  1  0  0  0
 12 14  1  0  0  0
 14 15  2  0  0  0
 21 16  1  0  0  0
 15  5  1  0  0  0
 24 19  1  0  0  0
 15 10  1  0  0  0
  3  4  1  0  0  0
 23 25  1  0  0  0
M  CHG 1  12   1
M  CHG 1  13  -1
M  END
> <minimizedAffinity>
-7.91775

> <minimizedRMSD>
0.41367

$$$$
P17461


 32 35  0  0  0  0  0  0  0  0999 V2000
   -4.9734    5.6705  -16.4221 N   0  0  0  0  0  0  0  0  0  0  0  0
   -6.0549    5.5830  -15.5356 C   0  0  0  0  0  0  0  0  0  0  0  0
   -7.0911    4.9475  -16.1074 C   0  0  0  0  0  0  0  0  0  0  0  0
   -6.6620    4.6040  -17.4760 C   0  0  0  0  0  0  0  0  0  0  0  0
   -7.5893    4.0783  -18.2898 C   0  0  0  0  0  0  0  0  0  0  0  0
   -8.8845    3.8803  -17.8387 N   0  0  0  0  0  0  0  0  0  0  0  0
   -9.4449    2.6988  -18.4041 F   0  0  0  0  0  0  0  0  0  0  0  0
   -9.2305    4.0081  -16.4976 C   0  0  0  0  0  0  0  0  0  0  0  0
   -8.4021    4.5880  -15.6028 C   0  0  0  0  0  0  0  0  0  0  0  0
   -5.3331    4.9774  -17.5943 N   0  0  0  0  0  0  0  0  0  0  0  0
   -4.7447    4.7913  -18.3614 H   0  0  0  0  0  0  0  0  0  0  0  0
   -8.8425    4.9990  -14.2411 C   0  0  0  0  0  0  0  0  0  0  0  0
   -9.5134    5.9448  -14.0988 O   0  0  0  0  0  0  0  0  0  0  0  0
   -8.2612    4.0152  -13.1972 N   0  0  0  0  0  0  0  0  0  0  0  0
   -7.7835    3.2438  -13.5792 H   0  0  0  0  0  0  0  0  0  0  0  0
   -8.3039    4.0437  -11.8038 C   0  0  0  0  0  0  0  0  0  0  0  0
   -7.9466    5.2046  -11.0969 C   0  0  0  0  0  0  0  0  0  0  0  0
   -7.9796    5.2350   -9.6991 C   0  0  0  0  0  0  0  0  0  0  0  0
   -8.3848    4.0962   -9.0292 C   0  0  0  0  0  0  0  0  0  0  0  0
   -8.7373    2.9461   -9.7237 C   0  0  0  0  0  0  0  0  0  0  0  0
   -8.6957    2.8973  -11.1095 C   0  0  0  0  0  0  0  0  0  0  0  0
   -9.0962    1.8734   -8.7514 C   0  0  0  0  0  0  0  0  0  0  0  0
   -9.1600    2.5325   -7.4202 N   0  0  0  0  0  0  0  0  0  0  0  0
   -8.5129    3.8515   -7.5649 C   0  0  0  0  0  0  0  0  0  0  0  0
   -8.6638    1.9724   -6.7270 H   0  0  0  0  0  0  0  0  0  0  0  0
   -2.5982    5.3112  -17.0883 C   0  0  0  0  0  0  0  0  0  0  0  0
   -3.5536    5.7266  -15.9527 C   0  0  0  0  0  0  0  0  0  0  0  0
   -3.3683    4.7931  -14.7449 C   0  0  0  0  0  0  0  0  0  0  0  0
   -3.0525    7.4510  -15.3926 S   0  0  0  0  0  0  0  0  0  0  0  0
   -3.9065    8.5226  -16.5238 C   0  0  0  0  0  0  0  0  0  0  0  0
   -1.6308    7.6454  -15.6256 O   0  0  0  0  0  0  0  0  0  0  0  0
   -3.5988    7.7203  -14.0730 O   0  0  0  0  0  0  0  0  0  0  0  0
 26 27  1  0  0  0
 27 28  1  0  0  0
 27  1  1  0  0  0
  1  2  1  0  0  0
  2  3  2  0  0  0
  3  4  1  0  0  0
  4  5  2  0  0  0
  5  6  1  0  0  0
  6  7  1  0  0  0
  6  8  1  0  0  0
  8  9  2  0  0  0
  9 12  1  0  0  0
 12 13  2  0  0  0
 12 14  1  0  0  0
 14 16  1  0  0  0
 16 17  2  0  0  0
 17 18  1  0  0  0
 18 19  2  0  0  0
 19 20  1  0  0  0
 20 21  2  0  0  0
 20 22  1  0  0  0
 22 23  1  0  0  0
 23 24  1  0  0  0
  4 10  1  0  0  0
 27 29  1  0  0  0
 29 30  1  0  0  0
 29 31  2  0  0  0
 29 32  2  0  0  0
 10  1  1  0  0  0
  9  3  1  0  0  0
 21 16  1  0  0  0
 24 19  1  0  0  0
 14 15  1  0  0  0
 23 25  1  0  0  0
 10 11  1  0  0  0
M  END
> <minimizedAffinity>
-8.89509

> <minimizedRMSD>
0.75767

$$$$
P17483


 34 38  0  0  0  0  0  0  0  0999 V2000
   -8.6172    5.0822  -13.5342 C   0  0  0  0  0  0  0  0  0  0  0  0
   -9.1588    6.1104  -13.4400 O   0  0  0  0  0  0  0  0  0  0  0  0
   -8.2718    4.0352  -12.4620 N   0  0  0  0  0  0  0  0  0  0  0  0
   -7.8748    3.2043  -12.8103 H   0  0  0  0  0  0  0  0  0  0  0  0
   -8.4290    4.0710  -11.0794 C   0  0  0  0  0  0  0  0  0  0  0  0
   -8.1669    5.2638  -10.3836 C   0  0  0  0  0  0  0  0  0  0  0  0
   -8.2120    5.2943   -8.9951 C   0  0  0  0  0  0  0  0  0  0  0  0
   -7.9065    6.4224   -8.3419 F   0  0  0  0  0  0  0  0  0  0  0  0
   -8.5393    4.1519   -8.3035 C   0  0  0  0  0  0  0  0  0  0  0  0
   -8.8489    2.9828   -8.9988 C   0  0  0  0  0  0  0  0  0  0  0  0
   -8.7811    2.9138  -10.3850 C   0  0  0  0  0  0  0  0  0  0  0  0
   -9.2366    1.9216   -8.0283 C   0  0  0  0  0  0  0  0  0  0  0  0
   -8.8520    2.4362   -6.6896 N   0  0  0  0  0  0  0  0  0  0  0  0
   -8.5320    3.8865   -6.8387 C   0  0  0  0  0  0  0  0  0  0  0  0
   -7.2001    4.2887   -6.1702 C   0  0  0  0  0  0  0  0  0  0  0  0
   -7.4903    4.2566   -4.6774 C   0  0  0  0  0  0  0  0  0  0  0  0
   -8.8499    4.9285   -4.5647 C   0  0  0  0  0  0  0  0  0  0  0  0
   -9.4713    4.6802   -5.9248 C   0  0  0  0  0  0  0  0  0  0  0  0
  -10.5879    5.1106   -6.1884 O   0  0  0  0  0  0  0  0  0  0  0  0
   -8.0342    1.9332   -6.3453 H   0  0  0  0  0  0  0  0  0  0  0  0
   -4.8621    5.2692  -16.1701 N   0  0  0  0  0  0  0  0  0  0  0  0
   -4.5469    5.7070  -14.9205 N   0  0  0  0  0  0  0  0  0  0  0  0
   -5.6770    5.5308  -14.2446 C   0  0  0  0  0  0  0  0  0  0  0  0
   -6.7186    5.0346  -15.0585 C   0  0  0  0  0  0  0  0  0  0  0  0
   -8.0753    4.7343  -14.8581 C   0  0  0  0  0  0  0  0  0  0  0  0
   -8.8498    4.2845  -15.9263 C   0  0  0  0  0  0  0  0  0  0  0  0
   -8.2818    4.2061  -17.1996 C   0  0  0  0  0  0  0  0  0  0  0  0
   -9.2780    3.8052  -18.5455 Cl  0  0  0  0  0  0  0  0  0  0  0  0
   -6.9342    4.5099  -17.4350 C   0  0  0  0  0  0  0  0  0  0  0  0
   -6.1714    4.9094  -16.3301 C   0  0  0  0  0  0  0  0  0  0  0  0
   -3.7934    5.2213  -17.1507 C   0  0  0  0  0  0  0  0  0  0  0  0
   -1.4945    5.8467  -17.3417 C   0  0  0  0  0  0  0  0  0  0  0  0
   -2.5672    5.5336  -16.4133 N   0  0  0  0  0  0  0  0  0  0  0  0
   -2.7333    6.3362  -15.8062 H   0  0  0  0  0  0  0  0  0  0  0  0
 32 33  1  0  0  0
 33 31  1  0  0  0
 31 21  1  0  0  0
 21 22  1  0  0  0
 22 23  2  0  0  0
 23 24  1  0  0  0
 24 25  2  0  0  0
 25  1  1  0  0  0
  1  2  2  0  0  0
  1  3  1  0  0  0
  3  5  1  0  0  0
  5  6  2  0  0  0
  6  7  1  0  0  0
  7  8  1  0  0  0
  7  9  2  0  0  0
  9 10  1  0  0  0
 10 11  2  0  0  0
 10 12  1  0  0  0
 12 13  1  0  0  0
 13 14  1  0  0  0
 14 15  1  0  0  0
 15 16  1  0  0  0
 16 17  1  0  0  0
 17 18  1  0  0  0
 18 19  2  0  0  0
 25 26  1  0  0  0
 26 27  2  0  0  0
 27 28  1  0  0  0
 27 29  1  0  0  0
 29 30  2  0  0  0
 30 21  1  0  0  0
 30 24  1  0  0  0
 11  5  1  0  0  0
 18 14  1  0  0  0
 14  9  1  0  0  0
 33 34  1  0  0  0
  3  4  1  0  0  0
 13 20  1  0  0  0
M  END
> <minimizedAffinity>
-9.20236

> <minimizedRMSD>
0.57625

$$$$
P17486


 37 41  0  0  0  0  0  0  0  0999 V2000
   -5.6114    5.4768  -17.3943 N   0  0  0  0  0  0  0  0  0  0  0  0
   -6.7943    4.9332  -16.9185 C   0  0  0  0  0  0  0  0  0  0  0  0
   -7.8230    4.3689  -17.6466 C   0  0  0  0  0  0  0  0  0  0  0  0
   -8.9577    3.8911  -17.0115 C   0  0  0  0  0  0  0  0  0  0  0  0
   -9.9135    3.3200  -17.7537 F   0  0  0  0  0  0  0  0  0  0  0  0
   -9.1463    4.0851  -15.6531 C   0  0  0  0  0  0  0  0  0  0  0  0
   -8.1594    4.7433  -14.9161 C   0  0  0  0  0  0  0  0  0  0  0  0
   -6.9815    5.1252  -15.5541 C   0  0  0  0  0  0  0  0  0  0  0  0
   -5.7962    5.8179  -14.9713 C   0  0  0  0  0  0  0  0  0  0  0  0
   -4.8379    5.9636  -16.2099 C   0  0  0  0  0  0  0  0  0  0  0  0
   -4.5455    7.4814  -16.4681 C   0  0  0  0  0  0  0  0  0  0  0  0
   -3.2322    7.9167  -15.8124 C   0  0  0  0  0  0  0  0  0  0  0  0
   -2.0604    7.0689  -16.3496 C   0  0  0  0  0  0  0  0  0  0  0  0
   -2.4731    5.6864  -16.6528 N   0  0  0  0  0  0  0  0  0  0  0  0
   -3.5707    5.2845  -15.7920 N   0  0  0  0  0  0  0  0  0  0  0  0
   -1.6824    5.0595  -16.5038 H   0  0  0  0  0  0  0  0  0  0  0  0
   -3.3538    5.5412  -14.8290 H   0  0  0  0  0  0  0  0  0  0  0  0
   -8.4542    5.1973  -13.5341 C   0  0  0  0  0  0  0  0  0  0  0  0
   -9.0490    6.1908  -13.3905 O   0  0  0  0  0  0  0  0  0  0  0  0
   -7.9606    4.1688  -12.4968 N   0  0  0  0  0  0  0  0  0  0  0  0
   -7.4079    3.4430  -12.8669 H   0  0  0  0  0  0  0  0  0  0  0  0
   -8.1687    4.0995  -11.1259 C   0  0  0  0  0  0  0  0  0  0  0  0
   -7.9119    5.2015  -10.2945 C   0  0  0  0  0  0  0  0  0  0  0  0
   -8.1504    5.1288   -8.9196 C   0  0  0  0  0  0  0  0  0  0  0  0
   -8.6519    3.9473   -8.4089 C   0  0  0  0  0  0  0  0  0  0  0  0
   -8.8984    2.8534   -9.2337 C   0  0  0  0  0  0  0  0  0  0  0  0
   -8.6644    2.9094  -10.5941 C   0  0  0  0  0  0  0  0  0  0  0  0
   -9.3716    1.7124   -8.3979 C   0  0  0  0  0  0  0  0  0  0  0  0
   -9.7893    2.3331   -7.1141 N   0  0  0  0  0  0  0  0  0  0  0  0
   -8.9931    3.5746   -7.0049 C   0  0  0  0  0  0  0  0  0  0  0  0
   -9.5874    1.7090   -6.3330 H   0  0  0  0  0  0  0  0  0  0  0  0
   -1.5877    7.7207  -17.5305 O   0  0  0  0  0  0  0  0  0  0  0  0
   -1.6549    6.9026  -18.6901 C   0  0  0  0  0  0  0  0  0  0  0  0
   -4.8514    4.9113  -18.4955 C   0  0  0  0  0  0  0  0  0  0  0  0
   -6.1079    4.1270  -20.4274 C   0  0  0  0  0  0  0  0  0  0  0  0
   -5.1280    5.0585  -19.9108 N   0  0  0  0  0  0  0  0  0  0  0  0
   -5.4716    6.0053  -20.0721 H   0  0  0  0  0  0  0  0  0  0  0  0
 35 36  1  0  0  0
 36 34  1  0  0  0
 34  1  1  0  0  0
  1  2  1  0  0  0
  2  3  2  0  0  0
  3  4  1  0  0  0
  4  5  1  0  0  0
  4  6  2  0  0  0
  6  7  1  0  0  0
  7 18  1  0  0  0
 18 19  2  0  0  0
 18 20  1  0  0  0
 20 22  1  0  0  0
 22 23  2  0  0  0
 23 24  1  0  0  0
 24 25  2  0  0  0
 25 26  1  0  0  0
 26 27  2  0  0  0
 26 28  1  0  0  0
 28 29  1  0  0  0
 29 30  1  0  0  0
  7  8  2  0  0  0
  8  9  1  0  0  0
 10  9  1  0  0  0
 10 11  1  0  0  0
 11 12  1  0  0  0
 12 13  1  0  0  0
 13 32  1  0  0  0
 32 33  1  0  0  0
 13 14  1  0  0  0
 14 15  1  0  0  0
 10  1  1  0  0  0
  8  2  1  0  0  0
 15 10  1  0  0  0
 27 22  1  0  0  0
 30 25  1  0  0  0
 36 37  1  0  0  0
 20 21  1  0  0  0
 29 31  1  0  0  0
 14 16  1  0  0  0
 15 17  1  0  0  0
M  END
> <minimizedAffinity>
-7.70134

> <minimizedRMSD>
0.85277

$$$$
P17487


 27 30  0  0  0  0  0  0  0  0999 V2000
   -7.0455    4.7603  -13.9367 C   0  0  0  0  0  0  0  0  0  0  0  0
   -5.9879    5.1731  -13.6641 O   0  0  0  0  0  0  0  0  0  0  0  0
   -8.2257    4.3515  -13.0276 N   0  0  0  0  0  0  0  0  0  0  0  0
   -9.0485    4.1025  -13.5074 H   0  0  0  0  0  0  0  0  0  0  0  0
   -8.3153    4.2779  -11.6383 C   0  0  0  0  0  0  0  0  0  0  0  0
   -8.0866    5.4082  -10.8338 C   0  0  0  0  0  0  0  0  0  0  0  0
   -8.1755    5.3295   -9.4394 C   0  0  0  0  0  0  0  0  0  0  0  0
   -8.5090    4.1130   -8.8768 C   0  0  0  0  0  0  0  0  0  0  0  0
   -8.7256    2.9904   -9.6714 C   0  0  0  0  0  0  0  0  0  0  0  0
   -8.6308    3.0504  -11.0514 C   0  0  0  0  0  0  0  0  0  0  0  0
   -9.0156    1.8233   -8.7869 C   0  0  0  0  0  0  0  0  0  0  0  0
   -9.3815    2.4232   -7.4768 N   0  0  0  0  0  0  0  0  0  0  0  0
   -8.6925    3.7325   -7.4449 C   0  0  0  0  0  0  0  0  0  0  0  0
   -9.0612    1.8314   -6.7103 H   0  0  0  0  0  0  0  0  0  0  0  0
   -5.6115    5.0459  -18.3871 N   0  0  0  0  0  0  0  0  0  0  0  0
   -4.5584    5.3355  -17.6057 N   0  0  0  0  0  0  0  0  0  0  0  0
   -5.0376    5.2258  -16.3650 C   0  0  0  0  0  0  0  0  0  0  0  0
   -6.3920    4.8349  -16.3381 C   0  0  0  0  0  0  0  0  0  0  0  0
   -7.3559    4.5592  -15.3601 C   0  0  0  0  0  0  0  0  0  0  0  0
   -8.6165    4.1949  -15.8096 C   0  0  0  0  0  0  0  0  0  0  0  0
   -8.9563    4.1016  -17.1171 N   0  0  0  0  0  0  0  0  0  0  0  0
   -8.0296    4.3742  -18.0732 C   0  0  0  0  0  0  0  0  0  0  0  0
   -6.7467    4.7328  -17.6790 C   0  0  0  0  0  0  0  0  0  0  0  0
   -5.4847    4.9535  -19.7931 N   0  0  0  0  0  0  0  0  0  0  0  0
   -5.0742    4.0502  -20.0296 H   0  0  0  0  0  0  0  0  0  0  0  0
   -5.3044    7.3817  -20.2956 C   0  0  0  0  0  0  0  0  0  0  0  0
   -4.6334    6.0170  -20.3295 C   0  0  0  0  0  0  0  0  0  0  0  0
 26 27  1  0  0  0
 27 24  1  0  0  0
 24 15  1  0  0  0
 15 16  1  0  0  0
 16 17  2  0  0  0
 17 18  1  0  0  0
 18 19  2  0  0  0
 19  1  1  0  0  0
  1  2  2  0  0  0
  1  3  1  0  0  0
  3  5  1  0  0  0
  5  6  2  0  0  0
  6  7  1  0  0  0
  7  8  2  0  0  0
  8  9  1  0  0  0
  9 10  2  0  0  0
  9 11  1  0  0  0
 11 12  1  0  0  0
 12 13  1  0  0  0
 19 20  1  0  0  0
 20 21  2  0  0  0
 21 22  1  0  0  0
 22 23  2  0  0  0
 23 15  1  0  0  0
 23 18  1  0  0  0
 10  5  1  0  0  0
 13  8  1  0  0  0
 24 25  1  0  0  0
  3  4  1  0  0  0
 12 14  1  0  0  0
M  END
> <minimizedAffinity>
-8.11058

> <minimizedRMSD>
1.10276

$$$$
P17530


 16 17  0  0  0  0  0  0  0  0999 V2000
   -8.2452    4.0298  -11.8077 C   0  0  0  0  0  0  0  0  0  0  0  0
   -7.9844    5.2212  -11.1186 C   0  0  0  0  0  0  0  0  0  0  0  0
   -8.1420    5.2857   -9.7256 C   0  0  0  0  0  0  0  0  0  0  0  0
   -8.5485    4.1482   -9.0469 C   0  0  0  0  0  0  0  0  0  0  0  0
   -8.7745    2.9605   -9.7226 C   0  0  0  0  0  0  0  0  0  0  0  0
   -8.6248    2.8836  -11.0971 C   0  0  0  0  0  0  0  0  0  0  0  0
   -9.2243    1.9108   -8.7650 C   0  0  0  0  0  0  0  0  0  0  0  0
   -9.2329    2.5437   -7.4239 N   0  0  0  0  0  0  0  0  0  0  0  0
   -8.8480    3.9601   -7.5995 C   0  0  0  0  0  0  0  0  0  0  0  0
   -8.5646    2.0742   -6.8129 H   0  0  0  0  0  0  0  0  0  0  0  0
   -7.6349    4.9088  -14.2598 C   0  0  0  0  0  0  0  0  0  0  0  0
   -7.0283    5.8994  -14.1287 O   0  0  0  0  0  0  0  0  0  0  0  0
   -8.2128    3.9375  -13.2000 N   0  0  0  0  0  0  0  0  0  0  0  0
   -8.6240    3.1225  -13.5686 H   0  0  0  0  0  0  0  0  0  0  0  0
   -8.3169    4.0930  -16.6753 N   0  0  0  0  0  0  0  0  0  0  0  0
   -7.9747    4.4626  -15.6245 C   0  0  0  0  0  0  0  0  0  0  0  0
 15 16  3  0  0  0
 16 11  1  0  0  0
 11 12  2  0  0  0
 11 13  1  0  0  0
 13  1  1  0  0  0
  1  2  2  0  0  0
  2  3  1  0  0  0
  3  4  2  0  0  0
  4  5  1  0  0  0
  5  6  2  0  0  0
  5  7  1  0  0  0
  7  8  1  0  0  0
  8  9  1  0  0  0
  6  1  1  0  0  0
  9  4  1  0  0  0
 13 14  1  0  0  0
  8 10  1  0  0  0
M  END
> <minimizedAffinity>
-5.40482

> <minimizedRMSD>
0.47346

$$$$
P17533


 27 31  0  0  0  0  0  0  0  0999 V2000
   -9.6573    5.7576  -13.9755 O   0  0  0  0  0  0  0  0  0  0  0  0
   -8.7260    5.0567  -14.0356 C   0  0  0  0  0  0  0  0  0  0  0  0
   -7.9574    4.3165  -12.9207 N   0  0  0  0  0  0  0  0  0  0  0  0
   -7.1494    3.8418  -13.2225 H   0  0  0  0  0  0  0  0  0  0  0  0
   -8.0664    4.8756  -15.3286 C   0  0  0  0  0  0  0  0  0  0  0  0
   -8.6555    4.2986  -16.5175 C   0  0  0  0  0  0  0  0  0  0  0  0
   -7.9735    4.1632  -17.8104 C   0  0  0  0  0  0  0  0  0  0  0  0
   -8.6674    3.6372  -18.8346 F   0  0  0  0  0  0  0  0  0  0  0  0
   -6.6569    4.5785  -17.9901 C   0  0  0  0  0  0  0  0  0  0  0  0
   -6.2236    5.1117  -16.8306 C   0  0  0  0  0  0  0  0  0  0  0  0
   -4.9637    5.5389  -16.9740 C   0  0  0  0  0  0  0  0  0  0  0  0
   -4.6151    6.0233  -15.7465 N   0  0  0  0  0  0  0  0  0  0  0  0
   -5.7306    5.8763  -14.8776 C   0  0  0  0  0  0  0  0  0  0  0  0
   -6.7613    5.2918  -15.5889 C   0  0  0  0  0  0  0  0  0  0  0  0
   -4.5968    5.2517  -18.3217 C   0  0  0  0  0  0  0  0  0  0  0  0
   -5.5997    4.6453  -18.9261 N   0  0  0  0  0  0  0  0  0  0  0  0
   -3.7419    6.4082  -15.5046 H   0  0  0  0  0  0  0  0  0  0  0  0
   -8.2201    4.2109  -11.5599 C   0  0  0  0  0  0  0  0  0  0  0  0
   -8.0559    5.3158  -10.7093 C   0  0  0  0  0  0  0  0  0  0  0  0
   -8.2646    5.1960   -9.3340 C   0  0  0  0  0  0  0  0  0  0  0  0
   -8.6403    3.9628   -8.8364 C   0  0  0  0  0  0  0  0  0  0  0  0
   -8.8105    2.8708   -9.6775 C   0  0  0  0  0  0  0  0  0  0  0  0
   -8.6057    2.9729  -11.0437 C   0  0  0  0  0  0  0  0  0  0  0  0
   -9.1960    1.6791   -8.8726 C   0  0  0  0  0  0  0  0  0  0  0  0
   -9.3201    2.1395   -7.4672 N   0  0  0  0  0  0  0  0  0  0  0  0
   -8.9182    3.5610   -7.4299 C   0  0  0  0  0  0  0  0  0  0  0  0
   -8.7088    1.5885   -6.8647 H   0  0  0  0  0  0  0  0  0  0  0  0
  1  2  2  0  0  0
  2  3  1  0  0  0
  3 18  1  0  0  0
 18 19  2  0  0  0
 19 20  1  0  0  0
 20 21  2  0  0  0
 21 22  1  0  0  0
 22 23  2  0  0  0
 22 24  1  0  0  0
 24 25  1  0  0  0
 25 26  1  0  0  0
  2  5  1  0  0  0
  5  6  2  0  0  0
  6  7  1  0  0  0
  7  8  1  0  0  0
  7  9  2  0  0  0
  9 10  1  0  0  0
 10 11  2  0  0  0
 11 12  1  0  0  0
 12 13  1  0  0  0
 13 14  2  0  0  0
 11 15  1  0  0  0
 15 16  2  0  0  0
 23 18  1  0  0  0
 14  5  1  0  0  0
 26 21  1  0  0  0
 16  9  1  0  0  0
 14 10  1  0  0  0
  3  4  1  0  0  0
 25 27  1  0  0  0
 12 17  1  0  0  0
M  END
> <minimizedAffinity>
-9.37175

> <minimizedRMSD>
0.90679

$$$$
P17535


 30 34  0  0  0  0  0  0  0  0999 V2000
   -8.0569    4.6461  -15.5756 C   0  0  0  0  0  0  0  0  0  0  0  0
   -8.6721    4.0352  -16.6705 C   0  0  0  0  0  0  0  0  0  0  0  0
   -8.0127    4.0277  -17.9014 C   0  0  0  0  0  0  0  0  0  0  0  0
   -8.6315    3.4886  -18.9652 F   0  0  0  0  0  0  0  0  0  0  0  0
   -6.7570    4.6262  -18.0250 C   0  0  0  0  0  0  0  0  0  0  0  0
   -6.1559    5.2461  -16.9315 C   0  0  0  0  0  0  0  0  0  0  0  0
   -6.7999    5.2506  -15.7075 C   0  0  0  0  0  0  0  0  0  0  0  0
   -4.8461    5.8911  -17.3275 C   0  0  0  0  0  0  0  0  0  0  0  0
   -3.6276    5.2155  -16.6887 C   0  0  0  0  0  0  0  0  0  0  0  0
   -3.5140    5.4371  -15.1806 C   0  0  0  0  0  0  0  0  0  0  0  0
   -3.8499    6.8584  -14.7439 C   0  0  0  0  0  0  0  0  0  0  0  0
   -3.8719    7.8392  -15.9063 C   0  0  0  0  0  0  0  0  0  0  0  0
   -4.8060    7.4174  -17.0471 C   0  0  0  0  0  0  0  0  0  0  0  0
   -4.8890    5.6234  -18.8674 C   0  0  0  0  0  0  0  0  0  0  0  0
   -5.9144    4.6106  -19.1537 N   0  0  0  0  0  0  0  0  0  0  0  0
   -5.9947    4.0464  -19.9565 H   0  0  0  0  0  0  0  0  0  0  0  0
   -9.5806    5.5951  -14.1898 O   0  0  0  0  0  0  0  0  0  0  0  0
   -8.7103    4.8195  -14.2542 C   0  0  0  0  0  0  0  0  0  0  0  0
   -8.0305    3.9852  -13.1494 N   0  0  0  0  0  0  0  0  0  0  0  0
   -7.3631    3.3380  -13.4734 H   0  0  0  0  0  0  0  0  0  0  0  0
   -8.2074    3.9983  -11.7661 C   0  0  0  0  0  0  0  0  0  0  0  0
   -7.9977    5.1832  -11.0359 C   0  0  0  0  0  0  0  0  0  0  0  0
   -8.1651    5.2175   -9.6492 C   0  0  0  0  0  0  0  0  0  0  0  0
   -8.5719    4.0595   -9.0190 C   0  0  0  0  0  0  0  0  0  0  0  0
   -8.7705    2.8814   -9.7356 C   0  0  0  0  0  0  0  0  0  0  0  0
   -8.5757    2.8250  -11.1068 C   0  0  0  0  0  0  0  0  0  0  0  0
   -9.1919    1.8106   -8.7837 C   0  0  0  0  0  0  0  0  0  0  0  0
   -9.6106    2.5301   -7.5554 N   0  0  0  0  0  0  0  0  0  0  0  0
   -8.8772    3.8125   -7.5790 C   0  0  0  0  0  0  0  0  0  0  0  0
   -9.3618    1.9924   -6.7251 H   0  0  0  0  0  0  0  0  0  0  0  0
 17 18  2  0  0  0
 18 19  1  0  0  0
 19 21  1  0  0  0
 21 22  2  0  0  0
 22 23  1  0  0  0
 23 24  2  0  0  0
 24 25  1  0  0  0
 25 26  2  0  0  0
 25 27  1  0  0  0
 27 28  1  0  0  0
 28 29  1  0  0  0
 18  1  1  0  0  0
  1  2  2  0  0  0
  2  3  1  0  0  0
  3  4  1  0  0  0
  3  5  2  0  0  0
  5  6  1  0  0  0
  6  7  2  0  0  0
  6  8  1  0  0  0
  8  9  1  0  0  0
  9 10  1  0  0  0
 10 11  1  0  0  0
 11 12  1  0  0  0
 12 13  1  0  0  0
  8 14  1  0  0  0
 14 15  1  0  0  0
 26 21  1  0  0  0
  7  1  1  0  0  0
 13  8  1  0  0  0
 29 24  1  0  0  0
 15  5  1  0  0  0
 19 20  1  0  0  0
 28 30  1  0  0  0
 15 16  1  0  0  0
M  END
> <minimizedAffinity>
-10.74612

> <minimizedRMSD>
0.80810

$$$$
P17538


 25 28  0  0  0  0  0  0  0  0999 V2000
   -6.8419    5.3558  -12.9876 C   0  0  0  0  0  0  0  0  0  0  0  0
   -6.3556    6.3530  -12.6241 O   0  0  0  0  0  0  0  0  0  0  0  0
   -7.5745    4.2475  -12.1915 N   0  0  0  0  0  0  0  0  0  0  0  0
   -7.8300    3.4589  -12.7226 H   0  0  0  0  0  0  0  0  0  0  0  0
   -9.2981    3.7181  -19.4553 O   0  0  0  0  0  0  0  0  0  0  0  0
   -8.5891    3.8903  -18.4863 C   0  0  0  0  0  0  0  0  0  0  0  0
   -9.0693    3.7458  -17.1098 C   0  0  0  0  0  0  0  0  0  0  0  0
   -8.0937    4.1841  -16.3210 C   0  0  0  0  0  0  0  0  0  0  0  0
   -7.9942    4.4185  -14.9190 C   0  0  0  0  0  0  0  0  0  0  0  0
   -6.8709    4.9829  -14.4342 C   0  0  0  0  0  0  0  0  0  0  0  0
   -5.7720    5.3683  -15.3092 C   0  0  0  0  0  0  0  0  0  0  0  0
   -5.8153    5.1547  -16.6312 C   0  0  0  0  0  0  0  0  0  0  0  0
   -4.8217    5.5340  -17.4554 F   0  0  0  0  0  0  0  0  0  0  0  0
   -7.0119    4.5456  -17.2384 C   0  0  0  0  0  0  0  0  0  0  0  0
   -7.2833    4.3067  -18.4693 N   0  0  0  0  0  0  0  0  0  0  0  0
   -7.9296    4.1854  -10.8509 C   0  0  0  0  0  0  0  0  0  0  0  0
   -7.7663    5.2919  -10.0026 C   0  0  0  0  0  0  0  0  0  0  0  0
   -8.1569    5.2255   -8.6628 C   0  0  0  0  0  0  0  0  0  0  0  0
   -8.7131    4.0468   -8.2045 C   0  0  0  0  0  0  0  0  0  0  0  0
   -8.8671    2.9486   -9.0456 C   0  0  0  0  0  0  0  0  0  0  0  0
   -8.4809    2.9955  -10.3716 C   0  0  0  0  0  0  0  0  0  0  0  0
   -9.4374    1.8154   -8.2619 C   0  0  0  0  0  0  0  0  0  0  0  0
   -9.9667    2.4297   -7.0223 N   0  0  0  0  0  0  0  0  0  0  0  0
   -9.2081    3.6861   -6.8425 C   0  0  0  0  0  0  0  0  0  0  0  0
   -9.8195    1.8085   -6.2267 H   0  0  0  0  0  0  0  0  0  0  0  0
  5  6  2  0  0  0
  6  7  1  0  0  0
  7  8  2  0  0  0
  8  9  1  0  0  0
  9 10  2  0  0  0
 10  1  1  0  0  0
  1  2  2  0  0  0
  1  3  1  0  0  0
  3 16  1  0  0  0
 16 17  2  0  0  0
 17 18  1  0  0  0
 18 19  2  0  0  0
 19 20  1  0  0  0
 20 21  2  0  0  0
 20 22  1  0  0  0
 22 23  1  0  0  0
 23 24  1  0  0  0
 10 11  1  0  0  0
 11 12  2  0  0  0
 12 13  1  0  0  0
 12 14  1  0  0  0
 14 15  2  0  0  0
 15  6  1  0  0  0
 14  8  1  0  0  0
 21 16  1  0  0  0
 24 19  1  0  0  0
  3  4  1  0  0  0
 23 25  1  0  0  0
M  END
> <minimizedAffinity>
-8.27123

> <minimizedRMSD>
0.48604

$$$$
P17544


 36 40  0  0  0  0  0  0  0  0999 V2000
   -6.8028    5.2431  -12.6876 C   0  0  0  0  0  0  0  0  0  0  0  0
   -6.9054    6.6432  -12.4641 O   0  0  0  0  0  0  0  0  0  0  0  0
   -6.9438    6.8165  -11.5105 H   0  0  0  0  0  0  0  0  0  0  0  0
   -6.7477    5.0631  -14.2285 C   0  0  0  0  0  0  0  0  0  0  0  0
   -7.9345    4.5446  -14.8479 C   0  0  0  0  0  0  0  0  0  0  0  0
   -8.0500    4.3216  -16.2226 C   0  0  0  0  0  0  0  0  0  0  0  0
   -9.2014    3.8647  -16.7348 F   0  0  0  0  0  0  0  0  0  0  0  0
   -6.9709    4.5889  -17.0229 C   0  0  0  0  0  0  0  0  0  0  0  0
   -5.8452    5.1105  -16.4490 C   0  0  0  0  0  0  0  0  0  0  0  0
   -4.9527    5.3259  -17.4605 C   0  0  0  0  0  0  0  0  0  0  0  0
   -3.6921    5.8232  -17.2375 C   0  0  0  0  0  0  0  0  0  0  0  0
   -3.3733    6.1184  -15.9154 C   0  0  0  0  0  0  0  0  0  0  0  0
   -4.3169    5.9132  -14.8753 C   0  0  0  0  0  0  0  0  0  0  0  0
   -5.6280    5.3759  -15.0927 C   0  0  0  0  0  0  0  0  0  0  0  0
   -5.6394    4.8871  -18.6673 C   0  0  0  0  0  0  0  0  0  0  0  0
   -6.8213    4.4041  -18.4103 N   0  0  0  0  0  0  0  0  0  0  0  0
   -4.7437    5.2846  -11.3584 O   0  0  0  0  0  0  0  0  0  0  0  0
   -5.5076    4.6266  -11.9558 C   0  0  0  0  0  0  0  0  0  0  0  0
   -5.5275    3.0869  -12.2180 N   0  0  0  0  0  0  0  0  0  0  0  0
   -6.3264    2.7594  -12.6909 H   0  0  0  0  0  0  0  0  0  0  0  0
   -4.5620    2.0639  -11.8786 C   0  0  0  0  0  0  0  0  0  0  0  0
   -4.5058    1.7133  -10.3936 C   0  0  0  0  0  0  0  0  0  0  0  0
   -5.6299    2.1445   -9.7659 F   0  0  0  0  0  0  0  0  0  0  0  0
   -4.4859    0.3605  -10.2563 F   0  0  0  0  0  0  0  0  0  0  0  0
   -8.0461    4.6379  -12.1758 N   0  0  0  0  0  0  0  0  0  0  0  0
   -8.7167    4.3496  -12.8364 H   0  0  0  0  0  0  0  0  0  0  0  0
   -8.3471    4.4410  -10.8172 C   0  0  0  0  0  0  0  0  0  0  0  0
   -8.1703    5.4172   -9.8102 C   0  0  0  0  0  0  0  0  0  0  0  0
   -8.3520    5.1380   -8.4498 C   0  0  0  0  0  0  0  0  0  0  0  0
   -8.7377    3.8672   -8.0936 C   0  0  0  0  0  0  0  0  0  0  0  0
   -8.9107    2.8833   -9.0575 C   0  0  0  0  0  0  0  0  0  0  0  0
   -8.6931    3.1428  -10.4037 C   0  0  0  0  0  0  0  0  0  0  0  0
   -9.3050    1.6140   -8.3760 C   0  0  0  0  0  0  0  0  0  0  0  0
   -9.7199    2.0214   -7.0104 N   0  0  0  0  0  0  0  0  0  0  0  0
   -9.0138    3.2907   -6.7456 C   0  0  0  0  0  0  0  0  0  0  0  0
   -9.4474    1.3130   -6.3290 H   0  0  0  0  0  0  0  0  0  0  0  0
 17 18  2  0  0  0
 18 19  1  0  0  0
 19 21  1  0  0  0
 21 22  1  0  0  0
 22 23  1  0  0  0
 22 24  1  0  0  0
 18  1  1  0  0  0
  1  2  1  0  0  0
  1 25  1  0  0  0
 25 27  1  0  0  0
 27 28  2  0  0  0
 28 29  1  0  0  0
 29 30  2  0  0  0
 30 31  1  0  0  0
 31 32  2  0  0  0
 31 33  1  0  0  0
 33 34  1  0  0  0
 34 35  1  0  0  0
  1  4  1  0  0  0
  4  5  2  0  0  0
  5  6  1  0  0  0
  6  7  1  0  0  0
  6  8  2  0  0  0
  8  9  1  0  0  0
  9 10  2  0  0  0
 10 11  1  0  0  0
 11 12  2  0  0  0
 12 13  1  0  0  0
 13 14  2  0  0  0
 10 15  1  0  0  0
 15 16  2  0  0  0
 32 27  1  0  0  0
 14  4  1  0  0  0
 35 30  1  0  0  0
 16  8  1  0  0  0
 14  9  1  0  0  0
 19 20  1  0  0  0
  2  3  1  0  0  0
 25 26  1  0  0  0
 34 36  1  0  0  0
M  END
> <minimizedAffinity>
-8.63557

> <minimizedRMSD>
2.39984

$$$$
P17547


 28 31  0  0  0  0  0  0  0  0999 V2000
   -3.7554    5.5344  -19.5543 N   0  0  0  0  0  0  0  0  0  0  0  0
   -4.7447    5.2850  -18.6752 C   0  0  0  0  0  0  0  0  0  0  0  0
   -4.7770    5.4404  -17.3170 C   0  0  0  0  0  0  0  0  0  0  0  0
   -6.0608    5.0357  -16.8702 C   0  0  0  0  0  0  0  0  0  0  0  0
   -6.6741    5.0299  -15.6118 C   0  0  0  0  0  0  0  0  0  0  0  0
   -7.9921    4.5707  -15.4971 C   0  0  0  0  0  0  0  0  0  0  0  0
   -8.6888    4.0695  -16.5950 C   0  0  0  0  0  0  0  0  0  0  0  0
   -8.0893    4.0867  -17.8577 C   0  0  0  0  0  0  0  0  0  0  0  0
   -8.7883    3.6706  -18.9249 F   0  0  0  0  0  0  0  0  0  0  0  0
   -6.7862    4.5942  -17.9768 C   0  0  0  0  0  0  0  0  0  0  0  0
   -5.9753    4.8138  -19.0714 N   0  0  0  0  0  0  0  0  0  0  0  0
   -2.8869    5.8712  -19.2355 H   0  0  0  0  0  0  0  0  0  0  0  0
   -3.9006    5.3799  -20.5157 H   0  0  0  0  0  0  0  0  0  0  0  0
   -6.2404    4.6553  -20.0061 H   0  0  0  0  0  0  0  0  0  0  0  0
   -8.6429    4.8048  -14.1907 C   0  0  0  0  0  0  0  0  0  0  0  0
   -9.4702    5.6260  -14.1387 O   0  0  0  0  0  0  0  0  0  0  0  0
   -8.0188    3.9438  -13.0761 N   0  0  0  0  0  0  0  0  0  0  0  0
   -7.3846    3.2595  -13.3903 H   0  0  0  0  0  0  0  0  0  0  0  0
   -8.2058    3.9757  -11.6955 C   0  0  0  0  0  0  0  0  0  0  0  0
   -8.0136    5.1692  -10.9756 C   0  0  0  0  0  0  0  0  0  0  0  0
   -8.1886    5.2112   -9.5898 C   0  0  0  0  0  0  0  0  0  0  0  0
   -8.5892    4.0540   -8.9530 C   0  0  0  0  0  0  0  0  0  0  0  0
   -8.7827    2.8713   -9.6625 C   0  0  0  0  0  0  0  0  0  0  0  0
   -8.5734    2.8057  -11.0301 C   0  0  0  0  0  0  0  0  0  0  0  0
   -9.2263    1.8082   -8.7114 C   0  0  0  0  0  0  0  0  0  0  0  0
   -9.6393    2.5356   -7.4843 N   0  0  0  0  0  0  0  0  0  0  0  0
   -8.8910    3.8100   -7.5118 C   0  0  0  0  0  0  0  0  0  0  0  0
   -9.3972    1.9977   -6.6522 H   0  0  0  0  0  0  0  0  0  0  0  0
  1  2  1  0  0  0
  2  3  2  0  0  0
  3  4  1  0  0  0
  4  5  2  0  0  0
  5  6  1  0  0  0
  6 15  1  0  0  0
 15 16  2  0  0  0
 15 17  1  0  0  0
 17 19  1  0  0  0
 19 20  2  0  0  0
 20 21  1  0  0  0
 21 22  2  0  0  0
 22 23  1  0  0  0
 23 24  2  0  0  0
 23 25  1  0  0  0
 25 26  1  0  0  0
 26 27  1  0  0  0
  6  7  2  0  0  0
  7  8  1  0  0  0
  8  9  1  0  0  0
  8 10  2  0  0  0
 10 11  1  0  0  0
 11  2  1  0  0  0
 10  4  1  0  0  0
 24 19  1  0  0  0
 27 22  1  0  0  0
  1 12  1  0  0  0
  1 13  1  0  0  0
 17 18  1  0  0  0
 26 28  1  0  0  0
 11 14  1  0  0  0
M  END
> <minimizedAffinity>
-10.24185

> <minimizedRMSD>
0.70096

$$$$
P17552


 27 31  0  0  0  0  0  0  0  0999 V2000
   -9.5678    5.5970  -14.2488 O   0  0  0  0  0  0  0  0  0  0  0  0
   -8.6931    4.8257  -14.2798 C   0  0  0  0  0  0  0  0  0  0  0  0
   -8.0259    4.0250  -13.1438 N   0  0  0  0  0  0  0  0  0  0  0  0
   -7.3501    3.3736  -13.4407 H   0  0  0  0  0  0  0  0  0  0  0  0
   -8.0508    4.5663  -15.5747 C   0  0  0  0  0  0  0  0  0  0  0  0
   -8.7818    4.1085  -16.7112 C   0  0  0  0  0  0  0  0  0  0  0  0
   -8.2123    4.0760  -18.0196 C   0  0  0  0  0  0  0  0  0  0  0  0
   -8.9461    3.7089  -19.0772 F   0  0  0  0  0  0  0  0  0  0  0  0
   -6.8975    4.5182  -18.1281 C   0  0  0  0  0  0  0  0  0  0  0  0
   -5.9340    4.7890  -19.0831 N   0  0  0  0  0  0  0  0  0  0  0  0
   -4.7589    5.3114  -18.4657 C   0  0  0  0  0  0  0  0  0  0  0  0
   -5.0241    5.3418  -17.1359 C   0  0  0  0  0  0  0  0  0  0  0  0
   -6.2686    4.8699  -16.9817 C   0  0  0  0  0  0  0  0  0  0  0  0
   -6.7331    4.9322  -15.7233 C   0  0  0  0  0  0  0  0  0  0  0  0
   -5.6270    5.4801  -15.0031 N   0  0  0  0  0  0  0  0  0  0  0  0
   -4.6213    5.7119  -15.8391 N   0  0  0  0  0  0  0  0  0  0  0  0
   -6.0437    4.6423  -20.0504 H   0  0  0  0  0  0  0  0  0  0  0  0
   -8.2235    4.0730  -11.7672 C   0  0  0  0  0  0  0  0  0  0  0  0
   -7.9823    5.2588  -11.0529 C   0  0  0  0  0  0  0  0  0  0  0  0
   -8.1405    5.3053   -9.6664 C   0  0  0  0  0  0  0  0  0  0  0  0
   -8.5508    4.1559   -9.0195 C   0  0  0  0  0  0  0  0  0  0  0  0
   -8.7961    2.9844   -9.7243 C   0  0  0  0  0  0  0  0  0  0  0  0
   -8.6341    2.9196  -11.0989 C   0  0  0  0  0  0  0  0  0  0  0  0
   -9.2088    1.9130   -8.7763 C   0  0  0  0  0  0  0  0  0  0  0  0
   -9.2907    2.5436   -7.4356 N   0  0  0  0  0  0  0  0  0  0  0  0
   -8.7998    3.9309   -7.5689 C   0  0  0  0  0  0  0  0  0  0  0  0
   -8.7096    2.0303   -6.7728 H   0  0  0  0  0  0  0  0  0  0  0  0
  1  2  2  0  0  0
  2  3  1  0  0  0
  3 18  1  0  0  0
 18 19  2  0  0  0
 19 20  1  0  0  0
 20 21  2  0  0  0
 21 22  1  0  0  0
 22 23  2  0  0  0
 22 24  1  0  0  0
 24 25  1  0  0  0
 25 26  1  0  0  0
  2  5  1  0  0  0
  5  6  2  0  0  0
  6  7  1  0  0  0
  7  8  1  0  0  0
  7  9  2  0  0  0
  9 10  1  0  0  0
 10 11  1  0  0  0
 11 12  2  0  0  0
 12 13  1  0  0  0
 13 14  2  0  0  0
 14 15  1  0  0  0
 15 16  2  0  0  0
 23 18  1  0  0  0
 14  5  1  0  0  0
 26 21  1  0  0  0
 13  9  1  0  0  0
 16 12  1  0  0  0
  3  4  1  0  0  0
 25 27  1  0  0  0
 10 17  1  0  0  0
M  END
> <minimizedAffinity>
-10.01982

> <minimizedRMSD>
0.85134

$$$$
P17583


 38 42  0  0  0  0  0  0  0  0999 V2000
   -7.5017    5.6565  -13.0142 C   0  0  0  0  0  0  0  0  0  0  0  0
   -4.0612    5.4188  -15.8838 N   0  0  0  0  0  0  0  0  0  0  0  0
   -4.8139    5.3465  -14.7481 C   0  0  0  0  0  0  0  0  0  0  0  0
   -6.1167    5.1715  -15.1693 C   0  0  0  0  0  0  0  0  0  0  0  0
   -6.0080    5.1200  -16.5813 C   0  0  0  0  0  0  0  0  0  0  0  0
   -4.7643    5.3389  -17.0143 N   0  0  0  0  0  0  0  0  0  0  0  0
   -7.1250    4.9202  -17.5301 C   0  0  0  0  0  0  0  0  0  0  0  0
   -8.4961    4.8199  -16.8463 C   0  0  0  0  0  0  0  0  0  0  0  0
   -9.1271    3.1648  -17.0512 Cl  0  0  0  0  0  0  0  0  0  0  0  0
   -8.5986    5.3453  -15.3763 C   0  0  0  0  0  0  0  0  0  0  0  0
   -7.4146    5.0211  -14.4468 C   0  0  0  0  0  0  0  0  0  0  0  0
   -7.6612    3.6431  -14.2038 O   0  0  0  0  0  0  0  0  0  0  0  0
   -8.5042    3.5434  -13.7344 H   0  0  0  0  0  0  0  0  0  0  0  0
   -2.3243    5.9435  -17.2838 C   0  0  0  0  0  0  0  0  0  0  0  0
   -2.7050    5.7139  -15.9328 O   0  0  0  0  0  0  0  0  0  0  0  0
   -7.5899    7.2148  -12.9575 C   0  0  0  0  0  0  0  0  0  0  0  0
   -6.6820    7.8924  -13.2431 O   0  0  0  0  0  0  0  0  0  0  0  0
   -8.9816    7.5890  -12.3860 N   0  0  0  0  0  0  0  0  0  0  0  0
   -9.6085    6.8347  -12.3004 H   0  0  0  0  0  0  0  0  0  0  0  0
   -9.5061    8.8596  -11.9603 C   0  0  0  0  0  0  0  0  0  0  0  0
   -9.8185    9.8224  -13.0562 C   0  0  0  0  0  0  0  0  0  0  0  0
  -11.0830    9.8793  -13.6411 C   0  0  0  0  0  0  0  0  0  0  0  0
  -11.3401   10.8244  -14.6280 C   0  0  0  0  0  0  0  0  0  0  0  0
  -10.3237   11.6822  -15.0068 C   0  0  0  0  0  0  0  0  0  0  0  0
   -9.0824   11.6509  -14.4793 N   0  0  0  0  0  0  0  0  0  0  0  0
   -8.8600   10.7221  -13.5177 C   0  0  0  0  0  0  0  0  0  0  0  0
   -8.5983    4.9470  -12.2602 N   0  0  0  0  0  0  0  0  0  0  0  0
   -9.4593    4.7593  -12.6991 H   0  0  0  0  0  0  0  0  0  0  0  0
   -8.3829    4.5531  -10.9204 C   0  0  0  0  0  0  0  0  0  0  0  0
   -8.0425    5.4707   -9.9052 C   0  0  0  0  0  0  0  0  0  0  0  0
   -8.1927    5.1574   -8.5500 C   0  0  0  0  0  0  0  0  0  0  0  0
   -8.6433    3.8981   -8.2207 C   0  0  0  0  0  0  0  0  0  0  0  0
   -8.8477    2.9378   -9.2015 C   0  0  0  0  0  0  0  0  0  0  0  0
   -8.7494    3.2511  -10.5459 C   0  0  0  0  0  0  0  0  0  0  0  0
   -9.1885    1.6468   -8.5396 C   0  0  0  0  0  0  0  0  0  0  0  0
   -9.6569    2.0249   -7.1851 N   0  0  0  0  0  0  0  0  0  0  0  0
   -9.0173    3.3280   -6.8927 C   0  0  0  0  0  0  0  0  0  0  0  0
   -9.3693    1.3255   -6.5007 H   0  0  0  0  0  0  0  0  0  0  0  0
 14 15  1  0  0  0
 15  2  1  0  0  0
  2  3  1  0  0  0
  3  4  2  0  0  0
  4  5  1  0  0  0
  5  6  2  0  0  0
  5  7  1  0  0  0
  7  8  1  0  0  0
  8  9  1  0  0  0
  8 10  1  0  0  0
 10 11  1  0  0  0
 11 12  1  0  0  0
 11  1  1  0  0  0
  1 27  1  0  0  0
 27 29  1  0  0  0
 29 30  2  0  0  0
 30 31  1  0  0  0
 31 32  2  0  0  0
 32 33  1  0  0  0
 33 34  2  0  0  0
 33 35  1  0  0  0
 35 36  1  0  0  0
 36 37  1  0  0  0
  1 16  1  0  0  0
 16 17  2  0  0  0
 16 18  1  0  0  0
 18 20  1  0  0  0
 20 21  1  0  0  0
 21 22  2  0  0  0
 22 23  1  0  0  0
 23 24  2  0  0  0
 24 25  1  0  0  0
 25 26  2  0  0  0
  6  2  1  0  0  0
 34 29  1  0  0  0
 26 21  1  0  0  0
 11  4  1  0  0  0
 37 32  1  0  0  0
 12 13  1  0  0  0
 27 28  1  0  0  0
 36 38  1  0  0  0
 18 19  1  0  0  0
M  END
> <minimizedAffinity>
-7.34826

> <minimizedRMSD>
0.59935

$$$$
P17584


 39 43  0  0  0  0  0  0  0  0999 V2000
   -7.5726    5.5689  -12.9272 C   0  0  0  0  0  0  0  0  0  0  0  0
   -4.0902    5.4022  -15.7077 N   0  0  0  0  0  0  0  0  0  0  0  0
   -4.8894    5.2898  -14.6054 C   0  0  0  0  0  0  0  0  0  0  0  0
   -6.1806    5.1556  -15.0662 C   0  0  0  0  0  0  0  0  0  0  0  0
   -6.0340    5.1754  -16.4689 C   0  0  0  0  0  0  0  0  0  0  0  0
   -4.7690    5.3609  -16.8553 N   0  0  0  0  0  0  0  0  0  0  0  0
   -7.1332    5.0427  -17.4487 C   0  0  0  0  0  0  0  0  0  0  0  0
   -8.5042    4.7956  -16.7970 C   0  0  0  0  0  0  0  0  0  0  0  0
   -8.9961    3.1041  -17.1115 Cl  0  0  0  0  0  0  0  0  0  0  0  0
   -8.6642    5.2283  -15.2989 C   0  0  0  0  0  0  0  0  0  0  0  0
   -7.4787    4.9483  -14.3650 C   0  0  0  0  0  0  0  0  0  0  0  0
   -7.6719    3.5581  -14.1265 O   0  0  0  0  0  0  0  0  0  0  0  0
   -8.5169    3.4228  -13.6699 H   0  0  0  0  0  0  0  0  0  0  0  0
   -2.2425    6.8403  -15.7046 C   0  0  0  0  0  0  0  0  0  0  0  0
   -2.6908    5.4552  -15.6686 N   0  0  0  0  0  0  0  0  0  0  0  0
   -2.3602    5.0156  -14.8097 H   0  0  0  0  0  0  0  0  0  0  0  0
   -7.5835    7.1301  -12.8319 C   0  0  0  0  0  0  0  0  0  0  0  0
   -6.6185    7.7654  -13.0089 O   0  0  0  0  0  0  0  0  0  0  0  0
   -9.0047    7.5640  -12.3835 N   0  0  0  0  0  0  0  0  0  0  0  0
   -9.6745    6.8424  -12.3812 H   0  0  0  0  0  0  0  0  0  0  0  0
   -9.5027    8.8505  -11.9704 C   0  0  0  0  0  0  0  0  0  0  0  0
   -9.8003    9.8141  -13.0702 C   0  0  0  0  0  0  0  0  0  0  0  0
  -11.0626    9.8895  -13.6582 C   0  0  0  0  0  0  0  0  0  0  0  0
  -11.3038   10.8394  -14.6452 C   0  0  0  0  0  0  0  0  0  0  0  0
  -10.2747   11.6828  -15.0222 C   0  0  0  0  0  0  0  0  0  0  0  0
   -9.0344   11.6316  -14.4927 N   0  0  0  0  0  0  0  0  0  0  0  0
   -8.8286   10.7012  -13.5288 C   0  0  0  0  0  0  0  0  0  0  0  0
   -8.6972    4.8979  -12.1768 N   0  0  0  0  0  0  0  0  0  0  0  0
   -9.5623    4.7179  -12.6108 H   0  0  0  0  0  0  0  0  0  0  0  0
   -8.4655    4.5349  -10.8245 C   0  0  0  0  0  0  0  0  0  0  0  0
   -8.1165    5.4812   -9.8367 C   0  0  0  0  0  0  0  0  0  0  0  0
   -8.2169    5.1996   -8.4723 C   0  0  0  0  0  0  0  0  0  0  0  0
   -8.6343    3.9429   -8.0992 C   0  0  0  0  0  0  0  0  0  0  0  0
   -8.8923    2.9674   -9.0489 C   0  0  0  0  0  0  0  0  0  0  0  0
   -8.8274    3.2468  -10.4063 C   0  0  0  0  0  0  0  0  0  0  0  0
   -9.3354    1.7230   -8.3611 C   0  0  0  0  0  0  0  0  0  0  0  0
   -9.1901    1.9714   -6.9048 N   0  0  0  0  0  0  0  0  0  0  0  0
   -8.9584    3.4215   -6.7433 C   0  0  0  0  0  0  0  0  0  0  0  0
   -8.3980    1.4455   -6.5357 H   0  0  0  0  0  0  0  0  0  0  0  0
 14 15  1  0  0  0
 15  2  1  0  0  0
  2  3  1  0  0  0
  3  4  2  0  0  0
  4  5  1  0  0  0
  5  6  2  0  0  0
  5  7  1  0  0  0
  7  8  1  0  0  0
  8  9  1  0  0  0
  8 10  1  0  0  0
 10 11  1  0  0  0
 11 12  1  0  0  0
 11  1  1  0  0  0
  1 28  1  0  0  0
 28 30  1  0  0  0
 30 31  2  0  0  0
 31 32  1  0  0  0
 32 33  2  0  0  0
 33 34  1  0  0  0
 34 35  2  0  0  0
 34 36  1  0  0  0
 36 37  1  0  0  0
 37 38  1  0  0  0
  1 17  1  0  0  0
 17 18  2  0  0  0
 17 19  1  0  0  0
 19 21  1  0  0  0
 21 22  1  0  0  0
 22 23  2  0  0  0
 23 24  1  0  0  0
 24 25  2  0  0  0
 25 26  1  0  0  0
 26 27  2  0  0  0
  6  2  1  0  0  0
 35 30  1  0  0  0
 27 22  1  0  0  0
 11  4  1  0  0  0
 38 33  1  0  0  0
 15 16  1  0  0  0
 12 13  1  0  0  0
 28 29  1  0  0  0
 37 39  1  0  0  0
 19 20  1  0  0  0
M  END
> <minimizedAffinity>
-7.12347

> <minimizedRMSD>
0.71360

$$$$
P17603


 38 42  0  0  0  0  0  0  0  0999 V2000
   -7.0484    3.4756  -13.1054 C   0  0  0  0  0  0  0  0  0  0  0  0
   -7.1843    2.0646  -13.2205 O   0  0  0  0  0  0  0  0  0  0  0  0
   -7.9880    1.8571  -13.7225 H   0  0  0  0  0  0  0  0  0  0  0  0
   -7.8591    4.8707  -16.6181 C   0  0  0  0  0  0  0  0  0  0  0  0
   -7.9935    4.3788  -15.3166 C   0  0  0  0  0  0  0  0  0  0  0  0
   -6.8834    3.9967  -14.5334 C   0  0  0  0  0  0  0  0  0  0  0  0
   -5.6080    4.1785  -15.1348 C   0  0  0  0  0  0  0  0  0  0  0  0
   -4.2629    3.9308  -14.7637 C   0  0  0  0  0  0  0  0  0  0  0  0
   -3.3752    4.3320  -15.6782 N   0  0  0  0  0  0  0  0  0  0  0  0
   -4.1547    4.8313  -16.6554 N   0  0  0  0  0  0  0  0  0  0  0  0
   -3.5440    5.4442  -17.8073 C   0  0  0  0  0  0  0  0  0  0  0  0
   -5.4962    4.7206  -16.4093 C   0  0  0  0  0  0  0  0  0  0  0  0
   -6.5969    5.0509  -17.1880 C   0  0  0  0  0  0  0  0  0  0  0  0
   -9.3169    4.2433  -18.5137 C   0  0  0  0  0  0  0  0  0  0  0  0
   -9.0840    5.2231  -17.4023 C   0  0  0  0  0  0  0  0  0  0  0  0
   -5.7273    3.8983  -12.2785 C   0  0  0  0  0  0  0  0  0  0  0  0
   -5.3694    5.0033  -12.1295 O   0  0  0  0  0  0  0  0  0  0  0  0
   -5.0948    2.5571  -11.7926 N   0  0  0  0  0  0  0  0  0  0  0  0
   -5.5502    1.7458  -12.1146 H   0  0  0  0  0  0  0  0  0  0  0  0
   -3.9586    2.3149  -10.9536 C   0  0  0  0  0  0  0  0  0  0  0  0
   -2.6965    2.2445  -11.7569 C   0  0  0  0  0  0  0  0  0  0  0  0
   -1.9197    3.3821  -11.9979 C   0  0  0  0  0  0  0  0  0  0  0  0
   -0.7642    3.2818  -12.7660 C   0  0  0  0  0  0  0  0  0  0  0  0
   -0.4110    2.0367  -13.2569 C   0  0  0  0  0  0  0  0  0  0  0  0
   -1.1223    0.9108  -13.0322 N   0  0  0  0  0  0  0  0  0  0  0  0
   -2.2474    1.0421  -12.2925 C   0  0  0  0  0  0  0  0  0  0  0  0
   -8.2810    3.9718  -12.4630 N   0  0  0  0  0  0  0  0  0  0  0  0
   -9.0513    4.2256  -13.0211 H   0  0  0  0  0  0  0  0  0  0  0  0
   -8.3696    4.0867  -11.0661 C   0  0  0  0  0  0  0  0  0  0  0  0
   -8.1350    5.2937  -10.3830 C   0  0  0  0  0  0  0  0  0  0  0  0
   -8.1671    5.3683   -8.9829 C   0  0  0  0  0  0  0  0  0  0  0  0
   -8.4613    4.2235   -8.2674 C   0  0  0  0  0  0  0  0  0  0  0  0
   -8.7315    3.0358   -8.9234 C   0  0  0  0  0  0  0  0  0  0  0  0
   -8.6890    2.9502  -10.3078 C   0  0  0  0  0  0  0  0  0  0  0  0
   -9.0355    1.9711   -7.9264 C   0  0  0  0  0  0  0  0  0  0  0  0
   -8.9817    2.6116   -6.5889 N   0  0  0  0  0  0  0  0  0  0  0  0
   -8.5770    4.0149   -6.7947 C   0  0  0  0  0  0  0  0  0  0  0  0
   -8.3000    2.1338   -5.9996 H   0  0  0  0  0  0  0  0  0  0  0  0
 14 15  1  0  0  0
 15  4  1  0  0  0
  4  5  2  0  0  0
  5  6  1  0  0  0
  6  1  1  0  0  0
  1  2  1  0  0  0
  1 27  1  0  0  0
 27 29  1  0  0  0
 29 30  2  0  0  0
 30 31  1  0  0  0
 31 32  2  0  0  0
 32 33  1  0  0  0
 33 34  2  0  0  0
 33 35  1  0  0  0
 35 36  1  0  0  0
 36 37  1  0  0  0
  1 16  1  0  0  0
 16 17  2  0  0  0
 16 18  1  0  0  0
 18 20  1  0  0  0
 20 21  1  0  0  0
 21 22  2  0  0  0
 22 23  1  0  0  0
 23 24  2  0  0  0
 24 25  1  0  0  0
 25 26  2  0  0  0
  6  7  2  0  0  0
  7  8  1  0  0  0
  8  9  2  0  0  0
  9 10  1  0  0  0
 10 11  1  0  0  0
 10 12  1  0  0  0
 12 13  2  0  0  0
 13  4  1  0  0  0
 34 29  1  0  0  0
 26 21  1  0  0  0
 12  7  1  0  0  0
 37 32  1  0  0  0
  2  3  1  0  0  0
 27 28  1  0  0  0
 36 38  1  0  0  0
 18 19  1  0  0  0
M  END
> <minimizedAffinity>
-8.53915

> <minimizedRMSD>
3.26304

$$$$
P17610


 37 41  0  0  0  0  0  0  0  0999 V2000
   -8.0461    5.6303  -13.5544 C   0  0  0  0  0  0  0  0  0  0  0  0
   -7.7035    5.2421  -14.9890 C   0  0  0  0  0  0  0  0  0  0  0  0
   -8.7586    4.8931  -15.8730 C   0  0  0  0  0  0  0  0  0  0  0  0
   -8.6276    4.6323  -17.2691 C   0  0  0  0  0  0  0  0  0  0  0  0
  -10.0840    4.4099  -18.1464 Cl  0  0  0  0  0  0  0  0  0  0  0  0
   -7.4104    4.6260  -17.9562 C   0  0  0  0  0  0  0  0  0  0  0  0
   -6.3192    4.8638  -17.1145 C   0  0  0  0  0  0  0  0  0  0  0  0
   -5.0105    4.8993  -17.4211 N   0  0  0  0  0  0  0  0  0  0  0  0
   -4.3935    5.1238  -16.2528 N   0  0  0  0  0  0  0  0  0  0  0  0
   -5.2316    5.2582  -15.1867 C   0  0  0  0  0  0  0  0  0  0  0  0
   -6.4952    5.1418  -15.6938 C   0  0  0  0  0  0  0  0  0  0  0  0
   -3.4144    5.1864  -16.1714 H   0  0  0  0  0  0  0  0  0  0  0  0
   -6.6569    7.6173  -13.3782 O   0  0  0  0  0  0  0  0  0  0  0  0
   -7.7158    7.1450  -13.2119 C   0  0  0  0  0  0  0  0  0  0  0  0
   -9.0055    7.7517  -12.5613 N   0  0  0  0  0  0  0  0  0  0  0  0
   -9.8016    7.1744  -12.6079 H   0  0  0  0  0  0  0  0  0  0  0  0
   -9.2165    9.0268  -11.9011 C   0  0  0  0  0  0  0  0  0  0  0  0
   -9.9496    9.9946  -12.8034 C   0  0  0  0  0  0  0  0  0  0  0  0
  -10.9940    9.6258  -13.6596 C   0  0  0  0  0  0  0  0  0  0  0  0
  -11.6428   10.5899  -14.4284 C   0  0  0  0  0  0  0  0  0  0  0  0
  -11.2170   11.9022  -14.3328 C   0  0  0  0  0  0  0  0  0  0  0  0
  -10.1969   12.2995  -13.5466 N   0  0  0  0  0  0  0  0  0  0  0  0
   -9.5887   11.3428  -12.8050 C   0  0  0  0  0  0  0  0  0  0  0  0
   -9.8561    8.8178  -10.5185 C   0  0  0  0  0  0  0  0  0  0  0  0
  -11.0063    9.5490  -10.4394 F   0  0  0  0  0  0  0  0  0  0  0  0
   -7.4621    4.6352  -12.6279 N   0  0  0  0  0  0  0  0  0  0  0  0
   -6.8355    3.9607  -12.9766 H   0  0  0  0  0  0  0  0  0  0  0  0
   -7.7846    4.6342  -11.2586 C   0  0  0  0  0  0  0  0  0  0  0  0
   -7.3525    5.6269  -10.3568 C   0  0  0  0  0  0  0  0  0  0  0  0
   -7.6025    5.5612   -8.9769 C   0  0  0  0  0  0  0  0  0  0  0  0
   -8.2469    4.4498   -8.4829 C   0  0  0  0  0  0  0  0  0  0  0  0
   -8.6346    3.4293   -9.3375 C   0  0  0  0  0  0  0  0  0  0  0  0
   -8.4161    3.5057  -10.7097 C   0  0  0  0  0  0  0  0  0  0  0  0
   -9.1827    2.3080   -8.5164 C   0  0  0  0  0  0  0  0  0  0  0  0
   -9.4645    2.8927   -7.1799 N   0  0  0  0  0  0  0  0  0  0  0  0
   -8.5538    4.0526   -7.0750 C   0  0  0  0  0  0  0  0  0  0  0  0
   -9.2695    2.2150   -6.4430 H   0  0  0  0  0  0  0  0  0  0  0  0
 13 14  2  0  0  0
 14 15  1  0  0  0
 15 17  1  0  0  0
 17 24  1  0  0  0
 24 25  1  0  0  0
 17 18  1  0  0  0
 18 19  2  0  0  0
 19 20  1  0  0  0
 20 21  2  0  0  0
 21 22  1  0  0  0
 22 23  2  0  0  0
 14  1  1  0  0  0
  1 26  1  0  0  0
 26 28  1  0  0  0
 28 29  2  0  0  0
 29 30  1  0  0  0
 30 31  2  0  0  0
 31 32  1  0  0  0
 32 33  2  0  0  0
 32 34  1  0  0  0
 34 35  1  0  0  0
 35 36  1  0  0  0
  1  2  1  0  0  0
  2  3  2  0  0  0
  3  4  1  0  0  0
  4  5  1  0  0  0
  4  6  2  0  0  0
  6  7  1  0  0  0
  7  8  2  0  0  0
  8  9  1  0  0  0
  9 10  1  0  0  0
 10 11  2  0  0  0
 23 18  1  0  0  0
 33 28  1  0  0  0
 11  2  1  0  0  0
 36 31  1  0  0  0
 11  7  1  0  0  0
 15 16  1  0  0  0
 26 27  1  0  0  0
 35 37  1  0  0  0
  9 12  1  0  0  0
M  END
> <minimizedAffinity>
-7.53331

> <minimizedRMSD>
1.28379

$$$$
P17616


 38 42  0  0  0  0  0  0  0  0999 V2000
   -7.7599    5.6001  -13.5541 C   0  0  0  0  0  0  0  0  0  0  0  0
   -8.7872    6.5947  -13.5395 O   0  0  0  0  0  0  0  0  0  0  0  0
   -9.5998    6.2258  -13.9198 H   0  0  0  0  0  0  0  0  0  0  0  0
   -2.7483    5.1992  -16.7942 C   0  0  0  0  0  0  0  0  0  0  0  0
   -4.2213    5.1339  -16.6147 C   0  0  0  0  0  0  0  0  0  0  0  0
   -4.9704    5.2739  -15.4657 C   0  0  0  0  0  0  0  0  0  0  0  0
   -6.3572    5.1373  -15.7763 C   0  0  0  0  0  0  0  0  0  0  0  0
   -7.5747    5.2123  -15.0356 C   0  0  0  0  0  0  0  0  0  0  0  0
   -8.7627    4.9690  -15.7699 C   0  0  0  0  0  0  0  0  0  0  0  0
   -8.7753    4.7613  -17.1375 C   0  0  0  0  0  0  0  0  0  0  0  0
  -10.2737    4.6675  -17.9471 Cl  0  0  0  0  0  0  0  0  0  0  0  0
   -7.6011    4.7290  -17.8632 C   0  0  0  0  0  0  0  0  0  0  0  0
   -6.4039    4.9068  -17.1584 C   0  0  0  0  0  0  0  0  0  0  0  0
   -5.1087    4.9223  -17.6358 N   0  0  0  0  0  0  0  0  0  0  0  0
   -4.7760    4.7549  -19.0302 C   0  0  0  0  0  0  0  0  0  0  0  0
   -6.4247    6.2217  -12.9240 C   0  0  0  0  0  0  0  0  0  0  0  0
   -6.1725    7.3631  -13.0119 O   0  0  0  0  0  0  0  0  0  0  0  0
   -5.6071    5.0537  -12.3005 N   0  0  0  0  0  0  0  0  0  0  0  0
   -6.0058    4.1615  -12.4201 H   0  0  0  0  0  0  0  0  0  0  0  0
   -4.3700    5.0657  -11.5816 C   0  0  0  0  0  0  0  0  0  0  0  0
   -4.5888    5.3441  -10.1273 C   0  0  0  0  0  0  0  0  0  0  0  0
   -4.7591    4.3097   -9.2041 C   0  0  0  0  0  0  0  0  0  0  0  0
   -4.9856    4.6108   -7.8655 C   0  0  0  0  0  0  0  0  0  0  0  0
   -5.0337    5.9418   -7.4898 C   0  0  0  0  0  0  0  0  0  0  0  0
   -4.8736    6.9713   -8.3478 N   0  0  0  0  0  0  0  0  0  0  0  0
   -4.6691    6.6474   -9.6466 C   0  0  0  0  0  0  0  0  0  0  0  0
   -8.2188    4.4321  -12.7915 N   0  0  0  0  0  0  0  0  0  0  0  0
   -8.3699    3.5878  -13.2748 H   0  0  0  0  0  0  0  0  0  0  0  0
   -8.4527    4.4599  -11.4085 C   0  0  0  0  0  0  0  0  0  0  0  0
   -8.3615    5.6138  -10.6039 C   0  0  0  0  0  0  0  0  0  0  0  0
   -8.4387    5.5560   -9.2043 C   0  0  0  0  0  0  0  0  0  0  0  0
   -8.5851    4.3226   -8.6030 C   0  0  0  0  0  0  0  0  0  0  0  0
   -8.6842    3.1763   -9.3711 C   0  0  0  0  0  0  0  0  0  0  0  0
   -8.6284    3.2292  -10.7582 C   0  0  0  0  0  0  0  0  0  0  0  0
   -8.8091    1.9897   -8.4775 C   0  0  0  0  0  0  0  0  0  0  0  0
   -8.6421    2.4869   -7.0888 N   0  0  0  0  0  0  0  0  0  0  0  0
   -8.6587    3.9607   -7.1583 C   0  0  0  0  0  0  0  0  0  0  0  0
   -7.7543    2.1636   -6.7046 H   0  0  0  0  0  0  0  0  0  0  0  0
  4  5  1  0  0  0
  5  6  2  0  0  0
  6  7  1  0  0  0
  7  8  2  0  0  0
  8  1  1  0  0  0
  1  2  1  0  0  0
  1 27  1  0  0  0
 27 29  1  0  0  0
 29 30  2  0  0  0
 30 31  1  0  0  0
 31 32  2  0  0  0
 32 33  1  0  0  0
 33 34  2  0  0  0
 33 35  1  0  0  0
 35 36  1  0  0  0
 36 37  1  0  0  0
  1 16  1  0  0  0
 16 17  2  0  0  0
 16 18  1  0  0  0
 18 20  1  0  0  0
 20 21  1  0  0  0
 21 22  2  0  0  0
 22 23  1  0  0  0
 23 24  2  0  0  0
 24 25  1  0  0  0
 25 26  2  0  0  0
  8  9  1  0  0  0
  9 10  2  0  0  0
 10 11  1  0  0  0
 10 12  1  0  0  0
 12 13  2  0  0  0
 13 14  1  0  0  0
 14 15  1  0  0  0
 14  5  1  0  0  0
 13  7  1  0  0  0
 34 29  1  0  0  0
 26 21  1  0  0  0
 37 32  1  0  0  0
  2  3  1  0  0  0
 27 28  1  0  0  0
 36 38  1  0  0  0
 18 19  1  0  0  0
M  END
> <minimizedAffinity>
-7.16423

> <minimizedRMSD>
0.41068

$$$$
P17619


 37 41  0  0  0  0  0  0  0  0999 V2000
   -6.8711    4.2376  -13.8801 C   0  0  0  0  0  0  0  0  0  0  0  0
   -6.5796    2.8623  -13.7175 O   0  0  0  0  0  0  0  0  0  0  0  0
   -6.4972    2.6587  -12.7727 H   0  0  0  0  0  0  0  0  0  0  0  0
   -6.9909    4.5042  -15.3984 C   0  0  0  0  0  0  0  0  0  0  0  0
   -8.2511    4.3987  -16.0707 C   0  0  0  0  0  0  0  0  0  0  0  0
   -8.4537    4.4939  -17.4809 C   0  0  0  0  0  0  0  0  0  0  0  0
  -10.0559    4.3575  -18.0799 Cl  0  0  0  0  0  0  0  0  0  0  0  0
   -7.4305    4.7168  -18.4033 C   0  0  0  0  0  0  0  0  0  0  0  0
   -6.1779    4.8646  -17.8085 C   0  0  0  0  0  0  0  0  0  0  0  0
   -4.9993    5.1242  -18.3983 N   0  0  0  0  0  0  0  0  0  0  0  0
   -4.1105    5.1300  -17.3994 N   0  0  0  0  0  0  0  0  0  0  0  0
   -4.6452    4.8427  -16.1773 C   0  0  0  0  0  0  0  0  0  0  0  0
   -5.9963    4.7426  -16.3696 C   0  0  0  0  0  0  0  0  0  0  0  0
   -3.1548    5.3242  -17.5338 H   0  0  0  0  0  0  0  0  0  0  0  0
   -4.8981    4.8438  -12.5307 O   0  0  0  0  0  0  0  0  0  0  0  0
   -5.7787    5.2212  -13.2069 C   0  0  0  0  0  0  0  0  0  0  0  0
   -6.1153    6.6593  -13.7225 N   0  0  0  0  0  0  0  0  0  0  0  0
   -6.8752    6.7065  -14.3466 H   0  0  0  0  0  0  0  0  0  0  0  0
   -5.4968    7.9189  -13.4336 C   0  0  0  0  0  0  0  0  0  0  0  0
   -4.5742    8.3433  -14.5360 C   0  0  0  0  0  0  0  0  0  0  0  0
   -3.2438    7.9150  -14.5768 C   0  0  0  0  0  0  0  0  0  0  0  0
   -2.4238    8.2977  -15.6340 C   0  0  0  0  0  0  0  0  0  0  0  0
   -2.9670    9.0908  -16.6298 C   0  0  0  0  0  0  0  0  0  0  0  0
   -4.2519    9.5058  -16.6415 N   0  0  0  0  0  0  0  0  0  0  0  0
   -5.0228    9.1256  -15.5946 C   0  0  0  0  0  0  0  0  0  0  0  0
   -8.2109    4.4609  -13.2572 N   0  0  0  0  0  0  0  0  0  0  0  0
   -9.0278    4.6051  -13.7875 H   0  0  0  0  0  0  0  0  0  0  0  0
   -8.2083    4.4478  -11.8272 C   0  0  0  0  0  0  0  0  0  0  0  0
   -8.0035    5.6441  -11.1132 C   0  0  0  0  0  0  0  0  0  0  0  0
   -8.0044    5.6654   -9.7111 C   0  0  0  0  0  0  0  0  0  0  0  0
   -8.2354    4.4810   -9.0332 C   0  0  0  0  0  0  0  0  0  0  0  0
   -8.4472    3.3005   -9.7264 C   0  0  0  0  0  0  0  0  0  0  0  0
   -8.4087    3.2590  -11.1113 C   0  0  0  0  0  0  0  0  0  0  0  0
   -8.7067    2.1908   -8.7662 C   0  0  0  0  0  0  0  0  0  0  0  0
   -8.7253    2.8020   -7.4141 N   0  0  0  0  0  0  0  0  0  0  0  0
   -8.3107    4.2085   -7.5675 C   0  0  0  0  0  0  0  0  0  0  0  0
   -8.0760    2.3111   -6.7994 H   0  0  0  0  0  0  0  0  0  0  0  0
 15 16  2  0  0  0
 16 17  1  0  0  0
 17 19  1  0  0  0
 19 20  1  0  0  0
 20 21  2  0  0  0
 21 22  1  0  0  0
 22 23  2  0  0  0
 23 24  1  0  0  0
 24 25  2  0  0  0
 16  1  1  0  0  0
  1  2  1  0  0  0
  1 26  1  0  0  0
 26 28  1  0  0  0
 28 29  2  0  0  0
 29 30  1  0  0  0
 30 31  2  0  0  0
 31 32  1  0  0  0
 32 33  2  0  0  0
 32 34  1  0  0  0
 34 35  1  0  0  0
 35 36  1  0  0  0
  1  4  1  0  0  0
  4  5  2  0  0  0
  5  6  1  0  0  0
  6  7  1  0  0  0
  6  8  2  0  0  0
  8  9  1  0  0  0
  9 10  2  0  0  0
 10 11  1  0  0  0
 11 12  1  0  0  0
 12 13  2  0  0  0
 25 20  1  0  0  0
 33 28  1  0  0  0
 13  4  1  0  0  0
 36 31  1  0  0  0
 13  9  1  0  0  0
 17 18  1  0  0  0
  2  3  1  0  0  0
 26 27  1  0  0  0
 35 37  1  0  0  0
 11 14  1  0  0  0
M  END
> <minimizedAffinity>
-7.09224

> <minimizedRMSD>
0.86437

$$$$
P17622


 38 42  0  0  0  0  0  0  0  0999 V2000
   -7.0571    5.3262  -13.8103 C   0  0  0  0  0  0  0  0  0  0  0  0
   -7.4177    6.6994  -13.7296 O   0  0  0  0  0  0  0  0  0  0  0  0
   -7.4273    6.9771  -12.8003 H   0  0  0  0  0  0  0  0  0  0  0  0
   -7.0818    5.0286  -15.3125 C   0  0  0  0  0  0  0  0  0  0  0  0
   -8.2749    4.5844  -15.9891 C   0  0  0  0  0  0  0  0  0  0  0  0
   -8.4350    4.3801  -17.4133 C   0  0  0  0  0  0  0  0  0  0  0  0
   -9.9924    3.9572  -18.0275 Cl  0  0  0  0  0  0  0  0  0  0  0  0
   -7.4314    4.5984  -18.3634 C   0  0  0  0  0  0  0  0  0  0  0  0
   -6.2720    5.0379  -17.7533 C   0  0  0  0  0  0  0  0  0  0  0  0
   -6.0884    5.2546  -16.2885 C   0  0  0  0  0  0  0  0  0  0  0  0
   -4.8061    5.7372  -16.0411 C   0  0  0  0  0  0  0  0  0  0  0  0
   -4.1953    5.7731  -17.2709 N   0  0  0  0  0  0  0  0  0  0  0  0
   -5.0937    5.3590  -18.3215 N   0  0  0  0  0  0  0  0  0  0  0  0
   -4.6899    5.4105  -19.5083 O   0  0  0  0  0  0  0  0  0  0  0  0
   -3.2612    6.0471  -17.4173 H   0  0  0  0  0  0  0  0  0  0  0  0
   -5.1882    3.9546  -12.9499 O   0  0  0  0  0  0  0  0  0  0  0  0
   -5.6263    5.0251  -13.1220 C   0  0  0  0  0  0  0  0  0  0  0  0
   -5.0250    6.4273  -12.7952 N   0  0  0  0  0  0  0  0  0  0  0  0
   -5.5621    7.1900  -13.1098 H   0  0  0  0  0  0  0  0  0  0  0  0
   -3.8182    6.7845  -12.1115 C   0  0  0  0  0  0  0  0  0  0  0  0
   -2.6157    6.4642  -12.9452 C   0  0  0  0  0  0  0  0  0  0  0  0
   -2.2057    7.2922  -13.9936 C   0  0  0  0  0  0  0  0  0  0  0  0
   -1.1003    6.9369  -14.7612 C   0  0  0  0  0  0  0  0  0  0  0  0
   -0.4461    5.7533  -14.4627 C   0  0  0  0  0  0  0  0  0  0  0  0
   -0.8211    4.9176  -13.4713 N   0  0  0  0  0  0  0  0  0  0  0  0
   -1.8913    5.2940  -12.7323 C   0  0  0  0  0  0  0  0  0  0  0  0
   -8.1347    4.6147  -13.0930 N   0  0  0  0  0  0  0  0  0  0  0  0
   -8.8339    4.1444  -13.6020 H   0  0  0  0  0  0  0  0  0  0  0  0
   -8.1675    4.6056  -11.6777 C   0  0  0  0  0  0  0  0  0  0  0  0
   -8.1243    5.7769  -10.8891 C   0  0  0  0  0  0  0  0  0  0  0  0
   -8.2136    5.7404   -9.4886 C   0  0  0  0  0  0  0  0  0  0  0  0
   -8.3933    4.5188   -8.8748 C   0  0  0  0  0  0  0  0  0  0  0  0
   -8.4887    3.3590   -9.6296 C   0  0  0  0  0  0  0  0  0  0  0  0
   -8.3864    3.3852  -11.0155 C   0  0  0  0  0  0  0  0  0  0  0  0
   -8.6904    2.2001   -8.7067 C   0  0  0  0  0  0  0  0  0  0  0  0
   -9.0680    2.7994   -7.4007 N   0  0  0  0  0  0  0  0  0  0  0  0
   -8.5131    4.1666   -7.4276 C   0  0  0  0  0  0  0  0  0  0  0  0
   -8.6644    2.2647   -6.6316 H   0  0  0  0  0  0  0  0  0  0  0  0
 16 17  2  0  0  0
 17 18  1  0  0  0
 18 20  1  0  0  0
 20 21  1  0  0  0
 21 22  2  0  0  0
 22 23  1  0  0  0
 23 24  2  0  0  0
 24 25  1  0  0  0
 25 26  2  0  0  0
 17  1  1  0  0  0
  1  2  1  0  0  0
  1 27  1  0  0  0
 27 29  1  0  0  0
 29 30  2  0  0  0
 30 31  1  0  0  0
 31 32  2  0  0  0
 32 33  1  0  0  0
 33 34  2  0  0  0
 33 35  1  0  0  0
 35 36  1  0  0  0
 36 37  1  0  0  0
  1  4  1  0  0  0
  4  5  2  0  0  0
  5  6  1  0  0  0
  6  7  1  0  0  0
  6  8  2  0  0  0
  8  9  1  0  0  0
  9 10  1  0  0  0
 10 11  2  0  0  0
 11 12  1  0  0  0
 12 13  1  0  0  0
 13 14  1  0  0  0
 26 21  1  0  0  0
 34 29  1  0  0  0
 10  4  1  0  0  0
 37 32  1  0  0  0
 13  9  2  0  0  0
 18 19  1  0  0  0
  2  3  1  0  0  0
 27 28  1  0  0  0
 36 38  1  0  0  0
 12 15  1  0  0  0
M  CHG 1  13   1
M  CHG 1  14  -1
M  END
> <minimizedAffinity>
-7.36501

> <minimizedRMSD>
1.02412

$$$$
P17627


 37 41  0  0  0  0  0  0  0  0999 V2000
   -7.2594    5.3872  -13.6771 C   0  0  0  0  0  0  0  0  0  0  0  0
   -7.2447    5.0467  -15.1843 C   0  0  0  0  0  0  0  0  0  0  0  0
   -8.4677    4.6394  -15.7767 C   0  0  0  0  0  0  0  0  0  0  0  0
   -8.5820    4.3740  -17.1404 C   0  0  0  0  0  0  0  0  0  0  0  0
  -10.1186    4.0368  -17.8182 Cl  0  0  0  0  0  0  0  0  0  0  0  0
   -7.4936    4.4879  -17.9943 C   0  0  0  0  0  0  0  0  0  0  0  0
   -6.2749    4.8556  -17.4190 C   0  0  0  0  0  0  0  0  0  0  0  0
   -6.1201    5.1111  -16.0543 C   0  0  0  0  0  0  0  0  0  0  0  0
   -4.7327    5.3854  -15.9314 C   0  0  0  0  0  0  0  0  0  0  0  0
   -4.0846    5.3888  -17.0952 N   0  0  0  0  0  0  0  0  0  0  0  0
   -5.0402    5.0633  -17.9809 N   0  0  0  0  0  0  0  0  0  0  0  0
   -4.7044    5.0219  -19.3792 C   0  0  0  0  0  0  0  0  0  0  0  0
   -5.8738    5.9422  -13.1595 C   0  0  0  0  0  0  0  0  0  0  0  0
   -5.0067    5.2500  -12.7856 O   0  0  0  0  0  0  0  0  0  0  0  0
   -5.9394    7.4974  -13.2954 N   0  0  0  0  0  0  0  0  0  0  0  0
   -6.8175    7.8512  -13.5655 H   0  0  0  0  0  0  0  0  0  0  0  0
   -4.9191    8.5016  -13.0887 C   0  0  0  0  0  0  0  0  0  0  0  0
   -4.3825    8.7153  -11.6589 C   0  0  0  0  0  0  0  0  0  0  0  0
   -3.9203   10.0219  -11.6413 F   0  0  0  0  0  0  0  0  0  0  0  0
   -5.4756    8.6547  -10.5832 C   0  0  0  0  0  0  0  0  0  0  0  0
   -4.8682    8.3048   -9.2290 C   0  0  0  0  0  0  0  0  0  0  0  0
   -4.2001    6.9274   -9.2782 C   0  0  0  0  0  0  0  0  0  0  0  0
   -3.4125    6.6590  -10.4818 N   0  0  0  0  0  0  0  0  0  0  0  0
   -3.1546    7.8472  -11.2945 C   0  0  0  0  0  0  0  0  0  0  0  0
   -3.9184    5.9821  -11.0530 H   0  0  0  0  0  0  0  0  0  0  0  0
   -7.0627    2.9604  -13.1236 C   0  0  0  0  0  0  0  0  0  0  0  0
   -7.7431    4.2448  -12.8644 N   0  0  0  0  0  0  0  0  0  0  0  0
   -8.0537    4.4157  -11.4951 C   0  0  0  0  0  0  0  0  0  0  0  0
   -7.8945    5.6326  -10.7974 C   0  0  0  0  0  0  0  0  0  0  0  0
   -8.0217    5.7207   -9.3976 C   0  0  0  0  0  0  0  0  0  0  0  0
   -8.3666    4.5860   -8.6914 C   0  0  0  0  0  0  0  0  0  0  0  0
   -8.6377    3.4075   -9.3609 C   0  0  0  0  0  0  0  0  0  0  0  0
   -8.5090    3.3191  -10.7388 C   0  0  0  0  0  0  0  0  0  0  0  0
   -8.9776    2.3418   -8.3730 C   0  0  0  0  0  0  0  0  0  0  0  0
   -9.2123    3.0543   -7.0896 N   0  0  0  0  0  0  0  0  0  0  0  0
   -8.4871    4.3388   -7.2232 C   0  0  0  0  0  0  0  0  0  0  0  0
   -8.8427    2.5141   -6.3073 H   0  0  0  0  0  0  0  0  0  0  0  0
 26 27  1  0  0  0
 27 28  1  0  0  0
 28 29  2  0  0  0
 29 30  1  0  0  0
 30 31  2  0  0  0
 31 32  1  0  0  0
 32 33  2  0  0  0
 32 34  1  0  0  0
 34 35  1  0  0  0
 35 36  1  0  0  0
  1 27  1  0  0  0
  1 13  1  0  0  0
 13 14  2  0  0  0
 13 15  1  0  0  0
 15 17  1  0  0  0
 17 18  1  0  0  0
 18 19  1  0  0  0
 18 20  1  0  0  0
 20 21  1  0  0  0
 21 22  1  0  0  0
 22 23  1  0  0  0
 23 24  1  0  0  0
  1  2  1  0  0  0
  2  3  2  0  0  0
  3  4  1  0  0  0
  4  5  1  0  0  0
  4  6  2  0  0  0
  6  7  1  0  0  0
  7  8  2  0  0  0
  8  9  1  0  0  0
  9 10  2  0  0  0
 10 11  1  0  0  0
 11 12  1  0  0  0
 33 28  1  0  0  0
 24 18  1  0  0  0
  8  2  1  0  0  0
 36 31  1  0  0  0
 11  7  1  0  0  0
 35 37  1  0  0  0
 15 16  1  0  0  0
 23 25  1  0  0  0
M  END
> <minimizedAffinity>
-6.72637

> <minimizedRMSD>
0.33142

$$$$
P17630


 39 43  0  0  0  0  0  0  0  0999 V2000
   -6.9625    3.9474  -13.1639 C   0  0  0  0  0  0  0  0  0  0  0  0
   -4.7150    5.2673  -17.2026 N   0  0  0  0  0  0  0  0  0  0  0  0
   -3.7859    5.2889  -16.2411 N   0  0  0  0  0  0  0  0  0  0  0  0
   -4.4641    4.8810  -15.1665 C   0  0  0  0  0  0  0  0  0  0  0  0
   -5.8406    4.6348  -15.4251 C   0  0  0  0  0  0  0  0  0  0  0  0
   -6.9744    4.2187  -14.6722 C   0  0  0  0  0  0  0  0  0  0  0  0
   -8.1978    4.1893  -15.3736 C   0  0  0  0  0  0  0  0  0  0  0  0
   -8.2908    4.4975  -16.7257 C   0  0  0  0  0  0  0  0  0  0  0  0
   -9.8379    4.5865  -17.4355 Cl  0  0  0  0  0  0  0  0  0  0  0  0
   -7.1758    4.8317  -17.4767 C   0  0  0  0  0  0  0  0  0  0  0  0
   -5.9678    4.9125  -16.7863 C   0  0  0  0  0  0  0  0  0  0  0  0
   -4.1685    7.0550  -18.4938 C   0  0  0  0  0  0  0  0  0  0  0  0
   -4.3536    5.6454  -18.4887 O   0  0  0  0  0  0  0  0  0  0  0  0
   -6.4593    2.4924  -12.8425 C   0  0  0  0  0  0  0  0  0  0  0  0
   -6.8337    1.5341  -13.3950 O   0  0  0  0  0  0  0  0  0  0  0  0
   -5.3515    2.6660  -11.7695 N   0  0  0  0  0  0  0  0  0  0  0  0
   -5.1703    3.5985  -11.5111 H   0  0  0  0  0  0  0  0  0  0  0  0
   -4.5567    1.6982  -11.0997 C   0  0  0  0  0  0  0  0  0  0  0  0
   -3.1440    1.8054  -11.6196 C   0  0  0  0  0  0  0  0  0  0  0  0
   -2.5984    3.0176  -12.0767 C   0  0  0  0  0  0  0  0  0  0  0  0
   -1.3241    3.0492  -12.6264 C   0  0  0  0  0  0  0  0  0  0  0  0
   -0.6100    1.8642  -12.6745 C   0  0  0  0  0  0  0  0  0  0  0  0
   -1.0827    0.6816  -12.2249 N   0  0  0  0  0  0  0  0  0  0  0  0
   -2.3357    0.6780  -11.7126 C   0  0  0  0  0  0  0  0  0  0  0  0
   -4.6856    1.9664   -9.6784 N   0  0  0  0  0  0  0  0  0  0  0  0
   -5.4429    3.0907   -9.4099 F   0  0  0  0  0  0  0  0  0  0  0  0
   -3.7534    2.1007   -9.2866 H   0  0  0  0  0  0  0  0  0  0  0  0
   -8.2695    4.2056  -12.5346 N   0  0  0  0  0  0  0  0  0  0  0  0
   -9.0815    4.3298  -13.0772 H   0  0  0  0  0  0  0  0  0  0  0  0
   -8.3146    4.2682  -11.1301 C   0  0  0  0  0  0  0  0  0  0  0  0
   -8.0617    5.4563  -10.4156 C   0  0  0  0  0  0  0  0  0  0  0  0
   -8.1077    5.4939   -9.0134 C   0  0  0  0  0  0  0  0  0  0  0  0
   -8.4604    4.3410   -8.3374 C   0  0  0  0  0  0  0  0  0  0  0  0
   -8.7555    3.1759   -9.0315 C   0  0  0  0  0  0  0  0  0  0  0  0
   -8.6806    3.1222  -10.4129 C   0  0  0  0  0  0  0  0  0  0  0  0
   -9.1339    2.1058   -8.0608 C   0  0  0  0  0  0  0  0  0  0  0  0
   -9.4033    2.8223   -6.7879 N   0  0  0  0  0  0  0  0  0  0  0  0
   -8.6189    4.0735   -6.8748 C   0  0  0  0  0  0  0  0  0  0  0  0
   -9.0983    2.2633   -5.9911 H   0  0  0  0  0  0  0  0  0  0  0  0
 12 13  1  0  0  0
 13  2  1  0  0  0
  2  3  1  0  0  0
  3  4  2  0  0  0
  4  5  1  0  0  0
  5  6  2  0  0  0
  6  1  1  0  0  0
  1 28  1  0  0  0
 28 30  1  0  0  0
 30 31  2  0  0  0
 31 32  1  0  0  0
 32 33  2  0  0  0
 33 34  1  0  0  0
 34 35  2  0  0  0
 34 36  1  0  0  0
 36 37  1  0  0  0
 37 38  1  0  0  0
  1 14  1  0  0  0
 14 15  2  0  0  0
 14 16  1  0  0  0
 18 16  1  0  0  0
 18 25  1  0  0  0
 25 26  1  0  0  0
 18 19  1  0  0  0
 19 20  2  0  0  0
 20 21  1  0  0  0
 21 22  2  0  0  0
 22 23  1  0  0  0
 23 24  2  0  0  0
  6  7  1  0  0  0
  7  8  2  0  0  0
  8  9  1  0  0  0
  8 10  1  0  0  0
 10 11  2  0  0  0
 11  2  1  0  0  0
 11  5  1  0  0  0
 35 30  1  0  0  0
 24 19  1  0  0  0
 38 33  1  0  0  0
 28 29  1  0  0  0
 37 39  1  0  0  0
 16 17  1  0  0  0
 25 27  1  0  0  0
M  END
> <minimizedAffinity>
-8.26736

> <minimizedRMSD>
2.99209

$$$$
P17632


 45 50  0  0  0  0  0  0  0  0999 V2000
   -7.0961    4.6019  -13.6572 C   0  0  0  0  0  0  0  0  0  0  0  0
   -6.3842    3.4128  -13.4132 O   0  0  0  0  0  0  0  0  0  0  0  0
   -6.9058    2.6549  -13.7204 H   0  0  0  0  0  0  0  0  0  0  0  0
   -5.1123    5.0384  -17.9978 N   0  0  0  0  0  0  0  0  0  0  0  0
   -4.1183    5.0100  -17.0811 N   0  0  0  0  0  0  0  0  0  0  0  0
   -4.7618    4.8799  -15.9223 C   0  0  0  0  0  0  0  0  0  0  0  0
   -6.1660    4.7836  -16.0713 C   0  0  0  0  0  0  0  0  0  0  0  0
   -7.2680    4.6417  -15.1843 C   0  0  0  0  0  0  0  0  0  0  0  0
   -8.5264    4.4552  -15.8085 C   0  0  0  0  0  0  0  0  0  0  0  0
   -8.6781    4.4337  -17.1933 C   0  0  0  0  0  0  0  0  0  0  0  0
  -10.2402    4.2662  -17.8679 Cl  0  0  0  0  0  0  0  0  0  0  0  0
   -7.6048    4.6258  -18.0473 C   0  0  0  0  0  0  0  0  0  0  0  0
   -6.3563    4.8073  -17.4525 C   0  0  0  0  0  0  0  0  0  0  0  0
   -4.8224    5.3007  -19.4126 C   0  0  0  0  0  0  0  0  0  0  0  0
   -5.3882    7.6266  -18.8285 C   0  0  0  0  0  0  0  0  0  0  0  0
   -4.6558    6.7348  -19.7053 N   0  0  0  0  0  0  0  0  0  0  0  0
   -3.3568    7.1484  -20.2542 C   0  0  0  0  0  0  0  0  0  0  0  0
   -2.0859    6.5589  -19.6177 C   0  0  0  0  0  0  0  0  0  0  0  0
   -1.6616    7.3160  -18.3708 C   0  0  0  0  0  0  0  0  0  0  0  0
   -1.4207    8.6864  -18.7035 O   0  0  0  0  0  0  0  0  0  0  0  0
   -2.6103    9.3373  -19.1428 C   0  0  0  0  0  0  0  0  0  0  0  0
   -3.1684    8.6746  -20.3988 C   0  0  0  0  0  0  0  0  0  0  0  0
   -6.2462    5.8733  -13.1537 C   0  0  0  0  0  0  0  0  0  0  0  0
   -5.2509    5.7428  -12.5512 O   0  0  0  0  0  0  0  0  0  0  0  0
   -7.0035    7.1627  -13.5804 N   0  0  0  0  0  0  0  0  0  0  0  0
   -7.7885    7.0090  -14.1542 H   0  0  0  0  0  0  0  0  0  0  0  0
   -6.7431    8.5437  -13.2727 C   0  0  0  0  0  0  0  0  0  0  0  0
   -5.9482    9.2798  -14.3096 C   0  0  0  0  0  0  0  0  0  0  0  0
   -6.2533   10.6110  -14.6209 C   0  0  0  0  0  0  0  0  0  0  0  0
   -5.4898   11.3025  -15.5575 C   0  0  0  0  0  0  0  0  0  0  0  0
   -4.4359   10.6394  -16.1595 C   0  0  0  0  0  0  0  0  0  0  0  0
   -4.1061    9.3607  -15.8885 N   0  0  0  0  0  0  0  0  0  0  0  0
   -4.8475    8.7196  -14.9514 C   0  0  0  0  0  0  0  0  0  0  0  0
   -8.4041    4.4849  -12.9741 N   0  0  0  0  0  0  0  0  0  0  0  0
   -9.2456    4.4398  -13.4830 H   0  0  0  0  0  0  0  0  0  0  0  0
   -8.3957    4.4403  -11.5548 C   0  0  0  0  0  0  0  0  0  0  0  0
   -8.0845    5.5719  -10.7786 C   0  0  0  0  0  0  0  0  0  0  0  0
   -8.0905    5.5314   -9.3786 C   0  0  0  0  0  0  0  0  0  0  0  0
   -8.4285    4.3466   -8.7561 C   0  0  0  0  0  0  0  0  0  0  0  0
   -8.7495    3.2244   -9.5019 C   0  0  0  0  0  0  0  0  0  0  0  0
   -8.7319    3.2483  -10.8905 C   0  0  0  0  0  0  0  0  0  0  0  0
   -9.0667    2.0954   -8.5803 C   0  0  0  0  0  0  0  0  0  0  0  0
   -9.0607    2.6557   -7.2079 N   0  0  0  0  0  0  0  0  0  0  0  0
   -8.5250    4.0246   -7.3020 C   0  0  0  0  0  0  0  0  0  0  0  0
   -8.4683    2.0890   -6.6010 H   0  0  0  0  0  0  0  0  0  0  0  0
 15 16  1  0  0  0
 16 14  1  0  0  0
 14  4  1  0  0  0
  4  5  1  0  0  0
  5  6  2  0  0  0
  6  7  1  0  0  0
  7  8  2  0  0  0
  8  1  1  0  0  0
  1  2  1  0  0  0
  1 34  1  0  0  0
 34 36  1  0  0  0
 36 37  2  0  0  0
 37 38  1  0  0  0
 38 39  2  0  0  0
 39 40  1  0  0  0
 40 41  2  0  0  0
 40 42  1  0  0  0
 42 43  1  0  0  0
 43 44  1  0  0  0
  1 23  1  0  0  0
 23 24  2  0  0  0
 23 25  1  0  0  0
 25 27  1  0  0  0
 27 28  1  0  0  0
 28 29  2  0  0  0
 29 30  1  0  0  0
 30 31  2  0  0  0
 31 32  1  0  0  0
 32 33  2  0  0  0
  8  9  1  0  0  0
  9 10  2  0  0  0
 10 11  1  0  0  0
 10 12  1  0  0  0
 12 13  2  0  0  0
 16 17  1  0  0  0
 17 18  1  0  0  0
 18 19  1  0  0  0
 19 20  1  0  0  0
 20 21  1  0  0  0
 21 22  1  0  0  0
 13  4  1  0  0  0
 22 17  1  0  0  0
 13  7  1  0  0  0
 41 36  1  0  0  0
 33 28  1  0  0  0
 44 39  1  0  0  0
  2  3  1  0  0  0
 34 35  1  0  0  0
 43 45  1  0  0  0
 25 26  1  0  0  0
M  END
> <minimizedAffinity>
-7.20944

> <minimizedRMSD>
0.52416

$$$$
P17697


 33 36  0  0  0  0  0  0  0  0999 V2000
   -5.1848    6.0971  -15.8979 C   0  0  0  0  0  0  0  0  0  0  0  0
   -4.3630    5.8634  -14.6409 C   0  0  0  0  0  0  0  0  0  0  0  0
   -4.4612    5.4728  -17.1305 C   0  0  0  0  0  0  0  0  0  0  0  0
   -3.2697    5.4444  -17.3878 O   0  0  0  0  0  0  0  0  0  0  0  0
   -5.4565    4.9782  -17.9478 N   0  0  0  0  0  0  0  0  0  0  0  0
   -6.6674    4.8991  -17.2689 C   0  0  0  0  0  0  0  0  0  0  0  0
   -7.8391    4.3706  -17.7750 C   0  0  0  0  0  0  0  0  0  0  0  0
   -8.9257    4.3295  -16.9218 C   0  0  0  0  0  0  0  0  0  0  0  0
  -10.4974    3.9940  -17.4943 Cl  0  0  0  0  0  0  0  0  0  0  0  0
   -8.7821    4.6760  -15.5698 C   0  0  0  0  0  0  0  0  0  0  0  0
   -7.5696    5.1919  -15.0733 C   0  0  0  0  0  0  0  0  0  0  0  0
   -6.5248    5.3860  -15.9654 C   0  0  0  0  0  0  0  0  0  0  0  0
   -5.3265    4.7159  -18.8877 H   0  0  0  0  0  0  0  0  0  0  0  0
   -7.5578    5.5928  -13.6412 C   0  0  0  0  0  0  0  0  0  0  0  0
   -7.3146    6.6988  -13.3567 O   0  0  0  0  0  0  0  0  0  0  0  0
   -7.9954    4.3984  -12.7515 N   0  0  0  0  0  0  0  0  0  0  0  0
   -8.2164    3.5759  -13.2452 H   0  0  0  0  0  0  0  0  0  0  0  0
   -8.1264    4.3012  -11.3650 C   0  0  0  0  0  0  0  0  0  0  0  0
   -7.8633    5.3887  -10.5197 C   0  0  0  0  0  0  0  0  0  0  0  0
   -8.0630    5.2848   -9.1368 C   0  0  0  0  0  0  0  0  0  0  0  0
   -8.5368    4.0890   -8.6276 C   0  0  0  0  0  0  0  0  0  0  0  0
   -8.7959    3.0070   -9.4612 C   0  0  0  0  0  0  0  0  0  0  0  0
   -8.5893    3.0909  -10.8290 C   0  0  0  0  0  0  0  0  0  0  0  0
   -9.2863    1.8607   -8.6364 C   0  0  0  0  0  0  0  0  0  0  0  0
   -9.6373    2.4561   -7.3173 N   0  0  0  0  0  0  0  0  0  0  0  0
   -8.8392    3.6980   -7.2200 C   0  0  0  0  0  0  0  0  0  0  0  0
   -9.3944    1.8160   -6.5612 H   0  0  0  0  0  0  0  0  0  0  0  0
   -7.8111    3.8487  -19.0969 C   0  0  0  0  0  0  0  0  0  0  0  0
   -7.4947    3.4095  -20.1246 N   0  0  0  0  0  0  0  0  0  0  0  0
   -5.5297    7.4767  -16.0149 O   0  0  0  0  0  0  0  0  0  0  0  0
   -4.7415    8.4784  -18.1630 C   0  0  0  0  0  0  0  0  0  0  0  0
   -4.7005    8.4592  -16.6396 C   0  0  0  0  0  0  0  0  0  0  0  0
   -3.2876    8.5096  -16.0849 C   0  0  0  0  0  0  0  0  0  0  0  0
 31 32  1  0  0  0
 32 33  1  0  0  0
 32 30  1  0  0  0
 30  1  1  0  0  0
  1  2  1  0  0  0
  1  3  1  0  0  0
  3  4  2  0  0  0
  3  5  1  0  0  0
  5  6  1  0  0  0
  6  7  2  0  0  0
  7 28  1  0  0  0
 28 29  3  0  0  0
  7  8  1  0  0  0
  8  9  1  0  0  0
  8 10  2  0  0  0
 10 11  1  0  0  0
 11 14  1  0  0  0
 14 15  2  0  0  0
 14 16  1  0  0  0
 16 18  1  0  0  0
 18 19  2  0  0  0
 19 20  1  0  0  0
 20 21  2  0  0  0
 21 22  1  0  0  0
 22 23  2  0  0  0
 22 24  1  0  0  0
 24 25  1  0  0  0
 25 26  1  0  0  0
 11 12  2  0  0  0
 12  1  1  0  0  0
 12  6  1  0  0  0
 23 18  1  0  0  0
 26 21  1  0  0  0
  5 13  1  0  0  0
 16 17  1  0  0  0
 25 27  1  0  0  0
M  END
> <minimizedAffinity>
-6.64666

> <minimizedRMSD>
0.58032

$$$$
P17703


 25 28  0  0  0  0  0  0  0  0999 V2000
   -7.6983    5.0862  -14.4257 C   0  0  0  0  0  0  0  0  0  0  0  0
   -7.1576    6.1243  -14.3894 O   0  0  0  0  0  0  0  0  0  0  0  0
   -8.3321    4.2326  -13.2771 N   0  0  0  0  0  0  0  0  0  0  0  0
   -8.8007    3.4205  -13.5771 H   0  0  0  0  0  0  0  0  0  0  0  0
   -4.6908    5.1309  -19.3506 O   0  0  0  0  0  0  0  0  0  0  0  0
   -5.6561    4.9452  -18.6315 C   0  0  0  0  0  0  0  0  0  0  0  0
   -5.6213    4.8654  -17.0967 C   0  0  0  0  0  0  0  0  0  0  0  0
   -7.0590    4.6037  -16.8632 C   0  0  0  0  0  0  0  0  0  0  0  0
   -7.7619    4.5349  -17.9899 C   0  0  0  0  0  0  0  0  0  0  0  0
   -6.9719    4.7629  -19.0520 N   0  0  0  0  0  0  0  0  0  0  0  0
   -9.1487    4.0936  -17.7875 C   0  0  0  0  0  0  0  0  0  0  0  0
  -10.4066    4.7847  -18.7704 Cl  0  0  0  0  0  0  0  0  0  0  0  0
   -9.2735    4.4298  -16.2960 C   0  0  0  0  0  0  0  0  0  0  0  0
   -7.8696    4.2327  -15.6877 C   0  0  0  0  0  0  0  0  0  0  0  0
   -7.2769    4.7963  -19.9874 H   0  0  0  0  0  0  0  0  0  0  0  0
   -8.3406    4.4355  -11.9019 C   0  0  0  0  0  0  0  0  0  0  0  0
   -8.0792    5.6843  -11.3245 C   0  0  0  0  0  0  0  0  0  0  0  0
   -8.0843    5.8346   -9.9316 C   0  0  0  0  0  0  0  0  0  0  0  0
   -8.3433    4.7224   -9.1482 C   0  0  0  0  0  0  0  0  0  0  0  0
   -8.5879    3.4822   -9.7231 C   0  0  0  0  0  0  0  0  0  0  0  0
   -8.6000    3.3243  -11.0953 C   0  0  0  0  0  0  0  0  0  0  0  0
   -8.7721    2.4639   -8.6485 C   0  0  0  0  0  0  0  0  0  0  0  0
   -8.9915    3.2513   -7.4056 N   0  0  0  0  0  0  0  0  0  0  0  0
   -8.3904    4.5801   -7.6643 C   0  0  0  0  0  0  0  0  0  0  0  0
   -8.5329    2.8012   -6.6135 H   0  0  0  0  0  0  0  0  0  0  0  0
  5  6  2  0  0  0
  6  7  1  0  0  0
  7  8  1  0  0  0
  8  9  2  0  0  0
  9 10  1  0  0  0
  9 11  1  0  0  0
 11 12  1  0  0  0
 11 13  1  0  0  0
 13 14  1  0  0  0
 14  1  1  0  0  0
  1  2  2  0  0  0
  1  3  1  0  0  0
  3 16  1  0  0  0
 16 17  2  0  0  0
 17 18  1  0  0  0
 18 19  2  0  0  0
 19 20  1  0  0  0
 20 21  2  0  0  0
 20 22  1  0  0  0
 22 23  1  0  0  0
 23 24  1  0  0  0
 10  6  1  0  0  0
 21 16  1  0  0  0
 14  8  1  0  0  0
 24 19  1  0  0  0
 10 15  1  0  0  0
  3  4  1  0  0  0
 23 25  1  0  0  0
M  END
> <minimizedAffinity>
-7.93305

> <minimizedRMSD>
0.59774

$$$$
P17706


 34 36  0  0  0  0  0  0  0  0999 V2000
   -7.2815    4.9477  -13.2485 C   0  0  0  0  0  0  0  0  0  0  0  0
   -7.6672    6.3070  -13.1515 O   0  0  0  0  0  0  0  0  0  0  0  0
   -8.5650    6.4142  -13.5026 H   0  0  0  0  0  0  0  0  0  0  0  0
   -6.4234    5.0415  -17.0015 C   0  0  0  0  0  0  0  0  0  0  0  0
   -6.3367    5.1543  -15.6048 C   0  0  0  0  0  0  0  0  0  0  0  0
   -7.3791    4.7462  -14.7569 C   0  0  0  0  0  0  0  0  0  0  0  0
   -8.5810    4.3430  -15.3552 C   0  0  0  0  0  0  0  0  0  0  0  0
   -8.6883    4.2308  -16.7393 C   0  0  0  0  0  0  0  0  0  0  0  0
  -10.2343    3.8898  -17.3866 Cl  0  0  0  0  0  0  0  0  0  0  0  0
   -7.5935    4.4888  -17.5602 C   0  0  0  0  0  0  0  0  0  0  0  0
   -3.8942    5.4234  -17.3614 C   0  0  0  0  0  0  0  0  0  0  0  0
   -5.3115    5.5315  -17.9045 C   0  0  0  0  0  0  0  0  0  0  0  0
   -7.5896    4.0540  -18.9276 C   0  0  0  0  0  0  0  0  0  0  0  0
   -7.6852    3.5181  -19.9557 N   0  0  0  0  0  0  0  0  0  0  0  0
   -5.7910    4.7407  -12.6711 C   0  0  0  0  0  0  0  0  0  0  0  0
   -5.1549    5.6638  -12.3289 O   0  0  0  0  0  0  0  0  0  0  0  0
   -5.4478    3.2250  -12.6694 N   0  0  0  0  0  0  0  0  0  0  0  0
   -6.1294    2.6475  -13.0833 H   0  0  0  0  0  0  0  0  0  0  0  0
   -4.2883    2.5239  -12.1580 C   0  0  0  0  0  0  0  0  0  0  0  0
   -3.0349    2.6888  -13.0118 C   0  0  0  0  0  0  0  0  0  0  0  0
   -2.7175    1.5067  -13.6008 F   0  0  0  0  0  0  0  0  0  0  0  0
   -3.2743    3.5639  -14.0265 F   0  0  0  0  0  0  0  0  0  0  0  0
   -8.2530    4.1153  -12.5398 N   0  0  0  0  0  0  0  0  0  0  0  0
   -8.8660    3.5481  -13.0611 H   0  0  0  0  0  0  0  0  0  0  0  0
   -8.3374    4.1006  -11.1442 C   0  0  0  0  0  0  0  0  0  0  0  0
   -8.1311    5.2419  -10.3437 C   0  0  0  0  0  0  0  0  0  0  0  0
   -8.2525    5.2017   -8.9488 C   0  0  0  0  0  0  0  0  0  0  0  0
   -8.6118    4.0086   -8.3576 C   0  0  0  0  0  0  0  0  0  0  0  0
   -8.8476    2.8825   -9.1272 C   0  0  0  0  0  0  0  0  0  0  0  0
   -8.7173    2.9098  -10.5074 C   0  0  0  0  0  0  0  0  0  0  0  0
   -9.2399    1.7477   -8.2470 C   0  0  0  0  0  0  0  0  0  0  0  0
   -9.3540    2.3051   -6.8716 N   0  0  0  0  0  0  0  0  0  0  0  0
   -8.8346    3.6884   -6.9214 C   0  0  0  0  0  0  0  0  0  0  0  0
   -8.8018    1.7468   -6.2205 H   0  0  0  0  0  0  0  0  0  0  0  0
 11 12  1  0  0  0
 12  4  1  0  0  0
  4  5  2  0  0  0
  5  6  1  0  0  0
  6  1  1  0  0  0
  1  2  1  0  0  0
  1 23  1  0  0  0
 23 25  1  0  0  0
 25 26  2  0  0  0
 26 27  1  0  0  0
 27 28  2  0  0  0
 28 29  1  0  0  0
 29 30  2  0  0  0
 29 31  1  0  0  0
 31 32  1  0  0  0
 32 33  1  0  0  0
  1 15  1  0  0  0
 15 16  2  0  0  0
 15 17  1  0  0  0
 17 19  1  0  0  0
 19 20  1  0  0  0
 20 21  1  0  0  0
 20 22  1  0  0  0
  6  7  2  0  0  0
  7  8  1  0  0  0
  8  9  1  0  0  0
  8 10  2  0  0  0
 10 13  1  0  0  0
 13 14  3  0  0  0
 10  4  1  0  0  0
 30 25  1  0  0  0
 33 28  1  0  0  0
  2  3  1  0  0  0
 23 24  1  0  0  0
 32 34  1  0  0  0
 17 18  1  0  0  0
M  END
> <minimizedAffinity>
-7.61986

> <minimizedRMSD>
0.65053

$$$$
P17708


 31 35  0  0  0  0  0  0  0  0999 V2000
   -7.5961    4.4566  -17.6643 C   0  0  0  0  0  0  0  0  0  0  0  0
   -8.6702    4.2611  -16.7819 C   0  0  0  0  0  0  0  0  0  0  0  0
  -10.2151    3.8029  -17.3574 Cl  0  0  0  0  0  0  0  0  0  0  0  0
   -8.5568    4.4964  -15.4166 C   0  0  0  0  0  0  0  0  0  0  0  0
   -7.3636    4.9996  -14.9023 C   0  0  0  0  0  0  0  0  0  0  0  0
   -6.3046    5.3103  -15.7765 C   0  0  0  0  0  0  0  0  0  0  0  0
   -5.0250    5.8736  -15.6204 C   0  0  0  0  0  0  0  0  0  0  0  0
   -4.3629    5.9624  -16.7678 N   0  0  0  0  0  0  0  0  0  0  0  0
   -5.1931    5.4207  -17.6786 N   0  0  0  0  0  0  0  0  0  0  0  0
   -6.4171    5.0355  -17.1477 C   0  0  0  0  0  0  0  0  0  0  0  0
   -4.6788    5.0706  -19.0060 C   0  0  0  0  0  0  0  0  0  0  0  0
   -3.1464    4.9031  -19.1202 C   0  0  0  0  0  0  0  0  0  0  0  0
   -3.2748    5.4659  -20.5010 N   0  0  0  0  0  0  0  0  0  0  0  0
   -4.4483    6.2358  -19.9848 C   0  0  0  0  0  0  0  0  0  0  0  0
   -3.4963    4.7810  -21.2237 H   0  0  0  0  0  0  0  0  0  0  0  0
   -7.2487    5.3287  -13.4645 C   0  0  0  0  0  0  0  0  0  0  0  0
   -6.5871    6.2400  -13.1570 O   0  0  0  0  0  0  0  0  0  0  0  0
   -8.1047    4.3752  -12.6004 N   0  0  0  0  0  0  0  0  0  0  0  0
   -8.6373    3.7230  -13.1106 H   0  0  0  0  0  0  0  0  0  0  0  0
   -8.2453    4.2883  -11.2177 C   0  0  0  0  0  0  0  0  0  0  0  0
   -8.0133    5.3995  -10.3913 C   0  0  0  0  0  0  0  0  0  0  0  0
   -8.1854    5.3098   -9.0063 C   0  0  0  0  0  0  0  0  0  0  0  0
   -8.6054    4.1039   -8.4785 C   0  0  0  0  0  0  0  0  0  0  0  0
   -8.8322    3.0008   -9.2960 C   0  0  0  0  0  0  0  0  0  0  0  0
   -8.6467    3.0683  -10.6658 C   0  0  0  0  0  0  0  0  0  0  0  0
   -9.2679    1.8500   -8.4507 C   0  0  0  0  0  0  0  0  0  0  0  0
   -9.6479    2.4556   -7.1447 N   0  0  0  0  0  0  0  0  0  0  0  0
   -8.8858    3.7214   -7.0641 C   0  0  0  0  0  0  0  0  0  0  0  0
   -9.3930    1.8357   -6.3759 H   0  0  0  0  0  0  0  0  0  0  0  0
   -7.6845    3.5046  -20.0670 N   0  0  0  0  0  0  0  0  0  0  0  0
   -7.6548    3.9938  -19.0130 C   0  0  0  0  0  0  0  0  0  0  0  0
 30 31  3  0  0  0
 31  1  1  0  0  0
  1  2  2  0  0  0
  2  3  1  0  0  0
  2  4  1  0  0  0
  4  5  2  0  0  0
  5 16  1  0  0  0
 16 17  2  0  0  0
 16 18  1  0  0  0
 18 20  1  0  0  0
 20 21  2  0  0  0
 21 22  1  0  0  0
 22 23  2  0  0  0
 23 24  1  0  0  0
 24 25  2  0  0  0
 24 26  1  0  0  0
 26 27  1  0  0  0
 27 28  1  0  0  0
  5  6  1  0  0  0
  6  7  1  0  0  0
  7  8  2  0  0  0
  8  9  1  0  0  0
  9 11  1  0  0  0
 11 12  1  0  0  0
 12 13  1  0  0  0
 13 14  1  0  0  0
  9 10  1  0  0  0
 10  1  1  0  0  0
 25 20  1  0  0  0
 10  6  2  0  0  0
 28 23  1  0  0  0
 14 11  1  0  0  0
 18 19  1  0  0  0
 27 29  1  0  0  0
 13 15  1  0  0  0
M  END
> <minimizedAffinity>
-7.65487

> <minimizedRMSD>
0.43584

$$$$
P17711


 34 36  0  0  0  0  0  0  0  0999 V2000
   -7.5686    5.2273  -13.6166 C   0  0  0  0  0  0  0  0  0  0  0  0
   -6.2269    5.5308  -13.2736 O   0  0  0  0  0  0  0  0  0  0  0  0
   -5.6630    4.7653  -13.4658 H   0  0  0  0  0  0  0  0  0  0  0  0
   -6.5609    4.9924  -17.3468 C   0  0  0  0  0  0  0  0  0  0  0  0
   -6.5337    5.2473  -15.9657 C   0  0  0  0  0  0  0  0  0  0  0  0
   -7.6092    4.9189  -15.1171 C   0  0  0  0  0  0  0  0  0  0  0  0
   -8.7628    4.3892  -15.7053 C   0  0  0  0  0  0  0  0  0  0  0  0
   -8.8195    4.1569  -17.0769 C   0  0  0  0  0  0  0  0  0  0  0  0
  -10.3253    3.6728  -17.7282 Cl  0  0  0  0  0  0  0  0  0  0  0  0
   -7.7107    4.3927  -17.8887 C   0  0  0  0  0  0  0  0  0  0  0  0
   -4.0471    5.5073  -17.6071 C   0  0  0  0  0  0  0  0  0  0  0  0
   -5.4119    5.3645  -18.2599 C   0  0  0  0  0  0  0  0  0  0  0  0
   -7.6772    3.8790  -19.2230 C   0  0  0  0  0  0  0  0  0  0  0  0
   -7.5588    3.2961  -20.2199 N   0  0  0  0  0  0  0  0  0  0  0  0
   -8.6102    6.4283  -13.3420 C   0  0  0  0  0  0  0  0  0  0  0  0
   -9.7589    6.3609  -13.5723 O   0  0  0  0  0  0  0  0  0  0  0  0
   -7.7705    7.5861  -12.7085 N   0  0  0  0  0  0  0  0  0  0  0  0
   -6.8239    7.3687  -12.5475 H   0  0  0  0  0  0  0  0  0  0  0  0
   -8.1580    8.9198  -12.3221 C   0  0  0  0  0  0  0  0  0  0  0  0
   -9.1831    8.9135  -11.1954 C   0  0  0  0  0  0  0  0  0  0  0  0
  -10.4537    9.6317  -11.6036 C   0  0  0  0  0  0  0  0  0  0  0  0
  -11.1357    8.8606  -12.4932 F   0  0  0  0  0  0  0  0  0  0  0  0
   -7.8907    4.0467  -12.8236 N   0  0  0  0  0  0  0  0  0  0  0  0
   -7.9471    3.1779  -13.2831 H   0  0  0  0  0  0  0  0  0  0  0  0
   -8.1245    4.0828  -11.4406 C   0  0  0  0  0  0  0  0  0  0  0  0
   -7.7491    5.1475  -10.5919 C   0  0  0  0  0  0  0  0  0  0  0  0
   -7.9726    5.1270   -9.2100 C   0  0  0  0  0  0  0  0  0  0  0  0
   -8.5367    3.9983   -8.6667 C   0  0  0  0  0  0  0  0  0  0  0  0
   -8.8426    2.9068   -9.4677 C   0  0  0  0  0  0  0  0  0  0  0  0
   -8.6383    2.9278  -10.8380 C   0  0  0  0  0  0  0  0  0  0  0  0
   -9.3351    1.8012   -8.5982 C   0  0  0  0  0  0  0  0  0  0  0  0
   -9.7230    2.4639   -7.3232 N   0  0  0  0  0  0  0  0  0  0  0  0
   -8.8780    3.6762   -7.2517 C   0  0  0  0  0  0  0  0  0  0  0  0
   -9.5385    1.8505   -6.5294 H   0  0  0  0  0  0  0  0  0  0  0  0
 11 12  1  0  0  0
 12  4  1  0  0  0
  4  5  2  0  0  0
  5  6  1  0  0  0
  6  1  1  0  0  0
  1  2  1  0  0  0
  1 23  1  0  0  0
 23 25  1  0  0  0
 25 26  2  0  0  0
 26 27  1  0  0  0
 27 28  2  0  0  0
 28 29  1  0  0  0
 29 30  2  0  0  0
 29 31  1  0  0  0
 31 32  1  0  0  0
 32 33  1  0  0  0
  1 15  1  0  0  0
 15 16  2  0  0  0
 15 17  1  0  0  0
 17 19  1  0  0  0
 19 20  1  0  0  0
 20 21  1  0  0  0
 21 22  1  0  0  0
  6  7  2  0  0  0
  7  8  1  0  0  0
  8  9  1  0  0  0
  8 10  2  0  0  0
 10 13  1  0  0  0
 13 14  3  0  0  0
 10  4  1  0  0  0
 30 25  1  0  0  0
 33 28  1  0  0  0
  2  3  1  0  0  0
 23 24  1  0  0  0
 32 34  1  0  0  0
 17 18  1  0  0  0
M  END
> <minimizedAffinity>
-6.76394

> <minimizedRMSD>
0.57528

$$$$
P17713


 29 33  0  0  0  0  0  0  0  0999 V2000
   -8.3771    4.7853  -15.2697 C   0  0  0  0  0  0  0  0  0  0  0  0
   -9.0850    4.2701  -16.3666 N   0  0  0  0  0  0  0  0  0  0  0  0
   -8.2154    4.3261  -17.4569 C   0  0  0  0  0  0  0  0  0  0  0  0
   -8.8806    3.7971  -18.9147 Cl  0  0  0  0  0  0  0  0  0  0  0  0
   -7.0090    4.8072  -17.1067 C   0  0  0  0  0  0  0  0  0  0  0  0
   -7.1286    5.0361  -15.7492 C   0  0  0  0  0  0  0  0  0  0  0  0
   -5.8363    5.5215  -15.4202 C   0  0  0  0  0  0  0  0  0  0  0  0
   -4.9917    5.5609  -16.4911 N   0  0  0  0  0  0  0  0  0  0  0  0
   -5.7701    5.1539  -17.5660 N   0  0  0  0  0  0  0  0  0  0  0  0
  -10.0109    3.9356  -16.3669 H   0  0  0  0  0  0  0  0  0  0  0  0
   -5.1716    5.1545  -18.8971 C   0  0  0  0  0  0  0  0  0  0  0  0
   -4.9483    6.5167  -19.5243 C   0  0  0  0  0  0  0  0  0  0  0  0
   -3.5422    6.1769  -19.8045 N   0  0  0  0  0  0  0  0  0  0  0  0
   -3.6288    5.0633  -18.8445 C   0  0  0  0  0  0  0  0  0  0  0  0
   -2.8766    6.9038  -19.5419 H   0  0  0  0  0  0  0  0  0  0  0  0
   -9.5553    6.0454  -13.8174 O   0  0  0  0  0  0  0  0  0  0  0  0
   -8.8770    5.1095  -13.9615 C   0  0  0  0  0  0  0  0  0  0  0  0
   -8.2930    4.1338  -12.9283 N   0  0  0  0  0  0  0  0  0  0  0  0
   -7.8069    3.3688  -13.3127 H   0  0  0  0  0  0  0  0  0  0  0  0
   -8.3392    4.1549  -11.5391 C   0  0  0  0  0  0  0  0  0  0  0  0
   -8.0394    5.3357  -10.8352 C   0  0  0  0  0  0  0  0  0  0  0  0
   -8.0504    5.3621   -9.4396 C   0  0  0  0  0  0  0  0  0  0  0  0
   -8.4115    4.2076   -8.7763 C   0  0  0  0  0  0  0  0  0  0  0  0
   -8.7255    3.0432   -9.4732 C   0  0  0  0  0  0  0  0  0  0  0  0
   -8.6636    2.9846  -10.8542 C   0  0  0  0  0  0  0  0  0  0  0  0
   -9.1050    1.9833   -8.4943 C   0  0  0  0  0  0  0  0  0  0  0  0
   -9.3590    2.7118   -7.2203 N   0  0  0  0  0  0  0  0  0  0  0  0
   -8.5516    3.9476   -7.3149 C   0  0  0  0  0  0  0  0  0  0  0  0
   -9.0624    2.1507   -6.4218 H   0  0  0  0  0  0  0  0  0  0  0  0
 16 17  2  0  0  0
 17 18  1  0  0  0
 18 20  1  0  0  0
 20 21  2  0  0  0
 21 22  1  0  0  0
 22 23  2  0  0  0
 23 24  1  0  0  0
 24 25  2  0  0  0
 24 26  1  0  0  0
 26 27  1  0  0  0
 27 28  1  0  0  0
 17  1  1  0  0  0
  1  2  1  0  0  0
  2  3  1  0  0  0
  3  4  1  0  0  0
  3  5  2  0  0  0
  5  6  1  0  0  0
  6  7  1  0  0  0
  7  8  2  0  0  0
  8  9  1  0  0  0
  9 11  1  0  0  0
 11 12  1  0  0  0
 12 13  1  0  0  0
 13 14  1  0  0  0
 25 20  1  0  0  0
  6  1  2  0  0  0
 14 11  1  0  0  0
 28 23  1  0  0  0
  9  5  1  0  0  0
 18 19  1  0  0  0
 27 29  1  0  0  0
  2 10  1  0  0  0
 13 15  1  0  0  0
M  END
> <minimizedAffinity>
-8.91833

> <minimizedRMSD>
0.87468

$$$$
P17718


 34 38  0  0  0  0  0  0  0  0999 V2000
   -5.3163    5.2419  -17.4115 C   0  0  0  0  0  0  0  0  0  0  0  0
   -4.6300    5.6753  -16.3033 N   0  0  0  0  0  0  0  0  0  0  0  0
   -5.3305    5.6683  -15.1675 N   0  0  0  0  0  0  0  0  0  0  0  0
   -6.5616    5.2648  -15.5090 C   0  0  0  0  0  0  0  0  0  0  0  0
   -7.7310    5.1267  -14.7359 C   0  0  0  0  0  0  0  0  0  0  0  0
   -8.8785    4.7196  -15.4427 C   0  0  0  0  0  0  0  0  0  0  0  0
   -8.8552    4.4332  -16.8346 C   0  0  0  0  0  0  0  0  0  0  0  0
  -10.3787    4.1516  -17.5687 Cl  0  0  0  0  0  0  0  0  0  0  0  0
   -7.6951    4.4713  -17.6306 C   0  0  0  0  0  0  0  0  0  0  0  0
   -6.5742    4.9409  -16.9309 C   0  0  0  0  0  0  0  0  0  0  0  0
   -3.6912    5.9691  -16.3439 H   0  0  0  0  0  0  0  0  0  0  0  0
   -2.3704    8.7877  -18.1464 C   0  0  0  0  0  0  0  0  0  0  0  0
   -3.1569    7.5578  -18.2503 N   0  0  0  0  0  0  0  0  0  0  0  0
   -4.3807    7.7906  -19.0377 C   0  0  0  0  0  0  0  0  0  0  0  0
   -5.0235    6.4986  -19.5671 C   0  0  0  0  0  0  0  0  0  0  0  0
   -4.6412    5.2520  -18.7606 C   0  0  0  0  0  0  0  0  0  0  0  0
   -3.1061    5.1384  -18.6354 C   0  0  0  0  0  0  0  0  0  0  0  0
   -2.3657    6.4688  -18.8241 C   0  0  0  0  0  0  0  0  0  0  0  0
   -7.8114    5.5386  -13.3284 C   0  0  0  0  0  0  0  0  0  0  0  0
   -7.7095    6.6705  -13.0620 O   0  0  0  0  0  0  0  0  0  0  0  0
   -8.1239    4.3211  -12.4274 N   0  0  0  0  0  0  0  0  0  0  0  0
   -8.2323    3.4692  -12.9088 H   0  0  0  0  0  0  0  0  0  0  0  0
   -8.2768    4.2338  -11.0466 C   0  0  0  0  0  0  0  0  0  0  0  0
   -8.0415    5.3398  -10.2163 C   0  0  0  0  0  0  0  0  0  0  0  0
   -8.1899    5.2357   -8.8298 C   0  0  0  0  0  0  0  0  0  0  0  0
   -8.5903    4.0217   -8.3020 C   0  0  0  0  0  0  0  0  0  0  0  0
   -8.8442    2.9334   -9.1246 C   0  0  0  0  0  0  0  0  0  0  0  0
   -8.6806    3.0137  -10.4980 C   0  0  0  0  0  0  0  0  0  0  0  0
   -9.2798    1.7726   -8.3002 C   0  0  0  0  0  0  0  0  0  0  0  0
   -9.3537    2.2579   -6.8945 N   0  0  0  0  0  0  0  0  0  0  0  0
   -8.8143    3.6350   -6.8819 C   0  0  0  0  0  0  0  0  0  0  0  0
   -8.7957    1.6578   -6.2872 H   0  0  0  0  0  0  0  0  0  0  0  0
   -7.6154    3.9419  -18.9467 C   0  0  0  0  0  0  0  0  0  0  0  0
   -7.6659    3.4252  -19.9882 N   0  0  0  0  0  0  0  0  0  0  0  0
 12 13  1  0  0  0
 13 14  1  0  0  0
 14 15  1  0  0  0
 15 16  1  0  0  0
 16  1  1  0  0  0
  1  2  1  0  0  0
  2  3  1  0  0  0
  3  4  2  0  0  0
  4  5  1  0  0  0
  5 19  1  0  0  0
 19 20  2  0  0  0
 19 21  1  0  0  0
 21 23  1  0  0  0
 23 24  2  0  0  0
 24 25  1  0  0  0
 25 26  2  0  0  0
 26 27  1  0  0  0
 27 28  2  0  0  0
 27 29  1  0  0  0
 29 30  1  0  0  0
 30 31  1  0  0  0
  5  6  2  0  0  0
  6  7  1  0  0  0
  7  8  1  0  0  0
  7  9  2  0  0  0
  9 33  1  0  0  0
 33 34  3  0  0  0
  9 10  1  0  0  0
 16 17  1  0  0  0
 17 18  1  0  0  0
 18 13  1  0  0  0
 10  1  2  0  0  0
 10  4  1  0  0  0
 28 23  1  0  0  0
 31 26  1  0  0  0
  2 11  1  0  0  0
 21 22  1  0  0  0
 30 32  1  0  0  0
M  END
> <minimizedAffinity>
-8.02262

> <minimizedRMSD>
0.54373

$$$$
P17719


 35 37  0  0  0  0  0  0  0  0999 V2000
   -7.5839    5.2261  -13.5706 C   0  0  0  0  0  0  0  0  0  0  0  0
   -6.2445    5.5080  -13.2041 O   0  0  0  0  0  0  0  0  0  0  0  0
   -6.2024    5.6978  -12.2538 H   0  0  0  0  0  0  0  0  0  0  0  0
   -7.5897    4.9348  -15.0774 C   0  0  0  0  0  0  0  0  0  0  0  0
   -8.7048    4.3531  -15.6888 C   0  0  0  0  0  0  0  0  0  0  0  0
   -8.7392    4.1390  -17.0679 C   0  0  0  0  0  0  0  0  0  0  0  0
  -10.2277    3.6394  -17.7352 Cl  0  0  0  0  0  0  0  0  0  0  0  0
   -7.6427    4.4359  -17.8737 C   0  0  0  0  0  0  0  0  0  0  0  0
   -6.5587    5.1181  -17.3097 C   0  0  0  0  0  0  0  0  0  0  0  0
   -6.5382    5.3441  -15.9179 C   0  0  0  0  0  0  0  0  0  0  0  0
   -5.4482    5.6520  -18.1734 C   0  0  0  0  0  0  0  0  0  0  0  0
   -4.4826    6.2772  -17.4412 F   0  0  0  0  0  0  0  0  0  0  0  0
   -5.8788    6.5828  -19.0659 F   0  0  0  0  0  0  0  0  0  0  0  0
   -4.7839    4.7174  -18.8961 F   0  0  0  0  0  0  0  0  0  0  0  0
   -7.5547    3.9427  -19.2178 C   0  0  0  0  0  0  0  0  0  0  0  0
   -7.4408    3.3760  -20.2260 N   0  0  0  0  0  0  0  0  0  0  0  0
   -7.7689    7.6030  -12.7133 N   0  0  0  0  0  0  0  0  0  0  0  0
   -8.6190    6.4351  -13.3085 C   0  0  0  0  0  0  0  0  0  0  0  0
   -9.7631    6.3804  -13.5610 O   0  0  0  0  0  0  0  0  0  0  0  0
   -6.8016    7.4261  -12.6650 H   0  0  0  0  0  0  0  0  0  0  0  0
   -6.9547    9.7345  -11.8483 C   0  0  0  0  0  0  0  0  0  0  0  0
   -8.1723    8.9010  -12.2220 C   0  0  0  0  0  0  0  0  0  0  0  0
   -9.1244    8.7469  -11.0412 C   0  0  0  0  0  0  0  0  0  0  0  0
   -7.9394    4.0441  -12.7950 N   0  0  0  0  0  0  0  0  0  0  0  0
   -8.0286    3.1835  -13.2647 H   0  0  0  0  0  0  0  0  0  0  0  0
   -8.1607    4.0766  -11.4070 C   0  0  0  0  0  0  0  0  0  0  0  0
   -7.7880    5.1431  -10.5597 C   0  0  0  0  0  0  0  0  0  0  0  0
   -8.0081    5.1208   -9.1768 C   0  0  0  0  0  0  0  0  0  0  0  0
   -8.5603    3.9868   -8.6307 C   0  0  0  0  0  0  0  0  0  0  0  0
   -8.8586    2.8926   -9.4304 C   0  0  0  0  0  0  0  0  0  0  0  0
   -8.6622    2.9174  -10.8021 C   0  0  0  0  0  0  0  0  0  0  0  0
   -9.3343    1.7805   -8.5594 C   0  0  0  0  0  0  0  0  0  0  0  0
   -9.7176    2.4354   -7.2792 N   0  0  0  0  0  0  0  0  0  0  0  0
   -8.8917    3.6614   -7.2140 C   0  0  0  0  0  0  0  0  0  0  0  0
   -9.5144    1.8238   -6.4886 H   0  0  0  0  0  0  0  0  0  0  0  0
 21 22  1  0  0  0
 22 23  1  0  0  0
 22 17  1  0  0  0
 17 18  1  0  0  0
 18 19  2  0  0  0
 18  1  1  0  0  0
  1  2  1  0  0  0
  1 24  1  0  0  0
 24 26  1  0  0  0
 26 27  2  0  0  0
 27 28  1  0  0  0
 28 29  2  0  0  0
 29 30  1  0  0  0
 30 31  2  0  0  0
 30 32  1  0  0  0
 32 33  1  0  0  0
 33 34  1  0  0  0
  1  4  1  0  0  0
  4  5  2  0  0  0
  5  6  1  0  0  0
  6  7  1  0  0  0
  6  8  2  0  0  0
  8 15  1  0  0  0
 15 16  3  0  0  0
  8  9  1  0  0  0
  9 11  1  0  0  0
 11 12  1  0  0  0
 11 13  1  0  0  0
 11 14  1  0  0  0
  9 10  2  0  0  0
 31 26  1  0  0  0
 10  4  1  0  0  0
 34 29  1  0  0  0
 17 20  1  0  0  0
  2  3  1  0  0  0
 24 25  1  0  0  0
 33 35  1  0  0  0
M  END
> <minimizedAffinity>
-7.25663

> <minimizedRMSD>
0.29939

$$$$
P17721


 37 42  0  0  0  0  0  0  0  0999 V2000
   -7.3368    5.3628  -13.2020 C   0  0  0  0  0  0  0  0  0  0  0  0
   -6.6887    6.2998  -12.9423 O   0  0  0  0  0  0  0  0  0  0  0  0
   -8.1981    4.4529  -12.2893 N   0  0  0  0  0  0  0  0  0  0  0  0
   -8.7164    3.7641  -12.7649 H   0  0  0  0  0  0  0  0  0  0  0  0
   -8.3586    4.4513  -10.9004 C   0  0  0  0  0  0  0  0  0  0  0  0
   -8.1390    5.6154  -10.1515 C   0  0  0  0  0  0  0  0  0  0  0  0
   -8.2499    5.5933   -8.7596 C   0  0  0  0  0  0  0  0  0  0  0  0
   -7.9786    6.7032   -8.0610 F   0  0  0  0  0  0  0  0  0  0  0  0
   -8.5691    4.4190   -8.1106 C   0  0  0  0  0  0  0  0  0  0  0  0
   -8.8310    3.2746   -8.8624 C   0  0  0  0  0  0  0  0  0  0  0  0
   -8.7337    3.2692  -10.2521 C   0  0  0  0  0  0  0  0  0  0  0  0
   -9.1841    2.1546   -7.9445 C   0  0  0  0  0  0  0  0  0  0  0  0
   -8.7465    2.5916   -6.5946 N   0  0  0  0  0  0  0  0  0  0  0  0
   -8.5073    4.0649   -6.6591 C   0  0  0  0  0  0  0  0  0  0  0  0
   -7.1541    4.4954   -6.0479 C   0  0  0  0  0  0  0  0  0  0  0  0
   -7.3564    4.4230   -4.5443 C   0  0  0  0  0  0  0  0  0  0  0  0
   -8.7103    5.0812   -4.3541 C   0  0  0  0  0  0  0  0  0  0  0  0
   -9.4428    4.7135   -5.6283 C   0  0  0  0  0  0  0  0  0  0  0  0
  -10.6512    4.9004   -5.7155 O   0  0  0  0  0  0  0  0  0  0  0  0
   -7.8863    2.1096   -6.3337 H   0  0  0  0  0  0  0  0  0  0  0  0
   -7.6642    4.4858  -17.4116 C   0  0  0  0  0  0  0  0  0  0  0  0
   -8.7605    4.3652  -16.5508 C   0  0  0  0  0  0  0  0  0  0  0  0
  -10.3314    4.0911  -17.1745 Cl  0  0  0  0  0  0  0  0  0  0  0  0
   -8.6467    4.5775  -15.1791 C   0  0  0  0  0  0  0  0  0  0  0  0
   -7.4265    4.9790  -14.6337 C   0  0  0  0  0  0  0  0  0  0  0  0
   -6.3278    5.1953  -15.4943 C   0  0  0  0  0  0  0  0  0  0  0  0
   -4.9941    5.6163  -15.3276 C   0  0  0  0  0  0  0  0  0  0  0  0
   -4.3213    5.6615  -16.4738 N   0  0  0  0  0  0  0  0  0  0  0  0
   -5.2227    5.3079  -17.4103 N   0  0  0  0  0  0  0  0  0  0  0  0
   -6.4552    4.9643  -16.8721 C   0  0  0  0  0  0  0  0  0  0  0  0
   -4.9121    5.4252  -18.8528 C   0  0  0  0  0  0  0  0  0  0  0  0
   -4.4417    6.8304  -19.2472 C   0  0  0  0  0  0  0  0  0  0  0  0
   -3.4503    6.2058  -20.1574 N   0  0  0  0  0  0  0  0  0  0  0  0
   -3.4885    5.0037  -19.2739 C   0  0  0  0  0  0  0  0  0  0  0  0
   -2.5476    6.6793  -20.1918 H   0  0  0  0  0  0  0  0  0  0  0  0
   -7.8499    3.5097  -19.7936 N   0  0  0  0  0  0  0  0  0  0  0  0
   -7.6971    4.0080  -18.7550 C   0  0  0  0  0  0  0  0  0  0  0  0
 36 37  3  0  0  0
 37 21  1  0  0  0
 21 22  2  0  0  0
 22 23  1  0  0  0
 22 24  1  0  0  0
 24 25  2  0  0  0
 25  1  1  0  0  0
  1  2  2  0  0  0
  1  3  1  0  0  0
  3  5  1  0  0  0
  5  6  2  0  0  0
  6  7  1  0  0  0
  7  8  1  0  0  0
  7  9  2  0  0  0
  9 10  1  0  0  0
 10 11  2  0  0  0
 10 12  1  0  0  0
 12 13  1  0  0  0
 13 14  1  0  0  0
 14 15  1  0  0  0
 15 16  1  0  0  0
 16 17  1  0  0  0
 17 18  1  0  0  0
 18 19  2  0  0  0
 25 26  1  0  0  0
 26 27  1  0  0  0
 27 28  2  0  0  0
 28 29  1  0  0  0
 29 31  1  0  0  0
 31 32  1  0  0  0
 32 33  1  0  0  0
 33 34  1  0  0  0
 29 30  1  0  0  0
 30 21  1  0  0  0
 11  5  1  0  0  0
 18 14  1  0  0  0
 30 26  2  0  0  0
 14  9  1  0  0  0
 34 31  1  0  0  0
  3  4  1  0  0  0
 13 20  1  0  0  0
 33 35  1  0  0  0
M  END
> <minimizedAffinity>
-8.61844

> <minimizedRMSD>
0.56492

$$$$
P17723


 31 35  0  0  0  0  0  0  0  0999 V2000
   -7.3584    5.0925  -15.0750 C   0  0  0  0  0  0  0  0  0  0  0  0
   -8.5564    4.6001  -15.5911 C   0  0  0  0  0  0  0  0  0  0  0  0
   -8.6497    4.3192  -16.9468 C   0  0  0  0  0  0  0  0  0  0  0  0
  -10.1889    3.8571  -17.5380 Cl  0  0  0  0  0  0  0  0  0  0  0  0
   -7.5539    4.4683  -17.8103 C   0  0  0  0  0  0  0  0  0  0  0  0
   -6.3671    5.0340  -17.2964 C   0  0  0  0  0  0  0  0  0  0  0  0
   -6.2733    5.3503  -15.9332 C   0  0  0  0  0  0  0  0  0  0  0  0
   -4.9831    5.8846  -15.7700 C   0  0  0  0  0  0  0  0  0  0  0  0
   -4.2995    5.9227  -16.9085 N   0  0  0  0  0  0  0  0  0  0  0  0
   -5.1256    5.3749  -17.8215 N   0  0  0  0  0  0  0  0  0  0  0  0
   -4.6588    5.1397  -19.2002 C   0  0  0  0  0  0  0  0  0  0  0  0
   -3.1471    4.8072  -19.3176 C   0  0  0  0  0  0  0  0  0  0  0  0
   -3.1895    5.5287  -20.6278 N   0  0  0  0  0  0  0  0  0  0  0  0
   -4.2670    6.3845  -20.0117 C   0  0  0  0  0  0  0  0  0  0  0  0
   -3.4917    4.9623  -21.4205 H   0  0  0  0  0  0  0  0  0  0  0  0
   -7.7942    4.3026  -12.7565 N   0  0  0  0  0  0  0  0  0  0  0  0
   -7.2661    5.4497  -13.6458 C   0  0  0  0  0  0  0  0  0  0  0  0
   -6.8610    6.5052  -13.3575 O   0  0  0  0  0  0  0  0  0  0  0  0
   -8.0097    3.4724  -13.2397 H   0  0  0  0  0  0  0  0  0  0  0  0
   -9.8473    1.7595   -6.2961 C   0  0  0  0  0  0  0  0  0  0  0  0
   -9.8273    2.6558   -7.4273 N   0  0  0  0  0  0  0  0  0  0  0  0
   -8.8814    3.7759   -7.2638 C   0  0  0  0  0  0  0  0  0  0  0  0
   -8.5069    4.1257   -8.6682 C   0  0  0  0  0  0  0  0  0  0  0  0
   -7.9453    5.2792   -9.1769 C   0  0  0  0  0  0  0  0  0  0  0  0
   -7.7047    5.3395  -10.5525 C   0  0  0  0  0  0  0  0  0  0  0  0
   -8.0149    4.2518  -11.3850 C   0  0  0  0  0  0  0  0  0  0  0  0
   -8.5700    3.0850  -10.8545 C   0  0  0  0  0  0  0  0  0  0  0  0
   -8.8196    3.0477   -9.4970 C   0  0  0  0  0  0  0  0  0  0  0  0
   -9.4276    1.9593   -8.6727 C   0  0  0  0  0  0  0  0  0  0  0  0
   -7.5874    3.9379  -19.1313 C   0  0  0  0  0  0  0  0  0  0  0  0
   -7.6181    3.3633  -20.1426 N   0  0  0  0  0  0  0  0  0  0  0  0
 20 21  1  0  0  0
 21 22  1  0  0  0
 22 23  1  0  0  0
 23 24  2  0  0  0
 24 25  1  0  0  0
 25 26  2  0  0  0
 26 16  1  0  0  0
 16 17  1  0  0  0
 17 18  2  0  0  0
 17  1  1  0  0  0
  1  2  2  0  0  0
  2  3  1  0  0  0
  3  4  1  0  0  0
  3  5  2  0  0  0
  5 30  1  0  0  0
 30 31  3  0  0  0
  5  6  1  0  0  0
  6  7  2  0  0  0
  7  8  1  0  0  0
  8  9  2  0  0  0
  9 10  1  0  0  0
 10 11  1  0  0  0
 11 12  1  0  0  0
 12 13  1  0  0  0
 13 14  1  0  0  0
 26 27  1  0  0  0
 27 28  2  0  0  0
 28 29  1  0  0  0
 29 21  1  0  0  0
 28 23  1  0  0  0
  7  1  1  0  0  0
 14 11  1  0  0  0
 10  6  1  0  0  0
 16 19  1  0  0  0
 13 15  1  0  0  0
M  END
> <minimizedAffinity>
-7.62236

> <minimizedRMSD>
0.30555

$$$$
P17732


 29 32  0  0  0  0  0  0  0  0999 V2000
   -6.9417    4.8448  -13.6388 C   0  0  0  0  0  0  0  0  0  0  0  0
   -5.5317    5.4923  -19.6343 N   0  0  0  0  0  0  0  0  0  0  0  0
   -5.6510    5.4405  -18.2206 N   0  0  0  0  0  0  0  0  0  0  0  0
   -4.7040    5.8493  -17.3346 C   0  0  0  0  0  0  0  0  0  0  0  0
   -5.1044    5.6795  -16.0967 N   0  0  0  0  0  0  0  0  0  0  0  0
   -6.3534    5.1070  -16.1807 C   0  0  0  0  0  0  0  0  0  0  0  0
   -7.2254    4.7040  -15.1439 C   0  0  0  0  0  0  0  0  0  0  0  0
   -8.4789    4.1895  -15.5633 C   0  0  0  0  0  0  0  0  0  0  0  0
   -8.8417    4.0802  -16.9079 C   0  0  0  0  0  0  0  0  0  0  0  0
   -7.9673    4.4617  -17.9196 C   0  0  0  0  0  0  0  0  0  0  0  0
   -6.7304    4.9715  -17.5181 C   0  0  0  0  0  0  0  0  0  0  0  0
   -4.6249    5.8863  -19.8848 H   0  0  0  0  0  0  0  0  0  0  0  0
   -6.2742    6.0777  -20.0169 H   0  0  0  0  0  0  0  0  0  0  0  0
   -5.4560    4.6113  -13.2296 C   0  0  0  0  0  0  0  0  0  0  0  0
   -4.7837    5.7901  -13.1430 F   0  0  0  0  0  0  0  0  0  0  0  0
   -4.7898    3.7918  -14.0681 F   0  0  0  0  0  0  0  0  0  0  0  0
   -5.3402    4.0568  -11.9974 F   0  0  0  0  0  0  0  0  0  0  0  0
   -7.9357    4.0106  -12.9101 N   0  0  0  0  0  0  0  0  0  0  0  0
   -8.4733    3.3628  -13.4206 H   0  0  0  0  0  0  0  0  0  0  0  0
   -8.1375    4.1093  -11.5289 C   0  0  0  0  0  0  0  0  0  0  0  0
   -8.0615    5.3129  -10.7983 C   0  0  0  0  0  0  0  0  0  0  0  0
   -8.2282    5.3503   -9.4065 C   0  0  0  0  0  0  0  0  0  0  0  0
   -8.5854    4.1854   -8.7629 C   0  0  0  0  0  0  0  0  0  0  0  0
   -8.7831    3.0137   -9.4790 C   0  0  0  0  0  0  0  0  0  0  0  0
   -8.5479    2.9554  -10.8437 C   0  0  0  0  0  0  0  0  0  0  0  0
   -9.2552    1.9461   -8.5484 C   0  0  0  0  0  0  0  0  0  0  0  0
   -9.6217    2.6619   -7.2918 N   0  0  0  0  0  0  0  0  0  0  0  0
   -8.8398    3.9166   -7.3198 C   0  0  0  0  0  0  0  0  0  0  0  0
   -9.3725    2.1029   -6.4758 H   0  0  0  0  0  0  0  0  0  0  0  0
  2  3  1  0  0  0
  3  4  1  0  0  0
  4  5  2  0  0  0
  5  6  1  0  0  0
  6  7  2  0  0  0
  7  1  1  0  0  0
  1 18  1  0  0  0
 18 20  1  0  0  0
 20 21  2  0  0  0
 21 22  1  0  0  0
 22 23  2  0  0  0
 23 24  1  0  0  0
 24 25  2  0  0  0
 24 26  1  0  0  0
 26 27  1  0  0  0
 27 28  1  0  0  0
  1 14  1  0  0  0
 14 15  1  0  0  0
 14 16  1  0  0  0
 14 17  1  0  0  0
  7  8  1  0  0  0
  8  9  2  0  0  0
  9 10  1  0  0  0
 10 11  2  0  0  0
 11  3  1  0  0  0
 11  6  1  0  0  0
 25 20  1  0  0  0
 28 23  1  0  0  0
  2 12  1  0  0  0
  2 13  1  0  0  0
 18 19  1  0  0  0
 27 29  1  0  0  0
M  END
> <minimizedAffinity>
-8.04310

> <minimizedRMSD>
0.72545

$$$$
P17736


 25 28  0  0  0  0  0  0  0  0999 V2000
   -8.8277    4.9805  -14.2931 C   0  0  0  0  0  0  0  0  0  0  0  0
   -9.6529    5.7960  -14.1616 O   0  0  0  0  0  0  0  0  0  0  0  0
   -8.0980    4.1154  -13.2414 N   0  0  0  0  0  0  0  0  0  0  0  0
   -7.4900    3.4375  -13.6155 H   0  0  0  0  0  0  0  0  0  0  0  0
   -8.1601    4.1385  -11.8509 C   0  0  0  0  0  0  0  0  0  0  0  0
   -7.8716    5.3098  -11.1300 C   0  0  0  0  0  0  0  0  0  0  0  0
   -7.9625    5.3347   -9.7343 C   0  0  0  0  0  0  0  0  0  0  0  0
   -8.3663    4.1822   -9.0886 C   0  0  0  0  0  0  0  0  0  0  0  0
   -8.6525    3.0217   -9.8016 C   0  0  0  0  0  0  0  0  0  0  0  0
   -8.5362    2.9733  -11.1799 C   0  0  0  0  0  0  0  0  0  0  0  0
   -9.0639    1.9520   -8.8457 C   0  0  0  0  0  0  0  0  0  0  0  0
   -9.3601    2.6670   -7.5727 N   0  0  0  0  0  0  0  0  0  0  0  0
   -8.5682    3.9163   -7.6354 C   0  0  0  0  0  0  0  0  0  0  0  0
   -9.0760    2.1033   -6.7714 H   0  0  0  0  0  0  0  0  0  0  0  0
   -5.5798    5.2118  -17.6704 N   0  0  0  0  0  0  0  0  0  0  0  0
   -5.1614    5.6170  -16.4216 C   0  0  0  0  0  0  0  0  0  0  0  0
   -6.0820    5.4842  -15.4999 N   0  0  0  0  0  0  0  0  0  0  0  0
   -7.1637    4.9435  -16.1469 C   0  0  0  0  0  0  0  0  0  0  0  0
   -8.4356    4.5927  -15.6626 C   0  0  0  0  0  0  0  0  0  0  0  0
   -9.3721    4.0015  -16.5241 C   0  0  0  0  0  0  0  0  0  0  0  0
   -9.0624    3.8017  -17.8678 C   0  0  0  0  0  0  0  0  0  0  0  0
   -7.8181    4.1823  -18.3840 C   0  0  0  0  0  0  0  0  0  0  0  0
   -6.8797    4.7433  -17.4992 C   0  0  0  0  0  0  0  0  0  0  0  0
   -3.5555    4.9804  -19.0404 C   0  0  0  0  0  0  0  0  0  0  0  0
   -4.8524    5.2660  -18.8586 C   0  0  0  0  0  0  0  0  0  0  0  0
 24 25  2  0  0  0
 25 15  1  0  0  0
 15 16  1  0  0  0
 16 17  2  0  0  0
 17 18  1  0  0  0
 18 19  2  0  0  0
 19  1  1  0  0  0
  1  2  2  0  0  0
  1  3  1  0  0  0
  3  5  1  0  0  0
  5  6  2  0  0  0
  6  7  1  0  0  0
  7  8  2  0  0  0
  8  9  1  0  0  0
  9 10  2  0  0  0
  9 11  1  0  0  0
 11 12  1  0  0  0
 12 13  1  0  0  0
 19 20  1  0  0  0
 20 21  2  0  0  0
 21 22  1  0  0  0
 22 23  2  0  0  0
 23 15  1  0  0  0
 23 18  1  0  0  0
 10  5  1  0  0  0
 13  8  1  0  0  0
  3  4  1  0  0  0
 12 14  1  0  0  0
M  END
> <minimizedAffinity>
-8.95837

> <minimizedRMSD>
0.72346

$$$$
P17738


 35 38  0  0  0  0  0  0  0  0999 V2000
   -7.4612    5.2404  -14.8315 C   0  0  0  0  0  0  0  0  0  0  0  0
   -8.5835    4.6995  -15.4640 C   0  0  0  0  0  0  0  0  0  0  0  0
   -8.5056    4.3658  -16.8139 C   0  0  0  0  0  0  0  0  0  0  0  0
   -9.9208    3.8115  -17.6067 Cl  0  0  0  0  0  0  0  0  0  0  0  0
   -7.3401    4.5612  -17.5688 C   0  0  0  0  0  0  0  0  0  0  0  0
   -6.2172    5.0554  -16.8909 C   0  0  0  0  0  0  0  0  0  0  0  0
   -6.2480    5.3634  -15.5294 C   0  0  0  0  0  0  0  0  0  0  0  0
   -5.0048    5.7511  -15.0878 N   0  0  0  0  0  0  0  0  0  0  0  0
   -4.2243    5.6499  -16.1344 C   0  0  0  0  0  0  0  0  0  0  0  0
   -4.9311    5.3715  -17.2691 N   0  0  0  0  0  0  0  0  0  0  0  0
   -7.8304    4.8707  -12.3839 N   0  0  0  0  0  0  0  0  0  0  0  0
   -7.5804    5.8881  -13.5179 C   0  0  0  0  0  0  0  0  0  0  0  0
   -7.4711    7.0501  -13.4819 O   0  0  0  0  0  0  0  0  0  0  0  0
   -7.8069    3.9272  -12.6640 H   0  0  0  0  0  0  0  0  0  0  0  0
   -9.6382    2.1566   -7.9604 C   0  0  0  0  0  0  0  0  0  0  0  0
   -8.6716    3.2710   -7.6901 C   0  0  0  0  0  0  0  0  0  0  0  0
   -8.4737    4.2207   -8.8360 C   0  0  0  0  0  0  0  0  0  0  0  0
   -8.2701    3.9719  -10.1874 C   0  0  0  0  0  0  0  0  0  0  0  0
   -8.0839    5.0704  -11.0295 C   0  0  0  0  0  0  0  0  0  0  0  0
   -8.1241    6.3779  -10.5133 C   0  0  0  0  0  0  0  0  0  0  0  0
   -8.3255    6.6040   -9.1576 C   0  0  0  0  0  0  0  0  0  0  0  0
   -8.3779    7.8883   -8.7104 O   0  0  0  0  0  0  0  0  0  0  0  0
   -8.4722    5.5231   -8.3237 C   0  0  0  0  0  0  0  0  0  0  0  0
   -8.6060    5.4686   -6.8400 C   0  0  0  0  0  0  0  0  0  0  0  0
   -9.1758    4.1423   -6.5949 N   0  0  0  0  0  0  0  0  0  0  0  0
   -8.8893    3.6360   -5.2723 C   0  0  0  0  0  0  0  0  0  0  0  0
   -8.2730    8.5986   -9.3123 H   0  0  0  0  0  0  0  0  0  0  0  0
   -4.3762    5.2596  -18.5843 N   0  0  0  0  0  0  0  0  0  0  0  0
   -5.0030    4.6821  -19.1446 H   0  0  0  0  0  0  0  0  0  0  0  0
   -4.1806    6.5555  -19.2956 C   0  0  0  0  0  0  0  0  0  0  0  0
   -3.6382    6.1585  -20.6882 C   0  0  0  0  0  0  0  0  0  0  0  0
   -3.1122    7.4660  -18.6609 C   0  0  0  0  0  0  0  0  0  0  0  0
   -5.5030    7.3333  -19.5437 C   0  0  0  0  0  0  0  0  0  0  0  0
   -5.8686    8.2861  -18.5522 O   0  0  0  0  0  0  0  0  0  0  0  0
   -6.0327    7.8310  -17.7114 H   0  0  0  0  0  0  0  0  0  0  0  0
 16 15  1  0  0  0
 16 17  1  0  0  0
 17 18  2  0  0  0
 18 19  1  0  0  0
 19 11  1  0  0  0
 11 12  1  0  0  0
 12 13  2  0  0  0
 12  1  1  0  0  0
  1  2  2  0  0  0
  2  3  1  0  0  0
  3  4  1  0  0  0
  3  5  2  0  0  0
  5  6  1  0  0  0
  6  7  2  0  0  0
  7  8  1  0  0  0
  8  9  2  0  0  0
  9 10  1  0  0  0
 10 28  1  0  0  0
 28 30  1  0  0  0
 30 31  1  0  0  0
 30 32  1  0  0  0
 30 33  1  0  0  0
 33 34  1  0  0  0
 19 20  2  0  0  0
 20 21  1  0  0  0
 21 22  1  0  0  0
 21 23  2  0  0  0
 23 24  1  0  0  0
 24 25  1  0  0  0
 25 26  1  0  0  0
 25 16  1  0  0  0
 23 17  1  0  0  0
  7  1  1  0  0  0
 10  6  1  0  0  0
 11 14  1  0  0  0
 28 29  1  0  0  0
 34 35  1  0  0  0
 22 27  1  0  0  0
M  END
> <minimizedAffinity>
-7.76569

> <minimizedRMSD>
0.45004

$$$$
P17739


 25 28  0  0  0  0  0  0  0  0999 V2000
   -6.8137    5.4265  -13.0279 C   0  0  0  0  0  0  0  0  0  0  0  0
   -6.5436    6.5572  -12.6547 O   0  0  0  0  0  0  0  0  0  0  0  0
   -8.4847    3.9287  -18.3532 C   0  0  0  0  0  0  0  0  0  0  0  0
   -7.9835    4.4576  -17.0530 C   0  0  0  0  0  0  0  0  0  0  0  0
   -8.9009    4.4485  -15.9903 C   0  0  0  0  0  0  0  0  0  0  0  0
   -8.5277    4.7850  -14.7018 C   0  0  0  0  0  0  0  0  0  0  0  0
   -7.2095    5.1549  -14.4202 C   0  0  0  0  0  0  0  0  0  0  0  0
   -6.2797    5.2562  -15.4685 C   0  0  0  0  0  0  0  0  0  0  0  0
   -4.9492    5.6145  -15.4518 N   0  0  0  0  0  0  0  0  0  0  0  0
   -4.5555    5.5627  -16.6983 C   0  0  0  0  0  0  0  0  0  0  0  0
   -5.5700    5.1905  -17.5317 N   0  0  0  0  0  0  0  0  0  0  0  0
   -5.4716    5.2232  -18.9656 C   0  0  0  0  0  0  0  0  0  0  0  0
   -6.6876    4.9329  -16.7713 C   0  0  0  0  0  0  0  0  0  0  0  0
   -6.7903    4.2419  -12.0768 C   0  0  0  0  0  0  0  0  0  0  0  0
   -6.2724    3.2068  -12.4814 O   0  0  0  0  0  0  0  0  0  0  0  0
   -7.3672    4.2364  -10.7196 C   0  0  0  0  0  0  0  0  0  0  0  0
   -7.2183    5.2808   -9.7919 C   0  0  0  0  0  0  0  0  0  0  0  0
   -7.7796    5.1766   -8.5126 C   0  0  0  0  0  0  0  0  0  0  0  0
   -8.4992    4.0366   -8.1974 C   0  0  0  0  0  0  0  0  0  0  0  0
   -8.6695    3.0156   -9.1206 C   0  0  0  0  0  0  0  0  0  0  0  0
   -8.1055    3.0914  -10.3737 C   0  0  0  0  0  0  0  0  0  0  0  0
   -9.4763    1.9170   -8.5216 C   0  0  0  0  0  0  0  0  0  0  0  0
  -10.0459    2.4971   -7.2758 N   0  0  0  0  0  0  0  0  0  0  0  0
   -9.1720    3.6399   -6.9276 C   0  0  0  0  0  0  0  0  0  0  0  0
  -10.0407    1.8048   -6.5268 H   0  0  0  0  0  0  0  0  0  0  0  0
  3  4  1  0  0  0
  4  5  2  0  0  0
  5  6  1  0  0  0
  6  7  2  0  0  0
  7  1  1  0  0  0
  1  2  2  0  0  0
  1 14  1  0  0  0
 14 15  2  0  0  0
 14 16  1  0  0  0
 16 17  2  0  0  0
 17 18  1  0  0  0
 18 19  2  0  0  0
 19 20  1  0  0  0
 20 21  2  0  0  0
 20 22  1  0  0  0
 22 23  1  0  0  0
 23 24  1  0  0  0
  7  8  1  0  0  0
  8  9  1  0  0  0
  9 10  2  0  0  0
 10 11  1  0  0  0
 11 12  1  0  0  0
 11 13  1  0  0  0
 13  4  1  0  0  0
 21 16  1  0  0  0
 13  8  2  0  0  0
 24 19  1  0  0  0
 23 25  1  0  0  0
M  END
> <minimizedAffinity>
-7.78887

> <minimizedRMSD>
0.75136

$$$$
P17743


 28 31  0  0  0  0  0  0  0  0999 V2000
   -8.1926    5.2050  -14.2719 C   0  0  0  0  0  0  0  0  0  0  0  0
   -7.2765    6.2647  -14.1912 O   0  0  0  0  0  0  0  0  0  0  0  0
   -9.5143    5.6959  -14.0581 O   0  0  0  0  0  0  0  0  0  0  0  0
   -6.3612    6.1029  -14.3101 H   0  0  0  0  0  0  0  0  0  0  0  0
  -10.2424    5.1065  -14.0809 H   0  0  0  0  0  0  0  0  0  0  0  0
   -8.1820    4.6225  -15.6891 C   0  0  0  0  0  0  0  0  0  0  0  0
   -9.3292    3.9431  -16.1707 C   0  0  0  0  0  0  0  0  0  0  0  0
   -9.5044    3.6027  -17.5126 C   0  0  0  0  0  0  0  0  0  0  0  0
   -8.5255    3.8874  -18.4544 C   0  0  0  0  0  0  0  0  0  0  0  0
   -7.3728    4.5025  -17.9787 C   0  0  0  0  0  0  0  0  0  0  0  0
   -6.2446    4.9244  -18.6312 N   0  0  0  0  0  0  0  0  0  0  0  0
   -5.4112    5.4831  -17.7064 C   0  0  0  0  0  0  0  0  0  0  0  0
   -5.9453    5.4784  -16.5050 N   0  0  0  0  0  0  0  0  0  0  0  0
   -7.1707    4.8543  -16.6486 C   0  0  0  0  0  0  0  0  0  0  0  0
   -6.0668    4.8396  -19.5958 H   0  0  0  0  0  0  0  0  0  0  0  0
   -7.9093    4.2225  -13.2694 N   0  0  0  0  0  0  0  0  0  0  0  0
   -7.5306    3.3709  -13.5864 H   0  0  0  0  0  0  0  0  0  0  0  0
   -7.5004    6.8485  -11.4871 C   0  0  0  0  0  0  0  0  0  0  0  0
   -7.8828    5.4636  -11.0380 C   0  0  0  0  0  0  0  0  0  0  0  0
   -8.0187    5.3409   -9.6286 C   0  0  0  0  0  0  0  0  0  0  0  0
   -8.4222    4.1488   -9.0694 C   0  0  0  0  0  0  0  0  0  0  0  0
   -8.6765    3.0606   -9.8705 C   0  0  0  0  0  0  0  0  0  0  0  0
   -8.4881    3.1268  -11.2438 C   0  0  0  0  0  0  0  0  0  0  0  0
   -8.1116    4.3384  -11.8818 C   0  0  0  0  0  0  0  0  0  0  0  0
   -9.1424    1.9229   -9.0319 C   0  0  0  0  0  0  0  0  0  0  0  0
   -9.2032    2.4259   -7.6290 N   0  0  0  0  0  0  0  0  0  0  0  0
   -8.6573    3.7993   -7.6443 C   0  0  0  0  0  0  0  0  0  0  0  0
   -8.6425    1.8318   -7.0183 H   0  0  0  0  0  0  0  0  0  0  0  0
 18 19  1  0  0  0
 19 20  2  0  0  0
 20 21  1  0  0  0
 21 22  2  0  0  0
 22 23  1  0  0  0
 23 24  2  0  0  0
 24 16  1  0  0  0
 16  1  1  0  0  0
  1  2  1  0  0  0
  1  3  1  0  0  0
  1  6  1  0  0  0
  6  7  2  0  0  0
  7  8  1  0  0  0
  8  9  2  0  0  0
  9 10  1  0  0  0
 10 11  1  0  0  0
 11 12  1  0  0  0
 12 13  2  0  0  0
 13 14  1  0  0  0
 22 25  1  0  0  0
 25 26  1  0  0  0
 26 27  1  0  0  0
 24 19  1  0  0  0
 14  6  1  0  0  0
 27 21  1  0  0  0
 14 10  2  0  0  0
 16 17  1  0  0  0
  2  4  1  0  0  0
  3  5  1  0  0  0
 11 15  1  0  0  0
 26 28  1  0  0  0
M  END
> <minimizedAffinity>
-8.59085

> <minimizedRMSD>
0.34442

$$$$
P17744


 30 33  0  0  0  0  0  0  0  0999 V2000
   -7.7481    4.2731  -12.9948 N   0  0  0  0  0  0  0  0  0  0  0  0
   -7.3082    5.3394  -14.0361 C   0  0  0  0  0  0  0  0  0  0  0  0
   -6.8982    6.4238  -13.8831 O   0  0  0  0  0  0  0  0  0  0  0  0
   -7.9874    3.3978  -13.3769 H   0  0  0  0  0  0  0  0  0  0  0  0
   -9.2589    1.2307   -8.6390 N   0  0  0  0  0  0  0  0  0  0  0  0
   -9.3210    2.6350   -8.4918 C   0  0  0  0  0  0  0  0  0  0  0  0
   -8.6894    2.9524   -7.2119 N   0  0  0  0  0  0  0  0  0  0  0  0
   -8.2175    4.3480   -7.3729 C   0  0  0  0  0  0  0  0  0  0  0  0
   -8.0137    4.5241   -8.8412 C   0  0  0  0  0  0  0  0  0  0  0  0
   -7.3934    5.5473   -9.5256 C   0  0  0  0  0  0  0  0  0  0  0  0
   -7.3246    5.4581  -10.9179 C   0  0  0  0  0  0  0  0  0  0  0  0
   -7.8591    4.3547  -11.6051 C   0  0  0  0  0  0  0  0  0  0  0  0
   -8.5105    3.3372  -10.8962 C   0  0  0  0  0  0  0  0  0  0  0  0
   -8.5974    3.4503   -9.5135 C   0  0  0  0  0  0  0  0  0  0  0  0
   -9.7867    0.7864   -7.8877 H   0  0  0  0  0  0  0  0  0  0  0  0
   -8.2861    0.9271   -8.5967 H   0  0  0  0  0  0  0  0  0  0  0  0
   -7.9062    2.3248   -7.0300 H   0  0  0  0  0  0  0  0  0  0  0  0
   -7.5012    4.8698  -15.4324 C   0  0  0  0  0  0  0  0  0  0  0  0
   -8.7575    4.4028  -15.8517 C   0  0  0  0  0  0  0  0  0  0  0  0
   -8.9875    4.1434  -17.1999 C   0  0  0  0  0  0  0  0  0  0  0  0
  -10.5713    3.8056  -17.7438 Cl  0  0  0  0  0  0  0  0  0  0  0  0
   -7.9980    4.2927  -18.1674 C   0  0  0  0  0  0  0  0  0  0  0  0
   -6.7649    4.7817  -17.7381 C   0  0  0  0  0  0  0  0  0  0  0  0
   -6.4851    5.0664  -16.3976 C   0  0  0  0  0  0  0  0  0  0  0  0
   -5.1877    5.5244  -16.2775 N   0  0  0  0  0  0  0  0  0  0  0  0
   -4.7009    5.5391  -17.4978 C   0  0  0  0  0  0  0  0  0  0  0  0
   -5.6239    5.1281  -18.4134 N   0  0  0  0  0  0  0  0  0  0  0  0
   -5.4474    5.1210  -19.8330 N   0  0  0  0  0  0  0  0  0  0  0  0
   -4.5001    5.4240  -20.0594 H   0  0  0  0  0  0  0  0  0  0  0  0
   -6.1195    5.7569  -20.2624 H   0  0  0  0  0  0  0  0  0  0  0  0
  6  5  1  0  0  0
  6  7  1  0  0  0
  7  8  1  0  0  0
  8  9  1  0  0  0
  9 10  2  0  0  0
 10 11  1  0  0  0
 11 12  2  0  0  0
 12  1  1  0  0  0
  1  2  1  0  0  0
  2  3  2  0  0  0
  2 18  1  0  0  0
 18 19  2  0  0  0
 19 20  1  0  0  0
 20 21  1  0  0  0
 20 22  2  0  0  0
 22 23  1  0  0  0
 23 24  2  0  0  0
 24 25  1  0  0  0
 25 26  2  0  0  0
 26 27  1  0  0  0
 27 28  1  0  0  0
 12 13  1  0  0  0
 13 14  2  0  0  0
 14  6  1  0  0  0
 14  9  1  0  0  0
 24 18  1  0  0  0
 27 23  1  0  0  0
  5 15  1  0  0  0
  5 16  1  0  0  0
  7 17  1  0  0  0
  1  4  1  0  0  0
 28 29  1  0  0  0
 28 30  1  0  0  0
M  END
> <minimizedAffinity>
-9.20747

> <minimizedRMSD>
0.18945

$$$$
P17746


 26 29  0  0  0  0  0  0  0  0999 V2000
   -8.5189    5.1823  -13.5585 C   0  0  0  0  0  0  0  0  0  0  0  0
   -9.4605    5.8729  -13.5130 O   0  0  0  0  0  0  0  0  0  0  0  0
   -7.7786    4.4180  -12.4317 N   0  0  0  0  0  0  0  0  0  0  0  0
   -6.9555    3.9592  -12.7167 H   0  0  0  0  0  0  0  0  0  0  0  0
   -8.1769    4.3864  -17.2455 C   0  0  0  0  0  0  0  0  0  0  0  0
   -8.7161    4.4917  -15.9553 C   0  0  0  0  0  0  0  0  0  0  0  0
   -7.9115    4.9053  -14.8804 C   0  0  0  0  0  0  0  0  0  0  0  0
   -6.5510    5.1811  -15.1124 C   0  0  0  0  0  0  0  0  0  0  0  0
   -5.5323    5.5484  -14.2600 N   0  0  0  0  0  0  0  0  0  0  0  0
   -4.4681    5.6988  -15.0140 C   0  0  0  0  0  0  0  0  0  0  0  0
   -4.7485    5.4639  -16.3253 N   0  0  0  0  0  0  0  0  0  0  0  0
   -3.8341    5.6228  -17.4260 C   0  0  0  0  0  0  0  0  0  0  0  0
   -6.0628    5.0936  -16.4152 C   0  0  0  0  0  0  0  0  0  0  0  0
   -6.8442    4.7134  -17.4977 C   0  0  0  0  0  0  0  0  0  0  0  0
  -10.4761    4.2153  -18.1760 C   0  0  0  0  0  0  0  0  0  0  0  0
   -9.0117    3.9347  -18.4012 C   0  0  0  0  0  0  0  0  0  0  0  0
   -8.0889    4.2744  -11.0792 C   0  0  0  0  0  0  0  0  0  0  0  0
   -7.9732    5.3564  -10.1924 C   0  0  0  0  0  0  0  0  0  0  0  0
   -8.2370    5.1989   -8.8275 C   0  0  0  0  0  0  0  0  0  0  0  0
   -8.6286    3.9529   -8.3742 C   0  0  0  0  0  0  0  0  0  0  0  0
   -8.7830    2.8903   -9.2529 C   0  0  0  0  0  0  0  0  0  0  0  0
   -8.5094    3.0269  -10.6071 C   0  0  0  0  0  0  0  0  0  0  0  0
   -9.2564    1.6915   -8.5051 C   0  0  0  0  0  0  0  0  0  0  0  0
   -9.3103    2.0787   -7.0674 N   0  0  0  0  0  0  0  0  0  0  0  0
   -8.9353    3.5072   -6.9877 C   0  0  0  0  0  0  0  0  0  0  0  0
   -8.6541    1.5140   -6.5281 H   0  0  0  0  0  0  0  0  0  0  0  0
 15 16  1  0  0  0
 16  5  1  0  0  0
  5  6  2  0  0  0
  6  7  1  0  0  0
  7  1  1  0  0  0
  1  2  2  0  0  0
  1  3  1  0  0  0
  3 17  1  0  0  0
 17 18  2  0  0  0
 18 19  1  0  0  0
 19 20  2  0  0  0
 20 21  1  0  0  0
 21 22  2  0  0  0
 21 23  1  0  0  0
 23 24  1  0  0  0
 24 25  1  0  0  0
  7  8  2  0  0  0
  8  9  1  0  0  0
  9 10  2  0  0  0
 10 11  1  0  0  0
 11 12  1  0  0  0
 11 13  1  0  0  0
 13 14  2  0  0  0
 14  5  1  0  0  0
 22 17  1  0  0  0
 13  8  1  0  0  0
 25 20  1  0  0  0
  3  4  1  0  0  0
 24 26  1  0  0  0
M  END
> <minimizedAffinity>
-8.82827

> <minimizedRMSD>
1.16426

$$$$
P17750


 24 27  0  0  0  0  0  0  0  0999 V2000
   -7.8001    5.2250  -13.7848 C   0  0  0  0  0  0  0  0  0  0  0  0
   -7.4184    6.3082  -13.5715 O   0  0  0  0  0  0  0  0  0  0  0  0
   -8.3112    4.1303  -12.8133 N   0  0  0  0  0  0  0  0  0  0  0  0
   -8.6523    3.3172  -13.2511 H   0  0  0  0  0  0  0  0  0  0  0  0
   -4.0198    5.7602  -17.6253 O   0  0  0  0  0  0  0  0  0  0  0  0
   -5.1756    5.4754  -17.3492 C   0  0  0  0  0  0  0  0  0  0  0  0
   -6.0962    5.0734  -18.3012 N   0  0  0  0  0  0  0  0  0  0  0  0
   -7.1211    4.7354  -17.6054 C   0  0  0  0  0  0  0  0  0  0  0  0
   -8.4026    4.1568  -18.0073 C   0  0  0  0  0  0  0  0  0  0  0  0
   -9.2798    3.8743  -17.0343 C   0  0  0  0  0  0  0  0  0  0  0  0
   -9.0382    4.1764  -15.6348 C   0  0  0  0  0  0  0  0  0  0  0  0
   -7.8951    4.7216  -15.1798 C   0  0  0  0  0  0  0  0  0  0  0  0
   -6.8497    5.0046  -16.1690 C   0  0  0  0  0  0  0  0  0  0  0  0
   -5.6575    5.4722  -16.0489 N   0  0  0  0  0  0  0  0  0  0  0  0
   -8.3662    4.1102  -11.4205 C   0  0  0  0  0  0  0  0  0  0  0  0
   -8.0936    5.2634  -10.6680 C   0  0  0  0  0  0  0  0  0  0  0  0
   -8.1592    5.2393   -9.2713 C   0  0  0  0  0  0  0  0  0  0  0  0
   -8.5024    4.0522   -8.6509 C   0  0  0  0  0  0  0  0  0  0  0  0
   -8.7796    2.9119   -9.3916 C   0  0  0  0  0  0  0  0  0  0  0  0
   -8.7119    2.9188  -10.7767 C   0  0  0  0  0  0  0  0  0  0  0  0
   -9.1533    1.7989   -8.4738 C   0  0  0  0  0  0  0  0  0  0  0  0
   -8.9839    2.3189   -7.0892 N   0  0  0  0  0  0  0  0  0  0  0  0
   -8.6667    3.7593   -7.2011 C   0  0  0  0  0  0  0  0  0  0  0  0
   -8.2216    1.8280   -6.6219 H   0  0  0  0  0  0  0  0  0  0  0  0
  5  6  2  0  0  0
  6  7  1  0  0  0
  7  8  2  0  0  0
  8  9  1  0  0  0
  9 10  2  0  0  0
 10 11  1  0  0  0
 11 12  2  0  0  0
 12  1  1  0  0  0
  1  2  2  0  0  0
  1  3  1  0  0  0
  3 15  1  0  0  0
 15 16  2  0  0  0
 16 17  1  0  0  0
 17 18  2  0  0  0
 18 19  1  0  0  0
 19 20  2  0  0  0
 19 21  1  0  0  0
 21 22  1  0  0  0
 22 23  1  0  0  0
 12 13  1  0  0  0
 13 14  2  0  0  0
 14  6  1  0  0  0
 13  8  1  0  0  0
 20 15  1  0  0  0
 23 18  1  0  0  0
  3  4  1  0  0  0
 22 24  1  0  0  0
M  END
> <minimizedAffinity>
-8.59941

> <minimizedRMSD>
0.37672

$$$$
P17751


 36 39  0  0  0  0  0  0  0  0999 V2000
   -7.1440    4.9482  -13.5265 C   0  0  0  0  0  0  0  0  0  0  0  0
   -7.2069    6.3525  -13.3059 O   0  0  0  0  0  0  0  0  0  0  0  0
   -8.0620    6.6903  -13.6148 H   0  0  0  0  0  0  0  0  0  0  0  0
   -4.6824    5.7450  -17.1402 C   0  0  0  0  0  0  0  0  0  0  0  0
   -5.1662    5.6631  -15.9136 N   0  0  0  0  0  0  0  0  0  0  0  0
   -6.4121    5.0836  -16.0268 C   0  0  0  0  0  0  0  0  0  0  0  0
   -7.3699    4.7662  -15.0326 C   0  0  0  0  0  0  0  0  0  0  0  0
   -8.6475    4.3927  -15.5381 C   0  0  0  0  0  0  0  0  0  0  0  0
   -8.9048    4.2538  -16.9012 C   0  0  0  0  0  0  0  0  0  0  0  0
  -10.5093    4.0718  -17.4543 Cl  0  0  0  0  0  0  0  0  0  0  0  0
   -7.9132    4.4103  -17.8515 C   0  0  0  0  0  0  0  0  0  0  0  0
   -6.6980    4.8693  -17.3721 C   0  0  0  0  0  0  0  0  0  0  0  0
   -5.5707    5.2398  -18.0496 N   0  0  0  0  0  0  0  0  0  0  0  0
   -5.4238    5.1577  -19.0196 H   0  0  0  0  0  0  0  0  0  0  0  0
   -3.2822    7.7941  -17.2531 C   0  0  0  0  0  0  0  0  0  0  0  0
   -3.3748    6.3113  -17.5744 C   0  0  0  0  0  0  0  0  0  0  0  0
   -5.7272    4.3292  -13.0252 C   0  0  0  0  0  0  0  0  0  0  0  0
   -5.5867    3.1943  -12.7838 O   0  0  0  0  0  0  0  0  0  0  0  0
   -4.7458    5.5222  -12.8588 N   0  0  0  0  0  0  0  0  0  0  0  0
   -5.1307    6.4046  -13.0648 H   0  0  0  0  0  0  0  0  0  0  0  0
   -3.3629    5.5465  -12.4518 C   0  0  0  0  0  0  0  0  0  0  0  0
   -2.3636    5.2546  -13.5630 C   0  0  0  0  0  0  0  0  0  0  0  0
   -2.2387    6.3465  -14.3629 F   0  0  0  0  0  0  0  0  0  0  0  0
   -2.7494    4.2206  -14.3418 F   0  0  0  0  0  0  0  0  0  0  0  0
   -8.2481    4.2798  -12.7848 N   0  0  0  0  0  0  0  0  0  0  0  0
   -8.9737    3.8549  -13.2969 H   0  0  0  0  0  0  0  0  0  0  0  0
   -8.2935    4.2326  -11.3799 C   0  0  0  0  0  0  0  0  0  0  0  0
   -8.1567    5.3700  -10.5655 C   0  0  0  0  0  0  0  0  0  0  0  0
   -8.2505    5.2923   -9.1683 C   0  0  0  0  0  0  0  0  0  0  0  0
   -8.5429    4.0708   -8.5925 C   0  0  0  0  0  0  0  0  0  0  0  0
   -8.7534    2.9521   -9.3790 C   0  0  0  0  0  0  0  0  0  0  0  0
   -8.6310    3.0146  -10.7587 C   0  0  0  0  0  0  0  0  0  0  0  0
   -9.1552    1.8006   -8.5236 C   0  0  0  0  0  0  0  0  0  0  0  0
   -9.0498    2.2720   -7.1132 N   0  0  0  0  0  0  0  0  0  0  0  0
   -8.7583    3.7213   -7.1625 C   0  0  0  0  0  0  0  0  0  0  0  0
   -8.2960    1.7792   -6.6345 H   0  0  0  0  0  0  0  0  0  0  0  0
 15 16  1  0  0  0
 16  4  1  0  0  0
  4  5  2  0  0  0
  5  6  1  0  0  0
  6  7  2  0  0  0
  7  1  1  0  0  0
  1  2  1  0  0  0
  1 25  1  0  0  0
 25 27  1  0  0  0
 27 28  2  0  0  0
 28 29  1  0  0  0
 29 30  2  0  0  0
 30 31  1  0  0  0
 31 32  2  0  0  0
 31 33  1  0  0  0
 33 34  1  0  0  0
 34 35  1  0  0  0
  1 17  1  0  0  0
 17 18  2  0  0  0
 17 19  1  0  0  0
 19 21  1  0  0  0
 21 22  1  0  0  0
 22 23  1  0  0  0
 22 24  1  0  0  0
  7  8  1  0  0  0
  8  9  2  0  0  0
  9 10  1  0  0  0
  9 11  1  0  0  0
 11 12  2  0  0  0
 12 13  1  0  0  0
 13  4  1  0  0  0
 12  6  1  0  0  0
 32 27  1  0  0  0
 35 30  1  0  0  0
  2  3  1  0  0  0
 25 26  1  0  0  0
 34 36  1  0  0  0
 19 20  1  0  0  0
 13 14  1  0  0  0
M  END
> <minimizedAffinity>
-7.96112

> <minimizedRMSD>
0.46232

$$$$
P17752


 27 31  0  0  0  0  0  0  0  0999 V2000
   -4.4077    5.3476  -17.6988 O   0  0  0  0  0  0  0  0  0  0  0  0
   -5.3303    6.2725  -17.3176 N   0  0  0  0  0  0  0  0  0  0  0  0
   -4.8489    7.0866  -16.1421 C   0  0  0  0  0  0  0  0  0  0  0  0
   -5.5278    6.6074  -14.9132 N   0  0  0  0  0  0  0  0  0  0  0  0
   -6.1687    5.3587  -15.3609 C   0  0  0  0  0  0  0  0  0  0  0  0
   -7.2040    4.6047  -14.5306 C   0  0  0  0  0  0  0  0  0  0  0  0
   -8.5107    4.2850  -15.2429 C   0  0  0  0  0  0  0  0  0  0  0  0
   -9.2733    5.4493  -14.6910 C   0  0  0  0  0  0  0  0  0  0  0  0
   -8.8437    6.0106  -13.6021 N   0  0  0  0  0  0  0  0  0  0  0  0
   -7.7098    5.1734  -13.1993 C   0  0  0  0  0  0  0  0  0  0  0  0
   -8.5412    4.1387  -16.7624 C   0  0  0  0  0  0  0  0  0  0  0  0
   -7.3042    4.6229  -17.5142 C   0  0  0  0  0  0  0  0  0  0  0  0
   -6.6028    5.7138  -16.7638 C   0  0  0  0  0  0  0  0  0  0  0  0
   -5.4768    6.7859  -18.1867 H   0  0  0  0  0  0  0  0  0  0  0  0
   -6.2219    7.2815  -14.5902 H   0  0  0  0  0  0  0  0  0  0  0  0
   -8.1299    4.0327  -12.3891 N   0  0  0  0  0  0  0  0  0  0  0  0
   -8.3159    3.1885  -12.8602 H   0  0  0  0  0  0  0  0  0  0  0  0
   -8.2883    4.0401  -11.0118 C   0  0  0  0  0  0  0  0  0  0  0  0
   -8.1087    5.1691  -10.1997 C   0  0  0  0  0  0  0  0  0  0  0  0
   -8.2574    5.0941   -8.8068 C   0  0  0  0  0  0  0  0  0  0  0  0
   -8.6325    3.8864   -8.2451 C   0  0  0  0  0  0  0  0  0  0  0  0
   -8.9018    2.7886   -9.0439 C   0  0  0  0  0  0  0  0  0  0  0  0
   -8.7378    2.8501  -10.4146 C   0  0  0  0  0  0  0  0  0  0  0  0
   -9.3923    1.6596   -8.2078 C   0  0  0  0  0  0  0  0  0  0  0  0
   -9.1503    2.0677   -6.7956 N   0  0  0  0  0  0  0  0  0  0  0  0
   -8.8581    3.5205   -6.8201 C   0  0  0  0  0  0  0  0  0  0  0  0
   -8.3562    1.5552   -6.4120 H   0  0  0  0  0  0  0  0  0  0  0  0
  2  1  1  0  0  0
  2  3  1  0  0  0
  3  4  1  0  0  0
  5  4  1  0  0  0
  5  6  1  0  0  0
  6  7  1  0  0  0
  7  8  1  0  0  0
  8  9  2  0  0  0
  9 10  1  0  0  0
 10 16  1  0  0  0
 16 18  1  0  0  0
 18 19  2  0  0  0
 19 20  1  0  0  0
 20 21  2  0  0  0
 21 22  1  0  0  0
 22 23  2  0  0  0
 22 24  1  0  0  0
 24 25  1  0  0  0
 25 26  1  0  0  0
  7 11  1  0  0  0
 11 12  1  0  0  0
 13 12  1  0  0  0
 13  2  1  0  0  0
 13  5  1  0  0  0
  6 10  1  0  0  0
 23 18  1  0  0  0
 26 21  1  0  0  0
  2 14  1  0  0  0
  4 15  1  0  0  0
 16 17  1  0  0  0
 25 27  1  0  0  0
M  CHG 1   1  -1
M  CHG 1   2   1
M  END
> <minimizedAffinity>
-7.88793

> <minimizedRMSD>
0.70343

$$$$
P17753


 32 35  0  0  0  0  0  0  0  0999 V2000
   -4.7220    5.3513  -18.6757 C   0  0  0  0  0  0  0  0  0  0  0  0
   -5.3951    5.2793  -17.4115 N   0  0  0  0  0  0  0  0  0  0  0  0
   -4.7898    5.4847  -16.1488 C   0  0  0  0  0  0  0  0  0  0  0  0
   -3.5916    5.6150  -15.9436 O   0  0  0  0  0  0  0  0  0  0  0  0
   -5.8443    5.4435  -15.2082 N   0  0  0  0  0  0  0  0  0  0  0  0
   -7.0116    4.9994  -15.8459 C   0  0  0  0  0  0  0  0  0  0  0  0
   -8.2588    4.6702  -15.3482 C   0  0  0  0  0  0  0  0  0  0  0  0
   -9.2130    4.1798  -16.2491 C   0  0  0  0  0  0  0  0  0  0  0  0
   -8.8998    4.0584  -17.6092 C   0  0  0  0  0  0  0  0  0  0  0  0
   -9.8361    3.6071  -18.4514 F   0  0  0  0  0  0  0  0  0  0  0  0
   -7.6591    4.4300  -18.1160 C   0  0  0  0  0  0  0  0  0  0  0  0
   -6.7304    4.9011  -17.2131 C   0  0  0  0  0  0  0  0  0  0  0  0
   -8.6749    5.0367  -13.9773 C   0  0  0  0  0  0  0  0  0  0  0  0
   -9.4324    5.9160  -13.8496 O   0  0  0  0  0  0  0  0  0  0  0  0
   -8.0714    4.0744  -12.9298 N   0  0  0  0  0  0  0  0  0  0  0  0
   -7.5071    3.3596  -13.3037 H   0  0  0  0  0  0  0  0  0  0  0  0
   -8.1960    4.0536  -11.5419 C   0  0  0  0  0  0  0  0  0  0  0  0
   -7.9543    5.2004  -10.7686 C   0  0  0  0  0  0  0  0  0  0  0  0
   -8.1315    5.1787   -9.3805 C   0  0  0  0  0  0  0  0  0  0  0  0
   -8.5630    4.0032   -8.7948 C   0  0  0  0  0  0  0  0  0  0  0  0
   -8.7939    2.8634   -9.5577 C   0  0  0  0  0  0  0  0  0  0  0  0
   -8.6083    2.8669  -10.9297 C   0  0  0  0  0  0  0  0  0  0  0  0
   -9.2302    1.7536   -8.6591 C   0  0  0  0  0  0  0  0  0  0  0  0
   -9.5996    2.4160   -7.3792 N   0  0  0  0  0  0  0  0  0  0  0  0
   -8.8495    3.6925   -7.3641 C   0  0  0  0  0  0  0  0  0  0  0  0
   -9.3297    1.8344   -6.5859 H   0  0  0  0  0  0  0  0  0  0  0  0
   -5.5866    4.9700  -13.9104 O   0  0  0  0  0  0  0  0  0  0  0  0
   -5.1389    6.0568  -13.0961 C   0  0  0  0  0  0  0  0  0  0  0  0
   -4.4147    5.4962  -11.8755 C   0  0  0  0  0  0  0  0  0  0  0  0
   -4.4353    3.9751  -11.8254 C   0  0  0  0  0  0  0  0  0  0  0  0
   -3.5755    3.4475  -12.8287 O   0  0  0  0  0  0  0  0  0  0  0  0
   -3.8790    3.7414  -13.7019 H   0  0  0  0  0  0  0  0  0  0  0  0
  1  2  1  0  0  0
  2  3  1  0  0  0
  3  4  2  0  0  0
  3  5  1  0  0  0
  5 27  1  0  0  0
 27 28  1  0  0  0
 28 29  1  0  0  0
 29 30  1  0  0  0
 30 31  1  0  0  0
  5  6  1  0  0  0
  6  7  2  0  0  0
  7 13  1  0  0  0
 13 14  2  0  0  0
 13 15  1  0  0  0
 15 17  1  0  0  0
 17 18  2  0  0  0
 18 19  1  0  0  0
 19 20  2  0  0  0
 20 21  1  0  0  0
 21 22  2  0  0  0
 21 23  1  0  0  0
 23 24  1  0  0  0
 24 25  1  0  0  0
  7  8  1  0  0  0
  8  9  2  0  0  0
  9 10  1  0  0  0
  9 11  1  0  0  0
 11 12  2  0  0  0
 12  2  1  0  0  0
 12  6  1  0  0  0
 22 17  1  0  0  0
 25 20  1  0  0  0
 31 32  1  0  0  0
 15 16  1  0  0  0
 24 26  1  0  0  0
M  END
> <minimizedAffinity>
-8.31647

> <minimizedRMSD>
1.01325

$$$$
P17755


 41 45  0  0  0  0  0  0  0  0999 V2000
   -6.7675    4.8507  -13.3591 C   0  0  0  0  0  0  0  0  0  0  0  0
   -7.0095    4.8223  -14.9151 C   0  0  0  0  0  0  0  0  0  0  0  0
   -8.2797    4.4781  -15.4740 C   0  0  0  0  0  0  0  0  0  0  0  0
   -8.5078    4.3993  -16.8496 C   0  0  0  0  0  0  0  0  0  0  0  0
  -10.2481    4.2000  -17.5088 Br  0  0  0  0  0  0  0  0  0  0  0  0
   -7.5078    4.6198  -17.7766 C   0  0  0  0  0  0  0  0  0  0  0  0
   -6.3069    5.0585  -17.2503 C   0  0  0  0  0  0  0  0  0  0  0  0
   -5.1692    5.4687  -17.8909 N   0  0  0  0  0  0  0  0  0  0  0  0
   -4.2832    5.8656  -16.9378 C   0  0  0  0  0  0  0  0  0  0  0  0
   -4.7708    5.7119  -15.7280 N   0  0  0  0  0  0  0  0  0  0  0  0
   -6.0401    5.1905  -15.8871 C   0  0  0  0  0  0  0  0  0  0  0  0
   -5.0193    5.4753  -18.8639 H   0  0  0  0  0  0  0  0  0  0  0  0
   -6.6436    7.3315  -13.4218 O   0  0  0  0  0  0  0  0  0  0  0  0
   -6.1880    6.3564  -12.9560 C   0  0  0  0  0  0  0  0  0  0  0  0
   -5.0576    6.1763  -11.8890 N   0  0  0  0  0  0  0  0  0  0  0  0
   -4.9053    5.2468  -11.6024 H   0  0  0  0  0  0  0  0  0  0  0  0
   -4.2009    7.1534  -11.2559 C   0  0  0  0  0  0  0  0  0  0  0  0
   -3.1386    6.5561  -10.3415 C   0  0  0  0  0  0  0  0  0  0  0  0
   -3.3556    5.2225  -10.1961 F   0  0  0  0  0  0  0  0  0  0  0  0
   -3.2602    7.0951   -9.0980 F   0  0  0  0  0  0  0  0  0  0  0  0
   -5.8569    3.7685  -12.9398 N   0  0  0  0  0  0  0  0  0  0  0  0
   -6.1157    2.9395  -13.4747 H   0  0  0  0  0  0  0  0  0  0  0  0
   -4.4178    3.9396  -13.0938 C   0  0  0  0  0  0  0  0  0  0  0  0
   -3.6563    2.7272  -12.5691 C   0  0  0  0  0  0  0  0  0  0  0  0
   -4.0508    2.0907  -11.3898 C   0  0  0  0  0  0  0  0  0  0  0  0
   -3.3063    1.0150  -10.9172 C   0  0  0  0  0  0  0  0  0  0  0  0
   -2.1904    0.5991  -11.6299 C   0  0  0  0  0  0  0  0  0  0  0  0
   -1.8649    1.2807  -12.7909 C   0  0  0  0  0  0  0  0  0  0  0  0
   -2.5703    2.3263  -13.2787 N   0  0  0  0  0  0  0  0  0  0  0  0
   -8.1204    4.6665  -12.7192 N   0  0  0  0  0  0  0  0  0  0  0  0
   -8.9260    4.6660  -13.2851 H   0  0  0  0  0  0  0  0  0  0  0  0
   -8.2538    4.4953  -11.3283 C   0  0  0  0  0  0  0  0  0  0  0  0
   -8.1337    5.5767  -10.4399 C   0  0  0  0  0  0  0  0  0  0  0  0
   -8.2577    5.4097   -9.0562 C   0  0  0  0  0  0  0  0  0  0  0  0
   -8.5842    4.1568   -8.5775 C   0  0  0  0  0  0  0  0  0  0  0  0
   -8.7558    3.0833   -9.4421 C   0  0  0  0  0  0  0  0  0  0  0  0
   -8.5705    3.2266  -10.8077 C   0  0  0  0  0  0  0  0  0  0  0  0
   -9.1759    1.8847   -8.6548 C   0  0  0  0  0  0  0  0  0  0  0  0
   -9.5762    2.4191   -7.3237 N   0  0  0  0  0  0  0  0  0  0  0  0
   -8.8581    3.7046   -7.1829 C   0  0  0  0  0  0  0  0  0  0  0  0
   -9.3013    1.7740   -6.5830 H   0  0  0  0  0  0  0  0  0  0  0  0
 13 14  2  0  0  0
 14 15  1  0  0  0
 15 17  1  0  0  0
 17 18  1  0  0  0
 18 19  1  0  0  0
 18 20  1  0  0  0
 14  1  1  0  0  0
  1 21  1  0  0  0
 21 23  1  0  0  0
 23 24  1  0  0  0
 24 25  2  0  0  0
 25 26  1  0  0  0
 26 27  2  0  0  0
 27 28  1  0  0  0
 28 29  2  0  0  0
  1 30  1  0  0  0
 30 32  1  0  0  0
 32 33  2  0  0  0
 33 34  1  0  0  0
 34 35  2  0  0  0
 35 36  1  0  0  0
 36 37  2  0  0  0
 36 38  1  0  0  0
 38 39  1  0  0  0
 39 40  1  0  0  0
  1  2  1  0  0  0
  2  3  2  0  0  0
  3  4  1  0  0  0
  4  5  1  0  0  0
  4  6  2  0  0  0
  6  7  1  0  0  0
  7  8  1  0  0  0
  8  9  1  0  0  0
  9 10  2  0  0  0
 10 11  1  0  0  0
 29 24  1  0  0  0
 37 32  1  0  0  0
 11  2  1  0  0  0
 40 35  1  0  0  0
 11  7  2  0  0  0
 15 16  1  0  0  0
 21 22  1  0  0  0
 30 31  1  0  0  0
 39 41  1  0  0  0
  8 12  1  0  0  0
M  END
> <minimizedAffinity>
-7.62079

> <minimizedRMSD>
1.02348

$$$$
P17756


 25 28  0  0  0  0  0  0  0  0999 V2000
   -9.6140    5.7884  -14.0496 O   0  0  0  0  0  0  0  0  0  0  0  0
   -8.7761    4.9847  -14.1767 C   0  0  0  0  0  0  0  0  0  0  0  0
   -8.0556    4.1115  -13.1218 N   0  0  0  0  0  0  0  0  0  0  0  0
   -7.4319    3.4466  -13.4936 H   0  0  0  0  0  0  0  0  0  0  0  0
   -8.3551    4.6252  -15.5510 C   0  0  0  0  0  0  0  0  0  0  0  0
   -9.2796    4.0547  -16.4404 C   0  0  0  0  0  0  0  0  0  0  0  0
   -8.9555    3.8794  -17.7971 C   0  0  0  0  0  0  0  0  0  0  0  0
   -7.7120    4.2830  -18.2845 C   0  0  0  0  0  0  0  0  0  0  0  0
   -6.8157    4.8383  -17.3871 C   0  0  0  0  0  0  0  0  0  0  0  0
   -7.1053    4.9833  -16.0315 C   0  0  0  0  0  0  0  0  0  0  0  0
   -5.9857    5.4690  -15.3302 N   0  0  0  0  0  0  0  0  0  0  0  0
   -5.0579    5.6393  -16.2259 C   0  0  0  0  0  0  0  0  0  0  0  0
   -5.4322    5.2524  -17.6142 N   0  0  0  0  0  0  0  0  0  0  0  0
   -5.3234    6.3215  -18.4352 O   0  0  0  0  0  0  0  0  0  0  0  0
   -4.8230    4.7049  -18.1603 H   0  0  0  0  0  0  0  0  0  0  0  0
   -8.1459    4.1132  -11.7310 C   0  0  0  0  0  0  0  0  0  0  0  0
   -7.8102    5.2527  -10.9816 C   0  0  0  0  0  0  0  0  0  0  0  0
   -7.9421    5.2612   -9.5885 C   0  0  0  0  0  0  0  0  0  0  0  0
   -8.4204    4.1209   -8.9712 C   0  0  0  0  0  0  0  0  0  0  0  0
   -8.7407    2.9858   -9.7090 C   0  0  0  0  0  0  0  0  0  0  0  0
   -8.6033    2.9601  -11.0872 C   0  0  0  0  0  0  0  0  0  0  0  0
   -9.2027    1.9146   -8.7768 C   0  0  0  0  0  0  0  0  0  0  0  0
   -9.4961    2.6156   -7.4974 N   0  0  0  0  0  0  0  0  0  0  0  0
   -8.6746    3.8473   -7.5271 C   0  0  0  0  0  0  0  0  0  0  0  0
   -9.2356    2.0318   -6.7026 H   0  0  0  0  0  0  0  0  0  0  0  0
  1  2  2  0  0  0
  2  3  1  0  0  0
  3 16  1  0  0  0
 16 17  2  0  0  0
 17 18  1  0  0  0
 18 19  2  0  0  0
 19 20  1  0  0  0
 20 21  2  0  0  0
 20 22  1  0  0  0
 22 23  1  0  0  0
 23 24  1  0  0  0
  2  5  1  0  0  0
  5  6  2  0  0  0
  6  7  1  0  0  0
  7  8  2  0  0  0
  8  9  1  0  0  0
  9 10  2  0  0  0
 10 11  1  0  0  0
 11 12  2  0  0  0
 12 13  1  0  0  0
 13 14  1  0  0  0
 21 16  1  0  0  0
 10  5  1  0  0  0
 24 19  1  0  0  0
 13  9  1  0  0  0
  3  4  1  0  0  0
 23 25  1  0  0  0
 13 15  1  0  0  0
M  CHG 1  13   1
M  CHG 1  14  -1
M  END
> <minimizedAffinity>
-8.94593

> <minimizedRMSD>
0.69576

$$$$
P17757


 28 31  0  0  0  0  0  0  0  0999 V2000
   -5.5835    5.4298  -17.4533 N   0  0  0  0  0  0  0  0  0  0  0  0
   -4.8481    5.5771  -16.3098 C   0  0  0  0  0  0  0  0  0  0  0  0
   -5.5713    5.3488  -15.2379 N   0  0  0  0  0  0  0  0  0  0  0  0
   -6.8186    4.9929  -15.7008 C   0  0  0  0  0  0  0  0  0  0  0  0
   -8.0379    4.7794  -15.0300 C   0  0  0  0  0  0  0  0  0  0  0  0
   -9.1785    4.4222  -15.7655 C   0  0  0  0  0  0  0  0  0  0  0  0
   -9.1002    4.2992  -17.1460 C   0  0  0  0  0  0  0  0  0  0  0  0
  -10.5465    4.1427  -18.0395 Cl  0  0  0  0  0  0  0  0  0  0  0  0
   -7.9129    4.5054  -17.8446 C   0  0  0  0  0  0  0  0  0  0  0  0
   -6.8045    4.9035  -17.0950 C   0  0  0  0  0  0  0  0  0  0  0  0
   -4.7806    5.1662  -19.6581 N   0  0  0  0  0  0  0  0  0  0  0  0
   -5.2964    6.1203  -18.7002 C   0  0  0  0  0  0  0  0  0  0  0  0
   -4.5764    5.6428  -20.5364 H   0  0  0  0  0  0  0  0  0  0  0  0
   -5.4756    4.4375  -19.8202 H   0  0  0  0  0  0  0  0  0  0  0  0
   -8.2311    5.2364  -13.6378 C   0  0  0  0  0  0  0  0  0  0  0  0
   -8.4930    6.3603  -13.4558 O   0  0  0  0  0  0  0  0  0  0  0  0
   -8.1397    4.0542  -12.6434 N   0  0  0  0  0  0  0  0  0  0  0  0
   -7.9736    3.1775  -13.0595 H   0  0  0  0  0  0  0  0  0  0  0  0
   -8.2540    4.0286  -11.2574 C   0  0  0  0  0  0  0  0  0  0  0  0
   -8.0084    5.1788  -10.4918 C   0  0  0  0  0  0  0  0  0  0  0  0
   -8.1743    5.1634   -9.1044 C   0  0  0  0  0  0  0  0  0  0  0  0
   -8.5761    3.9835   -8.5074 C   0  0  0  0  0  0  0  0  0  0  0  0
   -8.8197    2.8443   -9.2630 C   0  0  0  0  0  0  0  0  0  0  0  0
   -8.6677    2.8464  -10.6400 C   0  0  0  0  0  0  0  0  0  0  0  0
   -9.2605    1.7387   -8.3681 C   0  0  0  0  0  0  0  0  0  0  0  0
   -9.1096    2.2424   -6.9749 N   0  0  0  0  0  0  0  0  0  0  0  0
   -8.8416    3.6946   -7.0721 C   0  0  0  0  0  0  0  0  0  0  0  0
   -8.3311    1.7717   -6.5137 H   0  0  0  0  0  0  0  0  0  0  0  0
 11 12  1  0  0  0
 12  1  1  0  0  0
  1  2  1  0  0  0
  2  3  2  0  0  0
  3  4  1  0  0  0
  4  5  2  0  0  0
  5 15  1  0  0  0
 15 16  2  0  0  0
 15 17  1  0  0  0
 17 19  1  0  0  0
 19 20  2  0  0  0
 20 21  1  0  0  0
 21 22  2  0  0  0
 22 23  1  0  0  0
 23 24  2  0  0  0
 23 25  1  0  0  0
 25 26  1  0  0  0
 26 27  1  0  0  0
  5  6  1  0  0  0
  6  7  2  0  0  0
  7  8  1  0  0  0
  7  9  1  0  0  0
  9 10  2  0  0  0
 10  1  1  0  0  0
 10  4  1  0  0  0
 24 19  1  0  0  0
 27 22  1  0  0  0
 11 13  1  0  0  0
 11 14  1  0  0  0
 17 18  1  0  0  0
 26 28  1  0  0  0
M  END
> <minimizedAffinity>
-8.76199

> <minimizedRMSD>
0.59729

$$$$
P17758


 25 28  0  0  0  0  0  0  0  0999 V2000
   -9.5135    5.8501  -14.1487 O   0  0  0  0  0  0  0  0  0  0  0  0
   -8.6062    5.1142  -14.2034 C   0  0  0  0  0  0  0  0  0  0  0  0
   -7.8522    4.3626  -13.0750 N   0  0  0  0  0  0  0  0  0  0  0  0
   -7.1621    3.7342  -13.3881 H   0  0  0  0  0  0  0  0  0  0  0  0
   -8.0862    4.7646  -15.5514 C   0  0  0  0  0  0  0  0  0  0  0  0
   -8.9763    4.4599  -16.5900 C   0  0  0  0  0  0  0  0  0  0  0  0
   -8.5304    4.3814  -17.9216 C   0  0  0  0  0  0  0  0  0  0  0  0
   -7.1865    4.5873  -18.2347 C   0  0  0  0  0  0  0  0  0  0  0  0
   -6.3184    4.8619  -17.1946 C   0  0  0  0  0  0  0  0  0  0  0  0
   -6.7456    4.9476  -15.8684 C   0  0  0  0  0  0  0  0  0  0  0  0
   -5.6703    5.2879  -15.0251 N   0  0  0  0  0  0  0  0  0  0  0  0
   -4.6413    5.4420  -15.8058 C   0  0  0  0  0  0  0  0  0  0  0  0
   -4.9282    5.3129  -17.2593 N   0  0  0  0  0  0  0  0  0  0  0  0
   -4.0831    4.4416  -17.8420 O   0  0  0  0  0  0  0  0  0  0  0  0
   -4.1248    4.7472  -17.3212 H   0  0  0  0  0  0  0  0  0  0  0  0
   -7.9935    4.4326  -11.6854 C   0  0  0  0  0  0  0  0  0  0  0  0
   -7.7866    5.6409  -11.0018 C   0  0  0  0  0  0  0  0  0  0  0  0
   -7.9113    5.7122   -9.6096 C   0  0  0  0  0  0  0  0  0  0  0  0
   -8.2418    4.5615   -8.9175 C   0  0  0  0  0  0  0  0  0  0  0  0
   -8.4612    3.3659   -9.5854 C   0  0  0  0  0  0  0  0  0  0  0  0
   -8.3427    3.2829  -10.9688 C   0  0  0  0  0  0  0  0  0  0  0  0
   -8.8104    2.3047   -8.5954 C   0  0  0  0  0  0  0  0  0  0  0  0
   -8.7502    2.9393   -7.2501 N   0  0  0  0  0  0  0  0  0  0  0  0
   -8.4242    4.3649   -7.4532 C   0  0  0  0  0  0  0  0  0  0  0  0
   -8.0277    2.4928   -6.6852 H   0  0  0  0  0  0  0  0  0  0  0  0
  1  2  2  0  0  0
  2  3  1  0  0  0
  3 16  1  0  0  0
 16 17  2  0  0  0
 17 18  1  0  0  0
 18 19  2  0  0  0
 19 20  1  0  0  0
 20 21  2  0  0  0
 20 22  1  0  0  0
 22 23  1  0  0  0
 23 24  1  0  0  0
  2  5  1  0  0  0
  5  6  2  0  0  0
  6  7  1  0  0  0
  7  8  2  0  0  0
  8  9  1  0  0  0
  9 10  2  0  0  0
 10 11  1  0  0  0
 11 12  2  0  0  0
 12 13  1  0  0  0
 13 14  1  0  0  0
 21 16  1  0  0  0
 10  5  1  0  0  0
 24 19  1  0  0  0
 13  9  1  0  0  0
  3  4  1  0  0  0
 23 25  1  0  0  0
 13 15  1  0  0  0
M  CHG 1  13   1
M  CHG 1  14  -1
M  END
> <minimizedAffinity>
-7.88238

> <minimizedRMSD>
0.88680

$$$$
P17759


 31 35  0  0  0  0  0  0  0  0999 V2000
   -2.1668    7.9010  -15.1259 C   0  0  0  0  0  0  0  0  0  0  0  0
   -2.3597    7.2166  -16.4024 N   0  0  0  0  0  0  0  0  0  0  0  0
   -2.6383    5.7957  -16.1817 C   0  0  0  0  0  0  0  0  0  0  0  0
   -3.6599    5.2201  -17.1502 C   0  0  0  0  0  0  0  0  0  0  0  0
   -4.9936    5.9562  -17.0180 C   0  0  0  0  0  0  0  0  0  0  0  0
   -4.7889    7.4876  -17.0802 C   0  0  0  0  0  0  0  0  0  0  0  0
   -3.3231    7.8793  -17.2864 C   0  0  0  0  0  0  0  0  0  0  0  0
   -5.9123    5.5165  -18.1004 N   0  0  0  0  0  0  0  0  0  0  0  0
   -6.9789    4.8943  -17.4093 C   0  0  0  0  0  0  0  0  0  0  0  0
   -8.0929    4.2815  -17.9497 C   0  0  0  0  0  0  0  0  0  0  0  0
   -9.1067    3.8519  -17.0829 C   0  0  0  0  0  0  0  0  0  0  0  0
   -9.0033    4.0668  -15.6974 C   0  0  0  0  0  0  0  0  0  0  0  0
   -7.8645    4.6867  -15.1744 C   0  0  0  0  0  0  0  0  0  0  0  0
   -6.8533    5.0669  -16.0427 C   0  0  0  0  0  0  0  0  0  0  0  0
   -5.5885    5.6000  -15.7148 N   0  0  0  0  0  0  0  0  0  0  0  0
   -5.8039    5.6314  -19.0721 H   0  0  0  0  0  0  0  0  0  0  0  0
   -5.1927    5.7095  -14.8201 H   0  0  0  0  0  0  0  0  0  0  0  0
   -7.7821    5.1340  -13.7660 C   0  0  0  0  0  0  0  0  0  0  0  0
   -7.3249    6.1897  -13.5600 O   0  0  0  0  0  0  0  0  0  0  0  0
   -8.3556    4.0839  -12.7906 N   0  0  0  0  0  0  0  0  0  0  0  0
   -8.7552    3.2948  -13.2228 H   0  0  0  0  0  0  0  0  0  0  0  0
   -8.3997    4.0711  -11.3996 C   0  0  0  0  0  0  0  0  0  0  0  0
   -8.0983    5.2278  -10.6615 C   0  0  0  0  0  0  0  0  0  0  0  0
   -8.1479    5.2214   -9.2653 C   0  0  0  0  0  0  0  0  0  0  0  0
   -8.4998    4.0454   -8.6308 C   0  0  0  0  0  0  0  0  0  0  0  0
   -8.7947    2.9000   -9.3575 C   0  0  0  0  0  0  0  0  0  0  0  0
   -8.7469    2.8906  -10.7428 C   0  0  0  0  0  0  0  0  0  0  0  0
   -9.1587    1.7974   -8.4258 C   0  0  0  0  0  0  0  0  0  0  0  0
   -8.9869    2.3338   -7.0475 N   0  0  0  0  0  0  0  0  0  0  0  0
   -8.6614    3.7709   -7.1778 C   0  0  0  0  0  0  0  0  0  0  0  0
   -8.2275    1.8445   -6.5737 H   0  0  0  0  0  0  0  0  0  0  0  0
  1  2  1  0  0  0
  2  3  1  0  0  0
  3  4  1  0  0  0
  4  5  1  0  0  0
  5  6  1  0  0  0
  6  7  1  0  0  0
  5  8  1  0  0  0
  8  9  1  0  0  0
  9 10  2  0  0  0
 10 11  1  0  0  0
 11 12  2  0  0  0
 12 13  1  0  0  0
 13 18  1  0  0  0
 18 19  2  0  0  0
 18 20  1  0  0  0
 20 22  1  0  0  0
 22 23  2  0  0  0
 23 24  1  0  0  0
 24 25  2  0  0  0
 25 26  1  0  0  0
 26 27  2  0  0  0
 26 28  1  0  0  0
 28 29  1  0  0  0
 29 30  1  0  0  0
 13 14  2  0  0  0
 14 15  1  0  0  0
  7  2  1  0  0  0
 14  9  1  0  0  0
 15  5  1  0  0  0
 27 22  1  0  0  0
 30 25  1  0  0  0
  8 16  1  0  0  0
 20 21  1  0  0  0
 29 31  1  0  0  0
 15 17  1  0  0  0
M  END
> <minimizedAffinity>
-9.08810

> <minimizedRMSD>
0.41258

$$$$
P17763


 31 35  0  0  0  0  0  0  0  0999 V2000
   -7.7243    4.5557  -15.5304 C   0  0  0  0  0  0  0  0  0  0  0  0
   -8.9538    3.9497  -15.8447 C   0  0  0  0  0  0  0  0  0  0  0  0
   -9.3343    3.7432  -17.1784 C   0  0  0  0  0  0  0  0  0  0  0  0
   -8.5169    4.1844  -18.2144 C   0  0  0  0  0  0  0  0  0  0  0  0
   -7.3262    4.8058  -17.8913 C   0  0  0  0  0  0  0  0  0  0  0  0
   -6.9088    4.9639  -16.5759 C   0  0  0  0  0  0  0  0  0  0  0  0
   -5.6209    5.5655  -16.5304 N   0  0  0  0  0  0  0  0  0  0  0  0
   -5.3430    5.9150  -17.9492 C   0  0  0  0  0  0  0  0  0  0  0  0
   -5.1288    7.4370  -18.0883 C   0  0  0  0  0  0  0  0  0  0  0  0
   -3.6450    7.7810  -18.0544 C   0  0  0  0  0  0  0  0  0  0  0  0
   -2.9140    7.1855  -19.1731 N   0  0  0  0  0  0  0  0  0  0  0  0
   -3.4139    5.8644  -19.5612 C   0  0  0  0  0  0  0  0  0  0  0  0
   -4.1117    5.1315  -18.4274 C   0  0  0  0  0  0  0  0  0  0  0  0
   -6.5075    5.5386  -18.7648 N   0  0  0  0  0  0  0  0  0  0  0  0
   -5.0477    5.7155  -15.7441 H   0  0  0  0  0  0  0  0  0  0  0  0
   -1.9338    7.0941  -18.9062 H   0  0  0  0  0  0  0  0  0  0  0  0
   -6.6752    5.7526  -19.7110 H   0  0  0  0  0  0  0  0  0  0  0  0
   -6.8037    5.9358  -13.9577 O   0  0  0  0  0  0  0  0  0  0  0  0
   -7.4518    4.9764  -14.1287 C   0  0  0  0  0  0  0  0  0  0  0  0
   -8.1971    4.0725  -13.1125 N   0  0  0  0  0  0  0  0  0  0  0  0
   -8.7422    3.3597  -13.5174 H   0  0  0  0  0  0  0  0  0  0  0  0
   -8.2208    4.1052  -11.7201 C   0  0  0  0  0  0  0  0  0  0  0  0
   -8.0002    5.2950  -11.0093 C   0  0  0  0  0  0  0  0  0  0  0  0
   -8.1129    5.3268   -9.6142 C   0  0  0  0  0  0  0  0  0  0  0  0
   -8.4443    4.1564   -8.9566 C   0  0  0  0  0  0  0  0  0  0  0  0
   -8.6380    2.9708   -9.6567 C   0  0  0  0  0  0  0  0  0  0  0  0
   -8.5310    2.9258  -11.0364 C   0  0  0  0  0  0  0  0  0  0  0  0
   -8.9374    1.8746   -8.6887 C   0  0  0  0  0  0  0  0  0  0  0  0
   -9.2889    2.5661   -7.4188 N   0  0  0  0  0  0  0  0  0  0  0  0
   -8.6398    3.8951   -7.5011 C   0  0  0  0  0  0  0  0  0  0  0  0
   -8.9328    2.0442   -6.6180 H   0  0  0  0  0  0  0  0  0  0  0  0
 18 19  2  0  0  0
 19 20  1  0  0  0
 20 22  1  0  0  0
 22 23  2  0  0  0
 23 24  1  0  0  0
 24 25  2  0  0  0
 25 26  1  0  0  0
 26 27  2  0  0  0
 26 28  1  0  0  0
 28 29  1  0  0  0
 29 30  1  0  0  0
 19  1  1  0  0  0
  1  2  2  0  0  0
  2  3  1  0  0  0
  3  4  2  0  0  0
  4  5  1  0  0  0
  5  6  2  0  0  0
  6  7  1  0  0  0
  7  8  1  0  0  0
  8  9  1  0  0  0
  9 10  1  0  0  0
 10 11  1  0  0  0
 11 12  1  0  0  0
 12 13  1  0  0  0
  8 14  1  0  0  0
 27 22  1  0  0  0
  6  1  1  0  0  0
 13  8  1  0  0  0
 30 25  1  0  0  0
 14  5  1  0  0  0
 20 21  1  0  0  0
 29 31  1  0  0  0
  7 15  1  0  0  0
 11 16  1  0  0  0
 14 17  1  0  0  0
M  END
> <minimizedAffinity>
-9.52781

> <minimizedRMSD>
0.49619

$$$$
P17764


 28 31  0  0  0  0  0  0  0  0999 V2000
   -5.4643    5.2657  -17.7439 N   0  0  0  0  0  0  0  0  0  0  0  0
   -4.6498    5.6310  -16.7100 C   0  0  0  0  0  0  0  0  0  0  0  0
   -5.2618    5.5380  -15.5537 N   0  0  0  0  0  0  0  0  0  0  0  0
   -6.5407    5.1184  -15.8435 C   0  0  0  0  0  0  0  0  0  0  0  0
   -7.6562    4.9030  -15.0154 C   0  0  0  0  0  0  0  0  0  0  0  0
   -8.8638    4.4720  -15.5786 C   0  0  0  0  0  0  0  0  0  0  0  0
   -8.9604    4.2905  -16.9511 C   0  0  0  0  0  0  0  0  0  0  0  0
  -10.5043    4.0346  -17.6328 Cl  0  0  0  0  0  0  0  0  0  0  0  0
   -7.8739    4.4743  -17.8048 C   0  0  0  0  0  0  0  0  0  0  0  0
   -6.6806    4.9049  -17.2185 C   0  0  0  0  0  0  0  0  0  0  0  0
   -7.6613    5.3311  -13.6041 C   0  0  0  0  0  0  0  0  0  0  0  0
   -7.4339    6.4499  -13.3573 O   0  0  0  0  0  0  0  0  0  0  0  0
   -8.0867    4.1659  -12.6780 N   0  0  0  0  0  0  0  0  0  0  0  0
   -8.2944    3.3238  -13.1440 H   0  0  0  0  0  0  0  0  0  0  0  0
   -8.2232    4.1149  -11.2948 C   0  0  0  0  0  0  0  0  0  0  0  0
   -8.0096    5.2539  -10.5040 C   0  0  0  0  0  0  0  0  0  0  0  0
   -8.1920    5.2066   -9.1193 C   0  0  0  0  0  0  0  0  0  0  0  0
   -8.5763    4.0068   -8.5504 C   0  0  0  0  0  0  0  0  0  0  0  0
   -8.7861    2.8777   -9.3307 C   0  0  0  0  0  0  0  0  0  0  0  0
   -8.6185    2.9115  -10.7055 C   0  0  0  0  0  0  0  0  0  0  0  0
   -9.2159    1.7459   -8.4633 C   0  0  0  0  0  0  0  0  0  0  0  0
   -9.0941    2.2260   -7.0592 N   0  0  0  0  0  0  0  0  0  0  0  0
   -8.8576    3.6854   -7.1250 C   0  0  0  0  0  0  0  0  0  0  0  0
   -8.3111    1.7639   -6.5968 H   0  0  0  0  0  0  0  0  0  0  0  0
   -5.0939    5.3092  -19.1462 C   0  0  0  0  0  0  0  0  0  0  0  0
   -4.7751    7.1168  -20.7169 C   0  0  0  0  0  0  0  0  0  0  0  0
   -5.6040    6.5755  -19.6529 N   0  0  0  0  0  0  0  0  0  0  0  0
   -6.5467    6.4288  -20.0136 H   0  0  0  0  0  0  0  0  0  0  0  0
 26 27  1  0  0  0
 27 25  1  0  0  0
 25  1  1  0  0  0
  1  2  1  0  0  0
  2  3  2  0  0  0
  3  4  1  0  0  0
  4  5  2  0  0  0
  5 11  1  0  0  0
 11 12  2  0  0  0
 11 13  1  0  0  0
 13 15  1  0  0  0
 15 16  2  0  0  0
 16 17  1  0  0  0
 17 18  2  0  0  0
 18 19  1  0  0  0
 19 20  2  0  0  0
 19 21  1  0  0  0
 21 22  1  0  0  0
 22 23  1  0  0  0
  5  6  1  0  0  0
  6  7  2  0  0  0
  7  8  1  0  0  0
  7  9  1  0  0  0
  9 10  2  0  0  0
 10  1  1  0  0  0
 10  4  1  0  0  0
 20 15  1  0  0  0
 23 18  1  0  0  0
 27 28  1  0  0  0
 13 14  1  0  0  0
 22 24  1  0  0  0
M  END
> <minimizedAffinity>
-8.57378

> <minimizedRMSD>
0.26394

$$$$
P17766


 36 39  0  0  0  0  0  0  0  0999 V2000
   -6.9907    5.0263  -13.3220 C   0  0  0  0  0  0  0  0  0  0  0  0
   -6.9735    6.4421  -13.1855 O   0  0  0  0  0  0  0  0  0  0  0  0
   -6.8800    6.6754  -12.2486 H   0  0  0  0  0  0  0  0  0  0  0  0
   -7.1403    4.8270  -14.8253 C   0  0  0  0  0  0  0  0  0  0  0  0
   -8.3470    4.3558  -15.3833 C   0  0  0  0  0  0  0  0  0  0  0  0
   -8.5322    4.2836  -16.7727 C   0  0  0  0  0  0  0  0  0  0  0  0
  -10.0901    3.9460  -17.3825 Cl  0  0  0  0  0  0  0  0  0  0  0  0
   -7.5267    4.6352  -17.6621 C   0  0  0  0  0  0  0  0  0  0  0  0
   -6.3624    5.1223  -17.1213 C   0  0  0  0  0  0  0  0  0  0  0  0
   -6.1703    5.2189  -15.7395 C   0  0  0  0  0  0  0  0  0  0  0  0
   -4.9539    5.8967  -15.4644 N   0  0  0  0  0  0  0  0  0  0  0  0
   -4.3299    5.9040  -16.7709 C   0  0  0  0  0  0  0  0  0  0  0  0
   -3.3792    4.9524  -16.8245 F   0  0  0  0  0  0  0  0  0  0  0  0
   -3.7223    7.0993  -16.9405 F   0  0  0  0  0  0  0  0  0  0  0  0
   -5.2868    5.7028  -17.8291 N   0  0  0  0  0  0  0  0  0  0  0  0
   -4.6230    6.2637  -14.6129 H   0  0  0  0  0  0  0  0  0  0  0  0
   -5.2113    5.9133  -18.7879 H   0  0  0  0  0  0  0  0  0  0  0  0
   -4.8281    5.3923  -12.0660 N   0  0  0  0  0  0  0  0  0  0  0  0
   -5.6975    4.2698  -12.7201 C   0  0  0  0  0  0  0  0  0  0  0  0
   -5.5276    3.1117  -12.7716 O   0  0  0  0  0  0  0  0  0  0  0  0
   -5.2280    6.2916  -12.0917 H   0  0  0  0  0  0  0  0  0  0  0  0
   -2.4281    5.2910  -12.4782 C   0  0  0  0  0  0  0  0  0  0  0  0
   -3.5350    5.3240  -11.4309 C   0  0  0  0  0  0  0  0  0  0  0  0
   -3.3510    6.4877  -10.4662 C   0  0  0  0  0  0  0  0  0  0  0  0
   -8.1977    4.5581  -12.6245 N   0  0  0  0  0  0  0  0  0  0  0  0
   -8.9927    4.3168  -13.1527 H   0  0  0  0  0  0  0  0  0  0  0  0
   -8.2478    4.4454  -11.2198 C   0  0  0  0  0  0  0  0  0  0  0  0
   -8.0976    5.5321  -10.3337 C   0  0  0  0  0  0  0  0  0  0  0  0
   -8.2439    5.3875   -8.9487 C   0  0  0  0  0  0  0  0  0  0  0  0
   -8.5639    4.1430   -8.4508 C   0  0  0  0  0  0  0  0  0  0  0  0
   -8.7473    3.0671   -9.3016 C   0  0  0  0  0  0  0  0  0  0  0  0
   -8.6133    3.2033  -10.6754 C   0  0  0  0  0  0  0  0  0  0  0  0
   -9.1088    1.8595   -8.5096 C   0  0  0  0  0  0  0  0  0  0  0  0
   -9.0360    2.2584   -7.0762 N   0  0  0  0  0  0  0  0  0  0  0  0
   -8.8067    3.7190   -7.0464 C   0  0  0  0  0  0  0  0  0  0  0  0
   -8.2658    1.7732   -6.6160 H   0  0  0  0  0  0  0  0  0  0  0  0
 22 23  1  0  0  0
 23 24  1  0  0  0
 23 18  1  0  0  0
 18 19  1  0  0  0
 19 20  2  0  0  0
 19  1  1  0  0  0
  1  2  1  0  0  0
  1 25  1  0  0  0
 25 27  1  0  0  0
 27 28  2  0  0  0
 28 29  1  0  0  0
 29 30  2  0  0  0
 30 31  1  0  0  0
 31 32  2  0  0  0
 31 33  1  0  0  0
 33 34  1  0  0  0
 34 35  1  0  0  0
  1  4  1  0  0  0
  4  5  2  0  0  0
  5  6  1  0  0  0
  6  7  1  0  0  0
  6  8  2  0  0  0
  8  9  1  0  0  0
  9 10  2  0  0  0
 10 11  1  0  0  0
 11 12  1  0  0  0
 12 13  1  0  0  0
 12 14  1  0  0  0
 12 15  1  0  0  0
 32 27  1  0  0  0
 10  4  1  0  0  0
 35 30  1  0  0  0
 15  9  1  0  0  0
 18 21  1  0  0  0
  2  3  1  0  0  0
 25 26  1  0  0  0
 34 36  1  0  0  0
 11 16  1  0  0  0
 15 17  1  0  0  0
M  END
> <minimizedAffinity>
-8.30103

> <minimizedRMSD>
0.77828

$$$$
P17767


 33 37  0  0  0  0  0  0  0  0999 V2000
   -7.4879    4.6438  -15.4175 C   0  0  0  0  0  0  0  0  0  0  0  0
   -8.7627    4.2527  -15.8355 C   0  0  0  0  0  0  0  0  0  0  0  0
   -9.0642    4.1836  -17.1953 C   0  0  0  0  0  0  0  0  0  0  0  0
  -10.6923    3.9789  -17.6690 Cl  0  0  0  0  0  0  0  0  0  0  0  0
   -8.1140    4.4288  -18.1828 C   0  0  0  0  0  0  0  0  0  0  0  0
   -6.8464    4.8373  -17.7707 C   0  0  0  0  0  0  0  0  0  0  0  0
   -5.7661    5.1904  -18.5246 N   0  0  0  0  0  0  0  0  0  0  0  0
   -4.8257    5.5289  -17.6728 C   0  0  0  0  0  0  0  0  0  0  0  0
   -5.2735    5.4191  -16.3803 N   0  0  0  0  0  0  0  0  0  0  0  0
   -6.5639    4.9549  -16.4174 C   0  0  0  0  0  0  0  0  0  0  0  0
   -4.7592    5.6354  -15.5692 H   0  0  0  0  0  0  0  0  0  0  0  0
   -6.2939    5.6182  -13.7442 O   0  0  0  0  0  0  0  0  0  0  0  0
   -7.1656    4.8803  -13.9925 C   0  0  0  0  0  0  0  0  0  0  0  0
   -8.1041    4.0851  -13.0545 N   0  0  0  0  0  0  0  0  0  0  0  0
   -8.7160    3.4648  -13.5128 H   0  0  0  0  0  0  0  0  0  0  0  0
   -8.2244    4.1039  -11.6684 C   0  0  0  0  0  0  0  0  0  0  0  0
   -7.9680    5.2737  -10.9374 C   0  0  0  0  0  0  0  0  0  0  0  0
   -8.1102    5.2933   -9.5471 C   0  0  0  0  0  0  0  0  0  0  0  0
   -8.4840    4.1245   -8.9112 C   0  0  0  0  0  0  0  0  0  0  0  0
   -8.7317    2.9632   -9.6316 C   0  0  0  0  0  0  0  0  0  0  0  0
   -8.6220    2.9360  -11.0127 C   0  0  0  0  0  0  0  0  0  0  0  0
   -9.1279    1.8744   -8.6950 C   0  0  0  0  0  0  0  0  0  0  0  0
   -8.9127    2.4090   -7.3224 N   0  0  0  0  0  0  0  0  0  0  0  0
   -8.7140    3.8685   -7.4630 C   0  0  0  0  0  0  0  0  0  0  0  0
   -8.0876    1.9803   -6.9032 H   0  0  0  0  0  0  0  0  0  0  0  0
   -3.4381    5.9438  -18.0043 C   0  0  0  0  0  0  0  0  0  0  0  0
   -3.2666    6.4401  -19.4567 C   0  0  0  0  0  0  0  0  0  0  0  0
   -1.9888    5.8388  -20.0839 C   0  0  0  0  0  0  0  0  0  0  0  0
   -0.8247    6.8296  -20.1780 C   0  0  0  0  0  0  0  0  0  0  0  0
   -0.7707    7.6944  -19.0049 N   0  0  0  0  0  0  0  0  0  0  0  0
   -1.9550    8.5547  -18.9091 C   0  0  0  0  0  0  0  0  0  0  0  0
   -3.2100    7.9717  -19.5665 C   0  0  0  0  0  0  0  0  0  0  0  0
    0.0606    8.2822  -19.0657 H   0  0  0  0  0  0  0  0  0  0  0  0
 12 13  2  0  0  0
 13 14  1  0  0  0
 14 16  1  0  0  0
 16 17  2  0  0  0
 17 18  1  0  0  0
 18 19  2  0  0  0
 19 20  1  0  0  0
 20 21  2  0  0  0
 20 22  1  0  0  0
 22 23  1  0  0  0
 23 24  1  0  0  0
 13  1  1  0  0  0
  1  2  2  0  0  0
  2  3  1  0  0  0
  3  4  1  0  0  0
  3  5  2  0  0  0
  5  6  1  0  0  0
  6  7  1  0  0  0
  7  8  2  0  0  0
  8 26  1  0  0  0
 26 27  1  0  0  0
 27 28  1  0  0  0
 28 29  1  0  0  0
 29 30  1  0  0  0
 30 31  1  0  0  0
 31 32  1  0  0  0
  8  9  1  0  0  0
  9 10  1  0  0  0
 21 16  1  0  0  0
 10  1  1  0  0  0
 24 19  1  0  0  0
 10  6  2  0  0  0
 32 27  1  0  0  0
 14 15  1  0  0  0
 23 25  1  0  0  0
 30 33  1  0  0  0
  9 11  1  0  0  0
M  END
> <minimizedAffinity>
-8.66723

> <minimizedRMSD>
0.54678

$$$$
P17768


 28 31  0  0  0  0  0  0  0  0999 V2000
   -5.2152    5.7826  -16.3203 C   0  0  0  0  0  0  0  0  0  0  0  0
   -6.2049    5.7003  -15.4587 N   0  0  0  0  0  0  0  0  0  0  0  0
   -7.2206    5.0608  -16.1112 C   0  0  0  0  0  0  0  0  0  0  0  0
   -8.4724    4.6463  -15.6453 C   0  0  0  0  0  0  0  0  0  0  0  0
   -9.3359    3.9856  -16.5258 C   0  0  0  0  0  0  0  0  0  0  0  0
   -8.9804    3.7986  -17.8648 C   0  0  0  0  0  0  0  0  0  0  0  0
   -7.7426    4.2270  -18.3559 C   0  0  0  0  0  0  0  0  0  0  0  0
   -6.8797    4.8293  -17.4391 C   0  0  0  0  0  0  0  0  0  0  0  0
   -5.5947    5.3000  -17.5500 N   0  0  0  0  0  0  0  0  0  0  0  0
   -5.0432    5.2931  -18.3655 H   0  0  0  0  0  0  0  0  0  0  0  0
   -8.8764    4.9969  -14.2686 C   0  0  0  0  0  0  0  0  0  0  0  0
   -9.6457    5.8607  -14.1123 O   0  0  0  0  0  0  0  0  0  0  0  0
   -8.1691    4.0887  -13.2403 N   0  0  0  0  0  0  0  0  0  0  0  0
   -7.6156    3.3752  -13.6325 H   0  0  0  0  0  0  0  0  0  0  0  0
   -8.1864    4.1142  -11.8473 C   0  0  0  0  0  0  0  0  0  0  0  0
   -7.9309    5.3020  -11.1410 C   0  0  0  0  0  0  0  0  0  0  0  0
   -7.9927    5.3350   -9.7441 C   0  0  0  0  0  0  0  0  0  0  0  0
   -8.3447    4.1748   -9.0818 C   0  0  0  0  0  0  0  0  0  0  0  0
   -8.5903    2.9952   -9.7787 C   0  0  0  0  0  0  0  0  0  0  0  0
   -8.4905    2.9387  -11.1585 C   0  0  0  0  0  0  0  0  0  0  0  0
   -8.9597    1.9241   -8.8070 C   0  0  0  0  0  0  0  0  0  0  0  0
   -9.2840    2.6454   -7.5449 N   0  0  0  0  0  0  0  0  0  0  0  0
   -8.5412    3.9240   -7.6251 C   0  0  0  0  0  0  0  0  0  0  0  0
   -8.9788    2.1048   -6.7356 H   0  0  0  0  0  0  0  0  0  0  0  0
   -3.8848    6.3835  -16.0319 C   0  0  0  0  0  0  0  0  0  0  0  0
   -2.8964    4.8991  -14.3597 C   0  0  0  0  0  0  0  0  0  0  0  0
   -2.8092    5.4148  -15.7318 N   0  0  0  0  0  0  0  0  0  0  0  0
   -1.5126    6.0735  -15.9173 C   0  0  0  0  0  0  0  0  0  0  0  0
 26 27  1  0  0  0
 27 28  1  0  0  0
 27 25  1  0  0  0
 25  1  1  0  0  0
  1  2  2  0  0  0
  2  3  1  0  0  0
  3  4  2  0  0  0
  4 11  1  0  0  0
 11 12  2  0  0  0
 11 13  1  0  0  0
 13 15  1  0  0  0
 15 16  2  0  0  0
 16 17  1  0  0  0
 17 18  2  0  0  0
 18 19  1  0  0  0
 19 20  2  0  0  0
 19 21  1  0  0  0
 21 22  1  0  0  0
 22 23  1  0  0  0
  4  5  1  0  0  0
  5  6  2  0  0  0
  6  7  1  0  0  0
  7  8  2  0  0  0
  8  9  1  0  0  0
  9  1  1  0  0  0
  8  3  1  0  0  0
 20 15  1  0  0  0
 23 18  1  0  0  0
 13 14  1  0  0  0
 22 24  1  0  0  0
  9 10  1  0  0  0
M  END
> <minimizedAffinity>
-8.37419

> <minimizedRMSD>
0.58901

$$$$
P17769


 31 35  0  0  0  0  0  0  0  0999 V2000
   -7.4677    4.6231  -15.4656 C   0  0  0  0  0  0  0  0  0  0  0  0
   -8.7422    4.2246  -15.8743 C   0  0  0  0  0  0  0  0  0  0  0  0
   -9.0578    4.1753  -17.2320 C   0  0  0  0  0  0  0  0  0  0  0  0
  -10.6886    3.9459  -17.6855 Cl  0  0  0  0  0  0  0  0  0  0  0  0
   -8.1226    4.4544  -18.2272 C   0  0  0  0  0  0  0  0  0  0  0  0
   -6.8541    4.8709  -17.8238 C   0  0  0  0  0  0  0  0  0  0  0  0
   -5.7807    5.2536  -18.5792 N   0  0  0  0  0  0  0  0  0  0  0  0
   -4.8313    5.5738  -17.7271 C   0  0  0  0  0  0  0  0  0  0  0  0
   -5.2747    5.4376  -16.4357 N   0  0  0  0  0  0  0  0  0  0  0  0
   -6.5603    4.9621  -16.4719 C   0  0  0  0  0  0  0  0  0  0  0  0
   -4.7588    5.6455  -15.6234 H   0  0  0  0  0  0  0  0  0  0  0  0
   -6.2016    5.5183  -13.8024 O   0  0  0  0  0  0  0  0  0  0  0  0
   -7.1220    4.8386  -14.0421 C   0  0  0  0  0  0  0  0  0  0  0  0
   -8.1018    4.1067  -13.0949 N   0  0  0  0  0  0  0  0  0  0  0  0
   -8.7570    3.5275  -13.5472 H   0  0  0  0  0  0  0  0  0  0  0  0
   -8.2079    4.1336  -11.7079 C   0  0  0  0  0  0  0  0  0  0  0  0
   -7.9610    5.3131  -10.9888 C   0  0  0  0  0  0  0  0  0  0  0  0
   -8.0896    5.3419   -9.5974 C   0  0  0  0  0  0  0  0  0  0  0  0
   -8.4387    4.1727   -8.9486 C   0  0  0  0  0  0  0  0  0  0  0  0
   -8.6759    3.0020   -9.6572 C   0  0  0  0  0  0  0  0  0  0  0  0
   -8.5817    2.9654  -11.0392 C   0  0  0  0  0  0  0  0  0  0  0  0
   -9.0442    1.9147   -8.7075 C   0  0  0  0  0  0  0  0  0  0  0  0
   -8.8195    2.4631   -7.3420 N   0  0  0  0  0  0  0  0  0  0  0  0
   -8.6497    3.9247   -7.4961 C   0  0  0  0  0  0  0  0  0  0  0  0
   -7.9808    2.0528   -6.9315 H   0  0  0  0  0  0  0  0  0  0  0  0
   -3.4676    6.0109  -18.1229 C   0  0  0  0  0  0  0  0  0  0  0  0
   -2.3666    5.6706  -17.1223 C   0  0  0  0  0  0  0  0  0  0  0  0
   -1.9270    6.7845  -16.1420 C   0  0  0  0  0  0  0  0  0  0  0  0
   -0.8667    7.1522  -17.0993 N   0  0  0  0  0  0  0  0  0  0  0  0
   -0.9270    5.7935  -17.6722 C   0  0  0  0  0  0  0  0  0  0  0  0
    0.0268    7.3831  -16.6648 H   0  0  0  0  0  0  0  0  0  0  0  0
 12 13  2  0  0  0
 13 14  1  0  0  0
 14 16  1  0  0  0
 16 17  2  0  0  0
 17 18  1  0  0  0
 18 19  2  0  0  0
 19 20  1  0  0  0
 20 21  2  0  0  0
 20 22  1  0  0  0
 22 23  1  0  0  0
 23 24  1  0  0  0
 13  1  1  0  0  0
  1  2  2  0  0  0
  2  3  1  0  0  0
  3  4  1  0  0  0
  3  5  2  0  0  0
  5  6  1  0  0  0
  6  7  1  0  0  0
  7  8  2  0  0  0
  8 26  1  0  0  0
 26 27  1  0  0  0
 27 28  1  0  0  0
 28 29  1  0  0  0
 29 30  1  0  0  0
  8  9  1  0  0  0
  9 10  1  0  0  0
 21 16  1  0  0  0
 10  1  1  0  0  0
 24 19  1  0  0  0
 10  6  2  0  0  0
 30 27  1  0  0  0
 14 15  1  0  0  0
 23 25  1  0  0  0
 29 31  1  0  0  0
  9 11  1  0  0  0
M  END
> <minimizedAffinity>
-8.40258

> <minimizedRMSD>
0.51705

$$$$
P17770


 27 31  0  0  0  0  0  0  0  0999 V2000
   -9.5628    5.7392  -13.8182 O   0  0  0  0  0  0  0  0  0  0  0  0
   -8.7442    4.9126  -13.9067 C   0  0  0  0  0  0  0  0  0  0  0  0
   -8.1030    4.0213  -12.8248 N   0  0  0  0  0  0  0  0  0  0  0  0
   -7.4819    3.3389  -13.1680 H   0  0  0  0  0  0  0  0  0  0  0  0
   -8.2036    4.6252  -15.2412 C   0  0  0  0  0  0  0  0  0  0  0  0
   -9.0458    4.2049  -16.3352 C   0  0  0  0  0  0  0  0  0  0  0  0
   -8.5910    4.1927  -17.6921 C   0  0  0  0  0  0  0  0  0  0  0  0
   -7.2974    4.5863  -17.9263 C   0  0  0  0  0  0  0  0  0  0  0  0
   -6.3825    4.8714  -18.9613 N   0  0  0  0  0  0  0  0  0  0  0  0
   -5.1521    5.3779  -18.4523 C   0  0  0  0  0  0  0  0  0  0  0  0
   -4.1309    5.7930  -18.9595 O   0  0  0  0  0  0  0  0  0  0  0  0
   -5.3552    5.3589  -17.0769 N   0  0  0  0  0  0  0  0  0  0  0  0
   -4.8270    5.6718  -15.8692 C   0  0  0  0  0  0  0  0  0  0  0  0
   -5.7306    5.4596  -14.9008 N   0  0  0  0  0  0  0  0  0  0  0  0
   -6.8800    4.9813  -15.5271 C   0  0  0  0  0  0  0  0  0  0  0  0
   -6.5856    4.9072  -16.8339 C   0  0  0  0  0  0  0  0  0  0  0  0
   -6.5711    4.7367  -19.9181 H   0  0  0  0  0  0  0  0  0  0  0  0
   -8.2592    4.0241  -11.4410 C   0  0  0  0  0  0  0  0  0  0  0  0
   -8.0341    5.1953  -10.6984 C   0  0  0  0  0  0  0  0  0  0  0  0
   -8.1574    5.1980   -9.3063 C   0  0  0  0  0  0  0  0  0  0  0  0
   -8.5220    4.0209   -8.6809 C   0  0  0  0  0  0  0  0  0  0  0  0
   -8.7626    2.8663   -9.4133 C   0  0  0  0  0  0  0  0  0  0  0  0
   -8.6237    2.8433  -10.7931 C   0  0  0  0  0  0  0  0  0  0  0  0
   -9.1781    1.7706   -8.4940 C   0  0  0  0  0  0  0  0  0  0  0  0
   -9.0863    2.3182   -7.1123 N   0  0  0  0  0  0  0  0  0  0  0  0
   -8.7425    3.7518   -7.2344 C   0  0  0  0  0  0  0  0  0  0  0  0
   -8.3609    1.8278   -6.5891 H   0  0  0  0  0  0  0  0  0  0  0  0
  1  2  2  0  0  0
  2  3  1  0  0  0
  3 18  1  0  0  0
 18 19  2  0  0  0
 19 20  1  0  0  0
 20 21  2  0  0  0
 21 22  1  0  0  0
 22 23  2  0  0  0
 22 24  1  0  0  0
 24 25  1  0  0  0
 25 26  1  0  0  0
  2  5  1  0  0  0
  5  6  2  0  0  0
  6  7  1  0  0  0
  7  8  2  0  0  0
  8  9  1  0  0  0
  9 10  1  0  0  0
 10 11  2  0  0  0
 10 12  1  0  0  0
 12 13  1  0  0  0
 13 14  2  0  0  0
 14 15  1  0  0  0
 15 16  2  0  0  0
 23 18  1  0  0  0
 15  5  1  0  0  0
 26 21  1  0  0  0
 16  8  1  0  0  0
 16 12  1  0  0  0
  3  4  1  0  0  0
 25 27  1  0  0  0
  9 17  1  0  0  0
M  END
> <minimizedAffinity>
-9.90212

> <minimizedRMSD>
0.64161

$$$$
P17774


 29 32  0  0  0  0  0  0  0  0999 V2000
   -7.7080    5.3543  -13.6419 C   0  0  0  0  0  0  0  0  0  0  0  0
   -7.5154    6.4856  -13.4181 O   0  0  0  0  0  0  0  0  0  0  0  0
   -8.1125    4.1951  -12.6908 N   0  0  0  0  0  0  0  0  0  0  0  0
   -8.2905    3.3369  -13.1393 H   0  0  0  0  0  0  0  0  0  0  0  0
   -8.2648    4.1722  -11.3023 C   0  0  0  0  0  0  0  0  0  0  0  0
   -8.0025    5.3125  -10.5294 C   0  0  0  0  0  0  0  0  0  0  0  0
   -8.1397    5.2861   -9.1356 C   0  0  0  0  0  0  0  0  0  0  0  0
   -8.5480    4.1100   -8.5284 C   0  0  0  0  0  0  0  0  0  0  0  0
   -8.8309    2.9835   -9.2962 C   0  0  0  0  0  0  0  0  0  0  0  0
   -8.6980    2.9956  -10.6811 C   0  0  0  0  0  0  0  0  0  0  0  0
   -9.2300    1.8512   -8.4022 C   0  0  0  0  0  0  0  0  0  0  0  0
   -9.1922    2.3883   -7.0213 N   0  0  0  0  0  0  0  0  0  0  0  0
  -10.4074    2.1522   -6.2758 C   0  0  0  0  0  0  0  0  0  0  0  0
   -8.6415    3.7594   -7.0683 C   0  0  0  0  0  0  0  0  0  0  0  0
   -9.3053    4.8150   -6.1842 C   0  0  0  0  0  0  0  0  0  0  0  0
   -5.4059    5.2499  -17.7636 N   0  0  0  0  0  0  0  0  0  0  0  0
   -4.6251    5.6179  -16.7049 C   0  0  0  0  0  0  0  0  0  0  0  0
   -5.2642    5.5344  -15.5612 N   0  0  0  0  0  0  0  0  0  0  0  0
   -6.5338    5.1085  -15.8673 C   0  0  0  0  0  0  0  0  0  0  0  0
   -7.6706    4.9040  -15.0554 C   0  0  0  0  0  0  0  0  0  0  0  0
   -8.8678    4.4868  -15.6528 C   0  0  0  0  0  0  0  0  0  0  0  0
   -8.9296    4.3008  -17.0282 C   0  0  0  0  0  0  0  0  0  0  0  0
  -10.4576    4.0824  -17.7586 Cl  0  0  0  0  0  0  0  0  0  0  0  0
   -7.8184    4.4604  -17.8545 C   0  0  0  0  0  0  0  0  0  0  0  0
   -6.6365    4.8883  -17.2451 C   0  0  0  0  0  0  0  0  0  0  0  0
   -5.1189    5.3302  -19.1997 C   0  0  0  0  0  0  0  0  0  0  0  0
   -2.8580    4.7029  -19.9289 C   0  0  0  0  0  0  0  0  0  0  0  0
   -3.7497    5.7595  -19.4878 N   0  0  0  0  0  0  0  0  0  0  0  0
   -3.7874    6.4685  -20.2201 H   0  0  0  0  0  0  0  0  0  0  0  0
 27 28  1  0  0  0
 28 26  1  0  0  0
 26 16  1  0  0  0
 16 17  1  0  0  0
 17 18  2  0  0  0
 18 19  1  0  0  0
 19 20  2  0  0  0
 20  1  1  0  0  0
  1  2  2  0  0  0
  1  3  1  0  0  0
  3  5  1  0  0  0
  5  6  2  0  0  0
  6  7  1  0  0  0
  7  8  2  0  0  0
  8  9  1  0  0  0
  9 10  2  0  0  0
  9 11  1  0  0  0
 11 12  1  0  0  0
 12 13  1  0  0  0
 12 14  1  0  0  0
 14 15  1  0  0  0
 20 21  1  0  0  0
 21 22  2  0  0  0
 22 23  1  0  0  0
 22 24  1  0  0  0
 24 25  2  0  0  0
 25 16  1  0  0  0
 25 19  1  0  0  0
 10  5  1  0  0  0
 14  8  1  0  0  0
 28 29  1  0  0  0
  3  4  1  0  0  0
M  END
> <minimizedAffinity>
-8.58457

> <minimizedRMSD>
0.28297

$$$$
P17775


 33 37  0  0  0  0  0  0  0  0999 V2000
   -7.4748    5.3600  -13.5985 C   0  0  0  0  0  0  0  0  0  0  0  0
   -7.2513    6.4847  -13.3729 O   0  0  0  0  0  0  0  0  0  0  0  0
   -7.8529    4.1981  -12.6420 N   0  0  0  0  0  0  0  0  0  0  0  0
   -7.9166    3.3146  -13.0717 H   0  0  0  0  0  0  0  0  0  0  0  0
   -8.1184    4.2019  -11.2656 C   0  0  0  0  0  0  0  0  0  0  0  0
   -8.4755    2.9703  -10.6872 C   0  0  0  0  0  0  0  0  0  0  0  0
   -8.7343    2.9017   -9.3188 C   0  0  0  0  0  0  0  0  0  0  0  0
   -8.6502    4.0224   -8.5074 C   0  0  0  0  0  0  0  0  0  0  0  0
   -8.3245    5.2329   -9.0659 C   0  0  0  0  0  0  0  0  0  0  0  0
   -8.0631    5.3191  -10.4304 C   0  0  0  0  0  0  0  0  0  0  0  0
   -7.7419    6.5951  -10.8094 O   0  0  0  0  0  0  0  0  0  0  0  0
   -7.9549    7.4408   -9.6514 C   0  0  0  0  0  0  0  0  0  0  0  0
   -6.7229    8.3364   -9.5066 C   0  0  0  0  0  0  0  0  0  0  0  0
   -9.1932    8.3030   -9.9178 C   0  0  0  0  0  0  0  0  0  0  0  0
   -8.1422    6.5458   -8.4125 C   0  0  0  0  0  0  0  0  0  0  0  0
   -8.9563    3.6563   -7.1018 C   0  0  0  0  0  0  0  0  0  0  0  0
   -9.1370    2.1883   -7.0761 N   0  0  0  0  0  0  0  0  0  0  0  0
   -9.1204    1.7229   -8.4917 C   0  0  0  0  0  0  0  0  0  0  0  0
  -10.0286    1.9526   -6.6403 H   0  0  0  0  0  0  0  0  0  0  0  0
   -5.4129    5.2936  -17.8234 N   0  0  0  0  0  0  0  0  0  0  0  0
   -4.5727    5.6589  -16.8107 C   0  0  0  0  0  0  0  0  0  0  0  0
   -5.1477    5.5702  -15.6341 N   0  0  0  0  0  0  0  0  0  0  0  0
   -6.4281    5.1355  -15.8736 C   0  0  0  0  0  0  0  0  0  0  0  0
   -7.5161    4.9193  -15.0065 C   0  0  0  0  0  0  0  0  0  0  0  0
   -8.7447    4.4926  -15.5283 C   0  0  0  0  0  0  0  0  0  0  0  0
   -8.8838    4.3124  -16.8977 C   0  0  0  0  0  0  0  0  0  0  0  0
  -10.4457    4.0786  -17.5468 Cl  0  0  0  0  0  0  0  0  0  0  0  0
   -7.8226    4.4887  -17.7842 C   0  0  0  0  0  0  0  0  0  0  0  0
   -6.6094    4.9217  -17.2427 C   0  0  0  0  0  0  0  0  0  0  0  0
   -5.1918    5.3836  -19.2669 C   0  0  0  0  0  0  0  0  0  0  0  0
   -3.0801    5.9417  -20.3322 C   0  0  0  0  0  0  0  0  0  0  0  0
   -3.8540    4.9254  -19.6425 N   0  0  0  0  0  0  0  0  0  0  0  0
   -3.3536    4.6542  -18.7961 H   0  0  0  0  0  0  0  0  0  0  0  0
 31 32  1  0  0  0
 32 30  1  0  0  0
 30 20  1  0  0  0
 20 21  1  0  0  0
 21 22  2  0  0  0
 22 23  1  0  0  0
 23 24  2  0  0  0
 24  1  1  0  0  0
  1  2  2  0  0  0
  1  3  1  0  0  0
  3  5  1  0  0  0
  5  6  2  0  0  0
  6  7  1  0  0  0
  7  8  2  0  0  0
  8  9  1  0  0  0
  9 10  2  0  0  0
 10 11  1  0  0  0
 11 12  1  0  0  0
 12 13  1  0  0  0
 12 14  1  0  0  0
 12 15  1  0  0  0
  8 16  1  0  0  0
 16 17  1  0  0  0
 17 18  1  0  0  0
 24 25  1  0  0  0
 25 26  2  0  0  0
 26 27  1  0  0  0
 26 28  1  0  0  0
 28 29  2  0  0  0
 29 20  1  0  0  0
 29 23  1  0  0  0
 10  5  1  0  0  0
 18  7  1  0  0  0
 15  9  1  0  0  0
 32 33  1  0  0  0
  3  4  1  0  0  0
 17 19  1  0  0  0
M  END
> <minimizedAffinity>
-8.93349

> <minimizedRMSD>
0.35846

$$$$
P17776


 29 32  0  0  0  0  0  0  0  0999 V2000
   -7.7178    5.4105  -13.5629 C   0  0  0  0  0  0  0  0  0  0  0  0
   -7.7344    6.5580  -13.3451 O   0  0  0  0  0  0  0  0  0  0  0  0
   -7.8338    4.2038  -12.5984 N   0  0  0  0  0  0  0  0  0  0  0  0
   -7.7134    3.3237  -13.0230 H   0  0  0  0  0  0  0  0  0  0  0  0
   -8.0808    4.1614  -11.2276 C   0  0  0  0  0  0  0  0  0  0  0  0
   -7.9315    5.3047  -10.4316 C   0  0  0  0  0  0  0  0  0  0  0  0
   -8.1857    5.2390   -9.0645 C   0  0  0  0  0  0  0  0  0  0  0  0
   -8.0461    6.3317   -8.3041 F   0  0  0  0  0  0  0  0  0  0  0  0
   -8.5789    4.0459   -8.5012 C   0  0  0  0  0  0  0  0  0  0  0  0
   -8.7477    2.9181   -9.2883 C   0  0  0  0  0  0  0  0  0  0  0  0
   -8.5054    2.9559  -10.6546 C   0  0  0  0  0  0  0  0  0  0  0  0
   -9.1989    1.7836   -8.4344 C   0  0  0  0  0  0  0  0  0  0  0  0
   -9.2000    2.2844   -7.0311 N   0  0  0  0  0  0  0  0  0  0  0  0
   -8.8816    3.7307   -7.0843 C   0  0  0  0  0  0  0  0  0  0  0  0
   -8.4953    1.7910   -6.4830 H   0  0  0  0  0  0  0  0  0  0  0  0
   -5.3972    5.2957  -17.6539 N   0  0  0  0  0  0  0  0  0  0  0  0
   -4.6071    5.6215  -16.5897 C   0  0  0  0  0  0  0  0  0  0  0  0
   -5.2537    5.5373  -15.4491 N   0  0  0  0  0  0  0  0  0  0  0  0
   -6.5283    5.1358  -15.7659 C   0  0  0  0  0  0  0  0  0  0  0  0
   -7.6772    4.9560  -14.9699 C   0  0  0  0  0  0  0  0  0  0  0  0
   -8.8789    4.5518  -15.5709 C   0  0  0  0  0  0  0  0  0  0  0  0
   -8.9268    4.3448  -16.9426 C   0  0  0  0  0  0  0  0  0  0  0  0
  -10.4426    4.1196  -17.6957 Cl  0  0  0  0  0  0  0  0  0  0  0  0
   -7.8040    4.4863  -17.7558 C   0  0  0  0  0  0  0  0  0  0  0  0
   -6.6247    4.9148  -17.1415 C   0  0  0  0  0  0  0  0  0  0  0  0
   -5.1469    5.4744  -19.0871 C   0  0  0  0  0  0  0  0  0  0  0  0
   -2.9603    4.7464  -19.8634 C   0  0  0  0  0  0  0  0  0  0  0  0
   -3.7735    5.8565  -19.4065 N   0  0  0  0  0  0  0  0  0  0  0  0
   -3.7968    6.5643  -20.1406 H   0  0  0  0  0  0  0  0  0  0  0  0
 27 28  1  0  0  0
 28 26  1  0  0  0
 26 16  1  0  0  0
 16 17  1  0  0  0
 17 18  2  0  0  0
 18 19  1  0  0  0
 19 20  2  0  0  0
 20  1  1  0  0  0
  1  2  2  0  0  0
  1  3  1  0  0  0
  3  5  1  0  0  0
  5  6  2  0  0  0
  6  7  1  0  0  0
  7  8  1  0  0  0
  7  9  2  0  0  0
  9 10  1  0  0  0
 10 11  2  0  0  0
 10 12  1  0  0  0
 12 13  1  0  0  0
 13 14  1  0  0  0
 20 21  1  0  0  0
 21 22  2  0  0  0
 22 23  1  0  0  0
 22 24  1  0  0  0
 24 25  2  0  0  0
 25 16  1  0  0  0
 25 19  1  0  0  0
 11  5  1  0  0  0
 14  9  1  0  0  0
 28 29  1  0  0  0
  3  4  1  0  0  0
 13 15  1  0  0  0
M  END
> <minimizedAffinity>
-8.39374

> <minimizedRMSD>
0.48192

$$$$
P17779


 31 34  0  0  0  0  0  0  0  0999 V2000
   -7.3689    5.4673  -13.8338 C   0  0  0  0  0  0  0  0  0  0  0  0
   -6.9712    6.5543  -13.6609 O   0  0  0  0  0  0  0  0  0  0  0  0
   -7.9429    4.4327  -12.8258 N   0  0  0  0  0  0  0  0  0  0  0  0
   -8.2846    3.6047  -13.2344 H   0  0  0  0  0  0  0  0  0  0  0  0
   -5.2717    5.3730  -18.0113 N   0  0  0  0  0  0  0  0  0  0  0  0
   -4.4570    5.7492  -16.9776 C   0  0  0  0  0  0  0  0  0  0  0  0
   -5.0775    5.7131  -15.8263 N   0  0  0  0  0  0  0  0  0  0  0  0
   -6.3428    5.2502  -16.0993 C   0  0  0  0  0  0  0  0  0  0  0  0
   -7.4268    4.9973  -15.2322 C   0  0  0  0  0  0  0  0  0  0  0  0
   -8.6229    4.5014  -15.7528 C   0  0  0  0  0  0  0  0  0  0  0  0
   -8.7397    4.2977  -17.1240 C   0  0  0  0  0  0  0  0  0  0  0  0
  -10.2830    3.9013  -17.7425 Cl  0  0  0  0  0  0  0  0  0  0  0  0
   -7.6857    4.5328  -18.0167 C   0  0  0  0  0  0  0  0  0  0  0  0
   -6.4908    5.0186  -17.4722 C   0  0  0  0  0  0  0  0  0  0  0  0
   -4.8038    5.1514  -19.3716 C   0  0  0  0  0  0  0  0  0  0  0  0
   -2.6260    5.3889  -20.3839 C   0  0  0  0  0  0  0  0  0  0  0  0
   -3.7234    6.0733  -19.7107 N   0  0  0  0  0  0  0  0  0  0  0  0
   -4.0888    6.7992  -20.3272 H   0  0  0  0  0  0  0  0  0  0  0  0
   -8.0526    4.4870  -11.4340 C   0  0  0  0  0  0  0  0  0  0  0  0
   -7.5935    5.6337  -10.7664 C   0  0  0  0  0  0  0  0  0  0  0  0
   -7.6412    5.7285   -9.3794 C   0  0  0  0  0  0  0  0  0  0  0  0
   -8.1670    4.6670   -8.6732 C   0  0  0  0  0  0  0  0  0  0  0  0
   -8.6639    3.5380   -9.3135 C   0  0  0  0  0  0  0  0  0  0  0  0
   -8.6010    3.4218  -10.7023 C   0  0  0  0  0  0  0  0  0  0  0  0
   -9.2589    2.6216   -8.2798 C   0  0  0  0  0  0  0  0  0  0  0  0
   -8.9506    3.2382   -6.9510 N   0  0  0  0  0  0  0  0  0  0  0  0
   -8.3039    4.5371   -7.1989 C   0  0  0  0  0  0  0  0  0  0  0  0
  -10.0895    3.3887   -6.0367 C   0  0  0  0  0  0  0  0  0  0  0  0
  -10.6989    2.1534   -5.3817 C   0  0  0  0  0  0  0  0  0  0  0  0
  -12.0254    2.3927   -5.1582 F   0  0  0  0  0  0  0  0  0  0  0  0
  -10.6263    1.0819   -6.1939 F   0  0  0  0  0  0  0  0  0  0  0  0
 16 17  1  0  0  0
 17 15  1  0  0  0
 15  5  1  0  0  0
  5  6  1  0  0  0
  6  7  2  0  0  0
  7  8  1  0  0  0
  8  9  2  0  0  0
  9  1  1  0  0  0
  1  2  2  0  0  0
  1  3  1  0  0  0
  3 19  1  0  0  0
 19 20  2  0  0  0
 20 21  1  0  0  0
 21 22  2  0  0  0
 22 23  1  0  0  0
 23 24  2  0  0  0
 23 25  1  0  0  0
 25 26  1  0  0  0
 26 28  1  0  0  0
 28 29  1  0  0  0
 29 30  1  0  0  0
 29 31  1  0  0  0
 26 27  1  0  0  0
  9 10  1  0  0  0
 10 11  2  0  0  0
 11 12  1  0  0  0
 11 13  1  0  0  0
 13 14  2  0  0  0
 14  5  1  0  0  0
 14  8  1  0  0  0
 24 19  1  0  0  0
 27 22  1  0  0  0
 17 18  1  0  0  0
  3  4  1  0  0  0
M  END
> <minimizedAffinity>
-8.25262

> <minimizedRMSD>
0.27398

$$$$
P17780


 29 33  0  0  0  0  0  0  0  0999 V2000
   -8.4784    4.5236  -15.6922 C   0  0  0  0  0  0  0  0  0  0  0  0
   -9.4616    3.9603  -16.5231 C   0  0  0  0  0  0  0  0  0  0  0  0
   -9.2102    3.7467  -17.8778 C   0  0  0  0  0  0  0  0  0  0  0  0
   -7.9953    4.1290  -18.4524 C   0  0  0  0  0  0  0  0  0  0  0  0
   -7.0298    4.7002  -17.6118 C   0  0  0  0  0  0  0  0  0  0  0  0
   -7.2224    4.8506  -16.2361 C   0  0  0  0  0  0  0  0  0  0  0  0
   -6.0826    5.3443  -15.6401 N   0  0  0  0  0  0  0  0  0  0  0  0
   -5.2527    5.5765  -16.6292 C   0  0  0  0  0  0  0  0  0  0  0  0
   -5.8118    5.2982  -17.8486 N   0  0  0  0  0  0  0  0  0  0  0  0
   -9.5755    5.8478  -14.1964 O   0  0  0  0  0  0  0  0  0  0  0  0
   -8.8212    4.9644  -14.3197 C   0  0  0  0  0  0  0  0  0  0  0  0
   -8.1542    4.0600  -13.2571 N   0  0  0  0  0  0  0  0  0  0  0  0
   -7.6079    3.3276  -13.6236 H   0  0  0  0  0  0  0  0  0  0  0  0
   -8.2007    4.1131  -11.8659 C   0  0  0  0  0  0  0  0  0  0  0  0
   -7.8882    5.2961  -11.1774 C   0  0  0  0  0  0  0  0  0  0  0  0
   -7.9612    5.3540   -9.7825 C   0  0  0  0  0  0  0  0  0  0  0  0
   -8.3498    4.2165   -9.0998 C   0  0  0  0  0  0  0  0  0  0  0  0
   -8.6644    3.0468   -9.7781 C   0  0  0  0  0  0  0  0  0  0  0  0
   -8.5925    2.9734  -11.1604 C   0  0  0  0  0  0  0  0  0  0  0  0
   -9.0864    2.0031   -8.8028 C   0  0  0  0  0  0  0  0  0  0  0  0
   -8.8697    2.5819   -7.4479 N   0  0  0  0  0  0  0  0  0  0  0  0
   -8.5378    4.0112   -7.6382 C   0  0  0  0  0  0  0  0  0  0  0  0
   -8.1001    2.1024   -6.9808 H   0  0  0  0  0  0  0  0  0  0  0  0
   -5.3699    5.7384  -19.1334 N   0  0  0  0  0  0  0  0  0  0  0  0
   -5.8948    6.5798  -19.3718 H   0  0  0  0  0  0  0  0  0  0  0  0
   -3.9534    6.0499  -19.2527 C   0  0  0  0  0  0  0  0  0  0  0  0
   -3.6860    6.6771  -20.6396 C   0  0  0  0  0  0  0  0  0  0  0  0
   -2.4441    5.7613  -20.7222 C   0  0  0  0  0  0  0  0  0  0  0  0
   -3.1609    4.8154  -19.7330 C   0  0  0  0  0  0  0  0  0  0  0  0
 10 11  2  0  0  0
 11 12  1  0  0  0
 12 14  1  0  0  0
 14 15  2  0  0  0
 15 16  1  0  0  0
 16 17  2  0  0  0
 17 18  1  0  0  0
 18 19  2  0  0  0
 18 20  1  0  0  0
 20 21  1  0  0  0
 21 22  1  0  0  0
 11  1  1  0  0  0
  1  2  2  0  0  0
  2  3  1  0  0  0
  3  4  2  0  0  0
  4  5  1  0  0  0
  5  6  2  0  0  0
  6  7  1  0  0  0
  7  8  2  0  0  0
  8  9  1  0  0  0
  9 24  1  0  0  0
 24 26  1  0  0  0
 26 27  1  0  0  0
 27 28  1  0  0  0
 28 29  1  0  0  0
 19 14  1  0  0  0
  6  1  1  0  0  0
 29 26  1  0  0  0
 22 17  1  0  0  0
  9  5  1  0  0  0
 12 13  1  0  0  0
 21 23  1  0  0  0
 24 25  1  0  0  0
M  END
> <minimizedAffinity>
-9.46821

> <minimizedRMSD>
0.87664

$$$$
P17781


 33 38  0  0  0  0  0  0  0  0999 V2000
   -7.4087    4.8290  -15.1113 C   0  0  0  0  0  0  0  0  0  0  0  0
   -8.6260    4.3021  -15.5592 C   0  0  0  0  0  0  0  0  0  0  0  0
   -8.8529    4.1275  -16.9295 C   0  0  0  0  0  0  0  0  0  0  0  0
  -10.0523    3.6828  -17.3273 F   0  0  0  0  0  0  0  0  0  0  0  0
   -7.8877    4.4415  -17.8877 C   0  0  0  0  0  0  0  0  0  0  0  0
   -6.6799    4.9531  -17.4463 C   0  0  0  0  0  0  0  0  0  0  0  0
   -6.4406    5.1565  -16.0612 C   0  0  0  0  0  0  0  0  0  0  0  0
   -5.2000    5.8689  -15.8417 N   0  0  0  0  0  0  0  0  0  0  0  0
   -4.5114    5.4942  -17.0648 C   0  0  0  0  0  0  0  0  0  0  0  0
   -3.3267    6.2730  -17.5827 C   0  0  0  0  0  0  0  0  0  0  0  0
   -3.4688    6.0664  -19.1264 C   0  0  0  0  0  0  0  0  0  0  0  0
   -4.6241    5.0319  -19.2924 C   0  0  0  0  0  0  0  0  0  0  0  0
   -5.5519    5.5698  -18.2129 C   0  0  0  0  0  0  0  0  0  0  0  0
   -5.9490    7.0229  -18.6154 C   0  0  0  0  0  0  0  0  0  0  0  0
   -5.2629    7.5606  -19.8106 N   0  0  0  0  0  0  0  0  0  0  0  0
   -3.8234    7.3719  -19.7138 N   0  0  0  0  0  0  0  0  0  0  0  0
   -4.9105    6.4359  -15.0907 H   0  0  0  0  0  0  0  0  0  0  0  0
   -5.4641    8.5573  -19.8906 H   0  0  0  0  0  0  0  0  0  0  0  0
   -3.4341    8.1114  -19.1289 H   0  0  0  0  0  0  0  0  0  0  0  0
   -6.4536    5.9572  -13.3655 O   0  0  0  0  0  0  0  0  0  0  0  0
   -7.2149    5.1239  -13.6658 C   0  0  0  0  0  0  0  0  0  0  0  0
   -8.1563    4.2614  -12.7889 N   0  0  0  0  0  0  0  0  0  0  0  0
   -8.7646    3.6733  -13.2923 H   0  0  0  0  0  0  0  0  0  0  0  0
   -8.2823    4.1823  -11.4025 C   0  0  0  0  0  0  0  0  0  0  0  0
   -8.0492    5.3028  -10.5880 C   0  0  0  0  0  0  0  0  0  0  0  0
   -8.2012    5.2262   -9.1992 C   0  0  0  0  0  0  0  0  0  0  0  0
   -8.5992    4.0217   -8.6513 C   0  0  0  0  0  0  0  0  0  0  0  0
   -8.8232    2.9070   -9.4531 C   0  0  0  0  0  0  0  0  0  0  0  0
   -8.6613    2.9648  -10.8285 C   0  0  0  0  0  0  0  0  0  0  0  0
   -9.2237    1.7585   -8.5861 C   0  0  0  0  0  0  0  0  0  0  0  0
   -9.5829    2.3675   -7.2766 N   0  0  0  0  0  0  0  0  0  0  0  0
   -8.8529    3.6544   -7.2280 C   0  0  0  0  0  0  0  0  0  0  0  0
   -9.2907    1.7622   -6.5094 H   0  0  0  0  0  0  0  0  0  0  0  0
 20 21  2  0  0  0
 21 22  1  0  0  0
 22 24  1  0  0  0
 24 25  2  0  0  0
 25 26  1  0  0  0
 26 27  2  0  0  0
 27 28  1  0  0  0
 28 29  2  0  0  0
 28 30  1  0  0  0
 30 31  1  0  0  0
 31 32  1  0  0  0
 21  1  1  0  0  0
  1  2  2  0  0  0
  2  3  1  0  0  0
  3  4  1  0  0  0
  3  5  2  0  0  0
  5  6  1  0  0  0
  6  7  2  0  0  0
  7  8  1  0  0  0
  8  9  1  0  0  0
  9 10  1  0  0  0
 11 10  1  0  0  0
 11 12  1  0  0  0
 12 13  1  0  0  0
 13 14  1  0  0  0
 14 15  1  0  0  0
 15 16  1  0  0  0
 29 24  1  0  0  0
  7  1  1  0  0  0
 13  9  1  0  0  0
 32 27  1  0  0  0
 13  6  1  0  0  0
 16 11  1  0  0  0
 22 23  1  0  0  0
 31 33  1  0  0  0
  8 17  1  0  0  0
 15 18  1  0  0  0
 16 19  1  0  0  0
M  END
> <minimizedAffinity>
-9.94464

> <minimizedRMSD>
0.42228

$$$$
P17784


 27 30  0  0  0  0  0  0  0  0999 V2000
   -8.2009    5.3993  -12.6197 C   0  0  0  0  0  0  0  0  0  0  0  0
   -8.5701    6.4831  -12.3920 O   0  0  0  0  0  0  0  0  0  0  0  0
   -8.0968    4.1630  -11.6998 N   0  0  0  0  0  0  0  0  0  0  0  0
   -7.8227    3.3334  -12.1537 H   0  0  0  0  0  0  0  0  0  0  0  0
   -9.3410    2.3643  -17.3778 C   0  0  0  0  0  0  0  0  0  0  0  0
   -9.2083    3.8602  -17.3885 C   0  0  0  0  0  0  0  0  0  0  0  0
  -10.5455    4.5217  -17.6454 C   0  0  0  0  0  0  0  0  0  0  0  0
   -8.2582    4.1308  -18.5288 C   0  0  0  0  0  0  0  0  0  0  0  0
   -8.5044    3.8782  -19.6895 O   0  0  0  0  0  0  0  0  0  0  0  0
   -7.0717    4.6046  -18.0179 N   0  0  0  0  0  0  0  0  0  0  0  0
   -7.1551    4.7686  -16.6558 C   0  0  0  0  0  0  0  0  0  0  0  0
   -6.2006    5.2982  -15.8224 C   0  0  0  0  0  0  0  0  0  0  0  0
   -6.5502    5.4505  -14.4802 C   0  0  0  0  0  0  0  0  0  0  0  0
   -7.8278    5.0640  -14.0182 C   0  0  0  0  0  0  0  0  0  0  0  0
   -8.7749    4.5026  -14.8860 C   0  0  0  0  0  0  0  0  0  0  0  0
   -8.4160    4.3626  -16.2127 C   0  0  0  0  0  0  0  0  0  0  0  0
   -6.2705    4.7998  -18.5558 H   0  0  0  0  0  0  0  0  0  0  0  0
   -8.3273    4.0307  -10.3340 C   0  0  0  0  0  0  0  0  0  0  0  0
   -8.0808    5.0925   -9.4490 C   0  0  0  0  0  0  0  0  0  0  0  0
   -8.3462    4.9620   -8.0820 C   0  0  0  0  0  0  0  0  0  0  0  0
   -8.8677    3.7649   -7.6308 C   0  0  0  0  0  0  0  0  0  0  0  0
   -9.1043    2.7105   -8.5079 C   0  0  0  0  0  0  0  0  0  0  0  0
   -8.8384    2.8207   -9.8610 C   0  0  0  0  0  0  0  0  0  0  0  0
   -9.6289    1.5481   -7.7360 C   0  0  0  0  0  0  0  0  0  0  0  0
  -10.0740    2.1183   -6.4379 N   0  0  0  0  0  0  0  0  0  0  0  0
   -9.2584    3.3425   -6.2533 C   0  0  0  0  0  0  0  0  0  0  0  0
   -9.9045    1.4575   -5.6797 H   0  0  0  0  0  0  0  0  0  0  0  0
  5  6  1  0  0  0
  6  7  1  0  0  0
  6  8  1  0  0  0
  8  9  2  0  0  0
  8 10  1  0  0  0
 10 11  1  0  0  0
 11 12  2  0  0  0
 12 13  1  0  0  0
 13 14  2  0  0  0
 14  1  1  0  0  0
  1  2  2  0  0  0
  1  3  1  0  0  0
  3 18  1  0  0  0
 18 19  2  0  0  0
 19 20  1  0  0  0
 20 21  2  0  0  0
 21 22  1  0  0  0
 22 23  2  0  0  0
 22 24  1  0  0  0
 24 25  1  0  0  0
 25 26  1  0  0  0
 14 15  1  0  0  0
 15 16  2  0  0  0
 16  6  1  0  0  0
 16 11  1  0  0  0
 23 18  1  0  0  0
 26 21  1  0  0  0
 10 17  1  0  0  0
  3  4  1  0  0  0
 25 27  1  0  0  0
M  END
> <minimizedAffinity>
-7.39055

> <minimizedRMSD>
0.81214

$$$$
P17813


 36 40  0  0  0  0  0  0  0  0999 V2000
   -8.1795    5.5504  -12.7812 C   0  0  0  0  0  0  0  0  0  0  0  0
   -8.6061    6.6245  -12.6473 O   0  0  0  0  0  0  0  0  0  0  0  0
   -8.0088    4.4143  -11.7653 N   0  0  0  0  0  0  0  0  0  0  0  0
   -7.5469    3.6172  -12.1123 H   0  0  0  0  0  0  0  0  0  0  0  0
   -8.4152    4.3232  -10.3830 C   0  0  0  0  0  0  0  0  0  0  0  0
   -8.7127    2.8704   -9.9681 C   0  0  0  0  0  0  0  0  0  0  0  0
   -9.0136    2.8253   -8.5151 C   0  0  0  0  0  0  0  0  0  0  0  0
   -8.7491    3.8132   -7.6531 C   0  0  0  0  0  0  0  0  0  0  0  0
   -9.2603    3.4530   -6.3066 C   0  0  0  0  0  0  0  0  0  0  0  0
  -10.0226    2.1990   -6.5001 N   0  0  0  0  0  0  0  0  0  0  0  0
   -9.6243    1.6720   -7.8205 C   0  0  0  0  0  0  0  0  0  0  0  0
   -8.0028    5.0705   -7.9908 C   0  0  0  0  0  0  0  0  0  0  0  0
   -7.4087    4.9658   -9.4201 C   0  0  0  0  0  0  0  0  0  0  0  0
   -8.8986    6.2282   -7.8672 N   0  0  0  0  0  0  0  0  0  0  0  0
   -8.3054    7.1010   -6.9017 N   0  0  0  0  0  0  0  0  0  0  0  0
   -7.3763    6.3372   -6.1638 N   0  0  0  0  0  0  0  0  0  0  0  0
   -6.8932    5.3355   -7.0642 N   0  0  0  0  0  0  0  0  0  0  0  0
  -11.0247    2.3885   -6.4831 H   0  0  0  0  0  0  0  0  0  0  0  0
   -9.8207    5.9279   -7.5509 H   0  0  0  0  0  0  0  0  0  0  0  0
   -9.0231    7.4739   -6.2802 H   0  0  0  0  0  0  0  0  0  0  0  0
   -7.8313    5.9033   -5.3606 H   0  0  0  0  0  0  0  0  0  0  0  0
   -6.6449    4.4879   -6.5540 H   0  0  0  0  0  0  0  0  0  0  0  0
   -9.3171    2.3167  -17.3659 C   0  0  0  0  0  0  0  0  0  0  0  0
   -9.3291    3.8206  -17.4028 C   0  0  0  0  0  0  0  0  0  0  0  0
  -10.7227    4.3484  -17.5534 C   0  0  0  0  0  0  0  0  0  0  0  0
   -8.5025    4.2289  -18.5862 C   0  0  0  0  0  0  0  0  0  0  0  0
   -8.9206    4.2979  -19.7239 O   0  0  0  0  0  0  0  0  0  0  0  0
   -7.2254    4.4881  -18.1306 N   0  0  0  0  0  0  0  0  0  0  0  0
   -7.2253    4.6511  -16.7608 C   0  0  0  0  0  0  0  0  0  0  0  0
   -6.2258    5.1626  -15.9665 C   0  0  0  0  0  0  0  0  0  0  0  0
   -4.6940    5.5584  -16.6183 Cl  0  0  0  0  0  0  0  0  0  0  0  0
   -6.5246    5.4020  -14.6308 C   0  0  0  0  0  0  0  0  0  0  0  0
   -7.8109    5.1047  -14.1388 C   0  0  0  0  0  0  0  0  0  0  0  0
   -8.8104    4.5519  -14.9512 C   0  0  0  0  0  0  0  0  0  0  0  0
   -8.4929    4.3323  -16.2699 C   0  0  0  0  0  0  0  0  0  0  0  0
   -6.4267    4.5482  -18.7029 H   0  0  0  0  0  0  0  0  0  0  0  0
 23 24  1  0  0  0
 24 25  1  0  0  0
 24 26  1  0  0  0
 26 27  2  0  0  0
 26 28  1  0  0  0
 28 29  1  0  0  0
 29 30  2  0  0  0
 30 31  1  0  0  0
 30 32  1  0  0  0
 32 33  2  0  0  0
 33  1  1  0  0  0
  1  2  2  0  0  0
  1  3  1  0  0  0
  5  3  1  0  0  0
  5  6  1  0  0  0
  6  7  1  0  0  0
  7  8  2  0  0  0
  8  9  1  0  0  0
  9 10  1  0  0  0
 10 11  1  0  0  0
  8 12  1  0  0  0
 12 13  1  0  0  0
 12 14  1  0  0  0
 14 15  1  0  0  0
 15 16  1  0  0  0
 16 17  1  0  0  0
 33 34  1  0  0  0
 34 35  2  0  0  0
 35 24  1  0  0  0
 35 29  1  0  0  0
 13  5  1  0  0  0
 11  7  1  0  0  0
 17 12  1  0  0  0
 28 36  1  0  0  0
  3  4  1  0  0  0
 10 18  1  0  0  0
 14 19  1  0  0  0
 15 20  1  0  0  0
 16 21  1  0  0  0
 17 22  1  0  0  0
M  END
> <minimizedAffinity>
-7.46951

> <minimizedRMSD>
0.90261

$$$$
P17821


 29 33  0  0  0  0  0  0  0  0999 V2000
   -5.2580    7.3238  -17.5150 C   0  0  0  0  0  0  0  0  0  0  0  0
   -5.1245    5.7920  -17.4049 C   0  0  0  0  0  0  0  0  0  0  0  0
   -4.0054    5.3787  -16.4683 C   0  0  0  0  0  0  0  0  0  0  0  0
   -4.3489    5.7864  -15.0255 C   0  0  0  0  0  0  0  0  0  0  0  0
   -5.7571    5.3845  -14.5157 C   0  0  0  0  0  0  0  0  0  0  0  0
   -6.7797    5.0935  -15.5771 C   0  0  0  0  0  0  0  0  0  0  0  0
   -8.0890    4.6512  -15.3356 C   0  0  0  0  0  0  0  0  0  0  0  0
   -8.9026    4.1864  -16.3974 C   0  0  0  0  0  0  0  0  0  0  0  0
   -8.4112    4.1669  -17.7205 C   0  0  0  0  0  0  0  0  0  0  0  0
   -7.1480    4.6788  -17.9382 C   0  0  0  0  0  0  0  0  0  0  0  0
   -6.3967    5.1866  -16.8959 C   0  0  0  0  0  0  0  0  0  0  0  0
   -6.3761    4.7563  -19.0946 N   0  0  0  0  0  0  0  0  0  0  0  0
   -5.0963    5.2559  -18.8385 C   0  0  0  0  0  0  0  0  0  0  0  0
   -4.1583    5.3322  -19.6137 O   0  0  0  0  0  0  0  0  0  0  0  0
   -6.6945    4.4904  -19.9875 H   0  0  0  0  0  0  0  0  0  0  0  0
   -8.6703    4.9085  -13.9933 C   0  0  0  0  0  0  0  0  0  0  0  0
   -9.4494    5.7744  -13.9133 O   0  0  0  0  0  0  0  0  0  0  0  0
   -8.0860    3.9853  -12.9046 N   0  0  0  0  0  0  0  0  0  0  0  0
   -7.4945    3.2740  -13.2414 H   0  0  0  0  0  0  0  0  0  0  0  0
   -8.2594    3.9940  -11.5187 C   0  0  0  0  0  0  0  0  0  0  0  0
   -8.0384    5.1717  -10.7825 C   0  0  0  0  0  0  0  0  0  0  0  0
   -8.1701    5.1909   -9.3900 C   0  0  0  0  0  0  0  0  0  0  0  0
   -8.5469    4.0242   -8.7533 C   0  0  0  0  0  0  0  0  0  0  0  0
   -8.7853    2.8623   -9.4756 C   0  0  0  0  0  0  0  0  0  0  0  0
   -8.6321    2.8226  -10.8566 C   0  0  0  0  0  0  0  0  0  0  0  0
   -9.1915    1.7751   -8.5387 C   0  0  0  0  0  0  0  0  0  0  0  0
   -9.3099    2.3991   -7.1930 N   0  0  0  0  0  0  0  0  0  0  0  0
   -8.7626    3.7675   -7.3023 C   0  0  0  0  0  0  0  0  0  0  0  0
   -8.7764    1.8619   -6.5095 H   0  0  0  0  0  0  0  0  0  0  0  0
  2  1  1  0  0  0
  2  3  1  0  0  0
  3  4  1  0  0  0
  4  5  1  0  0  0
  5  6  1  0  0  0
  6  7  2  0  0  0
  7 16  1  0  0  0
 16 17  2  0  0  0
 16 18  1  0  0  0
 18 20  1  0  0  0
 20 21  2  0  0  0
 21 22  1  0  0  0
 22 23  2  0  0  0
 23 24  1  0  0  0
 24 25  2  0  0  0
 24 26  1  0  0  0
 26 27  1  0  0  0
 27 28  1  0  0  0
  7  8  1  0  0  0
  8  9  2  0  0  0
  9 10  1  0  0  0
 10 11  2  0  0  0
 10 12  1  0  0  0
 12 13  1  0  0  0
 13 14  2  0  0  0
 11  2  1  0  0  0
 13  2  1  0  0  0
 11  6  1  0  0  0
 25 20  1  0  0  0
 28 23  1  0  0  0
 18 19  1  0  0  0
 27 29  1  0  0  0
 12 15  1  0  0  0
M  END
> <minimizedAffinity>
-11.08827

> <minimizedRMSD>
0.61976

$$$$
P17846


 31 34  0  0  0  0  0  0  0  0999 V2000
   -4.6863    6.8077  -17.2988 C   0  0  0  0  0  0  0  0  0  0  0  0
   -4.9906    5.3363  -17.6162 C   0  0  0  0  0  0  0  0  0  0  0  0
   -5.5960    5.2702  -19.0269 C   0  0  0  0  0  0  0  0  0  0  0  0
   -4.9839    5.3982  -20.0762 O   0  0  0  0  0  0  0  0  0  0  0  0
   -6.9617    5.0704  -18.8606 N   0  0  0  0  0  0  0  0  0  0  0  0
   -7.2934    4.7610  -17.5474 C   0  0  0  0  0  0  0  0  0  0  0  0
   -8.5122    4.3829  -17.0054 C   0  0  0  0  0  0  0  0  0  0  0  0
   -9.9619    4.3647  -17.9068 Cl  0  0  0  0  0  0  0  0  0  0  0  0
   -8.5434    3.9896  -15.6703 C   0  0  0  0  0  0  0  0  0  0  0  0
   -7.3646    3.9959  -14.9204 C   0  0  0  0  0  0  0  0  0  0  0  0
   -6.1657    4.4789  -15.4402 C   0  0  0  0  0  0  0  0  0  0  0  0
   -6.1395    4.8436  -16.7708 C   0  0  0  0  0  0  0  0  0  0  0  0
   -7.6189    5.1402  -19.5903 H   0  0  0  0  0  0  0  0  0  0  0  0
   -3.7390    4.4621  -17.5784 C   0  0  0  0  0  0  0  0  0  0  0  0
   -2.6816    4.8407  -18.5141 N   0  0  0  0  0  0  0  0  0  0  0  0
   -3.0232    4.7440  -19.4703 H   0  0  0  0  0  0  0  0  0  0  0  0
   -1.8739    4.2328  -18.3784 H   0  0  0  0  0  0  0  0  0  0  0  0
   -7.3342    3.4212  -13.5658 C   0  0  0  0  0  0  0  0  0  0  0  0
   -6.8002    2.4036  -13.3763 O   0  0  0  0  0  0  0  0  0  0  0  0
   -7.9861    4.4057  -12.5775 N   0  0  0  0  0  0  0  0  0  0  0  0
   -8.3077    5.2435  -12.9822 H   0  0  0  0  0  0  0  0  0  0  0  0
   -8.1938    4.3045  -11.2117 C   0  0  0  0  0  0  0  0  0  0  0  0
   -7.8996    5.4246  -10.4162 C   0  0  0  0  0  0  0  0  0  0  0  0
   -8.0440    5.3640   -9.0302 C   0  0  0  0  0  0  0  0  0  0  0  0
   -8.5124    4.1862   -8.4775 C   0  0  0  0  0  0  0  0  0  0  0  0
   -8.8343    3.0896   -9.2712 C   0  0  0  0  0  0  0  0  0  0  0  0
   -8.6668    3.1225  -10.6419 C   0  0  0  0  0  0  0  0  0  0  0  0
   -9.3219    1.9736   -8.4096 C   0  0  0  0  0  0  0  0  0  0  0  0
   -9.5274    2.5836   -7.0651 N   0  0  0  0  0  0  0  0  0  0  0  0
   -8.7380    3.8319   -7.0489 C   0  0  0  0  0  0  0  0  0  0  0  0
   -9.2000    1.9496   -6.3362 H   0  0  0  0  0  0  0  0  0  0  0  0
  2  1  1  0  0  0
  2 14  1  0  0  0
 14 15  1  0  0  0
  2  3  1  0  0  0
  3  4  2  0  0  0
  3  5  1  0  0  0
  5  6  1  0  0  0
  6  7  2  0  0  0
  7  8  1  0  0  0
  7  9  1  0  0  0
  9 10  2  0  0  0
 10 18  1  0  0  0
 18 19  2  0  0  0
 18 20  1  0  0  0
 20 22  1  0  0  0
 22 23  2  0  0  0
 23 24  1  0  0  0
 24 25  2  0  0  0
 25 26  1  0  0  0
 26 27  2  0  0  0
 26 28  1  0  0  0
 28 29  1  0  0  0
 29 30  1  0  0  0
 10 11  1  0  0  0
 11 12  2  0  0  0
 12  2  1  0  0  0
 12  6  1  0  0  0
 27 22  1  0  0  0
 30 25  1  0  0  0
 15 16  1  0  0  0
 15 17  1  0  0  0
  5 13  1  0  0  0
 20 21  1  0  0  0
 29 31  1  0  0  0
M  END
> <minimizedAffinity>
-8.60961

> <minimizedRMSD>
0.88237

$$$$
P17886


 33 36  0  0  0  0  0  0  0  0999 V2000
   -7.1706    4.2474  -15.7035 C   0  0  0  0  0  0  0  0  0  0  0  0
   -8.4985    4.1584  -16.0597 C   0  0  0  0  0  0  0  0  0  0  0  0
   -8.8069    4.3771  -17.4002 C   0  0  0  0  0  0  0  0  0  0  0  0
  -10.4390    4.4320  -17.9265 Cl  0  0  0  0  0  0  0  0  0  0  0  0
   -7.8131    4.6118  -18.3400 C   0  0  0  0  0  0  0  0  0  0  0  0
   -6.5226    4.7387  -17.8790 C   0  0  0  0  0  0  0  0  0  0  0  0
   -6.2140    4.5830  -16.5866 N   0  0  0  0  0  0  0  0  0  0  0  0
   -5.4620    5.0263  -18.7475 N   0  0  0  0  0  0  0  0  0  0  0  0
   -5.6362    5.0828  -20.1541 N   0  0  0  0  0  0  0  0  0  0  0  0
   -4.2937    5.4460  -20.6723 C   0  0  0  0  0  0  0  0  0  0  0  0
   -3.9646    4.7595  -22.0003 C   0  0  0  0  0  0  0  0  0  0  0  0
   -3.3180    4.9769  -19.5828 C   0  0  0  0  0  0  0  0  0  0  0  0
   -4.1316    4.9848  -18.3394 C   0  0  0  0  0  0  0  0  0  0  0  0
   -3.6431    4.9580  -17.2200 O   0  0  0  0  0  0  0  0  0  0  0  0
   -6.3250    5.7919  -20.4052 H   0  0  0  0  0  0  0  0  0  0  0  0
   -4.2503    6.9775  -20.8796 C   0  0  0  0  0  0  0  0  0  0  0  0
   -5.5433    7.5064  -21.1700 O   0  0  0  0  0  0  0  0  0  0  0  0
   -5.8782    7.1101  -21.9895 H   0  0  0  0  0  0  0  0  0  0  0  0
   -6.6179    3.9966  -14.3537 C   0  0  0  0  0  0  0  0  0  0  0  0
   -5.4963    4.3761  -14.0324 O   0  0  0  0  0  0  0  0  0  0  0  0
   -7.3578    3.1523  -13.3772 C   0  0  0  0  0  0  0  0  0  0  0  0
   -7.3569    1.9469  -13.6118 O   0  0  0  0  0  0  0  0  0  0  0  0
   -7.9749    6.2226  -12.7889 C   0  0  0  0  0  0  0  0  0  0  0  0
   -7.9886    5.1023  -11.7848 C   0  0  0  0  0  0  0  0  0  0  0  0
   -8.1551    5.4873  -10.4394 C   0  0  0  0  0  0  0  0  0  0  0  0
   -8.2963    4.5127   -9.4695 C   0  0  0  0  0  0  0  0  0  0  0  0
   -8.3278    3.1710   -9.8055 C   0  0  0  0  0  0  0  0  0  0  0  0
   -8.0911    2.7551  -11.0982 C   0  0  0  0  0  0  0  0  0  0  0  0
   -7.8534    3.7196  -12.0924 C   0  0  0  0  0  0  0  0  0  0  0  0
   -8.6528    2.3537   -8.6048 C   0  0  0  0  0  0  0  0  0  0  0  0
   -8.5554    3.2854   -7.4515 N   0  0  0  0  0  0  0  0  0  0  0  0
   -8.4845    4.6570   -7.9997 C   0  0  0  0  0  0  0  0  0  0  0  0
   -7.7160    3.0826   -6.9087 H   0  0  0  0  0  0  0  0  0  0  0  0
 23 24  1  0  0  0
 24 25  2  0  0  0
 25 26  1  0  0  0
 26 27  2  0  0  0
 27 28  1  0  0  0
 28 29  2  0  0  0
 29 21  1  0  0  0
 21 22  2  0  0  0
 21 19  1  0  0  0
 19 20  2  0  0  0
 19  1  1  0  0  0
  1  2  2  0  0  0
  2  3  1  0  0  0
  3  4  1  0  0  0
  3  5  2  0  0  0
  5  6  1  0  0  0
  6  8  1  0  0  0
  8  9  1  0  0  0
  9 10  1  0  0  0
 10 11  1  0  0  0
 10 16  1  0  0  0
 16 17  1  0  0  0
 10 12  1  0  0  0
 12 13  1  0  0  0
 13 14  2  0  0  0
  6  7  2  0  0  0
 27 30  1  0  0  0
 30 31  1  0  0  0
 31 32  1  0  0  0
 29 24  1  0  0  0
  7  1  1  0  0  0
 32 26  1  0  0  0
 13  8  1  0  0  0
  9 15  1  0  0  0
 17 18  1  0  0  0
 31 33  1  0  0  0
M  END
> <minimizedAffinity>
-8.91528

> <minimizedRMSD>
1.08342

$$$$
P17894


 31 35  0  0  0  0  0  0  0  0999 V2000
   -7.4176    4.2829  -15.5760 C   0  0  0  0  0  0  0  0  0  0  0  0
   -8.7199    4.0141  -15.8105 C   0  0  0  0  0  0  0  0  0  0  0  0
   -9.2501    4.1363  -17.1550 C   0  0  0  0  0  0  0  0  0  0  0  0
   -8.4615    4.4754  -18.1871 C   0  0  0  0  0  0  0  0  0  0  0  0
   -7.0816    4.7177  -17.9614 C   0  0  0  0  0  0  0  0  0  0  0  0
   -6.0442    5.0853  -18.7769 C   0  0  0  0  0  0  0  0  0  0  0  0
   -4.9608    5.2976  -17.9061 C   0  0  0  0  0  0  0  0  0  0  0  0
   -5.2734    5.0179  -16.6362 N   0  0  0  0  0  0  0  0  0  0  0  0
   -6.5889    4.6466  -16.6533 N   0  0  0  0  0  0  0  0  0  0  0  0
   -5.8071    4.5731  -13.9358 O   0  0  0  0  0  0  0  0  0  0  0  0
   -6.9394    4.3908  -14.1631 C   0  0  0  0  0  0  0  0  0  0  0  0
   -8.1573    4.2965  -13.2014 N   0  0  0  0  0  0  0  0  0  0  0  0
   -9.0303    4.2121  -13.6486 H   0  0  0  0  0  0  0  0  0  0  0  0
   -8.2138    4.3122  -11.8091 C   0  0  0  0  0  0  0  0  0  0  0  0
   -7.8493    5.4661  -11.0950 C   0  0  0  0  0  0  0  0  0  0  0  0
   -7.8910    5.4887   -9.6991 C   0  0  0  0  0  0  0  0  0  0  0  0
   -8.3091    4.3481   -9.0397 C   0  0  0  0  0  0  0  0  0  0  0  0
   -8.6941    3.2124   -9.7416 C   0  0  0  0  0  0  0  0  0  0  0  0
   -8.6477    3.1712  -11.1281 C   0  0  0  0  0  0  0  0  0  0  0  0
   -9.1485    2.1640   -8.7823 C   0  0  0  0  0  0  0  0  0  0  0  0
   -8.9133    2.7140   -7.4208 N   0  0  0  0  0  0  0  0  0  0  0  0
   -8.4445    4.1059   -7.5772 C   0  0  0  0  0  0  0  0  0  0  0  0
   -8.2047    2.1602   -6.9395 H   0  0  0  0  0  0  0  0  0  0  0  0
   -3.6368    5.8951  -18.2619 C   0  0  0  0  0  0  0  0  0  0  0  0
   -2.6569    4.9520  -18.9859 C   0  0  0  0  0  0  0  0  0  0  0  0
   -2.7847    3.6205  -18.4851 O   0  0  0  0  0  0  0  0  0  0  0  0
   -2.9226    4.9558  -20.5008 C   0  0  0  0  0  0  0  0  0  0  0  0
   -2.1921    6.1867  -21.0367 C   0  0  0  0  0  0  0  0  0  0  0  0
   -1.1357    6.5414  -19.9890 C   0  0  0  0  0  0  0  0  0  0  0  0
   -1.1979    5.4190  -18.9601 C   0  0  0  0  0  0  0  0  0  0  0  0
   -3.7165    3.3525  -18.5134 H   0  0  0  0  0  0  0  0  0  0  0  0
 10 11  2  0  0  0
 11 12  1  0  0  0
 12 14  1  0  0  0
 14 15  2  0  0  0
 15 16  1  0  0  0
 16 17  2  0  0  0
 17 18  1  0  0  0
 18 19  2  0  0  0
 18 20  1  0  0  0
 20 21  1  0  0  0
 21 22  1  0  0  0
 11  1  1  0  0  0
  1  2  2  0  0  0
  2  3  1  0  0  0
  3  4  2  0  0  0
  4  5  1  0  0  0
  5  6  2  0  0  0
  6  7  1  0  0  0
  7 24  1  0  0  0
 24 25  1  0  0  0
 25 26  1  0  0  0
 25 27  1  0  0  0
 27 28  1  0  0  0
 28 29  1  0  0  0
 29 30  1  0  0  0
  7  8  2  0  0  0
  8  9  1  0  0  0
 19 14  1  0  0  0
  9  1  1  0  0  0
 22 17  1  0  0  0
  9  5  1  0  0  0
 30 25  1  0  0  0
 12 13  1  0  0  0
 21 23  1  0  0  0
 26 31  1  0  0  0
M  END
> <minimizedAffinity>
-7.92777

> <minimizedRMSD>
1.79870

$$$$
P17896


 33 36  0  0  0  0  0  0  0  0999 V2000
   -7.2077    4.1081  -13.8901 C   0  0  0  0  0  0  0  0  0  0  0  0
   -6.4808    5.2551  -13.4636 O   0  0  0  0  0  0  0  0  0  0  0  0
   -6.3355    5.2081  -12.5057 H   0  0  0  0  0  0  0  0  0  0  0  0
   -7.3968    4.2533  -15.4010 C   0  0  0  0  0  0  0  0  0  0  0  0
   -8.6205    4.2134  -15.9910 C   0  0  0  0  0  0  0  0  0  0  0  0
   -8.7771    4.3735  -17.4228 C   0  0  0  0  0  0  0  0  0  0  0  0
  -10.3591    4.3134  -18.0909 Cl  0  0  0  0  0  0  0  0  0  0  0  0
   -7.7218    4.5852  -18.2164 C   0  0  0  0  0  0  0  0  0  0  0  0
   -6.4274    4.6760  -17.6535 C   0  0  0  0  0  0  0  0  0  0  0  0
   -5.2913    4.9438  -18.2550 N   0  0  0  0  0  0  0  0  0  0  0  0
   -4.3443    4.9138  -17.2782 C   0  0  0  0  0  0  0  0  0  0  0  0
   -2.9370    5.2025  -17.6215 C   0  0  0  0  0  0  0  0  0  0  0  0
   -4.9067    4.6502  -16.0444 C   0  0  0  0  0  0  0  0  0  0  0  0
   -4.2931    4.5845  -14.8644 O   0  0  0  0  0  0  0  0  0  0  0  0
   -6.2812    4.4938  -16.2662 N   0  0  0  0  0  0  0  0  0  0  0  0
   -3.3650    4.7023  -14.8118 H   0  0  0  0  0  0  0  0  0  0  0  0
   -4.2276    2.2264  -12.1090 C   0  0  0  0  0  0  0  0  0  0  0  0
   -5.2301    3.0653  -12.6912 N   0  0  0  0  0  0  0  0  0  0  0  0
   -6.5092    2.6992  -13.5013 C   0  0  0  0  0  0  0  0  0  0  0  0
   -6.9766    1.6556  -13.7485 O   0  0  0  0  0  0  0  0  0  0  0  0
   -5.0884    4.0304  -12.5582 H   0  0  0  0  0  0  0  0  0  0  0  0
   -8.5234    4.1955  -13.1975 N   0  0  0  0  0  0  0  0  0  0  0  0
   -9.3789    4.1914  -13.6845 H   0  0  0  0  0  0  0  0  0  0  0  0
   -8.4512    4.2853  -11.7781 C   0  0  0  0  0  0  0  0  0  0  0  0
   -8.0381    5.4835  -11.1542 C   0  0  0  0  0  0  0  0  0  0  0  0
   -7.8853    5.5702   -9.7680 C   0  0  0  0  0  0  0  0  0  0  0  0
   -8.1785    4.4532   -9.0108 C   0  0  0  0  0  0  0  0  0  0  0  0
   -8.6200    3.2800   -9.6066 C   0  0  0  0  0  0  0  0  0  0  0  0
   -8.7449    3.1698  -10.9821 C   0  0  0  0  0  0  0  0  0  0  0  0
   -8.9334    2.2672   -8.5590 C   0  0  0  0  0  0  0  0  0  0  0  0
   -8.6573    2.9258   -7.2554 N   0  0  0  0  0  0  0  0  0  0  0  0
   -8.1264    4.2735   -7.5338 C   0  0  0  0  0  0  0  0  0  0  0  0
   -7.9702    2.3838   -6.7316 H   0  0  0  0  0  0  0  0  0  0  0  0
 17 18  1  0  0  0
 18 19  1  0  0  0
 19 20  2  0  0  0
 19  1  1  0  0  0
  1  2  1  0  0  0
  1 22  1  0  0  0
 22 24  1  0  0  0
 24 25  2  0  0  0
 25 26  1  0  0  0
 26 27  2  0  0  0
 27 28  1  0  0  0
 28 29  2  0  0  0
 28 30  1  0  0  0
 30 31  1  0  0  0
 31 32  1  0  0  0
  1  4  1  0  0  0
  4  5  2  0  0  0
  5  6  1  0  0  0
  6  7  1  0  0  0
  6  8  2  0  0  0
  8  9  1  0  0  0
  9 10  2  0  0  0
 10 11  1  0  0  0
 11 12  1  0  0  0
 11 13  2  0  0  0
 13 14  1  0  0  0
 13 15  1  0  0  0
 29 24  1  0  0  0
 15  4  1  0  0  0
 32 27  1  0  0  0
 15  9  1  0  0  0
 18 21  1  0  0  0
  2  3  1  0  0  0
 22 23  1  0  0  0
 31 33  1  0  0  0
 14 16  1  0  0  0
M  END
> <minimizedAffinity>
-9.15986

> <minimizedRMSD>
0.30107

$$$$
P17900


 25 28  0  0  0  0  0  0  0  0999 V2000
   -7.3063    3.2705  -13.8150 C   0  0  0  0  0  0  0  0  0  0  0  0
   -7.1644    2.1236  -13.6466 O   0  0  0  0  0  0  0  0  0  0  0  0
   -7.6167    4.4039  -12.8034 N   0  0  0  0  0  0  0  0  0  0  0  0
   -7.6131    5.3108  -13.1865 H   0  0  0  0  0  0  0  0  0  0  0  0
   -4.5026    5.5438  -18.8953 C   0  0  0  0  0  0  0  0  0  0  0  0
   -4.9461    5.0714  -17.5655 C   0  0  0  0  0  0  0  0  0  0  0  0
   -4.1728    4.8401  -16.4137 C   0  0  0  0  0  0  0  0  0  0  0  0
   -4.8868    4.4100  -15.3728 N   0  0  0  0  0  0  0  0  0  0  0  0
   -6.1615    4.2997  -15.8375 N   0  0  0  0  0  0  0  0  0  0  0  0
   -7.3109    3.8791  -15.1646 C   0  0  0  0  0  0  0  0  0  0  0  0
   -8.5130    3.9422  -15.7700 C   0  0  0  0  0  0  0  0  0  0  0  0
   -8.5909    4.3903  -17.1454 C   0  0  0  0  0  0  0  0  0  0  0  0
  -10.2537    4.4105  -17.9610 Br  0  0  0  0  0  0  0  0  0  0  0  0
   -7.4848    4.7606  -17.8112 C   0  0  0  0  0  0  0  0  0  0  0  0
   -6.2218    4.7497  -17.1635 C   0  0  0  0  0  0  0  0  0  0  0  0
   -7.8993    4.3475  -11.4438 C   0  0  0  0  0  0  0  0  0  0  0  0
   -7.5775    5.4624  -10.6504 C   0  0  0  0  0  0  0  0  0  0  0  0
   -7.8050    5.4442   -9.2716 C   0  0  0  0  0  0  0  0  0  0  0  0
   -8.3863    4.3162   -8.7221 C   0  0  0  0  0  0  0  0  0  0  0  0
   -8.7464    3.2310   -9.5148 C   0  0  0  0  0  0  0  0  0  0  0  0
   -8.4977    3.2207  -10.8762 C   0  0  0  0  0  0  0  0  0  0  0  0
   -9.3503    2.1670   -8.6591 C   0  0  0  0  0  0  0  0  0  0  0  0
   -9.5704    2.8121   -7.3330 N   0  0  0  0  0  0  0  0  0  0  0  0
   -8.6902    3.9979   -7.2990 C   0  0  0  0  0  0  0  0  0  0  0  0
   -9.3245    2.1678   -6.5814 H   0  0  0  0  0  0  0  0  0  0  0  0
  5  6  1  0  0  0
  6  7  1  0  0  0
  7  8  2  0  0  0
  8  9  1  0  0  0
  9 10  1  0  0  0
 10  1  1  0  0  0
  1  2  2  0  0  0
  1  3  1  0  0  0
  3 16  1  0  0  0
 16 17  2  0  0  0
 17 18  1  0  0  0
 18 19  2  0  0  0
 19 20  1  0  0  0
 20 21  2  0  0  0
 20 22  1  0  0  0
 22 23  1  0  0  0
 23 24  1  0  0  0
 10 11  2  0  0  0
 11 12  1  0  0  0
 12 13  1  0  0  0
 12 14  2  0  0  0
 14 15  1  0  0  0
 15  6  2  0  0  0
 15  9  1  0  0  0
 21 16  1  0  0  0
 24 19  1  0  0  0
  3  4  1  0  0  0
 23 25  1  0  0  0
M  END
> <minimizedAffinity>
-8.18381

> <minimizedRMSD>
0.71135

$$$$
P17904


 37 41  0  0  0  0  0  0  0  0999 V2000
   -7.0657    4.2651  -13.5123 C   0  0  0  0  0  0  0  0  0  0  0  0
   -6.3232    5.3110  -12.8936 O   0  0  0  0  0  0  0  0  0  0  0  0
   -6.1553    5.0832  -11.9658 H   0  0  0  0  0  0  0  0  0  0  0  0
   -7.2863    4.7232  -15.0003 C   0  0  0  0  0  0  0  0  0  0  0  0
   -8.3990    3.9305  -15.6999 C   0  0  0  0  0  0  0  0  0  0  0  0
   -8.7788    4.5836  -17.0158 C   0  0  0  0  0  0  0  0  0  0  0  0
   -9.9386    3.6762  -17.9678 Cl  0  0  0  0  0  0  0  0  0  0  0  0
   -7.5932    5.0085  -17.8787 C   0  0  0  0  0  0  0  0  0  0  0  0
   -6.2682    4.6188  -17.3741 N   0  0  0  0  0  0  0  0  0  0  0  0
   -5.2262    5.3739  -18.1015 C   0  0  0  0  0  0  0  0  0  0  0  0
   -4.6102    6.3162  -17.1340 N   0  0  0  0  0  0  0  0  0  0  0  0
   -5.6161    6.3771  -16.0589 C   0  0  0  0  0  0  0  0  0  0  0  0
   -6.0212    4.9023  -15.9260 C   0  0  0  0  0  0  0  0  0  0  0  0
   -4.7246    4.1190  -15.5195 C   0  0  0  0  0  0  0  0  0  0  0  0
   -3.5104    4.9527  -15.4420 N   0  0  0  0  0  0  0  0  0  0  0  0
   -3.3704    5.7644  -16.6113 N   0  0  0  0  0  0  0  0  0  0  0  0
   -2.6945    4.3465  -15.3571 H   0  0  0  0  0  0  0  0  0  0  0  0
   -2.9459    5.1939  -17.3426 H   0  0  0  0  0  0  0  0  0  0  0  0
   -5.0832    3.0286  -12.4987 N   0  0  0  0  0  0  0  0  0  0  0  0
   -6.3694    2.7966  -13.3513 C   0  0  0  0  0  0  0  0  0  0  0  0
   -6.8405    1.8063  -13.7562 O   0  0  0  0  0  0  0  0  0  0  0  0
   -4.9380    3.9605  -12.2164 H   0  0  0  0  0  0  0  0  0  0  0  0
   -4.0740    2.1001  -12.0577 C   0  0  0  0  0  0  0  0  0  0  0  0
   -1.8190    1.1742  -12.6782 C   0  0  0  0  0  0  0  0  0  0  0  0
   -3.1332    1.7330  -13.1982 C   0  0  0  0  0  0  0  0  0  0  0  0
   -8.3969    4.2871  -12.8428 N   0  0  0  0  0  0  0  0  0  0  0  0
   -9.2255    4.3061  -13.3741 H   0  0  0  0  0  0  0  0  0  0  0  0
   -8.4465    4.2800  -11.4365 C   0  0  0  0  0  0  0  0  0  0  0  0
   -8.1085    5.4530  -10.7251 C   0  0  0  0  0  0  0  0  0  0  0  0
   -8.0477    5.4686   -9.3295 C   0  0  0  0  0  0  0  0  0  0  0  0
   -8.3488    4.3035   -8.6515 C   0  0  0  0  0  0  0  0  0  0  0  0
   -8.7147    3.1509   -9.3345 C   0  0  0  0  0  0  0  0  0  0  0  0
   -8.7567    3.1173  -10.7212 C   0  0  0  0  0  0  0  0  0  0  0  0
   -9.0273    2.0669   -8.3568 C   0  0  0  0  0  0  0  0  0  0  0  0
   -8.9211    2.6898   -7.0109 N   0  0  0  0  0  0  0  0  0  0  0  0
   -8.3541    4.0385   -7.1854 C   0  0  0  0  0  0  0  0  0  0  0  0
   -8.3098    2.1301   -6.4163 H   0  0  0  0  0  0  0  0  0  0  0  0
 24 25  1  0  0  0
 25 23  1  0  0  0
 23 19  1  0  0  0
 19 20  1  0  0  0
 20 21  2  0  0  0
 20  1  1  0  0  0
  1  2  1  0  0  0
  1 26  1  0  0  0
 26 28  1  0  0  0
 28 29  2  0  0  0
 29 30  1  0  0  0
 30 31  2  0  0  0
 31 32  1  0  0  0
 32 33  2  0  0  0
 32 34  1  0  0  0
 34 35  1  0  0  0
 35 36  1  0  0  0
  1  4  1  0  0  0
  4  5  1  0  0  0
  5  6  1  0  0  0
  6  7  1  0  0  0
  6  8  1  0  0  0
  8  9  1  0  0  0
  9 10  1  0  0  0
 10 11  1  0  0  0
 11 12  1  0  0  0
 12 13  1  0  0  0
 13 14  1  0  0  0
 14 15  1  0  0  0
 15 16  1  0  0  0
 33 28  1  0  0  0
 13  4  1  0  0  0
 36 31  1  0  0  0
 13  9  1  0  0  0
 16 11  1  0  0  0
 19 22  1  0  0  0
  2  3  1  0  0  0
 26 27  1  0  0  0
 35 37  1  0  0  0
 15 17  1  0  0  0
 16 18  1  0  0  0
M  END
> <minimizedAffinity>
-8.35534

> <minimizedRMSD>
0.76801

$$$$
P17905


 25 28  0  0  0  0  0  0  0  0999 V2000
   -7.2766    3.4361  -14.0061 C   0  0  0  0  0  0  0  0  0  0  0  0
   -6.9108    2.3470  -13.8009 O   0  0  0  0  0  0  0  0  0  0  0  0
   -7.7699    4.5306  -13.0271 N   0  0  0  0  0  0  0  0  0  0  0  0
   -7.9532    5.4038  -13.4433 H   0  0  0  0  0  0  0  0  0  0  0  0
   -4.8801    5.5288  -19.3832 C   0  0  0  0  0  0  0  0  0  0  0  0
   -5.1814    5.0826  -17.9995 C   0  0  0  0  0  0  0  0  0  0  0  0
   -4.2518    4.8630  -16.9479 C   0  0  0  0  0  0  0  0  0  0  0  0
   -4.9520    4.4217  -15.8448 C   0  0  0  0  0  0  0  0  0  0  0  0
   -6.2913    4.3671  -16.1618 N   0  0  0  0  0  0  0  0  0  0  0  0
   -7.3841    3.9989  -15.3739 C   0  0  0  0  0  0  0  0  0  0  0  0
   -8.6281    4.0743  -15.8862 C   0  0  0  0  0  0  0  0  0  0  0  0
   -8.7966    4.4695  -17.2681 C   0  0  0  0  0  0  0  0  0  0  0  0
  -10.3809    4.4724  -17.9292 Cl  0  0  0  0  0  0  0  0  0  0  0  0
   -7.7419    4.7993  -18.0310 C   0  0  0  0  0  0  0  0  0  0  0  0
   -6.4282    4.7865  -17.4825 C   0  0  0  0  0  0  0  0  0  0  0  0
   -7.9957    4.4804  -11.6573 C   0  0  0  0  0  0  0  0  0  0  0  0
   -7.6990    5.6203  -10.8905 C   0  0  0  0  0  0  0  0  0  0  0  0
   -7.8672    5.6071   -9.5032 C   0  0  0  0  0  0  0  0  0  0  0  0
   -8.3716    4.4598   -8.9191 C   0  0  0  0  0  0  0  0  0  0  0  0
   -8.7089    3.3482   -9.6848 C   0  0  0  0  0  0  0  0  0  0  0  0
   -8.5102    3.3310  -11.0540 C   0  0  0  0  0  0  0  0  0  0  0  0
   -9.2371    2.2718   -8.7951 C   0  0  0  0  0  0  0  0  0  0  0  0
   -9.4427    2.9274   -7.4721 N   0  0  0  0  0  0  0  0  0  0  0  0
   -8.6138    4.1496   -7.4822 C   0  0  0  0  0  0  0  0  0  0  0  0
   -9.1461    2.3056   -6.7199 H   0  0  0  0  0  0  0  0  0  0  0  0
  5  6  1  0  0  0
  6  7  1  0  0  0
  7  8  2  0  0  0
  8  9  1  0  0  0
  9 10  1  0  0  0
 10  1  1  0  0  0
  1  2  2  0  0  0
  1  3  1  0  0  0
  3 16  1  0  0  0
 16 17  2  0  0  0
 17 18  1  0  0  0
 18 19  2  0  0  0
 19 20  1  0  0  0
 20 21  2  0  0  0
 20 22  1  0  0  0
 22 23  1  0  0  0
 23 24  1  0  0  0
 10 11  2  0  0  0
 11 12  1  0  0  0
 12 13  1  0  0  0
 12 14  2  0  0  0
 14 15  1  0  0  0
 15  6  2  0  0  0
 15  9  1  0  0  0
 21 16  1  0  0  0
 24 19  1  0  0  0
  3  4  1  0  0  0
 23 25  1  0  0  0
M  END
> <minimizedAffinity>
-8.47436

> <minimizedRMSD>
0.55027

$$$$
P17909


 30 33  0  0  0  0  0  0  0  0999 V2000
   -7.4610    5.0642  -14.0563 C   0  0  0  0  0  0  0  0  0  0  0  0
   -7.0934    6.1752  -13.9983 O   0  0  0  0  0  0  0  0  0  0  0  0
   -8.0374    4.1231  -12.9363 N   0  0  0  0  0  0  0  0  0  0  0  0
   -8.3502    3.2458  -13.2553 H   0  0  0  0  0  0  0  0  0  0  0  0
   -3.2921    5.4264  -17.5414 C   0  0  0  0  0  0  0  0  0  0  0  0
   -4.6012    5.8090  -17.0410 N   0  0  0  0  0  0  0  0  0  0  0  0
   -5.5827    5.6393  -18.1055 N   0  0  0  0  0  0  0  0  0  0  0  0
   -6.8152    5.4396  -17.3668 C   0  0  0  0  0  0  0  0  0  0  0  0
   -7.8932    4.7677  -18.1796 C   0  0  0  0  0  0  0  0  0  0  0  0
   -9.0935    4.4901  -17.3044 C   0  0  0  0  0  0  0  0  0  0  0  0
   -9.8817    3.5700  -17.9341 F   0  0  0  0  0  0  0  0  0  0  0  0
   -8.7873    3.9799  -15.9059 C   0  0  0  0  0  0  0  0  0  0  0  0
   -7.3810    4.1779  -15.3309 C   0  0  0  0  0  0  0  0  0  0  0  0
   -6.3931    4.5691  -16.3170 N   0  0  0  0  0  0  0  0  0  0  0  0
   -5.0857    4.9929  -15.9115 C   0  0  0  0  0  0  0  0  0  0  0  0
   -4.3365    3.8208  -15.7160 O   0  0  0  0  0  0  0  0  0  0  0  0
   -5.3635    4.8277  -18.6832 H   0  0  0  0  0  0  0  0  0  0  0  0
   -4.3648    3.2809  -16.5213 H   0  0  0  0  0  0  0  0  0  0  0  0
   -8.1786    4.3318  -11.5513 C   0  0  0  0  0  0  0  0  0  0  0  0
   -8.3754    3.1320  -10.8309 C   0  0  0  0  0  0  0  0  0  0  0  0
   -8.5119    3.1570   -9.4543 C   0  0  0  0  0  0  0  0  0  0  0  0
   -8.4311    4.3485   -8.7565 C   0  0  0  0  0  0  0  0  0  0  0  0
   -8.2410    5.5443   -9.4259 C   0  0  0  0  0  0  0  0  0  0  0  0
   -8.1417    5.5491  -10.8392 C   0  0  0  0  0  0  0  0  0  0  0  0
   -8.5954    4.0678   -7.2997 C   0  0  0  0  0  0  0  0  0  0  0  0
   -9.1473    2.6975   -7.2291 N   0  0  0  0  0  0  0  0  0  0  0  0
   -8.7361    2.0337   -8.4938 C   0  0  0  0  0  0  0  0  0  0  0  0
  -10.1643    2.7268   -7.1570 H   0  0  0  0  0  0  0  0  0  0  0  0
   -8.1164    6.8495  -11.4426 C   0  0  0  0  0  0  0  0  0  0  0  0
   -8.1631    7.9509  -11.8111 N   0  0  0  0  0  0  0  0  0  0  0  0
  5  6  1  0  0  0
  6  7  1  0  0  0
  7  8  1  0  0  0
  8  9  1  0  0  0
  9 10  1  0  0  0
 10 11  1  0  0  0
 10 12  1  0  0  0
 12 13  1  0  0  0
 13  1  1  0  0  0
  1  2  2  0  0  0
  1  3  1  0  0  0
  3 19  1  0  0  0
 19 20  2  0  0  0
 20 21  1  0  0  0
 21 22  2  0  0  0
 22 23  1  0  0  0
 23 24  2  0  0  0
 24 29  1  0  0  0
 29 30  3  0  0  0
 22 25  1  0  0  0
 25 26  1  0  0  0
 26 27  1  0  0  0
 13 14  1  0  0  0
 14 15  1  0  0  0
 15 16  1  0  0  0
 15  6  1  0  0  0
 14  8  1  0  0  0
 24 19  1  0  0  0
 27 21  1  0  0  0
  7 17  1  0  0  0
  3  4  1  0  0  0
 26 28  1  0  0  0
 16 18  1  0  0  0
M  END
> <minimizedAffinity>
-7.26307

> <minimizedRMSD>
0.20804

$$$$
P17910


 36 40  0  0  0  0  0  0  0  0999 V2000
   -7.8628    5.2848  -14.3187 C   0  0  0  0  0  0  0  0  0  0  0  0
   -7.3917    6.3411  -14.1555 O   0  0  0  0  0  0  0  0  0  0  0  0
   -8.3938    4.2547  -13.2939 N   0  0  0  0  0  0  0  0  0  0  0  0
   -8.8178    3.4597  -13.6906 H   0  0  0  0  0  0  0  0  0  0  0  0
   -3.9098    4.5431  -17.8922 C   0  0  0  0  0  0  0  0  0  0  0  0
   -5.0305    5.5695  -17.8502 C   0  0  0  0  0  0  0  0  0  0  0  0
   -4.5309    6.8083  -18.3024 O   0  0  0  0  0  0  0  0  0  0  0  0
   -5.6576    5.7193  -16.4406 C   0  0  0  0  0  0  0  0  0  0  0  0
   -7.0011    5.0956  -16.6448 C   0  0  0  0  0  0  0  0  0  0  0  0
   -7.1720    4.8168  -17.9965 C   0  0  0  0  0  0  0  0  0  0  0  0
   -8.3591    4.2909  -18.4646 C   0  0  0  0  0  0  0  0  0  0  0  0
   -9.3570    3.9973  -17.5427 C   0  0  0  0  0  0  0  0  0  0  0  0
  -10.5170    3.4871  -17.9764 F   0  0  0  0  0  0  0  0  0  0  0  0
   -9.1883    4.2386  -16.1774 C   0  0  0  0  0  0  0  0  0  0  0  0
   -8.0038    4.8185  -15.7204 C   0  0  0  0  0  0  0  0  0  0  0  0
   -6.0913    5.2412  -18.7947 N   0  0  0  0  0  0  0  0  0  0  0  0
   -3.8124    7.0993  -17.7194 H   0  0  0  0  0  0  0  0  0  0  0  0
   -6.0594    5.3026  -19.7767 H   0  0  0  0  0  0  0  0  0  0  0  0
   -8.3694    4.2690  -11.9005 C   0  0  0  0  0  0  0  0  0  0  0  0
   -8.7539    3.1338  -11.1861 C   0  0  0  0  0  0  0  0  0  0  0  0
   -8.7005    3.1870   -9.7992 C   0  0  0  0  0  0  0  0  0  0  0  0
   -8.2685    4.3288   -9.1280 C   0  0  0  0  0  0  0  0  0  0  0  0
   -7.8931    5.4685   -9.8218 C   0  0  0  0  0  0  0  0  0  0  0  0
   -7.9544    5.4269  -11.2197 C   0  0  0  0  0  0  0  0  0  0  0  0
   -8.3122    4.0859   -7.6587 C   0  0  0  0  0  0  0  0  0  0  0  0
   -8.7537    2.6905   -7.4697 N   0  0  0  0  0  0  0  0  0  0  0  0
   -9.0893    2.1410   -8.8082 C   0  0  0  0  0  0  0  0  0  0  0  0
   -9.5760    2.6644   -6.8668 H   0  0  0  0  0  0  0  0  0  0  0  0
   -7.4491    6.6927   -9.1409 C   0  0  0  0  0  0  0  0  0  0  0  0
   -8.3565    7.6400   -8.8438 C   0  0  0  0  0  0  0  0  0  0  0  0
   -8.1092    8.9649   -8.1801 C   0  0  0  0  0  0  0  0  0  0  0  0
   -6.3700    9.3397   -8.0324 S   0  0  0  0  0  0  0  0  0  0  0  0
   -5.8702    9.8209   -9.3076 O   0  0  0  0  0  0  0  0  0  0  0  0
   -6.1786   10.1345   -6.8313 O   0  0  0  0  0  0  0  0  0  0  0  0
   -5.6495    7.7483   -7.7242 C   0  0  0  0  0  0  0  0  0  0  0  0
   -5.9762    6.7785   -8.8432 C   0  0  0  0  0  0  0  0  0  0  0  0
  6  5  1  0  0  0
  6  7  1  0  0  0
  6  8  1  0  0  0
  8  9  1  0  0  0
  9 10  2  0  0  0
 10 11  1  0  0  0
 11 12  2  0  0  0
 12 13  1  0  0  0
 12 14  1  0  0  0
 14 15  2  0  0  0
 15  1  1  0  0  0
  1  2  2  0  0  0
  1  3  1  0  0  0
  3 19  1  0  0  0
 19 20  2  0  0  0
 20 21  1  0  0  0
 21 22  2  0  0  0
 22 23  1  0  0  0
 23 29  1  0  0  0
 29 30  2  0  0  0
 30 31  1  0  0  0
 31 32  1  0  0  0
 32 33  2  0  0  0
 32 34  2  0  0  0
 32 35  1  0  0  0
 35 36  1  0  0  0
 23 24  2  0  0  0
 22 25  1  0  0  0
 25 26  1  0  0  0
 26 27  1  0  0  0
 10 16  1  0  0  0
 16  6  1  0  0  0
 15  9  1  0  0  0
 24 19  1  0  0  0
 27 21  1  0  0  0
 36 29  1  0  0  0
  7 17  1  0  0  0
  3  4  1  0  0  0
 26 28  1  0  0  0
 16 18  1  0  0  0
M  END
> <minimizedAffinity>
-8.56151

> <minimizedRMSD>
0.50414

$$$$
P17916


 33 37  0  0  0  0  0  0  0  0999 V2000
   -4.8102    5.0111  -15.7457 C   0  0  0  0  0  0  0  0  0  0  0  0
   -5.0999    4.8398  -17.0717 N   0  0  0  0  0  0  0  0  0  0  0  0
   -6.4081    4.7283  -17.0875 C   0  0  0  0  0  0  0  0  0  0  0  0
   -7.3354    4.5357  -18.1462 C   0  0  0  0  0  0  0  0  0  0  0  0
   -8.6408    4.4028  -17.8629 C   0  0  0  0  0  0  0  0  0  0  0  0
   -9.5323    4.1890  -18.8500 F   0  0  0  0  0  0  0  0  0  0  0  0
   -9.1503    4.5103  -16.5111 C   0  0  0  0  0  0  0  0  0  0  0  0
   -8.2834    4.7423  -15.5062 C   0  0  0  0  0  0  0  0  0  0  0  0
   -6.9129    4.8292  -15.7874 N   0  0  0  0  0  0  0  0  0  0  0  0
   -5.8726    5.0009  -14.9367 N   0  0  0  0  0  0  0  0  0  0  0  0
   -3.5293    3.9668  -12.9736 C   0  0  0  0  0  0  0  0  0  0  0  0
   -2.8380    4.7657  -14.0209 C   0  0  0  0  0  0  0  0  0  0  0  0
   -1.5142    5.1230  -13.7902 N   0  0  0  0  0  0  0  0  0  0  0  0
   -1.0431    5.8226  -14.8017 C   0  0  0  0  0  0  0  0  0  0  0  0
   -2.1552    6.0777  -16.0895 S   0  0  0  0  0  0  0  0  0  0  0  0
   -3.3514    5.2198  -15.2228 C   0  0  0  0  0  0  0  0  0  0  0  0
    0.3588    6.3810  -14.8287 C   0  0  0  0  0  0  0  0  0  0  0  0
    0.3894    7.8121  -15.3652 C   0  0  0  0  0  0  0  0  0  0  0  0
    1.3295    5.4836  -15.5910 C   0  0  0  0  0  0  0  0  0  0  0  0
   -8.7944    5.1152  -14.1605 C   0  0  0  0  0  0  0  0  0  0  0  0
   -9.6178    5.9386  -14.0638 O   0  0  0  0  0  0  0  0  0  0  0  0
   -8.0432    4.3122  -13.0672 N   0  0  0  0  0  0  0  0  0  0  0  0
   -7.3314    3.7220  -13.4050 H   0  0  0  0  0  0  0  0  0  0  0  0
   -8.2120    4.2903  -11.6833 C   0  0  0  0  0  0  0  0  0  0  0  0
   -7.8666    5.4159  -10.9123 C   0  0  0  0  0  0  0  0  0  0  0  0
   -7.9717    5.4005   -9.5200 C   0  0  0  0  0  0  0  0  0  0  0  0
   -8.4381    4.2485   -8.9212 C   0  0  0  0  0  0  0  0  0  0  0  0
   -8.7974    3.1351   -9.6783 C   0  0  0  0  0  0  0  0  0  0  0  0
   -8.6891    3.1332  -11.0621 C   0  0  0  0  0  0  0  0  0  0  0  0
   -9.2336    2.0430   -8.7551 C   0  0  0  0  0  0  0  0  0  0  0  0
   -9.4233    2.7030   -7.4339 N   0  0  0  0  0  0  0  0  0  0  0  0
   -8.6099    3.9363   -7.4744 C   0  0  0  0  0  0  0  0  0  0  0  0
   -9.1028    2.0916   -6.6830 H   0  0  0  0  0  0  0  0  0  0  0  0
 11 12  1  0  0  0
 12 13  1  0  0  0
 13 14  2  0  0  0
 14 17  1  0  0  0
 17 18  1  0  0  0
 17 19  1  0  0  0
 14 15  1  0  0  0
 15 16  1  0  0  0
 16  1  1  0  0  0
  1  2  1  0  0  0
  2  3  2  0  0  0
  3  4  1  0  0  0
  4  5  2  0  0  0
  5  6  1  0  0  0
  5  7  1  0  0  0
  7  8  2  0  0  0
  8 20  1  0  0  0
 20 21  2  0  0  0
 20 22  1  0  0  0
 22 24  1  0  0  0
 24 25  2  0  0  0
 25 26  1  0  0  0
 26 27  2  0  0  0
 27 28  1  0  0  0
 28 29  2  0  0  0
 28 30  1  0  0  0
 30 31  1  0  0  0
 31 32  1  0  0  0
  8  9  1  0  0  0
  9 10  1  0  0  0
 16 12  2  0  0  0
 10  1  2  0  0  0
  9  3  1  0  0  0
 29 24  1  0  0  0
 32 27  1  0  0  0
 22 23  1  0  0  0
 31 33  1  0  0  0
M  END
> <minimizedAffinity>
-8.22468

> <minimizedRMSD>
2.31182

$$$$
P17919


 31 34  0  0  0  0  0  0  0  0999 V2000
   -5.6358    4.8799  -15.1648 C   0  0  0  0  0  0  0  0  0  0  0  0
   -5.5852    5.9180  -14.0442 C   0  0  0  0  0  0  0  0  0  0  0  0
   -4.6673    5.3556  -16.3016 C   0  0  0  0  0  0  0  0  0  0  0  0
   -5.1579    4.7919  -17.5708 N   0  0  0  0  0  0  0  0  0  0  0  0
   -4.6997    5.3913  -18.8086 C   0  0  0  0  0  0  0  0  0  0  0  0
   -6.5465    4.6793  -17.3563 C   0  0  0  0  0  0  0  0  0  0  0  0
   -7.5238    4.5061  -18.3297 C   0  0  0  0  0  0  0  0  0  0  0  0
   -8.8518    4.3740  -17.9433 C   0  0  0  0  0  0  0  0  0  0  0  0
   -9.8003    4.1868  -18.8729 F   0  0  0  0  0  0  0  0  0  0  0  0
   -9.2183    4.4515  -16.6059 C   0  0  0  0  0  0  0  0  0  0  0  0
   -8.2421    4.6770  -15.6316 C   0  0  0  0  0  0  0  0  0  0  0  0
   -6.8958    4.7425  -15.9942 C   0  0  0  0  0  0  0  0  0  0  0  0
   -8.7036    5.0490  -14.2828 C   0  0  0  0  0  0  0  0  0  0  0  0
   -9.4054    5.9768  -14.1919 O   0  0  0  0  0  0  0  0  0  0  0  0
   -8.1462    4.1069  -13.1963 N   0  0  0  0  0  0  0  0  0  0  0  0
   -7.6303    3.3418  -13.5395 H   0  0  0  0  0  0  0  0  0  0  0  0
   -8.2536    4.1622  -11.8097 C   0  0  0  0  0  0  0  0  0  0  0  0
   -7.8471    5.3169  -11.1152 C   0  0  0  0  0  0  0  0  0  0  0  0
   -7.8975    5.3764   -9.7228 C   0  0  0  0  0  0  0  0  0  0  0  0
   -8.3717    4.2694   -9.0498 C   0  0  0  0  0  0  0  0  0  0  0  0
   -8.7863    3.1267   -9.7310 C   0  0  0  0  0  0  0  0  0  0  0  0
   -8.7322    3.0509  -11.1133 C   0  0  0  0  0  0  0  0  0  0  0  0
   -9.2135    2.0965   -8.7370 C   0  0  0  0  0  0  0  0  0  0  0  0
   -9.3424    2.8316   -7.4477 N   0  0  0  0  0  0  0  0  0  0  0  0
   -8.4999    4.0385   -7.5833 C   0  0  0  0  0  0  0  0  0  0  0  0
   -9.0121    2.2534   -6.6750 H   0  0  0  0  0  0  0  0  0  0  0  0
   -5.1229    3.6014  -14.7340 O   0  0  0  0  0  0  0  0  0  0  0  0
   -4.4819    3.5433  -13.4654 C   0  0  0  0  0  0  0  0  0  0  0  0
   -3.6705    2.2579  -13.3248 C   0  0  0  0  0  0  0  0  0  0  0  0
   -2.4851    1.0932  -11.6515 C   0  0  0  0  0  0  0  0  0  0  0  0
   -3.6269    1.8811  -11.9521 O   0  0  0  0  0  0  0  0  0  0  0  0
 30 31  1  0  0  0
 31 29  1  0  0  0
 29 28  1  0  0  0
 28 27  1  0  0  0
 27  1  1  0  0  0
  1  2  1  0  0  0
  1  3  1  0  0  0
  3  4  1  0  0  0
  4  5  1  0  0  0
  4  6  1  0  0  0
  6  7  2  0  0  0
  7  8  1  0  0  0
  8  9  1  0  0  0
  8 10  2  0  0  0
 10 11  1  0  0  0
 11 13  1  0  0  0
 13 14  2  0  0  0
 13 15  1  0  0  0
 15 17  1  0  0  0
 17 18  2  0  0  0
 18 19  1  0  0  0
 19 20  2  0  0  0
 20 21  1  0  0  0
 21 22  2  0  0  0
 21 23  1  0  0  0
 23 24  1  0  0  0
 24 25  1  0  0  0
 11 12  2  0  0  0
 12  1  1  0  0  0
 12  6  1  0  0  0
 22 17  1  0  0  0
 25 20  1  0  0  0
 15 16  1  0  0  0
 24 26  1  0  0  0
M  END
> <minimizedAffinity>
-8.25641

> <minimizedRMSD>
1.12916

$$$$
P17925


 27 30  0  0  0  0  0  0  0  0999 V2000
   -7.0227    5.8477  -13.1269 C   0  0  0  0  0  0  0  0  0  0  0  0
   -7.0288    6.9721  -12.8028 O   0  0  0  0  0  0  0  0  0  0  0  0
   -7.4654    4.5738  -12.3533 N   0  0  0  0  0  0  0  0  0  0  0  0
   -7.4332    3.7411  -12.8775 H   0  0  0  0  0  0  0  0  0  0  0  0
   -9.8089    4.4160  -17.9491 C   0  0  0  0  0  0  0  0  0  0  0  0
   -8.6297    4.4835  -17.0761 C   0  0  0  0  0  0  0  0  0  0  0  0
   -7.4136    4.2428  -17.6369 N   0  0  0  0  0  0  0  0  0  0  0  0
   -6.5549    4.6894  -16.7607 C   0  0  0  0  0  0  0  0  0  0  0  0
   -5.1808    4.9623  -16.9139 C   0  0  0  0  0  0  0  0  0  0  0  0
   -4.4936    5.4292  -15.8659 C   0  0  0  0  0  0  0  0  0  0  0  0
   -3.1962    5.7412  -16.0191 F   0  0  0  0  0  0  0  0  0  0  0  0
   -5.1041    5.6529  -14.5716 C   0  0  0  0  0  0  0  0  0  0  0  0
   -6.4301    5.4457  -14.4332 C   0  0  0  0  0  0  0  0  0  0  0  0
   -7.1505    5.0057  -15.5432 N   0  0  0  0  0  0  0  0  0  0  0  0
   -8.4995    4.9755  -15.7863 C   0  0  0  0  0  0  0  0  0  0  0  0
   -9.3708    5.5416  -14.9543 O   0  0  0  0  0  0  0  0  0  0  0  0
   -9.0942    5.8169  -14.1024 H   0  0  0  0  0  0  0  0  0  0  0  0
   -7.9020    4.4187  -11.0336 C   0  0  0  0  0  0  0  0  0  0  0  0
   -7.7868    5.4734  -10.1130 C   0  0  0  0  0  0  0  0  0  0  0  0
   -8.1468    5.3037   -8.7715 C   0  0  0  0  0  0  0  0  0  0  0  0
   -8.6195    4.0687   -8.3688 C   0  0  0  0  0  0  0  0  0  0  0  0
   -8.7568    3.0268   -9.2758 C   0  0  0  0  0  0  0  0  0  0  0  0
   -8.4127    3.1841  -10.6145 C   0  0  0  0  0  0  0  0  0  0  0  0
   -9.2716    1.8202   -8.5650 C   0  0  0  0  0  0  0  0  0  0  0  0
   -9.4829    2.2163   -7.1477 N   0  0  0  0  0  0  0  0  0  0  0  0
   -9.0393    3.6186   -7.0124 C   0  0  0  0  0  0  0  0  0  0  0  0
   -8.9344    1.6159   -6.5320 H   0  0  0  0  0  0  0  0  0  0  0  0
  5  6  1  0  0  0
  6  7  1  0  0  0
  7  8  2  0  0  0
  8  9  1  0  0  0
  9 10  2  0  0  0
 10 11  1  0  0  0
 10 12  1  0  0  0
 12 13  2  0  0  0
 13  1  1  0  0  0
  1  2  2  0  0  0
  1  3  1  0  0  0
  3 18  1  0  0  0
 18 19  2  0  0  0
 19 20  1  0  0  0
 20 21  2  0  0  0
 21 22  1  0  0  0
 22 23  2  0  0  0
 22 24  1  0  0  0
 24 25  1  0  0  0
 25 26  1  0  0  0
 13 14  1  0  0  0
 14 15  1  0  0  0
 15 16  1  0  0  0
 15  6  2  0  0  0
 14  8  1  0  0  0
 23 18  1  0  0  0
 26 21  1  0  0  0
  3  4  1  0  0  0
 25 27  1  0  0  0
 16 17  1  0  0  0
M  END
> <minimizedAffinity>
-7.44496

> <minimizedRMSD>
0.82190

$$$$
P17949


 35 37  0  0  0  0  0  0  0  0999 V2000
   -7.0222    3.9843  -13.4971 C   0  0  0  0  0  0  0  0  0  0  0  0
   -6.3026    5.0909  -12.9499 O   0  0  0  0  0  0  0  0  0  0  0  0
   -6.7897    5.9114  -13.1244 H   0  0  0  0  0  0  0  0  0  0  0  0
   -5.9199    4.8225  -16.9982 C   0  0  0  0  0  0  0  0  0  0  0  0
   -7.0795    4.8000  -17.7452 C   0  0  0  0  0  0  0  0  0  0  0  0
   -8.2579    4.4851  -17.0956 C   0  0  0  0  0  0  0  0  0  0  0  0
   -9.6934    4.4238  -18.0203 Cl  0  0  0  0  0  0  0  0  0  0  0  0
   -8.2875    4.2236  -15.7317 C   0  0  0  0  0  0  0  0  0  0  0  0
   -7.0922    4.2474  -15.0235 C   0  0  0  0  0  0  0  0  0  0  0  0
   -5.9184    4.5420  -15.6622 N   0  0  0  0  0  0  0  0  0  0  0  0
   -4.4046    4.8277  -19.0872 C   0  0  0  0  0  0  0  0  0  0  0  0
   -4.5579    5.1411  -17.5985 C   0  0  0  0  0  0  0  0  0  0  0  0
   -4.2389    6.6184  -17.3501 C   0  0  0  0  0  0  0  0  0  0  0  0
   -3.5598    4.3832  -16.8876 O   0  0  0  0  0  0  0  0  0  0  0  0
   -2.6839    4.5746  -17.2580 H   0  0  0  0  0  0  0  0  0  0  0  0
   -6.2713    2.5904  -13.2442 C   0  0  0  0  0  0  0  0  0  0  0  0
   -6.8123    1.5519  -13.2427 O   0  0  0  0  0  0  0  0  0  0  0  0
   -4.7758    2.9492  -12.9955 N   0  0  0  0  0  0  0  0  0  0  0  0
   -4.5809    3.9141  -12.9759 H   0  0  0  0  0  0  0  0  0  0  0  0
   -3.6369    2.1021  -12.7905 C   0  0  0  0  0  0  0  0  0  0  0  0
   -3.6600    1.4554  -11.4155 C   0  0  0  0  0  0  0  0  0  0  0  0
   -2.2570    1.3201  -10.8578 C   0  0  0  0  0  0  0  0  0  0  0  0
   -2.3356    1.0177   -9.5334 F   0  0  0  0  0  0  0  0  0  0  0  0
   -8.3740    3.9783  -12.8779 N   0  0  0  0  0  0  0  0  0  0  0  0
   -9.1969    3.9567  -13.4179 H   0  0  0  0  0  0  0  0  0  0  0  0
   -8.4030    4.0058  -11.4566 C   0  0  0  0  0  0  0  0  0  0  0  0
   -8.1253    5.1956  -10.7507 C   0  0  0  0  0  0  0  0  0  0  0  0
   -8.1840    5.2469   -9.3525 C   0  0  0  0  0  0  0  0  0  0  0  0
   -8.5464    4.1003   -8.6737 C   0  0  0  0  0  0  0  0  0  0  0  0
   -8.8004    2.9163   -9.3552 C   0  0  0  0  0  0  0  0  0  0  0  0
   -8.7172    2.8463  -10.7344 C   0  0  0  0  0  0  0  0  0  0  0  0
   -9.1530    1.8508   -8.3716 C   0  0  0  0  0  0  0  0  0  0  0  0
   -9.4915    2.5873   -7.1239 N   0  0  0  0  0  0  0  0  0  0  0  0
   -8.7569    3.8694   -7.2147 C   0  0  0  0  0  0  0  0  0  0  0  0
   -9.1895    2.0599   -6.3048 H   0  0  0  0  0  0  0  0  0  0  0  0
 11 12  1  0  0  0
 12 13  1  0  0  0
 12 14  1  0  0  0
 12  4  1  0  0  0
  4  5  2  0  0  0
  5  6  1  0  0  0
  6  7  1  0  0  0
  6  8  2  0  0  0
  8  9  1  0  0  0
  9  1  1  0  0  0
  1  2  1  0  0  0
  1 24  1  0  0  0
 24 26  1  0  0  0
 26 27  2  0  0  0
 27 28  1  0  0  0
 28 29  2  0  0  0
 29 30  1  0  0  0
 30 31  2  0  0  0
 30 32  1  0  0  0
 32 33  1  0  0  0
 33 34  1  0  0  0
  1 16  1  0  0  0
 16 17  2  0  0  0
 16 18  1  0  0  0
 18 20  1  0  0  0
 20 21  1  0  0  0
 21 22  1  0  0  0
 22 23  1  0  0  0
  9 10  2  0  0  0
 10  4  1  0  0  0
 31 26  1  0  0  0
 34 29  1  0  0  0
 14 15  1  0  0  0
  2  3  1  0  0  0
 24 25  1  0  0  0
 33 35  1  0  0  0
 18 19  1  0  0  0
M  END
> <minimizedAffinity>
-8.12332

> <minimizedRMSD>
0.26830

$$$$
P17956


 36 38  0  0  0  0  0  0  0  0999 V2000
   -6.9350    4.0975  -13.7155 C   0  0  0  0  0  0  0  0  0  0  0  0
   -6.2422    5.2846  -13.3391 O   0  0  0  0  0  0  0  0  0  0  0  0
   -6.0791    5.2744  -12.3830 H   0  0  0  0  0  0  0  0  0  0  0  0
   -7.1366    4.2242  -15.2396 C   0  0  0  0  0  0  0  0  0  0  0  0
   -8.4209    4.2094  -15.7686 C   0  0  0  0  0  0  0  0  0  0  0  0
   -8.5761    4.4534  -17.1188 C   0  0  0  0  0  0  0  0  0  0  0  0
  -10.1332    4.5283  -17.8150 Cl  0  0  0  0  0  0  0  0  0  0  0  0
   -7.4817    4.6836  -17.9257 C   0  0  0  0  0  0  0  0  0  0  0  0
   -6.2307    4.6937  -17.3510 C   0  0  0  0  0  0  0  0  0  0  0  0
   -6.0552    4.4925  -16.0292 N   0  0  0  0  0  0  0  0  0  0  0  0
   -5.0702    4.8940  -18.0712 N   0  0  0  0  0  0  0  0  0  0  0  0
   -4.7194    4.1814  -18.6529 H   0  0  0  0  0  0  0  0  0  0  0  0
   -4.3791    6.1443  -17.9677 C   0  0  0  0  0  0  0  0  0  0  0  0
   -4.2345    6.8866  -19.2768 C   0  0  0  0  0  0  0  0  0  0  0  0
   -4.9192    6.9513  -16.9503 O   0  0  0  0  0  0  0  0  0  0  0  0
   -3.1324    5.8308  -17.5240 F   0  0  0  0  0  0  0  0  0  0  0  0
   -5.8188    7.2200  -17.1940 H   0  0  0  0  0  0  0  0  0  0  0  0
   -4.6689    3.1473  -13.1469 N   0  0  0  0  0  0  0  0  0  0  0  0
   -6.1545    2.7324  -13.3975 C   0  0  0  0  0  0  0  0  0  0  0  0
   -6.6706    1.6824  -13.3312 O   0  0  0  0  0  0  0  0  0  0  0  0
   -4.4977    4.1156  -13.1931 H   0  0  0  0  0  0  0  0  0  0  0  0
   -3.6828    1.6354  -11.5190 C   0  0  0  0  0  0  0  0  0  0  0  0
   -3.5084    2.3419  -12.8589 C   0  0  0  0  0  0  0  0  0  0  0  0
   -2.2442    3.1902  -12.8762 C   0  0  0  0  0  0  0  0  0  0  0  0
   -8.2190    4.1361  -12.9858 N   0  0  0  0  0  0  0  0  0  0  0  0
   -9.0625    4.1388  -13.4935 H   0  0  0  0  0  0  0  0  0  0  0  0
   -8.2605    4.1691  -11.5745 C   0  0  0  0  0  0  0  0  0  0  0  0
   -8.0542    5.3353  -10.8081 C   0  0  0  0  0  0  0  0  0  0  0  0
   -8.2118    5.3451   -9.4150 C   0  0  0  0  0  0  0  0  0  0  0  0
   -8.5871    4.1757   -8.7869 C   0  0  0  0  0  0  0  0  0  0  0  0
   -8.8009    3.0200   -9.5175 C   0  0  0  0  0  0  0  0  0  0  0  0
   -8.6667    3.0055  -10.8987 C   0  0  0  0  0  0  0  0  0  0  0  0
   -9.1447    1.9024   -8.5943 C   0  0  0  0  0  0  0  0  0  0  0  0
   -9.2840    2.5052   -7.2414 N   0  0  0  0  0  0  0  0  0  0  0  0
   -8.8308    3.9085   -7.3429 C   0  0  0  0  0  0  0  0  0  0  0  0
   -8.7058    1.9983   -6.5712 H   0  0  0  0  0  0  0  0  0  0  0  0
 22 23  1  0  0  0
 23 24  1  0  0  0
 23 18  1  0  0  0
 18 19  1  0  0  0
 19 20  2  0  0  0
 19  1  1  0  0  0
  1  2  1  0  0  0
  1 25  1  0  0  0
 25 27  1  0  0  0
 27 28  2  0  0  0
 28 29  1  0  0  0
 29 30  2  0  0  0
 30 31  1  0  0  0
 31 32  2  0  0  0
 31 33  1  0  0  0
 33 34  1  0  0  0
 34 35  1  0  0  0
  1  4  1  0  0  0
  4  5  2  0  0  0
  5  6  1  0  0  0
  6  7  1  0  0  0
  6  8  2  0  0  0
  8  9  1  0  0  0
  9 11  1  0  0  0
 11 13  1  0  0  0
 13 14  1  0  0  0
 13 15  1  0  0  0
 13 16  1  0  0  0
  9 10  2  0  0  0
 32 27  1  0  0  0
 10  4  1  0  0  0
 35 30  1  0  0  0
 18 21  1  0  0  0
  2  3  1  0  0  0
 25 26  1  0  0  0
 34 36  1  0  0  0
 11 12  1  0  0  0
 15 17  1  0  0  0
M  END
> <minimizedAffinity>
-7.87626

> <minimizedRMSD>
1.88334

$$$$
P17972


 25 27  0  0  0  0  0  0  0  0999 V2000
   -6.8795    4.4823  -14.3936 C   0  0  0  0  0  0  0  0  0  0  0  0
   -5.7429    4.5765  -14.1317 O   0  0  0  0  0  0  0  0  0  0  0  0
   -8.1267    4.4526  -13.4682 N   0  0  0  0  0  0  0  0  0  0  0  0
   -8.9904    4.4428  -13.9406 H   0  0  0  0  0  0  0  0  0  0  0  0
   -8.2218    4.4375  -12.0759 C   0  0  0  0  0  0  0  0  0  0  0  0
   -8.0273    5.6095  -11.3249 C   0  0  0  0  0  0  0  0  0  0  0  0
   -8.1112    5.5937   -9.9279 C   0  0  0  0  0  0  0  0  0  0  0  0
   -8.3986    4.3947   -9.3050 C   0  0  0  0  0  0  0  0  0  0  0  0
   -8.5852    3.2297  -10.0431 C   0  0  0  0  0  0  0  0  0  0  0  0
   -8.4999    3.2303  -11.4276 C   0  0  0  0  0  0  0  0  0  0  0  0
   -8.8385    2.0988   -9.1008 C   0  0  0  0  0  0  0  0  0  0  0  0
   -9.1773    2.7424   -7.8047 N   0  0  0  0  0  0  0  0  0  0  0  0
   -8.5491    4.0814   -7.8535 C   0  0  0  0  0  0  0  0  0  0  0  0
   -8.8004    2.1997   -7.0277 H   0  0  0  0  0  0  0  0  0  0  0  0
   -6.5886    4.6332  -18.0470 C   0  0  0  0  0  0  0  0  0  0  0  0
   -7.9022    4.5504  -18.4755 C   0  0  0  0  0  0  0  0  0  0  0  0
   -8.8958    4.3918  -17.5267 C   0  0  0  0  0  0  0  0  0  0  0  0
  -10.5111    4.3716  -18.0503 Cl  0  0  0  0  0  0  0  0  0  0  0  0
   -8.5982    4.2973  -16.1799 C   0  0  0  0  0  0  0  0  0  0  0  0
   -7.2669    4.4030  -15.8352 C   0  0  0  0  0  0  0  0  0  0  0  0
   -6.2590    4.5636  -16.7325 N   0  0  0  0  0  0  0  0  0  0  0  0
   -5.7992    4.5959  -20.4295 N   0  0  0  0  0  0  0  0  0  0  0  0
   -5.4479    4.7999  -19.0256 C   0  0  0  0  0  0  0  0  0  0  0  0
   -4.9710    4.7286  -21.0099 H   0  0  0  0  0  0  0  0  0  0  0  0
   -6.5163    5.2682  -20.7017 H   0  0  0  0  0  0  0  0  0  0  0  0
 22 23  1  0  0  0
 23 15  1  0  0  0
 15 16  2  0  0  0
 16 17  1  0  0  0
 17 18  1  0  0  0
 17 19  2  0  0  0
 19 20  1  0  0  0
 20  1  1  0  0  0
  1  2  2  0  0  0
  1  3  1  0  0  0
  3  5  1  0  0  0
  5  6  2  0  0  0
  6  7  1  0  0  0
  7  8  2  0  0  0
  8  9  1  0  0  0
  9 10  2  0  0  0
  9 11  1  0  0  0
 11 12  1  0  0  0
 12 13  1  0  0  0
 20 21  2  0  0  0
 21 15  1  0  0  0
 10  5  1  0  0  0
 13  8  1  0  0  0
 22 24  1  0  0  0
 22 25  1  0  0  0
  3  4  1  0  0  0
 12 14  1  0  0  0
M  END
> <minimizedAffinity>
-7.47634

> <minimizedRMSD>
1.15651

$$$$
P17982


 27 31  0  0  0  0  0  0  0  0999 V2000
   -6.8068    5.1835  -13.6097 C   0  0  0  0  0  0  0  0  0  0  0  0
   -6.1814    6.1033  -13.2523 O   0  0  0  0  0  0  0  0  0  0  0  0
   -7.6805    4.1872  -12.8031 N   0  0  0  0  0  0  0  0  0  0  0  0
   -8.0497    3.4422  -13.3303 H   0  0  0  0  0  0  0  0  0  0  0  0
   -2.5412    4.9219  -17.2526 O   0  0  0  0  0  0  0  0  0  0  0  0
   -3.7267    4.9731  -16.9876 C   0  0  0  0  0  0  0  0  0  0  0  0
   -4.2976    5.0020  -15.6962 N   0  0  0  0  0  0  0  0  0  0  0  0
   -5.5738    4.8803  -15.8677 C   0  0  0  0  0  0  0  0  0  0  0  0
   -6.8067    4.7961  -15.0436 C   0  0  0  0  0  0  0  0  0  0  0  0
   -7.9890    4.5942  -15.6894 C   0  0  0  0  0  0  0  0  0  0  0  0
   -8.1219    4.4503  -17.1647 C   0  0  0  0  0  0  0  0  0  0  0  0
   -9.7989    4.2404  -17.8827 Br  0  0  0  0  0  0  0  0  0  0  0  0
   -7.0325    4.5762  -17.9264 C   0  0  0  0  0  0  0  0  0  0  0  0
   -5.8543    4.8051  -17.2503 C   0  0  0  0  0  0  0  0  0  0  0  0
   -4.7754    4.9030  -17.9684 C   0  0  0  0  0  0  0  0  0  0  0  0
   -5.3752    4.7337  -19.2690 C   0  0  0  0  0  0  0  0  0  0  0  0
   -6.6810    4.5375  -19.2561 N   0  0  0  0  0  0  0  0  0  0  0  0
   -8.0281    4.1754  -11.4520 C   0  0  0  0  0  0  0  0  0  0  0  0
   -7.8953    5.3295  -10.6621 C   0  0  0  0  0  0  0  0  0  0  0  0
   -8.1968    5.3048   -9.2961 C   0  0  0  0  0  0  0  0  0  0  0  0
   -8.6160    4.1114   -8.7385 C   0  0  0  0  0  0  0  0  0  0  0  0
   -8.7525    2.9694   -9.5158 C   0  0  0  0  0  0  0  0  0  0  0  0
   -8.4782    2.9845  -10.8766 C   0  0  0  0  0  0  0  0  0  0  0  0
   -9.1637    1.8274   -8.6501 C   0  0  0  0  0  0  0  0  0  0  0  0
   -9.4042    2.3900   -7.2962 N   0  0  0  0  0  0  0  0  0  0  0  0
   -8.9603    3.7995   -7.3230 C   0  0  0  0  0  0  0  0  0  0  0  0
   -8.8698    1.8686   -6.6012 H   0  0  0  0  0  0  0  0  0  0  0  0
  5  6  2  0  0  0
  6  7  1  0  0  0
  7  8  2  0  0  0
  8  9  1  0  0  0
  9  1  1  0  0  0
  1  2  2  0  0  0
  1  3  1  0  0  0
  3 18  1  0  0  0
 18 19  2  0  0  0
 19 20  1  0  0  0
 20 21  2  0  0  0
 21 22  1  0  0  0
 22 23  2  0  0  0
 22 24  1  0  0  0
 24 25  1  0  0  0
 25 26  1  0  0  0
  9 10  2  0  0  0
 10 11  1  0  0  0
 11 12  1  0  0  0
 11 13  2  0  0  0
 13 14  1  0  0  0
 14 15  2  0  0  0
 15 16  1  0  0  0
 16 17  2  0  0  0
 15  6  1  0  0  0
 14  8  1  0  0  0
 23 18  1  0  0  0
 17 13  1  0  0  0
 26 21  1  0  0  0
  3  4  1  0  0  0
 25 27  1  0  0  0
M  END
> <minimizedAffinity>
-8.29522

> <minimizedRMSD>
0.35743

$$$$
P17984


 31 34  0  0  0  0  0  0  0  0999 V2000
   -6.3618    4.4162  -13.8230 C   0  0  0  0  0  0  0  0  0  0  0  0
   -5.2346    4.3325  -13.3751 N   0  0  0  0  0  0  0  0  0  0  0  0
   -8.9255    4.5242  -19.5600 N   0  0  0  0  0  0  0  0  0  0  0  0
   -8.5185    4.3524  -18.2694 C   0  0  0  0  0  0  0  0  0  0  0  0
   -7.3502    4.4987  -17.6742 C   0  0  0  0  0  0  0  0  0  0  0  0
   -6.0929    4.8376  -18.2296 C   0  0  0  0  0  0  0  0  0  0  0  0
   -5.0543    4.9354  -17.3983 C   0  0  0  0  0  0  0  0  0  0  0  0
   -3.3621    5.3457  -18.0319 Br  0  0  0  0  0  0  0  0  0  0  0  0
   -5.2232    4.7459  -15.9715 C   0  0  0  0  0  0  0  0  0  0  0  0
   -6.3921    4.4422  -15.3551 C   0  0  0  0  0  0  0  0  0  0  0  0
   -7.5777    4.2526  -16.2412 C   0  0  0  0  0  0  0  0  0  0  0  0
   -8.8006    3.9320  -15.9692 N   0  0  0  0  0  0  0  0  0  0  0  0
   -9.4521    3.9471  -17.1992 C   0  0  0  0  0  0  0  0  0  0  0  0
  -10.6029    3.6610  -17.4856 O   0  0  0  0  0  0  0  0  0  0  0  0
   -8.2765    4.7950  -20.2489 H   0  0  0  0  0  0  0  0  0  0  0  0
   -9.8683    4.3774  -19.8025 H   0  0  0  0  0  0  0  0  0  0  0  0
   -4.8677    4.1997  -11.9988 C   0  0  0  0  0  0  0  0  0  0  0  0
   -3.6135    3.6692  -11.9605 F   0  0  0  0  0  0  0  0  0  0  0  0
   -4.7579    5.4311  -11.4419 F   0  0  0  0  0  0  0  0  0  0  0  0
   -7.7548    4.5934  -13.0820 N   0  0  0  0  0  0  0  0  0  0  0  0
   -8.5136    4.7969  -13.6752 H   0  0  0  0  0  0  0  0  0  0  0  0
   -8.0795    4.5081  -11.7288 C   0  0  0  0  0  0  0  0  0  0  0  0
   -8.0086    5.6588  -10.9133 C   0  0  0  0  0  0  0  0  0  0  0  0
   -8.1796    5.5995   -9.5264 C   0  0  0  0  0  0  0  0  0  0  0  0
   -8.4802    4.3763   -8.9666 C   0  0  0  0  0  0  0  0  0  0  0  0
   -8.6167    3.2413   -9.7607 C   0  0  0  0  0  0  0  0  0  0  0  0
   -8.4193    3.2889  -11.1364 C   0  0  0  0  0  0  0  0  0  0  0  0
   -8.9488    2.0807   -8.8781 C   0  0  0  0  0  0  0  0  0  0  0  0
   -9.3598    2.6815   -7.5815 N   0  0  0  0  0  0  0  0  0  0  0  0
   -8.7086    4.0071   -7.5387 C   0  0  0  0  0  0  0  0  0  0  0  0
   -9.0426    2.1029   -6.8037 H   0  0  0  0  0  0  0  0  0  0  0  0
  3  4  1  0  0  0
  4  5  2  0  0  0
  5  6  1  0  0  0
  6  7  2  0  0  0
  7  8  1  0  0  0
  7  9  1  0  0  0
  9 10  2  0  0  0
 10  1  1  0  0  0
  1  2  2  0  0  0
  2 17  1  0  0  0
 17 18  1  0  0  0
 17 19  1  0  0  0
  1 20  1  0  0  0
 20 22  1  0  0  0
 22 23  2  0  0  0
 23 24  1  0  0  0
 24 25  2  0  0  0
 25 26  1  0  0  0
 26 27  2  0  0  0
 26 28  1  0  0  0
 28 29  1  0  0  0
 29 30  1  0  0  0
 10 11  1  0  0  0
 11 12  2  0  0  0
 12 13  1  0  0  0
 13 14  2  0  0  0
 13  4  1  0  0  0
 11  5  1  0  0  0
 27 22  1  0  0  0
 30 25  1  0  0  0
  3 15  1  0  0  0
  3 16  1  0  0  0
 20 21  1  0  0  0
 29 31  1  0  0  0
M  END
> <minimizedAffinity>
-8.30086

> <minimizedRMSD>
0.65324

$$$$
P17985


 38 43  0  0  0  0  0  0  0  0999 V2000
   -7.4662    5.0847  -14.8149 C   0  0  0  0  0  0  0  0  0  0  0  0
   -8.4631    4.6425  -15.6042 C   0  0  0  0  0  0  0  0  0  0  0  0
   -8.2955    4.3752  -17.0226 C   0  0  0  0  0  0  0  0  0  0  0  0
   -9.8028    3.8966  -17.9722 Br  0  0  0  0  0  0  0  0  0  0  0  0
   -7.1385    4.5319  -17.6742 C   0  0  0  0  0  0  0  0  0  0  0  0
   -6.0165    5.0211  -16.8966 C   0  0  0  0  0  0  0  0  0  0  0  0
   -6.1636    5.3238  -15.4465 C   0  0  0  0  0  0  0  0  0  0  0  0
   -5.0442    5.7769  -14.9988 N   0  0  0  0  0  0  0  0  0  0  0  0
   -4.2443    5.7984  -16.1275 C   0  0  0  0  0  0  0  0  0  0  0  0
   -3.0539    6.3156  -16.0868 N   0  0  0  0  0  0  0  0  0  0  0  0
   -4.8244    5.2954  -17.2796 N   0  0  0  0  0  0  0  0  0  0  0  0
   -2.3910    6.3290  -17.2829 N   0  0  0  0  0  0  0  0  0  0  0  0
   -2.3565    7.6052  -18.0177 C   0  0  0  0  0  0  0  0  0  0  0  0
   -2.0270    7.3509  -19.4863 C   0  0  0  0  0  0  0  0  0  0  0  0
   -0.7042    6.5923  -19.6317 C   0  0  0  0  0  0  0  0  0  0  0  0
   -0.6841    5.3535  -18.7303 C   0  0  0  0  0  0  0  0  0  0  0  0
   -1.0629    5.7095  -17.2954 C   0  0  0  0  0  0  0  0  0  0  0  0
   -0.4093    6.2582  -21.0217 N   0  0  0  0  0  0  0  0  0  0  0  0
   -1.2218    5.7070  -21.9486 C   0  0  0  0  0  0  0  0  0  0  0  0
   -0.6433    5.3486  -23.0541 N   0  0  0  0  0  0  0  0  0  0  0  0
    0.6739    5.6452  -22.8328 N   0  0  0  0  0  0  0  0  0  0  0  0
    0.8510    6.1320  -21.5423 C   0  0  0  0  0  0  0  0  0  0  0  0
    1.9199    6.3598  -20.9994 O   0  0  0  0  0  0  0  0  0  0  0  0
    1.3945    5.5302  -23.4937 H   0  0  0  0  0  0  0  0  0  0  0  0
   -7.8925    6.6864  -13.2090 O   0  0  0  0  0  0  0  0  0  0  0  0
   -7.7731    5.5472  -13.4394 C   0  0  0  0  0  0  0  0  0  0  0  0
   -7.9409    4.3112  -12.5158 N   0  0  0  0  0  0  0  0  0  0  0  0
   -7.8596    3.4421  -12.9712 H   0  0  0  0  0  0  0  0  0  0  0  0
   -8.1881    4.2317  -11.1460 C   0  0  0  0  0  0  0  0  0  0  0  0
   -7.9756    5.3365  -10.3041 C   0  0  0  0  0  0  0  0  0  0  0  0
   -8.2002    5.2461   -8.9257 C   0  0  0  0  0  0  0  0  0  0  0  0
   -8.6502    4.0442   -8.4155 C   0  0  0  0  0  0  0  0  0  0  0  0
   -8.8660    2.9492   -9.2468 C   0  0  0  0  0  0  0  0  0  0  0  0
   -8.6372    3.0205  -10.6128 C   0  0  0  0  0  0  0  0  0  0  0  0
   -9.3201    1.7947   -8.4123 C   0  0  0  0  0  0  0  0  0  0  0  0
   -9.7139    2.3886   -7.1070 N   0  0  0  0  0  0  0  0  0  0  0  0
   -8.9581    3.6562   -7.0076 C   0  0  0  0  0  0  0  0  0  0  0  0
   -9.4643    1.7634   -6.3407 H   0  0  0  0  0  0  0  0  0  0  0  0
 25 26  2  0  0  0
 26 27  1  0  0  0
 27 29  1  0  0  0
 29 30  2  0  0  0
 30 31  1  0  0  0
 31 32  2  0  0  0
 32 33  1  0  0  0
 33 34  2  0  0  0
 33 35  1  0  0  0
 35 36  1  0  0  0
 36 37  1  0  0  0
 26  1  1  0  0  0
  1  2  2  0  0  0
  2  3  1  0  0  0
  3  4  1  0  0  0
  3  5  2  0  0  0
  5  6  1  0  0  0
  6  7  1  0  0  0
  7  8  2  0  0  0
  8  9  1  0  0  0
  9 10  2  0  0  0
 10 12  1  0  0  0
 12 13  1  0  0  0
 13 14  1  0  0  0
 14 15  1  0  0  0
 15 18  1  0  0  0
 18 19  1  0  0  0
 19 20  2  0  0  0
 20 21  1  0  0  0
 21 22  1  0  0  0
 22 23  2  0  0  0
 15 16  1  0  0  0
 16 17  1  0  0  0
  9 11  1  0  0  0
 34 29  1  0  0  0
  7  1  1  0  0  0
 17 12  1  0  0  0
 37 32  1  0  0  0
 11  6  2  0  0  0
 22 18  1  0  0  0
 27 28  1  0  0  0
 36 38  1  0  0  0
 21 24  1  0  0  0
M  END
> <minimizedAffinity>
-8.00974

> <minimizedRMSD>
0.56855

$$$$
P17991


 29 32  0  0  0  0  0  0  0  0999 V2000
   -3.1301    5.3574  -14.2767 O   0  0  0  0  0  0  0  0  0  0  0  0
   -4.2448    5.1391  -14.7201 C   0  0  0  0  0  0  0  0  0  0  0  0
   -5.3837    5.0503  -13.9371 N   0  0  0  0  0  0  0  0  0  0  0  0
   -6.3273    4.8553  -14.7874 C   0  0  0  0  0  0  0  0  0  0  0  0
   -7.7706    4.7028  -14.6315 C   0  0  0  0  0  0  0  0  0  0  0  0
   -8.4914    4.5076  -15.7473 C   0  0  0  0  0  0  0  0  0  0  0  0
   -7.9114    4.4680  -17.0783 C   0  0  0  0  0  0  0  0  0  0  0  0
   -9.1330    4.3945  -18.4875 Br  0  0  0  0  0  0  0  0  0  0  0  0
   -6.5924    4.5966  -17.3171 C   0  0  0  0  0  0  0  0  0  0  0  0
   -5.7444    4.7942  -16.1470 C   0  0  0  0  0  0  0  0  0  0  0  0
   -4.4765    4.9728  -16.0669 N   0  0  0  0  0  0  0  0  0  0  0  0
   -8.4557    5.0123  -13.3575 C   0  0  0  0  0  0  0  0  0  0  0  0
   -9.2703    5.8470  -13.3102 O   0  0  0  0  0  0  0  0  0  0  0  0
   -7.9152    4.0737  -12.2515 N   0  0  0  0  0  0  0  0  0  0  0  0
   -7.2747    3.3945  -12.5639 H   0  0  0  0  0  0  0  0  0  0  0  0
   -8.1874    4.0341  -10.8879 C   0  0  0  0  0  0  0  0  0  0  0  0
   -7.9864    5.1652  -10.0811 C   0  0  0  0  0  0  0  0  0  0  0  0
   -8.2323    5.1143   -8.7068 C   0  0  0  0  0  0  0  0  0  0  0  0
   -8.6832    3.9243   -8.1671 C   0  0  0  0  0  0  0  0  0  0  0  0
   -8.8883    2.8069   -8.9659 C   0  0  0  0  0  0  0  0  0  0  0  0
   -8.6475    2.8407  -10.3296 C   0  0  0  0  0  0  0  0  0  0  0  0
   -9.3338    1.6655   -8.1182 C   0  0  0  0  0  0  0  0  0  0  0  0
   -9.5761    2.2267   -6.7641 N   0  0  0  0  0  0  0  0  0  0  0  0
   -9.0037    3.5892   -6.7513 C   0  0  0  0  0  0  0  0  0  0  0  0
   -9.1196    1.6484   -6.0587 H   0  0  0  0  0  0  0  0  0  0  0  0
   -5.9979    4.6608  -18.6853 C   0  0  0  0  0  0  0  0  0  0  0  0
   -5.6315    6.0155  -19.2811 C   0  0  0  0  0  0  0  0  0  0  0  0
   -5.4769    5.8749  -20.6862 O   0  0  0  0  0  0  0  0  0  0  0  0
   -4.7750    5.2315  -20.8715 H   0  0  0  0  0  0  0  0  0  0  0  0
  1  2  2  0  0  0
  2  3  1  0  0  0
  3  4  2  0  0  0
  4  5  1  0  0  0
  5 12  1  0  0  0
 12 13  2  0  0  0
 12 14  1  0  0  0
 14 16  1  0  0  0
 16 17  2  0  0  0
 17 18  1  0  0  0
 18 19  2  0  0  0
 19 20  1  0  0  0
 20 21  2  0  0  0
 20 22  1  0  0  0
 22 23  1  0  0  0
 23 24  1  0  0  0
  5  6  2  0  0  0
  6  7  1  0  0  0
  7  8  1  0  0  0
  7  9  2  0  0  0
  9 26  1  0  0  0
 26 27  1  0  0  0
 27 28  1  0  0  0
  9 10  1  0  0  0
 10 11  2  0  0  0
 11  2  1  0  0  0
 10  4  1  0  0  0
 21 16  1  0  0  0
 24 19  1  0  0  0
 14 15  1  0  0  0
 23 25  1  0  0  0
 28 29  1  0  0  0
M  END
> <minimizedAffinity>
-8.18204

> <minimizedRMSD>
1.09482

$$$$
P17998


 29 32  0  0  0  0  0  0  0  0999 V2000
   -5.0750    4.7349  -18.4896 N   0  0  0  0  0  0  0  0  0  0  0  0
   -4.0862    4.9177  -17.5073 C   0  0  0  0  0  0  0  0  0  0  0  0
   -2.9085    5.1846  -17.6805 O   0  0  0  0  0  0  0  0  0  0  0  0
   -4.7254    4.7881  -16.2685 N   0  0  0  0  0  0  0  0  0  0  0  0
   -6.0922    4.6113  -16.4768 C   0  0  0  0  0  0  0  0  0  0  0  0
   -7.1286    4.5278  -15.5673 C   0  0  0  0  0  0  0  0  0  0  0  0
   -8.4257    4.4098  -16.0723 C   0  0  0  0  0  0  0  0  0  0  0  0
   -8.6336    4.4138  -17.4619 C   0  0  0  0  0  0  0  0  0  0  0  0
  -10.3763    4.4094  -18.1517 Br  0  0  0  0  0  0  0  0  0  0  0  0
   -7.5835    4.5092  -18.3695 C   0  0  0  0  0  0  0  0  0  0  0  0
   -6.3145    4.5942  -17.8519 C   0  0  0  0  0  0  0  0  0  0  0  0
   -4.2807    4.8171  -15.3907 H   0  0  0  0  0  0  0  0  0  0  0  0
   -6.8761    4.7361  -14.1264 C   0  0  0  0  0  0  0  0  0  0  0  0
   -5.8871    5.2796  -13.8245 O   0  0  0  0  0  0  0  0  0  0  0  0
   -8.0076    4.1539  -13.2486 N   0  0  0  0  0  0  0  0  0  0  0  0
   -8.7076    3.6714  -13.7451 H   0  0  0  0  0  0  0  0  0  0  0  0
   -8.1979    4.2008  -11.8703 C   0  0  0  0  0  0  0  0  0  0  0  0
   -7.9754    5.3888  -11.1543 C   0  0  0  0  0  0  0  0  0  0  0  0
   -8.1319    5.4296   -9.7657 C   0  0  0  0  0  0  0  0  0  0  0  0
   -8.4903    4.2646   -9.1144 C   0  0  0  0  0  0  0  0  0  0  0  0
   -8.7039    3.0874   -9.8202 C   0  0  0  0  0  0  0  0  0  0  0  0
   -8.5838    3.0392  -11.2007 C   0  0  0  0  0  0  0  0  0  0  0  0
   -8.9922    1.9830   -8.8626 C   0  0  0  0  0  0  0  0  0  0  0  0
   -9.1510    2.6189   -7.5297 N   0  0  0  0  0  0  0  0  0  0  0  0
   -8.6838    4.0156   -7.6581 C   0  0  0  0  0  0  0  0  0  0  0  0
   -8.5896    2.1242   -6.8366 H   0  0  0  0  0  0  0  0  0  0  0  0
   -4.8614    5.0819  -19.8583 C   0  0  0  0  0  0  0  0  0  0  0  0
   -4.7946    6.8154  -21.4142 C   0  0  0  0  0  0  0  0  0  0  0  0
   -5.0454    6.4719  -20.0649 O   0  0  0  0  0  0  0  0  0  0  0  0
 28 29  1  0  0  0
 29 27  1  0  0  0
 27  1  1  0  0  0
  1  2  1  0  0  0
  2  3  2  0  0  0
  2  4  1  0  0  0
  4  5  1  0  0  0
  5  6  2  0  0  0
  6 13  1  0  0  0
 13 14  2  0  0  0
 13 15  1  0  0  0
 15 17  1  0  0  0
 17 18  2  0  0  0
 18 19  1  0  0  0
 19 20  2  0  0  0
 20 21  1  0  0  0
 21 22  2  0  0  0
 21 23  1  0  0  0
 23 24  1  0  0  0
 24 25  1  0  0  0
  6  7  1  0  0  0
  7  8  2  0  0  0
  8  9  1  0  0  0
  8 10  1  0  0  0
 10 11  2  0  0  0
 11  1  1  0  0  0
 11  5  1  0  0  0
 22 17  1  0  0  0
 25 20  1  0  0  0
  4 12  1  0  0  0
 15 16  1  0  0  0
 24 26  1  0  0  0
M  END
> <minimizedAffinity>
-7.76831

> <minimizedRMSD>
0.91344

$$$$
P18003


 29 32  0  0  0  0  0  0  0  0999 V2000
   -7.8550    4.6252  -13.4941 N   0  0  0  0  0  0  0  0  0  0  0  0
   -6.5774    5.0205  -14.2743 C   0  0  0  0  0  0  0  0  0  0  0  0
   -5.5761    5.4922  -13.8986 O   0  0  0  0  0  0  0  0  0  0  0  0
   -8.6009    4.3130  -14.0557 H   0  0  0  0  0  0  0  0  0  0  0  0
   -6.6629    4.6927  -15.7368 C   0  0  0  0  0  0  0  0  0  0  0  0
   -5.4821    4.7814  -16.3877 C   0  0  0  0  0  0  0  0  0  0  0  0
   -5.3133    4.7472  -17.8262 C   0  0  0  0  0  0  0  0  0  0  0  0
   -3.5769    4.8945  -18.4784 Br  0  0  0  0  0  0  0  0  0  0  0  0
   -6.3400    4.6665  -18.6739 C   0  0  0  0  0  0  0  0  0  0  0  0
   -7.6496    4.5523  -18.0733 C   0  0  0  0  0  0  0  0  0  0  0  0
   -7.8433    4.5347  -16.5947 C   0  0  0  0  0  0  0  0  0  0  0  0
   -9.0962    4.3922  -16.3633 N   0  0  0  0  0  0  0  0  0  0  0  0
   -9.6751    4.3825  -17.6438 C   0  0  0  0  0  0  0  0  0  0  0  0
  -10.8664    4.2709  -17.8678 O   0  0  0  0  0  0  0  0  0  0  0  0
   -8.7710    4.4456  -18.6747 N   0  0  0  0  0  0  0  0  0  0  0  0
   -8.1020    5.7939  -11.2786 C   0  0  0  0  0  0  0  0  0  0  0  0
   -8.2157    5.6848   -9.8766 C   0  0  0  0  0  0  0  0  0  0  0  0
   -8.4279    4.4421   -9.3207 C   0  0  0  0  0  0  0  0  0  0  0  0
   -8.4896    3.3094  -10.1181 C   0  0  0  0  0  0  0  0  0  0  0  0
   -8.3449    3.3877  -11.5008 C   0  0  0  0  0  0  0  0  0  0  0  0
   -8.1243    4.6395  -12.1081 C   0  0  0  0  0  0  0  0  0  0  0  0
   -8.6784    2.1219   -9.2273 C   0  0  0  0  0  0  0  0  0  0  0  0
   -9.1499    2.6785   -7.9331 N   0  0  0  0  0  0  0  0  0  0  0  0
   -8.6402    4.0624   -7.8920 C   0  0  0  0  0  0  0  0  0  0  0  0
   -8.7752    2.1371   -7.1542 H   0  0  0  0  0  0  0  0  0  0  0  0
   -9.0412    8.4308  -10.7240 C   0  0  0  0  0  0  0  0  0  0  0  0
   -8.1717    7.4578  -11.9248 S   0  0  0  0  0  0  0  0  0  0  0  0
   -6.8184    7.9817  -11.9400 O   0  0  0  0  0  0  0  0  0  0  0  0
   -9.0306    7.4639  -13.0978 O   0  0  0  0  0  0  0  0  0  0  0  0
 26 27  1  0  0  0
 27 28  2  0  0  0
 27 29  2  0  0  0
 27 16  1  0  0  0
 16 17  2  0  0  0
 17 18  1  0  0  0
 18 19  2  0  0  0
 19 20  1  0  0  0
 20 21  2  0  0  0
 21  1  1  0  0  0
  1  2  1  0  0  0
  2  3  2  0  0  0
  2  5  1  0  0  0
  5  6  2  0  0  0
  6  7  1  0  0  0
  7  8  1  0  0  0
  7  9  2  0  0  0
  9 10  1  0  0  0
 10 11  1  0  0  0
 11 12  2  0  0  0
 12 13  1  0  0  0
 13 14  2  0  0  0
 13 15  1  0  0  0
 19 22  1  0  0  0
 22 23  1  0  0  0
 23 24  1  0  0  0
 21 16  1  0  0  0
 11  5  1  0  0  0
 24 18  1  0  0  0
 15 10  2  0  0  0
  1  4  1  0  0  0
 23 25  1  0  0  0
M  END
> <minimizedAffinity>
-8.69298

> <minimizedRMSD>
0.56588

$$$$
P18006


 28 31  0  0  0  0  0  0  0  0999 V2000
   -7.1868    3.7323  -13.5304 C   0  0  0  0  0  0  0  0  0  0  0  0
   -6.0881    4.1858  -12.7942 O   0  0  0  0  0  0  0  0  0  0  0  0
   -7.1543    2.3355  -13.4736 O   0  0  0  0  0  0  0  0  0  0  0  0
   -5.9288    5.1052  -12.7087 H   0  0  0  0  0  0  0  0  0  0  0  0
   -7.8142    1.8334  -13.9100 H   0  0  0  0  0  0  0  0  0  0  0  0
   -2.7024    5.0665  -15.9818 O   0  0  0  0  0  0  0  0  0  0  0  0
   -3.8976    4.8780  -16.1276 C   0  0  0  0  0  0  0  0  0  0  0  0
   -4.5530    4.9896  -17.3466 N   0  0  0  0  0  0  0  0  0  0  0  0
   -5.7747    4.7395  -17.0467 C   0  0  0  0  0  0  0  0  0  0  0  0
   -6.9584    4.7257  -17.8836 C   0  0  0  0  0  0  0  0  0  0  0  0
   -8.1107    4.4790  -17.2500 C   0  0  0  0  0  0  0  0  0  0  0  0
   -9.7048    4.4800  -18.1940 Br  0  0  0  0  0  0  0  0  0  0  0  0
   -8.2051    4.2035  -15.8281 C   0  0  0  0  0  0  0  0  0  0  0  0
   -7.1616    4.1379  -14.9791 C   0  0  0  0  0  0  0  0  0  0  0  0
   -5.8785    4.4547  -15.5952 C   0  0  0  0  0  0  0  0  0  0  0  0
   -4.7135    4.5504  -15.0617 N   0  0  0  0  0  0  0  0  0  0  0  0
   -8.4379    4.1414  -12.9327 N   0  0  0  0  0  0  0  0  0  0  0  0
   -9.2161    4.4115  -13.4719 H   0  0  0  0  0  0  0  0  0  0  0  0
   -8.4651    4.1262  -11.5157 C   0  0  0  0  0  0  0  0  0  0  0  0
   -8.1276    5.2877  -10.7912 C   0  0  0  0  0  0  0  0  0  0  0  0
   -8.1543    5.3039   -9.3927 C   0  0  0  0  0  0  0  0  0  0  0  0
   -8.5165    4.1424   -8.7364 C   0  0  0  0  0  0  0  0  0  0  0  0
   -8.8044    2.9779   -9.4406 C   0  0  0  0  0  0  0  0  0  0  0  0
   -8.7763    2.9484  -10.8221 C   0  0  0  0  0  0  0  0  0  0  0  0
   -9.1141    1.8828   -8.4761 C   0  0  0  0  0  0  0  0  0  0  0  0
   -9.3866    2.5783   -7.1912 N   0  0  0  0  0  0  0  0  0  0  0  0
   -8.6722    3.8715   -7.2782 C   0  0  0  0  0  0  0  0  0  0  0  0
   -9.0339    2.0289   -6.4075 H   0  0  0  0  0  0  0  0  0  0  0  0
  6  7  2  0  0  0
  7  8  1  0  0  0
  8  9  2  0  0  0
  9 10  1  0  0  0
 10 11  2  0  0  0
 11 12  1  0  0  0
 11 13  1  0  0  0
 13 14  2  0  0  0
 14  1  1  0  0  0
  1  2  1  0  0  0
  1  3  1  0  0  0
  1 17  1  0  0  0
 17 19  1  0  0  0
 19 20  2  0  0  0
 20 21  1  0  0  0
 21 22  2  0  0  0
 22 23  1  0  0  0
 23 24  2  0  0  0
 23 25  1  0  0  0
 25 26  1  0  0  0
 26 27  1  0  0  0
 14 15  1  0  0  0
 15 16  2  0  0  0
 16  7  1  0  0  0
 15  9  1  0  0  0
 24 19  1  0  0  0
 27 22  1  0  0  0
  2  4  1  0  0  0
  3  5  1  0  0  0
 17 18  1  0  0  0
 26 28  1  0  0  0
M  END
> <minimizedAffinity>
-8.23091

> <minimizedRMSD>
0.35012

$$$$
P18008


 31 34  0  0  0  0  0  0  0  0999 V2000
   -7.8163    4.3841  -14.7953 C   0  0  0  0  0  0  0  0  0  0  0  0
   -8.6319    4.3217  -15.8738 C   0  0  0  0  0  0  0  0  0  0  0  0
   -8.1298    4.4364  -17.2345 C   0  0  0  0  0  0  0  0  0  0  0  0
   -9.2528    4.3638  -18.7007 Br  0  0  0  0  0  0  0  0  0  0  0  0
   -6.8538    4.7576  -17.4540 C   0  0  0  0  0  0  0  0  0  0  0  0
   -5.9164    4.6764  -16.3980 C   0  0  0  0  0  0  0  0  0  0  0  0
   -6.3453    4.4596  -15.0192 C   0  0  0  0  0  0  0  0  0  0  0  0
   -5.3696    4.3815  -14.1768 N   0  0  0  0  0  0  0  0  0  0  0  0
   -4.2265    4.5738  -14.9220 C   0  0  0  0  0  0  0  0  0  0  0  0
   -3.0709    4.5715  -14.5232 O   0  0  0  0  0  0  0  0  0  0  0  0
   -4.5905    4.7687  -16.3736 C   0  0  0  0  0  0  0  0  0  0  0  0
   -7.9526    3.8192  -12.3676 N   0  0  0  0  0  0  0  0  0  0  0  0
   -8.3921    4.7999  -13.4824 C   0  0  0  0  0  0  0  0  0  0  0  0
   -9.1116    5.7194  -13.4416 O   0  0  0  0  0  0  0  0  0  0  0  0
   -7.3908    3.0713  -12.6744 H   0  0  0  0  0  0  0  0  0  0  0  0
   -8.0610    6.2508   -8.0484 C   0  0  0  0  0  0  0  0  0  0  0  0
   -8.2876    5.0108   -8.8545 C   0  0  0  0  0  0  0  0  0  0  0  0
   -8.0235    4.9865  -10.2338 C   0  0  0  0  0  0  0  0  0  0  0  0
   -8.2232    3.8234  -10.9997 C   0  0  0  0  0  0  0  0  0  0  0  0
   -8.6893    2.6605  -10.3923 C   0  0  0  0  0  0  0  0  0  0  0  0
   -8.9216    2.6819   -9.0252 C   0  0  0  0  0  0  0  0  0  0  0  0
   -8.7311    3.8334   -8.2684 C   0  0  0  0  0  0  0  0  0  0  0  0
   -9.0598    3.5417   -6.8413 C   0  0  0  0  0  0  0  0  0  0  0  0
   -9.5951    2.1643   -6.8020 N   0  0  0  0  0  0  0  0  0  0  0  0
   -9.3334    1.5623   -8.1325 C   0  0  0  0  0  0  0  0  0  0  0  0
  -10.5980    2.1828   -6.6165 H   0  0  0  0  0  0  0  0  0  0  0  0
   -3.6408    5.0333  -17.3473 N   0  0  0  0  0  0  0  0  0  0  0  0
   -2.9384    5.6764  -17.0976 H   0  0  0  0  0  0  0  0  0  0  0  0
   -3.5464    4.4782  -18.7040 C   0  0  0  0  0  0  0  0  0  0  0  0
   -2.1137    4.0336  -18.9491 C   0  0  0  0  0  0  0  0  0  0  0  0
   -3.9896    5.3608  -19.8446 C   0  0  0  0  0  0  0  0  0  0  0  0
 16 17  1  0  0  0
 17 18  2  0  0  0
 18 19  1  0  0  0
 19 12  1  0  0  0
 12 13  1  0  0  0
 13 14  2  0  0  0
 13  1  1  0  0  0
  1  2  2  0  0  0
  2  3  1  0  0  0
  3  4  1  0  0  0
  3  5  2  0  0  0
  5  6  1  0  0  0
  6  7  1  0  0  0
  7  8  2  0  0  0
  8  9  1  0  0  0
  9 10  2  0  0  0
  9 11  1  0  0  0
 11 27  1  0  0  0
 27 29  1  0  0  0
 29 30  1  0  0  0
 29 31  1  0  0  0
 19 20  2  0  0  0
 20 21  1  0  0  0
 21 22  2  0  0  0
 22 23  1  0  0  0
 23 24  1  0  0  0
 24 25  1  0  0  0
 22 17  1  0  0  0
  7  1  1  0  0  0
 25 21  1  0  0  0
 11  6  2  0  0  0
 12 15  1  0  0  0
 27 28  1  0  0  0
 24 26  1  0  0  0
M  END
> <minimizedAffinity>
-8.71456

> <minimizedRMSD>
1.47446

$$$$
P18011


 28 31  0  0  0  0  0  0  0  0999 V2000
   -7.3761    5.2654  -13.8316 C   0  0  0  0  0  0  0  0  0  0  0  0
   -8.3288    6.3141  -13.9474 O   0  0  0  0  0  0  0  0  0  0  0  0
   -8.5947    6.6086  -13.0623 H   0  0  0  0  0  0  0  0  0  0  0  0
   -6.9812    4.8280  -15.2468 C   0  0  0  0  0  0  0  0  0  0  0  0
   -5.7177    4.8075  -15.7367 C   0  0  0  0  0  0  0  0  0  0  0  0
   -5.3476    4.7176  -17.1415 C   0  0  0  0  0  0  0  0  0  0  0  0
   -3.5289    4.8089  -17.5442 Br  0  0  0  0  0  0  0  0  0  0  0  0
   -6.2390    4.6490  -18.1323 C   0  0  0  0  0  0  0  0  0  0  0  0
   -7.6214    4.5773  -17.7258 C   0  0  0  0  0  0  0  0  0  0  0  0
   -8.0051    4.6122  -16.2876 C   0  0  0  0  0  0  0  0  0  0  0  0
   -9.2703    4.4388  -16.2245 N   0  0  0  0  0  0  0  0  0  0  0  0
   -9.6835    4.4127  -17.5621 C   0  0  0  0  0  0  0  0  0  0  0  0
  -10.8420    4.3077  -17.9225 O   0  0  0  0  0  0  0  0  0  0  0  0
   -8.6560    4.4580  -18.4670 N   0  0  0  0  0  0  0  0  0  0  0  0
   -5.1811    6.2643  -12.6832 N   0  0  0  0  0  0  0  0  0  0  0  0
   -6.1437    5.8136  -13.1604 C   0  0  0  0  0  0  0  0  0  0  0  0
   -8.0076    4.1938  -13.0738 N   0  0  0  0  0  0  0  0  0  0  0  0
   -8.2947    3.3927  -13.5688 H   0  0  0  0  0  0  0  0  0  0  0  0
   -8.2374    4.2200  -11.6850 C   0  0  0  0  0  0  0  0  0  0  0  0
   -8.0948    5.3617  -10.8599 C   0  0  0  0  0  0  0  0  0  0  0  0
   -8.2541    5.3166   -9.4663 C   0  0  0  0  0  0  0  0  0  0  0  0
   -8.5727    4.1116   -8.8863 C   0  0  0  0  0  0  0  0  0  0  0  0
   -8.7100    2.9710   -9.6638 C   0  0  0  0  0  0  0  0  0  0  0  0
   -8.5308    3.0064  -11.0428 C   0  0  0  0  0  0  0  0  0  0  0  0
   -9.0232    1.8186   -8.7655 C   0  0  0  0  0  0  0  0  0  0  0  0
   -9.4442    2.4330   -7.4782 N   0  0  0  0  0  0  0  0  0  0  0  0
   -8.8054    3.7655   -7.4544 C   0  0  0  0  0  0  0  0  0  0  0  0
   -9.1234    1.8689   -6.6912 H   0  0  0  0  0  0  0  0  0  0  0  0
 15 16  3  0  0  0
 16  1  1  0  0  0
  1  2  1  0  0  0
  1 17  1  0  0  0
 17 19  1  0  0  0
 19 20  2  0  0  0
 20 21  1  0  0  0
 21 22  2  0  0  0
 22 23  1  0  0  0
 23 24  2  0  0  0
 23 25  1  0  0  0
 25 26  1  0  0  0
 26 27  1  0  0  0
  1  4  1  0  0  0
  4  5  2  0  0  0
  5  6  1  0  0  0
  6  7  1  0  0  0
  6  8  2  0  0  0
  8  9  1  0  0  0
  9 10  1  0  0  0
 10 11  2  0  0  0
 11 12  1  0  0  0
 12 13  2  0  0  0
 12 14  1  0  0  0
 24 19  1  0  0  0
 10  4  1  0  0  0
 27 22  1  0  0  0
 14  9  2  0  0  0
  2  3  1  0  0  0
 17 18  1  0  0  0
 26 28  1  0  0  0
M  END
> <minimizedAffinity>
-8.15058

> <minimizedRMSD>
0.38514

$$$$
P18014


 36 40  0  0  0  0  0  0  0  0999 V2000
   -7.4799    5.3798  -13.5557 C   0  0  0  0  0  0  0  0  0  0  0  0
   -6.3628    6.0072  -12.9599 O   0  0  0  0  0  0  0  0  0  0  0  0
   -5.6095    5.3961  -12.9619 H   0  0  0  0  0  0  0  0  0  0  0  0
   -2.5343    5.2388  -15.8248 O   0  0  0  0  0  0  0  0  0  0  0  0
   -3.7368    5.1137  -15.9945 C   0  0  0  0  0  0  0  0  0  0  0  0
   -4.2975    4.8715  -17.2360 N   0  0  0  0  0  0  0  0  0  0  0  0
   -5.5554    4.7965  -16.9822 C   0  0  0  0  0  0  0  0  0  0  0  0
   -6.6643    4.5606  -17.8891 C   0  0  0  0  0  0  0  0  0  0  0  0
   -7.8783    4.5185  -17.3314 C   0  0  0  0  0  0  0  0  0  0  0  0
   -9.3867    4.3071  -18.3885 Br  0  0  0  0  0  0  0  0  0  0  0  0
   -8.1165    4.7126  -15.9146 C   0  0  0  0  0  0  0  0  0  0  0  0
   -7.1746    5.0063  -14.9938 C   0  0  0  0  0  0  0  0  0  0  0  0
   -5.7958    5.0222  -15.5256 C   0  0  0  0  0  0  0  0  0  0  0  0
   -4.6557    5.2108  -14.9621 N   0  0  0  0  0  0  0  0  0  0  0  0
   -8.7512    6.3767  -13.5656 C   0  0  0  0  0  0  0  0  0  0  0  0
   -9.8067    6.0284  -14.0199 O   0  0  0  0  0  0  0  0  0  0  0  0
   -8.3492    7.6303  -12.9685 N   0  0  0  0  0  0  0  0  0  0  0  0
   -7.3926    7.6870  -12.7426 H   0  0  0  0  0  0  0  0  0  0  0  0
   -9.1136    8.8157  -12.6464 C   0  0  0  0  0  0  0  0  0  0  0  0
   -8.3158   10.0903  -12.9300 C   0  0  0  0  0  0  0  0  0  0  0  0
   -8.7545   11.2415  -12.0314 C   0  0  0  0  0  0  0  0  0  0  0  0
  -10.1427   11.1323  -11.7415 O   0  0  0  0  0  0  0  0  0  0  0  0
  -10.4443   10.0158  -10.8981 C   0  0  0  0  0  0  0  0  0  0  0  0
   -9.5848    8.7896  -11.1965 C   0  0  0  0  0  0  0  0  0  0  0  0
   -7.7427    4.1777  -12.7641 N   0  0  0  0  0  0  0  0  0  0  0  0
   -7.7255    3.3037  -13.2169 H   0  0  0  0  0  0  0  0  0  0  0  0
   -8.0193    4.2145  -11.3824 C   0  0  0  0  0  0  0  0  0  0  0  0
   -7.6915    5.2848  -10.5220 C   0  0  0  0  0  0  0  0  0  0  0  0
   -7.9631    5.2550   -9.1456 C   0  0  0  0  0  0  0  0  0  0  0  0
   -8.5282    4.1161   -8.6183 C   0  0  0  0  0  0  0  0  0  0  0  0
   -8.7855    3.0192   -9.4279 C   0  0  0  0  0  0  0  0  0  0  0  0
   -8.5374    3.0503  -10.7931 C   0  0  0  0  0  0  0  0  0  0  0  0
   -9.2838    1.9015   -8.5738 C   0  0  0  0  0  0  0  0  0  0  0  0
   -9.7182    2.5486   -7.3081 N   0  0  0  0  0  0  0  0  0  0  0  0
   -8.9167    3.7899   -7.2145 C   0  0  0  0  0  0  0  0  0  0  0  0
   -9.5298    1.9398   -6.5116 H   0  0  0  0  0  0  0  0  0  0  0  0
  4  5  2  0  0  0
  5  6  1  0  0  0
  6  7  2  0  0  0
  7  8  1  0  0  0
  8  9  2  0  0  0
  9 10  1  0  0  0
  9 11  1  0  0  0
 11 12  2  0  0  0
 12  1  1  0  0  0
  1  2  1  0  0  0
  1 25  1  0  0  0
 25 27  1  0  0  0
 27 28  2  0  0  0
 28 29  1  0  0  0
 29 30  2  0  0  0
 30 31  1  0  0  0
 31 32  2  0  0  0
 31 33  1  0  0  0
 33 34  1  0  0  0
 34 35  1  0  0  0
  1 15  1  0  0  0
 15 16  2  0  0  0
 15 17  1  0  0  0
 17 19  1  0  0  0
 19 20  1  0  0  0
 20 21  1  0  0  0
 21 22  1  0  0  0
 22 23  1  0  0  0
 23 24  1  0  0  0
 12 13  1  0  0  0
 13 14  2  0  0  0
 14  5  1  0  0  0
 13  7  1  0  0  0
 32 27  1  0  0  0
 24 19  1  0  0  0
 35 30  1  0  0  0
  2  3  1  0  0  0
 25 26  1  0  0  0
 34 36  1  0  0  0
 17 18  1  0  0  0
M  END
> <minimizedAffinity>
-8.21159

> <minimizedRMSD>
0.51127

$$$$
P18015


 37 41  0  0  0  0  0  0  0  0999 V2000
   -7.0104    3.9355  -13.1959 C   0  0  0  0  0  0  0  0  0  0  0  0
   -6.2863    5.0304  -12.6423 O   0  0  0  0  0  0  0  0  0  0  0  0
   -6.7442    5.8596  -12.8511 H   0  0  0  0  0  0  0  0  0  0  0  0
   -2.5598    5.0691  -15.7431 O   0  0  0  0  0  0  0  0  0  0  0  0
   -3.7628    4.8993  -15.8608 C   0  0  0  0  0  0  0  0  0  0  0  0
   -4.4238    4.9812  -17.0769 N   0  0  0  0  0  0  0  0  0  0  0  0
   -5.6447    4.7218  -16.7715 C   0  0  0  0  0  0  0  0  0  0  0  0
   -6.8412    4.6867  -17.5974 C   0  0  0  0  0  0  0  0  0  0  0  0
   -7.9923    4.4263  -16.9630 C   0  0  0  0  0  0  0  0  0  0  0  0
   -9.5936    4.4283  -17.9021 Br  0  0  0  0  0  0  0  0  0  0  0  0
   -8.0858    4.1684  -15.5351 C   0  0  0  0  0  0  0  0  0  0  0  0
   -7.0400    4.1738  -14.6879 C   0  0  0  0  0  0  0  0  0  0  0  0
   -5.7462    4.4766  -15.3120 C   0  0  0  0  0  0  0  0  0  0  0  0
   -4.5856    4.6212  -14.7749 N   0  0  0  0  0  0  0  0  0  0  0  0
   -6.3475    2.4877  -12.9167 C   0  0  0  0  0  0  0  0  0  0  0  0
   -6.8556    1.4810  -13.2275 O   0  0  0  0  0  0  0  0  0  0  0  0
   -5.0074    2.7520  -12.1706 N   0  0  0  0  0  0  0  0  0  0  0  0
   -4.8338    3.6973  -11.9570 H   0  0  0  0  0  0  0  0  0  0  0  0
   -3.9822    1.8403  -11.7429 C   0  0  0  0  0  0  0  0  0  0  0  0
   -2.7203    1.9503  -12.6096 C   0  0  0  0  0  0  0  0  0  0  0  0
   -1.8946    3.1935  -12.2322 C   0  0  0  0  0  0  0  0  0  0  0  0
   -0.4203    2.9675  -12.5267 C   0  0  0  0  0  0  0  0  0  0  0  0
    0.1279    1.9011  -11.7496 O   0  0  0  0  0  0  0  0  0  0  0  0
   -0.7703    0.8266  -11.4703 C   0  0  0  0  0  0  0  0  0  0  0  0
   -1.8671    0.6741  -12.5140 C   0  0  0  0  0  0  0  0  0  0  0  0
   -8.3845    3.9473  -12.6551 N   0  0  0  0  0  0  0  0  0  0  0  0
   -9.1826    3.9538  -13.2315 H   0  0  0  0  0  0  0  0  0  0  0  0
   -8.4625    3.9484  -11.2380 C   0  0  0  0  0  0  0  0  0  0  0  0
   -8.1708    5.1080  -10.4912 C   0  0  0  0  0  0  0  0  0  0  0  0
   -8.2294    5.1104   -9.0934 C   0  0  0  0  0  0  0  0  0  0  0  0
   -8.6037    3.9437   -8.4535 C   0  0  0  0  0  0  0  0  0  0  0  0
   -8.8907    2.7944   -9.1753 C   0  0  0  0  0  0  0  0  0  0  0  0
   -8.8163    2.7744  -10.5584 C   0  0  0  0  0  0  0  0  0  0  0  0
   -9.2565    1.6927   -8.2417 C   0  0  0  0  0  0  0  0  0  0  0  0
   -9.3564    2.3130   -6.8948 N   0  0  0  0  0  0  0  0  0  0  0  0
   -8.7948    3.6759   -7.0006 C   0  0  0  0  0  0  0  0  0  0  0  0
   -8.8236    1.7668   -6.2178 H   0  0  0  0  0  0  0  0  0  0  0  0
  4  5  2  0  0  0
  5  6  1  0  0  0
  6  7  2  0  0  0
  7  8  1  0  0  0
  8  9  2  0  0  0
  9 10  1  0  0  0
  9 11  1  0  0  0
 11 12  2  0  0  0
 12  1  1  0  0  0
  1  2  1  0  0  0
  1 26  1  0  0  0
 26 28  1  0  0  0
 28 29  2  0  0  0
 29 30  1  0  0  0
 30 31  2  0  0  0
 31 32  1  0  0  0
 32 33  2  0  0  0
 32 34  1  0  0  0
 34 35  1  0  0  0
 35 36  1  0  0  0
  1 15  1  0  0  0
 15 16  2  0  0  0
 15 17  1  0  0  0
 17 19  1  0  0  0
 19 20  1  0  0  0
 20 21  1  0  0  0
 21 22  1  0  0  0
 22 23  1  0  0  0
 23 24  1  0  0  0
 24 25  1  0  0  0
 12 13  1  0  0  0
 13 14  2  0  0  0
 14  5  1  0  0  0
 13  7  1  0  0  0
 33 28  1  0  0  0
 25 20  1  0  0  0
 36 31  1  0  0  0
  2  3  1  0  0  0
 26 27  1  0  0  0
 35 37  1  0  0  0
 17 18  1  0  0  0
M  END
> <minimizedAffinity>
-9.11725

> <minimizedRMSD>
1.01543

$$$$
P18019


 28 32  0  0  0  0  0  0  0  0999 V2000
  -10.9437    4.4432  -18.0467 O   0  0  0  0  0  0  0  0  0  0  0  0
   -9.7721    4.5286  -17.7231 C   0  0  0  0  0  0  0  0  0  0  0  0
   -9.2531    4.6388  -16.4197 N   0  0  0  0  0  0  0  0  0  0  0  0
   -7.9681    4.7542  -16.5499 C   0  0  0  0  0  0  0  0  0  0  0  0
   -6.8990    5.0167  -15.5523 C   0  0  0  0  0  0  0  0  0  0  0  0
   -5.6190    5.0927  -15.9953 C   0  0  0  0  0  0  0  0  0  0  0  0
   -5.3127    4.9113  -17.4023 C   0  0  0  0  0  0  0  0  0  0  0  0
   -6.3481    4.7017  -18.3811 C   0  0  0  0  0  0  0  0  0  0  0  0
   -7.5987    4.6388  -17.9697 C   0  0  0  0  0  0  0  0  0  0  0  0
   -8.7524    4.4950  -18.6306 N   0  0  0  0  0  0  0  0  0  0  0  0
   -5.8235    4.6135  -19.6352 N   0  0  0  0  0  0  0  0  0  0  0  0
   -4.5534    4.7744  -19.4371 C   0  0  0  0  0  0  0  0  0  0  0  0
   -4.1396    4.9750  -18.0377 C   0  0  0  0  0  0  0  0  0  0  0  0
   -8.8497    4.3839  -19.6040 H   0  0  0  0  0  0  0  0  0  0  0  0
   -7.1388    5.5171  -14.1624 C   0  0  0  0  0  0  0  0  0  0  0  0
   -6.7774    6.5954  -13.8837 O   0  0  0  0  0  0  0  0  0  0  0  0
   -7.7864    4.4134  -13.2817 N   0  0  0  0  0  0  0  0  0  0  0  0
   -8.0742    3.6101  -13.7728 H   0  0  0  0  0  0  0  0  0  0  0  0
   -8.0280    4.3754  -11.8996 C   0  0  0  0  0  0  0  0  0  0  0  0
   -7.8801    5.5341  -11.1142 C   0  0  0  0  0  0  0  0  0  0  0  0
   -8.0908    5.5105   -9.7283 C   0  0  0  0  0  0  0  0  0  0  0  0
   -8.4452    4.3127   -9.1403 C   0  0  0  0  0  0  0  0  0  0  0  0
   -8.5840    3.1578   -9.9035 C   0  0  0  0  0  0  0  0  0  0  0  0
   -8.3884    3.1718  -11.2819 C   0  0  0  0  0  0  0  0  0  0  0  0
   -8.9170    2.0220   -8.9888 C   0  0  0  0  0  0  0  0  0  0  0  0
   -9.3430    2.6551   -7.7134 N   0  0  0  0  0  0  0  0  0  0  0  0
   -8.7127    3.9923   -7.7068 C   0  0  0  0  0  0  0  0  0  0  0  0
   -9.0206    2.1050   -6.9172 H   0  0  0  0  0  0  0  0  0  0  0  0
  1  2  2  0  0  0
  2  3  1  0  0  0
  3  4  2  0  0  0
  4  5  1  0  0  0
  5 15  1  0  0  0
 15 16  2  0  0  0
 15 17  1  0  0  0
 17 19  1  0  0  0
 19 20  2  0  0  0
 20 21  1  0  0  0
 21 22  2  0  0  0
 22 23  1  0  0  0
 23 24  2  0  0  0
 23 25  1  0  0  0
 25 26  1  0  0  0
 26 27  1  0  0  0
  5  6  2  0  0  0
  6  7  1  0  0  0
  7  8  1  0  0  0
  8  9  2  0  0  0
  9 10  1  0  0  0
  8 11  1  0  0  0
 11 12  2  0  0  0
 12 13  1  0  0  0
 10  2  1  0  0  0
  9  4  1  0  0  0
 24 19  1  0  0  0
 13  7  2  0  0  0
 27 22  1  0  0  0
 17 18  1  0  0  0
 26 28  1  0  0  0
 10 14  1  0  0  0
M  END
> <minimizedAffinity>
-9.39642

> <minimizedRMSD>
0.32851

$$$$
P18024


 29 33  0  0  0  0  0  0  0  0999 V2000
   -5.4251    4.7458  -18.3893 C   0  0  0  0  0  0  0  0  0  0  0  0
   -4.1474    4.9010  -17.8977 C   0  0  0  0  0  0  0  0  0  0  0  0
   -4.1181    4.9912  -16.1882 S   0  0  0  0  0  0  0  0  0  0  0  0
   -5.8120    4.8336  -16.0880 C   0  0  0  0  0  0  0  0  0  0  0  0
   -6.5281    4.8565  -14.8528 C   0  0  0  0  0  0  0  0  0  0  0  0
   -7.8767    4.7470  -14.8475 C   0  0  0  0  0  0  0  0  0  0  0  0
   -8.5943    4.6102  -16.1255 C   0  0  0  0  0  0  0  0  0  0  0  0
   -7.7957    4.6202  -17.3743 C   0  0  0  0  0  0  0  0  0  0  0  0
   -6.3793    4.7256  -17.3450 C   0  0  0  0  0  0  0  0  0  0  0  0
   -8.5526    4.5592  -18.4045 N   0  0  0  0  0  0  0  0  0  0  0  0
   -9.8138    4.5399  -17.8460 C   0  0  0  0  0  0  0  0  0  0  0  0
  -10.8188    4.5481  -18.5318 O   0  0  0  0  0  0  0  0  0  0  0  0
   -9.8285    4.5149  -16.4448 N   0  0  0  0  0  0  0  0  0  0  0  0
   -8.5175    5.0536  -13.5441 C   0  0  0  0  0  0  0  0  0  0  0  0
   -9.1382    6.0375  -13.4300 O   0  0  0  0  0  0  0  0  0  0  0  0
   -8.1313    3.9831  -12.4943 N   0  0  0  0  0  0  0  0  0  0  0  0
   -7.6620    3.1984  -12.8592 H   0  0  0  0  0  0  0  0  0  0  0  0
   -8.3406    3.9496  -11.1133 C   0  0  0  0  0  0  0  0  0  0  0  0
   -8.0790    5.0825  -10.3221 C   0  0  0  0  0  0  0  0  0  0  0  0
   -8.2160    5.0401   -8.9305 C   0  0  0  0  0  0  0  0  0  0  0  0
   -8.6293    3.8567   -8.3499 C   0  0  0  0  0  0  0  0  0  0  0  0
   -8.9016    2.7370   -9.1267 C   0  0  0  0  0  0  0  0  0  0  0  0
   -8.7595    2.7613  -10.5087 C   0  0  0  0  0  0  0  0  0  0  0  0
   -9.3036    1.6090   -8.2356 C   0  0  0  0  0  0  0  0  0  0  0  0
   -9.4648    2.1943   -6.8816 N   0  0  0  0  0  0  0  0  0  0  0  0
   -8.8468    3.5327   -6.9110 C   0  0  0  0  0  0  0  0  0  0  0  0
   -8.9978    1.6085   -6.1894 H   0  0  0  0  0  0  0  0  0  0  0  0
   -5.9902    4.3681  -20.8805 N   0  0  0  0  0  0  0  0  0  0  0  0
   -5.6877    4.5721  -19.7808 C   0  0  0  0  0  0  0  0  0  0  0  0
 28 29  3  0  0  0
 29  1  1  0  0  0
  1  2  2  0  0  0
  2  3  1  0  0  0
  3  4  1  0  0  0
  4  5  1  0  0  0
  5  6  2  0  0  0
  6 14  1  0  0  0
 14 15  2  0  0  0
 14 16  1  0  0  0
 16 18  1  0  0  0
 18 19  2  0  0  0
 19 20  1  0  0  0
 20 21  2  0  0  0
 21 22  1  0  0  0
 22 23  2  0  0  0
 22 24  1  0  0  0
 24 25  1  0  0  0
 25 26  1  0  0  0
  6  7  1  0  0  0
  7  8  1  0  0  0
  8  9  1  0  0  0
  8 10  2  0  0  0
 10 11  1  0  0  0
 11 12  2  0  0  0
 11 13  1  0  0  0
  9  1  1  0  0  0
  9  4  2  0  0  0
 23 18  1  0  0  0
 13  7  2  0  0  0
 26 21  1  0  0  0
 16 17  1  0  0  0
 25 27  1  0  0  0
M  END
> <minimizedAffinity>
-9.02452

> <minimizedRMSD>
0.71844

$$$$
P18030


 34 37  0  0  0  0  0  0  0  0999 V2000
   -7.0266    4.1534  -13.6973 C   0  0  0  0  0  0  0  0  0  0  0  0
   -6.2291    5.2432  -13.2316 O   0  0  0  0  0  0  0  0  0  0  0  0
   -6.6914    6.0786  -13.4031 H   0  0  0  0  0  0  0  0  0  0  0  0
   -2.8156    4.9716  -16.6666 O   0  0  0  0  0  0  0  0  0  0  0  0
   -4.0315    4.8904  -16.6682 C   0  0  0  0  0  0  0  0  0  0  0  0
   -4.7991    5.0505  -17.8081 N   0  0  0  0  0  0  0  0  0  0  0  0
   -5.9924    4.8025  -17.4052 C   0  0  0  0  0  0  0  0  0  0  0  0
   -7.2531    4.7723  -18.1256 C   0  0  0  0  0  0  0  0  0  0  0  0
   -8.3535    4.5659  -17.3888 C   0  0  0  0  0  0  0  0  0  0  0  0
  -10.0179    4.5424  -18.2244 Br  0  0  0  0  0  0  0  0  0  0  0  0
   -8.3310    4.3807  -15.9404 C   0  0  0  0  0  0  0  0  0  0  0  0
   -7.2102    4.3406  -15.1916 C   0  0  0  0  0  0  0  0  0  0  0  0
   -5.9698    4.5471  -15.9467 C   0  0  0  0  0  0  0  0  0  0  0  0
   -4.7579    4.6158  -15.5176 N   0  0  0  0  0  0  0  0  0  0  0  0
   -6.3241    2.7271  -13.4473 C   0  0  0  0  0  0  0  0  0  0  0  0
   -6.8741    1.7018  -13.5921 O   0  0  0  0  0  0  0  0  0  0  0  0
   -4.8415    3.0346  -13.0572 N   0  0  0  0  0  0  0  0  0  0  0  0
   -4.6397    3.9889  -12.9232 H   0  0  0  0  0  0  0  0  0  0  0  0
   -3.7207    2.1464  -12.8616 C   0  0  0  0  0  0  0  0  0  0  0  0
   -3.4500    1.8185  -11.4035 C   0  0  0  0  0  0  0  0  0  0  0  0
   -2.1176    1.1219  -11.2215 C   0  0  0  0  0  0  0  0  0  0  0  0
   -1.9595    0.1971  -12.2093 F   0  0  0  0  0  0  0  0  0  0  0  0
   -8.3357    4.1792  -13.0231 N   0  0  0  0  0  0  0  0  0  0  0  0
   -9.1848    4.1354  -13.5194 H   0  0  0  0  0  0  0  0  0  0  0  0
   -8.2872    4.2716  -11.6092 C   0  0  0  0  0  0  0  0  0  0  0  0
   -7.9171    5.4705  -10.9653 C   0  0  0  0  0  0  0  0  0  0  0  0
   -7.8804    5.5745   -9.5697 C   0  0  0  0  0  0  0  0  0  0  0  0
   -8.2394    4.4680   -8.8263 C   0  0  0  0  0  0  0  0  0  0  0  0
   -8.5859    3.2723   -9.4454 C   0  0  0  0  0  0  0  0  0  0  0  0
   -8.6092    3.1562  -10.8252 C   0  0  0  0  0  0  0  0  0  0  0  0
   -8.8915    2.2547   -8.3963 C   0  0  0  0  0  0  0  0  0  0  0  0
   -9.1283    3.0484   -7.1622 N   0  0  0  0  0  0  0  0  0  0  0  0
   -8.3570    4.2974   -7.3482 C   0  0  0  0  0  0  0  0  0  0  0  0
   -8.7954    2.5416   -6.3420 H   0  0  0  0  0  0  0  0  0  0  0  0
  4  5  2  0  0  0
  5  6  1  0  0  0
  6  7  2  0  0  0
  7  8  1  0  0  0
  8  9  2  0  0  0
  9 10  1  0  0  0
  9 11  1  0  0  0
 11 12  2  0  0  0
 12  1  1  0  0  0
  1  2  1  0  0  0
  1 23  1  0  0  0
 23 25  1  0  0  0
 25 26  2  0  0  0
 26 27  1  0  0  0
 27 28  2  0  0  0
 28 29  1  0  0  0
 29 30  2  0  0  0
 29 31  1  0  0  0
 31 32  1  0  0  0
 32 33  1  0  0  0
  1 15  1  0  0  0
 15 16  2  0  0  0
 15 17  1  0  0  0
 17 19  1  0  0  0
 19 20  1  0  0  0
 20 21  1  0  0  0
 21 22  1  0  0  0
 12 13  1  0  0  0
 13 14  2  0  0  0
 14  5  1  0  0  0
 13  7  1  0  0  0
 30 25  1  0  0  0
 33 28  1  0  0  0
  2  3  1  0  0  0
 23 24  1  0  0  0
 32 34  1  0  0  0
 17 18  1  0  0  0
M  END
> <minimizedAffinity>
-8.29237

> <minimizedRMSD>
0.77103

$$$$
P18035


 29 32  0  0  0  0  0  0  0  0999 V2000
   -5.8003    5.1518  -13.8545 N   0  0  0  0  0  0  0  0  0  0  0  0
   -6.8748    4.6220  -14.1186 C   0  0  0  0  0  0  0  0  0  0  0  0
   -7.1888    4.6303  -15.6194 C   0  0  0  0  0  0  0  0  0  0  0  0
   -8.3971    4.2944  -16.1158 C   0  0  0  0  0  0  0  0  0  0  0  0
   -8.7247    4.2981  -17.5375 C   0  0  0  0  0  0  0  0  0  0  0  0
  -10.4672    3.9029  -18.0411 Br  0  0  0  0  0  0  0  0  0  0  0  0
   -7.8604    4.6361  -18.4987 C   0  0  0  0  0  0  0  0  0  0  0  0
   -6.5392    5.0323  -18.0723 C   0  0  0  0  0  0  0  0  0  0  0  0
   -6.1765    5.0465  -16.6335 C   0  0  0  0  0  0  0  0  0  0  0  0
   -4.9572    5.4489  -16.5519 N   0  0  0  0  0  0  0  0  0  0  0  0
   -4.5595    5.6636  -17.8569 C   0  0  0  0  0  0  0  0  0  0  0  0
   -3.4321    6.0192  -18.1629 O   0  0  0  0  0  0  0  0  0  0  0  0
   -5.5455    5.4187  -18.7881 N   0  0  0  0  0  0  0  0  0  0  0  0
   -4.8993    3.9132  -12.1265 O   0  0  0  0  0  0  0  0  0  0  0  0
   -5.2092    4.9673  -12.6569 C   0  0  0  0  0  0  0  0  0  0  0  0
   -4.8797    6.1414  -12.0905 O   0  0  0  0  0  0  0  0  0  0  0  0
   -5.1219    6.9460  -12.5052 H   0  0  0  0  0  0  0  0  0  0  0  0
   -8.0138    4.0285  -13.1475 N   0  0  0  0  0  0  0  0  0  0  0  0
   -8.7187    3.5158  -13.6052 H   0  0  0  0  0  0  0  0  0  0  0  0
   -8.1657    4.1220  -11.7600 C   0  0  0  0  0  0  0  0  0  0  0  0
   -8.1031    5.3508  -11.0758 C   0  0  0  0  0  0  0  0  0  0  0  0
   -8.2022    5.4292   -9.6787 C   0  0  0  0  0  0  0  0  0  0  0  0
   -8.3984    4.2613   -8.9680 C   0  0  0  0  0  0  0  0  0  0  0  0
   -8.5055    3.0436   -9.6236 C   0  0  0  0  0  0  0  0  0  0  0  0
   -8.3819    2.9571  -11.0061 C   0  0  0  0  0  0  0  0  0  0  0  0
   -8.7427    1.9619   -8.6202 C   0  0  0  0  0  0  0  0  0  0  0  0
   -8.9429    2.6474   -7.3222 N   0  0  0  0  0  0  0  0  0  0  0  0
   -8.5272    4.0498   -7.4972 C   0  0  0  0  0  0  0  0  0  0  0  0
   -8.3747    2.2024   -6.6015 H   0  0  0  0  0  0  0  0  0  0  0  0
 14 15  2  0  0  0
 15 16  1  0  0  0
 15  1  1  0  0  0
  1  2  2  0  0  0
  2 18  1  0  0  0
 18 20  1  0  0  0
 20 21  2  0  0  0
 21 22  1  0  0  0
 22 23  2  0  0  0
 23 24  1  0  0  0
 24 25  2  0  0  0
 24 26  1  0  0  0
 26 27  1  0  0  0
 27 28  1  0  0  0
  2  3  1  0  0  0
  3  4  2  0  0  0
  4  5  1  0  0  0
  5  6  1  0  0  0
  5  7  2  0  0  0
  7  8  1  0  0  0
  8  9  1  0  0  0
  9 10  2  0  0  0
 10 11  1  0  0  0
 11 12  2  0  0  0
 11 13  1  0  0  0
 25 20  1  0  0  0
  9  3  1  0  0  0
 28 23  1  0  0  0
 13  8  2  0  0  0
 16 17  1  0  0  0
 18 19  1  0  0  0
 27 29  1  0  0  0
M  END
> <minimizedAffinity>
-7.93230

> <minimizedRMSD>
0.41564

$$$$
P18047


 32 36  0  0  0  0  0  0  0  0999 V2000
   -7.4202    4.7392  -15.4804 C   0  0  0  0  0  0  0  0  0  0  0  0
   -8.5808    4.3218  -16.0271 C   0  0  0  0  0  0  0  0  0  0  0  0
   -8.7798    4.1489  -17.4625 C   0  0  0  0  0  0  0  0  0  0  0  0
  -10.4707    3.7192  -18.0878 Br  0  0  0  0  0  0  0  0  0  0  0  0
   -7.8523    4.4418  -18.3776 C   0  0  0  0  0  0  0  0  0  0  0  0
   -6.5918    4.9281  -17.8770 C   0  0  0  0  0  0  0  0  0  0  0  0
   -6.3210    5.0278  -16.4171 C   0  0  0  0  0  0  0  0  0  0  0  0
   -5.0969    5.3936  -16.2587 N   0  0  0  0  0  0  0  0  0  0  0  0
   -4.6658    5.5888  -17.5560 C   0  0  0  0  0  0  0  0  0  0  0  0
   -3.4854    6.0186  -17.7892 N   0  0  0  0  0  0  0  0  0  0  0  0
   -5.5758    5.3255  -18.5477 N   0  0  0  0  0  0  0  0  0  0  0  0
   -3.1946    6.4390  -19.1679 C   0  0  0  0  0  0  0  0  0  0  0  0
   -2.0839    7.5039  -19.1141 C   0  0  0  0  0  0  0  0  0  0  0  0
   -1.2198    7.5171  -20.3779 C   0  0  0  0  0  0  0  0  0  0  0  0
   -2.0025    7.2038  -21.5743 N   0  0  0  0  0  0  0  0  0  0  0  0
   -2.5284    5.8297  -21.4988 C   0  0  0  0  0  0  0  0  0  0  0  0
   -2.7676    5.2981  -20.0772 C   0  0  0  0  0  0  0  0  0  0  0  0
   -1.4070    7.2909  -22.3978 H   0  0  0  0  0  0  0  0  0  0  0  0
   -7.0129    6.3180  -13.8526 O   0  0  0  0  0  0  0  0  0  0  0  0
   -7.3887    5.2326  -14.0709 C   0  0  0  0  0  0  0  0  0  0  0  0
   -7.9635    4.1544  -13.1116 N   0  0  0  0  0  0  0  0  0  0  0  0
   -8.2836    3.3360  -13.5555 H   0  0  0  0  0  0  0  0  0  0  0  0
   -8.1005    4.1575  -11.7175 C   0  0  0  0  0  0  0  0  0  0  0  0
   -7.9281    5.3419  -10.9807 C   0  0  0  0  0  0  0  0  0  0  0  0
   -8.0656    5.3546   -9.5872 C   0  0  0  0  0  0  0  0  0  0  0  0
   -8.3741    4.1698   -8.9464 C   0  0  0  0  0  0  0  0  0  0  0  0
   -8.5510    2.9947   -9.6650 C   0  0  0  0  0  0  0  0  0  0  0  0
   -8.4215    2.9693  -11.0499 C   0  0  0  0  0  0  0  0  0  0  0  0
   -8.9110    1.8937   -8.7220 C   0  0  0  0  0  0  0  0  0  0  0  0
   -8.7939    2.4577   -7.3547 N   0  0  0  0  0  0  0  0  0  0  0  0
   -8.6008    3.9138   -7.4961 C   0  0  0  0  0  0  0  0  0  0  0  0
   -7.9948    2.0446   -6.8739 H   0  0  0  0  0  0  0  0  0  0  0  0
 19 20  2  0  0  0
 20 21  1  0  0  0
 21 23  1  0  0  0
 23 24  2  0  0  0
 24 25  1  0  0  0
 25 26  2  0  0  0
 26 27  1  0  0  0
 27 28  2  0  0  0
 27 29  1  0  0  0
 29 30  1  0  0  0
 30 31  1  0  0  0
 20  1  1  0  0  0
  1  2  2  0  0  0
  2  3  1  0  0  0
  3  4  1  0  0  0
  3  5  2  0  0  0
  5  6  1  0  0  0
  6  7  1  0  0  0
  7  8  2  0  0  0
  8  9  1  0  0  0
  9 10  2  0  0  0
 10 12  1  0  0  0
 12 13  1  0  0  0
 13 14  1  0  0  0
 14 15  1  0  0  0
 15 16  1  0  0  0
 16 17  1  0  0  0
  9 11  1  0  0  0
 28 23  1  0  0  0
  7  1  1  0  0  0
 17 12  1  0  0  0
 31 26  1  0  0  0
 11  6  2  0  0  0
 21 22  1  0  0  0
 30 32  1  0  0  0
 15 18  1  0  0  0
M  END
> <minimizedAffinity>
-8.66738

> <minimizedRMSD>
0.33625

$$$$
P18058


 26 29  0  0  0  0  0  0  0  0999 V2000
   -8.4706    4.8479  -13.7240 C   0  0  0  0  0  0  0  0  0  0  0  0
   -9.4755    5.4433  -13.7217 O   0  0  0  0  0  0  0  0  0  0  0  0
   -7.7192    4.1410  -12.5673 N   0  0  0  0  0  0  0  0  0  0  0  0
   -6.9197    3.6367  -12.8424 H   0  0  0  0  0  0  0  0  0  0  0  0
   -2.2435    6.6923  -15.3778 C   0  0  0  0  0  0  0  0  0  0  0  0
   -3.3243    6.3179  -14.4755 N   0  0  0  0  0  0  0  0  0  0  0  0
   -4.3928    5.8865  -15.0367 C   0  0  0  0  0  0  0  0  0  0  0  0
   -4.5725    5.7679  -16.4020 N   0  0  0  0  0  0  0  0  0  0  0  0
   -5.7594    5.2735  -16.4890 C   0  0  0  0  0  0  0  0  0  0  0  0
   -6.5353    4.8471  -17.6549 C   0  0  0  0  0  0  0  0  0  0  0  0
   -7.7585    4.3359  -17.4396 C   0  0  0  0  0  0  0  0  0  0  0  0
   -8.7937    3.7244  -18.8764 Br  0  0  0  0  0  0  0  0  0  0  0  0
   -8.3689    4.2914  -16.1160 C   0  0  0  0  0  0  0  0  0  0  0  0
   -7.7210    4.6567  -14.9921 C   0  0  0  0  0  0  0  0  0  0  0  0
   -6.3370    5.1307  -15.1250 C   0  0  0  0  0  0  0  0  0  0  0  0
   -5.4571    5.4911  -14.2575 N   0  0  0  0  0  0  0  0  0  0  0  0
   -7.9919    4.1032  -11.1988 C   0  0  0  0  0  0  0  0  0  0  0  0
   -7.8078    5.2448  -10.3984 C   0  0  0  0  0  0  0  0  0  0  0  0
   -8.0591    5.2101   -9.0229 C   0  0  0  0  0  0  0  0  0  0  0  0
   -8.5205    4.0296   -8.4752 C   0  0  0  0  0  0  0  0  0  0  0  0
   -8.7148    2.8996   -9.2649 C   0  0  0  0  0  0  0  0  0  0  0  0
   -8.4451    2.9117  -10.6252 C   0  0  0  0  0  0  0  0  0  0  0  0
   -9.2068    1.7874   -8.3974 C   0  0  0  0  0  0  0  0  0  0  0  0
   -9.6386    2.4385   -7.1351 N   0  0  0  0  0  0  0  0  0  0  0  0
   -8.8760    3.7043   -7.0622 C   0  0  0  0  0  0  0  0  0  0  0  0
   -9.4209    1.8446   -6.3350 H   0  0  0  0  0  0  0  0  0  0  0  0
  5  6  1  0  0  0
  6  7  2  0  0  0
  7  8  1  0  0  0
  8  9  2  0  0  0
  9 10  1  0  0  0
 10 11  2  0  0  0
 11 12  1  0  0  0
 11 13  1  0  0  0
 13 14  2  0  0  0
 14  1  1  0  0  0
  1  2  2  0  0  0
  1  3  1  0  0  0
  3 17  1  0  0  0
 17 18  2  0  0  0
 18 19  1  0  0  0
 19 20  2  0  0  0
 20 21  1  0  0  0
 21 22  2  0  0  0
 21 23  1  0  0  0
 23 24  1  0  0  0
 24 25  1  0  0  0
 14 15  1  0  0  0
 15 16  2  0  0  0
 16  7  1  0  0  0
 15  9  1  0  0  0
 22 17  1  0  0  0
 25 20  1  0  0  0
  3  4  1  0  0  0
 24 26  1  0  0  0
M  END
> <minimizedAffinity>
-8.74013

> <minimizedRMSD>
1.04064

$$$$
P18059


 32 35  0  0  0  0  0  0  0  0999 V2000
   -4.4461    6.1692  -17.4663 C   0  0  0  0  0  0  0  0  0  0  0  0
   -3.8834    7.4430  -17.3408 O   0  0  0  0  0  0  0  0  0  0  0  0
   -5.6759    6.3637  -18.2038 N   0  0  0  0  0  0  0  0  0  0  0  0
   -6.4723    5.3768  -17.5787 C   0  0  0  0  0  0  0  0  0  0  0  0
   -7.5839    4.8039  -18.1147 C   0  0  0  0  0  0  0  0  0  0  0  0
   -8.4314    4.1601  -17.2406 C   0  0  0  0  0  0  0  0  0  0  0  0
   -9.9244    3.3812  -18.0385 Br  0  0  0  0  0  0  0  0  0  0  0  0
   -8.2237    4.1940  -15.8508 C   0  0  0  0  0  0  0  0  0  0  0  0
   -7.0353    4.7482  -15.3236 C   0  0  0  0  0  0  0  0  0  0  0  0
   -6.1039    5.2238  -16.2475 C   0  0  0  0  0  0  0  0  0  0  0  0
   -4.7570    5.6815  -16.1128 N   0  0  0  0  0  0  0  0  0  0  0  0
   -3.6681    7.7896  -18.2208 H   0  0  0  0  0  0  0  0  0  0  0  0
   -5.8935    6.9958  -18.9265 H   0  0  0  0  0  0  0  0  0  0  0  0
   -4.1810    5.6729  -15.3144 H   0  0  0  0  0  0  0  0  0  0  0  0
   -6.9601    5.1484  -13.8672 C   0  0  0  0  0  0  0  0  0  0  0  0
   -6.6254    6.2492  -13.6437 O   0  0  0  0  0  0  0  0  0  0  0  0
   -7.4501    4.0266  -12.9024 N   0  0  0  0  0  0  0  0  0  0  0  0
   -7.6017    3.1526  -13.3296 H   0  0  0  0  0  0  0  0  0  0  0  0
   -7.7105    4.0599  -11.5233 C   0  0  0  0  0  0  0  0  0  0  0  0
   -7.4556    5.2055  -10.7521 C   0  0  0  0  0  0  0  0  0  0  0  0
   -7.7778    5.2477   -9.3856 C   0  0  0  0  0  0  0  0  0  0  0  0
   -8.3541    4.1318   -8.8059 C   0  0  0  0  0  0  0  0  0  0  0  0
   -8.6007    2.9895   -9.5571 C   0  0  0  0  0  0  0  0  0  0  0  0
   -8.2942    2.9390  -10.9127 C   0  0  0  0  0  0  0  0  0  0  0  0
   -9.1732    1.9362   -8.6626 C   0  0  0  0  0  0  0  0  0  0  0  0
   -9.5653    2.6417   -7.4171 N   0  0  0  0  0  0  0  0  0  0  0  0
   -8.7731    3.8914   -7.3929 C   0  0  0  0  0  0  0  0  0  0  0  0
   -9.3491    2.0685   -6.6015 H   0  0  0  0  0  0  0  0  0  0  0  0
   -3.5480    5.2247  -18.3712 C   0  0  0  0  0  0  0  0  0  0  0  0
   -3.2672    4.6180  -20.7572 C   0  0  0  0  0  0  0  0  0  0  0  0
   -3.4703    5.7044  -19.8058 N   0  0  0  0  0  0  0  0  0  0  0  0
   -4.3418    6.1811  -20.0373 H   0  0  0  0  0  0  0  0  0  0  0  0
 30 31  1  0  0  0
 31 29  1  0  0  0
 29  1  1  0  0  0
  1  2  1  0  0  0
  1  3  1  0  0  0
  3  4  1  0  0  0
  4  5  2  0  0  0
  5  6  1  0  0  0
  6  7  1  0  0  0
  6  8  2  0  0  0
  8  9  1  0  0  0
  9 15  1  0  0  0
 15 16  2  0  0  0
 15 17  1  0  0  0
 17 19  1  0  0  0
 19 20  2  0  0  0
 20 21  1  0  0  0
 21 22  2  0  0  0
 22 23  1  0  0  0
 23 24  2  0  0  0
 23 25  1  0  0  0
 25 26  1  0  0  0
 26 27  1  0  0  0
  9 10  2  0  0  0
 10 11  1  0  0  0
 11  1  1  0  0  0
 10  4  1  0  0  0
 24 19  1  0  0  0
 27 22  1  0  0  0
 31 32  1  0  0  0
  2 12  1  0  0  0
  3 13  1  0  0  0
 17 18  1  0  0  0
 26 28  1  0  0  0
 11 14  1  0  0  0
M  END
> <minimizedAffinity>
-7.79673

> <minimizedRMSD>
0.54289

$$$$
P18065


 27 31  0  0  0  0  0  0  0  0999 V2000
   -6.7358    6.4867  -13.4811 O   0  0  0  0  0  0  0  0  0  0  0  0
   -7.1266    5.4070  -13.7149 C   0  0  0  0  0  0  0  0  0  0  0  0
   -7.7828    4.3415  -12.7755 N   0  0  0  0  0  0  0  0  0  0  0  0
   -8.0987    3.5283  -13.2316 H   0  0  0  0  0  0  0  0  0  0  0  0
   -7.0963    4.8054  -15.1444 C   0  0  0  0  0  0  0  0  0  0  0  0
   -8.5093    4.8593  -15.7387 C   0  0  0  0  0  0  0  0  0  0  0  0
   -8.5031    4.2743  -17.1342 C   0  0  0  0  0  0  0  0  0  0  0  0
  -10.2810    4.1455  -17.8734 Br  0  0  0  0  0  0  0  0  0  0  0  0
   -7.6180    4.9502  -18.1478 C   0  0  0  0  0  0  0  0  0  0  0  0
   -6.3649    5.5852  -17.5865 C   0  0  0  0  0  0  0  0  0  0  0  0
   -5.1345    4.9347  -18.1677 C   0  0  0  0  0  0  0  0  0  0  0  0
   -4.6259    5.2528  -19.5500 C   0  0  0  0  0  0  0  0  0  0  0  0
   -3.1170    4.9670  -19.4154 C   0  0  0  0  0  0  0  0  0  0  0  0
   -2.8330    4.7686  -17.9008 C   0  0  0  0  0  0  0  0  0  0  0  0
   -4.0323    5.4276  -17.2596 C   0  0  0  0  0  0  0  0  0  0  0  0
   -4.6120    5.0685  -15.9034 C   0  0  0  0  0  0  0  0  0  0  0  0
   -6.0934    5.5611  -16.0477 C   0  0  0  0  0  0  0  0  0  0  0  0
   -7.9931    4.3573  -11.3949 C   0  0  0  0  0  0  0  0  0  0  0  0
   -7.5563    5.4339  -10.6066 C   0  0  0  0  0  0  0  0  0  0  0  0
   -7.7356    5.4297   -9.2179 C   0  0  0  0  0  0  0  0  0  0  0  0
   -8.3524    4.3371   -8.6377 C   0  0  0  0  0  0  0  0  0  0  0  0
   -8.7967    3.2733   -9.4131 C   0  0  0  0  0  0  0  0  0  0  0  0
   -8.6325    3.2682  -10.7925 C   0  0  0  0  0  0  0  0  0  0  0  0
   -9.3824    2.2279   -8.5199 C   0  0  0  0  0  0  0  0  0  0  0  0
   -9.4840    2.8561   -7.1793 N   0  0  0  0  0  0  0  0  0  0  0  0
   -8.6293    4.0536   -7.1995 C   0  0  0  0  0  0  0  0  0  0  0  0
   -9.1601    2.2066   -6.4627 H   0  0  0  0  0  0  0  0  0  0  0  0
  1  2  2  0  0  0
  2  3  1  0  0  0
  3 18  1  0  0  0
 18 19  2  0  0  0
 19 20  1  0  0  0
 20 21  2  0  0  0
 21 22  1  0  0  0
 22 23  2  0  0  0
 22 24  1  0  0  0
 24 25  1  0  0  0
 25 26  1  0  0  0
  5  2  1  0  0  0
  5  6  1  0  0  0
  6  7  1  0  0  0
  7  8  1  0  0  0
  7  9  1  0  0  0
 10  9  1  0  0  0
 10 11  1  0  0  0
 11 12  1  0  0  0
 12 13  1  0  0  0
 13 14  1  0  0  0
 15 14  1  0  0  0
 15 16  1  0  0  0
 17 16  1  0  0  0
 23 18  1  0  0  0
 17  5  1  0  0  0
 26 21  1  0  0  0
 17 10  1  0  0  0
 15 11  1  0  0  0
  3  4  1  0  0  0
 25 27  1  0  0  0
M  END
> <minimizedAffinity>
-8.53008

> <minimizedRMSD>
0.29863

$$$$
P18066


 32 35  0  0  0  0  0  0  0  0999 V2000
   -6.1157    5.0587  -17.0045 C   0  0  0  0  0  0  0  0  0  0  0  0
   -7.1875    4.4852  -17.7038 C   0  0  0  0  0  0  0  0  0  0  0  0
   -8.3591    4.1154  -17.0451 C   0  0  0  0  0  0  0  0  0  0  0  0
   -9.7738    3.4616  -18.0946 Br  0  0  0  0  0  0  0  0  0  0  0  0
   -8.5167    4.3054  -15.6796 C   0  0  0  0  0  0  0  0  0  0  0  0
   -7.4605    4.8633  -14.9618 C   0  0  0  0  0  0  0  0  0  0  0  0
   -6.2445    5.2388  -15.6066 C   0  0  0  0  0  0  0  0  0  0  0  0
   -5.1332    5.5752  -14.7960 N   0  0  0  0  0  0  0  0  0  0  0  0
   -5.2498    5.6949  -13.8258 H   0  0  0  0  0  0  0  0  0  0  0  0
   -4.2439    5.6894  -15.2027 H   0  0  0  0  0  0  0  0  0  0  0  0
   -3.3327    6.7716  -18.5829 C   0  0  0  0  0  0  0  0  0  0  0  0
   -4.1364    6.5868  -17.4790 C   0  0  0  0  0  0  0  0  0  0  0  0
   -4.9980    5.5486  -17.7657 N   0  0  0  0  0  0  0  0  0  0  0  0
   -4.6069    5.1247  -19.0256 C   0  0  0  0  0  0  0  0  0  0  0  0
   -3.6398    5.8512  -19.5401 N   0  0  0  0  0  0  0  0  0  0  0  0
   -2.3082    7.8266  -18.8212 C   0  0  0  0  0  0  0  0  0  0  0  0
   -0.4996    7.4191  -20.5688 C   0  0  0  0  0  0  0  0  0  0  0  0
   -0.9059    7.2917  -19.1067 C   0  0  0  0  0  0  0  0  0  0  0  0
   -7.6634    5.2635  -13.5348 C   0  0  0  0  0  0  0  0  0  0  0  0
   -7.5040    6.3937  -13.2830 O   0  0  0  0  0  0  0  0  0  0  0  0
   -8.0348    4.0754  -12.6181 N   0  0  0  0  0  0  0  0  0  0  0  0
   -8.1868    3.2239  -13.0883 H   0  0  0  0  0  0  0  0  0  0  0  0
   -8.1898    4.0134  -11.2309 C   0  0  0  0  0  0  0  0  0  0  0  0
   -7.9365    5.1472  -10.4359 C   0  0  0  0  0  0  0  0  0  0  0  0
   -8.1057    5.1116   -9.0479 C   0  0  0  0  0  0  0  0  0  0  0  0
   -8.5371    3.9315   -8.4765 C   0  0  0  0  0  0  0  0  0  0  0  0
   -8.7696    2.8007   -9.2547 C   0  0  0  0  0  0  0  0  0  0  0  0
   -8.6013    2.8208  -10.6323 C   0  0  0  0  0  0  0  0  0  0  0  0
   -9.1865    1.6814   -8.3577 C   0  0  0  0  0  0  0  0  0  0  0  0
   -9.5668    2.3286   -7.0778 N   0  0  0  0  0  0  0  0  0  0  0  0
   -8.8329    3.6131   -7.0482 C   0  0  0  0  0  0  0  0  0  0  0  0
   -9.2932    1.7439   -6.2880 H   0  0  0  0  0  0  0  0  0  0  0  0
 17 18  1  0  0  0
 18 16  1  0  0  0
 16 11  1  0  0  0
 11 12  2  0  0  0
 12 13  1  0  0  0
 13  1  1  0  0  0
  1  2  2  0  0  0
  2  3  1  0  0  0
  3  4  1  0  0  0
  3  5  2  0  0  0
  5  6  1  0  0  0
  6 19  1  0  0  0
 19 20  2  0  0  0
 19 21  1  0  0  0
 21 23  1  0  0  0
 23 24  2  0  0  0
 24 25  1  0  0  0
 25 26  2  0  0  0
 26 27  1  0  0  0
 27 28  2  0  0  0
 27 29  1  0  0  0
 29 30  1  0  0  0
 30 31  1  0  0  0
  6  7  2  0  0  0
  7  8  1  0  0  0
 13 14  1  0  0  0
 14 15  2  0  0  0
 15 11  1  0  0  0
  7  1  1  0  0  0
 28 23  1  0  0  0
 31 26  1  0  0  0
 21 22  1  0  0  0
 30 32  1  0  0  0
  8  9  1  0  0  0
  8 10  1  0  0  0
M  END
> <minimizedAffinity>
-7.58705

> <minimizedRMSD>
0.39785

$$$$
P18068


 32 36  0  0  0  0  0  0  0  0999 V2000
   -3.3822    5.9374  -18.0977 O   0  0  0  0  0  0  0  0  0  0  0  0
   -4.5077    5.5698  -17.8039 C   0  0  0  0  0  0  0  0  0  0  0  0
   -5.0127    5.4349  -16.5220 N   0  0  0  0  0  0  0  0  0  0  0  0
   -6.2282    5.0236  -16.6597 C   0  0  0  0  0  0  0  0  0  0  0  0
   -7.2873    4.7436  -15.6454 C   0  0  0  0  0  0  0  0  0  0  0  0
   -8.4992    4.3369  -16.0898 C   0  0  0  0  0  0  0  0  0  0  0  0
   -8.8056    4.1540  -17.5052 C   0  0  0  0  0  0  0  0  0  0  0  0
  -10.5398    3.8373  -18.0605 Br  0  0  0  0  0  0  0  0  0  0  0  0
   -7.8913    4.3837  -18.4517 C   0  0  0  0  0  0  0  0  0  0  0  0
   -6.6086    4.8311  -18.0579 C   0  0  0  0  0  0  0  0  0  0  0  0
   -5.5775    5.2149  -18.8033 C   0  0  0  0  0  0  0  0  0  0  0  0
   -7.1481    5.1856  -14.2214 C   0  0  0  0  0  0  0  0  0  0  0  0
   -6.6440    6.2131  -13.9789 O   0  0  0  0  0  0  0  0  0  0  0  0
   -7.7848    4.1265  -13.2751 N   0  0  0  0  0  0  0  0  0  0  0  0
   -8.0783    3.2990  -13.7204 H   0  0  0  0  0  0  0  0  0  0  0  0
   -8.0082    4.1598  -11.8913 C   0  0  0  0  0  0  0  0  0  0  0  0
   -7.9545    5.3691  -11.1782 C   0  0  0  0  0  0  0  0  0  0  0  0
   -8.1437    5.4007   -9.7901 C   0  0  0  0  0  0  0  0  0  0  0  0
   -8.3858    4.2103   -9.1300 C   0  0  0  0  0  0  0  0  0  0  0  0
   -8.4480    3.0098   -9.8256 C   0  0  0  0  0  0  0  0  0  0  0  0
   -8.2646    2.9654  -11.2044 C   0  0  0  0  0  0  0  0  0  0  0  0
   -8.7026    1.8972   -8.8607 C   0  0  0  0  0  0  0  0  0  0  0  0
   -8.9551    2.5373   -7.5489 N   0  0  0  0  0  0  0  0  0  0  0  0
   -8.5941    3.9606   -7.6746 C   0  0  0  0  0  0  0  0  0  0  0  0
   -8.3829    2.0950   -6.8296 H   0  0  0  0  0  0  0  0  0  0  0  0
   -5.5022    5.2900  -20.1831 N   0  0  0  0  0  0  0  0  0  0  0  0
   -6.3234    5.1074  -20.6945 H   0  0  0  0  0  0  0  0  0  0  0  0
   -4.3100    5.6159  -20.9291 C   0  0  0  0  0  0  0  0  0  0  0  0
   -4.5587    5.6500  -22.4583 C   0  0  0  0  0  0  0  0  0  0  0  0
   -4.2374    4.2017  -22.5146 N   0  0  0  0  0  0  0  0  0  0  0  0
   -3.4321    4.3905  -21.2694 C   0  0  0  0  0  0  0  0  0  0  0  0
   -3.6958    3.9187  -23.3313 H   0  0  0  0  0  0  0  0  0  0  0  0
  1  2  2  0  0  0
  2  3  1  0  0  0
  3  4  2  0  0  0
  4  5  1  0  0  0
  5 12  1  0  0  0
 12 13  2  0  0  0
 12 14  1  0  0  0
 14 16  1  0  0  0
 16 17  2  0  0  0
 17 18  1  0  0  0
 18 19  2  0  0  0
 19 20  1  0  0  0
 20 21  2  0  0  0
 20 22  1  0  0  0
 22 23  1  0  0  0
 23 24  1  0  0  0
  5  6  2  0  0  0
  6  7  1  0  0  0
  7  8  1  0  0  0
  7  9  2  0  0  0
  9 10  1  0  0  0
 10 11  2  0  0  0
 11 26  1  0  0  0
 26 28  1  0  0  0
 28 29  1  0  0  0
 29 30  1  0  0  0
 30 31  1  0  0  0
 11  2  1  0  0  0
 31 28  1  0  0  0
 10  4  1  0  0  0
 21 16  1  0  0  0
 24 19  1  0  0  0
 14 15  1  0  0  0
 23 25  1  0  0  0
 26 27  1  0  0  0
 30 32  1  0  0  0
M  END
> <minimizedAffinity>
-9.15604

> <minimizedRMSD>
0.46786

$$$$
P18069


 31 35  0  0  0  0  0  0  0  0999 V2000
   -7.2160    4.8558  -15.0474 C   0  0  0  0  0  0  0  0  0  0  0  0
   -8.3152    4.3179  -15.7139 C   0  0  0  0  0  0  0  0  0  0  0  0
   -8.2595    4.1689  -17.1122 C   0  0  0  0  0  0  0  0  0  0  0  0
   -9.7615    3.4975  -18.0329 Br  0  0  0  0  0  0  0  0  0  0  0  0
   -7.1422    4.5622  -17.8676 C   0  0  0  0  0  0  0  0  0  0  0  0
   -6.0520    5.0916  -17.2028 C   0  0  0  0  0  0  0  0  0  0  0  0
   -6.1043    5.2038  -15.8072 C   0  0  0  0  0  0  0  0  0  0  0  0
   -4.8901    5.6786  -15.3375 N   0  0  0  0  0  0  0  0  0  0  0  0
   -3.9785    5.8515  -16.3606 C   0  0  0  0  0  0  0  0  0  0  0  0
   -2.7931    6.0810  -16.1926 O   0  0  0  0  0  0  0  0  0  0  0  0
   -4.7560    5.7233  -17.7029 C   0  0  0  0  0  0  0  0  0  0  0  0
   -5.0598    7.1378  -18.2249 C   0  0  0  0  0  0  0  0  0  0  0  0
   -5.5795    7.1116  -19.6566 C   0  0  0  0  0  0  0  0  0  0  0  0
   -4.6371    6.4794  -20.5127 O   0  0  0  0  0  0  0  0  0  0  0  0
   -4.4258    5.1186  -20.1581 C   0  0  0  0  0  0  0  0  0  0  0  0
   -3.8847    5.0114  -18.7392 C   0  0  0  0  0  0  0  0  0  0  0  0
   -4.7005    5.8693  -14.3904 H   0  0  0  0  0  0  0  0  0  0  0  0
   -6.7413    6.2258  -13.3044 O   0  0  0  0  0  0  0  0  0  0  0  0
   -7.2454    5.2167  -13.6073 C   0  0  0  0  0  0  0  0  0  0  0  0
   -7.8878    4.1163  -12.7337 N   0  0  0  0  0  0  0  0  0  0  0  0
   -8.1797    3.3161  -13.2275 H   0  0  0  0  0  0  0  0  0  0  0  0
   -8.1218    4.0720  -11.3579 C   0  0  0  0  0  0  0  0  0  0  0  0
   -7.9306    5.2163  -10.5617 C   0  0  0  0  0  0  0  0  0  0  0  0
   -8.1349    5.1782   -9.1780 C   0  0  0  0  0  0  0  0  0  0  0  0
   -8.5390    3.9850   -8.6131 C   0  0  0  0  0  0  0  0  0  0  0  0
   -8.7234    2.8480   -9.3947 C   0  0  0  0  0  0  0  0  0  0  0  0
   -8.5202    2.8706  -10.7671 C   0  0  0  0  0  0  0  0  0  0  0  0
   -9.1185    1.7149   -8.5054 C   0  0  0  0  0  0  0  0  0  0  0  0
   -9.5291    2.3466   -7.2268 N   0  0  0  0  0  0  0  0  0  0  0  0
   -8.8332    3.6519   -7.1878 C   0  0  0  0  0  0  0  0  0  0  0  0
   -9.2455    1.7678   -6.4362 H   0  0  0  0  0  0  0  0  0  0  0  0
 18 19  2  0  0  0
 19 20  1  0  0  0
 20 22  1  0  0  0
 22 23  2  0  0  0
 23 24  1  0  0  0
 24 25  2  0  0  0
 25 26  1  0  0  0
 26 27  2  0  0  0
 26 28  1  0  0  0
 28 29  1  0  0  0
 29 30  1  0  0  0
 19  1  1  0  0  0
  1  2  2  0  0  0
  2  3  1  0  0  0
  3  4  1  0  0  0
  3  5  2  0  0  0
  5  6  1  0  0  0
  6  7  2  0  0  0
  7  8  1  0  0  0
  8  9  1  0  0  0
  9 10  2  0  0  0
  9 11  1  0  0  0
 11 12  1  0  0  0
 12 13  1  0  0  0
 13 14  1  0  0  0
 14 15  1  0  0  0
 15 16  1  0  0  0
 27 22  1  0  0  0
  7  1  1  0  0  0
 16 11  1  0  0  0
 30 25  1  0  0  0
 11  6  1  0  0  0
 20 21  1  0  0  0
 29 31  1  0  0  0
  8 17  1  0  0  0
M  END
> <minimizedAffinity>
-9.62718

> <minimizedRMSD>
0.23486

$$$$
P18076


 30 33  0  0  0  0  0  0  0  0999 V2000
   -7.3538    4.9764  -14.0118 C   0  0  0  0  0  0  0  0  0  0  0  0
   -8.1346    6.1395  -13.8487 O   0  0  0  0  0  0  0  0  0  0  0  0
   -8.0793    6.4395  -12.9279 H   0  0  0  0  0  0  0  0  0  0  0  0
   -7.5126    4.6013  -15.4695 C   0  0  0  0  0  0  0  0  0  0  0  0
   -8.7016    3.9239  -15.9070 C   0  0  0  0  0  0  0  0  0  0  0  0
   -9.0430    3.5962  -17.2554 C   0  0  0  0  0  0  0  0  0  0  0  0
   -8.2169    3.9056  -18.3457 C   0  0  0  0  0  0  0  0  0  0  0  0
   -7.0307    4.5591  -17.9855 C   0  0  0  0  0  0  0  0  0  0  0  0
   -6.0432    4.9972  -18.7852 N   0  0  0  0  0  0  0  0  0  0  0  0
   -5.1385    5.5198  -17.9499 N   0  0  0  0  0  0  0  0  0  0  0  0
   -3.8993    6.0226  -18.4898 C   0  0  0  0  0  0  0  0  0  0  0  0
   -5.5224    5.5365  -16.6423 C   0  0  0  0  0  0  0  0  0  0  0  0
   -6.7248    4.8809  -16.6000 C   0  0  0  0  0  0  0  0  0  0  0  0
   -3.7896    5.4421  -12.6907 C   0  0  0  0  0  0  0  0  0  0  0  0
   -4.9651    4.5105  -12.8903 C   0  0  0  0  0  0  0  0  0  0  0  0
   -4.9715    3.4051  -12.5257 O   0  0  0  0  0  0  0  0  0  0  0  0
   -6.0709    5.3466  -13.5671 N   0  0  0  0  0  0  0  0  0  0  0  0
   -5.8418    6.2931  -13.7115 H   0  0  0  0  0  0  0  0  0  0  0  0
   -7.8985    3.9721  -13.1336 N   0  0  0  0  0  0  0  0  0  0  0  0
   -8.2019    3.1327  -13.5490 H   0  0  0  0  0  0  0  0  0  0  0  0
   -8.0367    4.0794  -11.7407 C   0  0  0  0  0  0  0  0  0  0  0  0
   -7.9618    5.2938  -11.0229 C   0  0  0  0  0  0  0  0  0  0  0  0
   -8.1432    5.3534   -9.6350 C   0  0  0  0  0  0  0  0  0  0  0  0
   -8.4591    4.1892   -8.9689 C   0  0  0  0  0  0  0  0  0  0  0  0
   -8.5838    2.9896   -9.6561 C   0  0  0  0  0  0  0  0  0  0  0  0
   -8.3755    2.9184  -11.0256 C   0  0  0  0  0  0  0  0  0  0  0  0
   -8.9336    1.9103   -8.6848 C   0  0  0  0  0  0  0  0  0  0  0  0
   -9.3729    2.6257   -7.4560 N   0  0  0  0  0  0  0  0  0  0  0  0
   -8.7159    3.9484   -7.5196 C   0  0  0  0  0  0  0  0  0  0  0  0
   -9.0760    2.1189   -6.6220 H   0  0  0  0  0  0  0  0  0  0  0  0
 14 15  1  0  0  0
 15 16  2  0  0  0
 15 17  1  0  0  0
 17  1  1  0  0  0
  1  2  1  0  0  0
  1 19  1  0  0  0
 19 21  1  0  0  0
 21 22  2  0  0  0
 22 23  1  0  0  0
 23 24  2  0  0  0
 24 25  1  0  0  0
 25 26  2  0  0  0
 25 27  1  0  0  0
 27 28  1  0  0  0
 28 29  1  0  0  0
  1  4  1  0  0  0
  4  5  2  0  0  0
  5  6  1  0  0  0
  6  7  2  0  0  0
  7  8  1  0  0  0
  8  9  2  0  0  0
  9 10  1  0  0  0
 10 11  1  0  0  0
 10 12  1  0  0  0
 12 13  2  0  0  0
 26 21  1  0  0  0
 13  4  1  0  0  0
 29 24  1  0  0  0
 13  8  1  0  0  0
 17 18  1  0  0  0
  2  3  1  0  0  0
 19 20  1  0  0  0
 28 30  1  0  0  0
M  END
> <minimizedAffinity>
-8.68172

> <minimizedRMSD>
0.65637

$$$$
P18083


 28 31  0  0  0  0  0  0  0  0999 V2000
   -4.2674    5.7496  -14.2839 C   0  0  0  0  0  0  0  0  0  0  0  0
   -5.0252    5.5720  -15.5517 C   0  0  0  0  0  0  0  0  0  0  0  0
   -4.5404    5.7838  -16.8381 C   0  0  0  0  0  0  0  0  0  0  0  0
   -3.2116    6.2862  -17.2860 C   0  0  0  0  0  0  0  0  0  0  0  0
   -5.5230    5.3996  -17.7265 N   0  0  0  0  0  0  0  0  0  0  0  0
   -6.6052    4.8869  -17.0362 C   0  0  0  0  0  0  0  0  0  0  0  0
   -7.7848    4.3063  -17.5284 C   0  0  0  0  0  0  0  0  0  0  0  0
   -8.7589    3.9262  -16.6145 C   0  0  0  0  0  0  0  0  0  0  0  0
   -8.5710    4.1407  -15.2549 C   0  0  0  0  0  0  0  0  0  0  0  0
   -7.3961    4.7166  -14.7600 C   0  0  0  0  0  0  0  0  0  0  0  0
   -6.3633    5.0666  -15.6650 C   0  0  0  0  0  0  0  0  0  0  0  0
   -5.4396    5.4276  -19.1830 C   0  0  0  0  0  0  0  0  0  0  0  0
   -6.1532    6.5551  -19.6811 O   0  0  0  0  0  0  0  0  0  0  0  0
   -7.0836    6.4928  -19.4136 H   0  0  0  0  0  0  0  0  0  0  0  0
   -7.4343    5.1701  -13.3573 C   0  0  0  0  0  0  0  0  0  0  0  0
   -7.8110    6.3134  -13.1140 O   0  0  0  0  0  0  0  0  0  0  0  0
   -7.0872    4.2589  -12.2017 C   0  0  0  0  0  0  0  0  0  0  0  0
   -6.0638    3.5933  -12.1975 O   0  0  0  0  0  0  0  0  0  0  0  0
   -7.8472    4.2559  -10.9542 C   0  0  0  0  0  0  0  0  0  0  0  0
   -7.6694    5.3388  -10.0740 C   0  0  0  0  0  0  0  0  0  0  0  0
   -8.0267    5.2110   -8.7319 C   0  0  0  0  0  0  0  0  0  0  0  0
   -8.5806    4.0123   -8.3149 C   0  0  0  0  0  0  0  0  0  0  0  0
   -8.7951    2.9585   -9.2023 C   0  0  0  0  0  0  0  0  0  0  0  0
   -8.4154    3.0496  -10.5272 C   0  0  0  0  0  0  0  0  0  0  0  0
   -9.3592    1.7990   -8.4505 C   0  0  0  0  0  0  0  0  0  0  0  0
   -9.8138    2.3666   -7.1559 N   0  0  0  0  0  0  0  0  0  0  0  0
   -8.9868    3.5740   -6.9454 C   0  0  0  0  0  0  0  0  0  0  0  0
   -9.6661    1.6967   -6.4010 H   0  0  0  0  0  0  0  0  0  0  0  0
  1  2  1  0  0  0
  2  3  2  0  0  0
  3  4  1  0  0  0
  3  5  1  0  0  0
  5 12  1  0  0  0
 12 13  1  0  0  0
  5  6  1  0  0  0
  6  7  2  0  0  0
  7  8  1  0  0  0
  8  9  2  0  0  0
  9 10  1  0  0  0
 10 15  1  0  0  0
 15 16  2  0  0  0
 15 17  1  0  0  0
 17 18  2  0  0  0
 17 19  1  0  0  0
 19 20  2  0  0  0
 20 21  1  0  0  0
 21 22  2  0  0  0
 22 23  1  0  0  0
 23 24  2  0  0  0
 23 25  1  0  0  0
 25 26  1  0  0  0
 26 27  1  0  0  0
 10 11  2  0  0  0
 11  2  1  0  0  0
 11  6  1  0  0  0
 24 19  1  0  0  0
 27 22  1  0  0  0
 13 14  1  0  0  0
 26 28  1  0  0  0
M  END
> <minimizedAffinity>
-8.38104

> <minimizedRMSD>
0.26002

$$$$
P18089


 25 28  0  0  0  0  0  0  0  0999 V2000
   -7.4756    5.0597  -14.4184 C   0  0  0  0  0  0  0  0  0  0  0  0
   -7.0592    6.1423  -14.2711 O   0  0  0  0  0  0  0  0  0  0  0  0
   -7.9329    4.0071  -13.3732 N   0  0  0  0  0  0  0  0  0  0  0  0
   -8.1749    3.1303  -13.7500 H   0  0  0  0  0  0  0  0  0  0  0  0
   -3.9439    5.9097  -18.7179 C   0  0  0  0  0  0  0  0  0  0  0  0
   -5.1639    5.3936  -18.1660 N   0  0  0  0  0  0  0  0  0  0  0  0
   -5.5850    5.4326  -16.8689 C   0  0  0  0  0  0  0  0  0  0  0  0
   -6.8107    4.8164  -16.8776 C   0  0  0  0  0  0  0  0  0  0  0  0
   -7.6740    4.5725  -15.8027 C   0  0  0  0  0  0  0  0  0  0  0  0
   -8.8462    3.9097  -16.2270 C   0  0  0  0  0  0  0  0  0  0  0  0
   -9.0932    3.5438  -17.5830 C   0  0  0  0  0  0  0  0  0  0  0  0
  -10.2518    2.9401  -17.8747 F   0  0  0  0  0  0  0  0  0  0  0  0
   -8.2234    3.7913  -18.6485 C   0  0  0  0  0  0  0  0  0  0  0  0
   -7.0562    4.4448  -18.2551 C   0  0  0  0  0  0  0  0  0  0  0  0
   -6.0286    4.8347  -19.0164 N   0  0  0  0  0  0  0  0  0  0  0  0
   -8.0571    4.1017  -11.9828 C   0  0  0  0  0  0  0  0  0  0  0  0
   -7.9694    5.3344  -11.3160 C   0  0  0  0  0  0  0  0  0  0  0  0
   -8.1180    5.4132   -9.9237 C   0  0  0  0  0  0  0  0  0  0  0  0
   -8.3459    4.2457   -9.2182 C   0  0  0  0  0  0  0  0  0  0  0  0
   -8.4090    3.0193   -9.8699 C   0  0  0  0  0  0  0  0  0  0  0  0
   -8.2756    2.9293  -11.2482 C   0  0  0  0  0  0  0  0  0  0  0  0
   -8.6017    1.9399   -8.8549 C   0  0  0  0  0  0  0  0  0  0  0  0
   -9.0213    2.6385   -7.6148 N   0  0  0  0  0  0  0  0  0  0  0  0
   -8.5384    4.0309   -7.7532 C   0  0  0  0  0  0  0  0  0  0  0  0
   -8.6001    2.1960   -6.7980 H   0  0  0  0  0  0  0  0  0  0  0  0
  5  6  1  0  0  0
  6  7  1  0  0  0
  7  8  2  0  0  0
  8  9  1  0  0  0
  9  1  1  0  0  0
  1  2  2  0  0  0
  1  3  1  0  0  0
  3 16  1  0  0  0
 16 17  2  0  0  0
 17 18  1  0  0  0
 18 19  2  0  0  0
 19 20  1  0  0  0
 20 21  2  0  0  0
 20 22  1  0  0  0
 22 23  1  0  0  0
 23 24  1  0  0  0
  9 10  2  0  0  0
 10 11  1  0  0  0
 11 12  1  0  0  0
 11 13  2  0  0  0
 13 14  1  0  0  0
 14 15  2  0  0  0
 15  6  1  0  0  0
 14  8  1  0  0  0
 21 16  1  0  0  0
 24 19  1  0  0  0
  3  4  1  0  0  0
 23 25  1  0  0  0
M  END
> <minimizedAffinity>
-9.09047

> <minimizedRMSD>
0.63092

$$$$
P18090


 26 29  0  0  0  0  0  0  0  0999 V2000
   -7.4479    4.9944  -14.6010 C   0  0  0  0  0  0  0  0  0  0  0  0
   -6.8936    6.0170  -14.4826 O   0  0  0  0  0  0  0  0  0  0  0  0
   -8.0113    4.0255  -13.5270 N   0  0  0  0  0  0  0  0  0  0  0  0
   -8.3717    3.1810  -13.8821 H   0  0  0  0  0  0  0  0  0  0  0  0
   -8.0900    4.1570  -12.1393 C   0  0  0  0  0  0  0  0  0  0  0  0
   -7.9781    5.4087  -11.5150 C   0  0  0  0  0  0  0  0  0  0  0  0
   -8.0766    5.5279  -10.1234 C   0  0  0  0  0  0  0  0  0  0  0  0
   -8.2854    4.3822   -9.3768 C   0  0  0  0  0  0  0  0  0  0  0  0
   -8.3916    3.1396   -9.9885 C   0  0  0  0  0  0  0  0  0  0  0  0
   -8.2994    3.0076  -11.3671 C   0  0  0  0  0  0  0  0  0  0  0  0
   -8.5901    2.0904   -8.9451 C   0  0  0  0  0  0  0  0  0  0  0  0
   -8.7911    2.8159   -7.6691 N   0  0  0  0  0  0  0  0  0  0  0  0
   -8.4241    4.2251   -7.9007 C   0  0  0  0  0  0  0  0  0  0  0  0
   -8.1968    2.4157   -6.9431 H   0  0  0  0  0  0  0  0  0  0  0  0
   -5.4205    5.3603  -18.5059 N   0  0  0  0  0  0  0  0  0  0  0  0
   -5.7464    5.3900  -17.1815 C   0  0  0  0  0  0  0  0  0  0  0  0
   -6.9370    4.7151  -17.0964 C   0  0  0  0  0  0  0  0  0  0  0  0
   -7.7291    4.4897  -15.9663 C   0  0  0  0  0  0  0  0  0  0  0  0
   -8.9274    3.8165  -16.3034 C   0  0  0  0  0  0  0  0  0  0  0  0
   -9.2654    3.3970  -17.6264 C   0  0  0  0  0  0  0  0  0  0  0  0
   -8.4348    3.6041  -18.7419 C   0  0  0  0  0  0  0  0  0  0  0  0
   -7.2516    4.2915  -18.4435 C   0  0  0  0  0  0  0  0  0  0  0  0
   -6.2794    4.6814  -19.2764 N   0  0  0  0  0  0  0  0  0  0  0  0
   -4.2886    5.9879  -19.1476 C   0  0  0  0  0  0  0  0  0  0  0  0
   -2.4344    4.3724  -18.6138 C   0  0  0  0  0  0  0  0  0  0  0  0
   -3.3109    4.9590  -19.7073 C   0  0  0  0  0  0  0  0  0  0  0  0
 25 26  1  0  0  0
 26 24  1  0  0  0
 24 15  1  0  0  0
 15 16  1  0  0  0
 16 17  2  0  0  0
 17 18  1  0  0  0
 18  1  1  0  0  0
  1  2  2  0  0  0
  1  3  1  0  0  0
  3  5  1  0  0  0
  5  6  2  0  0  0
  6  7  1  0  0  0
  7  8  2  0  0  0
  8  9  1  0  0  0
  9 10  2  0  0  0
  9 11  1  0  0  0
 11 12  1  0  0  0
 12 13  1  0  0  0
 18 19  2  0  0  0
 19 20  1  0  0  0
 20 21  2  0  0  0
 21 22  1  0  0  0
 22 23  2  0  0  0
 23 15  1  0  0  0
 22 17  1  0  0  0
 10  5  1  0  0  0
 13  8  1  0  0  0
  3  4  1  0  0  0
 12 14  1  0  0  0
M  END
> <minimizedAffinity>
-8.72696

> <minimizedRMSD>
1.14092

$$$$
P18097


 33 37  0  0  0  0  0  0  0  0999 V2000
   -7.9766    7.9956  -10.9122 C   0  0  0  0  0  0  0  0  0  0  0  0
   -8.5052    6.8649  -10.0325 C   0  0  0  0  0  0  0  0  0  0  0  0
   -7.5003    5.7073   -9.9296 C   0  0  0  0  0  0  0  0  0  0  0  0
   -6.2269    6.3212   -9.3035 C   0  0  0  0  0  0  0  0  0  0  0  0
   -5.7699    7.5998  -10.0375 C   0  0  0  0  0  0  0  0  0  0  0  0
   -6.8285    8.5984  -10.2501 N   0  0  0  0  0  0  0  0  0  0  0  0
   -7.1732    5.1209  -11.3403 C   0  0  0  0  0  0  0  0  0  0  0  0
   -8.4131    4.4360  -11.9443 C   0  0  0  0  0  0  0  0  0  0  0  0
   -8.7069    3.1569  -11.1452 C   0  0  0  0  0  0  0  0  0  0  0  0
   -8.6056    3.4479   -9.6724 C   0  0  0  0  0  0  0  0  0  0  0  0
   -8.1040    4.5683   -9.1290 C   0  0  0  0  0  0  0  0  0  0  0  0
   -8.2154    4.5007   -7.6454 C   0  0  0  0  0  0  0  0  0  0  0  0
   -9.0444    3.3143   -7.3682 N   0  0  0  0  0  0  0  0  0  0  0  0
   -9.0424    2.5054   -8.6082 C   0  0  0  0  0  0  0  0  0  0  0  0
   -6.4649    9.3537  -10.8312 H   0  0  0  0  0  0  0  0  0  0  0  0
   -9.9958    3.5960   -7.1320 H   0  0  0  0  0  0  0  0  0  0  0  0
   -8.3273    4.3255  -13.3831 N   0  0  0  0  0  0  0  0  0  0  0  0
   -7.9482    5.3734  -14.4459 C   0  0  0  0  0  0  0  0  0  0  0  0
   -7.5705    6.4700  -14.3251 O   0  0  0  0  0  0  0  0  0  0  0  0
   -8.5468    3.4354  -13.7419 H   0  0  0  0  0  0  0  0  0  0  0  0
   -8.1324    4.8868  -15.8158 C   0  0  0  0  0  0  0  0  0  0  0  0
   -9.3919    4.5563  -16.3473 C   0  0  0  0  0  0  0  0  0  0  0  0
   -9.5996    4.3107  -17.7335 C   0  0  0  0  0  0  0  0  0  0  0  0
  -10.8511    4.0281  -18.1313 F   0  0  0  0  0  0  0  0  0  0  0  0
   -8.5865    4.3575  -18.7102 C   0  0  0  0  0  0  0  0  0  0  0  0
   -7.3176    4.6697  -18.1968 C   0  0  0  0  0  0  0  0  0  0  0  0
   -6.1326    4.7964  -18.8185 N   0  0  0  0  0  0  0  0  0  0  0  0
   -5.2578    5.1132  -17.8489 N   0  0  0  0  0  0  0  0  0  0  0  0
   -3.8722    5.3090  -18.1978 C   0  0  0  0  0  0  0  0  0  0  0  0
   -5.8075    5.2159  -16.6075 C   0  0  0  0  0  0  0  0  0  0  0  0
   -7.1340    4.9251  -16.7895 C   0  0  0  0  0  0  0  0  0  0  0  0
   -9.7362    8.7552  -12.2870 C   0  0  0  0  0  0  0  0  0  0  0  0
   -9.0350    8.9241  -11.0631 O   0  0  0  0  0  0  0  0  0  0  0  0
 32 33  1  0  0  0
  1 33  1  0  0  0
  1  2  1  0  0  0
  3  2  1  0  0  0
  3  4  1  0  0  0
  4  5  1  0  0  0
  5  6  1  0  0  0
  3  7  1  0  0  0
  7  8  1  0  0  0
  8 17  1  0  0  0
 17 18  1  0  0  0
 18 19  2  0  0  0
 18 21  1  0  0  0
 21 22  2  0  0  0
 22 23  1  0  0  0
 23 24  1  0  0  0
 23 25  2  0  0  0
 25 26  1  0  0  0
 26 27  2  0  0  0
 27 28  1  0  0  0
 28 29  1  0  0  0
 28 30  1  0  0  0
 30 31  2  0  0  0
  8  9  1  0  0  0
  9 10  1  0  0  0
 10 11  2  0  0  0
 11 12  1  0  0  0
 12 13  1  0  0  0
 13 14  1  0  0  0
  6  1  1  0  0  0
 31 21  1  0  0  0
 14 10  1  0  0  0
 11  3  1  0  0  0
 31 26  1  0  0  0
  6 15  1  0  0  0
 17 20  1  0  0  0
 13 16  1  0  0  0
M  END
> <minimizedAffinity>
-8.35422

> <minimizedRMSD>
0.56808

$$$$
P18101


 25 28  0  0  0  0  0  0  0  0999 V2000
   -8.2093    4.0218  -13.4640 N   0  0  0  0  0  0  0  0  0  0  0  0
   -7.8272    5.0748  -14.5310 C   0  0  0  0  0  0  0  0  0  0  0  0
   -7.5252    6.1974  -14.4129 O   0  0  0  0  0  0  0  0  0  0  0  0
   -8.5012    3.1544  -13.8270 H   0  0  0  0  0  0  0  0  0  0  0  0
   -7.9450    6.7570   -9.3544 C   0  0  0  0  0  0  0  0  0  0  0  0
   -8.0856    5.4377  -10.0275 C   0  0  0  0  0  0  0  0  0  0  0  0
   -8.0690    5.3396  -11.4270 C   0  0  0  0  0  0  0  0  0  0  0  0
   -8.2077    4.1013  -12.0707 C   0  0  0  0  0  0  0  0  0  0  0  0
   -8.3572    2.9367  -11.3143 C   0  0  0  0  0  0  0  0  0  0  0  0
   -8.4006    3.0447   -9.9323 C   0  0  0  0  0  0  0  0  0  0  0  0
   -8.2865    4.2772   -9.2990 C   0  0  0  0  0  0  0  0  0  0  0  0
   -8.4033    4.0757   -7.8223 C   0  0  0  0  0  0  0  0  0  0  0  0
   -8.9307    2.7052   -7.6517 N   0  0  0  0  0  0  0  0  0  0  0  0
   -8.5429    1.9840   -8.8905 C   0  0  0  0  0  0  0  0  0  0  0  0
   -9.9455    2.7222   -7.5500 H   0  0  0  0  0  0  0  0  0  0  0  0
   -7.9022    4.5181  -15.8946 C   0  0  0  0  0  0  0  0  0  0  0  0
   -8.9934    3.7653  -16.3776 C   0  0  0  0  0  0  0  0  0  0  0  0
   -9.1324    3.3651  -17.7435 C   0  0  0  0  0  0  0  0  0  0  0  0
   -8.1846    3.6731  -18.7458 C   0  0  0  0  0  0  0  0  0  0  0  0
   -7.0683    4.3902  -18.2801 C   0  0  0  0  0  0  0  0  0  0  0  0
   -5.9777    4.8196  -18.9401 N   0  0  0  0  0  0  0  0  0  0  0  0
   -5.2068    5.3896  -17.9938 N   0  0  0  0  0  0  0  0  0  0  0  0
   -3.8895    5.8545  -18.3500 C   0  0  0  0  0  0  0  0  0  0  0  0
   -5.7731    5.4385  -16.7575 C   0  0  0  0  0  0  0  0  0  0  0  0
   -6.9690    4.7860  -16.8958 C   0  0  0  0  0  0  0  0  0  0  0  0
  5  6  1  0  0  0
  6  7  2  0  0  0
  7  8  1  0  0  0
  8  1  1  0  0  0
  1  2  1  0  0  0
  2  3  2  0  0  0
  2 16  1  0  0  0
 16 17  2  0  0  0
 17 18  1  0  0  0
 18 19  2  0  0  0
 19 20  1  0  0  0
 20 21  2  0  0  0
 21 22  1  0  0  0
 22 23  1  0  0  0
 22 24  1  0  0  0
 24 25  2  0  0  0
  8  9  2  0  0  0
  9 10  1  0  0  0
 10 11  2  0  0  0
 11 12  1  0  0  0
 12 13  1  0  0  0
 13 14  1  0  0  0
 11  6  1  0  0  0
 25 16  1  0  0  0
 14 10  1  0  0  0
 25 20  1  0  0  0
  1  4  1  0  0  0
 13 15  1  0  0  0
M  END
> <minimizedAffinity>
-8.95052

> <minimizedRMSD>
0.85270

$$$$
P18104


 29 32  0  0  0  0  0  0  0  0999 V2000
   -4.6028    5.2482  -17.4196 N   0  0  0  0  0  0  0  0  0  0  0  0
   -5.1500    5.3251  -16.1438 C   0  0  0  0  0  0  0  0  0  0  0  0
   -6.4700    4.9894  -16.2633 C   0  0  0  0  0  0  0  0  0  0  0  0
   -7.4211    4.8415  -15.2525 C   0  0  0  0  0  0  0  0  0  0  0  0
   -8.6795    4.4594  -15.7616 C   0  0  0  0  0  0  0  0  0  0  0  0
   -8.9149    4.2457  -17.1468 C   0  0  0  0  0  0  0  0  0  0  0  0
  -10.5277    3.9865  -17.6517 Cl  0  0  0  0  0  0  0  0  0  0  0  0
   -7.9397    4.3545  -18.1457 C   0  0  0  0  0  0  0  0  0  0  0  0
   -6.6941    4.7625  -17.6626 C   0  0  0  0  0  0  0  0  0  0  0  0
   -5.5776    5.0287  -18.3453 N   0  0  0  0  0  0  0  0  0  0  0  0
   -3.1944    4.5397  -20.0186 N   0  0  0  0  0  0  0  0  0  0  0  0
   -2.6429    5.0802  -18.8711 C   0  0  0  0  0  0  0  0  0  0  0  0
   -3.2427    5.3916  -17.7100 C   0  0  0  0  0  0  0  0  0  0  0  0
   -2.6253    4.3630  -20.8022 H   0  0  0  0  0  0  0  0  0  0  0  0
   -4.1561    4.3317  -20.0517 H   0  0  0  0  0  0  0  0  0  0  0  0
   -7.2515    5.1933  -13.8330 C   0  0  0  0  0  0  0  0  0  0  0  0
   -6.8155    6.2412  -13.5572 O   0  0  0  0  0  0  0  0  0  0  0  0
   -7.8097    4.0686  -12.9271 N   0  0  0  0  0  0  0  0  0  0  0  0
   -8.0500    3.2394  -13.4003 H   0  0  0  0  0  0  0  0  0  0  0  0
   -8.0270    4.0389  -11.5520 C   0  0  0  0  0  0  0  0  0  0  0  0
   -7.7923    5.1645  -10.7475 C   0  0  0  0  0  0  0  0  0  0  0  0
   -8.0716    5.1337   -9.3761 C   0  0  0  0  0  0  0  0  0  0  0  0
   -8.5756    3.9651   -8.8355 C   0  0  0  0  0  0  0  0  0  0  0  0
   -8.7895    2.8429   -9.6283 C   0  0  0  0  0  0  0  0  0  0  0  0
   -8.5299    2.8621  -10.9879 C   0  0  0  0  0  0  0  0  0  0  0  0
   -9.2660    1.7210   -8.7667 C   0  0  0  0  0  0  0  0  0  0  0  0
   -9.6866    2.3615   -7.4941 N   0  0  0  0  0  0  0  0  0  0  0  0
   -8.9446    3.6397   -7.4264 C   0  0  0  0  0  0  0  0  0  0  0  0
   -9.4459    1.7678   -6.7004 H   0  0  0  0  0  0  0  0  0  0  0  0
 11 12  1  0  0  0
 12 13  2  0  0  0
 13  1  1  0  0  0
  1  2  1  0  0  0
  2  3  2  0  0  0
  3  4  1  0  0  0
  4 16  1  0  0  0
 16 17  2  0  0  0
 16 18  1  0  0  0
 18 20  1  0  0  0
 20 21  2  0  0  0
 21 22  1  0  0  0
 22 23  2  0  0  0
 23 24  1  0  0  0
 24 25  2  0  0  0
 24 26  1  0  0  0
 26 27  1  0  0  0
 27 28  1  0  0  0
  4  5  2  0  0  0
  5  6  1  0  0  0
  6  7  1  0  0  0
  6  8  2  0  0  0
  8  9  1  0  0  0
  9 10  2  0  0  0
 10  1  1  0  0  0
  9  3  1  0  0  0
 25 20  1  0  0  0
 28 23  1  0  0  0
 11 14  1  0  0  0
 11 15  1  0  0  0
 18 19  1  0  0  0
 27 29  1  0  0  0
M  END
> <minimizedAffinity>
-8.82339

> <minimizedRMSD>
0.25049

$$$$
P18105


 25 28  0  0  0  0  0  0  0  0999 V2000
   -8.7241    5.0192  -14.2245 C   0  0  0  0  0  0  0  0  0  0  0  0
   -9.4979    5.8784  -14.0632 O   0  0  0  0  0  0  0  0  0  0  0  0
   -8.0492    4.0744  -13.2045 N   0  0  0  0  0  0  0  0  0  0  0  0
   -7.4835    3.3741  -13.6030 H   0  0  0  0  0  0  0  0  0  0  0  0
   -3.7744    6.1841  -16.5802 C   0  0  0  0  0  0  0  0  0  0  0  0
   -5.1027    5.6364  -16.6406 N   0  0  0  0  0  0  0  0  0  0  0  0
   -6.0360    5.5777  -15.6304 C   0  0  0  0  0  0  0  0  0  0  0  0
   -7.1355    4.9518  -16.2218 C   0  0  0  0  0  0  0  0  0  0  0  0
   -8.3420    4.6412  -15.5950 C   0  0  0  0  0  0  0  0  0  0  0  0
   -9.2492    4.0048  -16.4801 C   0  0  0  0  0  0  0  0  0  0  0  0
   -8.9821    3.7202  -17.8610 C   0  0  0  0  0  0  0  0  0  0  0  0
   -7.7676    4.0081  -18.5023 C   0  0  0  0  0  0  0  0  0  0  0  0
   -6.8753    4.6220  -17.6368 C   0  0  0  0  0  0  0  0  0  0  0  0
   -5.6239    5.0406  -17.8730 N   0  0  0  0  0  0  0  0  0  0  0  0
   -4.9076    4.9910  -18.8899 O   0  0  0  0  0  0  0  0  0  0  0  0
   -8.1111    4.0523  -11.8152 C   0  0  0  0  0  0  0  0  0  0  0  0
   -7.7544    5.1737  -11.0500 C   0  0  0  0  0  0  0  0  0  0  0  0
   -7.9208    5.1712   -9.6614 C   0  0  0  0  0  0  0  0  0  0  0  0
   -8.4481    4.0388   -9.0695 C   0  0  0  0  0  0  0  0  0  0  0  0
   -8.7671    2.9151   -9.8254 C   0  0  0  0  0  0  0  0  0  0  0  0
   -8.6018    2.8995  -11.1975 C   0  0  0  0  0  0  0  0  0  0  0  0
   -9.2641    1.8418   -8.9166 C   0  0  0  0  0  0  0  0  0  0  0  0
   -9.6095    2.5430   -7.6533 N   0  0  0  0  0  0  0  0  0  0  0  0
   -8.7748    3.7651   -7.6393 C   0  0  0  0  0  0  0  0  0  0  0  0
   -9.3939    1.9546   -6.8485 H   0  0  0  0  0  0  0  0  0  0  0  0
  5  6  1  0  0  0
  6  7  1  0  0  0
  7  8  2  0  0  0
  8  9  1  0  0  0
  9  1  1  0  0  0
  1  2  2  0  0  0
  1  3  1  0  0  0
  3 16  1  0  0  0
 16 17  2  0  0  0
 17 18  1  0  0  0
 18 19  2  0  0  0
 19 20  1  0  0  0
 20 21  2  0  0  0
 20 22  1  0  0  0
 22 23  1  0  0  0
 23 24  1  0  0  0
  9 10  2  0  0  0
 10 11  1  0  0  0
 11 12  2  0  0  0
 12 13  1  0  0  0
 13 14  2  0  0  0
 14 15  1  0  0  0
 14  6  1  0  0  0
 13  8  1  0  0  0
 21 16  1  0  0  0
 24 19  1  0  0  0
  3  4  1  0  0  0
 23 25  1  0  0  0
M  CHG 1  14   1
M  CHG 1  15  -1
M  END
> <minimizedAffinity>
-9.19070

> <minimizedRMSD>
0.81685

$$$$
P18106


 28 31  0  0  0  0  0  0  0  0999 V2000
   -5.5685    5.1395  -17.7654 C   0  0  0  0  0  0  0  0  0  0  0  0
   -6.8320    4.6522  -17.5070 C   0  0  0  0  0  0  0  0  0  0  0  0
   -7.7136    4.0822  -18.4218 C   0  0  0  0  0  0  0  0  0  0  0  0
   -8.9434    3.7511  -17.8130 C   0  0  0  0  0  0  0  0  0  0  0  0
   -9.2436    3.9881  -16.4308 C   0  0  0  0  0  0  0  0  0  0  0  0
   -8.3381    4.5823  -15.5203 C   0  0  0  0  0  0  0  0  0  0  0  0
   -7.1240    4.8860  -16.1303 C   0  0  0  0  0  0  0  0  0  0  0  0
   -6.0071    5.4327  -15.5535 C   0  0  0  0  0  0  0  0  0  0  0  0
   -5.0548    5.5317  -16.5406 N   0  0  0  0  0  0  0  0  0  0  0  0
   -3.7062    5.9976  -16.3303 C   0  0  0  0  0  0  0  0  0  0  0  0
   -8.7202    4.9712  -14.1547 C   0  0  0  0  0  0  0  0  0  0  0  0
   -9.4709    5.8542  -14.0119 O   0  0  0  0  0  0  0  0  0  0  0  0
   -8.0890    4.0155  -13.1173 N   0  0  0  0  0  0  0  0  0  0  0  0
   -7.5382    3.2957  -13.5017 H   0  0  0  0  0  0  0  0  0  0  0  0
   -8.1724    4.0066  -11.7285 C   0  0  0  0  0  0  0  0  0  0  0  0
   -7.8299    5.1386  -10.9706 C   0  0  0  0  0  0  0  0  0  0  0  0
   -7.9932    5.1464   -9.5815 C   0  0  0  0  0  0  0  0  0  0  0  0
   -8.5000    4.0109   -8.9791 C   0  0  0  0  0  0  0  0  0  0  0  0
   -8.8052    2.8773   -9.7259 C   0  0  0  0  0  0  0  0  0  0  0  0
   -8.6463    2.8536  -11.0997 C   0  0  0  0  0  0  0  0  0  0  0  0
   -9.2741    1.8014   -8.8052 C   0  0  0  0  0  0  0  0  0  0  0  0
   -9.6218    2.5038   -7.5431 N   0  0  0  0  0  0  0  0  0  0  0  0
   -8.8106    3.7416   -7.5446 C   0  0  0  0  0  0  0  0  0  0  0  0
   -9.3878    1.9249   -6.7366 H   0  0  0  0  0  0  0  0  0  0  0  0
   -4.8023    5.3131  -19.0322 C   0  0  0  0  0  0  0  0  0  0  0  0
   -4.5722    7.6557  -19.5927 C   0  0  0  0  0  0  0  0  0  0  0  0
   -5.3860    6.4607  -19.7335 N   0  0  0  0  0  0  0  0  0  0  0  0
   -5.4690    6.2337  -20.7245 H   0  0  0  0  0  0  0  0  0  0  0  0
 26 27  1  0  0  0
 27 25  1  0  0  0
 25  1  1  0  0  0
  1  2  2  0  0  0
  2  3  1  0  0  0
  3  4  2  0  0  0
  4  5  1  0  0  0
  5  6  2  0  0  0
  6 11  1  0  0  0
 11 12  2  0  0  0
 11 13  1  0  0  0
 13 15  1  0  0  0
 15 16  2  0  0  0
 16 17  1  0  0  0
 17 18  2  0  0  0
 18 19  1  0  0  0
 19 20  2  0  0  0
 19 21  1  0  0  0
 21 22  1  0  0  0
 22 23  1  0  0  0
  6  7  1  0  0  0
  7  8  2  0  0  0
  8  9  1  0  0  0
  9 10  1  0  0  0
  9  1  1  0  0  0
  7  2  1  0  0  0
 20 15  1  0  0  0
 23 18  1  0  0  0
 27 28  1  0  0  0
 13 14  1  0  0  0
 22 24  1  0  0  0
M  END
> <minimizedAffinity>
-9.18522

> <minimizedRMSD>
0.80057

$$$$
P18112


 29 32  0  0  0  0  0  0  0  0999 V2000
   -5.1885    5.4749  -17.8212 C   0  0  0  0  0  0  0  0  0  0  0  0
   -6.3275    5.0134  -17.1693 C   0  0  0  0  0  0  0  0  0  0  0  0
   -7.4831    4.5141  -17.7625 C   0  0  0  0  0  0  0  0  0  0  0  0
   -8.4662    4.2508  -16.7815 C   0  0  0  0  0  0  0  0  0  0  0  0
  -10.0517    3.8945  -17.3112 Cl  0  0  0  0  0  0  0  0  0  0  0  0
   -8.2967    4.3882  -15.3684 C   0  0  0  0  0  0  0  0  0  0  0  0
   -7.1102    4.8725  -14.7923 C   0  0  0  0  0  0  0  0  0  0  0  0
   -6.1648    5.1870  -15.7643 C   0  0  0  0  0  0  0  0  0  0  0  0
   -4.9290    5.7297  -15.5665 C   0  0  0  0  0  0  0  0  0  0  0  0
   -4.3631    5.9482  -16.8068 N   0  0  0  0  0  0  0  0  0  0  0  0
   -3.1190    6.6678  -16.9264 C   0  0  0  0  0  0  0  0  0  0  0  0
   -6.9965    5.1677  -13.3555 C   0  0  0  0  0  0  0  0  0  0  0  0
   -6.3999    6.1116  -13.0139 O   0  0  0  0  0  0  0  0  0  0  0  0
   -7.7800    4.1233  -12.5271 N   0  0  0  0  0  0  0  0  0  0  0  0
   -8.1377    3.3684  -13.0480 H   0  0  0  0  0  0  0  0  0  0  0  0
   -8.0616    4.0769  -11.1660 C   0  0  0  0  0  0  0  0  0  0  0  0
   -7.8734    5.2013  -10.3480 C   0  0  0  0  0  0  0  0  0  0  0  0
   -8.1579    5.1455   -8.9808 C   0  0  0  0  0  0  0  0  0  0  0  0
   -8.6172    3.9520   -8.4559 C   0  0  0  0  0  0  0  0  0  0  0  0
   -8.8075    2.8405   -9.2652 C   0  0  0  0  0  0  0  0  0  0  0  0
   -8.5440    2.8834  -10.6243 C   0  0  0  0  0  0  0  0  0  0  0  0
   -9.3046    1.7030   -8.4433 C   0  0  0  0  0  0  0  0  0  0  0  0
   -9.3188    2.1765   -7.0334 N   0  0  0  0  0  0  0  0  0  0  0  0
   -8.9920    3.6180   -7.0547 C   0  0  0  0  0  0  0  0  0  0  0  0
   -8.6235    1.6683   -6.4869 H   0  0  0  0  0  0  0  0  0  0  0  0
   -4.9371    5.5133  -19.3064 C   0  0  0  0  0  0  0  0  0  0  0  0
   -2.8370    4.2289  -19.5977 C   0  0  0  0  0  0  0  0  0  0  0  0
   -3.5534    5.4726  -19.7868 N   0  0  0  0  0  0  0  0  0  0  0  0
   -3.5672    5.6726  -20.7869 H   0  0  0  0  0  0  0  0  0  0  0  0
 27 28  1  0  0  0
 28 26  1  0  0  0
 26  1  1  0  0  0
  1  2  2  0  0  0
  2  3  1  0  0  0
  3  4  2  0  0  0
  4  5  1  0  0  0
  4  6  1  0  0  0
  6  7  2  0  0  0
  7 12  1  0  0  0
 12 13  2  0  0  0
 12 14  1  0  0  0
 14 16  1  0  0  0
 16 17  2  0  0  0
 17 18  1  0  0  0
 18 19  2  0  0  0
 19 20  1  0  0  0
 20 21  2  0  0  0
 20 22  1  0  0  0
 22 23  1  0  0  0
 23 24  1  0  0  0
  7  8  1  0  0  0
  8  9  2  0  0  0
  9 10  1  0  0  0
 10 11  1  0  0  0
 10  1  1  0  0  0
  8  2  1  0  0  0
 21 16  1  0  0  0
 24 19  1  0  0  0
 28 29  1  0  0  0
 14 15  1  0  0  0
 23 25  1  0  0  0
M  END
> <minimizedAffinity>
-8.59569

> <minimizedRMSD>
0.32767

$$$$
P18113


 33 37  0  0  0  0  0  0  0  0999 V2000
   -5.6205    5.3308  -17.8895 C   0  0  0  0  0  0  0  0  0  0  0  0
   -6.8431    4.7265  -17.6273 C   0  0  0  0  0  0  0  0  0  0  0  0
   -7.6731    4.0673  -18.5331 C   0  0  0  0  0  0  0  0  0  0  0  0
   -8.8985    3.6840  -17.9342 C   0  0  0  0  0  0  0  0  0  0  0  0
   -9.2370    3.9231  -16.5597 C   0  0  0  0  0  0  0  0  0  0  0  0
   -8.3728    4.5710  -15.6493 C   0  0  0  0  0  0  0  0  0  0  0  0
   -7.1797    4.9531  -16.2624 C   0  0  0  0  0  0  0  0  0  0  0  0
   -6.1456    5.6402  -15.6938 C   0  0  0  0  0  0  0  0  0  0  0  0
   -5.2475    5.9404  -16.6939 N   0  0  0  0  0  0  0  0  0  0  0  0
   -4.1616    6.8722  -16.4644 C   0  0  0  0  0  0  0  0  0  0  0  0
   -8.7622    4.9576  -14.2795 C   0  0  0  0  0  0  0  0  0  0  0  0
   -9.5190    5.8369  -14.1433 O   0  0  0  0  0  0  0  0  0  0  0  0
   -8.0952    4.0381  -13.2307 N   0  0  0  0  0  0  0  0  0  0  0  0
   -7.5461    3.3132  -13.6079 H   0  0  0  0  0  0  0  0  0  0  0  0
   -8.1446    4.0684  -11.8383 C   0  0  0  0  0  0  0  0  0  0  0  0
   -7.8258    5.2376  -11.1266 C   0  0  0  0  0  0  0  0  0  0  0  0
   -7.9224    5.2791   -9.7317 C   0  0  0  0  0  0  0  0  0  0  0  0
   -8.3501    4.1418   -9.0745 C   0  0  0  0  0  0  0  0  0  0  0  0
   -8.6433    2.9754   -9.7745 C   0  0  0  0  0  0  0  0  0  0  0  0
   -8.5374    2.9154  -11.1541 C   0  0  0  0  0  0  0  0  0  0  0  0
   -9.0434    1.9151   -8.8025 C   0  0  0  0  0  0  0  0  0  0  0  0
   -9.3508    2.6442   -7.5441 N   0  0  0  0  0  0  0  0  0  0  0  0
   -8.5799    3.9043   -7.6194 C   0  0  0  0  0  0  0  0  0  0  0  0
   -9.0600    2.0962   -6.7345 H   0  0  0  0  0  0  0  0  0  0  0  0
   -4.8638    5.4332  -19.1910 C   0  0  0  0  0  0  0  0  0  0  0  0
   -2.6895    4.3986  -18.9730 C   0  0  0  0  0  0  0  0  0  0  0  0
   -3.4109    5.6761  -19.0065 N   0  0  0  0  0  0  0  0  0  0  0  0
   -2.8568    6.6549  -19.9692 C   0  0  0  0  0  0  0  0  0  0  0  0
   -1.9126    6.0009  -21.0084 C   0  0  0  0  0  0  0  0  0  0  0  0
   -0.9848    7.0088  -21.6812 C   0  0  0  0  0  0  0  0  0  0  0  0
   -1.5632    8.3061  -21.6560 O   0  0  0  0  0  0  0  0  0  0  0  0
   -1.6406    8.8298  -20.3295 C   0  0  0  0  0  0  0  0  0  0  0  0
   -2.0610    7.7848  -19.2933 C   0  0  0  0  0  0  0  0  0  0  0  0
 26 27  1  0  0  0
 27 25  1  0  0  0
 25  1  1  0  0  0
  1  2  2  0  0  0
  2  3  1  0  0  0
  3  4  2  0  0  0
  4  5  1  0  0  0
  5  6  2  0  0  0
  6 11  1  0  0  0
 11 12  2  0  0  0
 11 13  1  0  0  0
 13 15  1  0  0  0
 15 16  2  0  0  0
 16 17  1  0  0  0
 17 18  2  0  0  0
 18 19  1  0  0  0
 19 20  2  0  0  0
 19 21  1  0  0  0
 21 22  1  0  0  0
 22 23  1  0  0  0
  6  7  1  0  0  0
  7  8  2  0  0  0
  8  9  1  0  0  0
  9 10  1  0  0  0
 27 28  1  0  0  0
 28 29  1  0  0  0
 29 30  1  0  0  0
 30 31  1  0  0  0
 31 32  1  0  0  0
 32 33  1  0  0  0
  9  1  1  0  0  0
 33 28  1  0  0  0
  7  2  1  0  0  0
 20 15  1  0  0  0
 23 18  1  0  0  0
 13 14  1  0  0  0
 22 24  1  0  0  0
M  END
> <minimizedAffinity>
-9.24642

> <minimizedRMSD>
1.11182

$$$$
P18114


 28 31  0  0  0  0  0  0  0  0999 V2000
   -4.5724    5.4517  -17.7090 N   0  0  0  0  0  0  0  0  0  0  0  0
   -4.9825    5.4572  -16.3999 C   0  0  0  0  0  0  0  0  0  0  0  0
   -6.2484    4.9396  -16.4173 C   0  0  0  0  0  0  0  0  0  0  0  0
   -7.1012    4.6998  -15.3402 C   0  0  0  0  0  0  0  0  0  0  0  0
   -8.3901    4.3346  -15.7731 C   0  0  0  0  0  0  0  0  0  0  0  0
   -8.7299    4.2115  -17.1482 C   0  0  0  0  0  0  0  0  0  0  0  0
  -10.5449    4.1783  -17.5974 Br  0  0  0  0  0  0  0  0  0  0  0  0
   -7.8358    4.3223  -18.2158 C   0  0  0  0  0  0  0  0  0  0  0  0
   -6.5740    4.7421  -17.8084 C   0  0  0  0  0  0  0  0  0  0  0  0
   -5.5267    5.0658  -18.5687 N   0  0  0  0  0  0  0  0  0  0  0  0
   -6.8308    4.9466  -13.9125 C   0  0  0  0  0  0  0  0  0  0  0  0
   -6.0774    5.7847  -13.6031 O   0  0  0  0  0  0  0  0  0  0  0  0
   -7.7394    4.0401  -13.0411 N   0  0  0  0  0  0  0  0  0  0  0  0
   -8.2337    3.3503  -13.5403 H   0  0  0  0  0  0  0  0  0  0  0  0
   -7.9699    4.0435  -11.6664 C   0  0  0  0  0  0  0  0  0  0  0  0
   -7.7581    5.1878  -10.8837 C   0  0  0  0  0  0  0  0  0  0  0  0
   -8.0563    5.1827   -9.5149 C   0  0  0  0  0  0  0  0  0  0  0  0
   -8.5593    4.0222   -8.9548 C   0  0  0  0  0  0  0  0  0  0  0  0
   -8.7524    2.8809   -9.7246 C   0  0  0  0  0  0  0  0  0  0  0  0
   -8.4691    2.8737  -11.0801 C   0  0  0  0  0  0  0  0  0  0  0  0
   -9.2449    1.7771   -8.8472 C   0  0  0  0  0  0  0  0  0  0  0  0
   -9.6846    2.4440   -7.5944 N   0  0  0  0  0  0  0  0  0  0  0  0
   -8.9496    3.7268   -7.5447 C   0  0  0  0  0  0  0  0  0  0  0  0
   -9.4517    1.8691   -6.7847 H   0  0  0  0  0  0  0  0  0  0  0  0
   -3.3305    5.9550  -18.2871 C   0  0  0  0  0  0  0  0  0  0  0  0
   -0.9842    5.4734  -17.9414 C   0  0  0  0  0  0  0  0  0  0  0  0
   -2.2909    4.9281  -18.2705 N   0  0  0  0  0  0  0  0  0  0  0  0
   -2.5369    4.2231  -17.5757 H   0  0  0  0  0  0  0  0  0  0  0  0
 26 27  1  0  0  0
 27 25  1  0  0  0
 25  1  1  0  0  0
  1  2  1  0  0  0
  2  3  2  0  0  0
  3  4  1  0  0  0
  4 11  1  0  0  0
 11 12  2  0  0  0
 11 13  1  0  0  0
 13 15  1  0  0  0
 15 16  2  0  0  0
 16 17  1  0  0  0
 17 18  2  0  0  0
 18 19  1  0  0  0
 19 20  2  0  0  0
 19 21  1  0  0  0
 21 22  1  0  0  0
 22 23  1  0  0  0
  4  5  2  0  0  0
  5  6  1  0  0  0
  6  7  1  0  0  0
  6  8  2  0  0  0
  8  9  1  0  0  0
  9 10  2  0  0  0
 10  1  1  0  0  0
  9  3  1  0  0  0
 20 15  1  0  0  0
 23 18  1  0  0  0
 27 28  1  0  0  0
 13 14  1  0  0  0
 22 24  1  0  0  0
M  END
> <minimizedAffinity>
-7.66131

> <minimizedRMSD>
0.49588

$$$$
P18115


 33 36  0  0  0  0  0  0  0  0999 V2000
   -4.9047    5.3762  -16.9065 N   0  0  0  0  0  0  0  0  0  0  0  0
   -5.2758    5.4063  -15.5928 C   0  0  0  0  0  0  0  0  0  0  0  0
   -6.5333    4.8842  -15.5714 C   0  0  0  0  0  0  0  0  0  0  0  0
   -7.3200    4.6079  -14.4567 C   0  0  0  0  0  0  0  0  0  0  0  0
   -8.6039    4.1334  -14.7974 C   0  0  0  0  0  0  0  0  0  0  0  0
   -9.0413    3.9866  -16.1196 C   0  0  0  0  0  0  0  0  0  0  0  0
   -8.2440    4.3345  -17.2222 C   0  0  0  0  0  0  0  0  0  0  0  0
   -6.9325    4.7393  -16.9462 C   0  0  0  0  0  0  0  0  0  0  0  0
   -5.9300    5.1344  -17.7533 N   0  0  0  0  0  0  0  0  0  0  0  0
   -7.0195    4.9006  -13.0500 C   0  0  0  0  0  0  0  0  0  0  0  0
   -6.3155    5.7851  -12.7614 O   0  0  0  0  0  0  0  0  0  0  0  0
   -7.8465    3.9476  -12.1594 N   0  0  0  0  0  0  0  0  0  0  0  0
   -8.3062    3.2250  -12.6449 H   0  0  0  0  0  0  0  0  0  0  0  0
   -8.0460    3.9441  -10.7944 C   0  0  0  0  0  0  0  0  0  0  0  0
   -7.7952    5.0792  -10.0151 C   0  0  0  0  0  0  0  0  0  0  0  0
   -8.1267    5.0837   -8.6602 C   0  0  0  0  0  0  0  0  0  0  0  0
   -8.6929    3.9419   -8.1217 C   0  0  0  0  0  0  0  0  0  0  0  0
   -8.9317    2.8198   -8.9020 C   0  0  0  0  0  0  0  0  0  0  0  0
   -8.6209    2.7993  -10.2440 C   0  0  0  0  0  0  0  0  0  0  0  0
   -9.4847    1.7274   -8.0611 C   0  0  0  0  0  0  0  0  0  0  0  0
   -9.7361    2.3211   -6.7237 N   0  0  0  0  0  0  0  0  0  0  0  0
   -9.1077    3.6593   -6.7201 C   0  0  0  0  0  0  0  0  0  0  0  0
   -9.3211    1.7372   -5.9976 H   0  0  0  0  0  0  0  0  0  0  0  0
   -8.8485    4.4980  -18.4318 N   0  0  0  0  0  0  0  0  0  0  0  0
  -10.3265    4.5946  -18.7961 C   0  0  0  0  0  0  0  0  0  0  0  0
  -11.2684    4.6275  -18.1188 O   0  0  0  0  0  0  0  0  0  0  0  0
   -8.2308    4.5646  -19.1954 H   0  0  0  0  0  0  0  0  0  0  0  0
   -3.5751    5.5370  -17.4618 C   0  0  0  0  0  0  0  0  0  0  0  0
   -2.6469    6.4753  -16.6788 C   0  0  0  0  0  0  0  0  0  0  0  0
   -1.6015    5.7869  -15.9122 N   0  0  0  0  0  0  0  0  0  0  0  0
   -1.7239    6.0105  -14.9246 H   0  0  0  0  0  0  0  0  0  0  0  0
    0.2072    5.5042  -17.6023 C   0  0  0  0  0  0  0  0  0  0  0  0
   -0.2463    6.1679  -16.3101 C   0  0  0  0  0  0  0  0  0  0  0  0
 32 33  1  0  0  0
 33 30  1  0  0  0
 30 29  1  0  0  0
 29 28  1  0  0  0
 28  1  1  0  0  0
  1  2  1  0  0  0
  2  3  2  0  0  0
  3  4  1  0  0  0
  4 10  1  0  0  0
 10 11  2  0  0  0
 10 12  1  0  0  0
 12 14  1  0  0  0
 14 15  2  0  0  0
 15 16  1  0  0  0
 16 17  2  0  0  0
 17 18  1  0  0  0
 18 19  2  0  0  0
 18 20  1  0  0  0
 20 21  1  0  0  0
 21 22  1  0  0  0
  4  5  2  0  0  0
  5  6  1  0  0  0
  6  7  2  0  0  0
  7 24  1  0  0  0
 24 25  1  0  0  0
 25 26  2  0  0  0
  7  8  1  0  0  0
  8  9  2  0  0  0
  9  1  1  0  0  0
  8  3  1  0  0  0
 19 14  1  0  0  0
 22 17  1  0  0  0
 30 31  1  0  0  0
 12 13  1  0  0  0
 21 23  1  0  0  0
 24 27  1  0  0  0
M  END
> <minimizedAffinity>
-7.11089

> <minimizedRMSD>
0.87511

$$$$
P18123


 29 32  0  0  0  0  0  0  0  0999 V2000
   -5.2874    5.2299  -17.7800 C   0  0  0  0  0  0  0  0  0  0  0  0
   -6.4999    4.8476  -17.2564 C   0  0  0  0  0  0  0  0  0  0  0  0
   -7.6270    4.4521  -17.9628 C   0  0  0  0  0  0  0  0  0  0  0  0
   -8.7401    4.3443  -17.1100 C   0  0  0  0  0  0  0  0  0  0  0  0
  -10.2575    4.0051  -17.8363 Cl  0  0  0  0  0  0  0  0  0  0  0  0
   -8.7220    4.6205  -15.7077 C   0  0  0  0  0  0  0  0  0  0  0  0
   -7.5534    5.0327  -15.0249 C   0  0  0  0  0  0  0  0  0  0  0  0
   -6.4532    5.1027  -15.8643 C   0  0  0  0  0  0  0  0  0  0  0  0
   -5.1599    5.4127  -15.5328 C   0  0  0  0  0  0  0  0  0  0  0  0
   -4.4357    5.3738  -16.7006 N   0  0  0  0  0  0  0  0  0  0  0  0
   -2.9987    5.4991  -16.7708 C   0  0  0  0  0  0  0  0  0  0  0  0
   -7.5642    5.5008  -13.6400 C   0  0  0  0  0  0  0  0  0  0  0  0
   -7.5599    6.6418  -13.4071 O   0  0  0  0  0  0  0  0  0  0  0  0
   -7.6642    4.2932  -12.6986 N   0  0  0  0  0  0  0  0  0  0  0  0
   -7.5682    3.4181  -13.1394 H   0  0  0  0  0  0  0  0  0  0  0  0
   -7.8666    4.2336  -11.3355 C   0  0  0  0  0  0  0  0  0  0  0  0
   -7.5438    5.3170  -10.5006 C   0  0  0  0  0  0  0  0  0  0  0  0
   -7.8110    5.2644   -9.1335 C   0  0  0  0  0  0  0  0  0  0  0  0
   -8.4070    4.1218   -8.6455 C   0  0  0  0  0  0  0  0  0  0  0  0
   -8.7139    3.0486   -9.4843 C   0  0  0  0  0  0  0  0  0  0  0  0
   -8.4460    3.0772  -10.8306 C   0  0  0  0  0  0  0  0  0  0  0  0
   -9.3470    1.9650   -8.6882 C   0  0  0  0  0  0  0  0  0  0  0  0
   -9.7899    2.6677   -7.4669 N   0  0  0  0  0  0  0  0  0  0  0  0
   -9.8463    1.7625   -6.3507 C   0  0  0  0  0  0  0  0  0  0  0  0
   -8.8442    3.7802   -7.2594 C   0  0  0  0  0  0  0  0  0  0  0  0
   -4.8920    5.5243  -19.1741 C   0  0  0  0  0  0  0  0  0  0  0  0
   -5.3621    7.9233  -19.0606 C   0  0  0  0  0  0  0  0  0  0  0  0
   -5.6650    6.6592  -19.7032 N   0  0  0  0  0  0  0  0  0  0  0  0
   -5.4644    6.7485  -20.6993 H   0  0  0  0  0  0  0  0  0  0  0  0
 27 28  1  0  0  0
 28 26  1  0  0  0
 26  1  1  0  0  0
  1  2  2  0  0  0
  2  3  1  0  0  0
  3  4  2  0  0  0
  4  5  1  0  0  0
  4  6  1  0  0  0
  6  7  2  0  0  0
  7 12  1  0  0  0
 12 13  2  0  0  0
 12 14  1  0  0  0
 14 16  1  0  0  0
 16 17  2  0  0  0
 17 18  1  0  0  0
 18 19  2  0  0  0
 19 20  1  0  0  0
 20 21  2  0  0  0
 20 22  1  0  0  0
 22 23  1  0  0  0
 23 24  1  0  0  0
 23 25  1  0  0  0
  7  8  1  0  0  0
  8  9  2  0  0  0
  9 10  1  0  0  0
 10 11  1  0  0  0
 10  1  1  0  0  0
  8  2  1  0  0  0
 21 16  1  0  0  0
 25 19  1  0  0  0
 28 29  1  0  0  0
 14 15  1  0  0  0
M  END
> <minimizedAffinity>
-8.40760

> <minimizedRMSD>
0.37702

$$$$
P18124


 30 33  0  0  0  0  0  0  0  0999 V2000
   -5.3011    5.1022  -17.6987 C   0  0  0  0  0  0  0  0  0  0  0  0
   -6.5332    4.8125  -17.1567 C   0  0  0  0  0  0  0  0  0  0  0  0
   -7.6573    4.4101  -17.8576 C   0  0  0  0  0  0  0  0  0  0  0  0
   -8.7708    4.3353  -17.0036 C   0  0  0  0  0  0  0  0  0  0  0  0
  -10.2912    4.1129  -17.7592 Cl  0  0  0  0  0  0  0  0  0  0  0  0
   -8.7514    4.5803  -15.5932 C   0  0  0  0  0  0  0  0  0  0  0  0
   -7.5839    4.9737  -14.9007 C   0  0  0  0  0  0  0  0  0  0  0  0
   -6.4894    5.0797  -15.7576 C   0  0  0  0  0  0  0  0  0  0  0  0
   -5.2022    5.4366  -15.4514 C   0  0  0  0  0  0  0  0  0  0  0  0
   -4.4779    5.3859  -16.6226 N   0  0  0  0  0  0  0  0  0  0  0  0
   -3.0526    5.5974  -16.7114 C   0  0  0  0  0  0  0  0  0  0  0  0
   -7.6135    5.4000  -13.4937 C   0  0  0  0  0  0  0  0  0  0  0  0
   -7.5513    6.5389  -13.2452 O   0  0  0  0  0  0  0  0  0  0  0  0
   -7.8082    4.1812  -12.5641 N   0  0  0  0  0  0  0  0  0  0  0  0
   -7.7496    3.3070  -13.0131 H   0  0  0  0  0  0  0  0  0  0  0  0
   -8.0528    4.1181  -11.1959 C   0  0  0  0  0  0  0  0  0  0  0  0
   -7.7978    5.2170  -10.3620 C   0  0  0  0  0  0  0  0  0  0  0  0
   -8.0794    5.1394   -9.0001 C   0  0  0  0  0  0  0  0  0  0  0  0
   -7.8440    6.1909   -8.2041 F   0  0  0  0  0  0  0  0  0  0  0  0
   -8.6078    3.9780   -8.4854 C   0  0  0  0  0  0  0  0  0  0  0  0
   -8.8448    2.8841   -9.3095 C   0  0  0  0  0  0  0  0  0  0  0  0
   -8.5784    2.9345  -10.6673 C   0  0  0  0  0  0  0  0  0  0  0  0
   -9.3481    1.7547   -8.4758 C   0  0  0  0  0  0  0  0  0  0  0  0
   -9.7636    2.3777   -7.1926 N   0  0  0  0  0  0  0  0  0  0  0  0
   -8.9873    3.6351   -7.0892 C   0  0  0  0  0  0  0  0  0  0  0  0
   -9.5464    1.7601   -6.4104 H   0  0  0  0  0  0  0  0  0  0  0  0
   -4.8312    5.1588  -19.1119 C   0  0  0  0  0  0  0  0  0  0  0  0
   -4.5975    7.0555  -20.5732 C   0  0  0  0  0  0  0  0  0  0  0  0
   -5.5245    6.2656  -19.7774 N   0  0  0  0  0  0  0  0  0  0  0  0
   -6.2494    5.8871  -20.3871 H   0  0  0  0  0  0  0  0  0  0  0  0
 28 29  1  0  0  0
 29 27  1  0  0  0
 27  1  1  0  0  0
  1  2  2  0  0  0
  2  3  1  0  0  0
  3  4  2  0  0  0
  4  5  1  0  0  0
  4  6  1  0  0  0
  6  7  2  0  0  0
  7 12  1  0  0  0
 12 13  2  0  0  0
 12 14  1  0  0  0
 14 16  1  0  0  0
 16 17  2  0  0  0
 17 18  1  0  0  0
 18 19  1  0  0  0
 18 20  2  0  0  0
 20 21  1  0  0  0
 21 22  2  0  0  0
 21 23  1  0  0  0
 23 24  1  0  0  0
 24 25  1  0  0  0
  7  8  1  0  0  0
  8  9  2  0  0  0
  9 10  1  0  0  0
 10 11  1  0  0  0
 10  1  1  0  0  0
  8  2  1  0  0  0
 22 16  1  0  0  0
 25 20  1  0  0  0
 29 30  1  0  0  0
 14 15  1  0  0  0
 24 26  1  0  0  0
M  END
> <minimizedAffinity>
-8.77316

> <minimizedRMSD>
0.38980

$$$$
P18127


 30 34  0  0  0  0  0  0  0  0999 V2000
   -7.4090    4.7397  -15.2481 C   0  0  0  0  0  0  0  0  0  0  0  0
   -8.6867    4.3846  -15.7257 C   0  0  0  0  0  0  0  0  0  0  0  0
   -8.9711    4.2046  -17.1086 C   0  0  0  0  0  0  0  0  0  0  0  0
  -10.6091    4.1223  -17.5874 Cl  0  0  0  0  0  0  0  0  0  0  0  0
   -8.0253    4.2618  -18.1366 C   0  0  0  0  0  0  0  0  0  0  0  0
   -6.7737    4.6779  -17.6907 C   0  0  0  0  0  0  0  0  0  0  0  0
   -5.6885    4.9757  -18.4128 N   0  0  0  0  0  0  0  0  0  0  0  0
   -4.8255    5.4915  -17.5325 N   0  0  0  0  0  0  0  0  0  0  0  0
   -5.2201    5.3981  -16.2297 C   0  0  0  0  0  0  0  0  0  0  0  0
   -6.5008    4.9149  -16.2920 C   0  0  0  0  0  0  0  0  0  0  0  0
   -6.6445    6.0734  -13.5590 O   0  0  0  0  0  0  0  0  0  0  0  0
   -7.1898    5.0768  -13.8307 C   0  0  0  0  0  0  0  0  0  0  0  0
   -7.8536    4.0150  -12.9194 N   0  0  0  0  0  0  0  0  0  0  0  0
   -8.1835    3.2159  -13.3904 H   0  0  0  0  0  0  0  0  0  0  0  0
   -8.0598    4.0068  -11.5421 C   0  0  0  0  0  0  0  0  0  0  0  0
   -7.8237    5.1428  -10.7535 C   0  0  0  0  0  0  0  0  0  0  0  0
   -8.0910    5.1261   -9.3791 C   0  0  0  0  0  0  0  0  0  0  0  0
   -8.5868    3.9620   -8.8205 C   0  0  0  0  0  0  0  0  0  0  0  0
   -8.8014    2.8293   -9.5976 C   0  0  0  0  0  0  0  0  0  0  0  0
   -8.5500    2.8335  -10.9584 C   0  0  0  0  0  0  0  0  0  0  0  0
   -9.2747    1.7174   -8.7209 C   0  0  0  0  0  0  0  0  0  0  0  0
   -9.6915    2.3743   -7.4555 N   0  0  0  0  0  0  0  0  0  0  0  0
   -8.9499    3.6533   -7.4060 C   0  0  0  0  0  0  0  0  0  0  0  0
   -9.4484    1.7909   -6.6549 H   0  0  0  0  0  0  0  0  0  0  0  0
   -3.6566    6.1679  -18.0562 C   0  0  0  0  0  0  0  0  0  0  0  0
   -3.8652    7.6276  -18.4581 C   0  0  0  0  0  0  0  0  0  0  0  0
   -5.0669    8.4054  -17.8776 C   0  0  0  0  0  0  0  0  0  0  0  0
   -5.8008    8.1657  -19.1415 N   0  0  0  0  0  0  0  0  0  0  0  0
   -4.5036    7.9512  -19.8268 C   0  0  0  0  0  0  0  0  0  0  0  0
   -6.3265    8.9712  -19.4807 H   0  0  0  0  0  0  0  0  0  0  0  0
 11 12  2  0  0  0
 12 13  1  0  0  0
 13 15  1  0  0  0
 15 16  2  0  0  0
 16 17  1  0  0  0
 17 18  2  0  0  0
 18 19  1  0  0  0
 19 20  2  0  0  0
 19 21  1  0  0  0
 21 22  1  0  0  0
 22 23  1  0  0  0
 12  1  1  0  0  0
  1  2  2  0  0  0
  2  3  1  0  0  0
  3  4  1  0  0  0
  3  5  2  0  0  0
  5  6  1  0  0  0
  6  7  2  0  0  0
  7  8  1  0  0  0
  8 25  1  0  0  0
 25 26  1  0  0  0
 26 27  1  0  0  0
 27 28  1  0  0  0
 28 29  1  0  0  0
  8  9  1  0  0  0
  9 10  2  0  0  0
 20 15  1  0  0  0
 10  1  1  0  0  0
 23 18  1  0  0  0
 10  6  1  0  0  0
 29 26  1  0  0  0
 13 14  1  0  0  0
 22 24  1  0  0  0
 28 30  1  0  0  0
M  END
> <minimizedAffinity>
-8.44620

> <minimizedRMSD>
0.19782

$$$$
P18131


 26 29  0  0  0  0  0  0  0  0999 V2000
   -7.0721    5.0506  -13.7756 C   0  0  0  0  0  0  0  0  0  0  0  0
   -6.4440    5.9888  -13.4766 O   0  0  0  0  0  0  0  0  0  0  0  0
   -7.8423    4.0372  -12.8956 N   0  0  0  0  0  0  0  0  0  0  0  0
   -8.2349    3.2798  -13.3868 H   0  0  0  0  0  0  0  0  0  0  0  0
   -4.5712    5.3316  -17.3890 N   0  0  0  0  0  0  0  0  0  0  0  0
   -5.0465    5.2976  -16.1083 C   0  0  0  0  0  0  0  0  0  0  0  0
   -6.3638    4.9464  -16.2263 C   0  0  0  0  0  0  0  0  0  0  0  0
   -7.2930    4.7639  -15.2026 C   0  0  0  0  0  0  0  0  0  0  0  0
   -8.5629    4.4109  -15.6974 C   0  0  0  0  0  0  0  0  0  0  0  0
   -8.8273    4.2571  -17.0863 C   0  0  0  0  0  0  0  0  0  0  0  0
  -10.4461    3.9774  -17.5463 Cl  0  0  0  0  0  0  0  0  0  0  0  0
   -7.8784    4.4095  -18.1091 C   0  0  0  0  0  0  0  0  0  0  0  0
   -6.6170    4.7834  -17.6381 C   0  0  0  0  0  0  0  0  0  0  0  0
   -5.4999    5.0663  -18.3250 N   0  0  0  0  0  0  0  0  0  0  0  0
   -2.5036    4.6314  -18.6061 C   0  0  0  0  0  0  0  0  0  0  0  0
   -3.2238    5.6946  -17.7901 C   0  0  0  0  0  0  0  0  0  0  0  0
   -8.0703    4.0223  -11.5225 C   0  0  0  0  0  0  0  0  0  0  0  0
   -7.8418    5.1593  -10.7319 C   0  0  0  0  0  0  0  0  0  0  0  0
   -8.1027    5.1391   -9.3574 C   0  0  0  0  0  0  0  0  0  0  0  0
   -8.5894    3.9713   -8.8012 C   0  0  0  0  0  0  0  0  0  0  0  0
   -8.8082    2.8415   -9.5826 C   0  0  0  0  0  0  0  0  0  0  0  0
   -8.5600    2.8474  -10.9443 C   0  0  0  0  0  0  0  0  0  0  0  0
   -9.2743    1.7272   -8.7063 C   0  0  0  0  0  0  0  0  0  0  0  0
   -9.6809    2.3779   -7.4342 N   0  0  0  0  0  0  0  0  0  0  0  0
   -8.9341    3.6538   -7.3840 C   0  0  0  0  0  0  0  0  0  0  0  0
   -9.4342    1.7894   -6.6384 H   0  0  0  0  0  0  0  0  0  0  0  0
 15 16  1  0  0  0
 16  5  1  0  0  0
  5  6  1  0  0  0
  6  7  2  0  0  0
  7  8  1  0  0  0
  8  1  1  0  0  0
  1  2  2  0  0  0
  1  3  1  0  0  0
  3 17  1  0  0  0
 17 18  2  0  0  0
 18 19  1  0  0  0
 19 20  2  0  0  0
 20 21  1  0  0  0
 21 22  2  0  0  0
 21 23  1  0  0  0
 23 24  1  0  0  0
 24 25  1  0  0  0
  8  9  2  0  0  0
  9 10  1  0  0  0
 10 11  1  0  0  0
 10 12  2  0  0  0
 12 13  1  0  0  0
 13 14  2  0  0  0
 14  5  1  0  0  0
 13  7  1  0  0  0
 22 17  1  0  0  0
 25 20  1  0  0  0
  3  4  1  0  0  0
 24 26  1  0  0  0
M  END
> <minimizedAffinity>
-8.44480

> <minimizedRMSD>
0.37661

$$$$
P18133


 25 28  0  0  0  0  0  0  0  0999 V2000
   -7.8857    5.1734  -13.9884 C   0  0  0  0  0  0  0  0  0  0  0  0
   -7.6351    6.2929  -13.7731 O   0  0  0  0  0  0  0  0  0  0  0  0
   -8.1457    4.0021  -13.0185 N   0  0  0  0  0  0  0  0  0  0  0  0
   -8.2625    3.1260  -13.4522 H   0  0  0  0  0  0  0  0  0  0  0  0
   -8.2420    3.9823  -11.6296 C   0  0  0  0  0  0  0  0  0  0  0  0
   -7.8720    5.1026  -10.8656 C   0  0  0  0  0  0  0  0  0  0  0  0
   -7.9860    5.0911   -9.4723 C   0  0  0  0  0  0  0  0  0  0  0  0
   -8.4907    3.9544   -8.8719 C   0  0  0  0  0  0  0  0  0  0  0  0
   -8.8420    2.8385   -9.6264 C   0  0  0  0  0  0  0  0  0  0  0  0
   -8.7100    2.8256  -11.0039 C   0  0  0  0  0  0  0  0  0  0  0  0
   -9.3256    1.7666   -8.7078 C   0  0  0  0  0  0  0  0  0  0  0  0
   -9.6135    2.4619   -7.4260 N   0  0  0  0  0  0  0  0  0  0  0  0
   -8.7572    3.6678   -7.4320 C   0  0  0  0  0  0  0  0  0  0  0  0
   -9.3799    1.8624   -6.6346 H   0  0  0  0  0  0  0  0  0  0  0  0
   -4.9959    5.4279  -17.1925 N   0  0  0  0  0  0  0  0  0  0  0  0
   -5.6531    5.4182  -16.0006 C   0  0  0  0  0  0  0  0  0  0  0  0
   -6.8822    4.8920  -16.2814 C   0  0  0  0  0  0  0  0  0  0  0  0
   -7.9345    4.7200  -15.3867 C   0  0  0  0  0  0  0  0  0  0  0  0
   -9.0790    4.1807  -16.0046 C   0  0  0  0  0  0  0  0  0  0  0  0
   -9.1319    3.8561  -17.3947 C   0  0  0  0  0  0  0  0  0  0  0  0
   -8.0451    4.0363  -18.2822 C   0  0  0  0  0  0  0  0  0  0  0  0
   -6.8943    4.5801  -17.6859 C   0  0  0  0  0  0  0  0  0  0  0  0
   -5.7067    4.9209  -18.2182 N   0  0  0  0  0  0  0  0  0  0  0  0
   -2.6596    5.0646  -17.9420 C   0  0  0  0  0  0  0  0  0  0  0  0
   -3.7065    6.0444  -17.4396 C   0  0  0  0  0  0  0  0  0  0  0  0
 24 25  1  0  0  0
 25 15  1  0  0  0
 15 16  1  0  0  0
 16 17  2  0  0  0
 17 18  1  0  0  0
 18  1  1  0  0  0
  1  2  2  0  0  0
  1  3  1  0  0  0
  3  5  1  0  0  0
  5  6  2  0  0  0
  6  7  1  0  0  0
  7  8  2  0  0  0
  8  9  1  0  0  0
  9 10  2  0  0  0
  9 11  1  0  0  0
 11 12  1  0  0  0
 12 13  1  0  0  0
 18 19  2  0  0  0
 19 20  1  0  0  0
 20 21  2  0  0  0
 21 22  1  0  0  0
 22 23  2  0  0  0
 23 15  1  0  0  0
 22 17  1  0  0  0
 10  5  1  0  0  0
 13  8  1  0  0  0
  3  4  1  0  0  0
 12 14  1  0  0  0
M  END
> <minimizedAffinity>
-8.42395

> <minimizedRMSD>
0.67419

$$$$
P18134


 29 32  0  0  0  0  0  0  0  0999 V2000
   -5.4059    5.3328  -17.6639 C   0  0  0  0  0  0  0  0  0  0  0  0
   -6.6231    4.8700  -17.1779 C   0  0  0  0  0  0  0  0  0  0  0  0
   -7.6572    4.3026  -17.9225 C   0  0  0  0  0  0  0  0  0  0  0  0
   -8.7862    4.0486  -17.1210 C   0  0  0  0  0  0  0  0  0  0  0  0
   -9.8757    3.5483  -17.7221 F   0  0  0  0  0  0  0  0  0  0  0  0
   -8.8718    4.3196  -15.7217 C   0  0  0  0  0  0  0  0  0  0  0  0
   -7.8122    4.8895  -14.9809 C   0  0  0  0  0  0  0  0  0  0  0  0
   -6.7005    5.1440  -15.7847 C   0  0  0  0  0  0  0  0  0  0  0  0
   -5.5122    5.7089  -15.4175 C   0  0  0  0  0  0  0  0  0  0  0  0
   -4.7393    5.8458  -16.5552 N   0  0  0  0  0  0  0  0  0  0  0  0
   -3.4598    6.5192  -16.5064 C   0  0  0  0  0  0  0  0  0  0  0  0
   -7.9454    5.3147  -13.5770 C   0  0  0  0  0  0  0  0  0  0  0  0
   -7.9613    6.4570  -13.3356 O   0  0  0  0  0  0  0  0  0  0  0  0
   -8.1103    4.0922  -12.6471 N   0  0  0  0  0  0  0  0  0  0  0  0
   -8.1344    3.2232  -13.1091 H   0  0  0  0  0  0  0  0  0  0  0  0
   -8.2305    4.0192  -11.2617 C   0  0  0  0  0  0  0  0  0  0  0  0
   -7.9287    5.1232  -10.4473 C   0  0  0  0  0  0  0  0  0  0  0  0
   -8.1125    5.0630   -9.0622 C   0  0  0  0  0  0  0  0  0  0  0  0
   -8.6081    3.8923   -8.5214 C   0  0  0  0  0  0  0  0  0  0  0  0
   -8.8833    2.7898   -9.3248 C   0  0  0  0  0  0  0  0  0  0  0  0
   -8.6945    2.8300  -10.6948 C   0  0  0  0  0  0  0  0  0  0  0  0
   -9.3641    1.6701   -8.4636 C   0  0  0  0  0  0  0  0  0  0  0  0
   -9.7396    2.3113   -7.1769 N   0  0  0  0  0  0  0  0  0  0  0  0
   -8.9387    3.5532   -7.1062 C   0  0  0  0  0  0  0  0  0  0  0  0
   -9.5155    1.6974   -6.3938 H   0  0  0  0  0  0  0  0  0  0  0  0
   -4.9797    5.3753  -19.1061 C   0  0  0  0  0  0  0  0  0  0  0  0
   -2.7863    5.5086  -20.0900 C   0  0  0  0  0  0  0  0  0  0  0  0
   -3.7777    4.6365  -19.4866 N   0  0  0  0  0  0  0  0  0  0  0  0
   -3.3766    4.2046  -18.6541 H   0  0  0  0  0  0  0  0  0  0  0  0
 27 28  1  0  0  0
 28 26  1  0  0  0
 26  1  1  0  0  0
  1  2  2  0  0  0
  2  3  1  0  0  0
  3  4  2  0  0  0
  4  5  1  0  0  0
  4  6  1  0  0  0
  6  7  2  0  0  0
  7 12  1  0  0  0
 12 13  2  0  0  0
 12 14  1  0  0  0
 14 16  1  0  0  0
 16 17  2  0  0  0
 17 18  1  0  0  0
 18 19  2  0  0  0
 19 20  1  0  0  0
 20 21  2  0  0  0
 20 22  1  0  0  0
 22 23  1  0  0  0
 23 24  1  0  0  0
  7  8  1  0  0  0
  8  9  2  0  0  0
  9 10  1  0  0  0
 10 11  1  0  0  0
 10  1  1  0  0  0
  8  2  1  0  0  0
 21 16  1  0  0  0
 24 19  1  0  0  0
 28 29  1  0  0  0
 14 15  1  0  0  0
 23 25  1  0  0  0
M  END
> <minimizedAffinity>
-8.80131

> <minimizedRMSD>
0.51889

$$$$
P18135


 27 31  0  0  0  0  0  0  0  0999 V2000
   -7.3351    6.6466  -13.4959 O   0  0  0  0  0  0  0  0  0  0  0  0
   -7.7213    5.5794  -13.7918 C   0  0  0  0  0  0  0  0  0  0  0  0
   -8.1089    4.3606  -12.8970 N   0  0  0  0  0  0  0  0  0  0  0  0
   -8.3344    3.5404  -13.3927 H   0  0  0  0  0  0  0  0  0  0  0  0
   -8.0195    5.2720  -15.2893 C   0  0  0  0  0  0  0  0  0  0  0  0
   -8.6727    3.9519  -15.6697 C   0  0  0  0  0  0  0  0  0  0  0  0
   -8.9867    3.8333  -17.1462 C   0  0  0  0  0  0  0  0  0  0  0  0
   -9.9730    4.6982  -17.4656 F   0  0  0  0  0  0  0  0  0  0  0  0
   -7.7886    4.0914  -18.0169 C   0  0  0  0  0  0  0  0  0  0  0  0
   -6.9730    5.3385  -17.6921 C   0  0  0  0  0  0  0  0  0  0  0  0
   -5.5333    5.1588  -18.2367 C   0  0  0  0  0  0  0  0  0  0  0  0
   -5.0805    6.2510  -19.1761 C   0  0  0  0  0  0  0  0  0  0  0  0
   -4.5896    7.2981  -18.3411 O   0  0  0  0  0  0  0  0  0  0  0  0
   -4.0028    6.6892  -17.1864 C   0  0  0  0  0  0  0  0  0  0  0  0
   -4.6039    5.2991  -17.0402 C   0  0  0  0  0  0  0  0  0  0  0  0
   -5.4766    5.1113  -15.8024 C   0  0  0  0  0  0  0  0  0  0  0  0
   -6.8315    5.6728  -16.1954 C   0  0  0  0  0  0  0  0  0  0  0  0
   -8.1875    4.2450  -11.5125 C   0  0  0  0  0  0  0  0  0  0  0  0
   -7.9136    5.3364  -10.6763 C   0  0  0  0  0  0  0  0  0  0  0  0
   -8.0888    5.2350   -9.2928 C   0  0  0  0  0  0  0  0  0  0  0  0
   -8.5205    4.0291   -8.7707 C   0  0  0  0  0  0  0  0  0  0  0  0
   -8.7650    2.9388   -9.5933 C   0  0  0  0  0  0  0  0  0  0  0  0
   -8.6098    3.0274  -10.9675 C   0  0  0  0  0  0  0  0  0  0  0  0
   -9.2159    1.7822   -8.7689 C   0  0  0  0  0  0  0  0  0  0  0  0
   -9.1742    2.2324   -7.3529 N   0  0  0  0  0  0  0  0  0  0  0  0
   -8.8322    3.6700   -7.3600 C   0  0  0  0  0  0  0  0  0  0  0  0
   -8.4658    1.7074   -6.8402 H   0  0  0  0  0  0  0  0  0  0  0  0
  1  2  2  0  0  0
  2  3  1  0  0  0
  3 18  1  0  0  0
 18 19  2  0  0  0
 19 20  1  0  0  0
 20 21  2  0  0  0
 21 22  1  0  0  0
 22 23  2  0  0  0
 22 24  1  0  0  0
 24 25  1  0  0  0
 25 26  1  0  0  0
  5  2  1  0  0  0
  5  6  1  0  0  0
  6  7  1  0  0  0
  7  8  1  0  0  0
  7  9  1  0  0  0
 10  9  1  0  0  0
 10 11  1  0  0  0
 11 12  1  0  0  0
 12 13  1  0  0  0
 13 14  1  0  0  0
 15 14  1  0  0  0
 15 16  1  0  0  0
 17 16  1  0  0  0
 23 18  1  0  0  0
 17  5  1  0  0  0
 26 21  1  0  0  0
 17 10  1  0  0  0
 15 11  1  0  0  0
  3  4  1  0  0  0
 25 27  1  0  0  0
M  END
> <minimizedAffinity>
-8.88522

> <minimizedRMSD>
0.17956

$$$$
P18137


 29 32  0  0  0  0  0  0  0  0999 V2000
   -6.6859    4.4831  -12.4225 C   0  0  0  0  0  0  0  0  0  0  0  0
   -2.8268    5.7859  -16.4808 C   0  0  0  0  0  0  0  0  0  0  0  0
   -4.1655    5.4578  -16.0801 N   0  0  0  0  0  0  0  0  0  0  0  0
   -4.6011    5.2471  -14.8083 C   0  0  0  0  0  0  0  0  0  0  0  0
   -5.9297    4.9379  -14.9289 C   0  0  0  0  0  0  0  0  0  0  0  0
   -6.8352    4.6008  -13.9128 C   0  0  0  0  0  0  0  0  0  0  0  0
   -8.1217    4.3305  -14.4550 C   0  0  0  0  0  0  0  0  0  0  0  0
   -8.4403    4.3624  -15.8194 C   0  0  0  0  0  0  0  0  0  0  0  0
   -7.4896    4.6591  -16.8172 C   0  0  0  0  0  0  0  0  0  0  0  0
   -6.2150    4.9865  -16.3397 C   0  0  0  0  0  0  0  0  0  0  0  0
   -5.1164    5.3685  -17.0111 N   0  0  0  0  0  0  0  0  0  0  0  0
   -7.8156    4.4808  -18.2400 C   0  0  0  0  0  0  0  0  0  0  0  0
   -9.2573    4.4961  -18.3346 N   0  0  0  0  0  0  0  0  0  0  0  0
   -9.6439    3.7498  -17.7568 H   0  0  0  0  0  0  0  0  0  0  0  0
   -9.5358    4.3534  -19.3054 H   0  0  0  0  0  0  0  0  0  0  0  0
   -5.7602    3.4000  -11.9945 N   0  0  0  0  0  0  0  0  0  0  0  0
   -4.7675    3.8443  -11.4024 O   0  0  0  0  0  0  0  0  0  0  0  0
   -8.0131    4.3164  -11.8587 N   0  0  0  0  0  0  0  0  0  0  0  0
   -8.7882    4.2926  -12.4652 H   0  0  0  0  0  0  0  0  0  0  0  0
   -8.2262    4.1892  -10.4907 C   0  0  0  0  0  0  0  0  0  0  0  0
   -8.0765    5.2483   -9.5695 C   0  0  0  0  0  0  0  0  0  0  0  0
   -8.3005    5.0787   -8.2018 C   0  0  0  0  0  0  0  0  0  0  0  0
   -8.7665    3.8573   -7.7757 C   0  0  0  0  0  0  0  0  0  0  0  0
   -8.9896    2.8256   -8.6782 C   0  0  0  0  0  0  0  0  0  0  0  0
   -8.7155    2.9654  -10.0243 C   0  0  0  0  0  0  0  0  0  0  0  0
   -9.5006    1.6406   -7.9385 C   0  0  0  0  0  0  0  0  0  0  0  0
   -9.9390    2.1717   -6.6218 N   0  0  0  0  0  0  0  0  0  0  0  0
   -9.1259    3.3880   -6.4076 C   0  0  0  0  0  0  0  0  0  0  0  0
   -9.7640    1.4894   -5.8841 H   0  0  0  0  0  0  0  0  0  0  0  0
  2  3  1  0  0  0
  3  4  1  0  0  0
  4  5  2  0  0  0
  5  6  1  0  0  0
  6  1  1  0  0  0
  1 16  1  0  0  0
 16 17  2  0  0  0
  1 18  1  0  0  0
 18 20  1  0  0  0
 20 21  2  0  0  0
 21 22  1  0  0  0
 22 23  2  0  0  0
 23 24  1  0  0  0
 24 25  2  0  0  0
 24 26  1  0  0  0
 26 27  1  0  0  0
 27 28  1  0  0  0
  6  7  2  0  0  0
  7  8  1  0  0  0
  8  9  2  0  0  0
  9 12  1  0  0  0
 12 13  1  0  0  0
  9 10  1  0  0  0
 10 11  2  0  0  0
 11  3  1  0  0  0
 10  5  1  0  0  0
 25 20  1  0  0  0
 28 23  1  0  0  0
 18 19  1  0  0  0
 27 29  1  0  0  0
 13 14  1  0  0  0
 13 15  1  0  0  0
M  END
> <minimizedAffinity>
-7.77525

> <minimizedRMSD>
1.17982

$$$$
P18140


 31 36  0  0  0  0  0  0  0  0999 V2000
   -7.1909    4.6881  -15.0042 C   0  0  0  0  0  0  0  0  0  0  0  0
   -8.4234    4.2621  -15.4992 C   0  0  0  0  0  0  0  0  0  0  0  0
   -8.6342    4.2283  -16.8798 C   0  0  0  0  0  0  0  0  0  0  0  0
  -10.2017    3.8982  -17.4560 Cl  0  0  0  0  0  0  0  0  0  0  0  0
   -7.6498    4.6124  -17.7876 C   0  0  0  0  0  0  0  0  0  0  0  0
   -6.4480    5.0716  -17.2873 C   0  0  0  0  0  0  0  0  0  0  0  0
   -6.2100    5.0675  -15.9099 C   0  0  0  0  0  0  0  0  0  0  0  0
   -4.8179    5.5429  -15.6595 C   0  0  0  0  0  0  0  0  0  0  0  0
   -4.4169    6.2600  -16.8942 N   0  0  0  0  0  0  0  0  0  0  0  0
   -4.7957    7.6650  -16.7719 C   0  0  0  0  0  0  0  0  0  0  0  0
   -5.3857    8.1495  -17.9798 O   0  0  0  0  0  0  0  0  0  0  0  0
   -5.6591    7.0170  -18.7960 C   0  0  0  0  0  0  0  0  0  0  0  0
   -4.8079    7.0927  -19.9861 N   0  0  0  0  0  0  0  0  0  0  0  0
   -3.8159    6.0312  -19.8195 C   0  0  0  0  0  0  0  0  0  0  0  0
   -4.5314    4.9634  -19.0103 C   0  0  0  0  0  0  0  0  0  0  0  0
   -5.3094    5.7571  -17.9854 C   0  0  0  0  0  0  0  0  0  0  0  0
   -4.3511    8.0030  -20.0413 H   0  0  0  0  0  0  0  0  0  0  0  0
   -6.4551    5.9383  -13.2484 O   0  0  0  0  0  0  0  0  0  0  0  0
   -7.0438    4.9786  -13.5571 C   0  0  0  0  0  0  0  0  0  0  0  0
   -7.8048    3.9509  -12.6938 N   0  0  0  0  0  0  0  0  0  0  0  0
   -8.1585    3.1775  -13.1898 H   0  0  0  0  0  0  0  0  0  0  0  0
   -8.0725    3.9392  -11.3297 C   0  0  0  0  0  0  0  0  0  0  0  0
   -7.8817    5.0885  -10.5460 C   0  0  0  0  0  0  0  0  0  0  0  0
   -8.1567    5.0737   -9.1762 C   0  0  0  0  0  0  0  0  0  0  0  0
   -8.6083    3.8951   -8.6139 C   0  0  0  0  0  0  0  0  0  0  0  0
   -8.8027    2.7611   -9.3903 C   0  0  0  0  0  0  0  0  0  0  0  0
   -8.5504    2.7632  -10.7518 C   0  0  0  0  0  0  0  0  0  0  0  0
   -9.2814    1.6436   -8.5322 C   0  0  0  0  0  0  0  0  0  0  0  0
   -9.2907    2.1567   -7.1367 N   0  0  0  0  0  0  0  0  0  0  0  0
   -8.9631    3.5969   -7.1994 C   0  0  0  0  0  0  0  0  0  0  0  0
   -8.5940    1.6637   -6.5783 H   0  0  0  0  0  0  0  0  0  0  0  0
 18 19  2  0  0  0
 19 20  1  0  0  0
 20 22  1  0  0  0
 22 23  2  0  0  0
 23 24  1  0  0  0
 24 25  2  0  0  0
 25 26  1  0  0  0
 26 27  2  0  0  0
 26 28  1  0  0  0
 28 29  1  0  0  0
 29 30  1  0  0  0
 19  1  1  0  0  0
  1  2  2  0  0  0
  2  3  1  0  0  0
  3  4  1  0  0  0
  3  5  2  0  0  0
  5  6  1  0  0  0
  6  7  2  0  0  0
  7  8  1  0  0  0
  8  9  1  0  0  0
  9 10  1  0  0  0
 10 11  1  0  0  0
 11 12  1  0  0  0
 12 13  1  0  0  0
 13 14  1  0  0  0
 14 15  1  0  0  0
 16 15  1  0  0  0
 27 22  1  0  0  0
  7  1  1  0  0  0
 16  9  1  0  0  0
 30 25  1  0  0  0
 16  6  1  0  0  0
 16 12  1  0  0  0
 20 21  1  0  0  0
 29 31  1  0  0  0
 13 17  1  0  0  0
M  END
> <minimizedAffinity>
-9.85076

> <minimizedRMSD>
0.21871

$$$$
P18142


 26 29  0  0  0  0  0  0  0  0999 V2000
   -7.6917    5.1105  -14.1034 C   0  0  0  0  0  0  0  0  0  0  0  0
   -7.3091    6.1991  -13.9180 O   0  0  0  0  0  0  0  0  0  0  0  0
   -8.0798    4.0004  -13.1003 N   0  0  0  0  0  0  0  0  0  0  0  0
   -8.3020    3.1335  -13.5106 H   0  0  0  0  0  0  0  0  0  0  0  0
   -8.1663    4.0268  -11.7097 C   0  0  0  0  0  0  0  0  0  0  0  0
   -7.8774    5.1940  -10.9827 C   0  0  0  0  0  0  0  0  0  0  0  0
   -8.0095    5.2232   -9.5895 C   0  0  0  0  0  0  0  0  0  0  0  0
   -8.4311    4.0732   -8.9496 C   0  0  0  0  0  0  0  0  0  0  0  0
   -8.6910    2.9088   -9.6651 C   0  0  0  0  0  0  0  0  0  0  0  0
   -8.5640    2.8655  -11.0429 C   0  0  0  0  0  0  0  0  0  0  0  0
   -9.0695    1.8258   -8.7098 C   0  0  0  0  0  0  0  0  0  0  0  0
   -9.4078    2.5309   -7.4459 N   0  0  0  0  0  0  0  0  0  0  0  0
   -8.6738    3.8141   -7.5002 C   0  0  0  0  0  0  0  0  0  0  0  0
   -9.1074    1.9822   -6.6403 H   0  0  0  0  0  0  0  0  0  0  0  0
   -5.4658    5.3215  -16.4288 C   0  0  0  0  0  0  0  0  0  0  0  0
   -4.9449    5.3197  -17.6614 N   0  0  0  0  0  0  0  0  0  0  0  0
   -5.9391    4.8335  -18.4939 O   0  0  0  0  0  0  0  0  0  0  0  0
   -7.0465    4.5517  -17.7603 C   0  0  0  0  0  0  0  0  0  0  0  0
   -8.2437    4.0308  -18.2433 C   0  0  0  0  0  0  0  0  0  0  0  0
   -9.2611    3.8300  -17.3079 C   0  0  0  0  0  0  0  0  0  0  0  0
   -9.0693    4.1336  -15.9587 C   0  0  0  0  0  0  0  0  0  0  0  0
   -7.8486    4.6597  -15.5069 C   0  0  0  0  0  0  0  0  0  0  0  0
   -6.8113    4.8669  -16.4348 C   0  0  0  0  0  0  0  0  0  0  0  0
   -3.6080    6.4545  -15.3600 C   0  0  0  0  0  0  0  0  0  0  0  0
   -4.8287    5.6847  -15.2888 N   0  0  0  0  0  0  0  0  0  0  0  0
   -5.1971    5.4245  -14.4137 H   0  0  0  0  0  0  0  0  0  0  0  0
 24 25  1  0  0  0
 25 15  1  0  0  0
 15 16  2  0  0  0
 16 17  1  0  0  0
 17 18  1  0  0  0
 18 19  2  0  0  0
 19 20  1  0  0  0
 20 21  2  0  0  0
 21 22  1  0  0  0
 22  1  1  0  0  0
  1  2  2  0  0  0
  1  3  1  0  0  0
  3  5  1  0  0  0
  5  6  2  0  0  0
  6  7  1  0  0  0
  7  8  2  0  0  0
  8  9  1  0  0  0
  9 10  2  0  0  0
  9 11  1  0  0  0
 11 12  1  0  0  0
 12 13  1  0  0  0
 22 23  2  0  0  0
 23 15  1  0  0  0
 23 18  1  0  0  0
 10  5  1  0  0  0
 13  8  1  0  0  0
 25 26  1  0  0  0
  3  4  1  0  0  0
 12 14  1  0  0  0
M  END
> <minimizedAffinity>
-8.31117

> <minimizedRMSD>
0.23024

$$$$
P18143


 33 36  0  0  0  0  0  0  0  0999 V2000
   -7.3091    5.0370  -13.4842 C   0  0  0  0  0  0  0  0  0  0  0  0
   -5.5100    5.1552  -19.4894 N   0  0  0  0  0  0  0  0  0  0  0  0
   -5.7390    5.0468  -18.1638 C   0  0  0  0  0  0  0  0  0  0  0  0
   -4.7468    5.3507  -17.2734 N   0  0  0  0  0  0  0  0  0  0  0  0
   -5.2112    5.3143  -15.9760 C   0  0  0  0  0  0  0  0  0  0  0  0
   -4.3312    5.5958  -14.9856 N   0  0  0  0  0  0  0  0  0  0  0  0
   -6.5492    4.9603  -16.0305 C   0  0  0  0  0  0  0  0  0  0  0  0
   -7.4874    4.7984  -14.9839 C   0  0  0  0  0  0  0  0  0  0  0  0
   -8.7297    4.3345  -15.5396 C   0  0  0  0  0  0  0  0  0  0  0  0
   -8.9862    4.0449  -16.9171 C   0  0  0  0  0  0  0  0  0  0  0  0
   -8.0420    4.2368  -17.9326 C   0  0  0  0  0  0  0  0  0  0  0  0
   -6.8429    4.7158  -17.4200 C   0  0  0  0  0  0  0  0  0  0  0  0
   -4.6177    5.4134  -19.8154 H   0  0  0  0  0  0  0  0  0  0  0  0
   -6.2354    4.9761  -20.1305 H   0  0  0  0  0  0  0  0  0  0  0  0
   -3.8203    5.5675  -17.5262 H   0  0  0  0  0  0  0  0  0  0  0  0
   -3.4003    5.8290  -15.2058 H   0  0  0  0  0  0  0  0  0  0  0  0
   -4.6223    5.5672  -14.0456 H   0  0  0  0  0  0  0  0  0  0  0  0
   -7.4299    6.5491  -13.1519 C   0  0  0  0  0  0  0  0  0  0  0  0
   -6.9305    7.3516  -14.1227 F   0  0  0  0  0  0  0  0  0  0  0  0
   -6.7091    6.8871  -12.0515 F   0  0  0  0  0  0  0  0  0  0  0  0
   -8.7049    6.9575  -12.9503 F   0  0  0  0  0  0  0  0  0  0  0  0
   -8.2448    4.1138  -12.7499 N   0  0  0  0  0  0  0  0  0  0  0  0
   -8.8580    3.5452  -13.2695 H   0  0  0  0  0  0  0  0  0  0  0  0
   -8.2713    4.0377  -11.3511 C   0  0  0  0  0  0  0  0  0  0  0  0
   -8.0191    5.1477  -10.5216 C   0  0  0  0  0  0  0  0  0  0  0  0
   -8.1316    5.0825   -9.1272 C   0  0  0  0  0  0  0  0  0  0  0  0
   -8.5754    3.9052   -8.5690 C   0  0  0  0  0  0  0  0  0  0  0  0
   -8.8618    2.8064   -9.3673 C   0  0  0  0  0  0  0  0  0  0  0  0
   -8.6986    2.8477  -10.7429 C   0  0  0  0  0  0  0  0  0  0  0  0
   -9.3531    1.6954   -8.5014 C   0  0  0  0  0  0  0  0  0  0  0  0
   -9.7017    2.3425   -7.2085 N   0  0  0  0  0  0  0  0  0  0  0  0
   -8.8770    3.5679   -7.1484 C   0  0  0  0  0  0  0  0  0  0  0  0
   -9.4795    1.7240   -6.4284 H   0  0  0  0  0  0  0  0  0  0  0  0
  2  3  1  0  0  0
  3  4  1  0  0  0
  4  5  1  0  0  0
  5  6  1  0  0  0
  5  7  2  0  0  0
  7  8  1  0  0  0
  8  1  1  0  0  0
  1 22  1  0  0  0
 22 24  1  0  0  0
 24 25  2  0  0  0
 25 26  1  0  0  0
 26 27  2  0  0  0
 27 28  1  0  0  0
 28 29  2  0  0  0
 28 30  1  0  0  0
 30 31  1  0  0  0
 31 32  1  0  0  0
  1 18  1  0  0  0
 18 19  1  0  0  0
 18 20  1  0  0  0
 18 21  1  0  0  0
  8  9  2  0  0  0
  9 10  1  0  0  0
 10 11  2  0  0  0
 11 12  1  0  0  0
 12  3  2  0  0  0
 12  7  1  0  0  0
 29 24  1  0  0  0
 32 27  1  0  0  0
  2 13  1  0  0  0
  2 14  1  0  0  0
  4 15  1  0  0  0
  6 16  1  0  0  0
  6 17  1  0  0  0
 22 23  1  0  0  0
 31 33  1  0  0  0
M  END
> <minimizedAffinity>
-8.93900

> <minimizedRMSD>
0.51655

$$$$
P18145


 32 35  0  0  0  0  0  0  0  0999 V2000
   -5.7324    5.0855  -18.0738 C   0  0  0  0  0  0  0  0  0  0  0  0
   -4.9671    5.4880  -17.0008 N   0  0  0  0  0  0  0  0  0  0  0  0
   -5.6756    5.4305  -15.8283 C   0  0  0  0  0  0  0  0  0  0  0  0
   -5.0877    5.8263  -14.6827 N   0  0  0  0  0  0  0  0  0  0  0  0
   -6.9176    4.9297  -16.1347 C   0  0  0  0  0  0  0  0  0  0  0  0
   -8.0080    4.7049  -15.2886 C   0  0  0  0  0  0  0  0  0  0  0  0
   -9.0984    4.1168  -15.9805 C   0  0  0  0  0  0  0  0  0  0  0  0
   -9.0751    3.7932  -17.3773 C   0  0  0  0  0  0  0  0  0  0  0  0
   -7.9757    4.0458  -18.2262 C   0  0  0  0  0  0  0  0  0  0  0  0
   -6.9165    4.6304  -17.5363 C   0  0  0  0  0  0  0  0  0  0  0  0
   -4.0293    5.7802  -17.0678 H   0  0  0  0  0  0  0  0  0  0  0  0
   -4.1621    6.1614  -14.6947 H   0  0  0  0  0  0  0  0  0  0  0  0
   -5.5837    5.7805  -13.8335 H   0  0  0  0  0  0  0  0  0  0  0  0
   -8.1084    5.1808  -13.8949 C   0  0  0  0  0  0  0  0  0  0  0  0
   -8.3026    6.3166  -13.7017 O   0  0  0  0  0  0  0  0  0  0  0  0
   -7.9855    4.0029  -12.9027 N   0  0  0  0  0  0  0  0  0  0  0  0
   -7.7416    3.1420  -13.3133 H   0  0  0  0  0  0  0  0  0  0  0  0
   -8.1633    3.9607  -11.5242 C   0  0  0  0  0  0  0  0  0  0  0  0
   -7.8844    5.0809  -10.7231 C   0  0  0  0  0  0  0  0  0  0  0  0
   -8.1002    5.0461   -9.3420 C   0  0  0  0  0  0  0  0  0  0  0  0
   -8.5925    3.8794   -8.7903 C   0  0  0  0  0  0  0  0  0  0  0  0
   -8.8489    2.7636   -9.5815 C   0  0  0  0  0  0  0  0  0  0  0  0
   -8.6453    2.7841  -10.9496 C   0  0  0  0  0  0  0  0  0  0  0  0
   -9.3016    1.6437   -8.7069 C   0  0  0  0  0  0  0  0  0  0  0  0
   -9.6906    2.2897   -7.4268 N   0  0  0  0  0  0  0  0  0  0  0  0
   -8.9168    3.5496   -7.3714 C   0  0  0  0  0  0  0  0  0  0  0  0
   -9.4523    1.6895   -6.6373 H   0  0  0  0  0  0  0  0  0  0  0  0
   -5.2774    5.1726  -19.3509 N   0  0  0  0  0  0  0  0  0  0  0  0
   -5.6975    4.6109  -20.0418 H   0  0  0  0  0  0  0  0  0  0  0  0
   -4.6039    6.9389  -20.9199 C   0  0  0  0  0  0  0  0  0  0  0  0
   -4.1918    6.0648  -19.7387 C   0  0  0  0  0  0  0  0  0  0  0  0
   -2.9346    5.2556  -20.0464 C   0  0  0  0  0  0  0  0  0  0  0  0
 30 31  1  0  0  0
 31 32  1  0  0  0
 31 28  1  0  0  0
 28  1  1  0  0  0
  1  2  1  0  0  0
  2  3  1  0  0  0
  3  4  1  0  0  0
  3  5  2  0  0  0
  5  6  1  0  0  0
  6 14  1  0  0  0
 14 15  2  0  0  0
 14 16  1  0  0  0
 16 18  1  0  0  0
 18 19  2  0  0  0
 19 20  1  0  0  0
 20 21  2  0  0  0
 21 22  1  0  0  0
 22 23  2  0  0  0
 22 24  1  0  0  0
 24 25  1  0  0  0
 25 26  1  0  0  0
  6  7  2  0  0  0
  7  8  1  0  0  0
  8  9  2  0  0  0
  9 10  1  0  0  0
 10  1  2  0  0  0
 10  5  1  0  0  0
 23 18  1  0  0  0
 26 21  1  0  0  0
 28 29  1  0  0  0
  2 11  1  0  0  0
  4 12  1  0  0  0
  4 13  1  0  0  0
 16 17  1  0  0  0
 25 27  1  0  0  0
M  END
> <minimizedAffinity>
-9.13717

> <minimizedRMSD>
0.52469

$$$$
P18148


 31 34  0  0  0  0  0  0  0  0999 V2000
   -5.6227    5.3312  -17.9306 C   0  0  0  0  0  0  0  0  0  0  0  0
   -5.1200    5.8311  -16.7458 N   0  0  0  0  0  0  0  0  0  0  0  0
   -6.0192    5.6692  -15.7199 C   0  0  0  0  0  0  0  0  0  0  0  0
   -5.7451    6.1728  -14.4982 N   0  0  0  0  0  0  0  0  0  0  0  0
   -7.0992    4.9873  -16.2310 C   0  0  0  0  0  0  0  0  0  0  0  0
   -8.2893    4.6145  -15.5962 C   0  0  0  0  0  0  0  0  0  0  0  0
   -9.1784    3.9602  -16.4905 C   0  0  0  0  0  0  0  0  0  0  0  0
   -8.8836    3.7036  -17.8690 C   0  0  0  0  0  0  0  0  0  0  0  0
   -7.6802    4.0837  -18.4974 C   0  0  0  0  0  0  0  0  0  0  0  0
   -6.8235    4.7352  -17.6130 C   0  0  0  0  0  0  0  0  0  0  0  0
   -4.2338    6.2487  -16.6490 H   0  0  0  0  0  0  0  0  0  0  0  0
   -4.8923    6.6378  -14.3375 H   0  0  0  0  0  0  0  0  0  0  0  0
   -6.3978    6.0752  -13.7677 H   0  0  0  0  0  0  0  0  0  0  0  0
   -3.7664    4.6741  -19.3807 N   0  0  0  0  0  0  0  0  0  0  0  0
   -4.9366    5.5384  -19.2258 C   0  0  0  0  0  0  0  0  0  0  0  0
   -3.3291    4.8526  -20.2847 H   0  0  0  0  0  0  0  0  0  0  0  0
   -4.0560    3.6974  -19.3300 H   0  0  0  0  0  0  0  0  0  0  0  0
   -8.6880    4.9954  -14.2257 C   0  0  0  0  0  0  0  0  0  0  0  0
   -9.4561    5.8640  -14.0807 O   0  0  0  0  0  0  0  0  0  0  0  0
   -8.0414    4.0459  -13.1905 N   0  0  0  0  0  0  0  0  0  0  0  0
   -7.4760    3.3385  -13.5769 H   0  0  0  0  0  0  0  0  0  0  0  0
   -8.1285    4.0284  -11.8018 C   0  0  0  0  0  0  0  0  0  0  0  0
   -7.7828    5.1565  -11.0396 C   0  0  0  0  0  0  0  0  0  0  0  0
   -7.9467    5.1595   -9.6510 C   0  0  0  0  0  0  0  0  0  0  0  0
   -8.4649    4.0263   -9.0543 C   0  0  0  0  0  0  0  0  0  0  0  0
   -8.7833    2.8997   -9.8066 C   0  0  0  0  0  0  0  0  0  0  0  0
   -8.6179    2.8779  -11.1798 C   0  0  0  0  0  0  0  0  0  0  0  0
   -9.2735    1.8284   -8.8914 C   0  0  0  0  0  0  0  0  0  0  0  0
   -9.6098    2.5306   -7.6259 N   0  0  0  0  0  0  0  0  0  0  0  0
   -8.7772    3.7537   -7.6206 C   0  0  0  0  0  0  0  0  0  0  0  0
   -9.3866    1.9437   -6.8221 H   0  0  0  0  0  0  0  0  0  0  0  0
 14 15  1  0  0  0
 15  1  1  0  0  0
  1  2  1  0  0  0
  2  3  1  0  0  0
  3  4  1  0  0  0
  3  5  2  0  0  0
  5  6  1  0  0  0
  6 18  1  0  0  0
 18 19  2  0  0  0
 18 20  1  0  0  0
 20 22  1  0  0  0
 22 23  2  0  0  0
 23 24  1  0  0  0
 24 25  2  0  0  0
 25 26  1  0  0  0
 26 27  2  0  0  0
 26 28  1  0  0  0
 28 29  1  0  0  0
 29 30  1  0  0  0
  6  7  2  0  0  0
  7  8  1  0  0  0
  8  9  2  0  0  0
  9 10  1  0  0  0
 10  1  2  0  0  0
 10  5  1  0  0  0
 27 22  1  0  0  0
 30 25  1  0  0  0
 14 16  1  0  0  0
 14 17  1  0  0  0
  2 11  1  0  0  0
  4 12  1  0  0  0
  4 13  1  0  0  0
 20 21  1  0  0  0
 29 31  1  0  0  0
M  END
> <minimizedAffinity>
-9.26269

> <minimizedRMSD>
0.86320

$$$$
P18149


 30 34  0  0  0  0  0  0  0  0999 V2000
   -8.2164    4.7186  -15.4401 C   0  0  0  0  0  0  0  0  0  0  0  0
   -9.1397    4.0608  -16.2634 C   0  0  0  0  0  0  0  0  0  0  0  0
   -8.8405    3.8083  -17.6080 C   0  0  0  0  0  0  0  0  0  0  0  0
   -7.6054    4.1859  -18.1277 C   0  0  0  0  0  0  0  0  0  0  0  0
   -6.6929    4.7779  -17.2732 C   0  0  0  0  0  0  0  0  0  0  0  0
   -6.9740    5.0634  -15.9501 C   0  0  0  0  0  0  0  0  0  0  0  0
   -5.7350    5.5925  -15.3061 C   0  0  0  0  0  0  0  0  0  0  0  0
   -5.4319    4.8925  -13.9655 C   0  0  0  0  0  0  0  0  0  0  0  0
   -4.0442    5.2297  -13.4350 C   0  0  0  0  0  0  0  0  0  0  0  0
   -3.6136    6.5975  -13.7559 N   0  0  0  0  0  0  0  0  0  0  0  0
   -4.7613    7.5018  -13.9023 C   0  0  0  0  0  0  0  0  0  0  0  0
   -5.7255    7.1170  -15.0438 C   0  0  0  0  0  0  0  0  0  0  0  0
   -4.6862    5.2842  -16.3329 N   0  0  0  0  0  0  0  0  0  0  0  0
   -5.4075    5.0899  -17.6137 O   0  0  0  0  0  0  0  0  0  0  0  0
   -3.0890    6.5833  -14.6306 H   0  0  0  0  0  0  0  0  0  0  0  0
   -4.1813    4.4351  -16.0789 H   0  0  0  0  0  0  0  0  0  0  0  0
   -9.1368    6.1053  -13.8867 O   0  0  0  0  0  0  0  0  0  0  0  0
   -8.6009    5.0840  -14.0622 C   0  0  0  0  0  0  0  0  0  0  0  0
   -8.1705    3.9952  -13.0584 N   0  0  0  0  0  0  0  0  0  0  0  0
   -7.7990    3.1807  -13.4681 H   0  0  0  0  0  0  0  0  0  0  0  0
   -8.2216    3.9765  -11.6669 C   0  0  0  0  0  0  0  0  0  0  0  0
   -7.8540    5.1040  -10.9148 C   0  0  0  0  0  0  0  0  0  0  0  0
   -7.9433    5.0938   -9.5201 C   0  0  0  0  0  0  0  0  0  0  0  0
   -8.4123    3.9490   -8.9033 C   0  0  0  0  0  0  0  0  0  0  0  0
   -8.7654    2.8299   -9.6444 C   0  0  0  0  0  0  0  0  0  0  0  0
   -8.6657    2.8182  -11.0264 C   0  0  0  0  0  0  0  0  0  0  0  0
   -9.2326    1.7511   -8.7302 C   0  0  0  0  0  0  0  0  0  0  0  0
   -9.2264    2.3293   -7.3604 N   0  0  0  0  0  0  0  0  0  0  0  0
   -8.6461    3.6846   -7.4573 C   0  0  0  0  0  0  0  0  0  0  0  0
   -8.6600    1.7508   -6.7400 H   0  0  0  0  0  0  0  0  0  0  0  0
 17 18  2  0  0  0
 18 19  1  0  0  0
 19 21  1  0  0  0
 21 22  2  0  0  0
 22 23  1  0  0  0
 23 24  2  0  0  0
 24 25  1  0  0  0
 25 26  2  0  0  0
 25 27  1  0  0  0
 27 28  1  0  0  0
 28 29  1  0  0  0
 18  1  1  0  0  0
  1  2  2  0  0  0
  2  3  1  0  0  0
  3  4  2  0  0  0
  4  5  1  0  0  0
  5  6  2  0  0  0
  6  7  1  0  0  0
  7  8  1  0  0  0
  8  9  1  0  0  0
  9 10  1  0  0  0
 10 11  1  0  0  0
 11 12  1  0  0  0
  7 13  1  0  0  0
 13 14  1  0  0  0
 26 21  1  0  0  0
  6  1  1  0  0  0
 12  7  1  0  0  0
 29 24  1  0  0  0
 14  5  1  0  0  0
 19 20  1  0  0  0
 28 30  1  0  0  0
 10 15  1  0  0  0
 13 16  1  0  0  0
M  END
> <minimizedAffinity>
-9.28256

> <minimizedRMSD>
0.63069

$$$$
P18150


 30 33  0  0  0  0  0  0  0  0999 V2000
   -5.4300    4.9294  -19.4438 N   0  0  0  0  0  0  0  0  0  0  0  0
   -5.8433    4.9976  -18.1622 C   0  0  0  0  0  0  0  0  0  0  0  0
   -4.9971    5.4919  -17.1963 N   0  0  0  0  0  0  0  0  0  0  0  0
   -5.6197    5.5378  -15.9704 C   0  0  0  0  0  0  0  0  0  0  0  0
   -4.9719    6.0470  -14.9014 N   0  0  0  0  0  0  0  0  0  0  0  0
   -6.8732    4.9945  -16.1363 C   0  0  0  0  0  0  0  0  0  0  0  0
   -7.8723    4.7838  -15.1783 C   0  0  0  0  0  0  0  0  0  0  0  0
   -9.0282    4.1889  -15.7453 C   0  0  0  0  0  0  0  0  0  0  0  0
   -9.1503    3.8496  -17.1344 C   0  0  0  0  0  0  0  0  0  0  0  0
   -8.1338    4.0606  -18.0919 C   0  0  0  0  0  0  0  0  0  0  0  0
   -7.0063    4.6452  -17.5200 C   0  0  0  0  0  0  0  0  0  0  0  0
   -4.5312    5.2479  -19.6887 H   0  0  0  0  0  0  0  0  0  0  0  0
   -6.0270    4.5612  -20.1346 H   0  0  0  0  0  0  0  0  0  0  0  0
   -4.0688    5.7754  -17.3608 H   0  0  0  0  0  0  0  0  0  0  0  0
   -4.0556    6.3932  -15.0000 H   0  0  0  0  0  0  0  0  0  0  0  0
   -5.4157    6.0723  -14.0230 H   0  0  0  0  0  0  0  0  0  0  0  0
   -7.8023    5.2232  -13.7704 C   0  0  0  0  0  0  0  0  0  0  0  0
   -7.4611    6.3174  -13.5406 O   0  0  0  0  0  0  0  0  0  0  0  0
   -8.2664    4.0961  -12.8170 N   0  0  0  0  0  0  0  0  0  0  0  0
   -8.5779    3.2778  -13.2671 H   0  0  0  0  0  0  0  0  0  0  0  0
   -8.3152    4.0509  -11.4246 C   0  0  0  0  0  0  0  0  0  0  0  0
   -7.9772    5.1733  -10.6522 C   0  0  0  0  0  0  0  0  0  0  0  0
   -8.0571    5.1332   -9.2568 C   0  0  0  0  0  0  0  0  0  0  0  0
   -8.4752    3.9594   -8.6574 C   0  0  0  0  0  0  0  0  0  0  0  0
   -8.8027    2.8457   -9.4173 C   0  0  0  0  0  0  0  0  0  0  0  0
   -8.7281    2.8702  -10.8016 C   0  0  0  0  0  0  0  0  0  0  0  0
   -9.2160    1.7309   -8.5193 C   0  0  0  0  0  0  0  0  0  0  0  0
   -9.1240    2.2515   -7.1291 N   0  0  0  0  0  0  0  0  0  0  0  0
   -8.6733    3.6562   -7.2136 C   0  0  0  0  0  0  0  0  0  0  0  0
   -8.4521    1.7011   -6.5943 H   0  0  0  0  0  0  0  0  0  0  0  0
  1  2  1  0  0  0
  2  3  1  0  0  0
  3  4  1  0  0  0
  4  5  1  0  0  0
  4  6  2  0  0  0
  6  7  1  0  0  0
  7 17  1  0  0  0
 17 18  2  0  0  0
 17 19  1  0  0  0
 19 21  1  0  0  0
 21 22  2  0  0  0
 22 23  1  0  0  0
 23 24  2  0  0  0
 24 25  1  0  0  0
 25 26  2  0  0  0
 25 27  1  0  0  0
 27 28  1  0  0  0
 28 29  1  0  0  0
  7  8  2  0  0  0
  8  9  1  0  0  0
  9 10  2  0  0  0
 10 11  1  0  0  0
 11  2  2  0  0  0
 11  6  1  0  0  0
 26 21  1  0  0  0
 29 24  1  0  0  0
  1 12  1  0  0  0
  1 13  1  0  0  0
  3 14  1  0  0  0
  5 15  1  0  0  0
  5 16  1  0  0  0
 19 20  1  0  0  0
 28 30  1  0  0  0
M  END
> <minimizedAffinity>
-9.36863

> <minimizedRMSD>
0.34753

$$$$
P18151


 28 31  0  0  0  0  0  0  0  0999 V2000
   -4.6596    5.9909  -14.7971 N   0  0  0  0  0  0  0  0  0  0  0  0
   -5.3200    5.4478  -15.8588 C   0  0  0  0  0  0  0  0  0  0  0  0
   -4.7006    5.2752  -17.0854 N   0  0  0  0  0  0  0  0  0  0  0  0
   -5.6353    4.9107  -18.0796 O   0  0  0  0  0  0  0  0  0  0  0  0
   -6.7965    4.7267  -17.3574 C   0  0  0  0  0  0  0  0  0  0  0  0
   -7.9775    4.3542  -17.8516 C   0  0  0  0  0  0  0  0  0  0  0  0
   -9.1147    4.2527  -16.9146 C   0  0  0  0  0  0  0  0  0  0  0  0
  -10.2302    3.9353  -17.3053 O   0  0  0  0  0  0  0  0  0  0  0  0
   -8.8892    4.5461  -15.4704 C   0  0  0  0  0  0  0  0  0  0  0  0
   -7.6813    4.9228  -15.0148 C   0  0  0  0  0  0  0  0  0  0  0  0
   -6.5974    5.0435  -15.9625 C   0  0  0  0  0  0  0  0  0  0  0  0
   -3.7103    6.2378  -14.8819 H   0  0  0  0  0  0  0  0  0  0  0  0
   -5.1318    6.1363  -13.9456 H   0  0  0  0  0  0  0  0  0  0  0  0
   -3.7358    5.3913  -17.2436 H   0  0  0  0  0  0  0  0  0  0  0  0
   -7.5416    5.3211  -13.5791 C   0  0  0  0  0  0  0  0  0  0  0  0
   -7.0205    6.3280  -13.2938 O   0  0  0  0  0  0  0  0  0  0  0  0
   -8.2045    4.2425  -12.6819 N   0  0  0  0  0  0  0  0  0  0  0  0
   -8.6466    3.5127  -13.1729 H   0  0  0  0  0  0  0  0  0  0  0  0
   -8.2757    4.1388  -11.2931 C   0  0  0  0  0  0  0  0  0  0  0  0
   -7.9733    5.2369  -10.4717 C   0  0  0  0  0  0  0  0  0  0  0  0
   -8.0962    5.1475   -9.0817 C   0  0  0  0  0  0  0  0  0  0  0  0
   -8.5207    3.9502   -8.5366 C   0  0  0  0  0  0  0  0  0  0  0  0
   -8.8100    2.8595   -9.3440 C   0  0  0  0  0  0  0  0  0  0  0  0
   -8.6921    2.9322  -10.7240 C   0  0  0  0  0  0  0  0  0  0  0  0
   -9.2434    1.7122   -8.4971 C   0  0  0  0  0  0  0  0  0  0  0  0
   -9.2089    2.1891   -7.0891 N   0  0  0  0  0  0  0  0  0  0  0  0
   -8.7679    3.5988   -7.1113 C   0  0  0  0  0  0  0  0  0  0  0  0
   -8.5531    1.6271   -6.5465 H   0  0  0  0  0  0  0  0  0  0  0  0
  1  2  1  0  0  0
  2  3  1  0  0  0
  3  4  1  0  0  0
  4  5  1  0  0  0
  5  6  2  0  0  0
  6  7  1  0  0  0
  7  8  2  0  0  0
  7  9  1  0  0  0
  9 10  2  0  0  0
 10 15  1  0  0  0
 15 16  2  0  0  0
 15 17  1  0  0  0
 17 19  1  0  0  0
 19 20  2  0  0  0
 20 21  1  0  0  0
 21 22  2  0  0  0
 22 23  1  0  0  0
 23 24  2  0  0  0
 23 25  1  0  0  0
 25 26  1  0  0  0
 26 27  1  0  0  0
 10 11  1  0  0  0
 11  2  2  0  0  0
 11  5  1  0  0  0
 24 19  1  0  0  0
 27 22  1  0  0  0
  1 12  1  0  0  0
  1 13  1  0  0  0
  3 14  1  0  0  0
 17 18  1  0  0  0
 26 28  1  0  0  0
M  END
> <minimizedAffinity>
-8.78397

> <minimizedRMSD>
0.37688

$$$$
P18152


 32 35  0  0  0  0  0  0  0  0999 V2000
   -4.7501    5.6240  -17.7966 C   0  0  0  0  0  0  0  0  0  0  0  0
   -5.7520    5.0797  -18.5495 O   0  0  0  0  0  0  0  0  0  0  0  0
   -6.7779    4.7650  -17.7189 C   0  0  0  0  0  0  0  0  0  0  0  0
   -7.9955    4.2295  -18.1366 C   0  0  0  0  0  0  0  0  0  0  0  0
   -8.9643    4.0166  -17.1595 C   0  0  0  0  0  0  0  0  0  0  0  0
   -8.6967    4.3044  -15.8230 C   0  0  0  0  0  0  0  0  0  0  0  0
   -7.4432    4.8178  -15.4206 C   0  0  0  0  0  0  0  0  0  0  0  0
   -6.4573    5.0728  -16.4014 C   0  0  0  0  0  0  0  0  0  0  0  0
   -5.1311    5.6042  -16.4660 C   0  0  0  0  0  0  0  0  0  0  0  0
   -4.4163    6.0444  -15.4117 N   0  0  0  0  0  0  0  0  0  0  0  0
   -4.7892    5.9804  -14.5029 H   0  0  0  0  0  0  0  0  0  0  0  0
   -3.5211    6.4300  -15.5504 H   0  0  0  0  0  0  0  0  0  0  0  0
   -7.2458    5.2051  -13.9956 C   0  0  0  0  0  0  0  0  0  0  0  0
   -6.7987    6.2589  -13.7543 O   0  0  0  0  0  0  0  0  0  0  0  0
   -7.7946    4.1048  -13.0490 N   0  0  0  0  0  0  0  0  0  0  0  0
   -8.0477    3.2650  -13.4962 H   0  0  0  0  0  0  0  0  0  0  0  0
   -7.9874    4.1119  -11.6676 C   0  0  0  0  0  0  0  0  0  0  0  0
   -7.7958    5.2712  -10.9009 C   0  0  0  0  0  0  0  0  0  0  0  0
   -8.0514    5.2694   -9.5233 C   0  0  0  0  0  0  0  0  0  0  0  0
   -8.4958    4.0975   -8.9382 C   0  0  0  0  0  0  0  0  0  0  0  0
   -8.6707    2.9427   -9.6922 C   0  0  0  0  0  0  0  0  0  0  0  0
   -8.4240    2.9310  -11.0552 C   0  0  0  0  0  0  0  0  0  0  0  0
   -9.1016    1.8317   -8.7911 C   0  0  0  0  0  0  0  0  0  0  0  0
   -9.5315    2.4978   -7.5339 N   0  0  0  0  0  0  0  0  0  0  0  0
   -8.8330    3.8015   -7.5147 C   0  0  0  0  0  0  0  0  0  0  0  0
   -9.2627    1.9381   -6.7246 H   0  0  0  0  0  0  0  0  0  0  0  0
   -3.2106    7.5626  -18.2113 C   0  0  0  0  0  0  0  0  0  0  0  0
   -3.5889    6.1323  -18.6078 C   0  0  0  0  0  0  0  0  0  0  0  0
   -2.3810    5.1781  -18.5749 C   0  0  0  0  0  0  0  0  0  0  0  0
   -1.3258    5.5619  -19.5246 N   0  0  0  0  0  0  0  0  0  0  0  0
   -1.6951    5.5289  -20.4748 H   0  0  0  0  0  0  0  0  0  0  0  0
   -0.5420    4.9144  -19.4418 H   0  0  0  0  0  0  0  0  0  0  0  0
 28 27  1  0  0  0
 28 29  1  0  0  0
 29 30  1  0  0  0
 28  1  1  0  0  0
  1  2  1  0  0  0
  2  3  1  0  0  0
  3  4  2  0  0  0
  4  5  1  0  0  0
  5  6  2  0  0  0
  6  7  1  0  0  0
  7 13  1  0  0  0
 13 14  2  0  0  0
 13 15  1  0  0  0
 15 17  1  0  0  0
 17 18  2  0  0  0
 18 19  1  0  0  0
 19 20  2  0  0  0
 20 21  1  0  0  0
 21 22  2  0  0  0
 21 23  1  0  0  0
 23 24  1  0  0  0
 24 25  1  0  0  0
  7  8  2  0  0  0
  8  9  1  0  0  0
  9 10  1  0  0  0
  9  1  2  0  0  0
  8  3  1  0  0  0
 22 17  1  0  0  0
 25 20  1  0  0  0
 30 31  1  0  0  0
 30 32  1  0  0  0
 15 16  1  0  0  0
 24 26  1  0  0  0
 10 11  1  0  0  0
 10 12  1  0  0  0
M  END
> <minimizedAffinity>
-8.43684

> <minimizedRMSD>
0.06963

$$$$
P18153


 29 32  0  0  0  0  0  0  0  0999 V2000
   -5.6344    5.0989  -17.7094 C   0  0  0  0  0  0  0  0  0  0  0  0
   -4.9518    5.5270  -16.5873 N   0  0  0  0  0  0  0  0  0  0  0  0
   -5.7642    5.5250  -15.4790 C   0  0  0  0  0  0  0  0  0  0  0  0
   -5.3007    5.9998  -14.3031 N   0  0  0  0  0  0  0  0  0  0  0  0
   -6.9711    4.9934  -15.8666 C   0  0  0  0  0  0  0  0  0  0  0  0
   -8.1236    4.7840  -15.1035 C   0  0  0  0  0  0  0  0  0  0  0  0
   -9.1730    4.2269  -15.8788 C   0  0  0  0  0  0  0  0  0  0  0  0
   -9.0587    3.9146  -17.2732 C   0  0  0  0  0  0  0  0  0  0  0  0
   -7.8909    4.1314  -18.0334 C   0  0  0  0  0  0  0  0  0  0  0  0
   -6.8706    4.6843  -17.2606 C   0  0  0  0  0  0  0  0  0  0  0  0
   -4.0055    5.7984  -16.5823 H   0  0  0  0  0  0  0  0  0  0  0  0
   -4.3805    6.3441  -14.2396 H   0  0  0  0  0  0  0  0  0  0  0  0
   -5.8829    6.0018  -13.5092 H   0  0  0  0  0  0  0  0  0  0  0  0
   -8.3094    5.2231  -13.7073 C   0  0  0  0  0  0  0  0  0  0  0  0
   -8.5786    6.3407  -13.4985 O   0  0  0  0  0  0  0  0  0  0  0  0
   -8.1847    4.0251  -12.7394 N   0  0  0  0  0  0  0  0  0  0  0  0
   -8.0187    3.1583  -13.1757 H   0  0  0  0  0  0  0  0  0  0  0  0
   -8.2689    3.9719  -11.3517 C   0  0  0  0  0  0  0  0  0  0  0  0
   -7.9421    5.0879  -10.5635 C   0  0  0  0  0  0  0  0  0  0  0  0
   -8.1001    5.0545   -9.1749 C   0  0  0  0  0  0  0  0  0  0  0  0
   -8.5941    3.8974   -8.6048 C   0  0  0  0  0  0  0  0  0  0  0  0
   -8.8914    2.7825   -9.3832 C   0  0  0  0  0  0  0  0  0  0  0  0
   -8.7304    2.7964  -10.7567 C   0  0  0  0  0  0  0  0  0  0  0  0
   -9.3579    1.6806   -8.4926 C   0  0  0  0  0  0  0  0  0  0  0  0
   -9.7108    2.3477   -7.2129 N   0  0  0  0  0  0  0  0  0  0  0  0
   -8.9016    3.5857   -7.1781 C   0  0  0  0  0  0  0  0  0  0  0  0
   -9.4785    1.7473   -6.4217 H   0  0  0  0  0  0  0  0  0  0  0  0
   -3.7003    4.9689  -19.1762 C   0  0  0  0  0  0  0  0  0  0  0  0
   -5.0154    5.1263  -18.9799 C   0  0  0  0  0  0  0  0  0  0  0  0
 28 29  2  0  0  0
 29  1  1  0  0  0
  1  2  1  0  0  0
  2  3  1  0  0  0
  3  4  1  0  0  0
  3  5  2  0  0  0
  5  6  1  0  0  0
  6 14  1  0  0  0
 14 15  2  0  0  0
 14 16  1  0  0  0
 16 18  1  0  0  0
 18 19  2  0  0  0
 19 20  1  0  0  0
 20 21  2  0  0  0
 21 22  1  0  0  0
 22 23  2  0  0  0
 22 24  1  0  0  0
 24 25  1  0  0  0
 25 26  1  0  0  0
  6  7  2  0  0  0
  7  8  1  0  0  0
  8  9  2  0  0  0
  9 10  1  0  0  0
 10  1  2  0  0  0
 10  5  1  0  0  0
 23 18  1  0  0  0
 26 21  1  0  0  0
  2 11  1  0  0  0
  4 12  1  0  0  0
  4 13  1  0  0  0
 16 17  1  0  0  0
 25 27  1  0  0  0
M  END
> <minimizedAffinity>
-9.09831

> <minimizedRMSD>
0.62244

$$$$
P18154


 27 30  0  0  0  0  0  0  0  0999 V2000
   -7.5717    5.3236  -13.5160 C   0  0  0  0  0  0  0  0  0  0  0  0
   -7.3030    6.4265  -13.2373 O   0  0  0  0  0  0  0  0  0  0  0  0
   -8.0571    4.1545  -12.6269 N   0  0  0  0  0  0  0  0  0  0  0  0
   -8.2915    3.3336  -13.1172 H   0  0  0  0  0  0  0  0  0  0  0  0
  -10.0521    3.9968  -17.6540 C   0  0  0  0  0  0  0  0  0  0  0  0
   -8.7756    4.3234  -16.9585 C   0  0  0  0  0  0  0  0  0  0  0  0
   -8.7481    4.5468  -15.5789 C   0  0  0  0  0  0  0  0  0  0  0  0
   -7.5575    4.9386  -14.9443 C   0  0  0  0  0  0  0  0  0  0  0  0
   -6.3899    5.0900  -15.7118 C   0  0  0  0  0  0  0  0  0  0  0  0
   -5.0392    5.4758  -15.5226 C   0  0  0  0  0  0  0  0  0  0  0  0
   -4.5222    5.8581  -14.3371 N   0  0  0  0  0  0  0  0  0  0  0  0
   -4.3468    5.4335  -16.6637 N   0  0  0  0  0  0  0  0  0  0  0  0
   -5.2429    5.0148  -17.6332 O   0  0  0  0  0  0  0  0  0  0  0  0
   -6.4588    4.8167  -17.0650 C   0  0  0  0  0  0  0  0  0  0  0  0
   -7.6095    4.4195  -17.7289 C   0  0  0  0  0  0  0  0  0  0  0  0
   -5.0893    5.8663  -13.5324 H   0  0  0  0  0  0  0  0  0  0  0  0
   -3.5776    6.1289  -14.2764 H   0  0  0  0  0  0  0  0  0  0  0  0
   -8.2164    4.0743  -11.2465 C   0  0  0  0  0  0  0  0  0  0  0  0
   -7.9595    5.1832  -10.4259 C   0  0  0  0  0  0  0  0  0  0  0  0
   -8.1586    5.1104   -9.0444 C   0  0  0  0  0  0  0  0  0  0  0  0
   -8.6000    3.9152   -8.5083 C   0  0  0  0  0  0  0  0  0  0  0  0
   -8.8449    2.8147   -9.3175 C   0  0  0  0  0  0  0  0  0  0  0  0
   -8.6683    2.8752  -10.6904 C   0  0  0  0  0  0  0  0  0  0  0  0
   -9.2973    1.6692   -8.4799 C   0  0  0  0  0  0  0  0  0  0  0  0
   -9.2669    2.1390   -7.0698 N   0  0  0  0  0  0  0  0  0  0  0  0
   -8.9073    3.5724   -7.0927 C   0  0  0  0  0  0  0  0  0  0  0  0
   -8.5711    1.6128   -6.5413 H   0  0  0  0  0  0  0  0  0  0  0  0
  5  6  1  0  0  0
  6  7  2  0  0  0
  7  8  1  0  0  0
  8  1  1  0  0  0
  1  2  2  0  0  0
  1  3  1  0  0  0
  3 18  1  0  0  0
 18 19  2  0  0  0
 19 20  1  0  0  0
 20 21  2  0  0  0
 21 22  1  0  0  0
 22 23  2  0  0  0
 22 24  1  0  0  0
 24 25  1  0  0  0
 25 26  1  0  0  0
  8  9  2  0  0  0
  9 10  1  0  0  0
 10 11  1  0  0  0
 10 12  2  0  0  0
 12 13  1  0  0  0
 13 14  1  0  0  0
 14 15  2  0  0  0
 15  6  1  0  0  0
 23 18  1  0  0  0
 14  9  1  0  0  0
 26 21  1  0  0  0
  3  4  1  0  0  0
 25 27  1  0  0  0
 11 16  1  0  0  0
 11 17  1  0  0  0
M  END
> <minimizedAffinity>
-8.60281

> <minimizedRMSD>
0.35150

$$$$
P18156


 26 29  0  0  0  0  0  0  0  0999 V2000
   -7.5383    5.0804  -14.0379 C   0  0  0  0  0  0  0  0  0  0  0  0
   -7.1918    6.1794  -13.8366 O   0  0  0  0  0  0  0  0  0  0  0  0
   -7.9499    3.9594  -13.0490 N   0  0  0  0  0  0  0  0  0  0  0  0
   -8.1304    3.0866  -13.4672 H   0  0  0  0  0  0  0  0  0  0  0  0
   -4.6588    5.7231  -15.3986 N   0  0  0  0  0  0  0  0  0  0  0  0
   -5.3800    5.3367  -16.4661 C   0  0  0  0  0  0  0  0  0  0  0  0
   -4.9070    5.3497  -17.7128 N   0  0  0  0  0  0  0  0  0  0  0  0
   -5.9295    4.8569  -18.5055 O   0  0  0  0  0  0  0  0  0  0  0  0
   -7.0062    4.5690  -17.7285 C   0  0  0  0  0  0  0  0  0  0  0  0
   -8.2202    4.0534  -18.1748 C   0  0  0  0  0  0  0  0  0  0  0  0
   -9.2124    3.8614  -17.2135 C   0  0  0  0  0  0  0  0  0  0  0  0
   -8.9742    4.1568  -15.8709 C   0  0  0  0  0  0  0  0  0  0  0  0
   -7.7272    4.6570  -15.4478 C   0  0  0  0  0  0  0  0  0  0  0  0
   -6.7205    4.8741  -16.4084 C   0  0  0  0  0  0  0  0  0  0  0  0
   -3.7319    6.0331  -15.5168 H   0  0  0  0  0  0  0  0  0  0  0  0
   -5.0578    5.6959  -14.4990 H   0  0  0  0  0  0  0  0  0  0  0  0
   -8.1061    3.9864  -11.6626 C   0  0  0  0  0  0  0  0  0  0  0  0
   -7.7903    5.1248  -10.9049 C   0  0  0  0  0  0  0  0  0  0  0  0
   -8.0080    5.1475   -9.5210 C   0  0  0  0  0  0  0  0  0  0  0  0
   -8.5288    4.0165   -8.9190 C   0  0  0  0  0  0  0  0  0  0  0  0
   -8.8136    2.8773   -9.6629 C   0  0  0  0  0  0  0  0  0  0  0  0
   -8.6175    2.8464  -11.0333 C   0  0  0  0  0  0  0  0  0  0  0  0
   -9.2853    1.7993   -8.7432 C   0  0  0  0  0  0  0  0  0  0  0  0
   -9.6345    2.4968   -7.4788 N   0  0  0  0  0  0  0  0  0  0  0  0
   -8.8503    3.7512   -7.4857 C   0  0  0  0  0  0  0  0  0  0  0  0
   -9.3812    1.9232   -6.6742 H   0  0  0  0  0  0  0  0  0  0  0  0
  5  6  1  0  0  0
  6  7  2  0  0  0
  7  8  1  0  0  0
  8  9  1  0  0  0
  9 10  2  0  0  0
 10 11  1  0  0  0
 11 12  2  0  0  0
 12 13  1  0  0  0
 13  1  1  0  0  0
  1  2  2  0  0  0
  1  3  1  0  0  0
  3 17  1  0  0  0
 17 18  2  0  0  0
 18 19  1  0  0  0
 19 20  2  0  0  0
 20 21  1  0  0  0
 21 22  2  0  0  0
 21 23  1  0  0  0
 23 24  1  0  0  0
 24 25  1  0  0  0
 13 14  2  0  0  0
 14  6  1  0  0  0
 14  9  1  0  0  0
 22 17  1  0  0  0
 25 20  1  0  0  0
  5 15  1  0  0  0
  5 16  1  0  0  0
  3  4  1  0  0  0
 24 26  1  0  0  0
M  END
> <minimizedAffinity>
-8.67126

> <minimizedRMSD>
0.19542

$$$$
P18169


 30 33  0  0  0  0  0  0  0  0999 V2000
   -4.6845    5.7107  -15.5455 N   0  0  0  0  0  0  0  0  0  0  0  0
   -5.4561    5.2755  -16.5574 C   0  0  0  0  0  0  0  0  0  0  0  0
   -5.1178    5.2468  -17.8934 C   0  0  0  0  0  0  0  0  0  0  0  0
   -6.1322    4.7214  -18.6190 O   0  0  0  0  0  0  0  0  0  0  0  0
   -7.1474    4.4891  -17.7626 C   0  0  0  0  0  0  0  0  0  0  0  0
   -8.3894    4.0315  -18.1710 C   0  0  0  0  0  0  0  0  0  0  0  0
   -9.3558    3.9173  -17.1839 C   0  0  0  0  0  0  0  0  0  0  0  0
   -9.0541    4.1993  -15.8513 C   0  0  0  0  0  0  0  0  0  0  0  0
   -7.7764    4.6416  -15.4587 C   0  0  0  0  0  0  0  0  0  0  0  0
   -6.7955    4.8120  -16.4556 C   0  0  0  0  0  0  0  0  0  0  0  0
   -3.7643    6.0123  -15.7227 H   0  0  0  0  0  0  0  0  0  0  0  0
   -5.0399    5.7276  -14.6276 H   0  0  0  0  0  0  0  0  0  0  0  0
   -3.9801    5.7332  -18.6663 C   0  0  0  0  0  0  0  0  0  0  0  0
   -2.8701    5.0087  -18.3778 F   0  0  0  0  0  0  0  0  0  0  0  0
   -3.6931    7.0254  -18.3547 F   0  0  0  0  0  0  0  0  0  0  0  0
   -4.1506    5.6735  -20.0109 F   0  0  0  0  0  0  0  0  0  0  0  0
   -7.5616    5.0819  -14.0518 C   0  0  0  0  0  0  0  0  0  0  0  0
   -7.2167    6.1825  -13.8563 O   0  0  0  0  0  0  0  0  0  0  0  0
   -7.9526    3.9583  -13.0549 N   0  0  0  0  0  0  0  0  0  0  0  0
   -8.1359    3.0846  -13.4699 H   0  0  0  0  0  0  0  0  0  0  0  0
   -8.0864    3.9850  -11.6666 C   0  0  0  0  0  0  0  0  0  0  0  0
   -7.7768    5.1291  -10.9148 C   0  0  0  0  0  0  0  0  0  0  0  0
   -8.0030    5.1603   -9.5314 C   0  0  0  0  0  0  0  0  0  0  0  0
   -8.5259    4.0326   -8.9240 C   0  0  0  0  0  0  0  0  0  0  0  0
   -8.8027    2.8878   -9.6624 C   0  0  0  0  0  0  0  0  0  0  0  0
   -8.5979    2.8482  -11.0316 C   0  0  0  0  0  0  0  0  0  0  0  0
   -9.2812    1.8150   -8.7406 C   0  0  0  0  0  0  0  0  0  0  0  0
   -9.6454    2.5209   -7.4849 N   0  0  0  0  0  0  0  0  0  0  0  0
   -8.8585    3.7750   -7.4913 C   0  0  0  0  0  0  0  0  0  0  0  0
   -9.4027    1.9523   -6.6736 H   0  0  0  0  0  0  0  0  0  0  0  0
  1  2  1  0  0  0
  2  3  2  0  0  0
  3 13  1  0  0  0
 13 14  1  0  0  0
 13 15  1  0  0  0
 13 16  1  0  0  0
  3  4  1  0  0  0
  4  5  1  0  0  0
  5  6  2  0  0  0
  6  7  1  0  0  0
  7  8  2  0  0  0
  8  9  1  0  0  0
  9 17  1  0  0  0
 17 18  2  0  0  0
 17 19  1  0  0  0
 19 21  1  0  0  0
 21 22  2  0  0  0
 22 23  1  0  0  0
 23 24  2  0  0  0
 24 25  1  0  0  0
 25 26  2  0  0  0
 25 27  1  0  0  0
 27 28  1  0  0  0
 28 29  1  0  0  0
  9 10  2  0  0  0
 10  2  1  0  0  0
 10  5  1  0  0  0
 26 21  1  0  0  0
 29 24  1  0  0  0
  1 11  1  0  0  0
  1 12  1  0  0  0
 19 20  1  0  0  0
 28 30  1  0  0  0
M  END
> <minimizedAffinity>
-9.11116

> <minimizedRMSD>
0.47303

$$$$
P18173


 30 33  0  0  0  0  0  0  0  0999 V2000
   -8.2856    4.2409  -16.6228 C   0  0  0  0  0  0  0  0  0  0  0  0
   -8.1240    4.5309  -15.2229 C   0  0  0  0  0  0  0  0  0  0  0  0
   -6.9456    5.0513  -14.6427 C   0  0  0  0  0  0  0  0  0  0  0  0
   -5.9737    5.2857  -15.6126 C   0  0  0  0  0  0  0  0  0  0  0  0
   -4.7129    5.8057  -15.4602 C   0  0  0  0  0  0  0  0  0  0  0  0
   -4.0346    6.2569  -14.3848 N   0  0  0  0  0  0  0  0  0  0  0  0
   -4.1261    5.8201  -16.7053 N   0  0  0  0  0  0  0  0  0  0  0  0
   -4.9966    5.3547  -17.6714 C   0  0  0  0  0  0  0  0  0  0  0  0
   -4.6269    5.3021  -19.1043 C   0  0  0  0  0  0  0  0  0  0  0  0
   -6.1462    5.0030  -17.0058 C   0  0  0  0  0  0  0  0  0  0  0  0
   -7.2844    4.4662  -17.5897 C   0  0  0  0  0  0  0  0  0  0  0  0
   -4.4573    6.2451  -13.4957 H   0  0  0  0  0  0  0  0  0  0  0  0
   -3.1169    6.5979  -14.4891 H   0  0  0  0  0  0  0  0  0  0  0  0
   -3.2063    6.1226  -16.8838 H   0  0  0  0  0  0  0  0  0  0  0  0
   -6.8952    5.3777  -13.2057 C   0  0  0  0  0  0  0  0  0  0  0  0
   -6.5036    6.4234  -12.8586 O   0  0  0  0  0  0  0  0  0  0  0  0
   -7.5081    4.2114  -12.3870 N   0  0  0  0  0  0  0  0  0  0  0  0
   -7.6917    3.3953  -12.9062 H   0  0  0  0  0  0  0  0  0  0  0  0
   -7.8399    4.1310  -11.0403 C   0  0  0  0  0  0  0  0  0  0  0  0
   -7.7160    5.2367  -10.1890 C   0  0  0  0  0  0  0  0  0  0  0  0
   -8.1105    5.1505   -8.8509 C   0  0  0  0  0  0  0  0  0  0  0  0
   -8.6103    3.9463   -8.3892 C   0  0  0  0  0  0  0  0  0  0  0  0
   -8.7367    2.8522   -9.2333 C   0  0  0  0  0  0  0  0  0  0  0  0
   -8.3666    2.9256  -10.5649 C   0  0  0  0  0  0  0  0  0  0  0  0
   -9.3056    1.7013   -8.4788 C   0  0  0  0  0  0  0  0  0  0  0  0
   -9.3862    2.1324   -7.0581 N   0  0  0  0  0  0  0  0  0  0  0  0
   -9.0936    3.5816   -7.0287 C   0  0  0  0  0  0  0  0  0  0  0  0
   -8.7005    1.6252   -6.4987 H   0  0  0  0  0  0  0  0  0  0  0  0
  -10.4047    4.4362  -18.0086 C   0  0  0  0  0  0  0  0  0  0  0  0
   -9.5858    3.6315  -17.0354 C   0  0  0  0  0  0  0  0  0  0  0  0
 29 30  1  0  0  0
 30  1  1  0  0  0
  1  2  1  0  0  0
  2  3  2  0  0  0
  3 15  1  0  0  0
 15 16  2  0  0  0
 15 17  1  0  0  0
 17 19  1  0  0  0
 19 20  2  0  0  0
 20 21  1  0  0  0
 21 22  2  0  0  0
 22 23  1  0  0  0
 23 24  2  0  0  0
 23 25  1  0  0  0
 25 26  1  0  0  0
 26 27  1  0  0  0
  3  4  1  0  0  0
  4  5  2  0  0  0
  5  6  1  0  0  0
  5  7  1  0  0  0
  7  8  1  0  0  0
  8  9  1  0  0  0
  8 10  2  0  0  0
 10 11  1  0  0  0
 11  1  2  0  0  0
 24 19  1  0  0  0
 10  4  1  0  0  0
 27 22  1  0  0  0
 17 18  1  0  0  0
 26 28  1  0  0  0
  6 12  1  0  0  0
  6 13  1  0  0  0
  7 14  1  0  0  0
M  END
> <minimizedAffinity>
-8.50588

> <minimizedRMSD>
0.36511

$$$$
P18174


 29 32  0  0  0  0  0  0  0  0999 V2000
   -8.1535    4.1907  -12.9666 N   0  0  0  0  0  0  0  0  0  0  0  0
   -7.0903    4.7908  -13.9176 C   0  0  0  0  0  0  0  0  0  0  0  0
   -6.1039    5.3697  -13.6810 O   0  0  0  0  0  0  0  0  0  0  0  0
   -8.8644    3.6777  -13.4145 H   0  0  0  0  0  0  0  0  0  0  0  0
   -7.4210    4.5727  -15.3497 C   0  0  0  0  0  0  0  0  0  0  0  0
   -8.7123    4.1937  -15.7513 C   0  0  0  0  0  0  0  0  0  0  0  0
   -9.0333    4.1148  -17.1045 C   0  0  0  0  0  0  0  0  0  0  0  0
  -10.2888    3.8107  -17.4552 F   0  0  0  0  0  0  0  0  0  0  0  0
   -8.1057    4.3798  -18.1036 C   0  0  0  0  0  0  0  0  0  0  0  0
   -6.8429    4.7669  -17.6722 C   0  0  0  0  0  0  0  0  0  0  0  0
   -5.7965    5.1050  -18.4698 O   0  0  0  0  0  0  0  0  0  0  0  0
   -4.7083    5.4487  -17.6853 N   0  0  0  0  0  0  0  0  0  0  0  0
   -5.1115    5.3057  -16.4217 C   0  0  0  0  0  0  0  0  0  0  0  0
   -4.3298    5.5577  -15.3515 N   0  0  0  0  0  0  0  0  0  0  0  0
   -6.4653    4.8768  -16.3439 C   0  0  0  0  0  0  0  0  0  0  0  0
   -3.3992    5.8522  -15.4800 H   0  0  0  0  0  0  0  0  0  0  0  0
   -4.6900    5.4472  -14.4419 H   0  0  0  0  0  0  0  0  0  0  0  0
   -8.0785    5.4156  -10.7748 C   0  0  0  0  0  0  0  0  0  0  0  0
   -8.1724    5.3339   -9.3697 C   0  0  0  0  0  0  0  0  0  0  0  0
   -8.4950    4.1264   -8.7823 C   0  0  0  0  0  0  0  0  0  0  0  0
   -8.7224    3.0033   -9.5565 C   0  0  0  0  0  0  0  0  0  0  0  0
   -8.6123    3.0484  -10.9381 C   0  0  0  0  0  0  0  0  0  0  0  0
   -8.2694    4.2588  -11.5681 C   0  0  0  0  0  0  0  0  0  0  0  0
   -9.0589    1.8497   -8.6729 C   0  0  0  0  0  0  0  0  0  0  0  0
   -9.1585    2.3991   -7.2960 N   0  0  0  0  0  0  0  0  0  0  0  0
   -8.6878    3.7963   -7.3432 C   0  0  0  0  0  0  0  0  0  0  0  0
   -8.5741    1.8556   -6.6608 H   0  0  0  0  0  0  0  0  0  0  0  0
   -7.8798    7.8646  -11.6063 N   0  0  0  0  0  0  0  0  0  0  0  0
   -7.9322    6.7452  -11.2963 C   0  0  0  0  0  0  0  0  0  0  0  0
 28 29  3  0  0  0
 29 18  1  0  0  0
 18 19  2  0  0  0
 19 20  1  0  0  0
 20 21  2  0  0  0
 21 22  1  0  0  0
 22 23  2  0  0  0
 23  1  1  0  0  0
  1  2  1  0  0  0
  2  3  2  0  0  0
  2  5  1  0  0  0
  5  6  2  0  0  0
  6  7  1  0  0  0
  7  8  1  0  0  0
  7  9  2  0  0  0
  9 10  1  0  0  0
 10 11  1  0  0  0
 11 12  1  0  0  0
 12 13  2  0  0  0
 13 14  1  0  0  0
 13 15  1  0  0  0
 21 24  1  0  0  0
 24 25  1  0  0  0
 25 26  1  0  0  0
 23 18  1  0  0  0
 15  5  1  0  0  0
 26 20  1  0  0  0
 15 10  2  0  0  0
  1  4  1  0  0  0
 14 16  1  0  0  0
 14 17  1  0  0  0
 25 27  1  0  0  0
M  END
> <minimizedAffinity>
-8.58719

> <minimizedRMSD>
0.29153

$$$$
P18177


 36 39  0  0  0  0  0  0  0  0999 V2000
   -7.3053    4.8995  -13.5224 C   0  0  0  0  0  0  0  0  0  0  0  0
   -5.9720    4.7539  -13.0752 O   0  0  0  0  0  0  0  0  0  0  0  0
   -5.6666    3.8515  -13.2574 H   0  0  0  0  0  0  0  0  0  0  0  0
   -4.3583    5.9274  -14.9763 N   0  0  0  0  0  0  0  0  0  0  0  0
   -5.0537    5.4998  -16.0482 C   0  0  0  0  0  0  0  0  0  0  0  0
   -4.5671    5.5577  -17.2879 N   0  0  0  0  0  0  0  0  0  0  0  0
   -5.5728    5.0917  -18.1062 O   0  0  0  0  0  0  0  0  0  0  0  0
   -6.6503    4.7570  -17.3537 C   0  0  0  0  0  0  0  0  0  0  0  0
   -7.8581    4.3212  -17.8719 C   0  0  0  0  0  0  0  0  0  0  0  0
   -8.8564    4.1152  -16.9390 C   0  0  0  0  0  0  0  0  0  0  0  0
  -10.4603    3.9024  -17.4718 Cl  0  0  0  0  0  0  0  0  0  0  0  0
   -8.6233    4.2257  -15.5715 C   0  0  0  0  0  0  0  0  0  0  0  0
   -7.3792    4.6528  -15.0366 C   0  0  0  0  0  0  0  0  0  0  0  0
   -6.3766    4.9585  -16.0054 C   0  0  0  0  0  0  0  0  0  0  0  0
   -3.4494    6.2881  -15.0911 H   0  0  0  0  0  0  0  0  0  0  0  0
   -4.7589    5.8791  -14.0783 H   0  0  0  0  0  0  0  0  0  0  0  0
   -7.9027    6.3730  -13.2616 C   0  0  0  0  0  0  0  0  0  0  0  0
   -9.0408    6.6370  -13.3478 O   0  0  0  0  0  0  0  0  0  0  0  0
   -6.6869    7.2634  -12.8586 N   0  0  0  0  0  0  0  0  0  0  0  0
   -5.8302    6.7837  -12.7870 H   0  0  0  0  0  0  0  0  0  0  0  0
   -6.6140    8.6792  -12.5732 C   0  0  0  0  0  0  0  0  0  0  0  0
   -7.1402    9.0466  -11.1900 C   0  0  0  0  0  0  0  0  0  0  0  0
   -8.4884    8.9163  -11.1363 F   0  0  0  0  0  0  0  0  0  0  0  0
   -6.6297    8.1924  -10.2641 F   0  0  0  0  0  0  0  0  0  0  0  0
   -8.0345    3.8825  -12.7649 N   0  0  0  0  0  0  0  0  0  0  0  0
   -8.3906    3.1089  -13.2588 H   0  0  0  0  0  0  0  0  0  0  0  0
   -8.2599    3.9365  -11.3812 C   0  0  0  0  0  0  0  0  0  0  0  0
   -7.9399    5.0383  -10.5595 C   0  0  0  0  0  0  0  0  0  0  0  0
   -8.1278    5.0221   -9.1723 C   0  0  0  0  0  0  0  0  0  0  0  0
   -8.5875    3.8625   -8.5922 C   0  0  0  0  0  0  0  0  0  0  0  0
   -8.8502    2.7465   -9.3669 C   0  0  0  0  0  0  0  0  0  0  0  0
   -8.6982    2.7662  -10.7467 C   0  0  0  0  0  0  0  0  0  0  0  0
   -9.2313    1.6115   -8.4834 C   0  0  0  0  0  0  0  0  0  0  0  0
   -9.3349    2.1629   -7.1064 N   0  0  0  0  0  0  0  0  0  0  0  0
   -8.8564    3.5596   -7.1611 C   0  0  0  0  0  0  0  0  0  0  0  0
   -8.7552    1.6191   -6.4671 H   0  0  0  0  0  0  0  0  0  0  0  0
  4  5  1  0  0  0
  5  6  2  0  0  0
  6  7  1  0  0  0
  7  8  1  0  0  0
  8  9  2  0  0  0
  9 10  1  0  0  0
 10 11  1  0  0  0
 10 12  2  0  0  0
 12 13  1  0  0  0
 13  1  1  0  0  0
  1  2  1  0  0  0
  1 25  1  0  0  0
 25 27  1  0  0  0
 27 28  2  0  0  0
 28 29  1  0  0  0
 29 30  2  0  0  0
 30 31  1  0  0  0
 31 32  2  0  0  0
 31 33  1  0  0  0
 33 34  1  0  0  0
 34 35  1  0  0  0
  1 17  1  0  0  0
 17 18  2  0  0  0
 17 19  1  0  0  0
 19 21  1  0  0  0
 21 22  1  0  0  0
 22 23  1  0  0  0
 22 24  1  0  0  0
 13 14  2  0  0  0
 14  5  1  0  0  0
 14  8  1  0  0  0
 32 27  1  0  0  0
 35 30  1  0  0  0
  4 15  1  0  0  0
  4 16  1  0  0  0
  2  3  1  0  0  0
 25 26  1  0  0  0
 34 36  1  0  0  0
 19 20  1  0  0  0
M  END
> <minimizedAffinity>
-7.84881

> <minimizedRMSD>
0.57334

$$$$
P18178


 34 37  0  0  0  0  0  0  0  0999 V2000
   -4.8075    5.1673  -18.7813 C   0  0  0  0  0  0  0  0  0  0  0  0
   -5.3725    5.2263  -17.4148 C   0  0  0  0  0  0  0  0  0  0  0  0
   -6.5919    4.8527  -17.0043 C   0  0  0  0  0  0  0  0  0  0  0  0
   -7.7017    4.3075  -17.7493 C   0  0  0  0  0  0  0  0  0  0  0  0
   -8.8477    4.0750  -17.0911 C   0  0  0  0  0  0  0  0  0  0  0  0
   -9.9242    3.6333  -17.7699 F   0  0  0  0  0  0  0  0  0  0  0  0
   -9.0052    4.3526  -15.6694 C   0  0  0  0  0  0  0  0  0  0  0  0
   -7.9983    4.8619  -14.9221 C   0  0  0  0  0  0  0  0  0  0  0  0
   -6.7239    5.1346  -15.5764 C   0  0  0  0  0  0  0  0  0  0  0  0
   -5.5627    5.6568  -15.1284 C   0  0  0  0  0  0  0  0  0  0  0  0
   -4.5790    5.7571  -16.2778 N   0  0  0  0  0  0  0  0  0  0  0  0
   -3.4796    4.9849  -16.0779 O   0  0  0  0  0  0  0  0  0  0  0  0
   -4.5277    6.5307  -15.6709 H   0  0  0  0  0  0  0  0  0  0  0  0
   -8.2748    5.2981  -13.5201 C   0  0  0  0  0  0  0  0  0  0  0  0
   -8.5200    6.4164  -13.2864 O   0  0  0  0  0  0  0  0  0  0  0  0
   -8.1856    4.0725  -12.5786 N   0  0  0  0  0  0  0  0  0  0  0  0
   -8.0360    3.2127  -13.0343 H   0  0  0  0  0  0  0  0  0  0  0  0
   -8.2824    3.9884  -11.1919 C   0  0  0  0  0  0  0  0  0  0  0  0
   -7.9717    5.0929  -10.3812 C   0  0  0  0  0  0  0  0  0  0  0  0
   -8.1138    5.0247   -8.9926 C   0  0  0  0  0  0  0  0  0  0  0  0
   -8.5709    3.8435   -8.4399 C   0  0  0  0  0  0  0  0  0  0  0  0
   -8.8675    2.7474   -9.2384 C   0  0  0  0  0  0  0  0  0  0  0  0
   -8.7253    2.7966  -10.6160 C   0  0  0  0  0  0  0  0  0  0  0  0
   -9.3226    1.6157   -8.3833 C   0  0  0  0  0  0  0  0  0  0  0  0
   -9.3839    2.1379   -6.9929 N   0  0  0  0  0  0  0  0  0  0  0  0
   -8.8412    3.5115   -7.0140 C   0  0  0  0  0  0  0  0  0  0  0  0
   -8.8238    1.5510   -6.3748 H   0  0  0  0  0  0  0  0  0  0  0  0
   -5.2543    6.1924  -13.8892 N   0  0  0  0  0  0  0  0  0  0  0  0
   -5.3700    7.1607  -13.7538 H   0  0  0  0  0  0  0  0  0  0  0  0
   -4.7659    5.3873  -12.7757 C   0  0  0  0  0  0  0  0  0  0  0  0
   -4.6987    3.9158  -13.1636 C   0  0  0  0  0  0  0  0  0  0  0  0
   -4.6858    3.0269  -11.9308 C   0  0  0  0  0  0  0  0  0  0  0  0
   -4.6283    1.6654  -12.3416 O   0  0  0  0  0  0  0  0  0  0  0  0
   -5.4026    1.4597  -12.8884 H   0  0  0  0  0  0  0  0  0  0  0  0
  1  2  1  0  0  0
  2  3  2  0  0  0
  3  4  1  0  0  0
  4  5  2  0  0  0
  5  6  1  0  0  0
  5  7  1  0  0  0
  7  8  2  0  0  0
  8 14  1  0  0  0
 14 15  2  0  0  0
 14 16  1  0  0  0
 16 18  1  0  0  0
 18 19  2  0  0  0
 19 20  1  0  0  0
 20 21  2  0  0  0
 21 22  1  0  0  0
 22 23  2  0  0  0
 22 24  1  0  0  0
 24 25  1  0  0  0
 25 26  1  0  0  0
  8  9  1  0  0  0
  9 10  2  0  0  0
 10 28  1  0  0  0
 28 30  1  0  0  0
 30 31  1  0  0  0
 31 32  1  0  0  0
 32 33  1  0  0  0
 10 11  1  0  0  0
 11 12  1  0  0  0
 11  2  1  0  0  0
  9  3  1  0  0  0
 23 18  1  0  0  0
 26 21  1  0  0  0
 16 17  1  0  0  0
 25 27  1  0  0  0
 28 29  1  0  0  0
 33 34  1  0  0  0
 11 13  1  0  0  0
M  CHG 1  11   1
M  CHG 1  12  -1
M  END
> <minimizedAffinity>
-8.79059

> <minimizedRMSD>
2.16959

$$$$
P18179


 32 35  0  0  0  0  0  0  0  0999 V2000
   -5.5511    5.3610  -15.7386 C   0  0  0  0  0  0  0  0  0  0  0  0
   -6.9014    4.9675  -15.9584 C   0  0  0  0  0  0  0  0  0  0  0  0
   -8.0905    4.7767  -15.2227 C   0  0  0  0  0  0  0  0  0  0  0  0
   -9.2272    4.2368  -15.8450 C   0  0  0  0  0  0  0  0  0  0  0  0
   -9.2096    3.9416  -17.1989 C   0  0  0  0  0  0  0  0  0  0  0  0
  -10.3259    3.4851  -17.7783 F   0  0  0  0  0  0  0  0  0  0  0  0
   -8.0774    4.1438  -17.9735 C   0  0  0  0  0  0  0  0  0  0  0  0
   -6.9555    4.6462  -17.3180 C   0  0  0  0  0  0  0  0  0  0  0  0
   -5.7619    4.8728  -17.9235 O   0  0  0  0  0  0  0  0  0  0  0  0
   -4.8751    5.2962  -16.9056 N   0  0  0  0  0  0  0  0  0  0  0  0
   -3.6755    5.4823  -17.2268 O   0  0  0  0  0  0  0  0  0  0  0  0
   -8.2498    5.2464  -13.8379 C   0  0  0  0  0  0  0  0  0  0  0  0
   -8.5577    6.3575  -13.6591 O   0  0  0  0  0  0  0  0  0  0  0  0
   -8.0095    4.0996  -12.8313 N   0  0  0  0  0  0  0  0  0  0  0  0
   -7.6794    3.2627  -13.2312 H   0  0  0  0  0  0  0  0  0  0  0  0
   -8.1840    4.0567  -11.4490 C   0  0  0  0  0  0  0  0  0  0  0  0
   -7.9302    5.1833  -10.6498 C   0  0  0  0  0  0  0  0  0  0  0  0
   -8.1086    5.1355   -9.2631 C   0  0  0  0  0  0  0  0  0  0  0  0
   -8.5775    3.9614   -8.7055 C   0  0  0  0  0  0  0  0  0  0  0  0
   -8.8406    2.8465   -9.4953 C   0  0  0  0  0  0  0  0  0  0  0  0
   -8.6267    2.8663  -10.8641 C   0  0  0  0  0  0  0  0  0  0  0  0
   -9.3418    1.7409   -8.6246 C   0  0  0  0  0  0  0  0  0  0  0  0
   -9.6867    2.3914   -7.3321 N   0  0  0  0  0  0  0  0  0  0  0  0
   -8.8788    3.6285   -7.2830 C   0  0  0  0  0  0  0  0  0  0  0  0
   -9.4495    1.7798   -6.5510 H   0  0  0  0  0  0  0  0  0  0  0  0
   -4.8443    5.6769  -14.6151 N   0  0  0  0  0  0  0  0  0  0  0  0
   -4.1164    5.0924  -14.3025 H   0  0  0  0  0  0  0  0  0  0  0  0
   -5.1677    6.8399  -13.9153 O   0  0  0  0  0  0  0  0  0  0  0  0
   -5.0278    6.5557  -12.5128 C   0  0  0  0  0  0  0  0  0  0  0  0
   -5.3998    7.7952  -11.6995 C   0  0  0  0  0  0  0  0  0  0  0  0
   -7.4875    8.8495  -11.3770 C   0  0  0  0  0  0  0  0  0  0  0  0
   -6.4821    8.4956  -12.3128 O   0  0  0  0  0  0  0  0  0  0  0  0
 31 32  1  0  0  0
 32 30  1  0  0  0
 30 29  1  0  0  0
 29 28  1  0  0  0
 28 26  1  0  0  0
 26  1  1  0  0  0
  1  2  1  0  0  0
  2  3  2  0  0  0
  3 12  1  0  0  0
 12 13  2  0  0  0
 12 14  1  0  0  0
 14 16  1  0  0  0
 16 17  2  0  0  0
 17 18  1  0  0  0
 18 19  2  0  0  0
 19 20  1  0  0  0
 20 21  2  0  0  0
 20 22  1  0  0  0
 22 23  1  0  0  0
 23 24  1  0  0  0
  3  4  1  0  0  0
  4  5  2  0  0  0
  5  6  1  0  0  0
  5  7  1  0  0  0
  7  8  2  0  0  0
  8  9  1  0  0  0
  9 10  1  0  0  0
 10 11  1  0  0  0
 10  1  2  0  0  0
  8  2  1  0  0  0
 21 16  1  0  0  0
 24 19  1  0  0  0
 26 27  1  0  0  0
 14 15  1  0  0  0
 23 25  1  0  0  0
M  CHG 1  10   1
M  CHG 1  11  -1
M  END
> <minimizedAffinity>
-7.22300

> <minimizedRMSD>
0.78079

$$$$
P18180


 27 30  0  0  0  0  0  0  0  0999 V2000
   -7.6389    5.1433  -14.0580 C   0  0  0  0  0  0  0  0  0  0  0  0
   -7.2883    6.2384  -13.8464 O   0  0  0  0  0  0  0  0  0  0  0  0
   -8.0316    4.0087  -13.0804 N   0  0  0  0  0  0  0  0  0  0  0  0
   -8.2204    3.1426  -13.5087 H   0  0  0  0  0  0  0  0  0  0  0  0
   -4.7358    5.9096  -15.3287 N   0  0  0  0  0  0  0  0  0  0  0  0
   -5.4258    5.4072  -16.3887 C   0  0  0  0  0  0  0  0  0  0  0  0
   -6.7539    4.9120  -16.4012 C   0  0  0  0  0  0  0  0  0  0  0  0
   -7.7913    4.7064  -15.4691 C   0  0  0  0  0  0  0  0  0  0  0  0
   -9.0123    4.1639  -15.9091 C   0  0  0  0  0  0  0  0  0  0  0  0
   -9.2103    3.8398  -17.2509 C   0  0  0  0  0  0  0  0  0  0  0  0
   -8.1967    4.0314  -18.1901 C   0  0  0  0  0  0  0  0  0  0  0  0
   -6.9948    4.5611  -17.7259 C   0  0  0  0  0  0  0  0  0  0  0  0
   -5.9071    4.8083  -18.5016 O   0  0  0  0  0  0  0  0  0  0  0  0
   -4.8946    5.3028  -17.6319 N   0  0  0  0  0  0  0  0  0  0  0  0
   -3.8020    5.6226  -18.1583 O   0  0  0  0  0  0  0  0  0  0  0  0
   -5.1645    5.9655  -14.4442 H   0  0  0  0  0  0  0  0  0  0  0  0
   -3.8080    6.2171  -15.4464 H   0  0  0  0  0  0  0  0  0  0  0  0
   -8.1614    4.0139  -11.6927 C   0  0  0  0  0  0  0  0  0  0  0  0
   -7.8434    5.1482  -10.9290 C   0  0  0  0  0  0  0  0  0  0  0  0
   -8.0235    5.1504   -9.5403 C   0  0  0  0  0  0  0  0  0  0  0  0
   -8.5220    4.0078   -8.9424 C   0  0  0  0  0  0  0  0  0  0  0  0
   -8.8169    2.8756   -9.6943 C   0  0  0  0  0  0  0  0  0  0  0  0
   -8.6437    2.8594  -11.0678 C   0  0  0  0  0  0  0  0  0  0  0  0
   -9.2813    1.7904   -8.7796 C   0  0  0  0  0  0  0  0  0  0  0  0
   -9.6143    2.4786   -7.5052 N   0  0  0  0  0  0  0  0  0  0  0  0
   -8.8175    3.7249   -7.5072 C   0  0  0  0  0  0  0  0  0  0  0  0
   -9.3604    1.8947   -6.7083 H   0  0  0  0  0  0  0  0  0  0  0  0
  5  6  1  0  0  0
  6  7  1  0  0  0
  7  8  2  0  0  0
  8  1  1  0  0  0
  1  2  2  0  0  0
  1  3  1  0  0  0
  3 18  1  0  0  0
 18 19  2  0  0  0
 19 20  1  0  0  0
 20 21  2  0  0  0
 21 22  1  0  0  0
 22 23  2  0  0  0
 22 24  1  0  0  0
 24 25  1  0  0  0
 25 26  1  0  0  0
  8  9  1  0  0  0
  9 10  2  0  0  0
 10 11  1  0  0  0
 11 12  2  0  0  0
 12 13  1  0  0  0
 13 14  1  0  0  0
 14 15  1  0  0  0
 14  6  2  0  0  0
 12  7  1  0  0  0
 23 18  1  0  0  0
 26 21  1  0  0  0
  5 16  1  0  0  0
  5 17  1  0  0  0
  3  4  1  0  0  0
 25 27  1  0  0  0
M  CHG 1  14   1
M  CHG 1  15  -1
M  END
> <minimizedAffinity>
-8.79167

> <minimizedRMSD>
0.25231

$$$$
P18183


 29 32  0  0  0  0  0  0  0  0999 V2000
   -5.5598    5.1896  -17.7545 C   0  0  0  0  0  0  0  0  0  0  0  0
   -5.0423    5.5368  -16.5238 N   0  0  0  0  0  0  0  0  0  0  0  0
   -5.9869    5.4084  -15.5397 C   0  0  0  0  0  0  0  0  0  0  0  0
   -5.7078    5.8242  -14.2871 N   0  0  0  0  0  0  0  0  0  0  0  0
   -7.0997    4.8488  -16.1236 C   0  0  0  0  0  0  0  0  0  0  0  0
   -8.3334    4.5500  -15.5326 C   0  0  0  0  0  0  0  0  0  0  0  0
   -9.2403    3.9876  -16.4632 C   0  0  0  0  0  0  0  0  0  0  0  0
   -8.9233    3.7603  -17.8441 C   0  0  0  0  0  0  0  0  0  0  0  0
   -7.6819    4.0856  -18.4386 C   0  0  0  0  0  0  0  0  0  0  0  0
   -6.7988    4.6412  -17.5144 C   0  0  0  0  0  0  0  0  0  0  0  0
   -4.1169    5.8370  -16.3727 H   0  0  0  0  0  0  0  0  0  0  0  0
   -4.8237    6.2048  -14.0803 H   0  0  0  0  0  0  0  0  0  0  0  0
   -6.3883    5.7471  -13.5798 H   0  0  0  0  0  0  0  0  0  0  0  0
   -8.7236    4.9465  -14.1646 C   0  0  0  0  0  0  0  0  0  0  0  0
   -9.4094    5.8832  -14.0343 O   0  0  0  0  0  0  0  0  0  0  0  0
   -8.1525    3.9700  -13.1135 N   0  0  0  0  0  0  0  0  0  0  0  0
   -7.6571    3.2057  -13.4873 H   0  0  0  0  0  0  0  0  0  0  0  0
   -8.2240    3.9945  -11.7231 C   0  0  0  0  0  0  0  0  0  0  0  0
   -7.8856    5.1543  -11.0064 C   0  0  0  0  0  0  0  0  0  0  0  0
   -7.9854    5.1903   -9.6129 C   0  0  0  0  0  0  0  0  0  0  0  0
   -8.4265    4.0548   -8.9606 C   0  0  0  0  0  0  0  0  0  0  0  0
   -8.7514    2.9046   -9.6667 C   0  0  0  0  0  0  0  0  0  0  0  0
   -8.6550    2.8520  -11.0479 C   0  0  0  0  0  0  0  0  0  0  0  0
   -9.1668    1.8362   -8.7161 C   0  0  0  0  0  0  0  0  0  0  0  0
   -9.2014    2.4641   -7.3692 N   0  0  0  0  0  0  0  0  0  0  0  0
   -8.6415    3.8245   -7.5055 C   0  0  0  0  0  0  0  0  0  0  0  0
   -8.6394    1.9191   -6.7152 H   0  0  0  0  0  0  0  0  0  0  0  0
   -4.1497    6.0034  -19.7307 N   0  0  0  0  0  0  0  0  0  0  0  0
   -4.8468    5.5189  -18.9386 C   0  0  0  0  0  0  0  0  0  0  0  0
 28 29  3  0  0  0
 29  1  1  0  0  0
  1  2  1  0  0  0
  2  3  1  0  0  0
  3  4  1  0  0  0
  3  5  2  0  0  0
  5  6  1  0  0  0
  6 14  1  0  0  0
 14 15  2  0  0  0
 14 16  1  0  0  0
 16 18  1  0  0  0
 18 19  2  0  0  0
 19 20  1  0  0  0
 20 21  2  0  0  0
 21 22  1  0  0  0
 22 23  2  0  0  0
 22 24  1  0  0  0
 24 25  1  0  0  0
 25 26  1  0  0  0
  6  7  2  0  0  0
  7  8  1  0  0  0
  8  9  2  0  0  0
  9 10  1  0  0  0
 10  1  2  0  0  0
 10  5  1  0  0  0
 23 18  1  0  0  0
 26 21  1  0  0  0
  2 11  1  0  0  0
  4 12  1  0  0  0
  4 13  1  0  0  0
 16 17  1  0  0  0
 25 27  1  0  0  0
M  END
> <minimizedAffinity>
-9.31459

> <minimizedRMSD>
0.77701

$$$$
P18184


 28 31  0  0  0  0  0  0  0  0999 V2000
   -7.8690    5.2202  -13.9609 C   0  0  0  0  0  0  0  0  0  0  0  0
   -7.6140    6.3430  -13.7570 O   0  0  0  0  0  0  0  0  0  0  0  0
   -8.2468    4.0830  -12.9804 N   0  0  0  0  0  0  0  0  0  0  0  0
   -8.4930    3.2325  -13.4109 H   0  0  0  0  0  0  0  0  0  0  0  0
   -4.8631    5.9490  -14.9028 N   0  0  0  0  0  0  0  0  0  0  0  0
   -5.4396    5.4559  -16.0343 C   0  0  0  0  0  0  0  0  0  0  0  0
   -6.7576    4.9628  -16.1926 C   0  0  0  0  0  0  0  0  0  0  0  0
   -7.8863    4.7596  -15.3724 C   0  0  0  0  0  0  0  0  0  0  0  0
   -9.0547    4.2253  -15.9391 C   0  0  0  0  0  0  0  0  0  0  0  0
   -9.1138    3.9151  -17.2987 C   0  0  0  0  0  0  0  0  0  0  0  0
   -8.0103    4.1138  -18.1309 C   0  0  0  0  0  0  0  0  0  0  0  0
   -6.8604    4.6310  -17.5400 C   0  0  0  0  0  0  0  0  0  0  0  0
   -5.6970    4.8911  -18.1948 O   0  0  0  0  0  0  0  0  0  0  0  0
   -4.7853    5.3767  -17.2160 N   0  0  0  0  0  0  0  0  0  0  0  0
   -3.6470    5.7215  -17.6135 O   0  0  0  0  0  0  0  0  0  0  0  0
   -5.3780    5.9876  -14.0646 H   0  0  0  0  0  0  0  0  0  0  0  0
   -3.9315    6.2668  -14.9233 H   0  0  0  0  0  0  0  0  0  0  0  0
   -8.2952    4.0673  -11.5860 C   0  0  0  0  0  0  0  0  0  0  0  0
   -7.9397    5.2105  -10.8442 C   0  0  0  0  0  0  0  0  0  0  0  0
   -8.0154    5.2129   -9.4487 C   0  0  0  0  0  0  0  0  0  0  0  0
   -8.4474    4.0555   -8.8346 C   0  0  0  0  0  0  0  0  0  0  0  0
   -8.7916    2.9108   -9.5482 C   0  0  0  0  0  0  0  0  0  0  0  0
   -8.7210    2.9017  -10.9331 C   0  0  0  0  0  0  0  0  0  0  0  0
   -9.1761    1.8272   -8.5960 C   0  0  0  0  0  0  0  0  0  0  0  0
   -9.1523    2.5048   -7.3156 N   0  0  0  0  0  0  0  0  0  0  0  0
   -8.6233    3.7740   -7.4055 C   0  0  0  0  0  0  0  0  0  0  0  0
   -8.3288    4.5295   -6.4980 O   0  0  0  0  0  0  0  0  0  0  0  0
   -9.4771    2.1042   -6.4770 H   0  0  0  0  0  0  0  0  0  0  0  0
  5  6  1  0  0  0
  6  7  1  0  0  0
  7  8  2  0  0  0
  8  1  1  0  0  0
  1  2  2  0  0  0
  1  3  1  0  0  0
  3 18  1  0  0  0
 18 19  2  0  0  0
 19 20  1  0  0  0
 20 21  2  0  0  0
 21 22  1  0  0  0
 22 23  2  0  0  0
 22 24  1  0  0  0
 24 25  1  0  0  0
 25 26  1  0  0  0
 26 27  2  0  0  0
  8  9  1  0  0  0
  9 10  2  0  0  0
 10 11  1  0  0  0
 11 12  2  0  0  0
 12 13  1  0  0  0
 13 14  1  0  0  0
 14 15  1  0  0  0
 14  6  2  0  0  0
 12  7  1  0  0  0
 23 18  1  0  0  0
 26 21  1  0  0  0
  5 16  1  0  0  0
  5 17  1  0  0  0
  3  4  1  0  0  0
 25 28  1  0  0  0
M  CHG 1  14   1
M  CHG 1  15  -1
M  END
> <minimizedAffinity>
-8.90376

> <minimizedRMSD>
0.20039

$$$$
P18185


 32 35  0  0  0  0  0  0  0  0999 V2000
   -5.3353    5.1701  -17.7988 C   0  0  0  0  0  0  0  0  0  0  0  0
   -4.4663    5.5381  -16.7871 N   0  0  0  0  0  0  0  0  0  0  0  0
   -5.0951    5.5470  -15.5637 C   0  0  0  0  0  0  0  0  0  0  0  0
   -4.4238    5.9410  -14.4632 N   0  0  0  0  0  0  0  0  0  0  0  0
   -6.3837    5.1202  -15.7666 C   0  0  0  0  0  0  0  0  0  0  0  0
   -7.4171    4.9649  -14.8375 C   0  0  0  0  0  0  0  0  0  0  0  0
   -8.6273    4.5753  -15.4544 C   0  0  0  0  0  0  0  0  0  0  0  0
   -8.7459    4.3635  -16.8622 C   0  0  0  0  0  0  0  0  0  0  0  0
  -10.3193    4.1273  -17.4929 Cl  0  0  0  0  0  0  0  0  0  0  0  0
   -7.6953    4.4644  -17.7919 C   0  0  0  0  0  0  0  0  0  0  0  0
   -6.5251    4.8726  -17.1682 C   0  0  0  0  0  0  0  0  0  0  0  0
   -3.5182    5.7648  -16.9253 H   0  0  0  0  0  0  0  0  0  0  0  0
   -3.4809    6.2155  -14.5336 H   0  0  0  0  0  0  0  0  0  0  0  0
   -4.8763    5.9543  -13.5890 H   0  0  0  0  0  0  0  0  0  0  0  0
   -3.5842    4.7346  -19.4668 N   0  0  0  0  0  0  0  0  0  0  0  0
   -4.9644    5.1644  -19.2418 C   0  0  0  0  0  0  0  0  0  0  0  0
   -3.3825    4.7486  -20.4666 H   0  0  0  0  0  0  0  0  0  0  0  0
   -3.4602    3.7879  -19.1081 H   0  0  0  0  0  0  0  0  0  0  0  0
   -7.3621    5.3357  -13.4150 C   0  0  0  0  0  0  0  0  0  0  0  0
   -7.0880    6.4352  -13.1297 O   0  0  0  0  0  0  0  0  0  0  0  0
   -7.7983    4.1476  -12.5250 N   0  0  0  0  0  0  0  0  0  0  0  0
   -7.9005    3.2919  -13.0010 H   0  0  0  0  0  0  0  0  0  0  0  0
   -8.0696    4.0918  -11.1616 C   0  0  0  0  0  0  0  0  0  0  0  0
   -7.8580    5.2041  -10.3330 C   0  0  0  0  0  0  0  0  0  0  0  0
   -8.1371    5.1391   -8.9651 C   0  0  0  0  0  0  0  0  0  0  0  0
   -8.6090    3.9467   -8.4493 C   0  0  0  0  0  0  0  0  0  0  0  0
   -8.8195    2.8463   -9.2685 C   0  0  0  0  0  0  0  0  0  0  0  0
   -8.5670    2.9002  -10.6293 C   0  0  0  0  0  0  0  0  0  0  0  0
   -9.3153    1.7037   -8.4529 C   0  0  0  0  0  0  0  0  0  0  0  0
   -9.3115    2.1625   -7.0383 N   0  0  0  0  0  0  0  0  0  0  0  0
   -8.9719    3.6012   -7.0477 C   0  0  0  0  0  0  0  0  0  0  0  0
   -8.6156    1.6424   -6.5038 H   0  0  0  0  0  0  0  0  0  0  0  0
 15 16  1  0  0  0
 16  1  1  0  0  0
  1  2  1  0  0  0
  2  3  1  0  0  0
  3  4  1  0  0  0
  3  5  2  0  0  0
  5  6  1  0  0  0
  6 19  1  0  0  0
 19 20  2  0  0  0
 19 21  1  0  0  0
 21 23  1  0  0  0
 23 24  2  0  0  0
 24 25  1  0  0  0
 25 26  2  0  0  0
 26 27  1  0  0  0
 27 28  2  0  0  0
 27 29  1  0  0  0
 29 30  1  0  0  0
 30 31  1  0  0  0
  6  7  2  0  0  0
  7  8  1  0  0  0
  8  9  1  0  0  0
  8 10  2  0  0  0
 10 11  1  0  0  0
 11  1  2  0  0  0
 11  5  1  0  0  0
 28 23  1  0  0  0
 31 26  1  0  0  0
 15 17  1  0  0  0
 15 18  1  0  0  0
  2 12  1  0  0  0
  4 13  1  0  0  0
  4 14  1  0  0  0
 21 22  1  0  0  0
 30 32  1  0  0  0
M  END
> <minimizedAffinity>
-8.76079

> <minimizedRMSD>
0.33732

$$$$
P18187


 31 34  0  0  0  0  0  0  0  0999 V2000
   -5.6303    5.1044  -17.6603 C   0  0  0  0  0  0  0  0  0  0  0  0
   -4.9762    5.5428  -16.5223 N   0  0  0  0  0  0  0  0  0  0  0  0
   -5.8115    5.5501  -15.4346 C   0  0  0  0  0  0  0  0  0  0  0  0
   -5.3729    6.0339  -14.2533 N   0  0  0  0  0  0  0  0  0  0  0  0
   -7.0063    5.0105  -15.8442 C   0  0  0  0  0  0  0  0  0  0  0  0
   -8.1605    4.7787  -15.0903 C   0  0  0  0  0  0  0  0  0  0  0  0
   -9.1918    4.1956  -15.8649 C   0  0  0  0  0  0  0  0  0  0  0  0
   -9.0602    3.8934  -17.2604 C   0  0  0  0  0  0  0  0  0  0  0  0
   -7.8913    4.1397  -18.0166 C   0  0  0  0  0  0  0  0  0  0  0  0
   -6.8842    4.7093  -17.2391 C   0  0  0  0  0  0  0  0  0  0  0  0
   -4.0305    5.8152  -16.4967 H   0  0  0  0  0  0  0  0  0  0  0  0
   -4.4557    6.3829  -14.1743 H   0  0  0  0  0  0  0  0  0  0  0  0
   -5.9702    6.0379  -13.4707 H   0  0  0  0  0  0  0  0  0  0  0  0
   -8.3483    5.2113  -13.6955 C   0  0  0  0  0  0  0  0  0  0  0  0
   -8.5959    6.3346  -13.4893 O   0  0  0  0  0  0  0  0  0  0  0  0
   -8.2368    4.0154  -12.7234 N   0  0  0  0  0  0  0  0  0  0  0  0
   -8.0900    3.1440  -13.1572 H   0  0  0  0  0  0  0  0  0  0  0  0
   -8.3102    3.9696  -11.3347 C   0  0  0  0  0  0  0  0  0  0  0  0
   -7.9620    5.0850  -10.5558 C   0  0  0  0  0  0  0  0  0  0  0  0
   -8.0660    5.0458   -9.1628 C   0  0  0  0  0  0  0  0  0  0  0  0
   -8.5176    3.8797   -8.5739 C   0  0  0  0  0  0  0  0  0  0  0  0
   -8.8485    2.7718   -9.3419 C   0  0  0  0  0  0  0  0  0  0  0  0
   -8.7502    2.7946  -10.7236 C   0  0  0  0  0  0  0  0  0  0  0  0
   -9.2698    1.6551   -8.4517 C   0  0  0  0  0  0  0  0  0  0  0  0
   -9.3027    2.2083   -7.0723 N   0  0  0  0  0  0  0  0  0  0  0  0
   -8.7376    3.5723   -7.1340 C   0  0  0  0  0  0  0  0  0  0  0  0
   -8.7430    1.6262   -6.4491 H   0  0  0  0  0  0  0  0  0  0  0  0
   -4.9443    5.0901  -18.9818 C   0  0  0  0  0  0  0  0  0  0  0  0
   -3.0581    5.8847  -20.2360 C   0  0  0  0  0  0  0  0  0  0  0  0
   -3.7292    5.9116  -18.9465 N   0  0  0  0  0  0  0  0  0  0  0  0
   -3.9809    6.8735  -18.7192 H   0  0  0  0  0  0  0  0  0  0  0  0
 29 30  1  0  0  0
 30 28  1  0  0  0
 28  1  1  0  0  0
  1  2  1  0  0  0
  2  3  1  0  0  0
  3  4  1  0  0  0
  3  5  2  0  0  0
  5  6  1  0  0  0
  6 14  1  0  0  0
 14 15  2  0  0  0
 14 16  1  0  0  0
 16 18  1  0  0  0
 18 19  2  0  0  0
 19 20  1  0  0  0
 20 21  2  0  0  0
 21 22  1  0  0  0
 22 23  2  0  0  0
 22 24  1  0  0  0
 24 25  1  0  0  0
 25 26  1  0  0  0
  6  7  2  0  0  0
  7  8  1  0  0  0
  8  9  2  0  0  0
  9 10  1  0  0  0
 10  1  2  0  0  0
 10  5  1  0  0  0
 23 18  1  0  0  0
 26 21  1  0  0  0
 30 31  1  0  0  0
  2 11  1  0  0  0
  4 12  1  0  0  0
  4 13  1  0  0  0
 16 17  1  0  0  0
 25 27  1  0  0  0
M  END
> <minimizedAffinity>
-8.55781

> <minimizedRMSD>
0.61599

$$$$
P18188


 32 35  0  0  0  0  0  0  0  0999 V2000
   -5.0344    5.2978  -17.8342 C   0  0  0  0  0  0  0  0  0  0  0  0
   -4.1489    5.6068  -16.8180 N   0  0  0  0  0  0  0  0  0  0  0  0
   -4.7645    5.5743  -15.5879 C   0  0  0  0  0  0  0  0  0  0  0  0
   -4.0728    5.9106  -14.4788 N   0  0  0  0  0  0  0  0  0  0  0  0
   -6.0587    5.1657  -15.7914 C   0  0  0  0  0  0  0  0  0  0  0  0
   -7.0819    4.9654  -14.8593 C   0  0  0  0  0  0  0  0  0  0  0  0
   -8.2849    4.5670  -15.4873 C   0  0  0  0  0  0  0  0  0  0  0  0
   -8.4013    4.4019  -16.9040 C   0  0  0  0  0  0  0  0  0  0  0  0
  -10.1048    4.0951  -17.6188 Br  0  0  0  0  0  0  0  0  0  0  0  0
   -7.3692    4.5769  -17.8391 C   0  0  0  0  0  0  0  0  0  0  0  0
   -6.2107    4.9741  -17.1990 C   0  0  0  0  0  0  0  0  0  0  0  0
   -3.1985    5.8226  -16.9570 H   0  0  0  0  0  0  0  0  0  0  0  0
   -3.1293    6.1825  -14.5506 H   0  0  0  0  0  0  0  0  0  0  0  0
   -4.5117    5.8840  -13.5980 H   0  0  0  0  0  0  0  0  0  0  0  0
   -7.0119    5.2805  -13.4205 C   0  0  0  0  0  0  0  0  0  0  0  0
   -6.5306    6.2912  -13.0860 O   0  0  0  0  0  0  0  0  0  0  0  0
   -7.6850    4.1658  -12.5857 N   0  0  0  0  0  0  0  0  0  0  0  0
   -7.9473    3.3678  -13.0992 H   0  0  0  0  0  0  0  0  0  0  0  0
   -7.9801    4.1072  -11.2273 C   0  0  0  0  0  0  0  0  0  0  0  0
   -7.7579    5.2114  -10.3877 C   0  0  0  0  0  0  0  0  0  0  0  0
   -8.0772    5.1541   -9.0268 C   0  0  0  0  0  0  0  0  0  0  0  0
   -8.6102    3.9802   -8.5318 C   0  0  0  0  0  0  0  0  0  0  0  0
   -8.8148    2.8816   -9.3612 C   0  0  0  0  0  0  0  0  0  0  0  0
   -8.5176    2.9264  -10.7121 C   0  0  0  0  0  0  0  0  0  0  0  0
   -9.3212    1.7456   -8.5395 C   0  0  0  0  0  0  0  0  0  0  0  0
   -9.7944    2.3621   -7.2758 N   0  0  0  0  0  0  0  0  0  0  0  0
   -9.0329    3.6248   -7.1441 C   0  0  0  0  0  0  0  0  0  0  0  0
   -9.6038    1.7464   -6.4853 H   0  0  0  0  0  0  0  0  0  0  0  0
   -4.7068    5.3437  -19.2896 C   0  0  0  0  0  0  0  0  0  0  0  0
   -2.4484    5.4777  -20.1664 C   0  0  0  0  0  0  0  0  0  0  0  0
   -3.4833    4.6234  -19.6280 N   0  0  0  0  0  0  0  0  0  0  0  0
   -3.1270    4.1755  -18.7837 H   0  0  0  0  0  0  0  0  0  0  0  0
 30 31  1  0  0  0
 31 29  1  0  0  0
 29  1  1  0  0  0
  1  2  1  0  0  0
  2  3  1  0  0  0
  3  4  1  0  0  0
  3  5  2  0  0  0
  5  6  1  0  0  0
  6 15  1  0  0  0
 15 16  2  0  0  0
 15 17  1  0  0  0
 17 19  1  0  0  0
 19 20  2  0  0  0
 20 21  1  0  0  0
 21 22  2  0  0  0
 22 23  1  0  0  0
 23 24  2  0  0  0
 23 25  1  0  0  0
 25 26  1  0  0  0
 26 27  1  0  0  0
  6  7  2  0  0  0
  7  8  1  0  0  0
  8  9  1  0  0  0
  8 10  2  0  0  0
 10 11  1  0  0  0
 11  1  2  0  0  0
 11  5  1  0  0  0
 24 19  1  0  0  0
 27 22  1  0  0  0
 31 32  1  0  0  0
  2 12  1  0  0  0
  4 13  1  0  0  0
  4 14  1  0  0  0
 17 18  1  0  0  0
 26 28  1  0  0  0
M  END
> <minimizedAffinity>
-8.32957

> <minimizedRMSD>
0.21666

$$$$
P18189


 36 39  0  0  0  0  0  0  0  0999 V2000
   -7.0896    4.8129  -13.3523 C   0  0  0  0  0  0  0  0  0  0  0  0
   -5.8936    4.1256  -13.0367 O   0  0  0  0  0  0  0  0  0  0  0  0
   -5.9889    3.1882  -13.2670 H   0  0  0  0  0  0  0  0  0  0  0  0
   -4.1812    5.5906  -14.7783 N   0  0  0  0  0  0  0  0  0  0  0  0
   -4.9314    5.3693  -15.8731 C   0  0  0  0  0  0  0  0  0  0  0  0
   -4.4601    5.4897  -17.1147 N   0  0  0  0  0  0  0  0  0  0  0  0
   -5.5082    5.1555  -17.9462 O   0  0  0  0  0  0  0  0  0  0  0  0
   -6.5965    4.8434  -17.1998 C   0  0  0  0  0  0  0  0  0  0  0  0
   -7.8215    4.4675  -17.7189 C   0  0  0  0  0  0  0  0  0  0  0  0
   -8.8167    4.2442  -16.7838 C   0  0  0  0  0  0  0  0  0  0  0  0
  -10.4000    3.9569  -17.3570 Cl  0  0  0  0  0  0  0  0  0  0  0  0
   -8.5804    4.3411  -15.4077 C   0  0  0  0  0  0  0  0  0  0  0  0
   -7.3065    4.6859  -14.8757 C   0  0  0  0  0  0  0  0  0  0  0  0
   -6.3013    4.9654  -15.8496 C   0  0  0  0  0  0  0  0  0  0  0  0
   -3.2413    5.8677  -14.8734 H   0  0  0  0  0  0  0  0  0  0  0  0
   -4.5722    5.4755  -13.8822 H   0  0  0  0  0  0  0  0  0  0  0  0
   -7.0396    6.4041  -13.0043 C   0  0  0  0  0  0  0  0  0  0  0  0
   -6.0324    6.9733  -12.8262 O   0  0  0  0  0  0  0  0  0  0  0  0
   -8.5118    6.9072  -12.9179 N   0  0  0  0  0  0  0  0  0  0  0  0
   -9.1942    6.2081  -13.0394 H   0  0  0  0  0  0  0  0  0  0  0  0
   -9.0372    8.2318  -12.6885 C   0  0  0  0  0  0  0  0  0  0  0  0
   -9.1164    8.5570  -11.2018 C   0  0  0  0  0  0  0  0  0  0  0  0
  -10.3662    9.3575  -10.8880 C   0  0  0  0  0  0  0  0  0  0  0  0
  -11.3422    9.0199  -11.7736 F   0  0  0  0  0  0  0  0  0  0  0  0
   -8.1726    4.1030  -12.6308 N   0  0  0  0  0  0  0  0  0  0  0  0
   -8.8951    3.6971  -13.1622 H   0  0  0  0  0  0  0  0  0  0  0  0
   -8.2280    3.9752  -11.2302 C   0  0  0  0  0  0  0  0  0  0  0  0
   -7.9681    5.0357  -10.3366 C   0  0  0  0  0  0  0  0  0  0  0  0
   -8.1945    4.9285   -8.9603 C   0  0  0  0  0  0  0  0  0  0  0  0
   -8.6540    3.7293   -8.4683 C   0  0  0  0  0  0  0  0  0  0  0  0
   -8.8767    2.6570   -9.3156 C   0  0  0  0  0  0  0  0  0  0  0  0
   -8.7028    2.7701  -10.6884 C   0  0  0  0  0  0  0  0  0  0  0  0
   -9.3431    1.4905   -8.5155 C   0  0  0  0  0  0  0  0  0  0  0  0
   -9.2602    1.8989   -7.0885 N   0  0  0  0  0  0  0  0  0  0  0  0
   -9.0254    3.3565   -7.0766 C   0  0  0  0  0  0  0  0  0  0  0  0
   -8.4889    1.4150   -6.6287 H   0  0  0  0  0  0  0  0  0  0  0  0
  4  5  1  0  0  0
  5  6  2  0  0  0
  6  7  1  0  0  0
  7  8  1  0  0  0
  8  9  2  0  0  0
  9 10  1  0  0  0
 10 11  1  0  0  0
 10 12  2  0  0  0
 12 13  1  0  0  0
 13  1  1  0  0  0
  1  2  1  0  0  0
  1 25  1  0  0  0
 25 27  1  0  0  0
 27 28  2  0  0  0
 28 29  1  0  0  0
 29 30  2  0  0  0
 30 31  1  0  0  0
 31 32  2  0  0  0
 31 33  1  0  0  0
 33 34  1  0  0  0
 34 35  1  0  0  0
  1 17  1  0  0  0
 17 18  2  0  0  0
 17 19  1  0  0  0
 19 21  1  0  0  0
 21 22  1  0  0  0
 22 23  1  0  0  0
 23 24  1  0  0  0
 13 14  2  0  0  0
 14  5  1  0  0  0
 14  8  1  0  0  0
 32 27  1  0  0  0
 35 30  1  0  0  0
  4 15  1  0  0  0
  4 16  1  0  0  0
  2  3  1  0  0  0
 25 26  1  0  0  0
 34 36  1  0  0  0
 19 20  1  0  0  0
M  END
> <minimizedAffinity>
-7.87613

> <minimizedRMSD>
0.63020

$$$$
P18198


 31 35  0  0  0  0  0  0  0  0999 V2000
   -5.5353    7.5665  -15.3565 N   0  0  0  0  0  0  0  0  0  0  0  0
   -5.0439    6.2290  -15.4147 C   0  0  0  0  0  0  0  0  0  0  0  0
   -4.2183    6.2175  -16.6109 N   0  0  0  0  0  0  0  0  0  0  0  0
   -4.9473    5.4989  -17.6634 C   0  0  0  0  0  0  0  0  0  0  0  0
   -5.8678    6.3075  -18.5594 C   0  0  0  0  0  0  0  0  0  0  0  0
   -5.6029    7.3173  -19.1948 O   0  0  0  0  0  0  0  0  0  0  0  0
   -7.0896    5.6462  -18.6046 N   0  0  0  0  0  0  0  0  0  0  0  0
   -7.1041    4.4240  -17.8617 C   0  0  0  0  0  0  0  0  0  0  0  0
   -8.4328    4.1038  -17.1678 C   0  0  0  0  0  0  0  0  0  0  0  0
   -8.4334    4.2125  -15.6355 C   0  0  0  0  0  0  0  0  0  0  0  0
   -7.5115    5.3049  -15.0993 C   0  0  0  0  0  0  0  0  0  0  0  0
   -6.0611    5.0782  -15.5258 C   0  0  0  0  0  0  0  0  0  0  0  0
   -5.9074    4.5755  -16.9521 C   0  0  0  0  0  0  0  0  0  0  0  0
   -4.7506    8.2142  -15.2850 H   0  0  0  0  0  0  0  0  0  0  0  0
   -6.1386    7.6719  -14.5408 H   0  0  0  0  0  0  0  0  0  0  0  0
   -3.3359    5.7441  -16.4171 H   0  0  0  0  0  0  0  0  0  0  0  0
   -7.8695    5.9862  -19.0999 H   0  0  0  0  0  0  0  0  0  0  0  0
   -7.6039    5.7009  -13.6040 C   0  0  0  0  0  0  0  0  0  0  0  0
   -7.4539    6.8230  -13.3018 O   0  0  0  0  0  0  0  0  0  0  0  0
   -7.8522    4.4439  -12.7214 N   0  0  0  0  0  0  0  0  0  0  0  0
   -7.8696    3.5915  -13.2136 H   0  0  0  0  0  0  0  0  0  0  0  0
   -8.0539    4.3286  -11.3470 C   0  0  0  0  0  0  0  0  0  0  0  0
   -7.8585    5.4337  -10.5018 C   0  0  0  0  0  0  0  0  0  0  0  0
   -8.0756    5.3341   -9.1247 C   0  0  0  0  0  0  0  0  0  0  0  0
   -8.4993    4.1217   -8.6164 C   0  0  0  0  0  0  0  0  0  0  0  0
   -8.6949    3.0251   -9.4480 C   0  0  0  0  0  0  0  0  0  0  0  0
   -8.4730    3.1057  -10.8158 C   0  0  0  0  0  0  0  0  0  0  0  0
   -9.1364    1.8602   -8.6264 C   0  0  0  0  0  0  0  0  0  0  0  0
   -9.4003    2.3938   -7.2694 N   0  0  0  0  0  0  0  0  0  0  0  0
   -8.8149    3.7448   -7.2090 C   0  0  0  0  0  0  0  0  0  0  0  0
   -8.9666    1.7937   -6.5678 H   0  0  0  0  0  0  0  0  0  0  0  0
  2  1  1  0  0  0
  2  3  1  0  0  0
  4  3  1  0  0  0
  4  5  1  0  0  0
  5  6  2  0  0  0
  5  7  1  0  0  0
  7  8  1  0  0  0
  8  9  1  0  0  0
  9 10  1  0  0  0
 10 11  1  0  0  0
 11 18  1  0  0  0
 18 19  2  0  0  0
 18 20  1  0  0  0
 20 22  1  0  0  0
 22 23  2  0  0  0
 23 24  1  0  0  0
 24 25  2  0  0  0
 25 26  1  0  0  0
 26 27  2  0  0  0
 26 28  1  0  0  0
 28 29  1  0  0  0
 29 30  1  0  0  0
 12 11  1  0  0  0
 12 13  1  0  0  0
 12  2  1  0  0  0
 13  4  1  0  0  0
 13  8  1  0  0  0
 27 22  1  0  0  0
 30 25  1  0  0  0
  1 14  1  0  0  0
  1 15  1  0  0  0
  3 16  1  0  0  0
  7 17  1  0  0  0
 20 21  1  0  0  0
 29 31  1  0  0  0
M  END
> <minimizedAffinity>
-7.44739

> <minimizedRMSD>
0.18757

$$$$
P18219


 36 41  0  0  0  0  0  0  0  0999 V2000
   -7.2046    4.9498  -13.0403 C   0  0  0  0  0  0  0  0  0  0  0  0
   -3.0562    6.2238  -16.9607 C   0  0  0  0  0  0  0  0  0  0  0  0
   -4.3423    5.6837  -16.6258 N   0  0  0  0  0  0  0  0  0  0  0  0
   -4.8806    5.5619  -15.3196 C   0  0  0  0  0  0  0  0  0  0  0  0
   -6.1577    5.0373  -15.4270 C   0  0  0  0  0  0  0  0  0  0  0  0
   -7.2102    4.7596  -14.5414 C   0  0  0  0  0  0  0  0  0  0  0  0
   -8.3591    4.3235  -15.3508 C   0  0  0  0  0  0  0  0  0  0  0  0
   -8.3898    4.1732  -16.8177 C   0  0  0  0  0  0  0  0  0  0  0  0
   -9.8484    3.7453  -17.6086 Cl  0  0  0  0  0  0  0  0  0  0  0  0
   -7.2797    4.4399  -17.5952 C   0  0  0  0  0  0  0  0  0  0  0  0
   -6.2967    4.8506  -16.7764 C   0  0  0  0  0  0  0  0  0  0  0  0
   -5.2596    5.2402  -17.5247 C   0  0  0  0  0  0  0  0  0  0  0  0
   -5.6223    5.0212  -18.8857 C   0  0  0  0  0  0  0  0  0  0  0  0
   -6.8364    4.5195  -18.9357 N   0  0  0  0  0  0  0  0  0  0  0  0
   -7.2735    6.4975  -12.7267 C   0  0  0  0  0  0  0  0  0  0  0  0
   -6.3142    7.1049  -12.4407 O   0  0  0  0  0  0  0  0  0  0  0  0
   -8.7344    6.9751  -12.9656 N   0  0  0  0  0  0  0  0  0  0  0  0
   -9.3524    6.2734  -13.2738 H   0  0  0  0  0  0  0  0  0  0  0  0
   -9.3356    8.2898  -12.8075 C   0  0  0  0  0  0  0  0  0  0  0  0
  -10.6831    8.4367  -13.5079 C   0  0  0  0  0  0  0  0  0  0  0  0
  -11.2726    9.8323  -13.3047 C   0  0  0  0  0  0  0  0  0  0  0  0
  -10.6174   10.5639  -12.2664 O   0  0  0  0  0  0  0  0  0  0  0  0
  -10.4604    9.7720  -11.0901 C   0  0  0  0  0  0  0  0  0  0  0  0
   -9.4094    8.6949  -11.3319 C   0  0  0  0  0  0  0  0  0  0  0  0
   -8.2935    4.1390  -12.4233 N   0  0  0  0  0  0  0  0  0  0  0  0
   -8.9912    3.7166  -12.9746 H   0  0  0  0  0  0  0  0  0  0  0  0
   -8.2854    3.9996  -11.0109 C   0  0  0  0  0  0  0  0  0  0  0  0
   -7.9980    5.0699  -10.1405 C   0  0  0  0  0  0  0  0  0  0  0  0
   -8.2029    4.9750   -8.7576 C   0  0  0  0  0  0  0  0  0  0  0  0
   -8.7006    3.7944   -8.2494 C   0  0  0  0  0  0  0  0  0  0  0  0
   -8.9401    2.7082   -9.0801 C   0  0  0  0  0  0  0  0  0  0  0  0
   -8.7546    2.7962  -10.4514 C   0  0  0  0  0  0  0  0  0  0  0  0
   -9.4115    1.5625   -8.2475 C   0  0  0  0  0  0  0  0  0  0  0  0
   -9.8630    2.1796   -6.9727 N   0  0  0  0  0  0  0  0  0  0  0  0
   -9.0931    3.4390   -6.8543 C   0  0  0  0  0  0  0  0  0  0  0  0
   -9.6617    1.5624   -6.1860 H   0  0  0  0  0  0  0  0  0  0  0  0
  2  3  1  0  0  0
  3  4  1  0  0  0
  4  5  2  0  0  0
  5  6  1  0  0  0
  6  1  1  0  0  0
  1 25  1  0  0  0
 25 27  1  0  0  0
 27 28  2  0  0  0
 28 29  1  0  0  0
 29 30  2  0  0  0
 30 31  1  0  0  0
 31 32  2  0  0  0
 31 33  1  0  0  0
 33 34  1  0  0  0
 34 35  1  0  0  0
  1 15  1  0  0  0
 15 16  2  0  0  0
 15 17  1  0  0  0
 17 19  1  0  0  0
 19 20  1  0  0  0
 20 21  1  0  0  0
 21 22  1  0  0  0
 22 23  1  0  0  0
 23 24  1  0  0  0
  6  7  2  0  0  0
  7  8  1  0  0  0
  8  9  1  0  0  0
  8 10  2  0  0  0
 10 11  1  0  0  0
 11 12  2  0  0  0
 12 13  1  0  0  0
 13 14  2  0  0  0
 12  3  1  0  0  0
 11  5  1  0  0  0
 32 27  1  0  0  0
 24 19  1  0  0  0
 14 10  1  0  0  0
 35 30  1  0  0  0
 25 26  1  0  0  0
 34 36  1  0  0  0
 17 18  1  0  0  0
M  END
> <minimizedAffinity>
-9.24425

> <minimizedRMSD>
0.40488

$$$$
P18245


 38 43  0  0  0  0  0  0  0  0999 V2000
   -7.1997    5.0236  -12.8613 C   0  0  0  0  0  0  0  0  0  0  0  0
   -5.9951    4.4036  -12.4652 O   0  0  0  0  0  0  0  0  0  0  0  0
   -5.8944    4.4779  -11.5033 H   0  0  0  0  0  0  0  0  0  0  0  0
   -7.2525    4.8456  -14.3906 C   0  0  0  0  0  0  0  0  0  0  0  0
   -8.4503    4.3920  -15.0725 C   0  0  0  0  0  0  0  0  0  0  0  0
   -8.4531    4.2110  -16.4711 C   0  0  0  0  0  0  0  0  0  0  0  0
   -9.6145    3.6775  -17.6083 S   0  0  0  0  0  0  0  0  0  0  0  0
   -8.4598    3.9089  -18.8767 C   0  0  0  0  0  0  0  0  0  0  0  0
   -7.2653    4.3400  -18.5339 N   0  0  0  0  0  0  0  0  0  0  0  0
   -7.3082    4.5058  -17.1849 C   0  0  0  0  0  0  0  0  0  0  0  0
   -6.2058    4.9527  -16.5416 C   0  0  0  0  0  0  0  0  0  0  0  0
   -5.0545    5.2487  -17.1445 N   0  0  0  0  0  0  0  0  0  0  0  0
   -4.1226    5.6543  -16.2526 N   0  0  0  0  0  0  0  0  0  0  0  0
   -4.7676    5.5674  -15.0708 C   0  0  0  0  0  0  0  0  0  0  0  0
   -6.1108    5.1318  -15.1937 C   0  0  0  0  0  0  0  0  0  0  0  0
   -4.9021    5.1807  -18.1148 H   0  0  0  0  0  0  0  0  0  0  0  0
   -6.2945    7.2118  -12.2276 O   0  0  0  0  0  0  0  0  0  0  0  0
   -7.2454    6.6167  -12.5709 C   0  0  0  0  0  0  0  0  0  0  0  0
   -8.7033    7.1109  -12.8512 N   0  0  0  0  0  0  0  0  0  0  0  0
   -9.3110    6.4225  -13.2062 H   0  0  0  0  0  0  0  0  0  0  0  0
   -9.3089    8.4286  -12.6714 C   0  0  0  0  0  0  0  0  0  0  0  0
  -10.6713    8.5331  -13.3758 C   0  0  0  0  0  0  0  0  0  0  0  0
  -10.8419    9.8462  -14.1274 C   0  0  0  0  0  0  0  0  0  0  0  0
  -10.4321   10.9287  -13.3021 O   0  0  0  0  0  0  0  0  0  0  0  0
   -9.0436   10.9219  -12.9852 C   0  0  0  0  0  0  0  0  0  0  0  0
   -8.3715    9.5585  -13.0939 C   0  0  0  0  0  0  0  0  0  0  0  0
   -8.3037    4.2839  -12.2168 N   0  0  0  0  0  0  0  0  0  0  0  0
   -9.0268    3.9009  -12.7643 H   0  0  0  0  0  0  0  0  0  0  0  0
   -8.3200    4.1268  -10.8098 C   0  0  0  0  0  0  0  0  0  0  0  0
   -8.0789    5.1846   -9.9079 C   0  0  0  0  0  0  0  0  0  0  0  0
   -8.2123    5.0258   -8.5227 C   0  0  0  0  0  0  0  0  0  0  0  0
   -8.6107    3.7983   -8.0425 C   0  0  0  0  0  0  0  0  0  0  0  0
   -8.8353    2.7368   -8.9083 C   0  0  0  0  0  0  0  0  0  0  0  0
   -8.7093    2.8838  -10.2806 C   0  0  0  0  0  0  0  0  0  0  0  0
   -9.2034    1.5339   -8.1058 C   0  0  0  0  0  0  0  0  0  0  0  0
   -9.6126    2.0709   -6.7825 N   0  0  0  0  0  0  0  0  0  0  0  0
   -8.8962    3.3585   -6.6452 C   0  0  0  0  0  0  0  0  0  0  0  0
   -9.3410    1.4297   -6.0372 H   0  0  0  0  0  0  0  0  0  0  0  0
 17 18  2  0  0  0
 18 19  1  0  0  0
 19 21  1  0  0  0
 21 22  1  0  0  0
 22 23  1  0  0  0
 23 24  1  0  0  0
 24 25  1  0  0  0
 25 26  1  0  0  0
 18  1  1  0  0  0
  1  2  1  0  0  0
  1 27  1  0  0  0
 27 29  1  0  0  0
 29 30  2  0  0  0
 30 31  1  0  0  0
 31 32  2  0  0  0
 32 33  1  0  0  0
 33 34  2  0  0  0
 33 35  1  0  0  0
 35 36  1  0  0  0
 36 37  1  0  0  0
  1  4  1  0  0  0
  4  5  2  0  0  0
  5  6  1  0  0  0
  6  7  1  0  0  0
  7  8  1  0  0  0
  8  9  2  0  0  0
  9 10  1  0  0  0
 10 11  1  0  0  0
 11 12  1  0  0  0
 12 13  1  0  0  0
 13 14  2  0  0  0
 14 15  1  0  0  0
 26 21  1  0  0  0
 34 29  1  0  0  0
 15  4  1  0  0  0
 37 32  1  0  0  0
 10  6  2  0  0  0
 15 11  2  0  0  0
 19 20  1  0  0  0
  2  3  1  0  0  0
 27 28  1  0  0  0
 36 38  1  0  0  0
 12 16  1  0  0  0
M  END
> <minimizedAffinity>
-8.93381

> <minimizedRMSD>
0.36675

$$$$
P18248


 40 45  0  0  0  0  0  0  0  0999 V2000
   -6.8010    5.0733  -13.1765 C   0  0  0  0  0  0  0  0  0  0  0  0
   -6.7820    6.4898  -13.0921 O   0  0  0  0  0  0  0  0  0  0  0  0
   -6.7507    6.7578  -12.1604 H   0  0  0  0  0  0  0  0  0  0  0  0
   -6.8497    4.8006  -14.6818 C   0  0  0  0  0  0  0  0  0  0  0  0
   -8.0637    4.3309  -15.3218 C   0  0  0  0  0  0  0  0  0  0  0  0
   -8.2137    4.2222  -16.7399 C   0  0  0  0  0  0  0  0  0  0  0  0
   -9.7035    3.7489  -17.4318 Cl  0  0  0  0  0  0  0  0  0  0  0  0
   -7.1445    4.5596  -17.5198 C   0  0  0  0  0  0  0  0  0  0  0  0
   -6.8853    4.8345  -18.8734 N   0  0  0  0  0  0  0  0  0  0  0  0
   -5.5808    5.4565  -18.9761 C   0  0  0  0  0  0  0  0  0  0  0  0
   -5.1061    6.0107  -19.9532 O   0  0  0  0  0  0  0  0  0  0  0  0
   -5.0123    5.3202  -17.6775 N   0  0  0  0  0  0  0  0  0  0  0  0
   -6.0082    4.8936  -16.8557 C   0  0  0  0  0  0  0  0  0  0  0  0
   -5.8007    5.1174  -15.5304 C   0  0  0  0  0  0  0  0  0  0  0  0
   -4.4578    5.7934  -15.4801 C   0  0  0  0  0  0  0  0  0  0  0  0
   -4.0918    6.0849  -16.9368 N   0  0  0  0  0  0  0  0  0  0  0  0
   -7.4890    4.6374  -19.6257 H   0  0  0  0  0  0  0  0  0  0  0  0
   -3.1348    5.7933  -17.1358 H   0  0  0  0  0  0  0  0  0  0  0  0
   -5.3117    3.1946  -12.6428 O   0  0  0  0  0  0  0  0  0  0  0  0
   -5.5252    4.3645  -12.4893 C   0  0  0  0  0  0  0  0  0  0  0  0
   -4.7850    5.3704  -11.7604 N   0  0  0  0  0  0  0  0  0  0  0  0
   -5.2198    6.2531  -11.7262 H   0  0  0  0  0  0  0  0  0  0  0  0
   -3.5108    5.2998  -11.0711 C   0  0  0  0  0  0  0  0  0  0  0  0
   -3.5624    4.3463   -9.8753 C   0  0  0  0  0  0  0  0  0  0  0  0
   -4.2579    4.9836   -8.6822 C   0  0  0  0  0  0  0  0  0  0  0  0
   -3.6485    6.2317   -8.3503 O   0  0  0  0  0  0  0  0  0  0  0  0
   -3.7585    7.1791   -9.4098 C   0  0  0  0  0  0  0  0  0  0  0  0
   -3.0239    6.6854  -10.6486 C   0  0  0  0  0  0  0  0  0  0  0  0
   -8.0312    4.6248  -12.5243 N   0  0  0  0  0  0  0  0  0  0  0  0
   -8.8102    4.4147  -13.0886 H   0  0  0  0  0  0  0  0  0  0  0  0
   -8.1564    4.4785  -11.1282 C   0  0  0  0  0  0  0  0  0  0  0  0
   -8.0386    5.5335  -10.1992 C   0  0  0  0  0  0  0  0  0  0  0  0
   -8.2267    5.3416   -8.8222 C   0  0  0  0  0  0  0  0  0  0  0  0
   -8.5775    4.0857   -8.3769 C   0  0  0  0  0  0  0  0  0  0  0  0
   -8.7553    3.0453   -9.2736 C   0  0  0  0  0  0  0  0  0  0  0  0
   -8.5599    3.2251  -10.6367 C   0  0  0  0  0  0  0  0  0  0  0  0
   -9.1491    1.8126   -8.5305 C   0  0  0  0  0  0  0  0  0  0  0  0
   -9.3829    2.2407   -7.1279 N   0  0  0  0  0  0  0  0  0  0  0  0
   -8.8226    3.5969   -6.9907 C   0  0  0  0  0  0  0  0  0  0  0  0
   -8.9155    1.6020   -6.4845 H   0  0  0  0  0  0  0  0  0  0  0  0
 19 20  2  0  0  0
 20 21  1  0  0  0
 21 23  1  0  0  0
 23 24  1  0  0  0
 24 25  1  0  0  0
 25 26  1  0  0  0
 26 27  1  0  0  0
 27 28  1  0  0  0
 20  1  1  0  0  0
  1  2  1  0  0  0
  1 29  1  0  0  0
 29 31  1  0  0  0
 31 32  2  0  0  0
 32 33  1  0  0  0
 33 34  2  0  0  0
 34 35  1  0  0  0
 35 36  2  0  0  0
 35 37  1  0  0  0
 37 38  1  0  0  0
 38 39  1  0  0  0
  1  4  1  0  0  0
  4  5  2  0  0  0
  5  6  1  0  0  0
  6  7  1  0  0  0
  6  8  2  0  0  0
  8  9  1  0  0  0
  9 10  1  0  0  0
 10 11  2  0  0  0
 10 12  1  0  0  0
 12 13  1  0  0  0
 13 14  2  0  0  0
 14 15  1  0  0  0
 15 16  1  0  0  0
 28 23  1  0  0  0
 36 31  1  0  0  0
 14  4  1  0  0  0
 39 34  1  0  0  0
 13  8  1  0  0  0
 16 12  1  0  0  0
 21 22  1  0  0  0
  2  3  1  0  0  0
 29 30  1  0  0  0
 38 40  1  0  0  0
  9 17  1  0  0  0
 16 18  1  0  0  0
M  END
> <minimizedAffinity>
-8.45252

> <minimizedRMSD>
1.16591

$$$$
P18266


 39 43  0  0  0  0  0  0  0  0999 V2000
   -7.1840    4.7797  -13.5184 C   0  0  0  0  0  0  0  0  0  0  0  0
   -6.6516    6.0104  -13.0183 O   0  0  0  0  0  0  0  0  0  0  0  0
   -7.2899    6.7246  -13.1711 H   0  0  0  0  0  0  0  0  0  0  0  0
   -5.4020    6.1218  -17.7406 N   0  0  0  0  0  0  0  0  0  0  0  0
   -4.6683    6.7437  -16.7911 N   0  0  0  0  0  0  0  0  0  0  0  0
   -5.2692    6.3772  -15.6590 C   0  0  0  0  0  0  0  0  0  0  0  0
   -6.4370    5.6013  -15.8651 C   0  0  0  0  0  0  0  0  0  0  0  0
   -7.3823    4.9434  -15.0316 C   0  0  0  0  0  0  0  0  0  0  0  0
   -8.4764    4.3270  -15.6963 C   0  0  0  0  0  0  0  0  0  0  0  0
   -8.6054    4.3541  -17.0883 C   0  0  0  0  0  0  0  0  0  0  0  0
   -9.9817    3.6651  -17.8595 Cl  0  0  0  0  0  0  0  0  0  0  0  0
   -7.6322    4.9349  -17.8976 C   0  0  0  0  0  0  0  0  0  0  0  0
   -6.5536    5.5443  -17.2524 C   0  0  0  0  0  0  0  0  0  0  0  0
   -4.9019    6.0549  -19.1157 C   0  0  0  0  0  0  0  0  0  0  0  0
   -2.9358    4.6357  -19.0347 C   0  0  0  0  0  0  0  0  0  0  0  0
   -4.3415    4.7285  -19.4030 N   0  0  0  0  0  0  0  0  0  0  0  0
   -4.8659    4.0292  -18.8774 H   0  0  0  0  0  0  0  0  0  0  0  0
   -6.1572    3.5616  -13.2869 C   0  0  0  0  0  0  0  0  0  0  0  0
   -6.3799    2.4323  -13.5127 O   0  0  0  0  0  0  0  0  0  0  0  0
   -4.8797    4.2441  -12.6833 N   0  0  0  0  0  0  0  0  0  0  0  0
   -4.9672    5.2109  -12.5191 H   0  0  0  0  0  0  0  0  0  0  0  0
   -3.5949    3.6831  -12.3293 C   0  0  0  0  0  0  0  0  0  0  0  0
   -2.5170    4.3656  -13.1644 C   0  0  0  0  0  0  0  0  0  0  0  0
   -2.6524    4.0002  -14.6438 C   0  0  0  0  0  0  0  0  0  0  0  0
   -3.2407    2.7213  -14.8653 O   0  0  0  0  0  0  0  0  0  0  0  0
   -2.8922    1.7865  -13.8561 C   0  0  0  0  0  0  0  0  0  0  0  0
   -3.4866    2.1752  -12.5127 C   0  0  0  0  0  0  0  0  0  0  0  0
   -8.4705    4.6149  -12.8312 N   0  0  0  0  0  0  0  0  0  0  0  0
   -9.3187    4.5388  -13.3251 H   0  0  0  0  0  0  0  0  0  0  0  0
   -8.4209    4.5718  -11.4167 C   0  0  0  0  0  0  0  0  0  0  0  0
   -8.1072    5.7418  -10.6810 C   0  0  0  0  0  0  0  0  0  0  0  0
   -8.0208    5.7307   -9.2863 C   0  0  0  0  0  0  0  0  0  0  0  0
   -8.3027    4.5480   -8.6342 C   0  0  0  0  0  0  0  0  0  0  0  0
   -8.6071    3.3896   -9.3445 C   0  0  0  0  0  0  0  0  0  0  0  0
   -8.6335    3.3730  -10.7302 C   0  0  0  0  0  0  0  0  0  0  0  0
   -8.9089    2.2916   -8.3765 C   0  0  0  0  0  0  0  0  0  0  0  0
   -9.1397    2.9873   -7.0776 N   0  0  0  0  0  0  0  0  0  0  0  0
   -8.3910    4.2558   -7.1739 C   0  0  0  0  0  0  0  0  0  0  0  0
   -8.7886    2.4235   -6.3035 H   0  0  0  0  0  0  0  0  0  0  0  0
 15 16  1  0  0  0
 16 14  1  0  0  0
 14  4  1  0  0  0
  4  5  1  0  0  0
  5  6  2  0  0  0
  6  7  1  0  0  0
  7  8  2  0  0  0
  8  1  1  0  0  0
  1  2  1  0  0  0
  1 28  1  0  0  0
 28 30  1  0  0  0
 30 31  2  0  0  0
 31 32  1  0  0  0
 32 33  2  0  0  0
 33 34  1  0  0  0
 34 35  2  0  0  0
 34 36  1  0  0  0
 36 37  1  0  0  0
 37 38  1  0  0  0
  1 18  1  0  0  0
 18 19  2  0  0  0
 18 20  1  0  0  0
 20 22  1  0  0  0
 22 23  1  0  0  0
 23 24  1  0  0  0
 24 25  1  0  0  0
 25 26  1  0  0  0
 26 27  1  0  0  0
  8  9  1  0  0  0
  9 10  2  0  0  0
 10 11  1  0  0  0
 10 12  1  0  0  0
 12 13  2  0  0  0
 13  4  1  0  0  0
 13  7  1  0  0  0
 35 30  1  0  0  0
 27 22  1  0  0  0
 38 33  1  0  0  0
 16 17  1  0  0  0
  2  3  1  0  0  0
 28 29  1  0  0  0
 37 39  1  0  0  0
 20 21  1  0  0  0
M  END
> <minimizedAffinity>
-7.45659

> <minimizedRMSD>
0.53613

$$$$
P18275


 41 46  0  0  0  0  0  0  0  0999 V2000
   -7.9791    4.3361  -13.6467 C   0  0  0  0  0  0  0  0  0  0  0  0
   -9.3718    4.2554  -13.5745 O   0  0  0  0  0  0  0  0  0  0  0  0
   -9.6318    3.9303  -12.6984 H   0  0  0  0  0  0  0  0  0  0  0  0
   -7.6928    4.8587  -15.0695 C   0  0  0  0  0  0  0  0  0  0  0  0
   -8.5179    4.3800  -16.1301 C   0  0  0  0  0  0  0  0  0  0  0  0
   -8.3162    4.7001  -17.4638 C   0  0  0  0  0  0  0  0  0  0  0  0
   -9.4228    4.1527  -18.6528 Cl  0  0  0  0  0  0  0  0  0  0  0  0
   -7.2381    5.4740  -17.8400 C   0  0  0  0  0  0  0  0  0  0  0  0
   -6.4102    5.9521  -16.8173 C   0  0  0  0  0  0  0  0  0  0  0  0
   -6.6288    5.7057  -15.4638 C   0  0  0  0  0  0  0  0  0  0  0  0
   -5.6172    6.4667  -14.8302 C   0  0  0  0  0  0  0  0  0  0  0  0
   -4.8115    7.0986  -15.6903 N   0  0  0  0  0  0  0  0  0  0  0  0
   -5.2484    6.6815  -16.8850 N   0  0  0  0  0  0  0  0  0  0  0  0
   -4.6609    7.0782  -18.1062 N   0  0  0  0  0  0  0  0  0  0  0  0
   -4.4850    8.0826  -18.0795 H   0  0  0  0  0  0  0  0  0  0  0  0
   -3.3896    6.3747  -18.3409 C   0  0  0  0  0  0  0  0  0  0  0  0
   -3.5237    4.8309  -18.3377 C   0  0  0  0  0  0  0  0  0  0  0  0
   -3.9301    4.8949  -19.8199 C   0  0  0  0  0  0  0  0  0  0  0  0
   -3.2166    6.2645  -19.8796 C   0  0  0  0  0  0  0  0  0  0  0  0
   -7.4591    1.9112  -13.6510 O   0  0  0  0  0  0  0  0  0  0  0  0
   -7.0728    3.0006  -13.4485 C   0  0  0  0  0  0  0  0  0  0  0  0
   -5.6570    3.5103  -13.0142 N   0  0  0  0  0  0  0  0  0  0  0  0
   -5.5629    4.4898  -12.9833 H   0  0  0  0  0  0  0  0  0  0  0  0
   -4.4627    2.7736  -12.6503 C   0  0  0  0  0  0  0  0  0  0  0  0
   -3.4207    3.7254  -12.0675 C   0  0  0  0  0  0  0  0  0  0  0  0
   -2.7734    4.6068  -13.1376 C   0  0  0  0  0  0  0  0  0  0  0  0
   -2.7803    4.0368  -14.4417 O   0  0  0  0  0  0  0  0  0  0  0  0
   -2.6235    2.6279  -14.4051 C   0  0  0  0  0  0  0  0  0  0  0  0
   -3.8328    1.9599  -13.7731 C   0  0  0  0  0  0  0  0  0  0  0  0
   -7.6293    5.3407  -12.6291 N   0  0  0  0  0  0  0  0  0  0  0  0
   -7.2119    6.1944  -12.8865 H   0  0  0  0  0  0  0  0  0  0  0  0
   -7.9090    5.0483  -11.2633 C   0  0  0  0  0  0  0  0  0  0  0  0
   -7.6489    6.0764  -10.3292 C   0  0  0  0  0  0  0  0  0  0  0  0
   -7.8652    5.9039   -8.9555 C   0  0  0  0  0  0  0  0  0  0  0  0
   -8.3549    4.6894   -8.5183 C   0  0  0  0  0  0  0  0  0  0  0  0
   -8.6046    3.6611   -9.4153 C   0  0  0  0  0  0  0  0  0  0  0  0
   -8.3723    3.8144  -10.7745 C   0  0  0  0  0  0  0  0  0  0  0  0
   -9.1165    2.4685   -8.6728 C   0  0  0  0  0  0  0  0  0  0  0  0
   -9.4754    2.9835   -7.3223 N   0  0  0  0  0  0  0  0  0  0  0  0
   -8.6863    4.2199   -7.1421 C   0  0  0  0  0  0  0  0  0  0  0  0
   -9.2334    2.2996   -6.6052 H   0  0  0  0  0  0  0  0  0  0  0  0
 20 21  2  0  0  0
 21 22  1  0  0  0
 22 24  1  0  0  0
 24 25  1  0  0  0
 25 26  1  0  0  0
 26 27  1  0  0  0
 27 28  1  0  0  0
 28 29  1  0  0  0
 21  1  1  0  0  0
  1  2  1  0  0  0
  1 30  1  0  0  0
 30 32  1  0  0  0
 32 33  2  0  0  0
 33 34  1  0  0  0
 34 35  2  0  0  0
 35 36  1  0  0  0
 36 37  2  0  0  0
 36 38  1  0  0  0
 38 39  1  0  0  0
 39 40  1  0  0  0
  1  4  1  0  0  0
  4  5  2  0  0  0
  5  6  1  0  0  0
  6  7  1  0  0  0
  6  8  2  0  0  0
  8  9  1  0  0  0
  9 10  2  0  0  0
 10 11  1  0  0  0
 11 12  2  0  0  0
 12 13  1  0  0  0
 13 14  1  0  0  0
 14 16  1  0  0  0
 16 17  1  0  0  0
 17 18  1  0  0  0
 18 19  1  0  0  0
 29 24  1  0  0  0
 37 32  1  0  0  0
 10  4  1  0  0  0
 19 16  1  0  0  0
 40 35  1  0  0  0
 13  9  1  0  0  0
 22 23  1  0  0  0
  2  3  1  0  0  0
 30 31  1  0  0  0
 39 41  1  0  0  0
 14 15  1  0  0  0
M  END
> <minimizedAffinity>
-8.39222

> <minimizedRMSD>
0.53357

$$$$
P18279


 41 46  0  0  0  0  0  0  0  0999 V2000
   -7.7761    4.1799  -13.7585 C   0  0  0  0  0  0  0  0  0  0  0  0
   -9.1778    4.1773  -13.6928 O   0  0  0  0  0  0  0  0  0  0  0  0
   -9.4591    3.9398  -12.7954 H   0  0  0  0  0  0  0  0  0  0  0  0
   -7.4462    4.5673  -15.2175 C   0  0  0  0  0  0  0  0  0  0  0  0
   -8.4064    4.3001  -16.2251 C   0  0  0  0  0  0  0  0  0  0  0  0
   -8.1528    4.4656  -17.5880 C   0  0  0  0  0  0  0  0  0  0  0  0
   -9.4022    4.1840  -18.7259 Cl  0  0  0  0  0  0  0  0  0  0  0  0
   -6.9038    4.8533  -18.0227 C   0  0  0  0  0  0  0  0  0  0  0  0
   -5.9491    5.1362  -17.0592 C   0  0  0  0  0  0  0  0  0  0  0  0
   -6.2255    5.0499  -15.6789 C   0  0  0  0  0  0  0  0  0  0  0  0
   -5.0072    5.4945  -14.9412 C   0  0  0  0  0  0  0  0  0  0  0  0
   -4.1600    6.1815  -15.9541 N   0  0  0  0  0  0  0  0  0  0  0  0
   -4.5160    5.5545  -17.2587 C   0  0  0  0  0  0  0  0  0  0  0  0
   -4.3079    6.4856  -18.4539 C   0  0  0  0  0  0  0  0  0  0  0  0
   -3.8405    5.5526  -19.5616 C   0  0  0  0  0  0  0  0  0  0  0  0
   -2.9136    4.6481  -18.8703 N   0  0  0  0  0  0  0  0  0  0  0  0
   -3.5912    4.3528  -17.5878 C   0  0  0  0  0  0  0  0  0  0  0  0
   -3.1712    6.0394  -15.7478 H   0  0  0  0  0  0  0  0  0  0  0  0
   -2.0152    5.1034  -18.7092 H   0  0  0  0  0  0  0  0  0  0  0  0
   -7.4892    1.7377  -13.6318 O   0  0  0  0  0  0  0  0  0  0  0  0
   -6.9963    2.7809  -13.4471 C   0  0  0  0  0  0  0  0  0  0  0  0
   -5.5774    3.1457  -12.9330 N   0  0  0  0  0  0  0  0  0  0  0  0
   -5.4257    4.1077  -12.7891 H   0  0  0  0  0  0  0  0  0  0  0  0
   -4.4434    2.3023  -12.6315 C   0  0  0  0  0  0  0  0  0  0  0  0
   -3.5808    2.0930  -13.8815 C   0  0  0  0  0  0  0  0  0  0  0  0
   -2.4092    3.0567  -13.8695 C   0  0  0  0  0  0  0  0  0  0  0  0
   -1.5414    2.8372  -12.7531 O   0  0  0  0  0  0  0  0  0  0  0  0
   -2.1929    2.3838  -11.5604 C   0  0  0  0  0  0  0  0  0  0  0  0
   -3.6333    2.8598  -11.4606 C   0  0  0  0  0  0  0  0  0  0  0  0
   -7.3821    5.2238  -12.7988 N   0  0  0  0  0  0  0  0  0  0  0  0
   -6.8987    6.0275  -13.0983 H   0  0  0  0  0  0  0  0  0  0  0  0
   -7.7175    5.0431  -11.4233 C   0  0  0  0  0  0  0  0  0  0  0  0
   -7.3747    6.0901  -10.5401 C   0  0  0  0  0  0  0  0  0  0  0  0
   -7.5896    5.9953   -9.1583 C   0  0  0  0  0  0  0  0  0  0  0  0
   -8.1429    4.8331   -8.6572 C   0  0  0  0  0  0  0  0  0  0  0  0
   -8.4914    3.7946   -9.5037 C   0  0  0  0  0  0  0  0  0  0  0  0
   -8.2767    3.8759  -10.8725 C   0  0  0  0  0  0  0  0  0  0  0  0
   -9.1176    2.6905   -8.7183 C   0  0  0  0  0  0  0  0  0  0  0  0
   -8.9407    3.0607   -7.2879 N   0  0  0  0  0  0  0  0  0  0  0  0
   -8.4880    4.4647   -7.2563 C   0  0  0  0  0  0  0  0  0  0  0  0
   -8.2416    2.4577   -6.8543 H   0  0  0  0  0  0  0  0  0  0  0  0
 20 21  2  0  0  0
 21 22  1  0  0  0
 22 24  1  0  0  0
 24 25  1  0  0  0
 25 26  1  0  0  0
 26 27  1  0  0  0
 27 28  1  0  0  0
 28 29  1  0  0  0
 21  1  1  0  0  0
  1  2  1  0  0  0
  1 30  1  0  0  0
 30 32  1  0  0  0
 32 33  2  0  0  0
 33 34  1  0  0  0
 34 35  2  0  0  0
 35 36  1  0  0  0
 36 37  2  0  0  0
 36 38  1  0  0  0
 38 39  1  0  0  0
 39 40  1  0  0  0
  1  4  1  0  0  0
  4  5  2  0  0  0
  5  6  1  0  0  0
  6  7  1  0  0  0
  6  8  2  0  0  0
  8  9  1  0  0  0
  9 10  2  0  0  0
 10 11  1  0  0  0
 11 12  1  0  0  0
 12 13  1  0  0  0
 13 14  1  0  0  0
 14 15  1  0  0  0
 15 16  1  0  0  0
 16 17  1  0  0  0
 29 24  1  0  0  0
 37 32  1  0  0  0
 10  4  1  0  0  0
 17 13  1  0  0  0
 40 35  1  0  0  0
 13  9  1  0  0  0
 22 23  1  0  0  0
  2  3  1  0  0  0
 30 31  1  0  0  0
 39 41  1  0  0  0
 12 18  1  0  0  0
 16 19  1  0  0  0
M  END
> <minimizedAffinity>
-9.47285

> <minimizedRMSD>
0.58922

$$$$
P18284


 30 33  0  0  0  0  0  0  0  0999 V2000
   -6.4832    4.7224  -17.3816 C   0  0  0  0  0  0  0  0  0  0  0  0
   -7.7446    4.6646  -18.0122 C   0  0  0  0  0  0  0  0  0  0  0  0
   -8.9044    4.4463  -17.2850 C   0  0  0  0  0  0  0  0  0  0  0  0
  -10.4182    4.4687  -18.0819 Cl  0  0  0  0  0  0  0  0  0  0  0  0
   -8.8320    4.2134  -15.9243 C   0  0  0  0  0  0  0  0  0  0  0  0
   -7.5948    4.2297  -15.2647 C   0  0  0  0  0  0  0  0  0  0  0  0
   -6.4153    4.5301  -15.9772 C   0  0  0  0  0  0  0  0  0  0  0  0
   -5.2103    4.7092  -15.2606 N   0  0  0  0  0  0  0  0  0  0  0  0
   -4.0392    3.9977  -15.3042 C   0  0  0  0  0  0  0  0  0  0  0  0
   -3.1120    4.5868  -14.5846 N   0  0  0  0  0  0  0  0  0  0  0  0
   -3.7637    5.6749  -14.0942 C   0  0  0  0  0  0  0  0  0  0  0  0
   -5.0206    5.8252  -14.5146 N   0  0  0  0  0  0  0  0  0  0  0  0
   -5.6994    4.8484  -19.6940 N   0  0  0  0  0  0  0  0  0  0  0  0
   -5.3219    5.0151  -18.2970 C   0  0  0  0  0  0  0  0  0  0  0  0
   -4.8968    5.0522  -20.2897 H   0  0  0  0  0  0  0  0  0  0  0  0
   -6.4610    5.4884  -19.9191 H   0  0  0  0  0  0  0  0  0  0  0  0
   -7.6517    3.6493  -13.8894 C   0  0  0  0  0  0  0  0  0  0  0  0
   -7.5725    2.4890  -13.7978 O   0  0  0  0  0  0  0  0  0  0  0  0
   -7.9121    4.7207  -12.8136 N   0  0  0  0  0  0  0  0  0  0  0  0
   -8.0097    5.6371  -13.1598 H   0  0  0  0  0  0  0  0  0  0  0  0
   -8.0322    4.6040  -11.4291 C   0  0  0  0  0  0  0  0  0  0  0  0
   -7.7677    5.7335  -10.6336 C   0  0  0  0  0  0  0  0  0  0  0  0
   -7.9191    5.6836   -9.2432 C   0  0  0  0  0  0  0  0  0  0  0  0
   -8.3817    4.5087   -8.6794 C   0  0  0  0  0  0  0  0  0  0  0  0
   -8.6628    3.3962   -9.4668 C   0  0  0  0  0  0  0  0  0  0  0  0
   -8.4665    3.4144  -10.8391 C   0  0  0  0  0  0  0  0  0  0  0  0
   -9.1803    2.2961   -8.5976 C   0  0  0  0  0  0  0  0  0  0  0  0
   -9.4949    2.9503   -7.2942 N   0  0  0  0  0  0  0  0  0  0  0  0
   -8.6685    4.1738   -7.2544 C   0  0  0  0  0  0  0  0  0  0  0  0
   -9.2546    2.3329   -6.5187 H   0  0  0  0  0  0  0  0  0  0  0  0
 13 14  1  0  0  0
 14  1  1  0  0  0
  1  2  2  0  0  0
  2  3  1  0  0  0
  3  4  1  0  0  0
  3  5  2  0  0  0
  5  6  1  0  0  0
  6 17  1  0  0  0
 17 18  2  0  0  0
 17 19  1  0  0  0
 19 21  1  0  0  0
 21 22  2  0  0  0
 22 23  1  0  0  0
 23 24  2  0  0  0
 24 25  1  0  0  0
 25 26  2  0  0  0
 25 27  1  0  0  0
 27 28  1  0  0  0
 28 29  1  0  0  0
  6  7  2  0  0  0
  7  8  1  0  0  0
  8  9  1  0  0  0
  9 10  2  0  0  0
 10 11  1  0  0  0
 11 12  2  0  0  0
  7  1  1  0  0  0
 12  8  1  0  0  0
 26 21  1  0  0  0
 29 24  1  0  0  0
 13 15  1  0  0  0
 13 16  1  0  0  0
 19 20  1  0  0  0
 28 30  1  0  0  0
M  END
> <minimizedAffinity>
-8.11422

> <minimizedRMSD>
0.95330

$$$$
P18285


 33 38  0  0  0  0  0  0  0  0999 V2000
   -7.2436    4.3008  -14.8367 C   0  0  0  0  0  0  0  0  0  0  0  0
   -8.4765    4.1843  -15.7774 C   0  0  0  0  0  0  0  0  0  0  0  0
   -8.1132    4.4535  -17.2578 C   0  0  0  0  0  0  0  0  0  0  0  0
   -9.6040    4.4112  -18.2444 Cl  0  0  0  0  0  0  0  0  0  0  0  0
   -7.3005    5.7631  -17.4634 C   0  0  0  0  0  0  0  0  0  0  0  0
   -6.6934    5.9231  -18.7813 N   0  0  0  0  0  0  0  0  0  0  0  0
   -5.8729    7.1227  -18.9532 C   0  0  0  0  0  0  0  0  0  0  0  0
   -5.5412    7.8971  -17.6662 C   0  0  0  0  0  0  0  0  0  0  0  0
   -5.1841    6.9485  -16.5304 C   0  0  0  0  0  0  0  0  0  0  0  0
   -6.1676    5.7723  -16.4508 C   0  0  0  0  0  0  0  0  0  0  0  0
   -6.7389    5.7376  -15.0042 C   0  0  0  0  0  0  0  0  0  0  0  0
   -5.5767    6.3008  -14.3449 N   0  0  0  0  0  0  0  0  0  0  0  0
   -5.6912    6.8253  -13.0224 N   0  0  0  0  0  0  0  0  0  0  0  0
   -4.5442    7.7619  -12.9878 C   0  0  0  0  0  0  0  0  0  0  0  0
   -4.1587    8.0382  -14.3926 N   0  0  0  0  0  0  0  0  0  0  0  0
   -5.2816    7.5062  -15.1254 C   0  0  0  0  0  0  0  0  0  0  0  0
   -7.4437    5.9534  -19.4718 H   0  0  0  0  0  0  0  0  0  0  0  0
   -5.5972    6.0922  -12.3195 H   0  0  0  0  0  0  0  0  0  0  0  0
   -3.2939    7.5576  -14.6404 H   0  0  0  0  0  0  0  0  0  0  0  0
   -7.6603    2.4661  -13.4504 O   0  0  0  0  0  0  0  0  0  0  0  0
   -7.5612    3.6314  -13.4911 C   0  0  0  0  0  0  0  0  0  0  0  0
   -7.7997    4.6984  -12.3931 N   0  0  0  0  0  0  0  0  0  0  0  0
   -7.7223    5.6305  -12.7004 H   0  0  0  0  0  0  0  0  0  0  0  0
   -8.1058    4.5533  -11.0412 C   0  0  0  0  0  0  0  0  0  0  0  0
   -7.9839    5.6646  -10.1897 C   0  0  0  0  0  0  0  0  0  0  0  0
   -8.2069    5.5383   -8.8126 C   0  0  0  0  0  0  0  0  0  0  0  0
   -8.5804    4.3008   -8.3182 C   0  0  0  0  0  0  0  0  0  0  0  0
   -8.7520    3.2165   -9.1678 C   0  0  0  0  0  0  0  0  0  0  0  0
   -8.5049    3.3186  -10.5269 C   0  0  0  0  0  0  0  0  0  0  0  0
   -9.1867    2.0239   -8.3855 C   0  0  0  0  0  0  0  0  0  0  0  0
   -9.4027    2.5097   -6.9966 N   0  0  0  0  0  0  0  0  0  0  0  0
   -8.8326    3.8657   -6.9147 C   0  0  0  0  0  0  0  0  0  0  0  0
   -8.9332    1.8927   -6.3338 H   0  0  0  0  0  0  0  0  0  0  0  0
 20 21  2  0  0  0
 21 22  1  0  0  0
 22 24  1  0  0  0
 24 25  2  0  0  0
 25 26  1  0  0  0
 26 27  2  0  0  0
 27 28  1  0  0  0
 28 29  2  0  0  0
 28 30  1  0  0  0
 30 31  1  0  0  0
 31 32  1  0  0  0
  1 21  1  0  0  0
  1  2  1  0  0  0
  2  3  1  0  0  0
  3  4  1  0  0  0
  3  5  1  0  0  0
  5  6  1  0  0  0
  6  7  1  0  0  0
  7  8  1  0  0  0
  9  8  1  0  0  0
 10  9  1  0  0  0
 10 11  1  0  0  0
 11 12  1  0  0  0
 12 13  1  0  0  0
 13 14  1  0  0  0
 14 15  1  0  0  0
 16 15  1  0  0  0
 29 24  1  0  0  0
 11  1  1  0  0  0
 16 12  1  0  0  0
 32 27  1  0  0  0
 10  5  1  0  0  0
 16  9  1  0  0  0
 22 23  1  0  0  0
 31 33  1  0  0  0
  6 17  1  0  0  0
 13 18  1  0  0  0
 15 19  1  0  0  0
M  END
> <minimizedAffinity>
-7.91827

> <minimizedRMSD>
0.31423

$$$$
P18289


 26 29  0  0  0  0  0  0  0  0999 V2000
   -7.5421    2.4423  -13.7473 O   0  0  0  0  0  0  0  0  0  0  0  0
   -7.6096    3.6031  -13.8525 C   0  0  0  0  0  0  0  0  0  0  0  0
   -7.8953    4.6895  -12.7927 N   0  0  0  0  0  0  0  0  0  0  0  0
   -7.9753    5.6033  -13.1504 H   0  0  0  0  0  0  0  0  0  0  0  0
   -8.0584    4.5870  -11.4126 C   0  0  0  0  0  0  0  0  0  0  0  0
   -7.8039    5.7252  -10.6243 C   0  0  0  0  0  0  0  0  0  0  0  0
   -7.9540    5.6843   -9.2340 C   0  0  0  0  0  0  0  0  0  0  0  0
   -8.4057    4.5089   -8.6639 C   0  0  0  0  0  0  0  0  0  0  0  0
   -8.6797    3.3900   -9.4457 C   0  0  0  0  0  0  0  0  0  0  0  0
   -8.4850    3.3999  -10.8176 C   0  0  0  0  0  0  0  0  0  0  0  0
   -9.1776    2.2881   -8.5688 C   0  0  0  0  0  0  0  0  0  0  0  0
   -9.5001    2.9466   -7.2692 N   0  0  0  0  0  0  0  0  0  0  0  0
   -8.6820    4.1762   -7.2364 C   0  0  0  0  0  0  0  0  0  0  0  0
   -9.2566    2.3354   -6.4898 H   0  0  0  0  0  0  0  0  0  0  0  0
   -7.5078    4.1868  -15.2227 C   0  0  0  0  0  0  0  0  0  0  0  0
   -8.7307    4.2061  -15.9137 C   0  0  0  0  0  0  0  0  0  0  0  0
   -8.7855    4.5542  -17.2569 C   0  0  0  0  0  0  0  0  0  0  0  0
  -10.2912    4.5908  -18.0776 Cl  0  0  0  0  0  0  0  0  0  0  0  0
   -7.6221    4.8746  -17.9406 C   0  0  0  0  0  0  0  0  0  0  0  0
   -6.4006    4.8832  -17.2640 C   0  0  0  0  0  0  0  0  0  0  0  0
   -6.3294    4.5673  -15.8902 C   0  0  0  0  0  0  0  0  0  0  0  0
   -5.0805    4.6876  -15.2309 N   0  0  0  0  0  0  0  0  0  0  0  0
   -3.8761    4.1009  -15.5538 C   0  0  0  0  0  0  0  0  0  0  0  0
   -2.9162    4.5502  -14.7767 N   0  0  0  0  0  0  0  0  0  0  0  0
   -3.5755    5.4258  -13.9712 C   0  0  0  0  0  0  0  0  0  0  0  0
   -4.8705    5.5707  -14.2375 N   0  0  0  0  0  0  0  0  0  0  0  0
  1  2  2  0  0  0
  2  3  1  0  0  0
  3  5  1  0  0  0
  5  6  2  0  0  0
  6  7  1  0  0  0
  7  8  2  0  0  0
  8  9  1  0  0  0
  9 10  2  0  0  0
  9 11  1  0  0  0
 11 12  1  0  0  0
 12 13  1  0  0  0
  2 15  1  0  0  0
 15 16  2  0  0  0
 16 17  1  0  0  0
 17 18  1  0  0  0
 17 19  2  0  0  0
 19 20  1  0  0  0
 20 21  2  0  0  0
 21 22  1  0  0  0
 22 23  1  0  0  0
 23 24  2  0  0  0
 24 25  1  0  0  0
 25 26  2  0  0  0
 10  5  1  0  0  0
 21 15  1  0  0  0
 26 22  1  0  0  0
 13  8  1  0  0  0
  3  4  1  0  0  0
 12 14  1  0  0  0
M  END
> <minimizedAffinity>
-7.73274

> <minimizedRMSD>
0.91586

$$$$
P18295


 30 34  0  0  0  0  0  0  0  0999 V2000
   -5.0906    6.2925  -18.6307 C   0  0  0  0  0  0  0  0  0  0  0  0
   -5.1055    4.9880  -17.9563 N   0  0  0  0  0  0  0  0  0  0  0  0
   -3.8737    4.6557  -17.2253 C   0  0  0  0  0  0  0  0  0  0  0  0
   -3.9167    5.0811  -15.8145 C   0  0  0  0  0  0  0  0  0  0  0  0
   -2.9858    5.5182  -14.9957 N   0  0  0  0  0  0  0  0  0  0  0  0
   -3.6995    5.7630  -13.8570 C   0  0  0  0  0  0  0  0  0  0  0  0
   -5.0152    5.5478  -13.9448 N   0  0  0  0  0  0  0  0  0  0  0  0
   -5.1300    5.0432  -15.1841 N   0  0  0  0  0  0  0  0  0  0  0  0
   -6.3407    4.7402  -15.8180 C   0  0  0  0  0  0  0  0  0  0  0  0
   -7.5258    4.4785  -15.1200 C   0  0  0  0  0  0  0  0  0  0  0  0
   -8.7340    4.4171  -15.8245 C   0  0  0  0  0  0  0  0  0  0  0  0
   -8.7416    4.4711  -17.2158 C   0  0  0  0  0  0  0  0  0  0  0  0
  -10.2706    4.4151  -18.0100 Cl  0  0  0  0  0  0  0  0  0  0  0  0
   -7.5306    4.5276  -17.9149 C   0  0  0  0  0  0  0  0  0  0  0  0
   -7.4625    4.1198  -19.5951 Cl  0  0  0  0  0  0  0  0  0  0  0  0
   -6.3139    4.7532  -17.2342 C   0  0  0  0  0  0  0  0  0  0  0  0
   -7.5843    3.8522  -13.7715 C   0  0  0  0  0  0  0  0  0  0  0  0
   -7.6153    2.6864  -13.7466 O   0  0  0  0  0  0  0  0  0  0  0  0
   -7.6959    4.8777  -12.6305 N   0  0  0  0  0  0  0  0  0  0  0  0
   -7.5623    5.8141  -12.9036 H   0  0  0  0  0  0  0  0  0  0  0  0
   -7.9553    4.6973  -11.2732 C   0  0  0  0  0  0  0  0  0  0  0  0
   -7.7458    5.7748  -10.3978 C   0  0  0  0  0  0  0  0  0  0  0  0
   -7.9635    5.6300   -9.0228 C   0  0  0  0  0  0  0  0  0  0  0  0
   -8.4163    4.4091   -8.5527 C   0  0  0  0  0  0  0  0  0  0  0  0
   -8.6667    3.3569   -9.4223 C   0  0  0  0  0  0  0  0  0  0  0  0
   -8.4265    3.4752  -10.7830 C   0  0  0  0  0  0  0  0  0  0  0  0
   -9.2218    2.1978   -8.6657 C   0  0  0  0  0  0  0  0  0  0  0  0
   -9.1524    2.5730   -7.2247 N   0  0  0  0  0  0  0  0  0  0  0  0
   -8.7351    3.9877   -7.1601 C   0  0  0  0  0  0  0  0  0  0  0  0
   -8.4715    1.9857   -6.7433 H   0  0  0  0  0  0  0  0  0  0  0  0
  1  2  1  0  0  0
  2  3  1  0  0  0
  3  4  1  0  0  0
  4  5  2  0  0  0
  5  6  1  0  0  0
  6  7  2  0  0  0
  7  8  1  0  0  0
  8  9  1  0  0  0
  9 10  2  0  0  0
 10 17  1  0  0  0
 17 18  2  0  0  0
 17 19  1  0  0  0
 19 21  1  0  0  0
 21 22  2  0  0  0
 22 23  1  0  0  0
 23 24  2  0  0  0
 24 25  1  0  0  0
 25 26  2  0  0  0
 25 27  1  0  0  0
 27 28  1  0  0  0
 28 29  1  0  0  0
 10 11  1  0  0  0
 11 12  2  0  0  0
 12 13  1  0  0  0
 12 14  1  0  0  0
 14 15  1  0  0  0
 14 16  2  0  0  0
 16  2  1  0  0  0
  8  4  1  0  0  0
 16  9  1  0  0  0
 26 21  1  0  0  0
 29 24  1  0  0  0
 19 20  1  0  0  0
 28 30  1  0  0  0
M  END
> <minimizedAffinity>
-8.09043

> <minimizedRMSD>
0.70473

$$$$
P18309


 37 40  0  0  0  0  0  0  0  0999 V2000
   -6.5954    4.7180  -17.0726 C   0  0  0  0  0  0  0  0  0  0  0  0
   -7.5985    4.5763  -18.0373 C   0  0  0  0  0  0  0  0  0  0  0  0
   -8.9305    4.4226  -17.6739 C   0  0  0  0  0  0  0  0  0  0  0  0
  -10.1013    4.2259  -18.8978 Cl  0  0  0  0  0  0  0  0  0  0  0  0
   -9.3099    4.5070  -16.3431 C   0  0  0  0  0  0  0  0  0  0  0  0
   -8.3206    4.6505  -15.3640 C   0  0  0  0  0  0  0  0  0  0  0  0
   -6.9503    4.6283  -15.7106 C   0  0  0  0  0  0  0  0  0  0  0  0
   -5.9283    4.3663  -14.7501 N   0  0  0  0  0  0  0  0  0  0  0  0
   -5.0370    5.1843  -14.1012 C   0  0  0  0  0  0  0  0  0  0  0  0
   -4.3693    4.5248  -13.1791 N   0  0  0  0  0  0  0  0  0  0  0  0
   -4.8774    3.2755  -13.2751 C   0  0  0  0  0  0  0  0  0  0  0  0
   -5.7873    3.1060  -14.2302 N   0  0  0  0  0  0  0  0  0  0  0  0
   -8.7837    5.0397  -14.0204 C   0  0  0  0  0  0  0  0  0  0  0  0
   -9.4265    6.0119  -13.9514 O   0  0  0  0  0  0  0  0  0  0  0  0
   -8.2647    4.1027  -12.9101 N   0  0  0  0  0  0  0  0  0  0  0  0
   -7.8023    3.2963  -13.2342 H   0  0  0  0  0  0  0  0  0  0  0  0
   -8.3438    4.2121  -11.5219 C   0  0  0  0  0  0  0  0  0  0  0  0
   -8.0256    5.4197  -10.8789 C   0  0  0  0  0  0  0  0  0  0  0  0
   -8.0601    5.5235   -9.4849 C   0  0  0  0  0  0  0  0  0  0  0  0
   -8.4263    4.4100   -8.7536 C   0  0  0  0  0  0  0  0  0  0  0  0
   -8.7593    3.2199   -9.3847 C   0  0  0  0  0  0  0  0  0  0  0  0
   -8.7182    3.0985  -10.7678 C   0  0  0  0  0  0  0  0  0  0  0  0
   -9.1480    2.2092   -8.3593 C   0  0  0  0  0  0  0  0  0  0  0  0
   -8.9507    2.8525   -7.0333 N   0  0  0  0  0  0  0  0  0  0  0  0
   -8.5677    4.2552   -7.2794 C   0  0  0  0  0  0  0  0  0  0  0  0
   -8.2110    2.3736   -6.5195 H   0  0  0  0  0  0  0  0  0  0  0  0
   -5.2957    4.9109  -17.5697 N   0  0  0  0  0  0  0  0  0  0  0  0
   -4.5836    4.2691  -17.3452 H   0  0  0  0  0  0  0  0  0  0  0  0
   -5.0012    6.0510  -18.4110 C   0  0  0  0  0  0  0  0  0  0  0  0
   -3.6030    6.3843  -18.4137 N   0  0  0  0  0  0  0  0  0  0  0  0
   -3.0722    5.6203  -18.8321 H   0  0  0  0  0  0  0  0  0  0  0  0
   -3.2871    6.5328  -17.4553 H   0  0  0  0  0  0  0  0  0  0  0  0
   -5.3546    5.8635  -19.7946 N   0  0  0  0  0  0  0  0  0  0  0  0
   -5.1737    4.8844  -20.0158 H   0  0  0  0  0  0  0  0  0  0  0  0
   -5.3325    8.0215  -21.0893 C   0  0  0  0  0  0  0  0  0  0  0  0
   -4.6949    6.6580  -20.8239 C   0  0  0  0  0  0  0  0  0  0  0  0
   -4.6778    5.8421  -22.1203 C   0  0  0  0  0  0  0  0  0  0  0  0
 35 36  1  0  0  0
 36 37  1  0  0  0
 36 33  1  0  0  0
 33 29  1  0  0  0
 29 30  1  0  0  0
 29 27  1  0  0  0
 27  1  1  0  0  0
  1  2  2  0  0  0
  2  3  1  0  0  0
  3  4  1  0  0  0
  3  5  2  0  0  0
  5  6  1  0  0  0
  6 13  1  0  0  0
 13 14  2  0  0  0
 13 15  1  0  0  0
 15 17  1  0  0  0
 17 18  2  0  0  0
 18 19  1  0  0  0
 19 20  2  0  0  0
 20 21  1  0  0  0
 21 22  2  0  0  0
 21 23  1  0  0  0
 23 24  1  0  0  0
 24 25  1  0  0  0
  6  7  2  0  0  0
  7  8  1  0  0  0
  8  9  1  0  0  0
  9 10  2  0  0  0
 10 11  1  0  0  0
 11 12  2  0  0  0
  7  1  1  0  0  0
 12  8  1  0  0  0
 22 17  1  0  0  0
 25 20  1  0  0  0
 33 34  1  0  0  0
 30 31  1  0  0  0
 30 32  1  0  0  0
 27 28  1  0  0  0
 15 16  1  0  0  0
 24 26  1  0  0  0
M  END
> <minimizedAffinity>
-7.80210

> <minimizedRMSD>
1.95004

$$$$
P18312


 40 44  0  0  0  0  0  0  0  0999 V2000
   -7.4834    4.2587  -15.4219 C   0  0  0  0  0  0  0  0  0  0  0  0
   -8.7467    4.2684  -16.0256 C   0  0  0  0  0  0  0  0  0  0  0  0
   -8.8678    4.5769  -17.3756 C   0  0  0  0  0  0  0  0  0  0  0  0
  -10.4228    4.5793  -18.1069 Cl  0  0  0  0  0  0  0  0  0  0  0  0
   -7.7340    4.8197  -18.1502 C   0  0  0  0  0  0  0  0  0  0  0  0
   -6.4649    4.8291  -17.5632 C   0  0  0  0  0  0  0  0  0  0  0  0
   -6.3555    4.6567  -16.1599 C   0  0  0  0  0  0  0  0  0  0  0  0
   -5.1304    4.9247  -15.5185 N   0  0  0  0  0  0  0  0  0  0  0  0
   -4.7824    6.0830  -14.8569 C   0  0  0  0  0  0  0  0  0  0  0  0
   -3.5215    6.0534  -14.5011 N   0  0  0  0  0  0  0  0  0  0  0  0
   -3.1480    4.7995  -14.8791 C   0  0  0  0  0  0  0  0  0  0  0  0
   -4.1027    4.0635  -15.4492 N   0  0  0  0  0  0  0  0  0  0  0  0
   -7.7379    4.7882  -12.9906 N   0  0  0  0  0  0  0  0  0  0  0  0
   -7.4581    3.6952  -14.0459 C   0  0  0  0  0  0  0  0  0  0  0  0
   -7.3145    2.5432  -13.9226 O   0  0  0  0  0  0  0  0  0  0  0  0
   -7.7421    5.7081  -13.3412 H   0  0  0  0  0  0  0  0  0  0  0  0
   -9.1834    1.9836   -6.4809 N   0  0  0  0  0  0  0  0  0  0  0  0
   -9.4550    2.8990   -7.5477 N   0  0  0  0  0  0  0  0  0  0  0  0
   -8.6703    4.1515   -7.4625 C   0  0  0  0  0  0  0  0  0  0  0  0
   -8.4269    4.5377   -8.8887 C   0  0  0  0  0  0  0  0  0  0  0  0
   -8.0572    5.7535   -9.4338 C   0  0  0  0  0  0  0  0  0  0  0  0
   -7.8688    5.8298  -10.8197 C   0  0  0  0  0  0  0  0  0  0  0  0
   -7.9851    4.6839  -11.6237 C   0  0  0  0  0  0  0  0  0  0  0  0
   -8.3664    3.4635  -11.0596 C   0  0  0  0  0  0  0  0  0  0  0  0
   -8.6204    3.4208   -9.6983 C   0  0  0  0  0  0  0  0  0  0  0  0
   -9.1092    2.2775   -8.8629 C   0  0  0  0  0  0  0  0  0  0  0  0
   -9.4232    2.4187   -5.5901 H   0  0  0  0  0  0  0  0  0  0  0  0
   -8.1927    1.7410   -6.4850 H   0  0  0  0  0  0  0  0  0  0  0  0
   -5.3146    4.8457  -18.3821 N   0  0  0  0  0  0  0  0  0  0  0  0
   -5.1683    4.6699  -19.9027 C   0  0  0  0  0  0  0  0  0  0  0  0
   -5.9624    4.4076  -20.7113 O   0  0  0  0  0  0  0  0  0  0  0  0
   -4.4685    4.9940  -17.9012 H   0  0  0  0  0  0  0  0  0  0  0  0
   -3.8599    4.8029  -20.2805 O   0  0  0  0  0  0  0  0  0  0  0  0
   -3.0364    5.8911  -19.8189 C   0  0  0  0  0  0  0  0  0  0  0  0
   -3.4254    7.2640  -20.3182 C   0  0  0  0  0  0  0  0  0  0  0  0
   -3.3034    7.6169  -21.6701 C   0  0  0  0  0  0  0  0  0  0  0  0
   -3.6281    8.9043  -22.1023 C   0  0  0  0  0  0  0  0  0  0  0  0
   -4.0662    9.8590  -21.1879 C   0  0  0  0  0  0  0  0  0  0  0  0
   -4.1706    9.5295  -19.8383 C   0  0  0  0  0  0  0  0  0  0  0  0
   -3.8425    8.2434  -19.4039 C   0  0  0  0  0  0  0  0  0  0  0  0
 17 18  1  0  0  0
 18 19  1  0  0  0
 19 20  1  0  0  0
 20 21  2  0  0  0
 21 22  1  0  0  0
 22 23  2  0  0  0
 23 13  1  0  0  0
 13 14  1  0  0  0
 14 15  2  0  0  0
 14  1  1  0  0  0
  1  2  2  0  0  0
  2  3  1  0  0  0
  3  4  1  0  0  0
  3  5  2  0  0  0
  5  6  1  0  0  0
  6 29  1  0  0  0
 29 30  1  0  0  0
 30 31  2  0  0  0
 30 33  1  0  0  0
 33 34  1  0  0  0
 34 35  1  0  0  0
 35 36  2  0  0  0
 36 37  1  0  0  0
 37 38  2  0  0  0
 38 39  1  0  0  0
 39 40  2  0  0  0
  6  7  2  0  0  0
  7  8  1  0  0  0
  8  9  1  0  0  0
  9 10  2  0  0  0
 10 11  1  0  0  0
 11 12  2  0  0  0
 23 24  1  0  0  0
 24 25  2  0  0  0
 25 26  1  0  0  0
 26 18  1  0  0  0
 25 20  1  0  0  0
  7  1  1  0  0  0
 12  8  1  0  0  0
 40 35  1  0  0  0
 17 27  1  0  0  0
 17 28  1  0  0  0
 13 16  1  0  0  0
 29 32  1  0  0  0
M  END
> <minimizedAffinity>
-8.39458

> <minimizedRMSD>
0.87959

$$$$
P18323


 46 52  0  0  0  0  0  0  0  0999 V2000
   -7.1564    4.4981  -13.6391 C   0  0  0  0  0  0  0  0  0  0  0  0
   -6.1893    5.4072  -13.1557 O   0  0  0  0  0  0  0  0  0  0  0  0
   -6.0992    5.3032  -12.1955 H   0  0  0  0  0  0  0  0  0  0  0  0
   -7.2597    4.7069  -15.1745 C   0  0  0  0  0  0  0  0  0  0  0  0
   -8.5296    4.4994  -15.7824 C   0  0  0  0  0  0  0  0  0  0  0  0
   -8.6790    4.4030  -17.1728 C   0  0  0  0  0  0  0  0  0  0  0  0
  -10.2409    4.2295  -17.8767 Cl  0  0  0  0  0  0  0  0  0  0  0  0
   -7.5691    4.4541  -18.0042 C   0  0  0  0  0  0  0  0  0  0  0  0
   -6.3372    4.7030  -17.4267 C   0  0  0  0  0  0  0  0  0  0  0  0
   -6.1631    4.8954  -16.0480 C   0  0  0  0  0  0  0  0  0  0  0  0
   -4.6936    5.3263  -15.8819 C   0  0  0  0  0  0  0  0  0  0  0  0
   -3.9976    4.5647  -14.8366 N   0  0  0  0  0  0  0  0  0  0  0  0
   -3.0736    5.4896  -14.2032 C   0  0  0  0  0  0  0  0  0  0  0  0
   -3.8366    6.7178  -14.0878 N   0  0  0  0  0  0  0  0  0  0  0  0
   -4.5432    6.8041  -15.3983 C   0  0  0  0  0  0  0  0  0  0  0  0
   -3.7459    7.7306  -16.3329 C   0  0  0  0  0  0  0  0  0  0  0  0
   -3.6905    7.2543  -17.6737 O   0  0  0  0  0  0  0  0  0  0  0  0
   -3.1249    5.9530  -17.6798 C   0  0  0  0  0  0  0  0  0  0  0  0
   -4.0577    4.9613  -17.1709 N   0  0  0  0  0  0  0  0  0  0  0  0
   -5.1118    4.7318  -18.1163 N   0  0  0  0  0  0  0  0  0  0  0  0
   -3.4878    3.7836  -15.2492 H   0  0  0  0  0  0  0  0  0  0  0  0
   -3.2210    7.5194  -13.9506 H   0  0  0  0  0  0  0  0  0  0  0  0
   -4.9966    4.6139  -19.0869 H   0  0  0  0  0  0  0  0  0  0  0  0
   -7.2973    2.0237  -13.8356 O   0  0  0  0  0  0  0  0  0  0  0  0
   -6.7053    2.9518  -13.4416 C   0  0  0  0  0  0  0  0  0  0  0  0
   -5.3213    3.0390  -12.7368 N   0  0  0  0  0  0  0  0  0  0  0  0
   -5.0714    3.9401  -12.4290 H   0  0  0  0  0  0  0  0  0  0  0  0
   -4.3510    2.0206  -12.4629 C   0  0  0  0  0  0  0  0  0  0  0  0
   -3.3006    2.7747  -11.6318 C   0  0  0  0  0  0  0  0  0  0  0  0
   -1.8644    2.6172  -12.1653 C   0  0  0  0  0  0  0  0  0  0  0  0
   -0.9238    3.5827  -11.4517 C   0  0  0  0  0  0  0  0  0  0  0  0
   -1.5204    4.1985  -10.3107 O   0  0  0  0  0  0  0  0  0  0  0  0
   -2.2216    3.3043   -9.4413 C   0  0  0  0  0  0  0  0  0  0  0  0
   -3.2770    2.4461  -10.1518 C   0  0  0  0  0  0  0  0  0  0  0  0
   -8.4097    4.8530  -12.9820 N   0  0  0  0  0  0  0  0  0  0  0  0
   -9.2207    5.1215  -13.4713 H   0  0  0  0  0  0  0  0  0  0  0  0
   -8.3421    4.7719  -11.5639 C   0  0  0  0  0  0  0  0  0  0  0  0
   -8.0185    5.9173  -10.7950 C   0  0  0  0  0  0  0  0  0  0  0  0
   -7.9578    5.8711   -9.4012 C   0  0  0  0  0  0  0  0  0  0  0  0
   -8.2577    4.6736   -8.7863 C   0  0  0  0  0  0  0  0  0  0  0  0
   -8.5630    3.5399   -9.5333 C   0  0  0  0  0  0  0  0  0  0  0  0
   -8.5711    3.5572  -10.9195 C   0  0  0  0  0  0  0  0  0  0  0  0
   -8.8736    2.4116   -8.6100 C   0  0  0  0  0  0  0  0  0  0  0  0
   -8.9690    3.0182   -7.2563 N   0  0  0  0  0  0  0  0  0  0  0  0
   -8.3414    4.3468   -7.3352 C   0  0  0  0  0  0  0  0  0  0  0  0
   -8.4767    2.4380   -6.5770 H   0  0  0  0  0  0  0  0  0  0  0  0
 24 25  2  0  0  0
 25 26  1  0  0  0
 26 28  1  0  0  0
 28 29  1  0  0  0
 29 30  1  0  0  0
 30 31  1  0  0  0
 31 32  1  0  0  0
 32 33  1  0  0  0
 33 34  1  0  0  0
 25  1  1  0  0  0
  1  2  1  0  0  0
  1 35  1  0  0  0
 35 37  1  0  0  0
 37 38  2  0  0  0
 38 39  1  0  0  0
 39 40  2  0  0  0
 40 41  1  0  0  0
 41 42  2  0  0  0
 41 43  1  0  0  0
 43 44  1  0  0  0
 44 45  1  0  0  0
  1  4  1  0  0  0
  4  5  2  0  0  0
  5  6  1  0  0  0
  6  7  1  0  0  0
  6  8  2  0  0  0
  8  9  1  0  0  0
  9 10  2  0  0  0
 10 11  1  0  0  0
 11 12  1  0  0  0
 12 13  1  0  0  0
 13 14  1  0  0  0
 14 15  1  0  0  0
 15 16  1  0  0  0
 16 17  1  0  0  0
 17 18  1  0  0  0
 18 19  1  0  0  0
 19 20  1  0  0  0
 34 29  1  0  0  0
 42 37  1  0  0  0
 10  4  1  0  0  0
 15 11  1  0  0  0
 45 40  1  0  0  0
 20  9  1  0  0  0
 19 11  1  0  0  0
 26 27  1  0  0  0
  2  3  1  0  0  0
 35 36  1  0  0  0
 44 46  1  0  0  0
 12 21  1  0  0  0
 14 22  1  0  0  0
 20 23  1  0  0  0
M  END
> <minimizedAffinity>
-8.40095

> <minimizedRMSD>
2.16590

$$$$
P18332


 35 38  0  0  0  0  0  0  0  0999 V2000
   -7.1263    4.2498  -13.6646 C   0  0  0  0  0  0  0  0  0  0  0  0
   -6.3498    5.3306  -13.1668 O   0  0  0  0  0  0  0  0  0  0  0  0
   -6.2334    5.2308  -12.2090 H   0  0  0  0  0  0  0  0  0  0  0  0
   -7.2651    4.4872  -15.2059 C   0  0  0  0  0  0  0  0  0  0  0  0
   -8.5327    4.4398  -15.8240 C   0  0  0  0  0  0  0  0  0  0  0  0
   -8.6894    4.5143  -17.2174 C   0  0  0  0  0  0  0  0  0  0  0  0
  -10.2409    4.5962  -17.9323 Cl  0  0  0  0  0  0  0  0  0  0  0  0
   -7.5978    4.5622  -18.0615 C   0  0  0  0  0  0  0  0  0  0  0  0
   -6.3366    4.6134  -17.5095 C   0  0  0  0  0  0  0  0  0  0  0  0
   -6.1729    4.6418  -16.1067 C   0  0  0  0  0  0  0  0  0  0  0  0
   -4.8827    5.0519  -15.7258 N   0  0  0  0  0  0  0  0  0  0  0  0
   -4.4842    6.3662  -15.6056 C   0  0  0  0  0  0  0  0  0  0  0  0
   -3.1775    6.4522  -15.6362 N   0  0  0  0  0  0  0  0  0  0  0  0
   -2.8018    5.1616  -15.8645 C   0  0  0  0  0  0  0  0  0  0  0  0
   -3.7938    4.2826  -15.9485 N   0  0  0  0  0  0  0  0  0  0  0  0
   -6.9345    1.8168  -13.7819 O   0  0  0  0  0  0  0  0  0  0  0  0
   -6.4510    2.8084  -13.4019 C   0  0  0  0  0  0  0  0  0  0  0  0
   -5.0912    3.0576  -12.6948 N   0  0  0  0  0  0  0  0  0  0  0  0
   -4.9429    3.9855  -12.4013 H   0  0  0  0  0  0  0  0  0  0  0  0
   -4.0100    2.1499  -12.3983 C   0  0  0  0  0  0  0  0  0  0  0  0
   -3.1076    2.0303  -13.6277 C   0  0  0  0  0  0  0  0  0  0  0  0
   -3.7443    1.3735  -14.6310 F   0  0  0  0  0  0  0  0  0  0  0  0
   -1.9826    1.3379  -13.3468 F   0  0  0  0  0  0  0  0  0  0  0  0
   -8.4319    4.2544  -12.9743 N   0  0  0  0  0  0  0  0  0  0  0  0
   -9.2838    4.1984  -13.4647 H   0  0  0  0  0  0  0  0  0  0  0  0
   -8.3802    4.3449  -11.5579 C   0  0  0  0  0  0  0  0  0  0  0  0
   -8.0792    5.5612  -10.9157 C   0  0  0  0  0  0  0  0  0  0  0  0
   -8.0579    5.6668   -9.5191 C   0  0  0  0  0  0  0  0  0  0  0  0
   -8.3534    4.5437   -8.7693 C   0  0  0  0  0  0  0  0  0  0  0  0
   -8.6493    3.3384   -9.3844 C   0  0  0  0  0  0  0  0  0  0  0  0
   -8.6557    3.2195  -10.7677 C   0  0  0  0  0  0  0  0  0  0  0  0
   -8.9597    2.3102   -8.3491 C   0  0  0  0  0  0  0  0  0  0  0  0
   -8.8974    3.0063   -7.0358 N   0  0  0  0  0  0  0  0  0  0  0  0
   -8.4552    4.3889   -7.2916 C   0  0  0  0  0  0  0  0  0  0  0  0
   -8.2323    2.5352   -6.4225 H   0  0  0  0  0  0  0  0  0  0  0  0
 16 17  2  0  0  0
 17 18  1  0  0  0
 18 20  1  0  0  0
 20 21  1  0  0  0
 21 22  1  0  0  0
 21 23  1  0  0  0
 17  1  1  0  0  0
  1  2  1  0  0  0
  1 24  1  0  0  0
 24 26  1  0  0  0
 26 27  2  0  0  0
 27 28  1  0  0  0
 28 29  2  0  0  0
 29 30  1  0  0  0
 30 31  2  0  0  0
 30 32  1  0  0  0
 32 33  1  0  0  0
 33 34  1  0  0  0
  1  4  1  0  0  0
  4  5  2  0  0  0
  5  6  1  0  0  0
  6  7  1  0  0  0
  6  8  2  0  0  0
  8  9  1  0  0  0
  9 10  2  0  0  0
 10 11  1  0  0  0
 11 12  1  0  0  0
 12 13  2  0  0  0
 13 14  1  0  0  0
 14 15  2  0  0  0
 31 26  1  0  0  0
 10  4  1  0  0  0
 15 11  1  0  0  0
 34 29  1  0  0  0
 18 19  1  0  0  0
  2  3  1  0  0  0
 24 25  1  0  0  0
 33 35  1  0  0  0
M  END
> <minimizedAffinity>
-8.15093

> <minimizedRMSD>
0.76756

$$$$
P18334


 33 38  0  0  0  0  0  0  0  0999 V2000
   -8.1806    5.1946  -15.3760 C   0  0  0  0  0  0  0  0  0  0  0  0
   -9.1813    4.8166  -16.2813 C   0  0  0  0  0  0  0  0  0  0  0  0
   -8.8428    4.5354  -17.6142 C   0  0  0  0  0  0  0  0  0  0  0  0
  -10.0559    4.1299  -18.7464 Cl  0  0  0  0  0  0  0  0  0  0  0  0
   -7.5284    4.5988  -18.0656 C   0  0  0  0  0  0  0  0  0  0  0  0
   -6.5537    4.9348  -17.1531 C   0  0  0  0  0  0  0  0  0  0  0  0
   -6.8560    5.2473  -15.8105 C   0  0  0  0  0  0  0  0  0  0  0  0
   -5.5610    5.5726  -15.0630 C   0  0  0  0  0  0  0  0  0  0  0  0
   -5.3969    7.0252  -14.5874 C   0  0  0  0  0  0  0  0  0  0  0  0
   -5.2796    6.9184  -13.1192 N   0  0  0  0  0  0  0  0  0  0  0  0
   -4.6730    5.6154  -12.9270 C   0  0  0  0  0  0  0  0  0  0  0  0
   -5.3298    4.7338  -13.8781 N   0  0  0  0  0  0  0  0  0  0  0  0
   -4.5719    5.2716  -16.1533 C   0  0  0  0  0  0  0  0  0  0  0  0
   -5.1306    4.9702  -17.3229 C   0  0  0  0  0  0  0  0  0  0  0  0
   -4.1763    4.6115  -18.3792 C   0  0  0  0  0  0  0  0  0  0  0  0
   -2.8401    4.9991  -17.7092 C   0  0  0  0  0  0  0  0  0  0  0  0
   -3.0986    5.1765  -16.1952 C   0  0  0  0  0  0  0  0  0  0  0  0
   -6.1968    6.9636  -12.6751 H   0  0  0  0  0  0  0  0  0  0  0  0
   -6.2137    4.3918  -13.5010 H   0  0  0  0  0  0  0  0  0  0  0  0
   -8.9803    6.6497  -13.8316 O   0  0  0  0  0  0  0  0  0  0  0  0
   -8.5197    5.5899  -13.9897 C   0  0  0  0  0  0  0  0  0  0  0  0
   -8.0931    4.5215  -12.9621 N   0  0  0  0  0  0  0  0  0  0  0  0
   -7.6554    3.7291  -13.3490 H   0  0  0  0  0  0  0  0  0  0  0  0
   -8.2267    4.4955  -11.5744 C   0  0  0  0  0  0  0  0  0  0  0  0
   -7.9858    5.6558  -10.8177 C   0  0  0  0  0  0  0  0  0  0  0  0
   -8.0571    5.6363   -9.4222 C   0  0  0  0  0  0  0  0  0  0  0  0
   -8.3951    4.4491   -8.8057 C   0  0  0  0  0  0  0  0  0  0  0  0
   -8.6464    3.3003   -9.5497 C   0  0  0  0  0  0  0  0  0  0  0  0
   -8.5576    3.3000  -10.9348 C   0  0  0  0  0  0  0  0  0  0  0  0
   -8.9695    2.1840   -8.6108 C   0  0  0  0  0  0  0  0  0  0  0  0
   -9.2426    2.8368   -7.3028 N   0  0  0  0  0  0  0  0  0  0  0  0
   -8.5465    4.1374   -7.3547 C   0  0  0  0  0  0  0  0  0  0  0  0
   -8.8783    2.2683   -6.5383 H   0  0  0  0  0  0  0  0  0  0  0  0
 20 21  2  0  0  0
 21 22  1  0  0  0
 22 24  1  0  0  0
 24 25  2  0  0  0
 25 26  1  0  0  0
 26 27  2  0  0  0
 27 28  1  0  0  0
 28 29  2  0  0  0
 28 30  1  0  0  0
 30 31  1  0  0  0
 31 32  1  0  0  0
 21  1  1  0  0  0
  1  2  2  0  0  0
  2  3  1  0  0  0
  3  4  1  0  0  0
  3  5  2  0  0  0
  5  6  1  0  0  0
  6  7  2  0  0  0
  7  8  1  0  0  0
  8  9  1  0  0  0
  9 10  1  0  0  0
 10 11  1  0  0  0
 11 12  1  0  0  0
  8 13  1  0  0  0
 13 14  2  0  0  0
 14 15  1  0  0  0
 15 16  1  0  0  0
 16 17  1  0  0  0
 29 24  1  0  0  0
  7  1  1  0  0  0
 12  8  1  0  0  0
 17 13  1  0  0  0
 32 27  1  0  0  0
 14  6  1  0  0  0
 22 23  1  0  0  0
 31 33  1  0  0  0
 10 18  1  0  0  0
 12 19  1  0  0  0
M  END
> <minimizedAffinity>
-8.87831

> <minimizedRMSD>
0.90587

$$$$
P18336


 29 33  0  0  0  0  0  0  0  0999 V2000
   -7.8350    5.6105  -15.2392 C   0  0  0  0  0  0  0  0  0  0  0  0
   -9.1037    5.0510  -15.8919 C   0  0  0  0  0  0  0  0  0  0  0  0
   -8.8242    4.2761  -17.1826 C   0  0  0  0  0  0  0  0  0  0  0  0
  -10.2064    4.3614  -18.3015 Cl  0  0  0  0  0  0  0  0  0  0  0  0
   -7.5493    4.7110  -17.8906 C   0  0  0  0  0  0  0  0  0  0  0  0
   -6.3252    4.5672  -16.9804 C   0  0  0  0  0  0  0  0  0  0  0  0
   -5.2661    5.6270  -17.2782 C   0  0  0  0  0  0  0  0  0  0  0  0
   -4.3667    5.6160  -16.0509 C   0  0  0  0  0  0  0  0  0  0  0  0
   -3.7391    6.8832  -15.9251 O   0  0  0  0  0  0  0  0  0  0  0  0
   -3.2998    4.5059  -16.0483 C   0  0  0  0  0  0  0  0  0  0  0  0
   -3.7483    3.4951  -14.9997 C   0  0  0  0  0  0  0  0  0  0  0  0
   -4.5295    4.3310  -14.0013 C   0  0  0  0  0  0  0  0  0  0  0  0
   -5.3075    5.3271  -14.8646 C   0  0  0  0  0  0  0  0  0  0  0  0
   -6.6065    4.7158  -15.4651 C   0  0  0  0  0  0  0  0  0  0  0  0
   -3.1560    7.0322  -16.6858 H   0  0  0  0  0  0  0  0  0  0  0  0
   -8.0333    7.1879  -13.5060 O   0  0  0  0  0  0  0  0  0  0  0  0
   -8.0400    6.0488  -13.7784 C   0  0  0  0  0  0  0  0  0  0  0  0
   -8.1712    4.7941  -12.8657 N   0  0  0  0  0  0  0  0  0  0  0  0
   -8.2266    3.9375  -13.3479 H   0  0  0  0  0  0  0  0  0  0  0  0
   -8.2229    4.6866  -11.4749 C   0  0  0  0  0  0  0  0  0  0  0  0
   -7.9729    5.8083  -10.6677 C   0  0  0  0  0  0  0  0  0  0  0  0
   -8.0380    5.7233   -9.2742 C   0  0  0  0  0  0  0  0  0  0  0  0
   -8.3859    4.5126   -8.7081 C   0  0  0  0  0  0  0  0  0  0  0  0
   -8.6441    3.4021   -9.5000 C   0  0  0  0  0  0  0  0  0  0  0  0
   -8.5453    3.4608  -10.8854 C   0  0  0  0  0  0  0  0  0  0  0  0
   -9.0329    2.2557   -8.6285 C   0  0  0  0  0  0  0  0  0  0  0  0
   -9.0634    2.7745   -7.2346 N   0  0  0  0  0  0  0  0  0  0  0  0
   -8.5716    4.1641   -7.2725 C   0  0  0  0  0  0  0  0  0  0  0  0
   -8.4611    2.2074   -6.6379 H   0  0  0  0  0  0  0  0  0  0  0  0
 16 17  2  0  0  0
 17 18  1  0  0  0
 18 20  1  0  0  0
 20 21  2  0  0  0
 21 22  1  0  0  0
 22 23  2  0  0  0
 23 24  1  0  0  0
 24 25  2  0  0  0
 24 26  1  0  0  0
 26 27  1  0  0  0
 27 28  1  0  0  0
  1 17  1  0  0  0
  1  2  1  0  0  0
  2  3  1  0  0  0
  3  4  1  0  0  0
  3  5  1  0  0  0
  6  5  1  0  0  0
  6  7  1  0  0  0
  7  8  1  0  0  0
  8  9  1  0  0  0
  8 10  1  0  0  0
 10 11  1  0  0  0
 11 12  1  0  0  0
 13 12  1  0  0  0
 13 14  1  0  0  0
 25 20  1  0  0  0
 14  1  1  0  0  0
 28 23  1  0  0  0
 14  6  1  0  0  0
 13  8  1  0  0  0
 18 19  1  0  0  0
 27 29  1  0  0  0
  9 15  1  0  0  0
M  END
> <minimizedAffinity>
-8.11359

> <minimizedRMSD>
0.55695

$$$$
P18340


 34 38  0  0  0  0  0  0  0  0999 V2000
   -5.0106    4.9008  -17.2319 C   0  0  0  0  0  0  0  0  0  0  0  0
   -4.6400    5.6470  -15.9319 C   0  0  0  0  0  0  0  0  0  0  0  0
   -5.6190    5.1259  -14.8307 C   0  0  0  0  0  0  0  0  0  0  0  0
   -5.5753    6.0117  -13.5880 C   0  0  0  0  0  0  0  0  0  0  0  0
   -4.3646    5.5248  -12.9009 N   0  0  0  0  0  0  0  0  0  0  0  0
   -4.4902    4.0829  -13.0356 C   0  0  0  0  0  0  0  0  0  0  0  0
   -5.1502    3.8232  -14.3062 N   0  0  0  0  0  0  0  0  0  0  0  0
   -6.8572    4.9453  -15.6734 C   0  0  0  0  0  0  0  0  0  0  0  0
   -8.2068    4.8914  -15.3400 C   0  0  0  0  0  0  0  0  0  0  0  0
   -9.1592    4.6324  -16.3362 C   0  0  0  0  0  0  0  0  0  0  0  0
   -8.7674    4.4655  -17.6648 C   0  0  0  0  0  0  0  0  0  0  0  0
   -9.9359    4.2799  -18.9063 Cl  0  0  0  0  0  0  0  0  0  0  0  0
   -7.4308    4.5251  -18.0196 C   0  0  0  0  0  0  0  0  0  0  0  0
   -6.4933    4.7711  -17.0266 C   0  0  0  0  0  0  0  0  0  0  0  0
   -4.3587    5.8049  -11.9201 H   0  0  0  0  0  0  0  0  0  0  0  0
   -5.9431    3.1970  -14.1665 H   0  0  0  0  0  0  0  0  0  0  0  0
   -3.8156    4.8715  -19.4312 N   0  0  0  0  0  0  0  0  0  0  0  0
   -4.6410    5.6538  -18.5177 C   0  0  0  0  0  0  0  0  0  0  0  0
   -3.6067    5.4267  -20.2609 H   0  0  0  0  0  0  0  0  0  0  0  0
   -4.3180    4.0270  -19.7048 H   0  0  0  0  0  0  0  0  0  0  0  0
   -8.7145    5.2507  -14.0014 C   0  0  0  0  0  0  0  0  0  0  0  0
   -9.4743    6.1328  -13.9153 O   0  0  0  0  0  0  0  0  0  0  0  0
   -8.1078    4.3421  -12.9106 N   0  0  0  0  0  0  0  0  0  0  0  0
   -7.5418    3.6118  -13.2504 H   0  0  0  0  0  0  0  0  0  0  0  0
   -8.2310    4.3875  -11.5221 C   0  0  0  0  0  0  0  0  0  0  0  0
   -7.9902    5.5684  -10.8038 C   0  0  0  0  0  0  0  0  0  0  0  0
   -8.0937    5.5921   -9.4079 C   0  0  0  0  0  0  0  0  0  0  0  0
   -8.4549    4.4281   -8.7541 C   0  0  0  0  0  0  0  0  0  0  0  0
   -8.7124    3.2646   -9.4634 C   0  0  0  0  0  0  0  0  0  0  0  0
   -8.5964    3.2218  -10.8452 C   0  0  0  0  0  0  0  0  0  0  0  0
   -9.1177    2.1838   -8.5212 C   0  0  0  0  0  0  0  0  0  0  0  0
   -9.0298    2.7612   -7.1531 N   0  0  0  0  0  0  0  0  0  0  0  0
   -8.6609    4.1834   -7.2998 C   0  0  0  0  0  0  0  0  0  0  0  0
   -8.3183    2.2700   -6.6119 H   0  0  0  0  0  0  0  0  0  0  0  0
 17 18  1  0  0  0
  1 18  1  0  0  0
  1  2  1  0  0  0
  3  2  1  0  0  0
  3  4  1  0  0  0
  4  5  1  0  0  0
  5  6  1  0  0  0
  6  7  1  0  0  0
  3  8  1  0  0  0
  8  9  2  0  0  0
  9 21  1  0  0  0
 21 22  2  0  0  0
 21 23  1  0  0  0
 23 25  1  0  0  0
 25 26  2  0  0  0
 26 27  1  0  0  0
 27 28  2  0  0  0
 28 29  1  0  0  0
 29 30  2  0  0  0
 29 31  1  0  0  0
 31 32  1  0  0  0
 32 33  1  0  0  0
  9 10  1  0  0  0
 10 11  2  0  0  0
 11 12  1  0  0  0
 11 13  1  0  0  0
 13 14  2  0  0  0
 14  1  1  0  0  0
  7  3  1  0  0  0
 14  8  1  0  0  0
 30 25  1  0  0  0
 33 28  1  0  0  0
 17 19  1  0  0  0
 17 20  1  0  0  0
  5 15  1  0  0  0
  7 16  1  0  0  0
 23 24  1  0  0  0
 32 34  1  0  0  0
M  END
> <minimizedAffinity>
-8.77167

> <minimizedRMSD>
0.93732

$$$$
P18344


 36 41  0  0  0  0  0  0  0  0999 V2000
   -7.6980    4.3764  -15.4460 C   0  0  0  0  0  0  0  0  0  0  0  0
   -8.8702    4.0770  -16.1804 C   0  0  0  0  0  0  0  0  0  0  0  0
   -9.0427    4.5529  -17.4937 C   0  0  0  0  0  0  0  0  0  0  0  0
  -10.5178    4.3167  -18.3453 Cl  0  0  0  0  0  0  0  0  0  0  0  0
   -8.0422    5.2595  -18.1354 C   0  0  0  0  0  0  0  0  0  0  0  0
   -6.8911    5.5214  -17.4265 C   0  0  0  0  0  0  0  0  0  0  0  0
   -6.7046    5.1421  -16.0815 C   0  0  0  0  0  0  0  0  0  0  0  0
   -5.3893    5.8076  -15.6676 C   0  0  0  0  0  0  0  0  0  0  0  0
   -4.3802    5.3055  -14.6131 C   0  0  0  0  0  0  0  0  0  0  0  0
   -4.7879    5.8590  -13.3097 N   0  0  0  0  0  0  0  0  0  0  0  0
   -5.7133    6.9299  -13.6276 C   0  0  0  0  0  0  0  0  0  0  0  0
   -5.6981    7.1285  -15.0632 N   0  0  0  0  0  0  0  0  0  0  0  0
   -4.7206    6.1335  -16.9951 N   0  0  0  0  0  0  0  0  0  0  0  0
   -5.8097    6.2791  -17.9153 N   0  0  0  0  0  0  0  0  0  0  0  0
   -3.9789    6.2224  -12.8059 H   0  0  0  0  0  0  0  0  0  0  0  0
   -4.9817    7.8086  -15.3175 H   0  0  0  0  0  0  0  0  0  0  0  0
   -5.8029    6.8137  -18.7419 H   0  0  0  0  0  0  0  0  0  0  0  0
   -3.7123    5.1086  -17.3850 C   0  0  0  0  0  0  0  0  0  0  0  0
   -2.3363    5.7444  -17.6780 C   0  0  0  0  0  0  0  0  0  0  0  0
   -2.1797    4.7723  -18.7977 N   0  0  0  0  0  0  0  0  0  0  0  0
   -3.6670    4.6745  -18.8650 C   0  0  0  0  0  0  0  0  0  0  0  0
   -1.7107    3.9038  -18.5403 H   0  0  0  0  0  0  0  0  0  0  0  0
   -6.6473    3.1309  -13.8868 O   0  0  0  0  0  0  0  0  0  0  0  0
   -7.5005    3.9096  -14.0313 C   0  0  0  0  0  0  0  0  0  0  0  0
   -8.3931    4.6159  -12.9939 N   0  0  0  0  0  0  0  0  0  0  0  0
   -9.1020    5.1816  -13.3771 H   0  0  0  0  0  0  0  0  0  0  0  0
   -8.3608    4.5846  -11.6069 C   0  0  0  0  0  0  0  0  0  0  0  0
   -7.9882    5.7538  -10.9160 C   0  0  0  0  0  0  0  0  0  0  0  0
   -7.9848    5.7954   -9.5198 C   0  0  0  0  0  0  0  0  0  0  0  0
   -8.2849    4.6324   -8.8415 C   0  0  0  0  0  0  0  0  0  0  0  0
   -8.5776    3.4579   -9.5306 C   0  0  0  0  0  0  0  0  0  0  0  0
   -8.6763    3.4234  -10.9133 C   0  0  0  0  0  0  0  0  0  0  0  0
   -8.6507    2.3397   -8.5468 C   0  0  0  0  0  0  0  0  0  0  0  0
   -8.8493    2.9919   -7.2277 N   0  0  0  0  0  0  0  0  0  0  0  0
   -8.3056    4.3594   -7.3746 C   0  0  0  0  0  0  0  0  0  0  0  0
   -8.3455    2.4846   -6.5002 H   0  0  0  0  0  0  0  0  0  0  0  0
 23 24  2  0  0  0
 24 25  1  0  0  0
 25 27  1  0  0  0
 27 28  2  0  0  0
 28 29  1  0  0  0
 29 30  2  0  0  0
 30 31  1  0  0  0
 31 32  2  0  0  0
 31 33  1  0  0  0
 33 34  1  0  0  0
 34 35  1  0  0  0
 24  1  1  0  0  0
  1  2  2  0  0  0
  2  3  1  0  0  0
  3  4  1  0  0  0
  3  5  2  0  0  0
  5  6  1  0  0  0
  6  7  2  0  0  0
  7  8  1  0  0  0
  8  9  1  0  0  0
  9 10  1  0  0  0
 10 11  1  0  0  0
 11 12  1  0  0  0
  8 13  1  0  0  0
 13 18  1  0  0  0
 18 19  1  0  0  0
 19 20  1  0  0  0
 20 21  1  0  0  0
 13 14  1  0  0  0
 32 27  1  0  0  0
  7  1  1  0  0  0
 12  8  1  0  0  0
 21 18  1  0  0  0
 35 30  1  0  0  0
 14  6  1  0  0  0
 25 26  1  0  0  0
 34 36  1  0  0  0
 10 15  1  0  0  0
 12 16  1  0  0  0
 20 22  1  0  0  0
 14 17  1  0  0  0
M  END
> <minimizedAffinity>
-7.64813

> <minimizedRMSD>
1.18751

$$$$
P18347


 37 40  0  0  0  0  0  0  0  0999 V2000
   -7.1331    4.2631  -13.5492 C   0  0  0  0  0  0  0  0  0  0  0  0
   -6.3081    5.2262  -12.9132 O   0  0  0  0  0  0  0  0  0  0  0  0
   -6.7116    6.1042  -12.9981 H   0  0  0  0  0  0  0  0  0  0  0  0
   -6.3139    5.0880  -17.3071 C   0  0  0  0  0  0  0  0  0  0  0  0
   -7.5084    4.6523  -17.8974 C   0  0  0  0  0  0  0  0  0  0  0  0
   -8.5860    4.2696  -17.1136 C   0  0  0  0  0  0  0  0  0  0  0  0
  -10.0794    3.9109  -17.8776 Cl  0  0  0  0  0  0  0  0  0  0  0  0
   -8.4654    4.1949  -15.7279 C   0  0  0  0  0  0  0  0  0  0  0  0
   -7.2794    4.5856  -15.0676 C   0  0  0  0  0  0  0  0  0  0  0  0
   -6.2312    5.1094  -15.8864 C   0  0  0  0  0  0  0  0  0  0  0  0
   -5.1970    5.8695  -15.2898 N   0  0  0  0  0  0  0  0  0  0  0  0
   -3.8854    5.5448  -15.0699 C   0  0  0  0  0  0  0  0  0  0  0  0
   -3.2137    6.5948  -14.6552 N   0  0  0  0  0  0  0  0  0  0  0  0
   -4.1654    7.5687  -14.6318 C   0  0  0  0  0  0  0  0  0  0  0  0
   -5.3870    7.1916  -15.0167 N   0  0  0  0  0  0  0  0  0  0  0  0
   -4.1280    4.5607  -18.4530 C   0  0  0  0  0  0  0  0  0  0  0  0
   -5.2423    5.5754  -18.2574 C   0  0  0  0  0  0  0  0  0  0  0  0
   -6.4456    2.8085  -13.3977 C   0  0  0  0  0  0  0  0  0  0  0  0
   -6.9549    1.7977  -13.6946 O   0  0  0  0  0  0  0  0  0  0  0  0
   -5.0017    3.1004  -12.8953 N   0  0  0  0  0  0  0  0  0  0  0  0
   -4.7892    4.0552  -12.7835 H   0  0  0  0  0  0  0  0  0  0  0  0
   -3.9310    2.2047  -12.5689 C   0  0  0  0  0  0  0  0  0  0  0  0
   -3.1137    1.8963  -13.8130 C   0  0  0  0  0  0  0  0  0  0  0  0
   -1.6425    1.7183  -13.4879 C   0  0  0  0  0  0  0  0  0  0  0  0
   -0.9995    2.8989  -13.6960 F   0  0  0  0  0  0  0  0  0  0  0  0
   -8.4464    4.2678  -12.8851 N   0  0  0  0  0  0  0  0  0  0  0  0
   -9.2927    4.2282  -13.3867 H   0  0  0  0  0  0  0  0  0  0  0  0
   -8.4027    4.3337  -11.4659 C   0  0  0  0  0  0  0  0  0  0  0  0
   -8.1403    5.5558  -10.8126 C   0  0  0  0  0  0  0  0  0  0  0  0
   -8.1272    5.6504   -9.4164 C   0  0  0  0  0  0  0  0  0  0  0  0
   -8.4017    4.5115   -8.6856 C   0  0  0  0  0  0  0  0  0  0  0  0
   -8.6392    3.2962   -9.3171 C   0  0  0  0  0  0  0  0  0  0  0  0
   -8.6210    3.1842  -10.6970 C   0  0  0  0  0  0  0  0  0  0  0  0
   -8.9034    2.2532   -8.2822 C   0  0  0  0  0  0  0  0  0  0  0  0
   -9.1976    3.0174   -7.0381 N   0  0  0  0  0  0  0  0  0  0  0  0
   -8.5220    4.3205   -7.2113 C   0  0  0  0  0  0  0  0  0  0  0  0
   -8.8275    2.5288   -6.2228 H   0  0  0  0  0  0  0  0  0  0  0  0
 16 17  1  0  0  0
 17  4  1  0  0  0
  4  5  2  0  0  0
  5  6  1  0  0  0
  6  7  1  0  0  0
  6  8  2  0  0  0
  8  9  1  0  0  0
  9  1  1  0  0  0
  1  2  1  0  0  0
  1 26  1  0  0  0
 26 28  1  0  0  0
 28 29  2  0  0  0
 29 30  1  0  0  0
 30 31  2  0  0  0
 31 32  1  0  0  0
 32 33  2  0  0  0
 32 34  1  0  0  0
 34 35  1  0  0  0
 35 36  1  0  0  0
  1 18  1  0  0  0
 18 19  2  0  0  0
 18 20  1  0  0  0
 20 22  1  0  0  0
 22 23  1  0  0  0
 23 24  1  0  0  0
 24 25  1  0  0  0
  9 10  2  0  0  0
 10 11  1  0  0  0
 11 12  1  0  0  0
 12 13  2  0  0  0
 13 14  1  0  0  0
 14 15  2  0  0  0
 10  4  1  0  0  0
 15 11  1  0  0  0
 33 28  1  0  0  0
 36 31  1  0  0  0
  2  3  1  0  0  0
 26 27  1  0  0  0
 35 37  1  0  0  0
 20 21  1  0  0  0
M  END
> <minimizedAffinity>
-7.56890

> <minimizedRMSD>
0.73060

$$$$
P18350


 37 40  0  0  0  0  0  0  0  0999 V2000
   -7.6573    4.1890  -13.5634 C   0  0  0  0  0  0  0  0  0  0  0  0
   -9.0483    4.0099  -13.3607 O   0  0  0  0  0  0  0  0  0  0  0  0
   -9.4987    4.8658  -13.4350 H   0  0  0  0  0  0  0  0  0  0  0  0
   -6.4642    5.5372  -17.0970 C   0  0  0  0  0  0  0  0  0  0  0  0
   -7.5655    5.0982  -17.8577 C   0  0  0  0  0  0  0  0  0  0  0  0
   -8.6574    4.5298  -17.2436 C   0  0  0  0  0  0  0  0  0  0  0  0
  -10.0449    4.0967  -18.1526 Cl  0  0  0  0  0  0  0  0  0  0  0  0
   -8.6186    4.2962  -15.8798 C   0  0  0  0  0  0  0  0  0  0  0  0
   -7.5402    4.7021  -15.0320 C   0  0  0  0  0  0  0  0  0  0  0  0
   -6.4892    5.4310  -15.6644 C   0  0  0  0  0  0  0  0  0  0  0  0
   -5.4973    6.1407  -14.9222 N   0  0  0  0  0  0  0  0  0  0  0  0
   -5.4945    7.4758  -14.5767 C   0  0  0  0  0  0  0  0  0  0  0  0
   -4.4187    7.7889  -13.8946 N   0  0  0  0  0  0  0  0  0  0  0  0
   -3.7909    6.5957  -13.7748 C   0  0  0  0  0  0  0  0  0  0  0  0
   -4.4121    5.5609  -14.3494 N   0  0  0  0  0  0  0  0  0  0  0  0
   -5.4828    7.1606  -18.7953 C   0  0  0  0  0  0  0  0  0  0  0  0
   -5.2488    5.9364  -17.9192 C   0  0  0  0  0  0  0  0  0  0  0  0
   -6.8044    2.7992  -13.4580 C   0  0  0  0  0  0  0  0  0  0  0  0
   -7.3061    1.7634  -13.6683 O   0  0  0  0  0  0  0  0  0  0  0  0
   -5.3492    3.1456  -13.0409 N   0  0  0  0  0  0  0  0  0  0  0  0
   -5.1506    4.1090  -12.9987 H   0  0  0  0  0  0  0  0  0  0  0  0
   -4.2462    2.2892  -12.7066 C   0  0  0  0  0  0  0  0  0  0  0  0
   -3.2929    2.0544  -13.8697 C   0  0  0  0  0  0  0  0  0  0  0  0
   -1.8443    2.0132  -13.4213 C   0  0  0  0  0  0  0  0  0  0  0  0
   -1.5812    0.7968  -12.8707 F   0  0  0  0  0  0  0  0  0  0  0  0
   -7.3163    5.1566  -12.5264 N   0  0  0  0  0  0  0  0  0  0  0  0
   -6.8683    5.9923  -12.7913 H   0  0  0  0  0  0  0  0  0  0  0  0
   -7.5992    4.9481  -11.1669 C   0  0  0  0  0  0  0  0  0  0  0  0
   -7.3164    6.0101  -10.2770 C   0  0  0  0  0  0  0  0  0  0  0  0
   -7.5986    5.9328   -8.9058 C   0  0  0  0  0  0  0  0  0  0  0  0
   -8.1779    4.7770   -8.4232 C   0  0  0  0  0  0  0  0  0  0  0  0
   -8.4713    3.7252   -9.2771 C   0  0  0  0  0  0  0  0  0  0  0  0
   -8.2167    3.8041  -10.6394 C   0  0  0  0  0  0  0  0  0  0  0  0
   -9.0444    2.5925   -8.4898 C   0  0  0  0  0  0  0  0  0  0  0  0
   -9.3935    3.1749   -7.1666 N   0  0  0  0  0  0  0  0  0  0  0  0
   -8.5866    4.4072   -7.0373 C   0  0  0  0  0  0  0  0  0  0  0  0
   -9.1626    2.5202   -6.4193 H   0  0  0  0  0  0  0  0  0  0  0  0
 16 17  1  0  0  0
 17  4  1  0  0  0
  4  5  2  0  0  0
  5  6  1  0  0  0
  6  7  1  0  0  0
  6  8  2  0  0  0
  8  9  1  0  0  0
  9  1  1  0  0  0
  1  2  1  0  0  0
  1 26  1  0  0  0
 26 28  1  0  0  0
 28 29  2  0  0  0
 29 30  1  0  0  0
 30 31  2  0  0  0
 31 32  1  0  0  0
 32 33  2  0  0  0
 32 34  1  0  0  0
 34 35  1  0  0  0
 35 36  1  0  0  0
  1 18  1  0  0  0
 18 19  2  0  0  0
 18 20  1  0  0  0
 20 22  1  0  0  0
 22 23  1  0  0  0
 23 24  1  0  0  0
 24 25  1  0  0  0
  9 10  2  0  0  0
 10 11  1  0  0  0
 11 12  1  0  0  0
 12 13  2  0  0  0
 13 14  1  0  0  0
 14 15  2  0  0  0
 10  4  1  0  0  0
 15 11  1  0  0  0
 33 28  1  0  0  0
 36 31  1  0  0  0
  2  3  1  0  0  0
 26 27  1  0  0  0
 35 37  1  0  0  0
 20 21  1  0  0  0
M  END
> <minimizedAffinity>
-7.58052

> <minimizedRMSD>
0.84915

$$$$
P18353


 38 43  0  0  0  0  0  0  0  0999 V2000
   -5.2145    5.0613  -17.7638 C   0  0  0  0  0  0  0  0  0  0  0  0
   -5.5499    4.8378  -19.0868 C   0  0  0  0  0  0  0  0  0  0  0  0
   -6.8857    4.6071  -19.1661 N   0  0  0  0  0  0  0  0  0  0  0  0
   -7.4477    4.6121  -17.9154 C   0  0  0  0  0  0  0  0  0  0  0  0
   -8.7818    4.3914  -17.5661 C   0  0  0  0  0  0  0  0  0  0  0  0
   -9.9492    4.0149  -18.7659 Cl  0  0  0  0  0  0  0  0  0  0  0  0
   -9.1566    4.5406  -16.2401 C   0  0  0  0  0  0  0  0  0  0  0  0
   -8.2264    4.9758  -15.3003 C   0  0  0  0  0  0  0  0  0  0  0  0
   -6.8709    5.1914  -15.6520 C   0  0  0  0  0  0  0  0  0  0  0  0
   -6.4463    4.9536  -16.9957 C   0  0  0  0  0  0  0  0  0  0  0  0
   -7.3809    4.4572  -20.0037 H   0  0  0  0  0  0  0  0  0  0  0  0
   -1.3045    6.8695  -17.5190 N   0  0  0  0  0  0  0  0  0  0  0  0
   -2.3127    7.3081  -16.5540 C   0  0  0  0  0  0  0  0  0  0  0  0
   -3.7044    6.9353  -17.0536 C   0  0  0  0  0  0  0  0  0  0  0  0
   -3.8250    5.4229  -17.2876 C   0  0  0  0  0  0  0  0  0  0  0  0
   -2.6983    4.9671  -18.2322 C   0  0  0  0  0  0  0  0  0  0  0  0
   -1.3339    5.4146  -17.7087 C   0  0  0  0  0  0  0  0  0  0  0  0
    1.1069    6.3268  -16.8903 C   0  0  0  0  0  0  0  0  0  0  0  0
    0.0403    7.3712  -17.2084 C   0  0  0  0  0  0  0  0  0  0  0  0
   -5.9669    5.6833  -14.6924 N   0  0  0  0  0  0  0  0  0  0  0  0
   -5.7523    6.9750  -14.2759 C   0  0  0  0  0  0  0  0  0  0  0  0
   -4.8299    7.0103  -13.3404 N   0  0  0  0  0  0  0  0  0  0  0  0
   -4.5227    5.6963  -13.1814 C   0  0  0  0  0  0  0  0  0  0  0  0
   -5.1605    4.8558  -13.9963 N   0  0  0  0  0  0  0  0  0  0  0  0
   -8.7528    5.2550  -13.9437 C   0  0  0  0  0  0  0  0  0  0  0  0
   -9.5982    6.0520  -13.8426 O   0  0  0  0  0  0  0  0  0  0  0  0
   -8.0487    4.4019  -12.8682 N   0  0  0  0  0  0  0  0  0  0  0  0
   -7.4126    3.7380  -13.2201 H   0  0  0  0  0  0  0  0  0  0  0  0
   -8.1666    4.4182  -11.4785 C   0  0  0  0  0  0  0  0  0  0  0  0
   -7.8580    5.5722  -10.7403 C   0  0  0  0  0  0  0  0  0  0  0  0
   -7.9590    5.5824   -9.3445 C   0  0  0  0  0  0  0  0  0  0  0  0
   -8.4063    4.4384   -8.7127 C   0  0  0  0  0  0  0  0  0  0  0  0
   -8.7290    3.2985   -9.4409 C   0  0  0  0  0  0  0  0  0  0  0  0
   -8.5913    3.2610  -10.8210 C   0  0  0  0  0  0  0  0  0  0  0  0
   -9.1972    2.2402   -8.4963 C   0  0  0  0  0  0  0  0  0  0  0  0
   -9.4531    2.9462   -7.2113 N   0  0  0  0  0  0  0  0  0  0  0  0
   -8.6261    4.1691   -7.2620 C   0  0  0  0  0  0  0  0  0  0  0  0
   -9.1774    2.3617   -6.4222 H   0  0  0  0  0  0  0  0  0  0  0  0
 18 19  1  0  0  0
 19 12  1  0  0  0
 12 13  1  0  0  0
 13 14  1  0  0  0
 14 15  1  0  0  0
 15  1  1  0  0  0
  1  2  2  0  0  0
  2  3  1  0  0  0
  3  4  1  0  0  0
  4  5  2  0  0  0
  5  6  1  0  0  0
  5  7  1  0  0  0
  7  8  2  0  0  0
  8 25  1  0  0  0
 25 26  2  0  0  0
 25 27  1  0  0  0
 27 29  1  0  0  0
 29 30  2  0  0  0
 30 31  1  0  0  0
 31 32  2  0  0  0
 32 33  1  0  0  0
 33 34  2  0  0  0
 33 35  1  0  0  0
 35 36  1  0  0  0
 36 37  1  0  0  0
  8  9  1  0  0  0
  9 20  1  0  0  0
 20 21  1  0  0  0
 21 22  2  0  0  0
 22 23  1  0  0  0
 23 24  2  0  0  0
  9 10  2  0  0  0
 15 16  1  0  0  0
 16 17  1  0  0  0
 17 12  1  0  0  0
 10  1  1  0  0  0
 10  4  1  0  0  0
 34 29  1  0  0  0
 24 20  1  0  0  0
 37 32  1  0  0  0
  3 11  1  0  0  0
 27 28  1  0  0  0
 36 38  1  0  0  0
M  END
> <minimizedAffinity>
-8.49080

> <minimizedRMSD>
0.91461

$$$$
P18354


 36 41  0  0  0  0  0  0  0  0999 V2000
   -7.8524    4.7516  -15.1182 C   0  0  0  0  0  0  0  0  0  0  0  0
   -8.9826    4.3598  -15.8319 C   0  0  0  0  0  0  0  0  0  0  0  0
   -8.9061    4.2165  -17.2237 C   0  0  0  0  0  0  0  0  0  0  0  0
  -10.3474    3.9032  -18.0937 Cl  0  0  0  0  0  0  0  0  0  0  0  0
   -7.7210    4.4443  -17.9281 C   0  0  0  0  0  0  0  0  0  0  0  0
   -6.6044    4.8276  -17.2142 C   0  0  0  0  0  0  0  0  0  0  0  0
   -6.6576    4.9503  -15.8129 C   0  0  0  0  0  0  0  0  0  0  0  0
   -5.2778    5.3066  -15.3281 C   0  0  0  0  0  0  0  0  0  0  0  0
   -4.8179    4.5583  -14.0680 C   0  0  0  0  0  0  0  0  0  0  0  0
   -4.8807    5.5842  -13.0144 N   0  0  0  0  0  0  0  0  0  0  0  0
   -4.5028    6.7919  -13.7185 C   0  0  0  0  0  0  0  0  0  0  0  0
   -5.1353    6.7143  -15.0133 N   0  0  0  0  0  0  0  0  0  0  0  0
   -4.4128    5.0362  -16.4797 N   0  0  0  0  0  0  0  0  0  0  0  0
   -5.2524    5.3078  -17.6619 C   0  0  0  0  0  0  0  0  0  0  0  0
   -4.2247    5.3776  -12.2612 H   0  0  0  0  0  0  0  0  0  0  0  0
   -4.5552    7.1738  -15.7153 H   0  0  0  0  0  0  0  0  0  0  0  0
   -4.1039    4.0641  -16.4754 H   0  0  0  0  0  0  0  0  0  0  0  0
   -4.7120    4.7090  -18.9419 C   0  0  0  0  0  0  0  0  0  0  0  0
   -3.2214    4.3010  -18.9478 C   0  0  0  0  0  0  0  0  0  0  0  0
   -2.9990    5.0951  -20.1653 N   0  0  0  0  0  0  0  0  0  0  0  0
   -4.2815    5.7827  -19.9691 C   0  0  0  0  0  0  0  0  0  0  0  0
   -2.9531    4.5397  -21.0196 H   0  0  0  0  0  0  0  0  0  0  0  0
   -7.8904    6.3292  -13.4929 O   0  0  0  0  0  0  0  0  0  0  0  0
   -8.0068    5.1886  -13.7086 C   0  0  0  0  0  0  0  0  0  0  0  0
   -8.2841    4.0130  -12.7493 N   0  0  0  0  0  0  0  0  0  0  0  0
   -8.4154    3.1430  -13.1909 H   0  0  0  0  0  0  0  0  0  0  0  0
   -8.3793    3.9819  -11.3557 C   0  0  0  0  0  0  0  0  0  0  0  0
   -8.0726    5.1281  -10.5990 C   0  0  0  0  0  0  0  0  0  0  0  0
   -8.1449    5.1166   -9.2024 C   0  0  0  0  0  0  0  0  0  0  0  0
   -8.5379    3.9484   -8.5799 C   0  0  0  0  0  0  0  0  0  0  0  0
   -8.8465    2.8136   -9.3199 C   0  0  0  0  0  0  0  0  0  0  0  0
   -8.7664    2.8079  -10.7073 C   0  0  0  0  0  0  0  0  0  0  0  0
   -9.2089    1.7059   -8.3882 C   0  0  0  0  0  0  0  0  0  0  0  0
   -9.2986    2.3141   -7.0343 N   0  0  0  0  0  0  0  0  0  0  0  0
   -8.6903    3.6567   -7.1268 C   0  0  0  0  0  0  0  0  0  0  0  0
   -8.7894    1.7440   -6.3590 H   0  0  0  0  0  0  0  0  0  0  0  0
 23 24  2  0  0  0
 24 25  1  0  0  0
 25 27  1  0  0  0
 27 28  2  0  0  0
 28 29  1  0  0  0
 29 30  2  0  0  0
 30 31  1  0  0  0
 31 32  2  0  0  0
 31 33  1  0  0  0
 33 34  1  0  0  0
 34 35  1  0  0  0
 24  1  1  0  0  0
  1  2  2  0  0  0
  2  3  1  0  0  0
  3  4  1  0  0  0
  3  5  2  0  0  0
  5  6  1  0  0  0
  6  7  2  0  0  0
  7  8  1  0  0  0
  8  9  1  0  0  0
  9 10  1  0  0  0
 10 11  1  0  0  0
 11 12  1  0  0  0
  8 13  1  0  0  0
 13 14  1  0  0  0
 14 18  1  0  0  0
 18 19  1  0  0  0
 19 20  1  0  0  0
 20 21  1  0  0  0
 32 27  1  0  0  0
  7  1  1  0  0  0
 12  8  1  0  0  0
 21 18  1  0  0  0
 35 30  1  0  0  0
 14  6  1  0  0  0
 25 26  1  0  0  0
 34 36  1  0  0  0
 10 15  1  0  0  0
 12 16  1  0  0  0
 13 17  1  0  0  0
 20 22  1  0  0  0
M  END
> <minimizedAffinity>
-10.50590

> <minimizedRMSD>
0.57120

$$$$
P18355


 37 42  0  0  0  0  0  0  0  0999 V2000
   -5.4787    5.0556  -17.7866 C   0  0  0  0  0  0  0  0  0  0  0  0
   -5.8236    4.8260  -19.0580 N   0  0  0  0  0  0  0  0  0  0  0  0
   -7.1327    4.5604  -19.0153 N   0  0  0  0  0  0  0  0  0  0  0  0
   -7.6484    4.5515  -17.7469 C   0  0  0  0  0  0  0  0  0  0  0  0
   -8.9270    4.2267  -17.2861 C   0  0  0  0  0  0  0  0  0  0  0  0
  -10.1369    3.7122  -18.3877 Cl  0  0  0  0  0  0  0  0  0  0  0  0
   -9.2084    4.3725  -15.9263 C   0  0  0  0  0  0  0  0  0  0  0  0
   -8.2270    4.8571  -15.0606 C   0  0  0  0  0  0  0  0  0  0  0  0
   -6.9291    5.1663  -15.5390 C   0  0  0  0  0  0  0  0  0  0  0  0
   -6.6184    4.9897  -16.9125 C   0  0  0  0  0  0  0  0  0  0  0  0
   -7.6744    4.3877  -19.8190 H   0  0  0  0  0  0  0  0  0  0  0  0
   -1.4664    7.4261  -19.2369 C   0  0  0  0  0  0  0  0  0  0  0  0
   -1.3937    6.5895  -18.0385 N   0  0  0  0  0  0  0  0  0  0  0  0
   -2.2757    7.0650  -16.9696 C   0  0  0  0  0  0  0  0  0  0  0  0
   -3.7602    6.8049  -17.2220 C   0  0  0  0  0  0  0  0  0  0  0  0
   -4.0202    5.3166  -17.5033 C   0  0  0  0  0  0  0  0  0  0  0  0
   -3.1060    4.8396  -18.6459 C   0  0  0  0  0  0  0  0  0  0  0  0
   -1.6422    5.1769  -18.3528 C   0  0  0  0  0  0  0  0  0  0  0  0
   -5.9792    5.6656  -14.6354 N   0  0  0  0  0  0  0  0  0  0  0  0
   -5.7046    6.9715  -14.3330 C   0  0  0  0  0  0  0  0  0  0  0  0
   -4.6973    7.0417  -13.4932 N   0  0  0  0  0  0  0  0  0  0  0  0
   -4.4102    5.7266  -13.2665 C   0  0  0  0  0  0  0  0  0  0  0  0
   -5.1465    4.8496  -13.9520 N   0  0  0  0  0  0  0  0  0  0  0  0
   -8.6433    5.2996  -13.6977 C   0  0  0  0  0  0  0  0  0  0  0  0
   -9.2509    6.2945  -13.6187 O   0  0  0  0  0  0  0  0  0  0  0  0
   -8.0877    4.3739  -12.5913 N   0  0  0  0  0  0  0  0  0  0  0  0
   -7.5373    3.6258  -12.9177 H   0  0  0  0  0  0  0  0  0  0  0  0
   -8.2396    4.4263  -11.2031 C   0  0  0  0  0  0  0  0  0  0  0  0
   -7.9419    5.5877  -10.4706 C   0  0  0  0  0  0  0  0  0  0  0  0
   -8.0426    5.6062   -9.0714 C   0  0  0  0  0  0  0  0  0  0  0  0
   -8.4712    4.4598   -8.4290 C   0  0  0  0  0  0  0  0  0  0  0  0
   -8.7834    3.3147   -9.1527 C   0  0  0  0  0  0  0  0  0  0  0  0
   -8.6589    3.2744  -10.5336 C   0  0  0  0  0  0  0  0  0  0  0  0
   -9.2035    2.2407   -8.2053 C   0  0  0  0  0  0  0  0  0  0  0  0
   -9.4665    2.9377   -6.9169 N   0  0  0  0  0  0  0  0  0  0  0  0
   -8.6712    4.1837   -6.9757 C   0  0  0  0  0  0  0  0  0  0  0  0
   -9.1676    2.3601   -6.1311 H   0  0  0  0  0  0  0  0  0  0  0  0
 12 13  1  0  0  0
 13 14  1  0  0  0
 14 15  1  0  0  0
 15 16  1  0  0  0
 16  1  1  0  0  0
  1  2  2  0  0  0
  2  3  1  0  0  0
  3  4  1  0  0  0
  4  5  2  0  0  0
  5  6  1  0  0  0
  5  7  1  0  0  0
  7  8  2  0  0  0
  8 24  1  0  0  0
 24 25  2  0  0  0
 24 26  1  0  0  0
 26 28  1  0  0  0
 28 29  2  0  0  0
 29 30  1  0  0  0
 30 31  2  0  0  0
 31 32  1  0  0  0
 32 33  2  0  0  0
 32 34  1  0  0  0
 34 35  1  0  0  0
 35 36  1  0  0  0
  8  9  1  0  0  0
  9 19  1  0  0  0
 19 20  1  0  0  0
 20 21  2  0  0  0
 21 22  1  0  0  0
 22 23  2  0  0  0
  9 10  2  0  0  0
 16 17  1  0  0  0
 17 18  1  0  0  0
 18 13  1  0  0  0
 10  1  1  0  0  0
 10  4  1  0  0  0
 33 28  1  0  0  0
 23 19  1  0  0  0
 36 31  1  0  0  0
  3 11  1  0  0  0
 26 27  1  0  0  0
 35 37  1  0  0  0
M  END
> <minimizedAffinity>
-8.56535

> <minimizedRMSD>
0.90151

$$$$
P18357


 38 43  0  0  0  0  0  0  0  0999 V2000
   -8.1525    4.6479  -14.9069 C   0  0  0  0  0  0  0  0  0  0  0  0
   -9.1997    4.5372  -15.8573 C   0  0  0  0  0  0  0  0  0  0  0  0
   -8.9039    4.4585  -17.2105 C   0  0  0  0  0  0  0  0  0  0  0  0
  -10.1460    4.2284  -18.3723 Cl  0  0  0  0  0  0  0  0  0  0  0  0
   -7.5803    4.5938  -17.5833 C   0  0  0  0  0  0  0  0  0  0  0  0
   -6.5215    4.6630  -16.6552 C   0  0  0  0  0  0  0  0  0  0  0  0
   -6.7849    4.5880  -15.2745 C   0  0  0  0  0  0  0  0  0  0  0  0
   -5.2271    4.7523  -17.4536 C   0  0  0  0  0  0  0  0  0  0  0  0
   -5.7207    4.7579  -18.9163 C   0  0  0  0  0  0  0  0  0  0  0  0
   -5.0461    4.8204  -19.9319 O   0  0  0  0  0  0  0  0  0  0  0  0
   -7.0972    4.6707  -18.8822 N   0  0  0  0  0  0  0  0  0  0  0  0
   -7.6687    4.6639  -19.6838 H   0  0  0  0  0  0  0  0  0  0  0  0
   -4.2920    5.9305  -17.1393 C   0  0  0  0  0  0  0  0  0  0  0  0
   -2.8347    5.5879  -17.4787 C   0  0  0  0  0  0  0  0  0  0  0  0
   -1.8886    6.6149  -16.8509 C   0  0  0  0  0  0  0  0  0  0  0  0
   -2.5040    7.9317  -16.6426 N   0  0  0  0  0  0  0  0  0  0  0  0
   -3.4533    8.2590  -17.7019 C   0  0  0  0  0  0  0  0  0  0  0  0
   -4.6553    7.2982  -17.7353 C   0  0  0  0  0  0  0  0  0  0  0  0
   -1.7704    8.6403  -16.6259 H   0  0  0  0  0  0  0  0  0  0  0  0
   -5.7334    4.4047  -14.3035 N   0  0  0  0  0  0  0  0  0  0  0  0
   -4.9068    5.3068  -13.6527 C   0  0  0  0  0  0  0  0  0  0  0  0
   -4.0079    4.6859  -12.9180 N   0  0  0  0  0  0  0  0  0  0  0  0
   -4.3542    3.3908  -13.0774 C   0  0  0  0  0  0  0  0  0  0  0  0
   -5.4669    3.1829  -13.7764 N   0  0  0  0  0  0  0  0  0  0  0  0
   -9.1466    6.1474  -13.5331 O   0  0  0  0  0  0  0  0  0  0  0  0
   -8.5688    5.1357  -13.5761 C   0  0  0  0  0  0  0  0  0  0  0  0
   -8.1002    4.2047  -12.4431 N   0  0  0  0  0  0  0  0  0  0  0  0
   -7.5582    3.4375  -12.7378 H   0  0  0  0  0  0  0  0  0  0  0  0
   -8.3181    4.2709  -11.0703 C   0  0  0  0  0  0  0  0  0  0  0  0
   -8.0437    5.4373  -10.3394 C   0  0  0  0  0  0  0  0  0  0  0  0
   -8.1796    5.4588   -8.9471 C   0  0  0  0  0  0  0  0  0  0  0  0
   -8.5649    4.2953   -8.3106 C   0  0  0  0  0  0  0  0  0  0  0  0
   -8.8552    3.1490   -9.0374 C   0  0  0  0  0  0  0  0  0  0  0  0
   -8.7629    3.1249  -10.4177 C   0  0  0  0  0  0  0  0  0  0  0  0
   -9.2536    2.0609   -8.1041 C   0  0  0  0  0  0  0  0  0  0  0  0
   -8.9300    2.5542   -6.7397 N   0  0  0  0  0  0  0  0  0  0  0  0
   -8.7550    4.0174   -6.8595 C   0  0  0  0  0  0  0  0  0  0  0  0
   -8.0699    2.1219   -6.4024 H   0  0  0  0  0  0  0  0  0  0  0  0
 25 26  2  0  0  0
 26 27  1  0  0  0
 27 29  1  0  0  0
 29 30  2  0  0  0
 30 31  1  0  0  0
 31 32  2  0  0  0
 32 33  1  0  0  0
 33 34  2  0  0  0
 33 35  1  0  0  0
 35 36  1  0  0  0
 36 37  1  0  0  0
 26  1  1  0  0  0
  1  2  2  0  0  0
  2  3  1  0  0  0
  3  4  1  0  0  0
  3  5  2  0  0  0
  5  6  1  0  0  0
  6  7  2  0  0  0
  7 20  1  0  0  0
 20 21  1  0  0  0
 21 22  2  0  0  0
 22 23  1  0  0  0
 23 24  2  0  0  0
  6  8  1  0  0  0
  8 13  1  0  0  0
 13 14  1  0  0  0
 14 15  1  0  0  0
 15 16  1  0  0  0
 16 17  1  0  0  0
 17 18  1  0  0  0
  8  9  1  0  0  0
  9 10  2  0  0  0
  9 11  1  0  0  0
 34 29  1  0  0  0
  7  1  1  0  0  0
 24 20  1  0  0  0
 18 13  1  0  0  0
 37 32  1  0  0  0
 11  5  1  0  0  0
 27 28  1  0  0  0
 36 38  1  0  0  0
 16 19  1  0  0  0
 11 12  1  0  0  0
M  END
> <minimizedAffinity>
-9.23738

> <minimizedRMSD>
1.19520

$$$$
P18358


 30 34  0  0  0  0  0  0  0  0999 V2000
   -4.2275    5.2526  -18.9427 O   0  0  0  0  0  0  0  0  0  0  0  0
   -5.1565    4.9322  -18.2196 C   0  0  0  0  0  0  0  0  0  0  0  0
   -6.4495    4.7508  -18.6655 N   0  0  0  0  0  0  0  0  0  0  0  0
   -7.1259    4.5571  -17.5931 C   0  0  0  0  0  0  0  0  0  0  0  0
   -8.5567    4.3832  -17.3736 C   0  0  0  0  0  0  0  0  0  0  0  0
   -9.6059    4.2802  -18.7206 Cl  0  0  0  0  0  0  0  0  0  0  0  0
   -8.9741    4.3472  -16.1033 C   0  0  0  0  0  0  0  0  0  0  0  0
   -8.0696    4.4021  -14.9495 C   0  0  0  0  0  0  0  0  0  0  0  0
   -6.7127    4.3643  -15.0308 C   0  0  0  0  0  0  0  0  0  0  0  0
   -6.2086    4.5578  -16.4209 C   0  0  0  0  0  0  0  0  0  0  0  0
   -5.0168    4.7819  -16.8509 N   0  0  0  0  0  0  0  0  0  0  0  0
   -5.7676    4.2437  -13.9726 N   0  0  0  0  0  0  0  0  0  0  0  0
   -5.0135    3.1269  -13.5954 C   0  0  0  0  0  0  0  0  0  0  0  0
   -4.1827    3.3984  -12.6146 N   0  0  0  0  0  0  0  0  0  0  0  0
   -4.4333    4.7037  -12.3774 C   0  0  0  0  0  0  0  0  0  0  0  0
   -5.3275    5.2667  -13.1799 N   0  0  0  0  0  0  0  0  0  0  0  0
   -8.6612    4.8636  -13.6445 C   0  0  0  0  0  0  0  0  0  0  0  0
   -9.4507    5.7225  -13.6445 O   0  0  0  0  0  0  0  0  0  0  0  0
   -8.0987    4.0211  -12.4789 N   0  0  0  0  0  0  0  0  0  0  0  0
   -7.4902    3.2964  -12.7504 H   0  0  0  0  0  0  0  0  0  0  0  0
   -8.3123    4.1199  -11.1053 C   0  0  0  0  0  0  0  0  0  0  0  0
   -8.0651    5.3184  -10.4172 C   0  0  0  0  0  0  0  0  0  0  0  0
   -8.2219    5.3950   -9.0287 C   0  0  0  0  0  0  0  0  0  0  0  0
   -8.6024    4.2541   -8.3492 C   0  0  0  0  0  0  0  0  0  0  0  0
   -8.8713    3.0764   -9.0317 C   0  0  0  0  0  0  0  0  0  0  0  0
   -8.7566    2.9969  -10.4110 C   0  0  0  0  0  0  0  0  0  0  0  0
   -9.2687    2.0210   -8.0585 C   0  0  0  0  0  0  0  0  0  0  0  0
   -9.0268    2.5908   -6.7056 N   0  0  0  0  0  0  0  0  0  0  0  0
   -8.8033    4.0401   -6.8892 C   0  0  0  0  0  0  0  0  0  0  0  0
   -8.2045    2.1589   -6.2841 H   0  0  0  0  0  0  0  0  0  0  0  0
  1  2  2  0  0  0
  2  3  1  0  0  0
  3  4  2  0  0  0
  4  5  1  0  0  0
  5  6  1  0  0  0
  5  7  2  0  0  0
  7  8  1  0  0  0
  8 17  1  0  0  0
 17 18  2  0  0  0
 17 19  1  0  0  0
 19 21  1  0  0  0
 21 22  2  0  0  0
 22 23  1  0  0  0
 23 24  2  0  0  0
 24 25  1  0  0  0
 25 26  2  0  0  0
 25 27  1  0  0  0
 27 28  1  0  0  0
 28 29  1  0  0  0
  8  9  2  0  0  0
  9 12  1  0  0  0
 12 13  1  0  0  0
 13 14  2  0  0  0
 14 15  1  0  0  0
 15 16  2  0  0  0
  9 10  1  0  0  0
 10 11  2  0  0  0
 11  2  1  0  0  0
 10  4  1  0  0  0
 26 21  1  0  0  0
 16 12  1  0  0  0
 29 24  1  0  0  0
 19 20  1  0  0  0
 28 30  1  0  0  0
M  END
> <minimizedAffinity>
-8.78880

> <minimizedRMSD>
1.42817

$$$$
P18362


 31 35  0  0  0  0  0  0  0  0999 V2000
   -6.4923    3.5005  -20.8751 O   0  0  0  0  0  0  0  0  0  0  0  0
   -6.8303    3.9043  -19.7808 C   0  0  0  0  0  0  0  0  0  0  0  0
   -6.0294    4.7401  -18.7850 C   0  0  0  0  0  0  0  0  0  0  0  0
   -6.8633    4.6443  -17.5336 C   0  0  0  0  0  0  0  0  0  0  0  0
   -8.0513    3.9997  -17.8869 C   0  0  0  0  0  0  0  0  0  0  0  0
   -9.0708    3.7269  -17.0163 C   0  0  0  0  0  0  0  0  0  0  0  0
  -10.5145    3.0685  -17.6443 Cl  0  0  0  0  0  0  0  0  0  0  0  0
   -8.8775    4.0585  -15.6888 C   0  0  0  0  0  0  0  0  0  0  0  0
   -7.6606    4.6643  -15.2713 C   0  0  0  0  0  0  0  0  0  0  0  0
   -6.6308    4.9686  -16.1984 C   0  0  0  0  0  0  0  0  0  0  0  0
   -8.0294    3.6040  -19.2061 N   0  0  0  0  0  0  0  0  0  0  0  0
   -8.7778    3.1643  -19.6706 H   0  0  0  0  0  0  0  0  0  0  0  0
   -5.3734    5.4775  -15.7924 N   0  0  0  0  0  0  0  0  0  0  0  0
   -4.8547    6.7366  -15.9831 C   0  0  0  0  0  0  0  0  0  0  0  0
   -3.5976    6.7831  -15.6222 N   0  0  0  0  0  0  0  0  0  0  0  0
   -3.3799    5.5193  -15.1628 C   0  0  0  0  0  0  0  0  0  0  0  0
   -4.4198    4.6901  -15.2492 N   0  0  0  0  0  0  0  0  0  0  0  0
   -7.6846    5.1637  -13.8697 C   0  0  0  0  0  0  0  0  0  0  0  0
   -7.6516    6.3183  -13.6902 O   0  0  0  0  0  0  0  0  0  0  0  0
   -7.8557    3.9946  -12.8652 N   0  0  0  0  0  0  0  0  0  0  0  0
   -7.7731    3.0965  -13.2599 H   0  0  0  0  0  0  0  0  0  0  0  0
   -8.1077    4.0088  -11.4923 C   0  0  0  0  0  0  0  0  0  0  0  0
   -7.9133    5.1641  -10.7219 C   0  0  0  0  0  0  0  0  0  0  0  0
   -8.1629    5.1565   -9.3442 C   0  0  0  0  0  0  0  0  0  0  0  0
   -8.5997    3.9815   -8.7587 C   0  0  0  0  0  0  0  0  0  0  0  0
   -8.8123    2.8410   -9.5197 C   0  0  0  0  0  0  0  0  0  0  0  0
   -8.5762    2.8356  -10.8870 C   0  0  0  0  0  0  0  0  0  0  0  0
   -9.3003    1.7399   -8.6410 C   0  0  0  0  0  0  0  0  0  0  0  0
   -9.2666    2.2627   -7.2488 N   0  0  0  0  0  0  0  0  0  0  0  0
   -8.9096    3.6957   -7.3305 C   0  0  0  0  0  0  0  0  0  0  0  0
   -8.5678    1.7587   -6.7027 H   0  0  0  0  0  0  0  0  0  0  0  0
  1  2  2  0  0  0
  2  3  1  0  0  0
  3  4  1  0  0  0
  4  5  2  0  0  0
  5  6  1  0  0  0
  6  7  1  0  0  0
  6  8  2  0  0  0
  8  9  1  0  0  0
  9 18  1  0  0  0
 18 19  2  0  0  0
 18 20  1  0  0  0
 20 22  1  0  0  0
 22 23  2  0  0  0
 23 24  1  0  0  0
 24 25  2  0  0  0
 25 26  1  0  0  0
 26 27  2  0  0  0
 26 28  1  0  0  0
 28 29  1  0  0  0
 29 30  1  0  0  0
  9 10  2  0  0  0
 10 13  1  0  0  0
 13 14  1  0  0  0
 14 15  2  0  0  0
 15 16  1  0  0  0
 16 17  2  0  0  0
  5 11  1  0  0  0
 11  2  1  0  0  0
 10  4  1  0  0  0
 17 13  1  0  0  0
 27 22  1  0  0  0
 30 25  1  0  0  0
 20 21  1  0  0  0
 29 31  1  0  0  0
 11 12  1  0  0  0
M  END
> <minimizedAffinity>
-8.22947

> <minimizedRMSD>
0.65374

$$$$
P18366


 36 41  0  0  0  0  0  0  0  0999 V2000
   -7.5241    4.6842  -15.2364 C   0  0  0  0  0  0  0  0  0  0  0  0
   -8.6367    4.1623  -15.9006 C   0  0  0  0  0  0  0  0  0  0  0  0
   -8.5582    3.8982  -17.2723 C   0  0  0  0  0  0  0  0  0  0  0  0
   -9.9404    3.3042  -18.0966 Cl  0  0  0  0  0  0  0  0  0  0  0  0
   -7.3919    4.1452  -17.9947 C   0  0  0  0  0  0  0  0  0  0  0  0
   -6.2941    4.6384  -17.3147 C   0  0  0  0  0  0  0  0  0  0  0  0
   -6.3455    4.8871  -15.9428 C   0  0  0  0  0  0  0  0  0  0  0  0
   -5.0000    5.4090  -15.5172 C   0  0  0  0  0  0  0  0  0  0  0  0
   -4.3738    4.7121  -14.2804 C   0  0  0  0  0  0  0  0  0  0  0  0
   -4.0756    5.8057  -13.3461 N   0  0  0  0  0  0  0  0  0  0  0  0
   -3.9533    6.9741  -14.1914 C   0  0  0  0  0  0  0  0  0  0  0  0
   -5.0213    6.8315  -15.1614 N   0  0  0  0  0  0  0  0  0  0  0  0
   -4.1377    5.2569  -16.7358 N   0  0  0  0  0  0  0  0  0  0  0  0
   -5.0363    5.0027  -17.8241 N   0  0  0  0  0  0  0  0  0  0  0  0
   -3.2038    5.6275  -12.8476 H   0  0  0  0  0  0  0  0  0  0  0  0
   -4.8445    7.4118  -15.9814 H   0  0  0  0  0  0  0  0  0  0  0  0
   -3.4924    4.4756  -16.6186 H   0  0  0  0  0  0  0  0  0  0  0  0
   -4.5915    4.9551  -19.1838 C   0  0  0  0  0  0  0  0  0  0  0  0
   -3.0628    4.9344  -19.4002 C   0  0  0  0  0  0  0  0  0  0  0  0
   -3.2295    5.9318  -20.4868 N   0  0  0  0  0  0  0  0  0  0  0  0
   -4.5102    6.3406  -19.8617 C   0  0  0  0  0  0  0  0  0  0  0  0
   -3.3249    5.5284  -21.4188 H   0  0  0  0  0  0  0  0  0  0  0  0
   -7.4178    6.3051  -13.6505 O   0  0  0  0  0  0  0  0  0  0  0  0
   -7.6598    5.1813  -13.8525 C   0  0  0  0  0  0  0  0  0  0  0  0
   -8.1213    4.0682  -12.8884 N   0  0  0  0  0  0  0  0  0  0  0  0
   -8.3348    3.2102  -13.3215 H   0  0  0  0  0  0  0  0  0  0  0  0
   -8.2848    4.0797  -11.5049 C   0  0  0  0  0  0  0  0  0  0  0  0
   -8.0198    5.2363  -10.7543 C   0  0  0  0  0  0  0  0  0  0  0  0
   -8.1594    5.2354   -9.3628 C   0  0  0  0  0  0  0  0  0  0  0  0
   -8.5651    4.0666   -8.7452 C   0  0  0  0  0  0  0  0  0  0  0  0
   -8.8326    2.9230   -9.4845 C   0  0  0  0  0  0  0  0  0  0  0  0
   -8.6971    2.9083  -10.8649 C   0  0  0  0  0  0  0  0  0  0  0  0
   -9.2384    1.8201   -8.5686 C   0  0  0  0  0  0  0  0  0  0  0  0
   -9.2562    2.3929   -7.1962 N   0  0  0  0  0  0  0  0  0  0  0  0
   -8.7837    3.7905   -7.2988 C   0  0  0  0  0  0  0  0  0  0  0  0
   -8.6371    1.8586   -6.5866 H   0  0  0  0  0  0  0  0  0  0  0  0
 23 24  2  0  0  0
 24 25  1  0  0  0
 25 27  1  0  0  0
 27 28  2  0  0  0
 28 29  1  0  0  0
 29 30  2  0  0  0
 30 31  1  0  0  0
 31 32  2  0  0  0
 31 33  1  0  0  0
 33 34  1  0  0  0
 34 35  1  0  0  0
 24  1  1  0  0  0
  1  2  2  0  0  0
  2  3  1  0  0  0
  3  4  1  0  0  0
  3  5  2  0  0  0
  5  6  1  0  0  0
  6  7  2  0  0  0
  7  8  1  0  0  0
  8  9  1  0  0  0
  9 10  1  0  0  0
 10 11  1  0  0  0
 11 12  1  0  0  0
  8 13  1  0  0  0
 13 14  1  0  0  0
 14 18  1  0  0  0
 18 19  1  0  0  0
 19 20  1  0  0  0
 20 21  1  0  0  0
 32 27  1  0  0  0
  7  1  1  0  0  0
 12  8  1  0  0  0
 21 18  1  0  0  0
 35 30  1  0  0  0
 14  6  1  0  0  0
 25 26  1  0  0  0
 34 36  1  0  0  0
 10 15  1  0  0  0
 12 16  1  0  0  0
 13 17  1  0  0  0
 20 22  1  0  0  0
M  END
> <minimizedAffinity>
-9.73824

> <minimizedRMSD>
0.46130

$$$$
P18370


 41 47  0  0  0  0  0  0  0  0999 V2000
   -7.5518    4.6323  -15.0910 C   0  0  0  0  0  0  0  0  0  0  0  0
   -8.6515    4.0893  -15.7674 C   0  0  0  0  0  0  0  0  0  0  0  0
   -8.5708    3.8445  -17.1479 C   0  0  0  0  0  0  0  0  0  0  0  0
   -9.9371    3.2273  -17.9878 Cl  0  0  0  0  0  0  0  0  0  0  0  0
   -7.4186    4.1394  -17.8754 C   0  0  0  0  0  0  0  0  0  0  0  0
   -6.3350    4.6566  -17.1936 C   0  0  0  0  0  0  0  0  0  0  0  0
   -6.3826    4.8799  -15.8099 C   0  0  0  0  0  0  0  0  0  0  0  0
   -5.0297    5.4275  -15.4174 C   0  0  0  0  0  0  0  0  0  0  0  0
   -5.0038    6.9475  -15.1154 C   0  0  0  0  0  0  0  0  0  0  0  0
   -4.5796    7.0360  -13.7053 N   0  0  0  0  0  0  0  0  0  0  0  0
   -3.7442    5.8614  -13.5426 C   0  0  0  0  0  0  0  0  0  0  0  0
   -4.4244    4.7897  -14.2484 N   0  0  0  0  0  0  0  0  0  0  0  0
   -4.1791    5.1013  -16.5972 N   0  0  0  0  0  0  0  0  0  0  0  0
   -5.0837    5.0703  -17.7034 N   0  0  0  0  0  0  0  0  0  0  0  0
   -5.3832    7.0043  -13.0780 H   0  0  0  0  0  0  0  0  0  0  0  0
   -5.1422    4.3707  -13.6573 H   0  0  0  0  0  0  0  0  0  0  0  0
   -3.7290    4.1941  -16.4758 H   0  0  0  0  0  0  0  0  0  0  0  0
   -4.6215    4.9050  -19.0540 C   0  0  0  0  0  0  0  0  0  0  0  0
   -3.0904    4.9514  -19.2452 C   0  0  0  0  0  0  0  0  0  0  0  0
   -3.2647    5.9091  -20.3579 N   0  0  0  0  0  0  0  0  0  0  0  0
   -4.6138    6.2299  -19.8500 C   0  0  0  0  0  0  0  0  0  0  0  0
   -3.2568    5.4811  -21.2837 H   0  0  0  0  0  0  0  0  0  0  0  0
   -7.4380    6.2419  -13.5086 O   0  0  0  0  0  0  0  0  0  0  0  0
   -7.6929    5.1183  -13.6939 C   0  0  0  0  0  0  0  0  0  0  0  0
   -8.0931    4.0058  -12.7004 N   0  0  0  0  0  0  0  0  0  0  0  0
   -8.1839    3.1102  -13.0992 H   0  0  0  0  0  0  0  0  0  0  0  0
   -8.3476    4.0636  -11.3267 C   0  0  0  0  0  0  0  0  0  0  0  0
   -8.1461    5.2609  -10.6228 C   0  0  0  0  0  0  0  0  0  0  0  0
   -8.3036    5.3067   -9.2377 C   0  0  0  0  0  0  0  0  0  0  0  0
   -8.0772    6.4553   -8.5897 F   0  0  0  0  0  0  0  0  0  0  0  0
   -8.6503    4.1672   -8.5442 C   0  0  0  0  0  0  0  0  0  0  0  0
   -8.8845    2.9890   -9.2497 C   0  0  0  0  0  0  0  0  0  0  0  0
   -8.7520    2.9179  -10.6367 C   0  0  0  0  0  0  0  0  0  0  0  0
   -9.2359    1.9056   -8.2893 C   0  0  0  0  0  0  0  0  0  0  0  0
   -8.9535    2.4485   -6.9375 N   0  0  0  0  0  0  0  0  0  0  0  0
   -8.7090    3.9111   -7.0709 C   0  0  0  0  0  0  0  0  0  0  0  0
   -9.7535    4.6318   -6.2048 C   0  0  0  0  0  0  0  0  0  0  0  0
   -9.2238    4.5730   -4.7654 C   0  0  0  0  0  0  0  0  0  0  0  0
   -7.7314    4.2858   -4.8740 C   0  0  0  0  0  0  0  0  0  0  0  0
   -7.4310    4.3922   -6.3597 C   0  0  0  0  0  0  0  0  0  0  0  0
   -8.1281    1.9938   -6.5473 H   0  0  0  0  0  0  0  0  0  0  0  0
 23 24  2  0  0  0
 24 25  1  0  0  0
 25 27  1  0  0  0
 27 28  2  0  0  0
 28 29  1  0  0  0
 29 30  1  0  0  0
 29 31  2  0  0  0
 31 32  1  0  0  0
 32 33  2  0  0  0
 32 34  1  0  0  0
 34 35  1  0  0  0
 35 36  1  0  0  0
 36 37  1  0  0  0
 37 38  1  0  0  0
 38 39  1  0  0  0
 39 40  1  0  0  0
 24  1  1  0  0  0
  1  2  2  0  0  0
  2  3  1  0  0  0
  3  4  1  0  0  0
  3  5  2  0  0  0
  5  6  1  0  0  0
  6  7  2  0  0  0
  7  8  1  0  0  0
  8  9  1  0  0  0
  9 10  1  0  0  0
 10 11  1  0  0  0
 11 12  1  0  0  0
  8 13  1  0  0  0
 13 14  1  0  0  0
 14 18  1  0  0  0
 18 19  1  0  0  0
 19 20  1  0  0  0
 20 21  1  0  0  0
 33 27  1  0  0  0
 40 36  1  0  0  0
  7  1  1  0  0  0
 12  8  1  0  0  0
 21 18  1  0  0  0
 36 31  1  0  0  0
 14  6  1  0  0  0
 25 26  1  0  0  0
 35 41  1  0  0  0
 10 15  1  0  0  0
 12 16  1  0  0  0
 13 17  1  0  0  0
 20 22  1  0  0  0
M  END
> <minimizedAffinity>
-10.59014

> <minimizedRMSD>
0.50815

$$$$
P18372


 36 41  0  0  0  0  0  0  0  0999 V2000
   -7.7971    4.7090  -15.0141 C   0  0  0  0  0  0  0  0  0  0  0  0
   -8.7857    4.1636  -15.8458 C   0  0  0  0  0  0  0  0  0  0  0  0
   -8.5002    3.9046  -17.1866 C   0  0  0  0  0  0  0  0  0  0  0  0
   -9.7138    3.2866  -18.2297 Cl  0  0  0  0  0  0  0  0  0  0  0  0
   -7.2458    4.1823  -17.7092 C   0  0  0  0  0  0  0  0  0  0  0  0
   -6.2817    4.7198  -16.8727 C   0  0  0  0  0  0  0  0  0  0  0  0
   -6.5251    4.9476  -15.5153 C   0  0  0  0  0  0  0  0  0  0  0  0
   -5.2546    5.4936  -14.9231 C   0  0  0  0  0  0  0  0  0  0  0  0
   -5.2509    6.9598  -14.4827 C   0  0  0  0  0  0  0  0  0  0  0  0
   -5.4452    6.9279  -13.0250 N   0  0  0  0  0  0  0  0  0  0  0  0
   -5.1040    5.5787  -12.5987 C   0  0  0  0  0  0  0  0  0  0  0  0
   -4.7225    4.7892  -13.7654 N   0  0  0  0  0  0  0  0  0  0  0  0
   -4.2343    5.2727  -15.9826 N   0  0  0  0  0  0  0  0  0  0  0  0
   -4.9681    5.1108  -17.2153 N   0  0  0  0  0  0  0  0  0  0  0  0
   -6.4163    7.1368  -12.7932 H   0  0  0  0  0  0  0  0  0  0  0  0
   -5.1235    3.8532  -13.7057 H   0  0  0  0  0  0  0  0  0  0  0  0
   -3.6904    4.4336  -15.7812 H   0  0  0  0  0  0  0  0  0  0  0  0
   -4.5994    6.0161  -18.2933 C   0  0  0  0  0  0  0  0  0  0  0  0
   -4.9655    5.6386  -19.7419 C   0  0  0  0  0  0  0  0  0  0  0  0
   -3.6814    4.9000  -19.8345 N   0  0  0  0  0  0  0  0  0  0  0  0
   -3.1539    5.7743  -18.7654 C   0  0  0  0  0  0  0  0  0  0  0  0
   -3.2038    4.9932  -20.7310 H   0  0  0  0  0  0  0  0  0  0  0  0
   -8.4266    6.3009  -13.5265 O   0  0  0  0  0  0  0  0  0  0  0  0
   -8.1877    5.1687  -13.6729 C   0  0  0  0  0  0  0  0  0  0  0  0
   -8.1569    4.0150  -12.6536 N   0  0  0  0  0  0  0  0  0  0  0  0
   -7.9998    3.1248  -13.0435 H   0  0  0  0  0  0  0  0  0  0  0  0
   -8.3151    4.0256  -11.2709 C   0  0  0  0  0  0  0  0  0  0  0  0
   -8.0272    5.1795  -10.5221 C   0  0  0  0  0  0  0  0  0  0  0  0
   -8.1391    5.1762   -9.1299 C   0  0  0  0  0  0  0  0  0  0  0  0
   -8.5713    4.0166   -8.5155 C   0  0  0  0  0  0  0  0  0  0  0  0
   -8.8804    2.8809   -9.2562 C   0  0  0  0  0  0  0  0  0  0  0  0
   -8.7419    2.8593  -10.6341 C   0  0  0  0  0  0  0  0  0  0  0  0
   -9.3242    1.7950   -8.3307 C   0  0  0  0  0  0  0  0  0  0  0  0
   -9.4621    2.4233   -6.9932 N   0  0  0  0  0  0  0  0  0  0  0  0
  -10.7919    2.5960   -6.6671 F   0  0  0  0  0  0  0  0  0  0  0  0
   -8.7791    3.7309   -7.0659 C   0  0  0  0  0  0  0  0  0  0  0  0
 23 24  2  0  0  0
 24 25  1  0  0  0
 25 27  1  0  0  0
 27 28  2  0  0  0
 28 29  1  0  0  0
 29 30  2  0  0  0
 30 31  1  0  0  0
 31 32  2  0  0  0
 31 33  1  0  0  0
 33 34  1  0  0  0
 34 35  1  0  0  0
 34 36  1  0  0  0
 24  1  1  0  0  0
  1  2  2  0  0  0
  2  3  1  0  0  0
  3  4  1  0  0  0
  3  5  2  0  0  0
  5  6  1  0  0  0
  6  7  2  0  0  0
  7  8  1  0  0  0
  8  9  1  0  0  0
  9 10  1  0  0  0
 10 11  1  0  0  0
 11 12  1  0  0  0
  8 13  1  0  0  0
 13 14  1  0  0  0
 14 18  1  0  0  0
 18 19  1  0  0  0
 19 20  1  0  0  0
 20 21  1  0  0  0
 32 27  1  0  0  0
  7  1  1  0  0  0
 12  8  1  0  0  0
 21 18  1  0  0  0
 36 30  1  0  0  0
 14  6  1  0  0  0
 25 26  1  0  0  0
 10 15  1  0  0  0
 12 16  1  0  0  0
 13 17  1  0  0  0
 20 22  1  0  0  0
M  END
> <minimizedAffinity>
-9.54348

> <minimizedRMSD>
0.57769

$$$$
P18377


 36 39  0  0  0  0  0  0  0  0999 V2000
   -6.7566    4.5463  -18.1690 C   0  0  0  0  0  0  0  0  0  0  0  0
   -8.1071    4.2909  -18.4915 C   0  0  0  0  0  0  0  0  0  0  0  0
   -9.0898    4.0921  -17.5084 C   0  0  0  0  0  0  0  0  0  0  0  0
   -8.7084    4.1029  -16.1684 C   0  0  0  0  0  0  0  0  0  0  0  0
   -7.3849    4.3788  -15.8325 C   0  0  0  0  0  0  0  0  0  0  0  0
   -6.4274    4.6098  -16.8247 C   0  0  0  0  0  0  0  0  0  0  0  0
  -10.4511    3.9284  -17.8715 N   0  0  0  0  0  0  0  0  0  0  0  0
  -11.0807    5.0072  -18.5169 O   0  0  0  0  0  0  0  0  0  0  0  0
  -10.9355    3.0931  -17.6793 H   0  0  0  0  0  0  0  0  0  0  0  0
  -10.4492    5.7363  -18.6186 H   0  0  0  0  0  0  0  0  0  0  0  0
   -6.9793    4.5701  -14.4185 C   0  0  0  0  0  0  0  0  0  0  0  0
   -5.8699    4.8592  -14.1976 O   0  0  0  0  0  0  0  0  0  0  0  0
   -8.1661    4.3445  -13.4558 N   0  0  0  0  0  0  0  0  0  0  0  0
   -9.0303    4.1811  -13.8981 H   0  0  0  0  0  0  0  0  0  0  0  0
   -8.2126    4.3348  -12.0616 C   0  0  0  0  0  0  0  0  0  0  0  0
   -7.9457    5.4968  -11.3175 C   0  0  0  0  0  0  0  0  0  0  0  0
   -8.0203    5.4891   -9.9200 C   0  0  0  0  0  0  0  0  0  0  0  0
   -8.3788    4.3113   -9.2929 C   0  0  0  0  0  0  0  0  0  0  0  0
   -8.6310    3.1551  -10.0259 C   0  0  0  0  0  0  0  0  0  0  0  0
   -8.5440    3.1442  -11.4086 C   0  0  0  0  0  0  0  0  0  0  0  0
   -8.9669    2.0481   -9.0811 C   0  0  0  0  0  0  0  0  0  0  0  0
   -9.2946    2.7264   -7.7984 N   0  0  0  0  0  0  0  0  0  0  0  0
   -8.5628    4.0129   -7.8424 C   0  0  0  0  0  0  0  0  0  0  0  0
   -8.9828    2.1642   -7.0065 H   0  0  0  0  0  0  0  0  0  0  0  0
   -5.8428    4.6985  -19.2240 N   0  0  0  0  0  0  0  0  0  0  0  0
   -6.0380    4.0540  -19.9421 H   0  0  0  0  0  0  0  0  0  0  0  0
   -3.4057    5.3245  -19.4594 C   0  0  0  0  0  0  0  0  0  0  0  0
   -2.9290    6.4806  -20.0432 N   0  0  0  0  0  0  0  0  0  0  0  0
   -3.9876    7.2208  -20.4702 C   0  0  0  0  0  0  0  0  0  0  0  0
   -5.1201    6.6333  -20.1801 N   0  0  0  0  0  0  0  0  0  0  0  0
   -4.7818    5.4570  -19.5515 C   0  0  0  0  0  0  0  0  0  0  0  0
   -1.9807    6.7285  -20.1353 H   0  0  0  0  0  0  0  0  0  0  0  0
   -2.4919    4.2781  -18.9086 C   0  0  0  0  0  0  0  0  0  0  0  0
   -1.4613    4.7475  -17.8759 C   0  0  0  0  0  0  0  0  0  0  0  0
   -2.8859    4.8849  -15.7569 C   0  0  0  0  0  0  0  0  0  0  0  0
   -2.0684    5.6445  -16.7911 C   0  0  0  0  0  0  0  0  0  0  0  0
 35 36  1  0  0  0
 36 34  1  0  0  0
 34 33  1  0  0  0
 33 27  1  0  0  0
 27 28  1  0  0  0
 28 29  1  0  0  0
 29 30  2  0  0  0
 30 31  1  0  0  0
 31 25  1  0  0  0
 25  1  1  0  0  0
  1  2  2  0  0  0
  2  3  1  0  0  0
  3  7  1  0  0  0
  7  8  1  0  0  0
  3  4  2  0  0  0
  4  5  1  0  0  0
  5 11  1  0  0  0
 11 12  2  0  0  0
 11 13  1  0  0  0
 13 15  1  0  0  0
 15 16  2  0  0  0
 16 17  1  0  0  0
 17 18  2  0  0  0
 18 19  1  0  0  0
 19 20  2  0  0  0
 19 21  1  0  0  0
 21 22  1  0  0  0
 22 23  1  0  0  0
  5  6  2  0  0  0
 31 27  2  0  0  0
  6  1  1  0  0  0
 20 15  1  0  0  0
 23 18  1  0  0  0
 28 32  1  0  0  0
 25 26  1  0  0  0
  7  9  1  0  0  0
  8 10  1  0  0  0
 13 14  1  0  0  0
 22 24  1  0  0  0
M  END
> <minimizedAffinity>
-9.16411

> <minimizedRMSD>
1.97257

$$$$
P18378


 36 41  0  0  0  0  0  0  0  0999 V2000
   -7.2639    4.7996  -15.1096 C   0  0  0  0  0  0  0  0  0  0  0  0
   -8.2835    4.3222  -15.9376 C   0  0  0  0  0  0  0  0  0  0  0  0
   -8.0350    4.1566  -17.2999 C   0  0  0  0  0  0  0  0  0  0  0  0
   -9.2492    3.6210  -18.3691 Cl  0  0  0  0  0  0  0  0  0  0  0  0
   -6.7837    4.4848  -17.8558 C   0  0  0  0  0  0  0  0  0  0  0  0
   -6.3173    4.4764  -19.1562 N   0  0  0  0  0  0  0  0  0  0  0  0
   -5.0995    4.9516  -19.1057 C   0  0  0  0  0  0  0  0  0  0  0  0
   -4.6907    5.0752  -17.8103 N   0  0  0  0  0  0  0  0  0  0  0  0
   -5.7791    4.9286  -16.9887 C   0  0  0  0  0  0  0  0  0  0  0  0
   -5.9713    5.0793  -15.6034 C   0  0  0  0  0  0  0  0  0  0  0  0
   -3.7669    5.2422  -17.5139 H   0  0  0  0  0  0  0  0  0  0  0  0
   -4.9315    5.4732  -14.7321 N   0  0  0  0  0  0  0  0  0  0  0  0
   -3.8347    6.2562  -14.9968 C   0  0  0  0  0  0  0  0  0  0  0  0
   -3.0245    6.2843  -13.9638 N   0  0  0  0  0  0  0  0  0  0  0  0
   -3.6862    5.5189  -13.0517 C   0  0  0  0  0  0  0  0  0  0  0  0
   -4.8335    4.9903  -13.4741 N   0  0  0  0  0  0  0  0  0  0  0  0
   -7.6341    6.4252  -13.5592 O   0  0  0  0  0  0  0  0  0  0  0  0
   -7.6482    5.2754  -13.7599 C   0  0  0  0  0  0  0  0  0  0  0  0
   -7.9653    4.1001  -12.8154 N   0  0  0  0  0  0  0  0  0  0  0  0
   -7.9837    3.2164  -13.2490 H   0  0  0  0  0  0  0  0  0  0  0  0
   -8.2302    4.0841  -11.4485 C   0  0  0  0  0  0  0  0  0  0  0  0
   -8.1524    5.2560  -10.6770 C   0  0  0  0  0  0  0  0  0  0  0  0
   -8.3812    5.2229   -9.2971 C   0  0  0  0  0  0  0  0  0  0  0  0
   -8.7211    4.0129   -8.7224 C   0  0  0  0  0  0  0  0  0  0  0  0
   -8.8114    2.8542   -9.4884 C   0  0  0  0  0  0  0  0  0  0  0  0
   -8.5494    2.8655  -10.8472 C   0  0  0  0  0  0  0  0  0  0  0  0
   -9.1987    1.7158   -8.6042 C   0  0  0  0  0  0  0  0  0  0  0  0
   -9.6968    2.3518   -7.3556 N   0  0  0  0  0  0  0  0  0  0  0  0
   -9.0382    3.6767   -7.3037 C   0  0  0  0  0  0  0  0  0  0  0  0
   -9.4395    1.7925   -6.5424 H   0  0  0  0  0  0  0  0  0  0  0  0
   -4.2855    5.2975  -20.1361 N   0  0  0  0  0  0  0  0  0  0  0  0
   -4.3720    4.8160  -20.9905 H   0  0  0  0  0  0  0  0  0  0  0  0
   -3.2997    6.3429  -20.0259 C   0  0  0  0  0  0  0  0  0  0  0  0
   -2.4922    6.5811  -21.3254 C   0  0  0  0  0  0  0  0  0  0  0  0
   -1.2505    6.7629  -20.4292 C   0  0  0  0  0  0  0  0  0  0  0  0
   -1.9651    5.8708  -19.3940 C   0  0  0  0  0  0  0  0  0  0  0  0
 17 18  2  0  0  0
 18 19  1  0  0  0
 19 21  1  0  0  0
 21 22  2  0  0  0
 22 23  1  0  0  0
 23 24  2  0  0  0
 24 25  1  0  0  0
 25 26  2  0  0  0
 25 27  1  0  0  0
 27 28  1  0  0  0
 28 29  1  0  0  0
 18  1  1  0  0  0
  1  2  2  0  0  0
  2  3  1  0  0  0
  3  4  1  0  0  0
  3  5  2  0  0  0
  5  6  1  0  0  0
  6  7  2  0  0  0
  7 31  1  0  0  0
 31 33  1  0  0  0
 33 34  1  0  0  0
 34 35  1  0  0  0
 35 36  1  0  0  0
  7  8  1  0  0  0
  8  9  1  0  0  0
  9 10  2  0  0  0
 10 12  1  0  0  0
 12 13  1  0  0  0
 13 14  2  0  0  0
 14 15  1  0  0  0
 15 16  2  0  0  0
 26 21  1  0  0  0
 10  1  1  0  0  0
 16 12  1  0  0  0
 29 24  1  0  0  0
  9  5  1  0  0  0
 36 33  1  0  0  0
 19 20  1  0  0  0
 28 30  1  0  0  0
 31 32  1  0  0  0
  8 11  1  0  0  0
M  END
> <minimizedAffinity>
-8.46479

> <minimizedRMSD>
0.07490

$$$$
P18390


 41 44  0  0  0  0  0  0  0  0999 V2000
   -7.1788    4.9750  -13.5950 C   0  0  0  0  0  0  0  0  0  0  0  0
   -5.9087    4.4861  -13.2049 O   0  0  0  0  0  0  0  0  0  0  0  0
   -5.8827    3.5236  -13.3222 H   0  0  0  0  0  0  0  0  0  0  0  0
   -6.2906    4.6495  -17.3607 C   0  0  0  0  0  0  0  0  0  0  0  0
   -7.4810    4.1435  -17.8705 C   0  0  0  0  0  0  0  0  0  0  0  0
   -8.5810    3.9714  -17.0574 C   0  0  0  0  0  0  0  0  0  0  0  0
  -10.0411    3.5781  -17.8478 Cl  0  0  0  0  0  0  0  0  0  0  0  0
   -8.5074    4.2077  -15.6864 C   0  0  0  0  0  0  0  0  0  0  0  0
   -7.3061    4.6490  -15.1052 C   0  0  0  0  0  0  0  0  0  0  0  0
   -6.2011    4.8637  -15.9752 C   0  0  0  0  0  0  0  0  0  0  0  0
   -5.2929    4.8881  -18.3330 N   0  0  0  0  0  0  0  0  0  0  0  0
   -5.3172    4.3044  -19.1254 H   0  0  0  0  0  0  0  0  0  0  0  0
   -4.3585    7.1781  -18.5006 C   0  0  0  0  0  0  0  0  0  0  0  0
   -3.0913    7.7009  -18.3877 N   0  0  0  0  0  0  0  0  0  0  0  0
   -2.2984    6.6701  -18.2035 C   0  0  0  0  0  0  0  0  0  0  0  0
   -2.9960    5.5001  -18.1691 N   0  0  0  0  0  0  0  0  0  0  0  0
   -4.3166    5.8092  -18.3139 C   0  0  0  0  0  0  0  0  0  0  0  0
   -2.6168    4.5982  -18.0599 H   0  0  0  0  0  0  0  0  0  0  0  0
   -5.5503    8.0501  -18.7214 C   0  0  0  0  0  0  0  0  0  0  0  0
   -5.5461    8.8412  -20.0323 C   0  0  0  0  0  0  0  0  0  0  0  0
   -5.5589    8.6829  -22.5475 C   0  0  0  0  0  0  0  0  0  0  0  0
   -5.1833    7.9861  -21.2489 C   0  0  0  0  0  0  0  0  0  0  0  0
   -7.3056    6.5928  -13.4277 C   0  0  0  0  0  0  0  0  0  0  0  0
   -6.3629    7.2907  -13.4650 O   0  0  0  0  0  0  0  0  0  0  0  0
   -8.8101    6.9361  -13.1731 N   0  0  0  0  0  0  0  0  0  0  0  0
   -9.4285    6.1760  -13.2688 H   0  0  0  0  0  0  0  0  0  0  0  0
   -9.4451    8.1982  -12.8173 C   0  0  0  0  0  0  0  0  0  0  0  0
  -10.7677    8.4253  -13.5475 C   0  0  0  0  0  0  0  0  0  0  0  0
   -8.5260    9.4055  -12.9697 C   0  0  0  0  0  0  0  0  0  0  0  0
   -8.1825    4.2154  -12.8119 N   0  0  0  0  0  0  0  0  0  0  0  0
   -8.8891    3.7475  -13.3130 H   0  0  0  0  0  0  0  0  0  0  0  0
   -8.2049    4.1103  -11.4070 C   0  0  0  0  0  0  0  0  0  0  0  0
   -7.9237    5.1778  -10.5297 C   0  0  0  0  0  0  0  0  0  0  0  0
   -8.1682    5.1005   -9.1497 C   0  0  0  0  0  0  0  0  0  0  0  0
   -8.6704    3.9250   -8.6374 C   0  0  0  0  0  0  0  0  0  0  0  0
   -8.8858    2.8326   -9.4632 C   0  0  0  0  0  0  0  0  0  0  0  0
   -8.6909    2.9175  -10.8363 C   0  0  0  0  0  0  0  0  0  0  0  0
   -9.3194    1.6775   -8.6217 C   0  0  0  0  0  0  0  0  0  0  0  0
   -9.7753    2.2800   -7.3431 N   0  0  0  0  0  0  0  0  0  0  0  0
   -9.0615    3.5732   -7.2411 C   0  0  0  0  0  0  0  0  0  0  0  0
   -9.5333    1.6760   -6.5576 H   0  0  0  0  0  0  0  0  0  0  0  0
 21 22  1  0  0  0
 22 20  1  0  0  0
 20 19  1  0  0  0
 19 13  1  0  0  0
 13 14  1  0  0  0
 14 15  2  0  0  0
 15 16  1  0  0  0
 16 17  1  0  0  0
 17 11  1  0  0  0
 11  4  1  0  0  0
  4  5  2  0  0  0
  5  6  1  0  0  0
  6  7  1  0  0  0
  6  8  2  0  0  0
  8  9  1  0  0  0
  9  1  1  0  0  0
  1  2  1  0  0  0
  1 30  1  0  0  0
 30 32  1  0  0  0
 32 33  2  0  0  0
 33 34  1  0  0  0
 34 35  2  0  0  0
 35 36  1  0  0  0
 36 37  2  0  0  0
 36 38  1  0  0  0
 38 39  1  0  0  0
 39 40  1  0  0  0
  1 23  1  0  0  0
 23 24  2  0  0  0
 23 25  1  0  0  0
 25 27  1  0  0  0
 27 28  1  0  0  0
 27 29  1  0  0  0
  9 10  2  0  0  0
 17 13  2  0  0  0
 10  4  1  0  0  0
 37 32  1  0  0  0
 40 35  1  0  0  0
 16 18  1  0  0  0
 11 12  1  0  0  0
  2  3  1  0  0  0
 30 31  1  0  0  0
 39 41  1  0  0  0
 25 26  1  0  0  0
M  END
> <minimizedAffinity>
-7.66715

> <minimizedRMSD>
1.05219

$$$$
P18392


 36 41  0  0  0  0  0  0  0  0999 V2000
   -7.1129    4.4103  -14.9646 C   0  0  0  0  0  0  0  0  0  0  0  0
   -8.2182    3.9507  -15.6873 C   0  0  0  0  0  0  0  0  0  0  0  0
   -8.2873    4.1580  -17.0681 C   0  0  0  0  0  0  0  0  0  0  0  0
   -9.6992    3.7524  -17.9549 Cl  0  0  0  0  0  0  0  0  0  0  0  0
   -7.1312    4.5975  -17.7208 C   0  0  0  0  0  0  0  0  0  0  0  0
   -6.8845    4.8160  -19.0531 N   0  0  0  0  0  0  0  0  0  0  0  0
   -5.5448    5.0002  -19.2542 C   0  0  0  0  0  0  0  0  0  0  0  0
   -4.9154    5.0326  -18.0245 C   0  0  0  0  0  0  0  0  0  0  0  0
   -5.9683    4.9652  -17.0383 C   0  0  0  0  0  0  0  0  0  0  0  0
   -6.1003    5.1421  -15.6416 C   0  0  0  0  0  0  0  0  0  0  0  0
   -7.5704    4.8369  -19.7591 H   0  0  0  0  0  0  0  0  0  0  0  0
   -3.4221    5.0440  -17.8012 C   0  0  0  0  0  0  0  0  0  0  0  0
   -2.7845    6.4417  -17.7745 C   0  0  0  0  0  0  0  0  0  0  0  0
   -1.7224    6.4182  -18.8656 C   0  0  0  0  0  0  0  0  0  0  0  0
   -1.3675    5.0090  -18.9632 N   0  0  0  0  0  0  0  0  0  0  0  0
   -2.6426    4.3012  -18.8970 C   0  0  0  0  0  0  0  0  0  0  0  0
   -0.7635    4.7355  -18.1880 H   0  0  0  0  0  0  0  0  0  0  0  0
   -5.4769    6.2480  -14.9763 N   0  0  0  0  0  0  0  0  0  0  0  0
   -4.1806    6.3787  -14.5230 C   0  0  0  0  0  0  0  0  0  0  0  0
   -3.9339    7.6058  -14.1233 N   0  0  0  0  0  0  0  0  0  0  0  0
   -5.0928    8.2453  -14.4207 C   0  0  0  0  0  0  0  0  0  0  0  0
   -6.0133    7.5018  -15.0286 N   0  0  0  0  0  0  0  0  0  0  0  0
   -5.7374    3.9148  -13.2202 O   0  0  0  0  0  0  0  0  0  0  0  0
   -6.8592    4.0630  -13.5151 C   0  0  0  0  0  0  0  0  0  0  0  0
   -8.1350    4.0625  -12.6387 N   0  0  0  0  0  0  0  0  0  0  0  0
   -8.9794    4.1336  -13.1399 H   0  0  0  0  0  0  0  0  0  0  0  0
   -8.2822    3.9781  -11.2617 C   0  0  0  0  0  0  0  0  0  0  0  0
   -7.9871    5.1195  -10.4956 C   0  0  0  0  0  0  0  0  0  0  0  0
   -8.2238    5.1417   -9.1218 C   0  0  0  0  0  0  0  0  0  0  0  0
   -8.6740    3.9820   -8.5282 C   0  0  0  0  0  0  0  0  0  0  0  0
   -8.8991    2.8292   -9.2761 C   0  0  0  0  0  0  0  0  0  0  0  0
   -8.7642    2.8208  -10.6570 C   0  0  0  0  0  0  0  0  0  0  0  0
   -9.3108    1.7360   -8.3507 C   0  0  0  0  0  0  0  0  0  0  0  0
   -9.0794    2.2474   -6.9740 N   0  0  0  0  0  0  0  0  0  0  0  0
   -9.0072    3.7189   -7.1004 C   0  0  0  0  0  0  0  0  0  0  0  0
   -8.2046    1.8793   -6.6003 H   0  0  0  0  0  0  0  0  0  0  0  0
 23 24  2  0  0  0
 24 25  1  0  0  0
 25 27  1  0  0  0
 27 28  2  0  0  0
 28 29  1  0  0  0
 29 30  2  0  0  0
 30 31  1  0  0  0
 31 32  2  0  0  0
 31 33  1  0  0  0
 33 34  1  0  0  0
 34 35  1  0  0  0
 24  1  1  0  0  0
  1  2  2  0  0  0
  2  3  1  0  0  0
  3  4  1  0  0  0
  3  5  2  0  0  0
  5  6  1  0  0  0
  6  7  1  0  0  0
  7  8  2  0  0  0
 12  8  1  0  0  0
 12 13  1  0  0  0
 13 14  1  0  0  0
 14 15  1  0  0  0
 15 16  1  0  0  0
  8  9  1  0  0  0
  9 10  2  0  0  0
 10 18  1  0  0  0
 18 19  1  0  0  0
 19 20  2  0  0  0
 20 21  1  0  0  0
 21 22  2  0  0  0
 32 27  1  0  0  0
 10  1  1  0  0  0
 22 18  1  0  0  0
 35 30  1  0  0  0
  9  5  1  0  0  0
 16 12  1  0  0  0
 25 26  1  0  0  0
 34 36  1  0  0  0
  6 11  1  0  0  0
 15 17  1  0  0  0
M  END
> <minimizedAffinity>
-9.47109

> <minimizedRMSD>
0.83618

$$$$
P18396


 32 36  0  0  0  0  0  0  0  0999 V2000
   -4.2952    5.1201  -19.6879 N   0  0  0  0  0  0  0  0  0  0  0  0
   -5.3080    4.8162  -18.8524 C   0  0  0  0  0  0  0  0  0  0  0  0
   -5.2124    5.0213  -17.5678 N   0  0  0  0  0  0  0  0  0  0  0  0
   -6.4050    4.7293  -16.9239 C   0  0  0  0  0  0  0  0  0  0  0  0
   -6.6686    4.8401  -15.5362 C   0  0  0  0  0  0  0  0  0  0  0  0
   -7.9837    4.6010  -15.0842 C   0  0  0  0  0  0  0  0  0  0  0  0
   -8.9891    4.1961  -15.9634 C   0  0  0  0  0  0  0  0  0  0  0  0
   -8.7112    4.0247  -17.3160 C   0  0  0  0  0  0  0  0  0  0  0  0
   -9.9685    3.5718  -18.3880 Cl  0  0  0  0  0  0  0  0  0  0  0  0
   -7.4182    4.2894  -17.7825 C   0  0  0  0  0  0  0  0  0  0  0  0
   -6.7753    4.1429  -19.3767 S   0  0  0  0  0  0  0  0  0  0  0  0
   -3.4638    5.5094  -19.3324 H   0  0  0  0  0  0  0  0  0  0  0  0
   -4.3868    4.9528  -20.6538 H   0  0  0  0  0  0  0  0  0  0  0  0
   -5.6210    5.1400  -14.6305 N   0  0  0  0  0  0  0  0  0  0  0  0
   -4.8956    6.2992  -14.4719 C   0  0  0  0  0  0  0  0  0  0  0  0
   -3.9425    6.1386  -13.5809 N   0  0  0  0  0  0  0  0  0  0  0  0
   -4.1084    4.8429  -13.2054 C   0  0  0  0  0  0  0  0  0  0  0  0
   -5.0858    4.1884  -13.8283 N   0  0  0  0  0  0  0  0  0  0  0  0
   -8.4330    5.0223  -13.7350 C   0  0  0  0  0  0  0  0  0  0  0  0
   -9.0191    6.0280  -13.6403 O   0  0  0  0  0  0  0  0  0  0  0  0
   -8.0835    3.9626  -12.6672 N   0  0  0  0  0  0  0  0  0  0  0  0
   -7.6417    3.1553  -13.0169 H   0  0  0  0  0  0  0  0  0  0  0  0
   -8.2916    3.9631  -11.2899 C   0  0  0  0  0  0  0  0  0  0  0  0
   -8.0333    5.1032  -10.5118 C   0  0  0  0  0  0  0  0  0  0  0  0
   -8.2162    5.0808   -9.1240 C   0  0  0  0  0  0  0  0  0  0  0  0
   -8.6845    3.9157   -8.5455 C   0  0  0  0  0  0  0  0  0  0  0  0
   -8.9543    2.7892   -9.3166 C   0  0  0  0  0  0  0  0  0  0  0  0
   -8.7483    2.7882  -10.6859 C   0  0  0  0  0  0  0  0  0  0  0  0
   -9.4430    1.6947   -8.4259 C   0  0  0  0  0  0  0  0  0  0  0  0
   -9.7882    2.3650   -7.1445 N   0  0  0  0  0  0  0  0  0  0  0  0
   -8.9727    3.6002   -7.1158 C   0  0  0  0  0  0  0  0  0  0  0  0
   -9.5549    1.7647   -6.3535 H   0  0  0  0  0  0  0  0  0  0  0  0
  1  2  1  0  0  0
  2  3  2  0  0  0
  3  4  1  0  0  0
  4  5  2  0  0  0
  5 14  1  0  0  0
 14 15  1  0  0  0
 15 16  2  0  0  0
 16 17  1  0  0  0
 17 18  2  0  0  0
  5  6  1  0  0  0
  6 19  1  0  0  0
 19 20  2  0  0  0
 19 21  1  0  0  0
 21 23  1  0  0  0
 23 24  2  0  0  0
 24 25  1  0  0  0
 25 26  2  0  0  0
 26 27  1  0  0  0
 27 28  2  0  0  0
 27 29  1  0  0  0
 29 30  1  0  0  0
 30 31  1  0  0  0
  6  7  2  0  0  0
  7  8  1  0  0  0
  8  9  1  0  0  0
  8 10  2  0  0  0
 10 11  1  0  0  0
 11  2  1  0  0  0
 10  4  1  0  0  0
 18 14  1  0  0  0
 28 23  1  0  0  0
 31 26  1  0  0  0
  1 12  1  0  0  0
  1 13  1  0  0  0
 21 22  1  0  0  0
 30 32  1  0  0  0
M  END
> <minimizedAffinity>
-8.76264

> <minimizedRMSD>
0.77591

$$$$
P18398


 28 31  0  0  0  0  0  0  0  0999 V2000
   -6.5882    5.5985  -14.6589 O   0  0  0  0  0  0  0  0  0  0  0  0
   -7.3864    4.7522  -14.7714 C   0  0  0  0  0  0  0  0  0  0  0  0
   -8.1749    3.9689  -13.6966 N   0  0  0  0  0  0  0  0  0  0  0  0
   -8.7404    3.2434  -14.0473 H   0  0  0  0  0  0  0  0  0  0  0  0
   -8.2155    4.1230  -12.3098 C   0  0  0  0  0  0  0  0  0  0  0  0
   -7.9193    5.3560  -11.7034 C   0  0  0  0  0  0  0  0  0  0  0  0
   -7.9723    5.5059  -10.3119 C   0  0  0  0  0  0  0  0  0  0  0  0
   -8.3026    4.4026   -9.5484 C   0  0  0  0  0  0  0  0  0  0  0  0
   -8.5622    3.1721  -10.1434 C   0  0  0  0  0  0  0  0  0  0  0  0
   -8.5401    3.0174  -11.5202 C   0  0  0  0  0  0  0  0  0  0  0  0
   -8.8000    2.1593   -9.0722 C   0  0  0  0  0  0  0  0  0  0  0  0
   -9.0875    2.9532   -7.8499 N   0  0  0  0  0  0  0  0  0  0  0  0
   -8.4271    4.2609   -8.0677 C   0  0  0  0  0  0  0  0  0  0  0  0
   -8.7027    2.4918   -7.0256 H   0  0  0  0  0  0  0  0  0  0  0  0
   -7.7011    4.2981  -16.1470 C   0  0  0  0  0  0  0  0  0  0  0  0
   -8.9348    3.7547  -16.5174 C   0  0  0  0  0  0  0  0  0  0  0  0
   -9.2292    3.4870  -17.8586 C   0  0  0  0  0  0  0  0  0  0  0  0
   -8.2863    3.7313  -18.8667 C   0  0  0  0  0  0  0  0  0  0  0  0
   -7.0258    4.2217  -18.5027 C   0  0  0  0  0  0  0  0  0  0  0  0
   -5.9220    4.4816  -19.2780 N   0  0  0  0  0  0  0  0  0  0  0  0
   -4.9834    4.8779  -18.4332 C   0  0  0  0  0  0  0  0  0  0  0  0
   -5.4865    4.9760  -17.1589 N   0  0  0  0  0  0  0  0  0  0  0  0
   -6.7707    4.5037  -17.1685 C   0  0  0  0  0  0  0  0  0  0  0  0
   -5.0060    5.3256  -16.3740 H   0  0  0  0  0  0  0  0  0  0  0  0
   -3.5578    5.1861  -18.6878 C   0  0  0  0  0  0  0  0  0  0  0  0
   -3.4016    6.3387  -19.3905 F   0  0  0  0  0  0  0  0  0  0  0  0
   -2.9117    4.2119  -19.3811 F   0  0  0  0  0  0  0  0  0  0  0  0
   -2.8672    5.3547  -17.5259 F   0  0  0  0  0  0  0  0  0  0  0  0
  1  2  2  0  0  0
  2  3  1  0  0  0
  3  5  1  0  0  0
  5  6  2  0  0  0
  6  7  1  0  0  0
  7  8  2  0  0  0
  8  9  1  0  0  0
  9 10  2  0  0  0
  9 11  1  0  0  0
 11 12  1  0  0  0
 12 13  1  0  0  0
  2 15  1  0  0  0
 15 16  2  0  0  0
 16 17  1  0  0  0
 17 18  2  0  0  0
 18 19  1  0  0  0
 19 20  1  0  0  0
 20 21  2  0  0  0
 21 25  1  0  0  0
 25 26  1  0  0  0
 25 27  1  0  0  0
 25 28  1  0  0  0
 21 22  1  0  0  0
 22 23  1  0  0  0
 10  5  1  0  0  0
 23 15  1  0  0  0
 13  8  1  0  0  0
 23 19  2  0  0  0
  3  4  1  0  0  0
 12 14  1  0  0  0
 22 24  1  0  0  0
M  END
> <minimizedAffinity>
-8.95045

> <minimizedRMSD>
1.11649

$$$$
P18403


 30 34  0  0  0  0  0  0  0  0999 V2000
   -2.4221    4.9840  -19.5162 C   0  0  0  0  0  0  0  0  0  0  0  0
   -3.6836    5.6728  -19.2617 N   0  0  0  0  0  0  0  0  0  0  0  0
   -4.8529    4.7672  -19.6779 N   0  0  0  0  0  0  0  0  0  0  0  0
   -5.6723    4.7487  -18.5190 N   0  0  0  0  0  0  0  0  0  0  0  0
   -5.1751    5.3886  -17.4450 C   0  0  0  0  0  0  0  0  0  0  0  0
   -5.9985    5.3491  -16.4218 N   0  0  0  0  0  0  0  0  0  0  0  0
   -7.0996    4.6468  -16.9028 C   0  0  0  0  0  0  0  0  0  0  0  0
   -8.3185    4.3085  -16.2866 C   0  0  0  0  0  0  0  0  0  0  0  0
   -9.2729    3.5796  -17.0146 C   0  0  0  0  0  0  0  0  0  0  0  0
   -9.0429    3.2197  -18.3444 C   0  0  0  0  0  0  0  0  0  0  0  0
   -7.8511    3.5577  -18.9896 C   0  0  0  0  0  0  0  0  0  0  0  0
   -6.9029    4.2559  -18.2385 C   0  0  0  0  0  0  0  0  0  0  0  0
   -3.8502    5.9375  -17.7845 C   0  0  0  0  0  0  0  0  0  0  0  0
   -2.8597    5.3498  -17.0647 F   0  0  0  0  0  0  0  0  0  0  0  0
   -3.7609    7.2747  -17.5780 F   0  0  0  0  0  0  0  0  0  0  0  0
   -4.5254    3.8295  -19.9101 H   0  0  0  0  0  0  0  0  0  0  0  0
   -8.6407    4.8354  -14.9413 C   0  0  0  0  0  0  0  0  0  0  0  0
   -9.3516    5.7594  -14.8643 O   0  0  0  0  0  0  0  0  0  0  0  0
   -7.9934    3.9717  -13.8304 N   0  0  0  0  0  0  0  0  0  0  0  0
   -7.4884    3.1920  -14.1563 H   0  0  0  0  0  0  0  0  0  0  0  0
   -8.0096    4.1189  -12.4433 C   0  0  0  0  0  0  0  0  0  0  0  0
   -7.5102    5.2779  -11.8286 C   0  0  0  0  0  0  0  0  0  0  0  0
   -7.5241    5.4149  -10.4358 C   0  0  0  0  0  0  0  0  0  0  0  0
   -8.0422    4.3800   -9.6783 C   0  0  0  0  0  0  0  0  0  0  0  0
   -8.5409    3.2341  -10.2814 C   0  0  0  0  0  0  0  0  0  0  0  0
   -8.5315    3.0840  -11.6610 C   0  0  0  0  0  0  0  0  0  0  0  0
   -9.0401    2.2971   -9.2356 C   0  0  0  0  0  0  0  0  0  0  0  0
   -8.8099    2.9604   -7.9247 N   0  0  0  0  0  0  0  0  0  0  0  0
   -8.1804    4.2699   -8.2003 C   0  0  0  0  0  0  0  0  0  0  0  0
   -8.1912    2.3898   -7.3485 H   0  0  0  0  0  0  0  0  0  0  0  0
  1  2  1  0  0  0
  2  3  1  0  0  0
  3  4  1  0  0  0
  4  5  1  0  0  0
  5  6  2  0  0  0
  6  7  1  0  0  0
  7  8  2  0  0  0
  8 17  1  0  0  0
 17 18  2  0  0  0
 17 19  1  0  0  0
 19 21  1  0  0  0
 21 22  2  0  0  0
 22 23  1  0  0  0
 23 24  2  0  0  0
 24 25  1  0  0  0
 25 26  2  0  0  0
 25 27  1  0  0  0
 27 28  1  0  0  0
 28 29  1  0  0  0
  8  9  1  0  0  0
  9 10  2  0  0  0
 10 11  1  0  0  0
 11 12  2  0  0  0
  5 13  1  0  0  0
 13 14  1  0  0  0
 13 15  1  0  0  0
 13  2  1  0  0  0
 12  4  1  0  0  0
 12  7  1  0  0  0
 26 21  1  0  0  0
 29 24  1  0  0  0
  3 16  1  0  0  0
 19 20  1  0  0  0
 28 30  1  0  0  0
M  END
> <minimizedAffinity>
-9.83979

> <minimizedRMSD>
1.01879

$$$$
P18404


 35 39  0  0  0  0  0  0  0  0999 V2000
   -4.0034    6.9040  -20.4399 C   0  0  0  0  0  0  0  0  0  0  0  0
   -3.4916    5.9548  -19.3457 C   0  0  0  0  0  0  0  0  0  0  0  0
   -4.5778    5.0143  -19.0393 N   0  0  0  0  0  0  0  0  0  0  0  0
   -5.0315    5.1002  -17.7065 N   0  0  0  0  0  0  0  0  0  0  0  0
   -4.3345    5.6196  -16.6688 C   0  0  0  0  0  0  0  0  0  0  0  0
   -5.0202    5.5405  -15.5390 N   0  0  0  0  0  0  0  0  0  0  0  0
   -6.2462    4.9979  -15.8868 C   0  0  0  0  0  0  0  0  0  0  0  0
   -7.4212    4.7395  -15.1409 C   0  0  0  0  0  0  0  0  0  0  0  0
   -8.5409    4.1926  -15.7981 C   0  0  0  0  0  0  0  0  0  0  0  0
   -8.4897    3.9209  -17.1641 C   0  0  0  0  0  0  0  0  0  0  0  0
   -9.8712    3.3551  -18.0009 Cl  0  0  0  0  0  0  0  0  0  0  0  0
   -7.3473    4.1562  -17.9186 C   0  0  0  0  0  0  0  0  0  0  0  0
   -6.2529    4.6983  -17.2512 C   0  0  0  0  0  0  0  0  0  0  0  0
   -3.0308    6.1969  -17.0150 C   0  0  0  0  0  0  0  0  0  0  0  0
   -2.0354    5.2752  -17.0845 F   0  0  0  0  0  0  0  0  0  0  0  0
   -2.6180    7.1446  -16.1366 F   0  0  0  0  0  0  0  0  0  0  0  0
   -3.1464    6.8353  -18.2754 O   0  0  0  0  0  0  0  0  0  0  0  0
   -4.2414    4.0659  -19.2062 H   0  0  0  0  0  0  0  0  0  0  0  0
   -7.5576    5.2093  -13.7366 C   0  0  0  0  0  0  0  0  0  0  0  0
   -7.6061    6.3614  -13.5445 O   0  0  0  0  0  0  0  0  0  0  0  0
   -7.6967    4.0180  -12.7498 N   0  0  0  0  0  0  0  0  0  0  0  0
   -7.5402    3.1317  -13.1488 H   0  0  0  0  0  0  0  0  0  0  0  0
   -8.0081    3.9997  -11.3864 C   0  0  0  0  0  0  0  0  0  0  0  0
   -7.8230    5.1355  -10.5809 C   0  0  0  0  0  0  0  0  0  0  0  0
   -8.1351    5.1115   -9.2150 C   0  0  0  0  0  0  0  0  0  0  0  0
   -8.6391    3.9422   -8.6774 C   0  0  0  0  0  0  0  0  0  0  0  0
   -8.8310    2.8151   -9.4696 C   0  0  0  0  0  0  0  0  0  0  0  0
   -8.5212    2.8243  -10.8231 C   0  0  0  0  0  0  0  0  0  0  0  0
   -9.3554    1.7076   -8.6131 C   0  0  0  0  0  0  0  0  0  0  0  0
   -9.8010    2.3626   -7.3553 N   0  0  0  0  0  0  0  0  0  0  0  0
   -9.0290    3.6221   -7.2727 C   0  0  0  0  0  0  0  0  0  0  0  0
   -9.5994    1.7672   -6.5521 H   0  0  0  0  0  0  0  0  0  0  0  0
   -2.2001    5.2336  -19.8536 C   0  0  0  0  0  0  0  0  0  0  0  0
   -2.3366    3.7947  -19.7761 O   0  0  0  0  0  0  0  0  0  0  0  0
   -2.4801    3.5328  -18.8533 H   0  0  0  0  0  0  0  0  0  0  0  0
  2  1  1  0  0  0
  2 33  1  0  0  0
 33 34  1  0  0  0
  2  3  1  0  0  0
  3  4  1  0  0  0
  4  5  1  0  0  0
  5  6  2  0  0  0
  6  7  1  0  0  0
  7  8  2  0  0  0
  8 19  1  0  0  0
 19 20  2  0  0  0
 19 21  1  0  0  0
 21 23  1  0  0  0
 23 24  2  0  0  0
 24 25  1  0  0  0
 25 26  2  0  0  0
 26 27  1  0  0  0
 27 28  2  0  0  0
 27 29  1  0  0  0
 29 30  1  0  0  0
 30 31  1  0  0  0
  8  9  1  0  0  0
  9 10  2  0  0  0
 10 11  1  0  0  0
 10 12  1  0  0  0
 12 13  2  0  0  0
  5 14  1  0  0  0
 14 15  1  0  0  0
 14 16  1  0  0  0
 14 17  1  0  0  0
 17  2  1  0  0  0
 13  4  1  0  0  0
 13  7  1  0  0  0
 28 23  1  0  0  0
 31 26  1  0  0  0
 34 35  1  0  0  0
  3 18  1  0  0  0
 21 22  1  0  0  0
 30 32  1  0  0  0
M  END
> <minimizedAffinity>
-9.79289

> <minimizedRMSD>
0.75894

$$$$
P18406


 33 37  0  0  0  0  0  0  0  0999 V2000
   -8.1775    4.5566  -15.6826 C   0  0  0  0  0  0  0  0  0  0  0  0
   -8.9276    3.7338  -16.5367 C   0  0  0  0  0  0  0  0  0  0  0  0
   -8.5157    3.5252  -17.8617 C   0  0  0  0  0  0  0  0  0  0  0  0
   -7.3544    4.1319  -18.3461 C   0  0  0  0  0  0  0  0  0  0  0  0
   -6.6035    4.9272  -17.4852 C   0  0  0  0  0  0  0  0  0  0  0  0
   -6.9979    5.1294  -16.1570 C   0  0  0  0  0  0  0  0  0  0  0  0
   -6.1843    6.0868  -15.4952 N   0  0  0  0  0  0  0  0  0  0  0  0
   -4.9408    6.1514  -16.3262 C   0  0  0  0  0  0  0  0  0  0  0  0
   -5.3946    5.7814  -17.7828 C   0  0  0  0  0  0  0  0  0  0  0  0
   -5.8306    7.0585  -18.5347 C   0  0  0  0  0  0  0  0  0  0  0  0
   -4.6776    7.3228  -19.4748 C   0  0  0  0  0  0  0  0  0  0  0  0
   -4.2929    5.9183  -19.8710 C   0  0  0  0  0  0  0  0  0  0  0  0
   -4.3797    5.1373  -18.6340 N   0  0  0  0  0  0  0  0  0  0  0  0
   -6.3910    6.5929  -14.6764 H   0  0  0  0  0  0  0  0  0  0  0  0
   -3.4769    5.1332  -18.1592 H   0  0  0  0  0  0  0  0  0  0  0  0
   -9.5422    5.7249  -14.2666 O   0  0  0  0  0  0  0  0  0  0  0  0
   -8.6992    4.9208  -14.3380 C   0  0  0  0  0  0  0  0  0  0  0  0
   -7.9465    4.1582  -13.2256 N   0  0  0  0  0  0  0  0  0  0  0  0
   -7.2164    3.5797  -13.5441 H   0  0  0  0  0  0  0  0  0  0  0  0
   -8.1323    4.1558  -11.8461 C   0  0  0  0  0  0  0  0  0  0  0  0
   -7.9382    5.3282  -11.0935 C   0  0  0  0  0  0  0  0  0  0  0  0
   -8.0894    5.3233   -9.7036 C   0  0  0  0  0  0  0  0  0  0  0  0
   -8.4655    4.1410   -9.0960 C   0  0  0  0  0  0  0  0  0  0  0  0
   -8.6815    2.9856   -9.8428 C   0  0  0  0  0  0  0  0  0  0  0  0
   -8.5014    2.9664  -11.2157 C   0  0  0  0  0  0  0  0  0  0  0  0
   -9.1071    1.8848   -8.9275 C   0  0  0  0  0  0  0  0  0  0  0  0
   -9.4357    2.5528   -7.6417 N   0  0  0  0  0  0  0  0  0  0  0  0
   -8.6985    3.8332   -7.6546 C   0  0  0  0  0  0  0  0  0  0  0  0
   -9.1347    1.9774   -6.8551 H   0  0  0  0  0  0  0  0  0  0  0  0
   -3.7950    5.2902  -15.7685 C   0  0  0  0  0  0  0  0  0  0  0  0
   -2.7986    6.0381  -15.2432 F   0  0  0  0  0  0  0  0  0  0  0  0
   -3.2566    4.4534  -16.6780 F   0  0  0  0  0  0  0  0  0  0  0  0
   -4.2597    4.5116  -14.7527 F   0  0  0  0  0  0  0  0  0  0  0  0
 16 17  2  0  0  0
 17 18  1  0  0  0
 18 20  1  0  0  0
 20 21  2  0  0  0
 21 22  1  0  0  0
 22 23  2  0  0  0
 23 24  1  0  0  0
 24 25  2  0  0  0
 24 26  1  0  0  0
 26 27  1  0  0  0
 27 28  1  0  0  0
 17  1  1  0  0  0
  1  2  2  0  0  0
  2  3  1  0  0  0
  3  4  2  0  0  0
  4  5  1  0  0  0
  5  6  2  0  0  0
  6  7  1  0  0  0
  7  8  1  0  0  0
  8 30  1  0  0  0
 30 31  1  0  0  0
 30 32  1  0  0  0
 30 33  1  0  0  0
  8  9  1  0  0  0
  9 10  1  0  0  0
 10 11  1  0  0  0
 11 12  1  0  0  0
 12 13  1  0  0  0
 25 20  1  0  0  0
  6  1  1  0  0  0
 13  9  1  0  0  0
 28 23  1  0  0  0
  9  5  1  0  0  0
 18 19  1  0  0  0
 27 29  1  0  0  0
  7 14  1  0  0  0
 13 15  1  0  0  0
M  END
> <minimizedAffinity>
-9.51746

> <minimizedRMSD>
0.95928

$$$$
P18408


 29 32  0  0  0  0  0  0  0  0999 V2000
   -7.5058    3.8933  -19.2688 C   0  0  0  0  0  0  0  0  0  0  0  0
   -7.4678    4.1321  -17.7894 C   0  0  0  0  0  0  0  0  0  0  0  0
   -8.6365    3.9034  -17.0274 C   0  0  0  0  0  0  0  0  0  0  0  0
   -8.6798    4.1504  -15.6523 C   0  0  0  0  0  0  0  0  0  0  0  0
   -7.5605    4.6505  -14.9906 C   0  0  0  0  0  0  0  0  0  0  0  0
   -6.4001    4.8244  -15.7412 C   0  0  0  0  0  0  0  0  0  0  0  0
   -5.1578    5.2747  -15.3812 N   0  0  0  0  0  0  0  0  0  0  0  0
   -4.3539    5.2398  -16.4884 C   0  0  0  0  0  0  0  0  0  0  0  0
   -5.0415    4.8308  -17.5453 N   0  0  0  0  0  0  0  0  0  0  0  0
   -6.3183    4.5686  -17.0992 C   0  0  0  0  0  0  0  0  0  0  0  0
   -4.8895    5.5721  -14.4818 H   0  0  0  0  0  0  0  0  0  0  0  0
   -7.5416    5.0822  -13.5782 C   0  0  0  0  0  0  0  0  0  0  0  0
   -6.8979    6.0199  -13.3147 O   0  0  0  0  0  0  0  0  0  0  0  0
   -8.3262    4.1210  -12.6659 N   0  0  0  0  0  0  0  0  0  0  0  0
   -8.8580    3.4430  -13.1420 H   0  0  0  0  0  0  0  0  0  0  0  0
   -8.4058    4.0548  -11.2785 C   0  0  0  0  0  0  0  0  0  0  0  0
   -8.0805    5.1743  -10.4929 C   0  0  0  0  0  0  0  0  0  0  0  0
   -8.1598    5.1198   -9.0999 C   0  0  0  0  0  0  0  0  0  0  0  0
   -8.5624    3.9333   -8.5180 C   0  0  0  0  0  0  0  0  0  0  0  0
   -8.8673    2.8204   -9.2926 C   0  0  0  0  0  0  0  0  0  0  0  0
   -8.7992    2.8608  -10.6758 C   0  0  0  0  0  0  0  0  0  0  0  0
   -9.2147    1.6790   -8.4007 C   0  0  0  0  0  0  0  0  0  0  0  0
   -9.3223    2.2425   -7.0307 N   0  0  0  0  0  0  0  0  0  0  0  0
   -8.7480    3.6034   -7.0773 C   0  0  0  0  0  0  0  0  0  0  0  0
   -8.8004    1.6644   -6.3721 H   0  0  0  0  0  0  0  0  0  0  0  0
   -2.9223    5.6432  -16.4035 C   0  0  0  0  0  0  0  0  0  0  0  0
   -2.1008    4.8003  -17.0811 F   0  0  0  0  0  0  0  0  0  0  0  0
   -2.7085    6.8915  -16.8920 F   0  0  0  0  0  0  0  0  0  0  0  0
   -2.4840    5.6541  -15.1141 F   0  0  0  0  0  0  0  0  0  0  0  0
  1  2  1  0  0  0
  2  3  2  0  0  0
  3  4  1  0  0  0
  4  5  2  0  0  0
  5 12  1  0  0  0
 12 13  2  0  0  0
 12 14  1  0  0  0
 14 16  1  0  0  0
 16 17  2  0  0  0
 17 18  1  0  0  0
 18 19  2  0  0  0
 19 20  1  0  0  0
 20 21  2  0  0  0
 20 22  1  0  0  0
 22 23  1  0  0  0
 23 24  1  0  0  0
  5  6  1  0  0  0
  6  7  1  0  0  0
  7  8  1  0  0  0
  8 26  1  0  0  0
 26 27  1  0  0  0
 26 28  1  0  0  0
 26 29  1  0  0  0
  8  9  2  0  0  0
  9 10  1  0  0  0
 10  2  1  0  0  0
 21 16  1  0  0  0
 10  6  2  0  0  0
 24 19  1  0  0  0
 14 15  1  0  0  0
 23 25  1  0  0  0
  7 11  1  0  0  0
M  END
> <minimizedAffinity>
-8.28629

> <minimizedRMSD>
0.43045

$$$$
P18411


 29 32  0  0  0  0  0  0  0  0999 V2000
   -7.1816    4.6512  -15.3939 C   0  0  0  0  0  0  0  0  0  0  0  0
   -8.3915    4.3340  -16.0078 C   0  0  0  0  0  0  0  0  0  0  0  0
   -8.4570    4.2459  -17.4024 C   0  0  0  0  0  0  0  0  0  0  0  0
  -10.1208    3.9266  -18.2230 Br  0  0  0  0  0  0  0  0  0  0  0  0
   -7.3358    4.4309  -18.2223 C   0  0  0  0  0  0  0  0  0  0  0  0
   -6.1130    4.6998  -17.6017 C   0  0  0  0  0  0  0  0  0  0  0  0
   -4.8638    4.8905  -18.1410 N   0  0  0  0  0  0  0  0  0  0  0  0
   -4.0538    5.0941  -17.1106 C   0  0  0  0  0  0  0  0  0  0  0  0
   -4.7636    5.1083  -15.9378 N   0  0  0  0  0  0  0  0  0  0  0  0
   -6.0692    4.8131  -16.2222 C   0  0  0  0  0  0  0  0  0  0  0  0
   -4.3968    5.2984  -15.0442 H   0  0  0  0  0  0  0  0  0  0  0  0
   -6.1023    5.5683  -13.6329 O   0  0  0  0  0  0  0  0  0  0  0  0
   -7.0212    4.9207  -13.9494 C   0  0  0  0  0  0  0  0  0  0  0  0
   -8.0748    4.1923  -13.0901 N   0  0  0  0  0  0  0  0  0  0  0  0
   -8.7140    3.6434  -13.5994 H   0  0  0  0  0  0  0  0  0  0  0  0
   -8.2694    4.1847  -11.7104 C   0  0  0  0  0  0  0  0  0  0  0  0
   -8.0069    5.3341  -10.9453 C   0  0  0  0  0  0  0  0  0  0  0  0
   -8.1399    5.3176   -9.5540 C   0  0  0  0  0  0  0  0  0  0  0  0
   -8.5232    4.1357   -8.9492 C   0  0  0  0  0  0  0  0  0  0  0  0
   -8.7821    2.9973   -9.7017 C   0  0  0  0  0  0  0  0  0  0  0  0
   -8.6740    3.0042  -11.0850 C   0  0  0  0  0  0  0  0  0  0  0  0
   -9.1184    1.8679   -8.7886 C   0  0  0  0  0  0  0  0  0  0  0  0
   -9.2099    2.4453   -7.4227 N   0  0  0  0  0  0  0  0  0  0  0  0
   -8.7132    3.8347   -7.5028 C   0  0  0  0  0  0  0  0  0  0  0  0
   -8.6354    1.9053   -6.7756 H   0  0  0  0  0  0  0  0  0  0  0  0
   -2.5797    5.2880  -17.0813 C   0  0  0  0  0  0  0  0  0  0  0  0
   -1.9053    4.3694  -17.8215 F   0  0  0  0  0  0  0  0  0  0  0  0
   -2.2176    6.5137  -17.5390 F   0  0  0  0  0  0  0  0  0  0  0  0
   -2.0937    5.1926  -15.8130 F   0  0  0  0  0  0  0  0  0  0  0  0
 12 13  2  0  0  0
 13 14  1  0  0  0
 14 16  1  0  0  0
 16 17  2  0  0  0
 17 18  1  0  0  0
 18 19  2  0  0  0
 19 20  1  0  0  0
 20 21  2  0  0  0
 20 22  1  0  0  0
 22 23  1  0  0  0
 23 24  1  0  0  0
 13  1  1  0  0  0
  1  2  2  0  0  0
  2  3  1  0  0  0
  3  4  1  0  0  0
  3  5  2  0  0  0
  5  6  1  0  0  0
  6  7  1  0  0  0
  7  8  2  0  0  0
  8 26  1  0  0  0
 26 27  1  0  0  0
 26 28  1  0  0  0
 26 29  1  0  0  0
  8  9  1  0  0  0
  9 10  1  0  0  0
 21 16  1  0  0  0
 10  1  1  0  0  0
 24 19  1  0  0  0
 10  6  2  0  0  0
 14 15  1  0  0  0
 23 25  1  0  0  0
  9 11  1  0  0  0
M  END
> <minimizedAffinity>
-8.43788

> <minimizedRMSD>
0.60177

$$$$
P18412


 31 34  0  0  0  0  0  0  0  0999 V2000
   -6.8910    4.5244  -17.8127 C   0  0  0  0  0  0  0  0  0  0  0  0
   -8.2683    4.2836  -17.6333 C   0  0  0  0  0  0  0  0  0  0  0  0
   -9.1870    4.0074  -18.7980 C   0  0  0  0  0  0  0  0  0  0  0  0
   -8.8139    4.3156  -16.3375 C   0  0  0  0  0  0  0  0  0  0  0  0
   -8.0266    4.6391  -15.2238 C   0  0  0  0  0  0  0  0  0  0  0  0
   -6.6501    4.8214  -15.3832 C   0  0  0  0  0  0  0  0  0  0  0  0
   -5.6558    5.0451  -14.4587 N   0  0  0  0  0  0  0  0  0  0  0  0
   -4.5275    5.1053  -15.1405 C   0  0  0  0  0  0  0  0  0  0  0  0
   -4.7807    4.9922  -16.4852 N   0  0  0  0  0  0  0  0  0  0  0  0
   -6.1225    4.7682  -16.6643 C   0  0  0  0  0  0  0  0  0  0  0  0
   -4.1100    5.0606  -17.2027 H   0  0  0  0  0  0  0  0  0  0  0  0
   -8.6256    4.9098  -13.9086 C   0  0  0  0  0  0  0  0  0  0  0  0
   -9.4221    5.7586  -13.8254 O   0  0  0  0  0  0  0  0  0  0  0  0
   -8.0337    3.9846  -12.8260 N   0  0  0  0  0  0  0  0  0  0  0  0
   -7.4250    3.2894  -13.1659 H   0  0  0  0  0  0  0  0  0  0  0  0
   -8.2199    3.9722  -11.4456 C   0  0  0  0  0  0  0  0  0  0  0  0
   -7.9744    5.1208  -10.6730 C   0  0  0  0  0  0  0  0  0  0  0  0
   -8.1663    5.1103   -9.2879 C   0  0  0  0  0  0  0  0  0  0  0  0
   -8.6329    3.9477   -8.7062 C   0  0  0  0  0  0  0  0  0  0  0  0
   -8.8732    2.8080   -9.4695 C   0  0  0  0  0  0  0  0  0  0  0  0
   -8.6550    2.7942  -10.8367 C   0  0  0  0  0  0  0  0  0  0  0  0
   -9.3630    1.7208   -8.5720 C   0  0  0  0  0  0  0  0  0  0  0  0
   -9.7727    2.4118   -7.3211 N   0  0  0  0  0  0  0  0  0  0  0  0
   -8.9683    3.6544   -7.2822 C   0  0  0  0  0  0  0  0  0  0  0  0
   -9.5708    1.8296   -6.5083 H   0  0  0  0  0  0  0  0  0  0  0  0
   -3.1375    5.2514  -14.6340 C   0  0  0  0  0  0  0  0  0  0  0  0
   -2.2375    5.1311  -15.6560 F   0  0  0  0  0  0  0  0  0  0  0  0
   -2.9093    6.4657  -14.0746 F   0  0  0  0  0  0  0  0  0  0  0  0
   -2.7972    4.3077  -13.7217 F   0  0  0  0  0  0  0  0  0  0  0  0
   -6.4360    3.8110  -20.1187 C   0  0  0  0  0  0  0  0  0  0  0  0
   -6.1536    4.5734  -19.0650 C   0  0  0  0  0  0  0  0  0  0  0  0
 30 31  2  0  0  0
 31  1  1  0  0  0
  1  2  2  0  0  0
  2  3  1  0  0  0
  2  4  1  0  0  0
  4  5  2  0  0  0
  5 12  1  0  0  0
 12 13  2  0  0  0
 12 14  1  0  0  0
 14 16  1  0  0  0
 16 17  2  0  0  0
 17 18  1  0  0  0
 18 19  2  0  0  0
 19 20  1  0  0  0
 20 21  2  0  0  0
 20 22  1  0  0  0
 22 23  1  0  0  0
 23 24  1  0  0  0
  5  6  1  0  0  0
  6  7  1  0  0  0
  7  8  2  0  0  0
  8 26  1  0  0  0
 26 27  1  0  0  0
 26 28  1  0  0  0
 26 29  1  0  0  0
  8  9  1  0  0  0
  9 10  1  0  0  0
 10  1  1  0  0  0
 21 16  1  0  0  0
 10  6  2  0  0  0
 24 19  1  0  0  0
 14 15  1  0  0  0
 23 25  1  0  0  0
  9 11  1  0  0  0
M  END
> <minimizedAffinity>
-9.12730

> <minimizedRMSD>
0.83685

$$$$
P18414


 33 37  0  0  0  0  0  0  0  0999 V2000
   -8.0333    4.4380  -15.5777 C   0  0  0  0  0  0  0  0  0  0  0  0
   -8.8111    3.9216  -16.6124 C   0  0  0  0  0  0  0  0  0  0  0  0
   -8.2818    3.8603  -17.9060 C   0  0  0  0  0  0  0  0  0  0  0  0
   -9.0918    3.3815  -18.8951 O   0  0  0  0  0  0  0  0  0  0  0  0
   -6.9858    4.2925  -18.1908 C   0  0  0  0  0  0  0  0  0  0  0  0
   -6.2097    4.7569  -17.1397 C   0  0  0  0  0  0  0  0  0  0  0  0
   -6.7217    4.8128  -15.8431 C   0  0  0  0  0  0  0  0  0  0  0  0
   -5.6717    5.2465  -14.8692 C   0  0  0  0  0  0  0  0  0  0  0  0
   -4.6081    5.9207  -15.7956 C   0  0  0  0  0  0  0  0  0  0  0  0
   -4.7835    5.2147  -17.1743 C   0  0  0  0  0  0  0  0  0  0  0  0
   -3.2298    5.7190  -15.2727 N   0  0  0  0  0  0  0  0  0  0  0  0
   -3.0580    6.5788  -14.1109 C   0  0  0  0  0  0  0  0  0  0  0  0
   -3.9513    8.1149  -14.4037 S   0  0  0  0  0  0  0  0  0  0  0  0
   -4.8584    7.4651  -15.8500 C   0  0  0  0  0  0  0  0  0  0  0  0
   -9.9601    3.0942  -18.6915 H   0  0  0  0  0  0  0  0  0  0  0  0
   -2.5481    5.9663  -15.9900 H   0  0  0  0  0  0  0  0  0  0  0  0
   -9.3622    5.6593  -14.2069 O   0  0  0  0  0  0  0  0  0  0  0  0
   -8.6135    4.7650  -14.2571 C   0  0  0  0  0  0  0  0  0  0  0  0
   -8.0510    3.8683  -13.1365 N   0  0  0  0  0  0  0  0  0  0  0  0
   -7.4869    3.1241  -13.4483 H   0  0  0  0  0  0  0  0  0  0  0  0
   -8.2110    3.9395  -11.7531 C   0  0  0  0  0  0  0  0  0  0  0  0
   -7.9185    5.1248  -11.0560 C   0  0  0  0  0  0  0  0  0  0  0  0
   -8.0591    5.1964   -9.6666 C   0  0  0  0  0  0  0  0  0  0  0  0
   -8.4955    4.0699   -8.9952 C   0  0  0  0  0  0  0  0  0  0  0  0
   -8.7831    2.8964   -9.6791 C   0  0  0  0  0  0  0  0  0  0  0  0
   -8.6444    2.8099  -11.0572 C   0  0  0  0  0  0  0  0  0  0  0  0
   -9.2157    1.8503   -8.7096 C   0  0  0  0  0  0  0  0  0  0  0  0
   -9.2827    2.5096   -7.3791 N   0  0  0  0  0  0  0  0  0  0  0  0
   -8.7384    3.8745   -7.5392 C   0  0  0  0  0  0  0  0  0  0  0  0
   -8.7252    1.9883   -6.7024 H   0  0  0  0  0  0  0  0  0  0  0  0
   -4.3361    8.1684  -17.0172 N   0  0  0  0  0  0  0  0  0  0  0  0
   -5.3345    8.4041  -17.9410 F   0  0  0  0  0  0  0  0  0  0  0  0
   -3.6080    7.6005  -17.4505 H   0  0  0  0  0  0  0  0  0  0  0  0
 17 18  2  0  0  0
 18 19  1  0  0  0
 19 21  1  0  0  0
 21 22  2  0  0  0
 22 23  1  0  0  0
 23 24  2  0  0  0
 24 25  1  0  0  0
 25 26  2  0  0  0
 25 27  1  0  0  0
 27 28  1  0  0  0
 28 29  1  0  0  0
 18  1  1  0  0  0
  1  2  2  0  0  0
  2  3  1  0  0  0
  3  4  1  0  0  0
  3  5  2  0  0  0
  5  6  1  0  0  0
  6  7  2  0  0  0
  7  8  1  0  0  0
  9  8  1  0  0  0
  9 10  1  0  0  0
  9 11  1  0  0  0
 11 12  1  0  0  0
 12 13  1  0  0  0
 13 14  1  0  0  0
 14 31  1  0  0  0
 31 32  1  0  0  0
 26 21  1  0  0  0
  7  1  1  0  0  0
 14  9  1  0  0  0
 29 24  1  0  0  0
 10  6  1  0  0  0
 19 20  1  0  0  0
 28 30  1  0  0  0
  4 15  1  0  0  0
 11 16  1  0  0  0
 31 33  1  0  0  0
M  END
> <minimizedAffinity>
-9.80891

> <minimizedRMSD>
0.75149

$$$$
P18416


 34 37  0  0  0  0  0  0  0  0999 V2000
   -7.4027    4.6177  -13.7928 C   0  0  0  0  0  0  0  0  0  0  0  0
   -6.1660    4.1272  -13.3329 O   0  0  0  0  0  0  0  0  0  0  0  0
   -6.1052    4.2528  -12.3730 H   0  0  0  0  0  0  0  0  0  0  0  0
   -7.5269    4.4335  -15.3003 C   0  0  0  0  0  0  0  0  0  0  0  0
   -8.7076    3.9849  -15.9474 C   0  0  0  0  0  0  0  0  0  0  0  0
   -8.7975    3.8043  -17.3337 C   0  0  0  0  0  0  0  0  0  0  0  0
   -7.7160    4.0767  -18.1674 C   0  0  0  0  0  0  0  0  0  0  0  0
   -6.5587    4.5232  -17.5363 C   0  0  0  0  0  0  0  0  0  0  0  0
   -5.3397    4.9020  -18.0347 N   0  0  0  0  0  0  0  0  0  0  0  0
   -4.5298    5.2446  -16.9795 C   0  0  0  0  0  0  0  0  0  0  0  0
   -5.1727    5.1103  -15.8378 N   0  0  0  0  0  0  0  0  0  0  0  0
   -6.4407    4.6904  -16.1605 C   0  0  0  0  0  0  0  0  0  0  0  0
   -5.0876    4.9247  -18.9861 H   0  0  0  0  0  0  0  0  0  0  0  0
   -3.1340    5.6877  -17.1941 C   0  0  0  0  0  0  0  0  0  0  0  0
   -2.3499    4.6500  -17.6087 F   0  0  0  0  0  0  0  0  0  0  0  0
   -2.5394    6.2017  -16.0895 F   0  0  0  0  0  0  0  0  0  0  0  0
   -3.0472    6.6295  -18.1709 F   0  0  0  0  0  0  0  0  0  0  0  0
   -7.8741    8.2797  -12.7771 C   0  0  0  0  0  0  0  0  0  0  0  0
   -8.4986    7.0217  -13.3390 C   0  0  0  0  0  0  0  0  0  0  0  0
   -9.6144    6.9513  -13.6634 O   0  0  0  0  0  0  0  0  0  0  0  0
   -7.3717    5.9750  -13.4069 N   0  0  0  0  0  0  0  0  0  0  0  0
   -6.4848    6.3064  -13.1370 H   0  0  0  0  0  0  0  0  0  0  0  0
   -8.4450    3.9029  -13.0722 N   0  0  0  0  0  0  0  0  0  0  0  0
   -9.1583    3.4261  -13.5550 H   0  0  0  0  0  0  0  0  0  0  0  0
   -8.4046    3.9123  -11.6582 C   0  0  0  0  0  0  0  0  0  0  0  0
   -8.0699    5.0815  -10.9453 C   0  0  0  0  0  0  0  0  0  0  0  0
   -8.0766    5.1184   -9.5475 C   0  0  0  0  0  0  0  0  0  0  0  0
   -8.4682    3.9796   -8.8738 C   0  0  0  0  0  0  0  0  0  0  0  0
   -8.7917    2.8147   -9.5615 C   0  0  0  0  0  0  0  0  0  0  0  0
   -8.7426    2.7545  -10.9426 C   0  0  0  0  0  0  0  0  0  0  0  0
   -9.1860    1.7641   -8.5789 C   0  0  0  0  0  0  0  0  0  0  0  0
   -9.4827    2.5118   -7.3269 N   0  0  0  0  0  0  0  0  0  0  0  0
   -8.6692    3.7467   -7.4142 C   0  0  0  0  0  0  0  0  0  0  0  0
   -9.2147    1.9632   -6.5099 H   0  0  0  0  0  0  0  0  0  0  0  0
 18 19  1  0  0  0
 19 20  2  0  0  0
 19 21  1  0  0  0
 21  1  1  0  0  0
  1  2  1  0  0  0
  1 23  1  0  0  0
 23 25  1  0  0  0
 25 26  2  0  0  0
 26 27  1  0  0  0
 27 28  2  0  0  0
 28 29  1  0  0  0
 29 30  2  0  0  0
 29 31  1  0  0  0
 31 32  1  0  0  0
 32 33  1  0  0  0
  1  4  1  0  0  0
  4  5  2  0  0  0
  5  6  1  0  0  0
  6  7  2  0  0  0
  7  8  1  0  0  0
  8  9  1  0  0  0
  9 10  1  0  0  0
 10 14  1  0  0  0
 14 15  1  0  0  0
 14 16  1  0  0  0
 14 17  1  0  0  0
 10 11  2  0  0  0
 11 12  1  0  0  0
 30 25  1  0  0  0
 12  4  1  0  0  0
 33 28  1  0  0  0
 12  8  2  0  0  0
 21 22  1  0  0  0
  2  3  1  0  0  0
 23 24  1  0  0  0
 32 34  1  0  0  0
  9 13  1  0  0  0
M  END
> <minimizedAffinity>
-8.45157

> <minimizedRMSD>
0.91798

$$$$
P18417


 37 39  0  0  0  0  0  0  0  0999 V2000
   -8.4106    4.1923  -17.4837 C   0  0  0  0  0  0  0  0  0  0  0  0
   -7.2306    4.3904  -18.1904 C   0  0  0  0  0  0  0  0  0  0  0  0
   -6.0605    4.7164  -17.5216 C   0  0  0  0  0  0  0  0  0  0  0  0
   -6.0274    4.9087  -16.1351 C   0  0  0  0  0  0  0  0  0  0  0  0
   -7.1858    4.5952  -15.3744 C   0  0  0  0  0  0  0  0  0  0  0  0
   -8.3687    4.2649  -16.0786 C   0  0  0  0  0  0  0  0  0  0  0  0
   -7.1114    4.5980  -13.8342 C   0  0  0  0  0  0  0  0  0  0  0  0
   -6.8024    5.9194  -13.4506 O   0  0  0  0  0  0  0  0  0  0  0  0
   -6.0400    3.8162  -13.3670 O   0  0  0  0  0  0  0  0  0  0  0  0
   -7.3893    6.6183  -13.6629 H   0  0  0  0  0  0  0  0  0  0  0  0
   -6.0362    2.8908  -13.5139 H   0  0  0  0  0  0  0  0  0  0  0  0
   -8.3263    4.1394  -13.1856 N   0  0  0  0  0  0  0  0  0  0  0  0
   -9.1045    3.8350  -13.7062 H   0  0  0  0  0  0  0  0  0  0  0  0
   -8.3409    4.1500  -11.7645 C   0  0  0  0  0  0  0  0  0  0  0  0
   -8.0726    5.3281  -11.0366 C   0  0  0  0  0  0  0  0  0  0  0  0
   -8.1104    5.3504   -9.6371 C   0  0  0  0  0  0  0  0  0  0  0  0
   -8.4591    4.1895   -8.9725 C   0  0  0  0  0  0  0  0  0  0  0  0
   -8.7408    3.0255   -9.6713 C   0  0  0  0  0  0  0  0  0  0  0  0
   -8.6689    2.9818  -11.0563 C   0  0  0  0  0  0  0  0  0  0  0  0
   -9.1231    1.9473   -8.7154 C   0  0  0  0  0  0  0  0  0  0  0  0
   -9.1670    2.5788   -7.3696 N   0  0  0  0  0  0  0  0  0  0  0  0
   -8.6377    3.9510   -7.5136 C   0  0  0  0  0  0  0  0  0  0  0  0
   -8.5909    2.0488   -6.7158 H   0  0  0  0  0  0  0  0  0  0  0  0
  -10.1098    4.8054  -19.1923 N   0  0  0  0  0  0  0  0  0  0  0  0
   -9.6600    3.8076  -18.2331 C   0  0  0  0  0  0  0  0  0  0  0  0
  -10.9555    4.4740  -19.6564 H   0  0  0  0  0  0  0  0  0  0  0  0
   -9.3799    4.9624  -19.8872 H   0  0  0  0  0  0  0  0  0  0  0  0
   -4.8508    5.2692  -15.4617 N   0  0  0  0  0  0  0  0  0  0  0  0
   -4.6592    4.8610  -14.5865 H   0  0  0  0  0  0  0  0  0  0  0  0
   -3.8961    6.2344  -16.0185 C   0  0  0  0  0  0  0  0  0  0  0  0
   -2.6226    6.1766  -15.2741 N   0  0  0  0  0  0  0  0  0  0  0  0
   -2.7827    6.4507  -14.3047 H   0  0  0  0  0  0  0  0  0  0  0  0
   -1.9501    6.8137  -15.7009 H   0  0  0  0  0  0  0  0  0  0  0  0
   -4.4761    7.7069  -16.1520 C   0  0  0  0  0  0  0  0  0  0  0  0
   -3.4861    8.6339  -16.1110 F   0  0  0  0  0  0  0  0  0  0  0  0
   -5.3235    7.9861  -15.1274 F   0  0  0  0  0  0  0  0  0  0  0  0
   -5.1494    7.9137  -17.3059 F   0  0  0  0  0  0  0  0  0  0  0  0
 24 25  1  0  0  0
 25  1  1  0  0  0
  1  2  2  0  0  0
  2  3  1  0  0  0
  3  4  2  0  0  0
  4 28  1  0  0  0
 28 30  1  0  0  0
 30 31  1  0  0  0
 30 34  1  0  0  0
 34 35  1  0  0  0
 34 36  1  0  0  0
 34 37  1  0  0  0
  4  5  1  0  0  0
  5  7  1  0  0  0
  7  8  1  0  0  0
  7  9  1  0  0  0
  7 12  1  0  0  0
 12 14  1  0  0  0
 14 15  2  0  0  0
 15 16  1  0  0  0
 16 17  2  0  0  0
 17 18  1  0  0  0
 18 19  2  0  0  0
 18 20  1  0  0  0
 20 21  1  0  0  0
 21 22  1  0  0  0
  5  6  2  0  0  0
  6  1  1  0  0  0
 19 14  1  0  0  0
 22 17  1  0  0  0
 24 26  1  0  0  0
 24 27  1  0  0  0
 28 29  1  0  0  0
 31 32  1  0  0  0
 31 33  1  0  0  0
  8 10  1  0  0  0
  9 11  1  0  0  0
 12 13  1  0  0  0
 21 23  1  0  0  0
M  END
> <minimizedAffinity>
-7.96623

> <minimizedRMSD>
0.75034

$$$$
P18427


 31 34  0  0  0  0  0  0  0  0999 V2000
   -7.7781    4.2192  -17.7158 C   0  0  0  0  0  0  0  0  0  0  0  0
   -8.7905    3.9227  -16.7743 C   0  0  0  0  0  0  0  0  0  0  0  0
   -8.5644    3.9902  -15.3984 C   0  0  0  0  0  0  0  0  0  0  0  0
   -7.3153    4.3640  -14.8987 C   0  0  0  0  0  0  0  0  0  0  0  0
   -6.3285    4.6750  -15.8360 C   0  0  0  0  0  0  0  0  0  0  0  0
   -5.0307    5.0917  -15.6816 N   0  0  0  0  0  0  0  0  0  0  0  0
   -4.4672    5.2331  -16.9221 C   0  0  0  0  0  0  0  0  0  0  0  0
   -5.3574    4.9574  -17.8589 N   0  0  0  0  0  0  0  0  0  0  0  0
   -6.5209    4.6074  -17.2056 C   0  0  0  0  0  0  0  0  0  0  0  0
   -4.5798    5.2608  -14.8229 H   0  0  0  0  0  0  0  0  0  0  0  0
   -7.0092    4.5210  -13.4561 C   0  0  0  0  0  0  0  0  0  0  0  0
   -5.9357    4.8866  -13.1716 O   0  0  0  0  0  0  0  0  0  0  0  0
   -8.2013    4.1157  -12.5577 N   0  0  0  0  0  0  0  0  0  0  0  0
   -8.9832    3.7665  -13.0434 H   0  0  0  0  0  0  0  0  0  0  0  0
   -8.3498    4.1645  -11.1654 C   0  0  0  0  0  0  0  0  0  0  0  0
   -8.7493    2.9465  -10.5846 C   0  0  0  0  0  0  0  0  0  0  0  0
   -8.8776    2.8553   -9.2099 C   0  0  0  0  0  0  0  0  0  0  0  0
   -8.6267    3.9451   -8.3991 C   0  0  0  0  0  0  0  0  0  0  0  0
   -8.2563    5.1604   -8.9419 C   0  0  0  0  0  0  0  0  0  0  0  0
   -8.1414    5.2957  -10.3425 C   0  0  0  0  0  0  0  0  0  0  0  0
   -7.8487    6.6800  -10.8440 C   0  0  0  0  0  0  0  0  0  0  0  0
   -8.8324    3.5684   -6.9738 C   0  0  0  0  0  0  0  0  0  0  0  0
   -9.3472    2.1826   -6.9752 N   0  0  0  0  0  0  0  0  0  0  0  0
   -9.2321    1.6784   -8.3691 C   0  0  0  0  0  0  0  0  0  0  0  0
  -10.3228    2.1709   -6.6777 H   0  0  0  0  0  0  0  0  0  0  0  0
   -3.0438    5.6423  -17.0741 C   0  0  0  0  0  0  0  0  0  0  0  0
   -2.3046    4.7147  -17.7378 F   0  0  0  0  0  0  0  0  0  0  0  0
   -2.9145    6.8134  -17.7486 F   0  0  0  0  0  0  0  0  0  0  0  0
   -2.4423    5.8231  -15.8667 F   0  0  0  0  0  0  0  0  0  0  0  0
   -7.0555    3.4171  -20.0324 C   0  0  0  0  0  0  0  0  0  0  0  0
   -8.1234    4.0635  -19.1763 C   0  0  0  0  0  0  0  0  0  0  0  0
 30 31  1  0  0  0
 31  1  1  0  0  0
  1  2  2  0  0  0
  2  3  1  0  0  0
  3  4  2  0  0  0
  4 11  1  0  0  0
 11 12  2  0  0  0
 11 13  1  0  0  0
 13 15  1  0  0  0
 15 16  2  0  0  0
 16 17  1  0  0  0
 17 18  2  0  0  0
 18 19  1  0  0  0
 19 20  2  0  0  0
 20 21  1  0  0  0
 18 22  1  0  0  0
 22 23  1  0  0  0
 23 24  1  0  0  0
  4  5  1  0  0  0
  5  6  1  0  0  0
  6  7  1  0  0  0
  7 26  1  0  0  0
 26 27  1  0  0  0
 26 28  1  0  0  0
 26 29  1  0  0  0
  7  8  2  0  0  0
  8  9  1  0  0  0
  9  1  1  0  0  0
 20 15  1  0  0  0
  9  5  2  0  0  0
 24 17  1  0  0  0
 13 14  1  0  0  0
 23 25  1  0  0  0
  6 10  1  0  0  0
M  END
> <minimizedAffinity>
-8.25497

> <minimizedRMSD>
0.58174

$$$$
P18438


 39 43  0  0  0  0  0  0  0  0999 V2000
   -6.9558    4.3302  -13.9319 C   0  0  0  0  0  0  0  0  0  0  0  0
   -5.8502    4.1646  -13.6069 O   0  0  0  0  0  0  0  0  0  0  0  0
   -8.2385    4.4394  -13.0873 N   0  0  0  0  0  0  0  0  0  0  0  0
   -9.0711    4.5040  -13.6088 H   0  0  0  0  0  0  0  0  0  0  0  0
   -8.4200    4.4626  -11.6491 C   0  0  0  0  0  0  0  0  0  0  0  0
   -8.5767    3.0543  -11.0457 C   0  0  0  0  0  0  0  0  0  0  0  0
   -8.6811    3.1536   -9.5612 C   0  0  0  0  0  0  0  0  0  0  0  0
   -8.3353    4.2311   -8.8461 C   0  0  0  0  0  0  0  0  0  0  0  0
   -8.6563    3.9951   -7.4146 C   0  0  0  0  0  0  0  0  0  0  0  0
   -9.2452    2.6459   -7.3285 N   0  0  0  0  0  0  0  0  0  0  0  0
   -9.2144    2.0759   -8.6954 C   0  0  0  0  0  0  0  0  0  0  0  0
   -7.7305    5.4869   -9.4201 C   0  0  0  0  0  0  0  0  0  0  0  0
   -7.3345    5.2514  -10.9092 C   0  0  0  0  0  0  0  0  0  0  0  0
   -8.6670    6.6128   -9.3117 N   0  0  0  0  0  0  0  0  0  0  0  0
   -7.8327    7.7742   -9.3078 N   0  0  0  0  0  0  0  0  0  0  0  0
   -6.6094    7.4048   -8.7006 N   0  0  0  0  0  0  0  0  0  0  0  0
   -6.5458    5.9576   -8.6854 N   0  0  0  0  0  0  0  0  0  0  0  0
  -10.2070    2.7035   -6.9939 H   0  0  0  0  0  0  0  0  0  0  0  0
   -9.2047    6.5523   -8.4471 H   0  0  0  0  0  0  0  0  0  0  0  0
   -8.2764    8.5219   -8.7745 H   0  0  0  0  0  0  0  0  0  0  0  0
   -6.5722    7.7644   -7.7468 H   0  0  0  0  0  0  0  0  0  0  0  0
   -6.5649    5.6128   -7.7257 H   0  0  0  0  0  0  0  0  0  0  0  0
   -5.6418    6.4716  -19.4601 N   0  0  0  0  0  0  0  0  0  0  0  0
   -5.6963    6.0615  -18.0953 N   0  0  0  0  0  0  0  0  0  0  0  0
   -4.8706    6.4522  -17.0732 C   0  0  0  0  0  0  0  0  0  0  0  0
   -5.2824    5.9334  -15.9248 N   0  0  0  0  0  0  0  0  0  0  0  0
   -6.3990    5.1838  -16.2158 C   0  0  0  0  0  0  0  0  0  0  0  0
   -7.2730    4.4628  -15.3809 C   0  0  0  0  0  0  0  0  0  0  0  0
   -8.4218    3.8794  -15.9482 C   0  0  0  0  0  0  0  0  0  0  0  0
   -8.6575    3.9678  -17.3185 C   0  0  0  0  0  0  0  0  0  0  0  0
  -10.0572    3.2537  -18.0063 Cl  0  0  0  0  0  0  0  0  0  0  0  0
   -7.7795    4.6298  -18.1703 C   0  0  0  0  0  0  0  0  0  0  0  0
   -6.6751    5.2509  -17.5803 C   0  0  0  0  0  0  0  0  0  0  0  0
   -4.8271    7.0684  -19.6035 H   0  0  0  0  0  0  0  0  0  0  0  0
   -6.4885    6.9903  -19.6934 H   0  0  0  0  0  0  0  0  0  0  0  0
   -3.7156    7.3487  -17.3214 C   0  0  0  0  0  0  0  0  0  0  0  0
   -4.1005    8.5599  -17.8103 F   0  0  0  0  0  0  0  0  0  0  0  0
   -2.9932    7.6058  -16.1987 F   0  0  0  0  0  0  0  0  0  0  0  0
   -2.8401    6.8227  -18.2224 F   0  0  0  0  0  0  0  0  0  0  0  0
 23 24  1  0  0  0
 24 25  1  0  0  0
 25 36  1  0  0  0
 36 37  1  0  0  0
 36 38  1  0  0  0
 36 39  1  0  0  0
 25 26  2  0  0  0
 26 27  1  0  0  0
 27 28  2  0  0  0
 28  1  1  0  0  0
  1  2  2  0  0  0
  1  3  1  0  0  0
  5  3  1  0  0  0
  5  6  1  0  0  0
  6  7  1  0  0  0
  7  8  2  0  0  0
  8  9  1  0  0  0
  9 10  1  0  0  0
 10 11  1  0  0  0
  8 12  1  0  0  0
 12 13  1  0  0  0
 12 14  1  0  0  0
 14 15  1  0  0  0
 15 16  1  0  0  0
 16 17  1  0  0  0
 28 29  1  0  0  0
 29 30  2  0  0  0
 30 31  1  0  0  0
 30 32  1  0  0  0
 32 33  2  0  0  0
 33 24  1  0  0  0
 33 27  1  0  0  0
 13  5  1  0  0  0
 11  7  1  0  0  0
 17 12  1  0  0  0
 23 34  1  0  0  0
 23 35  1  0  0  0
  3  4  1  0  0  0
 10 18  1  0  0  0
 14 19  1  0  0  0
 15 20  1  0  0  0
 16 21  1  0  0  0
 17 22  1  0  0  0
M  END
> <minimizedAffinity>
-8.49439

> <minimizedRMSD>
0.46385

$$$$
P18446


 34 37  0  0  0  0  0  0  0  0999 V2000
   -5.1370    4.9606  -17.5736 C   0  0  0  0  0  0  0  0  0  0  0  0
   -4.6430    5.2101  -16.3045 C   0  0  0  0  0  0  0  0  0  0  0  0
   -5.7368    5.2988  -15.4654 N   0  0  0  0  0  0  0  0  0  0  0  0
   -5.6999    5.7913  -14.0985 C   0  0  0  0  0  0  0  0  0  0  0  0
   -6.8534    4.7662  -16.0905 C   0  0  0  0  0  0  0  0  0  0  0  0
   -8.1476    4.4477  -15.6203 C   0  0  0  0  0  0  0  0  0  0  0  0
   -9.0444    3.8275  -16.4890 C   0  0  0  0  0  0  0  0  0  0  0  0
   -8.7044    3.6355  -17.8177 C   0  0  0  0  0  0  0  0  0  0  0  0
   -9.6078    3.0840  -18.6414 F   0  0  0  0  0  0  0  0  0  0  0  0
   -7.4594    4.0212  -18.3154 C   0  0  0  0  0  0  0  0  0  0  0  0
   -6.4967    4.5551  -17.4310 C   0  0  0  0  0  0  0  0  0  0  0  0
   -3.2616    5.3535  -15.7870 C   0  0  0  0  0  0  0  0  0  0  0  0
   -2.9663    6.6441  -15.4962 F   0  0  0  0  0  0  0  0  0  0  0  0
   -3.0749    4.6371  -14.6480 F   0  0  0  0  0  0  0  0  0  0  0  0
   -2.3274    4.9144  -16.6642 F   0  0  0  0  0  0  0  0  0  0  0  0
   -8.5986    4.8622  -14.2751 C   0  0  0  0  0  0  0  0  0  0  0  0
   -9.2479    5.8286  -14.1994 O   0  0  0  0  0  0  0  0  0  0  0  0
   -8.0211    3.9569  -13.1686 N   0  0  0  0  0  0  0  0  0  0  0  0
   -7.4349    3.2347  -13.4912 H   0  0  0  0  0  0  0  0  0  0  0  0
   -8.1940    3.9944  -11.7838 C   0  0  0  0  0  0  0  0  0  0  0  0
   -7.9476    5.1756  -11.0604 C   0  0  0  0  0  0  0  0  0  0  0  0
   -8.0725    5.2078   -9.6664 C   0  0  0  0  0  0  0  0  0  0  0  0
   -8.4764    4.0546   -9.0212 C   0  0  0  0  0  0  0  0  0  0  0  0
   -8.7367    2.8875   -9.7334 C   0  0  0  0  0  0  0  0  0  0  0  0
   -8.5817    2.8327  -11.1110 C   0  0  0  0  0  0  0  0  0  0  0  0
   -9.1670    1.8223   -8.7751 C   0  0  0  0  0  0  0  0  0  0  0  0
   -9.4830    2.5408   -7.5124 N   0  0  0  0  0  0  0  0  0  0  0  0
   -8.7043    3.7965   -7.5685 C   0  0  0  0  0  0  0  0  0  0  0  0
   -9.2033    1.9835   -6.7052 H   0  0  0  0  0  0  0  0  0  0  0  0
   -4.4389    4.9252  -18.7415 O   0  0  0  0  0  0  0  0  0  0  0  0
   -4.0417    6.2155  -19.2269 C   0  0  0  0  0  0  0  0  0  0  0  0
   -5.1376    6.8846  -20.0460 C   0  0  0  0  0  0  0  0  0  0  0  0
   -5.3359    8.5191  -18.3311 C   0  0  0  0  0  0  0  0  0  0  0  0
   -6.0126    7.6744  -19.2474 O   0  0  0  0  0  0  0  0  0  0  0  0
 33 34  1  0  0  0
 34 32  1  0  0  0
 32 31  1  0  0  0
 31 30  1  0  0  0
 30  1  1  0  0  0
  1  2  2  0  0  0
  2 12  1  0  0  0
 12 13  1  0  0  0
 12 14  1  0  0  0
 12 15  1  0  0  0
  2  3  1  0  0  0
  3  4  1  0  0  0
  3  5  1  0  0  0
  5  6  2  0  0  0
  6 16  1  0  0  0
 16 17  2  0  0  0
 16 18  1  0  0  0
 18 20  1  0  0  0
 20 21  2  0  0  0
 21 22  1  0  0  0
 22 23  2  0  0  0
 23 24  1  0  0  0
 24 25  2  0  0  0
 24 26  1  0  0  0
 26 27  1  0  0  0
 27 28  1  0  0  0
  6  7  1  0  0  0
  7  8  2  0  0  0
  8  9  1  0  0  0
  8 10  1  0  0  0
 10 11  2  0  0  0
 11  1  1  0  0  0
 11  5  1  0  0  0
 25 20  1  0  0  0
 28 23  1  0  0  0
 18 19  1  0  0  0
 27 29  1  0  0  0
M  END
> <minimizedAffinity>
-8.86358

> <minimizedRMSD>
0.84487

$$$$
P18452


 32 35  0  0  0  0  0  0  0  0999 V2000
   -5.3291    5.3667  -17.6782 N   0  0  0  0  0  0  0  0  0  0  0  0
   -4.3838    5.3357  -16.6756 C   0  0  0  0  0  0  0  0  0  0  0  0
   -4.9824    5.1787  -15.5033 N   0  0  0  0  0  0  0  0  0  0  0  0
   -6.2920    4.8667  -15.7802 C   0  0  0  0  0  0  0  0  0  0  0  0
   -7.3682    4.5078  -14.9535 C   0  0  0  0  0  0  0  0  0  0  0  0
   -8.5447    4.0032  -15.5385 C   0  0  0  0  0  0  0  0  0  0  0  0
   -8.7081    4.0456  -16.9186 C   0  0  0  0  0  0  0  0  0  0  0  0
  -10.1253    3.5051  -17.7192 Cl  0  0  0  0  0  0  0  0  0  0  0  0
   -7.7379    4.6093  -17.7287 C   0  0  0  0  0  0  0  0  0  0  0  0
   -6.5171    4.9353  -17.1460 C   0  0  0  0  0  0  0  0  0  0  0  0
   -2.9171    5.3631  -16.9588 C   0  0  0  0  0  0  0  0  0  0  0  0
   -2.1477    5.2554  -15.8483 F   0  0  0  0  0  0  0  0  0  0  0  0
   -2.5333    6.4961  -17.5996 F   0  0  0  0  0  0  0  0  0  0  0  0
   -2.5699    4.3353  -17.7828 F   0  0  0  0  0  0  0  0  0  0  0  0
   -7.3296    4.8869  -13.5285 C   0  0  0  0  0  0  0  0  0  0  0  0
   -6.8365    5.9113  -13.2637 O   0  0  0  0  0  0  0  0  0  0  0  0
   -8.0615    3.8681  -12.6314 N   0  0  0  0  0  0  0  0  0  0  0  0
   -8.4591    3.1066  -13.1122 H   0  0  0  0  0  0  0  0  0  0  0  0
   -8.2515    3.8498  -11.2523 C   0  0  0  0  0  0  0  0  0  0  0  0
   -8.0112    5.0019  -10.4814 C   0  0  0  0  0  0  0  0  0  0  0  0
   -8.2403    5.0060   -9.1027 C   0  0  0  0  0  0  0  0  0  0  0  0
   -8.7205    3.8483   -8.5237 C   0  0  0  0  0  0  0  0  0  0  0  0
   -8.9430    2.7019   -9.2833 C   0  0  0  0  0  0  0  0  0  0  0  0
   -8.7118    2.6809  -10.6478 C   0  0  0  0  0  0  0  0  0  0  0  0
   -9.4171    1.6106   -8.3829 C   0  0  0  0  0  0  0  0  0  0  0  0
   -9.8586    2.3051   -7.1442 N   0  0  0  0  0  0  0  0  0  0  0  0
   -9.0781    3.5628   -7.1040 C   0  0  0  0  0  0  0  0  0  0  0  0
   -9.6584    1.7337   -6.3233 H   0  0  0  0  0  0  0  0  0  0  0  0
   -5.1163    5.6605  -19.0853 C   0  0  0  0  0  0  0  0  0  0  0  0
   -6.3344    3.9168  -20.2531 C   0  0  0  0  0  0  0  0  0  0  0  0
   -5.0402    4.3935  -19.7983 N   0  0  0  0  0  0  0  0  0  0  0  0
   -4.4349    4.5140  -20.6105 H   0  0  0  0  0  0  0  0  0  0  0  0
 30 31  1  0  0  0
 31 29  1  0  0  0
 29  1  1  0  0  0
  1  2  1  0  0  0
  2 11  1  0  0  0
 11 12  1  0  0  0
 11 13  1  0  0  0
 11 14  1  0  0  0
  2  3  2  0  0  0
  3  4  1  0  0  0
  4  5  2  0  0  0
  5 15  1  0  0  0
 15 16  2  0  0  0
 15 17  1  0  0  0
 17 19  1  0  0  0
 19 20  2  0  0  0
 20 21  1  0  0  0
 21 22  2  0  0  0
 22 23  1  0  0  0
 23 24  2  0  0  0
 23 25  1  0  0  0
 25 26  1  0  0  0
 26 27  1  0  0  0
  5  6  1  0  0  0
  6  7  2  0  0  0
  7  8  1  0  0  0
  7  9  1  0  0  0
  9 10  2  0  0  0
 10  1  1  0  0  0
 10  4  1  0  0  0
 24 19  1  0  0  0
 27 22  1  0  0  0
 31 32  1  0  0  0
 17 18  1  0  0  0
 26 28  1  0  0  0
M  END
> <minimizedAffinity>
-7.94645

> <minimizedRMSD>
0.34534

$$$$
P18456


 33 36  0  0  0  0  0  0  0  0999 V2000
   -5.1585    5.2498  -17.6636 N   0  0  0  0  0  0  0  0  0  0  0  0
   -4.3339    5.3877  -16.5652 C   0  0  0  0  0  0  0  0  0  0  0  0
   -5.0446    5.4145  -15.4497 N   0  0  0  0  0  0  0  0  0  0  0  0
   -6.3271    5.0948  -15.8060 C   0  0  0  0  0  0  0  0  0  0  0  0
   -7.4784    4.9097  -15.0200 C   0  0  0  0  0  0  0  0  0  0  0  0
   -8.6654    4.4930  -15.6288 C   0  0  0  0  0  0  0  0  0  0  0  0
   -8.7074    4.3197  -17.0069 C   0  0  0  0  0  0  0  0  0  0  0  0
  -10.2152    4.0424  -17.7567 Cl  0  0  0  0  0  0  0  0  0  0  0  0
   -7.5898    4.5144  -17.8199 C   0  0  0  0  0  0  0  0  0  0  0  0
   -6.4105    4.9186  -17.1898 C   0  0  0  0  0  0  0  0  0  0  0  0
   -2.8554    5.4715  -16.6953 C   0  0  0  0  0  0  0  0  0  0  0  0
   -2.2040    5.2147  -15.5327 F   0  0  0  0  0  0  0  0  0  0  0  0
   -2.4553    6.7081  -17.0990 F   0  0  0  0  0  0  0  0  0  0  0  0
   -2.3737    4.5885  -17.6103 F   0  0  0  0  0  0  0  0  0  0  0  0
   -7.5128    5.3262  -13.6028 C   0  0  0  0  0  0  0  0  0  0  0  0
   -7.4272    6.4657  -13.3596 O   0  0  0  0  0  0  0  0  0  0  0  0
   -7.7662    4.1170  -12.6690 N   0  0  0  0  0  0  0  0  0  0  0  0
   -7.7185    3.2383  -13.1104 H   0  0  0  0  0  0  0  0  0  0  0  0
   -8.0512    4.0702  -11.3030 C   0  0  0  0  0  0  0  0  0  0  0  0
   -7.8424    5.1835  -10.4750 C   0  0  0  0  0  0  0  0  0  0  0  0
   -8.1513    5.1136   -9.1170 C   0  0  0  0  0  0  0  0  0  0  0  0
   -7.9533    6.1767   -8.3265 F   0  0  0  0  0  0  0  0  0  0  0  0
   -8.6678    3.9480   -8.5985 C   0  0  0  0  0  0  0  0  0  0  0  0
   -8.8702    2.8417   -9.4141 C   0  0  0  0  0  0  0  0  0  0  0  0
   -8.5663    2.8827  -10.7663 C   0  0  0  0  0  0  0  0  0  0  0  0
   -9.3961    1.7193   -8.5816 C   0  0  0  0  0  0  0  0  0  0  0  0
   -9.8333    2.3521   -7.3086 N   0  0  0  0  0  0  0  0  0  0  0  0
   -9.0641    3.6141   -7.2052 C   0  0  0  0  0  0  0  0  0  0  0  0
   -9.6246    1.7423   -6.5180 H   0  0  0  0  0  0  0  0  0  0  0  0
   -4.7381    5.2912  -19.0644 C   0  0  0  0  0  0  0  0  0  0  0  0
   -5.6400    7.4994  -19.4738 C   0  0  0  0  0  0  0  0  0  0  0  0
   -4.4600    6.6666  -19.4842 N   0  0  0  0  0  0  0  0  0  0  0  0
   -3.7705    7.0690  -18.8494 H   0  0  0  0  0  0  0  0  0  0  0  0
 31 32  1  0  0  0
 32 30  1  0  0  0
 30  1  1  0  0  0
  1  2  1  0  0  0
  2 11  1  0  0  0
 11 12  1  0  0  0
 11 13  1  0  0  0
 11 14  1  0  0  0
  2  3  2  0  0  0
  3  4  1  0  0  0
  4  5  2  0  0  0
  5 15  1  0  0  0
 15 16  2  0  0  0
 15 17  1  0  0  0
 17 19  1  0  0  0
 19 20  2  0  0  0
 20 21  1  0  0  0
 21 22  1  0  0  0
 21 23  2  0  0  0
 23 24  1  0  0  0
 24 25  2  0  0  0
 24 26  1  0  0  0
 26 27  1  0  0  0
 27 28  1  0  0  0
  5  6  1  0  0  0
  6  7  2  0  0  0
  7  8  1  0  0  0
  7  9  1  0  0  0
  9 10  2  0  0  0
 10  1  1  0  0  0
 10  4  1  0  0  0
 25 19  1  0  0  0
 28 23  1  0  0  0
 32 33  1  0  0  0
 17 18  1  0  0  0
 27 29  1  0  0  0
M  END
> <minimizedAffinity>
-8.44958

> <minimizedRMSD>
0.39451

$$$$
P18457


 37 41  0  0  0  0  0  0  0  0999 V2000
   -8.5602    5.0823  -13.5841 C   0  0  0  0  0  0  0  0  0  0  0  0
   -9.4920    5.7860  -13.5894 O   0  0  0  0  0  0  0  0  0  0  0  0
   -7.8411    4.3811  -12.4094 N   0  0  0  0  0  0  0  0  0  0  0  0
   -7.0221    3.8950  -12.6587 H   0  0  0  0  0  0  0  0  0  0  0  0
   -8.1635    4.3250  -11.0544 C   0  0  0  0  0  0  0  0  0  0  0  0
   -8.0913    5.4829  -10.2665 C   0  0  0  0  0  0  0  0  0  0  0  0
   -8.3556    5.4227   -8.9014 C   0  0  0  0  0  0  0  0  0  0  0  0
   -8.2543    6.5315   -8.1567 F   0  0  0  0  0  0  0  0  0  0  0  0
   -8.7107    4.2230   -8.3228 C   0  0  0  0  0  0  0  0  0  0  0  0
   -8.8092    3.0795   -9.1127 C   0  0  0  0  0  0  0  0  0  0  0  0
   -8.5305    3.1058  -10.4764 C   0  0  0  0  0  0  0  0  0  0  0  0
   -9.2240    1.9260   -8.2650 C   0  0  0  0  0  0  0  0  0  0  0  0
   -9.2628    2.4349   -6.8732 N   0  0  0  0  0  0  0  0  0  0  0  0
   -8.9417    3.8823   -6.8872 C   0  0  0  0  0  0  0  0  0  0  0  0
   -7.7021    4.2043   -6.0327 C   0  0  0  0  0  0  0  0  0  0  0  0
   -8.1696    4.0570   -4.5925 C   0  0  0  0  0  0  0  0  0  0  0  0
   -9.6338    4.4855   -4.6155 C   0  0  0  0  0  0  0  0  0  0  0  0
  -10.0009    4.6675   -6.0935 C   0  0  0  0  0  0  0  0  0  0  0  0
   -8.5768    1.9365   -6.3063 H   0  0  0  0  0  0  0  0  0  0  0  0
   -4.8838    5.9321  -16.2976 N   0  0  0  0  0  0  0  0  0  0  0  0
   -4.7845    6.4410  -15.0136 C   0  0  0  0  0  0  0  0  0  0  0  0
   -5.7836    5.9999  -14.2747 N   0  0  0  0  0  0  0  0  0  0  0  0
   -6.6315    5.3446  -15.1220 C   0  0  0  0  0  0  0  0  0  0  0  0
   -7.9029    4.8060  -14.8746 C   0  0  0  0  0  0  0  0  0  0  0  0
   -8.6207    4.2433  -15.9267 C   0  0  0  0  0  0  0  0  0  0  0  0
   -8.0923    4.2849  -17.2143 C   0  0  0  0  0  0  0  0  0  0  0  0
   -9.1177    3.9122  -18.5270 Cl  0  0  0  0  0  0  0  0  0  0  0  0
   -6.8111    4.7717  -17.4922 C   0  0  0  0  0  0  0  0  0  0  0  0
   -6.1029    5.3031  -16.4108 C   0  0  0  0  0  0  0  0  0  0  0  0
   -3.6891    7.3529  -14.5607 C   0  0  0  0  0  0  0  0  0  0  0  0
   -2.4743    6.7449  -14.6142 F   0  0  0  0  0  0  0  0  0  0  0  0
   -3.6050    8.4687  -15.3359 F   0  0  0  0  0  0  0  0  0  0  0  0
   -3.8499    7.7902  -13.2860 F   0  0  0  0  0  0  0  0  0  0  0  0
   -3.9053    6.1147  -17.3600 C   0  0  0  0  0  0  0  0  0  0  0  0
   -2.5331    4.5780  -18.6202 C   0  0  0  0  0  0  0  0  0  0  0  0
   -2.9975    4.9749  -17.3065 N   0  0  0  0  0  0  0  0  0  0  0  0
   -2.1903    5.2253  -16.7353 H   0  0  0  0  0  0  0  0  0  0  0  0
 35 36  1  0  0  0
 36 34  1  0  0  0
 34 20  1  0  0  0
 20 21  1  0  0  0
 21 30  1  0  0  0
 30 31  1  0  0  0
 30 32  1  0  0  0
 30 33  1  0  0  0
 21 22  2  0  0  0
 22 23  1  0  0  0
 23 24  2  0  0  0
 24  1  1  0  0  0
  1  2  2  0  0  0
  1  3  1  0  0  0
  3  5  1  0  0  0
  5  6  2  0  0  0
  6  7  1  0  0  0
  7  8  1  0  0  0
  7  9  2  0  0  0
  9 10  1  0  0  0
 10 11  2  0  0  0
 10 12  1  0  0  0
 12 13  1  0  0  0
 13 14  1  0  0  0
 14 15  1  0  0  0
 15 16  1  0  0  0
 16 17  1  0  0  0
 17 18  1  0  0  0
 24 25  1  0  0  0
 25 26  2  0  0  0
 26 27  1  0  0  0
 26 28  1  0  0  0
 28 29  2  0  0  0
 29 20  1  0  0  0
 29 23  1  0  0  0
 11  5  1  0  0  0
 18 14  1  0  0  0
 14  9  1  0  0  0
 36 37  1  0  0  0
  3  4  1  0  0  0
 13 19  1  0  0  0
M  END
> <minimizedAffinity>
-8.64754

> <minimizedRMSD>
1.07449

$$$$
P18458


 34 37  0  0  0  0  0  0  0  0999 V2000
   -5.3939    5.4292  -17.8163 N   0  0  0  0  0  0  0  0  0  0  0  0
   -4.4249    5.4213  -16.8548 C   0  0  0  0  0  0  0  0  0  0  0  0
   -5.0076    5.3506  -15.6560 N   0  0  0  0  0  0  0  0  0  0  0  0
   -6.3411    5.0454  -15.8868 C   0  0  0  0  0  0  0  0  0  0  0  0
   -7.4578    4.8331  -15.0450 C   0  0  0  0  0  0  0  0  0  0  0  0
   -8.6774    4.4059  -15.6193 C   0  0  0  0  0  0  0  0  0  0  0  0
   -8.7808    4.2189  -16.9930 C   0  0  0  0  0  0  0  0  0  0  0  0
  -10.2815    3.8797  -17.7304 Cl  0  0  0  0  0  0  0  0  0  0  0  0
   -7.7158    4.4657  -17.8425 C   0  0  0  0  0  0  0  0  0  0  0  0
   -6.5386    4.9209  -17.2597 C   0  0  0  0  0  0  0  0  0  0  0  0
   -2.9800    5.4745  -17.2556 C   0  0  0  0  0  0  0  0  0  0  0  0
   -2.1633    5.3225  -16.1878 F   0  0  0  0  0  0  0  0  0  0  0  0
   -2.6204    4.4635  -18.1018 F   0  0  0  0  0  0  0  0  0  0  0  0
   -2.6299    6.6483  -17.8417 F   0  0  0  0  0  0  0  0  0  0  0  0
   -7.4809    5.2783  -13.6272 C   0  0  0  0  0  0  0  0  0  0  0  0
   -7.3879    6.4211  -13.4018 O   0  0  0  0  0  0  0  0  0  0  0  0
   -7.7352    4.0824  -12.6714 N   0  0  0  0  0  0  0  0  0  0  0  0
   -7.6946    3.1968  -13.0995 H   0  0  0  0  0  0  0  0  0  0  0  0
   -8.0124    4.0583  -11.3027 C   0  0  0  0  0  0  0  0  0  0  0  0
   -7.8353    5.1920  -10.4937 C   0  0  0  0  0  0  0  0  0  0  0  0
   -8.1764    5.1604   -9.1312 C   0  0  0  0  0  0  0  0  0  0  0  0
   -8.6992    3.9889   -8.6066 C   0  0  0  0  0  0  0  0  0  0  0  0
   -8.8549    2.8602   -9.4034 C   0  0  0  0  0  0  0  0  0  0  0  0
   -8.5232    2.8783  -10.7493 C   0  0  0  0  0  0  0  0  0  0  0  0
   -9.3565    1.7329   -8.5615 C   0  0  0  0  0  0  0  0  0  0  0  0
   -9.8457    2.3702   -7.3137 N   0  0  0  0  0  0  0  0  0  0  0  0
   -9.1346    3.6624   -7.2148 C   0  0  0  0  0  0  0  0  0  0  0  0
   -9.6302    1.7837   -6.5075 H   0  0  0  0  0  0  0  0  0  0  0  0
   -7.9730    6.3056   -8.2979 C   0  0  0  0  0  0  0  0  0  0  0  0
   -7.8144    7.2124   -7.5905 N   0  0  0  0  0  0  0  0  0  0  0  0
   -5.2918    5.9082  -19.1863 C   0  0  0  0  0  0  0  0  0  0  0  0
   -5.3112    8.0717  -20.2179 C   0  0  0  0  0  0  0  0  0  0  0  0
   -6.0205    7.1694  -19.3230 N   0  0  0  0  0  0  0  0  0  0  0  0
   -6.9488    6.9817  -19.7017 H   0  0  0  0  0  0  0  0  0  0  0  0
 32 33  1  0  0  0
 33 31  1  0  0  0
 31  1  1  0  0  0
  1  2  1  0  0  0
  2 11  1  0  0  0
 11 12  1  0  0  0
 11 13  1  0  0  0
 11 14  1  0  0  0
  2  3  2  0  0  0
  3  4  1  0  0  0
  4  5  2  0  0  0
  5 15  1  0  0  0
 15 16  2  0  0  0
 15 17  1  0  0  0
 17 19  1  0  0  0
 19 20  2  0  0  0
 20 21  1  0  0  0
 21 29  1  0  0  0
 29 30  3  0  0  0
 21 22  2  0  0  0
 22 23  1  0  0  0
 23 24  2  0  0  0
 23 25  1  0  0  0
 25 26  1  0  0  0
 26 27  1  0  0  0
  5  6  1  0  0  0
  6  7  2  0  0  0
  7  8  1  0  0  0
  7  9  1  0  0  0
  9 10  2  0  0  0
 10  1  1  0  0  0
 10  4  1  0  0  0
 24 19  1  0  0  0
 27 22  1  0  0  0
 33 34  1  0  0  0
 17 18  1  0  0  0
 26 28  1  0  0  0
M  END
> <minimizedAffinity>
-8.51015

> <minimizedRMSD>
0.65761

$$$$
P18460


 35 38  0  0  0  0  0  0  0  0999 V2000
   -5.3530    5.3711  -17.7221 N   0  0  0  0  0  0  0  0  0  0  0  0
   -4.4815    5.3821  -16.6550 C   0  0  0  0  0  0  0  0  0  0  0  0
   -5.1576    5.2964  -15.5236 N   0  0  0  0  0  0  0  0  0  0  0  0
   -6.4528    5.0199  -15.8740 C   0  0  0  0  0  0  0  0  0  0  0  0
   -7.5982    4.8068  -15.0998 C   0  0  0  0  0  0  0  0  0  0  0  0
   -8.7773    4.3148  -15.6772 C   0  0  0  0  0  0  0  0  0  0  0  0
   -8.8517    4.2066  -17.0523 C   0  0  0  0  0  0  0  0  0  0  0  0
  -10.2887    3.7513  -17.8557 Cl  0  0  0  0  0  0  0  0  0  0  0  0
   -7.7995    4.6276  -17.8542 C   0  0  0  0  0  0  0  0  0  0  0  0
   -6.5892    4.9839  -17.2500 C   0  0  0  0  0  0  0  0  0  0  0  0
   -3.0063    5.4703  -16.8260 C   0  0  0  0  0  0  0  0  0  0  0  0
   -2.6293    6.6697  -17.3457 F   0  0  0  0  0  0  0  0  0  0  0  0
   -2.5483    4.5230  -17.6944 F   0  0  0  0  0  0  0  0  0  0  0  0
   -2.3088    5.3019  -15.6755 F   0  0  0  0  0  0  0  0  0  0  0  0
   -7.6104    5.3472  -13.7434 C   0  0  0  0  0  0  0  0  0  0  0  0
   -7.4256    6.4891  -13.6048 O   0  0  0  0  0  0  0  0  0  0  0  0
   -7.9739    4.2669  -12.7179 N   0  0  0  0  0  0  0  0  0  0  0  0
   -8.1531    3.3782  -13.1017 H   0  0  0  0  0  0  0  0  0  0  0  0
   -8.0907    4.3370  -11.3450 C   0  0  0  0  0  0  0  0  0  0  0  0
   -7.6618    5.4913  -10.6680 C   0  0  0  0  0  0  0  0  0  0  0  0
   -7.7519    5.5726   -9.2863 C   0  0  0  0  0  0  0  0  0  0  0  0
   -8.2882    4.4906   -8.6215 C   0  0  0  0  0  0  0  0  0  0  0  0
   -8.7305    3.3569   -9.2939 C   0  0  0  0  0  0  0  0  0  0  0  0
   -8.6333    3.2537  -10.6637 C   0  0  0  0  0  0  0  0  0  0  0  0
   -9.2490    2.3611   -8.3152 C   0  0  0  0  0  0  0  0  0  0  0  0
   -9.2227    3.0446   -6.9917 N   0  0  0  0  0  0  0  0  0  0  0  0
   -8.4864    4.3134   -7.1609 C   0  0  0  0  0  0  0  0  0  0  0  0
  -10.5833    3.2245   -6.4840 C   0  0  0  0  0  0  0  0  0  0  0  0
  -10.8696    2.6324   -5.1146 C   0  0  0  0  0  0  0  0  0  0  0  0
  -12.1882    2.3099   -5.0326 F   0  0  0  0  0  0  0  0  0  0  0  0
  -10.6604    3.5515   -4.1311 F   0  0  0  0  0  0  0  0  0  0  0  0
   -5.0072    5.6673  -19.1055 C   0  0  0  0  0  0  0  0  0  0  0  0
   -5.0428    7.4032  -20.7025 C   0  0  0  0  0  0  0  0  0  0  0  0
   -5.6956    6.8839  -19.5120 N   0  0  0  0  0  0  0  0  0  0  0  0
   -6.6724    6.6747  -19.7180 H   0  0  0  0  0  0  0  0  0  0  0  0
 33 34  1  0  0  0
 34 32  1  0  0  0
 32  1  1  0  0  0
  1  2  1  0  0  0
  2 11  1  0  0  0
 11 12  1  0  0  0
 11 13  1  0  0  0
 11 14  1  0  0  0
  2  3  2  0  0  0
  3  4  1  0  0  0
  4  5  2  0  0  0
  5 15  1  0  0  0
 15 16  2  0  0  0
 15 17  1  0  0  0
 17 19  1  0  0  0
 19 20  2  0  0  0
 20 21  1  0  0  0
 21 22  2  0  0  0
 22 23  1  0  0  0
 23 24  2  0  0  0
 23 25  1  0  0  0
 25 26  1  0  0  0
 26 28  1  0  0  0
 28 29  1  0  0  0
 29 30  1  0  0  0
 29 31  1  0  0  0
 26 27  1  0  0  0
  5  6  1  0  0  0
  6  7  2  0  0  0
  7  8  1  0  0  0
  7  9  1  0  0  0
  9 10  2  0  0  0
 10  1  1  0  0  0
 10  4  1  0  0  0
 24 19  1  0  0  0
 27 22  1  0  0  0
 34 35  1  0  0  0
 17 18  1  0  0  0
M  END
> <minimizedAffinity>
-8.79621

> <minimizedRMSD>
0.89395

$$$$
P18462


 32 36  0  0  0  0  0  0  0  0999 V2000
   -7.6070    4.7305  -15.2332 C   0  0  0  0  0  0  0  0  0  0  0  0
   -8.8073    4.1875  -15.7183 C   0  0  0  0  0  0  0  0  0  0  0  0
   -8.9921    3.9745  -17.0820 C   0  0  0  0  0  0  0  0  0  0  0  0
  -10.1820    3.5651  -17.5289 F   0  0  0  0  0  0  0  0  0  0  0  0
   -8.0038    4.2338  -18.0171 C   0  0  0  0  0  0  0  0  0  0  0  0
   -6.8235    4.7673  -17.5136 C   0  0  0  0  0  0  0  0  0  0  0  0
   -6.5801    5.0286  -16.1500 C   0  0  0  0  0  0  0  0  0  0  0  0
   -5.3129    5.5881  -15.9638 N   0  0  0  0  0  0  0  0  0  0  0  0
   -4.8647    5.7095  -17.1776 C   0  0  0  0  0  0  0  0  0  0  0  0
   -3.8300    6.1858  -17.8787 N   0  0  0  0  0  0  0  0  0  0  0  0
   -3.9721    5.9036  -19.2566 N   0  0  0  0  0  0  0  0  0  0  0  0
   -5.1438    5.3385  -19.3515 C   0  0  0  0  0  0  0  0  0  0  0  0
   -5.6955    5.2126  -18.1067 N   0  0  0  0  0  0  0  0  0  0  0  0
   -7.1245    6.2334  -13.5844 O   0  0  0  0  0  0  0  0  0  0  0  0
   -7.5007    5.1519  -13.8155 C   0  0  0  0  0  0  0  0  0  0  0  0
   -7.9839    4.0316  -12.8608 N   0  0  0  0  0  0  0  0  0  0  0  0
   -8.1796    3.1722  -13.2995 H   0  0  0  0  0  0  0  0  0  0  0  0
   -8.1867    4.0425  -11.4815 C   0  0  0  0  0  0  0  0  0  0  0  0
   -7.9766    5.2017  -10.7191 C   0  0  0  0  0  0  0  0  0  0  0  0
   -8.1899    5.1978   -9.3357 C   0  0  0  0  0  0  0  0  0  0  0  0
   -8.6118    4.0237   -8.7382 C   0  0  0  0  0  0  0  0  0  0  0  0
   -8.8282    2.8783   -9.4902 C   0  0  0  0  0  0  0  0  0  0  0  0
   -8.6195    2.8667  -10.8609 C   0  0  0  0  0  0  0  0  0  0  0  0
   -9.3006    1.7783   -8.6039 C   0  0  0  0  0  0  0  0  0  0  0  0
   -9.2988    2.3211   -7.2179 N   0  0  0  0  0  0  0  0  0  0  0  0
   -8.9154    3.7467   -7.3076 C   0  0  0  0  0  0  0  0  0  0  0  0
   -8.6251    1.8133   -6.6445 H   0  0  0  0  0  0  0  0  0  0  0  0
   -2.5490    6.4695  -17.2622 C   0  0  0  0  0  0  0  0  0  0  0  0
   -1.8996    7.3839  -18.0447 F   0  0  0  0  0  0  0  0  0  0  0  0
   -1.5611    5.4259  -16.9843 N   0  0  0  0  0  0  0  0  0  0  0  0
   -1.2020    4.7530  -18.1352 F   0  0  0  0  0  0  0  0  0  0  0  0
   -1.9588    4.7606  -16.3212 H   0  0  0  0  0  0  0  0  0  0  0  0
 14 15  2  0  0  0
 15 16  1  0  0  0
 16 18  1  0  0  0
 18 19  2  0  0  0
 19 20  1  0  0  0
 20 21  2  0  0  0
 21 22  1  0  0  0
 22 23  2  0  0  0
 22 24  1  0  0  0
 24 25  1  0  0  0
 25 26  1  0  0  0
 15  1  1  0  0  0
  1  2  2  0  0  0
  2  3  1  0  0  0
  3  4  1  0  0  0
  3  5  2  0  0  0
  5  6  1  0  0  0
  6  7  2  0  0  0
  7  8  1  0  0  0
  8  9  2  0  0  0
  9 10  1  0  0  0
 10 28  1  0  0  0
 28 29  1  0  0  0
 28 30  1  0  0  0
 30 31  1  0  0  0
 10 11  1  0  0  0
 11 12  2  0  0  0
 12 13  1  0  0  0
 23 18  1  0  0  0
  7  1  1  0  0  0
 13  9  1  0  0  0
 26 21  1  0  0  0
 13  6  1  0  0  0
 16 17  1  0  0  0
 25 27  1  0  0  0
 30 32  1  0  0  0
M  END
> <minimizedAffinity>
-8.81494

> <minimizedRMSD>
0.35811

$$$$
P18463


 29 32  0  0  0  0  0  0  0  0999 V2000
   -7.4645    4.6714  -15.3759 C   0  0  0  0  0  0  0  0  0  0  0  0
   -8.7353    4.3402  -15.8487 C   0  0  0  0  0  0  0  0  0  0  0  0
   -8.9856    4.2926  -17.2210 C   0  0  0  0  0  0  0  0  0  0  0  0
  -10.5953    4.0840  -17.7566 Cl  0  0  0  0  0  0  0  0  0  0  0  0
   -7.9888    4.5242  -18.1683 C   0  0  0  0  0  0  0  0  0  0  0  0
   -6.7106    4.8340  -17.7003 C   0  0  0  0  0  0  0  0  0  0  0  0
   -5.5648    5.0972  -18.3994 N   0  0  0  0  0  0  0  0  0  0  0  0
   -4.6132    5.2466  -17.4941 C   0  0  0  0  0  0  0  0  0  0  0  0
   -5.1507    5.2362  -16.2304 N   0  0  0  0  0  0  0  0  0  0  0  0
   -6.4783    4.9097  -16.3345 C   0  0  0  0  0  0  0  0  0  0  0  0
   -4.6670    5.4296  -15.3951 H   0  0  0  0  0  0  0  0  0  0  0  0
   -6.3052    5.6466  -13.6898 O   0  0  0  0  0  0  0  0  0  0  0  0
   -7.1901    4.9269  -13.9442 C   0  0  0  0  0  0  0  0  0  0  0  0
   -8.2130    4.2299  -13.0180 N   0  0  0  0  0  0  0  0  0  0  0  0
   -8.9175    3.7268  -13.4867 H   0  0  0  0  0  0  0  0  0  0  0  0
   -8.3000    4.1979  -11.6287 C   0  0  0  0  0  0  0  0  0  0  0  0
   -8.0317    5.3498  -10.8715 C   0  0  0  0  0  0  0  0  0  0  0  0
   -8.1644    5.3402   -9.4805 C   0  0  0  0  0  0  0  0  0  0  0  0
   -8.5421    4.1602   -8.8691 C   0  0  0  0  0  0  0  0  0  0  0  0
   -8.7909    3.0147   -9.6141 C   0  0  0  0  0  0  0  0  0  0  0  0
   -8.6893    3.0154  -10.9966 C   0  0  0  0  0  0  0  0  0  0  0  0
   -9.1874    1.9070   -8.7012 C   0  0  0  0  0  0  0  0  0  0  0  0
   -9.0292    2.4258   -7.3158 N   0  0  0  0  0  0  0  0  0  0  0  0
   -8.7813    3.8789   -7.4273 C   0  0  0  0  0  0  0  0  0  0  0  0
   -8.2401    1.9693   -6.8583 H   0  0  0  0  0  0  0  0  0  0  0  0
   -3.1459    5.3537  -17.7024 C   0  0  0  0  0  0  0  0  0  0  0  0
   -2.7812    6.5462  -18.2250 F   0  0  0  0  0  0  0  0  0  0  0  0
   -2.4676    5.2210  -16.5276 F   0  0  0  0  0  0  0  0  0  0  0  0
   -2.6616    4.4034  -18.5364 F   0  0  0  0  0  0  0  0  0  0  0  0
 12 13  2  0  0  0
 13 14  1  0  0  0
 14 16  1  0  0  0
 16 17  2  0  0  0
 17 18  1  0  0  0
 18 19  2  0  0  0
 19 20  1  0  0  0
 20 21  2  0  0  0
 20 22  1  0  0  0
 22 23  1  0  0  0
 23 24  1  0  0  0
 13  1  1  0  0  0
  1  2  2  0  0  0
  2  3  1  0  0  0
  3  4  1  0  0  0
  3  5  2  0  0  0
  5  6  1  0  0  0
  6  7  1  0  0  0
  7  8  2  0  0  0
  8 26  1  0  0  0
 26 27  1  0  0  0
 26 28  1  0  0  0
 26 29  1  0  0  0
  8  9  1  0  0  0
  9 10  1  0  0  0
 21 16  1  0  0  0
 10  1  1  0  0  0
 24 19  1  0  0  0
 10  6  2  0  0  0
 14 15  1  0  0  0
 23 25  1  0  0  0
  9 11  1  0  0  0
M  END
> <minimizedAffinity>
-8.74197

> <minimizedRMSD>
0.37896

$$$$
P18465


 32 35  0  0  0  0  0  0  0  0999 V2000
   -5.4778    5.2506  -17.3712 N   0  0  0  0  0  0  0  0  0  0  0  0
   -4.9399    5.3053  -16.0987 C   0  0  0  0  0  0  0  0  0  0  0  0
   -5.8989    5.1352  -15.2014 N   0  0  0  0  0  0  0  0  0  0  0  0
   -7.0405    4.8354  -15.9025 C   0  0  0  0  0  0  0  0  0  0  0  0
   -8.3607    4.6274  -15.4657 C   0  0  0  0  0  0  0  0  0  0  0  0
   -9.3381    4.2272  -16.3849 C   0  0  0  0  0  0  0  0  0  0  0  0
   -9.0096    4.1046  -17.7299 C   0  0  0  0  0  0  0  0  0  0  0  0
   -9.9687    3.7923  -18.6103 F   0  0  0  0  0  0  0  0  0  0  0  0
   -7.7302    4.3860  -18.2097 C   0  0  0  0  0  0  0  0  0  0  0  0
   -6.7661    4.7654  -17.2676 C   0  0  0  0  0  0  0  0  0  0  0  0
   -3.4927    5.5932  -15.8463 C   0  0  0  0  0  0  0  0  0  0  0  0
   -3.1848    6.9056  -16.0393 F   0  0  0  0  0  0  0  0  0  0  0  0
   -2.6748    4.8632  -16.6496 F   0  0  0  0  0  0  0  0  0  0  0  0
   -3.1216    5.3065  -14.5692 F   0  0  0  0  0  0  0  0  0  0  0  0
   -8.7476    5.0543  -14.1063 C   0  0  0  0  0  0  0  0  0  0  0  0
   -9.5575    5.8896  -14.0061 O   0  0  0  0  0  0  0  0  0  0  0  0
   -8.0150    4.2346  -13.0216 N   0  0  0  0  0  0  0  0  0  0  0  0
   -7.3118    3.6358  -13.3623 H   0  0  0  0  0  0  0  0  0  0  0  0
   -8.1874    4.2046  -11.6385 C   0  0  0  0  0  0  0  0  0  0  0  0
   -7.9696    5.3497  -10.8534 C   0  0  0  0  0  0  0  0  0  0  0  0
   -8.1384    5.3124   -9.4647 C   0  0  0  0  0  0  0  0  0  0  0  0
   -8.5405    4.1225   -8.8889 C   0  0  0  0  0  0  0  0  0  0  0  0
   -8.7559    2.9872   -9.6643 C   0  0  0  0  0  0  0  0  0  0  0  0
   -8.5753    3.0056  -11.0370 C   0  0  0  0  0  0  0  0  0  0  0  0
   -9.1557    1.8579   -8.7740 C   0  0  0  0  0  0  0  0  0  0  0  0
   -9.5266    2.4971   -7.4829 N   0  0  0  0  0  0  0  0  0  0  0  0
   -8.7973    3.7848   -7.4588 C   0  0  0  0  0  0  0  0  0  0  0  0
   -9.2409    1.9103   -6.6990 H   0  0  0  0  0  0  0  0  0  0  0  0
   -4.9694    6.0173  -18.5018 C   0  0  0  0  0  0  0  0  0  0  0  0
   -3.0598    5.5976  -19.8440 C   0  0  0  0  0  0  0  0  0  0  0  0
   -4.3814    5.1017  -19.4685 N   0  0  0  0  0  0  0  0  0  0  0  0
   -4.2942    4.1743  -19.0531 H   0  0  0  0  0  0  0  0  0  0  0  0
 30 31  1  0  0  0
 31 29  1  0  0  0
 29  1  1  0  0  0
  1  2  1  0  0  0
  2 11  1  0  0  0
 11 12  1  0  0  0
 11 13  1  0  0  0
 11 14  1  0  0  0
  2  3  2  0  0  0
  3  4  1  0  0  0
  4  5  2  0  0  0
  5 15  1  0  0  0
 15 16  2  0  0  0
 15 17  1  0  0  0
 17 19  1  0  0  0
 19 20  2  0  0  0
 20 21  1  0  0  0
 21 22  2  0  0  0
 22 23  1  0  0  0
 23 24  2  0  0  0
 23 25  1  0  0  0
 25 26  1  0  0  0
 26 27  1  0  0  0
  5  6  1  0  0  0
  6  7  2  0  0  0
  7  8  1  0  0  0
  7  9  1  0  0  0
  9 10  2  0  0  0
 10  1  1  0  0  0
 10  4  1  0  0  0
 24 19  1  0  0  0
 27 22  1  0  0  0
 31 32  1  0  0  0
 17 18  1  0  0  0
 26 28  1  0  0  0
M  END
> <minimizedAffinity>
-8.84922

> <minimizedRMSD>
0.93948

$$$$
P18466


 30 34  0  0  0  0  0  0  0  0999 V2000
   -7.7439    4.7746  -15.1758 C   0  0  0  0  0  0  0  0  0  0  0  0
   -8.9640    4.2978  -15.6801 C   0  0  0  0  0  0  0  0  0  0  0  0
   -9.1439    4.0687  -17.0438 C   0  0  0  0  0  0  0  0  0  0  0  0
   -8.1021    4.2565  -17.9436 C   0  0  0  0  0  0  0  0  0  0  0  0
   -6.8919    4.7143  -17.4154 C   0  0  0  0  0  0  0  0  0  0  0  0
   -6.6795    4.9857  -16.0633 C   0  0  0  0  0  0  0  0  0  0  0  0
   -5.4010    5.4646  -15.8588 N   0  0  0  0  0  0  0  0  0  0  0  0
   -4.8616    5.5294  -17.0623 C   0  0  0  0  0  0  0  0  0  0  0  0
   -5.7132    5.0523  -18.0092 N   0  0  0  0  0  0  0  0  0  0  0  0
   -5.4706    5.0157  -19.3895 N   0  0  0  0  0  0  0  0  0  0  0  0
   -4.1705    5.5609  -19.7241 C   0  0  0  0  0  0  0  0  0  0  0  0
   -3.7599    6.5971  -18.8506 O   0  0  0  0  0  0  0  0  0  0  0  0
   -3.5748    6.0665  -17.5383 C   0  0  0  0  0  0  0  0  0  0  0  0
   -2.5903    5.1323  -17.5935 F   0  0  0  0  0  0  0  0  0  0  0  0
   -3.1087    7.0861  -16.7736 F   0  0  0  0  0  0  0  0  0  0  0  0
   -6.1893    5.5612  -19.8652 H   0  0  0  0  0  0  0  0  0  0  0  0
   -7.4351    6.3293  -13.5335 O   0  0  0  0  0  0  0  0  0  0  0  0
   -7.6542    5.2059  -13.7656 C   0  0  0  0  0  0  0  0  0  0  0  0
   -7.9828    4.0308  -12.8138 N   0  0  0  0  0  0  0  0  0  0  0  0
   -8.0525    3.1522  -13.2525 H   0  0  0  0  0  0  0  0  0  0  0  0
   -8.1959    4.0139  -11.4384 C   0  0  0  0  0  0  0  0  0  0  0  0
   -7.9947    5.1589  -10.6533 C   0  0  0  0  0  0  0  0  0  0  0  0
   -8.2179    5.1266   -9.2730 C   0  0  0  0  0  0  0  0  0  0  0  0
   -8.6409    3.9387   -8.7043 C   0  0  0  0  0  0  0  0  0  0  0  0
   -8.8481    2.8081   -9.4816 C   0  0  0  0  0  0  0  0  0  0  0  0
   -8.6277    2.8234  -10.8488 C   0  0  0  0  0  0  0  0  0  0  0  0
   -9.3244    1.6889   -8.6239 C   0  0  0  0  0  0  0  0  0  0  0  0
   -9.3157    2.1956   -7.2246 N   0  0  0  0  0  0  0  0  0  0  0  0
   -8.9551    3.6296   -7.2828 C   0  0  0  0  0  0  0  0  0  0  0  0
   -8.6279    1.6841   -6.6717 H   0  0  0  0  0  0  0  0  0  0  0  0
 17 18  2  0  0  0
 18 19  1  0  0  0
 19 21  1  0  0  0
 21 22  2  0  0  0
 22 23  1  0  0  0
 23 24  2  0  0  0
 24 25  1  0  0  0
 25 26  2  0  0  0
 25 27  1  0  0  0
 27 28  1  0  0  0
 28 29  1  0  0  0
 18  1  1  0  0  0
  1  2  2  0  0  0
  2  3  1  0  0  0
  3  4  2  0  0  0
  4  5  1  0  0  0
  5  6  2  0  0  0
  6  7  1  0  0  0
  7  8  2  0  0  0
  8  9  1  0  0  0
  9 10  1  0  0  0
 10 11  1  0  0  0
 11 12  1  0  0  0
 12 13  1  0  0  0
 13 14  1  0  0  0
 13 15  1  0  0  0
 26 21  1  0  0  0
  6  1  1  0  0  0
 13  8  1  0  0  0
 29 24  1  0  0  0
  9  5  1  0  0  0
 19 20  1  0  0  0
 28 30  1  0  0  0
 10 16  1  0  0  0
M  END
> <minimizedAffinity>
-9.55863

> <minimizedRMSD>
0.33398

$$$$
P18467


 31 34  0  0  0  0  0  0  0  0999 V2000
   -7.8631    4.9091  -15.2557 C   0  0  0  0  0  0  0  0  0  0  0  0
   -9.0648    4.5028  -15.8416 C   0  0  0  0  0  0  0  0  0  0  0  0
   -9.1408    4.3033  -17.2174 C   0  0  0  0  0  0  0  0  0  0  0  0
  -10.6738    4.1283  -17.9442 Cl  0  0  0  0  0  0  0  0  0  0  0  0
   -8.0271    4.3930  -18.0466 C   0  0  0  0  0  0  0  0  0  0  0  0
   -6.8408    4.7639  -17.4245 C   0  0  0  0  0  0  0  0  0  0  0  0
   -5.5899    4.9763  -17.9269 N   0  0  0  0  0  0  0  0  0  0  0  0
   -4.7710    5.3384  -16.8860 C   0  0  0  0  0  0  0  0  0  0  0  0
   -5.4469    5.4123  -15.7584 N   0  0  0  0  0  0  0  0  0  0  0  0
   -6.7278    5.0384  -16.0635 C   0  0  0  0  0  0  0  0  0  0  0  0
   -5.3218    4.8859  -18.8699 H   0  0  0  0  0  0  0  0  0  0  0  0
   -7.7167    6.5034  -13.6296 O   0  0  0  0  0  0  0  0  0  0  0  0
   -7.8600    5.3662  -13.8521 C   0  0  0  0  0  0  0  0  0  0  0  0
   -8.1615    4.1878  -12.8966 N   0  0  0  0  0  0  0  0  0  0  0  0
   -8.3142    3.3237  -13.3431 H   0  0  0  0  0  0  0  0  0  0  0  0
   -8.2521    4.1501  -11.5070 C   0  0  0  0  0  0  0  0  0  0  0  0
   -8.0226    5.2961  -10.7282 C   0  0  0  0  0  0  0  0  0  0  0  0
   -8.1772    5.2605   -9.3378 C   0  0  0  0  0  0  0  0  0  0  0  0
   -8.5769    4.0722   -8.7559 C   0  0  0  0  0  0  0  0  0  0  0  0
   -8.7896    2.9321   -9.5247 C   0  0  0  0  0  0  0  0  0  0  0  0
   -8.6227    2.9480  -10.8985 C   0  0  0  0  0  0  0  0  0  0  0  0
   -9.1899    1.8074   -8.6292 C   0  0  0  0  0  0  0  0  0  0  0  0
   -9.5743    2.4556   -7.3468 N   0  0  0  0  0  0  0  0  0  0  0  0
   -8.8501    3.7468   -7.3258 C   0  0  0  0  0  0  0  0  0  0  0  0
   -9.2934    1.8761   -6.5559 H   0  0  0  0  0  0  0  0  0  0  0  0
   -3.3198    5.5964  -17.0848 C   0  0  0  0  0  0  0  0  0  0  0  0
   -2.6064    5.1353  -16.0265 F   0  0  0  0  0  0  0  0  0  0  0  0
   -2.8497    4.8846  -18.2665 N   0  0  0  0  0  0  0  0  0  0  0  0
   -3.5695    4.9081  -18.9889 H   0  0  0  0  0  0  0  0  0  0  0  0
   -1.6519    5.5263  -18.7552 C   0  0  0  0  0  0  0  0  0  0  0  0
   -0.5829    4.9977  -18.1185 F   0  0  0  0  0  0  0  0  0  0  0  0
 12 13  2  0  0  0
 13 14  1  0  0  0
 14 16  1  0  0  0
 16 17  2  0  0  0
 17 18  1  0  0  0
 18 19  2  0  0  0
 19 20  1  0  0  0
 20 21  2  0  0  0
 20 22  1  0  0  0
 22 23  1  0  0  0
 23 24  1  0  0  0
 13  1  1  0  0  0
  1  2  2  0  0  0
  2  3  1  0  0  0
  3  4  1  0  0  0
  3  5  2  0  0  0
  5  6  1  0  0  0
  6  7  1  0  0  0
  7  8  1  0  0  0
  8 26  1  0  0  0
 26 27  1  0  0  0
 26 28  1  0  0  0
 28 30  1  0  0  0
 30 31  1  0  0  0
  8  9  2  0  0  0
  9 10  1  0  0  0
 21 16  1  0  0  0
 10  1  1  0  0  0
 24 19  1  0  0  0
 10  6  2  0  0  0
 14 15  1  0  0  0
 23 25  1  0  0  0
  7 11  1  0  0  0
 28 29  1  0  0  0
M  END
> <minimizedAffinity>
-7.93326

> <minimizedRMSD>
0.22675

$$$$
P18468


 33 36  0  0  0  0  0  0  0  0999 V2000
   -5.4114    5.3426  -17.4798 N   0  0  0  0  0  0  0  0  0  0  0  0
   -4.5303    5.5516  -16.4312 C   0  0  0  0  0  0  0  0  0  0  0  0
   -5.1603    5.4638  -15.2694 N   0  0  0  0  0  0  0  0  0  0  0  0
   -6.4685    5.1678  -15.5554 C   0  0  0  0  0  0  0  0  0  0  0  0
   -7.5853    4.9258  -14.7350 C   0  0  0  0  0  0  0  0  0  0  0  0
   -8.8055    4.5012  -15.3008 C   0  0  0  0  0  0  0  0  0  0  0  0
   -8.9525    4.5112  -16.6728 C   0  0  0  0  0  0  0  0  0  0  0  0
  -10.4011    4.1131  -17.4866 Cl  0  0  0  0  0  0  0  0  0  0  0  0
   -7.9252    4.9626  -17.4737 C   0  0  0  0  0  0  0  0  0  0  0  0
   -6.6575    5.1494  -16.9288 C   0  0  0  0  0  0  0  0  0  0  0  0
   -3.0783    5.8129  -16.6612 C   0  0  0  0  0  0  0  0  0  0  0  0
   -2.5020    4.8015  -17.3672 F   0  0  0  0  0  0  0  0  0  0  0  0
   -2.8841    6.9417  -17.3958 F   0  0  0  0  0  0  0  0  0  0  0  0
   -2.3582    5.9534  -15.5218 F   0  0  0  0  0  0  0  0  0  0  0  0
   -7.5513    5.3052  -13.3137 C   0  0  0  0  0  0  0  0  0  0  0  0
   -7.2036    6.3824  -13.0325 O   0  0  0  0  0  0  0  0  0  0  0  0
   -8.1048    4.1711  -12.4294 N   0  0  0  0  0  0  0  0  0  0  0  0
   -8.4017    3.3720  -12.9219 H   0  0  0  0  0  0  0  0  0  0  0  0
   -8.2530    4.0928  -11.0527 C   0  0  0  0  0  0  0  0  0  0  0  0
   -8.0509    5.2212  -10.2394 C   0  0  0  0  0  0  0  0  0  0  0  0
   -8.2841    5.1701   -8.8577 C   0  0  0  0  0  0  0  0  0  0  0  0
   -8.0532    6.3656   -7.9897 C   0  0  0  0  0  0  0  0  0  0  0  0
   -8.7232    3.9625   -8.3348 C   0  0  0  0  0  0  0  0  0  0  0  0
   -8.8967    2.8403   -9.1448 C   0  0  0  0  0  0  0  0  0  0  0  0
   -8.6641    2.8822  -10.5039 C   0  0  0  0  0  0  0  0  0  0  0  0
   -9.3192    1.6874   -8.3014 C   0  0  0  0  0  0  0  0  0  0  0  0
   -9.8013    2.2994   -7.0387 N   0  0  0  0  0  0  0  0  0  0  0  0
   -9.0766    3.5861   -6.9319 C   0  0  0  0  0  0  0  0  0  0  0  0
   -9.5834    1.6986   -6.2437 H   0  0  0  0  0  0  0  0  0  0  0  0
   -4.9905    5.2464  -18.8834 C   0  0  0  0  0  0  0  0  0  0  0  0
   -6.7608    3.7748  -19.8255 C   0  0  0  0  0  0  0  0  0  0  0  0
   -6.1128    5.0746  -19.7522 N   0  0  0  0  0  0  0  0  0  0  0  0
   -6.8227    5.7454  -19.4582 H   0  0  0  0  0  0  0  0  0  0  0  0
 31 32  1  0  0  0
 32 30  1  0  0  0
 30  1  1  0  0  0
  1  2  1  0  0  0
  2 11  1  0  0  0
 11 12  1  0  0  0
 11 13  1  0  0  0
 11 14  1  0  0  0
  2  3  2  0  0  0
  3  4  1  0  0  0
  4  5  2  0  0  0
  5 15  1  0  0  0
 15 16  2  0  0  0
 15 17  1  0  0  0
 17 19  1  0  0  0
 19 20  2  0  0  0
 20 21  1  0  0  0
 21 22  1  0  0  0
 21 23  2  0  0  0
 23 24  1  0  0  0
 24 25  2  0  0  0
 24 26  1  0  0  0
 26 27  1  0  0  0
 27 28  1  0  0  0
  5  6  1  0  0  0
  6  7  2  0  0  0
  7  8  1  0  0  0
  7  9  1  0  0  0
  9 10  2  0  0  0
 10  1  1  0  0  0
 10  4  1  0  0  0
 25 19  1  0  0  0
 28 23  1  0  0  0
 32 33  1  0  0  0
 17 18  1  0  0  0
 27 29  1  0  0  0
M  END
> <minimizedAffinity>
-6.67331

> <minimizedRMSD>
0.04377

$$$$
P18469


 31 34  0  0  0  0  0  0  0  0999 V2000
   -5.6957    5.1587  -17.7440 N   0  0  0  0  0  0  0  0  0  0  0  0
   -5.1190    5.3685  -16.5078 C   0  0  0  0  0  0  0  0  0  0  0  0
   -6.0553    5.3710  -15.5717 N   0  0  0  0  0  0  0  0  0  0  0  0
   -7.1891    4.8838  -16.1718 C   0  0  0  0  0  0  0  0  0  0  0  0
   -8.4437    4.5644  -15.6325 C   0  0  0  0  0  0  0  0  0  0  0  0
   -9.3887    3.9170  -16.4381 C   0  0  0  0  0  0  0  0  0  0  0  0
   -9.1265    3.6739  -17.7859 C   0  0  0  0  0  0  0  0  0  0  0  0
   -7.9182    4.0685  -18.3667 C   0  0  0  0  0  0  0  0  0  0  0  0
   -6.9626    4.6588  -17.5290 C   0  0  0  0  0  0  0  0  0  0  0  0
   -3.6497    5.4913  -16.2856 C   0  0  0  0  0  0  0  0  0  0  0  0
   -3.1762    6.7353  -16.5483 F   0  0  0  0  0  0  0  0  0  0  0  0
   -2.9222    4.6345  -17.0579 F   0  0  0  0  0  0  0  0  0  0  0  0
   -3.3173    5.2008  -15.0029 F   0  0  0  0  0  0  0  0  0  0  0  0
   -8.8037    5.0186  -14.2745 C   0  0  0  0  0  0  0  0  0  0  0  0
   -9.6102    5.8570  -14.1672 O   0  0  0  0  0  0  0  0  0  0  0  0
   -8.0518    4.2064  -13.1937 N   0  0  0  0  0  0  0  0  0  0  0  0
   -7.3561    3.6028  -13.5414 H   0  0  0  0  0  0  0  0  0  0  0  0
   -8.1990    4.1901  -11.8079 C   0  0  0  0  0  0  0  0  0  0  0  0
   -7.9261    5.3308  -11.0362 C   0  0  0  0  0  0  0  0  0  0  0  0
   -8.0630    5.3053   -9.6445 C   0  0  0  0  0  0  0  0  0  0  0  0
   -8.4715    4.1269   -9.0478 C   0  0  0  0  0  0  0  0  0  0  0  0
   -8.7498    3.0001   -9.8086 C   0  0  0  0  0  0  0  0  0  0  0  0
   -8.6182    3.0103  -11.1888 C   0  0  0  0  0  0  0  0  0  0  0  0
   -9.1828    1.8889   -8.9174 C   0  0  0  0  0  0  0  0  0  0  0  0
   -9.0916    2.4026   -7.5229 N   0  0  0  0  0  0  0  0  0  0  0  0
   -8.6953    3.8255   -7.6079 C   0  0  0  0  0  0  0  0  0  0  0  0
   -8.3918    1.8752   -7.0009 H   0  0  0  0  0  0  0  0  0  0  0  0
   -5.0712    5.3766  -19.0398 C   0  0  0  0  0  0  0  0  0  0  0  0
   -4.7412    7.7173  -19.4260 C   0  0  0  0  0  0  0  0  0  0  0  0
   -5.6572    6.5988  -19.5957 N   0  0  0  0  0  0  0  0  0  0  0  0
   -5.8418    6.4622  -20.5895 H   0  0  0  0  0  0  0  0  0  0  0  0
 29 30  1  0  0  0
 30 28  1  0  0  0
 28  1  1  0  0  0
  1  2  1  0  0  0
  2 10  1  0  0  0
 10 11  1  0  0  0
 10 12  1  0  0  0
 10 13  1  0  0  0
  2  3  2  0  0  0
  3  4  1  0  0  0
  4  5  2  0  0  0
  5 14  1  0  0  0
 14 15  2  0  0  0
 14 16  1  0  0  0
 16 18  1  0  0  0
 18 19  2  0  0  0
 19 20  1  0  0  0
 20 21  2  0  0  0
 21 22  1  0  0  0
 22 23  2  0  0  0
 22 24  1  0  0  0
 24 25  1  0  0  0
 25 26  1  0  0  0
  5  6  1  0  0  0
  6  7  2  0  0  0
  7  8  1  0  0  0
  8  9  2  0  0  0
  9  1  1  0  0  0
  9  4  1  0  0  0
 23 18  1  0  0  0
 26 21  1  0  0  0
 30 31  1  0  0  0
 16 17  1  0  0  0
 25 27  1  0  0  0
M  END
> <minimizedAffinity>
-8.98412

> <minimizedRMSD>
0.88110

$$$$
P18472


 33 36  0  0  0  0  0  0  0  0999 V2000
   -8.0498    4.3917  -17.3028 C   0  0  0  0  0  0  0  0  0  0  0  0
   -8.9143    4.1731  -16.2252 C   0  0  0  0  0  0  0  0  0  0  0  0
   -8.4865    4.3056  -14.9207 C   0  0  0  0  0  0  0  0  0  0  0  0
   -7.1553    4.6540  -14.6028 C   0  0  0  0  0  0  0  0  0  0  0  0
   -6.3028    4.9624  -15.6887 C   0  0  0  0  0  0  0  0  0  0  0  0
   -4.9931    5.3898  -15.7153 N   0  0  0  0  0  0  0  0  0  0  0  0
   -4.6455    5.4800  -16.9886 C   0  0  0  0  0  0  0  0  0  0  0  0
   -5.7134    5.1749  -17.7909 N   0  0  0  0  0  0  0  0  0  0  0  0
   -6.7686    4.8292  -16.9890 C   0  0  0  0  0  0  0  0  0  0  0  0
   -5.7210    5.1999  -18.7751 H   0  0  0  0  0  0  0  0  0  0  0  0
   -9.9323    4.5196  -18.7577 N   0  0  0  0  0  0  0  0  0  0  0  0
   -8.5424    4.1471  -18.6848 C   0  0  0  0  0  0  0  0  0  0  0  0
  -10.2792    4.3551  -19.7027 H   0  0  0  0  0  0  0  0  0  0  0  0
  -10.0320    5.5079  -18.5261 H   0  0  0  0  0  0  0  0  0  0  0  0
   -3.3323    5.8464  -17.5875 C   0  0  0  0  0  0  0  0  0  0  0  0
   -2.8142    6.9734  -17.0332 F   0  0  0  0  0  0  0  0  0  0  0  0
   -3.4558    6.1041  -18.9219 F   0  0  0  0  0  0  0  0  0  0  0  0
   -2.4002    4.8690  -17.4699 F   0  0  0  0  0  0  0  0  0  0  0  0
   -6.7887    4.7043  -13.1289 C   0  0  0  0  0  0  0  0  0  0  0  0
   -5.3563    4.3848  -12.8771 N   0  0  0  0  0  0  0  0  0  0  0  0
   -4.7958    5.2731  -12.2237 O   0  0  0  0  0  0  0  0  0  0  0  0
   -7.6562    3.7700  -12.4133 N   0  0  0  0  0  0  0  0  0  0  0  0
   -8.0479    3.0206  -12.9175 H   0  0  0  0  0  0  0  0  0  0  0  0
   -7.9595    3.8804  -11.0589 C   0  0  0  0  0  0  0  0  0  0  0  0
   -7.8138    5.0617  -10.3061 C   0  0  0  0  0  0  0  0  0  0  0  0
   -8.1532    5.1137   -8.9465 C   0  0  0  0  0  0  0  0  0  0  0  0
   -8.6927    3.9853   -8.3625 C   0  0  0  0  0  0  0  0  0  0  0  0
   -8.8968    2.8310   -9.1046 C   0  0  0  0  0  0  0  0  0  0  0  0
   -8.5405    2.7638  -10.4387 C   0  0  0  0  0  0  0  0  0  0  0  0
   -9.4946    1.7804   -8.2319 C   0  0  0  0  0  0  0  0  0  0  0  0
   -9.9564    2.5066   -7.0182 N   0  0  0  0  0  0  0  0  0  0  0  0
   -9.1336    3.7357   -6.9598 C   0  0  0  0  0  0  0  0  0  0  0  0
   -9.8088    1.9382   -6.1842 H   0  0  0  0  0  0  0  0  0  0  0  0
 11 12  1  0  0  0
 12  1  1  0  0  0
  1  2  2  0  0  0
  2  3  1  0  0  0
  3  4  2  0  0  0
  4 19  1  0  0  0
 19 20  1  0  0  0
 20 21  2  0  0  0
 19 22  1  0  0  0
 22 24  1  0  0  0
 24 25  2  0  0  0
 25 26  1  0  0  0
 26 27  2  0  0  0
 27 28  1  0  0  0
 28 29  2  0  0  0
 28 30  1  0  0  0
 30 31  1  0  0  0
 31 32  1  0  0  0
  4  5  1  0  0  0
  5  6  1  0  0  0
  6  7  2  0  0  0
  7 15  1  0  0  0
 15 16  1  0  0  0
 15 17  1  0  0  0
 15 18  1  0  0  0
  7  8  1  0  0  0
  8  9  1  0  0  0
  9  1  1  0  0  0
 29 24  1  0  0  0
  9  5  2  0  0  0
 32 27  1  0  0  0
 11 13  1  0  0  0
 11 14  1  0  0  0
 22 23  1  0  0  0
 31 33  1  0  0  0
  8 10  1  0  0  0
M  END
> <minimizedAffinity>
-7.87744

> <minimizedRMSD>
0.57740

$$$$
P18473


 31 35  0  0  0  0  0  0  0  0999 V2000
   -7.7937    4.8389  -15.2360 C   0  0  0  0  0  0  0  0  0  0  0  0
   -8.9938    4.3248  -15.7477 C   0  0  0  0  0  0  0  0  0  0  0  0
   -9.1393    4.0812  -17.1232 C   0  0  0  0  0  0  0  0  0  0  0  0
  -10.3021    3.5954  -17.5680 F   0  0  0  0  0  0  0  0  0  0  0  0
   -8.1182    4.3313  -18.0284 C   0  0  0  0  0  0  0  0  0  0  0  0
   -6.9450    4.7994  -17.4855 C   0  0  0  0  0  0  0  0  0  0  0  0
   -6.7384    5.0539  -16.1072 C   0  0  0  0  0  0  0  0  0  0  0  0
   -5.3983    5.4541  -15.7902 N   0  0  0  0  0  0  0  0  0  0  0  0
   -4.8061    5.4303  -16.9409 C   0  0  0  0  0  0  0  0  0  0  0  0
   -5.6687    5.0692  -18.0494 C   0  0  0  0  0  0  0  0  0  0  0  0
   -5.0137    5.0843  -19.1568 N   0  0  0  0  0  0  0  0  0  0  0  0
   -3.6119    5.4362  -18.8206 N   0  0  0  0  0  0  0  0  0  0  0  0
   -3.4841    5.6380  -17.5292 C   0  0  0  0  0  0  0  0  0  0  0  0
   -7.4161    6.3753  -13.6004 O   0  0  0  0  0  0  0  0  0  0  0  0
   -7.7283    5.2719  -13.8230 C   0  0  0  0  0  0  0  0  0  0  0  0
   -8.2036    4.1516  -12.8670 N   0  0  0  0  0  0  0  0  0  0  0  0
   -8.4840    3.3202  -13.3135 H   0  0  0  0  0  0  0  0  0  0  0  0
   -8.2993    4.1281  -11.4756 C   0  0  0  0  0  0  0  0  0  0  0  0
   -8.0504    5.2748  -10.7039 C   0  0  0  0  0  0  0  0  0  0  0  0
   -8.1863    5.2465   -9.3104 C   0  0  0  0  0  0  0  0  0  0  0  0
   -8.5834    4.0634   -8.7155 C   0  0  0  0  0  0  0  0  0  0  0  0
   -8.8179    2.9223   -9.4756 C   0  0  0  0  0  0  0  0  0  0  0  0
   -8.6726    2.9327  -10.8531 C   0  0  0  0  0  0  0  0  0  0  0  0
   -9.2078    1.8028   -8.5674 C   0  0  0  0  0  0  0  0  0  0  0  0
   -9.5534    2.4561   -7.2766 N   0  0  0  0  0  0  0  0  0  0  0  0
   -8.8248    3.7443   -7.2783 C   0  0  0  0  0  0  0  0  0  0  0  0
   -9.2527    1.8774   -6.4923 H   0  0  0  0  0  0  0  0  0  0  0  0
   -2.3576    5.9389  -16.8157 N   0  0  0  0  0  0  0  0  0  0  0  0
   -2.4084    7.3397  -16.4956 F   0  0  0  0  0  0  0  0  0  0  0  0
   -1.0615    5.6852  -17.3902 C   0  0  0  0  0  0  0  0  0  0  0  0
   -0.6673    6.7608  -18.1233 F   0  0  0  0  0  0  0  0  0  0  0  0
 14 15  2  0  0  0
 15 16  1  0  0  0
 16 18  1  0  0  0
 18 19  2  0  0  0
 19 20  1  0  0  0
 20 21  2  0  0  0
 21 22  1  0  0  0
 22 23  2  0  0  0
 22 24  1  0  0  0
 24 25  1  0  0  0
 25 26  1  0  0  0
 15  1  1  0  0  0
  1  2  2  0  0  0
  2  3  1  0  0  0
  3  4  1  0  0  0
  3  5  2  0  0  0
  5  6  1  0  0  0
  6  7  2  0  0  0
  7  8  1  0  0  0
  8  9  2  0  0  0
  9 10  1  0  0  0
 10 11  2  0  0  0
 11 12  1  0  0  0
 12 13  2  0  0  0
 13 28  1  0  0  0
 28 29  1  0  0  0
 28 30  1  0  0  0
 30 31  1  0  0  0
 23 18  1  0  0  0
  7  1  1  0  0  0
 13  9  1  0  0  0
 26 21  1  0  0  0
 10  6  1  0  0  0
 16 17  1  0  0  0
 25 27  1  0  0  0
M  END
> <minimizedAffinity>
-8.84425

> <minimizedRMSD>
0.42432

$$$$
P18474


 31 35  0  0  0  0  0  0  0  0999 V2000
   -7.8733    4.7217  -15.2870 C   0  0  0  0  0  0  0  0  0  0  0  0
   -9.0281    4.1942  -15.8848 C   0  0  0  0  0  0  0  0  0  0  0  0
   -9.0567    3.9487  -17.2507 C   0  0  0  0  0  0  0  0  0  0  0  0
  -10.1771    3.4800  -17.8081 F   0  0  0  0  0  0  0  0  0  0  0  0
   -7.9726    4.2215  -18.0764 C   0  0  0  0  0  0  0  0  0  0  0  0
   -6.8257    4.7314  -17.4625 C   0  0  0  0  0  0  0  0  0  0  0  0
   -6.7350    4.9558  -16.0842 C   0  0  0  0  0  0  0  0  0  0  0  0
   -5.4754    5.4078  -15.7599 N   0  0  0  0  0  0  0  0  0  0  0  0
   -4.8338    5.5134  -16.8997 C   0  0  0  0  0  0  0  0  0  0  0  0
   -5.6272    5.1827  -17.9607 N   0  0  0  0  0  0  0  0  0  0  0  0
   -5.3334    5.4692  -19.3610 C   0  0  0  0  0  0  0  0  0  0  0  0
   -3.8892    5.4336  -19.6430 N   0  0  0  0  0  0  0  0  0  0  0  0
   -3.1290    6.3787  -18.8295 C   0  0  0  0  0  0  0  0  0  0  0  0
   -3.2121    6.0541  -17.1110 S   0  0  0  0  0  0  0  0  0  0  0  0
   -2.9212    7.3661  -16.2821 F   0  0  0  0  0  0  0  0  0  0  0  0
   -2.1873    4.9176  -16.7171 F   0  0  0  0  0  0  0  0  0  0  0  0
   -3.7438    5.6602  -20.6268 H   0  0  0  0  0  0  0  0  0  0  0  0
   -7.9193    6.3592  -13.6989 O   0  0  0  0  0  0  0  0  0  0  0  0
   -7.9313    5.2064  -13.8870 C   0  0  0  0  0  0  0  0  0  0  0  0
   -8.1030    4.0296  -12.8956 N   0  0  0  0  0  0  0  0  0  0  0  0
   -8.1540    3.1407  -13.3157 H   0  0  0  0  0  0  0  0  0  0  0  0
   -8.1973    4.0239  -11.5038 C   0  0  0  0  0  0  0  0  0  0  0  0
   -7.9199    5.1729  -10.7458 C   0  0  0  0  0  0  0  0  0  0  0  0
   -8.0776    5.1704   -9.3545 C   0  0  0  0  0  0  0  0  0  0  0  0
   -8.5272    4.0116   -8.7492 C   0  0  0  0  0  0  0  0  0  0  0  0
   -8.7902    2.8680   -9.4961 C   0  0  0  0  0  0  0  0  0  0  0  0
   -8.6227    2.8520  -10.8706 C   0  0  0  0  0  0  0  0  0  0  0  0
   -9.2380    1.7780   -8.5790 C   0  0  0  0  0  0  0  0  0  0  0  0
   -9.5824    2.4636   -7.3049 N   0  0  0  0  0  0  0  0  0  0  0  0
   -8.8064    3.7241   -7.3123 C   0  0  0  0  0  0  0  0  0  0  0  0
   -9.3176    1.8866   -6.5066 H   0  0  0  0  0  0  0  0  0  0  0  0
 18 19  2  0  0  0
 19 20  1  0  0  0
 20 22  1  0  0  0
 22 23  2  0  0  0
 23 24  1  0  0  0
 24 25  2  0  0  0
 25 26  1  0  0  0
 26 27  2  0  0  0
 26 28  1  0  0  0
 28 29  1  0  0  0
 29 30  1  0  0  0
 19  1  1  0  0  0
  1  2  2  0  0  0
  2  3  1  0  0  0
  3  4  1  0  0  0
  3  5  2  0  0  0
  5  6  1  0  0  0
  6  7  2  0  0  0
  7  8  1  0  0  0
  8  9  2  0  0  0
  9 10  1  0  0  0
 10 11  1  0  0  0
 11 12  1  0  0  0
 12 13  1  0  0  0
 13 14  1  0  0  0
 14 15  1  0  0  0
 14 16  1  0  0  0
 27 22  1  0  0  0
  7  1  1  0  0  0
 14  9  1  0  0  0
 30 25  1  0  0  0
 10  6  1  0  0  0
 20 21  1  0  0  0
 29 31  1  0  0  0
 12 17  1  0  0  0
M  END
> <minimizedAffinity>
-9.55995

> <minimizedRMSD>
0.35609

$$$$
P18475


 32 36  0  0  0  0  0  0  0  0999 V2000
   -7.6001    4.5225  -15.5401 C   0  0  0  0  0  0  0  0  0  0  0  0
   -8.8663    3.9853  -15.8252 C   0  0  0  0  0  0  0  0  0  0  0  0
   -9.2927    3.8115  -17.1505 C   0  0  0  0  0  0  0  0  0  0  0  0
   -8.4395    4.1195  -18.2047 C   0  0  0  0  0  0  0  0  0  0  0  0
   -7.1956    4.6389  -17.9023 C   0  0  0  0  0  0  0  0  0  0  0  0
   -6.7800    4.8779  -16.5985 C   0  0  0  0  0  0  0  0  0  0  0  0
   -5.4666    5.4027  -16.5903 N   0  0  0  0  0  0  0  0  0  0  0  0
   -5.1521    5.6055  -18.0218 C   0  0  0  0  0  0  0  0  0  0  0  0
   -3.7287    5.0900  -18.2604 C   0  0  0  0  0  0  0  0  0  0  0  0
   -3.2695    5.3037  -19.6970 C   0  0  0  0  0  0  0  0  0  0  0  0
   -3.3533    6.7183  -20.0758 N   0  0  0  0  0  0  0  0  0  0  0  0
   -4.7200    7.2342  -19.9027 C   0  0  0  0  0  0  0  0  0  0  0  0
   -5.2072    7.0767  -18.4504 C   0  0  0  0  0  0  0  0  0  0  0  0
   -6.1590    4.8939  -18.8329 N   0  0  0  0  0  0  0  0  0  0  0  0
   -4.8939    5.5898  -15.8118 H   0  0  0  0  0  0  0  0  0  0  0  0
   -6.1197    4.6550  -19.7872 H   0  0  0  0  0  0  0  0  0  0  0  0
   -6.2727    5.4302  -13.9074 O   0  0  0  0  0  0  0  0  0  0  0  0
   -7.1978    4.7486  -14.1288 C   0  0  0  0  0  0  0  0  0  0  0  0
   -8.1836    4.0430  -13.1576 N   0  0  0  0  0  0  0  0  0  0  0  0
   -8.8426    3.4559  -13.5937 H   0  0  0  0  0  0  0  0  0  0  0  0
   -8.2870    4.1062  -11.7670 C   0  0  0  0  0  0  0  0  0  0  0  0
   -8.0197    5.2879  -11.0616 C   0  0  0  0  0  0  0  0  0  0  0  0
   -8.1232    5.3275   -9.6656 C   0  0  0  0  0  0  0  0  0  0  0  0
   -8.4915    4.1730   -8.9973 C   0  0  0  0  0  0  0  0  0  0  0  0
   -8.7663    3.0039   -9.6914 C   0  0  0  0  0  0  0  0  0  0  0  0
   -8.6688    2.9502  -11.0744 C   0  0  0  0  0  0  0  0  0  0  0  0
   -9.1630    1.9339   -8.7330 C   0  0  0  0  0  0  0  0  0  0  0  0
   -9.0347    2.5183   -7.3696 N   0  0  0  0  0  0  0  0  0  0  0  0
   -8.6726    3.9422   -7.5378 C   0  0  0  0  0  0  0  0  0  0  0  0
   -8.3061    2.0315   -6.8476 H   0  0  0  0  0  0  0  0  0  0  0  0
   -2.8943    6.8834  -21.4539 C   0  0  0  0  0  0  0  0  0  0  0  0
   -3.9497    6.8369  -22.3183 F   0  0  0  0  0  0  0  0  0  0  0  0
 17 18  2  0  0  0
 18 19  1  0  0  0
 19 21  1  0  0  0
 21 22  2  0  0  0
 22 23  1  0  0  0
 23 24  2  0  0  0
 24 25  1  0  0  0
 25 26  2  0  0  0
 25 27  1  0  0  0
 27 28  1  0  0  0
 28 29  1  0  0  0
 18  1  1  0  0  0
  1  2  2  0  0  0
  2  3  1  0  0  0
  3  4  2  0  0  0
  4  5  1  0  0  0
  5  6  2  0  0  0
  6  7  1  0  0  0
  7  8  1  0  0  0
  8  9  1  0  0  0
  9 10  1  0  0  0
 10 11  1  0  0  0
 11 31  1  0  0  0
 31 32  1  0  0  0
 11 12  1  0  0  0
 12 13  1  0  0  0
  8 14  1  0  0  0
 26 21  1  0  0  0
  6  1  1  0  0  0
 13  8  1  0  0  0
 29 24  1  0  0  0
 14  5  1  0  0  0
 19 20  1  0  0  0
 28 30  1  0  0  0
  7 15  1  0  0  0
 14 16  1  0  0  0
M  END
> <minimizedAffinity>
-9.85455

> <minimizedRMSD>
0.78068

$$$$
P18478


 35 39  0  0  0  0  0  0  0  0999 V2000
   -7.4902    4.8710  -15.3022 C   0  0  0  0  0  0  0  0  0  0  0  0
   -8.7305    4.4937  -15.8323 C   0  0  0  0  0  0  0  0  0  0  0  0
   -8.8825    4.3388  -17.2038 C   0  0  0  0  0  0  0  0  0  0  0  0
  -10.4480    4.1181  -17.8448 Cl  0  0  0  0  0  0  0  0  0  0  0  0
   -7.8245    4.5133  -18.0915 C   0  0  0  0  0  0  0  0  0  0  0  0
   -6.5928    4.8827  -17.5438 C   0  0  0  0  0  0  0  0  0  0  0  0
   -6.3957    5.0422  -16.1708 C   0  0  0  0  0  0  0  0  0  0  0  0
   -5.0812    5.3380  -15.9193 N   0  0  0  0  0  0  0  0  0  0  0  0
   -4.4659    5.3099  -17.0948 C   0  0  0  0  0  0  0  0  0  0  0  0
   -5.3806    5.2020  -18.1169 N   0  0  0  0  0  0  0  0  0  0  0  0
   -7.0604    6.3557  -13.6243 O   0  0  0  0  0  0  0  0  0  0  0  0
   -7.4302    5.2772  -13.8798 C   0  0  0  0  0  0  0  0  0  0  0  0
   -7.9925    4.1640  -12.9598 N   0  0  0  0  0  0  0  0  0  0  0  0
   -8.3095    3.3602  -13.4317 H   0  0  0  0  0  0  0  0  0  0  0  0
   -8.1226    4.1156  -11.5716 C   0  0  0  0  0  0  0  0  0  0  0  0
   -7.8956    5.2511  -10.7776 C   0  0  0  0  0  0  0  0  0  0  0  0
   -8.1084    5.2139   -9.3941 C   0  0  0  0  0  0  0  0  0  0  0  0
   -8.5490    4.0305   -8.8310 C   0  0  0  0  0  0  0  0  0  0  0  0
   -8.7535    2.8977   -9.6117 C   0  0  0  0  0  0  0  0  0  0  0  0
   -8.5469    2.9206  -10.9813 C   0  0  0  0  0  0  0  0  0  0  0  0
   -9.1827    1.7704   -8.7314 C   0  0  0  0  0  0  0  0  0  0  0  0
   -9.5887    2.4116   -7.4527 N   0  0  0  0  0  0  0  0  0  0  0  0
   -8.8665    3.7029   -7.4105 C   0  0  0  0  0  0  0  0  0  0  0  0
   -9.3213    1.8276   -6.6604 H   0  0  0  0  0  0  0  0  0  0  0  0
   -3.0080    5.3593  -17.3435 C   0  0  0  0  0  0  0  0  0  0  0  0
   -2.5982    4.4234  -18.2410 F   0  0  0  0  0  0  0  0  0  0  0  0
   -2.2798    5.1487  -16.2154 F   0  0  0  0  0  0  0  0  0  0  0  0
   -2.6133    6.5641  -17.8289 F   0  0  0  0  0  0  0  0  0  0  0  0
   -5.1777    5.3353  -19.5403 N   0  0  0  0  0  0  0  0  0  0  0  0
   -6.0714    5.1822  -20.0075 H   0  0  0  0  0  0  0  0  0  0  0  0
   -4.6605    6.6503  -19.9502 C   0  0  0  0  0  0  0  0  0  0  0  0
   -5.6030    7.8057  -19.5616 C   0  0  0  0  0  0  0  0  0  0  0  0
   -5.4159    8.3735  -20.9197 N   0  0  0  0  0  0  0  0  0  0  0  0
   -5.0587    7.0071  -21.3969 C   0  0  0  0  0  0  0  0  0  0  0  0
   -4.6615    9.0563  -20.9915 H   0  0  0  0  0  0  0  0  0  0  0  0
 11 12  2  0  0  0
 12 13  1  0  0  0
 13 15  1  0  0  0
 15 16  2  0  0  0
 16 17  1  0  0  0
 17 18  2  0  0  0
 18 19  1  0  0  0
 19 20  2  0  0  0
 19 21  1  0  0  0
 21 22  1  0  0  0
 22 23  1  0  0  0
 12  1  1  0  0  0
  1  2  2  0  0  0
  2  3  1  0  0  0
  3  4  1  0  0  0
  3  5  2  0  0  0
  5  6  1  0  0  0
  6  7  2  0  0  0
  7  8  1  0  0  0
  8  9  2  0  0  0
  9 25  1  0  0  0
 25 26  1  0  0  0
 25 27  1  0  0  0
 25 28  1  0  0  0
  9 10  1  0  0  0
 10 29  1  0  0  0
 29 31  1  0  0  0
 31 32  1  0  0  0
 32 33  1  0  0  0
 33 34  1  0  0  0
 20 15  1  0  0  0
  7  1  1  0  0  0
 34 31  1  0  0  0
 23 18  1  0  0  0
 10  6  1  0  0  0
 13 14  1  0  0  0
 22 24  1  0  0  0
 29 30  1  0  0  0
 33 35  1  0  0  0
M  END
> <minimizedAffinity>
-8.99968

> <minimizedRMSD>
0.12372

$$$$
P18479


 34 39  0  0  0  0  0  0  0  0999 V2000
   -7.4199    5.0663  -15.0012 C   0  0  0  0  0  0  0  0  0  0  0  0
   -8.4456    4.3313  -15.6001 C   0  0  0  0  0  0  0  0  0  0  0  0
   -8.4191    4.1124  -16.9811 C   0  0  0  0  0  0  0  0  0  0  0  0
   -9.7461    3.3491  -17.7159 Cl  0  0  0  0  0  0  0  0  0  0  0  0
   -7.3928    4.5918  -17.7915 C   0  0  0  0  0  0  0  0  0  0  0  0
   -6.3886    5.3259  -17.1918 C   0  0  0  0  0  0  0  0  0  0  0  0
   -6.3845    5.5444  -15.8073 C   0  0  0  0  0  0  0  0  0  0  0  0
   -5.3292    6.4022  -15.4167 N   0  0  0  0  0  0  0  0  0  0  0  0
   -4.4442    6.4907  -16.6022 C   0  0  0  0  0  0  0  0  0  0  0  0
   -3.2540    5.5300  -16.6374 C   0  0  0  0  0  0  0  0  0  0  0  0
   -3.3502    4.5532  -15.7098 F   0  0  0  0  0  0  0  0  0  0  0  0
   -2.0978    6.1931  -16.3947 F   0  0  0  0  0  0  0  0  0  0  0  0
   -3.1485    4.9227  -17.9153 O   0  0  0  0  0  0  0  0  0  0  0  0
   -4.2530    5.3456  -18.6916 C   0  0  0  0  0  0  0  0  0  0  0  0
   -3.7822    6.2773  -19.7191 N   0  0  0  0  0  0  0  0  0  0  0  0
   -4.4409    7.5629  -19.5001 C   0  0  0  0  0  0  0  0  0  0  0  0
   -5.6978    7.2417  -18.7062 C   0  0  0  0  0  0  0  0  0  0  0  0
   -5.2610    6.0774  -17.8274 C   0  0  0  0  0  0  0  0  0  0  0  0
   -5.2088    6.8447  -14.5456 H   0  0  0  0  0  0  0  0  0  0  0  0
   -4.0193    5.9203  -20.6447 H   0  0  0  0  0  0  0  0  0  0  0  0
   -7.3982    6.6122  -13.3156 O   0  0  0  0  0  0  0  0  0  0  0  0
   -7.5549    5.4845  -13.5769 C   0  0  0  0  0  0  0  0  0  0  0  0
   -7.9708    4.2947  -12.6780 N   0  0  0  0  0  0  0  0  0  0  0  0
   -8.1099    3.4456  -13.1563 H   0  0  0  0  0  0  0  0  0  0  0  0
   -8.1803    4.2301  -11.3014 C   0  0  0  0  0  0  0  0  0  0  0  0
   -7.9772    5.3588  -10.4909 C   0  0  0  0  0  0  0  0  0  0  0  0
   -8.1842    5.2977   -9.1098 C   0  0  0  0  0  0  0  0  0  0  0  0
   -8.6038    4.0994   -8.5636 C   0  0  0  0  0  0  0  0  0  0  0  0
   -8.8205    2.9857   -9.3633 C   0  0  0  0  0  0  0  0  0  0  0  0
   -8.6105    3.0280  -10.7341 C   0  0  0  0  0  0  0  0  0  0  0  0
   -9.2822    1.8482   -8.5195 C   0  0  0  0  0  0  0  0  0  0  0  0
   -9.3404    2.3524   -7.1199 N   0  0  0  0  0  0  0  0  0  0  0  0
   -8.9001    3.7635   -7.1443 C   0  0  0  0  0  0  0  0  0  0  0  0
   -8.7204    1.8032   -6.5246 H   0  0  0  0  0  0  0  0  0  0  0  0
 21 22  2  0  0  0
 22 23  1  0  0  0
 23 25  1  0  0  0
 25 26  2  0  0  0
 26 27  1  0  0  0
 27 28  2  0  0  0
 28 29  1  0  0  0
 29 30  2  0  0  0
 29 31  1  0  0  0
 31 32  1  0  0  0
 32 33  1  0  0  0
 22  1  1  0  0  0
  1  2  2  0  0  0
  2  3  1  0  0  0
  3  4  1  0  0  0
  3  5  2  0  0  0
  5  6  1  0  0  0
  6  7  2  0  0  0
  7  8  1  0  0  0
  9  8  1  0  0  0
  9 10  1  0  0  0
 10 11  1  0  0  0
 10 12  1  0  0  0
 10 13  1  0  0  0
 13 14  1  0  0  0
 14 15  1  0  0  0
 15 16  1  0  0  0
 16 17  1  0  0  0
 18 17  1  0  0  0
 30 25  1  0  0  0
  7  1  1  0  0  0
 18  9  1  0  0  0
 33 28  1  0  0  0
 18  6  1  0  0  0
 18 14  1  0  0  0
 23 24  1  0  0  0
 32 34  1  0  0  0
  8 19  1  0  0  0
 15 20  1  0  0  0
M  END
> <minimizedAffinity>
-9.81780

> <minimizedRMSD>
0.18965

$$$$
P18480


 27 31  0  0  0  0  0  0  0  0999 V2000
   -7.3563    5.4092  -13.1347 C   0  0  0  0  0  0  0  0  0  0  0  0
   -7.0291    6.4798  -12.8050 O   0  0  0  0  0  0  0  0  0  0  0  0
   -7.9719    4.2520  -12.3142 N   0  0  0  0  0  0  0  0  0  0  0  0
   -8.2336    3.4647  -12.8442 H   0  0  0  0  0  0  0  0  0  0  0  0
   -2.9490    5.9558  -16.9677 C   0  0  0  0  0  0  0  0  0  0  0  0
   -4.3181    5.6339  -16.5239 C   0  0  0  0  0  0  0  0  0  0  0  0
   -4.8080    5.6746  -15.2592 N   0  0  0  0  0  0  0  0  0  0  0  0
   -6.1463    5.2616  -15.3259 C   0  0  0  0  0  0  0  0  0  0  0  0
   -7.2944    5.0546  -14.5572 C   0  0  0  0  0  0  0  0  0  0  0  0
   -8.4865    4.6220  -15.2414 C   0  0  0  0  0  0  0  0  0  0  0  0
   -8.5252    4.4082  -16.6479 C   0  0  0  0  0  0  0  0  0  0  0  0
   -9.9310    4.1261  -17.5193 Cl  0  0  0  0  0  0  0  0  0  0  0  0
   -7.3669    4.5867  -17.3891 C   0  0  0  0  0  0  0  0  0  0  0  0
   -6.8508    4.5293  -18.6814 N   0  0  0  0  0  0  0  0  0  0  0  0
   -5.5825    4.9906  -18.6053 C   0  0  0  0  0  0  0  0  0  0  0  0
   -5.2974    5.2229  -17.3323 N   0  0  0  0  0  0  0  0  0  0  0  0
   -6.3480    4.9916  -16.6225 C   0  0  0  0  0  0  0  0  0  0  0  0
   -8.2159    4.1427  -10.9505 C   0  0  0  0  0  0  0  0  0  0  0  0
   -8.0506    5.2372  -10.0897 C   0  0  0  0  0  0  0  0  0  0  0  0
   -8.3184    5.1150   -8.7235 C   0  0  0  0  0  0  0  0  0  0  0  0
   -8.7451    3.8891   -8.2455 C   0  0  0  0  0  0  0  0  0  0  0  0
   -8.9073    2.8058   -9.0973 C   0  0  0  0  0  0  0  0  0  0  0  0
   -8.6502    2.9114  -10.4536 C   0  0  0  0  0  0  0  0  0  0  0  0
   -9.3552    1.6181   -8.3201 C   0  0  0  0  0  0  0  0  0  0  0  0
   -9.5432    2.0776   -6.9177 N   0  0  0  0  0  0  0  0  0  0  0  0
   -9.0930    3.4854   -6.8556 C   0  0  0  0  0  0  0  0  0  0  0  0
   -8.9862    1.5041   -6.2842 H   0  0  0  0  0  0  0  0  0  0  0  0
  5  6  1  0  0  0
  6  7  2  0  0  0
  7  8  1  0  0  0
  8  9  1  0  0  0
  9  1  1  0  0  0
  1  2  2  0  0  0
  1  3  1  0  0  0
  3 18  1  0  0  0
 18 19  2  0  0  0
 19 20  1  0  0  0
 20 21  2  0  0  0
 21 22  1  0  0  0
 22 23  2  0  0  0
 22 24  1  0  0  0
 24 25  1  0  0  0
 25 26  1  0  0  0
  9 10  2  0  0  0
 10 11  1  0  0  0
 11 12  1  0  0  0
 11 13  2  0  0  0
 13 14  1  0  0  0
 14 15  2  0  0  0
 15 16  1  0  0  0
 16 17  1  0  0  0
 16  6  1  0  0  0
 17  8  2  0  0  0
 23 18  1  0  0  0
 17 13  1  0  0  0
 26 21  1  0  0  0
  3  4  1  0  0  0
 25 27  1  0  0  0
M  END
> <minimizedAffinity>
-8.47630

> <minimizedRMSD>
0.41876

$$$$
P18483


 31 34  0  0  0  0  0  0  0  0999 V2000
   -4.8554    5.3611  -17.9355 C   0  0  0  0  0  0  0  0  0  0  0  0
   -5.8345    5.0196  -18.7445 N   0  0  0  0  0  0  0  0  0  0  0  0
   -6.8821    4.7195  -17.9444 C   0  0  0  0  0  0  0  0  0  0  0  0
   -8.1754    4.3957  -18.3271 C   0  0  0  0  0  0  0  0  0  0  0  0
   -9.1035    4.2171  -17.3159 C   0  0  0  0  0  0  0  0  0  0  0  0
  -10.7435    4.1816  -17.7778 Cl  0  0  0  0  0  0  0  0  0  0  0  0
   -8.7481    4.2301  -15.9659 C   0  0  0  0  0  0  0  0  0  0  0  0
   -7.4420    4.5422  -15.5757 C   0  0  0  0  0  0  0  0  0  0  0  0
   -6.5392    4.8204  -16.6028 C   0  0  0  0  0  0  0  0  0  0  0  0
   -5.2352    5.2517  -16.6204 N   0  0  0  0  0  0  0  0  0  0  0  0
   -4.6754    5.4466  -15.8343 H   0  0  0  0  0  0  0  0  0  0  0  0
   -2.3620    5.1762  -17.6908 C   0  0  0  0  0  0  0  0  0  0  0  0
   -3.5254    5.8146  -18.4465 C   0  0  0  0  0  0  0  0  0  0  0  0
   -3.4313    7.3434  -18.3677 C   0  0  0  0  0  0  0  0  0  0  0  0
   -3.4587    5.4328  -19.8731 N   0  0  0  0  0  0  0  0  0  0  0  0
   -2.5623    5.7257  -20.2619 H   0  0  0  0  0  0  0  0  0  0  0  0
   -4.2155    5.8887  -20.3828 H   0  0  0  0  0  0  0  0  0  0  0  0
   -7.0864    4.7656  -14.1551 C   0  0  0  0  0  0  0  0  0  0  0  0
   -6.1963    5.4883  -13.9260 O   0  0  0  0  0  0  0  0  0  0  0  0
   -8.0462    4.0194  -13.1954 N   0  0  0  0  0  0  0  0  0  0  0  0
   -8.6733    3.4023  -13.6373 H   0  0  0  0  0  0  0  0  0  0  0  0
   -8.1667    4.0793  -11.8070 C   0  0  0  0  0  0  0  0  0  0  0  0
   -7.9001    5.2581  -11.0929 C   0  0  0  0  0  0  0  0  0  0  0  0
   -8.0810    5.3109   -9.7046 C   0  0  0  0  0  0  0  0  0  0  0  0
   -8.5063    4.1670   -9.0539 C   0  0  0  0  0  0  0  0  0  0  0  0
   -8.7337    2.9882   -9.7550 C   0  0  0  0  0  0  0  0  0  0  0  0
   -8.5854    2.9297  -11.1303 C   0  0  0  0  0  0  0  0  0  0  0  0
   -9.0948    1.9080   -8.7898 C   0  0  0  0  0  0  0  0  0  0  0  0
   -9.4580    2.6175   -7.5358 N   0  0  0  0  0  0  0  0  0  0  0  0
   -8.7708    3.9266   -7.6050 C   0  0  0  0  0  0  0  0  0  0  0  0
   -9.1385    2.0903   -6.7232 H   0  0  0  0  0  0  0  0  0  0  0  0
 12 13  1  0  0  0
 13 14  1  0  0  0
 13 15  1  0  0  0
 13  1  1  0  0  0
  1  2  2  0  0  0
  2  3  1  0  0  0
  3  4  2  0  0  0
  4  5  1  0  0  0
  5  6  1  0  0  0
  5  7  2  0  0  0
  7  8  1  0  0  0
  8 18  1  0  0  0
 18 19  2  0  0  0
 18 20  1  0  0  0
 20 22  1  0  0  0
 22 23  2  0  0  0
 23 24  1  0  0  0
 24 25  2  0  0  0
 25 26  1  0  0  0
 26 27  2  0  0  0
 26 28  1  0  0  0
 28 29  1  0  0  0
 29 30  1  0  0  0
  8  9  2  0  0  0
  9 10  1  0  0  0
 10  1  1  0  0  0
  9  3  1  0  0  0
 27 22  1  0  0  0
 30 25  1  0  0  0
 15 16  1  0  0  0
 15 17  1  0  0  0
 20 21  1  0  0  0
 29 31  1  0  0  0
 10 11  1  0  0  0
M  END
> <minimizedAffinity>
-9.01297

> <minimizedRMSD>
0.38998

$$$$
P18486


 29 32  0  0  0  0  0  0  0  0999 V2000
   -3.2209    5.5205  -15.8723 C   0  0  0  0  0  0  0  0  0  0  0  0
   -4.6820    5.3435  -15.9466 C   0  0  0  0  0  0  0  0  0  0  0  0
   -5.5136    5.2011  -14.9365 N   0  0  0  0  0  0  0  0  0  0  0  0
   -6.7421    4.9422  -15.4963 C   0  0  0  0  0  0  0  0  0  0  0  0
   -8.0100    4.7593  -14.9156 C   0  0  0  0  0  0  0  0  0  0  0  0
   -9.0946    4.4139  -15.7348 C   0  0  0  0  0  0  0  0  0  0  0  0
   -8.9211    4.3151  -17.1110 C   0  0  0  0  0  0  0  0  0  0  0  0
  -10.2881    4.1377  -18.1182 Cl  0  0  0  0  0  0  0  0  0  0  0  0
   -7.6907    4.5400  -17.7228 C   0  0  0  0  0  0  0  0  0  0  0  0
   -6.6299    4.8831  -16.8868 C   0  0  0  0  0  0  0  0  0  0  0  0
   -5.3607    5.3467  -17.1389 N   0  0  0  0  0  0  0  0  0  0  0  0
   -8.2770    5.1956  -13.5266 C   0  0  0  0  0  0  0  0  0  0  0  0
   -8.6170    6.2995  -13.3519 O   0  0  0  0  0  0  0  0  0  0  0  0
   -8.1407    4.0186  -12.5312 N   0  0  0  0  0  0  0  0  0  0  0  0
   -7.9046    3.1560  -12.9427 H   0  0  0  0  0  0  0  0  0  0  0  0
   -8.2977    3.9811  -11.1472 C   0  0  0  0  0  0  0  0  0  0  0  0
   -8.0555    5.1204  -10.3631 C   0  0  0  0  0  0  0  0  0  0  0  0
   -8.2553    5.0949   -8.9795 C   0  0  0  0  0  0  0  0  0  0  0  0
   -8.6905    3.9166   -8.4028 C   0  0  0  0  0  0  0  0  0  0  0  0
   -8.9301    2.7885   -9.1752 C   0  0  0  0  0  0  0  0  0  0  0  0
   -8.7432    2.8004  -10.5490 C   0  0  0  0  0  0  0  0  0  0  0  0
   -9.4047    1.6787   -8.3036 C   0  0  0  0  0  0  0  0  0  0  0  0
   -9.3569    2.1872   -6.9054 N   0  0  0  0  0  0  0  0  0  0  0  0
   -8.9946    3.6196   -6.9767 C   0  0  0  0  0  0  0  0  0  0  0  0
   -8.6556    1.6750   -6.3705 H   0  0  0  0  0  0  0  0  0  0  0  0
   -4.9513    6.1051  -18.3093 C   0  0  0  0  0  0  0  0  0  0  0  0
   -4.5231    5.1921  -19.3561 N   0  0  0  0  0  0  0  0  0  0  0  0
   -3.7365    4.6358  -19.0212 H   0  0  0  0  0  0  0  0  0  0  0  0
   -4.2370    5.7259  -20.1768 H   0  0  0  0  0  0  0  0  0  0  0  0
  1  2  1  0  0  0
  2  3  2  0  0  0
  3  4  1  0  0  0
  4  5  2  0  0  0
  5 12  1  0  0  0
 12 13  2  0  0  0
 12 14  1  0  0  0
 14 16  1  0  0  0
 16 17  2  0  0  0
 17 18  1  0  0  0
 18 19  2  0  0  0
 19 20  1  0  0  0
 20 21  2  0  0  0
 20 22  1  0  0  0
 22 23  1  0  0  0
 23 24  1  0  0  0
  5  6  1  0  0  0
  6  7  2  0  0  0
  7  8  1  0  0  0
  7  9  1  0  0  0
  9 10  2  0  0  0
 10 11  1  0  0  0
 11 26  1  0  0  0
 26 27  1  0  0  0
 11  2  1  0  0  0
 10  4  1  0  0  0
 21 16  1  0  0  0
 24 19  1  0  0  0
 14 15  1  0  0  0
 23 25  1  0  0  0
 27 28  1  0  0  0
 27 29  1  0  0  0
M  END
> <minimizedAffinity>
-8.81382

> <minimizedRMSD>
0.74830

$$$$
P18487


 31 35  0  0  0  0  0  0  0  0999 V2000
   -3.2651    5.4274  -16.4338 C   0  0  0  0  0  0  0  0  0  0  0  0
   -4.5947    6.1780  -16.5335 C   0  0  0  0  0  0  0  0  0  0  0  0
   -5.3567    5.8623  -15.3043 N   0  0  0  0  0  0  0  0  0  0  0  0
   -6.5503    5.2483  -15.7471 C   0  0  0  0  0  0  0  0  0  0  0  0
   -7.6113    4.8511  -14.9370 C   0  0  0  0  0  0  0  0  0  0  0  0
   -8.7417    4.2853  -15.5290 C   0  0  0  0  0  0  0  0  0  0  0  0
   -8.7905    4.1452  -16.9169 C   0  0  0  0  0  0  0  0  0  0  0  0
  -10.2710    3.7340  -17.6512 Cl  0  0  0  0  0  0  0  0  0  0  0  0
   -7.7248    4.5121  -17.7313 C   0  0  0  0  0  0  0  0  0  0  0  0
   -6.6147    5.0881  -17.1324 C   0  0  0  0  0  0  0  0  0  0  0  0
   -5.4854    5.8243  -17.7892 C   0  0  0  0  0  0  0  0  0  0  0  0
   -4.7829    5.1153  -18.9341 C   0  0  0  0  0  0  0  0  0  0  0  0
   -4.1711    6.2370  -19.7609 C   0  0  0  0  0  0  0  0  0  0  0  0
   -4.9404    7.4860  -19.3697 C   0  0  0  0  0  0  0  0  0  0  0  0
   -6.0148    7.0494  -18.4727 N   0  0  0  0  0  0  0  0  0  0  0  0
   -5.0885    6.0421  -14.3743 H   0  0  0  0  0  0  0  0  0  0  0  0
   -6.8560    6.8264  -19.0047 H   0  0  0  0  0  0  0  0  0  0  0  0
   -7.6763    5.2613  -13.5120 C   0  0  0  0  0  0  0  0  0  0  0  0
   -7.4899    6.3857  -13.2516 O   0  0  0  0  0  0  0  0  0  0  0  0
   -8.0958    4.0783  -12.6069 N   0  0  0  0  0  0  0  0  0  0  0  0
   -8.2637    3.2337  -13.0841 H   0  0  0  0  0  0  0  0  0  0  0  0
   -8.2743    4.0139  -11.2280 C   0  0  0  0  0  0  0  0  0  0  0  0
   -8.0376    5.1301  -10.4090 C   0  0  0  0  0  0  0  0  0  0  0  0
   -8.2675    5.0700   -9.0304 C   0  0  0  0  0  0  0  0  0  0  0  0
   -8.7411    3.8852   -8.4997 C   0  0  0  0  0  0  0  0  0  0  0  0
   -8.9609    2.7738   -9.3081 C   0  0  0  0  0  0  0  0  0  0  0  0
   -8.7298    2.8163  -10.6719 C   0  0  0  0  0  0  0  0  0  0  0  0
   -9.4330    1.6409   -8.4597 C   0  0  0  0  0  0  0  0  0  0  0  0
   -9.8527    2.2689   -7.1785 N   0  0  0  0  0  0  0  0  0  0  0  0
   -9.0886    3.5336   -7.0919 C   0  0  0  0  0  0  0  0  0  0  0  0
   -9.6261    1.6604   -6.3918 H   0  0  0  0  0  0  0  0  0  0  0  0
  2  1  1  0  0  0
  2  3  1  0  0  0
  3  4  1  0  0  0
  4  5  2  0  0  0
  5 18  1  0  0  0
 18 19  2  0  0  0
 18 20  1  0  0  0
 20 22  1  0  0  0
 22 23  2  0  0  0
 23 24  1  0  0  0
 24 25  2  0  0  0
 25 26  1  0  0  0
 26 27  2  0  0  0
 26 28  1  0  0  0
 28 29  1  0  0  0
 29 30  1  0  0  0
  5  6  1  0  0  0
  6  7  2  0  0  0
  7  8  1  0  0  0
  7  9  1  0  0  0
  9 10  2  0  0  0
 10 11  1  0  0  0
 11 12  1  0  0  0
 12 13  1  0  0  0
 13 14  1  0  0  0
 14 15  1  0  0  0
 11  2  1  0  0  0
 10  4  1  0  0  0
 15 11  1  0  0  0
 27 22  1  0  0  0
 30 25  1  0  0  0
  3 16  1  0  0  0
 20 21  1  0  0  0
 29 31  1  0  0  0
 15 17  1  0  0  0
M  END
> <minimizedAffinity>
-9.61139

> <minimizedRMSD>
0.23841

$$$$
P18488


 30 33  0  0  0  0  0  0  0  0999 V2000
   -2.7715    5.9872  -16.8136 C   0  0  0  0  0  0  0  0  0  0  0  0
   -4.1815    5.5849  -16.6515 C   0  0  0  0  0  0  0  0  0  0  0  0
   -5.0264    5.3327  -17.6227 N   0  0  0  0  0  0  0  0  0  0  0  0
   -6.1957    4.9548  -17.0089 C   0  0  0  0  0  0  0  0  0  0  0  0
   -7.4233    4.6083  -17.5843 C   0  0  0  0  0  0  0  0  0  0  0  0
   -8.4886    4.3091  -16.7278 C   0  0  0  0  0  0  0  0  0  0  0  0
  -10.0469    4.0338  -17.3945 Cl  0  0  0  0  0  0  0  0  0  0  0  0
   -8.3515    4.3609  -15.3435 C   0  0  0  0  0  0  0  0  0  0  0  0
   -7.1315    4.7417  -14.7709 C   0  0  0  0  0  0  0  0  0  0  0  0
   -6.0752    5.0251  -15.6346 C   0  0  0  0  0  0  0  0  0  0  0  0
   -4.7840    5.4392  -15.4277 N   0  0  0  0  0  0  0  0  0  0  0  0
   -4.3629    5.6032  -14.5531 H   0  0  0  0  0  0  0  0  0  0  0  0
   -7.6051    4.7287  -19.0476 C   0  0  0  0  0  0  0  0  0  0  0  0
   -7.4926    3.4889  -19.7900 N   0  0  0  0  0  0  0  0  0  0  0  0
   -6.5495    3.1145  -19.6857 H   0  0  0  0  0  0  0  0  0  0  0  0
   -7.6812    3.6652  -20.7768 H   0  0  0  0  0  0  0  0  0  0  0  0
   -6.9914    5.0003  -13.3250 C   0  0  0  0  0  0  0  0  0  0  0  0
   -6.2140    5.7997  -12.9802 O   0  0  0  0  0  0  0  0  0  0  0  0
   -8.0104    4.1811  -12.5099 N   0  0  0  0  0  0  0  0  0  0  0  0
   -8.6135    3.6201  -13.0491 H   0  0  0  0  0  0  0  0  0  0  0  0
   -8.2164    4.1052  -11.1409 C   0  0  0  0  0  0  0  0  0  0  0  0
   -7.9801    5.2150  -10.3134 C   0  0  0  0  0  0  0  0  0  0  0  0
   -8.2430    5.1493   -8.9434 C   0  0  0  0  0  0  0  0  0  0  0  0
   -8.7325    3.9619   -8.4341 C   0  0  0  0  0  0  0  0  0  0  0  0
   -8.9370    2.8554   -9.2543 C   0  0  0  0  0  0  0  0  0  0  0  0
   -8.6948    2.9079  -10.6121 C   0  0  0  0  0  0  0  0  0  0  0  0
   -9.3917    1.7087   -8.4188 C   0  0  0  0  0  0  0  0  0  0  0  0
   -9.8611    2.3264   -7.1529 N   0  0  0  0  0  0  0  0  0  0  0  0
   -9.1122    3.5984   -7.0375 C   0  0  0  0  0  0  0  0  0  0  0  0
   -9.6556    1.7177   -6.3606 H   0  0  0  0  0  0  0  0  0  0  0  0
  1  2  1  0  0  0
  2  3  2  0  0  0
  3  4  1  0  0  0
  4  5  2  0  0  0
  5 13  1  0  0  0
 13 14  1  0  0  0
  5  6  1  0  0  0
  6  7  1  0  0  0
  6  8  2  0  0  0
  8  9  1  0  0  0
  9 17  1  0  0  0
 17 18  2  0  0  0
 17 19  1  0  0  0
 19 21  1  0  0  0
 21 22  2  0  0  0
 22 23  1  0  0  0
 23 24  2  0  0  0
 24 25  1  0  0  0
 25 26  2  0  0  0
 25 27  1  0  0  0
 27 28  1  0  0  0
 28 29  1  0  0  0
  9 10  2  0  0  0
 10 11  1  0  0  0
 11  2  1  0  0  0
 10  4  1  0  0  0
 26 21  1  0  0  0
 29 24  1  0  0  0
 14 15  1  0  0  0
 14 16  1  0  0  0
 19 20  1  0  0  0
 28 30  1  0  0  0
 11 12  1  0  0  0
M  END
> <minimizedAffinity>
-7.64711

> <minimizedRMSD>
0.23050

$$$$
P18489


 30 33  0  0  0  0  0  0  0  0999 V2000
   -6.9924    4.5986  -13.8585 C   0  0  0  0  0  0  0  0  0  0  0  0
   -5.9111    4.9497  -13.5809 O   0  0  0  0  0  0  0  0  0  0  0  0
   -8.1933    4.2311  -12.9502 N   0  0  0  0  0  0  0  0  0  0  0  0
   -8.9822    3.8879  -13.4289 H   0  0  0  0  0  0  0  0  0  0  0  0
   -3.0616    5.8884  -17.5120 C   0  0  0  0  0  0  0  0  0  0  0  0
   -4.4755    5.4947  -17.3284 C   0  0  0  0  0  0  0  0  0  0  0  0
   -5.3846    5.3463  -18.2672 N   0  0  0  0  0  0  0  0  0  0  0  0
   -6.5409    4.9797  -17.6165 C   0  0  0  0  0  0  0  0  0  0  0  0
   -7.8134    4.7089  -18.1253 C   0  0  0  0  0  0  0  0  0  0  0  0
   -8.8254    4.4002  -17.2123 C   0  0  0  0  0  0  0  0  0  0  0  0
  -10.4233    4.1740  -17.7814 Cl  0  0  0  0  0  0  0  0  0  0  0  0
   -8.5982    4.3288  -15.8346 C   0  0  0  0  0  0  0  0  0  0  0  0
   -7.3209    4.5612  -15.3146 C   0  0  0  0  0  0  0  0  0  0  0  0
   -6.3304    4.9040  -16.2473 C   0  0  0  0  0  0  0  0  0  0  0  0
   -5.0097    5.2435  -16.0923 N   0  0  0  0  0  0  0  0  0  0  0  0
   -4.5269    5.2975  -15.2360 H   0  0  0  0  0  0  0  0  0  0  0  0
   -8.3388    4.3079  -11.5610 C   0  0  0  0  0  0  0  0  0  0  0  0
   -8.6662    3.0975  -10.9259 C   0  0  0  0  0  0  0  0  0  0  0  0
   -8.7634    3.0586   -9.5435 C   0  0  0  0  0  0  0  0  0  0  0  0
   -8.5395    4.1896   -8.7725 C   0  0  0  0  0  0  0  0  0  0  0  0
   -8.2490    5.4010   -9.3647 C   0  0  0  0  0  0  0  0  0  0  0  0
   -8.1812    5.4696  -10.7724 C   0  0  0  0  0  0  0  0  0  0  0  0
   -8.7281    3.8475   -7.3322 C   0  0  0  0  0  0  0  0  0  0  0  0
   -9.4165    2.5409   -7.3308 N   0  0  0  0  0  0  0  0  0  0  0  0
   -9.0887    1.9147   -8.6387 C   0  0  0  0  0  0  0  0  0  0  0  0
  -10.4243    2.6696   -7.2404 H   0  0  0  0  0  0  0  0  0  0  0  0
   -8.2470    7.1269  -11.4373 S   0  0  0  0  0  0  0  0  0  0  0  0
   -6.5475    7.6384  -11.5099 C   0  0  0  0  0  0  0  0  0  0  0  0
   -8.8383    7.0993  -12.7634 O   0  0  0  0  0  0  0  0  0  0  0  0
   -8.8792    7.9620  -10.4278 O   0  0  0  0  0  0  0  0  0  0  0  0
  5  6  1  0  0  0
  6  7  2  0  0  0
  7  8  1  0  0  0
  8  9  2  0  0  0
  9 10  1  0  0  0
 10 11  1  0  0  0
 10 12  2  0  0  0
 12 13  1  0  0  0
 13  1  1  0  0  0
  1  2  2  0  0  0
  1  3  1  0  0  0
  3 17  1  0  0  0
 17 18  2  0  0  0
 18 19  1  0  0  0
 19 20  2  0  0  0
 20 21  1  0  0  0
 21 22  2  0  0  0
 22 27  1  0  0  0
 27 28  1  0  0  0
 27 29  2  0  0  0
 27 30  2  0  0  0
 20 23  1  0  0  0
 23 24  1  0  0  0
 24 25  1  0  0  0
 13 14  2  0  0  0
 14 15  1  0  0  0
 15  6  1  0  0  0
 14  8  1  0  0  0
 22 17  1  0  0  0
 25 19  1  0  0  0
  3  4  1  0  0  0
 24 26  1  0  0  0
 15 16  1  0  0  0
M  END
> <minimizedAffinity>
-8.46154

> <minimizedRMSD>
0.39604

$$$$
P18491


 26 29  0  0  0  0  0  0  0  0999 V2000
   -7.5440    5.2972  -13.8894 C   0  0  0  0  0  0  0  0  0  0  0  0
   -7.1479    6.3695  -13.6463 O   0  0  0  0  0  0  0  0  0  0  0  0
   -8.1272    4.2055  -12.9551 N   0  0  0  0  0  0  0  0  0  0  0  0
   -8.4653    3.4048  -13.4174 H   0  0  0  0  0  0  0  0  0  0  0  0
   -3.2411    5.6753  -17.4797 C   0  0  0  0  0  0  0  0  0  0  0  0
   -4.6597    5.3804  -17.1752 C   0  0  0  0  0  0  0  0  0  0  0  0
   -5.2346    5.4042  -15.9907 N   0  0  0  0  0  0  0  0  0  0  0  0
   -6.5439    5.0267  -16.1905 C   0  0  0  0  0  0  0  0  0  0  0  0
   -7.6245    4.8702  -15.3038 C   0  0  0  0  0  0  0  0  0  0  0  0
   -8.8711    4.4726  -15.8111 C   0  0  0  0  0  0  0  0  0  0  0  0
   -9.0385    4.2747  -17.1781 C   0  0  0  0  0  0  0  0  0  0  0  0
  -10.6118    4.0616  -17.8039 Cl  0  0  0  0  0  0  0  0  0  0  0  0
   -7.9856    4.3930  -18.0795 C   0  0  0  0  0  0  0  0  0  0  0  0
   -6.7598    4.7775  -17.5449 C   0  0  0  0  0  0  0  0  0  0  0  0
   -5.5572    5.0276  -18.1490 N   0  0  0  0  0  0  0  0  0  0  0  0
   -5.3699    4.9650  -19.1135 H   0  0  0  0  0  0  0  0  0  0  0  0
   -8.2507    4.1736  -11.5659 C   0  0  0  0  0  0  0  0  0  0  0  0
   -8.0217    5.3203  -10.7906 C   0  0  0  0  0  0  0  0  0  0  0  0
   -8.1868    5.2916   -9.4014 C   0  0  0  0  0  0  0  0  0  0  0  0
   -8.5775    4.1040   -8.8103 C   0  0  0  0  0  0  0  0  0  0  0  0
   -8.8078    2.9680   -9.5735 C   0  0  0  0  0  0  0  0  0  0  0  0
   -8.6513    2.9823  -10.9518 C   0  0  0  0  0  0  0  0  0  0  0  0
   -9.2376    1.8503   -8.6873 C   0  0  0  0  0  0  0  0  0  0  0  0
   -9.1793    2.3680   -7.2922 N   0  0  0  0  0  0  0  0  0  0  0  0
   -8.8350    3.8040   -7.3756 C   0  0  0  0  0  0  0  0  0  0  0  0
   -8.4656    1.8673   -6.7626 H   0  0  0  0  0  0  0  0  0  0  0  0
  5  6  1  0  0  0
  6  7  2  0  0  0
  7  8  1  0  0  0
  8  9  2  0  0  0
  9  1  1  0  0  0
  1  2  2  0  0  0
  1  3  1  0  0  0
  3 17  1  0  0  0
 17 18  2  0  0  0
 18 19  1  0  0  0
 19 20  2  0  0  0
 20 21  1  0  0  0
 21 22  2  0  0  0
 21 23  1  0  0  0
 23 24  1  0  0  0
 24 25  1  0  0  0
  9 10  1  0  0  0
 10 11  2  0  0  0
 11 12  1  0  0  0
 11 13  1  0  0  0
 13 14  2  0  0  0
 14 15  1  0  0  0
 15  6  1  0  0  0
 14  8  1  0  0  0
 22 17  1  0  0  0
 25 20  1  0  0  0
  3  4  1  0  0  0
 24 26  1  0  0  0
 15 16  1  0  0  0
M  END
> <minimizedAffinity>
-8.39711

> <minimizedRMSD>
0.19960

$$$$
P18492


 31 34  0  0  0  0  0  0  0  0999 V2000
   -4.8202    5.4683  -17.7829 C   0  0  0  0  0  0  0  0  0  0  0  0
   -5.7841    5.1980  -18.6406 N   0  0  0  0  0  0  0  0  0  0  0  0
   -6.8525    4.8038  -17.8939 C   0  0  0  0  0  0  0  0  0  0  0  0
   -8.1290    4.4454  -18.3166 C   0  0  0  0  0  0  0  0  0  0  0  0
   -9.0817    4.1964  -17.3349 C   0  0  0  0  0  0  0  0  0  0  0  0
  -10.7109    4.0685  -17.8294 Cl  0  0  0  0  0  0  0  0  0  0  0  0
   -8.7749    4.2092  -15.9725 C   0  0  0  0  0  0  0  0  0  0  0  0
   -7.4873    4.5429  -15.5435 C   0  0  0  0  0  0  0  0  0  0  0  0
   -6.5557    4.8475  -16.5400 C   0  0  0  0  0  0  0  0  0  0  0  0
   -5.2447    5.2520  -16.4959 N   0  0  0  0  0  0  0  0  0  0  0  0
   -4.7028    5.3671  -15.6820 H   0  0  0  0  0  0  0  0  0  0  0  0
   -3.4603    5.9336  -18.2013 C   0  0  0  0  0  0  0  0  0  0  0  0
   -3.4409    5.9823  -19.6679 N   0  0  0  0  0  0  0  0  0  0  0  0
   -3.5864    5.0443  -20.0412 H   0  0  0  0  0  0  0  0  0  0  0  0
   -2.5388    6.3380  -19.9844 H   0  0  0  0  0  0  0  0  0  0  0  0
   -1.3700    5.8074  -16.7436 C   0  0  0  0  0  0  0  0  0  0  0  0
   -2.2852    5.0725  -17.7184 C   0  0  0  0  0  0  0  0  0  0  0  0
   -7.1626    4.7834  -14.1173 C   0  0  0  0  0  0  0  0  0  0  0  0
   -6.2954    5.5334  -13.8880 O   0  0  0  0  0  0  0  0  0  0  0  0
   -8.1027    4.0127  -13.1584 N   0  0  0  0  0  0  0  0  0  0  0  0
   -8.7093    3.3753  -13.6000 H   0  0  0  0  0  0  0  0  0  0  0  0
   -8.2300    4.0744  -11.7714 C   0  0  0  0  0  0  0  0  0  0  0  0
   -7.9398    5.2562  -11.0709 C   0  0  0  0  0  0  0  0  0  0  0  0
   -8.0850    5.3220   -9.6815 C   0  0  0  0  0  0  0  0  0  0  0  0
   -8.4913    4.1839   -9.0121 C   0  0  0  0  0  0  0  0  0  0  0  0
   -8.7682    3.0097   -9.6998 C   0  0  0  0  0  0  0  0  0  0  0  0
   -8.6607    2.9389  -11.0807 C   0  0  0  0  0  0  0  0  0  0  0  0
   -9.1914    1.9593   -8.7319 C   0  0  0  0  0  0  0  0  0  0  0  0
   -8.9801    2.5309   -7.3745 N   0  0  0  0  0  0  0  0  0  0  0  0
   -8.7259    3.9761   -7.5567 C   0  0  0  0  0  0  0  0  0  0  0  0
   -8.1785    2.0867   -6.9269 H   0  0  0  0  0  0  0  0  0  0  0  0
 16 17  1  0  0  0
 17 12  1  0  0  0
 12 13  1  0  0  0
 12  1  1  0  0  0
  1  2  2  0  0  0
  2  3  1  0  0  0
  3  4  2  0  0  0
  4  5  1  0  0  0
  5  6  1  0  0  0
  5  7  2  0  0  0
  7  8  1  0  0  0
  8 18  1  0  0  0
 18 19  2  0  0  0
 18 20  1  0  0  0
 20 22  1  0  0  0
 22 23  2  0  0  0
 23 24  1  0  0  0
 24 25  2  0  0  0
 25 26  1  0  0  0
 26 27  2  0  0  0
 26 28  1  0  0  0
 28 29  1  0  0  0
 29 30  1  0  0  0
  8  9  2  0  0  0
  9 10  1  0  0  0
 10  1  1  0  0  0
  9  3  1  0  0  0
 27 22  1  0  0  0
 30 25  1  0  0  0
 13 14  1  0  0  0
 13 15  1  0  0  0
 20 21  1  0  0  0
 29 31  1  0  0  0
 10 11  1  0  0  0
M  END
> <minimizedAffinity>
-8.47622

> <minimizedRMSD>
0.69436

$$$$
P18493


 28 31  0  0  0  0  0  0  0  0999 V2000
   -8.6000    4.3679  -16.4712 C   0  0  0  0  0  0  0  0  0  0  0  0
   -8.3639    4.4606  -15.0973 C   0  0  0  0  0  0  0  0  0  0  0  0
   -7.0934    4.8018  -14.6091 C   0  0  0  0  0  0  0  0  0  0  0  0
   -6.0602    5.0459  -15.5310 C   0  0  0  0  0  0  0  0  0  0  0  0
   -4.7200    5.3234  -15.3691 N   0  0  0  0  0  0  0  0  0  0  0  0
   -4.2188    5.4181  -16.5827 C   0  0  0  0  0  0  0  0  0  0  0  0
   -2.8052    5.6176  -16.9479 C   0  0  0  0  0  0  0  0  0  0  0  0
   -5.1938    5.2889  -17.5322 N   0  0  0  0  0  0  0  0  0  0  0  0
   -6.3614    4.9970  -16.8888 C   0  0  0  0  0  0  0  0  0  0  0  0
   -7.6112    4.6898  -17.3994 C   0  0  0  0  0  0  0  0  0  0  0  0
   -5.0750    5.3884  -18.5045 H   0  0  0  0  0  0  0  0  0  0  0  0
   -6.8928    4.9788  -13.1526 C   0  0  0  0  0  0  0  0  0  0  0  0
   -6.0950    5.7470  -12.7787 O   0  0  0  0  0  0  0  0  0  0  0  0
   -7.8968    4.1039  -12.3560 N   0  0  0  0  0  0  0  0  0  0  0  0
   -8.4183    3.4731  -12.9031 H   0  0  0  0  0  0  0  0  0  0  0  0
   -8.1805    4.0659  -10.9906 C   0  0  0  0  0  0  0  0  0  0  0  0
   -8.0183    5.1962  -10.1762 C   0  0  0  0  0  0  0  0  0  0  0  0
   -8.2844    5.1349   -8.8030 C   0  0  0  0  0  0  0  0  0  0  0  0
   -8.7172    3.9345   -8.2682 C   0  0  0  0  0  0  0  0  0  0  0  0
   -8.9052    2.8213   -9.0744 C   0  0  0  0  0  0  0  0  0  0  0  0
   -8.6394    2.8656  -10.4355 C   0  0  0  0  0  0  0  0  0  0  0  0
   -9.4095    1.6867   -8.2505 C   0  0  0  0  0  0  0  0  0  0  0  0
   -9.4316    2.1639   -6.8402 N   0  0  0  0  0  0  0  0  0  0  0  0
   -9.0499    3.5930   -6.8581 C   0  0  0  0  0  0  0  0  0  0  0  0
   -8.7662    1.6311   -6.2801 H   0  0  0  0  0  0  0  0  0  0  0  0
   -9.9719    4.3526  -18.3627 C   0  0  0  0  0  0  0  0  0  0  0  0
   -9.8908    4.0681  -16.9348 N   0  0  0  0  0  0  0  0  0  0  0  0
  -10.6270    3.7197  -16.3818 H   0  0  0  0  0  0  0  0  0  0  0  0
 26 27  1  0  0  0
 27  1  1  0  0  0
  1  2  2  0  0  0
  2  3  1  0  0  0
  3 12  1  0  0  0
 12 13  2  0  0  0
 12 14  1  0  0  0
 14 16  1  0  0  0
 16 17  2  0  0  0
 17 18  1  0  0  0
 18 19  2  0  0  0
 19 20  1  0  0  0
 20 21  2  0  0  0
 20 22  1  0  0  0
 22 23  1  0  0  0
 23 24  1  0  0  0
  3  4  2  0  0  0
  4  5  1  0  0  0
  5  6  2  0  0  0
  6  7  1  0  0  0
  6  8  1  0  0  0
  8  9  1  0  0  0
  9 10  2  0  0  0
 10  1  1  0  0  0
 21 16  1  0  0  0
  9  4  1  0  0  0
 24 19  1  0  0  0
 27 28  1  0  0  0
 14 15  1  0  0  0
 23 25  1  0  0  0
  8 11  1  0  0  0
M  END
> <minimizedAffinity>
-8.20825

> <minimizedRMSD>
0.78804

$$$$
P18494


 29 32  0  0  0  0  0  0  0  0999 V2000
   -8.6080    4.0024  -16.7234 C   0  0  0  0  0  0  0  0  0  0  0  0
   -8.5804    4.2725  -15.3496 C   0  0  0  0  0  0  0  0  0  0  0  0
   -7.4597    4.8424  -14.7499 C   0  0  0  0  0  0  0  0  0  0  0  0
   -6.3936    5.1513  -15.5869 C   0  0  0  0  0  0  0  0  0  0  0  0
   -5.1695    5.7073  -15.3358 N   0  0  0  0  0  0  0  0  0  0  0  0
   -4.4938    5.7933  -16.5206 C   0  0  0  0  0  0  0  0  0  0  0  0
   -3.1348    6.3490  -16.5998 C   0  0  0  0  0  0  0  0  0  0  0  0
   -5.2188    5.3356  -17.5153 N   0  0  0  0  0  0  0  0  0  0  0  0
   -6.4004    4.9197  -16.9523 C   0  0  0  0  0  0  0  0  0  0  0  0
   -7.5252    4.3409  -17.5585 C   0  0  0  0  0  0  0  0  0  0  0  0
   -7.5761    4.0671  -19.0243 C   0  0  0  0  0  0  0  0  0  0  0  0
   -4.8340    5.9951  -14.4561 H   0  0  0  0  0  0  0  0  0  0  0  0
   -7.3972    5.1877  -13.3133 C   0  0  0  0  0  0  0  0  0  0  0  0
   -6.7841    6.1304  -12.9973 O   0  0  0  0  0  0  0  0  0  0  0  0
   -8.2076    4.1882  -12.4598 N   0  0  0  0  0  0  0  0  0  0  0  0
   -8.7036    3.5126  -12.9763 H   0  0  0  0  0  0  0  0  0  0  0  0
   -8.3509    4.0869  -11.0805 C   0  0  0  0  0  0  0  0  0  0  0  0
   -8.0886    5.1806  -10.2396 C   0  0  0  0  0  0  0  0  0  0  0  0
   -8.2932    5.0851   -8.8598 C   0  0  0  0  0  0  0  0  0  0  0  0
   -8.7605    3.8875   -8.3522 C   0  0  0  0  0  0  0  0  0  0  0  0
   -8.9906    2.7950   -9.1834 C   0  0  0  0  0  0  0  0  0  0  0  0
   -8.7926    2.8739  -10.5492 C   0  0  0  0  0  0  0  0  0  0  0  0
   -9.4386    1.6389   -8.3550 C   0  0  0  0  0  0  0  0  0  0  0  0
   -9.8593    2.2380   -7.0619 N   0  0  0  0  0  0  0  0  0  0  0  0
   -9.1020    3.5053   -6.9507 C   0  0  0  0  0  0  0  0  0  0  0  0
   -9.6282    1.6151   -6.2880 H   0  0  0  0  0  0  0  0  0  0  0  0
  -10.5512    4.5618  -17.9301 C   0  0  0  0  0  0  0  0  0  0  0  0
   -9.8020    3.4938  -17.2745 N   0  0  0  0  0  0  0  0  0  0  0  0
  -10.0893    2.5534  -17.2245 H   0  0  0  0  0  0  0  0  0  0  0  0
 27 28  1  0  0  0
 28  1  1  0  0  0
  1  2  2  0  0  0
  2  3  1  0  0  0
  3 13  1  0  0  0
 13 14  2  0  0  0
 13 15  1  0  0  0
 15 17  1  0  0  0
 17 18  2  0  0  0
 18 19  1  0  0  0
 19 20  2  0  0  0
 20 21  1  0  0  0
 21 22  2  0  0  0
 21 23  1  0  0  0
 23 24  1  0  0  0
 24 25  1  0  0  0
  3  4  2  0  0  0
  4  5  1  0  0  0
  5  6  1  0  0  0
  6  7  1  0  0  0
  6  8  2  0  0  0
  8  9  1  0  0  0
  9 10  2  0  0  0
 10 11  1  0  0  0
 10  1  1  0  0  0
 22 17  1  0  0  0
  9  4  1  0  0  0
 25 20  1  0  0  0
 28 29  1  0  0  0
 15 16  1  0  0  0
 24 26  1  0  0  0
  5 12  1  0  0  0
M  END
> <minimizedAffinity>
-7.59981

> <minimizedRMSD>
0.27628

$$$$
P18500


 27 30  0  0  0  0  0  0  0  0999 V2000
   -7.3981    5.0652  -13.9496 C   0  0  0  0  0  0  0  0  0  0  0  0
   -6.8090    6.0476  -13.7115 O   0  0  0  0  0  0  0  0  0  0  0  0
   -8.0677    4.0418  -13.0010 N   0  0  0  0  0  0  0  0  0  0  0  0
   -8.4402    3.2477  -13.4481 H   0  0  0  0  0  0  0  0  0  0  0  0
   -3.2642    5.6482  -17.7092 C   0  0  0  0  0  0  0  0  0  0  0  0
   -4.6876    5.3270  -17.4674 C   0  0  0  0  0  0  0  0  0  0  0  0
   -5.5959    5.0551  -18.3781 N   0  0  0  0  0  0  0  0  0  0  0  0
   -6.7431    4.7743  -17.6805 C   0  0  0  0  0  0  0  0  0  0  0  0
   -8.0006    4.4202  -18.1730 C   0  0  0  0  0  0  0  0  0  0  0  0
   -9.0392    4.2585  -17.2601 C   0  0  0  0  0  0  0  0  0  0  0  0
  -10.6258    4.0623  -17.8613 Cl  0  0  0  0  0  0  0  0  0  0  0  0
   -8.8462    4.3871  -15.8854 C   0  0  0  0  0  0  0  0  0  0  0  0
   -7.5859    4.7243  -15.3787 C   0  0  0  0  0  0  0  0  0  0  0  0
   -6.5520    4.9174  -16.3076 C   0  0  0  0  0  0  0  0  0  0  0  0
   -5.2287    5.2583  -16.2137 N   0  0  0  0  0  0  0  0  0  0  0  0
   -4.4993    5.4561  -15.0514 O   0  0  0  0  0  0  0  0  0  0  0  0
   -5.0834    5.3604  -14.2829 H   0  0  0  0  0  0  0  0  0  0  0  0
   -8.2292    4.0614  -11.6168 C   0  0  0  0  0  0  0  0  0  0  0  0
   -7.9709    5.2245  -10.8744 C   0  0  0  0  0  0  0  0  0  0  0  0
   -8.1425    5.2428   -9.4863 C   0  0  0  0  0  0  0  0  0  0  0  0
   -8.5478    4.0790   -8.8608 C   0  0  0  0  0  0  0  0  0  0  0  0
   -8.8011    2.9255   -9.5911 C   0  0  0  0  0  0  0  0  0  0  0  0
   -8.6641    2.9005  -10.9711 C   0  0  0  0  0  0  0  0  0  0  0  0
   -9.2318    1.8396   -8.6664 C   0  0  0  0  0  0  0  0  0  0  0  0
   -9.0610    2.3710   -7.2869 N   0  0  0  0  0  0  0  0  0  0  0  0
   -8.8006    3.8206   -7.4166 C   0  0  0  0  0  0  0  0  0  0  0  0
   -8.2733    1.9124   -6.8290 H   0  0  0  0  0  0  0  0  0  0  0  0
  5  6  1  0  0  0
  6  7  2  0  0  0
  7  8  1  0  0  0
  8  9  2  0  0  0
  9 10  1  0  0  0
 10 11  1  0  0  0
 10 12  2  0  0  0
 12 13  1  0  0  0
 13  1  1  0  0  0
  1  2  2  0  0  0
  1  3  1  0  0  0
  3 18  1  0  0  0
 18 19  2  0  0  0
 19 20  1  0  0  0
 20 21  2  0  0  0
 21 22  1  0  0  0
 22 23  2  0  0  0
 22 24  1  0  0  0
 24 25  1  0  0  0
 25 26  1  0  0  0
 13 14  2  0  0  0
 14 15  1  0  0  0
 15 16  1  0  0  0
 15  6  1  0  0  0
 14  8  1  0  0  0
 23 18  1  0  0  0
 26 21  1  0  0  0
  3  4  1  0  0  0
 25 27  1  0  0  0
 16 17  1  0  0  0
M  END
> <minimizedAffinity>
-8.73621

> <minimizedRMSD>
0.26237

$$$$
P18507


 27 30  0  0  0  0  0  0  0  0999 V2000
   -8.1221    4.1160  -12.7339 N   0  0  0  0  0  0  0  0  0  0  0  0
   -7.7381    5.2777  -13.6732 C   0  0  0  0  0  0  0  0  0  0  0  0
   -7.5761    6.4114  -13.4477 O   0  0  0  0  0  0  0  0  0  0  0  0
   -8.2739    3.2542  -13.1850 H   0  0  0  0  0  0  0  0  0  0  0  0
   -7.6708    4.8497  -15.0804 C   0  0  0  0  0  0  0  0  0  0  0  0
   -8.8208    4.4841  -15.7741 C   0  0  0  0  0  0  0  0  0  0  0  0
   -8.7882    4.3635  -17.1619 C   0  0  0  0  0  0  0  0  0  0  0  0
  -10.2666    4.1286  -17.9821 Cl  0  0  0  0  0  0  0  0  0  0  0  0
   -7.6213    4.5656  -17.9044 C   0  0  0  0  0  0  0  0  0  0  0  0
   -6.4575    4.9069  -17.2071 C   0  0  0  0  0  0  0  0  0  0  0  0
   -5.1951    5.1961  -17.6804 N   0  0  0  0  0  0  0  0  0  0  0  0
   -4.4598    5.4166  -16.6061 C   0  0  0  0  0  0  0  0  0  0  0  0
   -3.0149    5.7187  -16.5562 C   0  0  0  0  0  0  0  0  0  0  0  0
   -5.2237    5.3019  -15.4836 N   0  0  0  0  0  0  0  0  0  0  0  0
   -4.7386    5.2872  -14.1979 F   0  0  0  0  0  0  0  0  0  0  0  0
   -6.5065    5.0214  -15.8221 C   0  0  0  0  0  0  0  0  0  0  0  0
   -7.9870    6.4400   -8.3631 C   0  0  0  0  0  0  0  0  0  0  0  0
   -8.2409    5.2144   -9.1815 C   0  0  0  0  0  0  0  0  0  0  0  0
   -8.0441    5.2284  -10.5714 C   0  0  0  0  0  0  0  0  0  0  0  0
   -8.2888    4.0877  -11.3530 C   0  0  0  0  0  0  0  0  0  0  0  0
   -8.7160    2.9043  -10.7536 C   0  0  0  0  0  0  0  0  0  0  0  0
   -8.8762    2.8871   -9.3781 C   0  0  0  0  0  0  0  0  0  0  0  0
   -8.6429    4.0173   -8.6033 C   0  0  0  0  0  0  0  0  0  0  0  0
   -8.8946    3.6871   -7.1705 C   0  0  0  0  0  0  0  0  0  0  0  0
   -9.3779    2.2906   -7.1257 N   0  0  0  0  0  0  0  0  0  0  0  0
   -9.2745    1.7486   -8.5054 C   0  0  0  0  0  0  0  0  0  0  0  0
  -10.3481    2.2659   -6.8118 H   0  0  0  0  0  0  0  0  0  0  0  0
 17 18  1  0  0  0
 18 19  2  0  0  0
 19 20  1  0  0  0
 20  1  1  0  0  0
  1  2  1  0  0  0
  2  3  2  0  0  0
  2  5  1  0  0  0
  5  6  2  0  0  0
  6  7  1  0  0  0
  7  8  1  0  0  0
  7  9  2  0  0  0
  9 10  1  0  0  0
 10 11  1  0  0  0
 11 12  2  0  0  0
 12 13  1  0  0  0
 12 14  1  0  0  0
 14 15  1  0  0  0
 14 16  1  0  0  0
 20 21  2  0  0  0
 21 22  1  0  0  0
 22 23  2  0  0  0
 23 24  1  0  0  0
 24 25  1  0  0  0
 25 26  1  0  0  0
 23 18  1  0  0  0
 16  5  1  0  0  0
 26 22  1  0  0  0
 16 10  2  0  0  0
  1  4  1  0  0  0
 25 27  1  0  0  0
M  END
> <minimizedAffinity>
-8.77447

> <minimizedRMSD>
0.16805

$$$$
P18509


 32 36  0  0  0  0  0  0  0  0999 V2000
   -7.0354    4.6885  -15.0967 C   0  0  0  0  0  0  0  0  0  0  0  0
   -8.2988    4.3670  -15.5976 C   0  0  0  0  0  0  0  0  0  0  0  0
   -8.5335    4.4371  -16.9782 C   0  0  0  0  0  0  0  0  0  0  0  0
  -10.1347    4.2724  -17.5592 Cl  0  0  0  0  0  0  0  0  0  0  0  0
   -7.5347    4.8141  -17.8757 C   0  0  0  0  0  0  0  0  0  0  0  0
   -6.2857    5.1370  -17.3680 C   0  0  0  0  0  0  0  0  0  0  0  0
   -6.0231    5.0256  -15.9968 C   0  0  0  0  0  0  0  0  0  0  0  0
   -4.6838    5.3610  -15.6447 N   0  0  0  0  0  0  0  0  0  0  0  0
   -4.0171    5.5569  -16.9518 C   0  0  0  0  0  0  0  0  0  0  0  0
   -2.9091    6.5969  -16.8120 C   0  0  0  0  0  0  0  0  0  0  0  0
   -5.1221    5.7879  -18.0624 C   0  0  0  0  0  0  0  0  0  0  0  0
   -4.8081    5.1841  -19.3554 N   0  0  0  0  0  0  0  0  0  0  0  0
   -4.1708    6.1809  -20.2027 C   0  0  0  0  0  0  0  0  0  0  0  0
   -5.0263    7.4326  -20.1528 C   0  0  0  0  0  0  0  0  0  0  0  0
   -5.4665    7.5692  -18.4093 S   0  0  0  0  0  0  0  0  0  0  0  0
   -4.2938    5.4430  -14.7445 H   0  0  0  0  0  0  0  0  0  0  0  0
   -5.6673    4.8581  -19.7980 H   0  0  0  0  0  0  0  0  0  0  0  0
   -8.0026    4.3907  -12.7776 N   0  0  0  0  0  0  0  0  0  0  0  0
   -6.8450    4.9541  -13.6445 C   0  0  0  0  0  0  0  0  0  0  0  0
   -5.9167    5.6005  -13.3434 O   0  0  0  0  0  0  0  0  0  0  0  0
   -8.7133    3.9356  -13.2845 H   0  0  0  0  0  0  0  0  0  0  0  0
   -7.8342    6.9487  -10.9600 C   0  0  0  0  0  0  0  0  0  0  0  0
   -8.0954    5.5451  -10.5226 C   0  0  0  0  0  0  0  0  0  0  0  0
   -8.2882    5.3893   -9.1308 C   0  0  0  0  0  0  0  0  0  0  0  0
   -8.6388    4.1595   -8.6221 C   0  0  0  0  0  0  0  0  0  0  0  0
   -8.7800    3.0714   -9.4576 C   0  0  0  0  0  0  0  0  0  0  0  0
   -8.5630    3.1823  -10.8232 C   0  0  0  0  0  0  0  0  0  0  0  0
   -8.2023    4.4247  -11.3813 C   0  0  0  0  0  0  0  0  0  0  0  0
   -9.1448    1.8762   -8.6488 C   0  0  0  0  0  0  0  0  0  0  0  0
   -9.3818    2.3621   -7.2617 N   0  0  0  0  0  0  0  0  0  0  0  0
   -8.9352    3.7689   -7.2182 C   0  0  0  0  0  0  0  0  0  0  0  0
   -8.8458    1.8032   -6.5979 H   0  0  0  0  0  0  0  0  0  0  0  0
 22 23  1  0  0  0
 23 24  2  0  0  0
 24 25  1  0  0  0
 25 26  2  0  0  0
 26 27  1  0  0  0
 27 28  2  0  0  0
 28 18  1  0  0  0
 18 19  1  0  0  0
 19 20  2  0  0  0
 19  1  1  0  0  0
  1  2  2  0  0  0
  2  3  1  0  0  0
  3  4  1  0  0  0
  3  5  2  0  0  0
  5  6  1  0  0  0
  6  7  2  0  0  0
  7  8  1  0  0  0
  8  9  1  0  0  0
  9 10  1  0  0  0
  9 11  1  0  0  0
 11 12  1  0  0  0
 12 13  1  0  0  0
 13 14  1  0  0  0
 14 15  1  0  0  0
 26 29  1  0  0  0
 29 30  1  0  0  0
 30 31  1  0  0  0
 28 23  1  0  0  0
  7  1  1  0  0  0
 15 11  1  0  0  0
 31 25  1  0  0  0
 11  6  1  0  0  0
 18 21  1  0  0  0
  8 16  1  0  0  0
 12 17  1  0  0  0
 30 32  1  0  0  0
M  END
> <minimizedAffinity>
-9.39478

> <minimizedRMSD>
0.47591

$$$$
P18510


 36 39  0  0  0  0  0  0  0  0999 V2000
   -2.7441    5.4057  -15.5552 C   0  0  0  0  0  0  0  0  0  0  0  0
   -4.1394    5.3338  -16.0623 C   0  0  0  0  0  0  0  0  0  0  0  0
   -4.7653    5.2187  -17.2926 C   0  0  0  0  0  0  0  0  0  0  0  0
   -6.1535    4.9294  -17.0471 C   0  0  0  0  0  0  0  0  0  0  0  0
   -7.2690    4.5976  -17.8440 C   0  0  0  0  0  0  0  0  0  0  0  0
   -8.5153    4.4374  -17.2241 C   0  0  0  0  0  0  0  0  0  0  0  0
   -9.9019    4.1743  -18.1800 Cl  0  0  0  0  0  0  0  0  0  0  0  0
   -8.6999    4.6302  -15.8608 C   0  0  0  0  0  0  0  0  0  0  0  0
   -7.6224    5.0183  -15.0800 C   0  0  0  0  0  0  0  0  0  0  0  0
   -6.3592    5.1018  -15.6801 C   0  0  0  0  0  0  0  0  0  0  0  0
   -5.1358    5.3630  -15.1331 N   0  0  0  0  0  0  0  0  0  0  0  0
   -4.8842    5.5208  -13.7713 O   0  0  0  0  0  0  0  0  0  0  0  0
   -5.7232    5.5148  -13.2847 H   0  0  0  0  0  0  0  0  0  0  0  0
   -7.7960    5.5591  -13.7198 C   0  0  0  0  0  0  0  0  0  0  0  0
   -7.8862    6.7207  -13.6324 O   0  0  0  0  0  0  0  0  0  0  0  0
   -7.7587    4.4756  -12.6270 N   0  0  0  0  0  0  0  0  0  0  0  0
   -7.7545    3.5505  -12.9640 H   0  0  0  0  0  0  0  0  0  0  0  0
   -7.7300    4.5903  -11.2422 C   0  0  0  0  0  0  0  0  0  0  0  0
   -6.9358    5.5833  -10.6408 C   0  0  0  0  0  0  0  0  0  0  0  0
   -6.8700    5.7109   -9.2536 C   0  0  0  0  0  0  0  0  0  0  0  0
   -7.6187    4.8427   -8.4901 C   0  0  0  0  0  0  0  0  0  0  0  0
   -8.4390    3.8855   -9.0826 C   0  0  0  0  0  0  0  0  0  0  0  0
   -8.4881    3.7230  -10.4596 C   0  0  0  0  0  0  0  0  0  0  0  0
   -9.2309    3.2326   -7.9966 C   0  0  0  0  0  0  0  0  0  0  0  0
   -9.4756    1.7662   -8.1698 C   0  0  0  0  0  0  0  0  0  0  0  0
   -8.4969    3.5205   -6.7403 N   0  0  0  0  0  0  0  0  0  0  0  0
   -7.7497    4.7657   -7.0074 C   0  0  0  0  0  0  0  0  0  0  0  0
   -7.8558    2.7591   -6.5177 H   0  0  0  0  0  0  0  0  0  0  0  0
   -4.2426    5.2918  -18.5390 N   0  0  0  0  0  0  0  0  0  0  0  0
   -4.0692    4.4323  -18.9869 H   0  0  0  0  0  0  0  0  0  0  0  0
   -3.9016    6.5039  -19.3071 C   0  0  0  0  0  0  0  0  0  0  0  0
   -5.2052    7.0580  -19.9288 C   0  0  0  0  0  0  0  0  0  0  0  0
   -3.4344    7.6593  -18.4129 C   0  0  0  0  0  0  0  0  0  0  0  0
   -2.8482    6.1515  -20.4032 C   0  0  0  0  0  0  0  0  0  0  0  0
   -2.4699    4.7586  -20.4481 O   0  0  0  0  0  0  0  0  0  0  0  0
   -2.0485    4.5109  -19.6103 H   0  0  0  0  0  0  0  0  0  0  0  0
  1  2  1  0  0  0
  2  3  2  0  0  0
  3 29  1  0  0  0
 29 31  1  0  0  0
 31 32  1  0  0  0
 31 33  1  0  0  0
 31 34  1  0  0  0
 34 35  1  0  0  0
  3  4  1  0  0  0
  4  5  2  0  0  0
  5  6  1  0  0  0
  6  7  1  0  0  0
  6  8  2  0  0  0
  8  9  1  0  0  0
  9 14  1  0  0  0
 14 15  2  0  0  0
 14 16  1  0  0  0
 16 18  1  0  0  0
 18 19  2  0  0  0
 19 20  1  0  0  0
 20 21  2  0  0  0
 21 22  1  0  0  0
 22 23  2  0  0  0
 22 24  1  0  0  0
 24 25  1  0  0  0
 24 26  1  0  0  0
 26 27  1  0  0  0
  9 10  2  0  0  0
 10 11  1  0  0  0
 11 12  1  0  0  0
 11  2  1  0  0  0
 10  4  1  0  0  0
 23 18  1  0  0  0
 27 21  1  0  0  0
 29 30  1  0  0  0
 35 36  1  0  0  0
 16 17  1  0  0  0
 26 28  1  0  0  0
 12 13  1  0  0  0
M  END
> <minimizedAffinity>
-8.45702

> <minimizedRMSD>
0.64767

$$$$
P18511


 38 41  0  0  0  0  0  0  0  0999 V2000
   -7.9044    4.6525  -13.0684 N   0  0  0  0  0  0  0  0  0  0  0  0
   -7.0941    5.5370  -14.0546 C   0  0  0  0  0  0  0  0  0  0  0  0
   -6.5408    6.5537  -13.8822 O   0  0  0  0  0  0  0  0  0  0  0  0
   -8.3421    3.8720  -13.4788 H   0  0  0  0  0  0  0  0  0  0  0  0
   -8.6072    2.8793   -8.3824 C   0  0  0  0  0  0  0  0  0  0  0  0
   -8.3878    3.6690   -7.1498 N   0  0  0  0  0  0  0  0  0  0  0  0
   -8.4508    5.0880   -7.4946 C   0  0  0  0  0  0  0  0  0  0  0  0
   -8.3634    5.1443   -8.9694 C   0  0  0  0  0  0  0  0  0  0  0  0
   -8.1960    6.2508   -9.7632 C   0  0  0  0  0  0  0  0  0  0  0  0
   -8.1403    7.4835   -9.1896 O   0  0  0  0  0  0  0  0  0  0  0  0
   -8.0633    6.0723  -11.1309 C   0  0  0  0  0  0  0  0  0  0  0  0
   -8.1130    4.7844  -11.6938 C   0  0  0  0  0  0  0  0  0  0  0  0
   -8.3499    3.6632  -10.8831 C   0  0  0  0  0  0  0  0  0  0  0  0
   -8.4685    3.8623   -9.5091 C   0  0  0  0  0  0  0  0  0  0  0  0
   -7.4717    3.4497   -6.7585 H   0  0  0  0  0  0  0  0  0  0  0  0
   -8.2334    7.5731   -8.2616 H   0  0  0  0  0  0  0  0  0  0  0  0
  -10.0221    1.7021   -6.8809 C   0  0  0  0  0  0  0  0  0  0  0  0
   -9.9244    2.3421   -8.1883 N   0  0  0  0  0  0  0  0  0  0  0  0
  -10.6076    3.0974   -8.2452 H   0  0  0  0  0  0  0  0  0  0  0  0
   -7.1321    5.0294  -15.4383 C   0  0  0  0  0  0  0  0  0  0  0  0
   -8.3623    4.6774  -15.9932 C   0  0  0  0  0  0  0  0  0  0  0  0
   -8.4695    4.5150  -17.3687 C   0  0  0  0  0  0  0  0  0  0  0  0
  -10.0265    4.3150  -18.0355 Cl  0  0  0  0  0  0  0  0  0  0  0  0
   -7.3805    4.6642  -18.2335 C   0  0  0  0  0  0  0  0  0  0  0  0
   -6.1502    4.9893  -17.6518 C   0  0  0  0  0  0  0  0  0  0  0  0
   -6.0006    5.1409  -16.2704 C   0  0  0  0  0  0  0  0  0  0  0  0
   -4.6852    5.3684  -15.9571 N   0  0  0  0  0  0  0  0  0  0  0  0
   -4.0271    5.2884  -17.0952 C   0  0  0  0  0  0  0  0  0  0  0  0
   -2.5552    5.2140  -17.2040 C   0  0  0  0  0  0  0  0  0  0  0  0
   -4.8960    5.2542  -18.1660 N   0  0  0  0  0  0  0  0  0  0  0  0
   -4.5603    5.2993  -19.5717 N   0  0  0  0  0  0  0  0  0  0  0  0
   -5.3937    5.0320  -20.0955 H   0  0  0  0  0  0  0  0  0  0  0  0
   -4.0861    6.6098  -20.1168 C   0  0  0  0  0  0  0  0  0  0  0  0
   -4.9842    6.9965  -21.3100 C   0  0  0  0  0  0  0  0  0  0  0  0
   -4.1113    7.8171  -19.1609 C   0  0  0  0  0  0  0  0  0  0  0  0
   -2.6553    6.3820  -20.6896 C   0  0  0  0  0  0  0  0  0  0  0  0
   -2.3594    4.9725  -20.7095 O   0  0  0  0  0  0  0  0  0  0  0  0
   -2.4030    4.6202  -19.8067 H   0  0  0  0  0  0  0  0  0  0  0  0
 17 18  1  0  0  0
  5 18  1  0  0  0
  5  6  1  0  0  0
  6  7  1  0  0  0
  7  8  1  0  0  0
  8  9  2  0  0  0
  9 10  1  0  0  0
  9 11  1  0  0  0
 11 12  2  0  0  0
 12  1  1  0  0  0
  1  2  1  0  0  0
  2  3  2  0  0  0
  2 20  1  0  0  0
 20 21  2  0  0  0
 21 22  1  0  0  0
 22 23  1  0  0  0
 22 24  2  0  0  0
 24 25  1  0  0  0
 25 26  2  0  0  0
 26 27  1  0  0  0
 27 28  2  0  0  0
 28 29  1  0  0  0
 28 30  1  0  0  0
 30 31  1  0  0  0
 31 33  1  0  0  0
 33 34  1  0  0  0
 33 35  1  0  0  0
 33 36  1  0  0  0
 36 37  1  0  0  0
 12 13  1  0  0  0
 13 14  2  0  0  0
 14  5  1  0  0  0
 14  8  1  0  0  0
 26 20  1  0  0  0
 30 25  1  0  0  0
 18 19  1  0  0  0
  6 15  1  0  0  0
 10 16  1  0  0  0
  1  4  1  0  0  0
 31 32  1  0  0  0
 37 38  1  0  0  0
M  END
> <minimizedAffinity>
-8.61013

> <minimizedRMSD>
0.46643

$$$$
P18513


 28 31  0  0  0  0  0  0  0  0999 V2000
   -3.2741    5.7130  -17.5933 C   0  0  0  0  0  0  0  0  0  0  0  0
   -4.6800    5.3631  -17.2828 C   0  0  0  0  0  0  0  0  0  0  0  0
   -5.2204    5.2989  -16.0793 N   0  0  0  0  0  0  0  0  0  0  0  0
   -6.5370    4.9430  -16.2718 C   0  0  0  0  0  0  0  0  0  0  0  0
   -7.6054    4.7772  -15.3674 C   0  0  0  0  0  0  0  0  0  0  0  0
   -8.8642    4.4043  -15.8634 C   0  0  0  0  0  0  0  0  0  0  0  0
   -9.0513    4.2276  -17.2284 C   0  0  0  0  0  0  0  0  0  0  0  0
  -10.6252    4.0230  -17.8372 Cl  0  0  0  0  0  0  0  0  0  0  0  0
   -8.0190    4.3636  -18.1456 C   0  0  0  0  0  0  0  0  0  0  0  0
   -6.7816    4.7460  -17.6332 C   0  0  0  0  0  0  0  0  0  0  0  0
   -5.6100    5.0831  -18.2531 N   0  0  0  0  0  0  0  0  0  0  0  0
   -5.4469    5.2369  -19.6577 N   0  0  0  0  0  0  0  0  0  0  0  0
   -6.3031    4.9512  -20.1327 H   0  0  0  0  0  0  0  0  0  0  0  0
   -4.6715    4.6556  -19.9757 H   0  0  0  0  0  0  0  0  0  0  0  0
   -7.5164    5.2133  -13.9527 C   0  0  0  0  0  0  0  0  0  0  0  0
   -7.1179    6.2875  -13.7226 O   0  0  0  0  0  0  0  0  0  0  0  0
   -8.0939    4.1304  -13.0032 N   0  0  0  0  0  0  0  0  0  0  0  0
   -8.4358    3.3255  -13.4554 H   0  0  0  0  0  0  0  0  0  0  0  0
   -8.2076    4.1120  -11.6130 C   0  0  0  0  0  0  0  0  0  0  0  0
   -7.9561    5.2616  -10.8491 C   0  0  0  0  0  0  0  0  0  0  0  0
   -8.1286    5.2519   -9.4605 C   0  0  0  0  0  0  0  0  0  0  0  0
   -8.5456    4.0792   -8.8579 C   0  0  0  0  0  0  0  0  0  0  0  0
   -8.7954    2.9396   -9.6094 C   0  0  0  0  0  0  0  0  0  0  0  0
   -8.6358    2.9363  -10.9875 C   0  0  0  0  0  0  0  0  0  0  0  0
   -9.2531    1.8417   -8.7122 C   0  0  0  0  0  0  0  0  0  0  0  0
   -9.1645    2.3663   -7.3217 N   0  0  0  0  0  0  0  0  0  0  0  0
   -8.8181    3.8009   -7.4214 C   0  0  0  0  0  0  0  0  0  0  0  0
   -8.4413    1.8666   -6.8043 H   0  0  0  0  0  0  0  0  0  0  0  0
  1  2  1  0  0  0
  2  3  2  0  0  0
  3  4  1  0  0  0
  4  5  2  0  0  0
  5 15  1  0  0  0
 15 16  2  0  0  0
 15 17  1  0  0  0
 17 19  1  0  0  0
 19 20  2  0  0  0
 20 21  1  0  0  0
 21 22  2  0  0  0
 22 23  1  0  0  0
 23 24  2  0  0  0
 23 25  1  0  0  0
 25 26  1  0  0  0
 26 27  1  0  0  0
  5  6  1  0  0  0
  6  7  2  0  0  0
  7  8  1  0  0  0
  7  9  1  0  0  0
  9 10  2  0  0  0
 10 11  1  0  0  0
 11 12  1  0  0  0
 11  2  1  0  0  0
 10  4  1  0  0  0
 24 19  1  0  0  0
 27 22  1  0  0  0
 17 18  1  0  0  0
 26 28  1  0  0  0
 12 13  1  0  0  0
 12 14  1  0  0  0
M  END
> <minimizedAffinity>
-9.15680

> <minimizedRMSD>
0.22968

$$$$
P18521


 34 37  0  0  0  0  0  0  0  0999 V2000
   -7.0874    4.6733  -15.2929 C   0  0  0  0  0  0  0  0  0  0  0  0
   -8.1799    4.3626  -16.1046 C   0  0  0  0  0  0  0  0  0  0  0  0
   -8.0875    4.5103  -17.4812 C   0  0  0  0  0  0  0  0  0  0  0  0
   -9.4900    4.2036  -18.3974 Cl  0  0  0  0  0  0  0  0  0  0  0  0
   -6.9134    4.9223  -18.1156 C   0  0  0  0  0  0  0  0  0  0  0  0
   -5.8227    5.2193  -17.2920 C   0  0  0  0  0  0  0  0  0  0  0  0
   -5.8956    5.1191  -15.9001 C   0  0  0  0  0  0  0  0  0  0  0  0
   -4.7032    5.4993  -15.3356 N   0  0  0  0  0  0  0  0  0  0  0  0
   -3.8624    5.6577  -16.3335 C   0  0  0  0  0  0  0  0  0  0  0  0
   -2.3978    5.8454  -16.1812 C   0  0  0  0  0  0  0  0  0  0  0  0
   -4.5228    5.6046  -17.5419 N   0  0  0  0  0  0  0  0  0  0  0  0
   -7.1394    4.5050  -13.8294 C   0  0  0  0  0  0  0  0  0  0  0  0
   -6.1755    4.0997  -13.1931 O   0  0  0  0  0  0  0  0  0  0  0  0
   -8.3953    4.8723  -13.0637 C   0  0  0  0  0  0  0  0  0  0  0  0
   -9.3576    5.3767  -13.6290 O   0  0  0  0  0  0  0  0  0  0  0  0
   -7.7233    7.1741  -11.3815 C   0  0  0  0  0  0  0  0  0  0  0  0
   -8.0505    5.8334  -10.7868 C   0  0  0  0  0  0  0  0  0  0  0  0
   -8.0511    5.6784   -9.3946 C   0  0  0  0  0  0  0  0  0  0  0  0
   -8.3888    4.4450   -8.8613 C   0  0  0  0  0  0  0  0  0  0  0  0
   -8.7024    3.3606   -9.6724 C   0  0  0  0  0  0  0  0  0  0  0  0
   -8.6811    3.4670  -11.0517 C   0  0  0  0  0  0  0  0  0  0  0  0
   -8.3629    4.7155  -11.5991 C   0  0  0  0  0  0  0  0  0  0  0  0
   -9.0938    2.1984   -8.8245 C   0  0  0  0  0  0  0  0  0  0  0  0
   -8.9579    2.6459   -7.4157 N   0  0  0  0  0  0  0  0  0  0  0  0
   -8.5365    4.0584   -7.4307 C   0  0  0  0  0  0  0  0  0  0  0  0
   -8.2568    2.0797   -6.9379 H   0  0  0  0  0  0  0  0  0  0  0  0
   -3.8957    5.7376  -18.8143 N   0  0  0  0  0  0  0  0  0  0  0  0
   -4.3395    5.0749  -19.4501 H   0  0  0  0  0  0  0  0  0  0  0  0
   -3.9608    7.0797  -19.4432 C   0  0  0  0  0  0  0  0  0  0  0  0
   -2.4855    7.4848  -19.6412 C   0  0  0  0  0  0  0  0  0  0  0  0
   -4.6127    6.9501  -20.8202 C   0  0  0  0  0  0  0  0  0  0  0  0
   -4.6620    8.2342  -18.6618 C   0  0  0  0  0  0  0  0  0  0  0  0
   -6.0500    8.3667  -18.9719 O   0  0  0  0  0  0  0  0  0  0  0  0
   -6.1522    8.5804  -19.9125 H   0  0  0  0  0  0  0  0  0  0  0  0
 16 17  1  0  0  0
 17 18  2  0  0  0
 18 19  1  0  0  0
 19 20  2  0  0  0
 20 21  1  0  0  0
 21 22  2  0  0  0
 22 14  1  0  0  0
 14 15  2  0  0  0
 14 12  1  0  0  0
 12 13  2  0  0  0
 12  1  1  0  0  0
  1  2  2  0  0  0
  2  3  1  0  0  0
  3  4  1  0  0  0
  3  5  2  0  0  0
  5  6  1  0  0  0
  6  7  2  0  0  0
  7  8  1  0  0  0
  8  9  2  0  0  0
  9 10  1  0  0  0
  9 11  1  0  0  0
 11 27  1  0  0  0
 27 29  1  0  0  0
 29 30  1  0  0  0
 29 31  1  0  0  0
 29 32  1  0  0  0
 32 33  1  0  0  0
 20 23  1  0  0  0
 23 24  1  0  0  0
 24 25  1  0  0  0
 22 17  1  0  0  0
  7  1  1  0  0  0
 25 19  1  0  0  0
 11  6  1  0  0  0
 27 28  1  0  0  0
 33 34  1  0  0  0
 24 26  1  0  0  0
M  END
> <minimizedAffinity>
-8.33502

> <minimizedRMSD>
0.44710

$$$$
P18524


 31 35  0  0  0  0  0  0  0  0999 V2000
   -7.4880    4.5992  -15.8781 C   0  0  0  0  0  0  0  0  0  0  0  0
   -8.8165    4.2474  -16.1596 C   0  0  0  0  0  0  0  0  0  0  0  0
   -9.2408    4.1154  -17.4790 C   0  0  0  0  0  0  0  0  0  0  0  0
  -10.8991    4.0292  -17.8367 Cl  0  0  0  0  0  0  0  0  0  0  0  0
   -8.3748    4.2088  -18.5555 C   0  0  0  0  0  0  0  0  0  0  0  0
   -7.0737    4.5580  -18.2410 C   0  0  0  0  0  0  0  0  0  0  0  0
   -6.0176    4.8094  -19.0618 N   0  0  0  0  0  0  0  0  0  0  0  0
   -5.0154    5.3333  -18.2936 C   0  0  0  0  0  0  0  0  0  0  0  0
   -5.2986    5.2296  -17.0095 N   0  0  0  0  0  0  0  0  0  0  0  0
   -6.6022    4.7929  -16.9513 C   0  0  0  0  0  0  0  0  0  0  0  0
   -5.9819    4.6442  -20.0317 H   0  0  0  0  0  0  0  0  0  0  0  0
   -6.3690    5.8140  -14.2912 O   0  0  0  0  0  0  0  0  0  0  0  0
   -7.1295    4.9484  -14.4848 C   0  0  0  0  0  0  0  0  0  0  0  0
   -7.9633    4.1017  -13.4883 N   0  0  0  0  0  0  0  0  0  0  0  0
   -8.4806    3.3720  -13.8997 H   0  0  0  0  0  0  0  0  0  0  0  0
   -8.0994    4.2059  -12.1044 C   0  0  0  0  0  0  0  0  0  0  0  0
   -7.8595    5.4139  -11.4332 C   0  0  0  0  0  0  0  0  0  0  0  0
   -8.0045    5.5029  -10.0437 C   0  0  0  0  0  0  0  0  0  0  0  0
   -8.3869    4.3704   -9.3474 C   0  0  0  0  0  0  0  0  0  0  0  0
   -8.6391    3.1773  -10.0093 C   0  0  0  0  0  0  0  0  0  0  0  0
   -8.5022    3.0749  -11.3857 C   0  0  0  0  0  0  0  0  0  0  0  0
   -9.0605    2.1400   -9.0265 C   0  0  0  0  0  0  0  0  0  0  0  0
   -8.9413    2.7614   -7.6786 N   0  0  0  0  0  0  0  0  0  0  0  0
   -8.6049    4.1870   -7.8865 C   0  0  0  0  0  0  0  0  0  0  0  0
   -8.2034    2.3018   -7.1451 H   0  0  0  0  0  0  0  0  0  0  0  0
   -3.8282    5.9637  -18.9270 C   0  0  0  0  0  0  0  0  0  0  0  0
   -4.0965    7.3526  -19.3573 N   0  0  0  0  0  0  0  0  0  0  0  0
   -4.9874    7.4825  -20.5179 C   0  0  0  0  0  0  0  0  0  0  0  0
   -4.1028    7.2425  -21.7306 C   0  0  0  0  0  0  0  0  0  0  0  0
   -2.7071    7.6531  -21.2766 C   0  0  0  0  0  0  0  0  0  0  0  0
   -2.8533    8.0014  -19.7994 C   0  0  0  0  0  0  0  0  0  0  0  0
 12 13  2  0  0  0
 13 14  1  0  0  0
 14 16  1  0  0  0
 16 17  2  0  0  0
 17 18  1  0  0  0
 18 19  2  0  0  0
 19 20  1  0  0  0
 20 21  2  0  0  0
 20 22  1  0  0  0
 22 23  1  0  0  0
 23 24  1  0  0  0
 13  1  1  0  0  0
  1  2  2  0  0  0
  2  3  1  0  0  0
  3  4  1  0  0  0
  3  5  2  0  0  0
  5  6  1  0  0  0
  6  7  1  0  0  0
  7  8  1  0  0  0
  8 26  1  0  0  0
 26 27  1  0  0  0
 27 28  1  0  0  0
 28 29  1  0  0  0
 29 30  1  0  0  0
 30 31  1  0  0  0
  8  9  2  0  0  0
  9 10  1  0  0  0
 21 16  1  0  0  0
 10  1  1  0  0  0
 24 19  1  0  0  0
 10  6  2  0  0  0
 31 27  1  0  0  0
 14 15  1  0  0  0
 23 25  1  0  0  0
  7 11  1  0  0  0
M  END
> <minimizedAffinity>
-8.57118

> <minimizedRMSD>
0.73720

$$$$
P18525


 34 37  0  0  0  0  0  0  0  0999 V2000
   -7.6372    5.0577  -13.6633 C   0  0  0  0  0  0  0  0  0  0  0  0
   -6.3018    5.2865  -13.2485 O   0  0  0  0  0  0  0  0  0  0  0  0
   -5.7802    4.4790  -13.3780 H   0  0  0  0  0  0  0  0  0  0  0  0
   -3.0613    5.9034  -16.9087 C   0  0  0  0  0  0  0  0  0  0  0  0
   -4.4853    5.5059  -16.8703 C   0  0  0  0  0  0  0  0  0  0  0  0
   -5.2504    5.2147  -17.8977 N   0  0  0  0  0  0  0  0  0  0  0  0
   -6.4692    4.8607  -17.3700 C   0  0  0  0  0  0  0  0  0  0  0  0
   -7.6395    4.4716  -18.0217 C   0  0  0  0  0  0  0  0  0  0  0  0
   -8.7578    4.2288  -17.2316 C   0  0  0  0  0  0  0  0  0  0  0  0
  -10.2815    4.0159  -17.9677 Cl  0  0  0  0  0  0  0  0  0  0  0  0
   -8.7191    4.3103  -15.8413 C   0  0  0  0  0  0  0  0  0  0  0  0
   -7.5721    4.7300  -15.1492 C   0  0  0  0  0  0  0  0  0  0  0  0
   -6.4641    4.9782  -15.9851 C   0  0  0  0  0  0  0  0  0  0  0  0
   -5.1838    5.3895  -15.7004 N   0  0  0  0  0  0  0  0  0  0  0  0
   -4.8276    5.5708  -14.8007 H   0  0  0  0  0  0  0  0  0  0  0  0
   -8.6068    6.3392  -13.4939 C   0  0  0  0  0  0  0  0  0  0  0  0
   -9.7586    6.3192  -13.7126 O   0  0  0  0  0  0  0  0  0  0  0  0
   -7.6884    7.5082  -13.0110 N   0  0  0  0  0  0  0  0  0  0  0  0
   -6.7290    7.2906  -12.9737 H   0  0  0  0  0  0  0  0  0  0  0  0
   -8.0194    8.8571  -12.6102 C   0  0  0  0  0  0  0  0  0  0  0  0
   -8.4140    8.8906  -11.1378 C   0  0  0  0  0  0  0  0  0  0  0  0
   -6.8587    9.7999  -12.8951 C   0  0  0  0  0  0  0  0  0  0  0  0
   -8.0893    3.9315  -12.8521 N   0  0  0  0  0  0  0  0  0  0  0  0
   -8.2610    3.0731  -13.3025 H   0  0  0  0  0  0  0  0  0  0  0  0
   -8.2930    4.0052  -11.4635 C   0  0  0  0  0  0  0  0  0  0  0  0
   -7.9537    5.1142  -10.6604 C   0  0  0  0  0  0  0  0  0  0  0  0
   -8.1397    5.1275   -9.2718 C   0  0  0  0  0  0  0  0  0  0  0  0
   -8.6118    3.9847   -8.6691 C   0  0  0  0  0  0  0  0  0  0  0  0
   -8.8820    2.8554   -9.4222 C   0  0  0  0  0  0  0  0  0  0  0  0
   -8.7346    2.8504  -10.8037 C   0  0  0  0  0  0  0  0  0  0  0  0
   -9.2667    1.7398   -8.5148 C   0  0  0  0  0  0  0  0  0  0  0  0
   -9.4104    2.3325   -7.1572 N   0  0  0  0  0  0  0  0  0  0  0  0
   -8.8800    3.7096   -7.2317 C   0  0  0  0  0  0  0  0  0  0  0  0
   -8.8781    1.7879   -6.4786 H   0  0  0  0  0  0  0  0  0  0  0  0
  4  5  1  0  0  0
  5  6  2  0  0  0
  6  7  1  0  0  0
  7  8  2  0  0  0
  8  9  1  0  0  0
  9 10  1  0  0  0
  9 11  2  0  0  0
 11 12  1  0  0  0
 12  1  1  0  0  0
  1  2  1  0  0  0
  1 23  1  0  0  0
 23 25  1  0  0  0
 25 26  2  0  0  0
 26 27  1  0  0  0
 27 28  2  0  0  0
 28 29  1  0  0  0
 29 30  2  0  0  0
 29 31  1  0  0  0
 31 32  1  0  0  0
 32 33  1  0  0  0
  1 16  1  0  0  0
 16 17  2  0  0  0
 16 18  1  0  0  0
 18 20  1  0  0  0
 20 21  1  0  0  0
 20 22  1  0  0  0
 12 13  2  0  0  0
 13 14  1  0  0  0
 14  5  1  0  0  0
 13  7  1  0  0  0
 30 25  1  0  0  0
 33 28  1  0  0  0
  2  3  1  0  0  0
 23 24  1  0  0  0
 32 34  1  0  0  0
 18 19  1  0  0  0
 14 15  1  0  0  0
M  END
> <minimizedAffinity>
-8.57477

> <minimizedRMSD>
0.11764

$$$$
P18532


 27 30  0  0  0  0  0  0  0  0999 V2000
   -7.4958    5.1200  -14.0304 C   0  0  0  0  0  0  0  0  0  0  0  0
   -7.0236    6.1675  -13.8193 O   0  0  0  0  0  0  0  0  0  0  0  0
   -8.1353    4.0941  -13.0628 N   0  0  0  0  0  0  0  0  0  0  0  0
   -8.5349    3.3081  -13.5007 H   0  0  0  0  0  0  0  0  0  0  0  0
   -3.3069    5.6984  -17.5826 C   0  0  0  0  0  0  0  0  0  0  0  0
   -4.7349    5.3459  -17.3431 C   0  0  0  0  0  0  0  0  0  0  0  0
   -5.2522    5.2064  -16.1516 N   0  0  0  0  0  0  0  0  0  0  0  0
   -6.6039    4.8842  -16.3619 C   0  0  0  0  0  0  0  0  0  0  0  0
   -7.6203    4.6855  -15.4412 C   0  0  0  0  0  0  0  0  0  0  0  0
   -8.8832    4.3042  -15.9124 C   0  0  0  0  0  0  0  0  0  0  0  0
   -9.1121    4.1777  -17.2895 C   0  0  0  0  0  0  0  0  0  0  0  0
  -10.7025    3.9351  -17.8523 Cl  0  0  0  0  0  0  0  0  0  0  0  0
   -8.1067    4.4004  -18.2189 C   0  0  0  0  0  0  0  0  0  0  0  0
   -6.8753    4.7734  -17.7249 C   0  0  0  0  0  0  0  0  0  0  0  0
   -5.6860    5.1460  -18.4802 N   0  0  0  0  0  0  0  0  0  0  0  0
   -5.8812    6.3199  -19.1367 O   0  0  0  0  0  0  0  0  0  0  0  0
   -5.2618    5.9196  -18.9169 H   0  0  0  0  0  0  0  0  0  0  0  0
   -8.2370    4.1024  -11.6737 C   0  0  0  0  0  0  0  0  0  0  0  0
   -7.9735    5.2683  -10.9374 C   0  0  0  0  0  0  0  0  0  0  0  0
   -8.1201    5.2876   -9.5470 C   0  0  0  0  0  0  0  0  0  0  0  0
   -8.5181    4.1250   -8.9148 C   0  0  0  0  0  0  0  0  0  0  0  0
   -8.7736    2.9686   -9.6391 C   0  0  0  0  0  0  0  0  0  0  0  0
   -8.6445    2.9374  -11.0193 C   0  0  0  0  0  0  0  0  0  0  0  0
   -9.1992    1.8845   -8.7113 C   0  0  0  0  0  0  0  0  0  0  0  0
   -9.0814    2.4355   -7.3336 N   0  0  0  0  0  0  0  0  0  0  0  0
   -8.7655    3.8741   -7.4690 C   0  0  0  0  0  0  0  0  0  0  0  0
   -8.3345    1.9588   -6.8283 H   0  0  0  0  0  0  0  0  0  0  0  0
  5  6  1  0  0  0
  6  7  2  0  0  0
  7  8  1  0  0  0
  8  9  2  0  0  0
  9  1  1  0  0  0
  1  2  2  0  0  0
  1  3  1  0  0  0
  3 18  1  0  0  0
 18 19  2  0  0  0
 19 20  1  0  0  0
 20 21  2  0  0  0
 21 22  1  0  0  0
 22 23  2  0  0  0
 22 24  1  0  0  0
 24 25  1  0  0  0
 25 26  1  0  0  0
  9 10  1  0  0  0
 10 11  2  0  0  0
 11 12  1  0  0  0
 11 13  1  0  0  0
 13 14  2  0  0  0
 14 15  1  0  0  0
 15 16  1  0  0  0
 15  6  1  0  0  0
 14  8  1  0  0  0
 23 18  1  0  0  0
 26 21  1  0  0  0
  3  4  1  0  0  0
 25 27  1  0  0  0
 15 17  1  0  0  0
M  CHG 1  15   1
M  CHG 1  16  -1
M  END
> <minimizedAffinity>
-8.89448

> <minimizedRMSD>
0.35318

$$$$
P18535


 26 29  0  0  0  0  0  0  0  0999 V2000
   -8.3259    5.2806  -13.5377 C   0  0  0  0  0  0  0  0  0  0  0  0
   -8.6630    6.3811  -13.3377 O   0  0  0  0  0  0  0  0  0  0  0  0
   -8.1779    4.0839  -12.5660 N   0  0  0  0  0  0  0  0  0  0  0  0
   -7.9476    3.2292  -12.9969 H   0  0  0  0  0  0  0  0  0  0  0  0
   -3.3043    5.7721  -15.8899 C   0  0  0  0  0  0  0  0  0  0  0  0
   -4.7457    5.4353  -15.9972 C   0  0  0  0  0  0  0  0  0  0  0  0
   -5.5932    5.3803  -14.9912 N   0  0  0  0  0  0  0  0  0  0  0  0
   -6.8100    5.0285  -15.5259 C   0  0  0  0  0  0  0  0  0  0  0  0
   -8.0737    4.8588  -14.9324 C   0  0  0  0  0  0  0  0  0  0  0  0
   -9.1626    4.4763  -15.7291 C   0  0  0  0  0  0  0  0  0  0  0  0
   -8.9977    4.3179  -17.0998 C   0  0  0  0  0  0  0  0  0  0  0  0
  -10.3689    4.1047  -18.0954 Cl  0  0  0  0  0  0  0  0  0  0  0  0
   -7.7615    4.4767  -17.7190 C   0  0  0  0  0  0  0  0  0  0  0  0
   -6.6890    4.8411  -16.9027 C   0  0  0  0  0  0  0  0  0  0  0  0
   -5.3811    5.1526  -17.1814 N   0  0  0  0  0  0  0  0  0  0  0  0
   -4.8058    5.2320  -18.5017 C   0  0  0  0  0  0  0  0  0  0  0  0
   -8.3178    4.0201  -11.1811 C   0  0  0  0  0  0  0  0  0  0  0  0
   -8.0687    5.1420  -10.3755 C   0  0  0  0  0  0  0  0  0  0  0  0
   -8.2431    5.0816   -8.9893 C   0  0  0  0  0  0  0  0  0  0  0  0
   -8.6660    3.8884   -8.4330 C   0  0  0  0  0  0  0  0  0  0  0  0
   -8.9166    2.7784   -9.2274 C   0  0  0  0  0  0  0  0  0  0  0  0
   -8.7483    2.8229  -10.6028 C   0  0  0  0  0  0  0  0  0  0  0  0
   -9.3770    1.6473   -8.3754 C   0  0  0  0  0  0  0  0  0  0  0  0
   -9.3324    2.1304   -6.9678 N   0  0  0  0  0  0  0  0  0  0  0  0
   -8.9426    3.5569   -7.0089 C   0  0  0  0  0  0  0  0  0  0  0  0
   -8.6458    1.5954   -6.4360 H   0  0  0  0  0  0  0  0  0  0  0  0
  5  6  1  0  0  0
  6  7  2  0  0  0
  7  8  1  0  0  0
  8  9  2  0  0  0
  9  1  1  0  0  0
  1  2  2  0  0  0
  1  3  1  0  0  0
  3 17  1  0  0  0
 17 18  2  0  0  0
 18 19  1  0  0  0
 19 20  2  0  0  0
 20 21  1  0  0  0
 21 22  2  0  0  0
 21 23  1  0  0  0
 23 24  1  0  0  0
 24 25  1  0  0  0
  9 10  1  0  0  0
 10 11  2  0  0  0
 11 12  1  0  0  0
 11 13  1  0  0  0
 13 14  2  0  0  0
 14 15  1  0  0  0
 15 16  1  0  0  0
 15  6  1  0  0  0
 14  8  1  0  0  0
 22 17  1  0  0  0
 25 20  1  0  0  0
  3  4  1  0  0  0
 24 26  1  0  0  0
M  END
> <minimizedAffinity>
-8.68513

> <minimizedRMSD>
0.69357

$$$$
P18536


 28 31  0  0  0  0  0  0  0  0999 V2000
   -5.1115    5.1468  -17.4285 N   0  0  0  0  0  0  0  0  0  0  0  0
   -4.3049    5.4247  -16.3588 C   0  0  0  0  0  0  0  0  0  0  0  0
   -2.8383    5.6133  -16.5171 C   0  0  0  0  0  0  0  0  0  0  0  0
   -5.1144    5.4775  -15.2308 C   0  0  0  0  0  0  0  0  0  0  0  0
   -4.6727    5.7719  -13.8368 C   0  0  0  0  0  0  0  0  0  0  0  0
   -6.4555    5.1608  -15.6505 C   0  0  0  0  0  0  0  0  0  0  0  0
   -7.7114    5.0374  -15.0068 C   0  0  0  0  0  0  0  0  0  0  0  0
   -8.8412    4.6480  -15.7364 C   0  0  0  0  0  0  0  0  0  0  0  0
   -8.7388    4.4270  -17.1012 C   0  0  0  0  0  0  0  0  0  0  0  0
  -10.1608    4.1445  -18.0011 Cl  0  0  0  0  0  0  0  0  0  0  0  0
   -7.5287    4.5473  -17.7771 C   0  0  0  0  0  0  0  0  0  0  0  0
   -6.4043    4.9191  -17.0291 C   0  0  0  0  0  0  0  0  0  0  0  0
   -7.9096    5.4658  -13.6020 C   0  0  0  0  0  0  0  0  0  0  0  0
   -8.0680    6.6021  -13.3828 O   0  0  0  0  0  0  0  0  0  0  0  0
   -7.9674    4.2443  -12.6547 N   0  0  0  0  0  0  0  0  0  0  0  0
   -7.8721    3.3718  -13.1008 H   0  0  0  0  0  0  0  0  0  0  0  0
   -8.1324    4.1779  -11.2716 C   0  0  0  0  0  0  0  0  0  0  0  0
   -7.9008    5.2977  -10.4561 C   0  0  0  0  0  0  0  0  0  0  0  0
   -8.1069    5.2342   -9.0733 C   0  0  0  0  0  0  0  0  0  0  0  0
   -8.5568    4.0438   -8.5339 C   0  0  0  0  0  0  0  0  0  0  0  0
   -8.7798    2.9304   -9.3380 C   0  0  0  0  0  0  0  0  0  0  0  0
   -8.5685    2.9756  -10.7062 C   0  0  0  0  0  0  0  0  0  0  0  0
   -9.2349    1.7950   -8.4814 C   0  0  0  0  0  0  0  0  0  0  0  0
   -9.6283    2.4193   -7.1900 N   0  0  0  0  0  0  0  0  0  0  0  0
   -8.8728    3.6896   -7.1194 C   0  0  0  0  0  0  0  0  0  0  0  0
   -9.3783    1.8120   -6.4096 H   0  0  0  0  0  0  0  0  0  0  0  0
   -4.8517    6.2351  -19.4353 C   0  0  0  0  0  0  0  0  0  0  0  0
   -4.6497    5.0072  -18.7445 O   0  0  0  0  0  0  0  0  0  0  0  0
 27 28  1  0  0  0
 28  1  1  0  0  0
  1  2  1  0  0  0
  2  3  1  0  0  0
  2  4  2  0  0  0
  4  5  1  0  0  0
  4  6  1  0  0  0
  6  7  2  0  0  0
  7 13  1  0  0  0
 13 14  2  0  0  0
 13 15  1  0  0  0
 15 17  1  0  0  0
 17 18  2  0  0  0
 18 19  1  0  0  0
 19 20  2  0  0  0
 20 21  1  0  0  0
 21 22  2  0  0  0
 21 23  1  0  0  0
 23 24  1  0  0  0
 24 25  1  0  0  0
  7  8  1  0  0  0
  8  9  2  0  0  0
  9 10  1  0  0  0
  9 11  1  0  0  0
 11 12  2  0  0  0
 12  1  1  0  0  0
 12  6  1  0  0  0
 22 17  1  0  0  0
 25 20  1  0  0  0
 15 16  1  0  0  0
 24 26  1  0  0  0
M  END
> <minimizedAffinity>
-8.65175

> <minimizedRMSD>
0.44801

$$$$
P18538


 41 45  0  0  0  0  0  0  0  0999 V2000
   -7.1699    4.9791  -13.6865 C   0  0  0  0  0  0  0  0  0  0  0  0
   -3.2864    5.8916  -17.6296 C   0  0  0  0  0  0  0  0  0  0  0  0
   -4.6505    5.4634  -17.2622 C   0  0  0  0  0  0  0  0  0  0  0  0
   -5.1663    5.4501  -16.0518 N   0  0  0  0  0  0  0  0  0  0  0  0
   -6.4479    4.9739  -16.1896 C   0  0  0  0  0  0  0  0  0  0  0  0
   -7.4286    4.7523  -15.1991 C   0  0  0  0  0  0  0  0  0  0  0  0
   -8.7196    4.4217  -15.7060 C   0  0  0  0  0  0  0  0  0  0  0  0
   -8.9718    4.2652  -17.0751 C   0  0  0  0  0  0  0  0  0  0  0  0
  -10.5650    4.0394  -17.6517 Cl  0  0  0  0  0  0  0  0  0  0  0  0
   -7.9707    4.3915  -18.0259 C   0  0  0  0  0  0  0  0  0  0  0  0
   -6.7306    4.7672  -17.5359 C   0  0  0  0  0  0  0  0  0  0  0  0
   -5.5590    5.0311  -18.1912 N   0  0  0  0  0  0  0  0  0  0  0  0
   -5.3980    4.9286  -19.1570 H   0  0  0  0  0  0  0  0  0  0  0  0
   -5.6108    4.5599  -13.2562 C   0  0  0  0  0  0  0  0  0  0  0  0
   -5.3109    3.4597  -13.0030 O   0  0  0  0  0  0  0  0  0  0  0  0
   -4.7700    5.8687  -13.2126 N   0  0  0  0  0  0  0  0  0  0  0  0
   -5.2344    6.6687  -13.5497 H   0  0  0  0  0  0  0  0  0  0  0  0
   -3.4219    6.0997  -12.7589 C   0  0  0  0  0  0  0  0  0  0  0  0
   -2.4270    5.0264  -13.1865 C   0  0  0  0  0  0  0  0  0  0  0  0
   -2.4684    4.8592  -14.5355 F   0  0  0  0  0  0  0  0  0  0  0  0
   -1.1637    5.4491  -12.9019 F   0  0  0  0  0  0  0  0  0  0  0  0
   -8.0561    4.0158  -12.9566 N   0  0  0  0  0  0  0  0  0  0  0  0
   -8.5415    3.3298  -13.4695 H   0  0  0  0  0  0  0  0  0  0  0  0
   -8.2138    4.0636  -11.5623 C   0  0  0  0  0  0  0  0  0  0  0  0
   -8.0966    5.2441  -10.8038 C   0  0  0  0  0  0  0  0  0  0  0  0
   -8.2366    5.2527   -9.4103 C   0  0  0  0  0  0  0  0  0  0  0  0
   -8.5905    4.0768   -8.7830 C   0  0  0  0  0  0  0  0  0  0  0  0
   -8.8107    2.9253   -9.5192 C   0  0  0  0  0  0  0  0  0  0  0  0
   -8.6279    2.9007  -10.8944 C   0  0  0  0  0  0  0  0  0  0  0  0
   -9.2590    1.8298   -8.6166 C   0  0  0  0  0  0  0  0  0  0  0  0
   -9.3281    2.4128   -7.2476 N   0  0  0  0  0  0  0  0  0  0  0  0
   -8.8473    3.8072   -7.3428 C   0  0  0  0  0  0  0  0  0  0  0  0
   -8.7347    1.8811   -6.6108 H   0  0  0  0  0  0  0  0  0  0  0  0
   -7.6452    6.2857  -13.4083 O   0  0  0  0  0  0  0  0  0  0  0  0
   -6.7077    7.3383  -13.5864 C   0  0  0  0  0  0  0  0  0  0  0  0
   -6.9473    8.3273  -12.4683 C   0  0  0  0  0  0  0  0  0  0  0  0
   -8.0287    9.2037  -12.5166 C   0  0  0  0  0  0  0  0  0  0  0  0
   -8.2697   10.0356  -11.4270 C   0  0  0  0  0  0  0  0  0  0  0  0
   -7.4344    9.9674  -10.3193 C   0  0  0  0  0  0  0  0  0  0  0  0
   -6.3882    9.0624  -10.3449 C   0  0  0  0  0  0  0  0  0  0  0  0
   -6.1313    8.2392  -11.3849 N   0  0  0  0  0  0  0  0  0  0  0  0
  2  3  1  0  0  0
  3  4  2  0  0  0
  4  5  1  0  0  0
  5  6  2  0  0  0
  6  1  1  0  0  0
  1 22  1  0  0  0
 22 24  1  0  0  0
 24 25  2  0  0  0
 25 26  1  0  0  0
 26 27  2  0  0  0
 27 28  1  0  0  0
 28 29  2  0  0  0
 28 30  1  0  0  0
 30 31  1  0  0  0
 31 32  1  0  0  0
  1 34  1  0  0  0
 34 35  1  0  0  0
 35 36  1  0  0  0
 36 37  2  0  0  0
 37 38  1  0  0  0
 38 39  2  0  0  0
 39 40  1  0  0  0
 40 41  2  0  0  0
  1 14  1  0  0  0
 14 15  2  0  0  0
 14 16  1  0  0  0
 16 18  1  0  0  0
 18 19  1  0  0  0
 19 20  1  0  0  0
 19 21  1  0  0  0
  6  7  1  0  0  0
  7  8  2  0  0  0
  8  9  1  0  0  0
  8 10  1  0  0  0
 10 11  2  0  0  0
 11 12  1  0  0  0
 12  3  1  0  0  0
 11  5  1  0  0  0
 29 24  1  0  0  0
 41 36  1  0  0  0
 32 27  1  0  0  0
 22 23  1  0  0  0
 31 33  1  0  0  0
 16 17  1  0  0  0
 12 13  1  0  0  0
M  END
> <minimizedAffinity>
-7.62570

> <minimizedRMSD>
0.97451

$$$$
P18539


 35 38  0  0  0  0  0  0  0  0999 V2000
   -7.4373    4.9654  -13.7365 C   0  0  0  0  0  0  0  0  0  0  0  0
   -6.0830    4.9472  -13.3419 O   0  0  0  0  0  0  0  0  0  0  0  0
   -5.7090    4.0682  -13.5103 H   0  0  0  0  0  0  0  0  0  0  0  0
   -3.2940    5.6832  -17.6669 C   0  0  0  0  0  0  0  0  0  0  0  0
   -4.6925    5.3909  -17.2763 C   0  0  0  0  0  0  0  0  0  0  0  0
   -5.2212    5.3865  -16.0663 N   0  0  0  0  0  0  0  0  0  0  0  0
   -6.5262    4.9427  -16.2040 C   0  0  0  0  0  0  0  0  0  0  0  0
   -7.5460    4.6907  -15.2425 C   0  0  0  0  0  0  0  0  0  0  0  0
   -8.8083    4.3198  -15.7805 C   0  0  0  0  0  0  0  0  0  0  0  0
   -9.0302    4.1954  -17.1504 C   0  0  0  0  0  0  0  0  0  0  0  0
  -10.6114    3.9480  -17.7366 Cl  0  0  0  0  0  0  0  0  0  0  0  0
   -8.0204    4.3787  -18.0764 C   0  0  0  0  0  0  0  0  0  0  0  0
   -6.7946    4.7646  -17.5603 C   0  0  0  0  0  0  0  0  0  0  0  0
   -5.6295    5.0579  -18.2127 N   0  0  0  0  0  0  0  0  0  0  0  0
   -5.4902    5.0335  -19.1870 H   0  0  0  0  0  0  0  0  0  0  0  0
   -8.1593    6.3897  -13.4979 C   0  0  0  0  0  0  0  0  0  0  0  0
   -9.3214    6.5493  -13.5144 O   0  0  0  0  0  0  0  0  0  0  0  0
   -7.0022    7.4045  -13.2288 N   0  0  0  0  0  0  0  0  0  0  0  0
   -6.1029    7.0053  -13.1956 H   0  0  0  0  0  0  0  0  0  0  0  0
   -7.0378    8.8269  -13.0217 C   0  0  0  0  0  0  0  0  0  0  0  0
   -7.6705    9.1623  -11.6769 C   0  0  0  0  0  0  0  0  0  0  0  0
   -9.0593    9.7412  -11.8543 C   0  0  0  0  0  0  0  0  0  0  0  0
   -9.3945    9.7043  -13.1720 F   0  0  0  0  0  0  0  0  0  0  0  0
   -8.0580    3.9192  -12.9096 N   0  0  0  0  0  0  0  0  0  0  0  0
   -8.3737    3.1067  -13.3672 H   0  0  0  0  0  0  0  0  0  0  0  0
   -8.2352    3.9887  -11.5208 C   0  0  0  0  0  0  0  0  0  0  0  0
   -7.8685    5.0853  -10.7129 C   0  0  0  0  0  0  0  0  0  0  0  0
   -8.0627    5.0985   -9.3230 C   0  0  0  0  0  0  0  0  0  0  0  0
   -8.5653    3.9654   -8.7261 C   0  0  0  0  0  0  0  0  0  0  0  0
   -8.8380    2.8363   -9.4837 C   0  0  0  0  0  0  0  0  0  0  0  0
   -8.6912    2.8358  -10.8638 C   0  0  0  0  0  0  0  0  0  0  0  0
   -9.2196    1.7252   -8.5645 C   0  0  0  0  0  0  0  0  0  0  0  0
   -9.5939    2.3922   -7.2888 N   0  0  0  0  0  0  0  0  0  0  0  0
   -8.8567    3.6763   -7.2925 C   0  0  0  0  0  0  0  0  0  0  0  0
   -9.3143    1.8214   -6.4911 H   0  0  0  0  0  0  0  0  0  0  0  0
  4  5  1  0  0  0
  5  6  2  0  0  0
  6  7  1  0  0  0
  7  8  2  0  0  0
  8  1  1  0  0  0
  1  2  1  0  0  0
  1 24  1  0  0  0
 24 26  1  0  0  0
 26 27  2  0  0  0
 27 28  1  0  0  0
 28 29  2  0  0  0
 29 30  1  0  0  0
 30 31  2  0  0  0
 30 32  1  0  0  0
 32 33  1  0  0  0
 33 34  1  0  0  0
  1 16  1  0  0  0
 16 17  2  0  0  0
 16 18  1  0  0  0
 18 20  1  0  0  0
 20 21  1  0  0  0
 21 22  1  0  0  0
 22 23  1  0  0  0
  8  9  1  0  0  0
  9 10  2  0  0  0
 10 11  1  0  0  0
 10 12  1  0  0  0
 12 13  2  0  0  0
 13 14  1  0  0  0
 14  5  1  0  0  0
 13  7  1  0  0  0
 31 26  1  0  0  0
 34 29  1  0  0  0
  2  3  1  0  0  0
 24 25  1  0  0  0
 33 35  1  0  0  0
 18 19  1  0  0  0
 14 15  1  0  0  0
M  END
> <minimizedAffinity>
-7.84593

> <minimizedRMSD>
0.75800

$$$$
P18540


 30 34  0  0  0  0  0  0  0  0999 V2000
   -1.8503    6.0692  -19.6168 C   0  0  0  0  0  0  0  0  0  0  0  0
   -2.8902    6.9118  -19.0353 N   0  0  0  0  0  0  0  0  0  0  0  0
   -2.7515    7.0545  -17.5742 C   0  0  0  0  0  0  0  0  0  0  0  0
   -2.9840    5.8012  -16.7177 C   0  0  0  0  0  0  0  0  0  0  0  0
   -4.4301    5.4844  -16.5661 C   0  0  0  0  0  0  0  0  0  0  0  0
   -5.1164    5.4757  -15.4413 N   0  0  0  0  0  0  0  0  0  0  0  0
   -6.4053    5.1263  -15.7773 C   0  0  0  0  0  0  0  0  0  0  0  0
   -7.5686    4.9748  -14.9975 C   0  0  0  0  0  0  0  0  0  0  0  0
   -8.7654    4.5733  -15.6099 C   0  0  0  0  0  0  0  0  0  0  0  0
   -8.8000    4.3596  -16.9824 C   0  0  0  0  0  0  0  0  0  0  0  0
  -10.2937    4.0374  -17.7449 Cl  0  0  0  0  0  0  0  0  0  0  0  0
   -7.6728    4.5125  -17.7862 C   0  0  0  0  0  0  0  0  0  0  0  0
   -6.4916    4.9049  -17.1537 C   0  0  0  0  0  0  0  0  0  0  0  0
   -5.2385    5.1916  -17.6321 N   0  0  0  0  0  0  0  0  0  0  0  0
   -4.8208    5.2107  -19.0163 C   0  0  0  0  0  0  0  0  0  0  0  0
   -4.2530    6.5571  -19.4719 C   0  0  0  0  0  0  0  0  0  0  0  0
   -7.6114    5.4078  -13.5848 C   0  0  0  0  0  0  0  0  0  0  0  0
   -7.5659    6.5520  -13.3510 O   0  0  0  0  0  0  0  0  0  0  0  0
   -7.8167    4.1964  -12.6390 N   0  0  0  0  0  0  0  0  0  0  0  0
   -7.7391    3.3164  -13.0736 H   0  0  0  0  0  0  0  0  0  0  0  0
   -8.0936    4.1506  -11.2718 C   0  0  0  0  0  0  0  0  0  0  0  0
   -7.9089    5.2758  -10.4537 C   0  0  0  0  0  0  0  0  0  0  0  0
   -8.1792    5.2194   -9.0817 C   0  0  0  0  0  0  0  0  0  0  0  0
   -8.6280    4.0251   -8.5490 C   0  0  0  0  0  0  0  0  0  0  0  0
   -8.8284    2.9145   -9.3568 C   0  0  0  0  0  0  0  0  0  0  0  0
   -8.5702    2.9570  -10.7196 C   0  0  0  0  0  0  0  0  0  0  0  0
   -9.3400    1.7845   -8.5313 C   0  0  0  0  0  0  0  0  0  0  0  0
   -9.3224    2.2512   -7.1169 N   0  0  0  0  0  0  0  0  0  0  0  0
   -8.9725    3.6884   -7.1404 C   0  0  0  0  0  0  0  0  0  0  0  0
   -8.6260    1.7297   -6.5846 H   0  0  0  0  0  0  0  0  0  0  0  0
  1  2  1  0  0  0
  2  3  1  0  0  0
  3  4  1  0  0  0
  4  5  1  0  0  0
  5  6  2  0  0  0
  6  7  1  0  0  0
  7  8  2  0  0  0
  8 17  1  0  0  0
 17 18  2  0  0  0
 17 19  1  0  0  0
 19 21  1  0  0  0
 21 22  2  0  0  0
 22 23  1  0  0  0
 23 24  2  0  0  0
 24 25  1  0  0  0
 25 26  2  0  0  0
 25 27  1  0  0  0
 27 28  1  0  0  0
 28 29  1  0  0  0
  8  9  1  0  0  0
  9 10  2  0  0  0
 10 11  1  0  0  0
 10 12  1  0  0  0
 12 13  2  0  0  0
 13 14  1  0  0  0
 14 15  1  0  0  0
 15 16  1  0  0  0
 16  2  1  0  0  0
 14  5  1  0  0  0
 13  7  1  0  0  0
 26 21  1  0  0  0
 29 24  1  0  0  0
 19 20  1  0  0  0
 28 30  1  0  0  0
M  END
> <minimizedAffinity>
-9.24596

> <minimizedRMSD>
0.36629

$$$$
P18541


 30 34  0  0  0  0  0  0  0  0999 V2000
   -3.0829    5.9917  -16.9059 C   0  0  0  0  0  0  0  0  0  0  0  0
   -4.4727    5.6056  -16.5353 C   0  0  0  0  0  0  0  0  0  0  0  0
   -4.9416    5.6035  -15.2956 N   0  0  0  0  0  0  0  0  0  0  0  0
   -6.2975    5.1728  -15.3855 C   0  0  0  0  0  0  0  0  0  0  0  0
   -7.3113    4.9763  -14.4599 C   0  0  0  0  0  0  0  0  0  0  0  0
   -8.6092    4.5877  -14.9094 C   0  0  0  0  0  0  0  0  0  0  0  0
   -8.8658    4.3788  -16.2691 C   0  0  0  0  0  0  0  0  0  0  0  0
  -10.4128    4.0993  -16.9341 Cl  0  0  0  0  0  0  0  0  0  0  0  0
   -7.8390    4.5039  -17.1597 C   0  0  0  0  0  0  0  0  0  0  0  0
   -7.9449    4.2197  -18.5025 N   0  0  0  0  0  0  0  0  0  0  0  0
   -6.8688    4.2295  -19.3276 C   0  0  0  0  0  0  0  0  0  0  0  0
   -6.9679    3.6175  -20.3838 O   0  0  0  0  0  0  0  0  0  0  0  0
   -5.6087    4.9177  -18.8348 C   0  0  0  0  0  0  0  0  0  0  0  0
   -5.4835    5.1537  -17.5249 C   0  0  0  0  0  0  0  0  0  0  0  0
   -6.6234    4.9052  -16.6989 C   0  0  0  0  0  0  0  0  0  0  0  0
   -8.8297    4.0025  -18.8755 H   0  0  0  0  0  0  0  0  0  0  0  0
   -7.1426    5.2396  -13.0140 C   0  0  0  0  0  0  0  0  0  0  0  0
   -6.5826    6.2009  -12.6599 O   0  0  0  0  0  0  0  0  0  0  0  0
   -7.8825    4.1499  -12.1973 N   0  0  0  0  0  0  0  0  0  0  0  0
   -8.2120    3.3893  -12.7284 H   0  0  0  0  0  0  0  0  0  0  0  0
   -8.1571    4.0717  -10.8344 C   0  0  0  0  0  0  0  0  0  0  0  0
   -7.9772    5.1700   -9.9803 C   0  0  0  0  0  0  0  0  0  0  0  0
   -8.3001    5.0789   -8.6209 C   0  0  0  0  0  0  0  0  0  0  0  0
   -8.8101    3.8843   -8.1463 C   0  0  0  0  0  0  0  0  0  0  0  0
   -8.9836    2.7933   -8.9915 C   0  0  0  0  0  0  0  0  0  0  0  0
   -8.6603    2.8653  -10.3353 C   0  0  0  0  0  0  0  0  0  0  0  0
   -9.5209    1.6450   -8.2044 C   0  0  0  0  0  0  0  0  0  0  0  0
   -9.9925    2.2361   -6.9263 N   0  0  0  0  0  0  0  0  0  0  0  0
   -9.2421    3.5023   -6.7695 C   0  0  0  0  0  0  0  0  0  0  0  0
   -9.7941    1.6065   -6.1487 H   0  0  0  0  0  0  0  0  0  0  0  0
  1  2  1  0  0  0
  2  3  2  0  0  0
  3  4  1  0  0  0
  4  5  2  0  0  0
  5 17  1  0  0  0
 17 18  2  0  0  0
 17 19  1  0  0  0
 19 21  1  0  0  0
 21 22  2  0  0  0
 22 23  1  0  0  0
 23 24  2  0  0  0
 24 25  1  0  0  0
 25 26  2  0  0  0
 25 27  1  0  0  0
 27 28  1  0  0  0
 28 29  1  0  0  0
  5  6  1  0  0  0
  6  7  2  0  0  0
  7  8  1  0  0  0
  7  9  1  0  0  0
  9 10  1  0  0  0
 10 11  1  0  0  0
 11 12  2  0  0  0
 11 13  1  0  0  0
 13 14  2  0  0  0
 14 15  1  0  0  0
 14  2  1  0  0  0
 15  4  1  0  0  0
 26 21  1  0  0  0
 15  9  2  0  0  0
 29 24  1  0  0  0
 19 20  1  0  0  0
 28 30  1  0  0  0
 10 16  1  0  0  0
M  END
> <minimizedAffinity>
-7.51773

> <minimizedRMSD>
0.45681

$$$$
P18542


 30 33  0  0  0  0  0  0  0  0999 V2000
   -6.9876    4.3953  -14.0859 C   0  0  0  0  0  0  0  0  0  0  0  0
   -5.8572    4.8013  -13.8442 N   0  0  0  0  0  0  0  0  0  0  0  0
   -3.2662    5.8430  -17.9438 C   0  0  0  0  0  0  0  0  0  0  0  0
   -4.6753    5.4771  -17.6825 C   0  0  0  0  0  0  0  0  0  0  0  0
   -5.6443    5.3874  -18.5666 N   0  0  0  0  0  0  0  0  0  0  0  0
   -6.7574    4.9970  -17.8642 C   0  0  0  0  0  0  0  0  0  0  0  0
   -8.0513    4.7405  -18.3154 C   0  0  0  0  0  0  0  0  0  0  0  0
   -9.0125    4.4065  -17.3630 C   0  0  0  0  0  0  0  0  0  0  0  0
  -10.6371    4.2437  -17.8739 Cl  0  0  0  0  0  0  0  0  0  0  0  0
   -8.7111    4.2849  -16.0017 C   0  0  0  0  0  0  0  0  0  0  0  0
   -7.4078    4.5013  -15.5375 C   0  0  0  0  0  0  0  0  0  0  0  0
   -6.4711    4.8750  -16.5125 C   0  0  0  0  0  0  0  0  0  0  0  0
   -5.1350    5.1802  -16.4293 N   0  0  0  0  0  0  0  0  0  0  0  0
   -4.5974    5.1845  -15.6046 H   0  0  0  0  0  0  0  0  0  0  0  0
   -5.2747    4.6023  -12.6407 C   0  0  0  0  0  0  0  0  0  0  0  0
   -4.8431    5.4609  -11.8886 O   0  0  0  0  0  0  0  0  0  0  0  0
   -5.1174    3.2960  -12.3680 O   0  0  0  0  0  0  0  0  0  0  0  0
   -5.4554    2.6504  -12.9570 H   0  0  0  0  0  0  0  0  0  0  0  0
   -8.1293    3.8547  -13.1044 N   0  0  0  0  0  0  0  0  0  0  0  0
   -8.8378    3.3325  -13.5455 H   0  0  0  0  0  0  0  0  0  0  0  0
   -8.2853    4.0014  -11.7301 C   0  0  0  0  0  0  0  0  0  0  0  0
   -8.1119    5.2379  -11.0825 C   0  0  0  0  0  0  0  0  0  0  0  0
   -8.2180    5.3630   -9.6929 C   0  0  0  0  0  0  0  0  0  0  0  0
   -8.5402    4.2373   -8.9611 C   0  0  0  0  0  0  0  0  0  0  0  0
   -8.7527    3.0198   -9.5894 C   0  0  0  0  0  0  0  0  0  0  0  0
   -8.6185    2.8820  -10.9613 C   0  0  0  0  0  0  0  0  0  0  0  0
   -9.1028    1.9858   -8.5770 C   0  0  0  0  0  0  0  0  0  0  0  0
   -9.2252    2.7015   -7.2788 N   0  0  0  0  0  0  0  0  0  0  0  0
   -8.7272    4.0768   -7.4926 C   0  0  0  0  0  0  0  0  0  0  0  0
   -8.6647    2.2331   -6.5668 H   0  0  0  0  0  0  0  0  0  0  0  0
  3  4  1  0  0  0
  4  5  2  0  0  0
  5  6  1  0  0  0
  6  7  2  0  0  0
  7  8  1  0  0  0
  8  9  1  0  0  0
  8 10  2  0  0  0
 10 11  1  0  0  0
 11  1  1  0  0  0
  1  2  2  0  0  0
  2 15  1  0  0  0
 15 16  2  0  0  0
 15 17  1  0  0  0
  1 19  1  0  0  0
 19 21  1  0  0  0
 21 22  2  0  0  0
 22 23  1  0  0  0
 23 24  2  0  0  0
 24 25  1  0  0  0
 25 26  2  0  0  0
 25 27  1  0  0  0
 27 28  1  0  0  0
 28 29  1  0  0  0
 11 12  2  0  0  0
 12 13  1  0  0  0
 13  4  1  0  0  0
 12  6  1  0  0  0
 26 21  1  0  0  0
 29 24  1  0  0  0
 17 18  1  0  0  0
 19 20  1  0  0  0
 28 30  1  0  0  0
 13 14  1  0  0  0
M  END
> <minimizedAffinity>
-8.30063

> <minimizedRMSD>
0.63589

$$$$
P18545


 29 32  0  0  0  0  0  0  0  0999 V2000
   -3.1574    5.8832  -16.1631 C   0  0  0  0  0  0  0  0  0  0  0  0
   -4.5733    5.4464  -16.2267 C   0  0  0  0  0  0  0  0  0  0  0  0
   -5.3442    5.3528  -15.1600 N   0  0  0  0  0  0  0  0  0  0  0  0
   -6.5954    5.0198  -15.5990 C   0  0  0  0  0  0  0  0  0  0  0  0
   -7.8145    4.8776  -14.9086 C   0  0  0  0  0  0  0  0  0  0  0  0
   -8.9657    4.5083  -15.6170 C   0  0  0  0  0  0  0  0  0  0  0  0
   -8.8985    4.3250  -16.9923 C   0  0  0  0  0  0  0  0  0  0  0  0
  -10.3405    4.0473  -17.8619 Cl  0  0  0  0  0  0  0  0  0  0  0  0
   -7.7111    4.4734  -17.7085 C   0  0  0  0  0  0  0  0  0  0  0  0
   -6.5722    4.8272  -16.9790 C   0  0  0  0  0  0  0  0  0  0  0  0
   -5.2760    5.1328  -17.3704 N   0  0  0  0  0  0  0  0  0  0  0  0
   -7.9559    5.3138  -13.5007 C   0  0  0  0  0  0  0  0  0  0  0  0
   -7.9875    6.4589  -13.2713 O   0  0  0  0  0  0  0  0  0  0  0  0
   -8.1419    4.0960  -12.5606 N   0  0  0  0  0  0  0  0  0  0  0  0
   -8.1455    3.2221  -13.0139 H   0  0  0  0  0  0  0  0  0  0  0  0
   -8.3049    4.0366  -11.1765 C   0  0  0  0  0  0  0  0  0  0  0  0
   -8.0819    5.1642  -10.3714 C   0  0  0  0  0  0  0  0  0  0  0  0
   -8.2699    5.1056   -8.9861 C   0  0  0  0  0  0  0  0  0  0  0  0
   -8.6836    3.9094   -8.4290 C   0  0  0  0  0  0  0  0  0  0  0  0
   -8.9114    2.7941   -9.2224 C   0  0  0  0  0  0  0  0  0  0  0  0
   -8.7280    2.8366  -10.5971 C   0  0  0  0  0  0  0  0  0  0  0  0
   -9.3481    1.6547   -8.3678 C   0  0  0  0  0  0  0  0  0  0  0  0
   -9.4276    2.1731   -6.9753 N   0  0  0  0  0  0  0  0  0  0  0  0
   -8.9567    3.5751   -7.0041 C   0  0  0  0  0  0  0  0  0  0  0  0
   -8.8330    1.6171   -6.3607 H   0  0  0  0  0  0  0  0  0  0  0  0
   -4.9083    5.2596  -18.7886 C   0  0  0  0  0  0  0  0  0  0  0  0
   -3.4948    5.6003  -18.9645 N   0  0  0  0  0  0  0  0  0  0  0  0
   -2.7014    4.5266  -19.5503 C   0  0  0  0  0  0  0  0  0  0  0  0
   -3.3450    6.8493  -19.7021 C   0  0  0  0  0  0  0  0  0  0  0  0
  1  2  1  0  0  0
  2  3  2  0  0  0
  3  4  1  0  0  0
  4  5  2  0  0  0
  5 12  1  0  0  0
 12 13  2  0  0  0
 12 14  1  0  0  0
 14 16  1  0  0  0
 16 17  2  0  0  0
 17 18  1  0  0  0
 18 19  2  0  0  0
 19 20  1  0  0  0
 20 21  2  0  0  0
 20 22  1  0  0  0
 22 23  1  0  0  0
 23 24  1  0  0  0
  5  6  1  0  0  0
  6  7  2  0  0  0
  7  8  1  0  0  0
  7  9  1  0  0  0
  9 10  2  0  0  0
 10 11  1  0  0  0
 11 26  1  0  0  0
 26 27  1  0  0  0
 27 28  1  0  0  0
 27 29  1  0  0  0
 11  2  1  0  0  0
 10  4  1  0  0  0
 21 16  1  0  0  0
 24 19  1  0  0  0
 14 15  1  0  0  0
 23 25  1  0  0  0
M  END
> <minimizedAffinity>
-8.54589

> <minimizedRMSD>
0.53105

$$$$
P18547


 35 39  0  0  0  0  0  0  0  0999 V2000
   -7.7061    5.5431  -13.4583 C   0  0  0  0  0  0  0  0  0  0  0  0
   -7.6626    6.7043  -13.3302 O   0  0  0  0  0  0  0  0  0  0  0  0
   -7.8921    4.4217  -12.4026 N   0  0  0  0  0  0  0  0  0  0  0  0
   -7.8169    3.5060  -12.7562 H   0  0  0  0  0  0  0  0  0  0  0  0
   -8.1493    4.5001  -11.0306 C   0  0  0  0  0  0  0  0  0  0  0  0
   -7.9887    5.7177  -10.3527 C   0  0  0  0  0  0  0  0  0  0  0  0
   -8.1752    5.7927   -8.9740 C   0  0  0  0  0  0  0  0  0  0  0  0
   -7.9953    6.9609   -8.3462 F   0  0  0  0  0  0  0  0  0  0  0  0
   -8.5199    4.6637   -8.2659 C   0  0  0  0  0  0  0  0  0  0  0  0
   -8.7336    3.4629   -8.9447 C   0  0  0  0  0  0  0  0  0  0  0  0
   -8.5464    3.3587  -10.3228 C   0  0  0  0  0  0  0  0  0  0  0  0
   -9.1297    2.4057   -7.9651 C   0  0  0  0  0  0  0  0  0  0  0  0
   -9.2814    3.0985   -6.6537 N   0  0  0  0  0  0  0  0  0  0  0  0
   -8.6327    4.4346   -6.7916 C   0  0  0  0  0  0  0  0  0  0  0  0
   -7.2662    4.4768   -6.0846 C   0  0  0  0  0  0  0  0  0  0  0  0
   -7.0562    5.9163   -5.6337 C   0  0  0  0  0  0  0  0  0  0  0  0
   -8.4277    6.3814   -5.1869 C   0  0  0  0  0  0  0  0  0  0  0  0
   -9.3676    5.4970   -5.9701 C   0  0  0  0  0  0  0  0  0  0  0  0
  -10.5858    5.6221   -5.8703 O   0  0  0  0  0  0  0  0  0  0  0  0
   -8.8235    2.5606   -5.9179 H   0  0  0  0  0  0  0  0  0  0  0  0
   -5.1849    5.2085  -17.3828 N   0  0  0  0  0  0  0  0  0  0  0  0
   -4.4152    5.4453  -16.2621 C   0  0  0  0  0  0  0  0  0  0  0  0
   -2.9456    5.6620  -16.2757 C   0  0  0  0  0  0  0  0  0  0  0  0
   -5.1617    5.4609  -15.1785 N   0  0  0  0  0  0  0  0  0  0  0  0
   -6.4343    5.1353  -15.5775 C   0  0  0  0  0  0  0  0  0  0  0  0
   -7.6270    5.0078  -14.8369 C   0  0  0  0  0  0  0  0  0  0  0  0
   -8.7925    4.5819  -15.4850 C   0  0  0  0  0  0  0  0  0  0  0  0
   -8.7742    4.3568  -16.8593 C   0  0  0  0  0  0  0  0  0  0  0  0
  -10.2406    4.0514  -17.6835 Cl  0  0  0  0  0  0  0  0  0  0  0  0
   -7.6183    4.5096  -17.6264 C   0  0  0  0  0  0  0  0  0  0  0  0
   -6.4602    4.9070  -16.9543 C   0  0  0  0  0  0  0  0  0  0  0  0
   -4.7106    5.1844  -18.7622 C   0  0  0  0  0  0  0  0  0  0  0  0
   -3.8851    6.8653  -20.2476 C   0  0  0  0  0  0  0  0  0  0  0  0
   -4.9815    6.4899  -19.3690 N   0  0  0  0  0  0  0  0  0  0  0  0
   -5.8453    6.4390  -19.9091 H   0  0  0  0  0  0  0  0  0  0  0  0
 33 34  1  0  0  0
 34 32  1  0  0  0
 32 21  1  0  0  0
 21 22  1  0  0  0
 22 23  1  0  0  0
 22 24  2  0  0  0
 24 25  1  0  0  0
 25 26  2  0  0  0
 26  1  1  0  0  0
  1  2  2  0  0  0
  1  3  1  0  0  0
  3  5  1  0  0  0
  5  6  2  0  0  0
  6  7  1  0  0  0
  7  8  1  0  0  0
  7  9  2  0  0  0
  9 10  1  0  0  0
 10 11  2  0  0  0
 10 12  1  0  0  0
 12 13  1  0  0  0
 13 14  1  0  0  0
 14 15  1  0  0  0
 15 16  1  0  0  0
 16 17  1  0  0  0
 17 18  1  0  0  0
 18 19  2  0  0  0
 26 27  1  0  0  0
 27 28  2  0  0  0
 28 29  1  0  0  0
 28 30  1  0  0  0
 30 31  2  0  0  0
 31 21  1  0  0  0
 31 25  1  0  0  0
 11  5  1  0  0  0
 18 14  1  0  0  0
 14  9  1  0  0  0
 34 35  1  0  0  0
  3  4  1  0  0  0
 13 20  1  0  0  0
M  END
> <minimizedAffinity>
-8.35517

> <minimizedRMSD>
0.39976

$$$$
P18551


 34 38  0  0  0  0  0  0  0  0999 V2000
   -6.5874    4.7792  -13.4798 C   0  0  0  0  0  0  0  0  0  0  0  0
   -5.6877    5.4076  -13.0811 O   0  0  0  0  0  0  0  0  0  0  0  0
   -7.7465    4.0949  -12.7200 N   0  0  0  0  0  0  0  0  0  0  0  0
   -8.3454    3.5533  -13.2831 H   0  0  0  0  0  0  0  0  0  0  0  0
   -8.0816    4.1197  -11.3680 C   0  0  0  0  0  0  0  0  0  0  0  0
   -8.4670    2.9100  -10.7806 C   0  0  0  0  0  0  0  0  0  0  0  0
   -8.7858    2.8920   -9.4271 C   0  0  0  0  0  0  0  0  0  0  0  0
   -8.7319    4.0378   -8.6447 C   0  0  0  0  0  0  0  0  0  0  0  0
   -8.3765    5.2311   -9.2207 C   0  0  0  0  0  0  0  0  0  0  0  0
   -8.0716    5.2691  -10.5738 C   0  0  0  0  0  0  0  0  0  0  0  0
   -7.8271    6.5414  -11.0134 O   0  0  0  0  0  0  0  0  0  0  0  0
   -7.8433    7.4003   -9.8477 C   0  0  0  0  0  0  0  0  0  0  0  0
   -8.8251    8.5382  -10.1351 C   0  0  0  0  0  0  0  0  0  0  0  0
   -6.4290    7.9613   -9.6713 C   0  0  0  0  0  0  0  0  0  0  0  0
   -8.2802    6.5765   -8.6201 C   0  0  0  0  0  0  0  0  0  0  0  0
   -9.0971    3.7064   -7.2438 C   0  0  0  0  0  0  0  0  0  0  0  0
   -9.5238    2.2908   -7.2449 N   0  0  0  0  0  0  0  0  0  0  0  0
   -9.1738    1.7324   -8.5783 C   0  0  0  0  0  0  0  0  0  0  0  0
  -10.5303    2.2282   -7.0921 H   0  0  0  0  0  0  0  0  0  0  0  0
   -4.8715    5.9246  -17.6298 N   0  0  0  0  0  0  0  0  0  0  0  0
   -3.8567    5.6851  -16.7410 C   0  0  0  0  0  0  0  0  0  0  0  0
   -2.4220    5.8249  -17.1017 C   0  0  0  0  0  0  0  0  0  0  0  0
   -4.3516    5.2964  -15.5817 N   0  0  0  0  0  0  0  0  0  0  0  0
   -5.7044    5.1004  -15.7823 C   0  0  0  0  0  0  0  0  0  0  0  0
   -6.7505    4.6649  -14.9435 C   0  0  0  0  0  0  0  0  0  0  0  0
   -8.0127    4.3466  -15.5017 C   0  0  0  0  0  0  0  0  0  0  0  0
   -8.2476    4.5867  -16.8454 C   0  0  0  0  0  0  0  0  0  0  0  0
   -9.7300    4.2776  -17.6349 Cl  0  0  0  0  0  0  0  0  0  0  0  0
   -7.2996    5.2266  -17.6173 C   0  0  0  0  0  0  0  0  0  0  0  0
   -6.0299    5.4267  -17.0879 C   0  0  0  0  0  0  0  0  0  0  0  0
   -4.7309    6.4882  -18.9593 C   0  0  0  0  0  0  0  0  0  0  0  0
   -3.0447    6.0366  -20.5690 C   0  0  0  0  0  0  0  0  0  0  0  0
   -4.1756    5.4771  -19.8328 N   0  0  0  0  0  0  0  0  0  0  0  0
   -3.8594    4.6832  -19.2759 H   0  0  0  0  0  0  0  0  0  0  0  0
 32 33  1  0  0  0
 33 31  1  0  0  0
 31 20  1  0  0  0
 20 21  1  0  0  0
 21 22  1  0  0  0
 21 23  2  0  0  0
 23 24  1  0  0  0
 24 25  2  0  0  0
 25  1  1  0  0  0
  1  2  2  0  0  0
  1  3  1  0  0  0
  3  5  1  0  0  0
  5  6  2  0  0  0
  6  7  1  0  0  0
  7  8  2  0  0  0
  8  9  1  0  0  0
  9 10  2  0  0  0
 10 11  1  0  0  0
 11 12  1  0  0  0
 12 13  1  0  0  0
 12 14  1  0  0  0
 12 15  1  0  0  0
  8 16  1  0  0  0
 16 17  1  0  0  0
 17 18  1  0  0  0
 25 26  1  0  0  0
 26 27  2  0  0  0
 27 28  1  0  0  0
 27 29  1  0  0  0
 29 30  2  0  0  0
 30 20  1  0  0  0
 30 24  1  0  0  0
 10  5  1  0  0  0
 18  7  1  0  0  0
 15  9  1  0  0  0
 33 34  1  0  0  0
  3  4  1  0  0  0
 17 19  1  0  0  0
M  END
> <minimizedAffinity>
-8.32195

> <minimizedRMSD>
0.89973

$$$$
P18569


 39 43  0  0  0  0  0  0  0  0999 V2000
   -7.2698    4.0847  -13.8789 C   0  0  0  0  0  0  0  0  0  0  0  0
   -6.4634    5.2142  -13.5192 O   0  0  0  0  0  0  0  0  0  0  0  0
   -6.2702    5.1840  -12.5691 H   0  0  0  0  0  0  0  0  0  0  0  0
   -7.5332    4.1975  -15.3793 C   0  0  0  0  0  0  0  0  0  0  0  0
   -8.8215    4.1007  -15.9433 C   0  0  0  0  0  0  0  0  0  0  0  0
   -9.0287    4.1856  -17.3309 C   0  0  0  0  0  0  0  0  0  0  0  0
  -10.6248    4.1526  -17.9461 Cl  0  0  0  0  0  0  0  0  0  0  0  0
   -7.9735    4.3646  -18.2127 C   0  0  0  0  0  0  0  0  0  0  0  0
   -6.7226    4.5054  -17.6626 C   0  0  0  0  0  0  0  0  0  0  0  0
   -6.5004    4.4077  -16.2894 C   0  0  0  0  0  0  0  0  0  0  0  0
   -5.1132    4.5148  -16.0064 N   0  0  0  0  0  0  0  0  0  0  0  0
   -4.5400    4.9588  -17.2932 C   0  0  0  0  0  0  0  0  0  0  0  0
   -3.2513    4.1542  -17.5537 C   0  0  0  0  0  0  0  0  0  0  0  0
   -2.1734    4.9166  -18.3339 C   0  0  0  0  0  0  0  0  0  0  0  0
   -2.7551    5.9638  -19.2702 C   0  0  0  0  0  0  0  0  0  0  0  0
   -3.5883    7.0014  -18.5182 C   0  0  0  0  0  0  0  0  0  0  0  0
   -4.2197    6.4674  -17.2278 C   0  0  0  0  0  0  0  0  0  0  0  0
   -5.5205    4.7326  -18.3787 N   0  0  0  0  0  0  0  0  0  0  0  0
   -4.6465    4.3363  -15.1582 H   0  0  0  0  0  0  0  0  0  0  0  0
   -5.3747    4.7385  -19.3524 H   0  0  0  0  0  0  0  0  0  0  0  0
   -5.1378    3.0217  -12.9892 N   0  0  0  0  0  0  0  0  0  0  0  0
   -6.5541    2.6695  -13.5366 C   0  0  0  0  0  0  0  0  0  0  0  0
   -7.0933    1.6348  -13.6350 O   0  0  0  0  0  0  0  0  0  0  0  0
   -4.9425    3.9854  -12.9404 H   0  0  0  0  0  0  0  0  0  0  0  0
   -3.4015    1.4935  -13.7334 C   0  0  0  0  0  0  0  0  0  0  0  0
   -4.0675    2.1649  -12.5428 C   0  0  0  0  0  0  0  0  0  0  0  0
   -3.0629    2.9564  -11.7162 C   0  0  0  0  0  0  0  0  0  0  0  0
   -8.5470    4.1752  -13.1260 N   0  0  0  0  0  0  0  0  0  0  0  0
   -9.4125    4.2103  -13.5938 H   0  0  0  0  0  0  0  0  0  0  0  0
   -8.4765    4.2092  -11.7148 C   0  0  0  0  0  0  0  0  0  0  0  0
   -8.0366    5.3744  -11.0490 C   0  0  0  0  0  0  0  0  0  0  0  0
   -7.9609    5.4328   -9.6538 C   0  0  0  0  0  0  0  0  0  0  0  0
   -8.3656    4.3229   -8.9376 C   0  0  0  0  0  0  0  0  0  0  0  0
   -8.7934    3.1683   -9.5837 C   0  0  0  0  0  0  0  0  0  0  0  0
   -8.8314    3.0846  -10.9628 C   0  0  0  0  0  0  0  0  0  0  0  0
   -9.1771    2.1451   -8.5685 C   0  0  0  0  0  0  0  0  0  0  0  0
   -9.2957    2.9013   -7.2920 N   0  0  0  0  0  0  0  0  0  0  0  0
   -8.4640    4.1115   -7.4646 C   0  0  0  0  0  0  0  0  0  0  0  0
   -8.9502    2.3406   -6.5131 H   0  0  0  0  0  0  0  0  0  0  0  0
 25 26  1  0  0  0
 26 27  1  0  0  0
 26 21  1  0  0  0
 21 22  1  0  0  0
 22 23  2  0  0  0
 22  1  1  0  0  0
  1  2  1  0  0  0
  1 28  1  0  0  0
 28 30  1  0  0  0
 30 31  2  0  0  0
 31 32  1  0  0  0
 32 33  2  0  0  0
 33 34  1  0  0  0
 34 35  2  0  0  0
 34 36  1  0  0  0
 36 37  1  0  0  0
 37 38  1  0  0  0
  1  4  1  0  0  0
  4  5  2  0  0  0
  5  6  1  0  0  0
  6  7  1  0  0  0
  6  8  2  0  0  0
  8  9  1  0  0  0
  9 10  2  0  0  0
 10 11  1  0  0  0
 11 12  1  0  0  0
 12 13  1  0  0  0
 13 14  1  0  0  0
 14 15  1  0  0  0
 15 16  1  0  0  0
 16 17  1  0  0  0
 12 18  1  0  0  0
 35 30  1  0  0  0
 10  4  1  0  0  0
 17 12  1  0  0  0
 38 33  1  0  0  0
 18  9  1  0  0  0
 21 24  1  0  0  0
  2  3  1  0  0  0
 28 29  1  0  0  0
 37 39  1  0  0  0
 11 19  1  0  0  0
 18 20  1  0  0  0
M  END
> <minimizedAffinity>
-9.69713

> <minimizedRMSD>
0.65046

$$$$
P18589


 26 29  0  0  0  0  0  0  0  0999 V2000
   -6.9121    4.9530  -14.0529 C   0  0  0  0  0  0  0  0  0  0  0  0
   -5.9650    5.5511  -13.7127 O   0  0  0  0  0  0  0  0  0  0  0  0
   -8.0794    4.3624  -13.2215 N   0  0  0  0  0  0  0  0  0  0  0  0
   -8.8047    3.9636  -13.7545 H   0  0  0  0  0  0  0  0  0  0  0  0
   -5.6414    4.4919  -17.5951 C   0  0  0  0  0  0  0  0  0  0  0  0
   -5.8111    4.5368  -16.1505 C   0  0  0  0  0  0  0  0  0  0  0  0
   -7.0008    4.5939  -15.5084 C   0  0  0  0  0  0  0  0  0  0  0  0
   -8.1792    4.5397  -16.3783 C   0  0  0  0  0  0  0  0  0  0  0  0
   -7.9598    4.5599  -17.8534 C   0  0  0  0  0  0  0  0  0  0  0  0
   -6.6610    4.5216  -18.4493 C   0  0  0  0  0  0  0  0  0  0  0  0
   -9.0628    4.6045  -18.4832 N   0  0  0  0  0  0  0  0  0  0  0  0
   -9.9593    4.4594  -17.4715 C   0  0  0  0  0  0  0  0  0  0  0  0
  -11.0901    4.1126  -17.7348 O   0  0  0  0  0  0  0  0  0  0  0  0
   -9.4424    4.5016  -16.1752 N   0  0  0  0  0  0  0  0  0  0  0  0
   -3.2983    4.5638  -18.6433 N   0  0  0  0  0  0  0  0  0  0  0  0
   -4.3535    4.5892  -18.1690 C   0  0  0  0  0  0  0  0  0  0  0  0
   -8.2708    4.3037  -11.8301 C   0  0  0  0  0  0  0  0  0  0  0  0
   -8.0624    5.4580  -11.0475 C   0  0  0  0  0  0  0  0  0  0  0  0
   -8.2036    5.4377   -9.6543 C   0  0  0  0  0  0  0  0  0  0  0  0
   -8.5690    4.2505   -9.0550 C   0  0  0  0  0  0  0  0  0  0  0  0
   -8.7807    3.1029   -9.8139 C   0  0  0  0  0  0  0  0  0  0  0  0
   -8.6316    3.1083  -11.1996 C   0  0  0  0  0  0  0  0  0  0  0  0
   -9.1386    1.9836   -8.8864 C   0  0  0  0  0  0  0  0  0  0  0  0
   -9.4768    2.6341   -7.5920 N   0  0  0  0  0  0  0  0  0  0  0  0
   -8.7853    3.9380   -7.6120 C   0  0  0  0  0  0  0  0  0  0  0  0
   -9.1458    2.0673   -6.8113 H   0  0  0  0  0  0  0  0  0  0  0  0
 15 16  3  0  0  0
 16  5  1  0  0  0
  5  6  1  0  0  0
  6  7  2  0  0  0
  7  1  1  0  0  0
  1  2  2  0  0  0
  1  3  1  0  0  0
  3 17  1  0  0  0
 17 18  2  0  0  0
 18 19  1  0  0  0
 19 20  2  0  0  0
 20 21  1  0  0  0
 21 22  2  0  0  0
 21 23  1  0  0  0
 23 24  1  0  0  0
 24 25  1  0  0  0
  7  8  1  0  0  0
  8  9  1  0  0  0
  9 10  1  0  0  0
  9 11  2  0  0  0
 11 12  1  0  0  0
 12 13  2  0  0  0
 12 14  1  0  0  0
 10  5  2  0  0  0
 22 17  1  0  0  0
 14  8  2  0  0  0
 25 20  1  0  0  0
  3  4  1  0  0  0
 24 26  1  0  0  0
M  END
> <minimizedAffinity>
-8.56983

> <minimizedRMSD>
1.08854

$$$$
P18600


 27 30  0  0  0  0  0  0  0  0999 V2000
   -8.4557    5.4271  -13.4404 C   0  0  0  0  0  0  0  0  0  0  0  0
   -9.3674    6.1562  -13.4042 O   0  0  0  0  0  0  0  0  0  0  0  0
   -7.7961    4.5849  -12.3159 N   0  0  0  0  0  0  0  0  0  0  0  0
   -7.0783    3.9831  -12.6189 H   0  0  0  0  0  0  0  0  0  0  0  0
   -8.0569    4.5416  -10.9342 C   0  0  0  0  0  0  0  0  0  0  0  0
   -8.5496    3.2894  -10.5078 C   0  0  0  0  0  0  0  0  0  0  0  0
   -8.9011    3.1028   -9.1844 C   0  0  0  0  0  0  0  0  0  0  0  0
   -8.7576    4.1205   -8.2605 C   0  0  0  0  0  0  0  0  0  0  0  0
   -8.2505    5.3467   -8.6361 C   0  0  0  0  0  0  0  0  0  0  0  0
   -7.8990    5.5815   -9.9859 C   0  0  0  0  0  0  0  0  0  0  0  0
   -7.3764    6.9568  -10.2773 C   0  0  0  0  0  0  0  0  0  0  0  0
   -9.2221    3.6423   -6.9268 C   0  0  0  0  0  0  0  0  0  0  0  0
   -9.9654    2.3935   -7.1993 N   0  0  0  0  0  0  0  0  0  0  0  0
   -9.4435    1.8956   -8.4979 C   0  0  0  0  0  0  0  0  0  0  0  0
  -10.9657    2.5815   -7.2656 H   0  0  0  0  0  0  0  0  0  0  0  0
   -6.7433    4.9602  -17.4683 C   0  0  0  0  0  0  0  0  0  0  0  0
   -7.7307    4.1953  -16.9765 C   0  0  0  0  0  0  0  0  0  0  0  0
   -8.2583    4.3277  -15.6379 C   0  0  0  0  0  0  0  0  0  0  0  0
   -7.7511    5.1726  -14.7234 C   0  0  0  0  0  0  0  0  0  0  0  0
   -6.6379    6.0259  -15.1559 C   0  0  0  0  0  0  0  0  0  0  0  0
   -6.1696    5.9545  -16.5600 C   0  0  0  0  0  0  0  0  0  0  0  0
   -5.2647    6.8472  -16.7487 N   0  0  0  0  0  0  0  0  0  0  0  0
   -5.1207    7.4428  -15.5156 C   0  0  0  0  0  0  0  0  0  0  0  0
   -4.3442    8.3614  -15.3070 O   0  0  0  0  0  0  0  0  0  0  0  0
   -5.9470    6.9161  -14.5374 N   0  0  0  0  0  0  0  0  0  0  0  0
   -4.7176    4.6723  -18.9836 C   0  0  0  0  0  0  0  0  0  0  0  0
   -6.2315    4.8230  -18.8597 C   0  0  0  0  0  0  0  0  0  0  0  0
 26 27  1  0  0  0
 27 16  1  0  0  0
 16 17  2  0  0  0
 17 18  1  0  0  0
 18 19  2  0  0  0
 19  1  1  0  0  0
  1  2  2  0  0  0
  1  3  1  0  0  0
  3  5  1  0  0  0
  5  6  2  0  0  0
  6  7  1  0  0  0
  7  8  2  0  0  0
  8  9  1  0  0  0
  9 10  2  0  0  0
 10 11  1  0  0  0
  8 12  1  0  0  0
 12 13  1  0  0  0
 13 14  1  0  0  0
 19 20  1  0  0  0
 20 21  1  0  0  0
 21 22  2  0  0  0
 22 23  1  0  0  0
 23 24  2  0  0  0
 23 25  1  0  0  0
 21 16  1  0  0  0
 10  5  1  0  0  0
 25 20  2  0  0  0
 14  7  1  0  0  0
  3  4  1  0  0  0
 13 15  1  0  0  0
M  END
> <minimizedAffinity>
-7.35187

> <minimizedRMSD>
1.08056

$$$$
P18606


 25 28  0  0  0  0  0  0  0  0999 V2000
   -8.0365    4.2725  -13.0620 N   0  0  0  0  0  0  0  0  0  0  0  0
   -7.3278    5.3479  -13.9264 C   0  0  0  0  0  0  0  0  0  0  0  0
   -6.9073    6.3994  -13.6337 O   0  0  0  0  0  0  0  0  0  0  0  0
   -8.3682    3.4931  -13.5639 H   0  0  0  0  0  0  0  0  0  0  0  0
   -8.0543    6.5564   -8.6562 C   0  0  0  0  0  0  0  0  0  0  0  0
   -8.2644    5.3315   -9.4892 C   0  0  0  0  0  0  0  0  0  0  0  0
   -8.0614    5.3635  -10.8806 C   0  0  0  0  0  0  0  0  0  0  0  0
   -8.2811    4.2300  -11.6855 C   0  0  0  0  0  0  0  0  0  0  0  0
   -8.7161    3.0390  -11.1001 C   0  0  0  0  0  0  0  0  0  0  0  0
   -8.9219    3.0126   -9.7276 C   0  0  0  0  0  0  0  0  0  0  0  0
   -8.7123    4.1404   -8.9365 C   0  0  0  0  0  0  0  0  0  0  0  0
   -9.0245    3.7946   -7.5158 C   0  0  0  0  0  0  0  0  0  0  0  0
   -9.7309    2.4977   -7.5615 N   0  0  0  0  0  0  0  0  0  0  0  0
   -9.3394    1.8755   -8.8517 C   0  0  0  0  0  0  0  0  0  0  0  0
  -10.7402    2.6405   -7.5267 H   0  0  0  0  0  0  0  0  0  0  0  0
   -7.1119    4.8361  -15.3065 C   0  0  0  0  0  0  0  0  0  0  0  0
   -5.8461    4.8279  -15.7650 C   0  0  0  0  0  0  0  0  0  0  0  0
   -5.4867    4.5721  -17.1470 C   0  0  0  0  0  0  0  0  0  0  0  0
   -6.3886    4.4108  -18.1221 C   0  0  0  0  0  0  0  0  0  0  0  0
   -7.7864    4.4382  -17.7235 C   0  0  0  0  0  0  0  0  0  0  0  0
   -8.1612    4.6078  -16.2959 C   0  0  0  0  0  0  0  0  0  0  0  0
   -9.4359    4.5538  -16.1986 N   0  0  0  0  0  0  0  0  0  0  0  0
   -9.8608    4.4464  -17.5234 C   0  0  0  0  0  0  0  0  0  0  0  0
  -11.0322    4.4063  -17.8538 O   0  0  0  0  0  0  0  0  0  0  0  0
   -8.8386    4.3267  -18.4417 N   0  0  0  0  0  0  0  0  0  0  0  0
  5  6  1  0  0  0
  6  7  2  0  0  0
  7  8  1  0  0  0
  8  1  1  0  0  0
  1  2  1  0  0  0
  2  3  2  0  0  0
  2 16  1  0  0  0
 16 17  2  0  0  0
 17 18  1  0  0  0
 18 19  2  0  0  0
 19 20  1  0  0  0
 20 21  1  0  0  0
 21 22  2  0  0  0
 22 23  1  0  0  0
 23 24  2  0  0  0
 23 25  1  0  0  0
  8  9  2  0  0  0
  9 10  1  0  0  0
 10 11  2  0  0  0
 11 12  1  0  0  0
 12 13  1  0  0  0
 13 14  1  0  0  0
 11  6  1  0  0  0
 21 16  1  0  0  0
 14 10  1  0  0  0
 25 20  2  0  0  0
  1  4  1  0  0  0
 13 15  1  0  0  0
M  END
> <minimizedAffinity>
-8.65707

> <minimizedRMSD>
0.29735

$$$$
P18609


 25 28  0  0  0  0  0  0  0  0999 V2000
   -7.4316    4.9407  -13.7911 C   0  0  0  0  0  0  0  0  0  0  0  0
   -7.1623    4.5994  -15.2416 C   0  0  0  0  0  0  0  0  0  0  0  0
   -5.8938    4.5517  -15.7095 C   0  0  0  0  0  0  0  0  0  0  0  0
   -5.5161    4.4878  -17.1061 C   0  0  0  0  0  0  0  0  0  0  0  0
   -6.4001    4.4955  -18.1072 C   0  0  0  0  0  0  0  0  0  0  0  0
   -7.7979    4.4902  -17.7207 C   0  0  0  0  0  0  0  0  0  0  0  0
   -8.1988    4.5112  -16.2835 C   0  0  0  0  0  0  0  0  0  0  0  0
   -9.4776    4.4534  -16.2358 N   0  0  0  0  0  0  0  0  0  0  0  0
   -9.8714    4.4402  -17.5760 C   0  0  0  0  0  0  0  0  0  0  0  0
  -11.0256    4.3440  -17.9539 O   0  0  0  0  0  0  0  0  0  0  0  0
   -8.8322    4.4610  -18.4734 N   0  0  0  0  0  0  0  0  0  0  0  0
   -6.8714    7.1588  -13.6664 O   0  0  0  0  0  0  0  0  0  0  0  0
   -7.8359    6.3917  -13.7883 N   0  0  0  0  0  0  0  0  0  0  0  0
   -8.4183    4.1054  -13.1128 N   0  0  0  0  0  0  0  0  0  0  0  0
   -9.0711    3.5641  -13.6128 H   0  0  0  0  0  0  0  0  0  0  0  0
   -8.3861    4.1156  -11.6938 C   0  0  0  0  0  0  0  0  0  0  0  0
   -8.0346    5.2678  -10.9520 C   0  0  0  0  0  0  0  0  0  0  0  0
   -8.0830    5.3034   -9.5518 C   0  0  0  0  0  0  0  0  0  0  0  0
   -8.5086    4.1743   -8.8888 C   0  0  0  0  0  0  0  0  0  0  0  0
   -8.8416    3.0226   -9.5897 C   0  0  0  0  0  0  0  0  0  0  0  0
   -8.7865    2.9762  -10.9782 C   0  0  0  0  0  0  0  0  0  0  0  0
   -9.2416    1.9669   -8.6106 C   0  0  0  0  0  0  0  0  0  0  0  0
   -9.5071    2.6948   -7.3413 N   0  0  0  0  0  0  0  0  0  0  0  0
   -8.7255    3.9456   -7.4314 C   0  0  0  0  0  0  0  0  0  0  0  0
   -9.2012    2.1402   -6.5418 H   0  0  0  0  0  0  0  0  0  0  0  0
 12 13  2  0  0  0
 13  1  1  0  0  0
  1 14  1  0  0  0
 14 16  1  0  0  0
 16 17  2  0  0  0
 17 18  1  0  0  0
 18 19  2  0  0  0
 19 20  1  0  0  0
 20 21  2  0  0  0
 20 22  1  0  0  0
 22 23  1  0  0  0
 23 24  1  0  0  0
  1  2  1  0  0  0
  2  3  2  0  0  0
  3  4  1  0  0  0
  4  5  2  0  0  0
  5  6  1  0  0  0
  6  7  1  0  0  0
  7  8  2  0  0  0
  8  9  1  0  0  0
  9 10  2  0  0  0
  9 11  1  0  0  0
 21 16  1  0  0  0
  7  2  1  0  0  0
 24 19  1  0  0  0
 11  6  2  0  0  0
 14 15  1  0  0  0
 23 25  1  0  0  0
M  END
> <minimizedAffinity>
-8.20378

> <minimizedRMSD>
0.28721

$$$$
P18625


 34 38  0  0  0  0  0  0  0  0999 V2000
   -7.4532    4.4986  -15.4993 C   0  0  0  0  0  0  0  0  0  0  0  0
   -8.7093    4.3398  -15.9424 C   0  0  0  0  0  0  0  0  0  0  0  0
   -9.0436    4.2307  -17.3467 C   0  0  0  0  0  0  0  0  0  0  0  0
  -10.7159    4.1934  -17.7147 Cl  0  0  0  0  0  0  0  0  0  0  0  0
   -8.1487    4.2852  -18.3403 C   0  0  0  0  0  0  0  0  0  0  0  0
   -6.7528    4.4429  -17.9484 C   0  0  0  0  0  0  0  0  0  0  0  0
   -6.3929    4.5385  -16.5050 C   0  0  0  0  0  0  0  0  0  0  0  0
   -5.1182    4.6511  -16.3945 N   0  0  0  0  0  0  0  0  0  0  0  0
   -4.7018    4.6902  -17.7124 C   0  0  0  0  0  0  0  0  0  0  0  0
   -3.4833    4.9163  -18.0789 N   0  0  0  0  0  0  0  0  0  0  0  0
   -5.6878    4.5322  -18.6633 N   0  0  0  0  0  0  0  0  0  0  0  0
   -8.1541    4.1002  -13.1628 N   0  0  0  0  0  0  0  0  0  0  0  0
   -7.2178    4.9093  -14.0969 C   0  0  0  0  0  0  0  0  0  0  0  0
   -6.4071    5.7120  -13.8457 O   0  0  0  0  0  0  0  0  0  0  0  0
   -8.7030    3.4209  -13.6171 H   0  0  0  0  0  0  0  0  0  0  0  0
   -9.1378    5.0513   -6.7248 C   0  0  0  0  0  0  0  0  0  0  0  0
   -8.5037    3.9767   -7.5693 C   0  0  0  0  0  0  0  0  0  0  0  0
   -9.2199    2.6937   -7.4082 N   0  0  0  0  0  0  0  0  0  0  0  0
   -9.2148    2.0400   -8.7414 C   0  0  0  0  0  0  0  0  0  0  0  0
   -8.8619    3.1108   -9.7191 C   0  0  0  0  0  0  0  0  0  0  0  0
   -8.8013    3.0519  -11.1006 C   0  0  0  0  0  0  0  0  0  0  0  0
   -8.3444    4.1780  -11.7880 C   0  0  0  0  0  0  0  0  0  0  0  0
   -8.0188    5.3533  -11.0933 C   0  0  0  0  0  0  0  0  0  0  0  0
   -8.0910    5.4008   -9.7029 C   0  0  0  0  0  0  0  0  0  0  0  0
   -8.4912    4.2612   -9.0324 C   0  0  0  0  0  0  0  0  0  0  0  0
  -10.1781    2.8608   -7.1009 H   0  0  0  0  0  0  0  0  0  0  0  0
   -2.6522    5.1071  -16.9535 O   0  0  0  0  0  0  0  0  0  0  0  0
   -2.0285    6.3924  -17.0353 C   0  0  0  0  0  0  0  0  0  0  0  0
   -2.9977    7.5155  -16.7349 C   0  0  0  0  0  0  0  0  0  0  0  0
   -3.2952    8.4773  -17.7105 C   0  0  0  0  0  0  0  0  0  0  0  0
   -4.1739    9.5264  -17.4286 C   0  0  0  0  0  0  0  0  0  0  0  0
   -4.7627    9.6272  -16.1690 C   0  0  0  0  0  0  0  0  0  0  0  0
   -4.4707    8.6817  -15.1889 C   0  0  0  0  0  0  0  0  0  0  0  0
   -3.5864    7.6385  -15.4674 C   0  0  0  0  0  0  0  0  0  0  0  0
 17 16  1  0  0  0
 17 18  1  0  0  0
 18 19  1  0  0  0
 19 20  1  0  0  0
 20 21  2  0  0  0
 21 22  1  0  0  0
 22 12  1  0  0  0
 12 13  1  0  0  0
 13 14  2  0  0  0
 13  1  1  0  0  0
  1  2  2  0  0  0
  2  3  1  0  0  0
  3  4  1  0  0  0
  3  5  2  0  0  0
  5  6  1  0  0  0
  6  7  1  0  0  0
  7  8  2  0  0  0
  8  9  1  0  0  0
  9 10  2  0  0  0
 10 27  1  0  0  0
 27 28  1  0  0  0
 28 29  1  0  0  0
 29 30  2  0  0  0
 30 31  1  0  0  0
 31 32  2  0  0  0
 32 33  1  0  0  0
 33 34  2  0  0  0
  9 11  1  0  0  0
 22 23  2  0  0  0
 23 24  1  0  0  0
 24 25  2  0  0  0
 25 17  1  0  0  0
 25 20  1  0  0  0
  7  1  1  0  0  0
 34 29  1  0  0  0
 11  6  2  0  0  0
 18 26  1  0  0  0
 12 15  1  0  0  0
M  END
> <minimizedAffinity>
-7.66008

> <minimizedRMSD>
0.44443

$$$$
P18630


 34 38  0  0  0  0  0  0  0  0999 V2000
   -7.3318    4.7910  -13.8564 C   0  0  0  0  0  0  0  0  0  0  0  0
   -3.2514    4.9006  -17.2537 O   0  0  0  0  0  0  0  0  0  0  0  0
   -4.4592    4.7829  -17.1355 C   0  0  0  0  0  0  0  0  0  0  0  0
   -5.3001    4.5481  -18.2105 N   0  0  0  0  0  0  0  0  0  0  0  0
   -6.4648    4.5124  -17.6727 C   0  0  0  0  0  0  0  0  0  0  0  0
   -7.7733    4.3815  -18.2825 C   0  0  0  0  0  0  0  0  0  0  0  0
   -8.8107    4.4534  -17.4444 C   0  0  0  0  0  0  0  0  0  0  0  0
  -10.3777    4.5244  -18.0952 Cl  0  0  0  0  0  0  0  0  0  0  0  0
   -8.7039    4.5479  -16.0050 C   0  0  0  0  0  0  0  0  0  0  0  0
   -7.5361    4.6674  -15.3467 C   0  0  0  0  0  0  0  0  0  0  0  0
   -6.3421    4.7046  -16.2054 C   0  0  0  0  0  0  0  0  0  0  0  0
   -5.1069    4.8937  -15.9178 N   0  0  0  0  0  0  0  0  0  0  0  0
   -5.8821    4.3547  -13.4119 C   0  0  0  0  0  0  0  0  0  0  0  0
   -5.1021    5.1366  -13.0248 O   0  0  0  0  0  0  0  0  0  0  0  0
   -5.7292    2.8304  -13.6905 N   0  0  0  0  0  0  0  0  0  0  0  0
   -6.5213    2.4024  -14.0887 H   0  0  0  0  0  0  0  0  0  0  0  0
   -4.6166    1.9448  -13.4602 C   0  0  0  0  0  0  0  0  0  0  0  0
   -3.8981    2.1381  -12.1304 C   0  0  0  0  0  0  0  0  0  0  0  0
   -4.6643    1.5562  -10.9528 C   0  0  0  0  0  0  0  0  0  0  0  0
   -3.5529    1.0921  -10.0513 C   0  0  0  0  0  0  0  0  0  0  0  0
   -2.5126    0.6129  -11.0360 C   0  0  0  0  0  0  0  0  0  0  0  0
   -2.6278    1.4498  -12.1934 O   0  0  0  0  0  0  0  0  0  0  0  0
   -8.3800    4.0343  -13.1416 N   0  0  0  0  0  0  0  0  0  0  0  0
   -9.0342    3.4808  -13.6262 H   0  0  0  0  0  0  0  0  0  0  0  0
   -8.4035    4.1382  -11.7377 C   0  0  0  0  0  0  0  0  0  0  0  0
   -8.1377    5.3440  -11.0565 C   0  0  0  0  0  0  0  0  0  0  0  0
   -8.1919    5.4264   -9.6617 C   0  0  0  0  0  0  0  0  0  0  0  0
   -8.5371    4.2936   -8.9546 C   0  0  0  0  0  0  0  0  0  0  0  0
   -8.8471    3.1111   -9.6091 C   0  0  0  0  0  0  0  0  0  0  0  0
   -8.8010    3.0202  -10.9899 C   0  0  0  0  0  0  0  0  0  0  0  0
   -9.2585    2.0834   -8.6125 C   0  0  0  0  0  0  0  0  0  0  0  0
   -8.9445    2.6608   -7.2779 N   0  0  0  0  0  0  0  0  0  0  0  0
   -8.6985    4.1055   -7.4876 C   0  0  0  0  0  0  0  0  0  0  0  0
   -8.1135    2.2154   -6.8887 H   0  0  0  0  0  0  0  0  0  0  0  0
  2  3  2  0  0  0
  3  4  1  0  0  0
  4  5  2  0  0  0
  5  6  1  0  0  0
  6  7  2  0  0  0
  7  8  1  0  0  0
  7  9  1  0  0  0
  9 10  2  0  0  0
 10  1  1  0  0  0
  1 23  1  0  0  0
 23 25  1  0  0  0
 25 26  2  0  0  0
 26 27  1  0  0  0
 27 28  2  0  0  0
 28 29  1  0  0  0
 29 30  2  0  0  0
 29 31  1  0  0  0
 31 32  1  0  0  0
 32 33  1  0  0  0
  1 13  1  0  0  0
 13 14  2  0  0  0
 13 15  1  0  0  0
 15 17  1  0  0  0
 18 17  1  0  0  0
 18 19  1  0  0  0
 19 20  1  0  0  0
 20 21  1  0  0  0
 21 22  1  0  0  0
 10 11  1  0  0  0
 11 12  2  0  0  0
 12  3  1  0  0  0
 11  5  1  0  0  0
 30 25  1  0  0  0
 22 18  1  0  0  0
 33 28  1  0  0  0
 23 24  1  0  0  0
 32 34  1  0  0  0
 15 16  1  0  0  0
M  END
> <minimizedAffinity>
-8.34977

> <minimizedRMSD>
0.57558

$$$$
P18639


 30 34  0  0  0  0  0  0  0  0999 V2000
   -8.2891    4.2224  -11.6780 C   0  0  0  0  0  0  0  0  0  0  0  0
   -8.7153    3.0323  -11.0859 C   0  0  0  0  0  0  0  0  0  0  0  0
   -8.9200    3.0111   -9.7133 C   0  0  0  0  0  0  0  0  0  0  0  0
   -8.7157    4.1445   -8.9268 C   0  0  0  0  0  0  0  0  0  0  0  0
   -8.2841    5.3449   -9.4820 C   0  0  0  0  0  0  0  0  0  0  0  0
   -8.0780    5.3617  -10.8776 C   0  0  0  0  0  0  0  0  0  0  0  0
   -9.0352    3.8021   -7.5055 C   0  0  0  0  0  0  0  0  0  0  0  0
   -9.7325    2.5002   -7.5487 N   0  0  0  0  0  0  0  0  0  0  0  0
   -9.3375    1.8758   -8.8347 C   0  0  0  0  0  0  0  0  0  0  0  0
  -10.7428    2.6367   -7.5151 H   0  0  0  0  0  0  0  0  0  0  0  0
   -8.0518    6.5458   -8.6714 C   0  0  0  0  0  0  0  0  0  0  0  0
   -9.0373    7.5289   -8.5379 C   0  0  0  0  0  0  0  0  0  0  0  0
   -8.7777    8.6385   -7.7499 C   0  0  0  0  0  0  0  0  0  0  0  0
   -7.6139    8.8423   -7.0971 N   0  0  0  0  0  0  0  0  0  0  0  0
   -6.6692    7.8902   -7.2445 C   0  0  0  0  0  0  0  0  0  0  0  0
   -6.8376    6.7445   -8.0065 C   0  0  0  0  0  0  0  0  0  0  0  0
   -7.2899    5.3067  -13.9172 C   0  0  0  0  0  0  0  0  0  0  0  0
   -6.8200    6.3359  -13.6199 O   0  0  0  0  0  0  0  0  0  0  0  0
   -8.0460    4.2610  -13.0568 N   0  0  0  0  0  0  0  0  0  0  0  0
   -8.4150    3.5008  -13.5619 H   0  0  0  0  0  0  0  0  0  0  0  0
  -11.0278    4.4100  -17.8471 O   0  0  0  0  0  0  0  0  0  0  0  0
   -9.8568    4.4440  -17.5150 C   0  0  0  0  0  0  0  0  0  0  0  0
   -8.8438    4.3571  -18.4416 N   0  0  0  0  0  0  0  0  0  0  0  0
   -7.7853    4.4444  -17.7273 C   0  0  0  0  0  0  0  0  0  0  0  0
   -6.3902    4.4217  -18.1356 C   0  0  0  0  0  0  0  0  0  0  0  0
   -5.4818    4.5619  -17.1633 C   0  0  0  0  0  0  0  0  0  0  0  0
   -5.8315    4.7968  -15.7754 C   0  0  0  0  0  0  0  0  0  0  0  0
   -7.0935    4.7983  -15.3046 C   0  0  0  0  0  0  0  0  0  0  0  0
   -8.1495    4.5822  -16.2919 C   0  0  0  0  0  0  0  0  0  0  0  0
   -9.4241    4.5248  -16.1910 N   0  0  0  0  0  0  0  0  0  0  0  0
 21 22  2  0  0  0
 22 23  1  0  0  0
 23 24  2  0  0  0
 24 25  1  0  0  0
 25 26  2  0  0  0
 26 27  1  0  0  0
 27 28  2  0  0  0
 28 17  1  0  0  0
 17 18  2  0  0  0
 17 19  1  0  0  0
 19  1  1  0  0  0
  1  2  2  0  0  0
  2  3  1  0  0  0
  3  4  2  0  0  0
  4  5  1  0  0  0
  5 11  1  0  0  0
 11 12  2  0  0  0
 12 13  1  0  0  0
 13 14  2  0  0  0
 14 15  1  0  0  0
 15 16  2  0  0  0
  5  6  2  0  0  0
  4  7  1  0  0  0
  7  8  1  0  0  0
  8  9  1  0  0  0
 28 29  1  0  0  0
 29 30  2  0  0  0
 30 22  1  0  0  0
 29 24  1  0  0  0
  6  1  1  0  0  0
  9  3  1  0  0  0
 16 11  1  0  0  0
 19 20  1  0  0  0
  8 10  1  0  0  0
M  END
> <minimizedAffinity>
-8.77187

> <minimizedRMSD>
0.33863

$$$$
P18640


 25 28  0  0  0  0  0  0  0  0999 V2000
   -7.0737    6.3816  -13.4436 O   0  0  0  0  0  0  0  0  0  0  0  0
   -7.3926    5.2895  -13.7144 C   0  0  0  0  0  0  0  0  0  0  0  0
   -8.0171    4.1781  -12.8336 N   0  0  0  0  0  0  0  0  0  0  0  0
   -8.2682    3.3595  -13.3195 H   0  0  0  0  0  0  0  0  0  0  0  0
   -7.1127    4.7676  -15.0823 C   0  0  0  0  0  0  0  0  0  0  0  0
   -5.8268    4.7853  -15.4869 C   0  0  0  0  0  0  0  0  0  0  0  0
   -5.3895    4.5457  -16.8510 C   0  0  0  0  0  0  0  0  0  0  0  0
   -6.2313    4.3974  -17.8792 C   0  0  0  0  0  0  0  0  0  0  0  0
   -7.6350    4.4014  -17.5205 C   0  0  0  0  0  0  0  0  0  0  0  0
   -8.1230    4.5113  -16.1155 C   0  0  0  0  0  0  0  0  0  0  0  0
   -9.4070    4.4012  -16.0303 N   0  0  0  0  0  0  0  0  0  0  0  0
   -9.8383    4.2927  -17.3621 C   0  0  0  0  0  0  0  0  0  0  0  0
  -11.0068    4.1612  -17.6975 O   0  0  0  0  0  0  0  0  0  0  0  0
   -8.6772    4.2980  -18.2705 N   0  0  0  0  0  0  0  0  0  0  0  0
   -8.6995    4.1658  -19.5218 O   0  0  0  0  0  0  0  0  0  0  0  0
   -8.2820    4.1488  -11.4618 C   0  0  0  0  0  0  0  0  0  0  0  0
   -8.0606    5.2894  -10.6689 C   0  0  0  0  0  0  0  0  0  0  0  0
   -8.2866    5.2648   -9.2882 C   0  0  0  0  0  0  0  0  0  0  0  0
   -8.7414    4.0894   -8.7223 C   0  0  0  0  0  0  0  0  0  0  0  0
   -8.9666    2.9582   -9.5012 C   0  0  0  0  0  0  0  0  0  0  0  0
   -8.7430    2.9683  -10.8716 C   0  0  0  0  0  0  0  0  0  0  0  0
   -9.4264    1.8451   -8.6135 C   0  0  0  0  0  0  0  0  0  0  0  0
   -9.7978    2.4965   -7.3284 N   0  0  0  0  0  0  0  0  0  0  0  0
   -9.0487    3.7694   -7.2971 C   0  0  0  0  0  0  0  0  0  0  0  0
   -9.5308    1.9069   -6.5401 H   0  0  0  0  0  0  0  0  0  0  0  0
  1  2  2  0  0  0
  2  3  1  0  0  0
  3 16  1  0  0  0
 16 17  2  0  0  0
 17 18  1  0  0  0
 18 19  2  0  0  0
 19 20  1  0  0  0
 20 21  2  0  0  0
 20 22  1  0  0  0
 22 23  1  0  0  0
 23 24  1  0  0  0
  2  5  1  0  0  0
  5  6  2  0  0  0
  6  7  1  0  0  0
  7  8  2  0  0  0
  8  9  1  0  0  0
  9 10  1  0  0  0
 10 11  2  0  0  0
 11 12  1  0  0  0
 12 13  2  0  0  0
 12 14  1  0  0  0
 14 15  1  0  0  0
 21 16  1  0  0  0
 10  5  1  0  0  0
 24 19  1  0  0  0
 14  9  2  0  0  0
  3  4  1  0  0  0
 23 25  1  0  0  0
M  CHG 1  14   1
M  CHG 1  15  -1
M  END
> <minimizedAffinity>
-8.69939

> <minimizedRMSD>
0.50339

$$$$
P18647


 28 32  0  0  0  0  0  0  0  0999 V2000
   -3.5215    4.7114  -18.0686 O   0  0  0  0  0  0  0  0  0  0  0  0
   -4.6491    4.6505  -17.6118 C   0  0  0  0  0  0  0  0  0  0  0  0
   -4.9965    4.6942  -16.2363 N   0  0  0  0  0  0  0  0  0  0  0  0
   -6.2838    4.5772  -16.1824 C   0  0  0  0  0  0  0  0  0  0  0  0
   -7.3669    4.5244  -15.1573 C   0  0  0  0  0  0  0  0  0  0  0  0
   -8.6518    4.3607  -15.5895 C   0  0  0  0  0  0  0  0  0  0  0  0
   -9.0602    4.2172  -17.0079 C   0  0  0  0  0  0  0  0  0  0  0  0
   -8.1014    4.2795  -17.9260 C   0  0  0  0  0  0  0  0  0  0  0  0
   -6.8016    4.4629  -17.4941 C   0  0  0  0  0  0  0  0  0  0  0  0
   -5.8587    4.5106  -18.3970 C   0  0  0  0  0  0  0  0  0  0  0  0
   -6.5972    4.3248  -19.6473 C   0  0  0  0  0  0  0  0  0  0  0  0
   -6.1593    4.2479  -20.7806 O   0  0  0  0  0  0  0  0  0  0  0  0
   -7.9699    4.2005  -19.2713 N   0  0  0  0  0  0  0  0  0  0  0  0
   -8.7154    4.0750  -19.9019 H   0  0  0  0  0  0  0  0  0  0  0  0
   -7.1238    4.8876  -13.7332 C   0  0  0  0  0  0  0  0  0  0  0  0
   -6.3055    5.6751  -13.4566 O   0  0  0  0  0  0  0  0  0  0  0  0
   -8.1503    4.1439  -12.8340 N   0  0  0  0  0  0  0  0  0  0  0  0
   -8.7924    3.5790  -13.3217 H   0  0  0  0  0  0  0  0  0  0  0  0
   -8.3096    4.1469  -11.4489 C   0  0  0  0  0  0  0  0  0  0  0  0
   -8.0659    5.3050  -10.6940 C   0  0  0  0  0  0  0  0  0  0  0  0
   -8.2516    5.3092   -9.3075 C   0  0  0  0  0  0  0  0  0  0  0  0
   -8.6691    4.1409   -8.6980 C   0  0  0  0  0  0  0  0  0  0  0  0
   -8.9090    2.9935   -9.4412 C   0  0  0  0  0  0  0  0  0  0  0  0
   -8.7423    2.9777  -10.8177 C   0  0  0  0  0  0  0  0  0  0  0  0
   -9.3663    1.9025   -8.5357 C   0  0  0  0  0  0  0  0  0  0  0  0
   -9.2488    2.4301   -7.1502 N   0  0  0  0  0  0  0  0  0  0  0  0
   -8.9606    3.8755   -7.2623 C   0  0  0  0  0  0  0  0  0  0  0  0
   -8.4896    1.9584   -6.6588 H   0  0  0  0  0  0  0  0  0  0  0  0
  1  2  2  0  0  0
  2  3  1  0  0  0
  3  4  2  0  0  0
  4  5  1  0  0  0
  5 15  1  0  0  0
 15 16  2  0  0  0
 15 17  1  0  0  0
 17 19  1  0  0  0
 19 20  2  0  0  0
 20 21  1  0  0  0
 21 22  2  0  0  0
 22 23  1  0  0  0
 23 24  2  0  0  0
 23 25  1  0  0  0
 25 26  1  0  0  0
 26 27  1  0  0  0
  5  6  2  0  0  0
  6  7  1  0  0  0
  7  8  2  0  0  0
  8  9  1  0  0  0
  9 10  2  0  0  0
 10 11  1  0  0  0
 11 12  2  0  0  0
 11 13  1  0  0  0
 10  2  1  0  0  0
  9  4  1  0  0  0
 24 19  1  0  0  0
 13  8  1  0  0  0
 27 22  1  0  0  0
 17 18  1  0  0  0
 26 28  1  0  0  0
 13 14  1  0  0  0
M  END
> <minimizedAffinity>
-9.07999

> <minimizedRMSD>
0.34542

$$$$
P18649


 34 38  0  0  0  0  0  0  0  0999 V2000
   -8.7515    4.9521  -13.9863 C   0  0  0  0  0  0  0  0  0  0  0  0
   -9.5661    5.7901  -13.9630 O   0  0  0  0  0  0  0  0  0  0  0  0
   -8.1568    4.0930  -12.8358 N   0  0  0  0  0  0  0  0  0  0  0  0
   -7.5296    3.3920  -13.1265 H   0  0  0  0  0  0  0  0  0  0  0  0
   -8.3684    4.1540  -11.4519 C   0  0  0  0  0  0  0  0  0  0  0  0
   -8.7736    2.9741  -10.8070 C   0  0  0  0  0  0  0  0  0  0  0  0
   -8.9224    2.9684   -9.4195 C   0  0  0  0  0  0  0  0  0  0  0  0
   -8.6778    4.0992   -8.6539 C   0  0  0  0  0  0  0  0  0  0  0  0
   -8.3027    5.2620   -9.2773 C   0  0  0  0  0  0  0  0  0  0  0  0
   -8.1622    5.2865  -10.6612 C   0  0  0  0  0  0  0  0  0  0  0  0
   -7.8321    6.5328  -11.1205 O   0  0  0  0  0  0  0  0  0  0  0  0
   -7.5436    7.3403   -9.9527 C   0  0  0  0  0  0  0  0  0  0  0  0
   -6.0274    7.5618   -9.9046 C   0  0  0  0  0  0  0  0  0  0  0  0
   -8.2618    8.6794  -10.1304 C   0  0  0  0  0  0  0  0  0  0  0  0
   -8.0502    6.5989   -8.7012 C   0  0  0  0  0  0  0  0  0  0  0  0
   -8.9169    3.8048   -7.2184 C   0  0  0  0  0  0  0  0  0  0  0  0
   -9.2874    2.3773   -7.1352 N   0  0  0  0  0  0  0  0  0  0  0  0
   -9.3440    1.8519   -8.5259 C   0  0  0  0  0  0  0  0  0  0  0  0
  -10.1988    2.2790   -6.6878 H   0  0  0  0  0  0  0  0  0  0  0  0
   -4.7674    4.4923  -16.5813 C   0  0  0  0  0  0  0  0  0  0  0  0
   -6.0874    4.4704  -16.7502 C   0  0  0  0  0  0  0  0  0  0  0  0
   -6.9289    4.4364  -17.8973 C   0  0  0  0  0  0  0  0  0  0  0  0
   -8.2543    4.4400  -17.7100 C   0  0  0  0  0  0  0  0  0  0  0  0
   -9.2784    4.4649  -19.0645 Cl  0  0  0  0  0  0  0  0  0  0  0  0
   -8.8501    4.5333  -16.3903 C   0  0  0  0  0  0  0  0  0  0  0  0
   -8.1081    4.5734  -15.2669 C   0  0  0  0  0  0  0  0  0  0  0  0
   -6.6342    4.5143  -15.3906 C   0  0  0  0  0  0  0  0  0  0  0  0
   -5.7328    4.4975  -14.4672 N   0  0  0  0  0  0  0  0  0  0  0  0
   -4.5256    4.4737  -15.1229 C   0  0  0  0  0  0  0  0  0  0  0  0
   -3.4158    4.4488  -14.6192 O   0  0  0  0  0  0  0  0  0  0  0  0
   -3.6591    4.4496  -17.5645 C   0  0  0  0  0  0  0  0  0  0  0  0
   -3.1331    6.8245  -17.7002 C   0  0  0  0  0  0  0  0  0  0  0  0
   -2.6434    5.4889  -17.3974 N   0  0  0  0  0  0  0  0  0  0  0  0
   -2.3207    5.4739  -16.4299 H   0  0  0  0  0  0  0  0  0  0  0  0
 32 33  1  0  0  0
 33 31  1  0  0  0
 31 20  1  0  0  0
 20 21  2  0  0  0
 21 22  1  0  0  0
 22 23  2  0  0  0
 23 24  1  0  0  0
 23 25  1  0  0  0
 25 26  2  0  0  0
 26  1  1  0  0  0
  1  2  2  0  0  0
  1  3  1  0  0  0
  3  5  1  0  0  0
  5  6  2  0  0  0
  6  7  1  0  0  0
  7  8  2  0  0  0
  8  9  1  0  0  0
  9 10  2  0  0  0
 10 11  1  0  0  0
 11 12  1  0  0  0
 12 13  1  0  0  0
 12 14  1  0  0  0
 12 15  1  0  0  0
  8 16  1  0  0  0
 16 17  1  0  0  0
 17 18  1  0  0  0
 26 27  1  0  0  0
 27 28  2  0  0  0
 28 29  1  0  0  0
 29 30  2  0  0  0
 29 20  1  0  0  0
 27 21  1  0  0  0
 10  5  1  0  0  0
 18  7  1  0  0  0
 15  9  1  0  0  0
 33 34  1  0  0  0
  3  4  1  0  0  0
 17 19  1  0  0  0
M  END
> <minimizedAffinity>
-9.02990

> <minimizedRMSD>
1.12939

$$$$
P18658


 29 32  0  0  0  0  0  0  0  0999 V2000
   -5.2931    5.0331  -17.8888 C   0  0  0  0  0  0  0  0  0  0  0  0
   -6.4890    4.7606  -17.3766 C   0  0  0  0  0  0  0  0  0  0  0  0
   -7.7518    4.4881  -17.9663 C   0  0  0  0  0  0  0  0  0  0  0  0
   -8.8260    4.4306  -17.1734 C   0  0  0  0  0  0  0  0  0  0  0  0
  -10.3682    4.3638  -17.9082 Cl  0  0  0  0  0  0  0  0  0  0  0  0
   -8.7253    4.6216  -15.7369 C   0  0  0  0  0  0  0  0  0  0  0  0
   -7.5528    4.8677  -15.1131 C   0  0  0  0  0  0  0  0  0  0  0  0
   -6.3187    4.9367  -15.9340 C   0  0  0  0  0  0  0  0  0  0  0  0
   -5.0947    5.1550  -15.5865 N   0  0  0  0  0  0  0  0  0  0  0  0
   -4.3706    5.1647  -16.7500 C   0  0  0  0  0  0  0  0  0  0  0  0
   -3.1579    5.2203  -16.8422 O   0  0  0  0  0  0  0  0  0  0  0  0
   -7.6003    5.3777  -13.7157 C   0  0  0  0  0  0  0  0  0  0  0  0
   -7.5489    6.5266  -13.5066 O   0  0  0  0  0  0  0  0  0  0  0  0
   -7.8025    4.1861  -12.7417 N   0  0  0  0  0  0  0  0  0  0  0  0
   -7.7316    3.2967  -13.1580 H   0  0  0  0  0  0  0  0  0  0  0  0
   -8.0684    4.1705  -11.3719 C   0  0  0  0  0  0  0  0  0  0  0  0
   -7.8567    5.3124  -10.5829 C   0  0  0  0  0  0  0  0  0  0  0  0
   -8.1088    5.2918   -9.2073 C   0  0  0  0  0  0  0  0  0  0  0  0
   -8.5661    4.1166   -8.6413 C   0  0  0  0  0  0  0  0  0  0  0  0
   -8.7845    2.9876   -9.4179 C   0  0  0  0  0  0  0  0  0  0  0  0
   -8.5446    2.9947  -10.7849 C   0  0  0  0  0  0  0  0  0  0  0  0
   -9.2696    1.8749   -8.5527 C   0  0  0  0  0  0  0  0  0  0  0  0
   -9.3038    2.4014   -7.1625 N   0  0  0  0  0  0  0  0  0  0  0  0
   -8.8905    3.8187   -7.2189 C   0  0  0  0  0  0  0  0  0  0  0  0
   -8.6600    1.8734   -6.5733 H   0  0  0  0  0  0  0  0  0  0  0  0
   -4.8691    5.1537  -19.2963 C   0  0  0  0  0  0  0  0  0  0  0  0
   -4.7738    7.1875  -20.6030 C   0  0  0  0  0  0  0  0  0  0  0  0
   -5.6452    6.2293  -19.9346 N   0  0  0  0  0  0  0  0  0  0  0  0
   -6.2774    5.8196  -20.6223 H   0  0  0  0  0  0  0  0  0  0  0  0
 27 28  1  0  0  0
 28 26  1  0  0  0
 26  1  1  0  0  0
  1  2  2  0  0  0
  2  3  1  0  0  0
  3  4  2  0  0  0
  4  5  1  0  0  0
  4  6  1  0  0  0
  6  7  2  0  0  0
  7 12  1  0  0  0
 12 13  2  0  0  0
 12 14  1  0  0  0
 14 16  1  0  0  0
 16 17  2  0  0  0
 17 18  1  0  0  0
 18 19  2  0  0  0
 19 20  1  0  0  0
 20 21  2  0  0  0
 20 22  1  0  0  0
 22 23  1  0  0  0
 23 24  1  0  0  0
  7  8  1  0  0  0
  8  9  2  0  0  0
  9 10  1  0  0  0
 10 11  2  0  0  0
 10  1  1  0  0  0
  8  2  1  0  0  0
 21 16  1  0  0  0
 24 19  1  0  0  0
 28 29  1  0  0  0
 14 15  1  0  0  0
 23 25  1  0  0  0
M  END
> <minimizedAffinity>
-8.66138

> <minimizedRMSD>
0.41987

$$$$
P18716


 46 50  0  0  0  0  0  0  0  0999 V2000
   -7.0541    4.4503  -14.2781 C   0  0  0  0  0  0  0  0  0  0  0  0
   -6.1715    3.5908  -14.9893 O   0  0  0  0  0  0  0  0  0  0  0  0
   -8.4025    4.3494  -15.0362 C   0  0  0  0  0  0  0  0  0  0  0  0
   -8.5291    5.0876  -16.3831 C   0  0  0  0  0  0  0  0  0  0  0  0
   -9.2628    4.1212  -17.6860 Cl  0  0  0  0  0  0  0  0  0  0  0  0
   -7.3783    6.0116  -16.8468 C   0  0  0  0  0  0  0  0  0  0  0  0
   -6.6121    6.5396  -15.6666 C   0  0  0  0  0  0  0  0  0  0  0  0
   -5.8777    7.6594  -15.6945 N   0  0  0  0  0  0  0  0  0  0  0  0
   -5.2194    7.6270  -14.5228 N   0  0  0  0  0  0  0  0  0  0  0  0
   -5.5662    6.5730  -13.7276 C   0  0  0  0  0  0  0  0  0  0  0  0
   -6.4839    5.8345  -14.4392 C   0  0  0  0  0  0  0  0  0  0  0  0
   -6.4874    2.6762  -14.9227 H   0  0  0  0  0  0  0  0  0  0  0  0
   -4.5499    8.3004  -14.2626 H   0  0  0  0  0  0  0  0  0  0  0  0
   -6.4534    5.5659  -17.8588 N   0  0  0  0  0  0  0  0  0  0  0  0
   -5.0391    5.0008  -17.7328 C   0  0  0  0  0  0  0  0  0  0  0  0
   -4.4162    4.7298  -16.7878 O   0  0  0  0  0  0  0  0  0  0  0  0
   -6.7876    5.6373  -18.7821 H   0  0  0  0  0  0  0  0  0  0  0  0
   -4.4077    4.8944  -18.9392 O   0  0  0  0  0  0  0  0  0  0  0  0
   -5.0011    4.8868  -20.2525 C   0  0  0  0  0  0  0  0  0  0  0  0
   -4.3329    5.7870  -21.2703 C   0  0  0  0  0  0  0  0  0  0  0  0
   -3.0608    6.3430  -21.0797 C   0  0  0  0  0  0  0  0  0  0  0  0
   -2.4845    7.1568  -22.0587 C   0  0  0  0  0  0  0  0  0  0  0  0
   -3.1651    7.4145  -23.2467 C   0  0  0  0  0  0  0  0  0  0  0  0
   -4.4238    6.8579  -23.4575 C   0  0  0  0  0  0  0  0  0  0  0  0
   -5.0011    6.0481  -22.4775 C   0  0  0  0  0  0  0  0  0  0  0  0
   -7.3046    3.8753  -12.8108 C   0  0  0  0  0  0  0  0  0  0  0  0
   -5.0129    3.0703  -12.1928 N   0  0  0  0  0  0  0  0  0  0  0  0
   -6.4260    2.6022  -12.6198 C   0  0  0  0  0  0  0  0  0  0  0  0
   -6.8335    1.5299  -12.8414 O   0  0  0  0  0  0  0  0  0  0  0  0
   -4.9402    4.0311  -11.9911 H   0  0  0  0  0  0  0  0  0  0  0  0
   -3.7941    2.3320  -12.0435 C   0  0  0  0  0  0  0  0  0  0  0  0
   -2.6308    3.5408  -13.9911 C   0  0  0  0  0  0  0  0  0  0  0  0
   -2.9857    2.2054  -13.3427 C   0  0  0  0  0  0  0  0  0  0  0  0
   -1.7110    1.4036  -13.1032 C   0  0  0  0  0  0  0  0  0  0  0  0
   -7.1247    4.8742  -11.7145 N   0  0  0  0  0  0  0  0  0  0  0  0
   -6.6054    5.6928  -11.8865 H   0  0  0  0  0  0  0  0  0  0  0  0
   -7.6841    4.6658  -10.4405 C   0  0  0  0  0  0  0  0  0  0  0  0
   -7.4492    5.6653   -9.4671 C   0  0  0  0  0  0  0  0  0  0  0  0
   -7.8311    5.5077   -8.1284 C   0  0  0  0  0  0  0  0  0  0  0  0
   -8.4555    4.3325   -7.7650 C   0  0  0  0  0  0  0  0  0  0  0  0
   -8.6946    3.3385   -8.7029 C   0  0  0  0  0  0  0  0  0  0  0  0
   -8.3163    3.4848  -10.0299 C   0  0  0  0  0  0  0  0  0  0  0  0
   -9.3384    2.1689   -8.0318 C   0  0  0  0  0  0  0  0  0  0  0  0
   -9.7762    2.6793   -6.7027 N   0  0  0  0  0  0  0  0  0  0  0  0
   -8.9375    3.8658   -6.4332 C   0  0  0  0  0  0  0  0  0  0  0  0
   -9.6306    1.9703   -5.9840 H   0  0  0  0  0  0  0  0  0  0  0  0
 32 33  1  0  0  0
 33 34  1  0  0  0
 33 31  1  0  0  0
 31 27  1  0  0  0
 27 28  1  0  0  0
 28 29  2  0  0  0
 28 26  1  0  0  0
 26 35  1  0  0  0
 35 37  1  0  0  0
 37 38  2  0  0  0
 38 39  1  0  0  0
 39 40  2  0  0  0
 40 41  1  0  0  0
 41 42  2  0  0  0
 41 43  1  0  0  0
 43 44  1  0  0  0
 44 45  1  0  0  0
 26  1  1  0  0  0
  1  2  1  0  0  0
  1  3  1  0  0  0
  3  4  1  0  0  0
  4  5  1  0  0  0
  4  6  1  0  0  0
  6 14  1  0  0  0
 14 15  1  0  0  0
 15 16  2  0  0  0
 15 18  1  0  0  0
 18 19  1  0  0  0
 19 20  1  0  0  0
 20 21  2  0  0  0
 21 22  1  0  0  0
 22 23  2  0  0  0
 23 24  1  0  0  0
 24 25  2  0  0  0
  6  7  1  0  0  0
  7  8  2  0  0  0
  8  9  1  0  0  0
  9 10  1  0  0  0
 10 11  2  0  0  0
 42 37  1  0  0  0
 11  1  1  0  0  0
 45 40  1  0  0  0
 25 20  1  0  0  0
 11  7  1  0  0  0
 27 30  1  0  0  0
 35 36  1  0  0  0
 44 46  1  0  0  0
  2 12  1  0  0  0
 14 17  1  0  0  0
  9 13  1  0  0  0
M  END
> <minimizedAffinity>
-7.45464

> <minimizedRMSD>
1.05617

$$$$
P18759


 38 41  0  0  0  0  0  0  0  0999 V2000
   -7.0155    4.6543  -13.8316 C   0  0  0  0  0  0  0  0  0  0  0  0
   -6.1768    3.5363  -13.5385 O   0  0  0  0  0  0  0  0  0  0  0  0
   -6.0104    3.4986  -12.5836 H   0  0  0  0  0  0  0  0  0  0  0  0
   -7.2473    4.6693  -15.3437 C   0  0  0  0  0  0  0  0  0  0  0  0
   -8.5314    4.5123  -15.9497 C   0  0  0  0  0  0  0  0  0  0  0  0
   -8.7726    4.4603  -17.3565 C   0  0  0  0  0  0  0  0  0  0  0  0
  -10.3905    4.3399  -17.9187 Cl  0  0  0  0  0  0  0  0  0  0  0  0
   -7.7745    4.5468  -18.3256 C   0  0  0  0  0  0  0  0  0  0  0  0
   -6.5099    4.7669  -17.7901 C   0  0  0  0  0  0  0  0  0  0  0  0
   -5.3578    4.9509  -18.4459 N   0  0  0  0  0  0  0  0  0  0  0  0
   -4.4452    5.1545  -17.4906 N   0  0  0  0  0  0  0  0  0  0  0  0
   -4.9378    5.0622  -16.2166 C   0  0  0  0  0  0  0  0  0  0  0  0
   -6.2825    4.8248  -16.3620 C   0  0  0  0  0  0  0  0  0  0  0  0
   -3.0807    5.4196  -17.9027 C   0  0  0  0  0  0  0  0  0  0  0  0
   -2.5193    4.3054  -18.7853 C   0  0  0  0  0  0  0  0  0  0  0  0
   -2.8815    4.4920  -20.1953 N   0  0  0  0  0  0  0  0  0  0  0  0
   -3.8969    4.4741  -20.2908 H   0  0  0  0  0  0  0  0  0  0  0  0
   -2.4744    3.7413  -20.7532 H   0  0  0  0  0  0  0  0  0  0  0  0
   -5.0233    5.6383  -12.6380 N   0  0  0  0  0  0  0  0  0  0  0  0
   -6.3130    6.0458  -13.4214 C   0  0  0  0  0  0  0  0  0  0  0  0
   -6.7130    7.1047  -13.7270 O   0  0  0  0  0  0  0  0  0  0  0  0
   -4.8693    4.6681  -12.5732 H   0  0  0  0  0  0  0  0  0  0  0  0
   -4.0258    6.4504  -11.9969 C   0  0  0  0  0  0  0  0  0  0  0  0
   -4.4907    4.7515  -10.1743 C   0  0  0  0  0  0  0  0  0  0  0  0
   -3.8498    6.0993  -10.5150 C   0  0  0  0  0  0  0  0  0  0  0  0
   -2.3641    6.0750  -10.1542 C   0  0  0  0  0  0  0  0  0  0  0  0
   -8.2886    4.4155  -13.1169 N   0  0  0  0  0  0  0  0  0  0  0  0
   -9.1255    4.2844  -13.6185 H   0  0  0  0  0  0  0  0  0  0  0  0
   -8.2870    4.3783  -11.7069 C   0  0  0  0  0  0  0  0  0  0  0  0
   -8.0573    5.5320  -10.9351 C   0  0  0  0  0  0  0  0  0  0  0  0
   -8.1069    5.5033   -9.5352 C   0  0  0  0  0  0  0  0  0  0  0  0
   -8.4189    4.3107   -8.9125 C   0  0  0  0  0  0  0  0  0  0  0  0
   -8.6710    3.1687   -9.6550 C   0  0  0  0  0  0  0  0  0  0  0  0
   -8.5965    3.1805  -11.0408 C   0  0  0  0  0  0  0  0  0  0  0  0
   -9.0343    2.0476   -8.7426 C   0  0  0  0  0  0  0  0  0  0  0  0
   -9.0473    2.6139   -7.3672 N   0  0  0  0  0  0  0  0  0  0  0  0
   -8.5806    4.0126   -7.4634 C   0  0  0  0  0  0  0  0  0  0  0  0
   -8.4235    2.0785   -6.7634 H   0  0  0  0  0  0  0  0  0  0  0  0
 24 25  1  0  0  0
 25 26  1  0  0  0
 25 23  1  0  0  0
 23 19  1  0  0  0
 19 20  1  0  0  0
 20 21  2  0  0  0
 20  1  1  0  0  0
  1  2  1  0  0  0
  1 27  1  0  0  0
 27 29  1  0  0  0
 29 30  2  0  0  0
 30 31  1  0  0  0
 31 32  2  0  0  0
 32 33  1  0  0  0
 33 34  2  0  0  0
 33 35  1  0  0  0
 35 36  1  0  0  0
 36 37  1  0  0  0
  1  4  1  0  0  0
  4  5  2  0  0  0
  5  6  1  0  0  0
  6  7  1  0  0  0
  6  8  2  0  0  0
  8  9  1  0  0  0
  9 10  2  0  0  0
 10 11  1  0  0  0
 11 14  1  0  0  0
 14 15  1  0  0  0
 15 16  1  0  0  0
 11 12  1  0  0  0
 12 13  2  0  0  0
 34 29  1  0  0  0
 13  4  1  0  0  0
 37 32  1  0  0  0
 13  9  1  0  0  0
 19 22  1  0  0  0
  2  3  1  0  0  0
 27 28  1  0  0  0
 36 38  1  0  0  0
 16 17  1  0  0  0
 16 18  1  0  0  0
M  END
> <minimizedAffinity>
-7.76044

> <minimizedRMSD>
0.97430

$$$$
P18776


 36 39  0  0  0  0  0  0  0  0999 V2000
   -7.1916    4.6818  -13.6484 C   0  0  0  0  0  0  0  0  0  0  0  0
   -7.5181    4.6810  -15.1510 C   0  0  0  0  0  0  0  0  0  0  0  0
   -8.8248    4.4134  -15.6195 C   0  0  0  0  0  0  0  0  0  0  0  0
   -9.1121    4.1993  -16.9624 C   0  0  0  0  0  0  0  0  0  0  0  0
  -10.7330    3.9837  -17.5013 Cl  0  0  0  0  0  0  0  0  0  0  0  0
   -8.1102    4.1899  -17.9176 C   0  0  0  0  0  0  0  0  0  0  0  0
   -6.8539    4.6567  -17.4947 C   0  0  0  0  0  0  0  0  0  0  0  0
   -5.6975    4.9011  -18.1931 N   0  0  0  0  0  0  0  0  0  0  0  0
   -4.6714    5.3207  -17.4243 N   0  0  0  0  0  0  0  0  0  0  0  0
   -5.1813    5.2936  -16.1895 C   0  0  0  0  0  0  0  0  0  0  0  0
   -6.5436    4.9029  -16.1575 C   0  0  0  0  0  0  0  0  0  0  0  0
   -5.6237    4.7809  -19.1675 H   0  0  0  0  0  0  0  0  0  0  0  0
   -8.4360    3.5219  -19.2158 C   0  0  0  0  0  0  0  0  0  0  0  0
   -9.4215    4.0850  -19.9555 F   0  0  0  0  0  0  0  0  0  0  0  0
   -8.8379    2.2349  -18.9907 F   0  0  0  0  0  0  0  0  0  0  0  0
   -7.3568    3.3953  -20.0168 F   0  0  0  0  0  0  0  0  0  0  0  0
   -5.1356    5.6625  -12.5957 N   0  0  0  0  0  0  0  0  0  0  0  0
   -6.5157    6.0358  -13.2296 C   0  0  0  0  0  0  0  0  0  0  0  0
   -7.0024    7.0837  -13.4246 O   0  0  0  0  0  0  0  0  0  0  0  0
   -4.9869    4.6974  -12.4703 H   0  0  0  0  0  0  0  0  0  0  0  0
   -4.0479    6.5012  -12.1659 C   0  0  0  0  0  0  0  0  0  0  0  0
   -4.3801    5.7245   -9.7768 C   0  0  0  0  0  0  0  0  0  0  0  0
   -4.1862    6.9300  -10.7004 C   0  0  0  0  0  0  0  0  0  0  0  0
   -2.9522    7.7222  -10.2665 C   0  0  0  0  0  0  0  0  0  0  0  0
   -8.3944    4.3190  -12.8523 N   0  0  0  0  0  0  0  0  0  0  0  0
   -9.2475    4.1399  -13.3100 H   0  0  0  0  0  0  0  0  0  0  0  0
   -8.3225    4.2300  -11.4540 C   0  0  0  0  0  0  0  0  0  0  0  0
   -8.0235    5.3545  -10.6606 C   0  0  0  0  0  0  0  0  0  0  0  0
   -8.0628    5.3020   -9.2622 C   0  0  0  0  0  0  0  0  0  0  0  0
   -8.4343    4.1147   -8.6663 C   0  0  0  0  0  0  0  0  0  0  0  0
   -8.7184    2.9899   -9.4307 C   0  0  0  0  0  0  0  0  0  0  0  0
   -8.6535    3.0252  -10.8145 C   0  0  0  0  0  0  0  0  0  0  0  0
   -9.0883    1.8650   -8.5199 C   0  0  0  0  0  0  0  0  0  0  0  0
   -9.3892    2.5148   -7.2150 N   0  0  0  0  0  0  0  0  0  0  0  0
   -8.6344    3.7872   -7.2253 C   0  0  0  0  0  0  0  0  0  0  0  0
   -9.0814    1.9237   -6.4428 H   0  0  0  0  0  0  0  0  0  0  0  0
 22 23  1  0  0  0
 23 24  1  0  0  0
 23 21  1  0  0  0
 21 17  1  0  0  0
 17 18  1  0  0  0
 18 19  2  0  0  0
 18  1  1  0  0  0
  1 25  1  0  0  0
 25 27  1  0  0  0
 27 28  2  0  0  0
 28 29  1  0  0  0
 29 30  2  0  0  0
 30 31  1  0  0  0
 31 32  2  0  0  0
 31 33  1  0  0  0
 33 34  1  0  0  0
 34 35  1  0  0  0
  1  2  1  0  0  0
  2  3  2  0  0  0
  3  4  1  0  0  0
  4  5  1  0  0  0
  4  6  2  0  0  0
  6 13  1  0  0  0
 13 14  1  0  0  0
 13 15  1  0  0  0
 13 16  1  0  0  0
  6  7  1  0  0  0
  7  8  1  0  0  0
  8  9  1  0  0  0
  9 10  2  0  0  0
 10 11  1  0  0  0
 32 27  1  0  0  0
 11  2  1  0  0  0
 35 30  1  0  0  0
 11  7  2  0  0  0
 17 20  1  0  0  0
 25 26  1  0  0  0
 34 36  1  0  0  0
  8 12  1  0  0  0
M  END
> <minimizedAffinity>
-7.13338

> <minimizedRMSD>
0.27299

$$$$
P18792


 36 39  0  0  0  0  0  0  0  0999 V2000
   -7.1715    5.1010  -13.5585 C   0  0  0  0  0  0  0  0  0  0  0  0
   -7.3569    4.8540  -15.0582 C   0  0  0  0  0  0  0  0  0  0  0  0
   -8.6243    4.5053  -15.5783 C   0  0  0  0  0  0  0  0  0  0  0  0
   -8.8937    4.2599  -16.9358 C   0  0  0  0  0  0  0  0  0  0  0  0
   -7.8244    4.2620  -17.8460 C   0  0  0  0  0  0  0  0  0  0  0  0
   -7.9777    3.7541  -19.2430 C   0  0  0  0  0  0  0  0  0  0  0  0
   -6.5915    4.7422  -17.3540 C   0  0  0  0  0  0  0  0  0  0  0  0
   -5.4114    5.0077  -18.0060 N   0  0  0  0  0  0  0  0  0  0  0  0
   -4.4129    5.4292  -17.2011 N   0  0  0  0  0  0  0  0  0  0  0  0
   -4.9846    5.4378  -15.9939 C   0  0  0  0  0  0  0  0  0  0  0  0
   -6.3396    5.0275  -16.0163 C   0  0  0  0  0  0  0  0  0  0  0  0
   -5.3031    4.8997  -18.9786 H   0  0  0  0  0  0  0  0  0  0  0  0
  -10.2469    3.9397  -17.2440 N   0  0  0  0  0  0  0  0  0  0  0  0
  -10.9949    4.7280  -18.1146 N   0  0  0  0  0  0  0  0  0  0  0  0
  -10.6610    3.1463  -16.8339 H   0  0  0  0  0  0  0  0  0  0  0  0
  -10.4222    5.5034  -18.4483 H   0  0  0  0  0  0  0  0  0  0  0  0
  -11.8113    5.0944  -17.6252 H   0  0  0  0  0  0  0  0  0  0  0  0
   -8.7754    6.9846  -13.0924 N   0  0  0  0  0  0  0  0  0  0  0  0
   -7.2742    6.6511  -13.3092 C   0  0  0  0  0  0  0  0  0  0  0  0
   -6.3417    7.3554  -13.3638 O   0  0  0  0  0  0  0  0  0  0  0  0
   -9.3834    6.2135  -13.1633 H   0  0  0  0  0  0  0  0  0  0  0  0
   -9.4223    8.2380  -12.8046 C   0  0  0  0  0  0  0  0  0  0  0  0
  -10.2778    9.2922  -10.6866 C   0  0  0  0  0  0  0  0  0  0  0  0
   -9.0581    8.7585  -11.4192 C   0  0  0  0  0  0  0  0  0  0  0  0
   -8.1681    4.2753  -12.8099 N   0  0  0  0  0  0  0  0  0  0  0  0
   -8.8775    3.8141  -13.3133 H   0  0  0  0  0  0  0  0  0  0  0  0
   -8.1268    4.1351  -11.4124 C   0  0  0  0  0  0  0  0  0  0  0  0
   -7.7285    5.1675  -10.5427 C   0  0  0  0  0  0  0  0  0  0  0  0
   -7.9537    5.1048   -9.1615 C   0  0  0  0  0  0  0  0  0  0  0  0
   -8.5471    3.9738   -8.6475 C   0  0  0  0  0  0  0  0  0  0  0  0
   -8.8632    2.9048   -9.4727 C   0  0  0  0  0  0  0  0  0  0  0  0
   -8.6945    2.9802  -10.8456 C   0  0  0  0  0  0  0  0  0  0  0  0
   -9.3393    1.7746   -8.6247 C   0  0  0  0  0  0  0  0  0  0  0  0
   -9.7468    2.4065   -7.3427 N   0  0  0  0  0  0  0  0  0  0  0  0
   -8.9387    3.6442   -7.2463 C   0  0  0  0  0  0  0  0  0  0  0  0
   -9.5460    1.7861   -6.5583 H   0  0  0  0  0  0  0  0  0  0  0  0
 23 24  1  0  0  0
 24 22  1  0  0  0
 22 18  1  0  0  0
 18 19  1  0  0  0
 19 20  2  0  0  0
 19  1  1  0  0  0
  1 25  1  0  0  0
 25 27  1  0  0  0
 27 28  2  0  0  0
 28 29  1  0  0  0
 29 30  2  0  0  0
 30 31  1  0  0  0
 31 32  2  0  0  0
 31 33  1  0  0  0
 33 34  1  0  0  0
 34 35  1  0  0  0
  1  2  1  0  0  0
  2  3  2  0  0  0
  3  4  1  0  0  0
  4 13  1  0  0  0
 13 14  1  0  0  0
  4  5  2  0  0  0
  5  6  1  0  0  0
  5  7  1  0  0  0
  7  8  1  0  0  0
  8  9  1  0  0  0
  9 10  2  0  0  0
 10 11  1  0  0  0
 32 27  1  0  0  0
 11  2  1  0  0  0
 35 30  1  0  0  0
 11  7  2  0  0  0
 18 21  1  0  0  0
 25 26  1  0  0  0
 34 36  1  0  0  0
 13 15  1  0  0  0
 14 16  1  0  0  0
 14 17  1  0  0  0
  8 12  1  0  0  0
M  END
> <minimizedAffinity>
-8.29106

> <minimizedRMSD>
0.31024

$$$$
P18797


 36 39  0  0  0  0  0  0  0  0999 V2000
   -6.7875    4.9987  -13.1714 C   0  0  0  0  0  0  0  0  0  0  0  0
   -6.8755    4.9310  -14.7255 C   0  0  0  0  0  0  0  0  0  0  0  0
   -8.0479    4.3802  -15.3438 C   0  0  0  0  0  0  0  0  0  0  0  0
   -8.1813    4.2379  -16.7287 C   0  0  0  0  0  0  0  0  0  0  0  0
   -9.6310    3.6608  -17.4513 Cl  0  0  0  0  0  0  0  0  0  0  0  0
   -7.1601    4.6090  -17.5816 C   0  0  0  0  0  0  0  0  0  0  0  0
   -6.0479    5.2045  -17.0023 C   0  0  0  0  0  0  0  0  0  0  0  0
   -4.9232    5.6695  -17.6159 N   0  0  0  0  0  0  0  0  0  0  0  0
   -4.0718    6.2931  -16.7867 N   0  0  0  0  0  0  0  0  0  0  0  0
   -4.6683    6.1902  -15.5823 C   0  0  0  0  0  0  0  0  0  0  0  0
   -5.8876    5.4285  -15.6351 C   0  0  0  0  0  0  0  0  0  0  0  0
   -4.7511    5.5582  -18.5788 H   0  0  0  0  0  0  0  0  0  0  0  0
   -4.0262    6.8820  -14.4226 C   0  0  0  0  0  0  0  0  0  0  0  0
   -4.6498    8.2068  -14.0328 C   0  0  0  0  0  0  0  0  0  0  0  0
   -4.6347    8.6285  -12.8811 O   0  0  0  0  0  0  0  0  0  0  0  0
   -5.1726    8.9419  -15.0411 O   0  0  0  0  0  0  0  0  0  0  0  0
   -5.1755    8.6035  -15.9149 H   0  0  0  0  0  0  0  0  0  0  0  0
   -4.7769    5.2095  -11.6270 N   0  0  0  0  0  0  0  0  0  0  0  0
   -5.5121    4.2280  -12.5830 C   0  0  0  0  0  0  0  0  0  0  0  0
   -5.2563    3.1282  -12.8801 O   0  0  0  0  0  0  0  0  0  0  0  0
   -5.2386    6.0668  -11.4814 H   0  0  0  0  0  0  0  0  0  0  0  0
   -3.5317    5.0682  -10.9209 C   0  0  0  0  0  0  0  0  0  0  0  0
   -3.0696    7.3772   -9.9757 C   0  0  0  0  0  0  0  0  0  0  0  0
   -2.6665    6.3208  -10.9941 C   0  0  0  0  0  0  0  0  0  0  0  0
   -8.0218    4.4155  -12.5853 N   0  0  0  0  0  0  0  0  0  0  0  0
   -8.7220    4.0695  -13.1847 H   0  0  0  0  0  0  0  0  0  0  0  0
   -8.2120    4.3467  -11.1992 C   0  0  0  0  0  0  0  0  0  0  0  0
   -8.0641    5.4624  -10.3520 C   0  0  0  0  0  0  0  0  0  0  0  0
   -8.2026    5.3551   -8.9613 C   0  0  0  0  0  0  0  0  0  0  0  0
   -8.5945    4.1398   -8.4364 C   0  0  0  0  0  0  0  0  0  0  0  0
   -8.8506    3.0565   -9.2658 C   0  0  0  0  0  0  0  0  0  0  0  0
   -8.6603    3.1414  -10.6355 C   0  0  0  0  0  0  0  0  0  0  0  0
   -9.3041    1.8988   -8.4371 C   0  0  0  0  0  0  0  0  0  0  0  0
   -9.6235    2.4835   -7.1046 N   0  0  0  0  0  0  0  0  0  0  0  0
   -8.8327    3.7295   -7.0223 C   0  0  0  0  0  0  0  0  0  0  0  0
   -9.3553    1.8408   -6.3594 H   0  0  0  0  0  0  0  0  0  0  0  0
 23 24  1  0  0  0
 24 22  1  0  0  0
 22 18  1  0  0  0
 18 19  1  0  0  0
 19 20  2  0  0  0
 19  1  1  0  0  0
  1 25  1  0  0  0
 25 27  1  0  0  0
 27 28  2  0  0  0
 28 29  1  0  0  0
 29 30  2  0  0  0
 30 31  1  0  0  0
 31 32  2  0  0  0
 31 33  1  0  0  0
 33 34  1  0  0  0
 34 35  1  0  0  0
  1  2  1  0  0  0
  2  3  2  0  0  0
  3  4  1  0  0  0
  4  5  1  0  0  0
  4  6  2  0  0  0
  6  7  1  0  0  0
  7  8  1  0  0  0
  8  9  1  0  0  0
  9 10  2  0  0  0
 10 13  1  0  0  0
 13 14  1  0  0  0
 14 15  2  0  0  0
 14 16  1  0  0  0
 10 11  1  0  0  0
 32 27  1  0  0  0
 11  2  1  0  0  0
 35 30  1  0  0  0
 11  7  2  0  0  0
 18 21  1  0  0  0
 25 26  1  0  0  0
 34 36  1  0  0  0
  8 12  1  0  0  0
 16 17  1  0  0  0
M  END
> <minimizedAffinity>
-6.71061

> <minimizedRMSD>
0.99672

$$$$
P18809


 34 37  0  0  0  0  0  0  0  0999 V2000
   -7.9816    5.0986  -13.5844 C   0  0  0  0  0  0  0  0  0  0  0  0
   -7.8763    4.5352  -15.0595 C   0  0  0  0  0  0  0  0  0  0  0  0
   -8.0008    3.1293  -14.9147 O   0  0  0  0  0  0  0  0  0  0  0  0
   -9.0442    4.8000  -16.0234 C   0  0  0  0  0  0  0  0  0  0  0  0
   -8.8116    4.5405  -17.5480 C   0  0  0  0  0  0  0  0  0  0  0  0
   -9.4107    2.9551  -18.0934 Cl  0  0  0  0  0  0  0  0  0  0  0  0
   -7.4138    4.8412  -18.1214 C   0  0  0  0  0  0  0  0  0  0  0  0
   -6.3554    4.9709  -17.0882 C   0  0  0  0  0  0  0  0  0  0  0  0
   -5.0828    5.2673  -17.4000 N   0  0  0  0  0  0  0  0  0  0  0  0
   -4.4524    5.2083  -16.2133 N   0  0  0  0  0  0  0  0  0  0  0  0
   -3.0251    5.3719  -16.1247 C   0  0  0  0  0  0  0  0  0  0  0  0
   -5.2979    5.0011  -15.1728 C   0  0  0  0  0  0  0  0  0  0  0  0
   -4.9382    4.9311  -13.8847 F   0  0  0  0  0  0  0  0  0  0  0  0
   -6.5604    4.8492  -15.6942 C   0  0  0  0  0  0  0  0  0  0  0  0
   -8.8540    2.9210  -14.5029 H   0  0  0  0  0  0  0  0  0  0  0  0
   -7.7728    7.4922  -12.8599 N   0  0  0  0  0  0  0  0  0  0  0  0
   -8.7496    6.4371  -13.4741 C   0  0  0  0  0  0  0  0  0  0  0  0
   -9.8689    6.5408  -13.8018 O   0  0  0  0  0  0  0  0  0  0  0  0
   -6.8478    7.1773  -12.7399 H   0  0  0  0  0  0  0  0  0  0  0  0
   -8.0073    8.8510  -12.4409 C   0  0  0  0  0  0  0  0  0  0  0  0
  -10.3075    9.3271  -11.5394 C   0  0  0  0  0  0  0  0  0  0  0  0
   -8.8905    8.8971  -11.1999 C   0  0  0  0  0  0  0  0  0  0  0  0
   -8.5367    4.0600  -12.6889 N   0  0  0  0  0  0  0  0  0  0  0  0
   -8.9885    3.2968  -13.1163 H   0  0  0  0  0  0  0  0  0  0  0  0
   -8.4799    4.0618  -11.3085 C   0  0  0  0  0  0  0  0  0  0  0  0
   -7.9488    5.1188  -10.5455 C   0  0  0  0  0  0  0  0  0  0  0  0
   -7.9451    5.1039   -9.1460 C   0  0  0  0  0  0  0  0  0  0  0  0
   -8.4308    3.9849   -8.5087 C   0  0  0  0  0  0  0  0  0  0  0  0
   -8.8721    2.8937   -9.2392 C   0  0  0  0  0  0  0  0  0  0  0  0
   -8.9027    2.9155  -10.6247 C   0  0  0  0  0  0  0  0  0  0  0  0
   -9.2080    1.7846   -8.3060 C   0  0  0  0  0  0  0  0  0  0  0  0
   -9.2496    2.3939   -6.9500 N   0  0  0  0  0  0  0  0  0  0  0  0
   -8.5607    3.6976   -7.0540 C   0  0  0  0  0  0  0  0  0  0  0  0
   -8.7691    1.7940   -6.2794 H   0  0  0  0  0  0  0  0  0  0  0  0
 21 22  1  0  0  0
 22 20  1  0  0  0
 20 16  1  0  0  0
 16 17  1  0  0  0
 17 18  2  0  0  0
 17  1  1  0  0  0
  1 23  1  0  0  0
 23 25  1  0  0  0
 25 26  2  0  0  0
 26 27  1  0  0  0
 27 28  2  0  0  0
 28 29  1  0  0  0
 29 30  2  0  0  0
 29 31  1  0  0  0
 31 32  1  0  0  0
 32 33  1  0  0  0
  1  2  1  0  0  0
  2  3  1  0  0  0
  2  4  1  0  0  0
  4  5  1  0  0  0
  5  6  1  0  0  0
  5  7  1  0  0  0
  7  8  1  0  0  0
  8  9  2  0  0  0
  9 10  1  0  0  0
 10 11  1  0  0  0
 10 12  1  0  0  0
 12 13  1  0  0  0
 12 14  2  0  0  0
 30 25  1  0  0  0
 14  2  1  0  0  0
 33 28  1  0  0  0
 14  8  1  0  0  0
 16 19  1  0  0  0
 23 24  1  0  0  0
 32 34  1  0  0  0
  3 15  1  0  0  0
M  END
> <minimizedAffinity>
-7.17252

> <minimizedRMSD>
0.44965

$$$$
P18810


 34 37  0  0  0  0  0  0  0  0999 V2000
   -7.0649    4.9455  -13.7290 C   0  0  0  0  0  0  0  0  0  0  0  0
   -7.2247    6.3577  -13.6117 O   0  0  0  0  0  0  0  0  0  0  0  0
   -7.1538    6.6147  -12.6791 H   0  0  0  0  0  0  0  0  0  0  0  0
   -7.1982    4.6910  -15.2274 C   0  0  0  0  0  0  0  0  0  0  0  0
   -8.4534    4.2768  -15.7982 C   0  0  0  0  0  0  0  0  0  0  0  0
   -8.7285    4.1423  -17.1990 C   0  0  0  0  0  0  0  0  0  0  0  0
  -10.3234    3.7201  -17.7139 Cl  0  0  0  0  0  0  0  0  0  0  0  0
   -7.7907    4.4090  -18.2004 C   0  0  0  0  0  0  0  0  0  0  0  0
   -6.5486    4.8099  -17.7050 C   0  0  0  0  0  0  0  0  0  0  0  0
   -5.4610    5.1764  -18.4017 N   0  0  0  0  0  0  0  0  0  0  0  0
   -4.5210    5.3493  -17.4776 N   0  0  0  0  0  0  0  0  0  0  0  0
   -4.9628    5.2688  -16.1936 C   0  0  0  0  0  0  0  0  0  0  0  0
   -6.2853    4.9170  -16.2767 C   0  0  0  0  0  0  0  0  0  0  0  0
   -3.2514    5.8035  -17.8328 O   0  0  0  0  0  0  0  0  0  0  0  0
   -2.5557    4.7810  -18.5399 C   0  0  0  0  0  0  0  0  0  0  0  0
   -4.8653    5.7539  -12.7982 N   0  0  0  0  0  0  0  0  0  0  0  0
   -5.6662    4.4479  -13.1141 C   0  0  0  0  0  0  0  0  0  0  0  0
   -5.3745    3.3233  -12.9612 O   0  0  0  0  0  0  0  0  0  0  0  0
   -5.3634    6.5898  -12.9484 H   0  0  0  0  0  0  0  0  0  0  0  0
   -3.5198    5.9314  -12.3241 C   0  0  0  0  0  0  0  0  0  0  0  0
   -1.8788    4.0647  -12.7081 C   0  0  0  0  0  0  0  0  0  0  0  0
   -2.5022    5.3262  -13.2823 C   0  0  0  0  0  0  0  0  0  0  0  0
   -8.1897    4.3606  -12.9942 N   0  0  0  0  0  0  0  0  0  0  0  0
   -8.9401    3.9790  -13.5046 H   0  0  0  0  0  0  0  0  0  0  0  0
   -8.2409    4.3222  -11.5850 C   0  0  0  0  0  0  0  0  0  0  0  0
   -8.0177    5.4403  -10.7493 C   0  0  0  0  0  0  0  0  0  0  0  0
   -8.1396    5.3712   -9.3555 C   0  0  0  0  0  0  0  0  0  0  0  0
   -8.5412    4.1793   -8.7973 C   0  0  0  0  0  0  0  0  0  0  0  0
   -8.8023    3.0749   -9.5969 C   0  0  0  0  0  0  0  0  0  0  0  0
   -8.6634    3.1295  -10.9763 C   0  0  0  0  0  0  0  0  0  0  0  0
   -9.1892    1.9304   -8.7202 C   0  0  0  0  0  0  0  0  0  0  0  0
   -9.5328    2.5495   -7.4099 N   0  0  0  0  0  0  0  0  0  0  0  0
   -8.7672    3.8140   -7.3694 C   0  0  0  0  0  0  0  0  0  0  0  0
   -9.2561    1.9385   -6.6414 H   0  0  0  0  0  0  0  0  0  0  0  0
 21 22  1  0  0  0
 22 20  1  0  0  0
 20 16  1  0  0  0
 16 17  1  0  0  0
 17 18  2  0  0  0
 17  1  1  0  0  0
  1  2  1  0  0  0
  1 23  1  0  0  0
 23 25  1  0  0  0
 25 26  2  0  0  0
 26 27  1  0  0  0
 27 28  2  0  0  0
 28 29  1  0  0  0
 29 30  2  0  0  0
 29 31  1  0  0  0
 31 32  1  0  0  0
 32 33  1  0  0  0
  1  4  1  0  0  0
  4  5  2  0  0  0
  5  6  1  0  0  0
  6  7  1  0  0  0
  6  8  2  0  0  0
  8  9  1  0  0  0
  9 10  2  0  0  0
 10 11  1  0  0  0
 11 14  1  0  0  0
 14 15  1  0  0  0
 11 12  1  0  0  0
 12 13  2  0  0  0
 30 25  1  0  0  0
 13  4  1  0  0  0
 33 28  1  0  0  0
 13  9  1  0  0  0
 16 19  1  0  0  0
  2  3  1  0  0  0
 23 24  1  0  0  0
 32 34  1  0  0  0
M  END
> <minimizedAffinity>
-7.94263

> <minimizedRMSD>
1.45108

$$$$
P18811


 33 36  0  0  0  0  0  0  0  0999 V2000
   -8.2480    5.6136  -12.6885 C   0  0  0  0  0  0  0  0  0  0  0  0
   -7.8654    4.8041  -14.0053 C   0  0  0  0  0  0  0  0  0  0  0  0
   -8.0973    3.4232  -13.7097 O   0  0  0  0  0  0  0  0  0  0  0  0
   -8.8867    4.9518  -15.1463 C   0  0  0  0  0  0  0  0  0  0  0  0
   -8.4312    4.1877  -16.4239 C   0  0  0  0  0  0  0  0  0  0  0  0
   -9.7227    4.1477  -17.6606 Cl  0  0  0  0  0  0  0  0  0  0  0  0
   -7.1057    4.7036  -17.0141 C   0  0  0  0  0  0  0  0  0  0  0  0
   -6.1395    4.9978  -15.9194 C   0  0  0  0  0  0  0  0  0  0  0  0
   -4.8520    5.2959  -16.1372 N   0  0  0  0  0  0  0  0  0  0  0  0
   -4.3297    5.3245  -14.8996 N   0  0  0  0  0  0  0  0  0  0  0  0
   -2.9231    5.5632  -14.7002 C   0  0  0  0  0  0  0  0  0  0  0  0
   -5.2495    5.1168  -13.9198 C   0  0  0  0  0  0  0  0  0  0  0  0
   -6.4747    5.0048  -14.5385 C   0  0  0  0  0  0  0  0  0  0  0  0
   -8.9981    3.3127  -13.3673 H   0  0  0  0  0  0  0  0  0  0  0  0
   -9.3566    7.8575  -12.8907 N   0  0  0  0  0  0  0  0  0  0  0  0
   -7.9717    7.1621  -12.7577 C   0  0  0  0  0  0  0  0  0  0  0  0
   -6.8956    7.6182  -12.7220 O   0  0  0  0  0  0  0  0  0  0  0  0
  -10.1206    7.2423  -12.9746 H   0  0  0  0  0  0  0  0  0  0  0  0
   -9.7021    9.2534  -12.9112 C   0  0  0  0  0  0  0  0  0  0  0  0
  -11.1020   10.6860  -14.4335 C   0  0  0  0  0  0  0  0  0  0  0  0
  -11.0781    9.4643  -13.5311 C   0  0  0  0  0  0  0  0  0  0  0  0
   -7.4617    4.9869  -11.5872 N   0  0  0  0  0  0  0  0  0  0  0  0
   -6.5385    4.7134  -11.7926 H   0  0  0  0  0  0  0  0  0  0  0  0
   -7.9206    4.7557  -10.2951 C   0  0  0  0  0  0  0  0  0  0  0  0
   -7.8363    5.6672   -9.2309 C   0  0  0  0  0  0  0  0  0  0  0  0
   -8.1937    5.2987   -7.9280 C   0  0  0  0  0  0  0  0  0  0  0  0
   -8.6842    4.0251   -7.7150 C   0  0  0  0  0  0  0  0  0  0  0  0
   -8.8206    3.1331   -8.7649 C   0  0  0  0  0  0  0  0  0  0  0  0
   -8.4332    3.4742  -10.0453 C   0  0  0  0  0  0  0  0  0  0  0  0
   -9.3489    1.8375   -8.2609 C   0  0  0  0  0  0  0  0  0  0  0  0
   -9.7476    2.0872   -6.8506 N   0  0  0  0  0  0  0  0  0  0  0  0
   -9.1149    3.3627   -6.4526 C   0  0  0  0  0  0  0  0  0  0  0  0
   -9.4185    1.3294   -6.2524 H   0  0  0  0  0  0  0  0  0  0  0  0
 20 21  1  0  0  0
 21 19  1  0  0  0
 19 15  1  0  0  0
 15 16  1  0  0  0
 16 17  2  0  0  0
 16  1  1  0  0  0
  1 22  1  0  0  0
 22 24  1  0  0  0
 24 25  2  0  0  0
 25 26  1  0  0  0
 26 27  2  0  0  0
 27 28  1  0  0  0
 28 29  2  0  0  0
 28 30  1  0  0  0
 30 31  1  0  0  0
 31 32  1  0  0  0
  1  2  1  0  0  0
  2  3  1  0  0  0
  2  4  1  0  0  0
  4  5  1  0  0  0
  5  6  1  0  0  0
  5  7  1  0  0  0
  7  8  1  0  0  0
  8  9  2  0  0  0
  9 10  1  0  0  0
 10 11  1  0  0  0
 10 12  1  0  0  0
 12 13  2  0  0  0
 29 24  1  0  0  0
 13  2  1  0  0  0
 32 27  1  0  0  0
 13  8  1  0  0  0
 15 18  1  0  0  0
 22 23  1  0  0  0
 31 33  1  0  0  0
  3 14  1  0  0  0
M  END
> <minimizedAffinity>
-7.69365

> <minimizedRMSD>
2.20418

$$$$
P18824


 34 37  0  0  0  0  0  0  0  0999 V2000
   -7.0646    4.7748  -13.2670 C   0  0  0  0  0  0  0  0  0  0  0  0
   -5.9528    3.9640  -12.9540 O   0  0  0  0  0  0  0  0  0  0  0  0
   -5.8040    3.9751  -11.9956 H   0  0  0  0  0  0  0  0  0  0  0  0
   -7.2209    4.6939  -14.8044 C   0  0  0  0  0  0  0  0  0  0  0  0
   -8.4208    4.2632  -15.4363 C   0  0  0  0  0  0  0  0  0  0  0  0
   -8.5638    4.1379  -16.8325 C   0  0  0  0  0  0  0  0  0  0  0  0
   -7.5032    4.4665  -17.6684 C   0  0  0  0  0  0  0  0  0  0  0  0
   -6.3249    4.9125  -17.0714 C   0  0  0  0  0  0  0  0  0  0  0  0
   -6.1581    5.0143  -15.6924 C   0  0  0  0  0  0  0  0  0  0  0  0
   -4.8121    5.4402  -15.5500 C   0  0  0  0  0  0  0  0  0  0  0  0
   -4.1946    5.6440  -16.7177 N   0  0  0  0  0  0  0  0  0  0  0  0
   -5.1313    5.3041  -17.6214 N   0  0  0  0  0  0  0  0  0  0  0  0
   -4.8238    5.4071  -19.0268 C   0  0  0  0  0  0  0  0  0  0  0  0
   -9.8280    3.5732  -17.4178 C   0  0  0  0  0  0  0  0  0  0  0  0
  -10.5649    4.3879  -18.4511 C   0  0  0  0  0  0  0  0  0  0  0  0
   -8.1702    7.0669  -13.0227 N   0  0  0  0  0  0  0  0  0  0  0  0
   -6.8168    6.3151  -12.8565 C   0  0  0  0  0  0  0  0  0  0  0  0
   -5.7671    6.7089  -12.5181 O   0  0  0  0  0  0  0  0  0  0  0  0
   -8.9003    6.5235  -13.3981 H   0  0  0  0  0  0  0  0  0  0  0  0
   -8.5275    8.4294  -12.7161 C   0  0  0  0  0  0  0  0  0  0  0  0
  -10.3309   10.0470  -13.3890 C   0  0  0  0  0  0  0  0  0  0  0  0
  -10.0246    8.6738  -12.8160 C   0  0  0  0  0  0  0  0  0  0  0  0
   -8.2391    4.1765  -12.5857 N   0  0  0  0  0  0  0  0  0  0  0  0
   -8.9965    3.8458  -13.1206 H   0  0  0  0  0  0  0  0  0  0  0  0
   -8.2814    4.0766  -11.1753 C   0  0  0  0  0  0  0  0  0  0  0  0
   -8.0183    5.1634  -10.3195 C   0  0  0  0  0  0  0  0  0  0  0  0
   -8.1851    5.0781   -8.9315 C   0  0  0  0  0  0  0  0  0  0  0  0
   -8.6193    3.8860   -8.3955 C   0  0  0  0  0  0  0  0  0  0  0  0
   -8.8622    2.7929   -9.2100 C   0  0  0  0  0  0  0  0  0  0  0  0
   -8.7142    2.8728  -10.5892 C   0  0  0  0  0  0  0  0  0  0  0  0
   -9.2508    1.6288   -8.3634 C   0  0  0  0  0  0  0  0  0  0  0  0
   -9.4609    2.1650   -6.9914 N   0  0  0  0  0  0  0  0  0  0  0  0
   -8.9096    3.5361   -6.9780 C   0  0  0  0  0  0  0  0  0  0  0  0
   -8.9735    1.5842   -6.3092 H   0  0  0  0  0  0  0  0  0  0  0  0
 21 22  1  0  0  0
 22 20  1  0  0  0
 20 16  1  0  0  0
 16 17  1  0  0  0
 17 18  2  0  0  0
 17  1  1  0  0  0
  1  2  1  0  0  0
  1 23  1  0  0  0
 23 25  1  0  0  0
 25 26  2  0  0  0
 26 27  1  0  0  0
 27 28  2  0  0  0
 28 29  1  0  0  0
 29 30  2  0  0  0
 29 31  1  0  0  0
 31 32  1  0  0  0
 32 33  1  0  0  0
  1  4  1  0  0  0
  4  5  2  0  0  0
  5  6  1  0  0  0
  6 14  1  0  0  0
 14 15  1  0  0  0
  6  7  2  0  0  0
  7  8  1  0  0  0
  8  9  2  0  0  0
  9 10  1  0  0  0
 10 11  2  0  0  0
 11 12  1  0  0  0
 12 13  1  0  0  0
 30 25  1  0  0  0
  9  4  1  0  0  0
 33 28  1  0  0  0
 12  8  1  0  0  0
 16 19  1  0  0  0
  2  3  1  0  0  0
 23 24  1  0  0  0
 32 34  1  0  0  0
M  END
> <minimizedAffinity>
-8.55888

> <minimizedRMSD>
0.48515

$$$$
P18825


 37 41  0  0  0  0  0  0  0  0999 V2000
   -6.8232    4.9289  -12.6121 C   0  0  0  0  0  0  0  0  0  0  0  0
   -6.8318    6.3493  -12.5572 O   0  0  0  0  0  0  0  0  0  0  0  0
   -6.8405    6.6370  -11.6309 H   0  0  0  0  0  0  0  0  0  0  0  0
   -6.8106    4.7392  -14.1272 C   0  0  0  0  0  0  0  0  0  0  0  0
   -7.9926    4.3804  -14.8772 C   0  0  0  0  0  0  0  0  0  0  0  0
   -8.0313    4.3413  -16.3017 C   0  0  0  0  0  0  0  0  0  0  0  0
   -9.4691    3.8425  -17.1042 Cl  0  0  0  0  0  0  0  0  0  0  0  0
   -6.9117    4.7345  -16.9833 C   0  0  0  0  0  0  0  0  0  0  0  0
   -5.8706    5.1694  -16.2294 C   0  0  0  0  0  0  0  0  0  0  0  0
   -5.7115    5.0997  -14.8828 C   0  0  0  0  0  0  0  0  0  0  0  0
   -4.2645    5.4502  -14.7062 C   0  0  0  0  0  0  0  0  0  0  0  0
   -3.6560    5.3798  -16.1005 N   0  0  0  0  0  0  0  0  0  0  0  0
   -4.7600    5.5764  -16.9552 N   0  0  0  0  0  0  0  0  0  0  0  0
   -4.8757    4.9831  -18.2172 O   0  0  0  0  0  0  0  0  0  0  0  0
   -6.3720    4.8445  -18.3696 C   0  0  0  0  0  0  0  0  0  0  0  0
   -3.2261    4.4695  -16.2646 H   0  0  0  0  0  0  0  0  0  0  0  0
   -5.4627    2.7972  -12.1547 N   0  0  0  0  0  0  0  0  0  0  0  0
   -5.5112    4.3309  -11.8961 C   0  0  0  0  0  0  0  0  0  0  0  0
   -4.7650    5.0281  -11.3203 O   0  0  0  0  0  0  0  0  0  0  0  0
   -6.2572    2.4298  -12.6052 H   0  0  0  0  0  0  0  0  0  0  0  0
   -4.4447    1.8283  -11.8421 C   0  0  0  0  0  0  0  0  0  0  0  0
   -3.3426    1.2959   -9.6475 C   0  0  0  0  0  0  0  0  0  0  0  0
   -4.6281    1.2270  -10.4551 C   0  0  0  0  0  0  0  0  0  0  0  0
   -8.0106    4.3632  -11.9674 N   0  0  0  0  0  0  0  0  0  0  0  0
   -7.9133    3.3482  -11.9945 H   0  0  0  0  0  0  0  0  0  0  0  0
   -8.2987    4.7387  -10.5602 C   0  0  0  0  0  0  0  0  0  0  0  0
   -8.0657    6.2066  -10.1746 C   0  0  0  0  0  0  0  0  0  0  0  0
   -7.6568    3.7728   -9.5444 C   0  0  0  0  0  0  0  0  0  0  0  0
   -8.3993    3.7028   -8.2428 C   0  0  0  0  0  0  0  0  0  0  0  0
   -9.4131    2.7782   -7.8907 C   0  0  0  0  0  0  0  0  0  0  0  0
   -9.8849    2.9916   -6.6005 N   0  0  0  0  0  0  0  0  0  0  0  0
  -10.9221    2.3165   -5.8808 C   0  0  0  0  0  0  0  0  0  0  0  0
   -9.1258    4.0510   -6.1962 C   0  0  0  0  0  0  0  0  0  0  0  0
   -9.1485    4.6858   -5.0042 C   0  0  0  0  0  0  0  0  0  0  0  0
   -7.9539    5.9443   -5.0421 S   0  0  0  0  0  0  0  0  0  0  0  0
   -7.4553    5.5673   -6.6647 C   0  0  0  0  0  0  0  0  0  0  0  0
   -8.2089    4.5359   -7.0989 C   0  0  0  0  0  0  0  0  0  0  0  0
 22 23  1  0  0  0
 23 21  1  0  0  0
 21 17  1  0  0  0
 17 18  1  0  0  0
 18 19  2  0  0  0
 18  1  1  0  0  0
  1  2  1  0  0  0
  1 24  1  0  0  0
 24 26  1  0  0  0
 26 27  1  0  0  0
 26 28  1  0  0  0
 28 29  1  0  0  0
 29 30  2  0  0  0
 30 31  1  0  0  0
 31 32  1  0  0  0
 31 33  1  0  0  0
 33 34  2  0  0  0
 34 35  1  0  0  0
 35 36  1  0  0  0
 36 37  2  0  0  0
  1  4  1  0  0  0
  4  5  2  0  0  0
  5  6  1  0  0  0
  6  7  1  0  0  0
  6  8  2  0  0  0
  8  9  1  0  0  0
  9 10  2  0  0  0
 10 11  1  0  0  0
 11 12  1  0  0  0
 12 13  1  0  0  0
 13 14  1  0  0  0
 14 15  1  0  0  0
 37 29  1  0  0  0
 10  4  1  0  0  0
 37 33  1  0  0  0
 15  8  1  0  0  0
 13  9  1  0  0  0
 17 20  1  0  0  0
  2  3  1  0  0  0
 24 25  1  0  0  0
 12 16  1  0  0  0
M  END
> <minimizedAffinity>
-7.66608

> <minimizedRMSD>
0.95835

$$$$
P18827


 33 36  0  0  0  0  0  0  0  0999 V2000
   -6.9665    4.7282  -13.2169 C   0  0  0  0  0  0  0  0  0  0  0  0
   -4.9279    5.3116  -17.5738 N   0  0  0  0  0  0  0  0  0  0  0  0
   -3.9188    5.5516  -16.7136 N   0  0  0  0  0  0  0  0  0  0  0  0
   -4.4961    5.3466  -15.5177 C   0  0  0  0  0  0  0  0  0  0  0  0
   -5.8616    4.9570  -15.5966 C   0  0  0  0  0  0  0  0  0  0  0  0
   -6.9413    4.6077  -14.7408 C   0  0  0  0  0  0  0  0  0  0  0  0
   -8.1584    4.2087  -15.3900 C   0  0  0  0  0  0  0  0  0  0  0  0
   -8.3452    4.3088  -16.7603 C   0  0  0  0  0  0  0  0  0  0  0  0
   -9.7781    3.9986  -17.6426 Cl  0  0  0  0  0  0  0  0  0  0  0  0
   -7.3471    4.8282  -17.5250 C   0  0  0  0  0  0  0  0  0  0  0  0
   -6.1102    5.0441  -16.9534 C   0  0  0  0  0  0  0  0  0  0  0  0
   -3.2912    4.7584  -19.3722 C   0  0  0  0  0  0  0  0  0  0  0  0
   -4.7303    5.1634  -19.0114 C   0  0  0  0  0  0  0  0  0  0  0  0
   -5.5578    4.5375  -12.5413 C   0  0  0  0  0  0  0  0  0  0  0  0
   -4.9518    5.4380  -12.1040 O   0  0  0  0  0  0  0  0  0  0  0  0
   -5.2447    3.0158  -12.5346 N   0  0  0  0  0  0  0  0  0  0  0  0
   -5.8816    2.4616  -13.0409 H   0  0  0  0  0  0  0  0  0  0  0  0
   -4.1726    2.2833  -11.9072 C   0  0  0  0  0  0  0  0  0  0  0  0
   -2.9958    1.9619  -12.8227 C   0  0  0  0  0  0  0  0  0  0  0  0
   -2.1946    0.7735  -12.3327 C   0  0  0  0  0  0  0  0  0  0  0  0
   -2.1577    3.0414  -12.8385 F   0  0  0  0  0  0  0  0  0  0  0  0
   -7.9984    3.8524  -12.6217 N   0  0  0  0  0  0  0  0  0  0  0  0
   -8.4616    3.1911  -13.1851 H   0  0  0  0  0  0  0  0  0  0  0  0
   -8.3239    3.9561  -11.2563 C   0  0  0  0  0  0  0  0  0  0  0  0
   -8.0866    5.1067  -10.4720 C   0  0  0  0  0  0  0  0  0  0  0  0
   -8.2489    5.1048   -9.0808 C   0  0  0  0  0  0  0  0  0  0  0  0
   -8.6496    3.9350   -8.4723 C   0  0  0  0  0  0  0  0  0  0  0  0
   -8.8948    2.7965   -9.2229 C   0  0  0  0  0  0  0  0  0  0  0  0
   -8.7320    2.7880  -10.5997 C   0  0  0  0  0  0  0  0  0  0  0  0
   -9.2337    1.6680   -8.3118 C   0  0  0  0  0  0  0  0  0  0  0  0
   -9.4188    2.2710   -6.9654 N   0  0  0  0  0  0  0  0  0  0  0  0
   -8.8387    3.6289   -7.0267 C   0  0  0  0  0  0  0  0  0  0  0  0
   -8.9358    1.7136   -6.2609 H   0  0  0  0  0  0  0  0  0  0  0  0
 12 13  1  0  0  0
 13  2  1  0  0  0
  2  3  1  0  0  0
  3  4  2  0  0  0
  4  5  1  0  0  0
  5  6  2  0  0  0
  6  1  1  0  0  0
  1 22  1  0  0  0
 22 24  1  0  0  0
 24 25  2  0  0  0
 25 26  1  0  0  0
 26 27  2  0  0  0
 27 28  1  0  0  0
 28 29  2  0  0  0
 28 30  1  0  0  0
 30 31  1  0  0  0
 31 32  1  0  0  0
  1 14  1  0  0  0
 14 15  2  0  0  0
 14 16  1  0  0  0
 16 18  1  0  0  0
 18 19  1  0  0  0
 19 20  1  0  0  0
 19 21  1  0  0  0
  6  7  1  0  0  0
  7  8  2  0  0  0
  8  9  1  0  0  0
  8 10  1  0  0  0
 10 11  2  0  0  0
 11  2  1  0  0  0
 11  5  1  0  0  0
 29 24  1  0  0  0
 32 27  1  0  0  0
 22 23  1  0  0  0
 31 33  1  0  0  0
 16 17  1  0  0  0
M  END
> <minimizedAffinity>
-8.75342

> <minimizedRMSD>
1.53824

$$$$
P18834


 34 37  0  0  0  0  0  0  0  0999 V2000
   -7.0936    4.8548  -13.3599 C   0  0  0  0  0  0  0  0  0  0  0  0
   -7.1988    6.2725  -13.1780 O   0  0  0  0  0  0  0  0  0  0  0  0
   -7.1799    6.4792  -12.2305 H   0  0  0  0  0  0  0  0  0  0  0  0
   -7.1347    4.6535  -14.8969 C   0  0  0  0  0  0  0  0  0  0  0  0
   -8.3473    4.2900  -15.5503 C   0  0  0  0  0  0  0  0  0  0  0  0
   -8.4604    4.2388  -16.9431 C   0  0  0  0  0  0  0  0  0  0  0  0
   -9.9557    3.8227  -17.6897 Cl  0  0  0  0  0  0  0  0  0  0  0  0
   -7.3984    4.5975  -17.7660 C   0  0  0  0  0  0  0  0  0  0  0  0
   -6.2102    4.9915  -17.1448 C   0  0  0  0  0  0  0  0  0  0  0  0
   -6.0477    4.9866  -15.7574 C   0  0  0  0  0  0  0  0  0  0  0  0
   -4.7001    5.3822  -15.5818 C   0  0  0  0  0  0  0  0  0  0  0  0
   -4.0834    5.6858  -16.7198 N   0  0  0  0  0  0  0  0  0  0  0  0
   -5.0301    5.4882  -17.6722 N   0  0  0  0  0  0  0  0  0  0  0  0
   -4.8493    6.0075  -19.0578 C   0  0  0  0  0  0  0  0  0  0  0  0
   -4.7400    6.5399  -20.0872 N   0  0  0  0  0  0  0  0  0  0  0  0
   -4.9401    5.5241  -12.2017 N   0  0  0  0  0  0  0  0  0  0  0  0
   -5.7160    4.2790  -12.7292 C   0  0  0  0  0  0  0  0  0  0  0  0
   -5.4113    3.1501  -12.7509 O   0  0  0  0  0  0  0  0  0  0  0  0
   -5.3839    6.3872  -12.3670 H   0  0  0  0  0  0  0  0  0  0  0  0
   -3.6821    5.6161  -11.5132 C   0  0  0  0  0  0  0  0  0  0  0  0
   -2.0082    4.2621  -12.8507 C   0  0  0  0  0  0  0  0  0  0  0  0
   -2.4975    5.6522  -12.4705 C   0  0  0  0  0  0  0  0  0  0  0  0
   -8.2409    4.2103  -12.7089 N   0  0  0  0  0  0  0  0  0  0  0  0
   -8.9587    3.8131  -13.2530 H   0  0  0  0  0  0  0  0  0  0  0  0
   -8.3109    4.1623  -11.2998 C   0  0  0  0  0  0  0  0  0  0  0  0
   -8.0949    5.2865  -10.4756 C   0  0  0  0  0  0  0  0  0  0  0  0
   -8.2056    5.2247   -9.0803 C   0  0  0  0  0  0  0  0  0  0  0  0
   -8.6081    4.0354   -8.5140 C   0  0  0  0  0  0  0  0  0  0  0  0
   -8.8794    2.9280   -9.3065 C   0  0  0  0  0  0  0  0  0  0  0  0
   -8.7392    2.9742  -10.6855 C   0  0  0  0  0  0  0  0  0  0  0  0
   -9.2959    1.7954   -8.4270 C   0  0  0  0  0  0  0  0  0  0  0  0
   -9.6363    2.4301   -7.1229 N   0  0  0  0  0  0  0  0  0  0  0  0
   -8.8533    3.6840   -7.0859 C   0  0  0  0  0  0  0  0  0  0  0  0
   -9.3724    1.8206   -6.3487 H   0  0  0  0  0  0  0  0  0  0  0  0
 21 22  1  0  0  0
 22 20  1  0  0  0
 20 16  1  0  0  0
 16 17  1  0  0  0
 17 18  2  0  0  0
 17  1  1  0  0  0
  1  2  1  0  0  0
  1 23  1  0  0  0
 23 25  1  0  0  0
 25 26  2  0  0  0
 26 27  1  0  0  0
 27 28  2  0  0  0
 28 29  1  0  0  0
 29 30  2  0  0  0
 29 31  1  0  0  0
 31 32  1  0  0  0
 32 33  1  0  0  0
  1  4  1  0  0  0
  4  5  2  0  0  0
  5  6  1  0  0  0
  6  7  1  0  0  0
  6  8  2  0  0  0
  8  9  1  0  0  0
  9 10  2  0  0  0
 10 11  1  0  0  0
 11 12  2  0  0  0
 12 13  1  0  0  0
 13 14  1  0  0  0
 14 15  3  0  0  0
 30 25  1  0  0  0
 10  4  1  0  0  0
 33 28  1  0  0  0
 13  9  1  0  0  0
 16 19  1  0  0  0
  2  3  1  0  0  0
 23 24  1  0  0  0
 32 34  1  0  0  0
M  END
> <minimizedAffinity>
-7.93656

> <minimizedRMSD>
0.92785

$$$$
P18835


 34 37  0  0  0  0  0  0  0  0999 V2000
   -7.2561    4.8237  -13.6672 C   0  0  0  0  0  0  0  0  0  0  0  0
   -6.0148    4.1965  -13.4323 O   0  0  0  0  0  0  0  0  0  0  0  0
   -5.7933    4.2607  -12.4901 H   0  0  0  0  0  0  0  0  0  0  0  0
   -7.4989    4.6591  -15.1817 C   0  0  0  0  0  0  0  0  0  0  0  0
   -8.7372    4.2764  -15.7492 C   0  0  0  0  0  0  0  0  0  0  0  0
   -8.9063    4.1533  -17.1502 C   0  0  0  0  0  0  0  0  0  0  0  0
  -10.4459    3.7950  -17.8279 Cl  0  0  0  0  0  0  0  0  0  0  0  0
   -7.8623    4.4065  -18.0295 C   0  0  0  0  0  0  0  0  0  0  0  0
   -6.6628    4.8084  -17.4877 C   0  0  0  0  0  0  0  0  0  0  0  0
   -6.4880    4.9131  -16.1144 C   0  0  0  0  0  0  0  0  0  0  0  0
   -5.0857    5.2756  -15.9737 C   0  0  0  0  0  0  0  0  0  0  0  0
   -4.4317    5.3715  -17.0949 N   0  0  0  0  0  0  0  0  0  0  0  0
   -5.4334    5.1451  -18.2062 N   0  0  0  0  0  0  0  0  0  0  0  0
   -5.5704    6.3189  -18.8516 O   0  0  0  0  0  0  0  0  0  0  0  0
   -4.7387    4.6392  -17.7259 H   0  0  0  0  0  0  0  0  0  0  0  0
   -8.6980    6.9008  -13.0926 N   0  0  0  0  0  0  0  0  0  0  0  0
   -7.2351    6.4232  -13.3442 C   0  0  0  0  0  0  0  0  0  0  0  0
   -6.2295    7.0246  -13.3409 O   0  0  0  0  0  0  0  0  0  0  0  0
   -9.3695    6.1811  -13.0752 H   0  0  0  0  0  0  0  0  0  0  0  0
   -9.2288    8.2306  -12.8804 C   0  0  0  0  0  0  0  0  0  0  0  0
   -9.3384    8.5514  -10.3606 C   0  0  0  0  0  0  0  0  0  0  0  0
   -8.6435    8.9325  -11.6571 C   0  0  0  0  0  0  0  0  0  0  0  0
   -8.2678    4.0721  -12.8900 N   0  0  0  0  0  0  0  0  0  0  0  0
   -8.9889    3.6052  -13.3708 H   0  0  0  0  0  0  0  0  0  0  0  0
   -8.2294    4.0043  -11.4760 C   0  0  0  0  0  0  0  0  0  0  0  0
   -7.8103    5.0710  -10.6551 C   0  0  0  0  0  0  0  0  0  0  0  0
   -7.9857    5.0636   -9.2652 C   0  0  0  0  0  0  0  0  0  0  0  0
   -8.5525    3.9538   -8.6851 C   0  0  0  0  0  0  0  0  0  0  0  0
   -8.8852    2.8489   -9.4541 C   0  0  0  0  0  0  0  0  0  0  0  0
   -8.7658    2.8703  -10.8384 C   0  0  0  0  0  0  0  0  0  0  0  0
   -9.3167    1.7518   -8.5358 C   0  0  0  0  0  0  0  0  0  0  0  0
   -9.6753    2.4321   -7.2658 N   0  0  0  0  0  0  0  0  0  0  0  0
   -8.8934    3.6883   -7.2568 C   0  0  0  0  0  0  0  0  0  0  0  0
   -9.4246    1.8502   -6.4665 H   0  0  0  0  0  0  0  0  0  0  0  0
 21 22  1  0  0  0
 22 20  1  0  0  0
 20 16  1  0  0  0
 16 17  1  0  0  0
 17 18  2  0  0  0
 17  1  1  0  0  0
  1  2  1  0  0  0
  1 23  1  0  0  0
 23 25  1  0  0  0
 25 26  2  0  0  0
 26 27  1  0  0  0
 27 28  2  0  0  0
 28 29  1  0  0  0
 29 30  2  0  0  0
 29 31  1  0  0  0
 31 32  1  0  0  0
 32 33  1  0  0  0
  1  4  1  0  0  0
  4  5  2  0  0  0
  5  6  1  0  0  0
  6  7  1  0  0  0
  6  8  2  0  0  0
  8  9  1  0  0  0
  9 10  2  0  0  0
 10 11  1  0  0  0
 11 12  2  0  0  0
 12 13  1  0  0  0
 13 14  1  0  0  0
 30 25  1  0  0  0
 10  4  1  0  0  0
 33 28  1  0  0  0
 13  9  1  0  0  0
 16 19  1  0  0  0
  2  3  1  0  0  0
 23 24  1  0  0  0
 32 34  1  0  0  0
 13 15  1  0  0  0
M  CHG 1  13   1
M  CHG 1  14  -1
M  END
> <minimizedAffinity>
-8.38845

> <minimizedRMSD>
0.33667

$$$$
P18836


 38 42  0  0  0  0  0  0  0  0999 V2000
   -6.4411    4.9548  -13.0963 C   0  0  0  0  0  0  0  0  0  0  0  0
   -6.1895    6.3498  -12.9164 O   0  0  0  0  0  0  0  0  0  0  0  0
   -6.2064    6.5620  -11.9700 H   0  0  0  0  0  0  0  0  0  0  0  0
   -6.4155    4.6034  -14.6221 C   0  0  0  0  0  0  0  0  0  0  0  0
   -7.7087    5.0686  -15.3615 C   0  0  0  0  0  0  0  0  0  0  0  0
   -7.7635    4.6669  -16.8574 C   0  0  0  0  0  0  0  0  0  0  0  0
   -6.4674    4.9098  -17.6684 C   0  0  0  0  0  0  0  0  0  0  0  0
   -5.3216    5.2026  -16.7966 C   0  0  0  0  0  0  0  0  0  0  0  0
   -4.1187    5.6392  -17.2444 N   0  0  0  0  0  0  0  0  0  0  0  0
   -3.2632    5.8923  -16.2421 N   0  0  0  0  0  0  0  0  0  0  0  0
   -3.9315    5.5096  -15.1457 C   0  0  0  0  0  0  0  0  0  0  0  0
   -5.2499    5.1075  -15.4288 C   0  0  0  0  0  0  0  0  0  0  0  0
   -8.9283    5.1572  -17.6984 C   0  0  0  0  0  0  0  0  0  0  0  0
   -9.4192    4.1698  -18.7076 C   0  0  0  0  0  0  0  0  0  0  0  0
   -8.7095    2.8785  -18.4929 C   0  0  0  0  0  0  0  0  0  0  0  0
   -8.4047    3.0314  -16.7427 S   0  0  0  0  0  0  0  0  0  0  0  0
   -3.8981    5.7572  -18.1965 H   0  0  0  0  0  0  0  0  0  0  0  0
  -10.7967    3.9785  -18.3503 C   0  0  0  0  0  0  0  0  0  0  0  0
  -11.8557    3.6859  -18.0250 N   0  0  0  0  0  0  0  0  0  0  0  0
   -4.6009    4.9787  -11.3645 N   0  0  0  0  0  0  0  0  0  0  0  0
   -5.3630    4.0334  -12.3378 C   0  0  0  0  0  0  0  0  0  0  0  0
   -5.2123    2.8969  -12.5612 O   0  0  0  0  0  0  0  0  0  0  0  0
   -4.8698    5.9245  -11.4131 H   0  0  0  0  0  0  0  0  0  0  0  0
   -3.5676    4.6946  -10.4057 C   0  0  0  0  0  0  0  0  0  0  0  0
   -3.0243    3.5851   -8.2123 C   0  0  0  0  0  0  0  0  0  0  0  0
   -4.1244    3.9665   -9.1882 C   0  0  0  0  0  0  0  0  0  0  0  0
   -7.8163    4.6652  -12.6137 N   0  0  0  0  0  0  0  0  0  0  0  0
   -8.5561    4.5749  -13.2569 H   0  0  0  0  0  0  0  0  0  0  0  0
   -8.0578    4.5210  -11.2404 C   0  0  0  0  0  0  0  0  0  0  0  0
   -7.9515    5.5980  -10.3439 C   0  0  0  0  0  0  0  0  0  0  0  0
   -8.1976    5.4338   -8.9755 C   0  0  0  0  0  0  0  0  0  0  0  0
   -8.5818    4.1849   -8.5220 C   0  0  0  0  0  0  0  0  0  0  0  0
   -8.7383    3.1266   -9.4020 C   0  0  0  0  0  0  0  0  0  0  0  0
   -8.4841    3.2753  -10.7541 C   0  0  0  0  0  0  0  0  0  0  0  0
   -9.2162    1.9213   -8.6702 C   0  0  0  0  0  0  0  0  0  0  0  0
   -9.2818    2.3041   -7.2335 N   0  0  0  0  0  0  0  0  0  0  0  0
   -8.9266    3.7371   -7.1444 C   0  0  0  0  0  0  0  0  0  0  0  0
   -8.6207    1.7462   -6.6930 H   0  0  0  0  0  0  0  0  0  0  0  0
 25 26  1  0  0  0
 26 24  1  0  0  0
 24 20  1  0  0  0
 20 21  1  0  0  0
 21 22  2  0  0  0
 21  1  1  0  0  0
  1  2  1  0  0  0
  1 27  1  0  0  0
 27 29  1  0  0  0
 29 30  2  0  0  0
 30 31  1  0  0  0
 31 32  2  0  0  0
 32 33  1  0  0  0
 33 34  2  0  0  0
 33 35  1  0  0  0
 35 36  1  0  0  0
 36 37  1  0  0  0
  1  4  1  0  0  0
  4  5  1  0  0  0
  6  5  1  0  0  0
  6  7  1  0  0  0
  7  8  1  0  0  0
  8  9  1  0  0  0
  9 10  1  0  0  0
 10 11  2  0  0  0
 11 12  1  0  0  0
  6 13  1  0  0  0
 13 14  1  0  0  0
 14 18  1  0  0  0
 18 19  3  0  0  0
 14 15  1  0  0  0
 15 16  1  0  0  0
 34 29  1  0  0  0
 12  4  1  0  0  0
 37 32  1  0  0  0
 16  6  1  0  0  0
 12  8  2  0  0  0
 20 23  1  0  0  0
  2  3  1  0  0  0
 27 28  1  0  0  0
 36 38  1  0  0  0
  9 17  1  0  0  0
M  END
> <minimizedAffinity>
-4.52320

> <minimizedRMSD>
0.81684

$$$$
P18837


 34 37  0  0  0  0  0  0  0  0999 V2000
   -6.8719    4.8564  -13.0925 C   0  0  0  0  0  0  0  0  0  0  0  0
   -6.9698    4.6835  -14.6139 C   0  0  0  0  0  0  0  0  0  0  0  0
   -8.2029    4.2628  -15.2243 C   0  0  0  0  0  0  0  0  0  0  0  0
   -8.3786    4.2405  -16.5969 C   0  0  0  0  0  0  0  0  0  0  0  0
   -9.7754    3.7001  -17.4251 Cl  0  0  0  0  0  0  0  0  0  0  0  0
   -7.3908    4.7331  -17.4043 C   0  0  0  0  0  0  0  0  0  0  0  0
   -6.1572    5.0312  -16.8560 C   0  0  0  0  0  0  0  0  0  0  0  0
   -5.9113    5.0201  -15.4979 C   0  0  0  0  0  0  0  0  0  0  0  0
   -4.5536    5.4287  -15.4198 C   0  0  0  0  0  0  0  0  0  0  0  0
   -3.9927    5.6653  -16.6140 N   0  0  0  0  0  0  0  0  0  0  0  0
   -4.9782    5.3379  -17.4769 N   0  0  0  0  0  0  0  0  0  0  0  0
   -4.8079    5.4096  -18.9256 C   0  0  0  0  0  0  0  0  0  0  0  0
   -3.4077    5.5819  -19.2724 N   0  0  0  0  0  0  0  0  0  0  0  0
   -2.7075    4.3869  -19.7076 C   0  0  0  0  0  0  0  0  0  0  0  0
   -2.9250    5.9443  -18.4501 H   0  0  0  0  0  0  0  0  0  0  0  0
   -4.8971    5.1770  -11.5463 N   0  0  0  0  0  0  0  0  0  0  0  0
   -5.6275    4.1192  -12.4240 C   0  0  0  0  0  0  0  0  0  0  0  0
   -5.3580    3.0046  -12.6462 O   0  0  0  0  0  0  0  0  0  0  0  0
   -5.2862    6.0807  -11.5801 H   0  0  0  0  0  0  0  0  0  0  0  0
   -3.7477    5.0485  -10.6952 C   0  0  0  0  0  0  0  0  0  0  0  0
   -3.7468    2.8650   -9.4538 C   0  0  0  0  0  0  0  0  0  0  0  0
   -4.1043    4.3405   -9.3945 C   0  0  0  0  0  0  0  0  0  0  0  0
   -8.1281    4.3927  -12.4839 N   0  0  0  0  0  0  0  0  0  0  0  0
   -8.8739    4.1223  -13.0669 H   0  0  0  0  0  0  0  0  0  0  0  0
   -8.2868    4.3273  -11.1022 C   0  0  0  0  0  0  0  0  0  0  0  0
   -8.1154    5.4326  -10.2475 C   0  0  0  0  0  0  0  0  0  0  0  0
   -8.1926    5.2991   -8.8566 C   0  0  0  0  0  0  0  0  0  0  0  0
   -8.5381    4.0672   -8.3379 C   0  0  0  0  0  0  0  0  0  0  0  0
   -8.8361    3.0064   -9.1764 C   0  0  0  0  0  0  0  0  0  0  0  0
   -8.7196    3.1190  -10.5482 C   0  0  0  0  0  0  0  0  0  0  0  0
   -9.2069    1.8125   -8.3708 C   0  0  0  0  0  0  0  0  0  0  0  0
   -9.2839    2.2802   -6.9618 N   0  0  0  0  0  0  0  0  0  0  0  0
   -8.6614    3.6196   -6.9223 C   0  0  0  0  0  0  0  0  0  0  0  0
   -8.7774    1.6393   -6.3509 H   0  0  0  0  0  0  0  0  0  0  0  0
 21 22  1  0  0  0
 22 20  1  0  0  0
 20 16  1  0  0  0
 16 17  1  0  0  0
 17 18  2  0  0  0
 17  1  1  0  0  0
  1 23  1  0  0  0
 23 25  1  0  0  0
 25 26  2  0  0  0
 26 27  1  0  0  0
 27 28  2  0  0  0
 28 29  1  0  0  0
 29 30  2  0  0  0
 29 31  1  0  0  0
 31 32  1  0  0  0
 32 33  1  0  0  0
  1  2  1  0  0  0
  2  3  2  0  0  0
  3  4  1  0  0  0
  4  5  1  0  0  0
  4  6  2  0  0  0
  6  7  1  0  0  0
  7  8  2  0  0  0
  8  9  1  0  0  0
  9 10  2  0  0  0
 10 11  1  0  0  0
 11 12  1  0  0  0
 12 13  1  0  0  0
 13 14  1  0  0  0
 30 25  1  0  0  0
  8  2  1  0  0  0
 33 28  1  0  0  0
 11  7  1  0  0  0
 16 19  1  0  0  0
 23 24  1  0  0  0
 32 34  1  0  0  0
 13 15  1  0  0  0
M  END
> <minimizedAffinity>
-7.68265

> <minimizedRMSD>
0.93436

$$$$
P18838


 36 39  0  0  0  0  0  0  0  0999 V2000
   -7.0299    4.9064  -13.4490 C   0  0  0  0  0  0  0  0  0  0  0  0
   -7.1982    6.3082  -13.2900 O   0  0  0  0  0  0  0  0  0  0  0  0
   -7.1721    6.5320  -12.3465 H   0  0  0  0  0  0  0  0  0  0  0  0
   -7.0923    4.7051  -14.9703 C   0  0  0  0  0  0  0  0  0  0  0  0
   -8.3248    4.3223  -15.5843 C   0  0  0  0  0  0  0  0  0  0  0  0
   -8.4787    4.2356  -16.9669 C   0  0  0  0  0  0  0  0  0  0  0  0
  -10.0071    3.9033  -17.6788 Cl  0  0  0  0  0  0  0  0  0  0  0  0
   -7.4230    4.5126  -17.8162 C   0  0  0  0  0  0  0  0  0  0  0  0
   -6.2226    4.9262  -17.2376 C   0  0  0  0  0  0  0  0  0  0  0  0
   -6.0285    5.0233  -15.8621 C   0  0  0  0  0  0  0  0  0  0  0  0
   -4.6866    5.4788  -15.7530 C   0  0  0  0  0  0  0  0  0  0  0  0
   -4.0934    5.6916  -16.9299 N   0  0  0  0  0  0  0  0  0  0  0  0
   -5.0437    5.3262  -17.8181 N   0  0  0  0  0  0  0  0  0  0  0  0
   -4.8134    5.4375  -19.2625 C   0  0  0  0  0  0  0  0  0  0  0  0
   -3.5510    4.7608  -19.6290 N   0  0  0  0  0  0  0  0  0  0  0  0
   -2.6532    5.7061  -20.2692 C   0  0  0  0  0  0  0  0  0  0  0  0
   -3.7517    3.9955  -20.2727 H   0  0  0  0  0  0  0  0  0  0  0  0
   -4.9597    5.5961  -12.1851 N   0  0  0  0  0  0  0  0  0  0  0  0
   -5.6610    4.3505  -12.8136 C   0  0  0  0  0  0  0  0  0  0  0  0
   -5.3099    3.2362  -12.8792 O   0  0  0  0  0  0  0  0  0  0  0  0
   -5.4301    6.4494  -12.3265 H   0  0  0  0  0  0  0  0  0  0  0  0
   -3.7393    5.6987  -11.4340 C   0  0  0  0  0  0  0  0  0  0  0  0
   -2.6053    5.1066   -9.2679 C   0  0  0  0  0  0  0  0  0  0  0  0
   -3.9269    5.1809  -10.0134 C   0  0  0  0  0  0  0  0  0  0  0  0
   -8.1859    4.2917  -12.7829 N   0  0  0  0  0  0  0  0  0  0  0  0
   -8.9165    3.9176  -13.3264 H   0  0  0  0  0  0  0  0  0  0  0  0
   -8.2643    4.2296  -11.3745 C   0  0  0  0  0  0  0  0  0  0  0  0
   -8.0657    5.3413  -10.5290 C   0  0  0  0  0  0  0  0  0  0  0  0
   -8.2258    5.2545   -9.1402 C   0  0  0  0  0  0  0  0  0  0  0  0
   -8.6132    4.0468   -8.5981 C   0  0  0  0  0  0  0  0  0  0  0  0
   -8.8462    2.9496   -9.4090 C   0  0  0  0  0  0  0  0  0  0  0  0
   -8.6977    3.0289  -10.7867 C   0  0  0  0  0  0  0  0  0  0  0  0
   -9.2302    1.7788   -8.5689 C   0  0  0  0  0  0  0  0  0  0  0  0
   -9.3120    2.2754   -7.1675 N   0  0  0  0  0  0  0  0  0  0  0  0
   -8.8547    3.6806   -7.1757 C   0  0  0  0  0  0  0  0  0  0  0  0
   -8.7112    1.7157   -6.5625 H   0  0  0  0  0  0  0  0  0  0  0  0
 23 24  1  0  0  0
 24 22  1  0  0  0
 22 18  1  0  0  0
 18 19  1  0  0  0
 19 20  2  0  0  0
 19  1  1  0  0  0
  1  2  1  0  0  0
  1 25  1  0  0  0
 25 27  1  0  0  0
 27 28  2  0  0  0
 28 29  1  0  0  0
 29 30  2  0  0  0
 30 31  1  0  0  0
 31 32  2  0  0  0
 31 33  1  0  0  0
 33 34  1  0  0  0
 34 35  1  0  0  0
  1  4  1  0  0  0
  4  5  2  0  0  0
  5  6  1  0  0  0
  6  7  1  0  0  0
  6  8  2  0  0  0
  8  9  1  0  0  0
  9 10  2  0  0  0
 10 11  1  0  0  0
 11 12  2  0  0  0
 12 13  1  0  0  0
 13 14  1  0  0  0
 14 15  1  0  0  0
 15 16  1  0  0  0
 32 27  1  0  0  0
 10  4  1  0  0  0
 35 30  1  0  0  0
 13  9  1  0  0  0
 18 21  1  0  0  0
  2  3  1  0  0  0
 25 26  1  0  0  0
 34 36  1  0  0  0
 15 17  1  0  0  0
M  END
> <minimizedAffinity>
-7.97810

> <minimizedRMSD>
0.77678

$$$$
P18840


 33 36  0  0  0  0  0  0  0  0999 V2000
   -6.6233    5.3186  -13.7158 C   0  0  0  0  0  0  0  0  0  0  0  0
   -4.1328    5.5331  -17.9145 N   0  0  0  0  0  0  0  0  0  0  0  0
   -3.2739    5.8751  -16.9419 N   0  0  0  0  0  0  0  0  0  0  0  0
   -3.9878    5.7208  -15.8271 C   0  0  0  0  0  0  0  0  0  0  0  0
   -5.3329    5.3342  -16.0589 C   0  0  0  0  0  0  0  0  0  0  0  0
   -6.5026    5.1349  -15.2704 C   0  0  0  0  0  0  0  0  0  0  0  0
   -7.6640    4.7584  -16.0237 C   0  0  0  0  0  0  0  0  0  0  0  0
   -7.6399    4.4742  -17.3934 C   0  0  0  0  0  0  0  0  0  0  0  0
   -9.0477    3.8901  -18.2031 Cl  0  0  0  0  0  0  0  0  0  0  0  0
   -6.5004    4.7085  -18.1393 C   0  0  0  0  0  0  0  0  0  0  0  0
   -5.3738    5.1639  -17.4488 C   0  0  0  0  0  0  0  0  0  0  0  0
   -2.7899    4.6178  -19.8121 C   0  0  0  0  0  0  0  0  0  0  0  0
   -3.7454    5.6886  -19.3049 C   0  0  0  0  0  0  0  0  0  0  0  0
   -5.2139    5.3096  -13.0188 C   0  0  0  0  0  0  0  0  0  0  0  0
   -4.6952    6.2667  -12.5897 O   0  0  0  0  0  0  0  0  0  0  0  0
   -4.7129    3.8387  -13.0911 N   0  0  0  0  0  0  0  0  0  0  0  0
   -5.3104    3.2229  -13.5738 H   0  0  0  0  0  0  0  0  0  0  0  0
   -3.5170    3.2314  -12.5666 C   0  0  0  0  0  0  0  0  0  0  0  0
   -3.7281    1.8309  -11.9870 C   0  0  0  0  0  0  0  0  0  0  0  0
   -5.0402    1.6584  -11.2405 C   0  0  0  0  0  0  0  0  0  0  0  0
   -3.6855    0.9149  -12.9964 F   0  0  0  0  0  0  0  0  0  0  0  0
   -7.5203    4.2927  -13.0406 N   0  0  0  0  0  0  0  0  0  0  0  0
   -8.7904    4.1061  -13.6981 C   0  0  0  0  0  0  0  0  0  0  0  0
   -7.7790    4.3338  -11.6346 C   0  0  0  0  0  0  0  0  0  0  0  0
   -7.6441    5.4897  -10.8436 C   0  0  0  0  0  0  0  0  0  0  0  0
   -7.9344    5.4804   -9.4660 C   0  0  0  0  0  0  0  0  0  0  0  0
   -8.4193    4.3203   -8.8896 C   0  0  0  0  0  0  0  0  0  0  0  0
   -8.5781    3.1765   -9.6443 C   0  0  0  0  0  0  0  0  0  0  0  0
   -8.1868    3.1486  -10.9670 C   0  0  0  0  0  0  0  0  0  0  0  0
   -9.1868    2.0920   -8.8207 C   0  0  0  0  0  0  0  0  0  0  0  0
   -9.5749    2.7497   -7.5434 N   0  0  0  0  0  0  0  0  0  0  0  0
   -8.8026    4.0111   -7.4831 C   0  0  0  0  0  0  0  0  0  0  0  0
   -9.3397    2.1518   -6.7512 H   0  0  0  0  0  0  0  0  0  0  0  0
 12 13  1  0  0  0
 13  2  1  0  0  0
  2  3  1  0  0  0
  3  4  2  0  0  0
  4  5  1  0  0  0
  5  6  2  0  0  0
  6  1  1  0  0  0
  1 14  1  0  0  0
 14 15  2  0  0  0
 14 16  1  0  0  0
 16 18  1  0  0  0
 18 19  1  0  0  0
 19 20  1  0  0  0
 19 21  1  0  0  0
  1 22  1  0  0  0
 22 23  1  0  0  0
 22 24  1  0  0  0
 24 25  2  0  0  0
 25 26  1  0  0  0
 26 27  2  0  0  0
 27 28  1  0  0  0
 28 29  2  0  0  0
 28 30  1  0  0  0
 30 31  1  0  0  0
 31 32  1  0  0  0
  6  7  1  0  0  0
  7  8  2  0  0  0
  8  9  1  0  0  0
  8 10  1  0  0  0
 10 11  2  0  0  0
 11  2  1  0  0  0
 11  5  1  0  0  0
 29 24  1  0  0  0
 32 27  1  0  0  0
 16 17  1  0  0  0
 31 33  1  0  0  0
M  END
> <minimizedAffinity>
-7.49165

> <minimizedRMSD>
1.05080

$$$$
P18843


 37 41  0  0  0  0  0  0  0  0999 V2000
   -7.5381    4.9310  -13.6423 C   0  0  0  0  0  0  0  0  0  0  0  0
   -6.2360    5.1134  -13.1005 O   0  0  0  0  0  0  0  0  0  0  0  0
   -6.3031    5.2820  -12.1476 H   0  0  0  0  0  0  0  0  0  0  0  0
   -7.3611    4.6716  -15.1354 C   0  0  0  0  0  0  0  0  0  0  0  0
   -8.4295    4.2588  -16.0006 C   0  0  0  0  0  0  0  0  0  0  0  0
   -8.2835    4.1629  -17.4259 C   0  0  0  0  0  0  0  0  0  0  0  0
   -9.5968    3.6016  -18.3784 Cl  0  0  0  0  0  0  0  0  0  0  0  0
   -7.0981    4.5569  -17.9922 C   0  0  0  0  0  0  0  0  0  0  0  0
   -6.1765    5.0592  -17.1321 C   0  0  0  0  0  0  0  0  0  0  0  0
   -6.1788    5.0111  -15.7740 C   0  0  0  0  0  0  0  0  0  0  0  0
   -4.7579    5.3541  -15.4360 C   0  0  0  0  0  0  0  0  0  0  0  0
   -4.0033    5.3067  -16.7719 N   0  0  0  0  0  0  0  0  0  0  0  0
   -5.0129    5.5392  -17.7265 N   0  0  0  0  0  0  0  0  0  0  0  0
   -5.0476    5.0157  -19.0426 N   0  0  0  0  0  0  0  0  0  0  0  0
   -6.4510    4.4774  -19.2394 N   0  0  0  0  0  0  0  0  0  0  0  0
   -3.5700    4.3943  -16.9139 H   0  0  0  0  0  0  0  0  0  0  0  0
   -4.3629    4.2667  -19.1446 H   0  0  0  0  0  0  0  0  0  0  0  0
   -6.8362    4.1372  -20.0791 H   0  0  0  0  0  0  0  0  0  0  0  0
   -7.5607    7.3644  -12.9369 N   0  0  0  0  0  0  0  0  0  0  0  0
   -8.4758    6.2384  -13.5210 C   0  0  0  0  0  0  0  0  0  0  0  0
   -9.6160    6.2523  -13.7949 O   0  0  0  0  0  0  0  0  0  0  0  0
   -6.6436    7.0796  -12.7203 H   0  0  0  0  0  0  0  0  0  0  0  0
   -7.8419    8.7480  -12.6651 C   0  0  0  0  0  0  0  0  0  0  0  0
  -10.2111    9.3033  -12.0241 C   0  0  0  0  0  0  0  0  0  0  0  0
   -8.8405    8.8828  -11.5216 C   0  0  0  0  0  0  0  0  0  0  0  0
   -8.0911    3.8210  -12.8707 N   0  0  0  0  0  0  0  0  0  0  0  0
   -8.3226    2.9834  -13.3333 H   0  0  0  0  0  0  0  0  0  0  0  0
   -8.3022    3.9192  -11.4760 C   0  0  0  0  0  0  0  0  0  0  0  0
   -7.9245    5.0269  -10.6815 C   0  0  0  0  0  0  0  0  0  0  0  0
   -8.0970    5.0676   -9.2929 C   0  0  0  0  0  0  0  0  0  0  0  0
   -8.5937    3.9482   -8.6733 C   0  0  0  0  0  0  0  0  0  0  0  0
   -8.9079    2.8200   -9.4132 C   0  0  0  0  0  0  0  0  0  0  0  0
   -8.7871    2.7945  -10.7993 C   0  0  0  0  0  0  0  0  0  0  0  0
   -9.2479    1.7140   -8.4756 C   0  0  0  0  0  0  0  0  0  0  0  0
   -9.4181    2.3405   -7.1372 N   0  0  0  0  0  0  0  0  0  0  0  0
   -8.8216    3.6884   -7.2257 C   0  0  0  0  0  0  0  0  0  0  0  0
   -8.9379    1.7887   -6.4263 H   0  0  0  0  0  0  0  0  0  0  0  0
 24 25  1  0  0  0
 25 23  1  0  0  0
 23 19  1  0  0  0
 19 20  1  0  0  0
 20 21  2  0  0  0
 20  1  1  0  0  0
  1  2  1  0  0  0
  1 26  1  0  0  0
 26 28  1  0  0  0
 28 29  2  0  0  0
 29 30  1  0  0  0
 30 31  2  0  0  0
 31 32  1  0  0  0
 32 33  2  0  0  0
 32 34  1  0  0  0
 34 35  1  0  0  0
 35 36  1  0  0  0
  1  4  1  0  0  0
  4  5  2  0  0  0
  5  6  1  0  0  0
  6  7  1  0  0  0
  6  8  2  0  0  0
  8  9  1  0  0  0
  9 10  2  0  0  0
 10 11  1  0  0  0
 11 12  1  0  0  0
 12 13  1  0  0  0
 13 14  1  0  0  0
 14 15  1  0  0  0
 33 28  1  0  0  0
 10  4  1  0  0  0
 36 31  1  0  0  0
 15  8  1  0  0  0
 13  9  1  0  0  0
 19 22  1  0  0  0
  2  3  1  0  0  0
 26 27  1  0  0  0
 35 37  1  0  0  0
 12 16  1  0  0  0
 14 17  1  0  0  0
 15 18  1  0  0  0
M  END
> <minimizedAffinity>
-9.14204

> <minimizedRMSD>
0.51403

$$$$
P18846


 37 40  0  0  0  0  0  0  0  0999 V2000
   -6.8932    5.1198  -13.3691 C   0  0  0  0  0  0  0  0  0  0  0  0
   -6.7459    6.5310  -13.3488 O   0  0  0  0  0  0  0  0  0  0  0  0
   -6.6873    6.8368  -12.4301 H   0  0  0  0  0  0  0  0  0  0  0  0
   -6.9681    4.8235  -14.8752 C   0  0  0  0  0  0  0  0  0  0  0  0
   -8.2125    4.4487  -15.4717 C   0  0  0  0  0  0  0  0  0  0  0  0
   -8.3785    4.3101  -16.8504 C   0  0  0  0  0  0  0  0  0  0  0  0
   -9.9085    3.9703  -17.5592 Cl  0  0  0  0  0  0  0  0  0  0  0  0
   -7.3248    4.5342  -17.7147 C   0  0  0  0  0  0  0  0  0  0  0  0
   -6.1072    4.9119  -17.1514 C   0  0  0  0  0  0  0  0  0  0  0  0
   -5.8998    5.0604  -15.7827 C   0  0  0  0  0  0  0  0  0  0  0  0
   -4.5416    5.4706  -15.6954 C   0  0  0  0  0  0  0  0  0  0  0  0
   -3.9418    5.5905  -16.8818 N   0  0  0  0  0  0  0  0  0  0  0  0
   -4.9210    5.2432  -17.7487 N   0  0  0  0  0  0  0  0  0  0  0  0
   -4.7085    5.4001  -19.1799 C   0  0  0  0  0  0  0  0  0  0  0  0
   -4.2886    6.7764  -19.4409 N   0  0  0  0  0  0  0  0  0  0  0  0
   -5.4137    7.6797  -19.5726 C   0  0  0  0  0  0  0  0  0  0  0  0
   -3.7492    6.7961  -20.3064 H   0  0  0  0  0  0  0  0  0  0  0  0
   -4.8753    5.4318  -11.8782 N   0  0  0  0  0  0  0  0  0  0  0  0
   -5.6792    4.3401  -12.6494 C   0  0  0  0  0  0  0  0  0  0  0  0
   -5.5045    3.1862  -12.7300 O   0  0  0  0  0  0  0  0  0  0  0  0
   -5.2722    6.3323  -11.9051 H   0  0  0  0  0  0  0  0  0  0  0  0
   -3.6495    5.3363  -11.1351 C   0  0  0  0  0  0  0  0  0  0  0  0
   -4.6647    4.1109   -9.1866 C   0  0  0  0  0  0  0  0  0  0  0  0
   -3.9194    5.3562   -9.6355 C   0  0  0  0  0  0  0  0  0  0  0  0
   -8.1642    4.7949  -12.6998 N   0  0  0  0  0  0  0  0  0  0  0  0
   -8.9888    4.7129  -13.2313 H   0  0  0  0  0  0  0  0  0  0  0  0
   -8.2102    4.5991  -11.2960 C   0  0  0  0  0  0  0  0  0  0  0  0
   -8.6119    3.3420  -10.8146 C   0  0  0  0  0  0  0  0  0  0  0  0
   -8.7795    3.1547   -9.4492 C   0  0  0  0  0  0  0  0  0  0  0  0
   -8.5737    4.1849   -8.5388 C   0  0  0  0  0  0  0  0  0  0  0  0
   -8.1758    5.4307   -8.9647 C   0  0  0  0  0  0  0  0  0  0  0  0
   -8.0232    5.6274  -10.3370 C   0  0  0  0  0  0  0  0  0  0  0  0
   -7.7492    6.8799  -10.7341 F   0  0  0  0  0  0  0  0  0  0  0  0
   -8.8755    3.6928   -7.1640 C   0  0  0  0  0  0  0  0  0  0  0  0
   -9.5937    2.4166   -7.3602 N   0  0  0  0  0  0  0  0  0  0  0  0
   -9.1663    1.9237   -8.6969 C   0  0  0  0  0  0  0  0  0  0  0  0
  -10.6022    2.5682   -7.3415 H   0  0  0  0  0  0  0  0  0  0  0  0
 23 24  1  0  0  0
 24 22  1  0  0  0
 22 18  1  0  0  0
 18 19  1  0  0  0
 19 20  2  0  0  0
 19  1  1  0  0  0
  1  2  1  0  0  0
  1 25  1  0  0  0
 25 27  1  0  0  0
 27 28  2  0  0  0
 28 29  1  0  0  0
 29 30  2  0  0  0
 30 31  1  0  0  0
 31 32  2  0  0  0
 32 33  1  0  0  0
 30 34  1  0  0  0
 34 35  1  0  0  0
 35 36  1  0  0  0
  1  4  1  0  0  0
  4  5  2  0  0  0
  5  6  1  0  0  0
  6  7  1  0  0  0
  6  8  2  0  0  0
  8  9  1  0  0  0
  9 10  2  0  0  0
 10 11  1  0  0  0
 11 12  2  0  0  0
 12 13  1  0  0  0
 13 14  1  0  0  0
 14 15  1  0  0  0
 15 16  1  0  0  0
 32 27  1  0  0  0
 10  4  1  0  0  0
 36 29  1  0  0  0
 13  9  1  0  0  0
 18 21  1  0  0  0
  2  3  1  0  0  0
 25 26  1  0  0  0
 35 37  1  0  0  0
 15 17  1  0  0  0
M  END
> <minimizedAffinity>
-7.58621

> <minimizedRMSD>
0.80985

$$$$
P18847


 38 41  0  0  0  0  0  0  0  0999 V2000
   -7.2070    4.8958  -13.2945 C   0  0  0  0  0  0  0  0  0  0  0  0
   -7.6372    6.2462  -13.1631 O   0  0  0  0  0  0  0  0  0  0  0  0
   -7.6966    6.4765  -12.2227 H   0  0  0  0  0  0  0  0  0  0  0  0
   -7.1602    4.6769  -14.8189 C   0  0  0  0  0  0  0  0  0  0  0  0
   -8.3689    4.3302  -15.4990 C   0  0  0  0  0  0  0  0  0  0  0  0
   -8.4637    4.2591  -16.8882 C   0  0  0  0  0  0  0  0  0  0  0  0
   -9.9630    3.9779  -17.6793 Cl  0  0  0  0  0  0  0  0  0  0  0  0
   -7.3695    4.5237  -17.6876 C   0  0  0  0  0  0  0  0  0  0  0  0
   -6.1918    4.9121  -17.0528 C   0  0  0  0  0  0  0  0  0  0  0  0
   -6.0509    4.9879  -15.6665 C   0  0  0  0  0  0  0  0  0  0  0  0
   -4.7116    5.4454  -15.5121 C   0  0  0  0  0  0  0  0  0  0  0  0
   -4.0820    5.6840  -16.6659 N   0  0  0  0  0  0  0  0  0  0  0  0
   -5.0028    5.3419  -17.5947 N   0  0  0  0  0  0  0  0  0  0  0  0
   -4.8012    5.6500  -19.0211 C   0  0  0  0  0  0  0  0  0  0  0  0
   -3.7789    4.7524  -19.5836 N   0  0  0  0  0  0  0  0  0  0  0  0
   -2.6562    5.5289  -20.0800 C   0  0  0  0  0  0  0  0  0  0  0  0
   -4.1848    4.2166  -20.3508 H   0  0  0  0  0  0  0  0  0  0  0  0
   -5.4576    3.1769  -12.5529 N   0  0  0  0  0  0  0  0  0  0  0  0
   -5.7766    4.7008  -12.5982 C   0  0  0  0  0  0  0  0  0  0  0  0
   -5.1550    5.6190  -12.2157 O   0  0  0  0  0  0  0  0  0  0  0  0
   -6.1128    2.6047  -13.0138 H   0  0  0  0  0  0  0  0  0  0  0  0
   -4.3627    2.4708  -11.9480 C   0  0  0  0  0  0  0  0  0  0  0  0
   -2.3676    1.1464  -12.7053 C   0  0  0  0  0  0  0  0  0  0  0  0
   -3.1221    2.4597  -12.8303 C   0  0  0  0  0  0  0  0  0  0  0  0
   -8.1760    4.0227  -12.6170 N   0  0  0  0  0  0  0  0  0  0  0  0
   -8.7022    3.3904  -13.1578 H   0  0  0  0  0  0  0  0  0  0  0  0
   -8.3801    4.0559  -11.2276 C   0  0  0  0  0  0  0  0  0  0  0  0
   -8.1049    5.1691  -10.4033 C   0  0  0  0  0  0  0  0  0  0  0  0
   -8.2428    5.1224   -9.0054 C   0  0  0  0  0  0  0  0  0  0  0  0
   -8.6446    3.9373   -8.4257 C   0  0  0  0  0  0  0  0  0  0  0  0
   -8.8986    2.8244   -9.2120 C   0  0  0  0  0  0  0  0  0  0  0  0
   -8.7789    2.8695  -10.5958 C   0  0  0  0  0  0  0  0  0  0  0  0
   -9.2064    1.6627   -8.3299 C   0  0  0  0  0  0  0  0  0  0  0  0
   -9.4015    2.2267   -6.9699 N   0  0  0  0  0  0  0  0  0  0  0  0
   -8.8402    3.5915   -6.9886 C   0  0  0  0  0  0  0  0  0  0  0  0
   -8.9133    1.6559   -6.2798 H   0  0  0  0  0  0  0  0  0  0  0  0
   -7.9554    6.2742   -8.2063 C   0  0  0  0  0  0  0  0  0  0  0  0
   -7.7221    7.1989   -7.5434 N   0  0  0  0  0  0  0  0  0  0  0  0
 23 24  1  0  0  0
 24 22  1  0  0  0
 22 18  1  0  0  0
 18 19  1  0  0  0
 19 20  2  0  0  0
 19  1  1  0  0  0
  1  2  1  0  0  0
  1 25  1  0  0  0
 25 27  1  0  0  0
 27 28  2  0  0  0
 28 29  1  0  0  0
 29 37  1  0  0  0
 37 38  3  0  0  0
 29 30  2  0  0  0
 30 31  1  0  0  0
 31 32  2  0  0  0
 31 33  1  0  0  0
 33 34  1  0  0  0
 34 35  1  0  0  0
  1  4  1  0  0  0
  4  5  2  0  0  0
  5  6  1  0  0  0
  6  7  1  0  0  0
  6  8  2  0  0  0
  8  9  1  0  0  0
  9 10  2  0  0  0
 10 11  1  0  0  0
 11 12  2  0  0  0
 12 13  1  0  0  0
 13 14  1  0  0  0
 14 15  1  0  0  0
 15 16  1  0  0  0
 32 27  1  0  0  0
 10  4  1  0  0  0
 35 30  1  0  0  0
 13  9  1  0  0  0
 18 21  1  0  0  0
  2  3  1  0  0  0
 25 26  1  0  0  0
 34 36  1  0  0  0
 15 17  1  0  0  0
M  END
> <minimizedAffinity>
-8.54724

> <minimizedRMSD>
0.81918

$$$$
P18848


 37 40  0  0  0  0  0  0  0  0999 V2000
   -7.5281    5.0222  -13.6976 C   0  0  0  0  0  0  0  0  0  0  0  0
   -6.1943    5.1906  -13.2480 O   0  0  0  0  0  0  0  0  0  0  0  0
   -6.1958    5.3901  -12.2988 H   0  0  0  0  0  0  0  0  0  0  0  0
   -7.4688    4.7092  -15.2010 C   0  0  0  0  0  0  0  0  0  0  0  0
   -8.6242    4.2351  -15.8789 C   0  0  0  0  0  0  0  0  0  0  0  0
   -8.6565    4.0642  -17.2628 C   0  0  0  0  0  0  0  0  0  0  0  0
  -10.1130    3.6378  -18.0665 Cl  0  0  0  0  0  0  0  0  0  0  0  0
   -7.5440    4.3256  -18.0472 C   0  0  0  0  0  0  0  0  0  0  0  0
   -6.4117    4.8302  -17.4104 C   0  0  0  0  0  0  0  0  0  0  0  0
   -6.3454    5.0121  -16.0292 C   0  0  0  0  0  0  0  0  0  0  0  0
   -5.0348    5.5216  -15.8281 C   0  0  0  0  0  0  0  0  0  0  0  0
   -4.3393    5.6756  -16.9555 N   0  0  0  0  0  0  0  0  0  0  0  0
   -5.2082    5.2657  -17.9109 N   0  0  0  0  0  0  0  0  0  0  0  0
   -4.7909    5.3122  -19.3136 C   0  0  0  0  0  0  0  0  0  0  0  0
   -3.5965    6.1696  -19.4006 N   0  0  0  0  0  0  0  0  0  0  0  0
   -2.5626    5.5020  -20.1688 C   0  0  0  0  0  0  0  0  0  0  0  0
   -3.2489    6.3611  -18.4610 H   0  0  0  0  0  0  0  0  0  0  0  0
   -7.4695    7.4674  -13.0279 N   0  0  0  0  0  0  0  0  0  0  0  0
   -8.4392    6.3352  -13.5027 C   0  0  0  0  0  0  0  0  0  0  0  0
   -9.5937    6.3607  -13.7080 O   0  0  0  0  0  0  0  0  0  0  0  0
   -6.5189    7.2124  -13.0024 H   0  0  0  0  0  0  0  0  0  0  0  0
   -7.7419    8.8213  -12.6223 C   0  0  0  0  0  0  0  0  0  0  0  0
  -10.0479    9.2968  -11.7344 C   0  0  0  0  0  0  0  0  0  0  0  0
   -8.6353    8.8576  -11.3883 C   0  0  0  0  0  0  0  0  0  0  0  0
   -8.0424    3.9190  -12.8825 N   0  0  0  0  0  0  0  0  0  0  0  0
   -8.2686    3.0664  -13.3197 H   0  0  0  0  0  0  0  0  0  0  0  0
   -8.2230    4.0434  -11.4882 C   0  0  0  0  0  0  0  0  0  0  0  0
   -7.9135    5.2028  -10.7399 C   0  0  0  0  0  0  0  0  0  0  0  0
   -8.1099    5.2952   -9.3580 C   0  0  0  0  0  0  0  0  0  0  0  0
   -8.5480    4.1739   -8.7009 C   0  0  0  0  0  0  0  0  0  0  0  0
   -8.7514    2.9821   -9.3899 C   0  0  0  0  0  0  0  0  0  0  0  0
   -8.6139    2.9068  -10.7697 C   0  0  0  0  0  0  0  0  0  0  0  0
   -9.0795    1.9186   -8.3865 C   0  0  0  0  0  0  0  0  0  0  0  0
  -10.0623    1.0771   -8.7720 F   0  0  0  0  0  0  0  0  0  0  0  0
   -9.5453    2.6702   -7.2059 N   0  0  0  0  0  0  0  0  0  0  0  0
   -9.3339    1.9931   -6.0316 F   0  0  0  0  0  0  0  0  0  0  0  0
   -8.8493    3.9630   -7.2534 C   0  0  0  0  0  0  0  0  0  0  0  0
 23 24  1  0  0  0
 24 22  1  0  0  0
 22 18  1  0  0  0
 18 19  1  0  0  0
 19 20  2  0  0  0
 19  1  1  0  0  0
  1  2  1  0  0  0
  1 25  1  0  0  0
 25 27  1  0  0  0
 27 28  2  0  0  0
 28 29  1  0  0  0
 29 30  2  0  0  0
 30 31  1  0  0  0
 31 32  2  0  0  0
 31 33  1  0  0  0
 33 34  1  0  0  0
 33 35  1  0  0  0
 35 36  1  0  0  0
 35 37  1  0  0  0
  1  4  1  0  0  0
  4  5  2  0  0  0
  5  6  1  0  0  0
  6  7  1  0  0  0
  6  8  2  0  0  0
  8  9  1  0  0  0
  9 10  2  0  0  0
 10 11  1  0  0  0
 11 12  2  0  0  0
 12 13  1  0  0  0
 13 14  1  0  0  0
 14 15  1  0  0  0
 15 16  1  0  0  0
 32 27  1  0  0  0
 10  4  1  0  0  0
 37 30  1  0  0  0
 13  9  1  0  0  0
 18 21  1  0  0  0
  2  3  1  0  0  0
 25 26  1  0  0  0
 15 17  1  0  0  0
M  END
> <minimizedAffinity>
-8.03515

> <minimizedRMSD>
0.61774

$$$$
P18851


 32 35  0  0  0  0  0  0  0  0999 V2000
   -6.9730    4.6428  -13.3899 C   0  0  0  0  0  0  0  0  0  0  0  0
   -7.0437    4.6899  -14.9303 C   0  0  0  0  0  0  0  0  0  0  0  0
   -8.2442    4.4631  -15.6525 C   0  0  0  0  0  0  0  0  0  0  0  0
   -8.2894    4.4656  -17.0514 C   0  0  0  0  0  0  0  0  0  0  0  0
   -9.7765    4.1963  -17.8569 Cl  0  0  0  0  0  0  0  0  0  0  0  0
   -7.1622    4.7152  -17.8217 C   0  0  0  0  0  0  0  0  0  0  0  0
   -5.9793    4.9394  -17.1214 C   0  0  0  0  0  0  0  0  0  0  0  0
   -5.8909    4.9251  -15.7298 C   0  0  0  0  0  0  0  0  0  0  0  0
   -4.5115    5.1621  -15.4804 C   0  0  0  0  0  0  0  0  0  0  0  0
   -3.7980    5.3440  -16.5926 N   0  0  0  0  0  0  0  0  0  0  0  0
   -4.7076    5.1783  -17.5583 N   0  0  0  0  0  0  0  0  0  0  0  0
   -4.3682    5.2872  -18.8814 F   0  0  0  0  0  0  0  0  0  0  0  0
   -7.1157    7.1600  -13.3220 N   0  0  0  0  0  0  0  0  0  0  0  0
   -6.2623    5.9428  -12.8548 C   0  0  0  0  0  0  0  0  0  0  0  0
   -5.2587    5.9069  -12.2539 O   0  0  0  0  0  0  0  0  0  0  0  0
   -7.8891    6.9292  -13.8858 H   0  0  0  0  0  0  0  0  0  0  0  0
   -6.9557    8.5761  -13.0612 C   0  0  0  0  0  0  0  0  0  0  0  0
   -5.2086    8.7923  -14.9338 C   0  0  0  0  0  0  0  0  0  0  0  0
   -5.6726    9.2460  -13.5637 C   0  0  0  0  0  0  0  0  0  0  0  0
   -4.6687    9.0496  -12.6682 F   0  0  0  0  0  0  0  0  0  0  0  0
   -8.3302    4.4487  -12.7903 N   0  0  0  0  0  0  0  0  0  0  0  0
   -9.1519    4.4256  -13.3320 H   0  0  0  0  0  0  0  0  0  0  0  0
   -8.3392    4.2999  -11.3724 C   0  0  0  0  0  0  0  0  0  0  0  0
   -8.1168    5.3976  -10.5176 C   0  0  0  0  0  0  0  0  0  0  0  0
   -8.2118    5.2872   -9.1268 C   0  0  0  0  0  0  0  0  0  0  0  0
   -8.5537    4.0636   -8.5936 C   0  0  0  0  0  0  0  0  0  0  0  0
   -8.7559    2.9635   -9.4127 C   0  0  0  0  0  0  0  0  0  0  0  0
   -8.6383    3.0565  -10.7945 C   0  0  0  0  0  0  0  0  0  0  0  0
   -9.1081    1.7837   -8.5723 C   0  0  0  0  0  0  0  0  0  0  0  0
   -9.2648    2.2890   -7.1810 N   0  0  0  0  0  0  0  0  0  0  0  0
   -8.7932    3.6889   -7.1738 C   0  0  0  0  0  0  0  0  0  0  0  0
   -8.7049    1.7275   -6.5393 H   0  0  0  0  0  0  0  0  0  0  0  0
 19 18  1  0  0  0
 19 20  1  0  0  0
 19 17  1  0  0  0
 17 13  1  0  0  0
 13 14  1  0  0  0
 14 15  2  0  0  0
 14  1  1  0  0  0
  1 21  1  0  0  0
 21 23  1  0  0  0
 23 24  2  0  0  0
 24 25  1  0  0  0
 25 26  2  0  0  0
 26 27  1  0  0  0
 27 28  2  0  0  0
 27 29  1  0  0  0
 29 30  1  0  0  0
 30 31  1  0  0  0
  1  2  1  0  0  0
  2  3  2  0  0  0
  3  4  1  0  0  0
  4  5  1  0  0  0
  4  6  2  0  0  0
  6  7  1  0  0  0
  7  8  2  0  0  0
  8  9  1  0  0  0
  9 10  2  0  0  0
 10 11  1  0  0  0
 11 12  1  0  0  0
 28 23  1  0  0  0
  8  2  1  0  0  0
 31 26  1  0  0  0
 11  7  1  0  0  0
 13 16  1  0  0  0
 21 22  1  0  0  0
 30 32  1  0  0  0
M  END
> <minimizedAffinity>
-7.51610

> <minimizedRMSD>
0.29864

$$$$
P18881


 16 17  0  0  0  0  0  0  0  0999 V2000
   -8.6690    3.6382   -8.8259 C   0  0  0  0  0  0  0  0  0  0  0  0
   -8.7590    2.6365   -9.7793 C   0  0  0  0  0  0  0  0  0  0  0  0
   -8.5356    2.8282  -11.1019 N   0  0  0  0  0  0  0  0  0  0  0  0
   -8.1856    4.0715  -11.5120 C   0  0  0  0  0  0  0  0  0  0  0  0
   -7.9742    4.2257  -12.9897 C   0  0  0  0  0  0  0  0  0  0  0  0
   -8.0360    5.1518  -10.6286 C   0  0  0  0  0  0  0  0  0  0  0  0
   -8.2977    4.9078   -9.2696 C   0  0  0  0  0  0  0  0  0  0  0  0
   -7.5932    6.4863  -11.0703 C   0  0  0  0  0  0  0  0  0  0  0  0
   -8.5455    7.4617  -11.4077 C   0  0  0  0  0  0  0  0  0  0  0  0
   -8.1633    8.7307  -11.8447 C   0  0  0  0  0  0  0  0  0  0  0  0
   -6.8147    9.0502  -11.9470 C   0  0  0  0  0  0  0  0  0  0  0  0
   -5.8497    8.1045  -11.6044 C   0  0  0  0  0  0  0  0  0  0  0  0
   -6.2220    6.8245  -11.1585 C   0  0  0  0  0  0  0  0  0  0  0  0
   -5.1440    5.8384  -10.7877 C   0  0  0  0  0  0  0  0  0  0  0  0
   -9.6795    2.3869   -7.0904 C   0  0  0  0  0  0  0  0  0  0  0  0
   -8.9037    3.5188   -7.4839 O   0  0  0  0  0  0  0  0  0  0  0  0
 15 16  1  0  0  0
 16  1  1  0  0  0
  1  2  2  0  0  0
  2  3  1  0  0  0
  3  4  2  0  0  0
  4  5  1  0  0  0
  4  6  1  0  0  0
  6  8  1  0  0  0
  8  9  2  0  0  0
  9 10  1  0  0  0
 10 11  2  0  0  0
 11 12  1  0  0  0
 12 13  2  0  0  0
 13 14  1  0  0  0
  6  7  2  0  0  0
  7  1  1  0  0  0
 13  8  1  0  0  0
M  END
> <minimizedAffinity>
-3.93928

> <minimizedRMSD>
0.30344

$$$$
P18882


 27 30  0  0  0  0  0  0  0  0999 V2000
   -4.7882    5.9175  -17.8078 C   0  0  0  0  0  0  0  0  0  0  0  0
   -5.6718    5.5190  -16.6393 C   0  0  0  0  0  0  0  0  0  0  0  0
   -5.4067    5.8748  -15.3206 C   0  0  0  0  0  0  0  0  0  0  0  0
   -6.2178    5.6011  -14.2752 N   0  0  0  0  0  0  0  0  0  0  0  0
   -7.3631    4.9246  -14.5293 C   0  0  0  0  0  0  0  0  0  0  0  0
   -8.1821    4.5639  -13.3190 C   0  0  0  0  0  0  0  0  0  0  0  0
   -7.7694    4.5773  -15.8354 C   0  0  0  0  0  0  0  0  0  0  0  0
   -9.0078    3.9808  -16.1325 C   0  0  0  0  0  0  0  0  0  0  0  0
   -9.3989    3.6951  -17.4416 C   0  0  0  0  0  0  0  0  0  0  0  0
   -8.5402    3.9389  -18.4878 C   0  0  0  0  0  0  0  0  0  0  0  0
   -7.3102    4.5159  -18.2219 C   0  0  0  0  0  0  0  0  0  0  0  0
   -6.9011    4.8677  -16.9077 C   0  0  0  0  0  0  0  0  0  0  0  0
   -3.3374    5.4716  -17.8217 C   0  0  0  0  0  0  0  0  0  0  0  0
   -2.8586    4.7338  -16.9633 O   0  0  0  0  0  0  0  0  0  0  0  0
   -1.1046    7.4523  -17.5042 C   0  0  0  0  0  0  0  0  0  0  0  0
   -1.4106    6.7911  -18.8190 C   0  0  0  0  0  0  0  0  0  0  0  0
   -2.4702    5.8676  -18.9918 C   0  0  0  0  0  0  0  0  0  0  0  0
   -2.7134    5.3018  -20.2698 C   0  0  0  0  0  0  0  0  0  0  0  0
   -1.9416    5.6527  -21.3788 C   0  0  0  0  0  0  0  0  0  0  0  0
   -0.8829    6.5133  -21.1849 C   0  0  0  0  0  0  0  0  0  0  0  0
   -0.6132    7.0635  -19.9322 C   0  0  0  0  0  0  0  0  0  0  0  0
    0.5883    7.9485  -20.0573 C   0  0  0  0  0  0  0  0  0  0  0  0
    1.2056    7.6021  -21.3640 N   0  0  0  0  0  0  0  0  0  0  0  0
    0.1099    7.0208  -22.1761 C   0  0  0  0  0  0  0  0  0  0  0  0
    1.9543    6.9214  -21.2356 H   0  0  0  0  0  0  0  0  0  0  0  0
   -4.8872    7.3797  -17.9752 C   0  0  0  0  0  0  0  0  0  0  0  0
   -4.9669    8.5333  -18.1031 N   0  0  0  0  0  0  0  0  0  0  0  0
 15 16  1  0  0  0
 16 17  2  0  0  0
 17 13  1  0  0  0
 13 14  2  0  0  0
 13  1  1  0  0  0
  1 26  1  0  0  0
 26 27  3  0  0  0
  1  2  1  0  0  0
  2  3  2  0  0  0
  3  4  1  0  0  0
  4  5  2  0  0  0
  5  6  1  0  0  0
  5  7  1  0  0  0
  7  8  2  0  0  0
  8  9  1  0  0  0
  9 10  2  0  0  0
 10 11  1  0  0  0
 11 12  2  0  0  0
 17 18  1  0  0  0
 18 19  2  0  0  0
 19 20  1  0  0  0
 20 21  2  0  0  0
 21 22  1  0  0  0
 22 23  1  0  0  0
 23 24  1  0  0  0
 21 16  1  0  0  0
 12  2  1  0  0  0
 24 20  1  0  0  0
 12  7  1  0  0  0
 23 25  1  0  0  0
M  END
> <minimizedAffinity>
-6.51276

> <minimizedRMSD>
0.59213

$$$$
P18895


 27 31  0  0  0  0  0  0  0  0999 V2000
   -7.1259    4.5459  -13.4332 C   0  0  0  0  0  0  0  0  0  0  0  0
   -7.9062    3.3563  -12.9352 N   0  0  0  0  0  0  0  0  0  0  0  0
   -8.1842    3.6483  -11.5827 C   0  0  0  0  0  0  0  0  0  0  0  0
   -8.6732    2.7298  -10.6810 C   0  0  0  0  0  0  0  0  0  0  0  0
   -8.7777    3.1354   -9.3658 C   0  0  0  0  0  0  0  0  0  0  0  0
   -8.3973    4.4187   -8.9575 C   0  0  0  0  0  0  0  0  0  0  0  0
   -8.0304    5.3939   -9.8806 C   0  0  0  0  0  0  0  0  0  0  0  0
   -7.9639    4.9748  -11.2022 C   0  0  0  0  0  0  0  0  0  0  0  0
   -7.5409    5.6636  -12.4294 C   0  0  0  0  0  0  0  0  0  0  0  0
   -7.4858    6.8780  -12.5400 O   0  0  0  0  0  0  0  0  0  0  0  0
   -8.4639    4.4732   -7.4658 C   0  0  0  0  0  0  0  0  0  0  0  0
   -8.8098    3.1073   -7.0037 N   0  0  0  0  0  0  0  0  0  0  0  0
   -9.2842    2.3608   -8.1980 C   0  0  0  0  0  0  0  0  0  0  0  0
   -8.1649    2.5528  -13.4418 H   0  0  0  0  0  0  0  0  0  0  0  0
   -9.5470    3.1503   -6.3001 H   0  0  0  0  0  0  0  0  0  0  0  0
   -7.4819    4.7100  -14.9241 C   0  0  0  0  0  0  0  0  0  0  0  0
   -8.8042    4.4194  -15.2863 C   0  0  0  0  0  0  0  0  0  0  0  0
   -9.2644    4.2568  -16.5452 N   0  0  0  0  0  0  0  0  0  0  0  0
   -8.3683    4.3910  -17.5390 C   0  0  0  0  0  0  0  0  0  0  0  0
   -7.0326    4.7179  -17.3417 C   0  0  0  0  0  0  0  0  0  0  0  0
   -6.1740    4.8225  -18.4528 C   0  0  0  0  0  0  0  0  0  0  0  0
   -4.8326    5.1493  -18.2942 C   0  0  0  0  0  0  0  0  0  0  0  0
   -4.3580    5.4252  -17.0264 C   0  0  0  0  0  0  0  0  0  0  0  0
   -5.2121    5.3415  -15.9182 C   0  0  0  0  0  0  0  0  0  0  0  0
   -6.5680    4.9307  -16.0142 C   0  0  0  0  0  0  0  0  0  0  0  0
   -4.5733    4.0793  -12.8733 N   0  0  0  0  0  0  0  0  0  0  0  0
   -5.6845    4.2964  -13.1450 C   0  0  0  0  0  0  0  0  0  0  0  0
 26 27  3  0  0  0
  1 27  1  0  0  0
  1 16  1  0  0  0
 16 17  2  0  0  0
 17 18  1  0  0  0
 18 19  2  0  0  0
 19 20  1  0  0  0
 20 21  2  0  0  0
 21 22  1  0  0  0
 22 23  2  0  0  0
 23 24  1  0  0  0
 24 25  2  0  0  0
  1  2  1  0  0  0
  2  3  1  0  0  0
  3  4  2  0  0  0
  4  5  1  0  0  0
  5  6  2  0  0  0
  6  7  1  0  0  0
  7  8  2  0  0  0
  8  9  1  0  0  0
  9 10  2  0  0  0
  6 11  1  0  0  0
 11 12  1  0  0  0
 12 13  1  0  0  0
  9  1  1  0  0  0
 25 16  1  0  0  0
  8  3  1  0  0  0
 25 20  1  0  0  0
 13  5  1  0  0  0
  2 14  1  0  0  0
 12 15  1  0  0  0
M  END
> <minimizedAffinity>
-9.79269

> <minimizedRMSD>
0.32413

$$$$
P18898


 29 32  0  0  0  0  0  0  0  0999 V2000
   -6.7858    4.9542  -13.4045 C   0  0  0  0  0  0  0  0  0  0  0  0
   -9.5364    4.2041  -17.5855 C   0  0  0  0  0  0  0  0  0  0  0  0
   -8.1908    4.4650  -16.9580 C   0  0  0  0  0  0  0  0  0  0  0  0
   -8.0694    4.5291  -15.5755 C   0  0  0  0  0  0  0  0  0  0  0  0
   -6.8489    4.8382  -14.9436 C   0  0  0  0  0  0  0  0  0  0  0  0
   -5.6746    4.9973  -15.7564 C   0  0  0  0  0  0  0  0  0  0  0  0
   -4.3681    5.1831  -15.2317 C   0  0  0  0  0  0  0  0  0  0  0  0
   -3.2408    5.3824  -16.0305 C   0  0  0  0  0  0  0  0  0  0  0  0
   -3.3632    5.3700  -17.3996 C   0  0  0  0  0  0  0  0  0  0  0  0
   -4.6152    5.1312  -17.9545 C   0  0  0  0  0  0  0  0  0  0  0  0
   -5.7846    4.9336  -17.1687 C   0  0  0  0  0  0  0  0  0  0  0  0
   -7.0471    4.6537  -17.7495 C   0  0  0  0  0  0  0  0  0  0  0  0
   -7.2232    4.5418  -19.2297 C   0  0  0  0  0  0  0  0  0  0  0  0
   -7.6309    3.2517  -19.6298 O   0  0  0  0  0  0  0  0  0  0  0  0
   -6.9517    2.6059  -19.3798 H   0  0  0  0  0  0  0  0  0  0  0  0
   -6.1135    6.2029  -12.9802 C   0  0  0  0  0  0  0  0  0  0  0  0
   -5.5775    7.1693  -12.6181 N   0  0  0  0  0  0  0  0  0  0  0  0
   -8.1208    5.0151  -12.6794 C   0  0  0  0  0  0  0  0  0  0  0  0
   -9.1291    5.5363  -13.1488 O   0  0  0  0  0  0  0  0  0  0  0  0
   -8.1692    4.6501  -11.2503 C   0  0  0  0  0  0  0  0  0  0  0  0
   -8.0081    5.6977  -10.3205 C   0  0  0  0  0  0  0  0  0  0  0  0
   -8.1705    5.4628   -8.9582 C   0  0  0  0  0  0  0  0  0  0  0  0
   -8.5268    4.1880   -8.5602 C   0  0  0  0  0  0  0  0  0  0  0  0
   -8.6863    3.1546   -9.4809 C   0  0  0  0  0  0  0  0  0  0  0  0
   -8.5030    3.3585  -10.8415 C   0  0  0  0  0  0  0  0  0  0  0  0
   -9.0905    1.9144   -8.7558 C   0  0  0  0  0  0  0  0  0  0  0  0
   -9.3165    2.3079   -7.3409 N   0  0  0  0  0  0  0  0  0  0  0  0
   -8.8391    3.6953   -7.1889 C   0  0  0  0  0  0  0  0  0  0  0  0
   -8.7953    1.6896   -6.7193 H   0  0  0  0  0  0  0  0  0  0  0  0
  2  3  1  0  0  0
  3  4  2  0  0  0
  4  5  1  0  0  0
  5  1  1  0  0  0
  1 16  1  0  0  0
 16 17  3  0  0  0
  1 18  1  0  0  0
 18 19  2  0  0  0
 18 20  1  0  0  0
 20 21  2  0  0  0
 21 22  1  0  0  0
 22 23  2  0  0  0
 23 24  1  0  0  0
 24 25  2  0  0  0
 24 26  1  0  0  0
 26 27  1  0  0  0
 27 28  1  0  0  0
  5  6  2  0  0  0
  6  7  1  0  0  0
  7  8  2  0  0  0
  8  9  1  0  0  0
  9 10  2  0  0  0
 10 11  1  0  0  0
 11 12  2  0  0  0
 12 13  1  0  0  0
 13 14  1  0  0  0
 12  3  1  0  0  0
 25 20  1  0  0  0
 11  6  1  0  0  0
 28 23  1  0  0  0
 27 29  1  0  0  0
 14 15  1  0  0  0
M  END
> <minimizedAffinity>
-8.42717

> <minimizedRMSD>
0.29401

$$$$
P18900


 33 37  0  0  0  0  0  0  0  0999 V2000
   -6.4944    4.5082  -12.5976 C   0  0  0  0  0  0  0  0  0  0  0  0
   -9.6437    4.3343  -16.5026 C   0  0  0  0  0  0  0  0  0  0  0  0
   -8.2313    4.5312  -16.0200 C   0  0  0  0  0  0  0  0  0  0  0  0
   -7.9410    4.4941  -14.6579 C   0  0  0  0  0  0  0  0  0  0  0  0
   -6.6300    4.6600  -14.1490 C   0  0  0  0  0  0  0  0  0  0  0  0
   -5.5859    4.9911  -15.0864 C   0  0  0  0  0  0  0  0  0  0  0  0
   -4.2538    5.3411  -14.7465 C   0  0  0  0  0  0  0  0  0  0  0  0
   -3.2385    5.5851  -15.6757 C   0  0  0  0  0  0  0  0  0  0  0  0
   -3.5107    5.5089  -17.0169 C   0  0  0  0  0  0  0  0  0  0  0  0
   -4.8118    5.2252  -17.4070 C   0  0  0  0  0  0  0  0  0  0  0  0
   -5.8700    4.9927  -16.4837 C   0  0  0  0  0  0  0  0  0  0  0  0
   -7.1951    4.7695  -16.9314 C   0  0  0  0  0  0  0  0  0  0  0  0
   -7.5720    4.8392  -18.3811 C   0  0  0  0  0  0  0  0  0  0  0  0
   -7.8397    3.5670  -18.9196 O   0  0  0  0  0  0  0  0  0  0  0  0
   -7.0442    3.0155  -18.8570 H   0  0  0  0  0  0  0  0  0  0  0  0
   -5.1732    3.9905  -12.0287 C   0  0  0  0  0  0  0  0  0  0  0  0
   -4.3887    4.8019  -11.1867 C   0  0  0  0  0  0  0  0  0  0  0  0
   -3.2044    4.3140  -10.6308 C   0  0  0  0  0  0  0  0  0  0  0  0
   -2.7897    3.0117  -10.9026 C   0  0  0  0  0  0  0  0  0  0  0  0
   -3.5571    2.1942  -11.7294 C   0  0  0  0  0  0  0  0  0  0  0  0
   -4.7405    2.6780  -12.2877 C   0  0  0  0  0  0  0  0  0  0  0  0
   -7.6113    3.6381  -11.9593 C   0  0  0  0  0  0  0  0  0  0  0  0
   -8.1260    2.6863  -12.5421 O   0  0  0  0  0  0  0  0  0  0  0  0
   -8.0347    3.8562  -10.5434 C   0  0  0  0  0  0  0  0  0  0  0  0
   -7.8859    5.0781   -9.8608 C   0  0  0  0  0  0  0  0  0  0  0  0
   -8.2124    5.1802   -8.5025 C   0  0  0  0  0  0  0  0  0  0  0  0
   -8.7229    4.0643   -7.8636 C   0  0  0  0  0  0  0  0  0  0  0  0
   -8.9093    2.8689   -8.5451 C   0  0  0  0  0  0  0  0  0  0  0  0
   -8.5633    2.7440   -9.8730 C   0  0  0  0  0  0  0  0  0  0  0  0
   -9.4668    1.8435   -7.6187 C   0  0  0  0  0  0  0  0  0  0  0  0
   -9.9342    2.6174   -6.4383 N   0  0  0  0  0  0  0  0  0  0  0  0
   -9.1433    3.8681   -6.4456 C   0  0  0  0  0  0  0  0  0  0  0  0
   -9.7651    2.0939   -5.5794 H   0  0  0  0  0  0  0  0  0  0  0  0
  2  3  1  0  0  0
  3  4  2  0  0  0
  4  5  1  0  0  0
  5  1  1  0  0  0
  1 22  1  0  0  0
 22 23  2  0  0  0
 22 24  1  0  0  0
 24 25  2  0  0  0
 25 26  1  0  0  0
 26 27  2  0  0  0
 27 28  1  0  0  0
 28 29  2  0  0  0
 28 30  1  0  0  0
 30 31  1  0  0  0
 31 32  1  0  0  0
  1 16  1  0  0  0
 16 17  2  0  0  0
 17 18  1  0  0  0
 18 19  2  0  0  0
 19 20  1  0  0  0
 20 21  2  0  0  0
  5  6  2  0  0  0
  6  7  1  0  0  0
  7  8  2  0  0  0
  8  9  1  0  0  0
  9 10  2  0  0  0
 10 11  1  0  0  0
 11 12  2  0  0  0
 12 13  1  0  0  0
 13 14  1  0  0  0
 12  3  1  0  0  0
 29 24  1  0  0  0
 21 16  1  0  0  0
 11  6  1  0  0  0
 32 27  1  0  0  0
 31 33  1  0  0  0
 14 15  1  0  0  0
M  END
> <minimizedAffinity>
-8.36533

> <minimizedRMSD>
1.01723

$$$$
P18905


 37 40  0  0  0  0  0  0  0  0999 V2000
   -5.2361    5.2021  -17.6962 C   0  0  0  0  0  0  0  0  0  0  0  0
   -4.0617    5.4058  -16.9613 C   0  0  0  0  0  0  0  0  0  0  0  0
   -3.9971    5.4586  -15.6276 N   0  0  0  0  0  0  0  0  0  0  0  0
   -5.1504    5.2589  -14.9592 C   0  0  0  0  0  0  0  0  0  0  0  0
   -6.3949    5.0112  -15.5502 C   0  0  0  0  0  0  0  0  0  0  0  0
   -7.5702    4.7625  -14.7918 C   0  0  0  0  0  0  0  0  0  0  0  0
   -8.7790    4.4265  -15.4036 C   0  0  0  0  0  0  0  0  0  0  0  0
   -8.8357    4.4317  -16.7838 C   0  0  0  0  0  0  0  0  0  0  0  0
  -10.2980    4.1577  -17.6308 Cl  0  0  0  0  0  0  0  0  0  0  0  0
   -7.7134    4.7639  -17.5375 C   0  0  0  0  0  0  0  0  0  0  0  0
   -6.4453    4.9982  -16.9640 C   0  0  0  0  0  0  0  0  0  0  0  0
   -7.5599    4.9809  -13.3218 C   0  0  0  0  0  0  0  0  0  0  0  0
   -7.3129    6.0472  -12.9280 O   0  0  0  0  0  0  0  0  0  0  0  0
   -7.8666    3.6868  -12.5605 N   0  0  0  0  0  0  0  0  0  0  0  0
   -8.1219    2.9249  -13.1293 H   0  0  0  0  0  0  0  0  0  0  0  0
   -7.8417    3.3982  -11.1235 C   0  0  0  0  0  0  0  0  0  0  0  0
   -8.8954    2.3294  -10.8232 C   0  0  0  0  0  0  0  0  0  0  0  0
   -6.4524    2.8408  -10.7723 C   0  0  0  0  0  0  0  0  0  0  0  0
   -8.1079    4.6908  -10.3034 C   0  0  0  0  0  0  0  0  0  0  0  0
   -8.5217    4.4679   -8.9572 O   0  0  0  0  0  0  0  0  0  0  0  0
   -9.3685    3.9948   -8.9533 H   0  0  0  0  0  0  0  0  0  0  0  0
   -5.0355    5.0275  -19.1936 C   0  0  0  0  0  0  0  0  0  0  0  0
   -4.3550    6.1509  -19.9452 C   0  0  0  0  0  0  0  0  0  0  0  0
   -3.1184    6.2115  -20.0111 O   0  0  0  0  0  0  0  0  0  0  0  0
   -5.2179    8.5805  -18.4238 C   0  0  0  0  0  0  0  0  0  0  0  0
   -5.3558    8.4573  -19.9121 C   0  0  0  0  0  0  0  0  0  0  0  0
   -5.0783    7.2572  -20.6058 C   0  0  0  0  0  0  0  0  0  0  0  0
   -5.1436    7.2045  -22.0140 C   0  0  0  0  0  0  0  0  0  0  0  0
   -5.4858    8.3347  -22.7593 C   0  0  0  0  0  0  0  0  0  0  0  0
   -5.7605    9.5053  -22.0769 C   0  0  0  0  0  0  0  0  0  0  0  0
   -5.7196    9.5638  -20.6819 C   0  0  0  0  0  0  0  0  0  0  0  0
   -6.0111   10.9718  -20.2602 C   0  0  0  0  0  0  0  0  0  0  0  0
   -6.5320   11.6540  -21.4683 N   0  0  0  0  0  0  0  0  0  0  0  0
   -6.0444   10.8658  -22.6230 C   0  0  0  0  0  0  0  0  0  0  0  0
   -6.1781   12.6094  -21.5164 H   0  0  0  0  0  0  0  0  0  0  0  0
   -6.0279    4.2481  -19.9364 C   0  0  0  0  0  0  0  0  0  0  0  0
   -6.8632    3.5585  -20.3632 N   0  0  0  0  0  0  0  0  0  0  0  0
 25 26  1  0  0  0
 26 27  2  0  0  0
 27 23  1  0  0  0
 23 24  2  0  0  0
 23 22  1  0  0  0
 22 36  1  0  0  0
 36 37  3  0  0  0
 22  1  1  0  0  0
  1  2  2  0  0  0
  2  3  1  0  0  0
  3  4  2  0  0  0
  4  5  1  0  0  0
  5  6  2  0  0  0
  6 12  1  0  0  0
 12 13  2  0  0  0
 12 14  1  0  0  0
 14 16  1  0  0  0
 16 17  1  0  0  0
 16 18  1  0  0  0
 16 19  1  0  0  0
 19 20  1  0  0  0
  6  7  1  0  0  0
  7  8  2  0  0  0
  8  9  1  0  0  0
  8 10  1  0  0  0
 10 11  2  0  0  0
 27 28  1  0  0  0
 28 29  2  0  0  0
 29 30  1  0  0  0
 30 31  2  0  0  0
 31 32  1  0  0  0
 32 33  1  0  0  0
 33 34  1  0  0  0
 31 26  1  0  0  0
 11  1  1  0  0  0
 34 30  1  0  0  0
 11  5  1  0  0  0
 14 15  1  0  0  0
 20 21  1  0  0  0
 33 35  1  0  0  0
M  END
> <minimizedAffinity>
-6.61053

> <minimizedRMSD>
0.51102

$$$$
P18908


 29 33  0  0  0  0  0  0  0  0999 V2000
   -7.1268    4.5185  -13.5946 C   0  0  0  0  0  0  0  0  0  0  0  0
   -7.9593    3.3808  -13.0943 N   0  0  0  0  0  0  0  0  0  0  0  0
   -8.1906    3.7608  -11.7497 C   0  0  0  0  0  0  0  0  0  0  0  0
   -8.6598    2.9350  -10.7546 C   0  0  0  0  0  0  0  0  0  0  0  0
   -8.6834    3.4639   -9.4842 C   0  0  0  0  0  0  0  0  0  0  0  0
   -8.2951    4.7859   -9.2353 C   0  0  0  0  0  0  0  0  0  0  0  0
   -7.9499    5.6604  -10.2725 C   0  0  0  0  0  0  0  0  0  0  0  0
   -7.8867    5.1101  -11.5437 C   0  0  0  0  0  0  0  0  0  0  0  0
   -7.5682    5.7318  -12.8080 N   0  0  0  0  0  0  0  0  0  0  0  0
   -8.3413    5.0070   -7.7576 C   0  0  0  0  0  0  0  0  0  0  0  0
   -8.6147    3.6875   -7.1327 N   0  0  0  0  0  0  0  0  0  0  0  0
   -9.1090    2.8019   -8.2195 C   0  0  0  0  0  0  0  0  0  0  0  0
   -8.2661    2.5779  -13.5742 H   0  0  0  0  0  0  0  0  0  0  0  0
   -7.6230    6.6764  -13.0800 H   0  0  0  0  0  0  0  0  0  0  0  0
   -9.3232    3.7819   -6.4051 H   0  0  0  0  0  0  0  0  0  0  0  0
  -10.1628    4.2121  -17.7292 C   0  0  0  0  0  0  0  0  0  0  0  0
   -8.8103    4.3067  -17.0893 C   0  0  0  0  0  0  0  0  0  0  0  0
   -8.5946    4.4176  -15.7074 C   0  0  0  0  0  0  0  0  0  0  0  0
   -7.3126    4.6843  -15.1495 C   0  0  0  0  0  0  0  0  0  0  0  0
   -6.2466    4.9916  -16.0928 C   0  0  0  0  0  0  0  0  0  0  0  0
   -4.9452    5.4888  -15.8148 C   0  0  0  0  0  0  0  0  0  0  0  0
   -3.9704    5.6447  -16.8122 C   0  0  0  0  0  0  0  0  0  0  0  0
   -2.3845    6.1522  -16.4041 Cl  0  0  0  0  0  0  0  0  0  0  0  0
   -4.2502    5.3870  -18.1385 C   0  0  0  0  0  0  0  0  0  0  0  0
   -5.5198    4.9753  -18.4743 C   0  0  0  0  0  0  0  0  0  0  0  0
   -6.4905    4.7866  -17.4852 C   0  0  0  0  0  0  0  0  0  0  0  0
   -7.7321    4.4077  -17.9482 C   0  0  0  0  0  0  0  0  0  0  0  0
   -5.6871    4.2080  -13.2058 C   0  0  0  0  0  0  0  0  0  0  0  0
   -4.6146    3.9164  -12.8505 N   0  0  0  0  0  0  0  0  0  0  0  0
 16 17  1  0  0  0
 17 18  2  0  0  0
 18 19  1  0  0  0
 19  1  1  0  0  0
  1 28  1  0  0  0
 28 29  3  0  0  0
  1  2  1  0  0  0
  2  3  1  0  0  0
  3  4  2  0  0  0
  4  5  1  0  0  0
  5  6  2  0  0  0
  6  7  1  0  0  0
  7  8  2  0  0  0
  8  9  1  0  0  0
  6 10  1  0  0  0
 10 11  1  0  0  0
 11 12  1  0  0  0
 19 20  2  0  0  0
 20 21  1  0  0  0
 21 22  2  0  0  0
 22 23  1  0  0  0
 22 24  1  0  0  0
 24 25  2  0  0  0
 25 26  1  0  0  0
 26 27  2  0  0  0
 27 17  1  0  0  0
  9  1  1  0  0  0
 26 20  1  0  0  0
  8  3  1  0  0  0
 12  5  1  0  0  0
  2 13  1  0  0  0
  9 14  1  0  0  0
 11 15  1  0  0  0
M  END
> <minimizedAffinity>
-9.94859

> <minimizedRMSD>
0.29318

$$$$
P18909


 25 28  0  0  0  0  0  0  0  0999 V2000
   -7.1451    5.0933  -14.1972 C   0  0  0  0  0  0  0  0  0  0  0  0
   -7.4317    4.7743  -15.6767 C   0  0  0  0  0  0  0  0  0  0  0  0
   -8.6819    4.2724  -16.0594 C   0  0  0  0  0  0  0  0  0  0  0  0
   -9.0536    3.9608  -17.3173 N   0  0  0  0  0  0  0  0  0  0  0  0
   -8.1448    4.1756  -18.2850 C   0  0  0  0  0  0  0  0  0  0  0  0
   -6.8481    4.6213  -18.0519 C   0  0  0  0  0  0  0  0  0  0  0  0
   -5.9460    4.7661  -19.1215 C   0  0  0  0  0  0  0  0  0  0  0  0
   -4.6241    5.1410  -18.8985 C   0  0  0  0  0  0  0  0  0  0  0  0
   -4.1935    5.3603  -17.6021 C   0  0  0  0  0  0  0  0  0  0  0  0
   -5.0872    5.2295  -16.5336 C   0  0  0  0  0  0  0  0  0  0  0  0
   -6.4535    4.8902  -16.7172 C   0  0  0  0  0  0  0  0  0  0  0  0
   -5.8763    7.3845  -13.8557 N   0  0  0  0  0  0  0  0  0  0  0  0
   -6.4386    6.3799  -14.0185 C   0  0  0  0  0  0  0  0  0  0  0  0
   -8.3777    5.2353  -13.3084 C   0  0  0  0  0  0  0  0  0  0  0  0
   -9.4314    5.7482  -13.6870 O   0  0  0  0  0  0  0  0  0  0  0  0
   -8.2416    4.9253  -11.8635 C   0  0  0  0  0  0  0  0  0  0  0  0
   -8.0397    6.0155  -10.9909 C   0  0  0  0  0  0  0  0  0  0  0  0
   -8.0415    5.8296   -9.6093 C   0  0  0  0  0  0  0  0  0  0  0  0
   -8.2894    4.5578   -9.1305 C   0  0  0  0  0  0  0  0  0  0  0  0
   -8.4774    3.4757   -9.9927 C   0  0  0  0  0  0  0  0  0  0  0  0
   -8.4420    3.6321  -11.3719 C   0  0  0  0  0  0  0  0  0  0  0  0
   -8.7515    2.2570   -9.1681 C   0  0  0  0  0  0  0  0  0  0  0  0
   -9.1050    2.7740   -7.8192 N   0  0  0  0  0  0  0  0  0  0  0  0
   -8.4549    4.0966   -7.7200 C   0  0  0  0  0  0  0  0  0  0  0  0
   -8.7530    2.1486   -7.0943 H   0  0  0  0  0  0  0  0  0  0  0  0
 12 13  3  0  0  0
  1 13  1  0  0  0
  1 14  1  0  0  0
 14 15  2  0  0  0
 14 16  1  0  0  0
 16 17  2  0  0  0
 17 18  1  0  0  0
 18 19  2  0  0  0
 19 20  1  0  0  0
 20 21  2  0  0  0
 20 22  1  0  0  0
 22 23  1  0  0  0
 23 24  1  0  0  0
  1  2  1  0  0  0
  2  3  2  0  0  0
  3  4  1  0  0  0
  4  5  2  0  0  0
  5  6  1  0  0  0
  6  7  2  0  0  0
  7  8  1  0  0  0
  8  9  2  0  0  0
  9 10  1  0  0  0
 10 11  2  0  0  0
 21 16  1  0  0  0
 11  2  1  0  0  0
 24 19  1  0  0  0
 11  6  1  0  0  0
 23 25  1  0  0  0
M  END
> <minimizedAffinity>
-8.39585

> <minimizedRMSD>
0.58048

$$$$
P18914


 30 33  0  0  0  0  0  0  0  0999 V2000
   -6.7987    5.2345  -13.3751 C   0  0  0  0  0  0  0  0  0  0  0  0
   -6.8934    4.9602  -14.8863 C   0  0  0  0  0  0  0  0  0  0  0  0
   -8.1091    4.6026  -15.4721 C   0  0  0  0  0  0  0  0  0  0  0  0
   -8.3012    4.4088  -16.7883 N   0  0  0  0  0  0  0  0  0  0  0  0
   -7.2392    4.6171  -17.5923 C   0  0  0  0  0  0  0  0  0  0  0  0
   -5.9425    4.9307  -17.1573 C   0  0  0  0  0  0  0  0  0  0  0  0
   -4.8381    5.1469  -18.0463 C   0  0  0  0  0  0  0  0  0  0  0  0
   -3.5439    5.2841  -17.5303 C   0  0  0  0  0  0  0  0  0  0  0  0
   -3.3386    5.2559  -16.1660 C   0  0  0  0  0  0  0  0  0  0  0  0
   -4.4223    5.1363  -15.3010 C   0  0  0  0  0  0  0  0  0  0  0  0
   -5.7569    5.0169  -15.7559 C   0  0  0  0  0  0  0  0  0  0  0  0
   -5.0848    5.2573  -19.5379 C   0  0  0  0  0  0  0  0  0  0  0  0
   -4.8611    6.6248  -20.2040 C   0  0  0  0  0  0  0  0  0  0  0  0
   -5.2377    6.6000  -21.6222 N   0  0  0  0  0  0  0  0  0  0  0  0
   -4.6619    5.9174  -22.1150 H   0  0  0  0  0  0  0  0  0  0  0  0
   -5.0925    7.5241  -22.0287 H   0  0  0  0  0  0  0  0  0  0  0  0
   -5.4883    7.4650  -12.8285 N   0  0  0  0  0  0  0  0  0  0  0  0
   -6.0649    6.4881  -13.0834 C   0  0  0  0  0  0  0  0  0  0  0  0
   -8.1250    5.4310  -12.6480 C   0  0  0  0  0  0  0  0  0  0  0  0
   -9.0735    6.0579  -13.1181 O   0  0  0  0  0  0  0  0  0  0  0  0
   -8.1973    5.0071  -11.2254 C   0  0  0  0  0  0  0  0  0  0  0  0
   -8.0332    5.9968  -10.2331 C   0  0  0  0  0  0  0  0  0  0  0  0
   -8.1570    5.6731   -8.8819 C   0  0  0  0  0  0  0  0  0  0  0  0
   -8.4770    4.3680   -8.5539 C   0  0  0  0  0  0  0  0  0  0  0  0
   -8.6478    3.3942   -9.5348 C   0  0  0  0  0  0  0  0  0  0  0  0
   -8.4992    3.6872  -10.8843 C   0  0  0  0  0  0  0  0  0  0  0  0
   -9.0635    2.1134   -8.8904 C   0  0  0  0  0  0  0  0  0  0  0  0
   -9.0497    2.3540   -7.4233 N   0  0  0  0  0  0  0  0  0  0  0  0
   -8.7672    3.7871   -7.2125 C   0  0  0  0  0  0  0  0  0  0  0  0
   -8.3239    1.7875   -6.9842 H   0  0  0  0  0  0  0  0  0  0  0  0
 17 18  3  0  0  0
  1 18  1  0  0  0
  1 19  1  0  0  0
 19 20  2  0  0  0
 19 21  1  0  0  0
 21 22  2  0  0  0
 22 23  1  0  0  0
 23 24  2  0  0  0
 24 25  1  0  0  0
 25 26  2  0  0  0
 25 27  1  0  0  0
 27 28  1  0  0  0
 28 29  1  0  0  0
  1  2  1  0  0  0
  2  3  2  0  0  0
  3  4  1  0  0  0
  4  5  2  0  0  0
  5  6  1  0  0  0
  6  7  2  0  0  0
  7 12  1  0  0  0
 12 13  1  0  0  0
 13 14  1  0  0  0
  7  8  1  0  0  0
  8  9  2  0  0  0
  9 10  1  0  0  0
 10 11  2  0  0  0
 26 21  1  0  0  0
 11  2  1  0  0  0
 29 24  1  0  0  0
 11  6  1  0  0  0
 28 30  1  0  0  0
 14 15  1  0  0  0
 14 16  1  0  0  0
M  END
> <minimizedAffinity>
-8.02850

> <minimizedRMSD>
0.48490

$$$$
P18921


 31 35  0  0  0  0  0  0  0  0999 V2000
   -6.6743    4.3138  -12.7950 C   0  0  0  0  0  0  0  0  0  0  0  0
   -7.6751    3.2353  -12.5543 N   0  0  0  0  0  0  0  0  0  0  0  0
   -7.9982    3.4111  -11.1960 C   0  0  0  0  0  0  0  0  0  0  0  0
   -8.7240    2.5255  -10.4317 C   0  0  0  0  0  0  0  0  0  0  0  0
   -8.8717    2.8531   -9.1031 C   0  0  0  0  0  0  0  0  0  0  0  0
   -8.3877    4.0627   -8.5877 C   0  0  0  0  0  0  0  0  0  0  0  0
   -7.7481    5.0056   -9.3929 C   0  0  0  0  0  0  0  0  0  0  0  0
   -7.5218    4.6323  -10.7067 C   0  0  0  0  0  0  0  0  0  0  0  0
   -6.8531    5.3762  -11.7411 N   0  0  0  0  0  0  0  0  0  0  0  0
   -8.6681    4.0842   -7.1214 C   0  0  0  0  0  0  0  0  0  0  0  0
   -9.0790    2.7063   -6.7537 N   0  0  0  0  0  0  0  0  0  0  0  0
   -9.5070    2.0521   -8.0197 C   0  0  0  0  0  0  0  0  0  0  0  0
   -8.0231    2.5667  -13.1877 H   0  0  0  0  0  0  0  0  0  0  0  0
   -6.5848    6.3233  -11.7563 H   0  0  0  0  0  0  0  0  0  0  0  0
   -9.8529    2.7329   -6.0897 H   0  0  0  0  0  0  0  0  0  0  0  0
   -8.0169    4.8325  -14.9081 C   0  0  0  0  0  0  0  0  0  0  0  0
   -6.8159    4.8104  -14.2779 C   0  0  0  0  0  0  0  0  0  0  0  0
   -5.6487    5.1052  -15.1631 C   0  0  0  0  0  0  0  0  0  0  0  0
   -4.4196    5.5748  -14.6857 C   0  0  0  0  0  0  0  0  0  0  0  0
   -3.3385    5.8020  -15.5497 C   0  0  0  0  0  0  0  0  0  0  0  0
   -3.4664    5.6123  -16.9192 C   0  0  0  0  0  0  0  0  0  0  0  0
   -4.6939    5.2183  -17.4307 C   0  0  0  0  0  0  0  0  0  0  0  0
   -5.7677    4.9776  -16.5587 C   0  0  0  0  0  0  0  0  0  0  0  0
   -7.0678    4.6282  -17.1475 C   0  0  0  0  0  0  0  0  0  0  0  0
   -7.1480    4.3274  -18.3334 O   0  0  0  0  0  0  0  0  0  0  0  0
   -8.1550    4.7036  -16.2855 N   0  0  0  0  0  0  0  0  0  0  0  0
   -9.4210    4.3858  -16.9129 C   0  0  0  0  0  0  0  0  0  0  0  0
   -9.4213    6.3057  -13.8372 C   0  0  0  0  0  0  0  0  0  0  0  0
   -9.1920    4.9371  -14.1843 O   0  0  0  0  0  0  0  0  0  0  0  0
   -5.2938    3.7458  -12.5579 C   0  0  0  0  0  0  0  0  0  0  0  0
   -4.2686    3.2419  -12.3195 N   0  0  0  0  0  0  0  0  0  0  0  0
 28 29  1  0  0  0
 29 16  1  0  0  0
 16 17  2  0  0  0
 17  1  1  0  0  0
  1 30  1  0  0  0
 30 31  3  0  0  0
  1  2  1  0  0  0
  2  3  1  0  0  0
  3  4  2  0  0  0
  4  5  1  0  0  0
  5  6  2  0  0  0
  6  7  1  0  0  0
  7  8  2  0  0  0
  8  9  1  0  0  0
  6 10  1  0  0  0
 10 11  1  0  0  0
 11 12  1  0  0  0
 17 18  1  0  0  0
 18 19  2  0  0  0
 19 20  1  0  0  0
 20 21  2  0  0  0
 21 22  1  0  0  0
 22 23  2  0  0  0
 23 24  1  0  0  0
 24 25  2  0  0  0
 24 26  1  0  0  0
 26 27  1  0  0  0
 26 16  1  0  0  0
  9  1  1  0  0  0
 23 18  1  0  0  0
  8  3  1  0  0  0
 12  5  1  0  0  0
  2 13  1  0  0  0
  9 14  1  0  0  0
 11 15  1  0  0  0
M  END
> <minimizedAffinity>
-8.86834

> <minimizedRMSD>
0.56118

$$$$
P18924


 37 40  0  0  0  0  0  0  0  0999 V2000
   -6.7594    5.0253  -12.9435 C   0  0  0  0  0  0  0  0  0  0  0  0
   -6.9075    4.8431  -14.5067 C   0  0  0  0  0  0  0  0  0  0  0  0
   -8.1740    4.4950  -15.0339 C   0  0  0  0  0  0  0  0  0  0  0  0
   -8.3666    4.3291  -16.3991 C   0  0  0  0  0  0  0  0  0  0  0  0
   -7.3228    4.5037  -17.2857 C   0  0  0  0  0  0  0  0  0  0  0  0
   -7.5414    4.2678  -18.5893 F   0  0  0  0  0  0  0  0  0  0  0  0
   -6.0640    4.8901  -16.8358 C   0  0  0  0  0  0  0  0  0  0  0  0
   -5.0369    5.0666  -17.7786 C   0  0  0  0  0  0  0  0  0  0  0  0
   -3.7576    5.4362  -17.3851 C   0  0  0  0  0  0  0  0  0  0  0  0
   -3.5076    5.6639  -16.0445 C   0  0  0  0  0  0  0  0  0  0  0  0
   -4.5253    5.5082  -15.0960 C   0  0  0  0  0  0  0  0  0  0  0  0
   -5.8321    5.0847  -15.4410 C   0  0  0  0  0  0  0  0  0  0  0  0
   -9.5726    3.8769  -16.8304 O   0  0  0  0  0  0  0  0  0  0  0  0
   -9.8358    4.2988  -18.1578 C   0  0  0  0  0  0  0  0  0  0  0  0
  -11.1381    4.6673  -18.1861 F   0  0  0  0  0  0  0  0  0  0  0  0
   -5.5805    4.0908  -12.3234 C   0  0  0  0  0  0  0  0  0  0  0  0
   -5.6367    2.9284  -12.4397 O   0  0  0  0  0  0  0  0  0  0  0  0
   -4.5296    4.9823  -11.5940 N   0  0  0  0  0  0  0  0  0  0  0  0
   -4.7468    5.9423  -11.5727 H   0  0  0  0  0  0  0  0  0  0  0  0
   -3.2870    4.6275  -10.9432 C   0  0  0  0  0  0  0  0  0  0  0  0
   -2.4028    3.6726  -11.7413 C   0  0  0  0  0  0  0  0  0  0  0  0
   -2.3661    4.0663  -13.0441 F   0  0  0  0  0  0  0  0  0  0  0  0
   -1.1248    3.7581  -11.2854 F   0  0  0  0  0  0  0  0  0  0  0  0
   -6.1889    7.5893  -12.5783 N   0  0  0  0  0  0  0  0  0  0  0  0
   -6.4558    6.4687  -12.7461 C   0  0  0  0  0  0  0  0  0  0  0  0
   -8.0540    4.5915  -12.2979 N   0  0  0  0  0  0  0  0  0  0  0  0
   -8.8267    4.4053  -12.8789 H   0  0  0  0  0  0  0  0  0  0  0  0
   -8.2109    4.4405  -10.9120 C   0  0  0  0  0  0  0  0  0  0  0  0
   -8.1049    5.5019   -9.9934 C   0  0  0  0  0  0  0  0  0  0  0  0
   -8.2527    5.3047   -8.6133 C   0  0  0  0  0  0  0  0  0  0  0  0
   -8.5929    4.0458   -8.1619 C   0  0  0  0  0  0  0  0  0  0  0  0
   -8.7946    3.0092   -9.0557 C   0  0  0  0  0  0  0  0  0  0  0  0
   -8.6055    3.1857  -10.4180 C   0  0  0  0  0  0  0  0  0  0  0  0
   -9.2447    1.7919   -8.3241 C   0  0  0  0  0  0  0  0  0  0  0  0
   -9.2789    2.1579   -6.8819 N   0  0  0  0  0  0  0  0  0  0  0  0
   -8.8573    3.5701   -6.7764 C   0  0  0  0  0  0  0  0  0  0  0  0
   -8.6394    1.5625   -6.3556 H   0  0  0  0  0  0  0  0  0  0  0  0
 24 25  3  0  0  0
  1 25  1  0  0  0
  1 26  1  0  0  0
 26 28  1  0  0  0
 28 29  2  0  0  0
 29 30  1  0  0  0
 30 31  2  0  0  0
 31 32  1  0  0  0
 32 33  2  0  0  0
 32 34  1  0  0  0
 34 35  1  0  0  0
 35 36  1  0  0  0
  1 16  1  0  0  0
 16 17  2  0  0  0
 16 18  1  0  0  0
 18 20  1  0  0  0
 20 21  1  0  0  0
 21 22  1  0  0  0
 21 23  1  0  0  0
  1  2  1  0  0  0
  2  3  2  0  0  0
  3  4  1  0  0  0
  4 13  1  0  0  0
 13 14  1  0  0  0
 14 15  1  0  0  0
  4  5  2  0  0  0
  5  6  1  0  0  0
  5  7  1  0  0  0
  7  8  2  0  0  0
  8  9  1  0  0  0
  9 10  2  0  0  0
 10 11  1  0  0  0
 11 12  2  0  0  0
 33 28  1  0  0  0
 12  2  1  0  0  0
 36 31  1  0  0  0
 12  7  1  0  0  0
 26 27  1  0  0  0
 35 37  1  0  0  0
 18 19  1  0  0  0
M  END
> <minimizedAffinity>
-8.45634

> <minimizedRMSD>
0.79301

$$$$
P18939


 34 39  0  0  0  0  0  0  0  0999 V2000
   -5.1741    5.3418  -17.3666 C   0  0  0  0  0  0  0  0  0  0  0  0
   -4.0571    5.8985  -16.7269 C   0  0  0  0  0  0  0  0  0  0  0  0
   -4.0793    6.1675  -15.3750 C   0  0  0  0  0  0  0  0  0  0  0  0
   -5.1897    5.8198  -14.6230 C   0  0  0  0  0  0  0  0  0  0  0  0
   -6.3092    5.1775  -15.1884 C   0  0  0  0  0  0  0  0  0  0  0  0
   -7.3663    4.6473  -14.3981 C   0  0  0  0  0  0  0  0  0  0  0  0
   -8.5161    4.2485  -15.0842 C   0  0  0  0  0  0  0  0  0  0  0  0
   -8.6436    4.2265  -16.4266 N   0  0  0  0  0  0  0  0  0  0  0  0
   -7.5521    4.5720  -17.1449 C   0  0  0  0  0  0  0  0  0  0  0  0
   -6.3437    5.0366  -16.5993 C   0  0  0  0  0  0  0  0  0  0  0  0
   -7.1984    4.2824  -12.9077 C   0  0  0  0  0  0  0  0  0  0  0  0
   -8.1716    3.2144  -12.5779 N   0  0  0  0  0  0  0  0  0  0  0  0
   -8.3873    3.4275  -11.2014 C   0  0  0  0  0  0  0  0  0  0  0  0
   -8.9530    2.5304  -10.3252 C   0  0  0  0  0  0  0  0  0  0  0  0
   -8.9549    2.9011   -8.9990 C   0  0  0  0  0  0  0  0  0  0  0  0
   -8.4482    4.1397   -8.5810 C   0  0  0  0  0  0  0  0  0  0  0  0
   -7.9846    5.0932   -9.4912 C   0  0  0  0  0  0  0  0  0  0  0  0
   -7.9310    4.6918  -10.8141 C   0  0  0  0  0  0  0  0  0  0  0  0
   -7.4706    5.4316  -11.9696 N   0  0  0  0  0  0  0  0  0  0  0  0
   -8.5092    4.1813   -7.0879 C   0  0  0  0  0  0  0  0  0  0  0  0
   -8.9055    2.8233   -6.6369 N   0  0  0  0  0  0  0  0  0  0  0  0
   -9.4719    2.1365   -7.8280 C   0  0  0  0  0  0  0  0  0  0  0  0
   -8.5657    2.5321  -13.1681 H   0  0  0  0  0  0  0  0  0  0  0  0
   -7.3657    6.4012  -12.1039 H   0  0  0  0  0  0  0  0  0  0  0  0
   -9.6070    2.8870   -5.8991 H   0  0  0  0  0  0  0  0  0  0  0  0
   -5.7972    3.7333  -12.6445 C   0  0  0  0  0  0  0  0  0  0  0  0
   -4.7321    3.3081  -12.4351 N   0  0  0  0  0  0  0  0  0  0  0  0
   -5.1235    5.0299  -18.8505 C   0  0  0  0  0  0  0  0  0  0  0  0
   -3.7435    5.1175  -19.5256 C   0  0  0  0  0  0  0  0  0  0  0  0
   -4.2328    7.1877  -23.4098 C   0  0  0  0  0  0  0  0  0  0  0  0
   -3.7868    7.4818  -22.0523 N   0  0  0  0  0  0  0  0  0  0  0  0
   -4.7744    6.9798  -21.0633 C   0  0  0  0  0  0  0  0  0  0  0  0
   -3.5794    6.4588  -20.2275 C   0  0  0  0  0  0  0  0  0  0  0  0
   -2.8263    6.4534  -21.5807 C   0  0  0  0  0  0  0  0  0  0  0  0
 30 31  1  0  0  0
 31 32  1  0  0  0
 32 33  1  0  0  0
 33 29  1  0  0  0
 29 28  1  0  0  0
 28  1  1  0  0  0
  1  2  2  0  0  0
  2  3  1  0  0  0
  3  4  2  0  0  0
  4  5  1  0  0  0
  5  6  2  0  0  0
  6 11  1  0  0  0
 11 26  1  0  0  0
 26 27  3  0  0  0
 11 12  1  0  0  0
 12 13  1  0  0  0
 13 14  2  0  0  0
 14 15  1  0  0  0
 15 16  2  0  0  0
 16 17  1  0  0  0
 17 18  2  0  0  0
 18 19  1  0  0  0
 16 20  1  0  0  0
 20 21  1  0  0  0
 21 22  1  0  0  0
  6  7  1  0  0  0
  7  8  2  0  0  0
  8  9  1  0  0  0
  9 10  2  0  0  0
 33 34  1  0  0  0
 34 31  1  0  0  0
 10  1  1  0  0  0
 10  5  1  0  0  0
 19 11  1  0  0  0
 18 13  1  0  0  0
 22 15  1  0  0  0
 12 23  1  0  0  0
 19 24  1  0  0  0
 21 25  1  0  0  0
M  END
> <minimizedAffinity>
-9.01800

> <minimizedRMSD>
0.76745

$$$$
P18951


 38 43  0  0  0  0  0  0  0  0999 V2000
   -7.5260    4.6164  -15.3580 C   0  0  0  0  0  0  0  0  0  0  0  0
   -8.6372    4.2923  -16.1603 C   0  0  0  0  0  0  0  0  0  0  0  0
   -8.6662    4.2043  -17.4973 N   0  0  0  0  0  0  0  0  0  0  0  0
   -7.5252    4.5210  -18.1273 C   0  0  0  0  0  0  0  0  0  0  0  0
   -6.3484    4.9430  -17.4960 C   0  0  0  0  0  0  0  0  0  0  0  0
   -5.2239    5.4108  -18.2362 C   0  0  0  0  0  0  0  0  0  0  0  0
   -4.0550    5.7399  -17.5351 C   0  0  0  0  0  0  0  0  0  0  0  0
   -4.0004    5.6749  -16.1559 C   0  0  0  0  0  0  0  0  0  0  0  0
   -5.1286    5.3081  -15.4332 C   0  0  0  0  0  0  0  0  0  0  0  0
   -6.3349    4.9392  -16.0614 C   0  0  0  0  0  0  0  0  0  0  0  0
   -7.8445    4.8079  -13.8639 C   0  0  0  0  0  0  0  0  0  0  0  0
   -8.2573    3.5003  -13.2934 N   0  0  0  0  0  0  0  0  0  0  0  0
   -8.1437    3.7245  -11.9065 C   0  0  0  0  0  0  0  0  0  0  0  0
   -8.6678    2.9557  -10.8920 C   0  0  0  0  0  0  0  0  0  0  0  0
   -8.4087    3.3900   -9.6073 C   0  0  0  0  0  0  0  0  0  0  0  0
   -7.6206    4.5213   -9.3573 C   0  0  0  0  0  0  0  0  0  0  0  0
   -7.0131    5.2369  -10.3883 C   0  0  0  0  0  0  0  0  0  0  0  0
   -7.3097    4.8207  -11.6717 C   0  0  0  0  0  0  0  0  0  0  0  0
   -6.7608    5.2831  -12.9348 N   0  0  0  0  0  0  0  0  0  0  0  0
   -7.5468    4.7214   -7.8792 C   0  0  0  0  0  0  0  0  0  0  0  0
   -8.5606    3.8191   -7.2852 N   0  0  0  0  0  0  0  0  0  0  0  0
   -8.8373    2.7789   -8.3133 C   0  0  0  0  0  0  0  0  0  0  0  0
   -8.5390    2.6833  -13.7649 H   0  0  0  0  0  0  0  0  0  0  0  0
   -5.9246    5.7660  -13.1267 H   0  0  0  0  0  0  0  0  0  0  0  0
   -9.4119    4.3372   -7.0674 H   0  0  0  0  0  0  0  0  0  0  0  0
   -9.8600    6.5643  -13.8115 N   0  0  0  0  0  0  0  0  0  0  0  0
   -8.9567    5.8316  -13.8459 C   0  0  0  0  0  0  0  0  0  0  0  0
   -5.2426    5.4444  -19.6636 N   0  0  0  0  0  0  0  0  0  0  0  0
   -4.9985    4.6375  -20.1720 H   0  0  0  0  0  0  0  0  0  0  0  0
   -5.6089    6.6278  -20.3593 N   0  0  0  0  0  0  0  0  0  0  0  0
   -5.7858    7.3694  -19.6818 H   0  0  0  0  0  0  0  0  0  0  0  0
   -4.5353    7.0678  -21.2878 C   0  0  0  0  0  0  0  0  0  0  0  0
   -5.0605    7.0850  -22.7323 C   0  0  0  0  0  0  0  0  0  0  0  0
   -3.9672    7.5017  -23.7128 C   0  0  0  0  0  0  0  0  0  0  0  0
   -2.7939    6.6239  -23.6098 N   0  0  0  0  0  0  0  0  0  0  0  0
   -2.2376    6.7005  -22.2475 C   0  0  0  0  0  0  0  0  0  0  0  0
   -3.2260    6.2842  -21.1927 C   0  0  0  0  0  0  0  0  0  0  0  0
   -2.0871    6.9215  -24.2824 H   0  0  0  0  0  0  0  0  0  0  0  0
 26 27  3  0  0  0
 27 11  1  0  0  0
 11  1  1  0  0  0
  1  2  2  0  0  0
  2  3  1  0  0  0
  3  4  2  0  0  0
  4  5  1  0  0  0
  5  6  2  0  0  0
  6 28  1  0  0  0
 28 30  1  0  0  0
 30 32  1  0  0  0
 32 33  1  0  0  0
 33 34  1  0  0  0
 34 35  1  0  0  0
 35 36  1  0  0  0
 36 37  1  0  0  0
  6  7  1  0  0  0
  7  8  2  0  0  0
  8  9  1  0  0  0
  9 10  2  0  0  0
 11 12  1  0  0  0
 12 13  1  0  0  0
 13 14  2  0  0  0
 14 15  1  0  0  0
 15 16  2  0  0  0
 16 17  1  0  0  0
 17 18  2  0  0  0
 18 19  1  0  0  0
 16 20  1  0  0  0
 20 21  1  0  0  0
 21 22  1  0  0  0
 19 11  1  0  0  0
 10  1  1  0  0  0
 18 13  1  0  0  0
 10  5  1  0  0  0
 22 15  1  0  0  0
 37 32  1  0  0  0
 28 29  1  0  0  0
 30 31  1  0  0  0
 35 38  1  0  0  0
 12 23  1  0  0  0
 19 24  1  0  0  0
 21 25  1  0  0  0
M  END
> <minimizedAffinity>
-9.28849

> <minimizedRMSD>
1.11069

$$$$
P19043


 30 34  0  0  0  0  0  0  0  0999 V2000
   -7.9954    4.6153  -12.6413 N   0  0  0  0  0  0  0  0  0  0  0  0
   -7.5971    3.5489  -13.6808 C   0  0  0  0  0  0  0  0  0  0  0  0
   -7.3977    2.4074  -13.5542 O   0  0  0  0  0  0  0  0  0  0  0  0
   -8.1813    5.5067  -13.0158 H   0  0  0  0  0  0  0  0  0  0  0  0
   -7.5811    4.1405  -15.0311 C   0  0  0  0  0  0  0  0  0  0  0  0
   -8.7738    4.1637  -15.7488 C   0  0  0  0  0  0  0  0  0  0  0  0
   -8.7269    4.5589  -17.0718 C   0  0  0  0  0  0  0  0  0  0  0  0
  -10.1385    4.5317  -18.0392 Cl  0  0  0  0  0  0  0  0  0  0  0  0
   -7.6111    4.9727  -17.7039 N   0  0  0  0  0  0  0  0  0  0  0  0
   -6.4836    4.9558  -16.9677 C   0  0  0  0  0  0  0  0  0  0  0  0
   -6.4154    4.5573  -15.6398 C   0  0  0  0  0  0  0  0  0  0  0  0
   -5.0259    4.6592  -15.1122 C   0  0  0  0  0  0  0  0  0  0  0  0
   -4.2025    4.7010  -16.4102 C   0  0  0  0  0  0  0  0  0  0  0  0
   -5.1044    5.3192  -17.5011 C   0  0  0  0  0  0  0  0  0  0  0  0
   -4.7869    4.7455  -18.8136 N   0  0  0  0  0  0  0  0  0  0  0  0
   -5.2183    5.7138  -19.8259 C   0  0  0  0  0  0  0  0  0  0  0  0
   -4.6784    7.0761  -19.4206 C   0  0  0  0  0  0  0  0  0  0  0  0
   -4.8871    7.1278  -17.6239 S   0  0  0  0  0  0  0  0  0  0  0  0
   -5.2841    3.8638  -18.9391 H   0  0  0  0  0  0  0  0  0  0  0  0
   -7.4664    6.9709  -11.0043 C   0  0  0  0  0  0  0  0  0  0  0  0
   -7.8947    5.6483  -10.4339 C   0  0  0  0  0  0  0  0  0  0  0  0
   -8.0478    5.5282   -9.0401 C   0  0  0  0  0  0  0  0  0  0  0  0
   -8.4726    4.3210   -8.5104 C   0  0  0  0  0  0  0  0  0  0  0  0
   -8.7528    3.2405   -9.3309 C   0  0  0  0  0  0  0  0  0  0  0  0
   -8.5663    3.3136  -10.6991 C   0  0  0  0  0  0  0  0  0  0  0  0
   -8.1353    4.5229  -11.2564 C   0  0  0  0  0  0  0  0  0  0  0  0
   -9.2992    2.1173   -8.5183 C   0  0  0  0  0  0  0  0  0  0  0  0
   -9.0975    2.5131   -7.0949 N   0  0  0  0  0  0  0  0  0  0  0  0
   -8.7568    3.9511   -7.0958 C   0  0  0  0  0  0  0  0  0  0  0  0
   -8.3364    1.9722   -6.6844 H   0  0  0  0  0  0  0  0  0  0  0  0
 20 21  1  0  0  0
 21 22  2  0  0  0
 22 23  1  0  0  0
 23 24  2  0  0  0
 24 25  1  0  0  0
 25 26  2  0  0  0
 26  1  1  0  0  0
  1  2  1  0  0  0
  2  3  2  0  0  0
  2  5  1  0  0  0
  5  6  2  0  0  0
  6  7  1  0  0  0
  7  8  1  0  0  0
  7  9  2  0  0  0
  9 10  1  0  0  0
 10 11  2  0  0  0
 11 12  1  0  0  0
 12 13  1  0  0  0
 14 13  1  0  0  0
 14 15  1  0  0  0
 15 16  1  0  0  0
 16 17  1  0  0  0
 17 18  1  0  0  0
 24 27  1  0  0  0
 27 28  1  0  0  0
 28 29  1  0  0  0
 26 21  1  0  0  0
 11  5  1  0  0  0
 18 14  1  0  0  0
 29 23  1  0  0  0
 14 10  1  0  0  0
  1  4  1  0  0  0
 15 19  1  0  0  0
 28 30  1  0  0  0
M  END
> <minimizedAffinity>
-9.19048

> <minimizedRMSD>
0.18997

$$$$
P19047


 29 32  0  0  0  0  0  0  0  0999 V2000
   -7.3965    3.6902  -14.0723 C   0  0  0  0  0  0  0  0  0  0  0  0
   -7.0268    2.5981  -13.8895 O   0  0  0  0  0  0  0  0  0  0  0  0
   -7.8724    4.7708  -13.0681 N   0  0  0  0  0  0  0  0  0  0  0  0
   -8.0633    5.6498  -13.4682 H   0  0  0  0  0  0  0  0  0  0  0  0
   -4.6631    5.0737  -17.3117 C   0  0  0  0  0  0  0  0  0  0  0  0
   -5.1189    4.7095  -16.0922 C   0  0  0  0  0  0  0  0  0  0  0  0
   -6.5332    4.6019  -16.2106 C   0  0  0  0  0  0  0  0  0  0  0  0
   -7.5813    4.2420  -15.4527 C   0  0  0  0  0  0  0  0  0  0  0  0
   -8.9284    4.2203  -16.0340 C   0  0  0  0  0  0  0  0  0  0  0  0
   -9.0983    4.5074  -17.3352 C   0  0  0  0  0  0  0  0  0  0  0  0
  -10.6058    4.3978  -18.1237 Cl  0  0  0  0  0  0  0  0  0  0  0  0
   -8.0647    4.9056  -18.1423 N   0  0  0  0  0  0  0  0  0  0  0  0
   -6.7915    4.9400  -17.6440 C   0  0  0  0  0  0  0  0  0  0  0  0
   -5.6742    5.2332  -18.2551 N   0  0  0  0  0  0  0  0  0  0  0  0
   -8.2377    5.1655  -19.0760 H   0  0  0  0  0  0  0  0  0  0  0  0
   -2.3413    5.8027  -16.7699 C   0  0  0  0  0  0  0  0  0  0  0  0
   -3.3458    5.2632  -17.6579 N   0  0  0  0  0  0  0  0  0  0  0  0
   -3.0690    5.0154  -18.5696 H   0  0  0  0  0  0  0  0  0  0  0  0
   -8.0742    4.7001  -11.6893 C   0  0  0  0  0  0  0  0  0  0  0  0
   -7.9191    5.8666  -10.9204 C   0  0  0  0  0  0  0  0  0  0  0  0
   -8.0598    5.8404   -9.5205 C   0  0  0  0  0  0  0  0  0  0  0  0
   -7.8602    7.0837   -8.7110 C   0  0  0  0  0  0  0  0  0  0  0  0
   -8.4442    4.6389   -8.9355 C   0  0  0  0  0  0  0  0  0  0  0  0
   -8.6552    3.4981   -9.7047 C   0  0  0  0  0  0  0  0  0  0  0  0
   -8.4427    3.5011  -11.0752 C   0  0  0  0  0  0  0  0  0  0  0  0
   -9.1056    2.3754   -8.8265 C   0  0  0  0  0  0  0  0  0  0  0  0
   -9.3670    2.9886   -7.4949 N   0  0  0  0  0  0  0  0  0  0  0  0
   -8.6713    4.2905   -7.5000 C   0  0  0  0  0  0  0  0  0  0  0  0
   -8.9990    2.3935   -6.7527 H   0  0  0  0  0  0  0  0  0  0  0  0
 16 17  1  0  0  0
 17  5  1  0  0  0
  5  6  2  0  0  0
  6  7  1  0  0  0
  7  8  2  0  0  0
  8  1  1  0  0  0
  1  2  2  0  0  0
  1  3  1  0  0  0
  3 19  1  0  0  0
 19 20  2  0  0  0
 20 21  1  0  0  0
 21 22  1  0  0  0
 21 23  2  0  0  0
 23 24  1  0  0  0
 24 25  2  0  0  0
 24 26  1  0  0  0
 26 27  1  0  0  0
 27 28  1  0  0  0
  8  9  1  0  0  0
  9 10  2  0  0  0
 10 11  1  0  0  0
 10 12  1  0  0  0
 12 13  1  0  0  0
 13 14  2  0  0  0
 14  5  1  0  0  0
 13  7  1  0  0  0
 25 19  1  0  0  0
 28 23  1  0  0  0
 17 18  1  0  0  0
  3  4  1  0  0  0
 27 29  1  0  0  0
 12 15  1  0  0  0
M  END
> <minimizedAffinity>
-8.12327

> <minimizedRMSD>
0.40718

$$$$
P19050


 30 34  0  0  0  0  0  0  0  0999 V2000
   -5.9345    5.6306  -18.6378 C   0  0  0  0  0  0  0  0  0  0  0  0
   -7.3797    5.6041  -18.2933 N   0  0  0  0  0  0  0  0  0  0  0  0
   -7.4110    5.4651  -16.8736 N   0  0  0  0  0  0  0  0  0  0  0  0
   -8.6061    4.9249  -16.2093 C   0  0  0  0  0  0  0  0  0  0  0  0
   -9.6034    3.8810  -17.1879 Cl  0  0  0  0  0  0  0  0  0  0  0  0
   -8.2901    4.3621  -14.7695 C   0  0  0  0  0  0  0  0  0  0  0  0
   -6.8196    3.8906  -14.4728 C   0  0  0  0  0  0  0  0  0  0  0  0
   -5.8428    4.7281  -15.2904 C   0  0  0  0  0  0  0  0  0  0  0  0
   -4.3735    4.3966  -15.4943 C   0  0  0  0  0  0  0  0  0  0  0  0
   -4.0962    5.1388  -16.8320 C   0  0  0  0  0  0  0  0  0  0  0  0
   -5.2843    4.8534  -17.6007 N   0  0  0  0  0  0  0  0  0  0  0  0
   -6.3387    4.5457  -16.6806 C   0  0  0  0  0  0  0  0  0  0  0  0
   -7.8421    4.8137  -18.7424 H   0  0  0  0  0  0  0  0  0  0  0  0
   -6.4799    4.0130  -12.9930 C   0  0  0  0  0  0  0  0  0  0  0  0
   -5.4150    3.7951  -12.5596 O   0  0  0  0  0  0  0  0  0  0  0  0
   -7.8132    4.3675  -12.2662 N   0  0  0  0  0  0  0  0  0  0  0  0
   -8.5645    4.5828  -12.8649 H   0  0  0  0  0  0  0  0  0  0  0  0
   -8.1156    4.4294  -10.9000 C   0  0  0  0  0  0  0  0  0  0  0  0
   -8.5461    3.2026  -10.3620 C   0  0  0  0  0  0  0  0  0  0  0  0
   -8.7842    3.0977   -9.0055 C   0  0  0  0  0  0  0  0  0  0  0  0
   -8.6070    4.1814   -8.1675 C   0  0  0  0  0  0  0  0  0  0  0  0
   -8.2219    5.4089   -8.6708 C   0  0  0  0  0  0  0  0  0  0  0  0
   -8.0007    5.5585  -10.0577 C   0  0  0  0  0  0  0  0  0  0  0  0
   -7.6934    6.9496  -10.5276 C   0  0  0  0  0  0  0  0  0  0  0  0
   -8.9596    3.7931   -6.7752 C   0  0  0  0  0  0  0  0  0  0  0  0
   -9.1609    2.3287   -6.7920 N   0  0  0  0  0  0  0  0  0  0  0  0
   -9.2646    1.9276   -8.2213 C   0  0  0  0  0  0  0  0  0  0  0  0
  -10.0183    2.0861   -6.2957 H   0  0  0  0  0  0  0  0  0  0  0  0
   -5.5777    8.1226  -17.9957 C   0  0  0  0  0  0  0  0  0  0  0  0
   -5.3807    7.0077  -19.0084 C   0  0  0  0  0  0  0  0  0  0  0  0
 29 30  1  0  0  0
  1 30  1  0  0  0
  1  2  1  0  0  0
  2  3  1  0  0  0
  3  4  1  0  0  0
  4  5  1  0  0  0
  4  6  1  0  0  0
  6  7  1  0  0  0
  7 14  1  0  0  0
 14 15  2  0  0  0
 14 16  1  0  0  0
 16 18  1  0  0  0
 18 19  2  0  0  0
 19 20  1  0  0  0
 20 21  2  0  0  0
 21 22  1  0  0  0
 22 23  2  0  0  0
 23 24  1  0  0  0
 21 25  1  0  0  0
 25 26  1  0  0  0
 26 27  1  0  0  0
  7  8  1  0  0  0
  8  9  1  0  0  0
  9 10  1  0  0  0
 10 11  1  0  0  0
 12 11  1  0  0  0
 11  1  1  0  0  0
 12  3  1  0  0  0
 23 18  1  0  0  0
 12  8  1  0  0  0
 27 20  1  0  0  0
  2 13  1  0  0  0
 16 17  1  0  0  0
 26 28  1  0  0  0
M  END
> <minimizedAffinity>
-8.22176

> <minimizedRMSD>
1.04320

$$$$
P19051


 29 32  0  0  0  0  0  0  0  0999 V2000
   -2.7321    5.2088  -17.6305 C   0  0  0  0  0  0  0  0  0  0  0  0
   -4.1310    4.9102  -17.2466 C   0  0  0  0  0  0  0  0  0  0  0  0
   -4.6484    4.5374  -16.0173 C   0  0  0  0  0  0  0  0  0  0  0  0
   -6.0600    4.5073  -16.1348 C   0  0  0  0  0  0  0  0  0  0  0  0
   -7.1436    4.3046  -15.2800 C   0  0  0  0  0  0  0  0  0  0  0  0
   -8.4277    4.4606  -15.8054 C   0  0  0  0  0  0  0  0  0  0  0  0
   -9.7205    4.6438  -14.7177 Cl  0  0  0  0  0  0  0  0  0  0  0  0
   -8.5894    4.6061  -17.1760 C   0  0  0  0  0  0  0  0  0  0  0  0
  -10.1354    4.5140  -17.9475 Cl  0  0  0  0  0  0  0  0  0  0  0  0
   -7.5815    4.7972  -18.0479 N   0  0  0  0  0  0  0  0  0  0  0  0
   -6.3617    4.7719  -17.4704 C   0  0  0  0  0  0  0  0  0  0  0  0
   -5.1788    4.9962  -18.1279 N   0  0  0  0  0  0  0  0  0  0  0  0
   -5.0787    5.3342  -19.5053 N   0  0  0  0  0  0  0  0  0  0  0  0
   -6.0078    5.3250  -19.9260 H   0  0  0  0  0  0  0  0  0  0  0  0
   -4.4839    4.6548  -19.9797 H   0  0  0  0  0  0  0  0  0  0  0  0
   -7.0081    3.7610  -13.9098 C   0  0  0  0  0  0  0  0  0  0  0  0
   -6.7243    2.6342  -13.7949 O   0  0  0  0  0  0  0  0  0  0  0  0
   -7.3812    4.8157  -12.8401 N   0  0  0  0  0  0  0  0  0  0  0  0
   -7.5063    5.7284  -13.1873 H   0  0  0  0  0  0  0  0  0  0  0  0
   -7.5687    4.6836  -11.4659 C   0  0  0  0  0  0  0  0  0  0  0  0
   -7.3105    5.7909  -10.6412 C   0  0  0  0  0  0  0  0  0  0  0  0
   -7.5755    5.7367   -9.2684 C   0  0  0  0  0  0  0  0  0  0  0  0
   -8.1691    4.5954   -8.7599 C   0  0  0  0  0  0  0  0  0  0  0  0
   -8.4895    3.5250   -9.5862 C   0  0  0  0  0  0  0  0  0  0  0  0
   -8.1590    3.5319  -10.9341 C   0  0  0  0  0  0  0  0  0  0  0  0
   -9.2139    2.4860   -8.7927 C   0  0  0  0  0  0  0  0  0  0  0  0
   -9.4447    3.0884   -7.4482 N   0  0  0  0  0  0  0  0  0  0  0  0
   -8.5517    4.2589   -7.3590 C   0  0  0  0  0  0  0  0  0  0  0  0
   -9.2183    2.4151   -6.7162 H   0  0  0  0  0  0  0  0  0  0  0  0
  1  2  1  0  0  0
  2  3  2  0  0  0
  3  4  1  0  0  0
  4  5  2  0  0  0
  5 16  1  0  0  0
 16 17  2  0  0  0
 16 18  1  0  0  0
 18 20  1  0  0  0
 20 21  2  0  0  0
 21 22  1  0  0  0
 22 23  2  0  0  0
 23 24  1  0  0  0
 24 25  2  0  0  0
 24 26  1  0  0  0
 26 27  1  0  0  0
 27 28  1  0  0  0
  5  6  1  0  0  0
  6  7  1  0  0  0
  6  8  2  0  0  0
  8  9  1  0  0  0
  8 10  1  0  0  0
 10 11  2  0  0  0
 11 12  1  0  0  0
 12 13  1  0  0  0
 12  2  1  0  0  0
 11  4  1  0  0  0
 25 20  1  0  0  0
 28 23  1  0  0  0
 18 19  1  0  0  0
 27 29  1  0  0  0
 13 14  1  0  0  0
 13 15  1  0  0  0
M  END
> <minimizedAffinity>
-7.21889

> <minimizedRMSD>
0.47862

$$$$
P19054


 32 35  0  0  0  0  0  0  0  0999 V2000
   -6.9486    3.8494  -13.0289 C   0  0  0  0  0  0  0  0  0  0  0  0
   -6.9046    4.1942  -14.5116 C   0  0  0  0  0  0  0  0  0  0  0  0
   -8.1525    4.2121  -15.3036 C   0  0  0  0  0  0  0  0  0  0  0  0
   -8.1427    4.5053  -16.6195 C   0  0  0  0  0  0  0  0  0  0  0  0
   -9.6170    4.5693  -17.5203 Cl  0  0  0  0  0  0  0  0  0  0  0  0
   -6.9740    4.8444  -17.2830 N   0  0  0  0  0  0  0  0  0  0  0  0
   -6.9045    4.4946  -18.9537 Cl  0  0  0  0  0  0  0  0  0  0  0  0
   -5.7723    4.8145  -16.6081 C   0  0  0  0  0  0  0  0  0  0  0  0
   -4.5433    5.0403  -17.0253 N   0  0  0  0  0  0  0  0  0  0  0  0
   -3.7368    4.8698  -15.9130 C   0  0  0  0  0  0  0  0  0  0  0  0
   -4.3799    4.5562  -14.7796 C   0  0  0  0  0  0  0  0  0  0  0  0
   -5.7558    4.4910  -15.1442 C   0  0  0  0  0  0  0  0  0  0  0  0
   -6.3719    2.4343  -12.7704 C   0  0  0  0  0  0  0  0  0  0  0  0
   -6.6799    1.4272  -13.4171 O   0  0  0  0  0  0  0  0  0  0  0  0
   -5.3227    2.3196  -11.6707 C   0  0  0  0  0  0  0  0  0  0  0  0
   -1.8831    1.0778  -12.9253 C   0  0  0  0  0  0  0  0  0  0  0  0
   -2.6994    2.2081  -12.3445 C   0  0  0  0  0  0  0  0  0  0  0  0
   -2.2481    3.2550  -12.1021 O   0  0  0  0  0  0  0  0  0  0  0  0
   -4.1474    1.6884  -12.2147 N   0  0  0  0  0  0  0  0  0  0  0  0
   -4.2910    0.7776  -12.5598 H   0  0  0  0  0  0  0  0  0  0  0  0
   -8.3345    4.0484  -12.5424 N   0  0  0  0  0  0  0  0  0  0  0  0
   -9.1069    4.1197  -13.1486 H   0  0  0  0  0  0  0  0  0  0  0  0
   -8.4550    4.1268  -11.1421 C   0  0  0  0  0  0  0  0  0  0  0  0
   -8.0736    5.2973  -10.4573 C   0  0  0  0  0  0  0  0  0  0  0  0
   -8.1408    5.3710   -9.0625 C   0  0  0  0  0  0  0  0  0  0  0  0
   -8.5793    4.2576   -8.3703 C   0  0  0  0  0  0  0  0  0  0  0  0
   -8.9214    3.0869   -9.0363 C   0  0  0  0  0  0  0  0  0  0  0  0
   -8.8709    3.0058  -10.4154 C   0  0  0  0  0  0  0  0  0  0  0  0
   -9.3004    2.0434   -8.0405 C   0  0  0  0  0  0  0  0  0  0  0  0
   -9.5155    2.7837   -6.7700 N   0  0  0  0  0  0  0  0  0  0  0  0
   -8.7732    4.0550   -6.9054 C   0  0  0  0  0  0  0  0  0  0  0  0
   -9.1555    2.2459   -5.9816 H   0  0  0  0  0  0  0  0  0  0  0  0
 16 17  1  0  0  0
 17 18  2  0  0  0
 17 19  1  0  0  0
 19 15  1  0  0  0
 15 13  1  0  0  0
 13 14  2  0  0  0
 13  1  1  0  0  0
  1 21  1  0  0  0
 21 23  1  0  0  0
 23 24  2  0  0  0
 24 25  1  0  0  0
 25 26  2  0  0  0
 26 27  1  0  0  0
 27 28  2  0  0  0
 27 29  1  0  0  0
 29 30  1  0  0  0
 30 31  1  0  0  0
  1  2  1  0  0  0
  2  3  1  0  0  0
  3  4  2  0  0  0
  4  5  1  0  0  0
  4  6  1  0  0  0
  6  7  1  0  0  0
  6  8  1  0  0  0
  8  9  2  0  0  0
  9 10  1  0  0  0
 10 11  2  0  0  0
 11 12  1  0  0  0
 28 23  1  0  0  0
 12  2  2  0  0  0
 31 26  1  0  0  0
 12  8  1  0  0  0
 19 20  1  0  0  0
 21 22  1  0  0  0
 30 32  1  0  0  0
M  END
> <minimizedAffinity>
-8.09523

> <minimizedRMSD>
0.50889

$$$$
P19057


 28 31  0  0  0  0  0  0  0  0999 V2000
   -2.9644    5.8421  -16.2734 C   0  0  0  0  0  0  0  0  0  0  0  0
   -4.3615    5.3396  -16.3656 C   0  0  0  0  0  0  0  0  0  0  0  0
   -5.1777    4.8661  -15.3570 C   0  0  0  0  0  0  0  0  0  0  0  0
   -6.4592    4.6180  -15.9104 C   0  0  0  0  0  0  0  0  0  0  0  0
   -7.7048    4.1975  -15.4254 C   0  0  0  0  0  0  0  0  0  0  0  0
   -8.7903    4.1463  -16.2937 C   0  0  0  0  0  0  0  0  0  0  0  0
   -8.5671    4.4681  -17.6178 C   0  0  0  0  0  0  0  0  0  0  0  0
   -9.8614    4.3705  -18.7421 Cl  0  0  0  0  0  0  0  0  0  0  0  0
   -7.3917    4.8599  -18.1558 N   0  0  0  0  0  0  0  0  0  0  0  0
   -6.3852    4.9157  -17.2639 C   0  0  0  0  0  0  0  0  0  0  0  0
   -5.0861    5.2608  -17.5424 N   0  0  0  0  0  0  0  0  0  0  0  0
   -4.5942    5.4835  -18.8891 C   0  0  0  0  0  0  0  0  0  0  0  0
   -3.6887    4.4373  -19.2242 O   0  0  0  0  0  0  0  0  0  0  0  0
   -2.9501    4.4352  -18.5954 H   0  0  0  0  0  0  0  0  0  0  0  0
   -7.8253    3.8193  -14.0151 C   0  0  0  0  0  0  0  0  0  0  0  0
   -7.2361    2.8361  -13.5887 O   0  0  0  0  0  0  0  0  0  0  0  0
   -8.5959    4.7433  -13.0926 C   0  0  0  0  0  0  0  0  0  0  0  0
   -9.2897    5.6374  -13.5685 O   0  0  0  0  0  0  0  0  0  0  0  0
   -8.4102    4.6315  -11.6357 C   0  0  0  0  0  0  0  0  0  0  0  0
   -7.9695    5.7748  -10.9391 C   0  0  0  0  0  0  0  0  0  0  0  0
   -7.8377    5.7478   -9.5498 C   0  0  0  0  0  0  0  0  0  0  0  0
   -8.1943    4.5863   -8.8876 C   0  0  0  0  0  0  0  0  0  0  0  0
   -8.6300    3.4578   -9.5805 C   0  0  0  0  0  0  0  0  0  0  0  0
   -8.7251    3.4497  -10.9611 C   0  0  0  0  0  0  0  0  0  0  0  0
   -8.9552    2.3772   -8.6016 C   0  0  0  0  0  0  0  0  0  0  0  0
   -9.0151    3.0583   -7.2799 N   0  0  0  0  0  0  0  0  0  0  0  0
   -8.2197    4.2945   -7.4245 C   0  0  0  0  0  0  0  0  0  0  0  0
   -8.6154    2.4620   -6.5552 H   0  0  0  0  0  0  0  0  0  0  0  0
  1  2  1  0  0  0
  2  3  2  0  0  0
  3  4  1  0  0  0
  4  5  2  0  0  0
  5 15  1  0  0  0
 15 16  2  0  0  0
 15 17  1  0  0  0
 17 18  2  0  0  0
 17 19  1  0  0  0
 19 20  2  0  0  0
 20 21  1  0  0  0
 21 22  2  0  0  0
 22 23  1  0  0  0
 23 24  2  0  0  0
 23 25  1  0  0  0
 25 26  1  0  0  0
 26 27  1  0  0  0
  5  6  1  0  0  0
  6  7  2  0  0  0
  7  8  1  0  0  0
  7  9  1  0  0  0
  9 10  2  0  0  0
 10 11  1  0  0  0
 11 12  1  0  0  0
 12 13  1  0  0  0
 11  2  1  0  0  0
 10  4  1  0  0  0
 24 19  1  0  0  0
 27 22  1  0  0  0
 26 28  1  0  0  0
 13 14  1  0  0  0
M  END
> <minimizedAffinity>
-8.07347

> <minimizedRMSD>
0.47418

$$$$
P19058


 27 30  0  0  0  0  0  0  0  0999 V2000
   -7.5386    3.6061  -13.8412 C   0  0  0  0  0  0  0  0  0  0  0  0
   -7.3234    2.4696  -13.6934 O   0  0  0  0  0  0  0  0  0  0  0  0
   -7.8503    4.7077  -12.8072 N   0  0  0  0  0  0  0  0  0  0  0  0
   -7.9199    5.6159  -13.1808 H   0  0  0  0  0  0  0  0  0  0  0  0
   -5.2629    5.3726  -19.2248 N   0  0  0  0  0  0  0  0  0  0  0  0
   -5.4728    5.0627  -17.8544 N   0  0  0  0  0  0  0  0  0  0  0  0
   -4.4845    4.9373  -16.9201 C   0  0  0  0  0  0  0  0  0  0  0  0
   -5.0761    4.5733  -15.7241 C   0  0  0  0  0  0  0  0  0  0  0  0
   -6.4808    4.4946  -15.9438 C   0  0  0  0  0  0  0  0  0  0  0  0
   -7.6249    4.1469  -15.2084 C   0  0  0  0  0  0  0  0  0  0  0  0
   -8.8729    4.1789  -15.8296 C   0  0  0  0  0  0  0  0  0  0  0  0
   -8.9226    4.5074  -17.1681 C   0  0  0  0  0  0  0  0  0  0  0  0
  -10.4137    4.4454  -18.0149 Cl  0  0  0  0  0  0  0  0  0  0  0  0
   -7.8741    4.8636  -17.9325 N   0  0  0  0  0  0  0  0  0  0  0  0
   -6.6950    4.8239  -17.2806 C   0  0  0  0  0  0  0  0  0  0  0  0
   -4.2658    5.5044  -19.3948 H   0  0  0  0  0  0  0  0  0  0  0  0
   -5.7641    6.2292  -19.4603 H   0  0  0  0  0  0  0  0  0  0  0  0
   -8.0491    4.6266  -11.4319 C   0  0  0  0  0  0  0  0  0  0  0  0
   -7.8209    5.7673  -10.6450 C   0  0  0  0  0  0  0  0  0  0  0  0
   -7.9811    5.7174   -9.2556 C   0  0  0  0  0  0  0  0  0  0  0  0
   -8.4064    4.5301   -8.6853 C   0  0  0  0  0  0  0  0  0  0  0  0
   -8.6856    3.4197   -9.4705 C   0  0  0  0  0  0  0  0  0  0  0  0
   -8.4925    3.4411  -10.8418 C   0  0  0  0  0  0  0  0  0  0  0  0
   -9.2224    2.3224   -8.6158 C   0  0  0  0  0  0  0  0  0  0  0  0
   -9.0086    2.7639   -7.2076 N   0  0  0  0  0  0  0  0  0  0  0  0
   -8.6741    4.2026   -7.2569 C   0  0  0  0  0  0  0  0  0  0  0  0
   -8.2412    2.2392   -6.7878 H   0  0  0  0  0  0  0  0  0  0  0  0
  5  6  1  0  0  0
  6  7  1  0  0  0
  7  8  2  0  0  0
  8  9  1  0  0  0
  9 10  2  0  0  0
 10  1  1  0  0  0
  1  2  2  0  0  0
  1  3  1  0  0  0
  3 18  1  0  0  0
 18 19  2  0  0  0
 19 20  1  0  0  0
 20 21  2  0  0  0
 21 22  1  0  0  0
 22 23  2  0  0  0
 22 24  1  0  0  0
 24 25  1  0  0  0
 25 26  1  0  0  0
 10 11  1  0  0  0
 11 12  2  0  0  0
 12 13  1  0  0  0
 12 14  1  0  0  0
 14 15  2  0  0  0
 15  6  1  0  0  0
 15  9  1  0  0  0
 23 18  1  0  0  0
 26 21  1  0  0  0
  5 16  1  0  0  0
  5 17  1  0  0  0
  3  4  1  0  0  0
 25 27  1  0  0  0
M  END
> <minimizedAffinity>
-8.44103

> <minimizedRMSD>
0.22271

$$$$
P19062


 29 32  0  0  0  0  0  0  0  0999 V2000
   -5.2750    4.9964  -17.7305 N   0  0  0  0  0  0  0  0  0  0  0  0
   -4.3577    4.9160  -16.7099 C   0  0  0  0  0  0  0  0  0  0  0  0
   -5.0152    4.5508  -15.5520 C   0  0  0  0  0  0  0  0  0  0  0  0
   -6.3996    4.4734  -15.8504 C   0  0  0  0  0  0  0  0  0  0  0  0
   -7.5784    4.1461  -15.1586 C   0  0  0  0  0  0  0  0  0  0  0  0
   -8.8001    4.2037  -15.8230 C   0  0  0  0  0  0  0  0  0  0  0  0
   -8.7856    4.5210  -17.1652 C   0  0  0  0  0  0  0  0  0  0  0  0
  -10.2565    4.5061  -18.0514 Cl  0  0  0  0  0  0  0  0  0  0  0  0
   -7.6968    4.8247  -17.9012 N   0  0  0  0  0  0  0  0  0  0  0  0
   -6.5387    4.7824  -17.2052 C   0  0  0  0  0  0  0  0  0  0  0  0
   -7.5514    3.5956  -13.7906 C   0  0  0  0  0  0  0  0  0  0  0  0
   -7.3885    2.4496  -13.6488 O   0  0  0  0  0  0  0  0  0  0  0  0
   -7.8279    4.7025  -12.7522 N   0  0  0  0  0  0  0  0  0  0  0  0
   -7.8525    5.6155  -13.1196 H   0  0  0  0  0  0  0  0  0  0  0  0
   -8.0486    4.6202  -11.3791 C   0  0  0  0  0  0  0  0  0  0  0  0
   -7.8287    5.7589  -10.5870 C   0  0  0  0  0  0  0  0  0  0  0  0
   -7.9986    5.7048   -9.1986 C   0  0  0  0  0  0  0  0  0  0  0  0
   -8.4250    4.5153   -8.6334 C   0  0  0  0  0  0  0  0  0  0  0  0
   -8.6994    3.4072   -9.4234 C   0  0  0  0  0  0  0  0  0  0  0  0
   -8.4975    3.4332  -10.7943 C   0  0  0  0  0  0  0  0  0  0  0  0
   -9.2395    2.3071   -8.5736 C   0  0  0  0  0  0  0  0  0  0  0  0
   -9.0340    2.7453   -7.1629 N   0  0  0  0  0  0  0  0  0  0  0  0
   -8.6960    4.1831   -7.2067 C   0  0  0  0  0  0  0  0  0  0  0  0
   -8.2706    2.2179   -6.7393 H   0  0  0  0  0  0  0  0  0  0  0  0
   -5.0318    5.2798  -19.1259 N   0  0  0  0  0  0  0  0  0  0  0  0
   -5.2038    4.4197  -19.6466 H   0  0  0  0  0  0  0  0  0  0  0  0
   -3.8323    6.6277  -20.7492 C   0  0  0  0  0  0  0  0  0  0  0  0
   -3.7009    5.7570  -19.4967 C   0  0  0  0  0  0  0  0  0  0  0  0
   -2.6590    4.6737  -19.7618 C   0  0  0  0  0  0  0  0  0  0  0  0
 27 28  1  0  0  0
 28 29  1  0  0  0
 28 25  1  0  0  0
 25  1  1  0  0  0
  1  2  1  0  0  0
  2  3  2  0  0  0
  3  4  1  0  0  0
  4  5  2  0  0  0
  5 11  1  0  0  0
 11 12  2  0  0  0
 11 13  1  0  0  0
 13 15  1  0  0  0
 15 16  2  0  0  0
 16 17  1  0  0  0
 17 18  2  0  0  0
 18 19  1  0  0  0
 19 20  2  0  0  0
 19 21  1  0  0  0
 21 22  1  0  0  0
 22 23  1  0  0  0
  5  6  1  0  0  0
  6  7  2  0  0  0
  7  8  1  0  0  0
  7  9  1  0  0  0
  9 10  2  0  0  0
 10  1  1  0  0  0
 10  4  1  0  0  0
 20 15  1  0  0  0
 23 18  1  0  0  0
 25 26  1  0  0  0
 13 14  1  0  0  0
 22 24  1  0  0  0
M  END
> <minimizedAffinity>
-8.41231

> <minimizedRMSD>
0.26178

$$$$
P19065


 33 36  0  0  0  0  0  0  0  0999 V2000
   -7.3053    4.2816  -13.7660 C   0  0  0  0  0  0  0  0  0  0  0  0
   -6.6141    5.4740  -13.4038 O   0  0  0  0  0  0  0  0  0  0  0  0
   -6.4561    5.4780  -12.4467 H   0  0  0  0  0  0  0  0  0  0  0  0
   -7.4927    4.3931  -15.2790 C   0  0  0  0  0  0  0  0  0  0  0  0
   -8.7572    4.2873  -15.9036 C   0  0  0  0  0  0  0  0  0  0  0  0
   -8.8715    4.3982  -17.2838 C   0  0  0  0  0  0  0  0  0  0  0  0
  -10.4022    4.2594  -18.0489 Cl  0  0  0  0  0  0  0  0  0  0  0  0
   -7.8639    4.6275  -18.1385 N   0  0  0  0  0  0  0  0  0  0  0  0
   -6.6741    4.7007  -17.5309 C   0  0  0  0  0  0  0  0  0  0  0  0
   -5.4959    4.8691  -18.2020 N   0  0  0  0  0  0  0  0  0  0  0  0
   -4.4590    4.9162  -17.3071 C   0  0  0  0  0  0  0  0  0  0  0  0
   -4.9899    4.7536  -16.0443 C   0  0  0  0  0  0  0  0  0  0  0  0
   -6.4044    4.6031  -16.1703 C   0  0  0  0  0  0  0  0  0  0  0  0
   -5.4056    4.9450  -19.1794 H   0  0  0  0  0  0  0  0  0  0  0  0
   -5.1166    3.4321  -12.8622 N   0  0  0  0  0  0  0  0  0  0  0  0
   -6.4945    2.9410  -13.4097 C   0  0  0  0  0  0  0  0  0  0  0  0
   -6.9001    1.8545  -13.5803 O   0  0  0  0  0  0  0  0  0  0  0  0
   -4.9875    4.4078  -12.8857 H   0  0  0  0  0  0  0  0  0  0  0  0
   -4.4263    1.8202  -11.1507 C   0  0  0  0  0  0  0  0  0  0  0  0
   -4.0034    2.6883  -12.3280 C   0  0  0  0  0  0  0  0  0  0  0  0
   -3.3597    1.8712  -13.4396 C   0  0  0  0  0  0  0  0  0  0  0  0
   -8.5980    4.3043  -13.0462 N   0  0  0  0  0  0  0  0  0  0  0  0
   -9.4637    4.2774  -13.5143 H   0  0  0  0  0  0  0  0  0  0  0  0
   -8.4988    4.3677  -11.6278 C   0  0  0  0  0  0  0  0  0  0  0  0
   -8.1240    5.5601  -10.9746 C   0  0  0  0  0  0  0  0  0  0  0  0
   -8.0311    5.6330   -9.5802 C   0  0  0  0  0  0  0  0  0  0  0  0
   -8.3288    4.5023   -8.8456 C   0  0  0  0  0  0  0  0  0  0  0  0
   -8.7008    3.3225   -9.4728 C   0  0  0  0  0  0  0  0  0  0  0  0
   -8.7780    3.2328  -10.8536 C   0  0  0  0  0  0  0  0  0  0  0  0
   -9.0365    2.2946   -8.4477 C   0  0  0  0  0  0  0  0  0  0  0  0
   -8.6538    2.8849   -7.1345 N   0  0  0  0  0  0  0  0  0  0  0  0
   -8.3925    4.3200   -7.3699 C   0  0  0  0  0  0  0  0  0  0  0  0
   -7.8143    2.4295   -6.7763 H   0  0  0  0  0  0  0  0  0  0  0  0
 19 20  1  0  0  0
 20 21  1  0  0  0
 20 15  1  0  0  0
 15 16  1  0  0  0
 16 17  2  0  0  0
 16  1  1  0  0  0
  1  2  1  0  0  0
  1 22  1  0  0  0
 22 24  1  0  0  0
 24 25  2  0  0  0
 25 26  1  0  0  0
 26 27  2  0  0  0
 27 28  1  0  0  0
 28 29  2  0  0  0
 28 30  1  0  0  0
 30 31  1  0  0  0
 31 32  1  0  0  0
  1  4  1  0  0  0
  4  5  2  0  0  0
  5  6  1  0  0  0
  6  7  1  0  0  0
  6  8  2  0  0  0
  8  9  1  0  0  0
  9 10  1  0  0  0
 10 11  1  0  0  0
 11 12  2  0  0  0
 12 13  1  0  0  0
 29 24  1  0  0  0
 13  4  1  0  0  0
 32 27  1  0  0  0
 13  9  2  0  0  0
 15 18  1  0  0  0
  2  3  1  0  0  0
 22 23  1  0  0  0
 31 33  1  0  0  0
 10 14  1  0  0  0
M  END
> <minimizedAffinity>
-8.85035

> <minimizedRMSD>
0.30557

$$$$
P19067


 29 33  0  0  0  0  0  0  0  0999 V2000
   -5.3057    4.7428  -20.1512 O   0  0  0  0  0  0  0  0  0  0  0  0
   -5.6487    4.8634  -18.9815 C   0  0  0  0  0  0  0  0  0  0  0  0
   -4.6649    5.2466  -17.8807 C   0  0  0  0  0  0  0  0  0  0  0  0
   -5.2267    6.2135  -16.9111 N   0  0  0  0  0  0  0  0  0  0  0  0
   -4.4273    6.2009  -15.6656 C   0  0  0  0  0  0  0  0  0  0  0  0
   -5.2847    5.5437  -14.5757 C   0  0  0  0  0  0  0  0  0  0  0  0
   -6.3921    4.8611  -15.3533 C   0  0  0  0  0  0  0  0  0  0  0  0
   -7.7332    4.6633  -14.6662 C   0  0  0  0  0  0  0  0  0  0  0  0
   -8.6715    3.9721  -15.6599 C   0  0  0  0  0  0  0  0  0  0  0  0
   -8.8488    4.7472  -16.9496 C   0  0  0  0  0  0  0  0  0  0  0  0
   -9.8583    3.8852  -18.1352 Cl  0  0  0  0  0  0  0  0  0  0  0  0
   -7.5656    5.3461  -17.5855 C   0  0  0  0  0  0  0  0  0  0  0  0
   -6.9205    4.5254  -18.5843 N   0  0  0  0  0  0  0  0  0  0  0  0
   -6.5896    5.8370  -16.5034 C   0  0  0  0  0  0  0  0  0  0  0  0
   -7.3796    3.7447  -18.9703 H   0  0  0  0  0  0  0  0  0  0  0  0
   -7.6704    3.7981  -13.4053 C   0  0  0  0  0  0  0  0  0  0  0  0
   -7.5563    2.6340  -13.4202 O   0  0  0  0  0  0  0  0  0  0  0  0
   -7.8910    4.7771  -12.2098 N   0  0  0  0  0  0  0  0  0  0  0  0
   -7.8787    5.7316  -12.4506 H   0  0  0  0  0  0  0  0  0  0  0  0
   -8.1013    4.5207  -10.8650 C   0  0  0  0  0  0  0  0  0  0  0  0
   -7.9055    5.5772   -9.9597 C   0  0  0  0  0  0  0  0  0  0  0  0
   -8.1338    5.3930   -8.5959 C   0  0  0  0  0  0  0  0  0  0  0  0
   -8.6076    4.1638   -8.1763 C   0  0  0  0  0  0  0  0  0  0  0  0
   -8.8435    3.1363   -9.0812 C   0  0  0  0  0  0  0  0  0  0  0  0
   -8.5682    3.2833  -10.4293 C   0  0  0  0  0  0  0  0  0  0  0  0
   -9.4034    1.9550   -8.3662 C   0  0  0  0  0  0  0  0  0  0  0  0
   -9.5932    2.3818   -6.9527 N   0  0  0  0  0  0  0  0  0  0  0  0
   -8.9400    3.6957   -6.8022 C   0  0  0  0  0  0  0  0  0  0  0  0
   -9.1644    1.7041   -6.3224 H   0  0  0  0  0  0  0  0  0  0  0  0
  1  2  2  0  0  0
  2  3  1  0  0  0
  3  4  1  0  0  0
  4  5  1  0  0  0
  5  6  1  0  0  0
  7  6  1  0  0  0
  7  8  1  0  0  0
  8 16  1  0  0  0
 16 17  2  0  0  0
 16 18  1  0  0  0
 18 20  1  0  0  0
 20 21  2  0  0  0
 21 22  1  0  0  0
 22 23  2  0  0  0
 23 24  1  0  0  0
 24 25  2  0  0  0
 24 26  1  0  0  0
 26 27  1  0  0  0
 27 28  1  0  0  0
  8  9  1  0  0  0
  9 10  1  0  0  0
 10 11  1  0  0  0
 10 12  1  0  0  0
 12 13  1  0  0  0
 12 14  1  0  0  0
 13  2  1  0  0  0
 14  4  1  0  0  0
 14  7  1  0  0  0
 25 20  1  0  0  0
 28 23  1  0  0  0
 18 19  1  0  0  0
 27 29  1  0  0  0
 13 15  1  0  0  0
M  END
> <minimizedAffinity>
-8.24663

> <minimizedRMSD>
0.26545

$$$$
P19068


 26 30  0  0  0  0  0  0  0  0999 V2000
   -7.4076    2.1659  -13.1190 O   0  0  0  0  0  0  0  0  0  0  0  0
   -7.4917    3.3237  -13.2388 C   0  0  0  0  0  0  0  0  0  0  0  0
   -7.7325    4.4264  -12.1812 N   0  0  0  0  0  0  0  0  0  0  0  0
   -7.6858    5.3468  -12.5274 H   0  0  0  0  0  0  0  0  0  0  0  0
   -7.4778    3.9809  -14.5678 C   0  0  0  0  0  0  0  0  0  0  0  0
   -8.7442    4.0841  -15.2838 C   0  0  0  0  0  0  0  0  0  0  0  0
   -8.7236    4.3358  -16.5980 C   0  0  0  0  0  0  0  0  0  0  0  0
  -10.1007    4.2088  -17.6306 S   0  0  0  0  0  0  0  0  0  0  0  0
   -8.9349    4.2822  -18.9557 C   0  0  0  0  0  0  0  0  0  0  0  0
   -7.6875    4.5051  -18.6575 N   0  0  0  0  0  0  0  0  0  0  0  0
   -7.5524    4.5981  -17.2956 N   0  0  0  0  0  0  0  0  0  0  0  0
   -6.3467    4.6430  -16.6190 C   0  0  0  0  0  0  0  0  0  0  0  0
   -5.1281    4.9124  -17.0327 N   0  0  0  0  0  0  0  0  0  0  0  0
   -4.3115    4.7099  -15.9317 C   0  0  0  0  0  0  0  0  0  0  0  0
   -4.9400    4.3314  -14.8086 C   0  0  0  0  0  0  0  0  0  0  0  0
   -6.3191    4.3022  -15.1572 C   0  0  0  0  0  0  0  0  0  0  0  0
   -8.0034    4.3291  -10.8241 C   0  0  0  0  0  0  0  0  0  0  0  0
   -7.7567    5.4345   -9.9953 C   0  0  0  0  0  0  0  0  0  0  0  0
   -8.0026    5.3546   -8.6209 C   0  0  0  0  0  0  0  0  0  0  0  0
   -8.5472    4.1847   -8.1196 C   0  0  0  0  0  0  0  0  0  0  0  0
   -8.8381    3.1127   -8.9539 C   0  0  0  0  0  0  0  0  0  0  0  0
   -8.5467    3.1554  -10.3028 C   0  0  0  0  0  0  0  0  0  0  0  0
   -9.4529    2.0085   -8.1624 C   0  0  0  0  0  0  0  0  0  0  0  0
   -9.7458    2.6009   -6.8279 N   0  0  0  0  0  0  0  0  0  0  0  0
   -8.9008    3.8087   -6.7210 C   0  0  0  0  0  0  0  0  0  0  0  0
   -9.5122    1.9389   -6.0879 H   0  0  0  0  0  0  0  0  0  0  0  0
  1  2  2  0  0  0
  2  3  1  0  0  0
  3 17  1  0  0  0
 17 18  2  0  0  0
 18 19  1  0  0  0
 19 20  2  0  0  0
 20 21  1  0  0  0
 21 22  2  0  0  0
 21 23  1  0  0  0
 23 24  1  0  0  0
 24 25  1  0  0  0
  2  5  1  0  0  0
  5  6  1  0  0  0
  6  7  2  0  0  0
  7  8  1  0  0  0
  8  9  1  0  0  0
  9 10  2  0  0  0
 10 11  1  0  0  0
 11 12  1  0  0  0
 12 13  2  0  0  0
 13 14  1  0  0  0
 14 15  2  0  0  0
 15 16  1  0  0  0
 22 17  1  0  0  0
 16  5  2  0  0  0
 25 20  1  0  0  0
 11  7  1  0  0  0
 16 12  1  0  0  0
  3  4  1  0  0  0
 24 26  1  0  0  0
M  END
> <minimizedAffinity>
-7.77027

> <minimizedRMSD>
0.29714

$$$$
P19071


 26 30  0  0  0  0  0  0  0  0999 V2000
   -7.4364    2.1675  -13.1132 O   0  0  0  0  0  0  0  0  0  0  0  0
   -7.5143    3.3279  -13.2017 C   0  0  0  0  0  0  0  0  0  0  0  0
   -7.7458    4.4023  -12.1153 N   0  0  0  0  0  0  0  0  0  0  0  0
   -7.6948    5.3314  -12.4368 H   0  0  0  0  0  0  0  0  0  0  0  0
   -7.5005    4.0223  -14.5090 C   0  0  0  0  0  0  0  0  0  0  0  0
   -8.7784    4.1478  -15.2115 C   0  0  0  0  0  0  0  0  0  0  0  0
   -8.7438    4.4290  -16.5168 C   0  0  0  0  0  0  0  0  0  0  0  0
   -9.8658    4.3095  -17.4666 C   0  0  0  0  0  0  0  0  0  0  0  0
   -9.5518    4.2602  -18.7223 N   0  0  0  0  0  0  0  0  0  0  0  0
   -7.8547    4.4364  -18.7869 S   0  0  0  0  0  0  0  0  0  0  0  0
   -7.5826    4.7228  -17.1932 N   0  0  0  0  0  0  0  0  0  0  0  0
   -6.3681    4.6992  -16.5574 C   0  0  0  0  0  0  0  0  0  0  0  0
   -5.1484    4.9330  -16.9857 N   0  0  0  0  0  0  0  0  0  0  0  0
   -4.3261    4.6920  -15.8948 C   0  0  0  0  0  0  0  0  0  0  0  0
   -4.9535    4.3167  -14.7694 C   0  0  0  0  0  0  0  0  0  0  0  0
   -6.3369    4.3284  -15.1020 C   0  0  0  0  0  0  0  0  0  0  0  0
   -8.0133    4.2706  -10.7628 C   0  0  0  0  0  0  0  0  0  0  0  0
   -7.8166    5.3700   -9.9146 C   0  0  0  0  0  0  0  0  0  0  0  0
   -8.0684    5.2547   -8.5447 C   0  0  0  0  0  0  0  0  0  0  0  0
   -8.5574    4.0509   -8.0664 C   0  0  0  0  0  0  0  0  0  0  0  0
   -8.8056    2.9877   -8.9227 C   0  0  0  0  0  0  0  0  0  0  0  0
   -8.5171    3.0685  -10.2695 C   0  0  0  0  0  0  0  0  0  0  0  0
   -9.4232    1.8610   -8.1723 C   0  0  0  0  0  0  0  0  0  0  0  0
   -9.3147    2.2284   -6.7337 N   0  0  0  0  0  0  0  0  0  0  0  0
   -8.9341    3.6566   -6.6804 C   0  0  0  0  0  0  0  0  0  0  0  0
   -8.6013    1.6584   -6.2793 H   0  0  0  0  0  0  0  0  0  0  0  0
  1  2  2  0  0  0
  2  3  1  0  0  0
  3 17  1  0  0  0
 17 18  2  0  0  0
 18 19  1  0  0  0
 19 20  2  0  0  0
 20 21  1  0  0  0
 21 22  2  0  0  0
 21 23  1  0  0  0
 23 24  1  0  0  0
 24 25  1  0  0  0
  2  5  1  0  0  0
  5  6  1  0  0  0
  6  7  2  0  0  0
  7  8  1  0  0  0
  8  9  2  0  0  0
  9 10  1  0  0  0
 10 11  1  0  0  0
 11 12  1  0  0  0
 12 13  2  0  0  0
 13 14  1  0  0  0
 14 15  2  0  0  0
 15 16  1  0  0  0
 22 17  1  0  0  0
 16  5  2  0  0  0
 25 20  1  0  0  0
 11  7  1  0  0  0
 16 12  1  0  0  0
  3  4  1  0  0  0
 24 26  1  0  0  0
M  END
> <minimizedAffinity>
-7.84925

> <minimizedRMSD>
0.32545

$$$$
P19072


 25 28  0  0  0  0  0  0  0  0999 V2000
   -7.3287    5.2054  -13.7920 C   0  0  0  0  0  0  0  0  0  0  0  0
   -6.6989    6.1635  -13.5655 O   0  0  0  0  0  0  0  0  0  0  0  0
   -8.1447    4.2936  -12.8437 N   0  0  0  0  0  0  0  0  0  0  0  0
   -8.6557    3.5828  -13.2940 H   0  0  0  0  0  0  0  0  0  0  0  0
   -5.3276    4.9066  -19.5473 C   0  0  0  0  0  0  0  0  0  0  0  0
   -5.4288    4.8801  -18.1043 N   0  0  0  0  0  0  0  0  0  0  0  0
   -4.4044    5.0773  -17.2120 C   0  0  0  0  0  0  0  0  0  0  0  0
   -4.9489    5.0916  -15.9425 C   0  0  0  0  0  0  0  0  0  0  0  0
   -6.3495    4.8691  -16.0669 C   0  0  0  0  0  0  0  0  0  0  0  0
   -7.4641    4.8031  -15.2087 C   0  0  0  0  0  0  0  0  0  0  0  0
   -8.7213    4.5423  -15.7561 C   0  0  0  0  0  0  0  0  0  0  0  0
   -8.8133    4.4155  -17.1295 C   0  0  0  0  0  0  0  0  0  0  0  0
  -10.3378    4.2431  -17.8917 Cl  0  0  0  0  0  0  0  0  0  0  0  0
   -7.7967    4.4973  -17.9997 N   0  0  0  0  0  0  0  0  0  0  0  0
   -6.6052    4.7169  -17.4245 C   0  0  0  0  0  0  0  0  0  0  0  0
   -8.2737    4.3154  -11.4554 C   0  0  0  0  0  0  0  0  0  0  0  0
   -7.9982    5.4843  -10.7253 C   0  0  0  0  0  0  0  0  0  0  0  0
   -8.1175    5.5091   -9.3322 C   0  0  0  0  0  0  0  0  0  0  0  0
   -8.4956    4.3468   -8.6894 C   0  0  0  0  0  0  0  0  0  0  0  0
   -8.7710    3.1883   -9.4064 C   0  0  0  0  0  0  0  0  0  0  0  0
   -8.6786    3.1562  -10.7903 C   0  0  0  0  0  0  0  0  0  0  0  0
   -9.1767    2.1099   -8.4596 C   0  0  0  0  0  0  0  0  0  0  0  0
   -8.8796    2.6314   -7.0958 N   0  0  0  0  0  0  0  0  0  0  0  0
   -8.7075    4.0929   -7.2377 C   0  0  0  0  0  0  0  0  0  0  0  0
   -8.0244    2.2087   -6.7348 H   0  0  0  0  0  0  0  0  0  0  0  0
  5  6  1  0  0  0
  6  7  1  0  0  0
  7  8  2  0  0  0
  8  9  1  0  0  0
  9 10  2  0  0  0
 10  1  1  0  0  0
  1  2  2  0  0  0
  1  3  1  0  0  0
  3 16  1  0  0  0
 16 17  2  0  0  0
 17 18  1  0  0  0
 18 19  2  0  0  0
 19 20  1  0  0  0
 20 21  2  0  0  0
 20 22  1  0  0  0
 22 23  1  0  0  0
 23 24  1  0  0  0
 10 11  1  0  0  0
 11 12  2  0  0  0
 12 13  1  0  0  0
 12 14  1  0  0  0
 14 15  2  0  0  0
 15  6  1  0  0  0
 15  9  1  0  0  0
 21 16  1  0  0  0
 24 19  1  0  0  0
  3  4  1  0  0  0
 23 25  1  0  0  0
M  END
> <minimizedAffinity>
-8.11482

> <minimizedRMSD>
0.20520

$$$$
P19073


 30 34  0  0  0  0  0  0  0  0999 V2000
   -7.6773    4.2244  -15.4589 C   0  0  0  0  0  0  0  0  0  0  0  0
   -8.9676    4.1039  -15.9545 C   0  0  0  0  0  0  0  0  0  0  0  0
   -9.1641    4.3761  -17.2949 C   0  0  0  0  0  0  0  0  0  0  0  0
  -10.7087    4.1423  -17.9988 Cl  0  0  0  0  0  0  0  0  0  0  0  0
   -8.2059    4.8212  -18.1371 N   0  0  0  0  0  0  0  0  0  0  0  0
   -6.9960    4.9828  -17.6047 C   0  0  0  0  0  0  0  0  0  0  0  0
   -6.6790    4.6743  -16.2957 C   0  0  0  0  0  0  0  0  0  0  0  0
   -5.2152    4.7829  -16.0828 C   0  0  0  0  0  0  0  0  0  0  0  0
   -4.7873    5.5665  -17.3572 C   0  0  0  0  0  0  0  0  0  0  0  0
   -3.4734    5.0394  -17.9510 C   0  0  0  0  0  0  0  0  0  0  0  0
   -2.2628    5.3547  -17.0709 C   0  0  0  0  0  0  0  0  0  0  0  0
   -2.1382    6.8484  -16.7964 C   0  0  0  0  0  0  0  0  0  0  0  0
   -3.4172    7.4172  -16.1994 C   0  0  0  0  0  0  0  0  0  0  0  0
   -4.6354    7.0779  -17.0562 C   0  0  0  0  0  0  0  0  0  0  0  0
   -5.8746    5.4257  -18.3596 N   0  0  0  0  0  0  0  0  0  0  0  0
   -5.8293    5.5996  -19.3276 H   0  0  0  0  0  0  0  0  0  0  0  0
   -6.8373    2.7812  -13.8979 O   0  0  0  0  0  0  0  0  0  0  0  0
   -7.3978    3.7870  -14.0790 C   0  0  0  0  0  0  0  0  0  0  0  0
   -8.0086    4.7862  -13.0752 N   0  0  0  0  0  0  0  0  0  0  0  0
   -8.3662    5.6097  -13.4792 H   0  0  0  0  0  0  0  0  0  0  0  0
   -8.1365    4.7131  -11.6913 C   0  0  0  0  0  0  0  0  0  0  0  0
   -7.9060    5.8713  -10.9304 C   0  0  0  0  0  0  0  0  0  0  0  0
   -7.9957    5.8352   -9.5348 C   0  0  0  0  0  0  0  0  0  0  0  0
   -8.3547    4.6427   -8.9311 C   0  0  0  0  0  0  0  0  0  0  0  0
   -8.6352    3.5137   -9.6892 C   0  0  0  0  0  0  0  0  0  0  0  0
   -8.5096    3.5221  -11.0676 C   0  0  0  0  0  0  0  0  0  0  0  0
   -9.0969    2.4115   -8.7983 C   0  0  0  0  0  0  0  0  0  0  0  0
   -8.8236    2.8755   -7.4081 N   0  0  0  0  0  0  0  0  0  0  0  0
   -8.5467    4.3250   -7.4885 C   0  0  0  0  0  0  0  0  0  0  0  0
   -8.0152    2.3842   -7.0265 H   0  0  0  0  0  0  0  0  0  0  0  0
 17 18  2  0  0  0
 18 19  1  0  0  0
 19 21  1  0  0  0
 21 22  2  0  0  0
 22 23  1  0  0  0
 23 24  2  0  0  0
 24 25  1  0  0  0
 25 26  2  0  0  0
 25 27  1  0  0  0
 27 28  1  0  0  0
 28 29  1  0  0  0
 18  1  1  0  0  0
  1  2  2  0  0  0
  2  3  1  0  0  0
  3  4  1  0  0  0
  3  5  2  0  0  0
  5  6  1  0  0  0
  6  7  2  0  0  0
  7  8  1  0  0  0
  8  9  1  0  0  0
  9 10  1  0  0  0
 10 11  1  0  0  0
 11 12  1  0  0  0
 12 13  1  0  0  0
 13 14  1  0  0  0
  9 15  1  0  0  0
 26 21  1  0  0  0
  7  1  1  0  0  0
 14  9  1  0  0  0
 29 24  1  0  0  0
 15  6  1  0  0  0
 19 20  1  0  0  0
 28 30  1  0  0  0
 15 16  1  0  0  0
M  END
> <minimizedAffinity>
-8.65326

> <minimizedRMSD>
0.97788

$$$$
P19076


 34 38  0  0  0  0  0  0  0  0999 V2000
   -2.5551    6.5962  -19.1781 C   0  0  0  0  0  0  0  0  0  0  0  0
   -2.3078    5.2657  -18.6164 N   0  0  0  0  0  0  0  0  0  0  0  0
   -3.4968    4.4347  -18.7679 N   0  0  0  0  0  0  0  0  0  0  0  0
   -4.7003    5.2006  -18.4230 C   0  0  0  0  0  0  0  0  0  0  0  0
   -4.9844    5.0875  -16.8683 C   0  0  0  0  0  0  0  0  0  0  0  0
   -6.4478    4.7685  -16.8230 C   0  0  0  0  0  0  0  0  0  0  0  0
   -7.3436    4.5973  -15.7740 C   0  0  0  0  0  0  0  0  0  0  0  0
   -8.6829    4.3430  -16.0785 C   0  0  0  0  0  0  0  0  0  0  0  0
   -9.0392    4.2926  -17.4156 C   0  0  0  0  0  0  0  0  0  0  0  0
  -10.6750    4.0748  -17.8753 Cl  0  0  0  0  0  0  0  0  0  0  0  0
   -8.1884    4.4572  -18.4431 N   0  0  0  0  0  0  0  0  0  0  0  0
   -6.9136    4.6631  -18.1202 C   0  0  0  0  0  0  0  0  0  0  0  0
   -5.9097    4.7691  -19.0846 N   0  0  0  0  0  0  0  0  0  0  0  0
   -4.3388    6.9107  -18.9981 S   0  0  0  0  0  0  0  0  0  0  0  0
   -2.0804    5.3535  -17.6260 H   0  0  0  0  0  0  0  0  0  0  0  0
   -3.4236    3.6266  -18.1500 H   0  0  0  0  0  0  0  0  0  0  0  0
   -6.0086    4.5825  -20.0461 H   0  0  0  0  0  0  0  0  0  0  0  0
   -6.9771    4.8553  -14.3553 C   0  0  0  0  0  0  0  0  0  0  0  0
   -5.9555    5.3870  -14.1495 O   0  0  0  0  0  0  0  0  0  0  0  0
   -8.1121    4.4410  -13.3771 N   0  0  0  0  0  0  0  0  0  0  0  0
   -8.9151    4.0710  -13.8102 H   0  0  0  0  0  0  0  0  0  0  0  0
   -8.1779    4.5084  -11.9809 C   0  0  0  0  0  0  0  0  0  0  0  0
   -7.9530    5.7115  -11.2944 C   0  0  0  0  0  0  0  0  0  0  0  0
   -8.0520    5.7745   -9.8971 C   0  0  0  0  0  0  0  0  0  0  0  0
   -8.3639    4.6194   -9.2039 C   0  0  0  0  0  0  0  0  0  0  0  0
   -8.5754    3.4219   -9.8748 C   0  0  0  0  0  0  0  0  0  0  0  0
   -8.5009    3.3511  -11.2608 C   0  0  0  0  0  0  0  0  0  0  0  0
   -8.8230    2.3407   -8.8724 C   0  0  0  0  0  0  0  0  0  0  0  0
   -9.0687    3.0385   -7.5810 N   0  0  0  0  0  0  0  0  0  0  0  0
   -8.4902    4.3897   -7.7350 C   0  0  0  0  0  0  0  0  0  0  0  0
   -8.6113    2.5417   -6.8166 H   0  0  0  0  0  0  0  0  0  0  0  0
   -1.1593    8.0752  -20.7383 C   0  0  0  0  0  0  0  0  0  0  0  0
   -1.9455    6.7655  -20.6031 C   0  0  0  0  0  0  0  0  0  0  0  0
   -2.9512    6.6454  -21.7534 C   0  0  0  0  0  0  0  0  0  0  0  0
 32 33  1  0  0  0
 33 34  1  0  0  0
  1 33  1  0  0  0
  1  2  1  0  0  0
  2  3  1  0  0  0
  3  4  1  0  0  0
  4  5  1  0  0  0
  5  6  1  0  0  0
  6  7  2  0  0  0
  7 18  1  0  0  0
 18 19  2  0  0  0
 18 20  1  0  0  0
 20 22  1  0  0  0
 22 23  2  0  0  0
 23 24  1  0  0  0
 24 25  2  0  0  0
 25 26  1  0  0  0
 26 27  2  0  0  0
 26 28  1  0  0  0
 28 29  1  0  0  0
 29 30  1  0  0  0
  7  8  1  0  0  0
  8  9  2  0  0  0
  9 10  1  0  0  0
  9 11  1  0  0  0
 11 12  2  0  0  0
 12 13  1  0  0  0
  4 14  1  0  0  0
 14  1  1  0  0  0
 13  4  1  0  0  0
 12  6  1  0  0  0
 27 22  1  0  0  0
 30 25  1  0  0  0
  2 15  1  0  0  0
  3 16  1  0  0  0
 20 21  1  0  0  0
 29 31  1  0  0  0
 13 17  1  0  0  0
M  END
> <minimizedAffinity>
-8.59986

> <minimizedRMSD>
1.03058

$$$$
P19077


 34 37  0  0  0  0  0  0  0  0999 V2000
   -7.2343    4.0344  -13.3617 C   0  0  0  0  0  0  0  0  0  0  0  0
   -6.4734    5.1456  -12.9009 O   0  0  0  0  0  0  0  0  0  0  0  0
   -6.3550    5.0805  -11.9403 H   0  0  0  0  0  0  0  0  0  0  0  0
   -7.3457    4.2571  -14.8685 C   0  0  0  0  0  0  0  0  0  0  0  0
   -8.5841    4.2449  -15.5515 C   0  0  0  0  0  0  0  0  0  0  0  0
   -8.6344    4.4672  -16.9217 C   0  0  0  0  0  0  0  0  0  0  0  0
  -10.1337    4.4360  -17.7569 Cl  0  0  0  0  0  0  0  0  0  0  0  0
   -7.5837    4.7287  -17.7127 N   0  0  0  0  0  0  0  0  0  0  0  0
   -6.4199    4.7143  -17.0527 C   0  0  0  0  0  0  0  0  0  0  0  0
   -5.2091    4.8969  -17.6589 N   0  0  0  0  0  0  0  0  0  0  0  0
   -4.2115    4.8414  -16.7205 C   0  0  0  0  0  0  0  0  0  0  0  0
   -4.8014    4.5943  -15.4982 C   0  0  0  0  0  0  0  0  0  0  0  0
   -6.2132    4.4996  -15.6946 C   0  0  0  0  0  0  0  0  0  0  0  0
   -5.0738    5.0456  -18.6226 H   0  0  0  0  0  0  0  0  0  0  0  0
   -6.9675    1.5802  -13.4051 O   0  0  0  0  0  0  0  0  0  0  0  0
   -6.5474    2.6088  -13.0383 C   0  0  0  0  0  0  0  0  0  0  0  0
   -5.3269    2.9324  -12.1279 N   0  0  0  0  0  0  0  0  0  0  0  0
   -5.2233    3.8845  -11.9000 H   0  0  0  0  0  0  0  0  0  0  0  0
   -4.3193    2.0604  -11.5619 C   0  0  0  0  0  0  0  0  0  0  0  0
   -4.6837    1.4788  -10.1966 C   0  0  0  0  0  0  0  0  0  0  0  0
   -3.6444    0.7061   -9.7681 F   0  0  0  0  0  0  0  0  0  0  0  0
   -5.7577    0.6563  -10.2757 F   0  0  0  0  0  0  0  0  0  0  0  0
   -8.5548    4.1220  -12.6972 N   0  0  0  0  0  0  0  0  0  0  0  0
   -9.3980    4.1527  -13.2044 H   0  0  0  0  0  0  0  0  0  0  0  0
   -8.5210    4.1588  -11.2760 C   0  0  0  0  0  0  0  0  0  0  0  0
   -8.1684    5.3386  -10.5890 C   0  0  0  0  0  0  0  0  0  0  0  0
   -8.1328    5.3877   -9.1907 C   0  0  0  0  0  0  0  0  0  0  0  0
   -8.4628    4.2454   -8.4878 C   0  0  0  0  0  0  0  0  0  0  0  0
   -8.8115    3.0775   -9.1496 C   0  0  0  0  0  0  0  0  0  0  0  0
   -8.8331    3.0120  -10.5335 C   0  0  0  0  0  0  0  0  0  0  0  0
   -9.1950    2.0333   -8.1575 C   0  0  0  0  0  0  0  0  0  0  0  0
   -8.8695    2.6016   -6.8199 N   0  0  0  0  0  0  0  0  0  0  0  0
   -8.5901    4.0384   -7.0190 C   0  0  0  0  0  0  0  0  0  0  0  0
   -8.0497    2.1356   -6.4311 H   0  0  0  0  0  0  0  0  0  0  0  0
 15 16  2  0  0  0
 16 17  1  0  0  0
 17 19  1  0  0  0
 19 20  1  0  0  0
 20 21  1  0  0  0
 20 22  1  0  0  0
 16  1  1  0  0  0
  1  2  1  0  0  0
  1 23  1  0  0  0
 23 25  1  0  0  0
 25 26  2  0  0  0
 26 27  1  0  0  0
 27 28  2  0  0  0
 28 29  1  0  0  0
 29 30  2  0  0  0
 29 31  1  0  0  0
 31 32  1  0  0  0
 32 33  1  0  0  0
  1  4  1  0  0  0
  4  5  2  0  0  0
  5  6  1  0  0  0
  6  7  1  0  0  0
  6  8  2  0  0  0
  8  9  1  0  0  0
  9 10  1  0  0  0
 10 11  1  0  0  0
 11 12  2  0  0  0
 12 13  1  0  0  0
 30 25  1  0  0  0
 13  4  1  0  0  0
 33 28  1  0  0  0
 13  9  2  0  0  0
 17 18  1  0  0  0
  2  3  1  0  0  0
 23 24  1  0  0  0
 32 34  1  0  0  0
 10 14  1  0  0  0
M  END
> <minimizedAffinity>
-8.81532

> <minimizedRMSD>
0.37578

$$$$
P19079


 27 30  0  0  0  0  0  0  0  0999 V2000
   -7.9207    4.7682  -13.1059 N   0  0  0  0  0  0  0  0  0  0  0  0
   -7.3590    3.7162  -14.0940 C   0  0  0  0  0  0  0  0  0  0  0  0
   -6.8896    2.6663  -13.8949 O   0  0  0  0  0  0  0  0  0  0  0  0
   -8.1949    5.6181  -13.5205 H   0  0  0  0  0  0  0  0  0  0  0  0
   -7.5651    4.2439  -15.4736 C   0  0  0  0  0  0  0  0  0  0  0  0
   -8.8976    4.2232  -16.0671 C   0  0  0  0  0  0  0  0  0  0  0  0
   -9.1010    4.4987  -17.3642 C   0  0  0  0  0  0  0  0  0  0  0  0
  -10.6201    4.3885  -18.1253 Cl  0  0  0  0  0  0  0  0  0  0  0  0
   -8.0889    4.8866  -18.2069 N   0  0  0  0  0  0  0  0  0  0  0  0
   -6.8503    4.9174  -17.7438 C   0  0  0  0  0  0  0  0  0  0  0  0
   -5.5197    5.1915  -18.3269 N   0  0  0  0  0  0  0  0  0  0  0  0
   -5.3304    5.5147  -19.5376 O   0  0  0  0  0  0  0  0  0  0  0  0
   -4.5214    5.0458  -17.2547 C   0  0  0  0  0  0  0  0  0  0  0  0
   -5.1092    4.7059  -16.0853 C   0  0  0  0  0  0  0  0  0  0  0  0
   -6.5393    4.6010  -16.2562 C   0  0  0  0  0  0  0  0  0  0  0  0
   -8.2816    5.1373  -19.1392 H   0  0  0  0  0  0  0  0  0  0  0  0
   -7.8654    7.0942   -8.7525 C   0  0  0  0  0  0  0  0  0  0  0  0
   -8.0875    5.8578   -9.5669 C   0  0  0  0  0  0  0  0  0  0  0  0
   -7.9427    5.8779  -10.9655 C   0  0  0  0  0  0  0  0  0  0  0  0
   -8.1008    4.7074  -11.7265 C   0  0  0  0  0  0  0  0  0  0  0  0
   -8.4526    3.5080  -11.1070 C   0  0  0  0  0  0  0  0  0  0  0  0
   -8.6269    3.5020   -9.7333 C   0  0  0  0  0  0  0  0  0  0  0  0
   -8.4147    4.6446   -8.9703 C   0  0  0  0  0  0  0  0  0  0  0  0
   -8.6375    4.3123   -7.5320 C   0  0  0  0  0  0  0  0  0  0  0  0
   -8.8766    2.8556   -7.4595 N   0  0  0  0  0  0  0  0  0  0  0  0
   -9.0815    2.3841   -8.8574 C   0  0  0  0  0  0  0  0  0  0  0  0
   -9.7065    2.6632   -6.8986 H   0  0  0  0  0  0  0  0  0  0  0  0
 17 18  1  0  0  0
 18 19  2  0  0  0
 19 20  1  0  0  0
 20  1  1  0  0  0
  1  2  1  0  0  0
  2  3  2  0  0  0
  2  5  1  0  0  0
  5  6  1  0  0  0
  6  7  2  0  0  0
  7  8  1  0  0  0
  7  9  1  0  0  0
  9 10  1  0  0  0
 10 11  2  0  0  0
 11 12  1  0  0  0
 11 13  1  0  0  0
 13 14  2  0  0  0
 14 15  1  0  0  0
 20 21  2  0  0  0
 21 22  1  0  0  0
 22 23  2  0  0  0
 23 24  1  0  0  0
 24 25  1  0  0  0
 25 26  1  0  0  0
 23 18  1  0  0  0
 15  5  2  0  0  0
 26 22  1  0  0  0
 15 10  1  0  0  0
  1  4  1  0  0  0
  9 16  1  0  0  0
 25 27  1  0  0  0
M  CHG 1  11   1
M  CHG 1  12  -1
M  END
> <minimizedAffinity>
-8.64327

> <minimizedRMSD>
0.44490

$$$$
P19080


 35 38  0  0  0  0  0  0  0  0999 V2000
   -7.2471    4.2143  -13.7117 C   0  0  0  0  0  0  0  0  0  0  0  0
   -6.4517    5.3215  -13.3288 O   0  0  0  0  0  0  0  0  0  0  0  0
   -6.8904    6.1435  -13.5988 H   0  0  0  0  0  0  0  0  0  0  0  0
   -3.9315    4.6137  -14.9958 C   0  0  0  0  0  0  0  0  0  0  0  0
   -4.8793    4.6959  -16.1352 C   0  0  0  0  0  0  0  0  0  0  0  0
   -4.4523    4.8874  -17.4404 C   0  0  0  0  0  0  0  0  0  0  0  0
   -5.5412    4.8675  -18.2575 N   0  0  0  0  0  0  0  0  0  0  0  0
   -6.6666    4.6940  -17.5119 C   0  0  0  0  0  0  0  0  0  0  0  0
   -7.8770    4.6439  -18.0761 N   0  0  0  0  0  0  0  0  0  0  0  0
   -8.8553    4.4076  -17.2025 C   0  0  0  0  0  0  0  0  0  0  0  0
  -10.4047    4.2959  -17.9299 Cl  0  0  0  0  0  0  0  0  0  0  0  0
   -8.6904    4.2719  -15.8337 C   0  0  0  0  0  0  0  0  0  0  0  0
   -7.4009    4.3508  -15.2371 C   0  0  0  0  0  0  0  0  0  0  0  0
   -6.3238    4.5666  -16.1628 C   0  0  0  0  0  0  0  0  0  0  0  0
   -5.5180    4.9637  -19.2370 H   0  0  0  0  0  0  0  0  0  0  0  0
   -6.6261    2.7753  -13.3183 C   0  0  0  0  0  0  0  0  0  0  0  0
   -7.0871    1.7503  -13.6437 O   0  0  0  0  0  0  0  0  0  0  0  0
   -5.3509    3.0868  -12.4845 N   0  0  0  0  0  0  0  0  0  0  0  0
   -5.1307    4.0435  -12.4097 H   0  0  0  0  0  0  0  0  0  0  0  0
   -4.4380    2.2013  -11.8025 C   0  0  0  0  0  0  0  0  0  0  0  0
   -4.9576    1.6576  -10.4831 C   0  0  0  0  0  0  0  0  0  0  0  0
   -3.8988    1.2324   -9.7416 F   0  0  0  0  0  0  0  0  0  0  0  0
   -5.5200    2.6761   -9.7733 F   0  0  0  0  0  0  0  0  0  0  0  0
   -8.5448    4.3902  -13.0086 N   0  0  0  0  0  0  0  0  0  0  0  0
   -9.3965    4.4784  -13.4945 H   0  0  0  0  0  0  0  0  0  0  0  0
   -8.4763    4.4228  -11.5874 C   0  0  0  0  0  0  0  0  0  0  0  0
   -8.1307    5.6055  -10.9010 C   0  0  0  0  0  0  0  0  0  0  0  0
   -8.0608    5.6467   -9.5031 C   0  0  0  0  0  0  0  0  0  0  0  0
   -8.3603    4.4962   -8.8006 C   0  0  0  0  0  0  0  0  0  0  0  0
   -8.6920    3.3214   -9.4623 C   0  0  0  0  0  0  0  0  0  0  0  0
   -8.7407    3.2634  -10.8451 C   0  0  0  0  0  0  0  0  0  0  0  0
   -8.9631    2.2490   -8.4599 C   0  0  0  0  0  0  0  0  0  0  0  0
   -9.0987    2.9586   -7.1592 N   0  0  0  0  0  0  0  0  0  0  0  0
   -8.4104    4.2563   -7.3302 C   0  0  0  0  0  0  0  0  0  0  0  0
   -8.6586    2.4194   -6.4135 H   0  0  0  0  0  0  0  0  0  0  0  0
  4  5  1  0  0  0
  5  6  2  0  0  0
  6  7  1  0  0  0
  7  8  1  0  0  0
  8  9  2  0  0  0
  9 10  1  0  0  0
 10 11  1  0  0  0
 10 12  2  0  0  0
 12 13  1  0  0  0
 13  1  1  0  0  0
  1  2  1  0  0  0
  1 24  1  0  0  0
 24 26  1  0  0  0
 26 27  2  0  0  0
 27 28  1  0  0  0
 28 29  2  0  0  0
 29 30  1  0  0  0
 30 31  2  0  0  0
 30 32  1  0  0  0
 32 33  1  0  0  0
 33 34  1  0  0  0
  1 16  1  0  0  0
 16 17  2  0  0  0
 16 18  1  0  0  0
 18 20  1  0  0  0
 20 21  1  0  0  0
 21 22  1  0  0  0
 21 23  1  0  0  0
 13 14  2  0  0  0
 14  5  1  0  0  0
 14  8  1  0  0  0
 31 26  1  0  0  0
 34 29  1  0  0  0
  7 15  1  0  0  0
  2  3  1  0  0  0
 24 25  1  0  0  0
 33 35  1  0  0  0
 18 19  1  0  0  0
M  END
> <minimizedAffinity>
-8.75346

> <minimizedRMSD>
0.38196

$$$$
P19081


 25 28  0  0  0  0  0  0  0  0999 V2000
   -7.5707    3.5487  -13.8322 C   0  0  0  0  0  0  0  0  0  0  0  0
   -7.3157    2.4227  -13.6646 O   0  0  0  0  0  0  0  0  0  0  0  0
   -7.9153    4.6619  -12.8130 N   0  0  0  0  0  0  0  0  0  0  0  0
   -8.0182    5.5601  -13.2027 H   0  0  0  0  0  0  0  0  0  0  0  0
   -3.3580    5.2380  -17.0934 O   0  0  0  0  0  0  0  0  0  0  0  0
   -4.5572    5.0558  -16.9748 C   0  0  0  0  0  0  0  0  0  0  0  0
   -5.1836    4.5915  -15.7190 C   0  0  0  0  0  0  0  0  0  0  0  0
   -6.4926    4.5176  -15.9418 C   0  0  0  0  0  0  0  0  0  0  0  0
   -7.6388    4.1421  -15.1916 C   0  0  0  0  0  0  0  0  0  0  0  0
   -8.8410    4.1921  -15.7776 C   0  0  0  0  0  0  0  0  0  0  0  0
   -8.8738    4.5727  -17.2138 C   0  0  0  0  0  0  0  0  0  0  0  0
  -10.3889    4.5119  -18.0354 Cl  0  0  0  0  0  0  0  0  0  0  0  0
   -7.8513    4.9447  -17.9167 N   0  0  0  0  0  0  0  0  0  0  0  0
   -6.6254    4.9242  -17.3346 C   0  0  0  0  0  0  0  0  0  0  0  0
   -5.5272    5.2503  -17.9237 N   0  0  0  0  0  0  0  0  0  0  0  0
   -8.1033    4.5992  -11.4361 C   0  0  0  0  0  0  0  0  0  0  0  0
   -7.8715    5.7502  -10.6652 C   0  0  0  0  0  0  0  0  0  0  0  0
   -8.0111    5.7135   -9.2733 C   0  0  0  0  0  0  0  0  0  0  0  0
   -8.4181    4.5287   -8.6851 C   0  0  0  0  0  0  0  0  0  0  0  0
   -8.7006    3.4085   -9.4550 C   0  0  0  0  0  0  0  0  0  0  0  0
   -8.5297    3.4175  -10.8285 C   0  0  0  0  0  0  0  0  0  0  0  0
   -9.2130    2.3138   -8.5825 C   0  0  0  0  0  0  0  0  0  0  0  0
   -8.9775    2.7694   -7.1832 N   0  0  0  0  0  0  0  0  0  0  0  0
   -8.6616    4.2118   -7.2497 C   0  0  0  0  0  0  0  0  0  0  0  0
   -8.1958    2.2575   -6.7743 H   0  0  0  0  0  0  0  0  0  0  0  0
  5  6  2  0  0  0
  6  7  1  0  0  0
  7  8  2  0  0  0
  8  9  1  0  0  0
  9  1  1  0  0  0
  1  2  2  0  0  0
  1  3  1  0  0  0
  3 16  1  0  0  0
 16 17  2  0  0  0
 17 18  1  0  0  0
 18 19  2  0  0  0
 19 20  1  0  0  0
 20 21  2  0  0  0
 20 22  1  0  0  0
 22 23  1  0  0  0
 23 24  1  0  0  0
  9 10  2  0  0  0
 10 11  1  0  0  0
 11 12  1  0  0  0
 11 13  2  0  0  0
 13 14  1  0  0  0
 14 15  2  0  0  0
 15  6  1  0  0  0
 14  8  1  0  0  0
 21 16  1  0  0  0
 24 19  1  0  0  0
  3  4  1  0  0  0
 23 25  1  0  0  0
M  END
> <minimizedAffinity>
-8.30115

> <minimizedRMSD>
0.31125

$$$$
P19082


 30 33  0  0  0  0  0  0  0  0999 V2000
   -4.3420    3.9426  -13.6138 C   0  0  0  0  0  0  0  0  0  0  0  0
   -5.0233    4.4899  -14.8096 C   0  0  0  0  0  0  0  0  0  0  0  0
   -6.2890    4.4980  -15.2539 C   0  0  0  0  0  0  0  0  0  0  0  0
   -7.4905    3.9725  -14.6531 C   0  0  0  0  0  0  0  0  0  0  0  0
   -8.6409    4.0495  -15.3349 C   0  0  0  0  0  0  0  0  0  0  0  0
   -8.5767    4.6158  -16.7038 C   0  0  0  0  0  0  0  0  0  0  0  0
   -9.9966    4.5406  -17.6852 Cl  0  0  0  0  0  0  0  0  0  0  0  0
   -7.5384    5.1789  -17.2434 N   0  0  0  0  0  0  0  0  0  0  0  0
   -6.3564    5.1518  -16.5539 C   0  0  0  0  0  0  0  0  0  0  0  0
   -5.1642    5.6428  -16.9204 C   0  0  0  0  0  0  0  0  0  0  0  0
   -4.2472    5.1870  -15.8609 C   0  0  0  0  0  0  0  0  0  0  0  0
   -3.0391    5.3430  -15.8651 O   0  0  0  0  0  0  0  0  0  0  0  0
   -7.5719    3.2881  -13.3364 C   0  0  0  0  0  0  0  0  0  0  0  0
   -7.4851    2.1292  -13.2274 O   0  0  0  0  0  0  0  0  0  0  0  0
   -7.8173    4.3824  -12.2659 N   0  0  0  0  0  0  0  0  0  0  0  0
   -7.7725    5.3063  -12.6030 H   0  0  0  0  0  0  0  0  0  0  0  0
   -8.0905    4.2708  -10.9066 C   0  0  0  0  0  0  0  0  0  0  0  0
   -7.8909    5.3902  -10.0815 C   0  0  0  0  0  0  0  0  0  0  0  0
   -8.1129    5.3067   -8.7025 C   0  0  0  0  0  0  0  0  0  0  0  0
   -8.5641    4.1063   -8.1823 C   0  0  0  0  0  0  0  0  0  0  0  0
   -8.8138    3.0184   -9.0081 C   0  0  0  0  0  0  0  0  0  0  0  0
   -8.5667    3.0751  -10.3690 C   0  0  0  0  0  0  0  0  0  0  0  0
   -9.3800    1.8973   -8.2054 C   0  0  0  0  0  0  0  0  0  0  0  0
   -9.2066    2.2951   -6.7793 N   0  0  0  0  0  0  0  0  0  0  0  0
   -8.8873    3.7385   -6.7753 C   0  0  0  0  0  0  0  0  0  0  0  0
   -8.4439    1.7654   -6.3571 H   0  0  0  0  0  0  0  0  0  0  0  0
   -4.6954    6.3496  -17.9786 O   0  0  0  0  0  0  0  0  0  0  0  0
   -5.4067    6.2847  -19.2125 C   0  0  0  0  0  0  0  0  0  0  0  0
   -4.9631    7.4969  -20.0293 C   0  0  0  0  0  0  0  0  0  0  0  0
   -5.0219    5.0063  -19.9384 C   0  0  0  0  0  0  0  0  0  0  0  0
  1  2  1  0  0  0
  2  3  2  0  0  0
  3  4  1  0  0  0
  4 13  1  0  0  0
 13 14  2  0  0  0
 13 15  1  0  0  0
 15 17  1  0  0  0
 17 18  2  0  0  0
 18 19  1  0  0  0
 19 20  2  0  0  0
 20 21  1  0  0  0
 21 22  2  0  0  0
 21 23  1  0  0  0
 23 24  1  0  0  0
 24 25  1  0  0  0
  4  5  2  0  0  0
  5  6  1  0  0  0
  6  7  1  0  0  0
  6  8  2  0  0  0
  8  9  1  0  0  0
  9 10  2  0  0  0
 10 27  1  0  0  0
 27 28  1  0  0  0
 28 29  1  0  0  0
 28 30  1  0  0  0
 10 11  1  0  0  0
 11 12  2  0  0  0
 11  2  1  0  0  0
  9  3  1  0  0  0
 22 17  1  0  0  0
 25 20  1  0  0  0
 15 16  1  0  0  0
 24 26  1  0  0  0
M  END
> <minimizedAffinity>
-8.11185

> <minimizedRMSD>
0.49748

$$$$
P19084


 28 31  0  0  0  0  0  0  0  0999 V2000
   -5.3208    4.9025  -18.1544 N   0  0  0  0  0  0  0  0  0  0  0  0
   -4.2462    5.0128  -17.2980 C   0  0  0  0  0  0  0  0  0  0  0  0
   -4.7229    4.9396  -16.0055 C   0  0  0  0  0  0  0  0  0  0  0  0
   -6.1331    4.7595  -16.0740 C   0  0  0  0  0  0  0  0  0  0  0  0
   -7.1964    4.6390  -15.1585 C   0  0  0  0  0  0  0  0  0  0  0  0
   -8.4892    4.4672  -15.6514 C   0  0  0  0  0  0  0  0  0  0  0  0
   -8.6627    4.4760  -17.0234 C   0  0  0  0  0  0  0  0  0  0  0  0
  -10.2318    4.4681  -17.7061 Cl  0  0  0  0  0  0  0  0  0  0  0  0
   -7.6947    4.5882  -17.9471 N   0  0  0  0  0  0  0  0  0  0  0  0
   -6.4662    4.7264  -17.4246 C   0  0  0  0  0  0  0  0  0  0  0  0
   -6.9583    4.8749  -13.7162 C   0  0  0  0  0  0  0  0  0  0  0  0
   -6.0092    5.4891  -13.4205 O   0  0  0  0  0  0  0  0  0  0  0  0
   -8.0471    4.2222  -12.8304 N   0  0  0  0  0  0  0  0  0  0  0  0
   -8.7120    3.6874  -13.3214 H   0  0  0  0  0  0  0  0  0  0  0  0
   -8.2395    4.2686  -11.4494 C   0  0  0  0  0  0  0  0  0  0  0  0
   -8.0166    5.4554  -10.7329 C   0  0  0  0  0  0  0  0  0  0  0  0
   -8.1782    5.4998   -9.3444 C   0  0  0  0  0  0  0  0  0  0  0  0
   -8.5432    4.3390   -8.6904 C   0  0  0  0  0  0  0  0  0  0  0  0
   -8.7704    3.1633   -9.3936 C   0  0  0  0  0  0  0  0  0  0  0  0
   -8.6386    3.1128  -10.7746 C   0  0  0  0  0  0  0  0  0  0  0  0
   -9.1691    2.0891   -8.4387 C   0  0  0  0  0  0  0  0  0  0  0  0
   -8.9514    2.6473   -7.0742 N   0  0  0  0  0  0  0  0  0  0  0  0
   -8.7800    4.1060   -7.2392 C   0  0  0  0  0  0  0  0  0  0  0  0
   -8.1152    2.2394   -6.6560 H   0  0  0  0  0  0  0  0  0  0  0  0
   -5.2620    4.9602  -19.6098 C   0  0  0  0  0  0  0  0  0  0  0  0
   -4.8865    6.8789  -21.0195 C   0  0  0  0  0  0  0  0  0  0  0  0
   -5.7212    6.2899  -19.9879 N   0  0  0  0  0  0  0  0  0  0  0  0
   -6.6773    6.2216  -20.3367 H   0  0  0  0  0  0  0  0  0  0  0  0
 26 27  1  0  0  0
 27 25  1  0  0  0
 25  1  1  0  0  0
  1  2  1  0  0  0
  2  3  2  0  0  0
  3  4  1  0  0  0
  4  5  2  0  0  0
  5 11  1  0  0  0
 11 12  2  0  0  0
 11 13  1  0  0  0
 13 15  1  0  0  0
 15 16  2  0  0  0
 16 17  1  0  0  0
 17 18  2  0  0  0
 18 19  1  0  0  0
 19 20  2  0  0  0
 19 21  1  0  0  0
 21 22  1  0  0  0
 22 23  1  0  0  0
  5  6  1  0  0  0
  6  7  2  0  0  0
  7  8  1  0  0  0
  7  9  1  0  0  0
  9 10  2  0  0  0
 10  1  1  0  0  0
 10  4  1  0  0  0
 20 15  1  0  0  0
 23 18  1  0  0  0
 27 28  1  0  0  0
 13 14  1  0  0  0
 22 24  1  0  0  0
M  END
> <minimizedAffinity>
-7.90320

> <minimizedRMSD>
0.43985

$$$$
P19085


 34 37  0  0  0  0  0  0  0  0999 V2000
   -7.1983    4.3569  -13.6763 C   0  0  0  0  0  0  0  0  0  0  0  0
   -6.2905    5.3965  -13.3078 O   0  0  0  0  0  0  0  0  0  0  0  0
   -6.1337    5.3648  -12.3511 H   0  0  0  0  0  0  0  0  0  0  0  0
   -7.3940    4.4718  -15.1890 C   0  0  0  0  0  0  0  0  0  0  0  0
   -8.6719    4.3122  -15.7770 C   0  0  0  0  0  0  0  0  0  0  0  0
   -8.8235    4.3837  -17.1551 C   0  0  0  0  0  0  0  0  0  0  0  0
  -10.3673    4.2259  -17.8870 Cl  0  0  0  0  0  0  0  0  0  0  0  0
   -7.8389    4.5937  -18.0410 N   0  0  0  0  0  0  0  0  0  0  0  0
   -6.6344    4.6926  -17.4685 C   0  0  0  0  0  0  0  0  0  0  0  0
   -5.4763    4.8238  -18.1811 N   0  0  0  0  0  0  0  0  0  0  0  0
   -4.4149    4.9139  -17.3202 C   0  0  0  0  0  0  0  0  0  0  0  0
   -4.9110    4.8188  -16.0366 C   0  0  0  0  0  0  0  0  0  0  0  0
   -6.3282    4.6572  -16.1124 C   0  0  0  0  0  0  0  0  0  0  0  0
   -5.4142    4.8497  -19.1633 H   0  0  0  0  0  0  0  0  0  0  0  0
   -7.1205    1.8727  -13.6282 O   0  0  0  0  0  0  0  0  0  0  0  0
   -6.6068    2.8865  -13.3460 C   0  0  0  0  0  0  0  0  0  0  0  0
   -5.2462    3.1664  -12.6281 N   0  0  0  0  0  0  0  0  0  0  0  0
   -4.9964    4.1171  -12.5736 H   0  0  0  0  0  0  0  0  0  0  0  0
   -4.3040    2.2632  -12.0366 C   0  0  0  0  0  0  0  0  0  0  0  0
   -4.8402    1.6714  -10.7411 C   0  0  0  0  0  0  0  0  0  0  0  0
   -3.7041    1.0349   -9.9697 C   0  0  0  0  0  0  0  0  0  0  0  0
   -2.7124    1.9593   -9.8224 F   0  0  0  0  0  0  0  0  0  0  0  0
   -8.4440    4.6852  -12.9610 N   0  0  0  0  0  0  0  0  0  0  0  0
   -9.2591    4.9373  -13.4522 H   0  0  0  0  0  0  0  0  0  0  0  0
   -8.4338    4.6276  -11.5533 C   0  0  0  0  0  0  0  0  0  0  0  0
   -8.1333    5.7858  -10.7990 C   0  0  0  0  0  0  0  0  0  0  0  0
   -8.0792    5.7568   -9.4016 C   0  0  0  0  0  0  0  0  0  0  0  0
   -8.3608    4.5635   -8.7665 C   0  0  0  0  0  0  0  0  0  0  0  0
   -8.6551    3.4167   -9.4947 C   0  0  0  0  0  0  0  0  0  0  0  0
   -8.6718    3.4254  -10.8813 C   0  0  0  0  0  0  0  0  0  0  0  0
   -8.9421    2.2949   -8.5510 C   0  0  0  0  0  0  0  0  0  0  0  0
   -9.1102    2.9385   -7.2177 N   0  0  0  0  0  0  0  0  0  0  0  0
   -8.4350    4.2486   -7.3109 C   0  0  0  0  0  0  0  0  0  0  0  0
   -8.6777    2.3676   -6.4915 H   0  0  0  0  0  0  0  0  0  0  0  0
 15 16  2  0  0  0
 16 17  1  0  0  0
 17 19  1  0  0  0
 19 20  1  0  0  0
 20 21  1  0  0  0
 21 22  1  0  0  0
 16  1  1  0  0  0
  1  2  1  0  0  0
  1 23  1  0  0  0
 23 25  1  0  0  0
 25 26  2  0  0  0
 26 27  1  0  0  0
 27 28  2  0  0  0
 28 29  1  0  0  0
 29 30  2  0  0  0
 29 31  1  0  0  0
 31 32  1  0  0  0
 32 33  1  0  0  0
  1  4  1  0  0  0
  4  5  2  0  0  0
  5  6  1  0  0  0
  6  7  1  0  0  0
  6  8  2  0  0  0
  8  9  1  0  0  0
  9 10  1  0  0  0
 10 11  1  0  0  0
 11 12  2  0  0  0
 12 13  1  0  0  0
 30 25  1  0  0  0
 13  4  1  0  0  0
 33 28  1  0  0  0
 13  9  2  0  0  0
 17 18  1  0  0  0
  2  3  1  0  0  0
 23 24  1  0  0  0
 32 34  1  0  0  0
 10 14  1  0  0  0
M  END
> <minimizedAffinity>
-8.07545

> <minimizedRMSD>
0.42806

$$$$
P19087


 34 37  0  0  0  0  0  0  0  0999 V2000
   -7.3210    4.2528  -13.7528 C   0  0  0  0  0  0  0  0  0  0  0  0
   -6.5703    5.4041  -13.3909 O   0  0  0  0  0  0  0  0  0  0  0  0
   -6.4116    5.3991  -12.4340 H   0  0  0  0  0  0  0  0  0  0  0  0
   -7.5017    4.3786  -15.2677 C   0  0  0  0  0  0  0  0  0  0  0  0
   -8.7655    4.2928  -15.8935 C   0  0  0  0  0  0  0  0  0  0  0  0
   -8.8786    4.4100  -17.2725 C   0  0  0  0  0  0  0  0  0  0  0  0
  -10.4106    4.2643  -18.0345 Cl  0  0  0  0  0  0  0  0  0  0  0  0
   -7.8694    4.6419  -18.1248 N   0  0  0  0  0  0  0  0  0  0  0  0
   -6.6676    4.6824  -17.5256 C   0  0  0  0  0  0  0  0  0  0  0  0
   -6.4050    4.5572  -16.1572 C   0  0  0  0  0  0  0  0  0  0  0  0
   -4.9830    4.6530  -16.0061 C   0  0  0  0  0  0  0  0  0  0  0  0
   -4.4476    4.8348  -17.2579 C   0  0  0  0  0  0  0  0  0  0  0  0
   -3.1445    4.9801  -17.5346 F   0  0  0  0  0  0  0  0  0  0  0  0
   -5.4657    4.8468  -18.1535 N   0  0  0  0  0  0  0  0  0  0  0  0
   -5.2965    5.0625  -19.4996 F   0  0  0  0  0  0  0  0  0  0  0  0
   -5.1990    3.2201  -12.8550 N   0  0  0  0  0  0  0  0  0  0  0  0
   -6.6006    2.8552  -13.4110 C   0  0  0  0  0  0  0  0  0  0  0  0
   -7.1109    1.8134  -13.5531 O   0  0  0  0  0  0  0  0  0  0  0  0
   -5.0299    4.1857  -12.7646 H   0  0  0  0  0  0  0  0  0  0  0  0
   -3.1577    3.1151  -11.5219 C   0  0  0  0  0  0  0  0  0  0  0  0
   -4.1058    2.3761  -12.4498 C   0  0  0  0  0  0  0  0  0  0  0  0
   -3.4009    1.8357  -13.6866 C   0  0  0  0  0  0  0  0  0  0  0  0
   -8.6120    4.3501  -13.0324 N   0  0  0  0  0  0  0  0  0  0  0  0
   -9.4787    4.3700  -13.4989 H   0  0  0  0  0  0  0  0  0  0  0  0
   -8.5034    4.4129  -11.6117 C   0  0  0  0  0  0  0  0  0  0  0  0
   -8.1289    5.6130  -10.9702 C   0  0  0  0  0  0  0  0  0  0  0  0
   -8.0046    5.6895   -9.5779 C   0  0  0  0  0  0  0  0  0  0  0  0
   -8.2855    4.5594   -8.8355 C   0  0  0  0  0  0  0  0  0  0  0  0
   -8.6483    3.3697   -9.4539 C   0  0  0  0  0  0  0  0  0  0  0  0
   -8.7437    3.2737  -10.8316 C   0  0  0  0  0  0  0  0  0  0  0  0
   -8.9000    2.3281   -8.4150 C   0  0  0  0  0  0  0  0  0  0  0  0
   -8.9921    3.0768   -7.1313 N   0  0  0  0  0  0  0  0  0  0  0  0
   -8.2917    4.3587   -7.3584 C   0  0  0  0  0  0  0  0  0  0  0  0
   -8.5396    2.5532   -6.3820 H   0  0  0  0  0  0  0  0  0  0  0  0
 20 21  1  0  0  0
 21 22  1  0  0  0
 21 16  1  0  0  0
 16 17  1  0  0  0
 17 18  2  0  0  0
 17  1  1  0  0  0
  1  2  1  0  0  0
  1 23  1  0  0  0
 23 25  1  0  0  0
 25 26  2  0  0  0
 26 27  1  0  0  0
 27 28  2  0  0  0
 28 29  1  0  0  0
 29 30  2  0  0  0
 29 31  1  0  0  0
 31 32  1  0  0  0
 32 33  1  0  0  0
  1  4  1  0  0  0
  4  5  2  0  0  0
  5  6  1  0  0  0
  6  7  1  0  0  0
  6  8  2  0  0  0
  8  9  1  0  0  0
  9 10  2  0  0  0
 10 11  1  0  0  0
 11 12  2  0  0  0
 12 13  1  0  0  0
 12 14  1  0  0  0
 14 15  1  0  0  0
 30 25  1  0  0  0
 10  4  1  0  0  0
 33 28  1  0  0  0
 14  9  1  0  0  0
 16 19  1  0  0  0
  2  3  1  0  0  0
 23 24  1  0  0  0
 32 34  1  0  0  0
M  END
> <minimizedAffinity>
-9.33693

> <minimizedRMSD>
0.50499

$$$$
P19089


 31 34  0  0  0  0  0  0  0  0999 V2000
   -7.8172    4.2014  -13.8924 C   0  0  0  0  0  0  0  0  0  0  0  0
   -7.7065    3.1583  -13.3878 O   0  0  0  0  0  0  0  0  0  0  0  0
   -8.1908    5.5623  -13.2915 N   0  0  0  0  0  0  0  0  0  0  0  0
   -8.2929    6.2885  -13.9484 H   0  0  0  0  0  0  0  0  0  0  0  0
   -5.0758    5.2930  -17.5656 N   0  0  0  0  0  0  0  0  0  0  0  0
   -4.2888    5.1896  -16.4430 C   0  0  0  0  0  0  0  0  0  0  0  0
   -5.0948    4.8369  -15.3838 C   0  0  0  0  0  0  0  0  0  0  0  0
   -6.4102    4.6710  -15.8865 C   0  0  0  0  0  0  0  0  0  0  0  0
   -7.6653    4.3509  -15.3564 C   0  0  0  0  0  0  0  0  0  0  0  0
   -8.7497    4.2013  -16.2249 C   0  0  0  0  0  0  0  0  0  0  0  0
   -8.5358    4.4280  -17.5692 C   0  0  0  0  0  0  0  0  0  0  0  0
   -9.8471    4.3576  -18.6674 Cl  0  0  0  0  0  0  0  0  0  0  0  0
   -7.3705    4.7872  -18.1315 N   0  0  0  0  0  0  0  0  0  0  0  0
   -6.3551    4.8938  -17.2555 C   0  0  0  0  0  0  0  0  0  0  0  0
   -4.7295    5.8025  -18.8896 C   0  0  0  0  0  0  0  0  0  0  0  0
   -2.7717    4.7034  -19.7750 C   0  0  0  0  0  0  0  0  0  0  0  0
   -4.2290    4.7220  -19.7519 N   0  0  0  0  0  0  0  0  0  0  0  0
   -4.5682    3.8280  -19.3969 H   0  0  0  0  0  0  0  0  0  0  0  0
   -8.4070    5.9348  -11.9815 C   0  0  0  0  0  0  0  0  0  0  0  0
   -8.7640    7.2258  -11.5715 C   0  0  0  0  0  0  0  0  0  0  0  0
   -8.7416    7.5664  -10.2086 C   0  0  0  0  0  0  0  0  0  0  0  0
   -8.3995    6.5832   -9.3023 C   0  0  0  0  0  0  0  0  0  0  0  0
   -8.2027    5.2777   -9.7247 C   0  0  0  0  0  0  0  0  0  0  0  0
   -8.1471    4.9466  -11.0521 C   0  0  0  0  0  0  0  0  0  0  0  0
   -7.8710    4.4117   -8.5722 C   0  0  0  0  0  0  0  0  0  0  0  0
   -7.3314    5.3399   -7.5843 N   0  0  0  0  0  0  0  0  0  0  0  0
   -8.0210    6.6368   -7.8555 C   0  0  0  0  0  0  0  0  0  0  0  0
   -5.8859    5.3414   -7.9095 C   0  0  0  0  0  0  0  0  0  0  0  0
   -5.2106    4.3084   -8.8952 C   0  0  0  0  0  0  0  0  0  0  0  0
   -4.0313    3.8112   -8.4448 F   0  0  0  0  0  0  0  0  0  0  0  0
   -4.8918    4.8875  -10.0878 F   0  0  0  0  0  0  0  0  0  0  0  0
 16 17  1  0  0  0
 17 15  1  0  0  0
 15  5  1  0  0  0
  5  6  1  0  0  0
  6  7  2  0  0  0
  7  8  1  0  0  0
  8  9  2  0  0  0
  9  1  1  0  0  0
  1  2  2  0  0  0
  1  3  1  0  0  0
  3 19  1  0  0  0
 19 20  2  0  0  0
 20 21  1  0  0  0
 21 22  2  0  0  0
 22 23  1  0  0  0
 23 24  2  0  0  0
 23 25  1  0  0  0
 25 26  1  0  0  0
 26 28  1  0  0  0
 28 29  1  0  0  0
 29 30  1  0  0  0
 29 31  1  0  0  0
 26 27  1  0  0  0
  9 10  1  0  0  0
 10 11  2  0  0  0
 11 12  1  0  0  0
 11 13  1  0  0  0
 13 14  2  0  0  0
 14  5  1  0  0  0
 14  8  1  0  0  0
 24 19  1  0  0  0
 27 22  1  0  0  0
 17 18  1  0  0  0
  3  4  1  0  0  0
M  END
> <minimizedAffinity>
-6.53852

> <minimizedRMSD>
2.27023

$$$$
P19092


 30 34  0  0  0  0  0  0  0  0999 V2000
   -7.5770    4.1831  -15.1554 C   0  0  0  0  0  0  0  0  0  0  0  0
   -8.8183    4.2099  -15.7944 C   0  0  0  0  0  0  0  0  0  0  0  0
   -8.8513    4.5366  -17.1338 C   0  0  0  0  0  0  0  0  0  0  0  0
  -10.3241    4.4645  -18.0114 Cl  0  0  0  0  0  0  0  0  0  0  0  0
   -7.7957    4.8959  -17.8834 N   0  0  0  0  0  0  0  0  0  0  0  0
   -6.6181    4.8299  -17.2283 C   0  0  0  0  0  0  0  0  0  0  0  0
   -6.4207    4.5133  -15.8855 C   0  0  0  0  0  0  0  0  0  0  0  0
   -5.0158    4.5621  -15.6649 C   0  0  0  0  0  0  0  0  0  0  0  0
   -4.4067    4.8466  -16.8757 C   0  0  0  0  0  0  0  0  0  0  0  0
   -5.3866    4.9828  -17.8267 N   0  0  0  0  0  0  0  0  0  0  0  0
   -7.3718    2.4580  -13.6761 O   0  0  0  0  0  0  0  0  0  0  0  0
   -7.5209    3.6084  -13.7966 C   0  0  0  0  0  0  0  0  0  0  0  0
   -7.7824    4.6999  -12.7367 N   0  0  0  0  0  0  0  0  0  0  0  0
   -7.7964    5.6198  -13.0872 H   0  0  0  0  0  0  0  0  0  0  0  0
   -8.0021    4.5950  -11.3642 C   0  0  0  0  0  0  0  0  0  0  0  0
   -7.7736    5.7195  -10.5534 C   0  0  0  0  0  0  0  0  0  0  0  0
   -7.9629    5.6507   -9.1679 C   0  0  0  0  0  0  0  0  0  0  0  0
   -8.4387    4.4686   -8.6281 C   0  0  0  0  0  0  0  0  0  0  0  0
   -8.7167    3.3727   -9.4362 C   0  0  0  0  0  0  0  0  0  0  0  0
   -8.4736    3.4058  -10.8008 C   0  0  0  0  0  0  0  0  0  0  0  0
   -9.2724    2.2661   -8.6000 C   0  0  0  0  0  0  0  0  0  0  0  0
   -9.5217    2.8672   -7.2582 N   0  0  0  0  0  0  0  0  0  0  0  0
   -8.7218    4.1069   -7.2095 C   0  0  0  0  0  0  0  0  0  0  0  0
   -9.2256    2.2258   -6.5225 H   0  0  0  0  0  0  0  0  0  0  0  0
   -5.2419    5.1224  -19.2436 N   0  0  0  0  0  0  0  0  0  0  0  0
   -6.1442    5.4194  -19.6150 H   0  0  0  0  0  0  0  0  0  0  0  0
   -4.2377    6.0643  -19.7297 C   0  0  0  0  0  0  0  0  0  0  0  0
   -4.6865    6.5586  -21.1316 C   0  0  0  0  0  0  0  0  0  0  0  0
   -5.4135    7.7262  -20.4458 C   0  0  0  0  0  0  0  0  0  0  0  0
   -4.5032    7.4988  -19.2297 C   0  0  0  0  0  0  0  0  0  0  0  0
 11 12  2  0  0  0
 12 13  1  0  0  0
 13 15  1  0  0  0
 15 16  2  0  0  0
 16 17  1  0  0  0
 17 18  2  0  0  0
 18 19  1  0  0  0
 19 20  2  0  0  0
 19 21  1  0  0  0
 21 22  1  0  0  0
 22 23  1  0  0  0
 12  1  1  0  0  0
  1  2  2  0  0  0
  2  3  1  0  0  0
  3  4  1  0  0  0
  3  5  2  0  0  0
  5  6  1  0  0  0
  6  7  2  0  0  0
  7  8  1  0  0  0
  8  9  2  0  0  0
  9 10  1  0  0  0
 10 25  1  0  0  0
 25 27  1  0  0  0
 27 28  1  0  0  0
 28 29  1  0  0  0
 29 30  1  0  0  0
 20 15  1  0  0  0
  7  1  1  0  0  0
 30 27  1  0  0  0
 23 18  1  0  0  0
 10  6  1  0  0  0
 13 14  1  0  0  0
 22 24  1  0  0  0
 25 26  1  0  0  0
M  END
> <minimizedAffinity>
-8.37081

> <minimizedRMSD>
0.29611

$$$$
P19093


 30 33  0  0  0  0  0  0  0  0999 V2000
   -5.3670    5.4207  -17.5834 N   0  0  0  0  0  0  0  0  0  0  0  0
   -4.4021    5.1981  -16.6324 C   0  0  0  0  0  0  0  0  0  0  0  0
   -5.0224    4.6730  -15.5152 C   0  0  0  0  0  0  0  0  0  0  0  0
   -6.4119    4.5713  -15.7987 C   0  0  0  0  0  0  0  0  0  0  0  0
   -7.5698    4.1265  -15.1450 C   0  0  0  0  0  0  0  0  0  0  0  0
   -8.7922    4.1682  -15.8129 C   0  0  0  0  0  0  0  0  0  0  0  0
   -8.8012    4.5991  -17.1206 C   0  0  0  0  0  0  0  0  0  0  0  0
  -10.2563    4.5569  -18.0305 Cl  0  0  0  0  0  0  0  0  0  0  0  0
   -7.7379    5.0704  -17.8006 N   0  0  0  0  0  0  0  0  0  0  0  0
   -6.5891    5.0283  -17.1003 C   0  0  0  0  0  0  0  0  0  0  0  0
   -7.5281    3.5522  -13.7914 C   0  0  0  0  0  0  0  0  0  0  0  0
   -7.3920    2.4018  -13.6578 O   0  0  0  0  0  0  0  0  0  0  0  0
   -7.7721    4.6590  -12.7441 N   0  0  0  0  0  0  0  0  0  0  0  0
   -7.7765    5.5747  -13.1057 H   0  0  0  0  0  0  0  0  0  0  0  0
   -7.9867    4.5734  -11.3726 C   0  0  0  0  0  0  0  0  0  0  0  0
   -7.7168    5.6972  -10.5741 C   0  0  0  0  0  0  0  0  0  0  0  0
   -7.8981    5.6453   -9.1880 C   0  0  0  0  0  0  0  0  0  0  0  0
   -8.3791    4.4725   -8.6331 C   0  0  0  0  0  0  0  0  0  0  0  0
   -8.6935    3.3800   -9.4305 C   0  0  0  0  0  0  0  0  0  0  0  0
   -8.4881    3.4045  -10.7991 C   0  0  0  0  0  0  0  0  0  0  0  0
   -9.2765    2.2955   -8.5910 C   0  0  0  0  0  0  0  0  0  0  0  0
   -9.0478    2.7129   -7.1777 N   0  0  0  0  0  0  0  0  0  0  0  0
   -8.6788    4.1438   -7.2114 C   0  0  0  0  0  0  0  0  0  0  0  0
   -8.2921    2.1646   -6.7672 H   0  0  0  0  0  0  0  0  0  0  0  0
   -5.1764    6.0258  -18.8944 C   0  0  0  0  0  0  0  0  0  0  0  0
   -5.4418    5.5818  -21.2158 N   0  0  0  0  0  0  0  0  0  0  0  0
   -5.4683    4.9869  -19.8847 N   0  0  0  0  0  0  0  0  0  0  0  0
   -5.6442    4.8650  -21.9126 H   0  0  0  0  0  0  0  0  0  0  0  0
   -4.5185    5.9774  -21.3931 H   0  0  0  0  0  0  0  0  0  0  0  0
   -4.7655    4.2500  -19.8251 H   0  0  0  0  0  0  0  0  0  0  0  0
 26 27  1  0  0  0
 27 25  1  0  0  0
 25  1  1  0  0  0
  1  2  1  0  0  0
  2  3  2  0  0  0
  3  4  1  0  0  0
  4  5  2  0  0  0
  5 11  1  0  0  0
 11 12  2  0  0  0
 11 13  1  0  0  0
 13 15  1  0  0  0
 15 16  2  0  0  0
 16 17  1  0  0  0
 17 18  2  0  0  0
 18 19  1  0  0  0
 19 20  2  0  0  0
 19 21  1  0  0  0
 21 22  1  0  0  0
 22 23  1  0  0  0
  5  6  1  0  0  0
  6  7  2  0  0  0
  7  8  1  0  0  0
  7  9  1  0  0  0
  9 10  2  0  0  0
 10  1  1  0  0  0
 10  4  1  0  0  0
 20 15  1  0  0  0
 23 18  1  0  0  0
 26 28  1  0  0  0
 26 29  1  0  0  0
 27 30  1  0  0  0
 13 14  1  0  0  0
 22 24  1  0  0  0
M  END
> <minimizedAffinity>
-8.48426

> <minimizedRMSD>
0.26244

$$$$
P19094


 26 29  0  0  0  0  0  0  0  0999 V2000
   -7.3755    3.6713  -14.0749 C   0  0  0  0  0  0  0  0  0  0  0  0
   -7.0105    2.5779  -13.8906 O   0  0  0  0  0  0  0  0  0  0  0  0
   -7.8381    4.7586  -13.0713 N   0  0  0  0  0  0  0  0  0  0  0  0
   -8.0269    5.6372  -13.4734 H   0  0  0  0  0  0  0  0  0  0  0  0
   -3.3492    5.3194  -17.8812 C   0  0  0  0  0  0  0  0  0  0  0  0
   -4.7229    5.0938  -17.3766 C   0  0  0  0  0  0  0  0  0  0  0  0
   -5.1126    4.7017  -16.1467 C   0  0  0  0  0  0  0  0  0  0  0  0
   -6.5318    4.5816  -16.2324 C   0  0  0  0  0  0  0  0  0  0  0  0
   -7.5675    4.2175  -15.4593 C   0  0  0  0  0  0  0  0  0  0  0  0
   -8.9242    4.2052  -16.0240 C   0  0  0  0  0  0  0  0  0  0  0  0
   -9.1172    4.4923  -17.3220 C   0  0  0  0  0  0  0  0  0  0  0  0
  -10.6318    4.4400  -18.0912 Cl  0  0  0  0  0  0  0  0  0  0  0  0
   -8.0989    4.8752  -18.1453 N   0  0  0  0  0  0  0  0  0  0  0  0
   -6.8305    4.9308  -17.6609 C   0  0  0  0  0  0  0  0  0  0  0  0
   -5.7433    5.2641  -18.2963 N   0  0  0  0  0  0  0  0  0  0  0  0
   -8.2818    5.1096  -19.0839 H   0  0  0  0  0  0  0  0  0  0  0  0
   -8.0304    4.6942  -11.6901 C   0  0  0  0  0  0  0  0  0  0  0  0
   -7.8620    5.8602  -10.9244 C   0  0  0  0  0  0  0  0  0  0  0  0
   -8.0227    5.8320   -9.5327 C   0  0  0  0  0  0  0  0  0  0  0  0
   -8.4164    4.6454   -8.9392 C   0  0  0  0  0  0  0  0  0  0  0  0
   -8.6419    3.5056   -9.7010 C   0  0  0  0  0  0  0  0  0  0  0  0
   -8.4185    3.5007  -11.0711 C   0  0  0  0  0  0  0  0  0  0  0  0
   -9.1279    2.4047   -8.8135 C   0  0  0  0  0  0  0  0  0  0  0  0
   -9.3810    3.0403   -7.4882 N   0  0  0  0  0  0  0  0  0  0  0  0
   -8.6518    4.3228   -7.5023 C   0  0  0  0  0  0  0  0  0  0  0  0
   -9.0333    2.4437   -6.7375 H   0  0  0  0  0  0  0  0  0  0  0  0
  5  6  1  0  0  0
  6  7  2  0  0  0
  7  8  1  0  0  0
  8  9  2  0  0  0
  9  1  1  0  0  0
  1  2  2  0  0  0
  1  3  1  0  0  0
  3 17  1  0  0  0
 17 18  2  0  0  0
 18 19  1  0  0  0
 19 20  2  0  0  0
 20 21  1  0  0  0
 21 22  2  0  0  0
 21 23  1  0  0  0
 23 24  1  0  0  0
 24 25  1  0  0  0
  9 10  1  0  0  0
 10 11  2  0  0  0
 11 12  1  0  0  0
 11 13  1  0  0  0
 13 14  1  0  0  0
 14 15  2  0  0  0
 15  6  1  0  0  0
 14  8  1  0  0  0
 22 17  1  0  0  0
 25 20  1  0  0  0
  3  4  1  0  0  0
 24 26  1  0  0  0
 13 16  1  0  0  0
M  END
> <minimizedAffinity>
-8.33465

> <minimizedRMSD>
0.23137

$$$$
P19095


 27 31  0  0  0  0  0  0  0  0999 V2000
   -7.4874    2.2738  -13.3340 O   0  0  0  0  0  0  0  0  0  0  0  0
   -7.6286    3.4259  -13.4408 C   0  0  0  0  0  0  0  0  0  0  0  0
   -8.0049    4.4881  -12.3893 N   0  0  0  0  0  0  0  0  0  0  0  0
   -8.1377    5.3950  -12.7489 H   0  0  0  0  0  0  0  0  0  0  0  0
   -7.5445    4.0325  -14.7820 C   0  0  0  0  0  0  0  0  0  0  0  0
   -8.7224    4.0991  -15.5712 C   0  0  0  0  0  0  0  0  0  0  0  0
   -8.6807    4.4893  -16.9296 C   0  0  0  0  0  0  0  0  0  0  0  0
  -10.1373    4.5380  -17.8336 Cl  0  0  0  0  0  0  0  0  0  0  0  0
   -7.4638    4.8245  -17.4764 C   0  0  0  0  0  0  0  0  0  0  0  0
   -6.3632    4.6893  -16.6714 C   0  0  0  0  0  0  0  0  0  0  0  0
   -6.3445    4.4070  -15.3345 C   0  0  0  0  0  0  0  0  0  0  0  0
   -4.9343    4.5756  -14.9090 C   0  0  0  0  0  0  0  0  0  0  0  0
   -4.3818    5.4223  -16.1265 C   0  0  0  0  0  0  0  0  0  0  0  0
   -5.1082    4.9705  -17.3105 N   0  0  0  0  0  0  0  0  0  0  0  0
   -5.6505    5.7554  -18.4230 C   0  0  0  0  0  0  0  0  0  0  0  0
   -7.0026    5.2322  -18.7334 N   0  0  0  0  0  0  0  0  0  0  0  0
   -7.4604    5.1839  -19.6037 H   0  0  0  0  0  0  0  0  0  0  0  0
   -8.1873    4.3742  -11.0160 C   0  0  0  0  0  0  0  0  0  0  0  0
   -7.9876    5.4976  -10.1991 C   0  0  0  0  0  0  0  0  0  0  0  0
   -8.1481    5.4027   -8.8119 C   0  0  0  0  0  0  0  0  0  0  0  0
   -8.5481    4.1896   -8.2770 C   0  0  0  0  0  0  0  0  0  0  0  0
   -8.7981    3.0958   -9.0942 C   0  0  0  0  0  0  0  0  0  0  0  0
   -8.6000    3.1612  -10.4611 C   0  0  0  0  0  0  0  0  0  0  0  0
   -9.3237    1.9646   -8.2792 C   0  0  0  0  0  0  0  0  0  0  0  0
   -9.1137    2.3645   -6.8581 N   0  0  0  0  0  0  0  0  0  0  0  0
   -8.8264    3.8148   -6.8623 C   0  0  0  0  0  0  0  0  0  0  0  0
   -8.3266    1.8514   -6.4612 H   0  0  0  0  0  0  0  0  0  0  0  0
  1  2  2  0  0  0
  2  3  1  0  0  0
  3 18  1  0  0  0
 18 19  2  0  0  0
 19 20  1  0  0  0
 20 21  2  0  0  0
 21 22  1  0  0  0
 22 23  2  0  0  0
 22 24  1  0  0  0
 24 25  1  0  0  0
 25 26  1  0  0  0
  2  5  1  0  0  0
  5  6  2  0  0  0
  6  7  1  0  0  0
  7  8  1  0  0  0
  7  9  2  0  0  0
  9 10  1  0  0  0
 10 11  2  0  0  0
 11 12  1  0  0  0
 12 13  1  0  0  0
 13 14  1  0  0  0
 14 15  1  0  0  0
 15 16  1  0  0  0
 23 18  1  0  0  0
 11  5  1  0  0  0
 26 21  1  0  0  0
 16  9  1  0  0  0
 14 10  1  0  0  0
  3  4  1  0  0  0
 25 27  1  0  0  0
 16 17  1  0  0  0
M  END
> <minimizedAffinity>
-8.82091

> <minimizedRMSD>
0.35637

$$$$
P19096


 28 31  0  0  0  0  0  0  0  0999 V2000
   -5.0015    5.3116  -17.1239 N   0  0  0  0  0  0  0  0  0  0  0  0
   -4.1750    4.9949  -16.0779 C   0  0  0  0  0  0  0  0  0  0  0  0
   -4.9498    4.5125  -15.0470 C   0  0  0  0  0  0  0  0  0  0  0  0
   -6.2915    4.4670  -15.5096 C   0  0  0  0  0  0  0  0  0  0  0  0
   -7.5214    4.0355  -14.9937 C   0  0  0  0  0  0  0  0  0  0  0  0
   -8.6532    4.0651  -15.7999 C   0  0  0  0  0  0  0  0  0  0  0  0
   -8.5016    4.4976  -17.1007 C   0  0  0  0  0  0  0  0  0  0  0  0
   -9.8378    4.3768  -18.1788 Cl  0  0  0  0  0  0  0  0  0  0  0  0
   -7.3710    4.9970  -17.6456 N   0  0  0  0  0  0  0  0  0  0  0  0
   -6.2977    4.9384  -16.8232 C   0  0  0  0  0  0  0  0  0  0  0  0
   -7.6081    3.4498  -13.6467 C   0  0  0  0  0  0  0  0  0  0  0  0
   -7.5361    2.2934  -13.5138 O   0  0  0  0  0  0  0  0  0  0  0  0
   -7.8192    4.5659  -12.6016 N   0  0  0  0  0  0  0  0  0  0  0  0
   -7.7667    5.4814  -12.9599 H   0  0  0  0  0  0  0  0  0  0  0  0
   -8.0715    4.4887  -11.2358 C   0  0  0  0  0  0  0  0  0  0  0  0
   -8.0082    5.6632  -10.4668 C   0  0  0  0  0  0  0  0  0  0  0  0
   -8.2281    5.6224   -9.0854 C   0  0  0  0  0  0  0  0  0  0  0  0
   -8.5532    4.4067   -8.5100 C   0  0  0  0  0  0  0  0  0  0  0  0
   -8.6538    3.2536   -9.2791 C   0  0  0  0  0  0  0  0  0  0  0  0
   -8.3954    3.2710  -10.6383 C   0  0  0  0  0  0  0  0  0  0  0  0
   -9.0416    2.1038   -8.4106 C   0  0  0  0  0  0  0  0  0  0  0  0
   -9.4304    2.7106   -7.1063 N   0  0  0  0  0  0  0  0  0  0  0  0
   -8.8248    4.0581   -7.0859 C   0  0  0  0  0  0  0  0  0  0  0  0
   -9.0720    2.1495   -6.3336 H   0  0  0  0  0  0  0  0  0  0  0  0
   -4.5668    5.9162  -18.3263 N   0  0  0  0  0  0  0  0  0  0  0  0
   -3.7841    5.3741  -18.6921 H   0  0  0  0  0  0  0  0  0  0  0  0
   -2.6267    7.4431  -18.0370 C   0  0  0  0  0  0  0  0  0  0  0  0
   -4.1355    7.2956  -18.1775 C   0  0  0  0  0  0  0  0  0  0  0  0
 27 28  1  0  0  0
 28 25  1  0  0  0
 25  1  1  0  0  0
  1  2  1  0  0  0
  2  3  2  0  0  0
  3  4  1  0  0  0
  4  5  2  0  0  0
  5 11  1  0  0  0
 11 12  2  0  0  0
 11 13  1  0  0  0
 13 15  1  0  0  0
 15 16  2  0  0  0
 16 17  1  0  0  0
 17 18  2  0  0  0
 18 19  1  0  0  0
 19 20  2  0  0  0
 19 21  1  0  0  0
 21 22  1  0  0  0
 22 23  1  0  0  0
  5  6  1  0  0  0
  6  7  2  0  0  0
  7  8  1  0  0  0
  7  9  1  0  0  0
  9 10  2  0  0  0
 10  1  1  0  0  0
 10  4  1  0  0  0
 20 15  1  0  0  0
 23 18  1  0  0  0
 25 26  1  0  0  0
 13 14  1  0  0  0
 22 24  1  0  0  0
M  END
> <minimizedAffinity>
-7.27874

> <minimizedRMSD>
0.06351

$$$$
P19097


 29 32  0  0  0  0  0  0  0  0999 V2000
   -7.5091    3.5780  -13.8125 C   0  0  0  0  0  0  0  0  0  0  0  0
   -7.3241    2.4345  -13.6748 O   0  0  0  0  0  0  0  0  0  0  0  0
   -7.8074    4.6761  -12.7697 N   0  0  0  0  0  0  0  0  0  0  0  0
   -7.8495    5.5898  -13.1338 H   0  0  0  0  0  0  0  0  0  0  0  0
   -8.0268    4.5846  -11.3971 C   0  0  0  0  0  0  0  0  0  0  0  0
   -7.8441    5.7294  -10.6023 C   0  0  0  0  0  0  0  0  0  0  0  0
   -8.0325    5.6838   -9.2094 C   0  0  0  0  0  0  0  0  0  0  0  0
   -7.8118    6.9014   -8.3672 C   0  0  0  0  0  0  0  0  0  0  0  0
   -8.4848    4.4882   -8.6622 C   0  0  0  0  0  0  0  0  0  0  0  0
   -8.7094    3.3691   -9.4590 C   0  0  0  0  0  0  0  0  0  0  0  0
   -8.4565    3.3893  -10.8204 C   0  0  0  0  0  0  0  0  0  0  0  0
   -9.2232    2.2459   -8.6192 C   0  0  0  0  0  0  0  0  0  0  0  0
   -9.5301    2.8502   -7.2934 N   0  0  0  0  0  0  0  0  0  0  0  0
   -8.7859    4.1252   -7.2444 C   0  0  0  0  0  0  0  0  0  0  0  0
   -9.2233    2.2318   -6.5426 H   0  0  0  0  0  0  0  0  0  0  0  0
   -5.4441    5.1017  -17.8278 N   0  0  0  0  0  0  0  0  0  0  0  0
   -4.4516    4.9694  -16.8851 C   0  0  0  0  0  0  0  0  0  0  0  0
   -5.0346    4.5669  -15.6975 C   0  0  0  0  0  0  0  0  0  0  0  0
   -6.4371    4.4876  -15.9087 C   0  0  0  0  0  0  0  0  0  0  0  0
   -7.5807    4.1344  -15.1750 C   0  0  0  0  0  0  0  0  0  0  0  0
   -8.8311    4.1887  -15.7921 C   0  0  0  0  0  0  0  0  0  0  0  0
   -8.8838    4.5386  -17.1229 C   0  0  0  0  0  0  0  0  0  0  0  0
  -10.3697    4.5071  -17.9787 Cl  0  0  0  0  0  0  0  0  0  0  0  0
   -7.8352    4.9011  -17.8781 N   0  0  0  0  0  0  0  0  0  0  0  0
   -6.6558    4.8423  -17.2366 C   0  0  0  0  0  0  0  0  0  0  0  0
   -5.3525    5.5087  -19.2314 C   0  0  0  0  0  0  0  0  0  0  0  0
   -3.3038    6.0688  -20.3106 C   0  0  0  0  0  0  0  0  0  0  0  0
   -4.1256    4.9681  -19.8250 N   0  0  0  0  0  0  0  0  0  0  0  0
   -3.6090    4.4415  -19.1205 H   0  0  0  0  0  0  0  0  0  0  0  0
 27 28  1  0  0  0
 28 26  1  0  0  0
 26 16  1  0  0  0
 16 17  1  0  0  0
 17 18  2  0  0  0
 18 19  1  0  0  0
 19 20  2  0  0  0
 20  1  1  0  0  0
  1  2  2  0  0  0
  1  3  1  0  0  0
  3  5  1  0  0  0
  5  6  2  0  0  0
  6  7  1  0  0  0
  7  8  1  0  0  0
  7  9  2  0  0  0
  9 10  1  0  0  0
 10 11  2  0  0  0
 10 12  1  0  0  0
 12 13  1  0  0  0
 13 14  1  0  0  0
 20 21  1  0  0  0
 21 22  2  0  0  0
 22 23  1  0  0  0
 22 24  1  0  0  0
 24 25  2  0  0  0
 25 16  1  0  0  0
 25 19  1  0  0  0
 11  5  1  0  0  0
 14  9  1  0  0  0
 28 29  1  0  0  0
  3  4  1  0  0  0
 13 15  1  0  0  0
M  END
> <minimizedAffinity>
-8.16205

> <minimizedRMSD>
0.26481

$$$$
P19100


 30 34  0  0  0  0  0  0  0  0999 V2000
   -7.4206    4.5032  -15.5740 C   0  0  0  0  0  0  0  0  0  0  0  0
   -8.7508    4.3318  -15.9522 C   0  0  0  0  0  0  0  0  0  0  0  0
   -9.0361    4.3493  -17.3106 C   0  0  0  0  0  0  0  0  0  0  0  0
  -10.6531    4.2779  -17.8725 Cl  0  0  0  0  0  0  0  0  0  0  0  0
   -8.1230    4.4884  -18.2893 N   0  0  0  0  0  0  0  0  0  0  0  0
   -6.8625    4.6065  -17.8916 C   0  0  0  0  0  0  0  0  0  0  0  0
   -6.4653    4.6519  -16.5675 C   0  0  0  0  0  0  0  0  0  0  0  0
   -4.9873    4.8645  -16.5135 C   0  0  0  0  0  0  0  0  0  0  0  0
   -4.6715    5.2337  -17.9995 C   0  0  0  0  0  0  0  0  0  0  0  0
   -3.3578    4.6236  -18.4863 C   0  0  0  0  0  0  0  0  0  0  0  0
   -2.8018    5.6619  -19.4416 C   0  0  0  0  0  0  0  0  0  0  0  0
   -3.1223    6.9433  -18.7943 N   0  0  0  0  0  0  0  0  0  0  0  0
   -4.4894    6.7500  -18.2623 C   0  0  0  0  0  0  0  0  0  0  0  0
   -5.7811    4.6889  -18.7828 N   0  0  0  0  0  0  0  0  0  0  0  0
   -3.1023    7.7057  -19.4717 H   0  0  0  0  0  0  0  0  0  0  0  0
   -5.7712    4.4340  -19.7337 H   0  0  0  0  0  0  0  0  0  0  0  0
   -6.0186    5.1512  -13.9077 O   0  0  0  0  0  0  0  0  0  0  0  0
   -7.0645    4.6861  -14.1459 C   0  0  0  0  0  0  0  0  0  0  0  0
   -8.1970    4.2202  -13.1951 N   0  0  0  0  0  0  0  0  0  0  0  0
   -8.9594    3.7875  -13.6431 H   0  0  0  0  0  0  0  0  0  0  0  0
   -8.3117    4.3147  -11.8044 C   0  0  0  0  0  0  0  0  0  0  0  0
   -8.0555    5.5215  -11.1343 C   0  0  0  0  0  0  0  0  0  0  0  0
   -8.1414    5.6053   -9.7390 C   0  0  0  0  0  0  0  0  0  0  0  0
   -8.4606    4.4630   -9.0300 C   0  0  0  0  0  0  0  0  0  0  0  0
   -8.7179    3.2664   -9.6854 C   0  0  0  0  0  0  0  0  0  0  0  0
   -8.6662    3.1776  -11.0711 C   0  0  0  0  0  0  0  0  0  0  0  0
   -9.0436    2.2161   -8.6771 C   0  0  0  0  0  0  0  0  0  0  0  0
   -8.7483    2.8146   -7.3449 N   0  0  0  0  0  0  0  0  0  0  0  0
   -8.6110    4.2700   -7.5607 C   0  0  0  0  0  0  0  0  0  0  0  0
   -7.8808    2.4304   -6.9704 H   0  0  0  0  0  0  0  0  0  0  0  0
 17 18  2  0  0  0
 18 19  1  0  0  0
 19 21  1  0  0  0
 21 22  2  0  0  0
 22 23  1  0  0  0
 23 24  2  0  0  0
 24 25  1  0  0  0
 25 26  2  0  0  0
 25 27  1  0  0  0
 27 28  1  0  0  0
 28 29  1  0  0  0
 18  1  1  0  0  0
  1  2  2  0  0  0
  2  3  1  0  0  0
  3  4  1  0  0  0
  3  5  2  0  0  0
  5  6  1  0  0  0
  6  7  2  0  0  0
  7  8  1  0  0  0
  9  8  1  0  0  0
  9 10  1  0  0  0
 10 11  1  0  0  0
 11 12  1  0  0  0
 12 13  1  0  0  0
  9 14  1  0  0  0
 26 21  1  0  0  0
  7  1  1  0  0  0
 13  9  1  0  0  0
 29 24  1  0  0  0
 14  6  1  0  0  0
 19 20  1  0  0  0
 28 30  1  0  0  0
 12 15  1  0  0  0
 14 16  1  0  0  0
M  END
> <minimizedAffinity>
-8.94557

> <minimizedRMSD>
0.78062

$$$$
P19102


 27 30  0  0  0  0  0  0  0  0999 V2000
   -7.5049    3.5748  -13.7574 C   0  0  0  0  0  0  0  0  0  0  0  0
   -7.3726    2.4225  -13.6345 O   0  0  0  0  0  0  0  0  0  0  0  0
   -7.7495    4.6722  -12.6999 N   0  0  0  0  0  0  0  0  0  0  0  0
   -7.7501    5.5914  -13.0525 H   0  0  0  0  0  0  0  0  0  0  0  0
   -5.3842    5.0455  -17.7644 N   0  0  0  0  0  0  0  0  0  0  0  0
   -4.3988    4.9134  -16.8179 C   0  0  0  0  0  0  0  0  0  0  0  0
   -4.9977    4.5547  -15.6232 C   0  0  0  0  0  0  0  0  0  0  0  0
   -6.4010    4.4878  -15.8425 C   0  0  0  0  0  0  0  0  0  0  0  0
   -7.5535    4.1445  -15.1163 C   0  0  0  0  0  0  0  0  0  0  0  0
   -8.7973    4.1925  -15.7489 C   0  0  0  0  0  0  0  0  0  0  0  0
   -8.8344    4.5330  -17.0833 C   0  0  0  0  0  0  0  0  0  0  0  0
  -10.3128    4.4950  -17.9520 Cl  0  0  0  0  0  0  0  0  0  0  0  0
   -7.7766    4.8859  -17.8341 N   0  0  0  0  0  0  0  0  0  0  0  0
   -6.6047    4.8257  -17.1781 C   0  0  0  0  0  0  0  0  0  0  0  0
   -5.2600    5.3510  -19.1861 C   0  0  0  0  0  0  0  0  0  0  0  0
   -3.3331    6.0964  -20.2790 C   0  0  0  0  0  0  0  0  0  0  0  0
   -3.9666    4.9783  -19.6695 O   0  0  0  0  0  0  0  0  0  0  0  0
   -7.9696    4.5737  -11.3270 C   0  0  0  0  0  0  0  0  0  0  0  0
   -7.7451    5.7024  -10.5212 C   0  0  0  0  0  0  0  0  0  0  0  0
   -7.9506    5.6431   -9.1375 C   0  0  0  0  0  0  0  0  0  0  0  0
   -8.4386    4.4666   -8.5961 C   0  0  0  0  0  0  0  0  0  0  0  0
   -8.7101    3.3667   -9.4003 C   0  0  0  0  0  0  0  0  0  0  0  0
   -8.4497    3.3897  -10.7610 C   0  0  0  0  0  0  0  0  0  0  0  0
   -9.2831    2.2675   -8.5669 C   0  0  0  0  0  0  0  0  0  0  0  0
   -9.5452    2.8763   -7.2315 N   0  0  0  0  0  0  0  0  0  0  0  0
   -8.7427    4.1144   -7.1795 C   0  0  0  0  0  0  0  0  0  0  0  0
   -9.2590    2.2378   -6.4893 H   0  0  0  0  0  0  0  0  0  0  0  0
 16 17  1  0  0  0
 17 15  1  0  0  0
 15  5  1  0  0  0
  5  6  1  0  0  0
  6  7  2  0  0  0
  7  8  1  0  0  0
  8  9  2  0  0  0
  9  1  1  0  0  0
  1  2  2  0  0  0
  1  3  1  0  0  0
  3 18  1  0  0  0
 18 19  2  0  0  0
 19 20  1  0  0  0
 20 21  2  0  0  0
 21 22  1  0  0  0
 22 23  2  0  0  0
 22 24  1  0  0  0
 24 25  1  0  0  0
 25 26  1  0  0  0
  9 10  1  0  0  0
 10 11  2  0  0  0
 11 12  1  0  0  0
 11 13  1  0  0  0
 13 14  2  0  0  0
 14  5  1  0  0  0
 14  8  1  0  0  0
 23 18  1  0  0  0
 26 21  1  0  0  0
  3  4  1  0  0  0
 25 27  1  0  0  0
M  END
> <minimizedAffinity>
-7.96257

> <minimizedRMSD>
0.24637

$$$$
P19103


 29 32  0  0  0  0  0  0  0  0999 V2000
   -5.4864    5.2827  -17.7465 N   0  0  0  0  0  0  0  0  0  0  0  0
   -4.4837    5.0495  -16.8414 C   0  0  0  0  0  0  0  0  0  0  0  0
   -5.0630    4.5693  -15.6824 C   0  0  0  0  0  0  0  0  0  0  0  0
   -6.4680    4.4981  -15.9024 C   0  0  0  0  0  0  0  0  0  0  0  0
   -7.6061    4.1103  -15.1810 C   0  0  0  0  0  0  0  0  0  0  0  0
   -8.8560    4.1691  -15.7960 C   0  0  0  0  0  0  0  0  0  0  0  0
   -8.9153    4.5526  -17.1182 C   0  0  0  0  0  0  0  0  0  0  0  0
  -10.4095    4.5213  -17.9608 Cl  0  0  0  0  0  0  0  0  0  0  0  0
   -7.8749    4.9638  -17.8605 N   0  0  0  0  0  0  0  0  0  0  0  0
   -6.6941    4.9148  -17.2125 C   0  0  0  0  0  0  0  0  0  0  0  0
   -7.5161    3.5612  -13.8175 C   0  0  0  0  0  0  0  0  0  0  0  0
   -7.2971    2.4252  -13.6707 O   0  0  0  0  0  0  0  0  0  0  0  0
   -7.8342    4.6611  -12.7820 N   0  0  0  0  0  0  0  0  0  0  0  0
   -7.9063    5.5695  -13.1546 H   0  0  0  0  0  0  0  0  0  0  0  0
   -8.0358    4.5774  -11.4073 C   0  0  0  0  0  0  0  0  0  0  0  0
   -7.7924    5.7117  -10.6144 C   0  0  0  0  0  0  0  0  0  0  0  0
   -7.9709    5.6629   -9.2269 C   0  0  0  0  0  0  0  0  0  0  0  0
   -8.4413    4.4879   -8.6674 C   0  0  0  0  0  0  0  0  0  0  0  0
   -8.7227    3.3802   -9.4579 C   0  0  0  0  0  0  0  0  0  0  0  0
   -8.5013    3.3975  -10.8245 C   0  0  0  0  0  0  0  0  0  0  0  0
   -9.2507    2.2760   -8.6029 C   0  0  0  0  0  0  0  0  0  0  0  0
   -9.5041    2.8951   -7.2708 N   0  0  0  0  0  0  0  0  0  0  0  0
   -8.7152    4.1435   -7.2427 C   0  0  0  0  0  0  0  0  0  0  0  0
   -9.2012    2.2680   -6.5255 H   0  0  0  0  0  0  0  0  0  0  0  0
   -5.3101    5.8835  -19.0406 N   0  0  0  0  0  0  0  0  0  0  0  0
   -4.3472    6.2095  -19.1246 H   0  0  0  0  0  0  0  0  0  0  0  0
   -5.5365    8.2209  -18.7684 C   0  0  0  0  0  0  0  0  0  0  0  0
   -6.2165    7.0216  -19.2437 N   0  0  0  0  0  0  0  0  0  0  0  0
   -6.4372    7.1173  -20.2349 H   0  0  0  0  0  0  0  0  0  0  0  0
 27 28  1  0  0  0
 28 25  1  0  0  0
 25  1  1  0  0  0
  1  2  1  0  0  0
  2  3  2  0  0  0
  3  4  1  0  0  0
  4  5  2  0  0  0
  5 11  1  0  0  0
 11 12  2  0  0  0
 11 13  1  0  0  0
 13 15  1  0  0  0
 15 16  2  0  0  0
 16 17  1  0  0  0
 17 18  2  0  0  0
 18 19  1  0  0  0
 19 20  2  0  0  0
 19 21  1  0  0  0
 21 22  1  0  0  0
 22 23  1  0  0  0
  5  6  1  0  0  0
  6  7  2  0  0  0
  7  8  1  0  0  0
  7  9  1  0  0  0
  9 10  2  0  0  0
 10  1  1  0  0  0
 10  4  1  0  0  0
 20 15  1  0  0  0
 23 18  1  0  0  0
 28 29  1  0  0  0
 25 26  1  0  0  0
 13 14  1  0  0  0
 22 24  1  0  0  0
M  END
> <minimizedAffinity>
-8.10091

> <minimizedRMSD>
0.44729

$$$$
P19104


 31 35  0  0  0  0  0  0  0  0999 V2000
   -4.0207    7.8017  -17.4723 C   0  0  0  0  0  0  0  0  0  0  0  0
   -5.3772    7.1322  -17.7417 C   0  0  0  0  0  0  0  0  0  0  0  0
   -5.7771    7.3627  -19.2101 C   0  0  0  0  0  0  0  0  0  0  0  0
   -5.0043    6.4779  -20.1836 C   0  0  0  0  0  0  0  0  0  0  0  0
   -5.1976    5.0725  -19.8480 N   0  0  0  0  0  0  0  0  0  0  0  0
   -4.7081    4.7952  -18.5000 C   0  0  0  0  0  0  0  0  0  0  0  0
   -5.4038    5.6060  -17.4055 C   0  0  0  0  0  0  0  0  0  0  0  0
   -4.8133    5.2750  -16.0069 C   0  0  0  0  0  0  0  0  0  0  0  0
   -5.9223    5.6040  -14.9999 C   0  0  0  0  0  0  0  0  0  0  0  0
   -7.1208    5.1906  -15.7890 C   0  0  0  0  0  0  0  0  0  0  0  0
   -8.4128    4.9345  -15.3664 C   0  0  0  0  0  0  0  0  0  0  0  0
   -9.3442    4.4725  -16.2902 C   0  0  0  0  0  0  0  0  0  0  0  0
   -8.9356    4.3792  -17.6152 C   0  0  0  0  0  0  0  0  0  0  0  0
  -10.0364    3.8927  -18.8377 Cl  0  0  0  0  0  0  0  0  0  0  0  0
   -7.7109    4.7276  -18.0748 N   0  0  0  0  0  0  0  0  0  0  0  0
   -6.8313    5.1193  -17.1419 C   0  0  0  0  0  0  0  0  0  0  0  0
   -4.6868    4.4948  -20.5158 H   0  0  0  0  0  0  0  0  0  0  0  0
   -8.7951    5.3355  -13.9955 C   0  0  0  0  0  0  0  0  0  0  0  0
   -9.4392    6.3023  -13.8832 O   0  0  0  0  0  0  0  0  0  0  0  0
   -8.1669    4.4233  -12.9240 N   0  0  0  0  0  0  0  0  0  0  0  0
   -7.5975    3.7027  -13.2786 H   0  0  0  0  0  0  0  0  0  0  0  0
   -8.2735    4.4523  -11.5361 C   0  0  0  0  0  0  0  0  0  0  0  0
   -7.9722    5.6192  -10.8117 C   0  0  0  0  0  0  0  0  0  0  0  0
   -8.0224    5.6314   -9.4142 C   0  0  0  0  0  0  0  0  0  0  0  0
   -8.3834    4.4661   -8.7661 C   0  0  0  0  0  0  0  0  0  0  0  0
   -8.6845    3.3118   -9.4816 C   0  0  0  0  0  0  0  0  0  0  0  0
   -8.6388    3.2863  -10.8656 C   0  0  0  0  0  0  0  0  0  0  0  0
   -8.9894    2.2087   -8.5242 C   0  0  0  0  0  0  0  0  0  0  0  0
   -9.1964    2.8767   -7.2115 N   0  0  0  0  0  0  0  0  0  0  0  0
   -8.5017    4.1784   -7.3078 C   0  0  0  0  0  0  0  0  0  0  0  0
   -8.7958    2.3150   -6.4602 H   0  0  0  0  0  0  0  0  0  0  0  0
  2  1  1  0  0  0
  2  3  1  0  0  0
  3  4  1  0  0  0
  4  5  1  0  0  0
  5  6  1  0  0  0
  7  6  1  0  0  0
  7  8  1  0  0  0
  8  9  1  0  0  0
  9 10  1  0  0  0
 10 11  2  0  0  0
 11 18  1  0  0  0
 18 19  2  0  0  0
 18 20  1  0  0  0
 20 22  1  0  0  0
 22 23  2  0  0  0
 23 24  1  0  0  0
 24 25  2  0  0  0
 25 26  1  0  0  0
 26 27  2  0  0  0
 26 28  1  0  0  0
 28 29  1  0  0  0
 29 30  1  0  0  0
 11 12  1  0  0  0
 12 13  2  0  0  0
 13 14  1  0  0  0
 13 15  1  0  0  0
 15 16  2  0  0  0
  7  2  1  0  0  0
 16 10  1  0  0  0
 16  7  1  0  0  0
 27 22  1  0  0  0
 30 25  1  0  0  0
  5 17  1  0  0  0
 20 21  1  0  0  0
 29 31  1  0  0  0
M  END
> <minimizedAffinity>
-9.12515

> <minimizedRMSD>
0.73894

$$$$
P19105


 31 35  0  0  0  0  0  0  0  0999 V2000
   -7.6778    4.2286  -15.3300 C   0  0  0  0  0  0  0  0  0  0  0  0
   -8.9421    4.2088  -15.9161 C   0  0  0  0  0  0  0  0  0  0  0  0
   -9.0335    4.4987  -17.2615 C   0  0  0  0  0  0  0  0  0  0  0  0
  -10.5422    4.3556  -18.0683 Cl  0  0  0  0  0  0  0  0  0  0  0  0
   -8.0144    4.8593  -18.0638 N   0  0  0  0  0  0  0  0  0  0  0  0
   -6.8122    4.8499  -17.4503 C   0  0  0  0  0  0  0  0  0  0  0  0
   -6.5608    4.5733  -16.1080 C   0  0  0  0  0  0  0  0  0  0  0  0
   -5.1537    4.6620  -15.9265 C   0  0  0  0  0  0  0  0  0  0  0  0
   -4.5898    4.9318  -17.1587 C   0  0  0  0  0  0  0  0  0  0  0  0
   -5.6013    5.0309  -18.0819 N   0  0  0  0  0  0  0  0  0  0  0  0
   -7.1893    2.5953  -13.8156 O   0  0  0  0  0  0  0  0  0  0  0  0
   -7.5301    3.7007  -13.9629 C   0  0  0  0  0  0  0  0  0  0  0  0
   -7.9444    4.7659  -12.9270 N   0  0  0  0  0  0  0  0  0  0  0  0
   -8.1188    5.6594  -13.3018 H   0  0  0  0  0  0  0  0  0  0  0  0
   -8.1117    4.6696  -11.5489 C   0  0  0  0  0  0  0  0  0  0  0  0
   -7.8840    5.8063  -10.7564 C   0  0  0  0  0  0  0  0  0  0  0  0
   -8.0078    5.7394   -9.3642 C   0  0  0  0  0  0  0  0  0  0  0  0
   -8.3988    4.5393   -8.7961 C   0  0  0  0  0  0  0  0  0  0  0  0
   -8.6792    3.4323   -9.5857 C   0  0  0  0  0  0  0  0  0  0  0  0
   -8.5198    3.4705  -10.9609 C   0  0  0  0  0  0  0  0  0  0  0  0
   -9.1788    2.3183   -8.7303 C   0  0  0  0  0  0  0  0  0  0  0  0
   -8.9377    2.7488   -7.3231 N   0  0  0  0  0  0  0  0  0  0  0  0
   -8.6273    4.1931   -7.3652 C   0  0  0  0  0  0  0  0  0  0  0  0
   -8.1520    2.2323   -6.9276 H   0  0  0  0  0  0  0  0  0  0  0  0
   -5.4685    5.1546  -19.5015 N   0  0  0  0  0  0  0  0  0  0  0  0
   -6.3787    5.4071  -19.8864 H   0  0  0  0  0  0  0  0  0  0  0  0
   -4.4911    6.1626  -19.9338 C   0  0  0  0  0  0  0  0  0  0  0  0
   -4.8216    6.5858  -21.3844 C   0  0  0  0  0  0  0  0  0  0  0  0
   -5.6890    7.6633  -20.8456 N   0  0  0  0  0  0  0  0  0  0  0  0
   -4.9479    7.5955  -19.5690 C   0  0  0  0  0  0  0  0  0  0  0  0
   -6.6745    7.4106  -20.7721 H   0  0  0  0  0  0  0  0  0  0  0  0
 11 12  2  0  0  0
 12 13  1  0  0  0
 13 15  1  0  0  0
 15 16  2  0  0  0
 16 17  1  0  0  0
 17 18  2  0  0  0
 18 19  1  0  0  0
 19 20  2  0  0  0
 19 21  1  0  0  0
 21 22  1  0  0  0
 22 23  1  0  0  0
 12  1  1  0  0  0
  1  2  2  0  0  0
  2  3  1  0  0  0
  3  4  1  0  0  0
  3  5  2  0  0  0
  5  6  1  0  0  0
  6  7  2  0  0  0
  7  8  1  0  0  0
  8  9  2  0  0  0
  9 10  1  0  0  0
 10 25  1  0  0  0
 25 27  1  0  0  0
 27 28  1  0  0  0
 28 29  1  0  0  0
 29 30  1  0  0  0
 20 15  1  0  0  0
  7  1  1  0  0  0
 30 27  1  0  0  0
 23 18  1  0  0  0
 10  6  1  0  0  0
 13 14  1  0  0  0
 22 24  1  0  0  0
 25 26  1  0  0  0
 29 31  1  0  0  0
M  END
> <minimizedAffinity>
-8.65234

> <minimizedRMSD>
0.53847

$$$$
P19106


 29 33  0  0  0  0  0  0  0  0999 V2000
   -8.2362    4.8243  -15.2256 C   0  0  0  0  0  0  0  0  0  0  0  0
   -9.1207    4.4151  -16.2192 C   0  0  0  0  0  0  0  0  0  0  0  0
   -8.6277    4.3243  -17.5152 C   0  0  0  0  0  0  0  0  0  0  0  0
   -9.6751    3.9723  -18.8221 Cl  0  0  0  0  0  0  0  0  0  0  0  0
   -7.3555    4.5892  -17.8869 N   0  0  0  0  0  0  0  0  0  0  0  0
   -6.5275    4.9550  -16.9037 C   0  0  0  0  0  0  0  0  0  0  0  0
   -6.9133    5.0703  -15.5741 C   0  0  0  0  0  0  0  0  0  0  0  0
   -5.7813    5.5589  -14.7302 C   0  0  0  0  0  0  0  0  0  0  0  0
   -4.5818    5.2801  -15.6484 C   0  0  0  0  0  0  0  0  0  0  0  0
   -5.1037    5.4192  -17.1056 C   0  0  0  0  0  0  0  0  0  0  0  0
   -4.2455    4.6364  -18.0934 C   0  0  0  0  0  0  0  0  0  0  0  0
   -3.4758    5.6742  -18.9029 C   0  0  0  0  0  0  0  0  0  0  0  0
   -3.6438    6.9498  -18.1966 N   0  0  0  0  0  0  0  0  0  0  0  0
   -5.0071    6.8472  -17.6481 C   0  0  0  0  0  0  0  0  0  0  0  0
   -3.5655    7.7379  -18.8394 H   0  0  0  0  0  0  0  0  0  0  0  0
   -9.5066    6.0447  -13.7947 O   0  0  0  0  0  0  0  0  0  0  0  0
   -8.7163    5.1866  -13.8662 C   0  0  0  0  0  0  0  0  0  0  0  0
   -8.0173    4.3711  -12.7519 N   0  0  0  0  0  0  0  0  0  0  0  0
   -7.3252    3.7474  -13.0699 H   0  0  0  0  0  0  0  0  0  0  0  0
   -8.2087    4.3762  -11.3688 C   0  0  0  0  0  0  0  0  0  0  0  0
   -7.9273    5.5259  -10.6105 C   0  0  0  0  0  0  0  0  0  0  0  0
   -8.0633    5.5245   -9.2184 C   0  0  0  0  0  0  0  0  0  0  0  0
   -8.4720    4.3572   -8.6036 C   0  0  0  0  0  0  0  0  0  0  0  0
   -8.7676    3.2217   -9.3482 C   0  0  0  0  0  0  0  0  0  0  0  0
   -8.6521    3.2142  -10.7323 C   0  0  0  0  0  0  0  0  0  0  0  0
   -9.2114    2.1340   -8.4284 C   0  0  0  0  0  0  0  0  0  0  0  0
   -8.9352    2.6240   -7.0485 N   0  0  0  0  0  0  0  0  0  0  0  0
   -8.6963    4.0781   -7.1582 C   0  0  0  0  0  0  0  0  0  0  0  0
   -8.1107    2.1593   -6.6682 H   0  0  0  0  0  0  0  0  0  0  0  0
 16 17  2  0  0  0
 17 18  1  0  0  0
 18 20  1  0  0  0
 20 21  2  0  0  0
 21 22  1  0  0  0
 22 23  2  0  0  0
 23 24  1  0  0  0
 24 25  2  0  0  0
 24 26  1  0  0  0
 26 27  1  0  0  0
 27 28  1  0  0  0
 17  1  1  0  0  0
  1  2  2  0  0  0
  2  3  1  0  0  0
  3  4  1  0  0  0
  3  5  2  0  0  0
  5  6  1  0  0  0
  6  7  2  0  0  0
  7  8  1  0  0  0
  8  9  1  0  0  0
 10  9  1  0  0  0
 10 11  1  0  0  0
 11 12  1  0  0  0
 12 13  1  0  0  0
 13 14  1  0  0  0
 25 20  1  0  0  0
  7  1  1  0  0  0
 14 10  1  0  0  0
 28 23  1  0  0  0
 10  6  1  0  0  0
 18 19  1  0  0  0
 27 29  1  0  0  0
 13 15  1  0  0  0
M  END
> <minimizedAffinity>
-8.93926

> <minimizedRMSD>
1.01869

$$$$
P19107


 29 33  0  0  0  0  0  0  0  0999 V2000
   -7.6687    4.1618  -15.1839 C   0  0  0  0  0  0  0  0  0  0  0  0
   -8.9115    4.0946  -15.8123 C   0  0  0  0  0  0  0  0  0  0  0  0
   -8.9885    4.4817  -17.1363 C   0  0  0  0  0  0  0  0  0  0  0  0
  -10.4518    4.3428  -18.0122 Cl  0  0  0  0  0  0  0  0  0  0  0  0
   -7.9576    4.9807  -17.8462 N   0  0  0  0  0  0  0  0  0  0  0  0
   -6.7797    5.0312  -17.2095 C   0  0  0  0  0  0  0  0  0  0  0  0
   -6.5784    4.6366  -15.8932 C   0  0  0  0  0  0  0  0  0  0  0  0
   -5.1556    4.8207  -15.4954 C   0  0  0  0  0  0  0  0  0  0  0  0
   -4.4625    4.9565  -16.8685 C   0  0  0  0  0  0  0  0  0  0  0  0
   -5.5084    5.5255  -17.8701 C   0  0  0  0  0  0  0  0  0  0  0  0
   -5.4859    7.0659  -17.9452 C   0  0  0  0  0  0  0  0  0  0  0  0
   -4.8699    7.5651  -19.2549 C   0  0  0  0  0  0  0  0  0  0  0  0
   -3.7292    6.7849  -19.5851 O   0  0  0  0  0  0  0  0  0  0  0  0
   -4.0748    5.4520  -19.9618 C   0  0  0  0  0  0  0  0  0  0  0  0
   -5.3438    4.9518  -19.2816 C   0  0  0  0  0  0  0  0  0  0  0  0
   -7.3966    2.4490  -13.6921 O   0  0  0  0  0  0  0  0  0  0  0  0
   -7.5781    3.5937  -13.8200 C   0  0  0  0  0  0  0  0  0  0  0  0
   -7.8544    4.6868  -12.7659 N   0  0  0  0  0  0  0  0  0  0  0  0
   -7.8975    5.6029  -13.1238 H   0  0  0  0  0  0  0  0  0  0  0  0
   -8.0529    4.5880  -11.3897 C   0  0  0  0  0  0  0  0  0  0  0  0
   -7.8413    5.7259  -10.5938 C   0  0  0  0  0  0  0  0  0  0  0  0
   -8.0054    5.6665   -9.2049 C   0  0  0  0  0  0  0  0  0  0  0  0
   -8.4298    4.4751   -8.6428 C   0  0  0  0  0  0  0  0  0  0  0  0
   -8.7030    3.3691   -9.4360 C   0  0  0  0  0  0  0  0  0  0  0  0
   -8.4932    3.3961  -10.8072 C   0  0  0  0  0  0  0  0  0  0  0  0
   -9.2576    2.2729   -8.5893 C   0  0  0  0  0  0  0  0  0  0  0  0
   -9.0733    2.7129   -7.1763 N   0  0  0  0  0  0  0  0  0  0  0  0
   -8.6990    4.1411   -7.2159 C   0  0  0  0  0  0  0  0  0  0  0  0
   -8.3331    2.1687   -6.7333 H   0  0  0  0  0  0  0  0  0  0  0  0
 16 17  2  0  0  0
 17 18  1  0  0  0
 18 20  1  0  0  0
 20 21  2  0  0  0
 21 22  1  0  0  0
 22 23  2  0  0  0
 23 24  1  0  0  0
 24 25  2  0  0  0
 24 26  1  0  0  0
 26 27  1  0  0  0
 27 28  1  0  0  0
 17  1  1  0  0  0
  1  2  2  0  0  0
  2  3  1  0  0  0
  3  4  1  0  0  0
  3  5  2  0  0  0
  5  6  1  0  0  0
  6  7  2  0  0  0
  7  8  1  0  0  0
  8  9  1  0  0  0
  9 10  1  0  0  0
 10 11  1  0  0  0
 11 12  1  0  0  0
 12 13  1  0  0  0
 13 14  1  0  0  0
 14 15  1  0  0  0
 25 20  1  0  0  0
  7  1  1  0  0  0
 15 10  1  0  0  0
 28 23  1  0  0  0
 10  6  1  0  0  0
 18 19  1  0  0  0
 27 29  1  0  0  0
M  END
> <minimizedAffinity>
-9.56133

> <minimizedRMSD>
0.24704

$$$$
P19129


 36 40  0  0  0  0  0  0  0  0999 V2000
   -4.4549    5.2949  -18.3988 C   0  0  0  0  0  0  0  0  0  0  0  0
   -5.8334    4.9402  -19.3100 S   0  0  0  0  0  0  0  0  0  0  0  0
   -6.8269    4.7616  -17.9044 C   0  0  0  0  0  0  0  0  0  0  0  0
   -8.2099    4.4719  -17.8362 C   0  0  0  0  0  0  0  0  0  0  0  0
   -8.8467    4.4743  -16.5850 C   0  0  0  0  0  0  0  0  0  0  0  0
   -8.1070    4.7144  -15.4369 C   0  0  0  0  0  0  0  0  0  0  0  0
   -6.7285    4.9336  -15.5021 C   0  0  0  0  0  0  0  0  0  0  0  0
   -6.0711    4.9776  -16.7479 C   0  0  0  0  0  0  0  0  0  0  0  0
   -4.7022    5.2574  -17.0538 C   0  0  0  0  0  0  0  0  0  0  0  0
   -3.5099    5.5311  -15.8516 Cl  0  0  0  0  0  0  0  0  0  0  0  0
   -3.7418    7.1202  -20.8856 O   0  0  0  0  0  0  0  0  0  0  0  0
   -3.0076    6.5700  -20.1776 C   0  0  0  0  0  0  0  0  0  0  0  0
   -3.2778    5.6500  -18.9984 N   0  0  0  0  0  0  0  0  0  0  0  0
   -2.4742    5.2430  -18.6011 H   0  0  0  0  0  0  0  0  0  0  0  0
   -1.6530    6.6909  -20.2476 O   0  0  0  0  0  0  0  0  0  0  0  0
   -1.1955    7.4074  -21.4053 C   0  0  0  0  0  0  0  0  0  0  0  0
   -0.4668    6.4527  -22.3204 C   0  0  0  0  0  0  0  0  0  0  0  0
    0.9317    6.4785  -22.4272 C   0  0  0  0  0  0  0  0  0  0  0  0
    1.5948    5.6030  -23.2889 C   0  0  0  0  0  0  0  0  0  0  0  0
    0.8675    4.6998  -24.0609 C   0  0  0  0  0  0  0  0  0  0  0  0
   -0.5230    4.6753  -23.9774 C   0  0  0  0  0  0  0  0  0  0  0  0
   -1.1879    5.5508  -23.1171 C   0  0  0  0  0  0  0  0  0  0  0  0
   -8.7280    4.9820  -14.1230 C   0  0  0  0  0  0  0  0  0  0  0  0
   -9.5141    5.8397  -14.0353 O   0  0  0  0  0  0  0  0  0  0  0  0
   -8.1058    4.0811  -13.0367 N   0  0  0  0  0  0  0  0  0  0  0  0
   -7.5151    3.3716  -13.3785 H   0  0  0  0  0  0  0  0  0  0  0  0
   -8.2430    4.1078  -11.6576 C   0  0  0  0  0  0  0  0  0  0  0  0
   -8.0914    5.3243  -10.9697 C   0  0  0  0  0  0  0  0  0  0  0  0
   -8.1710    5.3690   -9.5758 C   0  0  0  0  0  0  0  0  0  0  0  0
   -8.5070    4.2053   -8.9115 C   0  0  0  0  0  0  0  0  0  0  0  0
   -8.7049    3.0128   -9.6035 C   0  0  0  0  0  0  0  0  0  0  0  0
   -8.5029    2.9272  -10.9694 C   0  0  0  0  0  0  0  0  0  0  0  0
   -9.1795    1.9675   -8.6488 C   0  0  0  0  0  0  0  0  0  0  0  0
   -9.5253    2.7073   -7.4039 N   0  0  0  0  0  0  0  0  0  0  0  0
   -8.7480    3.9624   -7.4602 C   0  0  0  0  0  0  0  0  0  0  0  0
   -9.2640    2.1630   -6.5818 H   0  0  0  0  0  0  0  0  0  0  0  0
 11 12  2  0  0  0
 12 13  1  0  0  0
 13  1  1  0  0  0
  1  2  1  0  0  0
  2  3  1  0  0  0
  3  4  2  0  0  0
  4  5  1  0  0  0
  5  6  2  0  0  0
  6 23  1  0  0  0
 23 24  2  0  0  0
 23 25  1  0  0  0
 25 27  1  0  0  0
 27 28  2  0  0  0
 28 29  1  0  0  0
 29 30  2  0  0  0
 30 31  1  0  0  0
 31 32  2  0  0  0
 31 33  1  0  0  0
 33 34  1  0  0  0
 34 35  1  0  0  0
  6  7  1  0  0  0
  7  8  2  0  0  0
  8  9  1  0  0  0
  9 10  1  0  0  0
 12 15  1  0  0  0
 15 16  1  0  0  0
 16 17  1  0  0  0
 17 18  2  0  0  0
 18 19  1  0  0  0
 19 20  2  0  0  0
 20 21  1  0  0  0
 21 22  2  0  0  0
  9  1  2  0  0  0
 22 17  1  0  0  0
  8  3  1  0  0  0
 32 27  1  0  0  0
 35 30  1  0  0  0
 13 14  1  0  0  0
 25 26  1  0  0  0
 34 36  1  0  0  0
M  END
> <minimizedAffinity>
-9.22883

> <minimizedRMSD>
1.61233

$$$$
P19136


 27 31  0  0  0  0  0  0  0  0999 V2000
   -9.4302    5.6537  -13.9717 O   0  0  0  0  0  0  0  0  0  0  0  0
   -8.4912    4.9581  -13.9708 C   0  0  0  0  0  0  0  0  0  0  0  0
   -7.8243    4.1732  -12.8137 N   0  0  0  0  0  0  0  0  0  0  0  0
   -7.0790    3.5905  -13.0865 H   0  0  0  0  0  0  0  0  0  0  0  0
   -7.7169    4.7312  -15.2256 C   0  0  0  0  0  0  0  0  0  0  0  0
   -6.4264    5.1282  -15.2006 C   0  0  0  0  0  0  0  0  0  0  0  0
   -5.7001    5.1952  -16.4533 C   0  0  0  0  0  0  0  0  0  0  0  0
   -4.4452    5.6229  -16.6408 C   0  0  0  0  0  0  0  0  0  0  0  0
   -3.9533    5.6563  -17.9337 N   0  0  0  0  0  0  0  0  0  0  0  0
   -5.1954    5.2302  -19.0085 S   0  0  0  0  0  0  0  0  0  0  0  0
   -6.3187    4.9089  -17.7400 C   0  0  0  0  0  0  0  0  0  0  0  0
   -7.5950    4.5108  -17.7728 C   0  0  0  0  0  0  0  0  0  0  0  0
   -8.4377    4.2228  -18.8142 N   0  0  0  0  0  0  0  0  0  0  0  0
   -9.5763    3.9956  -18.2373 C   0  0  0  0  0  0  0  0  0  0  0  0
   -9.5677    4.0167  -16.7710 C   0  0  0  0  0  0  0  0  0  0  0  0
   -8.3209    4.3955  -16.5083 C   0  0  0  0  0  0  0  0  0  0  0  0
   -3.0315    5.8895  -18.1889 H   0  0  0  0  0  0  0  0  0  0  0  0
   -8.1084    4.1577  -11.4462 C   0  0  0  0  0  0  0  0  0  0  0  0
   -7.9735    5.3270  -10.6782 C   0  0  0  0  0  0  0  0  0  0  0  0
   -8.2129    5.3177   -9.3009 C   0  0  0  0  0  0  0  0  0  0  0  0
   -8.6090    4.1315   -8.7138 C   0  0  0  0  0  0  0  0  0  0  0  0
   -8.7733    2.9795   -9.4710 C   0  0  0  0  0  0  0  0  0  0  0  0
   -8.5166    2.9679  -10.8366 C   0  0  0  0  0  0  0  0  0  0  0  0
   -9.2324    1.8689   -8.5874 C   0  0  0  0  0  0  0  0  0  0  0  0
   -9.3688    2.4405   -7.2213 N   0  0  0  0  0  0  0  0  0  0  0  0
   -8.9132    3.8440   -7.2849 C   0  0  0  0  0  0  0  0  0  0  0  0
   -8.7917    1.9156   -6.5641 H   0  0  0  0  0  0  0  0  0  0  0  0
  1  2  2  0  0  0
  2  3  1  0  0  0
  3 18  1  0  0  0
 18 19  2  0  0  0
 19 20  1  0  0  0
 20 21  2  0  0  0
 21 22  1  0  0  0
 22 23  2  0  0  0
 22 24  1  0  0  0
 24 25  1  0  0  0
 25 26  1  0  0  0
  2  5  1  0  0  0
  5  6  2  0  0  0
  6  7  1  0  0  0
  7  8  2  0  0  0
  8  9  1  0  0  0
  9 10  1  0  0  0
 10 11  1  0  0  0
 11 12  2  0  0  0
 12 13  1  0  0  0
 13 14  2  0  0  0
 14 15  1  0  0  0
 15 16  2  0  0  0
 23 18  1  0  0  0
 16  5  1  0  0  0
 26 21  1  0  0  0
 11  7  1  0  0  0
 16 12  1  0  0  0
  3  4  1  0  0  0
 25 27  1  0  0  0
  9 17  1  0  0  0
M  END
> <minimizedAffinity>
-9.53365

> <minimizedRMSD>
0.82310

$$$$
P19138


 34 37  0  0  0  0  0  0  0  0999 V2000
   -7.3193    4.9873  -12.9765 C   0  0  0  0  0  0  0  0  0  0  0  0
   -6.1093    4.3745  -12.5563 O   0  0  0  0  0  0  0  0  0  0  0  0
   -6.1385    3.4270  -12.7617 H   0  0  0  0  0  0  0  0  0  0  0  0
   -8.2980    4.2622  -16.7253 C   0  0  0  0  0  0  0  0  0  0  0  0
   -8.3750    4.3392  -15.3008 C   0  0  0  0  0  0  0  0  0  0  0  0
   -7.3239    4.8424  -14.5115 C   0  0  0  0  0  0  0  0  0  0  0  0
   -6.1654    5.2926  -15.1700 C   0  0  0  0  0  0  0  0  0  0  0  0
   -6.0239    5.2142  -16.5586 C   0  0  0  0  0  0  0  0  0  0  0  0
   -4.9177    5.5655  -17.3906 C   0  0  0  0  0  0  0  0  0  0  0  0
   -5.0383    5.3594  -18.6926 N   0  0  0  0  0  0  0  0  0  0  0  0
   -6.5579    4.7541  -18.9534 S   0  0  0  0  0  0  0  0  0  0  0  0
   -7.0816    4.7093  -17.3097 C   0  0  0  0  0  0  0  0  0  0  0  0
  -10.4212    4.6188  -18.1278 C   0  0  0  0  0  0  0  0  0  0  0  0
   -9.4100    3.6491  -17.5619 C   0  0  0  0  0  0  0  0  0  0  0  0
   -7.3425    6.5857  -12.6628 C   0  0  0  0  0  0  0  0  0  0  0  0
   -6.3787    7.1710  -12.3471 O   0  0  0  0  0  0  0  0  0  0  0  0
   -8.8078    7.0779  -12.8399 N   0  0  0  0  0  0  0  0  0  0  0  0
   -9.4306    6.4009  -13.1907 H   0  0  0  0  0  0  0  0  0  0  0  0
   -9.4059    8.3737  -12.5717 C   0  0  0  0  0  0  0  0  0  0  0  0
  -10.5551    8.7892  -13.4875 C   0  0  0  0  0  0  0  0  0  0  0  0
  -11.0953    9.9397  -13.0131 F   0  0  0  0  0  0  0  0  0  0  0  0
  -11.5294    7.8449  -13.4605 F   0  0  0  0  0  0  0  0  0  0  0  0
   -8.4307    4.2530  -12.3412 N   0  0  0  0  0  0  0  0  0  0  0  0
   -9.1488    3.8599  -12.8880 H   0  0  0  0  0  0  0  0  0  0  0  0
   -8.4460    4.1234  -10.9262 C   0  0  0  0  0  0  0  0  0  0  0  0
   -8.1950    5.2051  -10.0514 C   0  0  0  0  0  0  0  0  0  0  0  0
   -8.3087    5.0854   -8.6625 C   0  0  0  0  0  0  0  0  0  0  0  0
   -8.6964    3.8709   -8.1428 C   0  0  0  0  0  0  0  0  0  0  0  0
   -8.9452    2.7911   -8.9744 C   0  0  0  0  0  0  0  0  0  0  0  0
   -8.8386    2.9005  -10.3566 C   0  0  0  0  0  0  0  0  0  0  0  0
   -9.3216    1.6107   -8.1450 C   0  0  0  0  0  0  0  0  0  0  0  0
   -9.4436    2.1004   -6.7459 N   0  0  0  0  0  0  0  0  0  0  0  0
   -8.9502    3.4917   -6.7264 C   0  0  0  0  0  0  0  0  0  0  0  0
   -8.8812    1.5213   -6.1225 H   0  0  0  0  0  0  0  0  0  0  0  0
 13 14  1  0  0  0
 14  4  1  0  0  0
  4  5  2  0  0  0
  5  6  1  0  0  0
  6  1  1  0  0  0
  1  2  1  0  0  0
  1 23  1  0  0  0
 23 25  1  0  0  0
 25 26  2  0  0  0
 26 27  1  0  0  0
 27 28  2  0  0  0
 28 29  1  0  0  0
 29 30  2  0  0  0
 29 31  1  0  0  0
 31 32  1  0  0  0
 32 33  1  0  0  0
  1 15  1  0  0  0
 15 16  2  0  0  0
 15 17  1  0  0  0
 17 19  1  0  0  0
 19 20  1  0  0  0
 20 21  1  0  0  0
 20 22  1  0  0  0
  6  7  2  0  0  0
  7  8  1  0  0  0
  8  9  1  0  0  0
  9 10  2  0  0  0
 10 11  1  0  0  0
 11 12  1  0  0  0
 12  4  1  0  0  0
 30 25  1  0  0  0
 12  8  2  0  0  0
 33 28  1  0  0  0
  2  3  1  0  0  0
 23 24  1  0  0  0
 32 34  1  0  0  0
 17 18  1  0  0  0
M  END
> <minimizedAffinity>
-7.86769

> <minimizedRMSD>
0.60955

$$$$
P19139


 32 34  0  0  0  0  0  0  0  0999 V2000
   -5.5051    5.1942  -15.6598 C   0  0  0  0  0  0  0  0  0  0  0  0
   -6.1145    4.9412  -16.8882 C   0  0  0  0  0  0  0  0  0  0  0  0
   -7.4880    4.6507  -16.9807 C   0  0  0  0  0  0  0  0  0  0  0  0
   -8.2690    4.6479  -15.8155 C   0  0  0  0  0  0  0  0  0  0  0  0
   -7.6532    4.8882  -14.5959 C   0  0  0  0  0  0  0  0  0  0  0  0
   -6.2823    5.1017  -14.5089 C   0  0  0  0  0  0  0  0  0  0  0  0
   -8.4077    5.0858  -13.3510 C   0  0  0  0  0  0  0  0  0  0  0  0
   -9.1924    5.9463  -13.2991 O   0  0  0  0  0  0  0  0  0  0  0  0
   -7.9154    4.1185  -12.2621 N   0  0  0  0  0  0  0  0  0  0  0  0
   -7.2954    3.4225  -12.5790 H   0  0  0  0  0  0  0  0  0  0  0  0
   -8.2024    4.0665  -10.9053 C   0  0  0  0  0  0  0  0  0  0  0  0
   -8.0660    5.2168  -10.1105 C   0  0  0  0  0  0  0  0  0  0  0  0
   -8.2915    5.1633   -8.7336 C   0  0  0  0  0  0  0  0  0  0  0  0
   -8.7090    3.9636   -8.1887 C   0  0  0  0  0  0  0  0  0  0  0  0
   -8.8747    2.8361   -8.9822 C   0  0  0  0  0  0  0  0  0  0  0  0
   -8.5878    2.8553  -10.3368 C   0  0  0  0  0  0  0  0  0  0  0  0
   -9.3860    1.7112   -8.1519 C   0  0  0  0  0  0  0  0  0  0  0  0
   -9.5936    2.2583   -6.7849 N   0  0  0  0  0  0  0  0  0  0  0  0
   -9.0547    3.6343   -6.7785 C   0  0  0  0  0  0  0  0  0  0  0  0
   -9.0989    1.6861   -6.1006 H   0  0  0  0  0  0  0  0  0  0  0  0
   -4.1198    5.4719  -15.6019 N   0  0  0  0  0  0  0  0  0  0  0  0
   -3.5044    5.0999  -16.2742 H   0  0  0  0  0  0  0  0  0  0  0  0
   -3.6340    7.6386  -15.0023 N   0  0  0  0  0  0  0  0  0  0  0  0
   -3.6448    6.2814  -14.5760 N   0  0  0  0  0  0  0  0  0  0  0  0
   -3.2851    8.2293  -14.2474 H   0  0  0  0  0  0  0  0  0  0  0  0
   -4.5815    7.9253  -15.2481 H   0  0  0  0  0  0  0  0  0  0  0  0
   -4.2509    6.1867  -13.7611 H   0  0  0  0  0  0  0  0  0  0  0  0
   -8.0287    4.4337  -18.3666 C   0  0  0  0  0  0  0  0  0  0  0  0
   -9.1967    3.5807  -18.4340 N   0  0  0  0  0  0  0  0  0  0  0  0
  -10.6793    4.3058  -18.3581 S   0  0  0  0  0  0  0  0  0  0  0  0
   -9.1389    2.9224  -17.6570 H   0  0  0  0  0  0  0  0  0  0  0  0
  -10.8016    5.1956  -19.3794 H   0  0  0  0  0  0  0  0  0  0  0  0
 23 24  1  0  0  0
 24 21  1  0  0  0
 21  1  1  0  0  0
  1  2  2  0  0  0
  2  3  1  0  0  0
  3 28  1  0  0  0
 28 29  1  0  0  0
 29 30  1  0  0  0
  3  4  2  0  0  0
  4  5  1  0  0  0
  5  7  1  0  0  0
  7  8  2  0  0  0
  7  9  1  0  0  0
  9 11  1  0  0  0
 11 12  2  0  0  0
 12 13  1  0  0  0
 13 14  2  0  0  0
 14 15  1  0  0  0
 15 16  2  0  0  0
 15 17  1  0  0  0
 17 18  1  0  0  0
 18 19  1  0  0  0
  5  6  2  0  0  0
  6  1  1  0  0  0
 16 11  1  0  0  0
 19 14  1  0  0  0
 23 25  1  0  0  0
 23 26  1  0  0  0
 24 27  1  0  0  0
 21 22  1  0  0  0
 29 31  1  0  0  0
 30 32  1  0  0  0
  9 10  1  0  0  0
 18 20  1  0  0  0
M  END
> <minimizedAffinity>
-7.21675

> <minimizedRMSD>
0.55945

$$$$
P19140


 23 26  0  0  0  0  0  0  0  0999 V2000
   -9.6313    5.5412  -14.0673 O   0  0  0  0  0  0  0  0  0  0  0  0
   -8.6753    4.8722  -14.0933 C   0  0  0  0  0  0  0  0  0  0  0  0
   -7.9427    4.1307  -12.9570 N   0  0  0  0  0  0  0  0  0  0  0  0
   -7.1935    3.5636  -13.2508 H   0  0  0  0  0  0  0  0  0  0  0  0
   -8.1685    4.1325  -11.5815 C   0  0  0  0  0  0  0  0  0  0  0  0
   -7.9974    5.3081  -10.8310 C   0  0  0  0  0  0  0  0  0  0  0  0
   -8.1963    5.3133   -9.4480 C   0  0  0  0  0  0  0  0  0  0  0  0
   -8.5867    4.1355   -8.8399 C   0  0  0  0  0  0  0  0  0  0  0  0
   -8.7655    2.9737   -9.5791 C   0  0  0  0  0  0  0  0  0  0  0  0
   -8.5484    2.9471  -10.9492 C   0  0  0  0  0  0  0  0  0  0  0  0
   -9.1945    1.8704   -8.6739 C   0  0  0  0  0  0  0  0  0  0  0  0
   -9.3622    2.4731   -7.3246 N   0  0  0  0  0  0  0  0  0  0  0  0
   -8.8834    3.8684   -7.4055 C   0  0  0  0  0  0  0  0  0  0  0  0
   -8.8125    1.9544   -6.6397 H   0  0  0  0  0  0  0  0  0  0  0  0
   -7.9533    4.7517  -15.3770 C   0  0  0  0  0  0  0  0  0  0  0  0
   -8.6133    4.4780  -16.5722 C   0  0  0  0  0  0  0  0  0  0  0  0
   -7.9141    4.5549  -17.7849 C   0  0  0  0  0  0  0  0  0  0  0  0
   -6.5473    4.8991  -17.7491 C   0  0  0  0  0  0  0  0  0  0  0  0
   -5.4254    5.1429  -19.0267 S   0  0  0  0  0  0  0  0  0  0  0  0
   -4.0946    5.4477  -18.0862 N   0  0  0  0  0  0  0  0  0  0  0  0
   -4.4880    5.4206  -16.8192 C   0  0  0  0  0  0  0  0  0  0  0  0
   -5.8651    5.1253  -16.5535 C   0  0  0  0  0  0  0  0  0  0  0  0
   -6.5866    5.0559  -15.3489 C   0  0  0  0  0  0  0  0  0  0  0  0
  1  2  2  0  0  0
  2  3  1  0  0  0
  3  5  1  0  0  0
  5  6  2  0  0  0
  6  7  1  0  0  0
  7  8  2  0  0  0
  8  9  1  0  0  0
  9 10  2  0  0  0
  9 11  1  0  0  0
 11 12  1  0  0  0
 12 13  1  0  0  0
  2 15  1  0  0  0
 15 16  2  0  0  0
 16 17  1  0  0  0
 17 18  2  0  0  0
 18 19  1  0  0  0
 19 20  1  0  0  0
 20 21  2  0  0  0
 21 22  1  0  0  0
 22 23  2  0  0  0
 10  5  1  0  0  0
 23 15  1  0  0  0
 13  8  1  0  0  0
 22 18  1  0  0  0
  3  4  1  0  0  0
 12 14  1  0  0  0
M  END
> <minimizedAffinity>
-8.95376

> <minimizedRMSD>
0.77452

$$$$
P19141


 31 33  0  0  0  0  0  0  0  0999 V2000
   -5.4804    5.2171  -15.9627 C   0  0  0  0  0  0  0  0  0  0  0  0
   -6.7034    5.0871  -16.6297 C   0  0  0  0  0  0  0  0  0  0  0  0
   -7.8981    4.7134  -15.9822 C   0  0  0  0  0  0  0  0  0  0  0  0
   -7.8744    4.6077  -14.5894 C   0  0  0  0  0  0  0  0  0  0  0  0
   -6.6814    4.8516  -13.8985 C   0  0  0  0  0  0  0  0  0  0  0  0
   -5.4875    5.1233  -14.5761 C   0  0  0  0  0  0  0  0  0  0  0  0
   -6.6780    4.9922  -12.4274 C   0  0  0  0  0  0  0  0  0  0  0  0
   -5.8752    5.6918  -11.9490 O   0  0  0  0  0  0  0  0  0  0  0  0
   -7.8420    4.2162  -11.7790 N   0  0  0  0  0  0  0  0  0  0  0  0
   -8.4321    3.7509  -12.4151 H   0  0  0  0  0  0  0  0  0  0  0  0
   -8.1936    4.0666  -10.4437 C   0  0  0  0  0  0  0  0  0  0  0  0
   -8.1114    5.1566   -9.5604 C   0  0  0  0  0  0  0  0  0  0  0  0
   -8.4872    5.0255   -8.2229 C   0  0  0  0  0  0  0  0  0  0  0  0
   -8.9528    3.7973   -7.8001 C   0  0  0  0  0  0  0  0  0  0  0  0
   -9.0234    2.7132   -8.6719 C   0  0  0  0  0  0  0  0  0  0  0  0
   -8.6431    2.8236   -9.9976 C   0  0  0  0  0  0  0  0  0  0  0  0
   -9.5257    1.5260   -7.9219 C   0  0  0  0  0  0  0  0  0  0  0  0
  -10.1282    2.0822   -6.6831 N   0  0  0  0  0  0  0  0  0  0  0  0
   -9.4353    3.3693   -6.4547 C   0  0  0  0  0  0  0  0  0  0  0  0
   -9.9760    1.4503   -5.8970 H   0  0  0  0  0  0  0  0  0  0  0  0
   -4.2087    5.5205  -16.7264 C   0  0  0  0  0  0  0  0  0  0  0  0
   -3.1105    4.7340  -18.7375 N   0  0  0  0  0  0  0  0  0  0  0  0
   -4.3500    5.1753  -18.1522 N   0  0  0  0  0  0  0  0  0  0  0  0
   -3.2602    4.5080  -19.7208 H   0  0  0  0  0  0  0  0  0  0  0  0
   -2.7780    3.9050  -18.2449 H   0  0  0  0  0  0  0  0  0  0  0  0
   -5.0383    4.4278  -18.2413 H   0  0  0  0  0  0  0  0  0  0  0  0
   -9.2032    4.4477  -16.7167 C   0  0  0  0  0  0  0  0  0  0  0  0
   -9.1752    4.6728  -18.1535 N   0  0  0  0  0  0  0  0  0  0  0  0
   -8.4148    3.6361  -19.1932 S   0  0  0  0  0  0  0  0  0  0  0  0
   -8.7383    5.5843  -18.2903 H   0  0  0  0  0  0  0  0  0  0  0  0
   -8.9496    2.3923  -19.0649 H   0  0  0  0  0  0  0  0  0  0  0  0
 22 23  1  0  0  0
 23 21  1  0  0  0
 21  1  1  0  0  0
  1  2  2  0  0  0
  2  3  1  0  0  0
  3 27  1  0  0  0
 27 28  1  0  0  0
 28 29  1  0  0  0
  3  4  2  0  0  0
  4  5  1  0  0  0
  5  7  1  0  0  0
  7  8  2  0  0  0
  7  9  1  0  0  0
  9 11  1  0  0  0
 11 12  2  0  0  0
 12 13  1  0  0  0
 13 14  2  0  0  0
 14 15  1  0  0  0
 15 16  2  0  0  0
 15 17  1  0  0  0
 17 18  1  0  0  0
 18 19  1  0  0  0
  5  6  2  0  0  0
  6  1  1  0  0  0
 16 11  1  0  0  0
 19 14  1  0  0  0
 22 24  1  0  0  0
 22 25  1  0  0  0
 23 26  1  0  0  0
 28 30  1  0  0  0
 29 31  1  0  0  0
  9 10  1  0  0  0
 18 20  1  0  0  0
M  END
> <minimizedAffinity>
-6.68198

> <minimizedRMSD>
0.91053

$$$$
P19144


 31 33  0  0  0  0  0  0  0  0999 V2000
   -5.8279    5.2052  -17.0403 C   0  0  0  0  0  0  0  0  0  0  0  0
   -7.1008    4.7698  -17.4342 C   0  0  0  0  0  0  0  0  0  0  0  0
   -8.0870    4.4132  -16.5084 C   0  0  0  0  0  0  0  0  0  0  0  0
   -7.7879    4.4886  -15.1572 C   0  0  0  0  0  0  0  0  0  0  0  0
   -6.5134    4.8662  -14.7401 C   0  0  0  0  0  0  0  0  0  0  0  0
   -5.5505    5.2635  -15.6694 C   0  0  0  0  0  0  0  0  0  0  0  0
   -6.2663    4.8840  -13.2763 C   0  0  0  0  0  0  0  0  0  0  0  0
   -5.2990    5.3801  -12.8488 O   0  0  0  0  0  0  0  0  0  0  0  0
   -7.4899    4.2722  -12.5448 N   0  0  0  0  0  0  0  0  0  0  0  0
   -8.1503    3.8422  -13.1350 H   0  0  0  0  0  0  0  0  0  0  0  0
   -7.8051    4.2324  -11.1936 C   0  0  0  0  0  0  0  0  0  0  0  0
   -7.6939    5.3646  -10.3785 C   0  0  0  0  0  0  0  0  0  0  0  0
   -8.0866    5.3119   -9.0382 C   0  0  0  0  0  0  0  0  0  0  0  0
   -8.5827    4.1189   -8.5422 C   0  0  0  0  0  0  0  0  0  0  0  0
   -8.7034    3.0002   -9.3539 C   0  0  0  0  0  0  0  0  0  0  0  0
   -8.3207    3.0354  -10.6828 C   0  0  0  0  0  0  0  0  0  0  0  0
   -9.2879    1.8740   -8.5749 C   0  0  0  0  0  0  0  0  0  0  0  0
   -9.4093    2.3525   -7.1720 N   0  0  0  0  0  0  0  0  0  0  0  0
   -9.0629    3.7912   -7.1713 C   0  0  0  0  0  0  0  0  0  0  0  0
   -8.7668    1.8376   -6.5699 H   0  0  0  0  0  0  0  0  0  0  0  0
   -4.9813    5.6814  -18.0443 N   0  0  0  0  0  0  0  0  0  0  0  0
   -5.3671    6.1091  -18.8427 H   0  0  0  0  0  0  0  0  0  0  0  0
   -2.8891    4.5635  -18.7365 N   0  0  0  0  0  0  0  0  0  0  0  0
   -3.5545    5.5551  -17.9270 C   0  0  0  0  0  0  0  0  0  0  0  0
   -1.8868    4.5883  -18.5489 H   0  0  0  0  0  0  0  0  0  0  0  0
   -3.0553    4.7626  -19.7229 H   0  0  0  0  0  0  0  0  0  0  0  0
   -9.4282    3.8828  -16.9039 C   0  0  0  0  0  0  0  0  0  0  0  0
  -10.2798    4.8042  -17.5995 N   0  0  0  0  0  0  0  0  0  0  0  0
  -10.7563    4.4820  -19.1155 S   0  0  0  0  0  0  0  0  0  0  0  0
   -9.7861    5.6962  -17.6294 H   0  0  0  0  0  0  0  0  0  0  0  0
  -11.4242    3.2975  -19.1386 H   0  0  0  0  0  0  0  0  0  0  0  0
 23 24  1  0  0  0
 24 21  1  0  0  0
 21  1  1  0  0  0
  1  2  2  0  0  0
  2  3  1  0  0  0
  3 27  1  0  0  0
 27 28  1  0  0  0
 28 29  1  0  0  0
  3  4  2  0  0  0
  4  5  1  0  0  0
  5  7  1  0  0  0
  7  8  2  0  0  0
  7  9  1  0  0  0
  9 11  1  0  0  0
 11 12  2  0  0  0
 12 13  1  0  0  0
 13 14  2  0  0  0
 14 15  1  0  0  0
 15 16  2  0  0  0
 15 17  1  0  0  0
 17 18  1  0  0  0
 18 19  1  0  0  0
  5  6  2  0  0  0
  6  1  1  0  0  0
 16 11  1  0  0  0
 19 14  1  0  0  0
 23 25  1  0  0  0
 23 26  1  0  0  0
 21 22  1  0  0  0
 28 30  1  0  0  0
 29 31  1  0  0  0
  9 10  1  0  0  0
 18 20  1  0  0  0
M  END
> <minimizedAffinity>
-6.76397

> <minimizedRMSD>
0.64961

$$$$
P19145


 28 31  0  0  0  0  0  0  0  0999 V2000
   -8.1790    4.4941  -16.7777 C   0  0  0  0  0  0  0  0  0  0  0  0
   -8.6884    4.4633  -15.4674 C   0  0  0  0  0  0  0  0  0  0  0  0
   -7.8750    4.7426  -14.3745 C   0  0  0  0  0  0  0  0  0  0  0  0
   -6.5149    5.0056  -14.5049 C   0  0  0  0  0  0  0  0  0  0  0  0
   -5.9631    5.1211  -15.7845 C   0  0  0  0  0  0  0  0  0  0  0  0
   -4.6631    5.6356  -16.1315 C   0  0  0  0  0  0  0  0  0  0  0  0
   -4.5753    5.8251  -17.4500 N   0  0  0  0  0  0  0  0  0  0  0  0
   -3.6989    6.4742  -18.0707 O   0  0  0  0  0  0  0  0  0  0  0  0
   -5.8602    5.1771  -18.3310 S   0  0  0  0  0  0  0  0  0  0  0  0
   -6.7959    4.8615  -16.8923 C   0  0  0  0  0  0  0  0  0  0  0  0
   -8.4383    5.0490  -13.0538 C   0  0  0  0  0  0  0  0  0  0  0  0
   -8.9115    6.1019  -12.8953 O   0  0  0  0  0  0  0  0  0  0  0  0
   -8.1991    3.9054  -12.0590 N   0  0  0  0  0  0  0  0  0  0  0  0
   -7.8485    3.0773  -12.4598 H   0  0  0  0  0  0  0  0  0  0  0  0
   -8.3963    3.8481  -10.6865 C   0  0  0  0  0  0  0  0  0  0  0  0
   -8.1620    4.9853   -9.8921 C   0  0  0  0  0  0  0  0  0  0  0  0
   -8.3592    4.9487   -8.5121 C   0  0  0  0  0  0  0  0  0  0  0  0
   -8.8409    3.7783   -7.9641 C   0  0  0  0  0  0  0  0  0  0  0  0
   -9.0738    2.6531   -8.7524 C   0  0  0  0  0  0  0  0  0  0  0  0
   -8.8241    2.6548  -10.1120 C   0  0  0  0  0  0  0  0  0  0  0  0
   -9.6047    1.5613   -7.8872 C   0  0  0  0  0  0  0  0  0  0  0  0
  -10.0377    2.2406   -6.6388 N   0  0  0  0  0  0  0  0  0  0  0  0
   -9.2134    3.4655   -6.5541 C   0  0  0  0  0  0  0  0  0  0  0  0
   -9.8714    1.6416   -5.8302 H   0  0  0  0  0  0  0  0  0  0  0  0
   -9.0038    4.3656  -17.8950 N   0  0  0  0  0  0  0  0  0  0  0  0
  -10.3984    4.7931  -17.9020 C   0  0  0  0  0  0  0  0  0  0  0  0
   -9.4640    2.0283  -18.1488 C   0  0  0  0  0  0  0  0  0  0  0  0
   -8.7304    3.2161  -18.7415 C   0  0  0  0  0  0  0  0  0  0  0  0
 27 28  1  0  0  0
 28 25  1  0  0  0
 25 26  1  0  0  0
 25  1  1  0  0  0
  1  2  2  0  0  0
  2  3  1  0  0  0
  3 11  1  0  0  0
 11 12  2  0  0  0
 11 13  1  0  0  0
 13 15  1  0  0  0
 15 16  2  0  0  0
 16 17  1  0  0  0
 17 18  2  0  0  0
 18 19  1  0  0  0
 19 20  2  0  0  0
 19 21  1  0  0  0
 21 22  1  0  0  0
 22 23  1  0  0  0
  3  4  2  0  0  0
  4  5  1  0  0  0
  5  6  1  0  0  0
  6  7  2  0  0  0
  7  8  1  0  0  0
  7  9  1  0  0  0
  9 10  1  0  0  0
 10  1  1  0  0  0
 20 15  1  0  0  0
 10  5  2  0  0  0
 23 18  1  0  0  0
 13 14  1  0  0  0
 22 24  1  0  0  0
M  CHG 1   7   1
M  CHG 1   8  -1
M  END
> <minimizedAffinity>
-6.92125

> <minimizedRMSD>
0.66463

$$$$
P19163


 36 40  0  0  0  0  0  0  0  0999 V2000
   -8.1214    5.1757  -13.7737 C   0  0  0  0  0  0  0  0  0  0  0  0
   -9.5081    4.8421  -13.8480 O   0  0  0  0  0  0  0  0  0  0  0  0
   -9.9223    4.9871  -12.9830 H   0  0  0  0  0  0  0  0  0  0  0  0
   -7.3932    4.9729  -15.1059 C   0  0  0  0  0  0  0  0  0  0  0  0
   -6.0677    5.1697  -15.2960 C   0  0  0  0  0  0  0  0  0  0  0  0
   -5.4976    5.1659  -16.6205 C   0  0  0  0  0  0  0  0  0  0  0  0
   -4.2405    5.4756  -16.9678 C   0  0  0  0  0  0  0  0  0  0  0  0
   -3.9113    5.4396  -18.3129 N   0  0  0  0  0  0  0  0  0  0  0  0
   -5.3095    5.1101  -19.2172 S   0  0  0  0  0  0  0  0  0  0  0  0
   -6.2835    4.9076  -17.8038 C   0  0  0  0  0  0  0  0  0  0  0  0
   -7.5707    4.6041  -17.6744 C   0  0  0  0  0  0  0  0  0  0  0  0
   -8.5695    4.3060  -18.5577 N   0  0  0  0  0  0  0  0  0  0  0  0
   -9.6174    4.1816  -17.8008 C   0  0  0  0  0  0  0  0  0  0  0  0
   -9.4160    4.3038  -16.4295 N   0  0  0  0  0  0  0  0  0  0  0  0
   -8.1612    4.6164  -16.3259 C   0  0  0  0  0  0  0  0  0  0  0  0
   -3.0110    5.5822  -18.6847 H   0  0  0  0  0  0  0  0  0  0  0  0
   -6.9398    7.2971  -13.2294 O   0  0  0  0  0  0  0  0  0  0  0  0
   -7.9674    6.7550  -13.3745 C   0  0  0  0  0  0  0  0  0  0  0  0
   -9.4213    7.2880  -13.2066 N   0  0  0  0  0  0  0  0  0  0  0  0
  -10.1263    6.6506  -13.4635 H   0  0  0  0  0  0  0  0  0  0  0  0
   -9.9045    8.5689  -12.7340 C   0  0  0  0  0  0  0  0  0  0  0  0
  -11.3095    8.9366  -13.1995 C   0  0  0  0  0  0  0  0  0  0  0  0
  -11.9817    7.8270  -13.5923 F   0  0  0  0  0  0  0  0  0  0  0  0
  -11.2599    9.7743  -14.2647 F   0  0  0  0  0  0  0  0  0  0  0  0
   -7.5070    4.2645  -12.7970 N   0  0  0  0  0  0  0  0  0  0  0  0
   -6.8146    3.6352  -13.1034 H   0  0  0  0  0  0  0  0  0  0  0  0
   -7.8745    4.2617  -11.4416 C   0  0  0  0  0  0  0  0  0  0  0  0
   -7.6089    5.3432  -10.5803 C   0  0  0  0  0  0  0  0  0  0  0  0
   -7.9397    5.3150   -9.2189 C   0  0  0  0  0  0  0  0  0  0  0  0
   -8.4970    4.1643   -8.7041 C   0  0  0  0  0  0  0  0  0  0  0  0
   -8.7270    3.0682   -9.5175 C   0  0  0  0  0  0  0  0  0  0  0  0
   -8.4291    3.1005  -10.8756 C   0  0  0  0  0  0  0  0  0  0  0  0
   -9.2776    1.9505   -8.6995 C   0  0  0  0  0  0  0  0  0  0  0  0
   -9.3526    2.4445   -7.2968 N   0  0  0  0  0  0  0  0  0  0  0  0
   -8.9012    3.8518   -7.3067 C   0  0  0  0  0  0  0  0  0  0  0  0
   -8.7453    1.8865   -6.6965 H   0  0  0  0  0  0  0  0  0  0  0  0
 17 18  2  0  0  0
 18 19  1  0  0  0
 19 21  1  0  0  0
 21 22  1  0  0  0
 22 23  1  0  0  0
 22 24  1  0  0  0
 18  1  1  0  0  0
  1  2  1  0  0  0
  1 25  1  0  0  0
 25 27  1  0  0  0
 27 28  2  0  0  0
 28 29  1  0  0  0
 29 30  2  0  0  0
 30 31  1  0  0  0
 31 32  2  0  0  0
 31 33  1  0  0  0
 33 34  1  0  0  0
 34 35  1  0  0  0
  1  4  1  0  0  0
  4  5  2  0  0  0
  5  6  1  0  0  0
  6  7  2  0  0  0
  7  8  1  0  0  0
  8  9  1  0  0  0
  9 10  1  0  0  0
 10 11  2  0  0  0
 11 12  1  0  0  0
 12 13  2  0  0  0
 13 14  1  0  0  0
 14 15  2  0  0  0
 32 27  1  0  0  0
 15  4  1  0  0  0
 35 30  1  0  0  0
 10  6  1  0  0  0
 15 11  1  0  0  0
 19 20  1  0  0  0
  2  3  1  0  0  0
 25 26  1  0  0  0
 34 36  1  0  0  0
  8 16  1  0  0  0
M  END
> <minimizedAffinity>
-9.43175

> <minimizedRMSD>
0.49229

$$$$
P19172


 31 35  0  0  0  0  0  0  0  0999 V2000
   -5.1700    5.8357  -14.5553 C   0  0  0  0  0  0  0  0  0  0  0  0
   -4.8768    5.1568  -13.2241 C   0  0  0  0  0  0  0  0  0  0  0  0
   -4.2327    5.3550  -15.6887 C   0  0  0  0  0  0  0  0  0  0  0  0
   -3.0264    5.1967  -15.5921 O   0  0  0  0  0  0  0  0  0  0  0  0
   -5.0150    5.1546  -16.8256 N   0  0  0  0  0  0  0  0  0  0  0  0
   -6.3592    5.1060  -16.4712 C   0  0  0  0  0  0  0  0  0  0  0  0
   -6.5144    5.4734  -15.1347 C   0  0  0  0  0  0  0  0  0  0  0  0
   -7.7505    5.3716  -14.5367 C   0  0  0  0  0  0  0  0  0  0  0  0
   -8.8387    4.8778  -15.2631 C   0  0  0  0  0  0  0  0  0  0  0  0
   -8.6970    4.5049  -16.6183 C   0  0  0  0  0  0  0  0  0  0  0  0
   -9.6378    4.0198  -17.5818 C   0  0  0  0  0  0  0  0  0  0  0  0
   -9.1549    3.6804  -18.7684 N   0  0  0  0  0  0  0  0  0  0  0  0
   -7.5577    4.0825  -18.8161 S   0  0  0  0  0  0  0  0  0  0  0  0
   -7.4370    4.6351  -17.2131 C   0  0  0  0  0  0  0  0  0  0  0  0
   -4.6678    5.0614  -17.7421 H   0  0  0  0  0  0  0  0  0  0  0  0
   -7.9612    5.7299  -13.1260 C   0  0  0  0  0  0  0  0  0  0  0  0
   -7.9799    6.8514  -12.8092 O   0  0  0  0  0  0  0  0  0  0  0  0
   -8.1566    4.4496  -12.2865 N   0  0  0  0  0  0  0  0  0  0  0  0
   -8.1708    3.6138  -12.8067 H   0  0  0  0  0  0  0  0  0  0  0  0
   -8.3158    4.2846  -10.9168 C   0  0  0  0  0  0  0  0  0  0  0  0
   -8.1065    5.3518  -10.0316 C   0  0  0  0  0  0  0  0  0  0  0  0
   -8.2854    5.1807   -8.6573 C   0  0  0  0  0  0  0  0  0  0  0  0
   -8.6842    3.9386   -8.1985 C   0  0  0  0  0  0  0  0  0  0  0  0
   -8.8844    2.8798   -9.0740 C   0  0  0  0  0  0  0  0  0  0  0  0
   -8.6947    3.0282  -10.4374 C   0  0  0  0  0  0  0  0  0  0  0  0
   -9.2989    1.6707   -8.3094 C   0  0  0  0  0  0  0  0  0  0  0  0
   -9.4815    2.1105   -6.9016 N   0  0  0  0  0  0  0  0  0  0  0  0
   -8.9701    3.4940   -6.8063 C   0  0  0  0  0  0  0  0  0  0  0  0
   -8.9578    1.5003   -6.2741 H   0  0  0  0  0  0  0  0  0  0  0  0
   -4.5370    7.7539  -13.2614 C   0  0  0  0  0  0  0  0  0  0  0  0
   -5.0795    7.2558  -14.4796 O   0  0  0  0  0  0  0  0  0  0  0  0
 30 31  1  0  0  0
 31  1  1  0  0  0
  1  2  1  0  0  0
  1  3  1  0  0  0
  3  4  2  0  0  0
  3  5  1  0  0  0
  5  6  1  0  0  0
  6  7  2  0  0  0
  7  8  1  0  0  0
  8 16  1  0  0  0
 16 17  2  0  0  0
 16 18  1  0  0  0
 18 20  1  0  0  0
 20 21  2  0  0  0
 21 22  1  0  0  0
 22 23  2  0  0  0
 23 24  1  0  0  0
 24 25  2  0  0  0
 24 26  1  0  0  0
 26 27  1  0  0  0
 27 28  1  0  0  0
  8  9  2  0  0  0
  9 10  1  0  0  0
 10 11  1  0  0  0
 11 12  2  0  0  0
 12 13  1  0  0  0
 13 14  1  0  0  0
  7  1  1  0  0  0
 25 20  1  0  0  0
 14 10  2  0  0  0
 14  6  1  0  0  0
 28 23  1  0  0  0
  5 15  1  0  0  0
 18 19  1  0  0  0
 27 29  1  0  0  0
M  END
> <minimizedAffinity>
-7.97847

> <minimizedRMSD>
0.47607

$$$$
P19173


 32 36  0  0  0  0  0  0  0  0999 V2000
   -7.7433    4.4610  -12.7656 N   0  0  0  0  0  0  0  0  0  0  0  0
   -8.5191    5.0475  -13.9729 C   0  0  0  0  0  0  0  0  0  0  0  0
   -9.5196    5.6511  -14.0097 O   0  0  0  0  0  0  0  0  0  0  0  0
   -6.8754    4.0547  -12.9914 H   0  0  0  0  0  0  0  0  0  0  0  0
   -7.7311    4.8325  -15.2209 C   0  0  0  0  0  0  0  0  0  0  0  0
   -6.4496    5.2635  -15.1939 C   0  0  0  0  0  0  0  0  0  0  0  0
   -5.6982    5.2960  -16.4369 C   0  0  0  0  0  0  0  0  0  0  0  0
   -4.4486    5.7414  -16.6217 C   0  0  0  0  0  0  0  0  0  0  0  0
   -3.9331    5.7104  -17.9069 N   0  0  0  0  0  0  0  0  0  0  0  0
   -5.1248    5.1708  -18.9780 S   0  0  0  0  0  0  0  0  0  0  0  0
   -6.2821    4.9276  -17.7219 C   0  0  0  0  0  0  0  0  0  0  0  0
   -7.5476    4.5037  -17.7483 C   0  0  0  0  0  0  0  0  0  0  0  0
   -8.3845    4.0952  -18.7571 N   0  0  0  0  0  0  0  0  0  0  0  0
   -9.5080    3.7869  -18.2560 N   0  0  0  0  0  0  0  0  0  0  0  0
   -9.4659    3.9857  -16.8942 C   0  0  0  0  0  0  0  0  0  0  0  0
   -8.2820    4.4316  -16.4973 C   0  0  0  0  0  0  0  0  0  0  0  0
   -3.0153    5.9634  -18.1577 H   0  0  0  0  0  0  0  0  0  0  0  0
   -8.9924    3.9942   -7.2488 C   0  0  0  0  0  0  0  0  0  0  0  0
   -9.1841    2.5172   -7.2185 N   0  0  0  0  0  0  0  0  0  0  0  0
   -9.1880    2.0392   -8.6219 C   0  0  0  0  0  0  0  0  0  0  0  0
   -8.7291    3.1841   -9.4584 C   0  0  0  0  0  0  0  0  0  0  0  0
   -8.4467    3.2036  -10.8217 C   0  0  0  0  0  0  0  0  0  0  0  0
   -8.0758    4.4152  -11.4085 C   0  0  0  0  0  0  0  0  0  0  0  0
   -8.0093    5.5750  -10.6187 C   0  0  0  0  0  0  0  0  0  0  0  0
   -8.2789    5.5355   -9.2443 C   0  0  0  0  0  0  0  0  0  0  0  0
   -8.6272    4.3258   -8.6696 C   0  0  0  0  0  0  0  0  0  0  0  0
  -10.0721    2.2903   -6.7708 H   0  0  0  0  0  0  0  0  0  0  0  0
   -7.9572    4.4335   -6.2129 C   0  0  0  0  0  0  0  0  0  0  0  0
   -9.5594    3.9444   -4.4261 O   0  0  0  0  0  0  0  0  0  0  0  0
   -8.4250    4.1688   -4.8115 C   0  0  0  0  0  0  0  0  0  0  0  0
   -7.3970    4.1470   -3.9352 O   0  0  0  0  0  0  0  0  0  0  0  0
   -6.5250    4.3196   -4.2316 H   0  0  0  0  0  0  0  0  0  0  0  0
 29 30  2  0  0  0
 30 31  1  0  0  0
 30 28  1  0  0  0
 18 28  1  0  0  0
 18 19  1  0  0  0
 19 20  1  0  0  0
 20 21  1  0  0  0
 21 22  2  0  0  0
 22 23  1  0  0  0
 23  1  1  0  0  0
  1  2  1  0  0  0
  2  3  2  0  0  0
  2  5  1  0  0  0
  5  6  2  0  0  0
  6  7  1  0  0  0
  7  8  2  0  0  0
  8  9  1  0  0  0
  9 10  1  0  0  0
 10 11  1  0  0  0
 11 12  2  0  0  0
 12 13  1  0  0  0
 13 14  2  0  0  0
 14 15  1  0  0  0
 15 16  2  0  0  0
 23 24  2  0  0  0
 24 25  1  0  0  0
 25 26  2  0  0  0
 26 18  1  0  0  0
 26 21  1  0  0  0
 16  5  1  0  0  0
 11  7  1  0  0  0
 16 12  1  0  0  0
 31 32  1  0  0  0
 19 27  1  0  0  0
  1  4  1  0  0  0
  9 17  1  0  0  0
M  END
> <minimizedAffinity>
-9.37437

> <minimizedRMSD>
1.13246

$$$$
P19175


 36 39  0  0  0  0  0  0  0  0999 V2000
   -6.9106    4.8090  -13.0556 C   0  0  0  0  0  0  0  0  0  0  0  0
   -5.9336    3.8172  -12.7823 O   0  0  0  0  0  0  0  0  0  0  0  0
   -5.7504    3.7976  -11.8299 H   0  0  0  0  0  0  0  0  0  0  0  0
   -7.1569    4.7922  -14.5694 C   0  0  0  0  0  0  0  0  0  0  0  0
   -6.1150    5.0388  -15.4770 C   0  0  0  0  0  0  0  0  0  0  0  0
   -6.2912    4.9671  -16.8767 C   0  0  0  0  0  0  0  0  0  0  0  0
   -7.5653    4.5784  -17.3183 C   0  0  0  0  0  0  0  0  0  0  0  0
   -8.1119    4.1390  -18.8777 S   0  0  0  0  0  0  0  0  0  0  0  0
   -9.7049    4.0589  -18.5207 N   0  0  0  0  0  0  0  0  0  0  0  0
   -9.8507    4.2859  -17.2293 C   0  0  0  0  0  0  0  0  0  0  0  0
   -8.6595    4.4592  -16.4625 C   0  0  0  0  0  0  0  0  0  0  0  0
   -8.4476    4.5875  -15.0812 C   0  0  0  0  0  0  0  0  0  0  0  0
   -5.1789    5.3664  -17.8045 C   0  0  0  0  0  0  0  0  0  0  0  0
   -5.1957    6.7059  -18.0656 F   0  0  0  0  0  0  0  0  0  0  0  0
   -3.9446    5.1264  -17.2724 F   0  0  0  0  0  0  0  0  0  0  0  0
   -5.1670    4.7504  -19.0186 F   0  0  0  0  0  0  0  0  0  0  0  0
   -7.0303    7.2618  -12.9071 O   0  0  0  0  0  0  0  0  0  0  0  0
   -6.4249    6.2889  -12.6696 C   0  0  0  0  0  0  0  0  0  0  0  0
   -5.0514    6.1035  -11.9543 N   0  0  0  0  0  0  0  0  0  0  0  0
   -4.7865    5.1670  -11.8064 H   0  0  0  0  0  0  0  0  0  0  0  0
   -4.1043    7.0842  -11.4733 C   0  0  0  0  0  0  0  0  0  0  0  0
   -4.6221    7.9351  -10.3166 C   0  0  0  0  0  0  0  0  0  0  0  0
   -5.4156    7.1802   -9.5121 F   0  0  0  0  0  0  0  0  0  0  0  0
   -3.5707    8.3323   -9.5517 F   0  0  0  0  0  0  0  0  0  0  0  0
   -8.1211    4.3741  -12.3601 N   0  0  0  0  0  0  0  0  0  0  0  0
   -8.8969    4.1395  -12.9190 H   0  0  0  0  0  0  0  0  0  0  0  0
   -8.2797    4.2606  -10.9806 C   0  0  0  0  0  0  0  0  0  0  0  0
   -8.1309    5.3299  -10.0778 C   0  0  0  0  0  0  0  0  0  0  0  0
   -8.3702    5.1872   -8.7042 C   0  0  0  0  0  0  0  0  0  0  0  0
   -8.7940    3.9624   -8.2395 C   0  0  0  0  0  0  0  0  0  0  0  0
   -8.9531    2.8933   -9.1083 C   0  0  0  0  0  0  0  0  0  0  0  0
   -8.7072    3.0248  -10.4653 C   0  0  0  0  0  0  0  0  0  0  0  0
   -9.4019    1.7007   -8.3322 C   0  0  0  0  0  0  0  0  0  0  0  0
   -9.8825    2.2473   -7.0372 N   0  0  0  0  0  0  0  0  0  0  0  0
   -9.1690    3.5314   -6.8619 C   0  0  0  0  0  0  0  0  0  0  0  0
   -9.6582    1.6077   -6.2749 H   0  0  0  0  0  0  0  0  0  0  0  0
 17 18  2  0  0  0
 18 19  1  0  0  0
 19 21  1  0  0  0
 21 22  1  0  0  0
 22 23  1  0  0  0
 22 24  1  0  0  0
 18  1  1  0  0  0
  1  2  1  0  0  0
  1 25  1  0  0  0
 25 27  1  0  0  0
 27 28  2  0  0  0
 28 29  1  0  0  0
 29 30  2  0  0  0
 30 31  1  0  0  0
 31 32  2  0  0  0
 31 33  1  0  0  0
 33 34  1  0  0  0
 34 35  1  0  0  0
  1  4  1  0  0  0
  4  5  2  0  0  0
  5  6  1  0  0  0
  6 13  1  0  0  0
 13 14  1  0  0  0
 13 15  1  0  0  0
 13 16  1  0  0  0
  6  7  2  0  0  0
  7  8  1  0  0  0
  8  9  1  0  0  0
  9 10  2  0  0  0
 10 11  1  0  0  0
 11 12  2  0  0  0
 32 27  1  0  0  0
 12  4  1  0  0  0
 35 30  1  0  0  0
 11  7  1  0  0  0
 19 20  1  0  0  0
  2  3  1  0  0  0
 25 26  1  0  0  0
 34 36  1  0  0  0
M  END
> <minimizedAffinity>
-7.59987

> <minimizedRMSD>
0.87875

$$$$
P19176


 31 33  0  0  0  0  0  0  0  0999 V2000
   -6.0426    5.2556  -16.7115 C   0  0  0  0  0  0  0  0  0  0  0  0
   -7.2199    4.7650  -17.2693 C   0  0  0  0  0  0  0  0  0  0  0  0
   -8.2468    4.3120  -16.4469 C   0  0  0  0  0  0  0  0  0  0  0  0
   -8.1185    4.3917  -15.0562 C   0  0  0  0  0  0  0  0  0  0  0  0
   -6.9418    4.8760  -14.4933 C   0  0  0  0  0  0  0  0  0  0  0  0
   -5.9077    5.3028  -15.3218 C   0  0  0  0  0  0  0  0  0  0  0  0
   -6.8093    5.0799  -13.0271 C   0  0  0  0  0  0  0  0  0  0  0  0
   -6.0761    5.9054  -12.6465 O   0  0  0  0  0  0  0  0  0  0  0  0
   -7.7626    4.1489  -12.2447 N   0  0  0  0  0  0  0  0  0  0  0  0
   -8.2266    3.4774  -12.7952 H   0  0  0  0  0  0  0  0  0  0  0  0
   -8.0712    4.1052  -10.8924 C   0  0  0  0  0  0  0  0  0  0  0  0
   -7.9338    5.2441  -10.0838 C   0  0  0  0  0  0  0  0  0  0  0  0
   -8.2738    5.2023   -8.7303 C   0  0  0  0  0  0  0  0  0  0  0  0
   -8.7720    4.0185   -8.2225 C   0  0  0  0  0  0  0  0  0  0  0  0
   -8.9140    2.8912   -9.0269 C   0  0  0  0  0  0  0  0  0  0  0  0
   -8.5548    2.9079  -10.3616 C   0  0  0  0  0  0  0  0  0  0  0  0
   -9.4631    1.7746   -8.2049 C   0  0  0  0  0  0  0  0  0  0  0  0
   -9.9896    2.4251   -6.9773 N   0  0  0  0  0  0  0  0  0  0  0  0
   -9.2224    3.6829   -6.8401 C   0  0  0  0  0  0  0  0  0  0  0  0
   -9.8419    1.8264   -6.1647 H   0  0  0  0  0  0  0  0  0  0  0  0
   -5.0631    5.7976  -17.5629 N   0  0  0  0  0  0  0  0  0  0  0  0
   -5.2241    6.0270  -18.5067 H   0  0  0  0  0  0  0  0  0  0  0  0
   -3.7751    5.9825  -16.8867 C   0  0  0  0  0  0  0  0  0  0  0  0
   -2.6604    6.1248  -17.9133 C   0  0  0  0  0  0  0  0  0  0  0  0
   -2.2362    3.7664  -18.9813 N   0  0  0  0  0  0  0  0  0  0  0  0
   -2.4008    4.8228  -18.5324 C   0  0  0  0  0  0  0  0  0  0  0  0
   -9.5001    3.7794  -17.0517 C   0  0  0  0  0  0  0  0  0  0  0  0
  -10.2591    4.8028  -17.7061 N   0  0  0  0  0  0  0  0  0  0  0  0
  -10.8176    4.5688  -19.1991 S   0  0  0  0  0  0  0  0  0  0  0  0
   -9.6652    5.6314  -17.7414 H   0  0  0  0  0  0  0  0  0  0  0  0
  -11.6206    3.4713  -19.2159 H   0  0  0  0  0  0  0  0  0  0  0  0
 25 26  3  0  0  0
 26 24  1  0  0  0
 24 23  1  0  0  0
 23 21  1  0  0  0
 21  1  1  0  0  0
  1  2  2  0  0  0
  2  3  1  0  0  0
  3 27  1  0  0  0
 27 28  1  0  0  0
 28 29  1  0  0  0
  3  4  2  0  0  0
  4  5  1  0  0  0
  5  7  1  0  0  0
  7  8  2  0  0  0
  7  9  1  0  0  0
  9 11  1  0  0  0
 11 12  2  0  0  0
 12 13  1  0  0  0
 13 14  2  0  0  0
 14 15  1  0  0  0
 15 16  2  0  0  0
 15 17  1  0  0  0
 17 18  1  0  0  0
 18 19  1  0  0  0
  5  6  2  0  0  0
  6  1  1  0  0  0
 16 11  1  0  0  0
 19 14  1  0  0  0
 21 22  1  0  0  0
 28 30  1  0  0  0
 29 31  1  0  0  0
  9 10  1  0  0  0
 18 20  1  0  0  0
M  END
> <minimizedAffinity>
-6.46025

> <minimizedRMSD>
0.80942

$$$$
P19181


 33 35  0  0  0  0  0  0  0  0999 V2000
   -7.7945    5.1360  -14.5165 C   0  0  0  0  0  0  0  0  0  0  0  0
   -8.4200    4.8971  -15.7143 N   0  0  0  0  0  0  0  0  0  0  0  0
   -7.4819    4.7395  -16.7093 C   0  0  0  0  0  0  0  0  0  0  0  0
   -6.2387    4.9138  -16.1397 C   0  0  0  0  0  0  0  0  0  0  0  0
   -6.4233    5.1179  -14.7472 C   0  0  0  0  0  0  0  0  0  0  0  0
   -9.3947    4.8460  -15.8429 H   0  0  0  0  0  0  0  0  0  0  0  0
   -8.1006    4.2776  -12.2543 N   0  0  0  0  0  0  0  0  0  0  0  0
   -8.4588    5.3950  -13.2551 C   0  0  0  0  0  0  0  0  0  0  0  0
   -9.0893    6.3653  -13.1109 O   0  0  0  0  0  0  0  0  0  0  0  0
   -7.6131    3.5162  -12.6439 H   0  0  0  0  0  0  0  0  0  0  0  0
   -8.8836    3.5061   -6.7202 C   0  0  0  0  0  0  0  0  0  0  0  0
   -9.6281    2.2314   -6.8058 N   0  0  0  0  0  0  0  0  0  0  0  0
   -9.3391    1.6760   -8.1502 C   0  0  0  0  0  0  0  0  0  0  0  0
   -8.9294    2.8497   -8.9807 C   0  0  0  0  0  0  0  0  0  0  0  0
   -8.7194    2.9329  -10.3506 C   0  0  0  0  0  0  0  0  0  0  0  0
   -8.3548    4.1701  -10.8880 C   0  0  0  0  0  0  0  0  0  0  0  0
   -8.2043    5.2860  -10.0476 C   0  0  0  0  0  0  0  0  0  0  0  0
   -8.3790    5.1775   -8.6654 C   0  0  0  0  0  0  0  0  0  0  0  0
   -8.7370    3.9500   -8.1445 C   0  0  0  0  0  0  0  0  0  0  0  0
  -10.6287    2.3979   -6.6991 H   0  0  0  0  0  0  0  0  0  0  0  0
   -9.5965    3.9390   -4.3219 C   0  0  0  0  0  0  0  0  0  0  0  0
   -9.5198    4.4930   -5.7406 C   0  0  0  0  0  0  0  0  0  0  0  0
   -7.8518    4.3536  -18.0952 C   0  0  0  0  0  0  0  0  0  0  0  0
   -9.1231    4.8733  -18.5364 N   0  0  0  0  0  0  0  0  0  0  0  0
  -10.5439    4.1309  -18.2293 S   0  0  0  0  0  0  0  0  0  0  0  0
   -9.0589    4.9476  -19.5517 H   0  0  0  0  0  0  0  0  0  0  0  0
  -10.7029    3.9946  -16.8855 H   0  0  0  0  0  0  0  0  0  0  0  0
   -5.3515    5.2739  -13.7191 C   0  0  0  0  0  0  0  0  0  0  0  0
   -5.1530    3.9788  -13.0554 N   0  0  0  0  0  0  0  0  0  0  0  0
   -4.9156    4.1464  -11.6420 N   0  0  0  0  0  0  0  0  0  0  0  0
   -4.3495    3.5102  -13.4742 H   0  0  0  0  0  0  0  0  0  0  0  0
   -5.7155    4.6147  -11.2161 H   0  0  0  0  0  0  0  0  0  0  0  0
   -4.0775    4.7107  -11.5025 H   0  0  0  0  0  0  0  0  0  0  0  0
 21 22  1  0  0  0
 11 22  1  0  0  0
 11 12  1  0  0  0
 12 13  1  0  0  0
 13 14  1  0  0  0
 14 15  2  0  0  0
 15 16  1  0  0  0
 16  7  1  0  0  0
  7  8  1  0  0  0
  8  9  2  0  0  0
  8  1  1  0  0  0
  1  2  1  0  0  0
  2  3  1  0  0  0
  3 23  1  0  0  0
 23 24  1  0  0  0
 24 25  1  0  0  0
  3  4  2  0  0  0
  4  5  1  0  0  0
  5 28  1  0  0  0
 28 29  1  0  0  0
 29 30  1  0  0  0
 16 17  2  0  0  0
 17 18  1  0  0  0
 18 19  2  0  0  0
 19 11  1  0  0  0
 19 14  1  0  0  0
  5  1  2  0  0  0
 12 20  1  0  0  0
  7 10  1  0  0  0
  2  6  1  0  0  0
 24 26  1  0  0  0
 25 27  1  0  0  0
 29 31  1  0  0  0
 30 32  1  0  0  0
 30 33  1  0  0  0
M  END
> <minimizedAffinity>
-7.33518

> <minimizedRMSD>
1.02757

$$$$
P19209


 27 31  0  0  0  0  0  0  0  0999 V2000
   -7.5970    7.0810  -11.7699 O   0  0  0  0  0  0  0  0  0  0  0  0
   -7.6772    5.9965  -12.2041 C   0  0  0  0  0  0  0  0  0  0  0  0
   -7.9270    4.6391  -11.4862 N   0  0  0  0  0  0  0  0  0  0  0  0
   -7.8746    3.8481  -12.0700 H   0  0  0  0  0  0  0  0  0  0  0  0
   -7.6014    5.7593  -13.7070 C   0  0  0  0  0  0  0  0  0  0  0  0
   -6.2427    5.1910  -14.1478 C   0  0  0  0  0  0  0  0  0  0  0  0
   -6.1689    5.1305  -15.6516 C   0  0  0  0  0  0  0  0  0  0  0  0
   -5.1085    5.3953  -16.4435 C   0  0  0  0  0  0  0  0  0  0  0  0
   -5.2226    5.2559  -17.8980 C   0  0  0  0  0  0  0  0  0  0  0  0
   -6.3829    4.8270  -18.4301 C   0  0  0  0  0  0  0  0  0  0  0  0
   -7.4900    4.5772  -17.6484 N   0  0  0  0  0  0  0  0  0  0  0  0
   -8.8983    4.3599  -18.0062 C   0  0  0  0  0  0  0  0  0  0  0  0
   -9.5769    4.3570  -16.6711 N   0  0  0  0  0  0  0  0  0  0  0  0
   -8.6085    4.6732  -15.7126 C   0  0  0  0  0  0  0  0  0  0  0  0
   -7.4073    4.7670  -16.2872 C   0  0  0  0  0  0  0  0  0  0  0  0
   -8.8364    5.0276  -14.2913 C   0  0  0  0  0  0  0  0  0  0  0  0
  -10.5278    4.1676  -16.5000 H   0  0  0  0  0  0  0  0  0  0  0  0
   -8.2120    4.3620  -10.1553 C   0  0  0  0  0  0  0  0  0  0  0  0
   -8.1277    5.3745   -9.1859 C   0  0  0  0  0  0  0  0  0  0  0  0
   -8.4752    5.1242   -7.8578 C   0  0  0  0  0  0  0  0  0  0  0  0
   -8.9417    3.8657   -7.5366 C   0  0  0  0  0  0  0  0  0  0  0  0
   -9.0328    2.8623   -8.4981 C   0  0  0  0  0  0  0  0  0  0  0  0
   -8.6475    3.0805   -9.8097 C   0  0  0  0  0  0  0  0  0  0  0  0
   -9.5893    1.6329   -7.8602 C   0  0  0  0  0  0  0  0  0  0  0  0
  -10.1536    2.0916   -6.5630 N   0  0  0  0  0  0  0  0  0  0  0  0
   -9.4172    3.3290   -6.2283 C   0  0  0  0  0  0  0  0  0  0  0  0
  -10.0098    1.3849   -5.8418 H   0  0  0  0  0  0  0  0  0  0  0  0
  1  2  2  0  0  0
  2  3  1  0  0  0
  3 18  1  0  0  0
 18 19  2  0  0  0
 19 20  1  0  0  0
 20 21  2  0  0  0
 21 22  1  0  0  0
 22 23  2  0  0  0
 22 24  1  0  0  0
 24 25  1  0  0  0
 25 26  1  0  0  0
  5  2  1  0  0  0
  5  6  1  0  0  0
  6  7  1  0  0  0
  7  8  2  0  0  0
  8  9  1  0  0  0
  9 10  2  0  0  0
 10 11  1  0  0  0
 11 12  1  0  0  0
 12 13  1  0  0  0
 13 14  1  0  0  0
 14 15  2  0  0  0
 14 16  1  0  0  0
 23 18  1  0  0  0
 16  5  1  0  0  0
 26 21  1  0  0  0
 15  7  1  0  0  0
 15 11  1  0  0  0
  3  4  1  0  0  0
 25 27  1  0  0  0
 13 17  1  0  0  0
M  END
> <minimizedAffinity>
-8.99095

> <minimizedRMSD>
0.97228

$$$$
P19213


 26 29  0  0  0  0  0  0  0  0999 V2000
   -7.7403    4.2347  -11.8016 N   0  0  0  0  0  0  0  0  0  0  0  0
   -6.4932    4.8223  -12.5119 C   0  0  0  0  0  0  0  0  0  0  0  0
   -5.5390    5.3307  -12.0694 O   0  0  0  0  0  0  0  0  0  0  0  0
   -8.3821    3.7871  -12.3991 H   0  0  0  0  0  0  0  0  0  0  0  0
   -7.7692    6.7420   -9.8886 C   0  0  0  0  0  0  0  0  0  0  0  0
   -8.1472    5.3309   -9.5516 C   0  0  0  0  0  0  0  0  0  0  0  0
   -8.5947    5.1212   -8.2255 C   0  0  0  0  0  0  0  0  0  0  0  0
   -8.9959    3.8636   -7.8217 C   0  0  0  0  0  0  0  0  0  0  0  0
   -8.9535    2.7951   -8.6961 C   0  0  0  0  0  0  0  0  0  0  0  0
   -8.5135    2.9612   -9.9945 C   0  0  0  0  0  0  0  0  0  0  0  0
   -8.1034    4.2371  -10.4445 C   0  0  0  0  0  0  0  0  0  0  0  0
   -9.4032    1.5634   -7.9862 C   0  0  0  0  0  0  0  0  0  0  0  0
  -10.0715    2.0537   -6.7530 N   0  0  0  0  0  0  0  0  0  0  0  0
   -9.4904    3.3902   -6.4965 C   0  0  0  0  0  0  0  0  0  0  0  0
   -9.8827    1.4264   -5.9712 H   0  0  0  0  0  0  0  0  0  0  0  0
   -6.6724    4.7705  -13.9802 C   0  0  0  0  0  0  0  0  0  0  0  0
   -5.6504    5.1339  -14.8532 C   0  0  0  0  0  0  0  0  0  0  0  0
   -5.8760    5.1210  -16.2424 C   0  0  0  0  0  0  0  0  0  0  0  0
   -4.7954    5.5920  -17.1742 C   0  0  0  0  0  0  0  0  0  0  0  0
   -7.1262    4.7629  -16.7544 C   0  0  0  0  0  0  0  0  0  0  0  0
   -7.3465    4.7200  -18.0758 N   0  0  0  0  0  0  0  0  0  0  0  0
   -8.6062    4.4711  -18.4957 C   0  0  0  0  0  0  0  0  0  0  0  0
   -9.6746    4.2493  -17.6609 C   0  0  0  0  0  0  0  0  0  0  0  0
   -9.4361    4.2240  -16.3121 C   0  0  0  0  0  0  0  0  0  0  0  0
   -8.1583    4.4703  -15.8397 C   0  0  0  0  0  0  0  0  0  0  0  0
   -7.9374    4.4653  -14.4700 C   0  0  0  0  0  0  0  0  0  0  0  0
  5  6  1  0  0  0
  6  7  2  0  0  0
  7  8  1  0  0  0
  8  9  2  0  0  0
  9 10  1  0  0  0
 10 11  2  0  0  0
 11  1  1  0  0  0
  1  2  1  0  0  0
  2  3  2  0  0  0
  2 16  1  0  0  0
 16 17  2  0  0  0
 17 18  1  0  0  0
 18 19  1  0  0  0
 18 20  2  0  0  0
 20 21  1  0  0  0
 21 22  2  0  0  0
 22 23  1  0  0  0
 23 24  2  0  0  0
 24 25  1  0  0  0
 25 26  2  0  0  0
  9 12  1  0  0  0
 12 13  1  0  0  0
 13 14  1  0  0  0
 11  6  1  0  0  0
 26 16  1  0  0  0
 14  8  1  0  0  0
 25 20  1  0  0  0
  1  4  1  0  0  0
 13 15  1  0  0  0
M  END
> <minimizedAffinity>
-8.46044

> <minimizedRMSD>
0.85002

$$$$
P19312


 43 47  0  0  0  0  0  0  0  0999 V2000
   -6.9828    4.0739  -13.4349 C   0  0  0  0  0  0  0  0  0  0  0  0
   -4.2103    5.4813  -16.6200 N   0  0  0  0  0  0  0  0  0  0  0  0
   -4.7686    5.5858  -15.3753 C   0  0  0  0  0  0  0  0  0  0  0  0
   -6.1085    5.2711  -15.5120 C   0  0  0  0  0  0  0  0  0  0  0  0
   -6.2405    5.0159  -16.8958 C   0  0  0  0  0  0  0  0  0  0  0  0
   -5.1121    5.2066  -17.5708 N   0  0  0  0  0  0  0  0  0  0  0  0
   -7.4780    4.6362  -17.5903 C   0  0  0  0  0  0  0  0  0  0  0  0
   -8.5259    4.1680  -16.5889 C   0  0  0  0  0  0  0  0  0  0  0  0
  -10.0980    4.2071  -17.4304 Cl  0  0  0  0  0  0  0  0  0  0  0  0
   -8.5980    4.9455  -15.2572 C   0  0  0  0  0  0  0  0  0  0  0  0
   -7.2413    5.1897  -14.5027 C   0  0  0  0  0  0  0  0  0  0  0  0
   -7.3812    6.4583  -13.8345 O   0  0  0  0  0  0  0  0  0  0  0  0
   -8.1043    6.4064  -13.1901 H   0  0  0  0  0  0  0  0  0  0  0  0
   -2.8222    5.6947  -16.9971 C   0  0  0  0  0  0  0  0  0  0  0  0
   -1.8957    5.7375  -19.1796 C   0  0  0  0  0  0  0  0  0  0  0  0
   -2.5193    4.9487  -18.1754 O   0  0  0  0  0  0  0  0  0  0  0  0
   -5.7399    4.3856  -12.5348 C   0  0  0  0  0  0  0  0  0  0  0  0
   -5.5183    5.4603  -12.1286 O   0  0  0  0  0  0  0  0  0  0  0  0
   -4.9097    3.0780  -12.4255 N   0  0  0  0  0  0  0  0  0  0  0  0
   -5.2790    2.3124  -12.9223 H   0  0  0  0  0  0  0  0  0  0  0  0
   -3.6822    2.8021  -11.7126 C   0  0  0  0  0  0  0  0  0  0  0  0
   -3.7469    2.0689  -10.0695 S   0  0  0  0  0  0  0  0  0  0  0  0
   -3.8702    3.1136   -9.0728 O   0  0  0  0  0  0  0  0  0  0  0  0
   -4.6170    0.9059  -10.0824 O   0  0  0  0  0  0  0  0  0  0  0  0
   -2.0976    1.4018   -9.8909 C   0  0  0  0  0  0  0  0  0  0  0  0
   -1.3635    1.0824  -11.0367 C   0  0  0  0  0  0  0  0  0  0  0  0
   -0.0838    0.5428  -10.9035 C   0  0  0  0  0  0  0  0  0  0  0  0
    0.4673    0.3292   -9.6326 C   0  0  0  0  0  0  0  0  0  0  0  0
    1.8301   -0.2844   -9.4907 C   0  0  0  0  0  0  0  0  0  0  0  0
   -0.2901    0.6368   -8.4936 C   0  0  0  0  0  0  0  0  0  0  0  0
   -1.5716    1.1750   -8.6184 C   0  0  0  0  0  0  0  0  0  0  0  0
   -8.1909    3.6711  -12.6810 N   0  0  0  0  0  0  0  0  0  0  0  0
   -8.9399    3.2916  -13.1949 H   0  0  0  0  0  0  0  0  0  0  0  0
   -8.3518    3.7851  -11.3109 C   0  0  0  0  0  0  0  0  0  0  0  0
   -8.1318    4.9860  -10.6147 C   0  0  0  0  0  0  0  0  0  0  0  0
   -8.2787    5.0668   -9.2247 C   0  0  0  0  0  0  0  0  0  0  0  0
   -8.6454    3.9263   -8.5386 C   0  0  0  0  0  0  0  0  0  0  0  0
   -8.8744    2.7374   -9.2109 C   0  0  0  0  0  0  0  0  0  0  0  0
   -8.7327    2.6506  -10.5840 C   0  0  0  0  0  0  0  0  0  0  0  0
   -9.3038    1.6891   -8.2469 C   0  0  0  0  0  0  0  0  0  0  0  0
   -9.1239    2.2767   -6.8921 N   0  0  0  0  0  0  0  0  0  0  0  0
   -8.8990    3.7277   -7.0864 C   0  0  0  0  0  0  0  0  0  0  0  0
   -8.3188    1.8546   -6.4296 H   0  0  0  0  0  0  0  0  0  0  0  0
 15 16  1  0  0  0
 16 14  1  0  0  0
 14  2  1  0  0  0
  2  3  1  0  0  0
  3  4  2  0  0  0
  4  5  1  0  0  0
  5  6  2  0  0  0
  5  7  1  0  0  0
  7  8  1  0  0  0
  8  9  1  0  0  0
  8 10  1  0  0  0
 10 11  1  0  0  0
 11 12  1  0  0  0
 11  1  1  0  0  0
  1 32  1  0  0  0
 32 34  1  0  0  0
 34 35  2  0  0  0
 35 36  1  0  0  0
 36 37  2  0  0  0
 37 38  1  0  0  0
 38 39  2  0  0  0
 38 40  1  0  0  0
 40 41  1  0  0  0
 41 42  1  0  0  0
  1 17  1  0  0  0
 17 18  2  0  0  0
 17 19  1  0  0  0
 19 21  1  0  0  0
 21 22  1  0  0  0
 22 23  2  0  0  0
 22 24  2  0  0  0
 22 25  1  0  0  0
 25 26  2  0  0  0
 26 27  1  0  0  0
 27 28  2  0  0  0
 28 29  1  0  0  0
 28 30  1  0  0  0
 30 31  2  0  0  0
  6  2  1  0  0  0
 39 34  1  0  0  0
 31 25  1  0  0  0
 11  4  1  0  0  0
 42 37  1  0  0  0
 12 13  1  0  0  0
 32 33  1  0  0  0
 41 43  1  0  0  0
 19 20  1  0  0  0
M  END
> <minimizedAffinity>
-8.82875

> <minimizedRMSD>
0.98698

$$$$
P19316


 46 49  0  0  0  0  0  0  0  0999 V2000
   -6.7566    4.5551  -14.2749 C   0  0  0  0  0  0  0  0  0  0  0  0
   -5.4357    4.0742  -14.3865 O   0  0  0  0  0  0  0  0  0  0  0  0
   -5.4529    3.1329  -14.6199 H   0  0  0  0  0  0  0  0  0  0  0  0
   -6.8374    4.7475  -18.0978 C   0  0  0  0  0  0  0  0  0  0  0  0
   -8.1866    4.5696  -18.3847 C   0  0  0  0  0  0  0  0  0  0  0  0
   -9.0931    4.2901  -17.3599 C   0  0  0  0  0  0  0  0  0  0  0  0
  -10.7552    4.1226  -17.7834 Cl  0  0  0  0  0  0  0  0  0  0  0  0
   -8.6807    4.2124  -16.0204 C   0  0  0  0  0  0  0  0  0  0  0  0
   -7.3346    4.4288  -15.6968 C   0  0  0  0  0  0  0  0  0  0  0  0
   -6.4453    4.6974  -16.7605 C   0  0  0  0  0  0  0  0  0  0  0  0
   -5.9333    5.1200  -19.1195 N   0  0  0  0  0  0  0  0  0  0  0  0
   -6.2521    5.5317  -19.9551 H   0  0  0  0  0  0  0  0  0  0  0  0
   -3.8069    6.0309  -19.3984 C   0  0  0  0  0  0  0  0  0  0  0  0
   -4.5579    4.8822  -18.9022 N   0  0  0  0  0  0  0  0  0  0  0  0
   -4.3828    4.7612  -17.9047 H   0  0  0  0  0  0  0  0  0  0  0  0
   -6.9325    6.1335  -13.8847 C   0  0  0  0  0  0  0  0  0  0  0  0
   -6.0480    6.8927  -13.9667 O   0  0  0  0  0  0  0  0  0  0  0  0
   -8.4084    6.3531  -13.4669 N   0  0  0  0  0  0  0  0  0  0  0  0
   -8.9836    5.5587  -13.5525 H   0  0  0  0  0  0  0  0  0  0  0  0
   -9.0807    7.5397  -12.9698 C   0  0  0  0  0  0  0  0  0  0  0  0
   -8.1365    8.8475  -12.1500 S   0  0  0  0  0  0  0  0  0  0  0  0
   -7.3713    9.5953  -13.1326 O   0  0  0  0  0  0  0  0  0  0  0  0
   -7.5187    8.3258  -10.9450 O   0  0  0  0  0  0  0  0  0  0  0  0
   -9.4492    9.9293  -11.6081 C   0  0  0  0  0  0  0  0  0  0  0  0
   -9.8071   11.0355  -12.3815 C   0  0  0  0  0  0  0  0  0  0  0  0
  -10.8712   11.8410  -11.9732 C   0  0  0  0  0  0  0  0  0  0  0  0
  -11.5701   11.5515  -10.7941 C   0  0  0  0  0  0  0  0  0  0  0  0
  -12.7596   12.3710  -10.3891 C   0  0  0  0  0  0  0  0  0  0  0  0
  -11.1909   10.4425  -10.0271 C   0  0  0  0  0  0  0  0  0  0  0  0
  -10.1235    9.6372  -10.4216 C   0  0  0  0  0  0  0  0  0  0  0  0
   -7.4251    3.6422  -13.3320 N   0  0  0  0  0  0  0  0  0  0  0  0
   -8.0366    2.9704  -13.7114 H   0  0  0  0  0  0  0  0  0  0  0  0
   -7.2617    3.6499  -11.9235 C   0  0  0  0  0  0  0  0  0  0  0  0
   -8.3142    3.0436  -11.2096 C   0  0  0  0  0  0  0  0  0  0  0  0
   -8.4664    3.2860   -9.8541 C   0  0  0  0  0  0  0  0  0  0  0  0
   -7.7340    4.2636   -9.2070 C   0  0  0  0  0  0  0  0  0  0  0  0
   -6.7045    4.8993   -9.8578 C   0  0  0  0  0  0  0  0  0  0  0  0
   -6.3633    4.4439  -11.1532 C   0  0  0  0  0  0  0  0  0  0  0  0
   -8.1280    4.3119   -7.7675 C   0  0  0  0  0  0  0  0  0  0  0  0
   -9.3274    3.4529   -7.6596 N   0  0  0  0  0  0  0  0  0  0  0  0
   -9.2813    2.5605   -8.8418 C   0  0  0  0  0  0  0  0  0  0  0  0
  -10.1749    4.0203   -7.6739 H   0  0  0  0  0  0  0  0  0  0  0  0
   -4.5669    4.0898  -11.2044 S   0  0  0  0  0  0  0  0  0  0  0  0
   -4.5029    2.3675  -11.6466 C   0  0  0  0  0  0  0  0  0  0  0  0
   -4.0425    4.1814   -9.8509 O   0  0  0  0  0  0  0  0  0  0  0  0
   -3.9558    4.8731  -12.2576 O   0  0  0  0  0  0  0  0  0  0  0  0
 13 14  1  0  0  0
 14 11  1  0  0  0
 11  4  1  0  0  0
  4  5  2  0  0  0
  5  6  1  0  0  0
  6  7  1  0  0  0
  6  8  2  0  0  0
  8  9  1  0  0  0
  9  1  1  0  0  0
  1  2  1  0  0  0
  1 31  1  0  0  0
 31 33  1  0  0  0
 33 34  2  0  0  0
 34 35  1  0  0  0
 35 36  2  0  0  0
 36 37  1  0  0  0
 37 38  2  0  0  0
 38 43  1  0  0  0
 43 44  1  0  0  0
 43 45  2  0  0  0
 43 46  2  0  0  0
 36 39  1  0  0  0
 39 40  1  0  0  0
 40 41  1  0  0  0
  1 16  1  0  0  0
 16 17  2  0  0  0
 16 18  1  0  0  0
 18 20  1  0  0  0
 20 21  1  0  0  0
 21 22  2  0  0  0
 21 23  2  0  0  0
 21 24  1  0  0  0
 24 25  2  0  0  0
 25 26  1  0  0  0
 26 27  2  0  0  0
 27 28  1  0  0  0
 27 29  1  0  0  0
 29 30  2  0  0  0
  9 10  2  0  0  0
 10  4  1  0  0  0
 38 33  1  0  0  0
 30 24  1  0  0  0
 41 35  1  0  0  0
 14 15  1  0  0  0
 11 12  1  0  0  0
  2  3  1  0  0  0
 31 32  1  0  0  0
 40 42  1  0  0  0
 18 19  1  0  0  0
M  END
> <minimizedAffinity>
-7.44795

> <minimizedRMSD>
1.21892

$$$$
P19345


 48 52  0  0  0  0  0  0  0  0999 V2000
   -6.6368    5.3941  -13.0301 C   0  0  0  0  0  0  0  0  0  0  0  0
   -5.4999    4.6787  -12.6019 O   0  0  0  0  0  0  0  0  0  0  0  0
   -5.4386    4.7178  -11.6346 H   0  0  0  0  0  0  0  0  0  0  0  0
   -6.6454    5.2737  -14.5635 C   0  0  0  0  0  0  0  0  0  0  0  0
   -7.7802    4.8343  -15.3007 C   0  0  0  0  0  0  0  0  0  0  0  0
   -7.7472    4.6336  -16.6858 C   0  0  0  0  0  0  0  0  0  0  0  0
   -9.1887    4.1267  -17.4764 Cl  0  0  0  0  0  0  0  0  0  0  0  0
   -6.5994    4.8783  -17.4389 C   0  0  0  0  0  0  0  0  0  0  0  0
   -5.5256    5.3905  -16.7099 C   0  0  0  0  0  0  0  0  0  0  0  0
   -4.2871    5.7623  -17.1606 N   0  0  0  0  0  0  0  0  0  0  0  0
   -3.4587    6.1983  -16.2056 N   0  0  0  0  0  0  0  0  0  0  0  0
   -4.1931    6.0587  -15.0971 C   0  0  0  0  0  0  0  0  0  0  0  0
   -5.5057    5.5847  -15.3418 C   0  0  0  0  0  0  0  0  0  0  0  0
   -4.0280    5.7128  -18.1091 H   0  0  0  0  0  0  0  0  0  0  0  0
   -6.4899    4.5387  -18.8918 C   0  0  0  0  0  0  0  0  0  0  0  0
   -5.7572    5.5745  -19.6448 N   0  0  0  0  0  0  0  0  0  0  0  0
   -6.2564    6.4614  -19.5769 H   0  0  0  0  0  0  0  0  0  0  0  0
   -5.6876    5.2977  -20.6241 H   0  0  0  0  0  0  0  0  0  0  0  0
   -8.0097    7.5363  -12.9326 N   0  0  0  0  0  0  0  0  0  0  0  0
   -6.5943    6.9651  -12.6571 C   0  0  0  0  0  0  0  0  0  0  0  0
   -5.6146    7.5025  -12.3135 O   0  0  0  0  0  0  0  0  0  0  0  0
   -8.6551    6.8842  -13.2896 H   0  0  0  0  0  0  0  0  0  0  0  0
   -8.5366    8.8739  -12.7499 C   0  0  0  0  0  0  0  0  0  0  0  0
  -10.3189    9.0067  -12.5800 S   0  0  0  0  0  0  0  0  0  0  0  0
  -10.8976    7.9944  -13.4482 O   0  0  0  0  0  0  0  0  0  0  0  0
  -10.6400    9.0581  -11.1691 O   0  0  0  0  0  0  0  0  0  0  0  0
  -11.4614   14.4780  -14.9343 C   0  0  0  0  0  0  0  0  0  0  0  0
  -11.1594   13.1227  -14.3646 C   0  0  0  0  0  0  0  0  0  0  0  0
  -11.3955   11.9655  -15.1198 C   0  0  0  0  0  0  0  0  0  0  0  0
  -11.1621   10.7029  -14.5734 C   0  0  0  0  0  0  0  0  0  0  0  0
  -10.6762   10.6007  -13.2697 C   0  0  0  0  0  0  0  0  0  0  0  0
  -10.4692   11.7410  -12.4908 C   0  0  0  0  0  0  0  0  0  0  0  0
  -10.7145   12.9996  -13.0410 C   0  0  0  0  0  0  0  0  0  0  0  0
   -7.8204    4.7086  -12.4867 N   0  0  0  0  0  0  0  0  0  0  0  0
   -8.4900    4.3304  -13.1014 H   0  0  0  0  0  0  0  0  0  0  0  0
   -8.0038    4.5887  -11.0968 C   0  0  0  0  0  0  0  0  0  0  0  0
   -7.6951    5.6004  -10.1659 C   0  0  0  0  0  0  0  0  0  0  0  0
   -7.9725    5.4624   -8.7978 C   0  0  0  0  0  0  0  0  0  0  0  0
   -8.5756    4.3018   -8.3715 C   0  0  0  0  0  0  0  0  0  0  0  0
   -8.8943    3.3061   -9.2800 C   0  0  0  0  0  0  0  0  0  0  0  0
   -8.6258    3.4283  -10.6290 C   0  0  0  0  0  0  0  0  0  0  0  0
   -9.4709    2.1480   -8.5619 C   0  0  0  0  0  0  0  0  0  0  0  0
   -8.4918    1.1269   -8.4699 N   0  0  0  0  0  0  0  0  0  0  0  0
   -9.7555    2.6012   -7.2006 N   0  0  0  0  0  0  0  0  0  0  0  0
   -8.9678    3.8446   -7.0072 C   0  0  0  0  0  0  0  0  0  0  0  0
   -7.6675    1.4885   -7.9901 H   0  0  0  0  0  0  0  0  0  0  0  0
   -8.2321    0.8195   -9.4072 H   0  0  0  0  0  0  0  0  0  0  0  0
   -9.4700    1.8926   -6.5247 H   0  0  0  0  0  0  0  0  0  0  0  0
 27 28  1  0  0  0
 28 29  2  0  0  0
 29 30  1  0  0  0
 30 31  2  0  0  0
 31 24  1  0  0  0
 24 25  2  0  0  0
 24 26  2  0  0  0
 24 23  1  0  0  0
 23 19  1  0  0  0
 19 20  1  0  0  0
 20 21  2  0  0  0
 20  1  1  0  0  0
  1  2  1  0  0  0
  1 34  1  0  0  0
 34 36  1  0  0  0
 36 37  2  0  0  0
 37 38  1  0  0  0
 38 39  2  0  0  0
 39 40  1  0  0  0
 40 41  2  0  0  0
 40 42  1  0  0  0
 42 43  1  0  0  0
 42 44  1  0  0  0
 44 45  1  0  0  0
  1  4  1  0  0  0
  4  5  2  0  0  0
  5  6  1  0  0  0
  6  7  1  0  0  0
  6  8  2  0  0  0
  8 15  1  0  0  0
 15 16  1  0  0  0
  8  9  1  0  0  0
  9 10  1  0  0  0
 10 11  1  0  0  0
 11 12  2  0  0  0
 12 13  1  0  0  0
 31 32  1  0  0  0
 32 33  2  0  0  0
 33 28  1  0  0  0
 41 36  1  0  0  0
 13  4  1  0  0  0
 45 39  1  0  0  0
 13  9  2  0  0  0
 19 22  1  0  0  0
  2  3  1  0  0  0
 34 35  1  0  0  0
 43 46  1  0  0  0
 43 47  1  0  0  0
 44 48  1  0  0  0
 16 17  1  0  0  0
 16 18  1  0  0  0
 10 14  1  0  0  0
M  END
> <minimizedAffinity>
-8.96179

> <minimizedRMSD>
0.54294

$$$$
P19348


 53 58  0  0  0  0  0  0  0  0999 V2000
   -6.6626    4.7879  -12.7744 C   0  0  0  0  0  0  0  0  0  0  0  0
   -7.1143    6.0703  -12.3819 O   0  0  0  0  0  0  0  0  0  0  0  0
   -7.1143    6.1307  -11.4137 H   0  0  0  0  0  0  0  0  0  0  0  0
   -6.7103    4.8250  -14.3078 C   0  0  0  0  0  0  0  0  0  0  0  0
   -7.8791    4.3744  -14.9877 C   0  0  0  0  0  0  0  0  0  0  0  0
   -7.9834    4.3433  -16.3801 C   0  0  0  0  0  0  0  0  0  0  0  0
   -9.4652    3.8209  -17.0785 Cl  0  0  0  0  0  0  0  0  0  0  0  0
   -6.9426    4.7756  -17.1990 C   0  0  0  0  0  0  0  0  0  0  0  0
   -5.8575    5.3323  -16.5194 C   0  0  0  0  0  0  0  0  0  0  0  0
   -4.7343    5.9042  -17.0550 N   0  0  0  0  0  0  0  0  0  0  0  0
   -3.8720    6.3718  -16.1516 N   0  0  0  0  0  0  0  0  0  0  0  0
   -4.4546    6.0509  -14.9929 C   0  0  0  0  0  0  0  0  0  0  0  0
   -5.7062    5.3868  -15.1428 C   0  0  0  0  0  0  0  0  0  0  0  0
   -4.5768    5.9649  -18.0249 H   0  0  0  0  0  0  0  0  0  0  0  0
   -6.9575    4.6035  -18.6870 C   0  0  0  0  0  0  0  0  0  0  0  0
   -5.6795    5.0025  -19.3067 N   0  0  0  0  0  0  0  0  0  0  0  0
   -5.5057    5.9904  -19.1215 H   0  0  0  0  0  0  0  0  0  0  0  0
   -5.7274    4.8486  -20.3139 H   0  0  0  0  0  0  0  0  0  0  0  0
   -4.9467    2.9106  -12.4639 N   0  0  0  0  0  0  0  0  0  0  0  0
   -5.1727    4.4357  -12.2470 C   0  0  0  0  0  0  0  0  0  0  0  0
   -4.4877    5.2398  -11.7415 O   0  0  0  0  0  0  0  0  0  0  0  0
   -5.7142    2.4312  -12.8515 H   0  0  0  0  0  0  0  0  0  0  0  0
   -3.7893    2.0816  -12.1878 C   0  0  0  0  0  0  0  0  0  0  0  0
   -2.1275    2.7417  -12.0775 S   0  0  0  0  0  0  0  0  0  0  0  0
   -1.9750    3.8232  -13.0338 O   0  0  0  0  0  0  0  0  0  0  0  0
   -1.2019    1.6199  -12.1178 O   0  0  0  0  0  0  0  0  0  0  0  0
   -1.6033    4.8401   -6.4030 C   0  0  0  0  0  0  0  0  0  0  0  0
   -1.7569    4.3535   -7.8148 C   0  0  0  0  0  0  0  0  0  0  0  0
   -2.6486    3.3132   -8.1080 C   0  0  0  0  0  0  0  0  0  0  0  0
   -2.7752    2.8377   -9.4136 C   0  0  0  0  0  0  0  0  0  0  0  0
   -2.0036    3.4047  -10.4326 C   0  0  0  0  0  0  0  0  0  0  0  0
   -1.0903    4.4199  -10.1493 C   0  0  0  0  0  0  0  0  0  0  0  0
   -0.9707    4.8933   -8.8416 C   0  0  0  0  0  0  0  0  0  0  0  0
   -7.5436    3.7525  -12.2059 N   0  0  0  0  0  0  0  0  0  0  0  0
   -7.0225    2.8759  -12.1847 H   0  0  0  0  0  0  0  0  0  0  0  0
   -8.0497    4.0143  -10.8355 C   0  0  0  0  0  0  0  0  0  0  0  0
   -8.5604    2.6620  -10.2781 C   0  0  0  0  0  0  0  0  0  0  0  0
   -8.9371    2.7806   -8.8471 C   0  0  0  0  0  0  0  0  0  0  0  0
   -8.6489    3.8158   -8.0514 C   0  0  0  0  0  0  0  0  0  0  0  0
   -9.2102    3.5831   -6.6969 C   0  0  0  0  0  0  0  0  0  0  0  0
  -10.0496    2.3718   -6.8344 N   0  0  0  0  0  0  0  0  0  0  0  0
   -9.6108    1.7114   -8.0784 C   0  0  0  0  0  0  0  0  0  0  0  0
   -7.7975    4.9726   -8.4371 C   0  0  0  0  0  0  0  0  0  0  0  0
   -7.0979    4.6637   -9.7970 C   0  0  0  0  0  0  0  0  0  0  0  0
   -6.8003    5.2643   -7.4034 N   0  0  0  0  0  0  0  0  0  0  0  0
   -6.5614    6.6755   -7.4747 N   0  0  0  0  0  0  0  0  0  0  0  0
   -7.7130    7.2645   -8.0597 N   0  0  0  0  0  0  0  0  0  0  0  0
   -8.5736    6.2076   -8.5084 N   0  0  0  0  0  0  0  0  0  0  0  0
  -11.0347    2.6287   -6.8981 H   0  0  0  0  0  0  0  0  0  0  0  0
   -5.9391    4.7491   -7.5859 H   0  0  0  0  0  0  0  0  0  0  0  0
   -5.7412    6.8629   -8.0514 H   0  0  0  0  0  0  0  0  0  0  0  0
   -7.4394    7.8473   -8.8508 H   0  0  0  0  0  0  0  0  0  0  0  0
   -8.8708    6.3806   -9.4687 H   0  0  0  0  0  0  0  0  0  0  0  0
 27 28  1  0  0  0
 28 29  2  0  0  0
 29 30  1  0  0  0
 30 31  2  0  0  0
 31 24  1  0  0  0
 24 25  2  0  0  0
 24 26  2  0  0  0
 24 23  1  0  0  0
 23 19  1  0  0  0
 19 20  1  0  0  0
 20 21  2  0  0  0
 20  1  1  0  0  0
  1  2  1  0  0  0
  1 34  1  0  0  0
 36 34  1  0  0  0
 36 37  1  0  0  0
 37 38  1  0  0  0
 38 39  2  0  0  0
 39 40  1  0  0  0
 40 41  1  0  0  0
 41 42  1  0  0  0
 39 43  1  0  0  0
 43 44  1  0  0  0
 43 45  1  0  0  0
 45 46  1  0  0  0
 46 47  1  0  0  0
 47 48  1  0  0  0
  1  4  1  0  0  0
  4  5  2  0  0  0
  5  6  1  0  0  0
  6  7  1  0  0  0
  6  8  2  0  0  0
  8 15  1  0  0  0
 15 16  1  0  0  0
  8  9  1  0  0  0
  9 10  1  0  0  0
 10 11  1  0  0  0
 11 12  2  0  0  0
 12 13  1  0  0  0
 31 32  1  0  0  0
 32 33  2  0  0  0
 33 28  1  0  0  0
 44 36  1  0  0  0
 13  4  1  0  0  0
 42 38  1  0  0  0
 48 43  1  0  0  0
 13  9  2  0  0  0
 19 22  1  0  0  0
  2  3  1  0  0  0
 34 35  1  0  0  0
 41 49  1  0  0  0
 45 50  1  0  0  0
 46 51  1  0  0  0
 47 52  1  0  0  0
 48 53  1  0  0  0
 16 17  1  0  0  0
 16 18  1  0  0  0
 10 14  1  0  0  0
M  END
> <minimizedAffinity>
-8.46181

> <minimizedRMSD>
1.01644

$$$$
P19352


 46 51  0  0  0  0  0  0  0  0999 V2000
   -7.0476    4.4585  -13.6161 C   0  0  0  0  0  0  0  0  0  0  0  0
   -7.2475    4.6346  -15.1277 C   0  0  0  0  0  0  0  0  0  0  0  0
   -8.4941    4.3724  -15.7440 C   0  0  0  0  0  0  0  0  0  0  0  0
   -8.6628    4.4111  -17.1258 C   0  0  0  0  0  0  0  0  0  0  0  0
  -10.2282    4.2324  -17.7839 Cl  0  0  0  0  0  0  0  0  0  0  0  0
   -7.6118    4.6878  -17.9853 C   0  0  0  0  0  0  0  0  0  0  0  0
   -6.3993    5.0045  -17.3866 C   0  0  0  0  0  0  0  0  0  0  0  0
   -5.2041    5.3562  -17.9522 N   0  0  0  0  0  0  0  0  0  0  0  0
   -4.2319    5.6066  -17.0563 N   0  0  0  0  0  0  0  0  0  0  0  0
   -4.8319    5.3789  -15.8835 C   0  0  0  0  0  0  0  0  0  0  0  0
   -6.1924    4.9969  -16.0105 C   0  0  0  0  0  0  0  0  0  0  0  0
   -5.0680    5.4202  -18.9251 H   0  0  0  0  0  0  0  0  0  0  0  0
   -5.2137    5.0641  -12.0170 N   0  0  0  0  0  0  0  0  0  0  0  0
   -6.2724    5.6781  -12.9921 C   0  0  0  0  0  0  0  0  0  0  0  0
   -6.5275    6.7975  -13.2280 O   0  0  0  0  0  0  0  0  0  0  0  0
   -5.2448    4.0832  -11.9389 H   0  0  0  0  0  0  0  0  0  0  0  0
   -4.1999    5.7022  -11.2142 C   0  0  0  0  0  0  0  0  0  0  0  0
   -5.5587    5.7732   -3.0639 C   0  0  0  0  0  0  0  0  0  0  0  0
   -5.1542    5.5840   -4.5253 C   0  0  0  0  0  0  0  0  0  0  0  0
   -6.1509    6.2550   -5.4661 C   0  0  0  0  0  0  0  0  0  0  0  0
   -5.8144    6.0607   -6.9514 C   0  0  0  0  0  0  0  0  0  0  0  0
   -4.3058    5.8181   -7.2764 C   0  0  0  0  0  0  0  0  0  0  0  0
   -3.4626    6.5578   -6.2126 C   0  0  0  0  0  0  0  0  0  0  0  0
   -3.7293    6.1042   -4.7687 C   0  0  0  0  0  0  0  0  0  0  0  0
   -4.0377    4.3510   -7.1319 N   0  0  0  0  0  0  0  0  0  0  0  0
   -2.9694    3.9124   -8.0338 C   0  0  0  0  0  0  0  0  0  0  0  0
   -3.4179    4.0086   -9.4930 C   0  0  0  0  0  0  0  0  0  0  0  0
   -4.3115    5.2403   -9.7584 C   0  0  0  0  0  0  0  0  0  0  0  0
   -4.0041    6.3559   -8.7444 C   0  0  0  0  0  0  0  0  0  0  0  0
   -4.8897    3.8346   -7.3505 H   0  0  0  0  0  0  0  0  0  0  0  0
   -2.6285    6.7304   -8.9125 O   0  0  0  0  0  0  0  0  0  0  0  0
   -2.4646    8.0906   -9.2648 C   0  0  0  0  0  0  0  0  0  0  0  0
   -1.5294    8.6605   -8.3752 O   0  0  0  0  0  0  0  0  0  0  0  0
   -1.8561    8.5774   -7.4657 H   0  0  0  0  0  0  0  0  0  0  0  0
   -8.3410    4.1705  -12.9308 N   0  0  0  0  0  0  0  0  0  0  0  0
   -9.1608    4.0184  -13.4543 H   0  0  0  0  0  0  0  0  0  0  0  0
   -8.3719    4.1195  -11.5263 C   0  0  0  0  0  0  0  0  0  0  0  0
   -8.1815    5.2798  -10.7522 C   0  0  0  0  0  0  0  0  0  0  0  0
   -8.2758    5.2547   -9.3562 C   0  0  0  0  0  0  0  0  0  0  0  0
   -8.5772    4.0554   -8.7414 C   0  0  0  0  0  0  0  0  0  0  0  0
   -8.7787    2.9063   -9.4899 C   0  0  0  0  0  0  0  0  0  0  0  0
   -8.6620    2.9147  -10.8721 C   0  0  0  0  0  0  0  0  0  0  0  0
   -9.1752    1.7846   -8.5928 C   0  0  0  0  0  0  0  0  0  0  0  0
   -9.1790    2.3345   -7.2101 N   0  0  0  0  0  0  0  0  0  0  0  0
   -8.8027    3.7600   -7.3003 C   0  0  0  0  0  0  0  0  0  0  0  0
   -8.5045    1.8318   -6.6332 H   0  0  0  0  0  0  0  0  0  0  0  0
 19 18  1  0  0  0
 19 20  1  0  0  0
 20 21  1  0  0  0
 22 21  1  0  0  0
 22 23  1  0  0  0
 23 24  1  0  0  0
 22 25  1  0  0  0
 25 26  1  0  0  0
 26 27  1  0  0  0
 27 28  1  0  0  0
 28 17  1  0  0  0
 17 13  1  0  0  0
 13 14  1  0  0  0
 14 15  2  0  0  0
 14  1  1  0  0  0
  1 35  1  0  0  0
 35 37  1  0  0  0
 37 38  2  0  0  0
 38 39  1  0  0  0
 39 40  2  0  0  0
 40 41  1  0  0  0
 41 42  2  0  0  0
 41 43  1  0  0  0
 43 44  1  0  0  0
 44 45  1  0  0  0
  1  2  1  0  0  0
  2  3  2  0  0  0
  3  4  1  0  0  0
  4  5  1  0  0  0
  4  6  2  0  0  0
  6  7  1  0  0  0
  7  8  1  0  0  0
  8  9  1  0  0  0
  9 10  2  0  0  0
 10 11  1  0  0  0
 28 29  1  0  0  0
 29 31  1  0  0  0
 31 32  1  0  0  0
 32 33  1  0  0  0
 24 19  1  0  0  0
 42 37  1  0  0  0
 11  2  1  0  0  0
 29 22  1  0  0  0
 45 40  1  0  0  0
 11  7  2  0  0  0
 25 30  1  0  0  0
 13 16  1  0  0  0
 35 36  1  0  0  0
 44 46  1  0  0  0
  8 12  1  0  0  0
 33 34  1  0  0  0
M  END
> <minimizedAffinity>
-7.56030

> <minimizedRMSD>
0.52305

$$$$
P19368


 46 51  0  0  0  0  0  0  0  0999 V2000
   -7.1412    4.7780  -13.2262 C   0  0  0  0  0  0  0  0  0  0  0  0
   -5.9463    4.0984  -12.9116 O   0  0  0  0  0  0  0  0  0  0  0  0
   -5.8027    4.1240  -11.9526 H   0  0  0  0  0  0  0  0  0  0  0  0
   -7.3036    4.6972  -14.7556 C   0  0  0  0  0  0  0  0  0  0  0  0
   -8.4644    4.1944  -15.3815 C   0  0  0  0  0  0  0  0  0  0  0  0
   -8.5758    4.1439  -16.7823 C   0  0  0  0  0  0  0  0  0  0  0  0
  -10.0551    3.6629  -17.4971 Cl  0  0  0  0  0  0  0  0  0  0  0  0
   -7.5496    4.5755  -17.6097 C   0  0  0  0  0  0  0  0  0  0  0  0
   -6.4175    5.0811  -17.0125 C   0  0  0  0  0  0  0  0  0  0  0  0
   -6.2999    5.1566  -15.6223 C   0  0  0  0  0  0  0  0  0  0  0  0
   -5.0043    5.8375  -15.2995 C   0  0  0  0  0  0  0  0  0  0  0  0
   -4.3192    5.9701  -16.6960 C   0  0  0  0  0  0  0  0  0  0  0  0
   -3.7971    7.4043  -16.9138 C   0  0  0  0  0  0  0  0  0  0  0  0
   -3.0211    7.5535  -18.2241 C   0  0  0  0  0  0  0  0  0  0  0  0
   -1.8870    6.5412  -18.3377 C   0  0  0  0  0  0  0  0  0  0  0  0
   -2.3804    5.1129  -18.1363 C   0  0  0  0  0  0  0  0  0  0  0  0
   -3.1519    4.9760  -16.8244 C   0  0  0  0  0  0  0  0  0  0  0  0
   -5.3641    5.7018  -17.7077 N   0  0  0  0  0  0  0  0  0  0  0  0
   -5.3294    5.9138  -18.6685 H   0  0  0  0  0  0  0  0  0  0  0  0
   -8.5735    6.8759  -13.0816 N   0  0  0  0  0  0  0  0  0  0  0  0
   -7.1427    6.3358  -12.7920 C   0  0  0  0  0  0  0  0  0  0  0  0
   -6.2182    6.8624  -12.3058 O   0  0  0  0  0  0  0  0  0  0  0  0
   -9.1571    6.2543  -13.5738 H   0  0  0  0  0  0  0  0  0  0  0  0
   -9.1874    8.1480  -12.7436 C   0  0  0  0  0  0  0  0  0  0  0  0
   -8.2114    9.6282  -12.4293 S   0  0  0  0  0  0  0  0  0  0  0  0
   -7.0987    9.6946  -13.3593 O   0  0  0  0  0  0  0  0  0  0  0  0
   -9.1305   10.7521  -12.3411 O   0  0  0  0  0  0  0  0  0  0  0  0
   -6.0975    8.7196   -6.8092 C   0  0  0  0  0  0  0  0  0  0  0  0
   -6.6281    8.9789   -8.1881 C   0  0  0  0  0  0  0  0  0  0  0  0
   -5.8224    9.6004   -9.1525 C   0  0  0  0  0  0  0  0  0  0  0  0
   -6.3006    9.8149  -10.4467 C   0  0  0  0  0  0  0  0  0  0  0  0
   -7.5811    9.3811  -10.7853 C   0  0  0  0  0  0  0  0  0  0  0  0
   -8.4003    8.7678   -9.8317 C   0  0  0  0  0  0  0  0  0  0  0  0
   -7.9169    8.5574   -8.5399 C   0  0  0  0  0  0  0  0  0  0  0  0
   -8.2391    4.0416  -12.5514 N   0  0  0  0  0  0  0  0  0  0  0  0
   -8.9294    3.5985  -13.0958 H   0  0  0  0  0  0  0  0  0  0  0  0
   -8.3125    3.9643  -11.1414 C   0  0  0  0  0  0  0  0  0  0  0  0
   -8.0814    5.0579  -10.2806 C   0  0  0  0  0  0  0  0  0  0  0  0
   -8.2641    4.9735   -8.8952 C   0  0  0  0  0  0  0  0  0  0  0  0
   -8.6870    3.7766   -8.3639 C   0  0  0  0  0  0  0  0  0  0  0  0
   -8.9177    2.6837   -9.1816 C   0  0  0  0  0  0  0  0  0  0  0  0
   -8.7601    2.7650  -10.5596 C   0  0  0  0  0  0  0  0  0  0  0  0
   -9.3054    1.5159   -8.3407 C   0  0  0  0  0  0  0  0  0  0  0  0
   -9.4834    2.0360   -6.9578 N   0  0  0  0  0  0  0  0  0  0  0  0
   -8.9741    3.4215   -6.9478 C   0  0  0  0  0  0  0  0  0  0  0  0
   -8.9558    1.4643   -6.2981 H   0  0  0  0  0  0  0  0  0  0  0  0
 28 29  1  0  0  0
 29 30  2  0  0  0
 30 31  1  0  0  0
 31 32  2  0  0  0
 32 25  1  0  0  0
 25 26  2  0  0  0
 25 27  2  0  0  0
 25 24  1  0  0  0
 24 20  1  0  0  0
 20 21  1  0  0  0
 21 22  2  0  0  0
 21  1  1  0  0  0
  1  2  1  0  0  0
  1 35  1  0  0  0
 35 37  1  0  0  0
 37 38  2  0  0  0
 38 39  1  0  0  0
 39 40  2  0  0  0
 40 41  1  0  0  0
 41 42  2  0  0  0
 41 43  1  0  0  0
 43 44  1  0  0  0
 44 45  1  0  0  0
  1  4  1  0  0  0
  4  5  2  0  0  0
  5  6  1  0  0  0
  6  7  1  0  0  0
  6  8  2  0  0  0
  8  9  1  0  0  0
  9 10  2  0  0  0
 10 11  1  0  0  0
 11 12  1  0  0  0
 12 13  1  0  0  0
 13 14  1  0  0  0
 14 15  1  0  0  0
 15 16  1  0  0  0
 16 17  1  0  0  0
 12 18  1  0  0  0
 32 33  1  0  0  0
 33 34  2  0  0  0
 34 29  1  0  0  0
 42 37  1  0  0  0
 10  4  1  0  0  0
 17 12  1  0  0  0
 45 40  1  0  0  0
 18  9  1  0  0  0
 20 23  1  0  0  0
  2  3  1  0  0  0
 35 36  1  0  0  0
 44 46  1  0  0  0
 18 19  1  0  0  0
M  END
> <minimizedAffinity>
-8.94038

> <minimizedRMSD>
0.59901

$$$$
P19369


 43 47  0  0  0  0  0  0  0  0999 V2000
   -6.8520    5.4853  -13.4323 C   0  0  0  0  0  0  0  0  0  0  0  0
   -6.9805    6.8860  -13.5358 O   0  0  0  0  0  0  0  0  0  0  0  0
   -6.9785    7.2773  -12.6483 H   0  0  0  0  0  0  0  0  0  0  0  0
   -6.8775    5.0799  -14.9190 C   0  0  0  0  0  0  0  0  0  0  0  0
   -8.0848    4.5667  -15.4719 C   0  0  0  0  0  0  0  0  0  0  0  0
   -8.2400    4.3117  -16.8326 C   0  0  0  0  0  0  0  0  0  0  0  0
   -9.7669    3.8345  -17.4330 Cl  0  0  0  0  0  0  0  0  0  0  0  0
   -7.2185    4.5423  -17.7378 C   0  0  0  0  0  0  0  0  0  0  0  0
   -6.0508    5.0897  -17.2194 C   0  0  0  0  0  0  0  0  0  0  0  0
   -4.9121    5.4783  -17.8701 N   0  0  0  0  0  0  0  0  0  0  0  0
   -3.9825    6.0157  -17.0645 N   0  0  0  0  0  0  0  0  0  0  0  0
   -4.5603    5.9664  -15.8592 C   0  0  0  0  0  0  0  0  0  0  0  0
   -5.8515    5.3707  -15.8682 C   0  0  0  0  0  0  0  0  0  0  0  0
   -4.7859    5.3734  -18.8408 H   0  0  0  0  0  0  0  0  0  0  0  0
   -5.3962    3.5587  -12.7168 N   0  0  0  0  0  0  0  0  0  0  0  0
   -5.5058    4.9899  -12.6915 C   0  0  0  0  0  0  0  0  0  0  0  0
   -4.7899    5.8218  -12.2055 O   0  0  0  0  0  0  0  0  0  0  0  0
   -6.0851    3.1058  -13.2549 H   0  0  0  0  0  0  0  0  0  0  0  0
   -4.4450    2.6675  -12.0857 C   0  0  0  0  0  0  0  0  0  0  0  0
   -4.6983    2.3445  -10.3223 S   0  0  0  0  0  0  0  0  0  0  0  0
   -5.3978    1.0823  -10.1727 O   0  0  0  0  0  0  0  0  0  0  0  0
   -5.1799    3.5504   -9.6723 O   0  0  0  0  0  0  0  0  0  0  0  0
    0.9740    1.4256   -8.3588 C   0  0  0  0  0  0  0  0  0  0  0  0
   -0.4335    1.6374   -8.8332 C   0  0  0  0  0  0  0  0  0  0  0  0
   -0.8459    1.1303  -10.0726 C   0  0  0  0  0  0  0  0  0  0  0  0
   -2.1463    1.3454  -10.5305 C   0  0  0  0  0  0  0  0  0  0  0  0
   -3.0335    2.0849   -9.7496 C   0  0  0  0  0  0  0  0  0  0  0  0
   -2.6404    2.5983   -8.5117 C   0  0  0  0  0  0  0  0  0  0  0  0
   -1.3367    2.3820   -8.0622 C   0  0  0  0  0  0  0  0  0  0  0  0
   -8.0302    4.9570  -12.7136 N   0  0  0  0  0  0  0  0  0  0  0  0
   -8.7986    4.6923  -13.2693 H   0  0  0  0  0  0  0  0  0  0  0  0
   -8.1765    4.7905  -11.3293 C   0  0  0  0  0  0  0  0  0  0  0  0
   -8.5284    3.4871  -10.9023 C   0  0  0  0  0  0  0  0  0  0  0  0
   -8.7069    3.2043   -9.5539 C   0  0  0  0  0  0  0  0  0  0  0  0
   -8.5721    4.1850   -8.5931 C   0  0  0  0  0  0  0  0  0  0  0  0
   -8.2392    5.4717   -8.9526 C   0  0  0  0  0  0  0  0  0  0  0  0
   -8.0429    5.7808  -10.3163 C   0  0  0  0  0  0  0  0  0  0  0  0
   -8.8385    3.6186   -7.2438 C   0  0  0  0  0  0  0  0  0  0  0  0
   -9.2422    2.2131   -7.4519 N   0  0  0  0  0  0  0  0  0  0  0  0
   -9.0294    1.9071   -8.8926 C   0  0  0  0  0  0  0  0  0  0  0  0
  -10.2256    2.0918   -7.2098 H   0  0  0  0  0  0  0  0  0  0  0  0
   -7.7335    7.1553  -10.5663 C   0  0  0  0  0  0  0  0  0  0  0  0
   -7.4643    8.2602  -10.8082 N   0  0  0  0  0  0  0  0  0  0  0  0
 23 24  1  0  0  0
 24 25  2  0  0  0
 25 26  1  0  0  0
 26 27  2  0  0  0
 27 20  1  0  0  0
 20 21  2  0  0  0
 20 22  2  0  0  0
 20 19  1  0  0  0
 19 15  1  0  0  0
 15 16  1  0  0  0
 16 17  2  0  0  0
 16  1  1  0  0  0
  1  2  1  0  0  0
  1 30  1  0  0  0
 30 32  1  0  0  0
 32 33  2  0  0  0
 33 34  1  0  0  0
 34 35  2  0  0  0
 35 36  1  0  0  0
 36 37  2  0  0  0
 37 42  1  0  0  0
 42 43  3  0  0  0
 35 38  1  0  0  0
 38 39  1  0  0  0
 39 40  1  0  0  0
  1  4  1  0  0  0
  4  5  2  0  0  0
  5  6  1  0  0  0
  6  7  1  0  0  0
  6  8  2  0  0  0
  8  9  1  0  0  0
  9 10  1  0  0  0
 10 11  1  0  0  0
 11 12  2  0  0  0
 12 13  1  0  0  0
 27 28  1  0  0  0
 28 29  2  0  0  0
 29 24  1  0  0  0
 37 32  1  0  0  0
 13  4  1  0  0  0
 40 34  1  0  0  0
 13  9  2  0  0  0
 15 18  1  0  0  0
  2  3  1  0  0  0
 30 31  1  0  0  0
 39 41  1  0  0  0
 10 14  1  0  0  0
M  END
> <minimizedAffinity>
-8.41101

> <minimizedRMSD>
0.60509

$$$$
P19375


 39 44  0  0  0  0  0  0  0  0999 V2000
   -7.7699    5.4260  -13.6423 C   0  0  0  0  0  0  0  0  0  0  0  0
   -7.4936    5.0683  -15.0982 C   0  0  0  0  0  0  0  0  0  0  0  0
   -8.5534    4.6539  -15.9394 C   0  0  0  0  0  0  0  0  0  0  0  0
   -8.3790    4.4554  -17.3080 C   0  0  0  0  0  0  0  0  0  0  0  0
   -9.7362    4.0740  -18.2856 Cl  0  0  0  0  0  0  0  0  0  0  0  0
   -7.1368    4.6188  -17.9112 C   0  0  0  0  0  0  0  0  0  0  0  0
   -6.0847    5.0006  -17.0785 C   0  0  0  0  0  0  0  0  0  0  0  0
   -4.7653    5.2338  -17.3616 N   0  0  0  0  0  0  0  0  0  0  0  0
   -4.0425    5.6345  -16.2960 N   0  0  0  0  0  0  0  0  0  0  0  0
   -4.9301    5.6253  -15.2996 C   0  0  0  0  0  0  0  0  0  0  0  0
   -6.2276    5.2318  -15.7133 C   0  0  0  0  0  0  0  0  0  0  0  0
   -4.3800    5.1195  -18.2604 H   0  0  0  0  0  0  0  0  0  0  0  0
   -8.0438    7.8636  -13.0373 N   0  0  0  0  0  0  0  0  0  0  0  0
   -8.8072    6.6150  -13.6084 C   0  0  0  0  0  0  0  0  0  0  0  0
   -9.9208    6.5018  -13.9638 O   0  0  0  0  0  0  0  0  0  0  0  0
   -7.0820    7.7234  -12.8813 H   0  0  0  0  0  0  0  0  0  0  0  0
   -8.7800    9.5401  -11.2669 C   0  0  0  0  0  0  0  0  0  0  0  0
   -7.6354   10.1682  -12.0396 C   0  0  0  0  0  0  0  0  0  0  0  0
   -7.6511   11.5780  -12.5273 C   0  0  0  0  0  0  0  0  0  0  0  0
   -8.5148    9.1559  -12.7114 C   0  0  0  0  0  0  0  0  0  0  0  0
  -13.6983   12.4130   -9.9348 C   0  0  0  0  0  0  0  0  0  0  0  0
  -12.4363   11.6850  -10.2875 C   0  0  0  0  0  0  0  0  0  0  0  0
  -12.4420   10.6682  -11.2448 C   0  0  0  0  0  0  0  0  0  0  0  0
  -11.2641    9.9823  -11.5543 C   0  0  0  0  0  0  0  0  0  0  0  0
  -10.0467   10.2888  -10.9251 C   0  0  0  0  0  0  0  0  0  0  0  0
  -10.0672   11.2882   -9.9402 C   0  0  0  0  0  0  0  0  0  0  0  0
  -11.2416   11.9800   -9.6253 C   0  0  0  0  0  0  0  0  0  0  0  0
   -8.2818    4.2781  -12.8893 N   0  0  0  0  0  0  0  0  0  0  0  0
   -8.6414    3.5084  -13.3868 H   0  0  0  0  0  0  0  0  0  0  0  0
   -8.2795    4.2332  -11.4941 C   0  0  0  0  0  0  0  0  0  0  0  0
   -7.9490    5.3328  -10.6736 C   0  0  0  0  0  0  0  0  0  0  0  0
   -8.0777    5.2983   -9.2797 C   0  0  0  0  0  0  0  0  0  0  0  0
   -8.5443    4.1417   -8.6983 C   0  0  0  0  0  0  0  0  0  0  0  0
   -8.8737    3.0449   -9.4761 C   0  0  0  0  0  0  0  0  0  0  0  0
   -8.7621    3.0789  -10.8608 C   0  0  0  0  0  0  0  0  0  0  0  0
   -9.3572    1.9449   -8.5969 C   0  0  0  0  0  0  0  0  0  0  0  0
   -9.2076    2.4244   -7.1948 N   0  0  0  0  0  0  0  0  0  0  0  0
   -8.8259    3.8502   -7.2677 C   0  0  0  0  0  0  0  0  0  0  0  0
   -8.4814    1.8908   -6.7171 H   0  0  0  0  0  0  0  0  0  0  0  0
 21 22  1  0  0  0
 22 23  2  0  0  0
 23 24  1  0  0  0
 24 25  2  0  0  0
 17 25  1  0  0  0
 17 18  1  0  0  0
 18 19  1  0  0  0
 18 20  1  0  0  0
 20 13  1  0  0  0
 13 14  1  0  0  0
 14 15  2  0  0  0
 14  1  1  0  0  0
  1 28  1  0  0  0
 28 30  1  0  0  0
 30 31  2  0  0  0
 31 32  1  0  0  0
 32 33  2  0  0  0
 33 34  1  0  0  0
 34 35  2  0  0  0
 34 36  1  0  0  0
 36 37  1  0  0  0
 37 38  1  0  0  0
  1  2  1  0  0  0
  2  3  2  0  0  0
  3  4  1  0  0  0
  4  5  1  0  0  0
  4  6  2  0  0  0
  6  7  1  0  0  0
  7  8  1  0  0  0
  8  9  1  0  0  0
  9 10  2  0  0  0
 10 11  1  0  0  0
 25 26  1  0  0  0
 26 27  2  0  0  0
 27 22  1  0  0  0
 20 17  1  0  0  0
 35 30  1  0  0  0
 11  2  1  0  0  0
 38 33  1  0  0  0
 11  7  2  0  0  0
 13 16  1  0  0  0
 28 29  1  0  0  0
 37 39  1  0  0  0
  8 12  1  0  0  0
M  END
> <minimizedAffinity>
-9.35142

> <minimizedRMSD>
1.00664

$$$$
P19377


 42 46  0  0  0  0  0  0  0  0999 V2000
   -6.9882    4.6934  -13.3502 C   0  0  0  0  0  0  0  0  0  0  0  0
   -4.8524    5.2044  -17.6124 N   0  0  0  0  0  0  0  0  0  0  0  0
   -3.9601    5.5225  -16.6720 N   0  0  0  0  0  0  0  0  0  0  0  0
   -4.6437    5.3896  -15.5383 C   0  0  0  0  0  0  0  0  0  0  0  0
   -5.9836    4.9921  -15.7244 C   0  0  0  0  0  0  0  0  0  0  0  0
   -7.0892    4.7035  -14.8822 C   0  0  0  0  0  0  0  0  0  0  0  0
   -8.3230    4.4971  -15.5504 C   0  0  0  0  0  0  0  0  0  0  0  0
   -8.4238    4.4816  -16.9430 C   0  0  0  0  0  0  0  0  0  0  0  0
   -9.9562    4.3117  -17.6950 Cl  0  0  0  0  0  0  0  0  0  0  0  0
   -7.3095    4.6510  -17.7516 C   0  0  0  0  0  0  0  0  0  0  0  0
   -6.1038    4.9323  -17.1104 C   0  0  0  0  0  0  0  0  0  0  0  0
   -4.6465    6.5046  -19.5523 C   0  0  0  0  0  0  0  0  0  0  0  0
   -4.4935    5.1789  -18.9715 N   0  0  0  0  0  0  0  0  0  0  0  0
   -3.5215    4.8822  -19.0586 H   0  0  0  0  0  0  0  0  0  0  0  0
   -5.8952    3.6510  -12.8520 C   0  0  0  0  0  0  0  0  0  0  0  0
   -6.0701    2.5003  -12.9125 O   0  0  0  0  0  0  0  0  0  0  0  0
   -4.6963    4.4547  -12.2926 N   0  0  0  0  0  0  0  0  0  0  0  0
   -4.8216    5.4311  -12.2861 H   0  0  0  0  0  0  0  0  0  0  0  0
   -3.4288    4.0065  -11.7808 C   0  0  0  0  0  0  0  0  0  0  0  0
   -2.8454    5.0989  -11.2054 F   0  0  0  0  0  0  0  0  0  0  0  0
   -2.2907    3.2099  -12.9884 S   0  0  0  0  0  0  0  0  0  0  0  0
   -1.4576    4.2185  -13.6289 O   0  0  0  0  0  0  0  0  0  0  0  0
   -3.0101    2.2430  -13.7978 O   0  0  0  0  0  0  0  0  0  0  0  0
   -1.2229    2.2634  -11.9187 C   0  0  0  0  0  0  0  0  0  0  0  0
   -1.5955    2.0511  -10.5891 C   0  0  0  0  0  0  0  0  0  0  0  0
   -0.7654    1.2989   -9.7571 C   0  0  0  0  0  0  0  0  0  0  0  0
    0.4215    0.7415  -10.2524 C   0  0  0  0  0  0  0  0  0  0  0  0
    1.3255   -0.0425   -9.3460 C   0  0  0  0  0  0  0  0  0  0  0  0
    0.7788    0.9616  -11.5899 C   0  0  0  0  0  0  0  0  0  0  0  0
   -0.0459    1.7120  -12.4291 C   0  0  0  0  0  0  0  0  0  0  0  0
   -8.2892    4.3601  -12.7300 N   0  0  0  0  0  0  0  0  0  0  0  0
   -9.0853    4.1736  -13.2783 H   0  0  0  0  0  0  0  0  0  0  0  0
   -8.3425    4.3202  -11.3215 C   0  0  0  0  0  0  0  0  0  0  0  0
   -8.0816    5.4526  -10.5258 C   0  0  0  0  0  0  0  0  0  0  0  0
   -8.1915    5.4058   -9.1299 C   0  0  0  0  0  0  0  0  0  0  0  0
   -8.5903    4.2209   -8.5403 C   0  0  0  0  0  0  0  0  0  0  0  0
   -8.8849    3.1080   -9.3107 C   0  0  0  0  0  0  0  0  0  0  0  0
   -8.7763    3.1431  -10.6920 C   0  0  0  0  0  0  0  0  0  0  0  0
   -9.3369    1.9921   -8.4330 C   0  0  0  0  0  0  0  0  0  0  0  0
   -9.2015    2.4805   -7.0335 N   0  0  0  0  0  0  0  0  0  0  0  0
   -8.8346    3.9103   -7.1049 C   0  0  0  0  0  0  0  0  0  0  0  0
   -8.4728    1.9562   -6.5491 H   0  0  0  0  0  0  0  0  0  0  0  0
 12 13  1  0  0  0
 13  2  1  0  0  0
  2  3  1  0  0  0
  3  4  2  0  0  0
  4  5  1  0  0  0
  5  6  2  0  0  0
  6  1  1  0  0  0
  1 31  1  0  0  0
 31 33  1  0  0  0
 33 34  2  0  0  0
 34 35  1  0  0  0
 35 36  2  0  0  0
 36 37  1  0  0  0
 37 38  2  0  0  0
 37 39  1  0  0  0
 39 40  1  0  0  0
 40 41  1  0  0  0
  1 15  1  0  0  0
 15 16  2  0  0  0
 15 17  1  0  0  0
 17 19  1  0  0  0
 19 20  1  0  0  0
 19 21  1  0  0  0
 21 22  2  0  0  0
 21 23  2  0  0  0
 21 24  1  0  0  0
 24 25  2  0  0  0
 25 26  1  0  0  0
 26 27  2  0  0  0
 27 28  1  0  0  0
 27 29  1  0  0  0
 29 30  2  0  0  0
  6  7  1  0  0  0
  7  8  2  0  0  0
  8  9  1  0  0  0
  8 10  1  0  0  0
 10 11  2  0  0  0
 11  2  1  0  0  0
 11  5  1  0  0  0
 38 33  1  0  0  0
 30 24  1  0  0  0
 41 36  1  0  0  0
 13 14  1  0  0  0
 31 32  1  0  0  0
 40 42  1  0  0  0
 17 18  1  0  0  0
M  END
> <minimizedAffinity>
-8.63245

> <minimizedRMSD>
2.27080

$$$$
P19396


 44 48  0  0  0  0  0  0  0  0999 V2000
   -7.1450    5.0025  -13.5385 C   0  0  0  0  0  0  0  0  0  0  0  0
   -7.1363    6.4152  -13.3818 O   0  0  0  0  0  0  0  0  0  0  0  0
   -7.9578    6.7854  -13.7409 H   0  0  0  0  0  0  0  0  0  0  0  0
   -4.4433    5.7653  -17.0487 N   0  0  0  0  0  0  0  0  0  0  0  0
   -5.0023    5.6127  -15.8089 C   0  0  0  0  0  0  0  0  0  0  0  0
   -6.2538    5.0958  -16.0231 C   0  0  0  0  0  0  0  0  0  0  0  0
   -7.2367    4.8159  -15.0510 C   0  0  0  0  0  0  0  0  0  0  0  0
   -8.4423    4.4441  -15.7256 C   0  0  0  0  0  0  0  0  0  0  0  0
   -8.5876    4.3002  -17.1430 C   0  0  0  0  0  0  0  0  0  0  0  0
  -10.1327    3.8538  -17.7651 Cl  0  0  0  0  0  0  0  0  0  0  0  0
   -7.5600    4.5315  -18.0639 C   0  0  0  0  0  0  0  0  0  0  0  0
   -6.3792    4.9735  -17.4643 C   0  0  0  0  0  0  0  0  0  0  0  0
   -5.2396    5.3657  -18.0554 N   0  0  0  0  0  0  0  0  0  0  0  0
   -3.1577    6.3993  -17.3416 C   0  0  0  0  0  0  0  0  0  0  0  0
   -1.6558    5.2204  -18.8349 C   0  0  0  0  0  0  0  0  0  0  0  0
   -2.0974    5.3934  -17.4550 N   0  0  0  0  0  0  0  0  0  0  0  0
   -1.3017    5.6879  -16.8888 H   0  0  0  0  0  0  0  0  0  0  0  0
   -5.7863    4.3316  -12.9510 C   0  0  0  0  0  0  0  0  0  0  0  0
   -4.8859    5.0654  -12.6405 O   0  0  0  0  0  0  0  0  0  0  0  0
   -5.8698    2.8987  -12.9503 N   0  0  0  0  0  0  0  0  0  0  0  0
   -6.7043    2.5381  -13.3283 H   0  0  0  0  0  0  0  0  0  0  0  0
   -4.9368    1.8939  -12.4888 C   0  0  0  0  0  0  0  0  0  0  0  0
   -4.6991    1.6611  -10.7020 S   0  0  0  0  0  0  0  0  0  0  0  0
   -5.3182    0.4172  -10.2783 O   0  0  0  0  0  0  0  0  0  0  0  0
   -4.9550    2.9034   -9.9972 O   0  0  0  0  0  0  0  0  0  0  0  0
   -2.9341    1.3950  -10.6313 C   0  0  0  0  0  0  0  0  0  0  0  0
   -2.2584    1.0331  -11.7969 C   0  0  0  0  0  0  0  0  0  0  0  0
   -0.8748    0.8586  -11.7645 C   0  0  0  0  0  0  0  0  0  0  0  0
   -0.1655    1.0408  -10.5697 C   0  0  0  0  0  0  0  0  0  0  0  0
    1.3266    0.8877  -10.5394 C   0  0  0  0  0  0  0  0  0  0  0  0
   -0.8584    1.4128   -9.4085 C   0  0  0  0  0  0  0  0  0  0  0  0
   -2.2439    1.5823   -9.4328 C   0  0  0  0  0  0  0  0  0  0  0  0
   -8.3289    4.4444  -12.8538 N   0  0  0  0  0  0  0  0  0  0  0  0
   -9.0887    4.1053  -13.3800 H   0  0  0  0  0  0  0  0  0  0  0  0
   -8.3688    4.3984  -11.4496 C   0  0  0  0  0  0  0  0  0  0  0  0
   -8.1011    5.5250  -10.6462 C   0  0  0  0  0  0  0  0  0  0  0  0
   -8.1710    5.4709   -9.2486 C   0  0  0  0  0  0  0  0  0  0  0  0
   -8.5323    4.2776   -8.6597 C   0  0  0  0  0  0  0  0  0  0  0  0
   -8.7933    3.1521   -9.4305 C   0  0  0  0  0  0  0  0  0  0  0  0
   -8.7229    3.1957  -10.8146 C   0  0  0  0  0  0  0  0  0  0  0  0
   -9.1213    2.0130   -8.5212 C   0  0  0  0  0  0  0  0  0  0  0  0
   -9.4479    2.6464   -7.2157 N   0  0  0  0  0  0  0  0  0  0  0  0
   -8.7250    3.9385   -7.2200 C   0  0  0  0  0  0  0  0  0  0  0  0
   -9.1289    2.0606   -6.4440 H   0  0  0  0  0  0  0  0  0  0  0  0
 15 16  1  0  0  0
 16 14  1  0  0  0
 14  4  1  0  0  0
  4  5  1  0  0  0
  5  6  2  0  0  0
  6  7  1  0  0  0
  7  1  1  0  0  0
  1  2  1  0  0  0
  1 33  1  0  0  0
 33 35  1  0  0  0
 35 36  2  0  0  0
 36 37  1  0  0  0
 37 38  2  0  0  0
 38 39  1  0  0  0
 39 40  2  0  0  0
 39 41  1  0  0  0
 41 42  1  0  0  0
 42 43  1  0  0  0
  1 18  1  0  0  0
 18 19  2  0  0  0
 18 20  1  0  0  0
 20 22  1  0  0  0
 22 23  1  0  0  0
 23 24  2  0  0  0
 23 25  2  0  0  0
 23 26  1  0  0  0
 26 27  2  0  0  0
 27 28  1  0  0  0
 28 29  2  0  0  0
 29 30  1  0  0  0
 29 31  1  0  0  0
 31 32  2  0  0  0
  7  8  2  0  0  0
  8  9  1  0  0  0
  9 10  1  0  0  0
  9 11  2  0  0  0
 11 12  1  0  0  0
 12 13  2  0  0  0
 13  4  1  0  0  0
 12  6  1  0  0  0
 40 35  1  0  0  0
 32 26  1  0  0  0
 43 38  1  0  0  0
 16 17  1  0  0  0
  2  3  1  0  0  0
 33 34  1  0  0  0
 42 44  1  0  0  0
 20 21  1  0  0  0
M  END
> <minimizedAffinity>
-8.82244

> <minimizedRMSD>
0.68642

$$$$
P19418


 29 32  0  0  0  0  0  0  0  0999 V2000
   -6.6284    5.0187  -13.8792 C   0  0  0  0  0  0  0  0  0  0  0  0
   -5.6396    5.5422  -13.5447 O   0  0  0  0  0  0  0  0  0  0  0  0
   -7.8249    4.4989  -13.0389 N   0  0  0  0  0  0  0  0  0  0  0  0
   -8.5139    4.0209  -13.5546 H   0  0  0  0  0  0  0  0  0  0  0  0
   -8.0862    4.5998  -11.6551 C   0  0  0  0  0  0  0  0  0  0  0  0
   -8.4591    3.3768  -11.0508 C   0  0  0  0  0  0  0  0  0  0  0  0
   -8.6948    3.3162   -9.6840 C   0  0  0  0  0  0  0  0  0  0  0  0
   -8.5601    4.4382   -8.8942 C   0  0  0  0  0  0  0  0  0  0  0  0
   -8.2311    5.6554   -9.4544 C   0  0  0  0  0  0  0  0  0  0  0  0
   -8.0145    5.7611  -10.8488 C   0  0  0  0  0  0  0  0  0  0  0  0
   -7.7287    7.1483  -11.3432 C   0  0  0  0  0  0  0  0  0  0  0  0
   -8.8247    4.0985   -7.4702 C   0  0  0  0  0  0  0  0  0  0  0  0
   -9.1591    2.6604   -7.4331 N   0  0  0  0  0  0  0  0  0  0  0  0
   -9.0846    2.1567   -8.8321 C   0  0  0  0  0  0  0  0  0  0  0  0
  -10.1009    2.5297   -7.0640 H   0  0  0  0  0  0  0  0  0  0  0  0
   -8.4768    4.2064  -17.0367 C   0  0  0  0  0  0  0  0  0  0  0  0
   -7.5631    4.5729  -18.0282 C   0  0  0  0  0  0  0  0  0  0  0  0
   -6.3175    5.1118  -17.7108 C   0  0  0  0  0  0  0  0  0  0  0  0
   -5.4809    5.6057  -18.8622 C   0  0  0  0  0  0  0  0  0  0  0  0
   -5.9476    5.2133  -16.3500 C   0  0  0  0  0  0  0  0  0  0  0  0
   -6.8603    4.8423  -15.3390 C   0  0  0  0  0  0  0  0  0  0  0  0
   -8.1203    4.3395  -15.6955 C   0  0  0  0  0  0  0  0  0  0  0  0
   -4.6349    5.6510  -16.0587 N   0  0  0  0  0  0  0  0  0  0  0  0
   -3.5306    4.8318  -15.9566 C   0  0  0  0  0  0  0  0  0  0  0  0
   -2.4434    5.6639  -15.8910 C   0  0  0  0  0  0  0  0  0  0  0  0
   -2.8348    6.9721  -15.9334 N   0  0  0  0  0  0  0  0  0  0  0  0
   -4.1493    6.9365  -16.0242 C   0  0  0  0  0  0  0  0  0  0  0  0
  -10.4758    4.6847  -18.4102 C   0  0  0  0  0  0  0  0  0  0  0  0
   -9.8530    3.7394  -17.4182 C   0  0  0  0  0  0  0  0  0  0  0  0
 28 29  1  0  0  0
 29 16  1  0  0  0
 16 17  2  0  0  0
 17 18  1  0  0  0
 18 19  1  0  0  0
 18 20  2  0  0  0
 20 23  1  0  0  0
 23 24  1  0  0  0
 24 25  2  0  0  0
 25 26  1  0  0  0
 26 27  2  0  0  0
 20 21  1  0  0  0
 21  1  1  0  0  0
  1  2  2  0  0  0
  1  3  1  0  0  0
  3  5  1  0  0  0
  5  6  2  0  0  0
  6  7  1  0  0  0
  7  8  2  0  0  0
  8  9  1  0  0  0
  9 10  2  0  0  0
 10 11  1  0  0  0
  8 12  1  0  0  0
 12 13  1  0  0  0
 13 14  1  0  0  0
 21 22  2  0  0  0
 22 16  1  0  0  0
 27 23  1  0  0  0
 10  5  1  0  0  0
 14  7  1  0  0  0
  3  4  1  0  0  0
 13 15  1  0  0  0
M  END
> <minimizedAffinity>
-7.93351

> <minimizedRMSD>
0.59248

$$$$
P19421


 41 44  0  0  0  0  0  0  0  0999 V2000
   -7.3464    5.0641  -15.4422 C   0  0  0  0  0  0  0  0  0  0  0  0
   -8.5572    4.5599  -15.9461 C   0  0  0  0  0  0  0  0  0  0  0  0
   -8.7062    4.3315  -17.3076 C   0  0  0  0  0  0  0  0  0  0  0  0
  -10.2292    3.8704  -17.9359 Cl  0  0  0  0  0  0  0  0  0  0  0  0
   -7.6683    4.5999  -18.1805 C   0  0  0  0  0  0  0  0  0  0  0  0
   -6.4539    5.0841  -17.6860 C   0  0  0  0  0  0  0  0  0  0  0  0
   -6.2390    5.2845  -16.2988 C   0  0  0  0  0  0  0  0  0  0  0  0
   -4.9297    5.6546  -15.8348 N   0  0  0  0  0  0  0  0  0  0  0  0
   -3.9755    4.7862  -15.3336 C   0  0  0  0  0  0  0  0  0  0  0  0
   -2.8475    5.5180  -15.0793 C   0  0  0  0  0  0  0  0  0  0  0  0
   -3.0857    6.8355  -15.3029 N   0  0  0  0  0  0  0  0  0  0  0  0
   -4.3391    6.8956  -15.7068 C   0  0  0  0  0  0  0  0  0  0  0  0
   -7.8854    4.5724  -13.0085 N   0  0  0  0  0  0  0  0  0  0  0  0
   -7.4718    5.6164  -14.0786 C   0  0  0  0  0  0  0  0  0  0  0  0
   -7.2042    6.7498  -13.9683 O   0  0  0  0  0  0  0  0  0  0  0  0
   -7.9858    3.6533  -13.3465 H   0  0  0  0  0  0  0  0  0  0  0  0
   -8.6597    2.8456   -8.2923 C   0  0  0  0  0  0  0  0  0  0  0  0
   -8.3223    3.6362   -7.0878 N   0  0  0  0  0  0  0  0  0  0  0  0
   -8.4466    5.0485   -7.4216 C   0  0  0  0  0  0  0  0  0  0  0  0
   -8.3934    5.1130   -8.9009 C   0  0  0  0  0  0  0  0  0  0  0  0
   -8.2255    6.2103   -9.7135 C   0  0  0  0  0  0  0  0  0  0  0  0
   -8.1573    7.4838   -9.2395 O   0  0  0  0  0  0  0  0  0  0  0  0
   -8.0919    6.0155  -11.0808 C   0  0  0  0  0  0  0  0  0  0  0  0
   -8.1396    4.7250  -11.6378 C   0  0  0  0  0  0  0  0  0  0  0  0
   -8.3791    3.6139  -10.8088 C   0  0  0  0  0  0  0  0  0  0  0  0
   -8.5081    3.8239   -9.4335 C   0  0  0  0  0  0  0  0  0  0  0  0
   -7.3658    3.4327   -6.7978 H   0  0  0  0  0  0  0  0  0  0  0  0
   -8.2440    7.6470   -8.3209 H   0  0  0  0  0  0  0  0  0  0  0  0
  -10.1721    1.7675   -6.7555 C   0  0  0  0  0  0  0  0  0  0  0  0
   -9.9933    2.3126   -8.1030 N   0  0  0  0  0  0  0  0  0  0  0  0
  -10.6719    3.0598   -8.2501 H   0  0  0  0  0  0  0  0  0  0  0  0
   -5.5336    5.5622  -18.7526 C   0  0  0  0  0  0  0  0  0  0  0  0
   -4.7638    4.8279  -19.2212 O   0  0  0  0  0  0  0  0  0  0  0  0
   -5.8056    7.0453  -19.0515 N   0  0  0  0  0  0  0  0  0  0  0  0
   -6.5715    7.4297  -18.5668 H   0  0  0  0  0  0  0  0  0  0  0  0
   -5.1116    7.9785  -19.9388 C   0  0  0  0  0  0  0  0  0  0  0  0
   -5.3023    7.5361  -21.3997 C   0  0  0  0  0  0  0  0  0  0  0  0
   -3.6134    7.9731  -19.6067 C   0  0  0  0  0  0  0  0  0  0  0  0
   -5.6994    9.3983  -19.7368 C   0  0  0  0  0  0  0  0  0  0  0  0
   -5.0565   10.4129  -20.4980 O   0  0  0  0  0  0  0  0  0  0  0  0
   -4.1285   10.4832  -20.2246 H   0  0  0  0  0  0  0  0  0  0  0  0
 29 30  1  0  0  0
 17 30  1  0  0  0
 17 18  1  0  0  0
 18 19  1  0  0  0
 19 20  1  0  0  0
 20 21  2  0  0  0
 21 22  1  0  0  0
 21 23  1  0  0  0
 23 24  2  0  0  0
 24 13  1  0  0  0
 13 14  1  0  0  0
 14 15  2  0  0  0
 14  1  1  0  0  0
  1  2  2  0  0  0
  2  3  1  0  0  0
  3  4  1  0  0  0
  3  5  2  0  0  0
  5  6  1  0  0  0
  6 32  1  0  0  0
 32 33  2  0  0  0
 32 34  1  0  0  0
 34 36  1  0  0  0
 36 37  1  0  0  0
 36 38  1  0  0  0
 36 39  1  0  0  0
 39 40  1  0  0  0
  6  7  2  0  0  0
  7  8  1  0  0  0
  8  9  1  0  0  0
  9 10  2  0  0  0
 10 11  1  0  0  0
 11 12  2  0  0  0
 24 25  1  0  0  0
 25 26  2  0  0  0
 26 17  1  0  0  0
 26 20  1  0  0  0
  7  1  1  0  0  0
 12  8  1  0  0  0
 30 31  1  0  0  0
 18 27  1  0  0  0
 22 28  1  0  0  0
 13 16  1  0  0  0
 34 35  1  0  0  0
 40 41  1  0  0  0
M  END
> <minimizedAffinity>
-7.85077

> <minimizedRMSD>
0.63704

$$$$
P19423


 33 36  0  0  0  0  0  0  0  0999 V2000
   -6.2733    5.2526  -16.9409 C   0  0  0  0  0  0  0  0  0  0  0  0
   -7.2254    4.7930  -17.8582 C   0  0  0  0  0  0  0  0  0  0  0  0
   -8.4628    4.3231  -17.4374 C   0  0  0  0  0  0  0  0  0  0  0  0
   -9.6331    3.8936  -18.6084 Cl  0  0  0  0  0  0  0  0  0  0  0  0
   -8.7878    4.2964  -16.0919 C   0  0  0  0  0  0  0  0  0  0  0  0
   -7.8762    4.7984  -15.1587 C   0  0  0  0  0  0  0  0  0  0  0  0
   -6.6077    5.2791  -15.5713 C   0  0  0  0  0  0  0  0  0  0  0  0
   -5.7743    5.9161  -14.6193 N   0  0  0  0  0  0  0  0  0  0  0  0
   -5.6796    7.2707  -14.3888 C   0  0  0  0  0  0  0  0  0  0  0  0
   -4.7036    7.4181  -13.4335 C   0  0  0  0  0  0  0  0  0  0  0  0
   -4.2629    6.2006  -12.9926 N   0  0  0  0  0  0  0  0  0  0  0  0
   -4.9309    5.3198  -13.7073 C   0  0  0  0  0  0  0  0  0  0  0  0
   -3.5893    5.2660  -17.1525 C   0  0  0  0  0  0  0  0  0  0  0  0
   -3.1777    4.5193  -16.3523 O   0  0  0  0  0  0  0  0  0  0  0  0
   -5.0589    5.6403  -17.5257 N   0  0  0  0  0  0  0  0  0  0  0  0
   -5.1472    6.2466  -18.2963 H   0  0  0  0  0  0  0  0  0  0  0  0
   -1.6504    5.3495  -18.7575 C   0  0  0  0  0  0  0  0  0  0  0  0
   -2.7037    6.1496  -18.0127 C   0  0  0  0  0  0  0  0  0  0  0  0
   -8.4693    5.1664  -13.8474 C   0  0  0  0  0  0  0  0  0  0  0  0
   -9.3388    5.9463  -13.8590 O   0  0  0  0  0  0  0  0  0  0  0  0
   -7.8505    4.3702  -12.6721 N   0  0  0  0  0  0  0  0  0  0  0  0
   -7.1696    3.7097  -12.9352 H   0  0  0  0  0  0  0  0  0  0  0  0
   -8.1040    4.4372  -11.2839 C   0  0  0  0  0  0  0  0  0  0  0  0
   -8.5774    3.2243  -10.7352 C   0  0  0  0  0  0  0  0  0  0  0  0
   -8.8445    3.1269   -9.3773 C   0  0  0  0  0  0  0  0  0  0  0  0
   -8.6611    4.2081   -8.5410 C   0  0  0  0  0  0  0  0  0  0  0  0
   -8.2184    5.4150   -9.0423 C   0  0  0  0  0  0  0  0  0  0  0  0
   -7.9294    5.5489  -10.4225 C   0  0  0  0  0  0  0  0  0  0  0  0
   -7.4445    6.9057  -10.8406 C   0  0  0  0  0  0  0  0  0  0  0  0
   -9.0188    3.8398   -7.1447 C   0  0  0  0  0  0  0  0  0  0  0  0
   -9.3606    2.4009   -7.1643 N   0  0  0  0  0  0  0  0  0  0  0  0
   -9.3432    1.9657   -8.5875 C   0  0  0  0  0  0  0  0  0  0  0  0
  -10.2883    2.2562   -6.7656 H   0  0  0  0  0  0  0  0  0  0  0  0
 17 18  1  0  0  0
 18 13  1  0  0  0
 13 14  2  0  0  0
 13 15  1  0  0  0
 15  1  1  0  0  0
  1  2  2  0  0  0
  2  3  1  0  0  0
  3  4  1  0  0  0
  3  5  2  0  0  0
  5  6  1  0  0  0
  6 19  1  0  0  0
 19 20  2  0  0  0
 19 21  1  0  0  0
 21 23  1  0  0  0
 23 24  2  0  0  0
 24 25  1  0  0  0
 25 26  2  0  0  0
 26 27  1  0  0  0
 27 28  2  0  0  0
 28 29  1  0  0  0
 26 30  1  0  0  0
 30 31  1  0  0  0
 31 32  1  0  0  0
  6  7  2  0  0  0
  7  8  1  0  0  0
  8  9  1  0  0  0
  9 10  2  0  0  0
 10 11  1  0  0  0
 11 12  2  0  0  0
  7  1  1  0  0  0
 12  8  1  0  0  0
 28 23  1  0  0  0
 32 25  1  0  0  0
 15 16  1  0  0  0
 21 22  1  0  0  0
 31 33  1  0  0  0
M  END
> <minimizedAffinity>
-8.12667

> <minimizedRMSD>
1.08133

$$$$
P19437


 33 37  0  0  0  0  0  0  0  0999 V2000
   -7.5055    4.7460  -15.6976 C   0  0  0  0  0  0  0  0  0  0  0  0
   -8.8326    4.4645  -16.0755 C   0  0  0  0  0  0  0  0  0  0  0  0
   -9.1880    4.3918  -17.4310 C   0  0  0  0  0  0  0  0  0  0  0  0
  -10.8250    4.1962  -17.9026 Cl  0  0  0  0  0  0  0  0  0  0  0  0
   -8.2475    4.5724  -18.4299 C   0  0  0  0  0  0  0  0  0  0  0  0
   -6.9509    4.8347  -18.0551 C   0  0  0  0  0  0  0  0  0  0  0  0
   -6.5667    4.9602  -16.7134 C   0  0  0  0  0  0  0  0  0  0  0  0
   -5.1101    5.3334  -16.7546 C   0  0  0  0  0  0  0  0  0  0  0  0
   -4.1381    4.5649  -15.8840 C   0  0  0  0  0  0  0  0  0  0  0  0
   -2.8818    5.4333  -15.9010 C   0  0  0  0  0  0  0  0  0  0  0  0
   -3.2748    6.8027  -16.2813 N   0  0  0  0  0  0  0  0  0  0  0  0
   -4.7523    6.7901  -16.3989 C   0  0  0  0  0  0  0  0  0  0  0  0
   -4.6990    5.0847  -18.1967 N   0  0  0  0  0  0  0  0  0  0  0  0
   -5.8987    5.1329  -18.9373 N   0  0  0  0  0  0  0  0  0  0  0  0
   -2.8511    7.0575  -17.1735 H   0  0  0  0  0  0  0  0  0  0  0  0
   -4.2576    4.1699  -18.2900 H   0  0  0  0  0  0  0  0  0  0  0  0
   -5.9832    5.3379  -19.8965 H   0  0  0  0  0  0  0  0  0  0  0  0
   -8.2133    4.3321  -13.2841 N   0  0  0  0  0  0  0  0  0  0  0  0
   -7.1993    4.9983  -14.2539 C   0  0  0  0  0  0  0  0  0  0  0  0
   -6.2841    5.6897  -14.0335 O   0  0  0  0  0  0  0  0  0  0  0  0
   -8.8580    3.7253  -13.7147 H   0  0  0  0  0  0  0  0  0  0  0  0
   -8.3191    5.6805  -11.1771 C   0  0  0  0  0  0  0  0  0  0  0  0
   -8.3871    5.6933   -9.7670 C   0  0  0  0  0  0  0  0  0  0  0  0
   -8.5452    4.5012   -9.0887 C   0  0  0  0  0  0  0  0  0  0  0  0
   -8.6480    3.3034   -9.7792 C   0  0  0  0  0  0  0  0  0  0  0  0
   -8.5596    3.2627  -11.1670 C   0  0  0  0  0  0  0  0  0  0  0  0
   -8.3605    4.4553  -11.8872 C   0  0  0  0  0  0  0  0  0  0  0  0
   -8.8048    2.1942   -8.7867 C   0  0  0  0  0  0  0  0  0  0  0  0
   -9.1315    2.8606   -7.4969 N   0  0  0  0  0  0  0  0  0  0  0  0
   -8.6262    4.2419   -7.6212 C   0  0  0  0  0  0  0  0  0  0  0  0
   -8.6712    2.3819   -6.7228 H   0  0  0  0  0  0  0  0  0  0  0  0
   -8.4871    7.9548  -12.4155 N   0  0  0  0  0  0  0  0  0  0  0  0
   -8.3695    6.9688  -11.8106 C   0  0  0  0  0  0  0  0  0  0  0  0
 32 33  3  0  0  0
 33 22  1  0  0  0
 22 23  2  0  0  0
 23 24  1  0  0  0
 24 25  2  0  0  0
 25 26  1  0  0  0
 26 27  2  0  0  0
 27 18  1  0  0  0
 18 19  1  0  0  0
 19 20  2  0  0  0
 19  1  1  0  0  0
  1  2  2  0  0  0
  2  3  1  0  0  0
  3  4  1  0  0  0
  3  5  2  0  0  0
  5  6  1  0  0  0
  6  7  2  0  0  0
  7  8  1  0  0  0
  8  9  1  0  0  0
  9 10  1  0  0  0
 10 11  1  0  0  0
 11 12  1  0  0  0
  8 13  1  0  0  0
 13 14  1  0  0  0
 25 28  1  0  0  0
 28 29  1  0  0  0
 29 30  1  0  0  0
 27 22  1  0  0  0
  7  1  1  0  0  0
 12  8  1  0  0  0
 30 24  1  0  0  0
 14  6  1  0  0  0
 18 21  1  0  0  0
 11 15  1  0  0  0
 13 16  1  0  0  0
 14 17  1  0  0  0
 29 31  1  0  0  0
M  END
> <minimizedAffinity>
-8.40879

> <minimizedRMSD>
0.42922

$$$$
P19438


 38 43  0  0  0  0  0  0  0  0999 V2000
   -4.5946    6.2035  -17.1205 C   0  0  0  0  0  0  0  0  0  0  0  0
   -5.4162    5.4103  -18.0615 N   0  0  0  0  0  0  0  0  0  0  0  0
   -6.5426    5.0353  -17.3109 C   0  0  0  0  0  0  0  0  0  0  0  0
   -7.5763    4.3096  -17.8550 C   0  0  0  0  0  0  0  0  0  0  0  0
   -8.5864    3.9008  -17.0087 C   0  0  0  0  0  0  0  0  0  0  0  0
   -9.7267    2.8076  -17.6087 Cl  0  0  0  0  0  0  0  0  0  0  0  0
   -8.6255    4.2799  -15.6690 C   0  0  0  0  0  0  0  0  0  0  0  0
   -7.5645    5.0145  -15.1246 C   0  0  0  0  0  0  0  0  0  0  0  0
   -6.4970    5.3753  -15.9549 C   0  0  0  0  0  0  0  0  0  0  0  0
   -5.1377    5.9861  -15.6593 C   0  0  0  0  0  0  0  0  0  0  0  0
   -4.3249    5.0539  -14.7418 C   0  0  0  0  0  0  0  0  0  0  0  0
   -3.6651    5.9700  -13.7262 C   0  0  0  0  0  0  0  0  0  0  0  0
   -4.5919    7.0894  -13.5760 N   0  0  0  0  0  0  0  0  0  0  0  0
   -5.1076    7.3431  -14.9275 C   0  0  0  0  0  0  0  0  0  0  0  0
   -5.2181    5.1942  -19.0014 H   0  0  0  0  0  0  0  0  0  0  0  0
   -4.1055    7.9115  -13.2181 H   0  0  0  0  0  0  0  0  0  0  0  0
   -0.7657    6.1643  -17.6208 C   0  0  0  0  0  0  0  0  0  0  0  0
   -1.2597    5.0731  -18.1657 N   0  0  0  0  0  0  0  0  0  0  0  0
   -2.6176    4.9551  -17.9833 N   0  0  0  0  0  0  0  0  0  0  0  0
   -3.1206    5.9822  -17.3286 C   0  0  0  0  0  0  0  0  0  0  0  0
   -1.9500    7.1534  -16.8646 S   0  0  0  0  0  0  0  0  0  0  0  0
    1.5133    5.5941  -16.7924 C   0  0  0  0  0  0  0  0  0  0  0  0
    0.6837    6.5573  -17.6413 C   0  0  0  0  0  0  0  0  0  0  0  0
    1.2082    6.5981  -19.0767 C   0  0  0  0  0  0  0  0  0  0  0  0
   -7.6608    5.4238  -13.6986 C   0  0  0  0  0  0  0  0  0  0  0  0
   -7.5532    6.5598  -13.4547 O   0  0  0  0  0  0  0  0  0  0  0  0
   -7.9965    4.2288  -12.7773 N   0  0  0  0  0  0  0  0  0  0  0  0
   -8.1051    3.3678  -13.2422 H   0  0  0  0  0  0  0  0  0  0  0  0
   -8.1701    4.1721  -11.3978 C   0  0  0  0  0  0  0  0  0  0  0  0
   -7.8784    5.2803  -10.5875 C   0  0  0  0  0  0  0  0  0  0  0  0
   -8.0607    5.2224   -9.2030 C   0  0  0  0  0  0  0  0  0  0  0  0
   -8.5432    4.0492   -8.6545 C   0  0  0  0  0  0  0  0  0  0  0  0
   -8.8462    2.9575   -9.4557 C   0  0  0  0  0  0  0  0  0  0  0  0
   -8.6611    2.9946  -10.8290 C   0  0  0  0  0  0  0  0  0  0  0  0
   -9.3588    1.8450   -8.6101 C   0  0  0  0  0  0  0  0  0  0  0  0
   -9.3527    2.3380   -7.2054 N   0  0  0  0  0  0  0  0  0  0  0  0
   -8.8318    3.7224   -7.2312 C   0  0  0  0  0  0  0  0  0  0  0  0
   -8.7507    1.7486   -6.6305 H   0  0  0  0  0  0  0  0  0  0  0  0
 22 23  1  0  0  0
 23 24  1  0  0  0
 23 17  1  0  0  0
 17 18  2  0  0  0
 18 19  1  0  0  0
 19 20  2  0  0  0
  1 20  1  0  0  0
  1  2  1  0  0  0
  2  3  1  0  0  0
  3  4  2  0  0  0
  4  5  1  0  0  0
  5  6  1  0  0  0
  5  7  2  0  0  0
  7  8  1  0  0  0
  8 25  1  0  0  0
 25 26  2  0  0  0
 25 27  1  0  0  0
 27 29  1  0  0  0
 29 30  2  0  0  0
 30 31  1  0  0  0
 31 32  2  0  0  0
 32 33  1  0  0  0
 33 34  2  0  0  0
 33 35  1  0  0  0
 35 36  1  0  0  0
 36 37  1  0  0  0
  8  9  2  0  0  0
  9 10  1  0  0  0
 10 11  1  0  0  0
 11 12  1  0  0  0
 12 13  1  0  0  0
 13 14  1  0  0  0
 20 21  1  0  0  0
 21 17  1  0  0  0
 10  1  1  0  0  0
  9  3  1  0  0  0
 14 10  1  0  0  0
 34 29  1  0  0  0
 37 32  1  0  0  0
  2 15  1  0  0  0
 27 28  1  0  0  0
 36 38  1  0  0  0
 13 16  1  0  0  0
M  END
> <minimizedAffinity>
-8.96820

> <minimizedRMSD>
0.27173

$$$$
P19448


 37 40  0  0  0  0  0  0  0  0999 V2000
   -7.3613    5.0898  -13.6050 C   0  0  0  0  0  0  0  0  0  0  0  0
   -6.0531    5.2583  -13.1203 O   0  0  0  0  0  0  0  0  0  0  0  0
   -5.5392    4.4533  -13.2900 H   0  0  0  0  0  0  0  0  0  0  0  0
   -6.3548    4.9408  -17.4204 C   0  0  0  0  0  0  0  0  0  0  0  0
   -7.5127    4.3338  -17.9187 C   0  0  0  0  0  0  0  0  0  0  0  0
   -8.5594    4.0367  -17.0676 C   0  0  0  0  0  0  0  0  0  0  0  0
  -10.0845    3.6663  -17.7206 Cl  0  0  0  0  0  0  0  0  0  0  0  0
   -8.4538    4.2354  -15.6996 C   0  0  0  0  0  0  0  0  0  0  0  0
   -7.3084    4.8200  -15.1246 C   0  0  0  0  0  0  0  0  0  0  0  0
   -6.2612    5.1975  -16.0213 C   0  0  0  0  0  0  0  0  0  0  0  0
   -5.1490    5.9573  -15.5738 N   0  0  0  0  0  0  0  0  0  0  0  0
   -3.8548    5.5327  -15.3960 C   0  0  0  0  0  0  0  0  0  0  0  0
   -3.1120    6.6510  -15.1203 C   0  0  0  0  0  0  0  0  0  0  0  0
   -3.8932    7.7676  -15.1640 N   0  0  0  0  0  0  0  0  0  0  0  0
   -5.0944    7.3297  -15.4699 C   0  0  0  0  0  0  0  0  0  0  0  0
   -5.7310    6.7992  -19.0118 C   0  0  0  0  0  0  0  0  0  0  0  0
   -5.3647    5.4277  -18.4590 C   0  0  0  0  0  0  0  0  0  0  0  0
   -8.3532    6.3675  -13.3916 C   0  0  0  0  0  0  0  0  0  0  0  0
   -9.4930    6.3531  -13.6606 O   0  0  0  0  0  0  0  0  0  0  0  0
   -7.4651    7.5144  -12.8210 N   0  0  0  0  0  0  0  0  0  0  0  0
   -6.5071    7.2984  -12.7513 H   0  0  0  0  0  0  0  0  0  0  0  0
   -7.8204    8.8448  -12.3770 C   0  0  0  0  0  0  0  0  0  0  0  0
   -9.0840    8.8941  -11.5230 C   0  0  0  0  0  0  0  0  0  0  0  0
   -9.1930   10.1259  -10.9619 F   0  0  0  0  0  0  0  0  0  0  0  0
   -8.9655    8.0120  -10.4945 F   0  0  0  0  0  0  0  0  0  0  0  0
   -7.8491    3.9366  -12.8402 N   0  0  0  0  0  0  0  0  0  0  0  0
   -8.0052    3.0912  -13.3199 H   0  0  0  0  0  0  0  0  0  0  0  0
   -8.1052    3.9753  -11.4595 C   0  0  0  0  0  0  0  0  0  0  0  0
   -7.6505    4.9882  -10.5871 C   0  0  0  0  0  0  0  0  0  0  0  0
   -7.9184    4.9865   -9.2126 C   0  0  0  0  0  0  0  0  0  0  0  0
   -8.5792    3.9030   -8.6898 C   0  0  0  0  0  0  0  0  0  0  0  0
   -8.9312    2.8379   -9.5062 C   0  0  0  0  0  0  0  0  0  0  0  0
   -8.7187    2.8610  -10.8763 C   0  0  0  0  0  0  0  0  0  0  0  0
   -9.4372    1.7354   -8.6438 C   0  0  0  0  0  0  0  0  0  0  0  0
   -9.8155    2.3851   -7.3648 N   0  0  0  0  0  0  0  0  0  0  0  0
   -8.9699    3.5974   -7.2829 C   0  0  0  0  0  0  0  0  0  0  0  0
   -9.6275    1.7636   -6.5782 H   0  0  0  0  0  0  0  0  0  0  0  0
 16 17  1  0  0  0
 17  4  1  0  0  0
  4  5  2  0  0  0
  5  6  1  0  0  0
  6  7  1  0  0  0
  6  8  2  0  0  0
  8  9  1  0  0  0
  9  1  1  0  0  0
  1  2  1  0  0  0
  1 26  1  0  0  0
 26 28  1  0  0  0
 28 29  2  0  0  0
 29 30  1  0  0  0
 30 31  2  0  0  0
 31 32  1  0  0  0
 32 33  2  0  0  0
 32 34  1  0  0  0
 34 35  1  0  0  0
 35 36  1  0  0  0
  1 18  1  0  0  0
 18 19  2  0  0  0
 18 20  1  0  0  0
 20 22  1  0  0  0
 22 23  1  0  0  0
 23 24  1  0  0  0
 23 25  1  0  0  0
  9 10  2  0  0  0
 10 11  1  0  0  0
 11 12  1  0  0  0
 12 13  2  0  0  0
 13 14  1  0  0  0
 14 15  2  0  0  0
 10  4  1  0  0  0
 15 11  1  0  0  0
 33 28  1  0  0  0
 36 31  1  0  0  0
  2  3  1  0  0  0
 26 27  1  0  0  0
 35 37  1  0  0  0
 20 21  1  0  0  0
M  END
> <minimizedAffinity>
-8.00908

> <minimizedRMSD>
0.50646

$$$$
P19449


 31 35  0  0  0  0  0  0  0  0999 V2000
   -7.2865    5.0016  -15.1641 C   0  0  0  0  0  0  0  0  0  0  0  0
   -8.4854    4.4482  -15.6384 C   0  0  0  0  0  0  0  0  0  0  0  0
   -8.6387    4.1509  -16.9941 C   0  0  0  0  0  0  0  0  0  0  0  0
  -10.1897    3.7745  -17.5782 Cl  0  0  0  0  0  0  0  0  0  0  0  0
   -7.6068    4.3219  -17.8991 C   0  0  0  0  0  0  0  0  0  0  0  0
   -6.4630    4.9319  -17.4383 C   0  0  0  0  0  0  0  0  0  0  0  0
   -6.2935    5.2990  -16.0972 C   0  0  0  0  0  0  0  0  0  0  0  0
   -4.9649    6.0073  -16.0185 C   0  0  0  0  0  0  0  0  0  0  0  0
   -3.9499    5.3004  -15.1245 C   0  0  0  0  0  0  0  0  0  0  0  0
   -3.1409    6.4218  -14.5065 C   0  0  0  0  0  0  0  0  0  0  0  0
   -4.1229    7.4787  -14.2653 N   0  0  0  0  0  0  0  0  0  0  0  0
   -4.9664    7.4617  -15.4815 C   0  0  0  0  0  0  0  0  0  0  0  0
   -4.4829    6.0748  -17.4496 N   0  0  0  0  0  0  0  0  0  0  0  0
   -5.3216    5.2117  -18.2059 N   0  0  0  0  0  0  0  0  0  0  0  0
   -3.6638    8.3827  -14.1541 H   0  0  0  0  0  0  0  0  0  0  0  0
   -3.5135    5.7631  -17.5088 H   0  0  0  0  0  0  0  0  0  0  0  0
   -5.1347    4.8699  -19.1101 H   0  0  0  0  0  0  0  0  0  0  0  0
   -6.9460    6.4702  -13.4358 O   0  0  0  0  0  0  0  0  0  0  0  0
   -7.2152    5.3692  -13.7166 C   0  0  0  0  0  0  0  0  0  0  0  0
   -7.6297    4.1755  -12.8177 N   0  0  0  0  0  0  0  0  0  0  0  0
   -7.7318    3.3186  -13.2915 H   0  0  0  0  0  0  0  0  0  0  0  0
   -7.8812    4.1186  -11.4474 C   0  0  0  0  0  0  0  0  0  0  0  0
   -7.5313    5.1775  -10.5955 C   0  0  0  0  0  0  0  0  0  0  0  0
   -7.8356    5.1300   -9.2295 C   0  0  0  0  0  0  0  0  0  0  0  0
   -8.4820    4.0105   -8.7399 C   0  0  0  0  0  0  0  0  0  0  0  0
   -8.8159    2.9533   -9.5790 C   0  0  0  0  0  0  0  0  0  0  0  0
   -8.5347    2.9926  -10.9351 C   0  0  0  0  0  0  0  0  0  0  0  0
   -9.4302    1.8632   -8.7651 C   0  0  0  0  0  0  0  0  0  0  0  0
   -9.7784    2.4909   -7.4654 N   0  0  0  0  0  0  0  0  0  0  0  0
   -8.9056    3.6796   -7.3473 C   0  0  0  0  0  0  0  0  0  0  0  0
   -9.6012    1.8421   -6.6985 H   0  0  0  0  0  0  0  0  0  0  0  0
 18 19  2  0  0  0
 19 20  1  0  0  0
 20 22  1  0  0  0
 22 23  2  0  0  0
 23 24  1  0  0  0
 24 25  2  0  0  0
 25 26  1  0  0  0
 26 27  2  0  0  0
 26 28  1  0  0  0
 28 29  1  0  0  0
 29 30  1  0  0  0
 19  1  1  0  0  0
  1  2  2  0  0  0
  2  3  1  0  0  0
  3  4  1  0  0  0
  3  5  2  0  0  0
  5  6  1  0  0  0
  6  7  2  0  0  0
  7  8  1  0  0  0
  8  9  1  0  0  0
  9 10  1  0  0  0
 10 11  1  0  0  0
 11 12  1  0  0  0
  8 13  1  0  0  0
 13 14  1  0  0  0
 27 22  1  0  0  0
  7  1  1  0  0  0
 12  8  1  0  0  0
 30 25  1  0  0  0
 14  6  1  0  0  0
 20 21  1  0  0  0
 29 31  1  0  0  0
 11 15  1  0  0  0
 13 16  1  0  0  0
 14 17  1  0  0  0
M  END
> <minimizedAffinity>
-8.59676

> <minimizedRMSD>
0.25028

$$$$
P19454


 31 35  0  0  0  0  0  0  0  0999 V2000
   -7.6676    4.9711  -15.1769 C   0  0  0  0  0  0  0  0  0  0  0  0
   -8.8560    4.4767  -15.7326 C   0  0  0  0  0  0  0  0  0  0  0  0
   -8.9446    4.2237  -17.1051 C   0  0  0  0  0  0  0  0  0  0  0  0
  -10.4785    3.9440  -17.7833 Cl  0  0  0  0  0  0  0  0  0  0  0  0
   -7.8567    4.3756  -17.9470 C   0  0  0  0  0  0  0  0  0  0  0  0
   -6.7084    4.8673  -17.3746 C   0  0  0  0  0  0  0  0  0  0  0  0
   -6.5871    5.1990  -16.0193 C   0  0  0  0  0  0  0  0  0  0  0  0
   -5.2045    5.7753  -15.7881 C   0  0  0  0  0  0  0  0  0  0  0  0
   -4.4001    5.2157  -14.6162 C   0  0  0  0  0  0  0  0  0  0  0  0
   -4.0352    6.4265  -13.7677 C   0  0  0  0  0  0  0  0  0  0  0  0
   -4.0451    7.5550  -14.6951 N   0  0  0  0  0  0  0  0  0  0  0  0
   -5.1848    7.2987  -15.5858 C   0  0  0  0  0  0  0  0  0  0  0  0
   -4.5272    5.4947  -17.1597 C   0  0  0  0  0  0  0  0  0  0  0  0
   -3.3503    5.6028  -17.4639 O   0  0  0  0  0  0  0  0  0  0  0  0
   -5.5223    5.1019  -18.0398 N   0  0  0  0  0  0  0  0  0  0  0  0
   -3.1750    7.5911  -15.2262 H   0  0  0  0  0  0  0  0  0  0  0  0
   -5.3995    5.0032  -19.0116 H   0  0  0  0  0  0  0  0  0  0  0  0
   -7.5563    6.5143  -13.4977 O   0  0  0  0  0  0  0  0  0  0  0  0
   -7.6985    5.3846  -13.7519 C   0  0  0  0  0  0  0  0  0  0  0  0
   -8.0274    4.1855  -12.8349 N   0  0  0  0  0  0  0  0  0  0  0  0
   -8.1727    3.3336  -13.3065 H   0  0  0  0  0  0  0  0  0  0  0  0
   -8.1518    4.1136  -11.4507 C   0  0  0  0  0  0  0  0  0  0  0  0
   -7.8238    5.2073  -10.6336 C   0  0  0  0  0  0  0  0  0  0  0  0
   -8.0159    5.1496   -9.2493 C   0  0  0  0  0  0  0  0  0  0  0  0
   -8.5413    3.9902   -8.7116 C   0  0  0  0  0  0  0  0  0  0  0  0
   -8.8481    2.8998   -9.5197 C   0  0  0  0  0  0  0  0  0  0  0  0
   -8.6604    2.9399  -10.8898 C   0  0  0  0  0  0  0  0  0  0  0  0
   -9.3395    1.7838   -8.6614 C   0  0  0  0  0  0  0  0  0  0  0  0
   -9.6864    2.4182   -7.3631 N   0  0  0  0  0  0  0  0  0  0  0  0
   -8.8668    3.6487   -7.2955 C   0  0  0  0  0  0  0  0  0  0  0  0
   -9.4583    1.7945   -6.5889 H   0  0  0  0  0  0  0  0  0  0  0  0
 18 19  2  0  0  0
 19 20  1  0  0  0
 20 22  1  0  0  0
 22 23  2  0  0  0
 23 24  1  0  0  0
 24 25  2  0  0  0
 25 26  1  0  0  0
 26 27  2  0  0  0
 26 28  1  0  0  0
 28 29  1  0  0  0
 29 30  1  0  0  0
 19  1  1  0  0  0
  1  2  2  0  0  0
  2  3  1  0  0  0
  3  4  1  0  0  0
  3  5  2  0  0  0
  5  6  1  0  0  0
  6  7  2  0  0  0
  7  8  1  0  0  0
  8  9  1  0  0  0
  9 10  1  0  0  0
 10 11  1  0  0  0
 11 12  1  0  0  0
  8 13  1  0  0  0
 13 14  2  0  0  0
 13 15  1  0  0  0
 27 22  1  0  0  0
  7  1  1  0  0  0
 12  8  1  0  0  0
 30 25  1  0  0  0
 15  6  1  0  0  0
 20 21  1  0  0  0
 29 31  1  0  0  0
 11 16  1  0  0  0
 15 17  1  0  0  0
M  END
> <minimizedAffinity>
-8.93035

> <minimizedRMSD>
0.24492

$$$$
P19460


 31 35  0  0  0  0  0  0  0  0999 V2000
   -7.9150    4.8622  -15.6164 C   0  0  0  0  0  0  0  0  0  0  0  0
   -8.9861    4.6365  -16.4860 C   0  0  0  0  0  0  0  0  0  0  0  0
   -8.7819    4.4898  -17.8658 C   0  0  0  0  0  0  0  0  0  0  0  0
  -10.1190    4.4218  -18.9309 Cl  0  0  0  0  0  0  0  0  0  0  0  0
   -7.5071    4.4967  -18.4039 C   0  0  0  0  0  0  0  0  0  0  0  0
   -6.4691    4.6862  -17.5219 C   0  0  0  0  0  0  0  0  0  0  0  0
   -6.6330    4.8843  -16.1459 C   0  0  0  0  0  0  0  0  0  0  0  0
   -5.2687    5.0913  -15.5222 C   0  0  0  0  0  0  0  0  0  0  0  0
   -5.0250    6.4347  -14.8295 C   0  0  0  0  0  0  0  0  0  0  0  0
   -4.8209    6.0770  -13.3648 C   0  0  0  0  0  0  0  0  0  0  0  0
   -4.2110    4.7494  -13.4000 N   0  0  0  0  0  0  0  0  0  0  0  0
   -4.9031    4.0299  -14.4781 C   0  0  0  0  0  0  0  0  0  0  0  0
   -4.3372    4.9664  -16.7575 C   0  0  0  0  0  0  0  0  0  0  0  0
   -3.1206    5.0558  -16.7887 O   0  0  0  0  0  0  0  0  0  0  0  0
   -5.1345    4.7449  -17.8659 N   0  0  0  0  0  0  0  0  0  0  0  0
   -4.3448    4.2716  -12.5089 H   0  0  0  0  0  0  0  0  0  0  0  0
   -4.7929    4.6421  -18.7835 H   0  0  0  0  0  0  0  0  0  0  0  0
   -8.6791    6.3758  -14.1163 O   0  0  0  0  0  0  0  0  0  0  0  0
   -8.2234    5.3067  -14.2354 C   0  0  0  0  0  0  0  0  0  0  0  0
   -7.9159    4.2232  -13.1734 N   0  0  0  0  0  0  0  0  0  0  0  0
   -7.6003    3.3654  -13.5392 H   0  0  0  0  0  0  0  0  0  0  0  0
   -8.0137    4.2647  -11.7768 C   0  0  0  0  0  0  0  0  0  0  0  0
   -7.6871    5.4344  -11.0698 C   0  0  0  0  0  0  0  0  0  0  0  0
   -7.7651    5.4839   -9.6718 C   0  0  0  0  0  0  0  0  0  0  0  0
   -8.1720    4.3501   -8.9947 C   0  0  0  0  0  0  0  0  0  0  0  0
   -8.4959    3.1880   -9.6833 C   0  0  0  0  0  0  0  0  0  0  0  0
   -8.4262    3.1289  -11.0722 C   0  0  0  0  0  0  0  0  0  0  0  0
   -8.8299    2.1192   -8.6936 C   0  0  0  0  0  0  0  0  0  0  0  0
   -8.9767    2.8077   -7.3859 N   0  0  0  0  0  0  0  0  0  0  0  0
   -8.3031    4.1148   -7.5269 C   0  0  0  0  0  0  0  0  0  0  0  0
   -8.5347    2.2606   -6.6472 H   0  0  0  0  0  0  0  0  0  0  0  0
 18 19  2  0  0  0
 19 20  1  0  0  0
 20 22  1  0  0  0
 22 23  2  0  0  0
 23 24  1  0  0  0
 24 25  2  0  0  0
 25 26  1  0  0  0
 26 27  2  0  0  0
 26 28  1  0  0  0
 28 29  1  0  0  0
 29 30  1  0  0  0
 19  1  1  0  0  0
  1  2  2  0  0  0
  2  3  1  0  0  0
  3  4  1  0  0  0
  3  5  2  0  0  0
  5  6  1  0  0  0
  6  7  2  0  0  0
  7  8  1  0  0  0
  8  9  1  0  0  0
  9 10  1  0  0  0
 10 11  1  0  0  0
 11 12  1  0  0  0
  8 13  1  0  0  0
 13 14  2  0  0  0
 13 15  1  0  0  0
 27 22  1  0  0  0
  7  1  1  0  0  0
 12  8  1  0  0  0
 30 25  1  0  0  0
 15  6  1  0  0  0
 20 21  1  0  0  0
 29 31  1  0  0  0
 11 16  1  0  0  0
 15 17  1  0  0  0
M  END
> <minimizedAffinity>
-8.17077

> <minimizedRMSD>
0.57348

$$$$
P19467


 35 40  0  0  0  0  0  0  0  0999 V2000
   -7.4482    4.8238  -15.4379 C   0  0  0  0  0  0  0  0  0  0  0  0
   -8.7317    4.3789  -15.8247 C   0  0  0  0  0  0  0  0  0  0  0  0
   -9.0294    4.1333  -17.1679 C   0  0  0  0  0  0  0  0  0  0  0  0
  -10.6379    3.9680  -17.6943 Cl  0  0  0  0  0  0  0  0  0  0  0  0
   -8.0655    4.2266  -18.1411 C   0  0  0  0  0  0  0  0  0  0  0  0
   -6.8444    4.7249  -17.7596 C   0  0  0  0  0  0  0  0  0  0  0  0
   -6.5124    5.0685  -16.4433 C   0  0  0  0  0  0  0  0  0  0  0  0
   -5.1612    5.7724  -16.5194 C   0  0  0  0  0  0  0  0  0  0  0  0
   -5.2727    7.2716  -16.1786 C   0  0  0  0  0  0  0  0  0  0  0  0
   -3.9983    7.6412  -15.4252 C   0  0  0  0  0  0  0  0  0  0  0  0
   -3.1479    6.4554  -15.4189 N   0  0  0  0  0  0  0  0  0  0  0  0
   -4.0733    5.3127  -15.5326 C   0  0  0  0  0  0  0  0  0  0  0  0
   -4.7144    5.4803  -17.9433 N   0  0  0  0  0  0  0  0  0  0  0  0
   -5.8250    5.0086  -18.6713 N   0  0  0  0  0  0  0  0  0  0  0  0
   -2.6176    6.4006  -14.5494 H   0  0  0  0  0  0  0  0  0  0  0  0
   -5.8736    4.8986  -19.6484 H   0  0  0  0  0  0  0  0  0  0  0  0
   -3.8633    6.4609  -18.6464 C   0  0  0  0  0  0  0  0  0  0  0  0
   -3.9775    6.3350  -20.1922 C   0  0  0  0  0  0  0  0  0  0  0  0
   -3.0433    5.1739  -20.1356 N   0  0  0  0  0  0  0  0  0  0  0  0
   -2.4695    5.8127  -18.9014 C   0  0  0  0  0  0  0  0  0  0  0  0
   -2.3976    5.1042  -20.9222 H   0  0  0  0  0  0  0  0  0  0  0  0
   -6.7919    6.2273  -13.7470 O   0  0  0  0  0  0  0  0  0  0  0  0
   -7.2538    5.1850  -13.9994 C   0  0  0  0  0  0  0  0  0  0  0  0
   -7.8228    4.0858  -13.0659 N   0  0  0  0  0  0  0  0  0  0  0  0
   -8.0878    3.2544  -13.5218 H   0  0  0  0  0  0  0  0  0  0  0  0
   -8.0203    4.0833  -11.6865 C   0  0  0  0  0  0  0  0  0  0  0  0
   -7.7187    5.2101  -10.9071 C   0  0  0  0  0  0  0  0  0  0  0  0
   -7.9537    5.2119   -9.5281 C   0  0  0  0  0  0  0  0  0  0  0  0
   -8.4768    4.0707   -8.9500 C   0  0  0  0  0  0  0  0  0  0  0  0
   -8.7798    2.9551   -9.7182 C   0  0  0  0  0  0  0  0  0  0  0  0
   -8.5677    2.9438  -11.0885 C   0  0  0  0  0  0  0  0  0  0  0  0
   -9.3526    1.8938   -8.8443 C   0  0  0  0  0  0  0  0  0  0  0  0
   -9.2185    2.3821   -7.4449 N   0  0  0  0  0  0  0  0  0  0  0  0
   -8.8245    3.8061   -7.5266 C   0  0  0  0  0  0  0  0  0  0  0  0
   -8.5028    1.8470   -6.9531 H   0  0  0  0  0  0  0  0  0  0  0  0
 22 23  2  0  0  0
 23 24  1  0  0  0
 24 26  1  0  0  0
 26 27  2  0  0  0
 27 28  1  0  0  0
 28 29  2  0  0  0
 29 30  1  0  0  0
 30 31  2  0  0  0
 30 32  1  0  0  0
 32 33  1  0  0  0
 33 34  1  0  0  0
 23  1  1  0  0  0
  1  2  2  0  0  0
  2  3  1  0  0  0
  3  4  1  0  0  0
  3  5  2  0  0  0
  5  6  1  0  0  0
  6  7  2  0  0  0
  7  8  1  0  0  0
  8  9  1  0  0  0
  9 10  1  0  0  0
 10 11  1  0  0  0
 11 12  1  0  0  0
  8 13  1  0  0  0
 13 17  1  0  0  0
 17 18  1  0  0  0
 18 19  1  0  0  0
 19 20  1  0  0  0
 13 14  1  0  0  0
 31 26  1  0  0  0
  7  1  1  0  0  0
 12  8  1  0  0  0
 20 17  1  0  0  0
 34 29  1  0  0  0
 14  6  1  0  0  0
 24 25  1  0  0  0
 33 35  1  0  0  0
 11 15  1  0  0  0
 19 21  1  0  0  0
 14 16  1  0  0  0
M  END
> <minimizedAffinity>
-9.65765

> <minimizedRMSD>
0.20148

$$$$
P19481


 35 40  0  0  0  0  0  0  0  0999 V2000
   -8.0871    5.0671  -15.2241 C   0  0  0  0  0  0  0  0  0  0  0  0
   -9.2244    4.7268  -15.9693 C   0  0  0  0  0  0  0  0  0  0  0  0
   -9.1246    4.4167  -17.3278 C   0  0  0  0  0  0  0  0  0  0  0  0
  -10.5415    4.2647  -18.2702 Cl  0  0  0  0  0  0  0  0  0  0  0  0
   -7.8963    4.3670  -17.9583 C   0  0  0  0  0  0  0  0  0  0  0  0
   -6.7873    4.7011  -17.2104 C   0  0  0  0  0  0  0  0  0  0  0  0
   -6.8516    5.0707  -15.8610 C   0  0  0  0  0  0  0  0  0  0  0  0
   -5.4130    5.3436  -15.4227 C   0  0  0  0  0  0  0  0  0  0  0  0
   -4.9205    4.1127  -14.5930 C   0  0  0  0  0  0  0  0  0  0  0  0
   -4.4063    4.6549  -13.2708 C   0  0  0  0  0  0  0  0  0  0  0  0
   -5.1953    5.8552  -13.0747 N   0  0  0  0  0  0  0  0  0  0  0  0
   -5.2176    6.4901  -14.3986 C   0  0  0  0  0  0  0  0  0  0  0  0
   -4.6222    5.3114  -16.7295 N   0  0  0  0  0  0  0  0  0  0  0  0
   -5.4648    4.6186  -17.6513 N   0  0  0  0  0  0  0  0  0  0  0  0
   -4.7574    6.4678  -12.3868 H   0  0  0  0  0  0  0  0  0  0  0  0
   -5.1619    4.1571  -18.4665 H   0  0  0  0  0  0  0  0  0  0  0  0
   -4.1280    6.5101  -17.4273 C   0  0  0  0  0  0  0  0  0  0  0  0
   -4.7556    7.8581  -17.0983 C   0  0  0  0  0  0  0  0  0  0  0  0
   -3.4152    8.3906  -16.7747 N   0  0  0  0  0  0  0  0  0  0  0  0
   -2.8270    7.0336  -16.8328 C   0  0  0  0  0  0  0  0  0  0  0  0
   -3.3561    8.8261  -15.8542 H   0  0  0  0  0  0  0  0  0  0  0  0
   -8.7776    6.6109  -13.6903 O   0  0  0  0  0  0  0  0  0  0  0  0
   -8.3427    5.5367  -13.8411 C   0  0  0  0  0  0  0  0  0  0  0  0
   -8.0528    4.4158  -12.8095 N   0  0  0  0  0  0  0  0  0  0  0  0
   -7.7545    3.5629  -13.2004 H   0  0  0  0  0  0  0  0  0  0  0  0
   -8.1460    4.4196  -11.4145 C   0  0  0  0  0  0  0  0  0  0  0  0
   -7.7894    5.5513  -10.6665 C   0  0  0  0  0  0  0  0  0  0  0  0
   -7.8765    5.5480   -9.2691 C   0  0  0  0  0  0  0  0  0  0  0  0
   -8.3332    4.4048   -8.6401 C   0  0  0  0  0  0  0  0  0  0  0  0
   -8.6940    3.2803   -9.3722 C   0  0  0  0  0  0  0  0  0  0  0  0
   -8.6049    3.2698  -10.7591 C   0  0  0  0  0  0  0  0  0  0  0  0
   -9.0993    2.1994   -8.4222 C   0  0  0  0  0  0  0  0  0  0  0  0
   -9.2877    2.8730   -7.1081 N   0  0  0  0  0  0  0  0  0  0  0  0
   -8.4939    4.1190   -7.1852 C   0  0  0  0  0  0  0  0  0  0  0  0
   -8.9474    2.2797   -6.3514 H   0  0  0  0  0  0  0  0  0  0  0  0
 22 23  2  0  0  0
 23 24  1  0  0  0
 24 26  1  0  0  0
 26 27  2  0  0  0
 27 28  1  0  0  0
 28 29  2  0  0  0
 29 30  1  0  0  0
 30 31  2  0  0  0
 30 32  1  0  0  0
 32 33  1  0  0  0
 33 34  1  0  0  0
 23  1  1  0  0  0
  1  2  2  0  0  0
  2  3  1  0  0  0
  3  4  1  0  0  0
  3  5  2  0  0  0
  5  6  1  0  0  0
  6  7  2  0  0  0
  7  8  1  0  0  0
  8  9  1  0  0  0
  9 10  1  0  0  0
 10 11  1  0  0  0
 11 12  1  0  0  0
  8 13  1  0  0  0
 13 17  1  0  0  0
 17 18  1  0  0  0
 18 19  1  0  0  0
 19 20  1  0  0  0
 13 14  1  0  0  0
 31 26  1  0  0  0
  7  1  1  0  0  0
 12  8  1  0  0  0
 20 17  1  0  0  0
 34 29  1  0  0  0
 14  6  1  0  0  0
 24 25  1  0  0  0
 33 35  1  0  0  0
 11 15  1  0  0  0
 19 21  1  0  0  0
 14 16  1  0  0  0
M  END
> <minimizedAffinity>
-7.58925

> <minimizedRMSD>
0.69243

$$$$
P19485


 30 34  0  0  0  0  0  0  0  0999 V2000
   -5.1689    5.0877  -19.9116 O   0  0  0  0  0  0  0  0  0  0  0  0
   -5.6204    5.1121  -18.7760 C   0  0  0  0  0  0  0  0  0  0  0  0
   -6.8055    4.5081  -18.4175 N   0  0  0  0  0  0  0  0  0  0  0  0
   -6.8785    4.7167  -17.1578 C   0  0  0  0  0  0  0  0  0  0  0  0
   -7.9343    4.4493  -16.2104 C   0  0  0  0  0  0  0  0  0  0  0  0
   -9.4964    4.2379  -16.8234 Cl  0  0  0  0  0  0  0  0  0  0  0  0
   -7.6589    4.6175  -14.9177 C   0  0  0  0  0  0  0  0  0  0  0  0
   -6.3680    5.0834  -14.4158 C   0  0  0  0  0  0  0  0  0  0  0  0
   -5.3666    5.5335  -15.2175 C   0  0  0  0  0  0  0  0  0  0  0  0
   -5.6448    5.3745  -16.6788 C   0  0  0  0  0  0  0  0  0  0  0  0
   -4.9237    5.6624  -17.7063 N   0  0  0  0  0  0  0  0  0  0  0  0
   -4.0999    6.0256  -14.8268 N   0  0  0  0  0  0  0  0  0  0  0  0
   -3.7076    7.3550  -14.7876 C   0  0  0  0  0  0  0  0  0  0  0  0
   -2.3699    7.3791  -14.4996 C   0  0  0  0  0  0  0  0  0  0  0  0
   -1.9003    6.1159  -14.3244 N   0  0  0  0  0  0  0  0  0  0  0  0
   -2.9451    5.3347  -14.4928 C   0  0  0  0  0  0  0  0  0  0  0  0
   -6.3270    5.2944  -12.9266 C   0  0  0  0  0  0  0  0  0  0  0  0
   -5.6464    6.1119  -12.4461 O   0  0  0  0  0  0  0  0  0  0  0  0
   -7.3299    4.3091  -12.2715 N   0  0  0  0  0  0  0  0  0  0  0  0
   -7.7312    3.6571  -12.8904 H   0  0  0  0  0  0  0  0  0  0  0  0
   -7.7552    4.1968  -10.9494 C   0  0  0  0  0  0  0  0  0  0  0  0
   -7.6150    5.2576  -10.0413 C   0  0  0  0  0  0  0  0  0  0  0  0
   -8.0649    5.1338   -8.7214 C   0  0  0  0  0  0  0  0  0  0  0  0
   -8.6595    3.9455   -8.3400 C   0  0  0  0  0  0  0  0  0  0  0  0
   -8.7984    2.8932   -9.2384 C   0  0  0  0  0  0  0  0  0  0  0  0
   -8.3505    2.9971  -10.5446 C   0  0  0  0  0  0  0  0  0  0  0  0
   -9.4349    1.7381   -8.5389 C   0  0  0  0  0  0  0  0  0  0  0  0
   -9.9929    2.3006   -7.2836 N   0  0  0  0  0  0  0  0  0  0  0  0
   -9.2192    3.5330   -7.0188 C   0  0  0  0  0  0  0  0  0  0  0  0
   -9.8804    1.6382   -6.5162 H   0  0  0  0  0  0  0  0  0  0  0  0
  1  2  2  0  0  0
  2  3  1  0  0  0
  3  4  2  0  0  0
  4  5  1  0  0  0
  5  6  1  0  0  0
  5  7  2  0  0  0
  7  8  1  0  0  0
  8 17  1  0  0  0
 17 18  2  0  0  0
 17 19  1  0  0  0
 19 21  1  0  0  0
 21 22  2  0  0  0
 22 23  1  0  0  0
 23 24  2  0  0  0
 24 25  1  0  0  0
 25 26  2  0  0  0
 25 27  1  0  0  0
 27 28  1  0  0  0
 28 29  1  0  0  0
  8  9  2  0  0  0
  9 12  1  0  0  0
 12 13  1  0  0  0
 13 14  2  0  0  0
 14 15  1  0  0  0
 15 16  2  0  0  0
  9 10  1  0  0  0
 10 11  2  0  0  0
 11  2  1  0  0  0
 10  4  1  0  0  0
 26 21  1  0  0  0
 16 12  1  0  0  0
 29 24  1  0  0  0
 19 20  1  0  0  0
 28 30  1  0  0  0
M  END
> <minimizedAffinity>
-7.69006

> <minimizedRMSD>
1.27591

$$$$
P19499


 37 42  0  0  0  0  0  0  0  0999 V2000
   -7.7837    4.9291  -15.1312 C   0  0  0  0  0  0  0  0  0  0  0  0
   -8.9510    4.4726  -15.7423 C   0  0  0  0  0  0  0  0  0  0  0  0
   -8.9716    4.2469  -17.1192 C   0  0  0  0  0  0  0  0  0  0  0  0
  -10.4872    4.0074  -17.8462 Cl  0  0  0  0  0  0  0  0  0  0  0  0
   -7.8383    4.3910  -17.9111 C   0  0  0  0  0  0  0  0  0  0  0  0
   -6.6862    4.8317  -17.2948 C   0  0  0  0  0  0  0  0  0  0  0  0
   -6.6596    5.1309  -15.9235 C   0  0  0  0  0  0  0  0  0  0  0  0
   -5.3103    5.7104  -15.6228 C   0  0  0  0  0  0  0  0  0  0  0  0
   -5.2599    7.2323  -15.4016 C   0  0  0  0  0  0  0  0  0  0  0  0
   -4.1628    7.4506  -14.3608 C   0  0  0  0  0  0  0  0  0  0  0  0
   -3.4679    6.1633  -14.2046 N   0  0  0  0  0  0  0  0  0  0  0  0
   -4.5450    5.1752  -14.4090 C   0  0  0  0  0  0  0  0  0  0  0  0
   -4.4981    5.4428  -16.8666 N   0  0  0  0  0  0  0  0  0  0  0  0
   -5.4318    5.0857  -17.8774 N   0  0  0  0  0  0  0  0  0  0  0  0
   -3.0631    6.0763  -13.2724 H   0  0  0  0  0  0  0  0  0  0  0  0
   -3.8427    4.6783  -16.7039 H   0  0  0  0  0  0  0  0  0  0  0  0
   -5.1276    5.2474  -19.2672 C   0  0  0  0  0  0  0  0  0  0  0  0
   -5.1407    6.7052  -19.7722 C   0  0  0  0  0  0  0  0  0  0  0  0
   -3.9841    6.3503  -20.6598 N   0  0  0  0  0  0  0  0  0  0  0  0
   -3.6169    5.3612  -19.6019 C   0  0  0  0  0  0  0  0  0  0  0  0
   -3.3062    7.0985  -20.8048 H   0  0  0  0  0  0  0  0  0  0  0  0
   -8.1370    4.1683  -12.7720 N   0  0  0  0  0  0  0  0  0  0  0  0
   -7.8552    5.3596  -13.7140 C   0  0  0  0  0  0  0  0  0  0  0  0
   -7.7701    6.5002  -13.4856 O   0  0  0  0  0  0  0  0  0  0  0  0
   -8.2359    3.2995  -13.2245 H   0  0  0  0  0  0  0  0  0  0  0  0
   -8.0860    5.1817   -9.2028 C   0  0  0  0  0  0  0  0  0  0  0  0
   -7.9397    5.2317  -10.5945 C   0  0  0  0  0  0  0  0  0  0  0  0
   -8.2737    4.1233  -11.3889 C   0  0  0  0  0  0  0  0  0  0  0  0
   -8.7514    2.9509  -10.8013 C   0  0  0  0  0  0  0  0  0  0  0  0
   -8.8921    2.9186   -9.4237 C   0  0  0  0  0  0  0  0  0  0  0  0
   -8.5770    4.0177   -8.6354 C   0  0  0  0  0  0  0  0  0  0  0  0
   -8.8349    3.6934   -7.2032 C   0  0  0  0  0  0  0  0  0  0  0  0
   -9.4076    2.3309   -7.1752 N   0  0  0  0  0  0  0  0  0  0  0  0
   -9.3141    1.7871   -8.5540 C   0  0  0  0  0  0  0  0  0  0  0  0
  -10.3831    2.3679   -6.8794 H   0  0  0  0  0  0  0  0  0  0  0  0
   -7.3637    7.1567   -7.6879 N   0  0  0  0  0  0  0  0  0  0  0  0
   -7.6996    6.2901   -8.3839 C   0  0  0  0  0  0  0  0  0  0  0  0
 36 37  3  0  0  0
 37 26  1  0  0  0
 26 27  2  0  0  0
 27 28  1  0  0  0
 28 22  1  0  0  0
 22 23  1  0  0  0
 23 24  2  0  0  0
 23  1  1  0  0  0
  1  2  2  0  0  0
  2  3  1  0  0  0
  3  4  1  0  0  0
  3  5  2  0  0  0
  5  6  1  0  0  0
  6  7  2  0  0  0
  7  8  1  0  0  0
  8  9  1  0  0  0
  9 10  1  0  0  0
 10 11  1  0  0  0
 11 12  1  0  0  0
  8 13  1  0  0  0
 13 14  1  0  0  0
 14 17  1  0  0  0
 17 18  1  0  0  0
 18 19  1  0  0  0
 19 20  1  0  0  0
 28 29  2  0  0  0
 29 30  1  0  0  0
 30 31  2  0  0  0
 31 32  1  0  0  0
 32 33  1  0  0  0
 33 34  1  0  0  0
 31 26  1  0  0  0
  7  1  1  0  0  0
 12  8  1  0  0  0
 20 17  1  0  0  0
 34 30  1  0  0  0
 14  6  1  0  0  0
 22 25  1  0  0  0
 11 15  1  0  0  0
 13 16  1  0  0  0
 19 21  1  0  0  0
 33 35  1  0  0  0
M  END
> <minimizedAffinity>
-9.25882

> <minimizedRMSD>
0.33599

$$$$
P19500


 35 40  0  0  0  0  0  0  0  0999 V2000
   -7.6453    4.9308  -15.1362 C   0  0  0  0  0  0  0  0  0  0  0  0
   -8.7957    4.4466  -15.7647 C   0  0  0  0  0  0  0  0  0  0  0  0
   -8.7974    4.2353  -17.1444 C   0  0  0  0  0  0  0  0  0  0  0  0
  -10.2724    3.8470  -17.8946 Cl  0  0  0  0  0  0  0  0  0  0  0  0
   -7.6773    4.4795  -17.9301 C   0  0  0  0  0  0  0  0  0  0  0  0
   -6.5485    4.9574  -17.3004 C   0  0  0  0  0  0  0  0  0  0  0  0
   -6.5195    5.1761  -15.9153 C   0  0  0  0  0  0  0  0  0  0  0  0
   -5.1539    5.7256  -15.5860 C   0  0  0  0  0  0  0  0  0  0  0  0
   -4.4402    5.0663  -14.4036 C   0  0  0  0  0  0  0  0  0  0  0  0
   -3.7736    6.2196  -13.6713 C   0  0  0  0  0  0  0  0  0  0  0  0
   -4.6812    7.3570  -13.8404 N   0  0  0  0  0  0  0  0  0  0  0  0
   -5.1507    7.2402  -15.2334 C   0  0  0  0  0  0  0  0  0  0  0  0
   -4.3613    5.4890  -16.8413 N   0  0  0  0  0  0  0  0  0  0  0  0
   -5.3232    5.3396  -17.8779 N   0  0  0  0  0  0  0  0  0  0  0  0
   -4.1876    8.2381  -13.6975 H   0  0  0  0  0  0  0  0  0  0  0  0
   -3.7985    4.6429  -16.7530 H   0  0  0  0  0  0  0  0  0  0  0  0
   -5.0196    5.4542  -19.2872 C   0  0  0  0  0  0  0  0  0  0  0  0
   -3.5378    5.7199  -19.6484 C   0  0  0  0  0  0  0  0  0  0  0  0
   -3.7867    7.1798  -19.5121 N   0  0  0  0  0  0  0  0  0  0  0  0
   -5.2162    6.8955  -19.8088 C   0  0  0  0  0  0  0  0  0  0  0  0
   -3.3148    7.7588  -20.2067 H   0  0  0  0  0  0  0  0  0  0  0  0
   -7.6983    6.4922  -13.4776 O   0  0  0  0  0  0  0  0  0  0  0  0
   -7.7403    5.3508  -13.7149 C   0  0  0  0  0  0  0  0  0  0  0  0
   -7.9857    4.1442  -12.7847 N   0  0  0  0  0  0  0  0  0  0  0  0
   -8.0496    3.2759  -13.2443 H   0  0  0  0  0  0  0  0  0  0  0  0
   -8.1312    4.0837  -11.4035 C   0  0  0  0  0  0  0  0  0  0  0  0
   -7.7717    5.1758  -10.5945 C   0  0  0  0  0  0  0  0  0  0  0  0
   -7.9674    5.1413   -9.2112 C   0  0  0  0  0  0  0  0  0  0  0  0
   -8.5306    4.0052   -8.6669 C   0  0  0  0  0  0  0  0  0  0  0  0
   -8.8761    2.9167   -9.4693 C   0  0  0  0  0  0  0  0  0  0  0  0
   -8.6834    2.9339  -10.8384 C   0  0  0  0  0  0  0  0  0  0  0  0
   -9.4284    1.8357   -8.5987 C   0  0  0  0  0  0  0  0  0  0  0  0
   -9.7914    2.5326   -7.3479 N   0  0  0  0  0  0  0  0  0  0  0  0
   -9.7408    1.7110   -6.2479 F   0  0  0  0  0  0  0  0  0  0  0  0
   -8.8826    3.6890   -7.2476 C   0  0  0  0  0  0  0  0  0  0  0  0
 22 23  2  0  0  0
 23 24  1  0  0  0
 24 26  1  0  0  0
 26 27  2  0  0  0
 27 28  1  0  0  0
 28 29  2  0  0  0
 29 30  1  0  0  0
 30 31  2  0  0  0
 30 32  1  0  0  0
 32 33  1  0  0  0
 33 34  1  0  0  0
 33 35  1  0  0  0
 23  1  1  0  0  0
  1  2  2  0  0  0
  2  3  1  0  0  0
  3  4  1  0  0  0
  3  5  2  0  0  0
  5  6  1  0  0  0
  6  7  2  0  0  0
  7  8  1  0  0  0
  8  9  1  0  0  0
  9 10  1  0  0  0
 10 11  1  0  0  0
 11 12  1  0  0  0
  8 13  1  0  0  0
 13 14  1  0  0  0
 14 17  1  0  0  0
 17 18  1  0  0  0
 18 19  1  0  0  0
 19 20  1  0  0  0
 31 26  1  0  0  0
  7  1  1  0  0  0
 12  8  1  0  0  0
 20 17  1  0  0  0
 35 29  1  0  0  0
 14  6  1  0  0  0
 24 25  1  0  0  0
 11 15  1  0  0  0
 13 16  1  0  0  0
 19 21  1  0  0  0
M  END
> <minimizedAffinity>
-9.31118

> <minimizedRMSD>
0.38421

$$$$
P19560


 37 41  0  0  0  0  0  0  0  0999 V2000
   -6.9633    4.7721  -12.3376 C   0  0  0  0  0  0  0  0  0  0  0  0
   -6.9274    6.1808  -12.2694 O   0  0  0  0  0  0  0  0  0  0  0  0
   -6.9158    6.4593  -11.3403 H   0  0  0  0  0  0  0  0  0  0  0  0
   -6.9800    4.3868  -13.7479 N   0  0  0  0  0  0  0  0  0  0  0  0
   -8.3143    4.3224  -14.4258 C   0  0  0  0  0  0  0  0  0  0  0  0
   -8.0819    4.3035  -15.9492 C   0  0  0  0  0  0  0  0  0  0  0  0
   -8.8815    5.1668  -16.9349 C   0  0  0  0  0  0  0  0  0  0  0  0
   -8.7902    4.0360  -17.9257 C   0  0  0  0  0  0  0  0  0  0  0  0
   -7.6871    3.8509  -18.6838 F   0  0  0  0  0  0  0  0  0  0  0  0
   -9.8220    4.1519  -18.7604 F   0  0  0  0  0  0  0  0  0  0  0  0
   -8.8767    3.1650  -16.6728 C   0  0  0  0  0  0  0  0  0  0  0  0
   -6.5930    4.7874  -16.0050 C   0  0  0  0  0  0  0  0  0  0  0  0
   -5.8527    5.3091  -17.0875 C   0  0  0  0  0  0  0  0  0  0  0  0
   -4.6135    5.9011  -16.8938 C   0  0  0  0  0  0  0  0  0  0  0  0
   -4.1067    5.9829  -15.6057 C   0  0  0  0  0  0  0  0  0  0  0  0
   -4.8391    5.4962  -14.5153 C   0  0  0  0  0  0  0  0  0  0  0  0
   -6.0885    4.9147  -14.7014 C   0  0  0  0  0  0  0  0  0  0  0  0
   -5.0090    4.7694  -10.8501 O   0  0  0  0  0  0  0  0  0  0  0  0
   -5.7276    4.0960  -11.4893 C   0  0  0  0  0  0  0  0  0  0  0  0
   -5.8017    2.5462  -11.6266 N   0  0  0  0  0  0  0  0  0  0  0  0
   -6.4504    2.2219  -12.2924 H   0  0  0  0  0  0  0  0  0  0  0  0
   -5.0715    1.5049  -10.9344 C   0  0  0  0  0  0  0  0  0  0  0  0
   -3.6133    1.3272  -11.3481 C   0  0  0  0  0  0  0  0  0  0  0  0
   -2.8401    2.3519  -10.9132 F   0  0  0  0  0  0  0  0  0  0  0  0
   -3.4926    1.2994  -12.7001 F   0  0  0  0  0  0  0  0  0  0  0  0
   -8.2341    4.3177  -11.7790 N   0  0  0  0  0  0  0  0  0  0  0  0
   -8.9835    4.0973  -12.3782 H   0  0  0  0  0  0  0  0  0  0  0  0
   -8.3884    4.1948  -10.3900 C   0  0  0  0  0  0  0  0  0  0  0  0
   -8.1498    5.2652   -9.5014 C   0  0  0  0  0  0  0  0  0  0  0  0
   -8.3247    5.1343   -8.1196 C   0  0  0  0  0  0  0  0  0  0  0  0
   -8.8011    3.9338   -7.6385 C   0  0  0  0  0  0  0  0  0  0  0  0
   -9.0699    2.8771   -8.4995 C   0  0  0  0  0  0  0  0  0  0  0  0
   -8.8743    2.9884   -9.8654 C   0  0  0  0  0  0  0  0  0  0  0  0
   -9.5618    1.7185   -7.7006 C   0  0  0  0  0  0  0  0  0  0  0  0
   -9.9662    2.2993   -6.3940 N   0  0  0  0  0  0  0  0  0  0  0  0
   -9.1542    3.5282   -6.2469 C   0  0  0  0  0  0  0  0  0  0  0  0
   -9.7677    1.6466   -5.6357 H   0  0  0  0  0  0  0  0  0  0  0  0
 18 19  2  0  0  0
 19 20  1  0  0  0
 20 22  1  0  0  0
 22 23  1  0  0  0
 23 24  1  0  0  0
 23 25  1  0  0  0
 19  1  1  0  0  0
  1  2  1  0  0  0
  1 26  1  0  0  0
 26 28  1  0  0  0
 28 29  2  0  0  0
 29 30  1  0  0  0
 30 31  2  0  0  0
 31 32  1  0  0  0
 32 33  2  0  0  0
 32 34  1  0  0  0
 34 35  1  0  0  0
 35 36  1  0  0  0
  1  4  1  0  0  0
  4  5  1  0  0  0
  5  6  1  0  0  0
  6  7  1  0  0  0
  7  8  1  0  0  0
  8  9  1  0  0  0
  8 10  1  0  0  0
  8 11  1  0  0  0
  6 12  1  0  0  0
 12 13  2  0  0  0
 13 14  1  0  0  0
 14 15  2  0  0  0
 15 16  1  0  0  0
 16 17  2  0  0  0
 33 28  1  0  0  0
 17  4  1  0  0  0
 36 31  1  0  0  0
 11  6  1  0  0  0
 17 12  1  0  0  0
 20 21  1  0  0  0
  2  3  1  0  0  0
 26 27  1  0  0  0
 35 37  1  0  0  0
M  END
> <minimizedAffinity>
-8.20508

> <minimizedRMSD>
1.29959

$$$$
P19658


 43 48  0  0  0  0  0  0  0  0999 V2000
   -7.8264    4.0515  -13.4850 C   0  0  0  0  0  0  0  0  0  0  0  0
   -7.7897    4.5782  -14.9229 C   0  0  0  0  0  0  0  0  0  0  0  0
   -8.8420    4.2162  -15.7883 C   0  0  0  0  0  0  0  0  0  0  0  0
   -8.8494    4.4642  -17.1745 C   0  0  0  0  0  0  0  0  0  0  0  0
   -7.7162    5.0238  -17.7389 C   0  0  0  0  0  0  0  0  0  0  0  0
   -6.6876    5.4422  -16.9024 C   0  0  0  0  0  0  0  0  0  0  0  0
   -6.7531    5.2927  -15.5115 C   0  0  0  0  0  0  0  0  0  0  0  0
   -5.6263    6.0469  -14.8986 C   0  0  0  0  0  0  0  0  0  0  0  0
   -4.7162    6.4362  -16.0026 N   0  0  0  0  0  0  0  0  0  0  0  0
   -5.3949    6.1062  -17.3024 C   0  0  0  0  0  0  0  0  0  0  0  0
   -5.6650    7.4155  -18.0688 C   0  0  0  0  0  0  0  0  0  0  0  0
   -5.0058    7.4430  -19.4454 C   0  0  0  0  0  0  0  0  0  0  0  0
   -5.3253    6.2660  -20.2384 N   0  0  0  0  0  0  0  0  0  0  0  0
   -4.9458    5.0103  -19.5810 C   0  0  0  0  0  0  0  0  0  0  0  0
   -4.4995    5.1522  -18.1221 C   0  0  0  0  0  0  0  0  0  0  0  0
   -3.8405    5.9185  -15.9281 H   0  0  0  0  0  0  0  0  0  0  0  0
   -4.8302    6.3295  -21.1279 H   0  0  0  0  0  0  0  0  0  0  0  0
  -10.0271    4.0143  -18.0004 C   0  0  0  0  0  0  0  0  0  0  0  0
  -10.2418    4.7359  -19.2008 O   0  0  0  0  0  0  0  0  0  0  0  0
  -10.4431    5.6611  -18.9903 H   0  0  0  0  0  0  0  0  0  0  0  0
   -7.1843    1.7138  -13.6529 O   0  0  0  0  0  0  0  0  0  0  0  0
   -6.8740    2.7953  -13.3365 C   0  0  0  0  0  0  0  0  0  0  0  0
   -5.5269    3.3337  -12.7830 N   0  0  0  0  0  0  0  0  0  0  0  0
   -5.4915    4.3102  -12.6623 H   0  0  0  0  0  0  0  0  0  0  0  0
   -4.3268    2.6401  -12.4192 C   0  0  0  0  0  0  0  0  0  0  0  0
   -3.4968    2.2355  -13.6458 C   0  0  0  0  0  0  0  0  0  0  0  0
   -2.1505    1.6369  -13.2166 C   0  0  0  0  0  0  0  0  0  0  0  0
   -1.1803    2.7118  -12.7393 C   0  0  0  0  0  0  0  0  0  0  0  0
   -1.0055    3.7192  -13.7341 O   0  0  0  0  0  0  0  0  0  0  0  0
   -2.2280    4.3768  -14.0692 C   0  0  0  0  0  0  0  0  0  0  0  0
   -3.2491    3.3910  -14.6200 C   0  0  0  0  0  0  0  0  0  0  0  0
   -7.5178    5.1184  -12.4983 N   0  0  0  0  0  0  0  0  0  0  0  0
   -7.0589    5.9430  -12.7789 H   0  0  0  0  0  0  0  0  0  0  0  0
   -7.8960    4.9277  -11.1453 C   0  0  0  0  0  0  0  0  0  0  0  0
   -7.6514    5.9964  -10.2537 C   0  0  0  0  0  0  0  0  0  0  0  0
   -7.8688    5.8773   -8.8739 C   0  0  0  0  0  0  0  0  0  0  0  0
   -8.3415    4.6748   -8.3871 C   0  0  0  0  0  0  0  0  0  0  0  0
   -8.5800    3.6089   -9.2420 C   0  0  0  0  0  0  0  0  0  0  0  0
   -8.3527    3.7121  -10.6073 C   0  0  0  0  0  0  0  0  0  0  0  0
   -9.0612    2.4354   -8.4499 C   0  0  0  0  0  0  0  0  0  0  0  0
   -9.4093    2.9900   -7.1127 N   0  0  0  0  0  0  0  0  0  0  0  0
   -8.6561    4.2549   -6.9909 C   0  0  0  0  0  0  0  0  0  0  0  0
   -9.1334    2.3403   -6.3763 H   0  0  0  0  0  0  0  0  0  0  0  0
 21 22  2  0  0  0
 22 23  1  0  0  0
 23 25  1  0  0  0
 25 26  1  0  0  0
 26 27  1  0  0  0
 27 28  1  0  0  0
 28 29  1  0  0  0
 29 30  1  0  0  0
 30 31  1  0  0  0
 22  1  1  0  0  0
  1 32  1  0  0  0
 32 34  1  0  0  0
 34 35  2  0  0  0
 35 36  1  0  0  0
 36 37  2  0  0  0
 37 38  1  0  0  0
 38 39  2  0  0  0
 38 40  1  0  0  0
 40 41  1  0  0  0
 41 42  1  0  0  0
  1  2  1  0  0  0
  2  3  2  0  0  0
  3  4  1  0  0  0
  4 18  1  0  0  0
 18 19  1  0  0  0
  4  5  2  0  0  0
  5  6  1  0  0  0
  6  7  2  0  0  0
  7  8  1  0  0  0
  8  9  1  0  0  0
  9 10  1  0  0  0
 10 11  1  0  0  0
 11 12  1  0  0  0
 12 13  1  0  0  0
 13 14  1  0  0  0
 14 15  1  0  0  0
 31 26  1  0  0  0
 39 34  1  0  0  0
  7  2  1  0  0  0
 15 10  1  0  0  0
 42 37  1  0  0  0
 10  6  1  0  0  0
 23 24  1  0  0  0
 32 33  1  0  0  0
 41 43  1  0  0  0
 19 20  1  0  0  0
  9 16  1  0  0  0
 13 17  1  0  0  0
M  END
> <minimizedAffinity>
-9.36410

> <minimizedRMSD>
0.27238

$$$$
P19678


 42 47  0  0  0  0  0  0  0  0999 V2000
   -7.2823    4.3757  -14.0637 C   0  0  0  0  0  0  0  0  0  0  0  0
   -6.4721    5.5069  -13.7676 O   0  0  0  0  0  0  0  0  0  0  0  0
   -6.2917    5.5349  -12.8149 H   0  0  0  0  0  0  0  0  0  0  0  0
   -7.5118    4.4158  -15.5759 C   0  0  0  0  0  0  0  0  0  0  0  0
   -8.7996    4.3230  -16.1428 C   0  0  0  0  0  0  0  0  0  0  0  0
   -9.0068    4.4083  -17.5285 C   0  0  0  0  0  0  0  0  0  0  0  0
  -10.5978    4.2401  -18.1643 Cl  0  0  0  0  0  0  0  0  0  0  0  0
   -7.9469    4.6559  -18.3932 C   0  0  0  0  0  0  0  0  0  0  0  0
   -6.6868    4.7866  -17.8514 C   0  0  0  0  0  0  0  0  0  0  0  0
   -6.4610    4.5829  -16.4851 C   0  0  0  0  0  0  0  0  0  0  0  0
   -4.9748    4.5518  -16.2801 C   0  0  0  0  0  0  0  0  0  0  0  0
   -4.4889    5.3273  -17.5367 C   0  0  0  0  0  0  0  0  0  0  0  0
   -3.1217    4.8075  -18.0350 C   0  0  0  0  0  0  0  0  0  0  0  0
   -1.9630    5.6177  -17.4660 C   0  0  0  0  0  0  0  0  0  0  0  0
   -2.0317    7.0817  -17.9045 C   0  0  0  0  0  0  0  0  0  0  0  0
   -3.4594    7.5830  -18.1297 C   0  0  0  0  0  0  0  0  0  0  0  0
   -4.4558    6.8541  -17.2333 C   0  0  0  0  0  0  0  0  0  0  0  0
   -5.4998    5.0351  -18.5798 N   0  0  0  0  0  0  0  0  0  0  0  0
   -5.3743    5.0179  -19.5561 H   0  0  0  0  0  0  0  0  0  0  0  0
   -7.1494    1.9423  -13.7324 O   0  0  0  0  0  0  0  0  0  0  0  0
   -6.6271    2.9825  -13.6134 C   0  0  0  0  0  0  0  0  0  0  0  0
   -5.2786    3.3609  -12.9375 N   0  0  0  0  0  0  0  0  0  0  0  0
   -5.0927    4.3270  -12.9006 H   0  0  0  0  0  0  0  0  0  0  0  0
   -4.2595    2.5290  -12.3579 C   0  0  0  0  0  0  0  0  0  0  0  0
   -4.1234    2.6944  -10.8444 C   0  0  0  0  0  0  0  0  0  0  0  0
   -2.6770    2.4969  -10.3598 C   0  0  0  0  0  0  0  0  0  0  0  0
   -2.3547    3.3681   -9.1488 C   0  0  0  0  0  0  0  0  0  0  0  0
   -3.4753    3.4336   -8.2757 O   0  0  0  0  0  0  0  0  0  0  0  0
   -4.5796    4.1473   -8.8390 C   0  0  0  0  0  0  0  0  0  0  0  0
   -4.6795    4.0351  -10.3583 C   0  0  0  0  0  0  0  0  0  0  0  0
   -8.5512    4.6015  -13.3358 N   0  0  0  0  0  0  0  0  0  0  0  0
   -9.4216    4.6524  -13.7930 H   0  0  0  0  0  0  0  0  0  0  0  0
   -8.4189    4.7394  -11.9267 C   0  0  0  0  0  0  0  0  0  0  0  0
   -8.1895    6.0060  -11.3489 C   0  0  0  0  0  0  0  0  0  0  0  0
   -8.0502    6.1649   -9.9665 C   0  0  0  0  0  0  0  0  0  0  0  0
   -8.1683    5.0454   -9.1667 C   0  0  0  0  0  0  0  0  0  0  0  0
   -8.3942    3.7954   -9.7211 C   0  0  0  0  0  0  0  0  0  0  0  0
   -8.4954    3.6215  -11.0918 C   0  0  0  0  0  0  0  0  0  0  0  0
   -8.5577    2.7863   -8.6383 C   0  0  0  0  0  0  0  0  0  0  0  0
   -8.3084    3.5057   -7.3586 N   0  0  0  0  0  0  0  0  0  0  0  0
   -8.1617    4.9382   -7.6829 C   0  0  0  0  0  0  0  0  0  0  0  0
   -7.4546    3.1572   -6.9227 H   0  0  0  0  0  0  0  0  0  0  0  0
 20 21  2  0  0  0
 21 22  1  0  0  0
 22 24  1  0  0  0
 24 25  1  0  0  0
 25 26  1  0  0  0
 26 27  1  0  0  0
 27 28  1  0  0  0
 28 29  1  0  0  0
 29 30  1  0  0  0
 21  1  1  0  0  0
  1  2  1  0  0  0
  1 31  1  0  0  0
 31 33  1  0  0  0
 33 34  2  0  0  0
 34 35  1  0  0  0
 35 36  2  0  0  0
 36 37  1  0  0  0
 37 38  2  0  0  0
 37 39  1  0  0  0
 39 40  1  0  0  0
 40 41  1  0  0  0
  1  4  1  0  0  0
  4  5  2  0  0  0
  5  6  1  0  0  0
  6  7  1  0  0  0
  6  8  2  0  0  0
  8  9  1  0  0  0
  9 10  2  0  0  0
 10 11  1  0  0  0
 11 12  1  0  0  0
 12 13  1  0  0  0
 13 14  1  0  0  0
 14 15  1  0  0  0
 15 16  1  0  0  0
 16 17  1  0  0  0
 12 18  1  0  0  0
 30 25  1  0  0  0
 38 33  1  0  0  0
 10  4  1  0  0  0
 17 12  1  0  0  0
 41 36  1  0  0  0
 18  9  1  0  0  0
 22 23  1  0  0  0
  2  3  1  0  0  0
 31 32  1  0  0  0
 40 42  1  0  0  0
 18 19  1  0  0  0
M  END
> <minimizedAffinity>
-9.02910

> <minimizedRMSD>
1.30094

$$$$
P19689


 46 51  0  0  0  0  0  0  0  0999 V2000
   -7.2214    4.4394  -13.7632 C   0  0  0  0  0  0  0  0  0  0  0  0
   -6.3549    5.4803  -13.3144 O   0  0  0  0  0  0  0  0  0  0  0  0
   -6.7663    6.3412  -13.4891 H   0  0  0  0  0  0  0  0  0  0  0  0
   -1.9587    5.9249  -17.1697 C   0  0  0  0  0  0  0  0  0  0  0  0
   -2.5669    7.1517  -16.6393 N   0  0  0  0  0  0  0  0  0  0  0  0
   -3.8636    7.3613  -17.2821 N   0  0  0  0  0  0  0  0  0  0  0  0
   -4.5981    6.0851  -17.2579 C   0  0  0  0  0  0  0  0  0  0  0  0
   -5.1853    5.8226  -15.8413 C   0  0  0  0  0  0  0  0  0  0  0  0
   -6.4977    5.1636  -16.1406 C   0  0  0  0  0  0  0  0  0  0  0  0
   -6.7150    5.2537  -17.5186 C   0  0  0  0  0  0  0  0  0  0  0  0
   -7.8853    4.8013  -18.0945 C   0  0  0  0  0  0  0  0  0  0  0  0
   -8.8655    4.2861  -17.2580 C   0  0  0  0  0  0  0  0  0  0  0  0
  -10.3826    3.8288  -17.9304 Cl  0  0  0  0  0  0  0  0  0  0  0  0
   -8.6464    4.1753  -15.8758 C   0  0  0  0  0  0  0  0  0  0  0  0
   -7.4463    4.6080  -15.2706 C   0  0  0  0  0  0  0  0  0  0  0  0
   -5.6764    5.9097  -18.2338 N   0  0  0  0  0  0  0  0  0  0  0  0
   -3.3240    4.8428  -17.6910 S   0  0  0  0  0  0  0  0  0  0  0  0
   -1.9574    7.9462  -16.8333 H   0  0  0  0  0  0  0  0  0  0  0  0
   -3.7265    7.6630  -18.2468 H   0  0  0  0  0  0  0  0  0  0  0  0
   -5.6809    6.1860  -19.1788 H   0  0  0  0  0  0  0  0  0  0  0  0
   -1.3746    5.7190  -14.6960 C   0  0  0  0  0  0  0  0  0  0  0  0
   -1.0287    5.2645  -16.1223 C   0  0  0  0  0  0  0  0  0  0  0  0
    0.4530    5.5709  -16.3800 C   0  0  0  0  0  0  0  0  0  0  0  0
   -6.5482    2.9988  -13.4782 C   0  0  0  0  0  0  0  0  0  0  0  0
   -7.0298    1.9714  -13.7738 O   0  0  0  0  0  0  0  0  0  0  0  0
   -5.2463    3.3117  -12.6721 N   0  0  0  0  0  0  0  0  0  0  0  0
   -5.0119    4.2666  -12.6217 H   0  0  0  0  0  0  0  0  0  0  0  0
   -4.3359    2.4315  -11.9927 C   0  0  0  0  0  0  0  0  0  0  0  0
   -4.8415    2.1281  -10.5719 C   0  0  0  0  0  0  0  0  0  0  0  0
   -4.8131    3.3723   -9.6608 C   0  0  0  0  0  0  0  0  0  0  0  0
   -3.5800    3.4225   -8.7639 C   0  0  0  0  0  0  0  0  0  0  0  0
   -2.4592    2.8511   -9.4306 O   0  0  0  0  0  0  0  0  0  0  0  0
   -2.5979    1.4370   -9.5979 C   0  0  0  0  0  0  0  0  0  0  0  0
   -4.0261    1.0090   -9.9272 C   0  0  0  0  0  0  0  0  0  0  0  0
   -8.5010    4.5517  -13.0333 N   0  0  0  0  0  0  0  0  0  0  0  0
   -9.3614    4.6020  -13.5092 H   0  0  0  0  0  0  0  0  0  0  0  0
   -8.4353    4.5839  -11.6226 C   0  0  0  0  0  0  0  0  0  0  0  0
   -8.1598    5.7929  -10.9509 C   0  0  0  0  0  0  0  0  0  0  0  0
   -8.0564    5.8472   -9.5569 C   0  0  0  0  0  0  0  0  0  0  0  0
   -8.2548    4.6811   -8.8420 C   0  0  0  0  0  0  0  0  0  0  0  0
   -8.5253    3.4868   -9.4916 C   0  0  0  0  0  0  0  0  0  0  0  0
   -8.5927    3.4165  -10.8738 C   0  0  0  0  0  0  0  0  0  0  0  0
   -8.7685    2.4123   -8.4897 C   0  0  0  0  0  0  0  0  0  0  0  0
   -8.4957    3.0182   -7.1576 N   0  0  0  0  0  0  0  0  0  0  0  0
   -8.3003    4.4662   -7.3695 C   0  0  0  0  0  0  0  0  0  0  0  0
   -7.6546    2.6075   -6.7523 H   0  0  0  0  0  0  0  0  0  0  0  0
 21 22  1  0  0  0
 22 23  1  0  0  0
  4 22  1  0  0  0
  4  5  1  0  0  0
  5  6  1  0  0  0
  6  7  1  0  0  0
  7  8  1  0  0  0
  8  9  1  0  0  0
  9 10  2  0  0  0
 10 11  1  0  0  0
 11 12  2  0  0  0
 12 13  1  0  0  0
 12 14  1  0  0  0
 14 15  2  0  0  0
 15  1  1  0  0  0
  1  2  1  0  0  0
  1 35  1  0  0  0
 35 37  1  0  0  0
 37 38  2  0  0  0
 38 39  1  0  0  0
 39 40  2  0  0  0
 40 41  1  0  0  0
 41 42  2  0  0  0
 41 43  1  0  0  0
 43 44  1  0  0  0
 44 45  1  0  0  0
  1 24  1  0  0  0
 24 25  2  0  0  0
 24 26  1  0  0  0
 26 28  1  0  0  0
 28 29  1  0  0  0
 29 30  1  0  0  0
 30 31  1  0  0  0
 31 32  1  0  0  0
 32 33  1  0  0  0
 33 34  1  0  0  0
 10 16  1  0  0  0
  7 17  1  0  0  0
 17  4  1  0  0  0
 16  7  1  0  0  0
 15  9  1  0  0  0
 42 37  1  0  0  0
 34 29  1  0  0  0
 45 40  1  0  0  0
  5 18  1  0  0  0
  6 19  1  0  0  0
  2  3  1  0  0  0
 35 36  1  0  0  0
 44 46  1  0  0  0
 26 27  1  0  0  0
 16 20  1  0  0  0
M  END
> <minimizedAffinity>
-8.45050

> <minimizedRMSD>
1.06235

$$$$
P19691


 39 43  0  0  0  0  0  0  0  0999 V2000
   -7.7810    3.9640  -13.5657 C   0  0  0  0  0  0  0  0  0  0  0  0
   -7.6625    4.5226  -14.9805 C   0  0  0  0  0  0  0  0  0  0  0  0
   -8.6172    4.0724  -15.9441 C   0  0  0  0  0  0  0  0  0  0  0  0
   -8.6634    4.4386  -17.3134 C   0  0  0  0  0  0  0  0  0  0  0  0
   -9.8865    3.7494  -18.3111 Cl  0  0  0  0  0  0  0  0  0  0  0  0
   -7.7813    5.3532  -17.8797 C   0  0  0  0  0  0  0  0  0  0  0  0
   -6.8423    5.8791  -16.9939 C   0  0  0  0  0  0  0  0  0  0  0  0
   -5.9136    6.8191  -17.2450 N   0  0  0  0  0  0  0  0  0  0  0  0
   -5.2277    6.8893  -16.1059 N   0  0  0  0  0  0  0  0  0  0  0  0
   -4.1363    7.7127  -15.9592 F   0  0  0  0  0  0  0  0  0  0  0  0
   -5.6821    6.0847  -15.1156 C   0  0  0  0  0  0  0  0  0  0  0  0
   -5.0833    5.9444  -13.9384 F   0  0  0  0  0  0  0  0  0  0  0  0
   -6.7853    5.4409  -15.6013 C   0  0  0  0  0  0  0  0  0  0  0  0
   -7.2140    1.6450  -13.3830 O   0  0  0  0  0  0  0  0  0  0  0  0
   -6.8347    2.7455  -13.3097 C   0  0  0  0  0  0  0  0  0  0  0  0
   -5.4210    3.2999  -13.0281 N   0  0  0  0  0  0  0  0  0  0  0  0
   -5.3415    4.2790  -13.0941 H   0  0  0  0  0  0  0  0  0  0  0  0
   -4.1884    2.6109  -12.6813 C   0  0  0  0  0  0  0  0  0  0  0  0
   -3.7393    2.9822  -11.2470 C   0  0  0  0  0  0  0  0  0  0  0  0
   -4.8942    2.8294  -10.2431 C   0  0  0  0  0  0  0  0  0  0  0  0
   -5.2967    1.3690  -10.1150 C   0  0  0  0  0  0  0  0  0  0  0  0
   -4.1850    0.6061   -9.6495 O   0  0  0  0  0  0  0  0  0  0  0  0
   -3.0381    0.6761  -10.4969 C   0  0  0  0  0  0  0  0  0  0  0  0
   -2.5870    2.1144  -10.7288 C   0  0  0  0  0  0  0  0  0  0  0  0
   -3.1160    2.8064  -13.7537 C   0  0  0  0  0  0  0  0  0  0  0  0
   -2.2868    3.8282  -13.4225 F   0  0  0  0  0  0  0  0  0  0  0  0
   -2.3346    1.7021  -13.8815 F   0  0  0  0  0  0  0  0  0  0  0  0
   -7.6265    5.0374  -12.5731 N   0  0  0  0  0  0  0  0  0  0  0  0
   -7.2483    5.9059  -12.8412 H   0  0  0  0  0  0  0  0  0  0  0  0
   -8.0206    4.8216  -11.2362 C   0  0  0  0  0  0  0  0  0  0  0  0
   -7.7172    5.8498  -10.3146 C   0  0  0  0  0  0  0  0  0  0  0  0
   -7.8877    5.6875   -8.9356 C   0  0  0  0  0  0  0  0  0  0  0  0
   -8.3461    4.4707   -8.4759 C   0  0  0  0  0  0  0  0  0  0  0  0
   -8.6809    3.4544   -9.3596 C   0  0  0  0  0  0  0  0  0  0  0  0
   -8.5330    3.6125  -10.7329 C   0  0  0  0  0  0  0  0  0  0  0  0
   -9.1648    2.2715   -8.5858 C   0  0  0  0  0  0  0  0  0  0  0  0
   -8.8049    2.5493   -7.1675 N   0  0  0  0  0  0  0  0  0  0  0  0
   -8.5639    4.0065   -7.0776 C   0  0  0  0  0  0  0  0  0  0  0  0
   -7.9623    2.0355   -6.9098 H   0  0  0  0  0  0  0  0  0  0  0  0
 14 15  2  0  0  0
 15 16  1  0  0  0
 18 16  1  0  0  0
 18 25  1  0  0  0
 25 26  1  0  0  0
 25 27  1  0  0  0
 18 19  1  0  0  0
 19 20  1  0  0  0
 20 21  1  0  0  0
 21 22  1  0  0  0
 22 23  1  0  0  0
 23 24  1  0  0  0
 15  1  1  0  0  0
  1 28  1  0  0  0
 28 30  1  0  0  0
 30 31  2  0  0  0
 31 32  1  0  0  0
 32 33  2  0  0  0
 33 34  1  0  0  0
 34 35  2  0  0  0
 34 36  1  0  0  0
 36 37  1  0  0  0
 37 38  1  0  0  0
  1  2  1  0  0  0
  2  3  2  0  0  0
  3  4  1  0  0  0
  4  5  1  0  0  0
  4  6  2  0  0  0
  6  7  1  0  0  0
  7  8  2  0  0  0
  8  9  1  0  0  0
  9 10  1  0  0  0
  9 11  1  0  0  0
 11 12  1  0  0  0
 11 13  2  0  0  0
 24 19  1  0  0  0
 35 30  1  0  0  0
 13  2  1  0  0  0
 38 33  1  0  0  0
 13  7  1  0  0  0
 16 17  1  0  0  0
 28 29  1  0  0  0
 37 39  1  0  0  0
M  END
> <minimizedAffinity>
-8.30365

> <minimizedRMSD>
0.33968

$$$$
P19692


 40 44  0  0  0  0  0  0  0  0999 V2000
   -7.1493    4.2696  -13.5462 C   0  0  0  0  0  0  0  0  0  0  0  0
   -6.4032    5.3673  -13.0226 O   0  0  0  0  0  0  0  0  0  0  0  0
   -6.8753    6.1950  -13.2041 H   0  0  0  0  0  0  0  0  0  0  0  0
   -4.9912    5.1126  -17.7114 N   0  0  0  0  0  0  0  0  0  0  0  0
   -4.1357    5.5019  -16.7307 N   0  0  0  0  0  0  0  0  0  0  0  0
   -4.8393    5.2928  -15.6195 C   0  0  0  0  0  0  0  0  0  0  0  0
   -6.1742    4.8875  -15.8675 C   0  0  0  0  0  0  0  0  0  0  0  0
   -7.2802    4.5096  -15.0576 C   0  0  0  0  0  0  0  0  0  0  0  0
   -8.4946    4.2819  -15.7550 C   0  0  0  0  0  0  0  0  0  0  0  0
   -8.5888    4.3661  -17.1467 C   0  0  0  0  0  0  0  0  0  0  0  0
  -10.1005    4.0657  -17.9197 Cl  0  0  0  0  0  0  0  0  0  0  0  0
   -7.4751    4.6498  -17.9321 C   0  0  0  0  0  0  0  0  0  0  0  0
   -6.2746    4.8993  -17.2597 C   0  0  0  0  0  0  0  0  0  0  0  0
   -3.0411    4.5871  -18.9756 N   0  0  0  0  0  0  0  0  0  0  0  0
   -4.4759    4.9091  -19.0687 C   0  0  0  0  0  0  0  0  0  0  0  0
   -2.6638    4.4417  -19.9121 H   0  0  0  0  0  0  0  0  0  0  0  0
   -2.9183    3.7379  -18.4240 H   0  0  0  0  0  0  0  0  0  0  0  0
   -6.4165    2.8499  -13.2778 C   0  0  0  0  0  0  0  0  0  0  0  0
   -6.8688    1.8202  -13.6050 O   0  0  0  0  0  0  0  0  0  0  0  0
   -5.1339    3.1728  -12.4522 N   0  0  0  0  0  0  0  0  0  0  0  0
   -4.9242    4.1315  -12.3742 H   0  0  0  0  0  0  0  0  0  0  0  0
   -4.2089    2.2988  -11.7873 C   0  0  0  0  0  0  0  0  0  0  0  0
   -2.9386    2.0092  -12.5895 C   0  0  0  0  0  0  0  0  0  0  0  0
   -2.0697    3.2561  -12.7896 C   0  0  0  0  0  0  0  0  0  0  0  0
   -0.6997    2.9340  -13.3877 C   0  0  0  0  0  0  0  0  0  0  0  0
   -0.4663    1.5286  -13.5010 O   0  0  0  0  0  0  0  0  0  0  0  0
   -0.6663    0.8868  -12.2442 C   0  0  0  0  0  0  0  0  0  0  0  0
   -2.1379    0.9160  -11.8579 C   0  0  0  0  0  0  0  0  0  0  0  0
   -8.4809    4.2459  -12.8851 N   0  0  0  0  0  0  0  0  0  0  0  0
   -9.3208    4.2165  -13.3980 H   0  0  0  0  0  0  0  0  0  0  0  0
   -8.4618    4.2685  -11.4636 C   0  0  0  0  0  0  0  0  0  0  0  0
   -8.1385    5.4666  -10.7859 C   0  0  0  0  0  0  0  0  0  0  0  0
   -8.0416    5.5144   -9.3924 C   0  0  0  0  0  0  0  0  0  0  0  0
   -8.3042    4.3565   -8.6864 C   0  0  0  0  0  0  0  0  0  0  0  0
   -8.6238    3.1703   -9.3396 C   0  0  0  0  0  0  0  0  0  0  0  0
   -8.6901    3.1028  -10.7209 C   0  0  0  0  0  0  0  0  0  0  0  0
   -8.8442    2.0949   -8.3267 C   0  0  0  0  0  0  0  0  0  0  0  0
   -9.0008    2.8161   -7.0324 N   0  0  0  0  0  0  0  0  0  0  0  0
   -8.3214    4.1184   -7.2146 C   0  0  0  0  0  0  0  0  0  0  0  0
   -8.5630    2.2893   -6.2765 H   0  0  0  0  0  0  0  0  0  0  0  0
 14 15  1  0  0  0
 15  4  1  0  0  0
  4  5  1  0  0  0
  5  6  2  0  0  0
  6  7  1  0  0  0
  7  8  2  0  0  0
  8  1  1  0  0  0
  1  2  1  0  0  0
  1 29  1  0  0  0
 29 31  1  0  0  0
 31 32  2  0  0  0
 32 33  1  0  0  0
 33 34  2  0  0  0
 34 35  1  0  0  0
 35 36  2  0  0  0
 35 37  1  0  0  0
 37 38  1  0  0  0
 38 39  1  0  0  0
  1 18  1  0  0  0
 18 19  2  0  0  0
 18 20  1  0  0  0
 20 22  1  0  0  0
 22 23  1  0  0  0
 23 24  1  0  0  0
 24 25  1  0  0  0
 25 26  1  0  0  0
 26 27  1  0  0  0
 27 28  1  0  0  0
  8  9  1  0  0  0
  9 10  2  0  0  0
 10 11  1  0  0  0
 10 12  1  0  0  0
 12 13  2  0  0  0
 13  4  1  0  0  0
 13  7  1  0  0  0
 36 31  1  0  0  0
 28 23  1  0  0  0
 39 34  1  0  0  0
 14 16  1  0  0  0
 14 17  1  0  0  0
  2  3  1  0  0  0
 29 30  1  0  0  0
 38 40  1  0  0  0
 20 21  1  0  0  0
M  END
> <minimizedAffinity>
-8.95300

> <minimizedRMSD>
0.39277

$$$$
P19693


 38 43  0  0  0  0  0  0  0  0999 V2000
   -6.9058    4.1575  -13.3718 C   0  0  0  0  0  0  0  0  0  0  0  0
   -6.1670    5.1851  -12.7066 O   0  0  0  0  0  0  0  0  0  0  0  0
   -6.1696    5.0183  -11.7511 H   0  0  0  0  0  0  0  0  0  0  0  0
   -6.8486    4.4976  -14.8511 C   0  0  0  0  0  0  0  0  0  0  0  0
   -7.9570    4.4133  -15.7421 C   0  0  0  0  0  0  0  0  0  0  0  0
   -7.8393    4.5701  -17.1648 C   0  0  0  0  0  0  0  0  0  0  0  0
   -9.2267    4.4339  -18.1692 Cl  0  0  0  0  0  0  0  0  0  0  0  0
   -6.5600    4.7849  -17.6946 C   0  0  0  0  0  0  0  0  0  0  0  0
   -5.8210    4.9248  -19.2491 S   0  0  0  0  0  0  0  0  0  0  0  0
   -4.2034    5.1357  -18.6197 C   0  0  0  0  0  0  0  0  0  0  0  0
   -4.2595    5.0832  -17.2656 C   0  0  0  0  0  0  0  0  0  0  0  0
   -5.5399    4.9003  -16.7998 C   0  0  0  0  0  0  0  0  0  0  0  0
   -5.6373    4.7844  -15.4464 C   0  0  0  0  0  0  0  0  0  0  0  0
   -4.1956    4.9595  -15.1163 C   0  0  0  0  0  0  0  0  0  0  0  0
   -3.3826    5.1290  -16.1537 N   0  0  0  0  0  0  0  0  0  0  0  0
   -6.7381    1.6872  -13.5459 O   0  0  0  0  0  0  0  0  0  0  0  0
   -6.2565    2.6848  -13.1658 C   0  0  0  0  0  0  0  0  0  0  0  0
   -4.9319    2.9317  -12.3738 N   0  0  0  0  0  0  0  0  0  0  0  0
   -4.7042    3.8796  -12.2361 H   0  0  0  0  0  0  0  0  0  0  0  0
   -3.9930    1.9997  -11.8142 C   0  0  0  0  0  0  0  0  0  0  0  0
   -2.7236    1.8598  -12.6666 C   0  0  0  0  0  0  0  0  0  0  0  0
   -1.9918    3.1950  -12.9070 C   0  0  0  0  0  0  0  0  0  0  0  0
   -0.8938    3.4094  -11.8753 C   0  0  0  0  0  0  0  0  0  0  0  0
    0.1209    2.4088  -11.9402 O   0  0  0  0  0  0  0  0  0  0  0  0
   -0.3322    1.1134  -12.3360 C   0  0  0  0  0  0  0  0  0  0  0  0
   -1.7848    0.8510  -11.9763 C   0  0  0  0  0  0  0  0  0  0  0  0
   -8.2804    4.2709  -12.8571 N   0  0  0  0  0  0  0  0  0  0  0  0
   -9.0587    4.3488  -13.4550 H   0  0  0  0  0  0  0  0  0  0  0  0
   -8.4115    4.2608  -11.4481 C   0  0  0  0  0  0  0  0  0  0  0  0
   -8.1039    5.4286  -10.7081 C   0  0  0  0  0  0  0  0  0  0  0  0
   -8.1221    5.4348   -9.3110 C   0  0  0  0  0  0  0  0  0  0  0  0
   -8.4796    4.2688   -8.6640 C   0  0  0  0  0  0  0  0  0  0  0  0
   -8.7875    3.1143   -9.3767 C   0  0  0  0  0  0  0  0  0  0  0  0
   -8.7473    3.0883  -10.7617 C   0  0  0  0  0  0  0  0  0  0  0  0
   -9.1246    2.0215   -8.4150 C   0  0  0  0  0  0  0  0  0  0  0  0
   -9.3542    2.7118   -7.1146 N   0  0  0  0  0  0  0  0  0  0  0  0
   -8.6231    3.9938   -7.2054 C   0  0  0  0  0  0  0  0  0  0  0  0
   -8.9912    2.1495   -6.3449 H   0  0  0  0  0  0  0  0  0  0  0  0
 16 17  2  0  0  0
 17 18  1  0  0  0
 18 20  1  0  0  0
 20 21  1  0  0  0
 21 22  1  0  0  0
 22 23  1  0  0  0
 23 24  1  0  0  0
 24 25  1  0  0  0
 25 26  1  0  0  0
 17  1  1  0  0  0
  1  2  1  0  0  0
  1 27  1  0  0  0
 27 29  1  0  0  0
 29 30  2  0  0  0
 30 31  1  0  0  0
 31 32  2  0  0  0
 32 33  1  0  0  0
 33 34  2  0  0  0
 33 35  1  0  0  0
 35 36  1  0  0  0
 36 37  1  0  0  0
  1  4  1  0  0  0
  4  5  2  0  0  0
  5  6  1  0  0  0
  6  7  1  0  0  0
  6  8  2  0  0  0
  8  9  1  0  0  0
  9 10  1  0  0  0
 10 11  2  0  0  0
 11 12  1  0  0  0
 12 13  2  0  0  0
 13 14  1  0  0  0
 14 15  2  0  0  0
 26 21  1  0  0  0
 34 29  1  0  0  0
 13  4  1  0  0  0
 37 32  1  0  0  0
 12  8  1  0  0  0
 15 11  1  0  0  0
 18 19  1  0  0  0
  2  3  1  0  0  0
 27 28  1  0  0  0
 36 38  1  0  0  0
M  END
> <minimizedAffinity>
-8.66484

> <minimizedRMSD>
0.41940

$$$$
P19694


 41 46  0  0  0  0  0  0  0  0999 V2000
   -7.5661    3.8825  -12.6118 C   0  0  0  0  0  0  0  0  0  0  0  0
   -8.9571    3.6756  -12.5301 O   0  0  0  0  0  0  0  0  0  0  0  0
   -9.4142    4.5300  -12.5733 H   0  0  0  0  0  0  0  0  0  0  0  0
   -6.6877    4.8115  -18.1879 C   0  0  0  0  0  0  0  0  0  0  0  0
   -7.8624    4.3341  -18.7349 C   0  0  0  0  0  0  0  0  0  0  0  0
   -9.1711    4.3027  -17.6299 S   0  0  0  0  0  0  0  0  0  0  0  0
   -8.0954    4.5949  -16.3282 C   0  0  0  0  0  0  0  0  0  0  0  0
   -8.3419    4.4259  -14.9592 C   0  0  0  0  0  0  0  0  0  0  0  0
   -7.3313    4.5368  -13.9652 C   0  0  0  0  0  0  0  0  0  0  0  0
   -6.1857    5.1168  -14.5179 C   0  0  0  0  0  0  0  0  0  0  0  0
   -5.0371    5.5089  -13.8742 C   0  0  0  0  0  0  0  0  0  0  0  0
   -4.1933    5.9918  -14.8500 N   0  0  0  0  0  0  0  0  0  0  0  0
   -4.7053    5.9140  -16.0953 N   0  0  0  0  0  0  0  0  0  0  0  0
   -5.8959    5.3894  -15.8658 C   0  0  0  0  0  0  0  0  0  0  0  0
   -6.8703    4.9858  -16.8188 C   0  0  0  0  0  0  0  0  0  0  0  0
   -3.3005    6.3591  -14.6566 H   0  0  0  0  0  0  0  0  0  0  0  0
   -4.4711    5.0866  -19.5080 N   0  0  0  0  0  0  0  0  0  0  0  0
   -5.4633    4.9901  -18.9104 C   0  0  0  0  0  0  0  0  0  0  0  0
   -6.6597    2.5235  -12.5515 C   0  0  0  0  0  0  0  0  0  0  0  0
   -7.0564    1.4948  -12.9462 O   0  0  0  0  0  0  0  0  0  0  0  0
   -5.3123    2.8872  -11.8635 N   0  0  0  0  0  0  0  0  0  0  0  0
   -5.1831    3.8479  -11.6918 H   0  0  0  0  0  0  0  0  0  0  0  0
   -4.2230    2.0461  -11.4369 C   0  0  0  0  0  0  0  0  0  0  0  0
   -3.2109    1.7232  -12.5513 C   0  0  0  0  0  0  0  0  0  0  0  0
   -2.6077    2.9734  -13.1931 C   0  0  0  0  0  0  0  0  0  0  0  0
   -1.7901    3.7933  -12.1971 C   0  0  0  0  0  0  0  0  0  0  0  0
   -1.2809    3.0203  -11.1115 O   0  0  0  0  0  0  0  0  0  0  0  0
   -0.8741    1.7131  -11.4980 C   0  0  0  0  0  0  0  0  0  0  0  0
   -2.0581    0.8746  -11.9828 C   0  0  0  0  0  0  0  0  0  0  0  0
   -7.2491    4.8048  -11.5261 N   0  0  0  0  0  0  0  0  0  0  0  0
   -6.6838    5.5951  -11.6844 H   0  0  0  0  0  0  0  0  0  0  0  0
   -7.7748    4.5348  -10.2392 C   0  0  0  0  0  0  0  0  0  0  0  0
   -7.7002    5.5763   -9.2914 C   0  0  0  0  0  0  0  0  0  0  0  0
   -8.0945    5.3893   -7.9636 C   0  0  0  0  0  0  0  0  0  0  0  0
   -8.5464    4.1404   -7.5874 C   0  0  0  0  0  0  0  0  0  0  0  0
   -8.6353    3.1060   -8.5049 C   0  0  0  0  0  0  0  0  0  0  0  0
   -8.2521    3.2815   -9.8197 C   0  0  0  0  0  0  0  0  0  0  0  0
   -9.1875    1.8895   -7.8443 C   0  0  0  0  0  0  0  0  0  0  0  0
   -9.1171    2.1791   -6.3861 N   0  0  0  0  0  0  0  0  0  0  0  0
   -9.0181    3.6525   -6.2631 C   0  0  0  0  0  0  0  0  0  0  0  0
   -8.2961    1.7339   -5.9762 H   0  0  0  0  0  0  0  0  0  0  0  0
 17 18  3  0  0  0
 18  4  1  0  0  0
  4  5  2  0  0  0
  5  6  1  0  0  0
  6  7  1  0  0  0
  7  8  1  0  0  0
  8  9  2  0  0  0
  9  1  1  0  0  0
  1  2  1  0  0  0
  1 30  1  0  0  0
 30 32  1  0  0  0
 32 33  2  0  0  0
 33 34  1  0  0  0
 34 35  2  0  0  0
 35 36  1  0  0  0
 36 37  2  0  0  0
 36 38  1  0  0  0
 38 39  1  0  0  0
 39 40  1  0  0  0
  1 19  1  0  0  0
 19 20  2  0  0  0
 19 21  1  0  0  0
 21 23  1  0  0  0
 23 24  1  0  0  0
 24 25  1  0  0  0
 25 26  1  0  0  0
 26 27  1  0  0  0
 27 28  1  0  0  0
 28 29  1  0  0  0
  9 10  1  0  0  0
 10 11  2  0  0  0
 11 12  1  0  0  0
 12 13  1  0  0  0
 13 14  2  0  0  0
 14 15  1  0  0  0
 15  4  1  0  0  0
 15  7  2  0  0  0
 37 32  1  0  0  0
 29 24  1  0  0  0
 14 10  1  0  0  0
 40 35  1  0  0  0
  2  3  1  0  0  0
 30 31  1  0  0  0
 39 41  1  0  0  0
 21 22  1  0  0  0
 12 16  1  0  0  0
M  END
> <minimizedAffinity>
-8.53796

> <minimizedRMSD>
0.70789

$$$$
P19696


 38 43  0  0  0  0  0  0  0  0999 V2000
   -7.5905    3.7521  -13.4261 C   0  0  0  0  0  0  0  0  0  0  0  0
   -7.3238    4.2150  -14.8555 C   0  0  0  0  0  0  0  0  0  0  0  0
   -8.4474    4.3204  -15.7754 C   0  0  0  0  0  0  0  0  0  0  0  0
   -8.3449    4.6350  -17.1526 C   0  0  0  0  0  0  0  0  0  0  0  0
   -9.7477    4.7598  -18.1222 Cl  0  0  0  0  0  0  0  0  0  0  0  0
   -7.0939    4.8651  -17.6429 C   0  0  0  0  0  0  0  0  0  0  0  0
   -6.4220    5.2208  -18.8235 N   0  0  0  0  0  0  0  0  0  0  0  0
   -5.0229    5.4026  -18.5920 C   0  0  0  0  0  0  0  0  0  0  0  0
   -4.1168    5.7923  -19.3023 O   0  0  0  0  0  0  0  0  0  0  0  0
   -4.8936    5.0839  -17.2261 N   0  0  0  0  0  0  0  0  0  0  0  0
   -3.9453    5.0598  -16.2728 N   0  0  0  0  0  0  0  0  0  0  0  0
   -4.6671    4.6818  -15.1750 C   0  0  0  0  0  0  0  0  0  0  0  0
   -6.0684    4.5250  -15.4201 C   0  0  0  0  0  0  0  0  0  0  0  0
   -6.0999    4.7994  -16.7360 C   0  0  0  0  0  0  0  0  0  0  0  0
   -6.8586    5.3309  -19.6990 H   0  0  0  0  0  0  0  0  0  0  0  0
   -6.8547    1.4677  -13.3547 O   0  0  0  0  0  0  0  0  0  0  0  0
   -6.6330    2.5676  -13.0347 C   0  0  0  0  0  0  0  0  0  0  0  0
   -5.4535    3.1577  -12.2268 N   0  0  0  0  0  0  0  0  0  0  0  0
   -5.4547    4.1394  -12.1528 H   0  0  0  0  0  0  0  0  0  0  0  0
   -4.3554    2.5055  -11.5662 C   0  0  0  0  0  0  0  0  0  0  0  0
   -3.0118    3.1639  -11.8508 C   0  0  0  0  0  0  0  0  0  0  0  0
   -2.3226    2.6195  -13.0987 C   0  0  0  0  0  0  0  0  0  0  0  0
   -1.0271    3.3928  -13.3572 C   0  0  0  0  0  0  0  0  0  0  0  0
   -0.4136    3.8981  -12.1680 O   0  0  0  0  0  0  0  0  0  0  0  0
   -0.5998    3.0420  -11.0463 C   0  0  0  0  0  0  0  0  0  0  0  0
   -2.0711    3.0081  -10.6425 C   0  0  0  0  0  0  0  0  0  0  0  0
   -7.5028    4.9039  -12.5069 N   0  0  0  0  0  0  0  0  0  0  0  0
   -7.1566    5.7688  -12.8252 H   0  0  0  0  0  0  0  0  0  0  0  0
   -7.9199    4.7529  -11.1678 C   0  0  0  0  0  0  0  0  0  0  0  0
   -7.5472    5.7744  -10.2653 C   0  0  0  0  0  0  0  0  0  0  0  0
   -7.7681    5.6631   -8.8881 C   0  0  0  0  0  0  0  0  0  0  0  0
   -8.3620    4.5105   -8.4157 C   0  0  0  0  0  0  0  0  0  0  0  0
   -8.7353    3.4935   -9.2830 C   0  0  0  0  0  0  0  0  0  0  0  0
   -8.5214    3.5950  -10.6486 C   0  0  0  0  0  0  0  0  0  0  0  0
   -9.2901    2.3511   -8.4956 C   0  0  0  0  0  0  0  0  0  0  0  0
   -9.5539    2.9118   -7.1418 N   0  0  0  0  0  0  0  0  0  0  0  0
   -8.6691    4.0922   -7.0182 C   0  0  0  0  0  0  0  0  0  0  0  0
   -9.3317    2.2237   -6.4223 H   0  0  0  0  0  0  0  0  0  0  0  0
 16 17  2  0  0  0
 17 18  1  0  0  0
 18 20  1  0  0  0
 20 21  1  0  0  0
 21 22  1  0  0  0
 22 23  1  0  0  0
 23 24  1  0  0  0
 24 25  1  0  0  0
 25 26  1  0  0  0
 17  1  1  0  0  0
  1 27  1  0  0  0
 27 29  1  0  0  0
 29 30  2  0  0  0
 30 31  1  0  0  0
 31 32  2  0  0  0
 32 33  1  0  0  0
 33 34  2  0  0  0
 33 35  1  0  0  0
 35 36  1  0  0  0
 36 37  1  0  0  0
  1  2  1  0  0  0
  2  3  2  0  0  0
  3  4  1  0  0  0
  4  5  1  0  0  0
  4  6  2  0  0  0
  6  7  1  0  0  0
  7  8  1  0  0  0
  8  9  2  0  0  0
  8 10  1  0  0  0
 10 11  1  0  0  0
 11 12  2  0  0  0
 12 13  1  0  0  0
 13 14  2  0  0  0
 26 21  1  0  0  0
 34 29  1  0  0  0
 13  2  1  0  0  0
 37 32  1  0  0  0
 14  6  1  0  0  0
 14 10  1  0  0  0
 18 19  1  0  0  0
 27 28  1  0  0  0
 36 38  1  0  0  0
  7 15  1  0  0  0
M  END
> <minimizedAffinity>
-8.45622

> <minimizedRMSD>
0.80450

$$$$
P19700


 40 44  0  0  0  0  0  0  0  0999 V2000
   -7.0626    4.2449  -13.5861 C   0  0  0  0  0  0  0  0  0  0  0  0
   -6.2528    5.2855  -13.0278 O   0  0  0  0  0  0  0  0  0  0  0  0
   -6.6698    6.1450  -13.1956 H   0  0  0  0  0  0  0  0  0  0  0  0
   -4.8485    4.9993  -17.8340 N   0  0  0  0  0  0  0  0  0  0  0  0
   -3.9475    5.2366  -16.8430 N   0  0  0  0  0  0  0  0  0  0  0  0
   -4.6481    5.0436  -15.7221 C   0  0  0  0  0  0  0  0  0  0  0  0
   -6.0272    4.7999  -15.9429 C   0  0  0  0  0  0  0  0  0  0  0  0
   -7.1596    4.5011  -15.1148 C   0  0  0  0  0  0  0  0  0  0  0  0
   -8.3934    4.3396  -15.7916 C   0  0  0  0  0  0  0  0  0  0  0  0
   -8.4998    4.4798  -17.1761 C   0  0  0  0  0  0  0  0  0  0  0  0
  -10.0375    4.2987  -17.9296 Cl  0  0  0  0  0  0  0  0  0  0  0  0
   -7.3865    4.7465  -17.9763 C   0  0  0  0  0  0  0  0  0  0  0  0
   -6.1469    4.8790  -17.3371 C   0  0  0  0  0  0  0  0  0  0  0  0
   -4.3588    4.5583  -19.1710 C   0  0  0  0  0  0  0  0  0  0  0  0
   -3.3669    5.2460  -21.2565 C   0  0  0  0  0  0  0  0  0  0  0  0
   -3.6433    5.6327  -19.8761 N   0  0  0  0  0  0  0  0  0  0  0  0
   -4.2170    6.4760  -19.8726 H   0  0  0  0  0  0  0  0  0  0  0  0
   -6.4344    2.7727  -13.3485 C   0  0  0  0  0  0  0  0  0  0  0  0
   -6.9018    1.7809  -13.7569 O   0  0  0  0  0  0  0  0  0  0  0  0
   -5.1708    3.0043  -12.4666 N   0  0  0  0  0  0  0  0  0  0  0  0
   -5.0269    3.9379  -12.1893 H   0  0  0  0  0  0  0  0  0  0  0  0
   -4.1823    2.0770  -11.9928 C   0  0  0  0  0  0  0  0  0  0  0  0
   -3.0380    1.8771  -12.9961 C   0  0  0  0  0  0  0  0  0  0  0  0
   -2.4298    3.2074  -13.4748 C   0  0  0  0  0  0  0  0  0  0  0  0
   -1.1028    3.4927  -12.7877 C   0  0  0  0  0  0  0  0  0  0  0  0
   -0.1274    2.4812  -13.0313 O   0  0  0  0  0  0  0  0  0  0  0  0
   -0.6342    1.1458  -13.0716 C   0  0  0  0  0  0  0  0  0  0  0  0
   -1.9659    0.9753  -12.3623 C   0  0  0  0  0  0  0  0  0  0  0  0
   -8.3846    4.3883  -12.9294 N   0  0  0  0  0  0  0  0  0  0  0  0
   -9.2167    4.4782  -13.4479 H   0  0  0  0  0  0  0  0  0  0  0  0
   -8.3807    4.3885  -11.5107 C   0  0  0  0  0  0  0  0  0  0  0  0
   -8.1249    5.5848  -10.8037 C   0  0  0  0  0  0  0  0  0  0  0  0
   -8.0965    5.6197   -9.4045 C   0  0  0  0  0  0  0  0  0  0  0  0
   -8.3317    4.4447   -8.7185 C   0  0  0  0  0  0  0  0  0  0  0  0
   -8.5617    3.2521   -9.3974 C   0  0  0  0  0  0  0  0  0  0  0  0
   -8.5750    3.2021  -10.7870 C   0  0  0  0  0  0  0  0  0  0  0  0
   -8.7543    2.1589   -8.3945 C   0  0  0  0  0  0  0  0  0  0  0  0
   -9.0008    2.8579   -7.1016 N   0  0  0  0  0  0  0  0  0  0  0  0
   -8.3794    4.1890   -7.2491 C   0  0  0  0  0  0  0  0  0  0  0  0
   -8.5694    2.3464   -6.3317 H   0  0  0  0  0  0  0  0  0  0  0  0
 15 16  1  0  0  0
 16 14  1  0  0  0
 14  4  1  0  0  0
  4  5  1  0  0  0
  5  6  2  0  0  0
  6  7  1  0  0  0
  7  8  2  0  0  0
  8  1  1  0  0  0
  1  2  1  0  0  0
  1 29  1  0  0  0
 29 31  1  0  0  0
 31 32  2  0  0  0
 32 33  1  0  0  0
 33 34  2  0  0  0
 34 35  1  0  0  0
 35 36  2  0  0  0
 35 37  1  0  0  0
 37 38  1  0  0  0
 38 39  1  0  0  0
  1 18  1  0  0  0
 18 19  2  0  0  0
 18 20  1  0  0  0
 20 22  1  0  0  0
 22 23  1  0  0  0
 23 24  1  0  0  0
 24 25  1  0  0  0
 25 26  1  0  0  0
 26 27  1  0  0  0
 27 28  1  0  0  0
  8  9  1  0  0  0
  9 10  2  0  0  0
 10 11  1  0  0  0
 10 12  1  0  0  0
 12 13  2  0  0  0
 13  4  1  0  0  0
 13  7  1  0  0  0
 36 31  1  0  0  0
 28 23  1  0  0  0
 39 34  1  0  0  0
 16 17  1  0  0  0
  2  3  1  0  0  0
 29 30  1  0  0  0
 38 40  1  0  0  0
 20 21  1  0  0  0
M  END
> <minimizedAffinity>
-8.40778

> <minimizedRMSD>
0.53831

$$$$
P19705


 45 50  0  0  0  0  0  0  0  0999 V2000
   -6.8735    4.5432  -13.5341 C   0  0  0  0  0  0  0  0  0  0  0  0
   -5.8177    5.4252  -13.2033 O   0  0  0  0  0  0  0  0  0  0  0  0
   -6.1353    6.3407  -13.2473 H   0  0  0  0  0  0  0  0  0  0  0  0
   -5.8723    6.8366  -17.6407 N   0  0  0  0  0  0  0  0  0  0  0  0
   -5.1050    7.3961  -16.6808 N   0  0  0  0  0  0  0  0  0  0  0  0
   -5.4560    6.7302  -15.5818 C   0  0  0  0  0  0  0  0  0  0  0  0
   -6.5140    5.8067  -15.7908 C   0  0  0  0  0  0  0  0  0  0  0  0
   -7.2455    4.8821  -14.9869 C   0  0  0  0  0  0  0  0  0  0  0  0
   -8.3129    4.2014  -15.6274 C   0  0  0  0  0  0  0  0  0  0  0  0
   -8.5891    4.3807  -16.9822 C   0  0  0  0  0  0  0  0  0  0  0  0
   -9.9025    3.5721  -17.7409 Cl  0  0  0  0  0  0  0  0  0  0  0  0
   -7.8108    5.2178  -17.7725 C   0  0  0  0  0  0  0  0  0  0  0  0
   -6.7915    5.9363  -17.1496 C   0  0  0  0  0  0  0  0  0  0  0  0
   -5.7188    7.2763  -19.0275 C   0  0  0  0  0  0  0  0  0  0  0  0
   -4.4709    6.8897  -21.0314 C   0  0  0  0  0  0  0  0  0  0  0  0
   -4.7529    6.3971  -19.6913 N   0  0  0  0  0  0  0  0  0  0  0  0
   -3.8884    6.3755  -19.1504 H   0  0  0  0  0  0  0  0  0  0  0  0
   -6.4135    3.0023  -13.4805 C   0  0  0  0  0  0  0  0  0  0  0  0
   -7.1389    2.0920  -13.3571 O   0  0  0  0  0  0  0  0  0  0  0  0
   -4.8555    3.0472  -13.5858 N   0  0  0  0  0  0  0  0  0  0  0  0
   -4.4796    3.9396  -13.7635 H   0  0  0  0  0  0  0  0  0  0  0  0
   -3.8847    1.9996  -13.4657 C   0  0  0  0  0  0  0  0  0  0  0  0
   -3.1582    2.0465  -12.1223 C   0  0  0  0  0  0  0  0  0  0  0  0
   -2.0241    1.0203  -12.0710 C   0  0  0  0  0  0  0  0  0  0  0  0
   -1.2649    1.1035  -10.7456 C   0  0  0  0  0  0  0  0  0  0  0  0
   -2.0264    1.7108   -9.7005 O   0  0  0  0  0  0  0  0  0  0  0  0
   -3.3830    1.2698   -9.7156 C   0  0  0  0  0  0  0  0  0  0  0  0
   -4.1090    1.8214  -10.9355 C   0  0  0  0  0  0  0  0  0  0  0  0
   -7.9725    4.8247  -12.5981 N   0  0  0  0  0  0  0  0  0  0  0  0
   -8.7726    4.2511  -12.8650 H   0  0  0  0  0  0  0  0  0  0  0  0
   -7.6563    4.5451  -11.1657 C   0  0  0  0  0  0  0  0  0  0  0  0
   -8.6152    3.4326  -10.6636 C   0  0  0  0  0  0  0  0  0  0  0  0
   -8.6566    3.3266   -9.1824 C   0  0  0  0  0  0  0  0  0  0  0  0
   -8.1310    4.2073   -8.3364 C   0  0  0  0  0  0  0  0  0  0  0  0
   -8.3688    3.7983   -6.9327 C   0  0  0  0  0  0  0  0  0  0  0  0
   -8.9481    2.4455   -7.0109 N   0  0  0  0  0  0  0  0  0  0  0  0
   -9.2749    2.2018   -8.4384 C   0  0  0  0  0  0  0  0  0  0  0  0
   -7.3828    5.4185   -8.7339 C   0  0  0  0  0  0  0  0  0  0  0  0
   -7.6018    5.8060  -10.2220 C   0  0  0  0  0  0  0  0  0  0  0  0
   -8.7699    6.8025  -10.3571 C   0  0  0  0  0  0  0  0  0  0  0  0
   -8.1792    8.1819  -10.0779 C   0  0  0  0  0  0  0  0  0  0  0  0
   -6.8109    8.1496  -10.7319 C   0  0  0  0  0  0  0  0  0  0  0  0
   -6.4235    6.7050  -10.5707 C   0  0  0  0  0  0  0  0  0  0  0  0
   -5.2767    6.2951  -10.7315 O   0  0  0  0  0  0  0  0  0  0  0  0
   -9.7936    2.3921   -6.4429 H   0  0  0  0  0  0  0  0  0  0  0  0
 15 16  1  0  0  0
 16 14  1  0  0  0
 14  4  1  0  0  0
  4  5  1  0  0  0
  5  6  2  0  0  0
  6  7  1  0  0  0
  7  8  2  0  0  0
  8  1  1  0  0  0
  1  2  1  0  0  0
  1 29  1  0  0  0
 31 29  1  0  0  0
 31 32  1  0  0  0
 32 33  1  0  0  0
 33 34  2  0  0  0
 34 35  1  0  0  0
 35 36  1  0  0  0
 36 37  1  0  0  0
 34 38  1  0  0  0
 39 38  1  0  0  0
 39 40  1  0  0  0
 40 41  1  0  0  0
 41 42  1  0  0  0
 42 43  1  0  0  0
 43 44  2  0  0  0
  1 18  1  0  0  0
 18 19  2  0  0  0
 18 20  1  0  0  0
 20 22  1  0  0  0
 22 23  1  0  0  0
 23 24  1  0  0  0
 24 25  1  0  0  0
 25 26  1  0  0  0
 26 27  1  0  0  0
 27 28  1  0  0  0
  8  9  1  0  0  0
  9 10  2  0  0  0
 10 11  1  0  0  0
 10 12  1  0  0  0
 12 13  2  0  0  0
 13  4  1  0  0  0
 13  7  1  0  0  0
 39 31  1  0  0  0
 28 23  1  0  0  0
 37 33  1  0  0  0
 43 39  1  0  0  0
 16 17  1  0  0  0
  2  3  1  0  0  0
 29 30  1  0  0  0
 36 45  1  0  0  0
 20 21  1  0  0  0
M  END
> <minimizedAffinity>
-8.06713

> <minimizedRMSD>
0.31640

$$$$
P19709


 37 41  0  0  0  0  0  0  0  0999 V2000
   -7.1613    4.1994  -13.5846 C   0  0  0  0  0  0  0  0  0  0  0  0
   -6.4033    5.3168  -13.1204 O   0  0  0  0  0  0  0  0  0  0  0  0
   -6.8784    6.1373  -13.3252 H   0  0  0  0  0  0  0  0  0  0  0  0
   -2.9201    5.5018  -16.9301 C   0  0  0  0  0  0  0  0  0  0  0  0
   -4.3183    5.1734  -16.8101 N   0  0  0  0  0  0  0  0  0  0  0  0
   -4.9544    4.8832  -15.6466 C   0  0  0  0  0  0  0  0  0  0  0  0
   -6.2654    4.6940  -15.9840 C   0  0  0  0  0  0  0  0  0  0  0  0
   -7.3023    4.3956  -15.0871 C   0  0  0  0  0  0  0  0  0  0  0  0
   -8.5132    4.2651  -15.8318 C   0  0  0  0  0  0  0  0  0  0  0  0
   -8.6245    4.3965  -17.2572 C   0  0  0  0  0  0  0  0  0  0  0  0
  -10.1670    4.1433  -17.9962 Cl  0  0  0  0  0  0  0  0  0  0  0  0
   -7.5474    4.7037  -18.1028 C   0  0  0  0  0  0  0  0  0  0  0  0
   -6.3382    4.8623  -17.4187 C   0  0  0  0  0  0  0  0  0  0  0  0
   -5.1158    5.1744  -17.8954 N   0  0  0  0  0  0  0  0  0  0  0  0
   -6.4342    2.7819  -13.2803 C   0  0  0  0  0  0  0  0  0  0  0  0
   -6.9121    1.7428  -13.5363 O   0  0  0  0  0  0  0  0  0  0  0  0
   -5.1102    3.1284  -12.5281 N   0  0  0  0  0  0  0  0  0  0  0  0
   -4.9645    4.0893  -12.3710 H   0  0  0  0  0  0  0  0  0  0  0  0
   -4.0691    2.2713  -12.0275 C   0  0  0  0  0  0  0  0  0  0  0  0
   -2.9574    2.0304  -13.0609 C   0  0  0  0  0  0  0  0  0  0  0  0
   -2.2854    3.3314  -13.5292 C   0  0  0  0  0  0  0  0  0  0  0  0
   -1.3814    3.9254  -12.4536 C   0  0  0  0  0  0  0  0  0  0  0  0
   -0.4038    2.9767  -12.0346 O   0  0  0  0  0  0  0  0  0  0  0  0
   -0.9948    1.8111  -11.4547 C   0  0  0  0  0  0  0  0  0  0  0  0
   -1.8775    1.1044  -12.4755 C   0  0  0  0  0  0  0  0  0  0  0  0
   -8.4849    4.2252  -12.9115 N   0  0  0  0  0  0  0  0  0  0  0  0
   -9.3291    4.2188  -13.4181 H   0  0  0  0  0  0  0  0  0  0  0  0
   -8.4579    4.2596  -11.4915 C   0  0  0  0  0  0  0  0  0  0  0  0
   -8.1232    5.4596  -10.8205 C   0  0  0  0  0  0  0  0  0  0  0  0
   -8.0161    5.5153   -9.4281 C   0  0  0  0  0  0  0  0  0  0  0  0
   -8.2862    4.3644   -8.7143 C   0  0  0  0  0  0  0  0  0  0  0  0
   -8.6220    3.1789   -9.3599 C   0  0  0  0  0  0  0  0  0  0  0  0
   -8.6938    3.1031  -10.7402 C   0  0  0  0  0  0  0  0  0  0  0  0
   -8.8517    2.1120   -8.3404 C   0  0  0  0  0  0  0  0  0  0  0  0
   -8.9910    2.8407   -7.0490 N   0  0  0  0  0  0  0  0  0  0  0  0
   -8.2996    4.1350   -7.2412 C   0  0  0  0  0  0  0  0  0  0  0  0
   -8.5533    2.3127   -6.2940 H   0  0  0  0  0  0  0  0  0  0  0  0
  4  5  1  0  0  0
  5  6  1  0  0  0
  6  7  2  0  0  0
  7  8  1  0  0  0
  8  1  1  0  0  0
  1  2  1  0  0  0
  1 26  1  0  0  0
 26 28  1  0  0  0
 28 29  2  0  0  0
 29 30  1  0  0  0
 30 31  2  0  0  0
 31 32  1  0  0  0
 32 33  2  0  0  0
 32 34  1  0  0  0
 34 35  1  0  0  0
 35 36  1  0  0  0
  1 15  1  0  0  0
 15 16  2  0  0  0
 15 17  1  0  0  0
 17 19  1  0  0  0
 19 20  1  0  0  0
 20 21  1  0  0  0
 21 22  1  0  0  0
 22 23  1  0  0  0
 23 24  1  0  0  0
 24 25  1  0  0  0
  8  9  2  0  0  0
  9 10  1  0  0  0
 10 11  1  0  0  0
 10 12  2  0  0  0
 12 13  1  0  0  0
 13 14  2  0  0  0
 14  5  1  0  0  0
 13  7  1  0  0  0
 33 28  1  0  0  0
 25 20  1  0  0  0
 36 31  1  0  0  0
  2  3  1  0  0  0
 26 27  1  0  0  0
 35 37  1  0  0  0
 17 18  1  0  0  0
M  END
> <minimizedAffinity>
-8.89473

> <minimizedRMSD>
0.46373

$$$$
P19710


 40 44  0  0  0  0  0  0  0  0999 V2000
   -7.1811    4.1661  -13.6904 C   0  0  0  0  0  0  0  0  0  0  0  0
   -6.4447    5.3084  -13.2666 O   0  0  0  0  0  0  0  0  0  0  0  0
   -6.9301    6.1132  -13.5063 H   0  0  0  0  0  0  0  0  0  0  0  0
   -4.5188    5.1766  -17.1396 N   0  0  0  0  0  0  0  0  0  0  0  0
   -5.0354    4.8768  -15.9136 C   0  0  0  0  0  0  0  0  0  0  0  0
   -6.3812    4.7159  -16.1326 C   0  0  0  0  0  0  0  0  0  0  0  0
   -7.3554    4.3381  -15.1935 C   0  0  0  0  0  0  0  0  0  0  0  0
   -8.5945    4.1591  -15.8898 C   0  0  0  0  0  0  0  0  0  0  0  0
   -8.7901    4.3089  -17.2990 C   0  0  0  0  0  0  0  0  0  0  0  0
  -10.3258    4.0101  -18.0145 Cl  0  0  0  0  0  0  0  0  0  0  0  0
   -7.7901    4.7122  -18.1714 C   0  0  0  0  0  0  0  0  0  0  0  0
   -6.5772    4.9442  -17.5445 C   0  0  0  0  0  0  0  0  0  0  0  0
   -5.4475    5.4112  -18.0819 N   0  0  0  0  0  0  0  0  0  0  0  0
   -3.1766    4.6048  -18.9819 N   0  0  0  0  0  0  0  0  0  0  0  0
   -3.1401    5.0559  -17.5822 C   0  0  0  0  0  0  0  0  0  0  0  0
   -2.2238    4.5070  -19.3325 H   0  0  0  0  0  0  0  0  0  0  0  0
   -3.6782    5.2901  -19.5469 H   0  0  0  0  0  0  0  0  0  0  0  0
   -6.4560    2.7769  -13.3370 C   0  0  0  0  0  0  0  0  0  0  0  0
   -6.9352    1.7247  -13.5155 O   0  0  0  0  0  0  0  0  0  0  0  0
   -5.0914    3.1679  -12.6998 N   0  0  0  0  0  0  0  0  0  0  0  0
   -4.8812    4.1291  -12.7329 H   0  0  0  0  0  0  0  0  0  0  0  0
   -4.0877    2.3531  -12.0703 C   0  0  0  0  0  0  0  0  0  0  0  0
   -2.9361    2.0219  -13.0327 C   0  0  0  0  0  0  0  0  0  0  0  0
   -2.1916    3.2774  -13.5152 C   0  0  0  0  0  0  0  0  0  0  0  0
   -1.3263    3.8801  -12.4134 C   0  0  0  0  0  0  0  0  0  0  0  0
   -0.4084    2.9124  -11.9082 O   0  0  0  0  0  0  0  0  0  0  0  0
   -1.0717    1.7892  -11.3216 C   0  0  0  0  0  0  0  0  0  0  0  0
   -1.9275    1.0759  -12.3605 C   0  0  0  0  0  0  0  0  0  0  0  0
   -8.4944    4.2287  -13.0022 N   0  0  0  0  0  0  0  0  0  0  0  0
   -9.3471    4.2538  -13.4937 H   0  0  0  0  0  0  0  0  0  0  0  0
   -8.4325    4.2499  -11.5791 C   0  0  0  0  0  0  0  0  0  0  0  0
   -8.0326    5.4179  -10.8940 C   0  0  0  0  0  0  0  0  0  0  0  0
   -7.9796    5.4644   -9.4972 C   0  0  0  0  0  0  0  0  0  0  0  0
   -8.3351    4.3305   -8.7944 C   0  0  0  0  0  0  0  0  0  0  0  0
   -8.7264    3.1723   -9.4526 C   0  0  0  0  0  0  0  0  0  0  0  0
   -8.7702    3.1092  -10.8364 C   0  0  0  0  0  0  0  0  0  0  0  0
   -9.1066    2.1339   -8.4518 C   0  0  0  0  0  0  0  0  0  0  0  0
   -8.7040    2.6828   -7.1261 N   0  0  0  0  0  0  0  0  0  0  0  0
   -8.4425    4.1253   -7.3241 C   0  0  0  0  0  0  0  0  0  0  0  0
   -7.8607    2.2152   -6.7936 H   0  0  0  0  0  0  0  0  0  0  0  0
 14 15  1  0  0  0
 15  4  1  0  0  0
  4  5  1  0  0  0
  5  6  2  0  0  0
  6  7  1  0  0  0
  7  1  1  0  0  0
  1  2  1  0  0  0
  1 29  1  0  0  0
 29 31  1  0  0  0
 31 32  2  0  0  0
 32 33  1  0  0  0
 33 34  2  0  0  0
 34 35  1  0  0  0
 35 36  2  0  0  0
 35 37  1  0  0  0
 37 38  1  0  0  0
 38 39  1  0  0  0
  1 18  1  0  0  0
 18 19  2  0  0  0
 18 20  1  0  0  0
 20 22  1  0  0  0
 22 23  1  0  0  0
 23 24  1  0  0  0
 24 25  1  0  0  0
 25 26  1  0  0  0
 26 27  1  0  0  0
 27 28  1  0  0  0
  7  8  2  0  0  0
  8  9  1  0  0  0
  9 10  1  0  0  0
  9 11  2  0  0  0
 11 12  1  0  0  0
 12 13  2  0  0  0
 13  4  1  0  0  0
 12  6  1  0  0  0
 36 31  1  0  0  0
 28 23  1  0  0  0
 39 34  1  0  0  0
 14 16  1  0  0  0
 14 17  1  0  0  0
  2  3  1  0  0  0
 29 30  1  0  0  0
 38 40  1  0  0  0
 20 21  1  0  0  0
M  END
> <minimizedAffinity>
-8.91478

> <minimizedRMSD>
0.40155

$$$$
P19711


 43 48  0  0  0  0  0  0  0  0999 V2000
   -7.2507    4.3731  -13.7677 C   0  0  0  0  0  0  0  0  0  0  0  0
   -6.4957    5.5021  -13.3336 O   0  0  0  0  0  0  0  0  0  0  0  0
   -6.3431    5.4409  -12.3777 H   0  0  0  0  0  0  0  0  0  0  0  0
   -7.4680    4.5109  -15.2813 C   0  0  0  0  0  0  0  0  0  0  0  0
   -8.7248    4.2271  -15.8600 C   0  0  0  0  0  0  0  0  0  0  0  0
   -8.9156    4.2115  -17.2483 C   0  0  0  0  0  0  0  0  0  0  0  0
  -10.4626    3.8366  -17.9016 Cl  0  0  0  0  0  0  0  0  0  0  0  0
   -7.8642    4.4825  -18.1099 C   0  0  0  0  0  0  0  0  0  0  0  0
   -6.6426    4.8194  -17.5685 C   0  0  0  0  0  0  0  0  0  0  0  0
   -6.4393    4.8257  -16.1859 C   0  0  0  0  0  0  0  0  0  0  0  0
   -4.9951    5.1463  -15.9401 C   0  0  0  0  0  0  0  0  0  0  0  0
   -4.4641    5.5287  -17.3582 C   0  0  0  0  0  0  0  0  0  0  0  0
   -4.2877    7.0532  -17.4917 C   0  0  0  0  0  0  0  0  0  0  0  0
   -3.5617    7.4491  -18.7759 C   0  0  0  0  0  0  0  0  0  0  0  0
   -2.2797    6.7624  -18.9205 N   0  0  0  0  0  0  0  0  0  0  0  0
   -2.4680    5.3102  -18.9179 C   0  0  0  0  0  0  0  0  0  0  0  0
   -3.1232    4.8240  -17.6279 C   0  0  0  0  0  0  0  0  0  0  0  0
   -5.4699    5.0320  -18.3172 N   0  0  0  0  0  0  0  0  0  0  0  0
   -1.6709    7.0226  -18.1445 H   0  0  0  0  0  0  0  0  0  0  0  0
   -5.3461    4.8805  -19.2820 H   0  0  0  0  0  0  0  0  0  0  0  0
   -6.9081    1.9301  -13.6482 O   0  0  0  0  0  0  0  0  0  0  0  0
   -6.4603    2.9963  -13.4634 C   0  0  0  0  0  0  0  0  0  0  0  0
   -5.0881    3.4246  -12.8572 N   0  0  0  0  0  0  0  0  0  0  0  0
   -4.9124    4.3931  -12.8779 H   0  0  0  0  0  0  0  0  0  0  0  0
   -4.0400    2.6354  -12.2741 C   0  0  0  0  0  0  0  0  0  0  0  0
   -4.5250    1.9310  -10.9984 C   0  0  0  0  0  0  0  0  0  0  0  0
   -5.0788    2.9088   -9.9573 C   0  0  0  0  0  0  0  0  0  0  0  0
   -3.9931    3.8258   -9.3972 C   0  0  0  0  0  0  0  0  0  0  0  0
   -2.6758    3.2858   -9.5339 O   0  0  0  0  0  0  0  0  0  0  0  0
   -2.6376    1.8841   -9.2780 C   0  0  0  0  0  0  0  0  0  0  0  0
   -3.3913    1.1182  -10.3620 C   0  0  0  0  0  0  0  0  0  0  0  0
   -8.5469    4.3575  -13.0461 N   0  0  0  0  0  0  0  0  0  0  0  0
   -9.4074    4.3580  -13.5244 H   0  0  0  0  0  0  0  0  0  0  0  0
   -8.4790    4.3419  -11.6317 C   0  0  0  0  0  0  0  0  0  0  0  0
   -8.0306    5.4857  -10.9347 C   0  0  0  0  0  0  0  0  0  0  0  0
   -7.9091    5.4915   -9.5428 C   0  0  0  0  0  0  0  0  0  0  0  0
   -8.2552    4.3428   -8.8578 C   0  0  0  0  0  0  0  0  0  0  0  0
   -8.7071    3.2129   -9.5297 C   0  0  0  0  0  0  0  0  0  0  0  0
   -8.8119    3.1885  -10.9107 C   0  0  0  0  0  0  0  0  0  0  0  0
   -9.0789    2.1603   -8.5404 C   0  0  0  0  0  0  0  0  0  0  0  0
   -8.5771    2.6507   -7.2268 N   0  0  0  0  0  0  0  0  0  0  0  0
   -8.2996    4.0947   -7.3902 C   0  0  0  0  0  0  0  0  0  0  0  0
   -7.7232    2.1555   -6.9696 H   0  0  0  0  0  0  0  0  0  0  0  0
 21 22  2  0  0  0
 22 23  1  0  0  0
 23 25  1  0  0  0
 25 26  1  0  0  0
 26 27  1  0  0  0
 27 28  1  0  0  0
 28 29  1  0  0  0
 29 30  1  0  0  0
 30 31  1  0  0  0
 22  1  1  0  0  0
  1  2  1  0  0  0
  1 32  1  0  0  0
 32 34  1  0  0  0
 34 35  2  0  0  0
 35 36  1  0  0  0
 36 37  2  0  0  0
 37 38  1  0  0  0
 38 39  2  0  0  0
 38 40  1  0  0  0
 40 41  1  0  0  0
 41 42  1  0  0  0
  1  4  1  0  0  0
  4  5  2  0  0  0
  5  6  1  0  0  0
  6  7  1  0  0  0
  6  8  2  0  0  0
  8  9  1  0  0  0
  9 10  2  0  0  0
 10 11  1  0  0  0
 11 12  1  0  0  0
 12 13  1  0  0  0
 13 14  1  0  0  0
 14 15  1  0  0  0
 15 16  1  0  0  0
 16 17  1  0  0  0
 12 18  1  0  0  0
 31 26  1  0  0  0
 39 34  1  0  0  0
 10  4  1  0  0  0
 17 12  1  0  0  0
 42 37  1  0  0  0
 18  9  1  0  0  0
 23 24  1  0  0  0
  2  3  1  0  0  0
 32 33  1  0  0  0
 41 43  1  0  0  0
 15 19  1  0  0  0
 18 20  1  0  0  0
M  END
> <minimizedAffinity>
-9.36077

> <minimizedRMSD>
0.97642

$$$$
P19715


 43 48  0  0  0  0  0  0  0  0999 V2000
   -7.0840    4.2240  -13.4901 C   0  0  0  0  0  0  0  0  0  0  0  0
   -6.3109    5.2690  -12.8997 O   0  0  0  0  0  0  0  0  0  0  0  0
   -6.2108    5.1000  -11.9498 H   0  0  0  0  0  0  0  0  0  0  0  0
   -7.2181    4.5288  -14.9881 C   0  0  0  0  0  0  0  0  0  0  0  0
   -8.4052    4.2127  -15.6785 C   0  0  0  0  0  0  0  0  0  0  0  0
   -8.5164    4.3988  -17.0634 C   0  0  0  0  0  0  0  0  0  0  0  0
   -9.9889    4.0017  -17.8663 Cl  0  0  0  0  0  0  0  0  0  0  0  0
   -7.4460    4.8950  -17.8074 C   0  0  0  0  0  0  0  0  0  0  0  0
   -6.2659    5.2125  -17.1533 C   0  0  0  0  0  0  0  0  0  0  0  0
   -6.1658    5.0386  -15.7649 C   0  0  0  0  0  0  0  0  0  0  0  0
   -4.8062    5.4803  -15.3305 C   0  0  0  0  0  0  0  0  0  0  0  0
   -3.9899    5.5486  -16.5541 N   0  0  0  0  0  0  0  0  0  0  0  0
   -4.9394    5.6973  -17.7054 C   0  0  0  0  0  0  0  0  0  0  0  0
   -4.9301    7.1937  -18.0673 C   0  0  0  0  0  0  0  0  0  0  0  0
   -5.5138    7.4419  -19.4505 C   0  0  0  0  0  0  0  0  0  0  0  0
   -4.8182    6.6067  -20.5184 C   0  0  0  0  0  0  0  0  0  0  0  0
   -4.9260    5.1829  -20.2337 N   0  0  0  0  0  0  0  0  0  0  0  0
   -4.4042    4.8527  -18.9059 C   0  0  0  0  0  0  0  0  0  0  0  0
   -3.4431    4.6940  -16.6588 H   0  0  0  0  0  0  0  0  0  0  0  0
   -4.3963    4.6650  -20.9348 H   0  0  0  0  0  0  0  0  0  0  0  0
   -6.8419    1.7511  -13.5778 O   0  0  0  0  0  0  0  0  0  0  0  0
   -6.3596    2.7859  -13.3157 C   0  0  0  0  0  0  0  0  0  0  0  0
   -4.9626    3.1248  -12.6968 N   0  0  0  0  0  0  0  0  0  0  0  0
   -4.7574    4.0862  -12.6431 H   0  0  0  0  0  0  0  0  0  0  0  0
   -3.9316    2.2606  -12.1946 C   0  0  0  0  0  0  0  0  0  0  0  0
   -4.2194    1.8563  -10.7413 C   0  0  0  0  0  0  0  0  0  0  0  0
   -2.9704    1.2663  -10.0908 C   0  0  0  0  0  0  0  0  0  0  0  0
   -1.8830    2.3112   -9.8497 C   0  0  0  0  0  0  0  0  0  0  0  0
   -2.3961    3.6426   -9.7438 O   0  0  0  0  0  0  0  0  0  0  0  0
   -3.6397    3.6827   -9.0504 C   0  0  0  0  0  0  0  0  0  0  0  0
   -4.7340    3.0384   -9.8955 C   0  0  0  0  0  0  0  0  0  0  0  0
   -8.4043    4.3134  -12.8388 N   0  0  0  0  0  0  0  0  0  0  0  0
   -9.2350    4.3784  -13.3630 H   0  0  0  0  0  0  0  0  0  0  0  0
   -8.4190    4.3012  -11.4260 C   0  0  0  0  0  0  0  0  0  0  0  0
   -8.1386    5.4913  -10.7116 C   0  0  0  0  0  0  0  0  0  0  0  0
   -8.0869    5.5123   -9.3157 C   0  0  0  0  0  0  0  0  0  0  0  0
   -8.3407    4.3343   -8.6422 C   0  0  0  0  0  0  0  0  0  0  0  0
   -8.6081    3.1548   -9.3296 C   0  0  0  0  0  0  0  0  0  0  0  0
   -8.6341    3.1158  -10.7154 C   0  0  0  0  0  0  0  0  0  0  0  0
   -8.8346    2.0553   -8.3440 C   0  0  0  0  0  0  0  0  0  0  0  0
   -9.0233    2.7389   -7.0344 N   0  0  0  0  0  0  0  0  0  0  0  0
   -8.3977    4.0710   -7.1761 C   0  0  0  0  0  0  0  0  0  0  0  0
   -8.5678    2.2108   -6.2901 H   0  0  0  0  0  0  0  0  0  0  0  0
 21 22  2  0  0  0
 22 23  1  0  0  0
 23 25  1  0  0  0
 25 26  1  0  0  0
 26 27  1  0  0  0
 27 28  1  0  0  0
 28 29  1  0  0  0
 29 30  1  0  0  0
 30 31  1  0  0  0
 22  1  1  0  0  0
  1  2  1  0  0  0
  1 32  1  0  0  0
 32 34  1  0  0  0
 34 35  2  0  0  0
 35 36  1  0  0  0
 36 37  2  0  0  0
 37 38  1  0  0  0
 38 39  2  0  0  0
 38 40  1  0  0  0
 40 41  1  0  0  0
 41 42  1  0  0  0
  1  4  1  0  0  0
  4  5  2  0  0  0
  5  6  1  0  0  0
  6  7  1  0  0  0
  6  8  2  0  0  0
  8  9  1  0  0  0
  9 10  2  0  0  0
 10 11  1  0  0  0
 11 12  1  0  0  0
 12 13  1  0  0  0
 13 14  1  0  0  0
 14 15  1  0  0  0
 15 16  1  0  0  0
 16 17  1  0  0  0
 17 18  1  0  0  0
 31 26  1  0  0  0
 39 34  1  0  0  0
 10  4  1  0  0  0
 18 13  1  0  0  0
 42 37  1  0  0  0
 13  9  1  0  0  0
 23 24  1  0  0  0
  2  3  1  0  0  0
 32 33  1  0  0  0
 41 43  1  0  0  0
 12 19  1  0  0  0
 17 20  1  0  0  0
M  END
> <minimizedAffinity>
-9.55308

> <minimizedRMSD>
0.53955

$$$$
P19716


 39 43  0  0  0  0  0  0  0  0999 V2000
   -7.6723    4.0688  -12.9515 C   0  0  0  0  0  0  0  0  0  0  0  0
   -9.0780    3.9790  -12.9551 O   0  0  0  0  0  0  0  0  0  0  0  0
   -9.4582    4.8640  -13.0694 H   0  0  0  0  0  0  0  0  0  0  0  0
   -3.8486    6.6109  -17.0484 N   0  0  0  0  0  0  0  0  0  0  0  0
   -4.6818    6.4071  -15.9456 N   0  0  0  0  0  0  0  0  0  0  0  0
   -4.2777    6.7248  -14.7165 N   0  0  0  0  0  0  0  0  0  0  0  0
   -5.1695    6.1265  -13.9259 C   0  0  0  0  0  0  0  0  0  0  0  0
   -6.2004    5.4782  -14.6458 C   0  0  0  0  0  0  0  0  0  0  0  0
   -7.3204    4.6742  -14.3279 C   0  0  0  0  0  0  0  0  0  0  0  0
   -8.1505    4.3402  -15.4375 C   0  0  0  0  0  0  0  0  0  0  0  0
   -7.8814    4.7140  -16.7483 C   0  0  0  0  0  0  0  0  0  0  0  0
   -9.0148    4.2977  -17.9735 Cl  0  0  0  0  0  0  0  0  0  0  0  0
   -6.7221    5.4064  -17.0578 C   0  0  0  0  0  0  0  0  0  0  0  0
   -5.9028    5.7767  -15.9806 C   0  0  0  0  0  0  0  0  0  0  0  0
   -3.0051    7.1012  -16.7511 H   0  0  0  0  0  0  0  0  0  0  0  0
   -4.3390    7.1702  -17.7462 H   0  0  0  0  0  0  0  0  0  0  0  0
   -6.8191    2.6740  -12.7687 C   0  0  0  0  0  0  0  0  0  0  0  0
   -7.2458    1.6422  -13.1181 O   0  0  0  0  0  0  0  0  0  0  0  0
   -5.5057    3.0157  -12.0054 N   0  0  0  0  0  0  0  0  0  0  0  0
   -5.3323    3.9784  -11.8934 H   0  0  0  0  0  0  0  0  0  0  0  0
   -4.5012    2.1501  -11.4353 C   0  0  0  0  0  0  0  0  0  0  0  0
   -3.0908    2.3328  -12.0135 C   0  0  0  0  0  0  0  0  0  0  0  0
   -2.5475    3.7498  -11.7655 C   0  0  0  0  0  0  0  0  0  0  0  0
   -1.5317    4.1390  -12.8258 C   0  0  0  0  0  0  0  0  0  0  0  0
   -2.0923    4.1505  -14.1377 O   0  0  0  0  0  0  0  0  0  0  0  0
   -3.1484    3.2117  -14.3498 C   0  0  0  0  0  0  0  0  0  0  0  0
   -3.0103    1.9645  -13.4945 C   0  0  0  0  0  0  0  0  0  0  0  0
   -7.3881    4.9915  -11.8465 N   0  0  0  0  0  0  0  0  0  0  0  0
   -6.8480    5.8010  -11.9952 H   0  0  0  0  0  0  0  0  0  0  0  0
   -7.9089    4.6934  -10.5543 C   0  0  0  0  0  0  0  0  0  0  0  0
   -7.7318    5.6751   -9.5559 C   0  0  0  0  0  0  0  0  0  0  0  0
   -8.0863    5.4438   -8.2203 C   0  0  0  0  0  0  0  0  0  0  0  0
   -8.6091    4.2104   -7.8829 C   0  0  0  0  0  0  0  0  0  0  0  0
   -8.7873    3.2280   -8.8433 C   0  0  0  0  0  0  0  0  0  0  0  0
   -8.4542    3.4530  -10.1691 C   0  0  0  0  0  0  0  0  0  0  0  0
   -9.3052    1.9846   -8.1963 C   0  0  0  0  0  0  0  0  0  0  0  0
   -9.7541    2.4141   -6.8442 N   0  0  0  0  0  0  0  0  0  0  0  0
   -9.0272    3.6722   -6.5573 C   0  0  0  0  0  0  0  0  0  0  0  0
   -9.5212    1.7034   -6.1505 H   0  0  0  0  0  0  0  0  0  0  0  0
  4  5  1  0  0  0
  5  6  1  0  0  0
  6  7  2  0  0  0
  7  8  1  0  0  0
  8  9  2  0  0  0
  9  1  1  0  0  0
  1  2  1  0  0  0
  1 28  1  0  0  0
 28 30  1  0  0  0
 30 31  2  0  0  0
 31 32  1  0  0  0
 32 33  2  0  0  0
 33 34  1  0  0  0
 34 35  2  0  0  0
 34 36  1  0  0  0
 36 37  1  0  0  0
 37 38  1  0  0  0
  1 17  1  0  0  0
 17 18  2  0  0  0
 17 19  1  0  0  0
 19 21  1  0  0  0
 21 22  1  0  0  0
 22 23  1  0  0  0
 23 24  1  0  0  0
 24 25  1  0  0  0
 25 26  1  0  0  0
 26 27  1  0  0  0
  9 10  1  0  0  0
 10 11  2  0  0  0
 11 12  1  0  0  0
 11 13  1  0  0  0
 13 14  2  0  0  0
 14  5  1  0  0  0
 14  8  1  0  0  0
 35 30  1  0  0  0
 27 22  1  0  0  0
 38 33  1  0  0  0
  4 15  1  0  0  0
  4 16  1  0  0  0
  2  3  1  0  0  0
 28 29  1  0  0  0
 37 39  1  0  0  0
 19 20  1  0  0  0
M  END
> <minimizedAffinity>
-7.91970

> <minimizedRMSD>
0.66485

$$$$
P19717


 44 49  0  0  0  0  0  0  0  0999 V2000
   -7.0990    4.2106  -13.3790 C   0  0  0  0  0  0  0  0  0  0  0  0
   -6.3673    5.2494  -12.7377 O   0  0  0  0  0  0  0  0  0  0  0  0
   -6.8273    6.0941  -12.8634 H   0  0  0  0  0  0  0  0  0  0  0  0
   -4.7625    4.7856  -19.4206 C   0  0  0  0  0  0  0  0  0  0  0  0
   -4.1593    5.5233  -18.2162 C   0  0  0  0  0  0  0  0  0  0  0  0
   -2.9833    6.3923  -18.7194 C   0  0  0  0  0  0  0  0  0  0  0  0
   -3.4571    7.6071  -19.5188 C   0  0  0  0  0  0  0  0  0  0  0  0
   -4.3965    8.4266  -18.7596 N   0  0  0  0  0  0  0  0  0  0  0  0
   -5.5620    7.6388  -18.3064 C   0  0  0  0  0  0  0  0  0  0  0  0
   -5.1992    6.3965  -17.4373 C   0  0  0  0  0  0  0  0  0  0  0  0
   -4.5986    6.8953  -16.1675 N   0  0  0  0  0  0  0  0  0  0  0  0
   -5.0339    6.0157  -15.0760 C   0  0  0  0  0  0  0  0  0  0  0  0
   -6.2846    5.3528  -15.5677 C   0  0  0  0  0  0  0  0  0  0  0  0
   -7.2312    4.5832  -14.8650 C   0  0  0  0  0  0  0  0  0  0  0  0
   -8.3381    4.1397  -15.6203 C   0  0  0  0  0  0  0  0  0  0  0  0
   -8.4765    4.4400  -16.9817 C   0  0  0  0  0  0  0  0  0  0  0  0
   -9.8698    3.9065  -17.8421 Cl  0  0  0  0  0  0  0  0  0  0  0  0
   -7.5021    5.1693  -17.6515 C   0  0  0  0  0  0  0  0  0  0  0  0
   -6.3989    5.6147  -16.9443 C   0  0  0  0  0  0  0  0  0  0  0  0
   -4.7232    9.1903  -19.3516 H   0  0  0  0  0  0  0  0  0  0  0  0
   -4.9129    7.8489  -15.9884 H   0  0  0  0  0  0  0  0  0  0  0  0
   -6.3580    2.7851  -13.1886 C   0  0  0  0  0  0  0  0  0  0  0  0
   -6.7924    1.7702  -13.5784 O   0  0  0  0  0  0  0  0  0  0  0  0
   -5.0879    3.0778  -12.3318 N   0  0  0  0  0  0  0  0  0  0  0  0
   -4.8923    4.0332  -12.1973 H   0  0  0  0  0  0  0  0  0  0  0  0
   -4.1581    2.1798  -11.7077 C   0  0  0  0  0  0  0  0  0  0  0  0
   -2.8996    1.9018  -12.5339 C   0  0  0  0  0  0  0  0  0  0  0  0
   -2.0924    3.1737  -12.8231 C   0  0  0  0  0  0  0  0  0  0  0  0
   -0.6975    2.8883  -13.3784 C   0  0  0  0  0  0  0  0  0  0  0  0
   -0.4380    1.4885  -13.4957 O   0  0  0  0  0  0  0  0  0  0  0  0
   -0.5824    0.8566  -12.2245 C   0  0  0  0  0  0  0  0  0  0  0  0
   -2.0363    0.8767  -11.7755 C   0  0  0  0  0  0  0  0  0  0  0  0
   -8.4473    4.1263  -12.7512 N   0  0  0  0  0  0  0  0  0  0  0  0
   -9.2681    4.0584  -13.2906 H   0  0  0  0  0  0  0  0  0  0  0  0
   -8.4832    4.1492  -11.3333 C   0  0  0  0  0  0  0  0  0  0  0  0
   -8.1410    5.3352  -10.6455 C   0  0  0  0  0  0  0  0  0  0  0  0
   -8.0925    5.3809   -9.2501 C   0  0  0  0  0  0  0  0  0  0  0  0
   -8.4058    4.2299   -8.5526 C   0  0  0  0  0  0  0  0  0  0  0  0
   -8.7581    3.0600   -9.2153 C   0  0  0  0  0  0  0  0  0  0  0  0
   -8.7893    2.9960  -10.5990 C   0  0  0  0  0  0  0  0  0  0  0  0
   -9.1111    2.0082   -8.2177 C   0  0  0  0  0  0  0  0  0  0  0  0
   -8.7176    2.5625   -6.8918 N   0  0  0  0  0  0  0  0  0  0  0  0
   -8.5016    4.0132   -7.0828 C   0  0  0  0  0  0  0  0  0  0  0  0
   -7.8583    2.1192   -6.5668 H   0  0  0  0  0  0  0  0  0  0  0  0
  5  4  1  0  0  0
  5  6  1  0  0  0
  6  7  1  0  0  0
  7  8  1  0  0  0
  8  9  1  0  0  0
 10  9  1  0  0  0
 10 11  1  0  0  0
 11 12  1  0  0  0
 12 13  1  0  0  0
 13 14  2  0  0  0
 14  1  1  0  0  0
  1  2  1  0  0  0
  1 33  1  0  0  0
 33 35  1  0  0  0
 35 36  2  0  0  0
 36 37  1  0  0  0
 37 38  2  0  0  0
 38 39  1  0  0  0
 39 40  2  0  0  0
 39 41  1  0  0  0
 41 42  1  0  0  0
 42 43  1  0  0  0
  1 22  1  0  0  0
 22 23  2  0  0  0
 22 24  1  0  0  0
 24 26  1  0  0  0
 26 27  1  0  0  0
 27 28  1  0  0  0
 28 29  1  0  0  0
 29 30  1  0  0  0
 30 31  1  0  0  0
 31 32  1  0  0  0
 14 15  1  0  0  0
 15 16  2  0  0  0
 16 17  1  0  0  0
 16 18  1  0  0  0
 18 19  2  0  0  0
 10  5  1  0  0  0
 19 13  1  0  0  0
 19 10  1  0  0  0
 40 35  1  0  0  0
 32 27  1  0  0  0
 43 38  1  0  0  0
  8 20  1  0  0  0
 11 21  1  0  0  0
  2  3  1  0  0  0
 33 34  1  0  0  0
 42 44  1  0  0  0
 24 25  1  0  0  0
M  END
> <minimizedAffinity>
-9.71200

> <minimizedRMSD>
0.29200

$$$$
P19718


 42 47  0  0  0  0  0  0  0  0999 V2000
   -7.2250    4.2404  -13.6262 C   0  0  0  0  0  0  0  0  0  0  0  0
   -6.5084    5.3783  -13.1832 O   0  0  0  0  0  0  0  0  0  0  0  0
   -6.3724    5.3218  -12.2244 H   0  0  0  0  0  0  0  0  0  0  0  0
   -7.3957    4.4091  -15.1443 C   0  0  0  0  0  0  0  0  0  0  0  0
   -8.6294    4.1625  -15.7852 C   0  0  0  0  0  0  0  0  0  0  0  0
   -8.7766    4.2538  -17.1789 C   0  0  0  0  0  0  0  0  0  0  0  0
  -10.2999    3.9209  -17.9085 Cl  0  0  0  0  0  0  0  0  0  0  0  0
   -7.7052    4.6051  -17.9862 C   0  0  0  0  0  0  0  0  0  0  0  0
   -6.5037    4.8984  -17.3793 C   0  0  0  0  0  0  0  0  0  0  0  0
   -6.3420    4.7894  -15.9927 C   0  0  0  0  0  0  0  0  0  0  0  0
   -4.9023    5.0719  -15.6778 C   0  0  0  0  0  0  0  0  0  0  0  0
   -4.3619    5.6443  -17.0291 C   0  0  0  0  0  0  0  0  0  0  0  0
   -2.9724    5.0687  -17.3635 C   0  0  0  0  0  0  0  0  0  0  0  0
   -1.8844    5.9518  -16.7767 C   0  0  0  0  0  0  0  0  0  0  0  0
   -1.9022    7.2817  -17.2985 O   0  0  0  0  0  0  0  0  0  0  0  0
   -3.1563    7.7112  -17.8250 C   0  0  0  0  0  0  0  0  0  0  0  0
   -4.3269    7.1917  -17.0050 C   0  0  0  0  0  0  0  0  0  0  0  0
   -5.3081    5.1871  -18.0683 N   0  0  0  0  0  0  0  0  0  0  0  0
   -5.1396    5.1024  -19.0346 H   0  0  0  0  0  0  0  0  0  0  0  0
   -6.9249    1.7927  -13.5727 O   0  0  0  0  0  0  0  0  0  0  0  0
   -6.5190    2.8394  -13.2428 C   0  0  0  0  0  0  0  0  0  0  0  0
   -5.3279    3.2115  -12.3103 N   0  0  0  0  0  0  0  0  0  0  0  0
   -5.1378    4.1755  -12.2487 H   0  0  0  0  0  0  0  0  0  0  0  0
   -4.4621    2.3762  -11.5256 C   0  0  0  0  0  0  0  0  0  0  0  0
   -2.9852    2.5897  -11.8474 C   0  0  0  0  0  0  0  0  0  0  0  0
   -2.5546    1.8231  -13.1095 C   0  0  0  0  0  0  0  0  0  0  0  0
   -1.0997    1.3748  -13.0405 C   0  0  0  0  0  0  0  0  0  0  0  0
   -0.3149    2.3350  -12.3461 O   0  0  0  0  0  0  0  0  0  0  0  0
   -0.6322    2.3803  -10.9521 C   0  0  0  0  0  0  0  0  0  0  0  0
   -2.1173    2.1750  -10.6575 C   0  0  0  0  0  0  0  0  0  0  0  0
   -8.5442    4.3083  -12.9350 N   0  0  0  0  0  0  0  0  0  0  0  0
   -9.3982    4.3415  -13.4238 H   0  0  0  0  0  0  0  0  0  0  0  0
   -8.4729    4.3215  -11.5086 C   0  0  0  0  0  0  0  0  0  0  0  0
   -8.1116    5.5016  -10.8207 C   0  0  0  0  0  0  0  0  0  0  0  0
   -8.0039    5.5330   -9.4268 C   0  0  0  0  0  0  0  0  0  0  0  0
   -8.2785    4.3746   -8.7283 C   0  0  0  0  0  0  0  0  0  0  0  0
   -8.6246    3.2013   -9.3890 C   0  0  0  0  0  0  0  0  0  0  0  0
   -8.7180    3.1525  -10.7709 C   0  0  0  0  0  0  0  0  0  0  0  0
   -8.8319    2.1172   -8.3834 C   0  0  0  0  0  0  0  0  0  0  0  0
   -8.9415    2.8176   -7.0745 N   0  0  0  0  0  0  0  0  0  0  0  0
   -8.2806    4.1285   -7.2584 C   0  0  0  0  0  0  0  0  0  0  0  0
   -8.4705    2.2821   -6.3453 H   0  0  0  0  0  0  0  0  0  0  0  0
 20 21  2  0  0  0
 21 22  1  0  0  0
 22 24  1  0  0  0
 24 25  1  0  0  0
 25 26  1  0  0  0
 26 27  1  0  0  0
 27 28  1  0  0  0
 28 29  1  0  0  0
 29 30  1  0  0  0
 21  1  1  0  0  0
  1  2  1  0  0  0
  1 31  1  0  0  0
 31 33  1  0  0  0
 33 34  2  0  0  0
 34 35  1  0  0  0
 35 36  2  0  0  0
 36 37  1  0  0  0
 37 38  2  0  0  0
 37 39  1  0  0  0
 39 40  1  0  0  0
 40 41  1  0  0  0
  1  4  1  0  0  0
  4  5  2  0  0  0
  5  6  1  0  0  0
  6  7  1  0  0  0
  6  8  2  0  0  0
  8  9  1  0  0  0
  9 10  2  0  0  0
 10 11  1  0  0  0
 11 12  1  0  0  0
 12 13  1  0  0  0
 13 14  1  0  0  0
 14 15  1  0  0  0
 15 16  1  0  0  0
 16 17  1  0  0  0
 12 18  1  0  0  0
 30 25  1  0  0  0
 38 33  1  0  0  0
 10  4  1  0  0  0
 17 12  1  0  0  0
 41 36  1  0  0  0
 18  9  1  0  0  0
 22 23  1  0  0  0
  2  3  1  0  0  0
 31 32  1  0  0  0
 40 42  1  0  0  0
 18 19  1  0  0  0
M  END
> <minimizedAffinity>
-9.18577

> <minimizedRMSD>
0.76436

$$$$
P19719


 42 47  0  0  0  0  0  0  0  0999 V2000
   -7.0785    4.5324  -13.6398 C   0  0  0  0  0  0  0  0  0  0  0  0
   -6.5315    5.7918  -13.2613 O   0  0  0  0  0  0  0  0  0  0  0  0
   -6.3557    5.7944  -12.3074 H   0  0  0  0  0  0  0  0  0  0  0  0
   -7.3134    4.6470  -15.1586 C   0  0  0  0  0  0  0  0  0  0  0  0
   -8.4985    4.2120  -15.7915 C   0  0  0  0  0  0  0  0  0  0  0  0
   -8.6474    4.2614  -17.1893 C   0  0  0  0  0  0  0  0  0  0  0  0
  -10.1043    3.7215  -17.9308 Cl  0  0  0  0  0  0  0  0  0  0  0  0
   -7.6349    4.7554  -18.0026 C   0  0  0  0  0  0  0  0  0  0  0  0
   -6.4906    5.2413  -17.4001 C   0  0  0  0  0  0  0  0  0  0  0  0
   -6.3343    5.1918  -16.0077 C   0  0  0  0  0  0  0  0  0  0  0  0
   -4.9842    5.7483  -15.6804 C   0  0  0  0  0  0  0  0  0  0  0  0
   -4.5557    6.4941  -16.8848 N   0  0  0  0  0  0  0  0  0  0  0  0
   -5.2668    5.8491  -18.0379 C   0  0  0  0  0  0  0  0  0  0  0  0
   -5.5844    6.9055  -19.1090 C   0  0  0  0  0  0  0  0  0  0  0  0
   -4.3113    7.4085  -19.7806 C   0  0  0  0  0  0  0  0  0  0  0  0
   -3.5629    6.3341  -20.3427 O   0  0  0  0  0  0  0  0  0  0  0  0
   -3.1642    5.3781  -19.3605 C   0  0  0  0  0  0  0  0  0  0  0  0
   -4.3703    4.7639  -18.6618 C   0  0  0  0  0  0  0  0  0  0  0  0
   -3.5453    6.4233  -17.0059 H   0  0  0  0  0  0  0  0  0  0  0  0
   -6.1869    2.2274  -13.7473 O   0  0  0  0  0  0  0  0  0  0  0  0
   -6.0467    3.3106  -13.3249 C   0  0  0  0  0  0  0  0  0  0  0  0
   -4.8789    3.9275  -12.4896 N   0  0  0  0  0  0  0  0  0  0  0  0
   -5.0321    4.8513  -12.1860 H   0  0  0  0  0  0  0  0  0  0  0  0
   -3.6155    3.3638  -12.0923 C   0  0  0  0  0  0  0  0  0  0  0  0
   -3.3757    3.4157  -10.5761 C   0  0  0  0  0  0  0  0  0  0  0  0
   -2.3886    2.3067  -10.1592 C   0  0  0  0  0  0  0  0  0  0  0  0
   -3.0920    1.0405   -9.6713 C   0  0  0  0  0  0  0  0  0  0  0  0
   -4.3324    0.8792  -10.3493 O   0  0  0  0  0  0  0  0  0  0  0  0
   -5.2873    1.8693   -9.9433 C   0  0  0  0  0  0  0  0  0  0  0  0
   -4.6691    3.2592   -9.7698 C   0  0  0  0  0  0  0  0  0  0  0  0
   -8.3458    4.3181  -12.9160 N   0  0  0  0  0  0  0  0  0  0  0  0
   -9.1793    4.1812  -13.4217 H   0  0  0  0  0  0  0  0  0  0  0  0
   -8.3740    4.3076  -11.5111 C   0  0  0  0  0  0  0  0  0  0  0  0
   -8.0842    5.4531  -10.7396 C   0  0  0  0  0  0  0  0  0  0  0  0
   -8.0977    5.4292   -9.3393 C   0  0  0  0  0  0  0  0  0  0  0  0
   -8.4599    4.2546   -8.7143 C   0  0  0  0  0  0  0  0  0  0  0  0
   -8.7877    3.1256   -9.4540 C   0  0  0  0  0  0  0  0  0  0  0  0
   -8.7424    3.1332  -10.8397 C   0  0  0  0  0  0  0  0  0  0  0  0
   -9.1520    2.0203   -8.5188 C   0  0  0  0  0  0  0  0  0  0  0  0
   -9.3775    2.6848   -7.2048 N   0  0  0  0  0  0  0  0  0  0  0  0
   -8.6003    3.9444   -7.2627 C   0  0  0  0  0  0  0  0  0  0  0  0
   -9.0428    2.0937   -6.4439 H   0  0  0  0  0  0  0  0  0  0  0  0
 20 21  2  0  0  0
 21 22  1  0  0  0
 22 24  1  0  0  0
 24 25  1  0  0  0
 25 26  1  0  0  0
 26 27  1  0  0  0
 27 28  1  0  0  0
 28 29  1  0  0  0
 29 30  1  0  0  0
 21  1  1  0  0  0
  1  2  1  0  0  0
  1 31  1  0  0  0
 31 33  1  0  0  0
 33 34  2  0  0  0
 34 35  1  0  0  0
 35 36  2  0  0  0
 36 37  1  0  0  0
 37 38  2  0  0  0
 37 39  1  0  0  0
 39 40  1  0  0  0
 40 41  1  0  0  0
  1  4  1  0  0  0
  4  5  2  0  0  0
  5  6  1  0  0  0
  6  7  1  0  0  0
  6  8  2  0  0  0
  8  9  1  0  0  0
  9 10  2  0  0  0
 10 11  1  0  0  0
 11 12  1  0  0  0
 12 13  1  0  0  0
 13 14  1  0  0  0
 14 15  1  0  0  0
 15 16  1  0  0  0
 16 17  1  0  0  0
 17 18  1  0  0  0
 30 25  1  0  0  0
 38 33  1  0  0  0
 10  4  1  0  0  0
 18 13  1  0  0  0
 41 36  1  0  0  0
 13  9  1  0  0  0
 22 23  1  0  0  0
  2  3  1  0  0  0
 31 32  1  0  0  0
 40 42  1  0  0  0
 12 19  1  0  0  0
M  END
> <minimizedAffinity>
-9.00522

> <minimizedRMSD>
0.96347

$$$$
P19720


 29 33  0  0  0  0  0  0  0  0999 V2000
   -9.5815    4.5175  -17.7665 C   0  0  0  0  0  0  0  0  0  0  0  0
   -8.3398    4.5323  -16.9188 C   0  0  0  0  0  0  0  0  0  0  0  0
   -8.4249    4.2276  -15.5477 C   0  0  0  0  0  0  0  0  0  0  0  0
   -7.2850    4.1896  -14.7281 C   0  0  0  0  0  0  0  0  0  0  0  0
   -6.0754    4.5682  -15.2532 C   0  0  0  0  0  0  0  0  0  0  0  0
   -5.9822    4.7736  -16.6135 C   0  0  0  0  0  0  0  0  0  0  0  0
   -7.0705    4.7537  -17.4682 C   0  0  0  0  0  0  0  0  0  0  0  0
   -6.8121    5.0753  -18.9090 C   0  0  0  0  0  0  0  0  0  0  0  0
   -5.4114    4.9261  -19.3397 N   0  0  0  0  0  0  0  0  0  0  0  0
   -4.5470    5.5196  -18.3264 C   0  0  0  0  0  0  0  0  0  0  0  0
   -4.6475    4.9600  -16.9916 N   0  0  0  0  0  0  0  0  0  0  0  0
   -3.9166    5.3577  -15.8351 N   0  0  0  0  0  0  0  0  0  0  0  0
   -4.7071    4.7591  -14.6974 C   0  0  0  0  0  0  0  0  0  0  0  0
   -5.2734    5.4026  -20.2309 H   0  0  0  0  0  0  0  0  0  0  0  0
   -3.8797    6.3742  -15.7586 H   0  0  0  0  0  0  0  0  0  0  0  0
   -7.3743    3.5586  -13.4004 C   0  0  0  0  0  0  0  0  0  0  0  0
   -7.2285    2.4051  -13.3150 O   0  0  0  0  0  0  0  0  0  0  0  0
   -7.7049    4.6054  -12.3213 N   0  0  0  0  0  0  0  0  0  0  0  0
   -7.7006    5.5380  -12.6369 H   0  0  0  0  0  0  0  0  0  0  0  0
   -8.0085    4.4486  -10.9741 C   0  0  0  0  0  0  0  0  0  0  0  0
   -7.8329    5.5396  -10.1096 C   0  0  0  0  0  0  0  0  0  0  0  0
   -8.1079    5.4133   -8.7447 C   0  0  0  0  0  0  0  0  0  0  0  0
   -8.5955    4.2033   -8.2840 C   0  0  0  0  0  0  0  0  0  0  0  0
   -8.7977    3.1330   -9.1475 C   0  0  0  0  0  0  0  0  0  0  0  0
   -8.4891    3.2288  -10.4911 C   0  0  0  0  0  0  0  0  0  0  0  0
   -9.3269    1.9704   -8.3781 C   0  0  0  0  0  0  0  0  0  0  0  0
   -9.7450    2.5340   -7.0644 N   0  0  0  0  0  0  0  0  0  0  0  0
   -8.9637    3.7812   -6.9019 C   0  0  0  0  0  0  0  0  0  0  0  0
   -9.5321    1.8795   -6.3117 H   0  0  0  0  0  0  0  0  0  0  0  0
  1  2  1  0  0  0
  2  3  2  0  0  0
  3  4  1  0  0  0
  4 16  1  0  0  0
 16 17  2  0  0  0
 16 18  1  0  0  0
 18 20  1  0  0  0
 20 21  2  0  0  0
 21 22  1  0  0  0
 22 23  2  0  0  0
 23 24  1  0  0  0
 24 25  2  0  0  0
 24 26  1  0  0  0
 26 27  1  0  0  0
 27 28  1  0  0  0
  4  5  2  0  0  0
  5  6  1  0  0  0
  6  7  2  0  0  0
  7  8  1  0  0  0
  8  9  1  0  0  0
  9 10  1  0  0  0
 10 11  1  0  0  0
 11 12  1  0  0  0
 12 13  1  0  0  0
  7  2  1  0  0  0
 25 20  1  0  0  0
 13  5  1  0  0  0
 28 23  1  0  0  0
 11  6  1  0  0  0
 18 19  1  0  0  0
 27 29  1  0  0  0
  9 14  1  0  0  0
 12 15  1  0  0  0
M  END
> <minimizedAffinity>
-8.07731

> <minimizedRMSD>
0.29263

$$$$
P19722


 30 34  0  0  0  0  0  0  0  0999 V2000
   -9.7981    4.5132  -18.0413 C   0  0  0  0  0  0  0  0  0  0  0  0
   -8.5880    4.6865  -17.1682 C   0  0  0  0  0  0  0  0  0  0  0  0
   -8.6164    4.2282  -15.8547 C   0  0  0  0  0  0  0  0  0  0  0  0
   -7.4900    4.3815  -15.0475 C   0  0  0  0  0  0  0  0  0  0  0  0
   -6.3905    5.0303  -15.5594 C   0  0  0  0  0  0  0  0  0  0  0  0
   -6.4342    5.4286  -16.8813 C   0  0  0  0  0  0  0  0  0  0  0  0
   -7.4978    5.2908  -17.6953 N   0  0  0  0  0  0  0  0  0  0  0  0
   -5.0371    5.8877  -17.2670 C   0  0  0  0  0  0  0  0  0  0  0  0
   -4.2820    4.8319  -18.0664 C   0  0  0  0  0  0  0  0  0  0  0  0
   -4.7109    5.1319  -19.4907 C   0  0  0  0  0  0  0  0  0  0  0  0
   -5.1455    6.5991  -19.4567 C   0  0  0  0  0  0  0  0  0  0  0  0
   -4.9338    7.0936  -18.0768 N   0  0  0  0  0  0  0  0  0  0  0  0
   -4.3633    6.1857  -15.9963 N   0  0  0  0  0  0  0  0  0  0  0  0
   -5.0401    5.3036  -15.0028 C   0  0  0  0  0  0  0  0  0  0  0  0
   -5.6516    7.7702  -17.8173 H   0  0  0  0  0  0  0  0  0  0  0  0
   -4.4812    7.1676  -15.7467 H   0  0  0  0  0  0  0  0  0  0  0  0
   -7.4756    3.7374  -13.7185 C   0  0  0  0  0  0  0  0  0  0  0  0
   -7.1935    2.6094  -13.6388 O   0  0  0  0  0  0  0  0  0  0  0  0
   -7.8730    4.7478  -12.6241 N   0  0  0  0  0  0  0  0  0  0  0  0
   -7.9916    5.6726  -12.9404 H   0  0  0  0  0  0  0  0  0  0  0  0
   -8.0912    4.5658  -11.2626 C   0  0  0  0  0  0  0  0  0  0  0  0
   -7.9340    5.6663  -10.4036 C   0  0  0  0  0  0  0  0  0  0  0  0
   -8.1202    5.5245   -9.0255 C   0  0  0  0  0  0  0  0  0  0  0  0
   -8.4841    4.2814   -8.5389 C   0  0  0  0  0  0  0  0  0  0  0  0
   -8.6787    3.2022   -9.3931 C   0  0  0  0  0  0  0  0  0  0  0  0
   -8.4744    3.3205  -10.7570 C   0  0  0  0  0  0  0  0  0  0  0  0
   -9.1371    2.0196   -8.6078 C   0  0  0  0  0  0  0  0  0  0  0  0
   -8.9177    2.3847   -7.1785 N   0  0  0  0  0  0  0  0  0  0  0  0
   -8.7624    3.8558   -7.1392 C   0  0  0  0  0  0  0  0  0  0  0  0
   -8.0750    1.9319   -6.8245 H   0  0  0  0  0  0  0  0  0  0  0  0
  1  2  1  0  0  0
  2  3  2  0  0  0
  3  4  1  0  0  0
  4 17  1  0  0  0
 17 18  2  0  0  0
 17 19  1  0  0  0
 19 21  1  0  0  0
 21 22  2  0  0  0
 22 23  1  0  0  0
 23 24  2  0  0  0
 24 25  1  0  0  0
 25 26  2  0  0  0
 25 27  1  0  0  0
 27 28  1  0  0  0
 28 29  1  0  0  0
  4  5  2  0  0  0
  5  6  1  0  0  0
  6  7  2  0  0  0
  6  8  1  0  0  0
  8  9  1  0  0  0
  9 10  1  0  0  0
 10 11  1  0  0  0
 11 12  1  0  0  0
  8 13  1  0  0  0
 13 14  1  0  0  0
  7  2  1  0  0  0
 12  8  1  0  0  0
 26 21  1  0  0  0
 14  5  1  0  0  0
 29 24  1  0  0  0
 19 20  1  0  0  0
 28 30  1  0  0  0
 12 15  1  0  0  0
 13 16  1  0  0  0
M  END
> <minimizedAffinity>
-8.59676

> <minimizedRMSD>
0.38516

$$$$
P19723


 27 31  0  0  0  0  0  0  0  0999 V2000
   -7.1984    3.4218  -13.3275 C   0  0  0  0  0  0  0  0  0  0  0  0
   -7.2567    2.2585  -13.2774 O   0  0  0  0  0  0  0  0  0  0  0  0
   -7.4089    4.4820  -12.2260 N   0  0  0  0  0  0  0  0  0  0  0  0
   -7.2271    5.4084  -12.5054 H   0  0  0  0  0  0  0  0  0  0  0  0
   -3.8175    5.7668  -17.8377 C   0  0  0  0  0  0  0  0  0  0  0  0
   -4.3452    5.3654  -16.5596 N   0  0  0  0  0  0  0  0  0  0  0  0
   -3.5488    5.3665  -15.4510 N   0  0  0  0  0  0  0  0  0  0  0  0
   -4.3280    4.8380  -14.4816 C   0  0  0  0  0  0  0  0  0  0  0  0
   -5.5923    4.6055  -14.9764 C   0  0  0  0  0  0  0  0  0  0  0  0
   -6.8153    4.0832  -14.5707 C   0  0  0  0  0  0  0  0  0  0  0  0
   -7.6382    4.2810  -15.6902 C   0  0  0  0  0  0  0  0  0  0  0  0
   -8.9864    4.1633  -15.8871 N   0  0  0  0  0  0  0  0  0  0  0  0
   -9.4013    4.2462  -17.1154 C   0  0  0  0  0  0  0  0  0  0  0  0
   -8.5512    4.3827  -18.3217 C   0  0  0  0  0  0  0  0  0  0  0  0
   -7.2527    4.5909  -18.0776 C   0  0  0  0  0  0  0  0  0  0  0  0
   -6.8088    4.6197  -16.7748 N   0  0  0  0  0  0  0  0  0  0  0  0
   -5.5904    4.9286  -16.2778 C   0  0  0  0  0  0  0  0  0  0  0  0
   -7.8144    4.3415  -10.9000 C   0  0  0  0  0  0  0  0  0  0  0  0
   -7.6100    5.4173  -10.0185 C   0  0  0  0  0  0  0  0  0  0  0  0
   -7.9513    5.3069   -8.6663 C   0  0  0  0  0  0  0  0  0  0  0  0
   -8.5209    4.1242   -8.2293 C   0  0  0  0  0  0  0  0  0  0  0  0
   -8.7508    3.0686   -9.1055 C   0  0  0  0  0  0  0  0  0  0  0  0
   -8.3933    3.1535  -10.4411 C   0  0  0  0  0  0  0  0  0  0  0  0
   -9.3626    1.9291   -8.3570 C   0  0  0  0  0  0  0  0  0  0  0  0
   -9.7809    2.5065   -7.0471 N   0  0  0  0  0  0  0  0  0  0  0  0
   -8.9523    3.7179   -6.8610 C   0  0  0  0  0  0  0  0  0  0  0  0
   -9.6107    1.8400   -6.2939 H   0  0  0  0  0  0  0  0  0  0  0  0
  5  6  1  0  0  0
  6  7  1  0  0  0
  7  8  2  0  0  0
  8  9  1  0  0  0
  9 10  1  0  0  0
 10  1  1  0  0  0
  1  2  2  0  0  0
  1  3  1  0  0  0
  3 18  1  0  0  0
 18 19  2  0  0  0
 19 20  1  0  0  0
 20 21  2  0  0  0
 21 22  1  0  0  0
 22 23  2  0  0  0
 22 24  1  0  0  0
 24 25  1  0  0  0
 25 26  1  0  0  0
 10 11  2  0  0  0
 11 12  1  0  0  0
 12 13  2  0  0  0
 13 14  1  0  0  0
 14 15  2  0  0  0
 15 16  1  0  0  0
 16 17  1  0  0  0
 17  6  1  0  0  0
 17  9  2  0  0  0
 23 18  1  0  0  0
 16 11  1  0  0  0
 26 21  1  0  0  0
  3  4  1  0  0  0
 25 27  1  0  0  0
M  END
> <minimizedAffinity>
-7.92186

> <minimizedRMSD>
0.84160

$$$$
P19724


 32 36  0  0  0  0  0  0  0  0999 V2000
   -5.2422    6.0295  -16.9869 N   0  0  0  0  0  0  0  0  0  0  0  0
   -4.4953    6.6045  -15.9937 N   0  0  0  0  0  0  0  0  0  0  0  0
   -5.1799    6.3747  -14.8712 C   0  0  0  0  0  0  0  0  0  0  0  0
   -6.3691    5.6962  -15.1274 C   0  0  0  0  0  0  0  0  0  0  0  0
   -7.4490    5.2756  -14.2995 C   0  0  0  0  0  0  0  0  0  0  0  0
   -8.5343    4.6847  -14.8421 C   0  0  0  0  0  0  0  0  0  0  0  0
   -8.5979    4.4782  -16.2521 C   0  0  0  0  0  0  0  0  0  0  0  0
   -9.6187    4.0628  -17.0793 C   0  0  0  0  0  0  0  0  0  0  0  0
   -9.0984    4.0213  -18.3811 C   0  0  0  0  0  0  0  0  0  0  0  0
   -7.7814    4.4270  -18.3167 C   0  0  0  0  0  0  0  0  0  0  0  0
   -7.4920    4.8217  -17.0427 N   0  0  0  0  0  0  0  0  0  0  0  0
   -6.3878    5.4685  -16.4858 C   0  0  0  0  0  0  0  0  0  0  0  0
   -7.4701    5.6485  -12.8507 C   0  0  0  0  0  0  0  0  0  0  0  0
   -7.0558    6.6795  -12.4885 O   0  0  0  0  0  0  0  0  0  0  0  0
   -8.1037    4.4826  -12.0491 N   0  0  0  0  0  0  0  0  0  0  0  0
   -8.4477    3.7427  -12.6000 H   0  0  0  0  0  0  0  0  0  0  0  0
   -8.2648    4.3122  -10.6801 C   0  0  0  0  0  0  0  0  0  0  0  0
   -8.0340    5.3774   -9.7938 C   0  0  0  0  0  0  0  0  0  0  0  0
   -8.1885    5.2065   -8.4179 C   0  0  0  0  0  0  0  0  0  0  0  0
   -8.5743    3.9625   -7.9589 C   0  0  0  0  0  0  0  0  0  0  0  0
   -8.8163    2.9104   -8.8367 C   0  0  0  0  0  0  0  0  0  0  0  0
   -8.6677    3.0636  -10.2034 C   0  0  0  0  0  0  0  0  0  0  0  0
   -9.2443    1.7102   -8.0635 C   0  0  0  0  0  0  0  0  0  0  0  0
   -8.9718    2.0383   -6.6365 N   0  0  0  0  0  0  0  0  0  0  0  0
   -8.8323    3.5099   -6.5650 C   0  0  0  0  0  0  0  0  0  0  0  0
   -8.1103    1.5870   -6.3292 H   0  0  0  0  0  0  0  0  0  0  0  0
   -5.6613    7.3392  -19.0343 C   0  0  0  0  0  0  0  0  0  0  0  0
   -4.7790    6.3062  -18.3416 C   0  0  0  0  0  0  0  0  0  0  0  0
   -4.4682    5.0667  -19.2014 C   0  0  0  0  0  0  0  0  0  0  0  0
   -3.1100    4.5479  -19.0140 N   0  0  0  0  0  0  0  0  0  0  0  0
   -2.4333    5.2572  -19.2957 H   0  0  0  0  0  0  0  0  0  0  0  0
   -2.9837    3.7118  -19.5844 H   0  0  0  0  0  0  0  0  0  0  0  0
 28 27  1  0  0  0
 28 29  1  0  0  0
 29 30  1  0  0  0
 28  1  1  0  0  0
  1  2  1  0  0  0
  2  3  2  0  0  0
  3  4  1  0  0  0
  4  5  1  0  0  0
  5 13  1  0  0  0
 13 14  2  0  0  0
 13 15  1  0  0  0
 15 17  1  0  0  0
 17 18  2  0  0  0
 18 19  1  0  0  0
 19 20  2  0  0  0
 20 21  1  0  0  0
 21 22  2  0  0  0
 21 23  1  0  0  0
 23 24  1  0  0  0
 24 25  1  0  0  0
  5  6  2  0  0  0
  6  7  1  0  0  0
  7  8  2  0  0  0
  8  9  1  0  0  0
  9 10  2  0  0  0
 10 11  1  0  0  0
 11 12  1  0  0  0
 12  1  1  0  0  0
 12  4  2  0  0  0
 22 17  1  0  0  0
 11  7  1  0  0  0
 25 20  1  0  0  0
 30 31  1  0  0  0
 30 32  1  0  0  0
 15 16  1  0  0  0
 24 26  1  0  0  0
M  END
> <minimizedAffinity>
-7.62742

> <minimizedRMSD>
0.44278

$$$$
P19734


 29 32  0  0  0  0  0  0  0  0999 V2000
   -7.4239    3.8586  -13.9469 C   0  0  0  0  0  0  0  0  0  0  0  0
   -7.0606    2.7568  -13.8414 O   0  0  0  0  0  0  0  0  0  0  0  0
   -7.8834    4.8671  -12.8736 N   0  0  0  0  0  0  0  0  0  0  0  0
   -8.0713    5.7722  -13.2121 H   0  0  0  0  0  0  0  0  0  0  0  0
  -10.0535    4.2236  -18.1346 C   0  0  0  0  0  0  0  0  0  0  0  0
   -8.8527    4.6186  -17.3198 C   0  0  0  0  0  0  0  0  0  0  0  0
   -8.7043    4.1166  -16.0353 C   0  0  0  0  0  0  0  0  0  0  0  0
   -7.5666    4.4436  -15.2916 C   0  0  0  0  0  0  0  0  0  0  0  0
   -6.6131    5.2992  -15.8581 C   0  0  0  0  0  0  0  0  0  0  0  0
   -5.3409    5.8666  -15.5578 C   0  0  0  0  0  0  0  0  0  0  0  0
   -4.9362    6.7046  -16.5256 N   0  0  0  0  0  0  0  0  0  0  0  0
   -5.8625    6.5613  -17.4905 N   0  0  0  0  0  0  0  0  0  0  0  0
   -5.6992    7.2212  -18.7603 C   0  0  0  0  0  0  0  0  0  0  0  0
   -6.9050    5.7628  -17.1318 C   0  0  0  0  0  0  0  0  0  0  0  0
   -7.9808    5.4793  -17.8846 N   0  0  0  0  0  0  0  0  0  0  0  0
   -4.6311    5.5604  -14.4477 N   0  0  0  0  0  0  0  0  0  0  0  0
   -3.3609    6.2243  -14.5423 F   0  0  0  0  0  0  0  0  0  0  0  0
   -4.9314    4.9853  -13.7073 H   0  0  0  0  0  0  0  0  0  0  0  0
   -8.0758    4.7051  -11.5026 C   0  0  0  0  0  0  0  0  0  0  0  0
   -7.9232    5.8244  -10.6666 C   0  0  0  0  0  0  0  0  0  0  0  0
   -8.0955    5.7220   -9.2753 C   0  0  0  0  0  0  0  0  0  0  0  0
   -7.8739    6.9158   -8.3990 C   0  0  0  0  0  0  0  0  0  0  0  0
   -8.4286    4.4753   -8.7589 C   0  0  0  0  0  0  0  0  0  0  0  0
   -8.6264    3.3780   -9.5926 C   0  0  0  0  0  0  0  0  0  0  0  0
   -8.4422    3.4695  -10.9637 C   0  0  0  0  0  0  0  0  0  0  0  0
   -9.0591    2.2012   -8.7816 C   0  0  0  0  0  0  0  0  0  0  0  0
   -8.8249    2.5858   -7.3620 N   0  0  0  0  0  0  0  0  0  0  0  0
   -8.6597    4.0550   -7.3452 C   0  0  0  0  0  0  0  0  0  0  0  0
   -7.9821    2.1326   -7.0089 H   0  0  0  0  0  0  0  0  0  0  0  0
  5  6  1  0  0  0
  6  7  2  0  0  0
  7  8  1  0  0  0
  8  1  1  0  0  0
  1  2  2  0  0  0
  1  3  1  0  0  0
  3 19  1  0  0  0
 19 20  2  0  0  0
 20 21  1  0  0  0
 21 22  1  0  0  0
 21 23  2  0  0  0
 23 24  1  0  0  0
 24 25  2  0  0  0
 24 26  1  0  0  0
 26 27  1  0  0  0
 27 28  1  0  0  0
  8  9  2  0  0  0
  9 10  1  0  0  0
 10 16  1  0  0  0
 16 17  1  0  0  0
 10 11  2  0  0  0
 11 12  1  0  0  0
 12 13  1  0  0  0
 12 14  1  0  0  0
 14 15  2  0  0  0
 15  6  1  0  0  0
 25 19  1  0  0  0
 14  9  1  0  0  0
 28 23  1  0  0  0
  3  4  1  0  0  0
 27 29  1  0  0  0
 16 18  1  0  0  0
M  END
> <minimizedAffinity>
-7.50672

> <minimizedRMSD>
0.34029

$$$$
P19735


 27 30  0  0  0  0  0  0  0  0999 V2000
   -7.3026    3.5439  -13.5941 C   0  0  0  0  0  0  0  0  0  0  0  0
   -7.0664    2.4113  -13.4490 O   0  0  0  0  0  0  0  0  0  0  0  0
   -7.8052    4.5982  -12.5854 N   0  0  0  0  0  0  0  0  0  0  0  0
   -8.0032    5.4802  -12.9753 H   0  0  0  0  0  0  0  0  0  0  0  0
   -8.0250    4.5047  -11.2090 C   0  0  0  0  0  0  0  0  0  0  0  0
   -8.4141    3.2772  -10.6577 C   0  0  0  0  0  0  0  0  0  0  0  0
   -8.6696    3.2100   -9.3000 C   0  0  0  0  0  0  0  0  0  0  0  0
   -8.5174    4.3220   -8.4845 C   0  0  0  0  0  0  0  0  0  0  0  0
   -8.1464    5.5483   -9.0077 C   0  0  0  0  0  0  0  0  0  0  0  0
   -7.9066    5.6550  -10.3900 C   0  0  0  0  0  0  0  0  0  0  0  0
   -7.5218    6.9951  -10.9521 C   0  0  0  0  0  0  0  0  0  0  0  0
   -8.8512    3.9499   -7.0814 C   0  0  0  0  0  0  0  0  0  0  0  0
   -8.9809    2.4758   -7.0672 N   0  0  0  0  0  0  0  0  0  0  0  0
   -9.1583    2.0576   -8.4884 C   0  0  0  0  0  0  0  0  0  0  0  0
   -9.7911    2.1978   -6.5134 H   0  0  0  0  0  0  0  0  0  0  0  0
   -8.3551    4.7306  -16.9719 C   0  0  0  0  0  0  0  0  0  0  0  0
   -8.4097    4.2560  -15.6666 C   0  0  0  0  0  0  0  0  0  0  0  0
   -7.2292    4.1302  -14.9388 C   0  0  0  0  0  0  0  0  0  0  0  0
   -6.0294    4.5170  -15.5373 C   0  0  0  0  0  0  0  0  0  0  0  0
   -4.6582    4.6043  -15.2271 C   0  0  0  0  0  0  0  0  0  0  0  0
   -3.9145    5.0229  -16.2611 N   0  0  0  0  0  0  0  0  0  0  0  0
   -4.8154    5.1088  -17.2699 N   0  0  0  0  0  0  0  0  0  0  0  0
   -4.3653    5.2430  -18.6320 C   0  0  0  0  0  0  0  0  0  0  0  0
   -6.1061    4.9386  -16.8561 C   0  0  0  0  0  0  0  0  0  0  0  0
   -7.2142    5.0889  -17.5996 N   0  0  0  0  0  0  0  0  0  0  0  0
  -10.2620    3.5544  -18.0677 C   0  0  0  0  0  0  0  0  0  0  0  0
   -9.6338    4.8787  -17.7510 C   0  0  0  0  0  0  0  0  0  0  0  0
 26 27  1  0  0  0
 27 16  1  0  0  0
 16 17  2  0  0  0
 17 18  1  0  0  0
 18  1  1  0  0  0
  1  2  2  0  0  0
  1  3  1  0  0  0
  3  5  1  0  0  0
  5  6  2  0  0  0
  6  7  1  0  0  0
  7  8  2  0  0  0
  8  9  1  0  0  0
  9 10  2  0  0  0
 10 11  1  0  0  0
  8 12  1  0  0  0
 12 13  1  0  0  0
 13 14  1  0  0  0
 18 19  2  0  0  0
 19 20  1  0  0  0
 20 21  2  0  0  0
 21 22  1  0  0  0
 22 23  1  0  0  0
 22 24  1  0  0  0
 24 25  2  0  0  0
 25 16  1  0  0  0
 10  5  1  0  0  0
 24 19  1  0  0  0
 14  7  1  0  0  0
  3  4  1  0  0  0
 13 15  1  0  0  0
M  END
> <minimizedAffinity>
-7.95713

> <minimizedRMSD>
0.47634

$$$$
P19746


 25 28  0  0  0  0  0  0  0  0999 V2000
   -8.2159    4.4246  -13.9406 C   0  0  0  0  0  0  0  0  0  0  0  0
   -8.9870    5.2821  -13.5178 O   0  0  0  0  0  0  0  0  0  0  0  0
  -10.0071    4.3428  -18.5352 C   0  0  0  0  0  0  0  0  0  0  0  0
   -8.8226    4.4183  -17.6145 C   0  0  0  0  0  0  0  0  0  0  0  0
   -9.0189    4.2986  -16.2466 C   0  0  0  0  0  0  0  0  0  0  0  0
   -7.9313    4.4113  -15.3723 C   0  0  0  0  0  0  0  0  0  0  0  0
   -6.6688    4.6643  -15.9161 C   0  0  0  0  0  0  0  0  0  0  0  0
   -5.3441    4.9162  -15.4966 C   0  0  0  0  0  0  0  0  0  0  0  0
   -4.5111    5.1790  -16.5141 N   0  0  0  0  0  0  0  0  0  0  0  0
   -5.3010    5.0228  -17.6040 N   0  0  0  0  0  0  0  0  0  0  0  0
   -4.7623    5.1480  -18.9351 C   0  0  0  0  0  0  0  0  0  0  0  0
   -6.6071    4.7685  -17.2972 C   0  0  0  0  0  0  0  0  0  0  0  0
   -7.6209    4.6607  -18.1720 N   0  0  0  0  0  0  0  0  0  0  0  0
   -7.6293    3.4044  -12.9832 C   0  0  0  0  0  0  0  0  0  0  0  0
   -7.0726    2.3929  -13.3815 O   0  0  0  0  0  0  0  0  0  0  0  0
   -7.7654    3.7150  -11.5413 C   0  0  0  0  0  0  0  0  0  0  0  0
   -7.1046    4.8376  -11.0040 C   0  0  0  0  0  0  0  0  0  0  0  0
   -7.2008    5.1271   -9.6398 C   0  0  0  0  0  0  0  0  0  0  0  0
   -7.9648    4.2884   -8.8473 C   0  0  0  0  0  0  0  0  0  0  0  0
   -8.6550    3.2099   -9.3931 C   0  0  0  0  0  0  0  0  0  0  0  0
   -8.5595    2.8957  -10.7388 C   0  0  0  0  0  0  0  0  0  0  0  0
   -9.4344    2.5311   -8.3190 C   0  0  0  0  0  0  0  0  0  0  0  0
   -8.9035    3.0712   -7.0361 N   0  0  0  0  0  0  0  0  0  0  0  0
   -8.1971    4.3282   -7.3753 C   0  0  0  0  0  0  0  0  0  0  0  0
   -8.2566    2.4054   -6.6134 H   0  0  0  0  0  0  0  0  0  0  0  0
  3  4  1  0  0  0
  4  5  2  0  0  0
  5  6  1  0  0  0
  6  1  1  0  0  0
  1  2  2  0  0  0
  1 14  1  0  0  0
 14 15  2  0  0  0
 14 16  1  0  0  0
 16 17  2  0  0  0
 17 18  1  0  0  0
 18 19  2  0  0  0
 19 20  1  0  0  0
 20 21  2  0  0  0
 20 22  1  0  0  0
 22 23  1  0  0  0
 23 24  1  0  0  0
  6  7  2  0  0  0
  7  8  1  0  0  0
  8  9  2  0  0  0
  9 10  1  0  0  0
 10 11  1  0  0  0
 10 12  1  0  0  0
 12 13  2  0  0  0
 13  4  1  0  0  0
 21 16  1  0  0  0
 12  7  1  0  0  0
 24 19  1  0  0  0
 23 25  1  0  0  0
M  END
> <minimizedAffinity>
-7.96365

> <minimizedRMSD>
0.85037

$$$$
P19747


 27 30  0  0  0  0  0  0  0  0999 V2000
   -6.7655    4.3709  -13.7309 C   0  0  0  0  0  0  0  0  0  0  0  0
   -5.8597    5.0171  -13.2161 O   0  0  0  0  0  0  0  0  0  0  0  0
   -5.2337    5.0905  -18.2339 C   0  0  0  0  0  0  0  0  0  0  0  0
   -6.4043    4.8497  -17.5516 C   0  0  0  0  0  0  0  0  0  0  0  0
   -7.6151    4.6509  -18.0994 N   0  0  0  0  0  0  0  0  0  0  0  0
   -8.5652    4.3440  -17.1666 C   0  0  0  0  0  0  0  0  0  0  0  0
   -9.9344    4.0604  -17.7297 C   0  0  0  0  0  0  0  0  0  0  0  0
   -8.3589    4.2870  -15.7532 C   0  0  0  0  0  0  0  0  0  0  0  0
   -7.0941    4.5047  -15.1655 C   0  0  0  0  0  0  0  0  0  0  0  0
   -6.1468    4.7926  -16.1575 C   0  0  0  0  0  0  0  0  0  0  0  0
   -4.8018    5.0402  -16.0088 C   0  0  0  0  0  0  0  0  0  0  0  0
   -4.2511    5.1855  -17.2665 N   0  0  0  0  0  0  0  0  0  0  0  0
   -2.8327    5.3582  -17.4945 C   0  0  0  0  0  0  0  0  0  0  0  0
   -4.8481    6.5745  -20.2226 C   0  0  0  0  0  0  0  0  0  0  0  0
   -4.9950    5.1517  -19.7081 C   0  0  0  0  0  0  0  0  0  0  0  0
   -7.4482    3.3866  -12.8295 C   0  0  0  0  0  0  0  0  0  0  0  0
   -7.4831    2.2170  -13.1814 O   0  0  0  0  0  0  0  0  0  0  0  0
   -7.8894    3.7586  -11.4681 C   0  0  0  0  0  0  0  0  0  0  0  0
   -7.6834    5.0313  -10.9061 C   0  0  0  0  0  0  0  0  0  0  0  0
   -8.0035    5.2656   -9.5619 C   0  0  0  0  0  0  0  0  0  0  0  0
   -8.5153    4.2172   -8.8123 C   0  0  0  0  0  0  0  0  0  0  0  0
   -8.7375    2.9684   -9.3761 C   0  0  0  0  0  0  0  0  0  0  0  0
   -8.4475    2.7280  -10.7004 C   0  0  0  0  0  0  0  0  0  0  0  0
   -9.2114    2.0138   -8.3347 C   0  0  0  0  0  0  0  0  0  0  0  0
   -9.5703    2.8665   -7.1695 N   0  0  0  0  0  0  0  0  0  0  0  0
   -8.8497    4.1474   -7.3611 C   0  0  0  0  0  0  0  0  0  0  0  0
   -9.2757    2.4210   -6.3005 H   0  0  0  0  0  0  0  0  0  0  0  0
 14 15  1  0  0  0
 15  3  1  0  0  0
  3  4  2  0  0  0
  4  5  1  0  0  0
  5  6  2  0  0  0
  6  7  1  0  0  0
  6  8  1  0  0  0
  8  9  2  0  0  0
  9  1  1  0  0  0
  1  2  2  0  0  0
  1 16  1  0  0  0
 16 17  2  0  0  0
 16 18  1  0  0  0
 18 19  2  0  0  0
 19 20  1  0  0  0
 20 21  2  0  0  0
 21 22  1  0  0  0
 22 23  2  0  0  0
 22 24  1  0  0  0
 24 25  1  0  0  0
 25 26  1  0  0  0
  9 10  1  0  0  0
 10 11  2  0  0  0
 11 12  1  0  0  0
 12 13  1  0  0  0
 12  3  1  0  0  0
 10  4  1  0  0  0
 23 18  1  0  0  0
 26 21  1  0  0  0
 25 27  1  0  0  0
M  END
> <minimizedAffinity>
-7.67142

> <minimizedRMSD>
1.14462

$$$$
P19760


 33 36  0  0  0  0  0  0  0  0999 V2000
   -7.5721    4.1990  -13.7311 C   0  0  0  0  0  0  0  0  0  0  0  0
   -8.9461    4.2114  -13.4149 O   0  0  0  0  0  0  0  0  0  0  0  0
   -9.3224    5.0760  -13.6425 H   0  0  0  0  0  0  0  0  0  0  0  0
  -10.0195    4.1471  -18.1409 C   0  0  0  0  0  0  0  0  0  0  0  0
   -8.7310    4.3707  -17.4047 C   0  0  0  0  0  0  0  0  0  0  0  0
   -8.6947    4.2617  -16.0195 C   0  0  0  0  0  0  0  0  0  0  0  0
   -7.5147    4.4751  -15.2458 C   0  0  0  0  0  0  0  0  0  0  0  0
   -6.3878    4.8138  -16.0260 C   0  0  0  0  0  0  0  0  0  0  0  0
   -5.0175    5.1293  -15.8480 C   0  0  0  0  0  0  0  0  0  0  0  0
   -4.3566    5.3253  -17.0006 N   0  0  0  0  0  0  0  0  0  0  0  0
   -5.3040    5.0778  -17.9349 N   0  0  0  0  0  0  0  0  0  0  0  0
   -4.9919    4.9632  -19.3399 C   0  0  0  0  0  0  0  0  0  0  0  0
   -6.5409    4.8605  -17.4068 C   0  0  0  0  0  0  0  0  0  0  0  0
   -7.6534    4.6761  -18.1309 N   0  0  0  0  0  0  0  0  0  0  0  0
   -6.7342    2.8288  -13.4267 C   0  0  0  0  0  0  0  0  0  0  0  0
   -7.2389    1.7735  -13.4238 O   0  0  0  0  0  0  0  0  0  0  0  0
   -5.2634    3.2429  -13.1348 N   0  0  0  0  0  0  0  0  0  0  0  0
   -5.0674    4.1970  -13.2782 H   0  0  0  0  0  0  0  0  0  0  0  0
   -4.1378    2.4543  -12.6873 C   0  0  0  0  0  0  0  0  0  0  0  0
   -3.2994    1.9854  -13.8706 C   0  0  0  0  0  0  0  0  0  0  0  0
   -3.2980    3.2463  -11.6927 C   0  0  0  0  0  0  0  0  0  0  0  0
   -7.0248    5.3026  -12.9304 N   0  0  0  0  0  0  0  0  0  0  0  0
   -6.3683    5.9316  -13.3080 H   0  0  0  0  0  0  0  0  0  0  0  0
   -7.4825    5.4277  -11.5817 C   0  0  0  0  0  0  0  0  0  0  0  0
   -7.7105    6.7342  -11.0991 C   0  0  0  0  0  0  0  0  0  0  0  0
   -8.0814    6.9790   -9.7685 C   0  0  0  0  0  0  0  0  0  0  0  0
   -8.2095    5.9035   -8.9105 C   0  0  0  0  0  0  0  0  0  0  0  0
   -7.9753    4.6129   -9.3537 C   0  0  0  0  0  0  0  0  0  0  0  0
   -7.6091    4.3618  -10.6673 C   0  0  0  0  0  0  0  0  0  0  0  0
   -8.1325    3.6559   -8.2164 C   0  0  0  0  0  0  0  0  0  0  0  0
   -8.8016    4.4393   -7.1418 N   0  0  0  0  0  0  0  0  0  0  0  0
   -8.5430    5.8632   -7.4581 C   0  0  0  0  0  0  0  0  0  0  0  0
   -8.4084    4.2008   -6.2313 H   0  0  0  0  0  0  0  0  0  0  0  0
  4  5  1  0  0  0
  5  6  2  0  0  0
  6  7  1  0  0  0
  7  1  1  0  0  0
  1  2  1  0  0  0
  1 22  1  0  0  0
 22 24  1  0  0  0
 24 25  2  0  0  0
 25 26  1  0  0  0
 26 27  2  0  0  0
 27 28  1  0  0  0
 28 29  2  0  0  0
 28 30  1  0  0  0
 30 31  1  0  0  0
 31 32  1  0  0  0
  1 15  1  0  0  0
 15 16  2  0  0  0
 15 17  1  0  0  0
 17 19  1  0  0  0
 19 20  1  0  0  0
 19 21  1  0  0  0
  7  8  2  0  0  0
  8  9  1  0  0  0
  9 10  2  0  0  0
 10 11  1  0  0  0
 11 12  1  0  0  0
 11 13  1  0  0  0
 13 14  2  0  0  0
 14  5  1  0  0  0
 29 24  1  0  0  0
 13  8  1  0  0  0
 32 27  1  0  0  0
  2  3  1  0  0  0
 22 23  1  0  0  0
 31 33  1  0  0  0
 17 18  1  0  0  0
M  END
> <minimizedAffinity>
-8.03487

> <minimizedRMSD>
0.99276

$$$$
P19761


 31 34  0  0  0  0  0  0  0  0999 V2000
   -7.0828    4.1942  -13.5719 C   0  0  0  0  0  0  0  0  0  0  0  0
   -6.3089    5.2550  -13.0076 O   0  0  0  0  0  0  0  0  0  0  0  0
   -6.2135    5.1132  -12.0528 H   0  0  0  0  0  0  0  0  0  0  0  0
   -7.2016    4.4667  -15.0718 C   0  0  0  0  0  0  0  0  0  0  0  0
   -8.4196    4.2922  -15.7735 C   0  0  0  0  0  0  0  0  0  0  0  0
   -8.4920    4.4199  -17.1646 C   0  0  0  0  0  0  0  0  0  0  0  0
   -9.8122    4.2427  -17.8662 C   0  0  0  0  0  0  0  0  0  0  0  0
   -7.4287    4.6998  -17.9436 N   0  0  0  0  0  0  0  0  0  0  0  0
   -6.2830    4.8680  -17.2660 C   0  0  0  0  0  0  0  0  0  0  0  0
   -6.1029    4.8118  -15.8926 C   0  0  0  0  0  0  0  0  0  0  0  0
   -4.7335    5.1342  -15.7242 C   0  0  0  0  0  0  0  0  0  0  0  0
   -4.0824    5.3151  -16.8769 N   0  0  0  0  0  0  0  0  0  0  0  0
   -5.0401    5.0707  -17.8009 N   0  0  0  0  0  0  0  0  0  0  0  0
   -4.6600    4.9420  -19.1822 C   0  0  0  0  0  0  0  0  0  0  0  0
   -3.8495    2.3178  -12.3173 C   0  0  0  0  0  0  0  0  0  0  0  0
   -4.9057    3.1550  -12.7955 N   0  0  0  0  0  0  0  0  0  0  0  0
   -6.3211    2.7872  -13.3448 C   0  0  0  0  0  0  0  0  0  0  0  0
   -6.8034    1.7411  -13.5596 O   0  0  0  0  0  0  0  0  0  0  0  0
   -4.7089    4.1194  -12.7753 H   0  0  0  0  0  0  0  0  0  0  0  0
   -8.4207    4.1593  -12.9438 N   0  0  0  0  0  0  0  0  0  0  0  0
   -9.2457    4.1098  -13.4788 H   0  0  0  0  0  0  0  0  0  0  0  0
   -8.4475    4.2010  -11.5311 C   0  0  0  0  0  0  0  0  0  0  0  0
   -8.0833    5.3865  -10.8541 C   0  0  0  0  0  0  0  0  0  0  0  0
   -8.0405    5.4462   -9.4591 C   0  0  0  0  0  0  0  0  0  0  0  0
   -8.3767    4.3076   -8.7528 C   0  0  0  0  0  0  0  0  0  0  0  0
   -8.7453    3.1376   -9.4068 C   0  0  0  0  0  0  0  0  0  0  0  0
   -8.7737    3.0614  -10.7888 C   0  0  0  0  0  0  0  0  0  0  0  0
   -9.1183    2.1001   -8.4029 C   0  0  0  0  0  0  0  0  0  0  0  0
   -8.6983    2.6517   -7.0842 N   0  0  0  0  0  0  0  0  0  0  0  0
   -8.4817    4.1024   -7.2820 C   0  0  0  0  0  0  0  0  0  0  0  0
   -7.8345    2.2058   -6.7752 H   0  0  0  0  0  0  0  0  0  0  0  0
 15 16  1  0  0  0
 16 17  1  0  0  0
 17 18  2  0  0  0
 17  1  1  0  0  0
  1  2  1  0  0  0
  1 20  1  0  0  0
 20 22  1  0  0  0
 22 23  2  0  0  0
 23 24  1  0  0  0
 24 25  2  0  0  0
 25 26  1  0  0  0
 26 27  2  0  0  0
 26 28  1  0  0  0
 28 29  1  0  0  0
 29 30  1  0  0  0
  1  4  1  0  0  0
  4  5  2  0  0  0
  5  6  1  0  0  0
  6  7  1  0  0  0
  6  8  2  0  0  0
  8  9  1  0  0  0
  9 10  2  0  0  0
 10 11  1  0  0  0
 11 12  2  0  0  0
 12 13  1  0  0  0
 13 14  1  0  0  0
 27 22  1  0  0  0
 10  4  1  0  0  0
 30 25  1  0  0  0
 13  9  1  0  0  0
 16 19  1  0  0  0
  2  3  1  0  0  0
 20 21  1  0  0  0
 29 31  1  0  0  0
M  END
> <minimizedAffinity>
-8.81245

> <minimizedRMSD>
0.63132

$$$$
P19763


 28 31  0  0  0  0  0  0  0  0999 V2000
   -8.9980    4.4459  -18.0016 C   0  0  0  0  0  0  0  0  0  0  0  0
   -7.9244    4.4236  -16.9166 C   0  0  0  0  0  0  0  0  0  0  0  0
   -8.3931    4.9282  -15.5566 C   0  0  0  0  0  0  0  0  0  0  0  0
   -7.2753    5.1867  -14.5199 C   0  0  0  0  0  0  0  0  0  0  0  0
   -5.8121    5.1072  -14.9914 C   0  0  0  0  0  0  0  0  0  0  0  0
   -5.0720    6.4473  -14.9573 C   0  0  0  0  0  0  0  0  0  0  0  0
   -4.0684    6.3985  -16.0296 N   0  0  0  0  0  0  0  0  0  0  0  0
   -4.2005    5.0876  -16.6280 N   0  0  0  0  0  0  0  0  0  0  0  0
   -3.7387    5.0648  -18.0107 C   0  0  0  0  0  0  0  0  0  0  0  0
   -5.5758    4.6292  -16.4108 C   0  0  0  0  0  0  0  0  0  0  0  0
   -6.6558    5.1157  -17.2999 N   0  0  0  0  0  0  0  0  0  0  0  0
   -3.1314    6.5218  -15.6460 H   0  0  0  0  0  0  0  0  0  0  0  0
   -7.4710    4.2074  -13.3476 C   0  0  0  0  0  0  0  0  0  0  0  0
   -7.4441    3.0453  -13.4775 O   0  0  0  0  0  0  0  0  0  0  0  0
   -7.7851    5.0766  -12.0907 N   0  0  0  0  0  0  0  0  0  0  0  0
   -7.8182    6.0463  -12.2577 H   0  0  0  0  0  0  0  0  0  0  0  0
   -8.0260    4.7038  -10.7722 C   0  0  0  0  0  0  0  0  0  0  0  0
   -7.8135    5.6907   -9.7904 C   0  0  0  0  0  0  0  0  0  0  0  0
   -8.0647    5.4311   -8.4438 C   0  0  0  0  0  0  0  0  0  0  0  0
   -8.5642    4.1891   -8.1092 C   0  0  0  0  0  0  0  0  0  0  0  0
   -8.7848    3.2114   -9.0779 C   0  0  0  0  0  0  0  0  0  0  0  0
   -8.5031    3.4408  -10.4178 C   0  0  0  0  0  0  0  0  0  0  0  0
   -9.3272    1.9900   -8.4079 C   0  0  0  0  0  0  0  0  0  0  0  0
   -9.7554    2.4463   -7.0545 N   0  0  0  0  0  0  0  0  0  0  0  0
   -8.9481    3.6517   -6.7722 C   0  0  0  0  0  0  0  0  0  0  0  0
   -9.5713    1.7229   -6.3593 H   0  0  0  0  0  0  0  0  0  0  0  0
   -6.5254    6.2821  -17.9448 C   0  0  0  0  0  0  0  0  0  0  0  0
   -6.3252    7.3491  -18.3534 N   0  0  0  0  0  0  0  0  0  0  0  0
  2  1  1  0  0  0
  2  3  1  0  0  0
  3  4  1  0  0  0
  4 13  1  0  0  0
 13 14  2  0  0  0
 13 15  1  0  0  0
 15 17  1  0  0  0
 17 18  2  0  0  0
 18 19  1  0  0  0
 19 20  2  0  0  0
 20 21  1  0  0  0
 21 22  2  0  0  0
 21 23  1  0  0  0
 23 24  1  0  0  0
 24 25  1  0  0  0
  4  5  1  0  0  0
  5  6  1  0  0  0
  6  7  1  0  0  0
  7  8  1  0  0  0
  8  9  1  0  0  0
 10  8  1  0  0  0
 10 11  1  0  0  0
 11 27  1  0  0  0
 27 28  3  0  0  0
 11  2  1  0  0  0
 22 17  1  0  0  0
 10  5  1  0  0  0
 25 20  1  0  0  0
 15 16  1  0  0  0
 24 26  1  0  0  0
  7 12  1  0  0  0
M  END
> <minimizedAffinity>
-7.20335

> <minimizedRMSD>
0.37287

$$$$
P19764


 36 40  0  0  0  0  0  0  0  0999 V2000
   -7.1940    4.2010  -13.7234 C   0  0  0  0  0  0  0  0  0  0  0  0
   -6.4948    5.3545  -13.3073 O   0  0  0  0  0  0  0  0  0  0  0  0
   -6.9944    6.1454  -13.5636 H   0  0  0  0  0  0  0  0  0  0  0  0
   -9.9120    4.4423  -18.0342 C   0  0  0  0  0  0  0  0  0  0  0  0
   -8.5893    4.5013  -17.3247 C   0  0  0  0  0  0  0  0  0  0  0  0
   -8.5232    4.3338  -15.9369 C   0  0  0  0  0  0  0  0  0  0  0  0
   -7.2950    4.3771  -15.2397 C   0  0  0  0  0  0  0  0  0  0  0  0
   -6.1649    4.6082  -16.0698 C   0  0  0  0  0  0  0  0  0  0  0  0
   -4.7603    4.7618  -15.9186 C   0  0  0  0  0  0  0  0  0  0  0  0
   -4.1261    5.0344  -17.0665 N   0  0  0  0  0  0  0  0  0  0  0  0
   -5.1253    5.0003  -17.9761 N   0  0  0  0  0  0  0  0  0  0  0  0
   -4.8548    5.2211  -19.3741 C   0  0  0  0  0  0  0  0  0  0  0  0
   -6.3573    4.7758  -17.4305 C   0  0  0  0  0  0  0  0  0  0  0  0
   -7.5162    4.7375  -18.1002 N   0  0  0  0  0  0  0  0  0  0  0  0
   -6.4613    2.8199  -13.3531 C   0  0  0  0  0  0  0  0  0  0  0  0
   -6.9228    1.7618  -13.5437 O   0  0  0  0  0  0  0  0  0  0  0  0
   -5.0916    3.2254  -12.7420 N   0  0  0  0  0  0  0  0  0  0  0  0
   -4.9026    4.1915  -12.7582 H   0  0  0  0  0  0  0  0  0  0  0  0
   -4.0514    2.4159  -12.1543 C   0  0  0  0  0  0  0  0  0  0  0  0
   -3.0505    1.9877  -13.2279 C   0  0  0  0  0  0  0  0  0  0  0  0
   -1.8930    2.9740  -13.3567 C   0  0  0  0  0  0  0  0  0  0  0  0
   -2.2822    4.2832  -12.9555 O   0  0  0  0  0  0  0  0  0  0  0  0
   -2.5620    4.3622  -11.5539 C   0  0  0  0  0  0  0  0  0  0  0  0
   -3.3528    3.1657  -11.0285 C   0  0  0  0  0  0  0  0  0  0  0  0
   -8.5091    4.2644  -13.0476 N   0  0  0  0  0  0  0  0  0  0  0  0
   -9.3673    4.2731  -13.5301 H   0  0  0  0  0  0  0  0  0  0  0  0
   -8.4056    4.3119  -11.6171 C   0  0  0  0  0  0  0  0  0  0  0  0
   -8.0459    5.5123  -10.9583 C   0  0  0  0  0  0  0  0  0  0  0  0
   -7.9428    5.5873   -9.5655 C   0  0  0  0  0  0  0  0  0  0  0  0
   -8.2295    4.4535   -8.8352 C   0  0  0  0  0  0  0  0  0  0  0  0
   -8.5660    3.2596   -9.4640 C   0  0  0  0  0  0  0  0  0  0  0  0
   -8.6417    3.1653  -10.8457 C   0  0  0  0  0  0  0  0  0  0  0  0
   -8.7960    2.2128   -8.4232 C   0  0  0  0  0  0  0  0  0  0  0  0
   -8.9622    2.9684   -7.1491 N   0  0  0  0  0  0  0  0  0  0  0  0
   -8.2621    4.2556   -7.3584 C   0  0  0  0  0  0  0  0  0  0  0  0
   -8.5422    2.4561   -6.3735 H   0  0  0  0  0  0  0  0  0  0  0  0
  4  5  1  0  0  0
  5  6  2  0  0  0
  6  7  1  0  0  0
  7  1  1  0  0  0
  1  2  1  0  0  0
  1 25  1  0  0  0
 25 27  1  0  0  0
 27 28  2  0  0  0
 28 29  1  0  0  0
 29 30  2  0  0  0
 30 31  1  0  0  0
 31 32  2  0  0  0
 31 33  1  0  0  0
 33 34  1  0  0  0
 34 35  1  0  0  0
  1 15  1  0  0  0
 15 16  2  0  0  0
 15 17  1  0  0  0
 17 19  1  0  0  0
 19 20  1  0  0  0
 20 21  1  0  0  0
 21 22  1  0  0  0
 22 23  1  0  0  0
 23 24  1  0  0  0
  7  8  2  0  0  0
  8  9  1  0  0  0
  9 10  2  0  0  0
 10 11  1  0  0  0
 11 12  1  0  0  0
 11 13  1  0  0  0
 13 14  2  0  0  0
 14  5  1  0  0  0
 32 27  1  0  0  0
 24 19  1  0  0  0
 13  8  1  0  0  0
 35 30  1  0  0  0
  2  3  1  0  0  0
 25 26  1  0  0  0
 34 36  1  0  0  0
 17 18  1  0  0  0
M  END
> <minimizedAffinity>
-9.10651

> <minimizedRMSD>
0.72928

$$$$
P19768


 41 45  0  0  0  0  0  0  0  0999 V2000
   -7.0951    4.1652  -13.6370 C   0  0  0  0  0  0  0  0  0  0  0  0
   -6.3441    5.2743  -13.1470 O   0  0  0  0  0  0  0  0  0  0  0  0
   -6.2406    5.1954  -12.1857 H   0  0  0  0  0  0  0  0  0  0  0  0
   -7.1923    4.3970  -15.1475 C   0  0  0  0  0  0  0  0  0  0  0  0
   -8.4220    4.3531  -15.8521 C   0  0  0  0  0  0  0  0  0  0  0  0
   -8.4734    4.5268  -17.2385 C   0  0  0  0  0  0  0  0  0  0  0  0
   -9.7642    4.4721  -17.9788 C   0  0  0  0  0  0  0  0  0  0  0  0
   -7.3992    4.7346  -18.0079 N   0  0  0  0  0  0  0  0  0  0  0  0
   -6.2484    4.7821  -17.3366 C   0  0  0  0  0  0  0  0  0  0  0  0
   -6.0617    4.6485  -15.9715 C   0  0  0  0  0  0  0  0  0  0  0  0
   -4.6618    4.8295  -15.8278 C   0  0  0  0  0  0  0  0  0  0  0  0
   -4.0154    5.0005  -16.9900 N   0  0  0  0  0  0  0  0  0  0  0  0
   -5.0187    4.9589  -17.8981 N   0  0  0  0  0  0  0  0  0  0  0  0
   -4.7546    5.1028  -19.3093 C   0  0  0  0  0  0  0  0  0  0  0  0
   -4.9433    3.1206  -12.7934 N   0  0  0  0  0  0  0  0  0  0  0  0
   -6.3500    2.7492  -13.3403 C   0  0  0  0  0  0  0  0  0  0  0  0
   -6.8361    1.7028  -13.5329 O   0  0  0  0  0  0  0  0  0  0  0  0
   -4.7415    4.0842  -12.7951 H   0  0  0  0  0  0  0  0  0  0  0  0
   -3.8799    2.2784  -12.2810 C   0  0  0  0  0  0  0  0  0  0  0  0
   -2.4168    3.1738  -11.7289 S   0  0  0  0  0  0  0  0  0  0  0  0
   -2.5124    3.4254  -10.3036 O   0  0  0  0  0  0  0  0  0  0  0  0
   -2.2164    4.2803  -12.6517 O   0  0  0  0  0  0  0  0  0  0  0  0
    2.3251   -0.5404  -12.4596 C   0  0  0  0  0  0  0  0  0  0  0  0
    1.1214    0.3410  -12.2983 C   0  0  0  0  0  0  0  0  0  0  0  0
    0.7515    1.2205  -13.3235 C   0  0  0  0  0  0  0  0  0  0  0  0
   -0.3444    2.0702  -13.1642 C   0  0  0  0  0  0  0  0  0  0  0  0
   -1.0778    2.0355  -11.9750 C   0  0  0  0  0  0  0  0  0  0  0  0
   -0.7131    1.1765  -10.9394 C   0  0  0  0  0  0  0  0  0  0  0  0
    0.3906    0.3381  -11.1027 C   0  0  0  0  0  0  0  0  0  0  0  0
   -8.4302    4.1498  -12.9945 N   0  0  0  0  0  0  0  0  0  0  0  0
   -9.2614    4.1041  -13.5201 H   0  0  0  0  0  0  0  0  0  0  0  0
   -8.4397    4.2045  -11.5792 C   0  0  0  0  0  0  0  0  0  0  0  0
   -8.0710    5.3968  -10.9186 C   0  0  0  0  0  0  0  0  0  0  0  0
   -8.0113    5.4698   -9.5244 C   0  0  0  0  0  0  0  0  0  0  0  0
   -8.3393    4.3396   -8.8000 C   0  0  0  0  0  0  0  0  0  0  0  0
   -8.7214    3.1646   -9.4351 C   0  0  0  0  0  0  0  0  0  0  0  0
   -8.7651    3.0747  -10.8175 C   0  0  0  0  0  0  0  0  0  0  0  0
   -9.0926    2.1429   -8.4135 C   0  0  0  0  0  0  0  0  0  0  0  0
   -8.6949    2.7188   -7.0999 N   0  0  0  0  0  0  0  0  0  0  0  0
   -8.4141    4.1540   -7.3243 C   0  0  0  0  0  0  0  0  0  0  0  0
   -7.8600    2.2490   -6.7498 H   0  0  0  0  0  0  0  0  0  0  0  0
 23 24  1  0  0  0
 24 25  2  0  0  0
 25 26  1  0  0  0
 26 27  2  0  0  0
 27 20  1  0  0  0
 20 21  2  0  0  0
 20 22  2  0  0  0
 20 19  1  0  0  0
 19 15  1  0  0  0
 15 16  1  0  0  0
 16 17  2  0  0  0
 16  1  1  0  0  0
  1  2  1  0  0  0
  1 30  1  0  0  0
 30 32  1  0  0  0
 32 33  2  0  0  0
 33 34  1  0  0  0
 34 35  2  0  0  0
 35 36  1  0  0  0
 36 37  2  0  0  0
 36 38  1  0  0  0
 38 39  1  0  0  0
 39 40  1  0  0  0
  1  4  1  0  0  0
  4  5  2  0  0  0
  5  6  1  0  0  0
  6  7  1  0  0  0
  6  8  2  0  0  0
  8  9  1  0  0  0
  9 10  2  0  0  0
 10 11  1  0  0  0
 11 12  2  0  0  0
 12 13  1  0  0  0
 13 14  1  0  0  0
 27 28  1  0  0  0
 28 29  2  0  0  0
 29 24  1  0  0  0
 37 32  1  0  0  0
 10  4  1  0  0  0
 40 35  1  0  0  0
 13  9  1  0  0  0
 15 18  1  0  0  0
  2  3  1  0  0  0
 30 31  1  0  0  0
 39 41  1  0  0  0
M  END
> <minimizedAffinity>
-9.45851

> <minimizedRMSD>
0.30615

$$$$
P19777


 34 38  0  0  0  0  0  0  0  0999 V2000
   -9.6043    3.7827  -18.6077 C   0  0  0  0  0  0  0  0  0  0  0  0
   -8.7192    4.3412  -17.5329 C   0  0  0  0  0  0  0  0  0  0  0  0
   -9.1425    4.3811  -16.2026 C   0  0  0  0  0  0  0  0  0  0  0  0
   -8.3251    5.0164  -15.2706 C   0  0  0  0  0  0  0  0  0  0  0  0
   -7.1120    5.5254  -15.6958 C   0  0  0  0  0  0  0  0  0  0  0  0
   -6.7694    5.4604  -17.0307 C   0  0  0  0  0  0  0  0  0  0  0  0
   -7.5423    4.8717  -17.9432 N   0  0  0  0  0  0  0  0  0  0  0  0
   -5.5447    6.1269  -17.3001 N   0  0  0  0  0  0  0  0  0  0  0  0
   -4.8933    5.6511  -18.5025 C   0  0  0  0  0  0  0  0  0  0  0  0
   -4.8764    6.1423  -15.9984 C   0  0  0  0  0  0  0  0  0  0  0  0
   -6.0313    6.2315  -14.9484 C   0  0  0  0  0  0  0  0  0  0  0  0
   -3.9846    5.0261  -15.6101 N   0  0  0  0  0  0  0  0  0  0  0  0
   -2.6043    5.3233  -16.0115 N   0  0  0  0  0  0  0  0  0  0  0  0
   -2.3295    6.7168  -15.6211 C   0  0  0  0  0  0  0  0  0  0  0  0
   -3.8563    7.6524  -15.8838 S   0  0  0  0  0  0  0  0  0  0  0  0
   -4.2937    4.1706  -16.0716 H   0  0  0  0  0  0  0  0  0  0  0  0
   -2.5028    5.2163  -17.0208 H   0  0  0  0  0  0  0  0  0  0  0  0
   -8.7752    5.3231  -13.8931 C   0  0  0  0  0  0  0  0  0  0  0  0
   -9.5427    6.1948  -13.7703 O   0  0  0  0  0  0  0  0  0  0  0  0
   -8.0733    4.4496  -12.8296 N   0  0  0  0  0  0  0  0  0  0  0  0
   -7.4031    3.8235  -13.1875 H   0  0  0  0  0  0  0  0  0  0  0  0
   -8.2347    4.4036  -11.4439 C   0  0  0  0  0  0  0  0  0  0  0  0
   -7.9482    5.5383  -10.6613 C   0  0  0  0  0  0  0  0  0  0  0  0
   -8.0675    5.5062   -9.2695 C   0  0  0  0  0  0  0  0  0  0  0  0
   -8.4812    4.3276   -8.6826 C   0  0  0  0  0  0  0  0  0  0  0  0
   -8.7645    3.2006   -9.4501 C   0  0  0  0  0  0  0  0  0  0  0  0
   -8.6462    3.2171  -10.8329 C   0  0  0  0  0  0  0  0  0  0  0  0
   -9.1344    2.0787   -8.5354 C   0  0  0  0  0  0  0  0  0  0  0  0
   -9.4113    2.7196   -7.2215 N   0  0  0  0  0  0  0  0  0  0  0  0
   -8.6760    4.0038   -7.2406 C   0  0  0  0  0  0  0  0  0  0  0  0
   -9.0765    2.1292   -6.4601 H   0  0  0  0  0  0  0  0  0  0  0  0
   -1.7110    6.8328  -14.2016 C   0  0  0  0  0  0  0  0  0  0  0  0
   -2.6601    7.3171  -13.0996 C   0  0  0  0  0  0  0  0  0  0  0  0
   -0.4529    7.7126  -14.2098 C   0  0  0  0  0  0  0  0  0  0  0  0
  1  2  1  0  0  0
  2  3  2  0  0  0
  3  4  1  0  0  0
  4 18  1  0  0  0
 18 19  2  0  0  0
 18 20  1  0  0  0
 20 22  1  0  0  0
 22 23  2  0  0  0
 23 24  1  0  0  0
 24 25  2  0  0  0
 25 26  1  0  0  0
 26 27  2  0  0  0
 26 28  1  0  0  0
 28 29  1  0  0  0
 29 30  1  0  0  0
  4  5  2  0  0  0
  5  6  1  0  0  0
  6  7  2  0  0  0
  6  8  1  0  0  0
  8  9  1  0  0  0
  8 10  1  0  0  0
 10 11  1  0  0  0
 10 12  1  0  0  0
 12 13  1  0  0  0
 13 14  1  0  0  0
 14 32  1  0  0  0
 32 33  1  0  0  0
 32 34  1  0  0  0
 14 15  1  0  0  0
  7  2  1  0  0  0
 15 10  1  0  0  0
 27 22  1  0  0  0
 11  5  1  0  0  0
 30 25  1  0  0  0
 20 21  1  0  0  0
 29 31  1  0  0  0
 12 16  1  0  0  0
 13 17  1  0  0  0
M  END
> <minimizedAffinity>
-7.64925

> <minimizedRMSD>
0.93873

$$$$
P19778


 34 37  0  0  0  0  0  0  0  0999 V2000
   -7.0424    4.1718  -13.5446 C   0  0  0  0  0  0  0  0  0  0  0  0
   -6.2880    5.2461  -12.9828 O   0  0  0  0  0  0  0  0  0  0  0  0
   -6.7559    6.0826  -13.1322 H   0  0  0  0  0  0  0  0  0  0  0  0
   -9.7911    4.2492  -17.8446 C   0  0  0  0  0  0  0  0  0  0  0  0
   -8.4963    4.4465  -17.1158 C   0  0  0  0  0  0  0  0  0  0  0  0
   -8.3966    4.2854  -15.7295 C   0  0  0  0  0  0  0  0  0  0  0  0
   -7.1612    4.4426  -15.0459 C   0  0  0  0  0  0  0  0  0  0  0  0
   -6.0694    4.7681  -15.8828 C   0  0  0  0  0  0  0  0  0  0  0  0
   -4.6819    5.0320  -15.7609 C   0  0  0  0  0  0  0  0  0  0  0  0
   -4.0730    5.2428  -16.9363 N   0  0  0  0  0  0  0  0  0  0  0  0
   -5.0739    5.0522  -17.8288 N   0  0  0  0  0  0  0  0  0  0  0  0
   -4.8194    4.9512  -19.2454 C   0  0  0  0  0  0  0  0  0  0  0  0
   -6.2915    4.8659  -17.2449 C   0  0  0  0  0  0  0  0  0  0  0  0
   -7.4498    4.7397  -17.8989 N   0  0  0  0  0  0  0  0  0  0  0  0
   -6.3083    2.7403  -13.3261 C   0  0  0  0  0  0  0  0  0  0  0  0
   -6.7991    1.7003  -13.5466 O   0  0  0  0  0  0  0  0  0  0  0  0
   -4.8816    3.0936  -12.7942 N   0  0  0  0  0  0  0  0  0  0  0  0
   -4.6792    4.0566  -12.7645 H   0  0  0  0  0  0  0  0  0  0  0  0
   -3.8097    2.2342  -12.3384 C   0  0  0  0  0  0  0  0  0  0  0  0
   -2.8424    1.8985  -13.4614 C   0  0  0  0  0  0  0  0  0  0  0  0
   -2.2196    3.0390  -13.8721 F   0  0  0  0  0  0  0  0  0  0  0  0
   -1.8535    1.0768  -13.0271 F   0  0  0  0  0  0  0  0  0  0  0  0
   -8.3715    4.2595  -12.9140 N   0  0  0  0  0  0  0  0  0  0  0  0
   -9.1934    4.3202  -13.4525 H   0  0  0  0  0  0  0  0  0  0  0  0
   -8.4132    4.2525  -11.5031 C   0  0  0  0  0  0  0  0  0  0  0  0
   -8.0793    5.4265  -10.7868 C   0  0  0  0  0  0  0  0  0  0  0  0
   -8.0674    5.4519   -9.3906 C   0  0  0  0  0  0  0  0  0  0  0  0
   -8.4028    4.2931   -8.7189 C   0  0  0  0  0  0  0  0  0  0  0  0
   -8.7339    3.1320   -9.4072 C   0  0  0  0  0  0  0  0  0  0  0  0
   -8.7309    3.0891  -10.7939 C   0  0  0  0  0  0  0  0  0  0  0  0
   -9.1151    2.0687   -8.4316 C   0  0  0  0  0  0  0  0  0  0  0  0
   -8.7805    2.6138   -7.0852 N   0  0  0  0  0  0  0  0  0  0  0  0
   -8.5484    4.0632   -7.2554 C   0  0  0  0  0  0  0  0  0  0  0  0
   -7.9395    2.1639   -6.7236 H   0  0  0  0  0  0  0  0  0  0  0  0
  4  5  1  0  0  0
  5  6  2  0  0  0
  6  7  1  0  0  0
  7  1  1  0  0  0
  1  2  1  0  0  0
  1 23  1  0  0  0
 23 25  1  0  0  0
 25 26  2  0  0  0
 26 27  1  0  0  0
 27 28  2  0  0  0
 28 29  1  0  0  0
 29 30  2  0  0  0
 29 31  1  0  0  0
 31 32  1  0  0  0
 32 33  1  0  0  0
  1 15  1  0  0  0
 15 16  2  0  0  0
 15 17  1  0  0  0
 17 19  1  0  0  0
 19 20  1  0  0  0
 20 21  1  0  0  0
 20 22  1  0  0  0
  7  8  2  0  0  0
  8  9  1  0  0  0
  9 10  2  0  0  0
 10 11  1  0  0  0
 11 12  1  0  0  0
 11 13  1  0  0  0
 13 14  2  0  0  0
 14  5  1  0  0  0
 30 25  1  0  0  0
 13  8  1  0  0  0
 33 28  1  0  0  0
  2  3  1  0  0  0
 23 24  1  0  0  0
 32 34  1  0  0  0
 17 18  1  0  0  0
M  END
> <minimizedAffinity>
-8.80109

> <minimizedRMSD>
0.54787

$$$$
P19781


 27 30  0  0  0  0  0  0  0  0999 V2000
   -8.5962    5.2577  -14.1085 C   0  0  0  0  0  0  0  0  0  0  0  0
   -9.0282    6.3343  -13.9741 O   0  0  0  0  0  0  0  0  0  0  0  0
   -8.2741    4.1697  -13.0599 N   0  0  0  0  0  0  0  0  0  0  0  0
   -7.9862    3.3068  -13.4364 H   0  0  0  0  0  0  0  0  0  0  0  0
  -10.0236    4.0886  -18.7562 C   0  0  0  0  0  0  0  0  0  0  0  0
   -8.9474    4.3499  -17.7401 C   0  0  0  0  0  0  0  0  0  0  0  0
   -9.2805    4.4826  -16.3925 C   0  0  0  0  0  0  0  0  0  0  0  0
   -8.2798    4.8274  -15.4823 C   0  0  0  0  0  0  0  0  0  0  0  0
   -6.9679    4.9578  -15.9502 C   0  0  0  0  0  0  0  0  0  0  0  0
   -5.6976    5.2908  -15.4393 C   0  0  0  0  0  0  0  0  0  0  0  0
   -4.7485    5.3157  -16.3808 N   0  0  0  0  0  0  0  0  0  0  0  0
   -5.4254    5.0058  -17.5179 N   0  0  0  0  0  0  0  0  0  0  0  0
   -6.7600    4.7666  -17.3040 C   0  0  0  0  0  0  0  0  0  0  0  0
   -7.6921    4.4679  -18.2258 N   0  0  0  0  0  0  0  0  0  0  0  0
   -4.7641    5.0666  -18.8175 C   0  0  0  0  0  0  0  0  0  0  0  0
   -3.2872    4.6720  -18.7391 C   0  0  0  0  0  0  0  0  0  0  0  0
   -4.9091    6.4632  -19.4212 C   0  0  0  0  0  0  0  0  0  0  0  0
   -8.3251    4.2110  -11.6650 C   0  0  0  0  0  0  0  0  0  0  0  0
   -7.9420    5.3737  -10.9747 C   0  0  0  0  0  0  0  0  0  0  0  0
   -7.9632    5.4236   -9.5780 C   0  0  0  0  0  0  0  0  0  0  0  0
   -8.3583    4.2927   -8.8910 C   0  0  0  0  0  0  0  0  0  0  0  0
   -8.7431    3.1404   -9.5656 C   0  0  0  0  0  0  0  0  0  0  0  0
   -8.7416    3.0829  -10.9534 C   0  0  0  0  0  0  0  0  0  0  0  0
   -9.1212    2.0939   -8.5709 C   0  0  0  0  0  0  0  0  0  0  0  0
   -8.7323    2.6326   -7.2366 N   0  0  0  0  0  0  0  0  0  0  0  0
   -8.4715    4.0767   -7.4228 C   0  0  0  0  0  0  0  0  0  0  0  0
   -7.8914    2.1638   -6.8995 H   0  0  0  0  0  0  0  0  0  0  0  0
  5  6  1  0  0  0
  6  7  2  0  0  0
  7  8  1  0  0  0
  8  1  1  0  0  0
  1  2  2  0  0  0
  1  3  1  0  0  0
  3 18  1  0  0  0
 18 19  2  0  0  0
 19 20  1  0  0  0
 20 21  2  0  0  0
 21 22  1  0  0  0
 22 23  2  0  0  0
 22 24  1  0  0  0
 24 25  1  0  0  0
 25 26  1  0  0  0
  8  9  2  0  0  0
  9 10  1  0  0  0
 10 11  2  0  0  0
 11 12  1  0  0  0
 12 15  1  0  0  0
 15 16  1  0  0  0
 15 17  1  0  0  0
 12 13  1  0  0  0
 13 14  2  0  0  0
 14  6  1  0  0  0
 23 18  1  0  0  0
 13  9  1  0  0  0
 26 21  1  0  0  0
  3  4  1  0  0  0
 25 27  1  0  0  0
M  END
> <minimizedAffinity>
-8.32359

> <minimizedRMSD>
0.60372

$$$$
P19782


 32 35  0  0  0  0  0  0  0  0999 V2000
   -9.7369    3.9709  -18.7398 C   0  0  0  0  0  0  0  0  0  0  0  0
   -8.7423    4.3039  -17.6643 C   0  0  0  0  0  0  0  0  0  0  0  0
   -9.1743    4.4270  -16.3155 C   0  0  0  0  0  0  0  0  0  0  0  0
   -8.2977    4.8458  -15.2962 C   0  0  0  0  0  0  0  0  0  0  0  0
   -7.0029    5.0450  -15.7791 C   0  0  0  0  0  0  0  0  0  0  0  0
   -5.8549    5.3792  -15.0872 C   0  0  0  0  0  0  0  0  0  0  0  0
   -4.8479    5.5304  -16.0344 N   0  0  0  0  0  0  0  0  0  0  0  0
   -3.5216    6.0446  -15.7687 C   0  0  0  0  0  0  0  0  0  0  0  0
   -5.2931    5.1246  -17.2800 C   0  0  0  0  0  0  0  0  0  0  0  0
   -4.4528    5.0147  -18.5007 C   0  0  0  0  0  0  0  0  0  0  0  0
   -6.6278    4.8640  -17.1306 C   0  0  0  0  0  0  0  0  0  0  0  0
   -7.4709    4.4939  -18.1082 N   0  0  0  0  0  0  0  0  0  0  0  0
   -8.7553    5.1957  -13.9449 C   0  0  0  0  0  0  0  0  0  0  0  0
   -9.4594    6.1187  -13.8202 O   0  0  0  0  0  0  0  0  0  0  0  0
   -8.1916    4.2148  -12.8897 N   0  0  0  0  0  0  0  0  0  0  0  0
   -7.6747    3.4632  -13.2602 H   0  0  0  0  0  0  0  0  0  0  0  0
   -8.2968    4.2221  -11.4986 C   0  0  0  0  0  0  0  0  0  0  0  0
   -8.0018    5.3869  -10.7680 C   0  0  0  0  0  0  0  0  0  0  0  0
   -8.0795    5.4011   -9.3732 C   0  0  0  0  0  0  0  0  0  0  0  0
   -8.4550    4.2374   -8.7310 C   0  0  0  0  0  0  0  0  0  0  0  0
   -8.7622    3.0855   -9.4478 C   0  0  0  0  0  0  0  0  0  0  0  0
   -8.6870    3.0561  -10.8333 C   0  0  0  0  0  0  0  0  0  0  0  0
   -9.1752    2.0118   -8.4969 C   0  0  0  0  0  0  0  0  0  0  0  0
   -8.8419    2.5241   -7.1378 N   0  0  0  0  0  0  0  0  0  0  0  0
   -8.6391    3.9832   -7.2758 C   0  0  0  0  0  0  0  0  0  0  0  0
   -7.9901    2.0811   -6.7936 H   0  0  0  0  0  0  0  0  0  0  0  0
   -5.6470    5.5987  -13.7859 O   0  0  0  0  0  0  0  0  0  0  0  0
   -4.6815    4.7397  -13.1635 C   0  0  0  0  0  0  0  0  0  0  0  0
   -5.0483    3.2635  -13.3002 C   0  0  0  0  0  0  0  0  0  0  0  0
   -3.8873    2.3526  -12.9354 C   0  0  0  0  0  0  0  0  0  0  0  0
   -3.5086    1.5551  -14.0530 O   0  0  0  0  0  0  0  0  0  0  0  0
   -4.2590    1.0045  -14.3265 H   0  0  0  0  0  0  0  0  0  0  0  0
  1  2  1  0  0  0
  2  3  1  0  0  0
  3  4  2  0  0  0
  4 13  1  0  0  0
 13 14  2  0  0  0
 13 15  1  0  0  0
 15 17  1  0  0  0
 17 18  2  0  0  0
 18 19  1  0  0  0
 19 20  2  0  0  0
 20 21  1  0  0  0
 21 22  2  0  0  0
 21 23  1  0  0  0
 23 24  1  0  0  0
 24 25  1  0  0  0
  4  5  1  0  0  0
  5  6  2  0  0  0
  6 27  1  0  0  0
 27 28  1  0  0  0
 28 29  1  0  0  0
 29 30  1  0  0  0
 30 31  1  0  0  0
  6  7  1  0  0  0
  7  8  1  0  0  0
  7  9  1  0  0  0
  9 10  1  0  0  0
  9 11  2  0  0  0
 11 12  1  0  0  0
 12  2  2  0  0  0
 22 17  1  0  0  0
 11  5  1  0  0  0
 25 20  1  0  0  0
 15 16  1  0  0  0
 24 26  1  0  0  0
 31 32  1  0  0  0
M  END
> <minimizedAffinity>
-8.21136

> <minimizedRMSD>
1.07601

$$$$
P19783


 31 34  0  0  0  0  0  0  0  0999 V2000
   -4.8908    5.6986  -16.0838 N   0  0  0  0  0  0  0  0  0  0  0  0
   -5.3670    5.3677  -17.3258 C   0  0  0  0  0  0  0  0  0  0  0  0
   -4.5637    5.4195  -18.5686 C   0  0  0  0  0  0  0  0  0  0  0  0
   -6.6615    4.9783  -17.1218 C   0  0  0  0  0  0  0  0  0  0  0  0
   -7.5007    4.5260  -18.0665 N   0  0  0  0  0  0  0  0  0  0  0  0
   -8.7424    4.2504  -17.5783 C   0  0  0  0  0  0  0  0  0  0  0  0
   -9.7451    3.8212  -18.6125 C   0  0  0  0  0  0  0  0  0  0  0  0
   -9.1565    4.3951  -16.2243 C   0  0  0  0  0  0  0  0  0  0  0  0
   -8.2842    4.8844  -15.2333 C   0  0  0  0  0  0  0  0  0  0  0  0
   -7.0113    5.1568  -15.7542 C   0  0  0  0  0  0  0  0  0  0  0  0
   -5.8756    5.6265  -15.1145 C   0  0  0  0  0  0  0  0  0  0  0  0
   -5.6088    6.0163  -13.7034 C   0  0  0  0  0  0  0  0  0  0  0  0
   -8.7382    5.2182  -13.8724 C   0  0  0  0  0  0  0  0  0  0  0  0
   -9.4368    6.1449  -13.7428 O   0  0  0  0  0  0  0  0  0  0  0  0
   -8.1906    4.2201  -12.8237 N   0  0  0  0  0  0  0  0  0  0  0  0
   -7.6758    3.4693  -13.1986 H   0  0  0  0  0  0  0  0  0  0  0  0
   -8.3082    4.2114  -11.4309 C   0  0  0  0  0  0  0  0  0  0  0  0
   -8.0055    5.3575  -10.6737 C   0  0  0  0  0  0  0  0  0  0  0  0
   -8.1121    5.3525   -9.2776 C   0  0  0  0  0  0  0  0  0  0  0  0
   -8.5399    4.1935   -8.6600 C   0  0  0  0  0  0  0  0  0  0  0  0
   -8.8400    3.0556   -9.4031 C   0  0  0  0  0  0  0  0  0  0  0  0
   -8.7219    3.0413  -10.7866 C   0  0  0  0  0  0  0  0  0  0  0  0
   -9.2371    1.9618   -8.4678 C   0  0  0  0  0  0  0  0  0  0  0  0
   -9.5058    2.6325   -7.1684 N   0  0  0  0  0  0  0  0  0  0  0  0
   -8.7485    3.9046   -7.2112 C   0  0  0  0  0  0  0  0  0  0  0  0
   -9.1826    2.0518   -6.3946 H   0  0  0  0  0  0  0  0  0  0  0  0
   -3.5765    6.1096  -15.8361 O   0  0  0  0  0  0  0  0  0  0  0  0
   -2.7970    4.9619  -15.4724 C   0  0  0  0  0  0  0  0  0  0  0  0
   -2.0008    5.2771  -14.2047 C   0  0  0  0  0  0  0  0  0  0  0  0
   -3.0499    3.2672  -13.4642 C   0  0  0  0  0  0  0  0  0  0  0  0
   -2.3872    4.4665  -13.0905 O   0  0  0  0  0  0  0  0  0  0  0  0
 30 31  1  0  0  0
 31 29  1  0  0  0
 29 28  1  0  0  0
 28 27  1  0  0  0
 27  1  1  0  0  0
  1  2  1  0  0  0
  2  3  1  0  0  0
  2  4  2  0  0  0
  4  5  1  0  0  0
  5  6  2  0  0  0
  6  7  1  0  0  0
  6  8  1  0  0  0
  8  9  2  0  0  0
  9 13  1  0  0  0
 13 14  2  0  0  0
 13 15  1  0  0  0
 15 17  1  0  0  0
 17 18  2  0  0  0
 18 19  1  0  0  0
 19 20  2  0  0  0
 20 21  1  0  0  0
 21 22  2  0  0  0
 21 23  1  0  0  0
 23 24  1  0  0  0
 24 25  1  0  0  0
  9 10  1  0  0  0
 10 11  2  0  0  0
 11 12  1  0  0  0
 11  1  1  0  0  0
 10  4  1  0  0  0
 22 17  1  0  0  0
 25 20  1  0  0  0
 15 16  1  0  0  0
 24 26  1  0  0  0
M  END
> <minimizedAffinity>
-7.19134

> <minimizedRMSD>
1.53472

$$$$
P19784


 26 29  0  0  0  0  0  0  0  0999 V2000
   -8.7278    5.1081  -13.9601 C   0  0  0  0  0  0  0  0  0  0  0  0
   -9.4920    5.9864  -13.8612 O   0  0  0  0  0  0  0  0  0  0  0  0
   -8.1310    4.1721  -12.8826 N   0  0  0  0  0  0  0  0  0  0  0  0
   -7.5585    3.4520  -13.2334 H   0  0  0  0  0  0  0  0  0  0  0  0
   -9.5192    4.0888  -18.8141 C   0  0  0  0  0  0  0  0  0  0  0  0
   -8.6026    4.3363  -17.6530 C   0  0  0  0  0  0  0  0  0  0  0  0
   -9.1023    4.4144  -16.3535 C   0  0  0  0  0  0  0  0  0  0  0  0
   -8.2403    4.7900  -15.3166 C   0  0  0  0  0  0  0  0  0  0  0  0
   -6.8937    5.0217  -15.6248 C   0  0  0  0  0  0  0  0  0  0  0  0
   -5.7088    5.4343  -14.9773 C   0  0  0  0  0  0  0  0  0  0  0  0
   -4.6556    5.4976  -15.8048 N   0  0  0  0  0  0  0  0  0  0  0  0
   -5.1752    5.0942  -16.9928 N   0  0  0  0  0  0  0  0  0  0  0  0
   -4.3438    4.9625  -18.1649 C   0  0  0  0  0  0  0  0  0  0  0  0
   -6.5161    4.8442  -16.9409 C   0  0  0  0  0  0  0  0  0  0  0  0
   -7.3064    4.5106  -17.9700 N   0  0  0  0  0  0  0  0  0  0  0  0
   -8.2721    4.1823  -11.4942 C   0  0  0  0  0  0  0  0  0  0  0  0
   -8.0249    5.3574  -10.7609 C   0  0  0  0  0  0  0  0  0  0  0  0
   -8.1588    5.3933   -9.3642 C   0  0  0  0  0  0  0  0  0  0  0  0
   -7.8790    6.6508   -8.6027 C   0  0  0  0  0  0  0  0  0  0  0  0
   -8.5080    4.2111   -8.7279 C   0  0  0  0  0  0  0  0  0  0  0  0
   -8.7570    3.0457   -9.4497 C   0  0  0  0  0  0  0  0  0  0  0  0
   -8.6511    3.0123  -10.8331 C   0  0  0  0  0  0  0  0  0  0  0  0
   -9.1414    1.9531   -8.5081 C   0  0  0  0  0  0  0  0  0  0  0  0
   -8.8606    2.4745   -7.1426 N   0  0  0  0  0  0  0  0  0  0  0  0
   -8.7150    3.9402   -7.2758 C   0  0  0  0  0  0  0  0  0  0  0  0
   -7.9993    2.0662   -6.7795 H   0  0  0  0  0  0  0  0  0  0  0  0
  5  6  1  0  0  0
  6  7  2  0  0  0
  7  8  1  0  0  0
  8  1  1  0  0  0
  1  2  2  0  0  0
  1  3  1  0  0  0
  3 16  1  0  0  0
 16 17  2  0  0  0
 17 18  1  0  0  0
 18 19  1  0  0  0
 18 20  2  0  0  0
 20 21  1  0  0  0
 21 22  2  0  0  0
 21 23  1  0  0  0
 23 24  1  0  0  0
 24 25  1  0  0  0
  8  9  2  0  0  0
  9 10  1  0  0  0
 10 11  2  0  0  0
 11 12  1  0  0  0
 12 13  1  0  0  0
 12 14  1  0  0  0
 14 15  2  0  0  0
 15  6  1  0  0  0
 22 16  1  0  0  0
 14  9  1  0  0  0
 25 20  1  0  0  0
  3  4  1  0  0  0
 24 26  1  0  0  0
M  END
> <minimizedAffinity>
-8.47458

> <minimizedRMSD>
0.89298

$$$$
P19785


 27 30  0  0  0  0  0  0  0  0999 V2000
   -7.9514    4.7570  -12.9588 N   0  0  0  0  0  0  0  0  0  0  0  0
   -7.3134    3.7671  -13.9535 C   0  0  0  0  0  0  0  0  0  0  0  0
   -6.8634    2.7057  -13.7799 O   0  0  0  0  0  0  0  0  0  0  0  0
   -8.3295    5.5678  -13.3696 H   0  0  0  0  0  0  0  0  0  0  0  0
   -7.4127    4.2820  -15.3337 C   0  0  0  0  0  0  0  0  0  0  0  0
   -8.6561    4.2757  -15.9784 C   0  0  0  0  0  0  0  0  0  0  0  0
   -8.7295    4.5547  -17.3389 C   0  0  0  0  0  0  0  0  0  0  0  0
  -10.0387    4.4537  -18.0675 C   0  0  0  0  0  0  0  0  0  0  0  0
   -7.6614    4.8905  -18.0850 N   0  0  0  0  0  0  0  0  0  0  0  0
   -6.4923    4.8816  -17.4259 C   0  0  0  0  0  0  0  0  0  0  0  0
   -6.2830    4.6159  -16.0828 C   0  0  0  0  0  0  0  0  0  0  0  0
   -4.8870    4.7365  -15.9217 C   0  0  0  0  0  0  0  0  0  0  0  0
   -4.2519    5.0513  -17.0616 N   0  0  0  0  0  0  0  0  0  0  0  0
   -5.2565    5.0696  -17.9744 N   0  0  0  0  0  0  0  0  0  0  0  0
   -4.9847    5.2268  -19.3824 C   0  0  0  0  0  0  0  0  0  0  0  0
   -7.8869    5.8597  -10.7832 C   0  0  0  0  0  0  0  0  0  0  0  0
   -8.0117    5.7736   -9.3872 C   0  0  0  0  0  0  0  0  0  0  0  0
   -8.3818    4.5650   -8.8161 C   0  0  0  0  0  0  0  0  0  0  0  0
   -8.6204    3.4427   -9.5940 C   0  0  0  0  0  0  0  0  0  0  0  0
   -8.4513    3.4787  -10.9670 C   0  0  0  0  0  0  0  0  0  0  0  0
   -8.0806    4.6907  -11.5675 C   0  0  0  0  0  0  0  0  0  0  0  0
   -9.0767    2.3186   -8.7252 C   0  0  0  0  0  0  0  0  0  0  0  0
   -8.8508    2.7760   -7.3236 N   0  0  0  0  0  0  0  0  0  0  0  0
   -8.6177    4.2344   -7.3828 C   0  0  0  0  0  0  0  0  0  0  0  0
   -8.0367    2.3060   -6.9277 H   0  0  0  0  0  0  0  0  0  0  0  0
   -7.9287    8.6645  -10.3951 C   0  0  0  0  0  0  0  0  0  0  0  0
   -7.4400    7.4055  -11.6095 S   0  0  0  0  0  0  0  0  0  0  0  0
 26 27  1  0  0  0
 27 16  1  0  0  0
 16 17  2  0  0  0
 17 18  1  0  0  0
 18 19  2  0  0  0
 19 20  1  0  0  0
 20 21  2  0  0  0
 21  1  1  0  0  0
  1  2  1  0  0  0
  2  3  2  0  0  0
  2  5  1  0  0  0
  5  6  2  0  0  0
  6  7  1  0  0  0
  7  8  1  0  0  0
  7  9  2  0  0  0
  9 10  1  0  0  0
 10 11  2  0  0  0
 11 12  1  0  0  0
 12 13  2  0  0  0
 13 14  1  0  0  0
 14 15  1  0  0  0
 19 22  1  0  0  0
 22 23  1  0  0  0
 23 24  1  0  0  0
 21 16  1  0  0  0
 11  5  1  0  0  0
 24 18  1  0  0  0
 14 10  1  0  0  0
  1  4  1  0  0  0
 23 25  1  0  0  0
M  END
> <minimizedAffinity>
-7.93960

> <minimizedRMSD>
0.41387

$$$$
P19788


 26 29  0  0  0  0  0  0  0  0999 V2000
   -7.3227    5.4407  -12.6336 C   0  0  0  0  0  0  0  0  0  0  0  0
   -7.1821    6.4753  -12.1143 O   0  0  0  0  0  0  0  0  0  0  0  0
   -7.7960    4.0909  -12.0601 N   0  0  0  0  0  0  0  0  0  0  0  0
   -7.7568    3.3378  -12.6930 H   0  0  0  0  0  0  0  0  0  0  0  0
   -3.6756    5.3490  -15.9562 C   0  0  0  0  0  0  0  0  0  0  0  0
   -5.1438    5.2862  -15.6551 C   0  0  0  0  0  0  0  0  0  0  0  0
   -5.5650    5.4644  -14.3450 C   0  0  0  0  0  0  0  0  0  0  0  0
   -6.9138    5.2923  -14.0434 C   0  0  0  0  0  0  0  0  0  0  0  0
   -7.7949    4.9404  -15.0747 C   0  0  0  0  0  0  0  0  0  0  0  0
   -9.1526    4.6212  -15.2355 C   0  0  0  0  0  0  0  0  0  0  0  0
   -9.4721    4.2923  -16.4873 N   0  0  0  0  0  0  0  0  0  0  0  0
   -8.2987    4.4257  -17.1803 N   0  0  0  0  0  0  0  0  0  0  0  0
   -7.2612    4.8261  -16.3533 C   0  0  0  0  0  0  0  0  0  0  0  0
   -5.9657    5.0080  -16.6918 N   0  0  0  0  0  0  0  0  0  0  0  0
   -8.1203    3.9288  -18.5645 C   0  0  0  0  0  0  0  0  0  0  0  0
   -7.9047    3.4136  -19.5844 N   0  0  0  0  0  0  0  0  0  0  0  0
   -8.2707    3.7626  -10.7914 C   0  0  0  0  0  0  0  0  0  0  0  0
   -8.8235    2.4862  -10.6269 C   0  0  0  0  0  0  0  0  0  0  0  0
   -9.2900    2.0569   -9.3859 C   0  0  0  0  0  0  0  0  0  0  0  0
   -9.1631    2.9042   -8.3102 C   0  0  0  0  0  0  0  0  0  0  0  0
   -8.5925    4.1608   -8.4568 C   0  0  0  0  0  0  0  0  0  0  0  0
   -8.1571    4.6205   -9.6956 C   0  0  0  0  0  0  0  0  0  0  0  0
   -8.5057    4.8016   -7.1159 C   0  0  0  0  0  0  0  0  0  0  0  0
   -9.2976    3.9567   -6.1862 N   0  0  0  0  0  0  0  0  0  0  0  0
   -9.5474    2.6669   -6.8912 C   0  0  0  0  0  0  0  0  0  0  0  0
  -10.1822    4.4129   -5.9629 H   0  0  0  0  0  0  0  0  0  0  0  0
  5  6  1  0  0  0
  6  7  2  0  0  0
  7  8  1  0  0  0
  8  1  1  0  0  0
  1  2  2  0  0  0
  1  3  1  0  0  0
  3 17  1  0  0  0
 17 18  2  0  0  0
 18 19  1  0  0  0
 19 20  2  0  0  0
 20 21  1  0  0  0
 21 22  2  0  0  0
 21 23  1  0  0  0
 23 24  1  0  0  0
 24 25  1  0  0  0
  8  9  2  0  0  0
  9 10  1  0  0  0
 10 11  2  0  0  0
 11 12  1  0  0  0
 12 15  1  0  0  0
 15 16  3  0  0  0
 12 13  1  0  0  0
 13 14  2  0  0  0
 14  6  1  0  0  0
 22 17  1  0  0  0
 13  9  1  0  0  0
 25 20  1  0  0  0
  3  4  1  0  0  0
 24 26  1  0  0  0
M  END
> <minimizedAffinity>
-7.32949

> <minimizedRMSD>
0.54420

$$$$
P19796


 31 34  0  0  0  0  0  0  0  0999 V2000
   -6.8974    5.7151  -13.0261 C   0  0  0  0  0  0  0  0  0  0  0  0
   -5.8063    6.4585  -12.5088 O   0  0  0  0  0  0  0  0  0  0  0  0
   -5.7791    7.3305  -12.9330 H   0  0  0  0  0  0  0  0  0  0  0  0
   -3.7342    5.5654  -16.9464 C   0  0  0  0  0  0  0  0  0  0  0  0
   -5.1352    5.3801  -16.4342 C   0  0  0  0  0  0  0  0  0  0  0  0
   -5.3882    5.6464  -15.0889 C   0  0  0  0  0  0  0  0  0  0  0  0
   -6.6606    5.4321  -14.5171 C   0  0  0  0  0  0  0  0  0  0  0  0
   -7.6204    4.9029  -15.4162 C   0  0  0  0  0  0  0  0  0  0  0  0
   -8.9595    4.4507  -15.3499 C   0  0  0  0  0  0  0  0  0  0  0  0
   -9.4096    3.9573  -16.5023 N   0  0  0  0  0  0  0  0  0  0  0  0
   -8.3787    4.1676  -17.3518 N   0  0  0  0  0  0  0  0  0  0  0  0
   -8.5592    3.8323  -18.7371 C   0  0  0  0  0  0  0  0  0  0  0  0
   -7.2622    4.6879  -16.7452 C   0  0  0  0  0  0  0  0  0  0  0  0
   -6.0589    4.9252  -17.3108 N   0  0  0  0  0  0  0  0  0  0  0  0
   -6.8329    4.4479  -12.3241 N   0  0  0  0  0  0  0  0  0  0  0  0
   -6.1944    3.7918  -12.6863 H   0  0  0  0  0  0  0  0  0  0  0  0
   -7.5510    4.0360  -11.2095 C   0  0  0  0  0  0  0  0  0  0  0  0
   -8.2964    2.8488  -11.3419 C   0  0  0  0  0  0  0  0  0  0  0  0
   -9.0298    2.2994  -10.2933 C   0  0  0  0  0  0  0  0  0  0  0  0
   -8.9741    2.9164   -9.0717 C   0  0  0  0  0  0  0  0  0  0  0  0
   -8.2221    4.0677   -8.8956 C   0  0  0  0  0  0  0  0  0  0  0  0
   -7.5192    4.6456   -9.9487 C   0  0  0  0  0  0  0  0  0  0  0  0
   -8.3432    4.4934   -7.4735 C   0  0  0  0  0  0  0  0  0  0  0  0
   -8.9571    3.3473   -6.7534 N   0  0  0  0  0  0  0  0  0  0  0  0
   -9.6412    2.5328   -7.7981 C   0  0  0  0  0  0  0  0  0  0  0  0
   -9.6313    3.6804   -6.0643 H   0  0  0  0  0  0  0  0  0  0  0  0
   -8.2107    6.4535  -12.7688 C   0  0  0  0  0  0  0  0  0  0  0  0
   -7.9998    7.9138  -12.4865 C   0  0  0  0  0  0  0  0  0  0  0  0
   -7.3071    8.7165  -13.0879 O   0  0  0  0  0  0  0  0  0  0  0  0
   -8.7684    8.3360  -11.4584 O   0  0  0  0  0  0  0  0  0  0  0  0
   -9.3034    7.7246  -10.9915 H   0  0  0  0  0  0  0  0  0  0  0  0
  4  5  1  0  0  0
  5  6  2  0  0  0
  6  7  1  0  0  0
  7  1  1  0  0  0
  1  2  1  0  0  0
  1 27  1  0  0  0
 27 28  1  0  0  0
 28 29  2  0  0  0
 28 30  1  0  0  0
  1 15  1  0  0  0
 15 17  1  0  0  0
 17 18  2  0  0  0
 18 19  1  0  0  0
 19 20  2  0  0  0
 20 21  1  0  0  0
 21 22  2  0  0  0
 21 23  1  0  0  0
 23 24  1  0  0  0
 24 25  1  0  0  0
  7  8  2  0  0  0
  8  9  1  0  0  0
  9 10  2  0  0  0
 10 11  1  0  0  0
 11 12  1  0  0  0
 11 13  1  0  0  0
 13 14  2  0  0  0
 14  5  1  0  0  0
 22 17  1  0  0  0
 13  8  1  0  0  0
 25 20  1  0  0  0
  2  3  1  0  0  0
 30 31  1  0  0  0
 15 16  1  0  0  0
 24 26  1  0  0  0
M  END
> <minimizedAffinity>
-7.15946

> <minimizedRMSD>
0.53487

$$$$
P19806


 35 38  0  0  0  0  0  0  0  0999 V2000
   -8.1550    5.2121  -13.0059 C   0  0  0  0  0  0  0  0  0  0  0  0
   -9.1382    4.2398  -13.2736 O   0  0  0  0  0  0  0  0  0  0  0  0
   -8.7182    3.3692  -13.3551 H   0  0  0  0  0  0  0  0  0  0  0  0
   -3.2877    5.7800  -14.2430 C   0  0  0  0  0  0  0  0  0  0  0  0
   -4.6859    5.5698  -14.7454 C   0  0  0  0  0  0  0  0  0  0  0  0
   -5.7467    5.5306  -13.8019 C   0  0  0  0  0  0  0  0  0  0  0  0
   -7.1169    5.2703  -14.1224 C   0  0  0  0  0  0  0  0  0  0  0  0
   -7.1859    5.0254  -15.5015 C   0  0  0  0  0  0  0  0  0  0  0  0
   -8.2701    4.6263  -16.2486 C   0  0  0  0  0  0  0  0  0  0  0  0
   -7.8561    4.5030  -17.5708 N   0  0  0  0  0  0  0  0  0  0  0  0
   -6.5151    4.8104  -17.6794 C   0  0  0  0  0  0  0  0  0  0  0  0
   -5.7175    4.7932  -18.9256 C   0  0  0  0  0  0  0  0  0  0  0  0
   -6.0921    5.1033  -16.4134 C   0  0  0  0  0  0  0  0  0  0  0  0
   -4.8193    5.4009  -16.0823 N   0  0  0  0  0  0  0  0  0  0  0  0
   -8.7238    4.0759  -18.6468 C   0  0  0  0  0  0  0  0  0  0  0  0
   -9.2196    2.8384  -18.3661 F   0  0  0  0  0  0  0  0  0  0  0  0
   -8.8542    6.6655  -12.8695 C   0  0  0  0  0  0  0  0  0  0  0  0
   -9.7624    6.9988  -13.5299 O   0  0  0  0  0  0  0  0  0  0  0  0
   -8.0807    7.4339  -11.7541 N   0  0  0  0  0  0  0  0  0  0  0  0
   -7.3946    6.9036  -11.2880 H   0  0  0  0  0  0  0  0  0  0  0  0
   -8.2076    8.7963  -11.2944 C   0  0  0  0  0  0  0  0  0  0  0  0
   -7.9752    9.7754  -12.4392 C   0  0  0  0  0  0  0  0  0  0  0  0
   -9.5656    9.0256  -10.6410 C   0  0  0  0  0  0  0  0  0  0  0  0
   -7.3961    4.8674  -11.7703 N   0  0  0  0  0  0  0  0  0  0  0  0
   -6.4466    5.1167  -11.6956 H   0  0  0  0  0  0  0  0  0  0  0  0
   -8.0235    4.1899  -10.7110 C   0  0  0  0  0  0  0  0  0  0  0  0
   -8.5760    2.9138  -10.9296 C   0  0  0  0  0  0  0  0  0  0  0  0
   -9.1276    2.1748   -9.8843 C   0  0  0  0  0  0  0  0  0  0  0  0
   -9.1124    2.7183   -8.6190 C   0  0  0  0  0  0  0  0  0  0  0  0
   -8.6160    3.9948   -8.3990 C   0  0  0  0  0  0  0  0  0  0  0  0
   -8.0949    4.7546   -9.4338 C   0  0  0  0  0  0  0  0  0  0  0  0
   -8.7469    4.3226   -6.9529 C   0  0  0  0  0  0  0  0  0  0  0  0
   -9.0771    3.0488   -6.2727 N   0  0  0  0  0  0  0  0  0  0  0  0
   -9.5860    2.1340   -7.3331 C   0  0  0  0  0  0  0  0  0  0  0  0
   -9.7939    3.2017   -5.5633 H   0  0  0  0  0  0  0  0  0  0  0  0
  4  5  1  0  0  0
  5  6  1  0  0  0
  6  7  2  0  0  0
  7  1  1  0  0  0
  1  2  1  0  0  0
  1 24  1  0  0  0
 24 26  1  0  0  0
 26 27  2  0  0  0
 27 28  1  0  0  0
 28 29  2  0  0  0
 29 30  1  0  0  0
 30 31  2  0  0  0
 30 32  1  0  0  0
 32 33  1  0  0  0
 33 34  1  0  0  0
  1 17  1  0  0  0
 17 18  2  0  0  0
 17 19  1  0  0  0
 19 21  1  0  0  0
 21 22  1  0  0  0
 21 23  1  0  0  0
  7  8  1  0  0  0
  8  9  2  0  0  0
  9 10  1  0  0  0
 10 15  1  0  0  0
 15 16  1  0  0  0
 10 11  1  0  0  0
 11 12  1  0  0  0
 11 13  2  0  0  0
 13 14  1  0  0  0
 14  5  2  0  0  0
 31 26  1  0  0  0
 13  8  1  0  0  0
 34 29  1  0  0  0
  2  3  1  0  0  0
 24 25  1  0  0  0
 33 35  1  0  0  0
 19 20  1  0  0  0
M  END
> <minimizedAffinity>
-8.40102

> <minimizedRMSD>
1.12495

$$$$
P19864


 38 43  0  0  0  0  0  0  0  0999 V2000
   -7.8821    5.0519  -13.5708 C   0  0  0  0  0  0  0  0  0  0  0  0
   -7.2986    5.0410  -14.9800 C   0  0  0  0  0  0  0  0  0  0  0  0
   -5.9210    5.3448  -15.2637 C   0  0  0  0  0  0  0  0  0  0  0  0
   -5.3707    5.2934  -16.5877 C   0  0  0  0  0  0  0  0  0  0  0  0
   -3.6978    5.5098  -16.8605 Cl  0  0  0  0  0  0  0  0  0  0  0  0
   -6.2070    4.9942  -17.6274 C   0  0  0  0  0  0  0  0  0  0  0  0
   -6.0968    4.6141  -18.9745 N   0  0  0  0  0  0  0  0  0  0  0  0
   -7.3549    3.9931  -19.3735 C   0  0  0  0  0  0  0  0  0  0  0  0
   -7.4995    3.2017  -20.2922 O   0  0  0  0  0  0  0  0  0  0  0  0
   -8.2673    4.3476  -18.3385 N   0  0  0  0  0  0  0  0  0  0  0  0
   -7.5039    4.8040  -17.3043 C   0  0  0  0  0  0  0  0  0  0  0  0
   -8.0745    4.7061  -16.0726 C   0  0  0  0  0  0  0  0  0  0  0  0
   -9.4302    4.1452  -16.3579 C   0  0  0  0  0  0  0  0  0  0  0  0
   -9.3934    3.6894  -17.8069 N   0  0  0  0  0  0  0  0  0  0  0  0
   -5.3082    4.7441  -19.5493 H   0  0  0  0  0  0  0  0  0  0  0  0
  -10.2428    3.9692  -18.2974 H   0  0  0  0  0  0  0  0  0  0  0  0
   -9.1503    7.0521  -13.1168 O   0  0  0  0  0  0  0  0  0  0  0  0
   -8.1109    6.5205  -13.0666 C   0  0  0  0  0  0  0  0  0  0  0  0
   -6.7350    7.0473  -12.5801 N   0  0  0  0  0  0  0  0  0  0  0  0
   -5.9850    6.4230  -12.7105 H   0  0  0  0  0  0  0  0  0  0  0  0
   -6.3763    8.3024  -11.9681 C   0  0  0  0  0  0  0  0  0  0  0  0
   -5.3836    9.1502  -12.7736 C   0  0  0  0  0  0  0  0  0  0  0  0
   -5.9330    9.7545  -14.0602 C   0  0  0  0  0  0  0  0  0  0  0  0
   -5.2813    8.9370  -15.1460 C   0  0  0  0  0  0  0  0  0  0  0  0
   -3.9610    8.5601  -14.5179 C   0  0  0  0  0  0  0  0  0  0  0  0
   -4.2253    8.3639  -13.1246 O   0  0  0  0  0  0  0  0  0  0  0  0
   -6.9831    4.2994  -12.6472 N   0  0  0  0  0  0  0  0  0  0  0  0
   -6.0248    4.1490  -12.8150 H   0  0  0  0  0  0  0  0  0  0  0  0
   -7.6718    3.8243  -11.4956 C   0  0  0  0  0  0  0  0  0  0  0  0
   -8.4364    2.6461  -11.5706 C   0  0  0  0  0  0  0  0  0  0  0  0
   -9.0821    2.1296  -10.4475 C   0  0  0  0  0  0  0  0  0  0  0  0
   -8.9536    2.7989   -9.2503 C   0  0  0  0  0  0  0  0  0  0  0  0
   -8.2549    3.9956   -9.1760 C   0  0  0  0  0  0  0  0  0  0  0  0
   -7.6241    4.5337  -10.2897 C   0  0  0  0  0  0  0  0  0  0  0  0
   -8.3339    4.5106   -7.7806 C   0  0  0  0  0  0  0  0  0  0  0  0
   -8.8554    3.3932   -6.9559 N   0  0  0  0  0  0  0  0  0  0  0  0
   -9.4874    2.4364   -7.9071 C   0  0  0  0  0  0  0  0  0  0  0  0
   -9.5462    3.7379   -6.2893 H   0  0  0  0  0  0  0  0  0  0  0  0
 17 18  2  0  0  0
 18 19  1  0  0  0
 19 21  1  0  0  0
 22 21  1  0  0  0
 22 23  1  0  0  0
 23 24  1  0  0  0
 24 25  1  0  0  0
 25 26  1  0  0  0
 18  1  1  0  0  0
  1 27  1  0  0  0
 27 29  1  0  0  0
 29 30  2  0  0  0
 30 31  1  0  0  0
 31 32  2  0  0  0
 32 33  1  0  0  0
 33 34  2  0  0  0
 33 35  1  0  0  0
 35 36  1  0  0  0
 36 37  1  0  0  0
  1  2  1  0  0  0
  2  3  2  0  0  0
  3  4  1  0  0  0
  4  5  1  0  0  0
  4  6  2  0  0  0
  6  7  1  0  0  0
  7  8  1  0  0  0
  8  9  2  0  0  0
  8 10  1  0  0  0
 10 11  1  0  0  0
 11 12  2  0  0  0
 12 13  1  0  0  0
 13 14  1  0  0  0
 26 22  1  0  0  0
 34 29  1  0  0  0
 12  2  1  0  0  0
 37 32  1  0  0  0
 11  6  1  0  0  0
 14 10  1  0  0  0
 19 20  1  0  0  0
 27 28  1  0  0  0
 36 38  1  0  0  0
  7 15  1  0  0  0
 14 16  1  0  0  0
M  END
> <minimizedAffinity>
-7.49196

> <minimizedRMSD>
0.49428

$$$$
P19957


 26 29  0  0  0  0  0  0  0  0999 V2000
   -7.1210    4.4347  -14.0056 C   0  0  0  0  0  0  0  0  0  0  0  0
   -6.0551    4.1826  -13.4565 O   0  0  0  0  0  0  0  0  0  0  0  0
   -9.9151    4.2501  -18.2498 C   0  0  0  0  0  0  0  0  0  0  0  0
   -8.5883    4.3323  -17.5601 C   0  0  0  0  0  0  0  0  0  0  0  0
   -8.4290    4.1366  -16.1714 C   0  0  0  0  0  0  0  0  0  0  0  0
   -7.2493    4.4931  -15.4874 C   0  0  0  0  0  0  0  0  0  0  0  0
   -6.2109    4.9926  -16.2454 C   0  0  0  0  0  0  0  0  0  0  0  0
   -6.3567    5.0951  -17.6230 C   0  0  0  0  0  0  0  0  0  0  0  0
   -7.5099    4.7772  -18.3011 C   0  0  0  0  0  0  0  0  0  0  0  0
   -5.1979    5.5963  -18.1805 N   0  0  0  0  0  0  0  0  0  0  0  0
   -5.0667    5.7831  -19.5868 C   0  0  0  0  0  0  0  0  0  0  0  0
   -4.2374    5.8593  -17.2171 C   0  0  0  0  0  0  0  0  0  0  0  0
   -3.1052    6.2852  -17.3939 O   0  0  0  0  0  0  0  0  0  0  0  0
   -4.8654    5.5308  -15.8585 C   0  0  0  0  0  0  0  0  0  0  0  0
   -8.2824    4.8469  -13.1372 C   0  0  0  0  0  0  0  0  0  0  0  0
   -9.2078    5.4763  -13.6425 O   0  0  0  0  0  0  0  0  0  0  0  0
   -8.2161    4.6594  -11.6771 C   0  0  0  0  0  0  0  0  0  0  0  0
   -7.9729    5.8087  -10.9002 C   0  0  0  0  0  0  0  0  0  0  0  0
   -8.0160    5.7425   -9.5081 C   0  0  0  0  0  0  0  0  0  0  0  0
   -8.3308    4.5283   -8.9238 C   0  0  0  0  0  0  0  0  0  0  0  0
   -8.5715    3.3915   -9.6914 C   0  0  0  0  0  0  0  0  0  0  0  0
   -8.5023    3.4279  -11.0788 C   0  0  0  0  0  0  0  0  0  0  0  0
   -8.9133    2.2553   -8.7842 C   0  0  0  0  0  0  0  0  0  0  0  0
   -8.9975    2.8221   -7.4139 N   0  0  0  0  0  0  0  0  0  0  0  0
   -8.4923    4.2051   -7.4780 C   0  0  0  0  0  0  0  0  0  0  0  0
   -8.4262    2.2714   -6.7730 H   0  0  0  0  0  0  0  0  0  0  0  0
  3  4  1  0  0  0
  4  5  2  0  0  0
  5  6  1  0  0  0
  6  1  1  0  0  0
  1  2  2  0  0  0
  1 15  1  0  0  0
 15 16  2  0  0  0
 15 17  1  0  0  0
 17 18  2  0  0  0
 18 19  1  0  0  0
 19 20  2  0  0  0
 20 21  1  0  0  0
 21 22  2  0  0  0
 21 23  1  0  0  0
 23 24  1  0  0  0
 24 25  1  0  0  0
  6  7  2  0  0  0
  7  8  1  0  0  0
  8  9  2  0  0  0
  8 10  1  0  0  0
 10 11  1  0  0  0
 10 12  1  0  0  0
 12 13  2  0  0  0
 12 14  1  0  0  0
  9  4  1  0  0  0
 22 17  1  0  0  0
 14  7  1  0  0  0
 25 20  1  0  0  0
 24 26  1  0  0  0
M  END
> <minimizedAffinity>
-8.84731

> <minimizedRMSD>
0.53205

$$$$
P19969


 29 32  0  0  0  0  0  0  0  0999 V2000
   -4.8554    6.2308  -16.7222 N   0  0  0  0  0  0  0  0  0  0  0  0
   -4.4974    6.9222  -15.5488 C   0  0  0  0  0  0  0  0  0  0  0  0
   -3.6115    7.7578  -15.4299 O   0  0  0  0  0  0  0  0  0  0  0  0
   -5.4647    6.4635  -14.4570 C   0  0  0  0  0  0  0  0  0  0  0  0
   -6.4139    5.5801  -15.2096 C   0  0  0  0  0  0  0  0  0  0  0  0
   -7.6019    5.0007  -14.8149 C   0  0  0  0  0  0  0  0  0  0  0  0
   -8.3453    4.2748  -15.7619 C   0  0  0  0  0  0  0  0  0  0  0  0
   -7.9065    4.1351  -17.0772 C   0  0  0  0  0  0  0  0  0  0  0  0
   -6.7427    4.7661  -17.4735 C   0  0  0  0  0  0  0  0  0  0  0  0
   -6.0069    5.4673  -16.5333 C   0  0  0  0  0  0  0  0  0  0  0  0
   -8.2107    5.2988  -13.4968 C   0  0  0  0  0  0  0  0  0  0  0  0
   -9.1970    5.9191  -13.4511 O   0  0  0  0  0  0  0  0  0  0  0  0
   -7.4164    4.6017  -12.3760 N   0  0  0  0  0  0  0  0  0  0  0  0
   -6.5639    4.2014  -12.6629 H   0  0  0  0  0  0  0  0  0  0  0  0
   -7.7055    4.4466  -11.0327 C   0  0  0  0  0  0  0  0  0  0  0  0
   -7.4699    5.4744  -10.1086 C   0  0  0  0  0  0  0  0  0  0  0  0
   -7.8543    5.3269   -8.7745 C   0  0  0  0  0  0  0  0  0  0  0  0
   -8.4743    4.1488   -8.4045 C   0  0  0  0  0  0  0  0  0  0  0  0
   -8.6926    3.1279   -9.3251 C   0  0  0  0  0  0  0  0  0  0  0  0
   -8.3162    3.2568  -10.6438 C   0  0  0  0  0  0  0  0  0  0  0  0
   -9.3222    1.9710   -8.6317 C   0  0  0  0  0  0  0  0  0  0  0  0
   -9.8487    2.5349   -7.3647 N   0  0  0  0  0  0  0  0  0  0  0  0
   -8.9921    3.7087   -7.0764 C   0  0  0  0  0  0  0  0  0  0  0  0
   -9.7808    1.8493   -6.6125 H   0  0  0  0  0  0  0  0  0  0  0  0
   -4.3896    6.6151  -17.9809 N   0  0  0  0  0  0  0  0  0  0  0  0
   -5.1587    6.5456  -18.6472 H   0  0  0  0  0  0  0  0  0  0  0  0
   -3.6617    4.8645  -19.6161 C   0  0  0  0  0  0  0  0  0  0  0  0
   -3.2753    5.7808  -18.4619 C   0  0  0  0  0  0  0  0  0  0  0  0
   -2.5879    5.0292  -17.3183 C   0  0  0  0  0  0  0  0  0  0  0  0
 27 28  1  0  0  0
 28 29  1  0  0  0
 28 25  1  0  0  0
 25  1  1  0  0  0
  1  2  1  0  0  0
  2  3  2  0  0  0
  2  4  1  0  0  0
  4  5  1  0  0  0
  5  6  2  0  0  0
  6 11  1  0  0  0
 11 12  2  0  0  0
 11 13  1  0  0  0
 13 15  1  0  0  0
 15 16  2  0  0  0
 16 17  1  0  0  0
 17 18  2  0  0  0
 18 19  1  0  0  0
 19 20  2  0  0  0
 19 21  1  0  0  0
 21 22  1  0  0  0
 22 23  1  0  0  0
  6  7  1  0  0  0
  7  8  2  0  0  0
  8  9  1  0  0  0
  9 10  2  0  0  0
 10  1  1  0  0  0
 10  5  1  0  0  0
 20 15  1  0  0  0
 23 18  1  0  0  0
 25 26  1  0  0  0
 13 14  1  0  0  0
 22 24  1  0  0  0
M  END
> <minimizedAffinity>
-7.40351

> <minimizedRMSD>
1.30449

$$$$
P19973


 32 35  0  0  0  0  0  0  0  0999 V2000
   -7.1285    5.0289  -13.5700 C   0  0  0  0  0  0  0  0  0  0  0  0
   -7.5884    6.3593  -13.6447 O   0  0  0  0  0  0  0  0  0  0  0  0
   -7.6759    6.7220  -12.7493 H   0  0  0  0  0  0  0  0  0  0  0  0
   -7.0726    4.6861  -15.0622 C   0  0  0  0  0  0  0  0  0  0  0  0
   -8.2400    4.2274  -15.7235 C   0  0  0  0  0  0  0  0  0  0  0  0
   -8.3205    4.1251  -17.1263 C   0  0  0  0  0  0  0  0  0  0  0  0
   -9.8093    3.6945  -17.8599 Cl  0  0  0  0  0  0  0  0  0  0  0  0
   -7.2463    4.4529  -17.9376 C   0  0  0  0  0  0  0  0  0  0  0  0
   -6.1169    4.9026  -17.2989 C   0  0  0  0  0  0  0  0  0  0  0  0
   -6.0101    5.0305  -15.9047 C   0  0  0  0  0  0  0  0  0  0  0  0
   -4.6581    5.6265  -15.6063 C   0  0  0  0  0  0  0  0  0  0  0  0
   -4.0174    5.7535  -16.9902 C   0  0  0  0  0  0  0  0  0  0  0  0
   -2.8887    6.1501  -17.2337 O   0  0  0  0  0  0  0  0  0  0  0  0
   -4.9523    5.3280  -17.9170 N   0  0  0  0  0  0  0  0  0  0  0  0
   -4.8084    5.3276  -18.8909 H   0  0  0  0  0  0  0  0  0  0  0  0
   -4.3272    2.6927  -11.9787 C   0  0  0  0  0  0  0  0  0  0  0  0
   -5.3800    3.3629  -12.6790 N   0  0  0  0  0  0  0  0  0  0  0  0
   -5.7101    4.8832  -12.7974 C   0  0  0  0  0  0  0  0  0  0  0  0
   -5.1253    5.8201  -12.4036 O   0  0  0  0  0  0  0  0  0  0  0  0
   -5.9959    2.7681  -13.1649 H   0  0  0  0  0  0  0  0  0  0  0  0
   -8.1967    4.3029  -12.8492 N   0  0  0  0  0  0  0  0  0  0  0  0
   -8.8732    3.8048  -13.3625 H   0  0  0  0  0  0  0  0  0  0  0  0
   -8.2648    4.3104  -11.4404 C   0  0  0  0  0  0  0  0  0  0  0  0
   -8.0864    5.4764  -10.6616 C   0  0  0  0  0  0  0  0  0  0  0  0
   -8.2022    5.4659   -9.2655 C   0  0  0  0  0  0  0  0  0  0  0  0
   -8.5038    4.2744   -8.6417 C   0  0  0  0  0  0  0  0  0  0  0  0
   -8.7040    3.1200   -9.3810 C   0  0  0  0  0  0  0  0  0  0  0  0
   -8.6107    3.1255  -10.7688 C   0  0  0  0  0  0  0  0  0  0  0  0
   -9.0381    1.9968   -8.4589 C   0  0  0  0  0  0  0  0  0  0  0  0
   -8.9078    2.5315   -7.0763 N   0  0  0  0  0  0  0  0  0  0  0  0
   -8.7033    3.9903   -7.1949 C   0  0  0  0  0  0  0  0  0  0  0  0
   -8.1091    2.1027   -6.6087 H   0  0  0  0  0  0  0  0  0  0  0  0
 16 17  1  0  0  0
 17 18  1  0  0  0
 18 19  2  0  0  0
 18  1  1  0  0  0
  1  2  1  0  0  0
  1 21  1  0  0  0
 21 23  1  0  0  0
 23 24  2  0  0  0
 24 25  1  0  0  0
 25 26  2  0  0  0
 26 27  1  0  0  0
 27 28  2  0  0  0
 27 29  1  0  0  0
 29 30  1  0  0  0
 30 31  1  0  0  0
  1  4  1  0  0  0
  4  5  2  0  0  0
  5  6  1  0  0  0
  6  7  1  0  0  0
  6  8  2  0  0  0
  8  9  1  0  0  0
  9 10  2  0  0  0
 10 11  1  0  0  0
 11 12  1  0  0  0
 12 13  2  0  0  0
 12 14  1  0  0  0
 28 23  1  0  0  0
 10  4  1  0  0  0
 31 26  1  0  0  0
 14  9  1  0  0  0
 17 20  1  0  0  0
  2  3  1  0  0  0
 21 22  1  0  0  0
 30 32  1  0  0  0
 14 15  1  0  0  0
M  END
> <minimizedAffinity>
-8.49110

> <minimizedRMSD>
0.27582

$$$$
P19979


 35 39  0  0  0  0  0  0  0  0999 V2000
   -7.0970    5.0078  -13.8133 C   0  0  0  0  0  0  0  0  0  0  0  0
   -2.9969    5.7042  -17.8089 O   0  0  0  0  0  0  0  0  0  0  0  0
   -4.1382    5.4273  -17.4738 C   0  0  0  0  0  0  0  0  0  0  0  0
   -4.7004    5.4350  -16.0496 C   0  0  0  0  0  0  0  0  0  0  0  0
   -6.1153    4.9480  -16.2317 C   0  0  0  0  0  0  0  0  0  0  0  0
   -6.3148    4.7468  -17.6089 C   0  0  0  0  0  0  0  0  0  0  0  0
   -7.4999    4.3224  -18.1574 C   0  0  0  0  0  0  0  0  0  0  0  0
   -8.5353    4.0856  -17.2701 C   0  0  0  0  0  0  0  0  0  0  0  0
  -10.0768    3.6697  -17.8948 Cl  0  0  0  0  0  0  0  0  0  0  0  0
   -8.3633    4.2680  -15.8835 C   0  0  0  0  0  0  0  0  0  0  0  0
   -7.1426    4.7107  -15.3168 C   0  0  0  0  0  0  0  0  0  0  0  0
   -5.1644    5.0475  -18.3191 N   0  0  0  0  0  0  0  0  0  0  0  0
   -5.0873    4.9972  -19.2993 H   0  0  0  0  0  0  0  0  0  0  0  0
   -5.6602    5.0684  -13.1831 C   0  0  0  0  0  0  0  0  0  0  0  0
   -5.1468    6.0957  -12.9547 O   0  0  0  0  0  0  0  0  0  0  0  0
   -5.1473    3.6170  -12.9691 N   0  0  0  0  0  0  0  0  0  0  0  0
   -5.7426    2.9140  -13.3165 H   0  0  0  0  0  0  0  0  0  0  0  0
   -3.9412    3.1327  -12.3443 C   0  0  0  0  0  0  0  0  0  0  0  0
   -4.1201    3.0010  -10.8243 C   0  0  0  0  0  0  0  0  0  0  0  0
   -3.0670    2.1129  -10.1774 C   0  0  0  0  0  0  0  0  0  0  0  0
   -3.6990    0.7464  -10.2363 C   0  0  0  0  0  0  0  0  0  0  0  0
   -5.1584    1.0667  -10.0099 C   0  0  0  0  0  0  0  0  0  0  0  0
   -5.3896    2.3666  -10.5683 O   0  0  0  0  0  0  0  0  0  0  0  0
   -8.0097    4.1032  -13.0747 N   0  0  0  0  0  0  0  0  0  0  0  0
   -8.5220    3.4255  -13.5722 H   0  0  0  0  0  0  0  0  0  0  0  0
   -8.1597    4.1906  -11.6858 C   0  0  0  0  0  0  0  0  0  0  0  0
   -8.0024    5.3919  -10.9653 C   0  0  0  0  0  0  0  0  0  0  0  0
   -8.1391    5.4392   -9.5699 C   0  0  0  0  0  0  0  0  0  0  0  0
   -8.4674    4.2762   -8.8998 C   0  0  0  0  0  0  0  0  0  0  0  0
   -8.6804    3.0982   -9.5952 C   0  0  0  0  0  0  0  0  0  0  0  0
   -8.5395    3.0414  -10.9750 C   0  0  0  0  0  0  0  0  0  0  0  0
   -9.0552    2.0116   -8.6466 C   0  0  0  0  0  0  0  0  0  0  0  0
   -9.0974    2.6316   -7.2946 N   0  0  0  0  0  0  0  0  0  0  0  0
   -8.6620    4.0383   -7.4430 C   0  0  0  0  0  0  0  0  0  0  0  0
   -8.4680    2.1360   -6.6633 H   0  0  0  0  0  0  0  0  0  0  0  0
  2  3  2  0  0  0
  3  4  1  0  0  0
  4  5  1  0  0  0
  5  6  2  0  0  0
  6  7  1  0  0  0
  7  8  2  0  0  0
  8  9  1  0  0  0
  8 10  1  0  0  0
 10 11  2  0  0  0
 11  1  1  0  0  0
  1 24  1  0  0  0
 24 26  1  0  0  0
 26 27  2  0  0  0
 27 28  1  0  0  0
 28 29  2  0  0  0
 29 30  1  0  0  0
 30 31  2  0  0  0
 30 32  1  0  0  0
 32 33  1  0  0  0
 33 34  1  0  0  0
  1 14  1  0  0  0
 14 15  2  0  0  0
 14 16  1  0  0  0
 16 18  1  0  0  0
 19 18  1  0  0  0
 19 20  1  0  0  0
 20 21  1  0  0  0
 21 22  1  0  0  0
 22 23  1  0  0  0
  6 12  1  0  0  0
 12  3  1  0  0  0
 11  5  1  0  0  0
 31 26  1  0  0  0
 23 19  1  0  0  0
 34 29  1  0  0  0
 24 25  1  0  0  0
 33 35  1  0  0  0
 16 17  1  0  0  0
 12 13  1  0  0  0
M  END
> <minimizedAffinity>
-8.92915

> <minimizedRMSD>
0.56061

$$$$
P19985


 28 31  0  0  0  0  0  0  0  0999 V2000
   -5.3694    5.5389  -17.6866 N   0  0  0  0  0  0  0  0  0  0  0  0
   -4.9584    6.1264  -16.4909 C   0  0  0  0  0  0  0  0  0  0  0  0
   -3.9812    6.8385  -16.3071 O   0  0  0  0  0  0  0  0  0  0  0  0
   -5.9817    5.7553  -15.4266 C   0  0  0  0  0  0  0  0  0  0  0  0
   -7.0042    4.9904  -16.2085 C   0  0  0  0  0  0  0  0  0  0  0  0
   -8.2341    4.5001  -15.7970 C   0  0  0  0  0  0  0  0  0  0  0  0
   -9.0336    3.8263  -16.7256 C   0  0  0  0  0  0  0  0  0  0  0  0
   -8.5947    3.6793  -18.0545 C   0  0  0  0  0  0  0  0  0  0  0  0
   -7.3643    4.2073  -18.4691 C   0  0  0  0  0  0  0  0  0  0  0  0
   -6.5854    4.8601  -17.5302 C   0  0  0  0  0  0  0  0  0  0  0  0
   -8.7323    4.8582  -14.4485 C   0  0  0  0  0  0  0  0  0  0  0  0
   -9.4852    5.7460  -14.3648 O   0  0  0  0  0  0  0  0  0  0  0  0
   -8.0976    3.9792  -13.3526 N   0  0  0  0  0  0  0  0  0  0  0  0
   -7.5452    3.2367  -13.6884 H   0  0  0  0  0  0  0  0  0  0  0  0
   -8.1785    4.0644  -11.9640 C   0  0  0  0  0  0  0  0  0  0  0  0
   -7.8808    5.2682  -11.3025 C   0  0  0  0  0  0  0  0  0  0  0  0
   -7.9291    5.3539   -9.9085 C   0  0  0  0  0  0  0  0  0  0  0  0
   -8.2957    4.2270   -9.1982 C   0  0  0  0  0  0  0  0  0  0  0  0
   -8.6011    3.0390   -9.8494 C   0  0  0  0  0  0  0  0  0  0  0  0
   -8.5391    2.9332  -11.2309 C   0  0  0  0  0  0  0  0  0  0  0  0
   -8.9571    1.9989   -8.8443 C   0  0  0  0  0  0  0  0  0  0  0  0
   -8.9639    2.6778   -7.5214 N   0  0  0  0  0  0  0  0  0  0  0  0
   -8.4339    4.0411   -7.7277 C   0  0  0  0  0  0  0  0  0  0  0  0
   -8.3729    2.1687   -6.8642 H   0  0  0  0  0  0  0  0  0  0  0  0
   -4.6689    5.7222  -18.9194 C   0  0  0  0  0  0  0  0  0  0  0  0
   -2.5980    4.4820  -18.9347 C   0  0  0  0  0  0  0  0  0  0  0  0
   -4.0128    4.4786  -19.2812 N   0  0  0  0  0  0  0  0  0  0  0  0
   -4.4697    3.7108  -18.7892 H   0  0  0  0  0  0  0  0  0  0  0  0
 26 27  1  0  0  0
 27 25  1  0  0  0
 25  1  1  0  0  0
  1  2  1  0  0  0
  2  3  2  0  0  0
  2  4  1  0  0  0
  4  5  1  0  0  0
  5  6  2  0  0  0
  6 11  1  0  0  0
 11 12  2  0  0  0
 11 13  1  0  0  0
 13 15  1  0  0  0
 15 16  2  0  0  0
 16 17  1  0  0  0
 17 18  2  0  0  0
 18 19  1  0  0  0
 19 20  2  0  0  0
 19 21  1  0  0  0
 21 22  1  0  0  0
 22 23  1  0  0  0
  6  7  1  0  0  0
  7  8  2  0  0  0
  8  9  1  0  0  0
  9 10  2  0  0  0
 10  1  1  0  0  0
 10  5  1  0  0  0
 20 15  1  0  0  0
 23 18  1  0  0  0
 27 28  1  0  0  0
 13 14  1  0  0  0
 22 24  1  0  0  0
M  END
> <minimizedAffinity>
-8.62071

> <minimizedRMSD>
1.01057

$$$$
P19986


 30 34  0  0  0  0  0  0  0  0999 V2000
   -7.4382    4.7775  -15.3372 C   0  0  0  0  0  0  0  0  0  0  0  0
   -8.5154    4.1896  -16.0066 C   0  0  0  0  0  0  0  0  0  0  0  0
   -8.4592    3.9937  -17.3959 C   0  0  0  0  0  0  0  0  0  0  0  0
   -7.3525    4.4231  -18.1376 C   0  0  0  0  0  0  0  0  0  0  0  0
   -6.2783    4.9968  -17.4704 C   0  0  0  0  0  0  0  0  0  0  0  0
   -6.3060    5.1266  -16.0694 C   0  0  0  0  0  0  0  0  0  0  0  0
   -5.0175    5.6783  -15.5315 C   0  0  0  0  0  0  0  0  0  0  0  0
   -4.1585    5.7611  -16.7809 C   0  0  0  0  0  0  0  0  0  0  0  0
   -2.9475    5.9563  -16.7716 O   0  0  0  0  0  0  0  0  0  0  0  0
   -5.0181    5.6112  -18.0535 C   0  0  0  0  0  0  0  0  0  0  0  0
   -5.2704    7.0333  -18.6074 C   0  0  0  0  0  0  0  0  0  0  0  0
   -5.3891    7.0254  -20.1282 C   0  0  0  0  0  0  0  0  0  0  0  0
   -4.2052    6.5026  -20.8061 N   0  0  0  0  0  0  0  0  0  0  0  0
   -3.4307    5.5874  -19.9819 C   0  0  0  0  0  0  0  0  0  0  0  0
   -4.3050    4.7295  -19.0756 C   0  0  0  0  0  0  0  0  0  0  0  0
   -3.6084    7.2873  -21.0678 H   0  0  0  0  0  0  0  0  0  0  0  0
   -7.3757    6.3504  -13.6976 O   0  0  0  0  0  0  0  0  0  0  0  0
   -7.5559    5.2189  -13.9222 C   0  0  0  0  0  0  0  0  0  0  0  0
   -7.8876    4.0506  -12.9702 N   0  0  0  0  0  0  0  0  0  0  0  0
   -7.9173    3.1650  -13.3993 H   0  0  0  0  0  0  0  0  0  0  0  0
   -8.1520    4.0448  -11.6023 C   0  0  0  0  0  0  0  0  0  0  0  0
   -8.0536    5.2274  -10.8494 C   0  0  0  0  0  0  0  0  0  0  0  0
   -8.2865    5.2246   -9.4714 C   0  0  0  0  0  0  0  0  0  0  0  0
   -8.6094    4.0251   -8.8671 C   0  0  0  0  0  0  0  0  0  0  0  0
   -8.7152    2.8562   -9.6090 C   0  0  0  0  0  0  0  0  0  0  0  0
   -8.4969    2.8450  -10.9788 C   0  0  0  0  0  0  0  0  0  0  0  0
   -9.0721    1.7259   -8.7071 C   0  0  0  0  0  0  0  0  0  0  0  0
   -9.1079    2.2798   -7.3271 N   0  0  0  0  0  0  0  0  0  0  0  0
   -8.8997    3.7387   -7.4360 C   0  0  0  0  0  0  0  0  0  0  0  0
   -8.3673    1.8622   -6.7637 H   0  0  0  0  0  0  0  0  0  0  0  0
 17 18  2  0  0  0
 18 19  1  0  0  0
 19 21  1  0  0  0
 21 22  2  0  0  0
 22 23  1  0  0  0
 23 24  2  0  0  0
 24 25  1  0  0  0
 25 26  2  0  0  0
 25 27  1  0  0  0
 27 28  1  0  0  0
 28 29  1  0  0  0
 18  1  1  0  0  0
  1  2  2  0  0  0
  2  3  1  0  0  0
  3  4  2  0  0  0
  4  5  1  0  0  0
  5  6  2  0  0  0
  6  7  1  0  0  0
  7  8  1  0  0  0
  8  9  2  0  0  0
  8 10  1  0  0  0
 10 11  1  0  0  0
 11 12  1  0  0  0
 12 13  1  0  0  0
 13 14  1  0  0  0
 14 15  1  0  0  0
 26 21  1  0  0  0
  6  1  1  0  0  0
 15 10  1  0  0  0
 29 24  1  0  0  0
 10  5  1  0  0  0
 19 20  1  0  0  0
 28 30  1  0  0  0
 13 16  1  0  0  0
M  END
> <minimizedAffinity>
-10.09389

> <minimizedRMSD>
0.33109

$$$$
P19987


 29 32  0  0  0  0  0  0  0  0999 V2000
   -4.7248    5.5630  -17.5713 N   0  0  0  0  0  0  0  0  0  0  0  0
   -3.9026    6.0330  -16.5438 C   0  0  0  0  0  0  0  0  0  0  0  0
   -2.8089    6.5645  -16.6605 O   0  0  0  0  0  0  0  0  0  0  0  0
   -4.6312    5.7882  -15.2213 C   0  0  0  0  0  0  0  0  0  0  0  0
   -5.9433    5.2243  -15.6727 C   0  0  0  0  0  0  0  0  0  0  0  0
   -7.0813    4.9265  -14.9368 C   0  0  0  0  0  0  0  0  0  0  0  0
   -8.2096    4.4611  -15.6172 C   0  0  0  0  0  0  0  0  0  0  0  0
   -8.1654    4.3165  -17.0109 C   0  0  0  0  0  0  0  0  0  0  0  0
   -9.7125    3.8092  -17.9338 Br  0  0  0  0  0  0  0  0  0  0  0  0
   -7.0304    4.6237  -17.7543 C   0  0  0  0  0  0  0  0  0  0  0  0
   -5.9354    5.0870  -17.0610 C   0  0  0  0  0  0  0  0  0  0  0  0
   -7.1786    5.3166  -13.5094 C   0  0  0  0  0  0  0  0  0  0  0  0
   -6.8527    6.4006  -13.2229 O   0  0  0  0  0  0  0  0  0  0  0  0
   -7.8111    4.2006  -12.6487 N   0  0  0  0  0  0  0  0  0  0  0  0
   -8.0670    3.3909  -13.1470 H   0  0  0  0  0  0  0  0  0  0  0  0
   -8.0782    4.1533  -11.2824 C   0  0  0  0  0  0  0  0  0  0  0  0
   -7.9535    5.3014  -10.4817 C   0  0  0  0  0  0  0  0  0  0  0  0
   -8.2430    5.2597   -9.1144 C   0  0  0  0  0  0  0  0  0  0  0  0
   -8.6623    4.0596   -8.5752 C   0  0  0  0  0  0  0  0  0  0  0  0
   -8.7772    2.9180   -9.3637 C   0  0  0  0  0  0  0  0  0  0  0  0
   -8.4885    2.9428  -10.7181 C   0  0  0  0  0  0  0  0  0  0  0  0
   -9.2082    1.7778   -8.5013 C   0  0  0  0  0  0  0  0  0  0  0  0
   -9.7229    2.4112   -7.2587 N   0  0  0  0  0  0  0  0  0  0  0  0
   -9.0357    3.7181   -7.1717 C   0  0  0  0  0  0  0  0  0  0  0  0
   -9.5005    1.8360   -6.4462 H   0  0  0  0  0  0  0  0  0  0  0  0
   -4.4338    5.7287  -18.9713 C   0  0  0  0  0  0  0  0  0  0  0  0
   -2.5392    4.2777  -19.2870 C   0  0  0  0  0  0  0  0  0  0  0  0
   -3.9762    4.4483  -19.4923 N   0  0  0  0  0  0  0  0  0  0  0  0
   -4.4724    3.6973  -19.0125 H   0  0  0  0  0  0  0  0  0  0  0  0
 27 28  1  0  0  0
 28 26  1  0  0  0
 26  1  1  0  0  0
  1  2  1  0  0  0
  2  3  2  0  0  0
  2  4  1  0  0  0
  4  5  1  0  0  0
  5  6  2  0  0  0
  6 12  1  0  0  0
 12 13  2  0  0  0
 12 14  1  0  0  0
 14 16  1  0  0  0
 16 17  2  0  0  0
 17 18  1  0  0  0
 18 19  2  0  0  0
 19 20  1  0  0  0
 20 21  2  0  0  0
 20 22  1  0  0  0
 22 23  1  0  0  0
 23 24  1  0  0  0
  6  7  1  0  0  0
  7  8  2  0  0  0
  8  9  1  0  0  0
  8 10  1  0  0  0
 10 11  2  0  0  0
 11  1  1  0  0  0
 11  5  1  0  0  0
 21 16  1  0  0  0
 24 19  1  0  0  0
 28 29  1  0  0  0
 14 15  1  0  0  0
 23 25  1  0  0  0
M  END
> <minimizedAffinity>
-8.10558

> <minimizedRMSD>
0.26373

$$$$
P19996


 28 32  0  0  0  0  0  0  0  0999 V2000
   -9.5475    5.6947  -14.1422 O   0  0  0  0  0  0  0  0  0  0  0  0
   -8.6994    4.8949  -14.2007 C   0  0  0  0  0  0  0  0  0  0  0  0
   -7.9627    4.1340  -13.0784 N   0  0  0  0  0  0  0  0  0  0  0  0
   -7.2243    3.5599  -13.3856 H   0  0  0  0  0  0  0  0  0  0  0  0
   -8.1841    4.5388  -15.5402 C   0  0  0  0  0  0  0  0  0  0  0  0
   -9.0355    3.9737  -16.5443 C   0  0  0  0  0  0  0  0  0  0  0  0
   -8.6191    3.8309  -17.9041 C   0  0  0  0  0  0  0  0  0  0  0  0
   -7.3527    4.2486  -18.2121 C   0  0  0  0  0  0  0  0  0  0  0  0
   -6.5704    4.3750  -19.3602 N   0  0  0  0  0  0  0  0  0  0  0  0
   -5.2697    4.8999  -19.0053 C   0  0  0  0  0  0  0  0  0  0  0  0
   -4.3173    5.0611  -19.7519 O   0  0  0  0  0  0  0  0  0  0  0  0
   -5.3404    5.1208  -17.5726 N   0  0  0  0  0  0  0  0  0  0  0  0
   -6.5894    4.7228  -17.1903 C   0  0  0  0  0  0  0  0  0  0  0  0
   -6.9053    4.9103  -15.8841 C   0  0  0  0  0  0  0  0  0  0  0  0
   -5.7071    5.5362  -15.2404 C   0  0  0  0  0  0  0  0  0  0  0  0
   -4.6691    5.6366  -16.4301 C   0  0  0  0  0  0  0  0  0  0  0  0
   -3.5263    6.0579  -16.3572 O   0  0  0  0  0  0  0  0  0  0  0  0
   -6.8591    4.1426  -20.2723 H   0  0  0  0  0  0  0  0  0  0  0  0
   -8.1724    4.1272  -11.7002 C   0  0  0  0  0  0  0  0  0  0  0  0
   -8.0670    5.3094  -10.9473 C   0  0  0  0  0  0  0  0  0  0  0  0
   -8.2612    5.3007   -9.5621 C   0  0  0  0  0  0  0  0  0  0  0  0
   -8.5629    4.0975   -8.9550 C   0  0  0  0  0  0  0  0  0  0  0  0
   -8.6607    2.9230   -9.6960 C   0  0  0  0  0  0  0  0  0  0  0  0
   -8.4719    2.9171  -11.0686 C   0  0  0  0  0  0  0  0  0  0  0  0
   -8.9452    1.7890   -8.7663 C   0  0  0  0  0  0  0  0  0  0  0  0
   -9.4053    2.4325   -7.5075 N   0  0  0  0  0  0  0  0  0  0  0  0
   -8.8051    3.7843   -7.5166 C   0  0  0  0  0  0  0  0  0  0  0  0
   -9.0820    1.9038   -6.6973 H   0  0  0  0  0  0  0  0  0  0  0  0
  1  2  2  0  0  0
  2  3  1  0  0  0
  3 19  1  0  0  0
 19 20  2  0  0  0
 20 21  1  0  0  0
 21 22  2  0  0  0
 22 23  1  0  0  0
 23 24  2  0  0  0
 23 25  1  0  0  0
 25 26  1  0  0  0
 26 27  1  0  0  0
  2  5  1  0  0  0
  5  6  2  0  0  0
  6  7  1  0  0  0
  7  8  2  0  0  0
  8  9  1  0  0  0
  9 10  1  0  0  0
 10 11  2  0  0  0
 10 12  1  0  0  0
 12 13  1  0  0  0
 13 14  2  0  0  0
 14 15  1  0  0  0
 15 16  1  0  0  0
 16 17  2  0  0  0
 24 19  1  0  0  0
 14  5  1  0  0  0
 27 22  1  0  0  0
 13  8  1  0  0  0
 16 12  1  0  0  0
  3  4  1  0  0  0
 26 28  1  0  0  0
  9 18  1  0  0  0
M  END
> <minimizedAffinity>
-10.02249

> <minimizedRMSD>
0.94315

$$$$
P19998


 30 33  0  0  0  0  0  0  0  0999 V2000
   -5.0708    5.1616  -18.1270 N   0  0  0  0  0  0  0  0  0  0  0  0
   -4.0813    5.4709  -17.1886 C   0  0  0  0  0  0  0  0  0  0  0  0
   -2.9126    5.7414  -17.4187 O   0  0  0  0  0  0  0  0  0  0  0  0
   -4.7242    5.4257  -15.8031 C   0  0  0  0  0  0  0  0  0  0  0  0
   -6.1227    4.9796  -16.1058 C   0  0  0  0  0  0  0  0  0  0  0  0
   -7.1734    4.7213  -15.2309 C   0  0  0  0  0  0  0  0  0  0  0  0
   -8.3879    4.2903  -15.7666 C   0  0  0  0  0  0  0  0  0  0  0  0
   -8.5247    4.1576  -17.1579 C   0  0  0  0  0  0  0  0  0  0  0  0
  -10.0367    3.6775  -17.8047 Cl  0  0  0  0  0  0  0  0  0  0  0  0
   -7.4776    4.4418  -18.0369 C   0  0  0  0  0  0  0  0  0  0  0  0
   -6.2763    4.8385  -17.4877 C   0  0  0  0  0  0  0  0  0  0  0  0
   -7.0509    5.0660  -13.7905 C   0  0  0  0  0  0  0  0  0  0  0  0
   -6.2039    5.8145  -13.4939 O   0  0  0  0  0  0  0  0  0  0  0  0
   -8.1209    4.3645  -12.9185 N   0  0  0  0  0  0  0  0  0  0  0  0
   -8.7784    3.8319  -13.4218 H   0  0  0  0  0  0  0  0  0  0  0  0
   -8.3053    4.3643  -11.5324 C   0  0  0  0  0  0  0  0  0  0  0  0
   -8.1171    5.5395  -10.7875 C   0  0  0  0  0  0  0  0  0  0  0  0
   -8.2333    5.5382   -9.3924 C   0  0  0  0  0  0  0  0  0  0  0  0
   -8.5498    4.3516   -8.7542 C   0  0  0  0  0  0  0  0  0  0  0  0
   -8.7637    3.1897   -9.4922 C   0  0  0  0  0  0  0  0  0  0  0  0
   -8.6482    3.1759  -10.8794 C   0  0  0  0  0  0  0  0  0  0  0  0
   -9.0570    2.0528   -8.5621 C   0  0  0  0  0  0  0  0  0  0  0  0
   -9.0878    2.6367   -7.1976 N   0  0  0  0  0  0  0  0  0  0  0  0
  -10.3389    2.3969   -6.5110 C   0  0  0  0  0  0  0  0  0  0  0  0
   -8.5974    4.0290   -7.2858 C   0  0  0  0  0  0  0  0  0  0  0  0
   -9.2825    5.0783   -6.4102 C   0  0  0  0  0  0  0  0  0  0  0  0
   -4.7896    4.9732  -19.5248 C   0  0  0  0  0  0  0  0  0  0  0  0
   -5.2047    7.2402  -20.2545 C   0  0  0  0  0  0  0  0  0  0  0  0
   -4.2260    6.1769  -20.1097 N   0  0  0  0  0  0  0  0  0  0  0  0
   -3.4703    6.5082  -19.5101 H   0  0  0  0  0  0  0  0  0  0  0  0
 28 29  1  0  0  0
 29 27  1  0  0  0
 27  1  1  0  0  0
  1  2  1  0  0  0
  2  3  2  0  0  0
  2  4  1  0  0  0
  4  5  1  0  0  0
  5  6  2  0  0  0
  6 12  1  0  0  0
 12 13  2  0  0  0
 12 14  1  0  0  0
 14 16  1  0  0  0
 16 17  2  0  0  0
 17 18  1  0  0  0
 18 19  2  0  0  0
 19 20  1  0  0  0
 20 21  2  0  0  0
 20 22  1  0  0  0
 22 23  1  0  0  0
 23 24  1  0  0  0
 23 25  1  0  0  0
 25 26  1  0  0  0
  6  7  1  0  0  0
  7  8  2  0  0  0
  8  9  1  0  0  0
  8 10  1  0  0  0
 10 11  2  0  0  0
 11  1  1  0  0  0
 11  5  1  0  0  0
 21 16  1  0  0  0
 25 19  1  0  0  0
 29 30  1  0  0  0
 14 15  1  0  0  0
M  END
> <minimizedAffinity>
-8.72449

> <minimizedRMSD>
0.51756

$$$$
P19999


 30 33  0  0  0  0  0  0  0  0999 V2000
   -5.2140    5.1193  -18.3614 N   0  0  0  0  0  0  0  0  0  0  0  0
   -4.1830    5.3877  -17.4563 C   0  0  0  0  0  0  0  0  0  0  0  0
   -3.0173    5.6328  -17.7270 O   0  0  0  0  0  0  0  0  0  0  0  0
   -4.7770    5.3362  -16.0486 C   0  0  0  0  0  0  0  0  0  0  0  0
   -6.1940    4.9282  -16.3112 C   0  0  0  0  0  0  0  0  0  0  0  0
   -7.2195    4.6754  -15.4119 C   0  0  0  0  0  0  0  0  0  0  0  0
   -8.4617    4.2750  -15.9078 C   0  0  0  0  0  0  0  0  0  0  0  0
   -8.6501    4.1670  -17.2933 C   0  0  0  0  0  0  0  0  0  0  0  0
  -10.1897    3.7220  -17.8966 Cl  0  0  0  0  0  0  0  0  0  0  0  0
   -7.6290    4.4486  -18.2011 C   0  0  0  0  0  0  0  0  0  0  0  0
   -6.4017    4.8127  -17.6862 C   0  0  0  0  0  0  0  0  0  0  0  0
   -7.0407    4.9730  -13.9730 C   0  0  0  0  0  0  0  0  0  0  0  0
   -6.2897    5.8177  -13.6814 O   0  0  0  0  0  0  0  0  0  0  0  0
   -7.9392    4.0821  -13.0868 N   0  0  0  0  0  0  0  0  0  0  0  0
   -8.4333    3.3826  -13.5724 H   0  0  0  0  0  0  0  0  0  0  0  0
   -8.1646    4.1074  -11.7099 C   0  0  0  0  0  0  0  0  0  0  0  0
   -8.1272    5.3133  -10.9920 C   0  0  0  0  0  0  0  0  0  0  0  0
   -8.3420    5.3163   -9.6153 C   0  0  0  0  0  0  0  0  0  0  0  0
   -8.3076    6.4677   -8.9319 F   0  0  0  0  0  0  0  0  0  0  0  0
   -8.5945    4.1286   -8.9693 C   0  0  0  0  0  0  0  0  0  0  0  0
   -8.6280    2.9319   -9.6761 C   0  0  0  0  0  0  0  0  0  0  0  0
   -8.4151    2.9001  -11.0459 C   0  0  0  0  0  0  0  0  0  0  0  0
   -8.8775    1.8158   -8.7156 C   0  0  0  0  0  0  0  0  0  0  0  0
   -9.3664    2.4770   -7.4769 N   0  0  0  0  0  0  0  0  0  0  0  0
   -8.8356    3.8584   -7.5276 C   0  0  0  0  0  0  0  0  0  0  0  0
   -9.0159    1.9909   -6.6516 H   0  0  0  0  0  0  0  0  0  0  0  0
   -5.0068    4.9689  -19.7751 C   0  0  0  0  0  0  0  0  0  0  0  0
   -5.2389    7.2999  -20.3786 C   0  0  0  0  0  0  0  0  0  0  0  0
   -4.3639    6.1422  -20.3393 N   0  0  0  0  0  0  0  0  0  0  0  0
   -3.5471    6.3703  -19.7725 H   0  0  0  0  0  0  0  0  0  0  0  0
 28 29  1  0  0  0
 29 27  1  0  0  0
 27  1  1  0  0  0
  1  2  1  0  0  0
  2  3  2  0  0  0
  2  4  1  0  0  0
  4  5  1  0  0  0
  5  6  2  0  0  0
  6 12  1  0  0  0
 12 13  2  0  0  0
 12 14  1  0  0  0
 14 16  1  0  0  0
 16 17  2  0  0  0
 17 18  1  0  0  0
 18 19  1  0  0  0
 18 20  2  0  0  0
 20 21  1  0  0  0
 21 22  2  0  0  0
 21 23  1  0  0  0
 23 24  1  0  0  0
 24 25  1  0  0  0
  6  7  1  0  0  0
  7  8  2  0  0  0
  8  9  1  0  0  0
  8 10  1  0  0  0
 10 11  2  0  0  0
 11  1  1  0  0  0
 11  5  1  0  0  0
 22 16  1  0  0  0
 25 20  1  0  0  0
 29 30  1  0  0  0
 14 15  1  0  0  0
 24 26  1  0  0  0
M  END
> <minimizedAffinity>
-8.87500

> <minimizedRMSD>
0.63550

$$$$
P20000


 30 33  0  0  0  0  0  0  0  0999 V2000
   -5.2398    5.1069  -18.4097 N   0  0  0  0  0  0  0  0  0  0  0  0
   -4.2001    5.4479  -17.5489 C   0  0  0  0  0  0  0  0  0  0  0  0
   -3.0928    5.8319  -17.8962 O   0  0  0  0  0  0  0  0  0  0  0  0
   -4.7235    5.2945  -16.1143 C   0  0  0  0  0  0  0  0  0  0  0  0
   -6.1486    4.8656  -16.3310 C   0  0  0  0  0  0  0  0  0  0  0  0
   -7.1671    4.6235  -15.4162 C   0  0  0  0  0  0  0  0  0  0  0  0
   -8.4242    4.2436  -15.9078 C   0  0  0  0  0  0  0  0  0  0  0  0
   -8.6335    4.1363  -17.2903 C   0  0  0  0  0  0  0  0  0  0  0  0
  -10.1822    3.7207  -17.8893 Cl  0  0  0  0  0  0  0  0  0  0  0  0
   -7.6259    4.4146  -18.2057 C   0  0  0  0  0  0  0  0  0  0  0  0
   -6.3927    4.7673  -17.7023 C   0  0  0  0  0  0  0  0  0  0  0  0
   -6.9952    4.9578  -13.9764 C   0  0  0  0  0  0  0  0  0  0  0  0
   -6.2100    5.7792  -13.7066 O   0  0  0  0  0  0  0  0  0  0  0  0
   -7.9983    4.1941  -13.0771 N   0  0  0  0  0  0  0  0  0  0  0  0
   -8.6140    3.5974  -13.5608 H   0  0  0  0  0  0  0  0  0  0  0  0
   -8.1721    4.2142  -11.6864 C   0  0  0  0  0  0  0  0  0  0  0  0
   -8.3878    2.9894  -11.0394 C   0  0  0  0  0  0  0  0  0  0  0  0
   -8.5949    2.9886   -9.6671 C   0  0  0  0  0  0  0  0  0  0  0  0
   -8.5989    4.1701   -8.9317 C   0  0  0  0  0  0  0  0  0  0  0  0
   -8.3846    5.3873   -9.5448 C   0  0  0  0  0  0  0  0  0  0  0  0
   -8.1785    5.4004  -10.9258 C   0  0  0  0  0  0  0  0  0  0  0  0
   -8.0419    6.6004  -11.5044 F   0  0  0  0  0  0  0  0  0  0  0  0
   -8.8516    3.8518   -7.4969 C   0  0  0  0  0  0  0  0  0  0  0  0
   -9.3459    2.4590   -7.4902 N   0  0  0  0  0  0  0  0  0  0  0  0
   -8.8173    1.8419   -8.7342 C   0  0  0  0  0  0  0  0  0  0  0  0
  -10.3658    2.4430   -7.4902 H   0  0  0  0  0  0  0  0  0  0  0  0
   -5.1683    5.3053  -19.8252 C   0  0  0  0  0  0  0  0  0  0  0  0
   -4.4096    7.3069  -20.9079 C   0  0  0  0  0  0  0  0  0  0  0  0
   -5.4369    6.7147  -20.0649 N   0  0  0  0  0  0  0  0  0  0  0  0
   -6.3415    6.8077  -20.5268 H   0  0  0  0  0  0  0  0  0  0  0  0
 28 29  1  0  0  0
 29 27  1  0  0  0
 27  1  1  0  0  0
  1  2  1  0  0  0
  2  3  2  0  0  0
  2  4  1  0  0  0
  4  5  1  0  0  0
  5  6  2  0  0  0
  6 12  1  0  0  0
 12 13  2  0  0  0
 12 14  1  0  0  0
 14 16  1  0  0  0
 16 17  2  0  0  0
 17 18  1  0  0  0
 18 19  2  0  0  0
 19 20  1  0  0  0
 20 21  2  0  0  0
 21 22  1  0  0  0
 19 23  1  0  0  0
 23 24  1  0  0  0
 24 25  1  0  0  0
  6  7  1  0  0  0
  7  8  2  0  0  0
  8  9  1  0  0  0
  8 10  1  0  0  0
 10 11  2  0  0  0
 11  1  1  0  0  0
 11  5  1  0  0  0
 21 16  1  0  0  0
 25 18  1  0  0  0
 29 30  1  0  0  0
 14 15  1  0  0  0
 24 26  1  0  0  0
M  END
> <minimizedAffinity>
-8.71763

> <minimizedRMSD>
0.49882

$$$$
P20001


 30 34  0  0  0  0  0  0  0  0999 V2000
   -8.2346    4.4553  -15.5802 C   0  0  0  0  0  0  0  0  0  0  0  0
   -9.1533    3.9953  -16.5331 C   0  0  0  0  0  0  0  0  0  0  0  0
   -8.7732    3.8225  -17.8745 C   0  0  0  0  0  0  0  0  0  0  0  0
   -7.4834    4.1530  -18.2889 C   0  0  0  0  0  0  0  0  0  0  0  0
   -6.5921    4.6128  -17.3317 C   0  0  0  0  0  0  0  0  0  0  0  0
   -6.9387    4.7216  -15.9881 C   0  0  0  0  0  0  0  0  0  0  0  0
   -5.7827    5.2622  -15.2104 C   0  0  0  0  0  0  0  0  0  0  0  0
   -4.7995    5.6594  -16.3052 C   0  0  0  0  0  0  0  0  0  0  0  0
   -3.7935    6.3310  -16.1168 O   0  0  0  0  0  0  0  0  0  0  0  0
   -5.3166    5.1696  -17.5395 N   0  0  0  0  0  0  0  0  0  0  0  0
   -9.5268    5.6954  -14.1720 O   0  0  0  0  0  0  0  0  0  0  0  0
   -8.6928    4.8821  -14.2334 C   0  0  0  0  0  0  0  0  0  0  0  0
   -7.9550    4.1213  -13.1149 N   0  0  0  0  0  0  0  0  0  0  0  0
   -7.2298    3.5326  -13.4260 H   0  0  0  0  0  0  0  0  0  0  0  0
   -8.1467    4.1308  -11.7372 C   0  0  0  0  0  0  0  0  0  0  0  0
   -8.0573    5.3253  -11.0015 C   0  0  0  0  0  0  0  0  0  0  0  0
   -8.2580    5.3329   -9.6179 C   0  0  0  0  0  0  0  0  0  0  0  0
   -8.5559    4.1350   -8.9993 C   0  0  0  0  0  0  0  0  0  0  0  0
   -8.6364    2.9504   -9.7264 C   0  0  0  0  0  0  0  0  0  0  0  0
   -8.4322    2.9262  -11.0944 C   0  0  0  0  0  0  0  0  0  0  0  0
   -8.9270    1.8264   -8.7895 C   0  0  0  0  0  0  0  0  0  0  0  0
   -9.4163    2.4829   -7.5488 N   0  0  0  0  0  0  0  0  0  0  0  0
   -8.8164    3.8356   -7.5614 C   0  0  0  0  0  0  0  0  0  0  0  0
   -9.1107    1.9640   -6.7255 H   0  0  0  0  0  0  0  0  0  0  0  0
   -5.1061    5.9443  -18.6919 N   0  0  0  0  0  0  0  0  0  0  0  0
   -4.5885    6.7797  -18.4185 H   0  0  0  0  0  0  0  0  0  0  0  0
   -4.3652    5.2876  -19.7661 C   0  0  0  0  0  0  0  0  0  0  0  0
   -3.0761    4.6010  -19.2636 C   0  0  0  0  0  0  0  0  0  0  0  0
   -2.3544    5.9578  -19.3518 C   0  0  0  0  0  0  0  0  0  0  0  0
   -3.4351    6.3888  -20.3625 C   0  0  0  0  0  0  0  0  0  0  0  0
 11 12  2  0  0  0
 12 13  1  0  0  0
 13 15  1  0  0  0
 15 16  2  0  0  0
 16 17  1  0  0  0
 17 18  2  0  0  0
 18 19  1  0  0  0
 19 20  2  0  0  0
 19 21  1  0  0  0
 21 22  1  0  0  0
 22 23  1  0  0  0
 12  1  1  0  0  0
  1  2  2  0  0  0
  2  3  1  0  0  0
  3  4  2  0  0  0
  4  5  1  0  0  0
  5  6  2  0  0  0
  6  7  1  0  0  0
  7  8  1  0  0  0
  8  9  2  0  0  0
  8 10  1  0  0  0
 10 25  1  0  0  0
 25 27  1  0  0  0
 27 28  1  0  0  0
 28 29  1  0  0  0
 29 30  1  0  0  0
 20 15  1  0  0  0
  6  1  1  0  0  0
 30 27  1  0  0  0
 23 18  1  0  0  0
 10  5  1  0  0  0
 13 14  1  0  0  0
 22 24  1  0  0  0
 25 26  1  0  0  0
M  END
> <minimizedAffinity>
-9.47334

> <minimizedRMSD>
1.11233

$$$$
P20002


 26 29  0  0  0  0  0  0  0  0999 V2000
   -7.7009    5.3224  -13.5119 C   0  0  0  0  0  0  0  0  0  0  0  0
   -7.5377    6.4516  -13.2661 O   0  0  0  0  0  0  0  0  0  0  0  0
   -8.1116    4.1491  -12.5979 N   0  0  0  0  0  0  0  0  0  0  0  0
   -8.2583    3.2949  -13.0649 H   0  0  0  0  0  0  0  0  0  0  0  0
   -2.8928    5.7956  -16.2043 O   0  0  0  0  0  0  0  0  0  0  0  0
   -4.0730    5.4897  -16.1825 C   0  0  0  0  0  0  0  0  0  0  0  0
   -4.9791    5.4909  -14.9513 C   0  0  0  0  0  0  0  0  0  0  0  0
   -6.2906    5.0538  -15.5269 C   0  0  0  0  0  0  0  0  0  0  0  0
   -6.1476    4.8297  -16.8928 C   0  0  0  0  0  0  0  0  0  0  0  0
   -7.1958    4.4375  -17.6920 C   0  0  0  0  0  0  0  0  0  0  0  0
   -8.4260    4.2430  -17.0625 C   0  0  0  0  0  0  0  0  0  0  0  0
   -9.7752    3.7646  -18.0013 Cl  0  0  0  0  0  0  0  0  0  0  0  0
   -8.6011    4.4632  -15.6858 C   0  0  0  0  0  0  0  0  0  0  0  0
   -7.5201    4.8904  -14.9132 C   0  0  0  0  0  0  0  0  0  0  0  0
   -4.8401    5.0885  -17.2717 N   0  0  0  0  0  0  0  0  0  0  0  0
   -4.4988    5.0002  -18.1909 H   0  0  0  0  0  0  0  0  0  0  0  0
   -8.3083    4.1016  -11.2204 C   0  0  0  0  0  0  0  0  0  0  0  0
   -8.1462    5.2507  -10.4292 C   0  0  0  0  0  0  0  0  0  0  0  0
   -8.3245    5.1986   -9.0440 C   0  0  0  0  0  0  0  0  0  0  0  0
   -8.6615    3.9859   -8.4736 C   0  0  0  0  0  0  0  0  0  0  0  0
   -8.8245    2.8491   -9.2533 C   0  0  0  0  0  0  0  0  0  0  0  0
   -8.6541    2.8852  -10.6288 C   0  0  0  0  0  0  0  0  0  0  0  0
   -9.1827    1.6943   -8.3838 C   0  0  0  0  0  0  0  0  0  0  0  0
   -9.2040    2.2059   -6.9878 N   0  0  0  0  0  0  0  0  0  0  0  0
   -8.9158    3.6542   -7.0453 C   0  0  0  0  0  0  0  0  0  0  0  0
   -8.4937    1.7306   -6.4311 H   0  0  0  0  0  0  0  0  0  0  0  0
  5  6  2  0  0  0
  6  7  1  0  0  0
  7  8  1  0  0  0
  8  9  2  0  0  0
  9 10  1  0  0  0
 10 11  2  0  0  0
 11 12  1  0  0  0
 11 13  1  0  0  0
 13 14  2  0  0  0
 14  1  1  0  0  0
  1  2  2  0  0  0
  1  3  1  0  0  0
  3 17  1  0  0  0
 17 18  2  0  0  0
 18 19  1  0  0  0
 19 20  2  0  0  0
 20 21  1  0  0  0
 21 22  2  0  0  0
 21 23  1  0  0  0
 23 24  1  0  0  0
 24 25  1  0  0  0
  9 15  1  0  0  0
 15  6  1  0  0  0
 14  8  1  0  0  0
 22 17  1  0  0  0
 25 20  1  0  0  0
  3  4  1  0  0  0
 24 26  1  0  0  0
 15 16  1  0  0  0
M  END
> <minimizedAffinity>
-8.47423

> <minimizedRMSD>
0.32874

$$$$
P20003


 30 33  0  0  0  0  0  0  0  0999 V2000
   -5.1547    5.0640  -18.2000 N   0  0  0  0  0  0  0  0  0  0  0  0
   -4.2608    5.6397  -17.2929 C   0  0  0  0  0  0  0  0  0  0  0  0
   -3.2556    6.2756  -17.5752 O   0  0  0  0  0  0  0  0  0  0  0  0
   -4.8105    5.4042  -15.8756 C   0  0  0  0  0  0  0  0  0  0  0  0
   -6.1988    4.9062  -16.1498 C   0  0  0  0  0  0  0  0  0  0  0  0
   -7.2878    4.7431  -15.2919 C   0  0  0  0  0  0  0  0  0  0  0  0
   -8.5244    4.4036  -15.8578 C   0  0  0  0  0  0  0  0  0  0  0  0
   -8.6279    4.2021  -17.2392 C   0  0  0  0  0  0  0  0  0  0  0  0
  -10.1443    3.9020  -17.9615 Cl  0  0  0  0  0  0  0  0  0  0  0  0
   -7.5340    4.3215  -18.0841 C   0  0  0  0  0  0  0  0  0  0  0  0
   -6.3343    4.7014  -17.5274 C   0  0  0  0  0  0  0  0  0  0  0  0
   -7.2271    5.1402  -13.8527 C   0  0  0  0  0  0  0  0  0  0  0  0
   -6.8449    6.2162  -13.6026 O   0  0  0  0  0  0  0  0  0  0  0  0
   -7.7877    4.0312  -12.9237 N   0  0  0  0  0  0  0  0  0  0  0  0
   -7.9729    3.1737  -13.3706 H   0  0  0  0  0  0  0  0  0  0  0  0
   -8.0725    4.0515  -11.5553 C   0  0  0  0  0  0  0  0  0  0  0  0
   -8.0085    5.2415  -10.8132 C   0  0  0  0  0  0  0  0  0  0  0  0
   -8.3041    5.2637   -9.4380 C   0  0  0  0  0  0  0  0  0  0  0  0
   -8.2161    6.5369   -8.6559 C   0  0  0  0  0  0  0  0  0  0  0  0
   -8.6349    4.0592   -8.8294 C   0  0  0  0  0  0  0  0  0  0  0  0
   -8.7128    2.8814   -9.5627 C   0  0  0  0  0  0  0  0  0  0  0  0
   -8.4453    2.8591  -10.9252 C   0  0  0  0  0  0  0  0  0  0  0  0
   -9.1090    1.7574   -8.6649 C   0  0  0  0  0  0  0  0  0  0  0  0
   -9.1404    2.3105   -7.2859 N   0  0  0  0  0  0  0  0  0  0  0  0
   -8.9586    3.7717   -7.4013 C   0  0  0  0  0  0  0  0  0  0  0  0
   -8.3869    1.9068   -6.7295 H   0  0  0  0  0  0  0  0  0  0  0  0
   -5.1185    5.3765  -19.6077 C   0  0  0  0  0  0  0  0  0  0  0  0
   -3.3879    6.4497  -20.8884 C   0  0  0  0  0  0  0  0  0  0  0  0
   -3.7828    5.2207  -20.2008 N   0  0  0  0  0  0  0  0  0  0  0  0
   -3.1086    5.0160  -19.4632 H   0  0  0  0  0  0  0  0  0  0  0  0
 28 29  1  0  0  0
 29 27  1  0  0  0
 27  1  1  0  0  0
  1  2  1  0  0  0
  2  3  2  0  0  0
  2  4  1  0  0  0
  4  5  1  0  0  0
  5  6  2  0  0  0
  6 12  1  0  0  0
 12 13  2  0  0  0
 12 14  1  0  0  0
 14 16  1  0  0  0
 16 17  2  0  0  0
 17 18  1  0  0  0
 18 19  1  0  0  0
 18 20  2  0  0  0
 20 21  1  0  0  0
 21 22  2  0  0  0
 21 23  1  0  0  0
 23 24  1  0  0  0
 24 25  1  0  0  0
  6  7  1  0  0  0
  7  8  2  0  0  0
  8  9  1  0  0  0
  8 10  1  0  0  0
 10 11  2  0  0  0
 11  1  1  0  0  0
 11  5  1  0  0  0
 22 16  1  0  0  0
 25 20  1  0  0  0
 29 30  1  0  0  0
 14 15  1  0  0  0
 24 26  1  0  0  0
M  END
> <minimizedAffinity>
-8.99642

> <minimizedRMSD>
0.52759

$$$$
P20004


 29 32  0  0  0  0  0  0  0  0999 V2000
   -5.4730    5.3863  -17.8700 N   0  0  0  0  0  0  0  0  0  0  0  0
   -4.4422    5.7718  -17.0043 C   0  0  0  0  0  0  0  0  0  0  0  0
   -3.3898    6.3151  -17.3048 O   0  0  0  0  0  0  0  0  0  0  0  0
   -4.8980    5.4591  -15.5737 C   0  0  0  0  0  0  0  0  0  0  0  0
   -6.2898    4.9456  -15.7793 C   0  0  0  0  0  0  0  0  0  0  0  0
   -7.2716    4.6042  -14.8593 C   0  0  0  0  0  0  0  0  0  0  0  0
   -8.5022    4.1242  -15.3332 C   0  0  0  0  0  0  0  0  0  0  0  0
   -8.7377    4.0472  -16.7006 C   0  0  0  0  0  0  0  0  0  0  0  0
   -9.9056    3.5934  -17.1691 F   0  0  0  0  0  0  0  0  0  0  0  0
   -7.8054    4.5071  -17.6075 C   0  0  0  0  0  0  0  0  0  0  0  0
   -6.5703    4.9085  -17.1414 C   0  0  0  0  0  0  0  0  0  0  0  0
   -7.1374    4.9533  -13.4226 C   0  0  0  0  0  0  0  0  0  0  0  0
   -6.6353    5.9697  -13.1462 O   0  0  0  0  0  0  0  0  0  0  0  0
   -7.8098    3.8930  -12.5255 N   0  0  0  0  0  0  0  0  0  0  0  0
   -8.0935    3.0757  -12.9954 H   0  0  0  0  0  0  0  0  0  0  0  0
   -8.0798    3.9038  -11.1634 C   0  0  0  0  0  0  0  0  0  0  0  0
   -7.9763    5.0831  -10.4082 C   0  0  0  0  0  0  0  0  0  0  0  0
   -8.3210    5.0948   -9.0533 C   0  0  0  0  0  0  0  0  0  0  0  0
   -8.7616    3.9155   -8.4841 C   0  0  0  0  0  0  0  0  0  0  0  0
   -8.8440    2.7433   -9.2300 C   0  0  0  0  0  0  0  0  0  0  0  0
   -8.5130    2.7172  -10.5710 C   0  0  0  0  0  0  0  0  0  0  0  0
   -9.2833    1.6303   -8.3403 C   0  0  0  0  0  0  0  0  0  0  0  0
   -9.8515    2.3030   -7.1438 N   0  0  0  0  0  0  0  0  0  0  0  0
   -9.1838    3.6227   -7.0834 C   0  0  0  0  0  0  0  0  0  0  0  0
   -9.6519    1.7629   -6.3018 H   0  0  0  0  0  0  0  0  0  0  0  0
   -5.5362    5.7917  -19.2511 C   0  0  0  0  0  0  0  0  0  0  0  0
   -6.4034    3.8108  -20.3669 C   0  0  0  0  0  0  0  0  0  0  0  0
   -5.2832    4.7178  -20.2057 N   0  0  0  0  0  0  0  0  0  0  0  0
   -5.0725    5.1349  -21.1124 H   0  0  0  0  0  0  0  0  0  0  0  0
 27 28  1  0  0  0
 28 26  1  0  0  0
 26  1  1  0  0  0
  1  2  1  0  0  0
  2  3  2  0  0  0
  2  4  1  0  0  0
  4  5  1  0  0  0
  5  6  2  0  0  0
  6 12  1  0  0  0
 12 13  2  0  0  0
 12 14  1  0  0  0
 14 16  1  0  0  0
 16 17  2  0  0  0
 17 18  1  0  0  0
 18 19  2  0  0  0
 19 20  1  0  0  0
 20 21  2  0  0  0
 20 22  1  0  0  0
 22 23  1  0  0  0
 23 24  1  0  0  0
  6  7  1  0  0  0
  7  8  2  0  0  0
  8  9  1  0  0  0
  8 10  1  0  0  0
 10 11  2  0  0  0
 11  1  1  0  0  0
 11  5  1  0  0  0
 21 16  1  0  0  0
 24 19  1  0  0  0
 28 29  1  0  0  0
 14 15  1  0  0  0
 23 25  1  0  0  0
M  END
> <minimizedAffinity>
-7.66091

> <minimizedRMSD>
0.21320

$$$$
P20007


 30 33  0  0  0  0  0  0  0  0999 V2000
   -7.5464    4.4694  -17.1687 C   0  0  0  0  0  0  0  0  0  0  0  0
   -8.6261    4.3092  -16.2994 C   0  0  0  0  0  0  0  0  0  0  0  0
   -8.4869    4.5185  -14.9293 C   0  0  0  0  0  0  0  0  0  0  0  0
   -7.2508    4.8413  -14.3406 C   0  0  0  0  0  0  0  0  0  0  0  0
   -6.1860    5.0403  -15.2201 C   0  0  0  0  0  0  0  0  0  0  0  0
   -6.3477    4.8595  -16.5983 C   0  0  0  0  0  0  0  0  0  0  0  0
   -5.1385    5.0861  -17.2438 N   0  0  0  0  0  0  0  0  0  0  0  0
   -4.1292    5.3820  -16.3437 C   0  0  0  0  0  0  0  0  0  0  0  0
   -2.9570    5.5676  -16.6298 O   0  0  0  0  0  0  0  0  0  0  0  0
   -4.7546    5.4163  -14.9469 C   0  0  0  0  0  0  0  0  0  0  0  0
   -5.0149    5.0418  -18.2195 H   0  0  0  0  0  0  0  0  0  0  0  0
   -9.0474    4.2947  -19.0955 N   0  0  0  0  0  0  0  0  0  0  0  0
   -7.6816    4.1372  -18.6175 C   0  0  0  0  0  0  0  0  0  0  0  0
   -9.0903    4.0574  -20.0866 H   0  0  0  0  0  0  0  0  0  0  0  0
   -9.3442    5.2617  -18.9643 H   0  0  0  0  0  0  0  0  0  0  0  0
   -7.1016    4.9093  -12.8219 C   0  0  0  0  0  0  0  0  0  0  0  0
   -6.6394    6.2715  -12.3945 N   0  0  0  0  0  0  0  0  0  0  0  0
   -7.3775    7.1870  -12.7769 O   0  0  0  0  0  0  0  0  0  0  0  0
   -8.3288    4.4179  -12.1693 N   0  0  0  0  0  0  0  0  0  0  0  0
   -9.1203    4.2004  -12.7129 H   0  0  0  0  0  0  0  0  0  0  0  0
   -8.3720    4.2593  -10.7775 C   0  0  0  0  0  0  0  0  0  0  0  0
   -8.1930    5.3428   -9.8966 C   0  0  0  0  0  0  0  0  0  0  0  0
   -8.3178    5.1959   -8.5122 C   0  0  0  0  0  0  0  0  0  0  0  0
   -8.6604    3.9545   -8.0194 C   0  0  0  0  0  0  0  0  0  0  0  0
   -8.8478    2.8774   -8.8723 C   0  0  0  0  0  0  0  0  0  0  0  0
   -8.6964    3.0054  -10.2422 C   0  0  0  0  0  0  0  0  0  0  0  0
   -9.2085    1.6714   -8.0773 C   0  0  0  0  0  0  0  0  0  0  0  0
   -9.4671    2.1582   -6.6982 N   0  0  0  0  0  0  0  0  0  0  0  0
   -8.9094    3.5232   -6.6162 C   0  0  0  0  0  0  0  0  0  0  0  0
   -9.0087    1.5502   -6.0195 H   0  0  0  0  0  0  0  0  0  0  0  0
 12 13  1  0  0  0
 13  1  1  0  0  0
  1  2  2  0  0  0
  2  3  1  0  0  0
  3  4  2  0  0  0
  4 16  1  0  0  0
 16 17  1  0  0  0
 17 18  2  0  0  0
 16 19  1  0  0  0
 19 21  1  0  0  0
 21 22  2  0  0  0
 22 23  1  0  0  0
 23 24  2  0  0  0
 24 25  1  0  0  0
 25 26  2  0  0  0
 25 27  1  0  0  0
 27 28  1  0  0  0
 28 29  1  0  0  0
  4  5  1  0  0  0
  5  6  2  0  0  0
  6  7  1  0  0  0
  7  8  1  0  0  0
  8  9  2  0  0  0
  8 10  1  0  0  0
  6  1  1  0  0  0
 26 21  1  0  0  0
 10  5  1  0  0  0
 29 24  1  0  0  0
 12 14  1  0  0  0
 12 15  1  0  0  0
 19 20  1  0  0  0
 28 30  1  0  0  0
  7 11  1  0  0  0
M  END
> <minimizedAffinity>
-7.84711

> <minimizedRMSD>
0.27627

$$$$
P20009


 28 31  0  0  0  0  0  0  0  0999 V2000
   -4.3734    5.0468  -18.5651 N   0  0  0  0  0  0  0  0  0  0  0  0
   -4.8127    5.1296  -17.2553 N   0  0  0  0  0  0  0  0  0  0  0  0
   -3.9935    5.4464  -16.1570 C   0  0  0  0  0  0  0  0  0  0  0  0
   -2.7934    5.6751  -16.1635 O   0  0  0  0  0  0  0  0  0  0  0  0
   -4.9013    5.4633  -14.9270 C   0  0  0  0  0  0  0  0  0  0  0  0
   -6.2300    5.0634  -15.4935 C   0  0  0  0  0  0  0  0  0  0  0  0
   -7.4468    4.8936  -14.8610 C   0  0  0  0  0  0  0  0  0  0  0  0
   -8.5411    4.4713  -15.6153 C   0  0  0  0  0  0  0  0  0  0  0  0
   -8.3931    4.2710  -16.9961 C   0  0  0  0  0  0  0  0  0  0  0  0
   -9.8866    3.8005  -18.0224 Br  0  0  0  0  0  0  0  0  0  0  0  0
   -7.1823    4.4757  -17.6478 C   0  0  0  0  0  0  0  0  0  0  0  0
   -6.1178    4.8631  -16.8669 C   0  0  0  0  0  0  0  0  0  0  0  0
   -3.3828    5.2861  -18.6073 H   0  0  0  0  0  0  0  0  0  0  0  0
   -4.9052    5.6970  -19.1439 H   0  0  0  0  0  0  0  0  0  0  0  0
   -7.6071    5.3175  -13.4574 C   0  0  0  0  0  0  0  0  0  0  0  0
   -7.3970    6.4357  -13.1987 O   0  0  0  0  0  0  0  0  0  0  0  0
   -8.0754    4.1548  -12.5599 N   0  0  0  0  0  0  0  0  0  0  0  0
   -8.2550    3.3125  -13.0370 H   0  0  0  0  0  0  0  0  0  0  0  0
   -8.2855    4.1018  -11.1857 C   0  0  0  0  0  0  0  0  0  0  0  0
   -8.1385    5.2493  -10.3891 C   0  0  0  0  0  0  0  0  0  0  0  0
   -8.3330    5.1910   -9.0064 C   0  0  0  0  0  0  0  0  0  0  0  0
   -8.6731    3.9744   -8.4458 C   0  0  0  0  0  0  0  0  0  0  0  0
   -8.8164    2.8385   -9.2325 C   0  0  0  0  0  0  0  0  0  0  0  0
   -8.6285    2.8803  -10.6045 C   0  0  0  0  0  0  0  0  0  0  0  0
   -9.1373    1.6717   -8.3632 C   0  0  0  0  0  0  0  0  0  0  0  0
   -9.3948    2.2259   -7.0091 N   0  0  0  0  0  0  0  0  0  0  0  0
   -8.9195    3.6244   -7.0189 C   0  0  0  0  0  0  0  0  0  0  0  0
   -8.8863    1.6877   -6.3076 H   0  0  0  0  0  0  0  0  0  0  0  0
  1  2  1  0  0  0
  2  3  1  0  0  0
  3  4  2  0  0  0
  3  5  1  0  0  0
  5  6  1  0  0  0
  6  7  2  0  0  0
  7 15  1  0  0  0
 15 16  2  0  0  0
 15 17  1  0  0  0
 17 19  1  0  0  0
 19 20  2  0  0  0
 20 21  1  0  0  0
 21 22  2  0  0  0
 22 23  1  0  0  0
 23 24  2  0  0  0
 23 25  1  0  0  0
 25 26  1  0  0  0
 26 27  1  0  0  0
  7  8  1  0  0  0
  8  9  2  0  0  0
  9 10  1  0  0  0
  9 11  1  0  0  0
 11 12  2  0  0  0
 12  2  1  0  0  0
 12  6  1  0  0  0
 24 19  1  0  0  0
 27 22  1  0  0  0
  1 13  1  0  0  0
  1 14  1  0  0  0
 17 18  1  0  0  0
 26 28  1  0  0  0
M  END
> <minimizedAffinity>
-8.52790

> <minimizedRMSD>
0.18012

$$$$
P20010


 31 35  0  0  0  0  0  0  0  0999 V2000
   -7.5901    5.0773  -15.4419 C   0  0  0  0  0  0  0  0  0  0  0  0
   -8.4564    3.9395  -15.9709 C   0  0  0  0  0  0  0  0  0  0  0  0
   -8.6404    3.9220  -17.5094 C   0  0  0  0  0  0  0  0  0  0  0  0
  -10.3267    4.1943  -17.9984 Cl  0  0  0  0  0  0  0  0  0  0  0  0
   -7.6800    4.7982  -18.3231 C   0  0  0  0  0  0  0  0  0  0  0  0
   -6.3203    4.7539  -17.6559 C   0  0  0  0  0  0  0  0  0  0  0  0
   -6.3608    5.4196  -16.2950 C   0  0  0  0  0  0  0  0  0  0  0  0
   -4.9237    5.2010  -15.8734 C   0  0  0  0  0  0  0  0  0  0  0  0
   -4.2019    5.6319  -17.1781 C   0  0  0  0  0  0  0  0  0  0  0  0
   -2.9999    4.9013  -17.3262 O   0  0  0  0  0  0  0  0  0  0  0  0
   -1.8956    5.7216  -17.6986 C   0  0  0  0  0  0  0  0  0  0  0  0
   -2.0571    6.4863  -19.0130 C   0  0  0  0  0  0  0  0  0  0  0  0
   -2.5599    5.6409  -20.1831 C   0  0  0  0  0  0  0  0  0  0  0  0
   -4.0129    5.6075  -20.3450 N   0  0  0  0  0  0  0  0  0  0  0  0
   -4.6927    4.7205  -19.4275 C   0  0  0  0  0  0  0  0  0  0  0  0
   -5.1850    5.4519  -18.2820 N   0  0  0  0  0  0  0  0  0  0  0  0
   -4.2216    5.3045  -21.2963 H   0  0  0  0  0  0  0  0  0  0  0  0
   -6.6521    6.2402  -13.6456 O   0  0  0  0  0  0  0  0  0  0  0  0
   -7.3249    5.3291  -13.9455 C   0  0  0  0  0  0  0  0  0  0  0  0
   -8.0866    4.3052  -13.0590 N   0  0  0  0  0  0  0  0  0  0  0  0
   -8.5260    3.5770  -13.5549 H   0  0  0  0  0  0  0  0  0  0  0  0
   -8.2490    4.2500  -11.6750 C   0  0  0  0  0  0  0  0  0  0  0  0
   -8.1401    5.4187  -10.9020 C   0  0  0  0  0  0  0  0  0  0  0  0
   -8.3240    5.3871   -9.5177 C   0  0  0  0  0  0  0  0  0  0  0  0
   -8.5965    4.1706   -8.9242 C   0  0  0  0  0  0  0  0  0  0  0  0
   -8.6910    3.0098   -9.6804 C   0  0  0  0  0  0  0  0  0  0  0  0
   -8.5324    3.0285  -11.0598 C   0  0  0  0  0  0  0  0  0  0  0  0
   -8.9707    1.8559   -8.7796 C   0  0  0  0  0  0  0  0  0  0  0  0
   -8.9953    2.3938   -7.3932 N   0  0  0  0  0  0  0  0  0  0  0  0
   -8.8431    3.8598   -7.4900 C   0  0  0  0  0  0  0  0  0  0  0  0
   -8.2273    1.9979   -6.8512 H   0  0  0  0  0  0  0  0  0  0  0  0
 18 19  2  0  0  0
 19 20  1  0  0  0
 20 22  1  0  0  0
 22 23  2  0  0  0
 23 24  1  0  0  0
 24 25  2  0  0  0
 25 26  1  0  0  0
 26 27  2  0  0  0
 26 28  1  0  0  0
 28 29  1  0  0  0
 29 30  1  0  0  0
  1 19  1  0  0  0
  1  2  1  0  0  0
  2  3  1  0  0  0
  3  4  1  0  0  0
  3  5  1  0  0  0
  6  5  1  0  0  0
  6  7  1  0  0  0
  7  8  1  0  0  0
  9  8  1  0  0  0
  9 10  1  0  0  0
 10 11  1  0  0  0
 11 12  1  0  0  0
 12 13  1  0  0  0
 13 14  1  0  0  0
 14 15  1  0  0  0
 15 16  1  0  0  0
 27 22  1  0  0  0
  7  1  1  0  0  0
 16  9  1  0  0  0
 30 25  1  0  0  0
 16  6  1  0  0  0
 20 21  1  0  0  0
 29 31  1  0  0  0
 14 17  1  0  0  0
M  END
> <minimizedAffinity>
-9.35049

> <minimizedRMSD>
0.63547

$$$$
P20011


 30 34  0  0  0  0  0  0  0  0999 V2000
   -7.2110    4.5772  -15.4982 C   0  0  0  0  0  0  0  0  0  0  0  0
   -8.4402    4.1205  -15.9786 C   0  0  0  0  0  0  0  0  0  0  0  0
   -8.6598    4.0660  -17.3629 C   0  0  0  0  0  0  0  0  0  0  0  0
  -10.1899    3.5629  -17.9514 Cl  0  0  0  0  0  0  0  0  0  0  0  0
   -7.6873    4.4757  -18.2763 C   0  0  0  0  0  0  0  0  0  0  0  0
   -6.4677    4.8927  -17.7849 C   0  0  0  0  0  0  0  0  0  0  0  0
   -6.2276    4.9286  -16.4157 C   0  0  0  0  0  0  0  0  0  0  0  0
   -4.8553    5.4643  -16.1665 C   0  0  0  0  0  0  0  0  0  0  0  0
   -4.2927    5.6489  -17.6115 C   0  0  0  0  0  0  0  0  0  0  0  0
   -3.6877    7.0514  -17.7548 C   0  0  0  0  0  0  0  0  0  0  0  0
   -2.5933    7.1308  -18.8158 C   0  0  0  0  0  0  0  0  0  0  0  0
   -2.7987    6.1638  -19.8334 O   0  0  0  0  0  0  0  0  0  0  0  0
   -2.6358    4.8306  -19.3546 C   0  0  0  0  0  0  0  0  0  0  0  0
   -3.2202    4.6149  -17.9548 C   0  0  0  0  0  0  0  0  0  0  0  0
   -5.4514    5.5060  -18.5235 N   0  0  0  0  0  0  0  0  0  0  0  0
   -5.4968    5.7879  -19.4657 H   0  0  0  0  0  0  0  0  0  0  0  0
   -6.1696    5.6384  -13.7739 O   0  0  0  0  0  0  0  0  0  0  0  0
   -7.0154    4.8855  -14.0579 C   0  0  0  0  0  0  0  0  0  0  0  0
   -7.9958    4.0978  -13.1631 N   0  0  0  0  0  0  0  0  0  0  0  0
   -8.5723    3.4611  -13.6443 H   0  0  0  0  0  0  0  0  0  0  0  0
   -8.1977    4.1411  -11.7854 C   0  0  0  0  0  0  0  0  0  0  0  0
   -8.0765    5.3517  -11.0819 C   0  0  0  0  0  0  0  0  0  0  0  0
   -8.2318    5.3961   -9.6936 C   0  0  0  0  0  0  0  0  0  0  0  0
   -8.5092    4.2165   -9.0305 C   0  0  0  0  0  0  0  0  0  0  0  0
   -8.6473    3.0217   -9.7242 C   0  0  0  0  0  0  0  0  0  0  0  0
   -8.4976    2.9619  -11.1020 C   0  0  0  0  0  0  0  0  0  0  0  0
   -8.9514    1.9227   -8.7661 C   0  0  0  0  0  0  0  0  0  0  0  0
   -8.9202    2.5249   -7.4063 N   0  0  0  0  0  0  0  0  0  0  0  0
   -8.7104    3.9778   -7.5755 C   0  0  0  0  0  0  0  0  0  0  0  0
   -8.1560    2.1225   -6.8635 H   0  0  0  0  0  0  0  0  0  0  0  0
 17 18  2  0  0  0
 18 19  1  0  0  0
 19 21  1  0  0  0
 21 22  2  0  0  0
 22 23  1  0  0  0
 23 24  2  0  0  0
 24 25  1  0  0  0
 25 26  2  0  0  0
 25 27  1  0  0  0
 27 28  1  0  0  0
 28 29  1  0  0  0
 18  1  1  0  0  0
  1  2  2  0  0  0
  2  3  1  0  0  0
  3  4  1  0  0  0
  3  5  2  0  0  0
  5  6  1  0  0  0
  6  7  2  0  0  0
  7  8  1  0  0  0
  8  9  1  0  0  0
  9 10  1  0  0  0
 10 11  1  0  0  0
 11 12  1  0  0  0
 12 13  1  0  0  0
 13 14  1  0  0  0
  9 15  1  0  0  0
 26 21  1  0  0  0
  7  1  1  0  0  0
 14  9  1  0  0  0
 29 24  1  0  0  0
 15  6  1  0  0  0
 19 20  1  0  0  0
 28 30  1  0  0  0
 15 16  1  0  0  0
M  END
> <minimizedAffinity>
-9.44547

> <minimizedRMSD>
0.91655

$$$$
P20012


 32 36  0  0  0  0  0  0  0  0999 V2000
   -7.5986    4.6792  -15.1059 C   0  0  0  0  0  0  0  0  0  0  0  0
   -8.6684    4.3670  -15.9557 C   0  0  0  0  0  0  0  0  0  0  0  0
   -8.4497    4.2696  -17.3369 C   0  0  0  0  0  0  0  0  0  0  0  0
   -9.7435    3.9208  -18.4019 Cl  0  0  0  0  0  0  0  0  0  0  0  0
   -7.2059    4.5513  -17.8880 C   0  0  0  0  0  0  0  0  0  0  0  0
   -6.1687    4.8349  -17.0203 C   0  0  0  0  0  0  0  0  0  0  0  0
   -6.3309    4.8277  -15.6430 C   0  0  0  0  0  0  0  0  0  0  0  0
   -5.0272    5.1477  -14.9773 C   0  0  0  0  0  0  0  0  0  0  0  0
   -4.1504    5.5550  -16.1533 C   0  0  0  0  0  0  0  0  0  0  0  0
   -3.0607    6.1079  -16.0843 O   0  0  0  0  0  0  0  0  0  0  0  0
   -4.8807    5.2904  -17.3372 N   0  0  0  0  0  0  0  0  0  0  0  0
   -7.9106    6.3064  -13.5646 O   0  0  0  0  0  0  0  0  0  0  0  0
   -7.8337    5.1543  -13.7256 C   0  0  0  0  0  0  0  0  0  0  0  0
   -7.8976    4.0007  -12.7135 N   0  0  0  0  0  0  0  0  0  0  0  0
   -7.7285    3.1087  -13.0943 H   0  0  0  0  0  0  0  0  0  0  0  0
   -8.1551    4.0107  -11.3483 C   0  0  0  0  0  0  0  0  0  0  0  0
   -7.9904    5.1906  -10.5992 C   0  0  0  0  0  0  0  0  0  0  0  0
   -8.2280    5.2081   -9.2236 C   0  0  0  0  0  0  0  0  0  0  0  0
   -8.6467    4.0364   -8.6280 C   0  0  0  0  0  0  0  0  0  0  0  0
   -8.8082    2.8681   -9.3695 C   0  0  0  0  0  0  0  0  0  0  0  0
   -8.5606    2.8313  -10.7293 C   0  0  0  0  0  0  0  0  0  0  0  0
   -9.2284    1.7707   -8.4517 C   0  0  0  0  0  0  0  0  0  0  0  0
   -9.7047    2.4629   -7.2264 N   0  0  0  0  0  0  0  0  0  0  0  0
   -8.9800    3.7520   -7.2024 C   0  0  0  0  0  0  0  0  0  0  0  0
   -9.4838    1.9130   -6.3962 H   0  0  0  0  0  0  0  0  0  0  0  0
   -4.7480    6.2100  -18.3880 N   0  0  0  0  0  0  0  0  0  0  0  0
   -4.0678    6.9114  -18.0951 H   0  0  0  0  0  0  0  0  0  0  0  0
   -4.3184    5.7009  -19.6793 C   0  0  0  0  0  0  0  0  0  0  0  0
   -3.9414    6.8560  -20.6341 C   0  0  0  0  0  0  0  0  0  0  0  0
   -2.8917    5.9437  -21.1822 N   0  0  0  0  0  0  0  0  0  0  0  0
   -2.8471    5.3153  -19.8076 C   0  0  0  0  0  0  0  0  0  0  0  0
   -2.0295    6.4065  -21.4701 H   0  0  0  0  0  0  0  0  0  0  0  0
 12 13  2  0  0  0
 13 14  1  0  0  0
 14 16  1  0  0  0
 16 17  2  0  0  0
 17 18  1  0  0  0
 18 19  2  0  0  0
 19 20  1  0  0  0
 20 21  2  0  0  0
 20 22  1  0  0  0
 22 23  1  0  0  0
 23 24  1  0  0  0
 13  1  1  0  0  0
  1  2  2  0  0  0
  2  3  1  0  0  0
  3  4  1  0  0  0
  3  5  2  0  0  0
  5  6  1  0  0  0
  6  7  2  0  0  0
  7  8  1  0  0  0
  8  9  1  0  0  0
  9 10  2  0  0  0
  9 11  1  0  0  0
 11 26  1  0  0  0
 26 28  1  0  0  0
 28 29  1  0  0  0
 29 30  1  0  0  0
 30 31  1  0  0  0
 21 16  1  0  0  0
  7  1  1  0  0  0
 31 28  1  0  0  0
 24 19  1  0  0  0
 11  6  1  0  0  0
 14 15  1  0  0  0
 23 25  1  0  0  0
 26 27  1  0  0  0
 30 32  1  0  0  0
M  END
> <minimizedAffinity>
-8.93194

> <minimizedRMSD>
0.71390

$$$$
P20013


 30 34  0  0  0  0  0  0  0  0999 V2000
   -7.5883    4.9680  -14.8935 C   0  0  0  0  0  0  0  0  0  0  0  0
   -8.5247    4.2576  -15.6476 C   0  0  0  0  0  0  0  0  0  0  0  0
   -8.2707    4.0046  -16.9960 C   0  0  0  0  0  0  0  0  0  0  0  0
   -9.4863    3.2797  -17.9654 Cl  0  0  0  0  0  0  0  0  0  0  0  0
   -7.0731    4.3930  -17.6015 C   0  0  0  0  0  0  0  0  0  0  0  0
   -6.1348    5.1072  -16.8658 C   0  0  0  0  0  0  0  0  0  0  0  0
   -6.4283    5.4307  -15.5233 C   0  0  0  0  0  0  0  0  0  0  0  0
   -5.4501    6.4308  -14.9785 C   0  0  0  0  0  0  0  0  0  0  0  0
   -4.7458    6.8929  -16.2436 C   0  0  0  0  0  0  0  0  0  0  0  0
   -4.1008    7.9321  -16.3274 O   0  0  0  0  0  0  0  0  0  0  0  0
   -4.8972    5.8478  -17.3720 C   0  0  0  0  0  0  0  0  0  0  0  0
   -5.1414    6.5070  -18.7239 C   0  0  0  0  0  0  0  0  0  0  0  0
   -4.8073    5.5611  -19.8638 C   0  0  0  0  0  0  0  0  0  0  0  0
   -3.4294    5.2093  -19.8498 O   0  0  0  0  0  0  0  0  0  0  0  0
   -2.9548    4.6214  -18.6468 C   0  0  0  0  0  0  0  0  0  0  0  0
   -3.5518    5.1021  -17.3294 C   0  0  0  0  0  0  0  0  0  0  0  0
   -8.1222    6.5175  -13.2997 O   0  0  0  0  0  0  0  0  0  0  0  0
   -7.9303    5.3850  -13.5063 C   0  0  0  0  0  0  0  0  0  0  0  0
   -8.0007    4.1680  -12.5572 N   0  0  0  0  0  0  0  0  0  0  0  0
   -7.8682    3.2960  -12.9946 H   0  0  0  0  0  0  0  0  0  0  0  0
   -8.2212    4.1036  -11.1826 C   0  0  0  0  0  0  0  0  0  0  0  0
   -8.0771    5.2431  -10.3731 C   0  0  0  0  0  0  0  0  0  0  0  0
   -8.3010    5.1780   -8.9945 C   0  0  0  0  0  0  0  0  0  0  0  0
   -8.6934    3.9684   -8.4559 C   0  0  0  0  0  0  0  0  0  0  0  0
   -8.8422    2.8386   -9.2558 C   0  0  0  0  0  0  0  0  0  0  0  0
   -8.5985    2.8817  -10.6185 C   0  0  0  0  0  0  0  0  0  0  0  0
   -9.2659    1.6914   -8.3987 C   0  0  0  0  0  0  0  0  0  0  0  0
   -9.7214    2.3116   -7.1261 N   0  0  0  0  0  0  0  0  0  0  0  0
   -9.0129    3.6068   -7.0443 C   0  0  0  0  0  0  0  0  0  0  0  0
   -9.4755    1.7197   -6.3326 H   0  0  0  0  0  0  0  0  0  0  0  0
 17 18  2  0  0  0
 18 19  1  0  0  0
 19 21  1  0  0  0
 21 22  2  0  0  0
 22 23  1  0  0  0
 23 24  2  0  0  0
 24 25  1  0  0  0
 25 26  2  0  0  0
 25 27  1  0  0  0
 27 28  1  0  0  0
 28 29  1  0  0  0
 18  1  1  0  0  0
  1  2  2  0  0  0
  2  3  1  0  0  0
  3  4  1  0  0  0
  3  5  2  0  0  0
  5  6  1  0  0  0
  6  7  2  0  0  0
  7  8  1  0  0  0
  8  9  1  0  0  0
  9 10  2  0  0  0
  9 11  1  0  0  0
 11 12  1  0  0  0
 12 13  1  0  0  0
 13 14  1  0  0  0
 14 15  1  0  0  0
 15 16  1  0  0  0
 26 21  1  0  0  0
  7  1  1  0  0  0
 16 11  1  0  0  0
 29 24  1  0  0  0
 11  6  1  0  0  0
 19 20  1  0  0  0
 28 30  1  0  0  0
M  END
> <minimizedAffinity>
-9.62014

> <minimizedRMSD>
0.39727

$$$$
P20025


 39 42  0  0  0  0  0  0  0  0999 V2000
   -8.4481    4.2968  -17.1270 C   0  0  0  0  0  0  0  0  0  0  0  0
   -7.3765    4.5644  -17.9582 C   0  0  0  0  0  0  0  0  0  0  0  0
   -6.1546    4.8901  -17.4084 C   0  0  0  0  0  0  0  0  0  0  0  0
   -5.9509    5.0102  -16.0247 C   0  0  0  0  0  0  0  0  0  0  0  0
   -7.0351    4.6889  -15.1578 C   0  0  0  0  0  0  0  0  0  0  0  0
   -8.2752    4.3422  -15.7394 C   0  0  0  0  0  0  0  0  0  0  0  0
   -6.9203    4.7752  -13.6290 C   0  0  0  0  0  0  0  0  0  0  0  0
   -5.8278    3.9890  -13.2010 O   0  0  0  0  0  0  0  0  0  0  0  0
   -6.6496    6.1150  -13.2952 O   0  0  0  0  0  0  0  0  0  0  0  0
   -5.8338    3.0626  -13.3415 H   0  0  0  0  0  0  0  0  0  0  0  0
   -7.2703    6.7848  -13.5052 H   0  0  0  0  0  0  0  0  0  0  0  0
   -8.1015    4.2925  -12.9443 N   0  0  0  0  0  0  0  0  0  0  0  0
   -8.8456    3.9522  -13.4918 H   0  0  0  0  0  0  0  0  0  0  0  0
   -8.2515    4.2797  -11.5516 C   0  0  0  0  0  0  0  0  0  0  0  0
   -8.1621    5.4391  -10.7558 C   0  0  0  0  0  0  0  0  0  0  0  0
   -8.3177    5.4013   -9.3634 C   0  0  0  0  0  0  0  0  0  0  0  0
   -8.5879    4.1877   -8.7662 C   0  0  0  0  0  0  0  0  0  0  0  0
   -8.7054    3.0364   -9.5279 C   0  0  0  0  0  0  0  0  0  0  0  0
   -8.5515    3.0664  -10.9084 C   0  0  0  0  0  0  0  0  0  0  0  0
   -8.9937    1.8789   -8.6330 C   0  0  0  0  0  0  0  0  0  0  0  0
   -9.2280    2.4496   -7.2845 N   0  0  0  0  0  0  0  0  0  0  0  0
   -8.8138    3.8642   -7.3298 C   0  0  0  0  0  0  0  0  0  0  0  0
   -8.6749    1.9458   -6.5912 H   0  0  0  0  0  0  0  0  0  0  0  0
   -9.6138    2.3861  -17.9193 N   0  0  0  0  0  0  0  0  0  0  0  0
   -9.7184    3.8313  -17.7605 C   0  0  0  0  0  0  0  0  0  0  0  0
  -10.4662    2.0289  -18.3507 H   0  0  0  0  0  0  0  0  0  0  0  0
   -9.4878    1.9518  -17.0050 H   0  0  0  0  0  0  0  0  0  0  0  0
   -4.7902    5.6265  -15.5178 N   0  0  0  0  0  0  0  0  0  0  0  0
   -4.8929    6.3384  -14.8456 H   0  0  0  0  0  0  0  0  0  0  0  0
   -3.4453    5.2610  -15.9408 C   0  0  0  0  0  0  0  0  0  0  0  0
   -2.3972    5.7496  -15.0570 N   0  0  0  0  0  0  0  0  0  0  0  0
   -2.3629    6.7681  -15.1008 H   0  0  0  0  0  0  0  0  0  0  0  0
   -1.4987    5.3662  -15.3506 H   0  0  0  0  0  0  0  0  0  0  0  0
   -3.0918    5.6712  -17.3700 C   0  0  0  0  0  0  0  0  0  0  0  0
   -3.1899    7.0013  -17.8119 C   0  0  0  0  0  0  0  0  0  0  0  0
   -3.0508    7.3081  -19.1678 C   0  0  0  0  0  0  0  0  0  0  0  0
   -2.7086    6.3142  -20.0828 C   0  0  0  0  0  0  0  0  0  0  0  0
   -2.5178    5.0057  -19.6479 C   0  0  0  0  0  0  0  0  0  0  0  0
   -2.7167    4.6833  -18.3043 C   0  0  0  0  0  0  0  0  0  0  0  0
 24 25  1  0  0  0
 25  1  1  0  0  0
  1  2  2  0  0  0
  2  3  1  0  0  0
  3  4  2  0  0  0
  4 28  1  0  0  0
 28 30  1  0  0  0
 30 31  1  0  0  0
 30 34  1  0  0  0
 34 35  2  0  0  0
 35 36  1  0  0  0
 36 37  2  0  0  0
 37 38  1  0  0  0
 38 39  2  0  0  0
  4  5  1  0  0  0
  5  7  1  0  0  0
  7  8  1  0  0  0
  7  9  1  0  0  0
  7 12  1  0  0  0
 12 14  1  0  0  0
 14 15  2  0  0  0
 15 16  1  0  0  0
 16 17  2  0  0  0
 17 18  1  0  0  0
 18 19  2  0  0  0
 18 20  1  0  0  0
 20 21  1  0  0  0
 21 22  1  0  0  0
  5  6  2  0  0  0
  6  1  1  0  0  0
 39 34  1  0  0  0
 19 14  1  0  0  0
 22 17  1  0  0  0
 24 26  1  0  0  0
 24 27  1  0  0  0
 28 29  1  0  0  0
 31 32  1  0  0  0
 31 33  1  0  0  0
  8 10  1  0  0  0
  9 11  1  0  0  0
 12 13  1  0  0  0
 21 23  1  0  0  0
M  END
> <minimizedAffinity>
-8.08133

> <minimizedRMSD>
0.46815

$$$$
P20027


 38 43  0  0  0  0  0  0  0  0999 V2000
   -3.9865    8.8465  -17.0716 C   0  0  0  0  0  0  0  0  0  0  0  0
   -2.8078    7.8741  -16.9474 C   0  0  0  0  0  0  0  0  0  0  0  0
   -2.1489    8.0253  -15.5675 C   0  0  0  0  0  0  0  0  0  0  0  0
   -0.8484    7.2338  -15.4393 C   0  0  0  0  0  0  0  0  0  0  0  0
   -0.7493    6.0540  -16.3989 C   0  0  0  0  0  0  0  0  0  0  0  0
   -2.1124    5.4119  -16.6385 C   0  0  0  0  0  0  0  0  0  0  0  0
   -3.1296    6.3749  -17.3344 C   0  0  0  0  0  0  0  0  0  0  0  0
   -2.8675    6.2364  -18.9088 C   0  0  0  0  0  0  0  0  0  0  0  0
   -3.4254    5.0389  -19.5914 N   0  0  0  0  0  0  0  0  0  0  0  0
   -4.7835    5.3359  -20.0893 C   0  0  0  0  0  0  0  0  0  0  0  0
   -5.6473    6.1558  -19.1568 C   0  0  0  0  0  0  0  0  0  0  0  0
   -5.5751    5.6620  -17.7983 N   0  0  0  0  0  0  0  0  0  0  0  0
   -4.5522    5.9255  -16.9094 C   0  0  0  0  0  0  0  0  0  0  0  0
   -5.1427    5.7276  -15.6705 C   0  0  0  0  0  0  0  0  0  0  0  0
   -4.5485    6.0643  -14.5157 O   0  0  0  0  0  0  0  0  0  0  0  0
   -6.4322    5.1344  -15.8230 C   0  0  0  0  0  0  0  0  0  0  0  0
   -7.4895    4.7320  -14.9668 C   0  0  0  0  0  0  0  0  0  0  0  0
   -8.6335    4.1365  -15.5293 C   0  0  0  0  0  0  0  0  0  0  0  0
   -8.7121    3.9142  -16.8955 C   0  0  0  0  0  0  0  0  0  0  0  0
   -9.8017    3.3309  -17.4090 F   0  0  0  0  0  0  0  0  0  0  0  0
   -7.7151    4.3344  -17.7600 C   0  0  0  0  0  0  0  0  0  0  0  0
   -6.6042    4.9752  -17.1968 C   0  0  0  0  0  0  0  0  0  0  0  0
   -3.4687    4.2622  -18.9316 H   0  0  0  0  0  0  0  0  0  0  0  0
   -3.6949    6.4506  -14.5233 H   0  0  0  0  0  0  0  0  0  0  0  0
   -7.4503    5.1127  -13.5251 C   0  0  0  0  0  0  0  0  0  0  0  0
   -7.0175    6.1676  -13.2664 O   0  0  0  0  0  0  0  0  0  0  0  0
   -8.1021    4.0457  -12.6143 N   0  0  0  0  0  0  0  0  0  0  0  0
   -8.4593    3.2609  -13.0894 H   0  0  0  0  0  0  0  0  0  0  0  0
   -8.2658    4.0144  -11.2325 C   0  0  0  0  0  0  0  0  0  0  0  0
   -8.0846    5.1772  -10.4642 C   0  0  0  0  0  0  0  0  0  0  0  0
   -8.3174    5.1692   -9.0857 C   0  0  0  0  0  0  0  0  0  0  0  0
   -8.7209    3.9844   -8.5020 C   0  0  0  0  0  0  0  0  0  0  0  0
   -8.8694    2.8242   -9.2573 C   0  0  0  0  0  0  0  0  0  0  0  0
   -8.6571    2.8206  -10.6248 C   0  0  0  0  0  0  0  0  0  0  0  0
   -9.2395    1.7012   -8.3463 C   0  0  0  0  0  0  0  0  0  0  0  0
   -9.7219    2.3625   -7.1059 N   0  0  0  0  0  0  0  0  0  0  0  0
   -9.0451    3.6784   -7.0781 C   0  0  0  0  0  0  0  0  0  0  0  0
   -9.4677    1.8123   -6.2855 H   0  0  0  0  0  0  0  0  0  0  0  0
  2  1  1  0  0  0
  2  3  1  0  0  0
  3  4  1  0  0  0
  4  5  1  0  0  0
  5  6  1  0  0  0
  7  6  1  0  0  0
  7  8  1  0  0  0
  8  9  1  0  0  0
  9 10  1  0  0  0
 10 11  1  0  0  0
 11 12  1  0  0  0
 12 13  1  0  0  0
 13 14  2  0  0  0
 14 15  1  0  0  0
 14 16  1  0  0  0
 16 17  2  0  0  0
 17 25  1  0  0  0
 25 26  2  0  0  0
 25 27  1  0  0  0
 27 29  1  0  0  0
 29 30  2  0  0  0
 30 31  1  0  0  0
 31 32  2  0  0  0
 32 33  1  0  0  0
 33 34  2  0  0  0
 33 35  1  0  0  0
 35 36  1  0  0  0
 36 37  1  0  0  0
 17 18  1  0  0  0
 18 19  2  0  0  0
 19 20  1  0  0  0
 19 21  1  0  0  0
 21 22  2  0  0  0
  7  2  1  0  0  0
 22 12  1  0  0  0
 13  7  1  0  0  0
 22 16  1  0  0  0
 34 29  1  0  0  0
 37 32  1  0  0  0
  9 23  1  0  0  0
 15 24  1  0  0  0
 27 28  1  0  0  0
 36 38  1  0  0  0
M  END
> <minimizedAffinity>
-9.82943

> <minimizedRMSD>
0.32604

$$$$
P20037


 31 35  0  0  0  0  0  0  0  0999 V2000
   -5.4332    5.5955  -19.4257 C   0  0  0  0  0  0  0  0  0  0  0  0
   -5.6893    5.4952  -18.0105 N   0  0  0  0  0  0  0  0  0  0  0  0
   -4.8066    5.7705  -16.9878 C   0  0  0  0  0  0  0  0  0  0  0  0
   -5.3531    5.4480  -15.8312 N   0  0  0  0  0  0  0  0  0  0  0  0
   -6.6124    4.9631  -16.0961 C   0  0  0  0  0  0  0  0  0  0  0  0
   -7.6178    4.4752  -15.2368 C   0  0  0  0  0  0  0  0  0  0  0  0
   -8.8259    4.0289  -15.8065 C   0  0  0  0  0  0  0  0  0  0  0  0
   -9.0334    4.0995  -17.1775 C   0  0  0  0  0  0  0  0  0  0  0  0
  -10.1866    3.6442  -17.6861 F   0  0  0  0  0  0  0  0  0  0  0  0
   -8.0690    4.6072  -18.0400 C   0  0  0  0  0  0  0  0  0  0  0  0
   -6.8587    5.0147  -17.4664 C   0  0  0  0  0  0  0  0  0  0  0  0
   -3.4448    6.2917  -17.1346 C   0  0  0  0  0  0  0  0  0  0  0  0
   -3.1663    7.6647  -17.1668 C   0  0  0  0  0  0  0  0  0  0  0  0
   -1.8531    8.1197  -17.3150 C   0  0  0  0  0  0  0  0  0  0  0  0
   -0.8046    7.2072  -17.4181 C   0  0  0  0  0  0  0  0  0  0  0  0
   -1.0650    5.8401  -17.3596 C   0  0  0  0  0  0  0  0  0  0  0  0
   -2.3771    5.3867  -17.2115 C   0  0  0  0  0  0  0  0  0  0  0  0
   -7.3808    4.4599  -13.7753 C   0  0  0  0  0  0  0  0  0  0  0  0
   -6.3828    3.9761  -13.2561 O   0  0  0  0  0  0  0  0  0  0  0  0
   -8.3693    5.1392  -12.8603 C   0  0  0  0  0  0  0  0  0  0  0  0
   -9.0901    6.0397  -13.2730 O   0  0  0  0  0  0  0  0  0  0  0  0
   -8.3468    4.8002  -11.4372 C   0  0  0  0  0  0  0  0  0  0  0  0
   -8.0153    5.8188  -10.5233 C   0  0  0  0  0  0  0  0  0  0  0  0
   -8.0842    5.5730   -9.1537 C   0  0  0  0  0  0  0  0  0  0  0  0
   -8.5033    4.3186   -8.7434 C   0  0  0  0  0  0  0  0  0  0  0  0
   -8.8008    3.3083   -9.6605 C   0  0  0  0  0  0  0  0  0  0  0  0
   -8.7244    3.5239  -11.0223 C   0  0  0  0  0  0  0  0  0  0  0  0
   -9.1875    2.0732   -8.9169 C   0  0  0  0  0  0  0  0  0  0  0  0
   -9.5084    2.5397   -7.5448 N   0  0  0  0  0  0  0  0  0  0  0  0
   -8.7312    3.7908   -7.3644 C   0  0  0  0  0  0  0  0  0  0  0  0
   -9.2276    1.8422   -6.8555 H   0  0  0  0  0  0  0  0  0  0  0  0
  1  2  1  0  0  0
  2  3  1  0  0  0
  3 12  1  0  0  0
 12 13  2  0  0  0
 13 14  1  0  0  0
 14 15  2  0  0  0
 15 16  1  0  0  0
 16 17  2  0  0  0
  3  4  2  0  0  0
  4  5  1  0  0  0
  5  6  2  0  0  0
  6 18  1  0  0  0
 18 19  2  0  0  0
 18 20  1  0  0  0
 20 21  2  0  0  0
 20 22  1  0  0  0
 22 23  2  0  0  0
 23 24  1  0  0  0
 24 25  2  0  0  0
 25 26  1  0  0  0
 26 27  2  0  0  0
 26 28  1  0  0  0
 28 29  1  0  0  0
 29 30  1  0  0  0
  6  7  1  0  0  0
  7  8  2  0  0  0
  8  9  1  0  0  0
  8 10  1  0  0  0
 10 11  2  0  0  0
 11  2  1  0  0  0
 17 12  1  0  0  0
 11  5  1  0  0  0
 27 22  1  0  0  0
 30 25  1  0  0  0
 29 31  1  0  0  0
M  END
> <minimizedAffinity>
-8.31621

> <minimizedRMSD>
0.66368

$$$$
P20040


 31 35  0  0  0  0  0  0  0  0999 V2000
   -7.5792    4.6503  -15.0818 C   0  0  0  0  0  0  0  0  0  0  0  0
   -8.5598    4.2016  -15.9897 C   0  0  0  0  0  0  0  0  0  0  0  0
   -8.3190    4.1144  -17.3547 C   0  0  0  0  0  0  0  0  0  0  0  0
   -9.2984    3.6696  -18.1538 F   0  0  0  0  0  0  0  0  0  0  0  0
   -7.0981    4.4839  -17.9004 C   0  0  0  0  0  0  0  0  0  0  0  0
   -6.0935    4.9057  -17.0205 C   0  0  0  0  0  0  0  0  0  0  0  0
   -4.8106    5.2913  -17.3103 N   0  0  0  0  0  0  0  0  0  0  0  0
   -4.2327    5.5697  -16.1564 C   0  0  0  0  0  0  0  0  0  0  0  0
   -5.1419    5.4131  -15.1369 N   0  0  0  0  0  0  0  0  0  0  0  0
   -6.3395    4.9756  -15.6486 C   0  0  0  0  0  0  0  0  0  0  0  0
   -4.9620    5.5879  -14.1849 H   0  0  0  0  0  0  0  0  0  0  0  0
   -2.8341    5.9726  -15.9732 C   0  0  0  0  0  0  0  0  0  0  0  0
   -1.9746    5.9713  -17.0829 C   0  0  0  0  0  0  0  0  0  0  0  0
   -0.6308    6.3301  -16.9549 C   0  0  0  0  0  0  0  0  0  0  0  0
   -0.1265    6.7010  -15.7118 C   0  0  0  0  0  0  0  0  0  0  0  0
   -0.9654    6.7130  -14.5994 C   0  0  0  0  0  0  0  0  0  0  0  0
   -2.3110    6.3510  -14.7276 C   0  0  0  0  0  0  0  0  0  0  0  0
   -7.9780    4.7735  -13.6609 C   0  0  0  0  0  0  0  0  0  0  0  0
   -9.1736    4.6828  -13.3850 O   0  0  0  0  0  0  0  0  0  0  0  0
   -5.9610    5.6222  -12.6929 O   0  0  0  0  0  0  0  0  0  0  0  0
   -7.0419    5.0764  -12.5065 C   0  0  0  0  0  0  0  0  0  0  0  0
   -7.5233    4.7900  -11.1244 C   0  0  0  0  0  0  0  0  0  0  0  0
   -7.3905    5.8120  -10.1622 C   0  0  0  0  0  0  0  0  0  0  0  0
   -7.8220    5.6158   -8.8471 C   0  0  0  0  0  0  0  0  0  0  0  0
   -8.3668    4.3884   -8.5151 C   0  0  0  0  0  0  0  0  0  0  0  0
   -8.4831    3.3684   -9.4577 C   0  0  0  0  0  0  0  0  0  0  0  0
   -8.0785    3.5503  -10.7736 C   0  0  0  0  0  0  0  0  0  0  0  0
   -9.0429    2.1528   -8.7877 C   0  0  0  0  0  0  0  0  0  0  0  0
   -9.5764    2.6315   -7.4870 N   0  0  0  0  0  0  0  0  0  0  0  0
   -8.8749    3.8986   -7.1983 C   0  0  0  0  0  0  0  0  0  0  0  0
   -9.3883    1.9477   -6.7539 H   0  0  0  0  0  0  0  0  0  0  0  0
 20 21  2  0  0  0
 21 18  1  0  0  0
 18 19  2  0  0  0
 18  1  1  0  0  0
  1  2  2  0  0  0
  2  3  1  0  0  0
  3  4  1  0  0  0
  3  5  2  0  0  0
  5  6  1  0  0  0
  6  7  1  0  0  0
  7  8  2  0  0  0
  8 12  1  0  0  0
 12 13  2  0  0  0
 13 14  1  0  0  0
 14 15  2  0  0  0
 15 16  1  0  0  0
 16 17  2  0  0  0
  8  9  1  0  0  0
  9 10  1  0  0  0
 21 22  1  0  0  0
 22 23  2  0  0  0
 23 24  1  0  0  0
 24 25  2  0  0  0
 25 26  1  0  0  0
 26 27  2  0  0  0
 26 28  1  0  0  0
 28 29  1  0  0  0
 29 30  1  0  0  0
 10  1  1  0  0  0
 27 22  1  0  0  0
 10  6  2  0  0  0
 30 25  1  0  0  0
 17 12  1  0  0  0
  9 11  1  0  0  0
 29 31  1  0  0  0
M  END
> <minimizedAffinity>
-7.99032

> <minimizedRMSD>
0.06899

$$$$
P20041


 37 41  0  0  0  0  0  0  0  0999 V2000
   -4.8047    4.6910  -12.2018 N   0  0  0  0  0  0  0  0  0  0  0  0
   -6.0280    4.3274  -12.4977 C   0  0  0  0  0  0  0  0  0  0  0  0
   -6.5181    4.6078  -13.8879 C   0  0  0  0  0  0  0  0  0  0  0  0
   -7.8261    4.3722  -14.3334 C   0  0  0  0  0  0  0  0  0  0  0  0
   -8.1482    4.4462  -15.6935 C   0  0  0  0  0  0  0  0  0  0  0  0
   -9.3887    4.1296  -16.0943 F   0  0  0  0  0  0  0  0  0  0  0  0
   -7.2141    4.8055  -16.6626 C   0  0  0  0  0  0  0  0  0  0  0  0
   -5.9108    5.0685  -16.2364 C   0  0  0  0  0  0  0  0  0  0  0  0
   -4.8009    5.3868  -16.9763 N   0  0  0  0  0  0  0  0  0  0  0  0
   -3.7874    5.4295  -16.1295 C   0  0  0  0  0  0  0  0  0  0  0  0
   -4.2441    5.2172  -14.8514 N   0  0  0  0  0  0  0  0  0  0  0  0
   -5.5974    4.9726  -14.8878 C   0  0  0  0  0  0  0  0  0  0  0  0
   -3.6902    5.2370  -14.0377 H   0  0  0  0  0  0  0  0  0  0  0  0
   -2.3774    5.6146  -16.4837 C   0  0  0  0  0  0  0  0  0  0  0  0
   -1.3929    5.9135  -15.5301 C   0  0  0  0  0  0  0  0  0  0  0  0
   -0.0536    6.0523  -15.9099 C   0  0  0  0  0  0  0  0  0  0  0  0
    0.3179    5.8907  -17.2434 C   0  0  0  0  0  0  0  0  0  0  0  0
   -0.6486    5.5964  -18.2015 C   0  0  0  0  0  0  0  0  0  0  0  0
   -1.9868    5.4662  -17.8236 C   0  0  0  0  0  0  0  0  0  0  0  0
   -2.8839    3.9753   -9.0336 C   0  0  0  0  0  0  0  0  0  0  0  0
   -3.0483    4.8752  -10.2392 C   0  0  0  0  0  0  0  0  0  0  0  0
   -2.4017    5.8298  -10.4324 O   0  0  0  0  0  0  0  0  0  0  0  0
   -4.1993    4.2481  -11.0820 N   0  0  0  0  0  0  0  0  0  0  0  0
   -4.5394    3.3893  -10.7414 H   0  0  0  0  0  0  0  0  0  0  0  0
   -6.8933    3.5240  -11.5437 C   0  0  0  0  0  0  0  0  0  0  0  0
   -6.8892    2.3056  -11.6665 O   0  0  0  0  0  0  0  0  0  0  0  0
   -7.5581    4.1401  -10.3691 C   0  0  0  0  0  0  0  0  0  0  0  0
   -7.2600    5.4442   -9.9285 C   0  0  0  0  0  0  0  0  0  0  0  0
   -7.6986    5.8851   -8.6744 C   0  0  0  0  0  0  0  0  0  0  0  0
   -8.4496    5.0197   -7.8993 C   0  0  0  0  0  0  0  0  0  0  0  0
   -8.8268    3.7657   -8.3767 C   0  0  0  0  0  0  0  0  0  0  0  0
   -8.3821    3.3055   -9.6006 C   0  0  0  0  0  0  0  0  0  0  0  0
   -9.7363    3.1290   -7.3731 C   0  0  0  0  0  0  0  0  0  0  0  0
   -9.5938    1.6426   -7.2332 C   0  0  0  0  0  0  0  0  0  0  0  0
   -9.4388    3.8558   -6.1200 N   0  0  0  0  0  0  0  0  0  0  0  0
   -9.0074    5.1999   -6.5217 C   0  0  0  0  0  0  0  0  0  0  0  0
   -8.6950    3.3843   -5.6053 H   0  0  0  0  0  0  0  0  0  0  0  0
 20 21  1  0  0  0
 21 22  2  0  0  0
 21 23  1  0  0  0
 23  1  1  0  0  0
  1  2  2  0  0  0
  2 25  1  0  0  0
 25 26  2  0  0  0
 25 27  1  0  0  0
 27 28  2  0  0  0
 28 29  1  0  0  0
 29 30  2  0  0  0
 30 31  1  0  0  0
 31 32  2  0  0  0
 31 33  1  0  0  0
 33 34  1  0  0  0
 33 35  1  0  0  0
 35 36  1  0  0  0
  2  3  1  0  0  0
  3  4  2  0  0  0
  4  5  1  0  0  0
  5  6  1  0  0  0
  5  7  2  0  0  0
  7  8  1  0  0  0
  8  9  1  0  0  0
  9 10  2  0  0  0
 10 14  1  0  0  0
 14 15  2  0  0  0
 15 16  1  0  0  0
 16 17  2  0  0  0
 17 18  1  0  0  0
 18 19  2  0  0  0
 10 11  1  0  0  0
 11 12  1  0  0  0
 32 27  1  0  0  0
 12  3  1  0  0  0
 36 30  1  0  0  0
 12  8  2  0  0  0
 19 14  1  0  0  0
 23 24  1  0  0  0
 35 37  1  0  0  0
 11 13  1  0  0  0
M  END
> <minimizedAffinity>
-7.60871

> <minimizedRMSD>
0.78692

$$$$
P20042


 33 37  0  0  0  0  0  0  0  0999 V2000
   -7.7995    4.5154  -15.3012 C   0  0  0  0  0  0  0  0  0  0  0  0
   -8.9059    3.9244  -15.9409 C   0  0  0  0  0  0  0  0  0  0  0  0
   -8.9245    3.7134  -17.3073 C   0  0  0  0  0  0  0  0  0  0  0  0
   -9.9937    3.1333  -17.8637 F   0  0  0  0  0  0  0  0  0  0  0  0
   -7.8664    4.0985  -18.1132 C   0  0  0  0  0  0  0  0  0  0  0  0
   -6.7762    4.7033  -17.4762 C   0  0  0  0  0  0  0  0  0  0  0  0
   -6.7092    4.9151  -16.0954 C   0  0  0  0  0  0  0  0  0  0  0  0
   -5.5373    5.5579  -15.7896 N   0  0  0  0  0  0  0  0  0  0  0  0
   -4.8627    5.7105  -16.9175 C   0  0  0  0  0  0  0  0  0  0  0  0
   -5.5977    5.2150  -17.9739 N   0  0  0  0  0  0  0  0  0  0  0  0
   -3.5186    6.2888  -16.9902 C   0  0  0  0  0  0  0  0  0  0  0  0
   -3.2997    7.6330  -17.3195 C   0  0  0  0  0  0  0  0  0  0  0  0
   -2.0011    8.1463  -17.3763 C   0  0  0  0  0  0  0  0  0  0  0  0
   -0.9119    7.3257  -17.0872 C   0  0  0  0  0  0  0  0  0  0  0  0
   -1.1191    5.9954  -16.7290 C   0  0  0  0  0  0  0  0  0  0  0  0
   -2.4165    5.4825  -16.6743 C   0  0  0  0  0  0  0  0  0  0  0  0
   -5.2234    5.1514  -19.3704 C   0  0  0  0  0  0  0  0  0  0  0  0
   -5.5997    6.3667  -20.0090 O   0  0  0  0  0  0  0  0  0  0  0  0
   -6.5588    6.4894  -19.9310 H   0  0  0  0  0  0  0  0  0  0  0  0
   -7.9396    4.7554  -13.8594 C   0  0  0  0  0  0  0  0  0  0  0  0
   -8.9518    5.3458  -13.4766 O   0  0  0  0  0  0  0  0  0  0  0  0
   -5.8480    3.8768  -13.0318 O   0  0  0  0  0  0  0  0  0  0  0  0
   -6.9821    4.2550  -12.7970 C   0  0  0  0  0  0  0  0  0  0  0  0
   -7.5154    4.2118  -11.4151 C   0  0  0  0  0  0  0  0  0  0  0  0
   -7.4110    5.3737  -10.6313 C   0  0  0  0  0  0  0  0  0  0  0  0
   -7.8705    5.3742   -9.3129 C   0  0  0  0  0  0  0  0  0  0  0  0
   -8.4124    4.2046   -8.8057 C   0  0  0  0  0  0  0  0  0  0  0  0
   -8.5359    3.0621   -9.5902 C   0  0  0  0  0  0  0  0  0  0  0  0
   -8.0973    3.0426  -10.9067 C   0  0  0  0  0  0  0  0  0  0  0  0
   -9.1679    1.9768   -8.7835 C   0  0  0  0  0  0  0  0  0  0  0  0
   -9.2710    2.4926   -7.3910 N   0  0  0  0  0  0  0  0  0  0  0  0
   -8.9265    3.9284   -7.4346 C   0  0  0  0  0  0  0  0  0  0  0  0
   -8.6198    1.9945   -6.7841 H   0  0  0  0  0  0  0  0  0  0  0  0
 22 23  2  0  0  0
 23 20  1  0  0  0
 20 21  2  0  0  0
 20  1  1  0  0  0
  1  2  2  0  0  0
  2  3  1  0  0  0
  3  4  1  0  0  0
  3  5  2  0  0  0
  5  6  1  0  0  0
  6  7  2  0  0  0
  7  8  1  0  0  0
  8  9  2  0  0  0
  9 11  1  0  0  0
 11 12  2  0  0  0
 12 13  1  0  0  0
 13 14  2  0  0  0
 14 15  1  0  0  0
 15 16  2  0  0  0
  9 10  1  0  0  0
 10 17  1  0  0  0
 17 18  1  0  0  0
 23 24  1  0  0  0
 24 25  2  0  0  0
 25 26  1  0  0  0
 26 27  2  0  0  0
 27 28  1  0  0  0
 28 29  2  0  0  0
 28 30  1  0  0  0
 30 31  1  0  0  0
 31 32  1  0  0  0
  7  1  1  0  0  0
 16 11  1  0  0  0
 29 24  1  0  0  0
 10  6  1  0  0  0
 32 27  1  0  0  0
 18 19  1  0  0  0
 31 33  1  0  0  0
M  END
> <minimizedAffinity>
-8.80148

> <minimizedRMSD>
0.51774

$$$$
P20059


 37 40  0  0  0  0  0  0  0  0999 V2000
   -8.3657    4.0737  -16.3653 C   0  0  0  0  0  0  0  0  0  0  0  0
   -8.4603    4.0574  -14.9970 C   0  0  0  0  0  0  0  0  0  0  0  0
   -7.2868    4.6604  -14.4631 C   0  0  0  0  0  0  0  0  0  0  0  0
   -6.5036    5.0354  -15.5421 C   0  0  0  0  0  0  0  0  0  0  0  0
   -7.1136    4.5608  -16.6766 N   0  0  0  0  0  0  0  0  0  0  0  0
   -6.7167    4.5672  -17.5776 H   0  0  0  0  0  0  0  0  0  0  0  0
   -6.9874    4.8952  -13.0516 C   0  0  0  0  0  0  0  0  0  0  0  0
   -6.0869    5.5618  -12.7216 O   0  0  0  0  0  0  0  0  0  0  0  0
   -8.0352    4.1374  -12.2063 N   0  0  0  0  0  0  0  0  0  0  0  0
   -8.6560    3.5768  -12.7253 H   0  0  0  0  0  0  0  0  0  0  0  0
   -8.2434    4.1183  -10.8364 C   0  0  0  0  0  0  0  0  0  0  0  0
   -8.0464    5.2620  -10.0499 C   0  0  0  0  0  0  0  0  0  0  0  0
   -8.2734    5.2217   -8.6727 C   0  0  0  0  0  0  0  0  0  0  0  0
   -8.6799    4.0251   -8.1122 C   0  0  0  0  0  0  0  0  0  0  0  0
   -8.8714    2.8932   -8.8935 C   0  0  0  0  0  0  0  0  0  0  0  0
   -8.6671    2.9197  -10.2595 C   0  0  0  0  0  0  0  0  0  0  0  0
   -9.3216    1.7635   -8.0371 C   0  0  0  0  0  0  0  0  0  0  0  0
   -9.2143    2.2421   -6.6344 N   0  0  0  0  0  0  0  0  0  0  0  0
   -9.0034    3.7043   -6.6954 C   0  0  0  0  0  0  0  0  0  0  0  0
   -8.4252    1.7928   -6.1697 H   0  0  0  0  0  0  0  0  0  0  0  0
   -5.3702    5.7858  -15.5660 N   0  0  0  0  0  0  0  0  0  0  0  0
   -5.4316    6.7167  -15.2513 H   0  0  0  0  0  0  0  0  0  0  0  0
   -4.0852    5.3162  -16.0192 C   0  0  0  0  0  0  0  0  0  0  0  0
   -2.9918    5.9648  -15.3040 N   0  0  0  0  0  0  0  0  0  0  0  0
   -2.9978    6.9642  -15.5078 H   0  0  0  0  0  0  0  0  0  0  0  0
   -2.1037    5.5620  -15.6031 H   0  0  0  0  0  0  0  0  0  0  0  0
   -3.8659    5.5055  -17.5202 C   0  0  0  0  0  0  0  0  0  0  0  0
   -4.4528    6.5426  -18.2613 C   0  0  0  0  0  0  0  0  0  0  0  0
   -4.1476    6.7187  -19.6137 C   0  0  0  0  0  0  0  0  0  0  0  0
   -3.2048    5.9026  -20.2332 C   0  0  0  0  0  0  0  0  0  0  0  0
   -2.5908    4.8878  -19.5089 C   0  0  0  0  0  0  0  0  0  0  0  0
   -2.9503    4.6674  -18.1816 C   0  0  0  0  0  0  0  0  0  0  0  0
   -9.3725    3.7134  -17.4087 C   0  0  0  0  0  0  0  0  0  0  0  0
   -7.8845    3.6186  -19.4036 N   0  0  0  0  0  0  0  0  0  0  0  0
   -9.0072    4.3235  -18.7532 C   0  0  0  0  0  0  0  0  0  0  0  0
   -7.6770    4.0622  -20.2983 H   0  0  0  0  0  0  0  0  0  0  0  0
   -8.1396    2.6433  -19.5587 H   0  0  0  0  0  0  0  0  0  0  0  0
 34 35  1  0  0  0
 35 33  1  0  0  0
 33  1  1  0  0  0
  1  2  2  0  0  0
  2  3  1  0  0  0
  3  7  1  0  0  0
  7  8  2  0  0  0
  7  9  1  0  0  0
  9 11  1  0  0  0
 11 12  2  0  0  0
 12 13  1  0  0  0
 13 14  2  0  0  0
 14 15  1  0  0  0
 15 16  2  0  0  0
 15 17  1  0  0  0
 17 18  1  0  0  0
 18 19  1  0  0  0
  3  4  2  0  0  0
  4 21  1  0  0  0
 21 23  1  0  0  0
 23 24  1  0  0  0
 23 27  1  0  0  0
 27 28  2  0  0  0
 28 29  1  0  0  0
 29 30  2  0  0  0
 30 31  1  0  0  0
 31 32  2  0  0  0
  4  5  1  0  0  0
  5  1  1  0  0  0
 16 11  1  0  0  0
 32 27  1  0  0  0
 19 14  1  0  0  0
 34 36  1  0  0  0
 34 37  1  0  0  0
  9 10  1  0  0  0
 18 20  1  0  0  0
 21 22  1  0  0  0
 24 25  1  0  0  0
 24 26  1  0  0  0
  5  6  1  0  0  0
M  END
> <minimizedAffinity>
-7.88995

> <minimizedRMSD>
0.50067

$$$$
P20106


 31 34  0  0  0  0  0  0  0  0999 V2000
   -6.9527    4.3871  -13.8457 C   0  0  0  0  0  0  0  0  0  0  0  0
   -5.6839    4.5261  -13.4044 C   0  0  0  0  0  0  0  0  0  0  0  0
   -5.3764    4.2485  -12.1164 F   0  0  0  0  0  0  0  0  0  0  0  0
   -4.6893    4.9694  -14.1991 F   0  0  0  0  0  0  0  0  0  0  0  0
   -7.2885    4.5108  -15.3146 C   0  0  0  0  0  0  0  0  0  0  0  0
   -8.5322    4.0279  -15.7913 C   0  0  0  0  0  0  0  0  0  0  0  0
   -8.8807    4.0793  -17.1354 C   0  0  0  0  0  0  0  0  0  0  0  0
  -10.0578    3.5889  -17.5364 F   0  0  0  0  0  0  0  0  0  0  0  0
   -8.0641    4.6719  -18.0788 C   0  0  0  0  0  0  0  0  0  0  0  0
   -6.8566    5.2019  -17.6211 C   0  0  0  0  0  0  0  0  0  0  0  0
   -6.4157    5.0788  -16.2960 C   0  0  0  0  0  0  0  0  0  0  0  0
   -5.0885    5.5925  -16.3847 C   0  0  0  0  0  0  0  0  0  0  0  0
   -4.7861    6.1119  -17.5751 N   0  0  0  0  0  0  0  0  0  0  0  0
   -5.9107    5.9577  -18.2737 N   0  0  0  0  0  0  0  0  0  0  0  0
   -6.0898    6.5706  -19.5227 N   0  0  0  0  0  0  0  0  0  0  0  0
   -5.2388    7.0697  -19.7817 H   0  0  0  0  0  0  0  0  0  0  0  0
   -6.8674    7.2287  -19.4701 H   0  0  0  0  0  0  0  0  0  0  0  0
   -8.0518    4.1059  -13.0209 N   0  0  0  0  0  0  0  0  0  0  0  0
   -8.8399    3.7626  -13.5007 H   0  0  0  0  0  0  0  0  0  0  0  0
   -8.1980    5.4429  -10.8773 C   0  0  0  0  0  0  0  0  0  0  0  0
   -8.2316    5.4423   -9.4682 C   0  0  0  0  0  0  0  0  0  0  0  0
   -8.4376    4.2471   -8.8108 C   0  0  0  0  0  0  0  0  0  0  0  0
   -8.5857    3.0665   -9.5218 C   0  0  0  0  0  0  0  0  0  0  0  0
   -8.4433    3.0313  -10.9010 C   0  0  0  0  0  0  0  0  0  0  0  0
   -8.2311    4.2280  -11.6170 C   0  0  0  0  0  0  0  0  0  0  0  0
   -8.9036    1.9619   -8.5676 C   0  0  0  0  0  0  0  0  0  0  0  0
   -9.2438    2.6384   -7.2888 N   0  0  0  0  0  0  0  0  0  0  0  0
   -8.5928    3.9634   -7.3540 C   0  0  0  0  0  0  0  0  0  0  0  0
   -8.8853    2.1043   -6.4972 H   0  0  0  0  0  0  0  0  0  0  0  0
   -8.3433    7.7761  -12.0150 N   0  0  0  0  0  0  0  0  0  0  0  0
   -8.2657    6.7300  -11.5139 C   0  0  0  0  0  0  0  0  0  0  0  0
 30 31  3  0  0  0
 31 20  1  0  0  0
 20 21  2  0  0  0
 21 22  1  0  0  0
 22 23  2  0  0  0
 23 24  1  0  0  0
 24 25  2  0  0  0
 25 18  1  0  0  0
 18  1  1  0  0  0
  1  2  2  0  0  0
  2  3  1  0  0  0
  2  4  1  0  0  0
  1  5  1  0  0  0
  5  6  2  0  0  0
  6  7  1  0  0  0
  7  8  1  0  0  0
  7  9  2  0  0  0
  9 10  1  0  0  0
 10 11  2  0  0  0
 11 12  1  0  0  0
 12 13  2  0  0  0
 13 14  1  0  0  0
 14 15  1  0  0  0
 23 26  1  0  0  0
 26 27  1  0  0  0
 27 28  1  0  0  0
 25 20  1  0  0  0
 11  5  1  0  0  0
 28 22  1  0  0  0
 14 10  1  0  0  0
 18 19  1  0  0  0
 15 16  1  0  0  0
 15 17  1  0  0  0
 27 29  1  0  0  0
M  END
> <minimizedAffinity>
-8.66704

> <minimizedRMSD>
0.78031

$$$$
P20118


 37 40  0  0  0  0  0  0  0  0999 V2000
   -8.0844    4.7997  -13.5479 N   0  0  0  0  0  0  0  0  0  0  0  0
   -6.9710    5.1415  -14.5648 C   0  0  0  0  0  0  0  0  0  0  0  0
   -5.9731    5.7301  -14.4244 O   0  0  0  0  0  0  0  0  0  0  0  0
   -8.8721    4.3527  -13.9339 H   0  0  0  0  0  0  0  0  0  0  0  0
   -7.8981    1.8636   -8.8472 C   0  0  0  0  0  0  0  0  0  0  0  0
   -8.8246    3.0456   -8.9229 C   0  0  0  0  0  0  0  0  0  0  0  0
   -8.4317    4.0424   -9.9807 C   0  0  0  0  0  0  0  0  0  0  0  0
   -8.3288    3.8843  -11.3569 C   0  0  0  0  0  0  0  0  0  0  0  0
   -8.1550    5.0234  -12.1625 C   0  0  0  0  0  0  0  0  0  0  0  0
   -8.1168    6.3071  -11.5576 C   0  0  0  0  0  0  0  0  0  0  0  0
   -8.1378    6.4212  -10.1562 C   0  0  0  0  0  0  0  0  0  0  0  0
   -8.0727    7.6577   -9.5750 O   0  0  0  0  0  0  0  0  0  0  0  0
   -8.2865    5.2906   -9.3851 C   0  0  0  0  0  0  0  0  0  0  0  0
   -8.3607    5.1422   -7.9053 C   0  0  0  0  0  0  0  0  0  0  0  0
   -9.0353    3.8599   -7.7021 N   0  0  0  0  0  0  0  0  0  0  0  0
   -8.6451    3.2387   -6.4607 C   0  0  0  0  0  0  0  0  0  0  0  0
   -7.9714    8.4214  -10.1083 H   0  0  0  0  0  0  0  0  0  0  0  0
   -8.2604    7.5352  -12.2952 C   0  0  0  0  0  0  0  0  0  0  0  0
   -8.3748    8.5839  -12.7870 N   0  0  0  0  0  0  0  0  0  0  0  0
   -7.2846    4.7305  -15.9628 C   0  0  0  0  0  0  0  0  0  0  0  0
   -8.5529    4.2934  -16.3746 C   0  0  0  0  0  0  0  0  0  0  0  0
   -8.8096    4.0689  -17.7249 C   0  0  0  0  0  0  0  0  0  0  0  0
  -10.0273    3.6486  -18.0917 F   0  0  0  0  0  0  0  0  0  0  0  0
   -7.8562    4.2989  -18.7150 C   0  0  0  0  0  0  0  0  0  0  0  0
   -6.5924    4.7278  -18.2906 C   0  0  0  0  0  0  0  0  0  0  0  0
   -6.2877    4.9278  -16.9478 C   0  0  0  0  0  0  0  0  0  0  0  0
   -4.9288    5.3176  -16.9633 C   0  0  0  0  0  0  0  0  0  0  0  0
   -4.4025    5.3352  -18.1888 N   0  0  0  0  0  0  0  0  0  0  0  0
   -5.4423    5.0421  -18.9803 N   0  0  0  0  0  0  0  0  0  0  0  0
   -5.3151    4.9773  -20.3791 N   0  0  0  0  0  0  0  0  0  0  0  0
   -6.2461    5.0410  -20.7909 H   0  0  0  0  0  0  0  0  0  0  0  0
   -4.4769    6.0561  -20.9484 C   0  0  0  0  0  0  0  0  0  0  0  0
   -4.9949    6.2308  -22.3916 C   0  0  0  0  0  0  0  0  0  0  0  0
   -4.6335    7.3798  -20.2008 C   0  0  0  0  0  0  0  0  0  0  0  0
   -2.9699    5.6831  -21.0033 C   0  0  0  0  0  0  0  0  0  0  0  0
   -2.7873    4.2897  -20.7690 O   0  0  0  0  0  0  0  0  0  0  0  0
   -3.1269    4.0626  -19.8892 H   0  0  0  0  0  0  0  0  0  0  0  0
  6  5  1  0  0  0
  6  7  1  0  0  0
  7  8  2  0  0  0
  8  9  1  0  0  0
  9  1  1  0  0  0
  1  2  1  0  0  0
  2  3  2  0  0  0
  2 20  1  0  0  0
 20 21  2  0  0  0
 21 22  1  0  0  0
 22 23  1  0  0  0
 22 24  2  0  0  0
 24 25  1  0  0  0
 25 26  2  0  0  0
 26 27  1  0  0  0
 27 28  2  0  0  0
 28 29  1  0  0  0
 29 30  1  0  0  0
 30 32  1  0  0  0
 32 33  1  0  0  0
 32 34  1  0  0  0
 32 35  1  0  0  0
 35 36  1  0  0  0
  9 10  2  0  0  0
 10 18  1  0  0  0
 18 19  3  0  0  0
 10 11  1  0  0  0
 11 12  1  0  0  0
 11 13  2  0  0  0
 13 14  1  0  0  0
 14 15  1  0  0  0
 15 16  1  0  0  0
 15  6  1  0  0  0
 13  7  1  0  0  0
 26 20  1  0  0  0
 29 25  1  0  0  0
  1  4  1  0  0  0
 30 31  1  0  0  0
 36 37  1  0  0  0
 12 17  1  0  0  0
M  END
> <minimizedAffinity>
-8.60549

> <minimizedRMSD>
1.35893

$$$$
P20119


 34 37  0  0  0  0  0  0  0  0999 V2000
   -5.5985    5.5354  -15.1064 C   0  0  0  0  0  0  0  0  0  0  0  0
   -4.7797    5.5689  -16.1812 N   0  0  0  0  0  0  0  0  0  0  0  0
   -5.5078    5.0527  -17.1771 N   0  0  0  0  0  0  0  0  0  0  0  0
   -6.8007    4.7804  -16.8292 C   0  0  0  0  0  0  0  0  0  0  0  0
   -7.8774    4.2760  -17.5618 C   0  0  0  0  0  0  0  0  0  0  0  0
   -9.0972    4.1184  -16.9246 C   0  0  0  0  0  0  0  0  0  0  0  0
  -10.1495    3.6821  -17.6241 F   0  0  0  0  0  0  0  0  0  0  0  0
   -9.2511    4.4252  -15.5861 C   0  0  0  0  0  0  0  0  0  0  0  0
   -8.1601    4.9113  -14.8518 C   0  0  0  0  0  0  0  0  0  0  0  0
   -6.9056    5.0940  -15.4741 C   0  0  0  0  0  0  0  0  0  0  0  0
   -5.1460    4.8846  -18.0772 H   0  0  0  0  0  0  0  0  0  0  0  0
   -8.4246    5.3744  -13.4803 C   0  0  0  0  0  0  0  0  0  0  0  0
   -9.0558    6.3432  -13.3337 O   0  0  0  0  0  0  0  0  0  0  0  0
   -7.8641    4.3785  -12.4428 N   0  0  0  0  0  0  0  0  0  0  0  0
   -7.2906    3.6717  -12.8180 H   0  0  0  0  0  0  0  0  0  0  0  0
   -8.0391    4.3162  -11.0502 C   0  0  0  0  0  0  0  0  0  0  0  0
   -8.5425    3.0791  -10.5982 C   0  0  0  0  0  0  0  0  0  0  0  0
   -8.8286    2.9045   -9.2560 C   0  0  0  0  0  0  0  0  0  0  0  0
   -8.6259    3.9228   -8.3407 C   0  0  0  0  0  0  0  0  0  0  0  0
   -8.0951    5.1329   -8.7435 C   0  0  0  0  0  0  0  0  0  0  0  0
   -7.7803    5.3374  -10.1074 C   0  0  0  0  0  0  0  0  0  0  0  0
   -9.0198    3.4437   -6.9824 C   0  0  0  0  0  0  0  0  0  0  0  0
   -9.7813    2.1953   -7.2157 N   0  0  0  0  0  0  0  0  0  0  0  0
   -9.3337    1.6974   -8.5394 C   0  0  0  0  0  0  0  0  0  0  0  0
  -10.7833    2.3861   -7.2271 H   0  0  0  0  0  0  0  0  0  0  0  0
   -7.1040    6.5721  -10.3934 C   0  0  0  0  0  0  0  0  0  0  0  0
   -6.4271    7.5020  -10.5668 N   0  0  0  0  0  0  0  0  0  0  0  0
   -5.1313    5.8578  -13.7529 C   0  0  0  0  0  0  0  0  0  0  0  0
   -4.9661    5.0026  -12.8893 O   0  0  0  0  0  0  0  0  0  0  0  0
   -4.8818    7.1901  -13.5787 O   0  0  0  0  0  0  0  0  0  0  0  0
   -3.6043    8.8987  -12.5074 C   0  0  0  0  0  0  0  0  0  0  0  0
   -3.5995    7.4675  -13.0082 C   0  0  0  0  0  0  0  0  0  0  0  0
   -7.7049    3.8583  -18.9015 C   0  0  0  0  0  0  0  0  0  0  0  0
   -7.5178    3.4178  -19.9526 N   0  0  0  0  0  0  0  0  0  0  0  0
 31 32  1  0  0  0
 32 30  1  0  0  0
 30 28  1  0  0  0
 28 29  2  0  0  0
 28  1  1  0  0  0
  1  2  2  0  0  0
  2  3  1  0  0  0
  3  4  1  0  0  0
  4  5  2  0  0  0
  5 33  1  0  0  0
 33 34  3  0  0  0
  5  6  1  0  0  0
  6  7  1  0  0  0
  6  8  2  0  0  0
  8  9  1  0  0  0
  9 12  1  0  0  0
 12 13  2  0  0  0
 12 14  1  0  0  0
 14 16  1  0  0  0
 16 17  2  0  0  0
 17 18  1  0  0  0
 18 19  2  0  0  0
 19 20  1  0  0  0
 20 21  2  0  0  0
 21 26  1  0  0  0
 26 27  3  0  0  0
 19 22  1  0  0  0
 22 23  1  0  0  0
 23 24  1  0  0  0
  9 10  2  0  0  0
 10  1  1  0  0  0
 10  4  1  0  0  0
 21 16  1  0  0  0
 24 18  1  0  0  0
  3 11  1  0  0  0
 14 15  1  0  0  0
 23 25  1  0  0  0
M  END
> <minimizedAffinity>
-6.75462

> <minimizedRMSD>
0.74271

$$$$
P20120


 30 33  0  0  0  0  0  0  0  0999 V2000
   -7.2850    4.6766  -14.2109 C   0  0  0  0  0  0  0  0  0  0  0  0
   -6.2475    4.2681  -13.7235 O   0  0  0  0  0  0  0  0  0  0  0  0
   -4.2768    5.6745  -15.1864 C   0  0  0  0  0  0  0  0  0  0  0  0
   -5.0797    5.4189  -16.4090 C   0  0  0  0  0  0  0  0  0  0  0  0
   -4.5078    5.5965  -17.6014 N   0  0  0  0  0  0  0  0  0  0  0  0
   -5.4767    5.2543  -18.4817 N   0  0  0  0  0  0  0  0  0  0  0  0
   -6.6302    4.8009  -17.9097 C   0  0  0  0  0  0  0  0  0  0  0  0
   -7.8160    4.2677  -18.4441 C   0  0  0  0  0  0  0  0  0  0  0  0
   -8.8133    3.9004  -17.5387 C   0  0  0  0  0  0  0  0  0  0  0  0
   -9.9647    3.3853  -17.9956 F   0  0  0  0  0  0  0  0  0  0  0  0
   -8.6572    4.0766  -16.1730 C   0  0  0  0  0  0  0  0  0  0  0  0
   -7.4687    4.6114  -15.6626 C   0  0  0  0  0  0  0  0  0  0  0  0
   -6.4237    4.9629  -16.5356 C   0  0  0  0  0  0  0  0  0  0  0  0
   -5.1876    5.4688  -19.8837 C   0  0  0  0  0  0  0  0  0  0  0  0
   -4.3109    6.5929  -19.9886 O   0  0  0  0  0  0  0  0  0  0  0  0
   -4.7387    7.3736  -19.6036 H   0  0  0  0  0  0  0  0  0  0  0  0
   -8.3535    5.2529  -13.3238 C   0  0  0  0  0  0  0  0  0  0  0  0
   -9.2490    5.8748  -13.8827 O   0  0  0  0  0  0  0  0  0  0  0  0
   -8.3112    5.1307  -11.8329 C   0  0  0  0  0  0  0  0  0  0  0  0
   -8.5048    3.8927  -11.1893 C   0  0  0  0  0  0  0  0  0  0  0  0
   -8.4508    3.8252   -9.8066 C   0  0  0  0  0  0  0  0  0  0  0  0
   -8.2418    4.9576   -9.0412 C   0  0  0  0  0  0  0  0  0  0  0  0
   -8.0611    6.1907   -9.6351 C   0  0  0  0  0  0  0  0  0  0  0  0
   -8.0829    6.2837  -11.0393 C   0  0  0  0  0  0  0  0  0  0  0  0
   -8.3023    4.5994   -7.5967 C   0  0  0  0  0  0  0  0  0  0  0  0
   -8.3510    3.1253   -7.5405 N   0  0  0  0  0  0  0  0  0  0  0  0
   -8.6452    2.6442   -8.9141 C   0  0  0  0  0  0  0  0  0  0  0  0
   -9.0851    2.8239   -6.8997 H   0  0  0  0  0  0  0  0  0  0  0  0
   -7.8250    7.5890  -11.5859 C   0  0  0  0  0  0  0  0  0  0  0  0
   -7.5798    8.6650  -11.9488 N   0  0  0  0  0  0  0  0  0  0  0  0
  3  4  1  0  0  0
  4  5  2  0  0  0
  5  6  1  0  0  0
  6 14  1  0  0  0
 14 15  1  0  0  0
  6  7  1  0  0  0
  7  8  2  0  0  0
  8  9  1  0  0  0
  9 10  1  0  0  0
  9 11  2  0  0  0
 11 12  1  0  0  0
 12  1  1  0  0  0
  1  2  2  0  0  0
  1 17  1  0  0  0
 17 18  2  0  0  0
 17 19  1  0  0  0
 19 20  2  0  0  0
 20 21  1  0  0  0
 21 22  2  0  0  0
 22 23  1  0  0  0
 23 24  2  0  0  0
 24 29  1  0  0  0
 29 30  3  0  0  0
 22 25  1  0  0  0
 25 26  1  0  0  0
 26 27  1  0  0  0
 12 13  2  0  0  0
 13  4  1  0  0  0
 13  7  1  0  0  0
 24 19  1  0  0  0
 27 21  1  0  0  0
 15 16  1  0  0  0
 26 28  1  0  0  0
M  END
> <minimizedAffinity>
-8.39739

> <minimizedRMSD>
1.33260

$$$$
P20121


 30 33  0  0  0  0  0  0  0  0999 V2000
   -7.2246    5.0480  -14.0276 C   0  0  0  0  0  0  0  0  0  0  0  0
   -6.7162    6.3420  -13.9280 O   0  0  0  0  0  0  0  0  0  0  0  0
   -6.2075    4.1860  -13.6182 O   0  0  0  0  0  0  0  0  0  0  0  0
   -7.2517    7.0749  -14.1606 H   0  0  0  0  0  0  0  0  0  0  0  0
   -6.3520    3.2602  -13.6125 H   0  0  0  0  0  0  0  0  0  0  0  0
   -7.4889    4.7670  -15.4924 C   0  0  0  0  0  0  0  0  0  0  0  0
   -8.7177    4.2427  -15.9552 C   0  0  0  0  0  0  0  0  0  0  0  0
   -8.9400    3.9469  -17.2969 C   0  0  0  0  0  0  0  0  0  0  0  0
  -10.1301    3.4560  -17.6633 F   0  0  0  0  0  0  0  0  0  0  0  0
   -7.9755    4.1670  -18.2697 C   0  0  0  0  0  0  0  0  0  0  0  0
   -6.7694    4.7063  -17.8281 C   0  0  0  0  0  0  0  0  0  0  0  0
   -5.6327    5.0393  -18.5150 N   0  0  0  0  0  0  0  0  0  0  0  0
   -4.6439    5.5284  -17.7407 N   0  0  0  0  0  0  0  0  0  0  0  0
   -5.1797    5.5048  -16.5157 C   0  0  0  0  0  0  0  0  0  0  0  0
   -6.5074    5.0048  -16.4949 C   0  0  0  0  0  0  0  0  0  0  0  0
   -5.5452    4.9309  -19.4896 H   0  0  0  0  0  0  0  0  0  0  0  0
   -8.3778    4.8579  -13.1743 N   0  0  0  0  0  0  0  0  0  0  0  0
   -9.2594    4.7464  -13.5981 H   0  0  0  0  0  0  0  0  0  0  0  0
   -8.1653    5.9609  -10.9260 C   0  0  0  0  0  0  0  0  0  0  0  0
   -8.1051    5.8209   -9.5230 C   0  0  0  0  0  0  0  0  0  0  0  0
   -8.2574    4.5672   -8.9631 C   0  0  0  0  0  0  0  0  0  0  0  0
   -8.4388    3.4555   -9.7638 C   0  0  0  0  0  0  0  0  0  0  0  0
   -8.4369    3.5594  -11.1479 C   0  0  0  0  0  0  0  0  0  0  0  0
   -8.3030    4.8241  -11.7675 C   0  0  0  0  0  0  0  0  0  0  0  0
   -8.6772    2.2550   -8.9093 C   0  0  0  0  0  0  0  0  0  0  0  0
   -8.6563    2.7356   -7.5040 N   0  0  0  0  0  0  0  0  0  0  0  0
   -8.3392    4.1764   -7.5285 C   0  0  0  0  0  0  0  0  0  0  0  0
   -7.9443    2.2319   -6.9750 H   0  0  0  0  0  0  0  0  0  0  0  0
   -8.2591    8.3765  -11.8792 N   0  0  0  0  0  0  0  0  0  0  0  0
   -8.2326    7.3143  -11.4078 C   0  0  0  0  0  0  0  0  0  0  0  0
 29 30  3  0  0  0
 30 19  1  0  0  0
 19 20  2  0  0  0
 20 21  1  0  0  0
 21 22  2  0  0  0
 22 23  1  0  0  0
 23 24  2  0  0  0
 24 17  1  0  0  0
 17  1  1  0  0  0
  1  2  1  0  0  0
  1  3  1  0  0  0
  1  6  1  0  0  0
  6  7  2  0  0  0
  7  8  1  0  0  0
  8  9  1  0  0  0
  8 10  2  0  0  0
 10 11  1  0  0  0
 11 12  1  0  0  0
 12 13  1  0  0  0
 13 14  2  0  0  0
 14 15  1  0  0  0
 22 25  1  0  0  0
 25 26  1  0  0  0
 26 27  1  0  0  0
 24 19  1  0  0  0
 15  6  1  0  0  0
 27 21  1  0  0  0
 15 11  2  0  0  0
 17 18  1  0  0  0
  2  4  1  0  0  0
  3  5  1  0  0  0
 12 16  1  0  0  0
 26 28  1  0  0  0
M  END
> <minimizedAffinity>
-8.08514

> <minimizedRMSD>
0.37518

$$$$
P20122


 38 42  0  0  0  0  0  0  0  0999 V2000
   -6.9329    4.8334  -14.2908 C   0  0  0  0  0  0  0  0  0  0  0  0
   -8.1430    4.5174  -14.9161 C   0  0  0  0  0  0  0  0  0  0  0  0
   -8.2049    4.4557  -16.3026 C   0  0  0  0  0  0  0  0  0  0  0  0
   -9.3785    4.1687  -16.8822 F   0  0  0  0  0  0  0  0  0  0  0  0
   -7.0953    4.7090  -17.1152 C   0  0  0  0  0  0  0  0  0  0  0  0
   -5.8809    5.0297  -16.4826 C   0  0  0  0  0  0  0  0  0  0  0  0
   -5.7919    5.0845  -15.0880 C   0  0  0  0  0  0  0  0  0  0  0  0
   -4.4544    5.4384  -14.8280 C   0  0  0  0  0  0  0  0  0  0  0  0
   -3.7322    5.5845  -15.9317 N   0  0  0  0  0  0  0  0  0  0  0  0
   -4.5985    5.3250  -16.9585 N   0  0  0  0  0  0  0  0  0  0  0  0
   -4.0942    5.4126  -18.2761 C   0  0  0  0  0  0  0  0  0  0  0  0
   -2.8924    5.4370  -18.5061 O   0  0  0  0  0  0  0  0  0  0  0  0
   -8.0054    4.4324  -12.0381 N   0  0  0  0  0  0  0  0  0  0  0  0
   -6.8240    5.0448  -12.8213 C   0  0  0  0  0  0  0  0  0  0  0  0
   -5.8969    5.6436  -12.4448 O   0  0  0  0  0  0  0  0  0  0  0  0
   -8.7104    4.0358  -12.5993 H   0  0  0  0  0  0  0  0  0  0  0  0
   -8.1973    5.4260   -9.7335 C   0  0  0  0  0  0  0  0  0  0  0  0
   -8.4256    5.1950   -8.3586 C   0  0  0  0  0  0  0  0  0  0  0  0
   -8.7409    3.9207   -7.9282 C   0  0  0  0  0  0  0  0  0  0  0  0
   -8.8091    2.8725   -8.8297 C   0  0  0  0  0  0  0  0  0  0  0  0
   -8.5589    3.0634  -10.1811 C   0  0  0  0  0  0  0  0  0  0  0  0
   -8.2383    4.3488  -10.6531 C   0  0  0  0  0  0  0  0  0  0  0  0
   -9.1856    1.6135   -8.1143 C   0  0  0  0  0  0  0  0  0  0  0  0
   -9.3550    1.9893   -6.6874 N   0  0  0  0  0  0  0  0  0  0  0  0
  -10.6409    1.5803   -6.1903 N   0  0  0  0  0  0  0  0  0  0  0  0
   -9.1074    3.4432   -6.5589 C   0  0  0  0  0  0  0  0  0  0  0  0
  -10.7462    0.5726   -6.3084 H   0  0  0  0  0  0  0  0  0  0  0  0
  -11.3749    2.0620   -6.7094 H   0  0  0  0  0  0  0  0  0  0  0  0
   -8.0506    7.9593  -10.2710 N   0  0  0  0  0  0  0  0  0  0  0  0
   -8.0760    6.8100  -10.0974 C   0  0  0  0  0  0  0  0  0  0  0  0
   -5.0981    5.5242  -19.1768 O   0  0  0  0  0  0  0  0  0  0  0  0
   -4.6976    5.3946  -20.5491 C   0  0  0  0  0  0  0  0  0  0  0  0
   -5.0231    6.6074  -21.3977 C   0  0  0  0  0  0  0  0  0  0  0  0
   -5.1105    6.4684  -22.7930 C   0  0  0  0  0  0  0  0  0  0  0  0
   -5.3829    7.5672  -23.6105 C   0  0  0  0  0  0  0  0  0  0  0  0
   -5.5509    8.8286  -23.0467 C   0  0  0  0  0  0  0  0  0  0  0  0
   -5.4384    8.9906  -21.6679 C   0  0  0  0  0  0  0  0  0  0  0  0
   -5.1705    7.8893  -20.8495 C   0  0  0  0  0  0  0  0  0  0  0  0
 29 30  3  0  0  0
 30 17  1  0  0  0
 17 18  2  0  0  0
 18 19  1  0  0  0
 19 20  2  0  0  0
 20 21  1  0  0  0
 21 22  2  0  0  0
 22 13  1  0  0  0
 13 14  1  0  0  0
 14 15  2  0  0  0
 14  1  1  0  0  0
  1  2  2  0  0  0
  2  3  1  0  0  0
  3  4  1  0  0  0
  3  5  2  0  0  0
  5  6  1  0  0  0
  6  7  2  0  0  0
  7  8  1  0  0  0
  8  9  2  0  0  0
  9 10  1  0  0  0
 10 11  1  0  0  0
 11 12  2  0  0  0
 11 31  1  0  0  0
 31 32  1  0  0  0
 32 33  1  0  0  0
 33 34  2  0  0  0
 34 35  1  0  0  0
 35 36  2  0  0  0
 36 37  1  0  0  0
 37 38  2  0  0  0
 20 23  1  0  0  0
 23 24  1  0  0  0
 24 25  1  0  0  0
 24 26  1  0  0  0
 22 17  1  0  0  0
  7  1  1  0  0  0
 38 33  1  0  0  0
 26 19  1  0  0  0
 10  6  1  0  0  0
 13 16  1  0  0  0
 25 27  1  0  0  0
 25 28  1  0  0  0
M  END
> <minimizedAffinity>
-8.87896

> <minimizedRMSD>
0.65713

$$$$
P20125


 27 30  0  0  0  0  0  0  0  0999 V2000
   -8.1928    4.1683  -13.3818 N   0  0  0  0  0  0  0  0  0  0  0  0
   -7.1795    4.7214  -14.4136 C   0  0  0  0  0  0  0  0  0  0  0  0
   -6.1962    5.3309  -14.2564 O   0  0  0  0  0  0  0  0  0  0  0  0
   -8.9109    3.6146  -13.7653 H   0  0  0  0  0  0  0  0  0  0  0  0
   -7.5920    4.4423  -15.8157 C   0  0  0  0  0  0  0  0  0  0  0  0
   -8.8764    3.9707  -16.1255 C   0  0  0  0  0  0  0  0  0  0  0  0
   -9.2705    3.8326  -17.4524 C   0  0  0  0  0  0  0  0  0  0  0  0
  -10.5052    3.3927  -17.7192 F   0  0  0  0  0  0  0  0  0  0  0  0
   -8.4362    4.1608  -18.5168 C   0  0  0  0  0  0  0  0  0  0  0  0
   -7.1623    4.6250  -18.1881 C   0  0  0  0  0  0  0  0  0  0  0  0
   -6.1162    5.0194  -18.9782 N   0  0  0  0  0  0  0  0  0  0  0  0
   -5.0253    5.4075  -18.2896 N   0  0  0  0  0  0  0  0  0  0  0  0
   -5.3990    5.2624  -17.0130 C   0  0  0  0  0  0  0  0  0  0  0  0
   -6.7194    4.7711  -16.8763 C   0  0  0  0  0  0  0  0  0  0  0  0
   -6.1575    5.0194  -19.9618 H   0  0  0  0  0  0  0  0  0  0  0  0
   -8.1623    5.5589  -11.2976 C   0  0  0  0  0  0  0  0  0  0  0  0
   -8.1777    5.5804   -9.8875 C   0  0  0  0  0  0  0  0  0  0  0  0
   -8.3287    4.3937   -9.1946 C   0  0  0  0  0  0  0  0  0  0  0  0
   -8.4747    3.1951   -9.8693 C   0  0  0  0  0  0  0  0  0  0  0  0
   -8.4399    3.1424  -11.2549 C   0  0  0  0  0  0  0  0  0  0  0  0
   -8.2542    4.3279  -11.9887 C   0  0  0  0  0  0  0  0  0  0  0  0
   -8.6717    2.0890   -8.8885 C   0  0  0  0  0  0  0  0  0  0  0  0
   -8.6112    2.7096   -7.5391 N   0  0  0  0  0  0  0  0  0  0  0  0
   -8.4179    4.1619   -7.7267 C   0  0  0  0  0  0  0  0  0  0  0  0
   -7.8305    2.3197   -7.0111 H   0  0  0  0  0  0  0  0  0  0  0  0
   -8.2637    7.8198  -12.5668 N   0  0  0  0  0  0  0  0  0  0  0  0
   -8.2158    6.8446  -11.9356 C   0  0  0  0  0  0  0  0  0  0  0  0
 26 27  3  0  0  0
 27 16  1  0  0  0
 16 17  2  0  0  0
 17 18  1  0  0  0
 18 19  2  0  0  0
 19 20  1  0  0  0
 20 21  2  0  0  0
 21  1  1  0  0  0
  1  2  1  0  0  0
  2  3  2  0  0  0
  2  5  1  0  0  0
  5  6  2  0  0  0
  6  7  1  0  0  0
  7  8  1  0  0  0
  7  9  2  0  0  0
  9 10  1  0  0  0
 10 11  1  0  0  0
 11 12  1  0  0  0
 12 13  2  0  0  0
 13 14  1  0  0  0
 19 22  1  0  0  0
 22 23  1  0  0  0
 23 24  1  0  0  0
 21 16  1  0  0  0
 14  5  1  0  0  0
 24 18  1  0  0  0
 14 10  2  0  0  0
  1  4  1  0  0  0
 11 15  1  0  0  0
 23 25  1  0  0  0
M  END
> <minimizedAffinity>
-8.84660

> <minimizedRMSD>
0.76506

$$$$
P20126


 35 38  0  0  0  0  0  0  0  0999 V2000
   -7.2117    5.5784  -12.9846 C   0  0  0  0  0  0  0  0  0  0  0  0
   -5.9390    5.1815  -12.5137 O   0  0  0  0  0  0  0  0  0  0  0  0
   -5.8321    5.4656  -11.5924 H   0  0  0  0  0  0  0  0  0  0  0  0
   -7.3198    5.0981  -14.4528 C   0  0  0  0  0  0  0  0  0  0  0  0
   -8.5243    4.5370  -14.9554 C   0  0  0  0  0  0  0  0  0  0  0  0
   -8.6669    4.1608  -16.2910 C   0  0  0  0  0  0  0  0  0  0  0  0
   -9.8193    3.6268  -16.7103 F   0  0  0  0  0  0  0  0  0  0  0  0
   -7.6543    4.3382  -17.2197 C   0  0  0  0  0  0  0  0  0  0  0  0
   -6.4741    4.8947  -16.7398 C   0  0  0  0  0  0  0  0  0  0  0  0
   -5.3059    5.1828  -17.3910 N   0  0  0  0  0  0  0  0  0  0  0  0
   -4.3615    5.7270  -16.6066 N   0  0  0  0  0  0  0  0  0  0  0  0
   -4.9554    5.7771  -15.4092 C   0  0  0  0  0  0  0  0  0  0  0  0
   -6.2797    5.2675  -15.4120 C   0  0  0  0  0  0  0  0  0  0  0  0
   -5.1696    5.0066  -18.3499 H   0  0  0  0  0  0  0  0  0  0  0  0
   -8.9040    7.5258  -12.8062 N   0  0  0  0  0  0  0  0  0  0  0  0
   -7.4013    7.1944  -13.0407 C   0  0  0  0  0  0  0  0  0  0  0  0
   -6.4854    7.9046  -13.2139 O   0  0  0  0  0  0  0  0  0  0  0  0
   -9.4973    6.7414  -12.7627 H   0  0  0  0  0  0  0  0  0  0  0  0
   -8.6876    9.9841  -13.0309 C   0  0  0  0  0  0  0  0  0  0  0  0
   -9.5725    8.8034  -12.6413 C   0  0  0  0  0  0  0  0  0  0  0  0
  -10.8897    8.8465  -13.4052 C   0  0  0  0  0  0  0  0  0  0  0  0
   -8.2162    4.8629  -12.1617 N   0  0  0  0  0  0  0  0  0  0  0  0
   -9.0053    4.5363  -12.6515 H   0  0  0  0  0  0  0  0  0  0  0  0
   -8.2064    4.5822  -10.7817 C   0  0  0  0  0  0  0  0  0  0  0  0
   -8.4863    3.2367  -10.4372 C   0  0  0  0  0  0  0  0  0  0  0  0
   -8.6744    2.8658   -9.1111 C   0  0  0  0  0  0  0  0  0  0  0  0
   -8.6904    3.8059   -8.1009 C   0  0  0  0  0  0  0  0  0  0  0  0
   -8.3941    5.1219   -8.3754 C   0  0  0  0  0  0  0  0  0  0  0  0
   -8.1031    5.5006   -9.7044 C   0  0  0  0  0  0  0  0  0  0  0  0
   -9.0146    3.1529   -6.8017 C   0  0  0  0  0  0  0  0  0  0  0  0
   -9.2473    1.7292   -7.1061 N   0  0  0  0  0  0  0  0  0  0  0  0
   -8.8457    1.5096   -8.5154 C   0  0  0  0  0  0  0  0  0  0  0  0
  -10.2346    1.5031   -6.9850 H   0  0  0  0  0  0  0  0  0  0  0  0
   -7.5782    6.8231   -9.8494 C   0  0  0  0  0  0  0  0  0  0  0  0
   -7.1823    7.9144   -9.8995 N   0  0  0  0  0  0  0  0  0  0  0  0
 19 20  1  0  0  0
 20 21  1  0  0  0
 20 15  1  0  0  0
 15 16  1  0  0  0
 16 17  2  0  0  0
 16  1  1  0  0  0
  1  2  1  0  0  0
  1 22  1  0  0  0
 22 24  1  0  0  0
 24 25  2  0  0  0
 25 26  1  0  0  0
 26 27  2  0  0  0
 27 28  1  0  0  0
 28 29  2  0  0  0
 29 34  1  0  0  0
 34 35  3  0  0  0
 27 30  1  0  0  0
 30 31  1  0  0  0
 31 32  1  0  0  0
  1  4  1  0  0  0
  4  5  2  0  0  0
  5  6  1  0  0  0
  6  7  1  0  0  0
  6  8  2  0  0  0
  8  9  1  0  0  0
  9 10  1  0  0  0
 10 11  1  0  0  0
 11 12  2  0  0  0
 12 13  1  0  0  0
 29 24  1  0  0  0
 13  4  1  0  0  0
 32 26  1  0  0  0
 13  9  2  0  0  0
 15 18  1  0  0  0
  2  3  1  0  0  0
 22 23  1  0  0  0
 31 33  1  0  0  0
 10 14  1  0  0  0
M  END
> <minimizedAffinity>
-7.35378

> <minimizedRMSD>
0.70923

$$$$
P20132


 36 39  0  0  0  0  0  0  0  0999 V2000
   -7.4357    5.7241  -13.5034 C   0  0  0  0  0  0  0  0  0  0  0  0
   -6.2250    6.4173  -13.3389 O   0  0  0  0  0  0  0  0  0  0  0  0
   -6.1872    6.7947  -12.4461 H   0  0  0  0  0  0  0  0  0  0  0  0
   -7.4554    5.1362  -14.9447 C   0  0  0  0  0  0  0  0  0  0  0  0
   -8.6215    4.4581  -15.4089 C   0  0  0  0  0  0  0  0  0  0  0  0
   -8.7713    4.0254  -16.7232 C   0  0  0  0  0  0  0  0  0  0  0  0
   -9.9116    3.4297  -17.0965 F   0  0  0  0  0  0  0  0  0  0  0  0
   -7.7782    4.2185  -17.6676 C   0  0  0  0  0  0  0  0  0  0  0  0
   -6.6113    4.8343  -17.2192 C   0  0  0  0  0  0  0  0  0  0  0  0
   -5.4552    5.1268  -17.8901 N   0  0  0  0  0  0  0  0  0  0  0  0
   -4.5308    5.7528  -17.1465 N   0  0  0  0  0  0  0  0  0  0  0  0
   -5.1150    5.8404  -15.9472 C   0  0  0  0  0  0  0  0  0  0  0  0
   -6.4213    5.2840  -15.9117 C   0  0  0  0  0  0  0  0  0  0  0  0
   -5.3139    4.8975  -18.8371 H   0  0  0  0  0  0  0  0  0  0  0  0
   -8.3559    7.9979  -12.7270 N   0  0  0  0  0  0  0  0  0  0  0  0
   -8.7703    6.6412  -13.3770 C   0  0  0  0  0  0  0  0  0  0  0  0
   -9.8035    6.2880  -13.8024 O   0  0  0  0  0  0  0  0  0  0  0  0
   -7.4366    8.0231  -12.3757 H   0  0  0  0  0  0  0  0  0  0  0  0
   -9.1023    9.2225  -12.5571 C   0  0  0  0  0  0  0  0  0  0  0  0
   -9.7476    8.5913  -10.1727 C   0  0  0  0  0  0  0  0  0  0  0  0
   -9.3558    9.7138  -11.1282 C   0  0  0  0  0  0  0  0  0  0  0  0
   -8.2008   10.5568  -10.5954 C   0  0  0  0  0  0  0  0  0  0  0  0
   -7.4074    4.6204  -12.5357 N   0  0  0  0  0  0  0  0  0  0  0  0
   -7.0960    3.7641  -12.9085 H   0  0  0  0  0  0  0  0  0  0  0  0
   -7.7436    4.5672  -11.1782 C   0  0  0  0  0  0  0  0  0  0  0  0
   -8.3578    3.3548  -10.7731 C   0  0  0  0  0  0  0  0  0  0  0  0
   -8.7004    3.1337   -9.4458 C   0  0  0  0  0  0  0  0  0  0  0  0
   -8.4518    4.0776   -8.4693 C   0  0  0  0  0  0  0  0  0  0  0  0
   -7.8051    5.2449   -8.7922 C   0  0  0  0  0  0  0  0  0  0  0  0
   -7.4218    5.4781  -10.1347 C   0  0  0  0  0  0  0  0  0  0  0  0
   -8.9356    3.5743   -7.1509 C   0  0  0  0  0  0  0  0  0  0  0  0
   -9.7830    2.4068   -7.4763 N   0  0  0  0  0  0  0  0  0  0  0  0
   -9.3082    1.9345   -8.8012 C   0  0  0  0  0  0  0  0  0  0  0  0
  -10.7644    2.6804   -7.5254 H   0  0  0  0  0  0  0  0  0  0  0  0
   -6.6040    6.6389  -10.2837 C   0  0  0  0  0  0  0  0  0  0  0  0
   -6.0030    7.6072  -10.5042 N   0  0  0  0  0  0  0  0  0  0  0  0
 20 21  1  0  0  0
 21 22  1  0  0  0
 21 19  1  0  0  0
 19 15  1  0  0  0
 15 16  1  0  0  0
 16 17  2  0  0  0
 16  1  1  0  0  0
  1  2  1  0  0  0
  1 23  1  0  0  0
 23 25  1  0  0  0
 25 26  2  0  0  0
 26 27  1  0  0  0
 27 28  2  0  0  0
 28 29  1  0  0  0
 29 30  2  0  0  0
 30 35  1  0  0  0
 35 36  3  0  0  0
 28 31  1  0  0  0
 31 32  1  0  0  0
 32 33  1  0  0  0
  1  4  1  0  0  0
  4  5  2  0  0  0
  5  6  1  0  0  0
  6  7  1  0  0  0
  6  8  2  0  0  0
  8  9  1  0  0  0
  9 10  1  0  0  0
 10 11  1  0  0  0
 11 12  2  0  0  0
 12 13  1  0  0  0
 30 25  1  0  0  0
 13  4  1  0  0  0
 33 27  1  0  0  0
 13  9  2  0  0  0
 15 18  1  0  0  0
  2  3  1  0  0  0
 23 24  1  0  0  0
 32 34  1  0  0  0
 10 14  1  0  0  0
M  END
> <minimizedAffinity>
-7.47307

> <minimizedRMSD>
0.60409

$$$$
P20138


 30 34  0  0  0  0  0  0  0  0999 V2000
   -8.3115    5.4039  -11.1427 C   0  0  0  0  0  0  0  0  0  0  0  0
   -7.5982    4.2109  -11.8589 C   0  0  0  0  0  0  0  0  0  0  0  0
   -7.8397    2.8368  -11.1652 C   0  0  0  0  0  0  0  0  0  0  0  0
   -8.7522    2.9438   -9.9468 C   0  0  0  0  0  0  0  0  0  0  0  0
   -8.7567    1.8052   -8.9128 C   0  0  0  0  0  0  0  0  0  0  0  0
   -9.0298    2.5187   -7.6458 N   0  0  0  0  0  0  0  0  0  0  0  0
   -8.6577    3.8534   -7.7887 C   0  0  0  0  0  0  0  0  0  0  0  0
   -8.4165    4.1210   -9.0772 C   0  0  0  0  0  0  0  0  0  0  0  0
   -7.8904    5.3858   -9.6564 C   0  0  0  0  0  0  0  0  0  0  0  0
   -8.2895    6.5842   -8.7854 C   0  0  0  0  0  0  0  0  0  0  0  0
   -7.6876    6.3662   -7.0576 S   0  0  0  0  0  0  0  0  0  0  0  0
   -8.4994    4.7824   -6.6275 C   0  0  0  0  0  0  0  0  0  0  0  0
   -9.4125    2.1154   -6.8333 H   0  0  0  0  0  0  0  0  0  0  0  0
   -7.8480    4.1708  -13.2966 N   0  0  0  0  0  0  0  0  0  0  0  0
   -7.0556    4.7911  -14.4715 C   0  0  0  0  0  0  0  0  0  0  0  0
   -6.1244    5.4940  -14.4673 O   0  0  0  0  0  0  0  0  0  0  0  0
   -8.6514    3.6671  -13.5615 H   0  0  0  0  0  0  0  0  0  0  0  0
   -7.6189    4.4829  -15.8308 C   0  0  0  0  0  0  0  0  0  0  0  0
   -8.9292    4.0255  -16.0545 C   0  0  0  0  0  0  0  0  0  0  0  0
   -9.3833    3.7837  -17.3508 C   0  0  0  0  0  0  0  0  0  0  0  0
  -10.6322    3.3432  -17.5365 F   0  0  0  0  0  0  0  0  0  0  0  0
   -8.5987    4.0042  -18.4760 C   0  0  0  0  0  0  0  0  0  0  0  0
   -7.3184    4.4960  -18.2467 C   0  0  0  0  0  0  0  0  0  0  0  0
   -6.3250    4.8357  -19.1239 N   0  0  0  0  0  0  0  0  0  0  0  0
   -5.2022    5.2773  -18.5350 N   0  0  0  0  0  0  0  0  0  0  0  0
   -5.4978    5.2168  -17.2311 C   0  0  0  0  0  0  0  0  0  0  0  0
   -6.8100    4.7380  -16.9731 C   0  0  0  0  0  0  0  0  0  0  0  0
   -6.4247    4.7628  -20.1006 H   0  0  0  0  0  0  0  0  0  0  0  0
   -7.8875    7.7238  -12.2960 N   0  0  0  0  0  0  0  0  0  0  0  0
   -8.0189    6.6966  -11.7712 C   0  0  0  0  0  0  0  0  0  0  0  0
 29 30  3  0  0  0
  1 30  1  0  0  0
  1  2  1  0  0  0
  2 14  1  0  0  0
 14 15  1  0  0  0
 15 16  2  0  0  0
 15 18  1  0  0  0
 18 19  2  0  0  0
 19 20  1  0  0  0
 20 21  1  0  0  0
 20 22  2  0  0  0
 22 23  1  0  0  0
 23 24  1  0  0  0
 24 25  1  0  0  0
 25 26  2  0  0  0
 26 27  1  0  0  0
  2  3  1  0  0  0
  4  3  1  0  0  0
  4  5  1  0  0  0
  5  6  1  0  0  0
  6  7  1  0  0  0
  7  8  2  0  0  0
  8  9  1  0  0  0
  9 10  1  0  0  0
 10 11  1  0  0  0
 11 12  1  0  0  0
  9  1  1  0  0  0
 27 18  1  0  0  0
  8  4  1  0  0  0
 27 23  2  0  0  0
 12  7  1  0  0  0
 14 17  1  0  0  0
 24 28  1  0  0  0
  6 13  1  0  0  0
M  END
> <minimizedAffinity>
-8.93988

> <minimizedRMSD>
1.04695

$$$$
P20141


 36 39  0  0  0  0  0  0  0  0999 V2000
   -6.8825    4.5908  -11.9498 C   0  0  0  0  0  0  0  0  0  0  0  0
   -4.3691    5.6046  -14.0707 C   0  0  0  0  0  0  0  0  0  0  0  0
   -3.6960    5.7778  -15.2191 N   0  0  0  0  0  0  0  0  0  0  0  0
   -4.5695    5.4291  -16.1624 N   0  0  0  0  0  0  0  0  0  0  0  0
   -5.8044    5.1003  -15.6855 C   0  0  0  0  0  0  0  0  0  0  0  0
   -6.9502    4.7701  -16.4041 C   0  0  0  0  0  0  0  0  0  0  0  0
   -8.0631    4.4480  -15.6600 C   0  0  0  0  0  0  0  0  0  0  0  0
   -9.1948    4.1274  -16.3030 F   0  0  0  0  0  0  0  0  0  0  0  0
   -8.0204    4.4265  -14.2675 C   0  0  0  0  0  0  0  0  0  0  0  0
   -6.8534    4.7418  -13.5014 C   0  0  0  0  0  0  0  0  0  0  0  0
   -5.7132    5.1295  -14.2855 C   0  0  0  0  0  0  0  0  0  0  0  0
   -4.3434    5.4104  -17.1205 H   0  0  0  0  0  0  0  0  0  0  0  0
   -2.3656    5.1695  -12.6243 C   0  0  0  0  0  0  0  0  0  0  0  0
   -3.6457    5.9718  -12.8178 C   0  0  0  0  0  0  0  0  0  0  0  0
   -6.0527    3.3311  -11.4644 C   0  0  0  0  0  0  0  0  0  0  0  0
   -6.3413    2.2571  -11.8181 O   0  0  0  0  0  0  0  0  0  0  0  0
   -4.9594    3.8005  -10.4742 N   0  0  0  0  0  0  0  0  0  0  0  0
   -4.8630    4.7774  -10.3995 H   0  0  0  0  0  0  0  0  0  0  0  0
   -4.0563    3.0370   -9.6408 C   0  0  0  0  0  0  0  0  0  0  0  0
   -3.5174    1.7669  -10.2980 C   0  0  0  0  0  0  0  0  0  0  0  0
   -2.9047    2.0957  -11.4713 F   0  0  0  0  0  0  0  0  0  0  0  0
   -2.5367    1.2486   -9.5082 F   0  0  0  0  0  0  0  0  0  0  0  0
   -8.2932    4.4549  -11.4473 N   0  0  0  0  0  0  0  0  0  0  0  0
   -9.0704    4.4517  -12.0516 H   0  0  0  0  0  0  0  0  0  0  0  0
   -8.4254    4.3305  -10.0257 C   0  0  0  0  0  0  0  0  0  0  0  0
   -8.8613    3.0892   -9.5108 C   0  0  0  0  0  0  0  0  0  0  0  0
   -9.0156    2.9206   -8.1523 C   0  0  0  0  0  0  0  0  0  0  0  0
   -8.7639    3.9522   -7.2663 C   0  0  0  0  0  0  0  0  0  0  0  0
   -8.3090    5.1721   -7.7211 C   0  0  0  0  0  0  0  0  0  0  0  0
   -8.1556    5.3711   -9.1094 C   0  0  0  0  0  0  0  0  0  0  0  0
   -9.1247    3.5005   -5.8902 C   0  0  0  0  0  0  0  0  0  0  0  0
   -9.8986    2.2518   -6.0865 N   0  0  0  0  0  0  0  0  0  0  0  0
   -9.4585    1.7177   -7.3970 C   0  0  0  0  0  0  0  0  0  0  0  0
  -10.8990    2.4504   -6.0999 H   0  0  0  0  0  0  0  0  0  0  0  0
   -7.8476    6.7068   -9.5126 C   0  0  0  0  0  0  0  0  0  0  0  0
   -7.5916    7.8199   -9.7223 N   0  0  0  0  0  0  0  0  0  0  0  0
 13 14  1  0  0  0
 14  2  1  0  0  0
  2  3  2  0  0  0
  3  4  1  0  0  0
  4  5  1  0  0  0
  5  6  2  0  0  0
  6  7  1  0  0  0
  7  8  1  0  0  0
  7  9  2  0  0  0
  9 10  1  0  0  0
 10  1  1  0  0  0
  1 23  1  0  0  0
 23 25  1  0  0  0
 25 26  2  0  0  0
 26 27  1  0  0  0
 27 28  2  0  0  0
 28 29  1  0  0  0
 29 30  2  0  0  0
 30 35  1  0  0  0
 35 36  3  0  0  0
 28 31  1  0  0  0
 31 32  1  0  0  0
 32 33  1  0  0  0
  1 15  1  0  0  0
 15 16  2  0  0  0
 15 17  1  0  0  0
 17 19  1  0  0  0
 19 20  1  0  0  0
 20 21  1  0  0  0
 20 22  1  0  0  0
 10 11  2  0  0  0
 11  2  1  0  0  0
 11  5  1  0  0  0
 30 25  1  0  0  0
 33 27  1  0  0  0
  4 12  1  0  0  0
 23 24  1  0  0  0
 32 34  1  0  0  0
 17 18  1  0  0  0
M  END
> <minimizedAffinity>
-6.74794

> <minimizedRMSD>
0.79126

$$$$
P20148


 28 31  0  0  0  0  0  0  0  0999 V2000
   -8.1295    4.0839  -13.1322 N   0  0  0  0  0  0  0  0  0  0  0  0
   -7.0563    4.6314  -14.1176 C   0  0  0  0  0  0  0  0  0  0  0  0
   -6.0525    5.1933  -13.9085 O   0  0  0  0  0  0  0  0  0  0  0  0
   -8.8577    3.5751  -13.5566 H   0  0  0  0  0  0  0  0  0  0  0  0
   -7.4374    4.4767  -15.5599 C   0  0  0  0  0  0  0  0  0  0  0  0
   -8.7045    4.0212  -15.9465 C   0  0  0  0  0  0  0  0  0  0  0  0
   -9.0625    3.9815  -17.3044 C   0  0  0  0  0  0  0  0  0  0  0  0
  -10.2734    3.5267  -17.6409 F   0  0  0  0  0  0  0  0  0  0  0  0
   -8.2161    4.4339  -18.3094 C   0  0  0  0  0  0  0  0  0  0  0  0
   -6.9870    4.9228  -17.9221 C   0  0  0  0  0  0  0  0  0  0  0  0
   -6.6002    4.9105  -16.5869 C   0  0  0  0  0  0  0  0  0  0  0  0
   -5.2238    5.3703  -16.6277 C   0  0  0  0  0  0  0  0  0  0  0  0
   -4.7673    5.6231  -17.8209 N   0  0  0  0  0  0  0  0  0  0  0  0
   -5.9272    5.4668  -18.7849 N   0  0  0  0  0  0  0  0  0  0  0  0
   -6.2406    6.7148  -19.2062 O   0  0  0  0  0  0  0  0  0  0  0  0
   -6.8853    5.6038  -18.6047 H   0  0  0  0  0  0  0  0  0  0  0  0
   -8.1597    5.4063  -10.9939 C   0  0  0  0  0  0  0  0  0  0  0  0
   -8.2564    5.3936   -9.5842 C   0  0  0  0  0  0  0  0  0  0  0  0
   -8.4525    4.1927   -8.9296 C   0  0  0  0  0  0  0  0  0  0  0  0
   -8.5586    3.0120   -9.6438 C   0  0  0  0  0  0  0  0  0  0  0  0
   -8.4583    2.9972  -11.0310 C   0  0  0  0  0  0  0  0  0  0  0  0
   -8.2284    4.1984  -11.7292 C   0  0  0  0  0  0  0  0  0  0  0  0
   -8.7683    1.8799   -8.6918 C   0  0  0  0  0  0  0  0  0  0  0  0
   -8.9639    2.4944   -7.3588 N   0  0  0  0  0  0  0  0  0  0  0  0
   -8.6110    3.9207   -7.4720 C   0  0  0  0  0  0  0  0  0  0  0  0
   -8.3602    2.0396   -6.6738 H   0  0  0  0  0  0  0  0  0  0  0  0
   -8.1949    7.7106  -12.1840 N   0  0  0  0  0  0  0  0  0  0  0  0
   -8.1568    6.7059  -11.6012 C   0  0  0  0  0  0  0  0  0  0  0  0
 27 28  3  0  0  0
 28 17  1  0  0  0
 17 18  2  0  0  0
 18 19  1  0  0  0
 19 20  2  0  0  0
 20 21  1  0  0  0
 21 22  2  0  0  0
 22  1  1  0  0  0
  1  2  1  0  0  0
  2  3  2  0  0  0
  2  5  1  0  0  0
  5  6  2  0  0  0
  6  7  1  0  0  0
  7  8  1  0  0  0
  7  9  2  0  0  0
  9 10  1  0  0  0
 10 11  2  0  0  0
 11 12  1  0  0  0
 12 13  2  0  0  0
 13 14  1  0  0  0
 14 15  1  0  0  0
 20 23  1  0  0  0
 23 24  1  0  0  0
 24 25  1  0  0  0
 22 17  1  0  0  0
 11  5  1  0  0  0
 25 19  1  0  0  0
 14 10  1  0  0  0
  1  4  1  0  0  0
 14 16  1  0  0  0
 24 26  1  0  0  0
M  CHG 1  14   1
M  CHG 1  15  -1
M  END
> <minimizedAffinity>
-9.22409

> <minimizedRMSD>
0.46869

$$$$
P20196


 36 40  0  0  0  0  0  0  0  0999 V2000
   -7.4362    5.1286  -14.1745 C   0  0  0  0  0  0  0  0  0  0  0  0
   -6.9870    6.1861  -13.9605 O   0  0  0  0  0  0  0  0  0  0  0  0
   -7.9583    4.0439  -13.2002 N   0  0  0  0  0  0  0  0  0  0  0  0
   -8.2197    3.1968  -13.6283 H   0  0  0  0  0  0  0  0  0  0  0  0
   -3.3565    6.0097  -18.1475 C   0  0  0  0  0  0  0  0  0  0  0  0
   -4.7019    5.5718  -17.6974 C   0  0  0  0  0  0  0  0  0  0  0  0
   -5.2122    5.4506  -16.4206 C   0  0  0  0  0  0  0  0  0  0  0  0
   -6.5548    4.9892  -16.5255 C   0  0  0  0  0  0  0  0  0  0  0  0
   -7.5842    4.7173  -15.5991 C   0  0  0  0  0  0  0  0  0  0  0  0
   -8.7989    4.2140  -16.0748 C   0  0  0  0  0  0  0  0  0  0  0  0
   -9.0119    4.0490  -17.4382 C   0  0  0  0  0  0  0  0  0  0  0  0
  -10.2057    3.6369  -17.8764 F   0  0  0  0  0  0  0  0  0  0  0  0
   -8.0390    4.3460  -18.3768 C   0  0  0  0  0  0  0  0  0  0  0  0
   -6.8152    4.8157  -17.8907 C   0  0  0  0  0  0  0  0  0  0  0  0
   -5.7081    5.2505  -18.5670 N   0  0  0  0  0  0  0  0  0  0  0  0
   -5.6384    5.4570  -19.9408 N   0  0  0  0  0  0  0  0  0  0  0  0
   -6.5046    5.1402  -20.3766 H   0  0  0  0  0  0  0  0  0  0  0  0
   -4.8529    4.9314  -20.3242 H   0  0  0  0  0  0  0  0  0  0  0  0
   -8.1186    4.0720  -11.8130 C   0  0  0  0  0  0  0  0  0  0  0  0
   -8.3872    2.8842  -11.1338 C   0  0  0  0  0  0  0  0  0  0  0  0
   -8.5723    2.9338   -9.7602 C   0  0  0  0  0  0  0  0  0  0  0  0
   -8.4939    4.1349   -9.0501 C   0  0  0  0  0  0  0  0  0  0  0  0
   -8.2201    5.3337   -9.7010 C   0  0  0  0  0  0  0  0  0  0  0  0
   -8.0277    5.2766  -11.0979 C   0  0  0  0  0  0  0  0  0  0  0  0
   -8.7432    3.8325   -7.6072 C   0  0  0  0  0  0  0  0  0  0  0  0
   -9.3154    2.4699   -7.5645 N   0  0  0  0  0  0  0  0  0  0  0  0
   -8.8603    1.8114   -8.8147 C   0  0  0  0  0  0  0  0  0  0  0  0
  -10.3341    2.5115   -7.5337 H   0  0  0  0  0  0  0  0  0  0  0  0
   -8.1303    6.6471   -9.0243 C   0  0  0  0  0  0  0  0  0  0  0  0
   -8.8083    7.6908   -9.5436 C   0  0  0  0  0  0  0  0  0  0  0  0
   -8.8183    9.1217   -9.0811 C   0  0  0  0  0  0  0  0  0  0  0  0
   -7.7283    9.4171   -7.7011 S   0  0  0  0  0  0  0  0  0  0  0  0
   -8.3558   10.3775   -6.8092 O   0  0  0  0  0  0  0  0  0  0  0  0
   -6.3899    9.6750   -8.2046 O   0  0  0  0  0  0  0  0  0  0  0  0
   -7.6967    7.8556   -6.8613 C   0  0  0  0  0  0  0  0  0  0  0  0
   -7.2539    6.7522   -7.8038 C   0  0  0  0  0  0  0  0  0  0  0  0
  5  6  1  0  0  0
  6  7  2  0  0  0
  7  8  1  0  0  0
  8  9  2  0  0  0
  9  1  1  0  0  0
  1  2  2  0  0  0
  1  3  1  0  0  0
  3 19  1  0  0  0
 19 20  2  0  0  0
 20 21  1  0  0  0
 21 22  2  0  0  0
 22 23  1  0  0  0
 23 29  1  0  0  0
 29 30  2  0  0  0
 30 31  1  0  0  0
 31 32  1  0  0  0
 32 33  2  0  0  0
 32 34  2  0  0  0
 32 35  1  0  0  0
 35 36  1  0  0  0
 23 24  2  0  0  0
 22 25  1  0  0  0
 25 26  1  0  0  0
 26 27  1  0  0  0
  9 10  1  0  0  0
 10 11  2  0  0  0
 11 12  1  0  0  0
 11 13  1  0  0  0
 13 14  2  0  0  0
 14 15  1  0  0  0
 15 16  1  0  0  0
 15  6  1  0  0  0
 14  8  1  0  0  0
 24 19  1  0  0  0
 27 21  1  0  0  0
 36 29  1  0  0  0
  3  4  1  0  0  0
 26 28  1  0  0  0
 16 17  1  0  0  0
 16 18  1  0  0  0
M  END
> <minimizedAffinity>
-10.14211

> <minimizedRMSD>
0.26043

$$$$
P20236


 36 40  0  0  0  0  0  0  0  0999 V2000
   -7.4412    3.5167  -13.9886 C   0  0  0  0  0  0  0  0  0  0  0  0
   -7.1922    2.3838  -13.8643 O   0  0  0  0  0  0  0  0  0  0  0  0
   -7.7760    4.5891  -12.9310 N   0  0  0  0  0  0  0  0  0  0  0  0
   -7.8744    5.5019  -13.2865 H   0  0  0  0  0  0  0  0  0  0  0  0
   -5.4424    5.0488  -17.9986 N   0  0  0  0  0  0  0  0  0  0  0  0
   -4.4381    4.8990  -17.1019 N   0  0  0  0  0  0  0  0  0  0  0  0
   -5.0579    4.4686  -15.9998 C   0  0  0  0  0  0  0  0  0  0  0  0
   -6.4612    4.4216  -16.1425 C   0  0  0  0  0  0  0  0  0  0  0  0
   -7.5692    4.0703  -15.3515 C   0  0  0  0  0  0  0  0  0  0  0  0
   -8.8621    4.2136  -15.8688 C   0  0  0  0  0  0  0  0  0  0  0  0
   -9.0538    4.6044  -17.1803 C   0  0  0  0  0  0  0  0  0  0  0  0
  -10.3037    4.6895  -17.6567 F   0  0  0  0  0  0  0  0  0  0  0  0
   -7.9779    4.8945  -18.0133 C   0  0  0  0  0  0  0  0  0  0  0  0
   -6.6894    4.8197  -17.4618 C   0  0  0  0  0  0  0  0  0  0  0  0
   -5.1475    5.4385  -19.3812 C   0  0  0  0  0  0  0  0  0  0  0  0
   -4.5197    7.7801  -19.3830 C   0  0  0  0  0  0  0  0  0  0  0  0
   -5.5964    6.8261  -19.6117 N   0  0  0  0  0  0  0  0  0  0  0  0
   -5.9185    6.9146  -20.5754 H   0  0  0  0  0  0  0  0  0  0  0  0
   -7.9613    4.4761  -11.5568 C   0  0  0  0  0  0  0  0  0  0  0  0
   -8.4361    3.2904  -10.9963 C   0  0  0  0  0  0  0  0  0  0  0  0
   -8.6992    3.2752   -9.6389 C   0  0  0  0  0  0  0  0  0  0  0  0
   -8.4279    4.3789   -8.8235 C   0  0  0  0  0  0  0  0  0  0  0  0
   -7.8989    5.5439   -9.3567 C   0  0  0  0  0  0  0  0  0  0  0  0
   -7.7108    5.5969  -10.7485 C   0  0  0  0  0  0  0  0  0  0  0  0
   -8.8093    4.0246   -7.4185 C   0  0  0  0  0  0  0  0  0  0  0  0
   -9.7255    2.8827   -7.5834 N   0  0  0  0  0  0  0  0  0  0  0  0
   -9.7825    2.0033   -6.4397 C   0  0  0  0  0  0  0  0  0  0  0  0
   -9.2927    2.1785   -8.8120 C   0  0  0  0  0  0  0  0  0  0  0  0
   -7.5031    6.6950   -8.5315 C   0  0  0  0  0  0  0  0  0  0  0  0
   -8.2855    7.7890   -8.5057 C   0  0  0  0  0  0  0  0  0  0  0  0
   -8.0048    9.0876   -7.8018 C   0  0  0  0  0  0  0  0  0  0  0  0
   -6.3059    9.2072   -7.2715 S   0  0  0  0  0  0  0  0  0  0  0  0
   -5.4600    9.4673   -8.4225 O   0  0  0  0  0  0  0  0  0  0  0  0
   -6.2525   10.0839   -6.1147 O   0  0  0  0  0  0  0  0  0  0  0  0
   -5.9774    7.5611   -6.7006 C   0  0  0  0  0  0  0  0  0  0  0  0
   -6.1841    6.5515   -7.8137 C   0  0  0  0  0  0  0  0  0  0  0  0
 16 17  1  0  0  0
 17 15  1  0  0  0
 15  5  1  0  0  0
  5  6  1  0  0  0
  6  7  2  0  0  0
  7  8  1  0  0  0
  8  9  2  0  0  0
  9  1  1  0  0  0
  1  2  2  0  0  0
  1  3  1  0  0  0
  3 19  1  0  0  0
 19 20  2  0  0  0
 20 21  1  0  0  0
 21 22  2  0  0  0
 22 23  1  0  0  0
 23 29  1  0  0  0
 29 30  2  0  0  0
 30 31  1  0  0  0
 31 32  1  0  0  0
 32 33  2  0  0  0
 32 34  2  0  0  0
 32 35  1  0  0  0
 35 36  1  0  0  0
 23 24  2  0  0  0
 22 25  1  0  0  0
 25 26  1  0  0  0
 26 27  1  0  0  0
 26 28  1  0  0  0
  9 10  1  0  0  0
 10 11  2  0  0  0
 11 12  1  0  0  0
 11 13  1  0  0  0
 13 14  2  0  0  0
 14  5  1  0  0  0
 14  8  1  0  0  0
 24 19  1  0  0  0
 28 21  1  0  0  0
 36 29  1  0  0  0
 17 18  1  0  0  0
  3  4  1  0  0  0
M  END
> <minimizedAffinity>
-8.24062

> <minimizedRMSD>
0.85925

$$$$
P20241


 37 42  0  0  0  0  0  0  0  0999 V2000
   -7.4718    3.1503  -14.2462 O   0  0  0  0  0  0  0  0  0  0  0  0
   -7.8889    4.2416  -14.1920 C   0  0  0  0  0  0  0  0  0  0  0  0
   -8.2240    5.1347  -12.9579 N   0  0  0  0  0  0  0  0  0  0  0  0
   -8.4936    6.0560  -13.1765 H   0  0  0  0  0  0  0  0  0  0  0  0
   -8.3238    5.0433  -15.4503 C   0  0  0  0  0  0  0  0  0  0  0  0
   -9.1618    4.1140  -16.3643 C   0  0  0  0  0  0  0  0  0  0  0  0
   -8.9818    4.2283  -17.8745 C   0  0  0  0  0  0  0  0  0  0  0  0
   -9.8319    5.1944  -18.3139 F   0  0  0  0  0  0  0  0  0  0  0  0
   -7.5816    4.5629  -18.3772 C   0  0  0  0  0  0  0  0  0  0  0  0
   -6.5816    4.7146  -17.2328 C   0  0  0  0  0  0  0  0  0  0  0  0
   -7.1702    5.6772  -16.2184 C   0  0  0  0  0  0  0  0  0  0  0  0
   -5.9446    6.1953  -15.5064 C   0  0  0  0  0  0  0  0  0  0  0  0
   -4.9418    6.2923  -16.5873 N   0  0  0  0  0  0  0  0  0  0  0  0
   -5.1262    7.5095  -17.3465 N   0  0  0  0  0  0  0  0  0  0  0  0
   -5.3770    7.1339  -18.7234 N   0  0  0  0  0  0  0  0  0  0  0  0
   -4.9664    5.7383  -18.8115 C   0  0  0  0  0  0  0  0  0  0  0  0
   -5.2023    5.1753  -17.4931 N   0  0  0  0  0  0  0  0  0  0  0  0
   -4.2858    8.0849  -17.2906 H   0  0  0  0  0  0  0  0  0  0  0  0
   -4.8260    7.7110  -19.3589 H   0  0  0  0  0  0  0  0  0  0  0  0
   -8.2037    4.8397  -11.5948 C   0  0  0  0  0  0  0  0  0  0  0  0
   -8.4273    3.5446  -11.1292 C   0  0  0  0  0  0  0  0  0  0  0  0
   -8.6023    3.3672   -9.7646 C   0  0  0  0  0  0  0  0  0  0  0  0
   -8.4794    4.4278   -8.8603 C   0  0  0  0  0  0  0  0  0  0  0  0
   -8.1666    5.7141   -9.2931 C   0  0  0  0  0  0  0  0  0  0  0  0
   -8.0679    5.9040  -10.6875 C   0  0  0  0  0  0  0  0  0  0  0  0
   -8.7653    3.8970   -7.4898 C   0  0  0  0  0  0  0  0  0  0  0  0
   -9.3960    2.5758   -7.6822 N   0  0  0  0  0  0  0  0  0  0  0  0
   -8.9596    2.1167   -9.0245 C   0  0  0  0  0  0  0  0  0  0  0  0
  -10.4121    2.6577   -7.6469 H   0  0  0  0  0  0  0  0  0  0  0  0
   -7.8989    6.8507   -8.3746 C   0  0  0  0  0  0  0  0  0  0  0  0
   -8.3115    8.0935   -8.7004 C   0  0  0  0  0  0  0  0  0  0  0  0
   -8.0848    9.3682   -7.9339 C   0  0  0  0  0  0  0  0  0  0  0  0
   -7.5776    9.0534   -6.2562 S   0  0  0  0  0  0  0  0  0  0  0  0
   -8.7010    8.5498   -5.4855 O   0  0  0  0  0  0  0  0  0  0  0  0
   -6.8238   10.2029   -5.7869 O   0  0  0  0  0  0  0  0  0  0  0  0
   -6.4261    7.7263   -6.4868 C   0  0  0  0  0  0  0  0  0  0  0  0
   -7.1187    6.5320   -7.1168 C   0  0  0  0  0  0  0  0  0  0  0  0
  1  2  2  0  0  0
  2  3  1  0  0  0
  3 20  1  0  0  0
 20 21  2  0  0  0
 21 22  1  0  0  0
 22 23  2  0  0  0
 23 24  1  0  0  0
 24 30  1  0  0  0
 30 31  2  0  0  0
 31 32  1  0  0  0
 32 33  1  0  0  0
 33 34  2  0  0  0
 33 35  2  0  0  0
 33 36  1  0  0  0
 36 37  1  0  0  0
 24 25  2  0  0  0
 23 26  1  0  0  0
 26 27  1  0  0  0
 27 28  1  0  0  0
  5  2  1  0  0  0
  5  6  1  0  0  0
  6  7  1  0  0  0
  7  8  1  0  0  0
  7  9  1  0  0  0
 10  9  1  0  0  0
 10 11  1  0  0  0
 11 12  1  0  0  0
 12 13  1  0  0  0
 13 14  1  0  0  0
 14 15  1  0  0  0
 15 16  1  0  0  0
 16 17  1  0  0  0
 25 20  1  0  0  0
 11  5  1  0  0  0
 17 13  1  0  0  0
 28 22  1  0  0  0
 17 10  1  0  0  0
 37 30  1  0  0  0
  3  4  1  0  0  0
 27 29  1  0  0  0
 14 18  1  0  0  0
 15 19  1  0  0  0
M  END
> <minimizedAffinity>
-8.25814

> <minimizedRMSD>
0.41553

$$$$
P20243


 45 50  0  0  0  0  0  0  0  0999 V2000
   -5.1665    5.2234  -17.5688 N   0  0  0  0  0  0  0  0  0  0  0  0
   -6.4580    4.9187  -17.1309 C   0  0  0  0  0  0  0  0  0  0  0  0
   -7.6519    4.9553  -17.8312 C   0  0  0  0  0  0  0  0  0  0  0  0
   -8.8215    4.5920  -17.1762 C   0  0  0  0  0  0  0  0  0  0  0  0
   -9.9864    4.6233  -17.8377 F   0  0  0  0  0  0  0  0  0  0  0  0
   -8.8060    4.1738  -15.8510 C   0  0  0  0  0  0  0  0  0  0  0  0
   -7.6007    4.0654  -15.1679 C   0  0  0  0  0  0  0  0  0  0  0  0
   -6.4483    4.4864  -15.7994 C   0  0  0  0  0  0  0  0  0  0  0  0
   -5.0401    4.4744  -15.3116 C   0  0  0  0  0  0  0  0  0  0  0  0
   -4.3776    5.4658  -16.3428 C   0  0  0  0  0  0  0  0  0  0  0  0
   -2.8933    5.0578  -16.4538 C   0  0  0  0  0  0  0  0  0  0  0  0
   -1.9613    6.2566  -16.6442 C   0  0  0  0  0  0  0  0  0  0  0  0
   -2.6827    7.4717  -17.2196 C   0  0  0  0  0  0  0  0  0  0  0  0
   -3.8445    7.8778  -16.4279 N   0  0  0  0  0  0  0  0  0  0  0  0
   -4.4413    6.7920  -15.6694 N   0  0  0  0  0  0  0  0  0  0  0  0
   -4.5500    8.2546  -17.0609 H   0  0  0  0  0  0  0  0  0  0  0  0
   -5.4218    7.0193  -15.5039 H   0  0  0  0  0  0  0  0  0  0  0  0
   -7.5655    3.4470  -13.8256 C   0  0  0  0  0  0  0  0  0  0  0  0
   -7.3620    2.3041  -13.7184 O   0  0  0  0  0  0  0  0  0  0  0  0
   -7.8552    4.5158  -12.7522 N   0  0  0  0  0  0  0  0  0  0  0  0
   -7.9178    5.4369  -13.0942 H   0  0  0  0  0  0  0  0  0  0  0  0
   -8.0423    4.3905  -11.3808 C   0  0  0  0  0  0  0  0  0  0  0  0
   -8.5319    3.2122  -10.8196 C   0  0  0  0  0  0  0  0  0  0  0  0
   -8.7449    3.1796   -9.4505 C   0  0  0  0  0  0  0  0  0  0  0  0
   -8.4256    4.2627   -8.6357 C   0  0  0  0  0  0  0  0  0  0  0  0
   -7.9019    5.4299   -9.1755 C   0  0  0  0  0  0  0  0  0  0  0  0
   -7.7477    5.4963  -10.5689 C   0  0  0  0  0  0  0  0  0  0  0  0
   -8.7728    3.9254   -7.2262 C   0  0  0  0  0  0  0  0  0  0  0  0
   -9.2072    2.5121   -7.2135 N   0  0  0  0  0  0  0  0  0  0  0  0
   -9.3502    2.0898   -8.6340 C   0  0  0  0  0  0  0  0  0  0  0  0
  -10.1010    2.4243   -6.7300 H   0  0  0  0  0  0  0  0  0  0  0  0
   -7.4683    6.5700   -8.3538 C   0  0  0  0  0  0  0  0  0  0  0  0
   -8.2492    7.6622   -8.2773 C   0  0  0  0  0  0  0  0  0  0  0  0
   -7.9415    8.9503   -7.5655 C   0  0  0  0  0  0  0  0  0  0  0  0
   -6.2225    9.0656   -7.1030 S   0  0  0  0  0  0  0  0  0  0  0  0
   -5.4259    9.3555   -8.2817 O   0  0  0  0  0  0  0  0  0  0  0  0
   -6.1248    9.9160   -5.9294 O   0  0  0  0  0  0  0  0  0  0  0  0
   -5.8621    7.4093   -6.5827 C   0  0  0  0  0  0  0  0  0  0  0  0
   -6.1139    6.4225   -7.7066 C   0  0  0  0  0  0  0  0  0  0  0  0
   -1.7574    8.5471  -17.2848 O   0  0  0  0  0  0  0  0  0  0  0  0
   -2.3281    9.7201  -17.8497 C   0  0  0  0  0  0  0  0  0  0  0  0
   -4.9066    5.6524  -18.9228 C   0  0  0  0  0  0  0  0  0  0  0  0
   -2.8778    5.5778  -20.2171 C   0  0  0  0  0  0  0  0  0  0  0  0
   -4.0570    4.8388  -19.7906 N   0  0  0  0  0  0  0  0  0  0  0  0
   -3.7614    4.0062  -19.2808 H   0  0  0  0  0  0  0  0  0  0  0  0
 43 44  1  0  0  0
 44 42  1  0  0  0
 42  1  1  0  0  0
  1  2  1  0  0  0
  2  3  2  0  0  0
  3  4  1  0  0  0
  4  5  1  0  0  0
  4  6  2  0  0  0
  6  7  1  0  0  0
  7 18  1  0  0  0
 18 19  2  0  0  0
 18 20  1  0  0  0
 20 22  1  0  0  0
 22 23  2  0  0  0
 23 24  1  0  0  0
 24 25  2  0  0  0
 25 26  1  0  0  0
 26 32  1  0  0  0
 32 33  2  0  0  0
 33 34  1  0  0  0
 34 35  1  0  0  0
 35 36  2  0  0  0
 35 37  2  0  0  0
 35 38  1  0  0  0
 38 39  1  0  0  0
 26 27  2  0  0  0
 25 28  1  0  0  0
 28 29  1  0  0  0
 29 30  1  0  0  0
  7  8  2  0  0  0
  8  9  1  0  0  0
 10  9  1  0  0  0
 10 11  1  0  0  0
 11 12  1  0  0  0
 12 13  1  0  0  0
 13 40  1  0  0  0
 40 41  1  0  0  0
 13 14  1  0  0  0
 14 15  1  0  0  0
 10  1  1  0  0  0
  8  2  1  0  0  0
 15 10  1  0  0  0
 27 22  1  0  0  0
 30 24  1  0  0  0
 39 32  1  0  0  0
 44 45  1  0  0  0
 20 21  1  0  0  0
 29 31  1  0  0  0
 14 16  1  0  0  0
 15 17  1  0  0  0
M  END
> <minimizedAffinity>
-8.35903

> <minimizedRMSD>
0.72792

$$$$
P20244


 37 41  0  0  0  0  0  0  0  0999 V2000
   -8.8859    5.2773  -14.1411 C   0  0  0  0  0  0  0  0  0  0  0  0
   -9.5059    6.2514  -13.9656 O   0  0  0  0  0  0  0  0  0  0  0  0
   -8.3339    4.2467  -13.1320 N   0  0  0  0  0  0  0  0  0  0  0  0
   -7.9029    3.4610  -13.5396 H   0  0  0  0  0  0  0  0  0  0  0  0
   -6.1173    6.3533  -17.7238 N   0  0  0  0  0  0  0  0  0  0  0  0
   -5.6075    6.9076  -16.6136 N   0  0  0  0  0  0  0  0  0  0  0  0
   -6.3970    6.4576  -15.6387 C   0  0  0  0  0  0  0  0  0  0  0  0
   -7.4226    5.6093  -16.1124 C   0  0  0  0  0  0  0  0  0  0  0  0
   -8.5426    4.9570  -15.5513 C   0  0  0  0  0  0  0  0  0  0  0  0
   -9.3646    4.1826  -16.3817 C   0  0  0  0  0  0  0  0  0  0  0  0
   -9.0854    4.0896  -17.7438 C   0  0  0  0  0  0  0  0  0  0  0  0
   -9.9141    3.3871  -18.5319 F   0  0  0  0  0  0  0  0  0  0  0  0
   -8.0028    4.7509  -18.3266 C   0  0  0  0  0  0  0  0  0  0  0  0
   -7.1874    5.5177  -17.4809 C   0  0  0  0  0  0  0  0  0  0  0  0
   -5.7301    6.8011  -19.0067 N   0  0  0  0  0  0  0  0  0  0  0  0
   -6.3575    6.3951  -19.7009 H   0  0  0  0  0  0  0  0  0  0  0  0
   -4.0452    6.8940  -20.7503 C   0  0  0  0  0  0  0  0  0  0  0  0
   -4.3521    6.4139  -19.3288 C   0  0  0  0  0  0  0  0  0  0  0  0
   -4.1374    4.9064  -19.2426 C   0  0  0  0  0  0  0  0  0  0  0  0
   -8.3466    4.2479  -11.7369 C   0  0  0  0  0  0  0  0  0  0  0  0
   -8.5978    3.0670  -11.0485 C   0  0  0  0  0  0  0  0  0  0  0  0
   -8.6712    3.1269   -9.6658 C   0  0  0  0  0  0  0  0  0  0  0  0
   -8.4889    4.3218   -8.9610 C   0  0  0  0  0  0  0  0  0  0  0  0
   -8.1871    5.5065   -9.6206 C   0  0  0  0  0  0  0  0  0  0  0  0
   -8.1237    5.4435  -11.0267 C   0  0  0  0  0  0  0  0  0  0  0  0
   -8.7057    4.0395   -7.5072 C   0  0  0  0  0  0  0  0  0  0  0  0
   -9.3210    2.6966   -7.4387 N   0  0  0  0  0  0  0  0  0  0  0  0
   -8.9330    2.0208   -8.6981 C   0  0  0  0  0  0  0  0  0  0  0  0
  -10.3361    2.7723   -7.3725 H   0  0  0  0  0  0  0  0  0  0  0  0
   -7.9143    6.7884   -8.9264 C   0  0  0  0  0  0  0  0  0  0  0  0
   -8.5782    7.9019   -9.3005 C   0  0  0  0  0  0  0  0  0  0  0  0
   -8.4200    9.2937   -8.7535 C   0  0  0  0  0  0  0  0  0  0  0  0
   -7.5475    9.2973   -7.2000 S   0  0  0  0  0  0  0  0  0  0  0  0
   -8.3973    8.7596   -6.1513 O   0  0  0  0  0  0  0  0  0  0  0  0
   -6.9119   10.5928   -7.0347 O   0  0  0  0  0  0  0  0  0  0  0  0
   -6.2625    8.1195   -7.5217 C   0  0  0  0  0  0  0  0  0  0  0  0
   -6.8615    6.7620   -7.8414 C   0  0  0  0  0  0  0  0  0  0  0  0
 17 18  1  0  0  0
 18 19  1  0  0  0
 18 15  1  0  0  0
 15  5  1  0  0  0
  5  6  1  0  0  0
  6  7  2  0  0  0
  7  8  1  0  0  0
  8  9  2  0  0  0
  9  1  1  0  0  0
  1  2  2  0  0  0
  1  3  1  0  0  0
  3 20  1  0  0  0
 20 21  2  0  0  0
 21 22  1  0  0  0
 22 23  2  0  0  0
 23 24  1  0  0  0
 24 30  1  0  0  0
 30 31  2  0  0  0
 31 32  1  0  0  0
 32 33  1  0  0  0
 33 34  2  0  0  0
 33 35  2  0  0  0
 33 36  1  0  0  0
 36 37  1  0  0  0
 24 25  2  0  0  0
 23 26  1  0  0  0
 26 27  1  0  0  0
 27 28  1  0  0  0
  9 10  1  0  0  0
 10 11  2  0  0  0
 11 12  1  0  0  0
 11 13  1  0  0  0
 13 14  2  0  0  0
 14  5  1  0  0  0
 14  8  1  0  0  0
 25 20  1  0  0  0
 28 22  1  0  0  0
 37 30  1  0  0  0
 15 16  1  0  0  0
  3  4  1  0  0  0
 27 29  1  0  0  0
M  END
> <minimizedAffinity>
-8.46431

> <minimizedRMSD>
0.84557

$$$$
P20245


 37 42  0  0  0  0  0  0  0  0999 V2000
   -8.2850    4.2749  -11.6418 C   0  0  0  0  0  0  0  0  0  0  0  0
   -8.6112    3.1005  -10.9919 C   0  0  0  0  0  0  0  0  0  0  0  0
   -8.7407    3.1481   -9.6163 C   0  0  0  0  0  0  0  0  0  0  0  0
   -8.5383    4.3239   -8.8711 C   0  0  0  0  0  0  0  0  0  0  0  0
   -8.2010    5.5396   -9.4891 C   0  0  0  0  0  0  0  0  0  0  0  0
   -8.1115    5.4630  -10.9051 C   0  0  0  0  0  0  0  0  0  0  0  0
   -8.7628    3.9631   -7.4337 C   0  0  0  0  0  0  0  0  0  0  0  0
   -9.1774    2.5474   -7.3632 N   0  0  0  0  0  0  0  0  0  0  0  0
   -9.1001    2.0045   -8.7311 C   0  0  0  0  0  0  0  0  0  0  0  0
  -10.1331    2.4797   -7.0135 H   0  0  0  0  0  0  0  0  0  0  0  0
   -7.9270    6.8745   -8.7994 C   0  0  0  0  0  0  0  0  0  0  0  0
   -8.0736    7.0596   -7.4650 C   0  0  0  0  0  0  0  0  0  0  0  0
   -7.9021    8.2826   -6.6059 C   0  0  0  0  0  0  0  0  0  0  0  0
   -7.6909    9.6917   -7.6324 S   0  0  0  0  0  0  0  0  0  0  0  0
   -6.7901   10.7682   -6.8517 O   0  0  0  0  0  0  0  0  0  0  0  0
   -9.1120   10.3412   -8.0059 O   0  0  0  0  0  0  0  0  0  0  0  0
   -6.8605    9.2723   -9.1155 C   0  0  0  0  0  0  0  0  0  0  0  0
   -7.4815    8.0226   -9.7251 C   0  0  0  0  0  0  0  0  0  0  0  0
   -7.2295   11.0179   -6.0238 H   0  0  0  0  0  0  0  0  0  0  0  0
   -9.5830   10.5784   -7.1918 H   0  0  0  0  0  0  0  0  0  0  0  0
   -5.9209    5.2926  -13.5867 O   0  0  0  0  0  0  0  0  0  0  0  0
   -6.9047    4.7380  -13.8930 C   0  0  0  0  0  0  0  0  0  0  0  0
   -8.1046    4.2563  -13.0231 N   0  0  0  0  0  0  0  0  0  0  0  0
   -8.8573    3.8775  -13.5322 H   0  0  0  0  0  0  0  0  0  0  0  0
   -7.2045    4.3210  -15.3506 C   0  0  0  0  0  0  0  0  0  0  0  0
   -8.6742    4.5956  -15.6728 C   0  0  0  0  0  0  0  0  0  0  0  0
   -9.0416    4.3809  -17.1387 C   0  0  0  0  0  0  0  0  0  0  0  0
   -9.8115    5.4286  -17.5371 F   0  0  0  0  0  0  0  0  0  0  0  0
   -7.8553    4.2558  -18.0847 C   0  0  0  0  0  0  0  0  0  0  0  0
   -6.7502    5.2440  -17.7567 C   0  0  0  0  0  0  0  0  0  0  0  0
   -5.5023    5.0544  -18.6523 C   0  0  0  0  0  0  0  0  0  0  0  0
   -5.1947    6.2658  -19.5094 C   0  0  0  0  0  0  0  0  0  0  0  0
   -4.5876    7.2208  -18.6265 O   0  0  0  0  0  0  0  0  0  0  0  0
   -3.8562    6.4833  -17.6340 C   0  0  0  0  0  0  0  0  0  0  0  0
   -4.3172    5.0281  -17.6985 C   0  0  0  0  0  0  0  0  0  0  0  0
   -4.8761    4.4748  -16.3972 C   0  0  0  0  0  0  0  0  0  0  0  0
   -6.2703    5.0971  -16.3025 C   0  0  0  0  0  0  0  0  0  0  0  0
 21 22  2  0  0  0
 22 23  1  0  0  0
 23  1  1  0  0  0
  1  2  2  0  0  0
  2  3  1  0  0  0
  3  4  2  0  0  0
  4  5  1  0  0  0
  5 11  1  0  0  0
 11 12  2  0  0  0
 12 13  1  0  0  0
 13 14  1  0  0  0
 14 15  1  0  0  0
 14 16  1  0  0  0
 14 17  1  0  0  0
 17 18  1  0  0  0
  5  6  2  0  0  0
  4  7  1  0  0  0
  7  8  1  0  0  0
  8  9  1  0  0  0
 25 22  1  0  0  0
 25 26  1  0  0  0
 26 27  1  0  0  0
 27 28  1  0  0  0
 27 29  1  0  0  0
 30 29  1  0  0  0
 30 31  1  0  0  0
 31 32  1  0  0  0
 32 33  1  0  0  0
 33 34  1  0  0  0
 35 34  1  0  0  0
 35 36  1  0  0  0
 37 36  1  0  0  0
  6  1  1  0  0  0
 37 25  1  0  0  0
  9  3  1  0  0  0
 37 30  1  0  0  0
 18 11  1  0  0  0
 35 31  1  0  0  0
 23 24  1  0  0  0
 15 19  1  0  0  0
 16 20  1  0  0  0
  8 10  1  0  0  0
M  END
> <minimizedAffinity>
-8.68666

> <minimizedRMSD>
0.73312

$$$$
P20246


 38 42  0  0  0  0  0  0  0  0999 V2000
   -7.7830    4.9199  -12.2941 N   0  0  0  0  0  0  0  0  0  0  0  0
   -7.5195    5.8416  -12.5181 H   0  0  0  0  0  0  0  0  0  0  0  0
   -8.0937    4.6098  -10.9682 C   0  0  0  0  0  0  0  0  0  0  0  0
   -8.5670    3.3682  -10.5245 C   0  0  0  0  0  0  0  0  0  0  0  0
   -8.7817    3.1667   -9.1679 C   0  0  0  0  0  0  0  0  0  0  0  0
   -8.4981    4.1523   -8.2267 C   0  0  0  0  0  0  0  0  0  0  0  0
   -7.9475    5.3620   -8.6174 C   0  0  0  0  0  0  0  0  0  0  0  0
   -7.7768    5.5831   -9.9961 C   0  0  0  0  0  0  0  0  0  0  0  0
   -8.8572    3.6309   -6.8738 C   0  0  0  0  0  0  0  0  0  0  0  0
   -9.6370    2.3955   -7.1050 N   0  0  0  0  0  0  0  0  0  0  0  0
   -9.2676    1.9384   -8.4693 C   0  0  0  0  0  0  0  0  0  0  0  0
  -10.6368    2.5908   -7.0536 H   0  0  0  0  0  0  0  0  0  0  0  0
   -7.4739    6.3783   -7.6624 C   0  0  0  0  0  0  0  0  0  0  0  0
   -8.2324    7.4632   -7.4235 C   0  0  0  0  0  0  0  0  0  0  0  0
   -7.8963    8.6401   -6.5512 C   0  0  0  0  0  0  0  0  0  0  0  0
   -6.1896    8.6418   -6.0339 S   0  0  0  0  0  0  0  0  0  0  0  0
   -6.1151    9.2784   -4.7301 O   0  0  0  0  0  0  0  0  0  0  0  0
   -5.3583    9.1183   -7.1243 O   0  0  0  0  0  0  0  0  0  0  0  0
   -5.8559    6.9172   -5.7940 C   0  0  0  0  0  0  0  0  0  0  0  0
   -6.1088    6.1353   -7.0680 C   0  0  0  0  0  0  0  0  0  0  0  0
   -7.8358    3.9292  -13.3514 C   0  0  0  0  0  0  0  0  0  0  0  0
   -6.8789    4.9112  -17.4669 C   0  0  0  0  0  0  0  0  0  0  0  0
   -8.1596    4.5028  -17.0861 C   0  0  0  0  0  0  0  0  0  0  0  0
   -9.0579    4.1361  -18.0142 F   0  0  0  0  0  0  0  0  0  0  0  0
   -8.5048    4.3436  -15.7490 C   0  0  0  0  0  0  0  0  0  0  0  0
   -7.5733    4.5662  -14.7095 C   0  0  0  0  0  0  0  0  0  0  0  0
   -6.3674    5.2107  -15.0751 C   0  0  0  0  0  0  0  0  0  0  0  0
   -5.2085    5.6843  -14.4104 C   0  0  0  0  0  0  0  0  0  0  0  0
   -4.2856    6.1687  -15.2483 N   0  0  0  0  0  0  0  0  0  0  0  0
   -4.8066    5.9089  -16.4600 N   0  0  0  0  0  0  0  0  0  0  0  0
   -6.0646    5.3675  -16.4212 C   0  0  0  0  0  0  0  0  0  0  0  0
   -4.3271    6.0913  -17.3002 H   0  0  0  0  0  0  0  0  0  0  0  0
   -5.6732    5.7388  -19.4694 N   0  0  0  0  0  0  0  0  0  0  0  0
   -6.3344    4.5968  -18.8280 C   0  0  0  0  0  0  0  0  0  0  0  0
   -5.3271    5.4597  -20.3874 H   0  0  0  0  0  0  0  0  0  0  0  0
   -4.8920    6.0482  -18.8911 H   0  0  0  0  0  0  0  0  0  0  0  0
   -6.8020    2.8516  -13.1502 N   0  0  0  0  0  0  0  0  0  0  0  0
   -7.1614    1.7612  -13.6091 O   0  0  0  0  0  0  0  0  0  0  0  0
 33 34  1  0  0  0
 34 22  1  0  0  0
 22 23  2  0  0  0
 23 24  1  0  0  0
 23 25  1  0  0  0
 25 26  2  0  0  0
 26 21  1  0  0  0
 21 37  1  0  0  0
 37 38  2  0  0  0
 21  1  1  0  0  0
  1  3  1  0  0  0
  3  4  2  0  0  0
  4  5  1  0  0  0
  5  6  2  0  0  0
  6  7  1  0  0  0
  7 13  1  0  0  0
 13 14  2  0  0  0
 14 15  1  0  0  0
 15 16  1  0  0  0
 16 17  2  0  0  0
 16 18  2  0  0  0
 16 19  1  0  0  0
 19 20  1  0  0  0
  7  8  2  0  0  0
  6  9  1  0  0  0
  9 10  1  0  0  0
 10 11  1  0  0  0
 26 27  1  0  0  0
 27 28  1  0  0  0
 28 29  2  0  0  0
 29 30  1  0  0  0
 30 31  1  0  0  0
 31 22  1  0  0  0
  8  3  1  0  0  0
 31 27  2  0  0  0
 11  5  1  0  0  0
 20 13  1  0  0  0
 33 35  1  0  0  0
 33 36  1  0  0  0
  1  2  1  0  0  0
 10 12  1  0  0  0
 30 32  1  0  0  0
M  END
> <minimizedAffinity>
-7.39867

> <minimizedRMSD>
0.46334

$$$$
P20247


 37 42  0  0  0  0  0  0  0  0999 V2000
   -7.1175    2.1691  -13.6018 O   0  0  0  0  0  0  0  0  0  0  0  0
   -7.4479    3.2690  -13.8248 C   0  0  0  0  0  0  0  0  0  0  0  0
   -7.9990    4.3649  -12.8758 N   0  0  0  0  0  0  0  0  0  0  0  0
   -8.2792    5.1955  -13.3239 H   0  0  0  0  0  0  0  0  0  0  0  0
   -7.4752    3.7889  -15.2630 C   0  0  0  0  0  0  0  0  0  0  0  0
   -8.8242    4.4026  -15.6545 C   0  0  0  0  0  0  0  0  0  0  0  0
   -8.9461    4.5331  -17.1767 C   0  0  0  0  0  0  0  0  0  0  0  0
  -10.0642    5.2480  -17.4599 F   0  0  0  0  0  0  0  0  0  0  0  0
   -7.7394    5.1864  -17.8533 C   0  0  0  0  0  0  0  0  0  0  0  0
   -6.4372    4.6268  -17.3199 C   0  0  0  0  0  0  0  0  0  0  0  0
   -6.3848    4.7098  -15.7917 C   0  0  0  0  0  0  0  0  0  0  0  0
   -4.9288    4.3965  -15.5061 C   0  0  0  0  0  0  0  0  0  0  0  0
   -4.2348    4.7606  -16.7543 N   0  0  0  0  0  0  0  0  0  0  0  0
   -2.7905    5.5476  -16.8027 S   0  0  0  0  0  0  0  0  0  0  0  0
   -2.5061    5.4164  -18.5979 C   0  0  0  0  0  0  0  0  0  0  0  0
   -3.6505    5.9092  -19.3606 N   0  0  0  0  0  0  0  0  0  0  0  0
   -4.8299    5.0936  -19.0600 C   0  0  0  0  0  0  0  0  0  0  0  0
   -5.2154    5.3494  -17.6641 N   0  0  0  0  0  0  0  0  0  0  0  0
   -3.4437    5.8522  -20.3578 H   0  0  0  0  0  0  0  0  0  0  0  0
   -8.1616    4.3649  -11.4944 C   0  0  0  0  0  0  0  0  0  0  0  0
   -8.5912    3.2134  -10.8304 C   0  0  0  0  0  0  0  0  0  0  0  0
   -8.7483    3.2635   -9.4547 C   0  0  0  0  0  0  0  0  0  0  0  0
   -8.4216    4.4042   -8.7289 C   0  0  0  0  0  0  0  0  0  0  0  0
   -7.9667    5.5502   -9.3715 C   0  0  0  0  0  0  0  0  0  0  0  0
   -7.8825    5.5339  -10.7748 C   0  0  0  0  0  0  0  0  0  0  0  0
   -8.6704    4.1418   -7.2825 C   0  0  0  0  0  0  0  0  0  0  0  0
   -9.0769    2.7247   -7.1615 N   0  0  0  0  0  0  0  0  0  0  0  0
   -9.2864    2.2134   -8.5439 C   0  0  0  0  0  0  0  0  0  0  0  0
   -9.9422    2.6528   -6.6264 H   0  0  0  0  0  0  0  0  0  0  0  0
   -7.5187    6.7494   -8.6470 C   0  0  0  0  0  0  0  0  0  0  0  0
   -8.3402    7.8097   -8.5516 C   0  0  0  0  0  0  0  0  0  0  0  0
   -8.0299    9.1456   -7.9347 C   0  0  0  0  0  0  0  0  0  0  0  0
   -6.2837    9.3583   -7.6390 S   0  0  0  0  0  0  0  0  0  0  0  0
   -6.1201   10.2728   -6.5224 O   0  0  0  0  0  0  0  0  0  0  0  0
   -5.6104    9.6183   -8.8987 O   0  0  0  0  0  0  0  0  0  0  0  0
   -5.8011    7.7486   -7.0739 C   0  0  0  0  0  0  0  0  0  0  0  0
   -6.1059    6.6944   -8.1207 C   0  0  0  0  0  0  0  0  0  0  0  0
  1  2  2  0  0  0
  2  3  1  0  0  0
  3 20  1  0  0  0
 20 21  2  0  0  0
 21 22  1  0  0  0
 22 23  2  0  0  0
 23 24  1  0  0  0
 24 30  1  0  0  0
 30 31  2  0  0  0
 31 32  1  0  0  0
 32 33  1  0  0  0
 33 34  2  0  0  0
 33 35  2  0  0  0
 33 36  1  0  0  0
 36 37  1  0  0  0
 24 25  2  0  0  0
 23 26  1  0  0  0
 26 27  1  0  0  0
 27 28  1  0  0  0
  5  2  1  0  0  0
  5  6  1  0  0  0
  6  7  1  0  0  0
  7  8  1  0  0  0
  7  9  1  0  0  0
 10  9  1  0  0  0
 10 11  1  0  0  0
 11 12  1  0  0  0
 12 13  1  0  0  0
 13 14  1  0  0  0
 14 15  1  0  0  0
 15 16  1  0  0  0
 16 17  1  0  0  0
 17 18  1  0  0  0
 25 20  1  0  0  0
 11  5  1  0  0  0
 18 13  1  0  0  0
 28 22  1  0  0  0
 18 10  1  0  0  0
 37 30  1  0  0  0
  3  4  1  0  0  0
 27 29  1  0  0  0
 16 19  1  0  0  0
M  END
> <minimizedAffinity>
-8.72281

> <minimizedRMSD>
0.71334

$$$$
P20252


 39 44  0  0  0  0  0  0  0  0999 V2000
   -5.8374    4.8170  -13.9239 O   0  0  0  0  0  0  0  0  0  0  0  0
   -6.9476    4.5595  -14.1799 C   0  0  0  0  0  0  0  0  0  0  0  0
   -8.1441    4.2498  -13.2516 N   0  0  0  0  0  0  0  0  0  0  0  0
   -8.9699    3.9855  -13.7179 H   0  0  0  0  0  0  0  0  0  0  0  0
   -8.2444    4.2839  -11.8592 C   0  0  0  0  0  0  0  0  0  0  0  0
   -8.6165    3.1213  -11.1843 C   0  0  0  0  0  0  0  0  0  0  0  0
   -8.7169    3.1621   -9.8032 C   0  0  0  0  0  0  0  0  0  0  0  0
   -8.4714    4.3323   -9.0889 C   0  0  0  0  0  0  0  0  0  0  0  0
   -8.0689    5.4963   -9.7346 C   0  0  0  0  0  0  0  0  0  0  0  0
   -7.9627    5.4582  -11.1359 C   0  0  0  0  0  0  0  0  0  0  0  0
   -8.7078    4.0606   -7.6362 C   0  0  0  0  0  0  0  0  0  0  0  0
   -9.3716    2.7390   -7.5720 N   0  0  0  0  0  0  0  0  0  0  0  0
   -9.0340    2.0605   -8.8470 C   0  0  0  0  0  0  0  0  0  0  0  0
  -10.3817    2.8517   -7.4852 H   0  0  0  0  0  0  0  0  0  0  0  0
   -7.7676    6.7288   -8.9833 C   0  0  0  0  0  0  0  0  0  0  0  0
   -6.6907    6.7427   -8.1749 C   0  0  0  0  0  0  0  0  0  0  0  0
   -6.3001    7.8385   -7.2291 C   0  0  0  0  0  0  0  0  0  0  0  0
   -7.6884    8.8982   -6.8684 S   0  0  0  0  0  0  0  0  0  0  0  0
   -8.6530    8.1515   -6.0786 O   0  0  0  0  0  0  0  0  0  0  0  0
   -7.1591   10.1586   -6.3767 O   0  0  0  0  0  0  0  0  0  0  0  0
   -8.3388    9.1750   -8.4960 C   0  0  0  0  0  0  0  0  0  0  0  0
   -8.7437    7.8682   -9.1556 C   0  0  0  0  0  0  0  0  0  0  0  0
   -7.3038    4.4601  -15.6160 C   0  0  0  0  0  0  0  0  0  0  0  0
   -8.6333    4.3556  -16.0409 C   0  0  0  0  0  0  0  0  0  0  0  0
   -8.9409    4.4687  -17.3936 C   0  0  0  0  0  0  0  0  0  0  0  0
  -10.2192    4.3829  -17.7852 F   0  0  0  0  0  0  0  0  0  0  0  0
   -7.9622    4.6865  -18.3604 C   0  0  0  0  0  0  0  0  0  0  0  0
   -6.6321    4.7325  -17.9229 C   0  0  0  0  0  0  0  0  0  0  0  0
   -6.2864    4.6115  -16.5796 C   0  0  0  0  0  0  0  0  0  0  0  0
   -4.8789    4.6984  -16.5737 C   0  0  0  0  0  0  0  0  0  0  0  0
   -4.3652    4.8411  -17.7967 N   0  0  0  0  0  0  0  0  0  0  0  0
   -5.4449    4.9256  -18.5958 N   0  0  0  0  0  0  0  0  0  0  0  0
   -5.3570    5.2252  -19.9727 N   0  0  0  0  0  0  0  0  0  0  0  0
   -6.2795    5.1418  -20.3998 H   0  0  0  0  0  0  0  0  0  0  0  0
   -4.8596    6.6045  -20.1367 C   0  0  0  0  0  0  0  0  0  0  0  0
   -3.3578    6.6052  -20.5288 C   0  0  0  0  0  0  0  0  0  0  0  0
   -3.7672    6.4665  -21.9455 N   0  0  0  0  0  0  0  0  0  0  0  0
   -5.0792    7.0644  -21.5942 C   0  0  0  0  0  0  0  0  0  0  0  0
   -3.8192    5.5029  -22.2757 H   0  0  0  0  0  0  0  0  0  0  0  0
  1  2  2  0  0  0
  2  3  1  0  0  0
  3  5  1  0  0  0
  5  6  2  0  0  0
  6  7  1  0  0  0
  7  8  2  0  0  0
  8  9  1  0  0  0
  9 15  1  0  0  0
 15 16  2  0  0  0
 16 17  1  0  0  0
 17 18  1  0  0  0
 18 19  2  0  0  0
 18 20  2  0  0  0
 18 21  1  0  0  0
 21 22  1  0  0  0
  9 10  2  0  0  0
  8 11  1  0  0  0
 11 12  1  0  0  0
 12 13  1  0  0  0
  2 23  1  0  0  0
 23 24  2  0  0  0
 24 25  1  0  0  0
 25 26  1  0  0  0
 25 27  2  0  0  0
 27 28  1  0  0  0
 28 29  2  0  0  0
 29 30  1  0  0  0
 30 31  2  0  0  0
 31 32  1  0  0  0
 32 33  1  0  0  0
 33 35  1  0  0  0
 35 36  1  0  0  0
 36 37  1  0  0  0
 37 38  1  0  0  0
 10  5  1  0  0  0
 29 23  1  0  0  0
 38 35  1  0  0  0
 13  7  1  0  0  0
 32 28  1  0  0  0
 22 15  1  0  0  0
  3  4  1  0  0  0
 12 14  1  0  0  0
 33 34  1  0  0  0
 37 39  1  0  0  0
M  END
> <minimizedAffinity>
-8.98677

> <minimizedRMSD>
0.65715

$$$$
P20255


 39 43  0  0  0  0  0  0  0  0999 V2000
   -8.3124    4.3968  -11.9236 C   0  0  0  0  0  0  0  0  0  0  0  0
   -8.2080    5.6556  -11.3036 C   0  0  0  0  0  0  0  0  0  0  0  0
   -8.2482    5.7897   -9.9092 C   0  0  0  0  0  0  0  0  0  0  0  0
   -8.4180    4.6400   -9.1577 C   0  0  0  0  0  0  0  0  0  0  0  0
   -8.5195    3.3912   -9.7678 C   0  0  0  0  0  0  0  0  0  0  0  0
   -8.4760    3.2490  -11.1494 C   0  0  0  0  0  0  0  0  0  0  0  0
   -8.5341    2.3397   -8.7148 C   0  0  0  0  0  0  0  0  0  0  0  0
   -9.6712    1.4904   -8.7207 N   0  0  0  0  0  0  0  0  0  0  0  0
   -8.6985    3.0288   -7.4356 N   0  0  0  0  0  0  0  0  0  0  0  0
   -8.4664    4.4654   -7.6791 C   0  0  0  0  0  0  0  0  0  0  0  0
  -10.5120    2.0469   -8.5667 H   0  0  0  0  0  0  0  0  0  0  0  0
   -9.5816    0.7970   -7.9780 H   0  0  0  0  0  0  0  0  0  0  0  0
   -8.0218    2.6755   -6.7591 H   0  0  0  0  0  0  0  0  0  0  0  0
   -8.0328    7.1055   -9.2921 C   0  0  0  0  0  0  0  0  0  0  0  0
   -8.8331    8.1326   -9.6279 C   0  0  0  0  0  0  0  0  0  0  0  0
   -8.7739    9.5391   -9.1002 C   0  0  0  0  0  0  0  0  0  0  0  0
   -7.6849    9.6845   -7.6932 S   0  0  0  0  0  0  0  0  0  0  0  0
   -8.3433    9.1417   -6.5170 O   0  0  0  0  0  0  0  0  0  0  0  0
   -7.1495   11.0343   -7.6675 O   0  0  0  0  0  0  0  0  0  0  0  0
   -6.3555    8.5948   -8.1268 C   0  0  0  0  0  0  0  0  0  0  0  0
   -6.8716    7.1836   -8.3332 C   0  0  0  0  0  0  0  0  0  0  0  0
   -8.8251    5.1445  -14.4367 C   0  0  0  0  0  0  0  0  0  0  0  0
   -9.5935    6.0234  -14.3836 O   0  0  0  0  0  0  0  0  0  0  0  0
   -8.1999    4.2902  -13.3096 N   0  0  0  0  0  0  0  0  0  0  0  0
   -7.6295    3.5507  -13.6211 H   0  0  0  0  0  0  0  0  0  0  0  0
   -5.1776    4.9763  -17.3457 N   0  0  0  0  0  0  0  0  0  0  0  0
   -4.7136    5.1994  -16.0851 N   0  0  0  0  0  0  0  0  0  0  0  0
   -5.8044    5.1122  -15.3230 C   0  0  0  0  0  0  0  0  0  0  0  0
   -6.9758    4.8584  -16.0668 C   0  0  0  0  0  0  0  0  0  0  0  0
   -8.3539    4.7569  -15.7839 C   0  0  0  0  0  0  0  0  0  0  0  0
   -9.2504    4.4842  -16.8197 C   0  0  0  0  0  0  0  0  0  0  0  0
   -8.7817    4.3798  -18.1227 C   0  0  0  0  0  0  0  0  0  0  0  0
   -9.6530    4.1639  -19.1169 F   0  0  0  0  0  0  0  0  0  0  0  0
   -7.4319    4.5201  -18.4410 C   0  0  0  0  0  0  0  0  0  0  0  0
   -6.5396    4.7501  -17.3858 C   0  0  0  0  0  0  0  0  0  0  0  0
   -4.3126    5.2402  -18.5012 C   0  0  0  0  0  0  0  0  0  0  0  0
   -2.3175    4.5371  -19.6990 C   0  0  0  0  0  0  0  0  0  0  0  0
   -3.1314    4.3753  -18.5004 N   0  0  0  0  0  0  0  0  0  0  0  0
   -2.5614    4.6015  -17.6854 H   0  0  0  0  0  0  0  0  0  0  0  0
 37 38  1  0  0  0
 38 36  1  0  0  0
 36 26  1  0  0  0
 26 27  1  0  0  0
 27 28  2  0  0  0
 28 29  1  0  0  0
 29 30  2  0  0  0
 30 22  1  0  0  0
 22 23  2  0  0  0
 22 24  1  0  0  0
 24  1  1  0  0  0
  1  2  2  0  0  0
  2  3  1  0  0  0
  3 14  1  0  0  0
 14 15  2  0  0  0
 15 16  1  0  0  0
 16 17  1  0  0  0
 17 18  2  0  0  0
 17 19  2  0  0  0
 17 20  1  0  0  0
 20 21  1  0  0  0
  3  4  2  0  0  0
  4  5  1  0  0  0
  5  6  2  0  0  0
  5  7  1  0  0  0
  7  8  1  0  0  0
  7  9  1  0  0  0
  9 10  1  0  0  0
 30 31  1  0  0  0
 31 32  2  0  0  0
 32 33  1  0  0  0
 32 34  1  0  0  0
 34 35  2  0  0  0
 35 26  1  0  0  0
 35 29  1  0  0  0
  6  1  1  0  0  0
 21 14  1  0  0  0
 10  4  1  0  0  0
 38 39  1  0  0  0
 24 25  1  0  0  0
  8 11  1  0  0  0
  8 12  1  0  0  0
  9 13  1  0  0  0
M  END
> <minimizedAffinity>
-8.99325

> <minimizedRMSD>
1.07894

$$$$
P20257


 36 39  0  0  0  0  0  0  0  0999 V2000
   -5.4770    7.0454  -17.0759 C   0  0  0  0  0  0  0  0  0  0  0  0
   -5.8955    6.6689  -15.8779 N   0  0  0  0  0  0  0  0  0  0  0  0
   -6.9104    5.7644  -16.0918 C   0  0  0  0  0  0  0  0  0  0  0  0
   -7.6523    4.9942  -15.1715 C   0  0  0  0  0  0  0  0  0  0  0  0
   -8.7434    4.2557  -15.6521 C   0  0  0  0  0  0  0  0  0  0  0  0
   -9.0042    4.1834  -17.0156 C   0  0  0  0  0  0  0  0  0  0  0  0
  -10.0238    3.4286  -17.4488 F   0  0  0  0  0  0  0  0  0  0  0  0
   -8.1992    4.8276  -17.9513 C   0  0  0  0  0  0  0  0  0  0  0  0
   -7.1615    5.6246  -17.4522 C   0  0  0  0  0  0  0  0  0  0  0  0
   -6.1679    6.3542  -18.0536 N   0  0  0  0  0  0  0  0  0  0  0  0
   -5.9058    6.3539  -19.4398 N   0  0  0  0  0  0  0  0  0  0  0  0
   -6.5794    5.7517  -19.9131 H   0  0  0  0  0  0  0  0  0  0  0  0
   -4.9619    6.0055  -19.6073 H   0  0  0  0  0  0  0  0  0  0  0  0
   -7.1681    4.8841  -13.7771 C   0  0  0  0  0  0  0  0  0  0  0  0
   -6.0780    4.1080  -13.6015 C   0  0  0  0  0  0  0  0  0  0  0  0
   -5.4906    3.4957  -14.6559 F   0  0  0  0  0  0  0  0  0  0  0  0
   -5.5137    3.9519  -12.3868 F   0  0  0  0  0  0  0  0  0  0  0  0
   -7.9069    5.5932  -12.8364 N   0  0  0  0  0  0  0  0  0  0  0  0
   -8.3738    6.4046  -13.1413 H   0  0  0  0  0  0  0  0  0  0  0  0
   -8.0376    5.2356  -11.4737 C   0  0  0  0  0  0  0  0  0  0  0  0
   -7.7543    6.1909  -10.4753 C   0  0  0  0  0  0  0  0  0  0  0  0
   -7.9073    5.8893   -9.1186 C   0  0  0  0  0  0  0  0  0  0  0  0
   -8.3495    4.6249   -8.7756 C   0  0  0  0  0  0  0  0  0  0  0  0
   -8.6054    3.6669   -9.7469 C   0  0  0  0  0  0  0  0  0  0  0  0
   -8.4328    3.9443  -11.0954 C   0  0  0  0  0  0  0  0  0  0  0  0
   -9.0901    2.4145   -9.1014 C   0  0  0  0  0  0  0  0  0  0  0  0
   -9.1598    2.6940   -7.6396 N   0  0  0  0  0  0  0  0  0  0  0  0
   -8.6534    4.0665   -7.4299 C   0  0  0  0  0  0  0  0  0  0  0  0
   -8.5817    2.0267   -7.1287 H   0  0  0  0  0  0  0  0  0  0  0  0
   -4.0282    8.7724  -15.9940 C   0  0  0  0  0  0  0  0  0  0  0  0
   -4.3487    8.0226  -17.3044 C   0  0  0  0  0  0  0  0  0  0  0  0
   -4.6335    9.0908  -18.3718 C   0  0  0  0  0  0  0  0  0  0  0  0
   -2.9135    7.0203  -17.8256 S   0  0  0  0  0  0  0  0  0  0  0  0
   -2.9779    5.5207  -16.8644 C   0  0  0  0  0  0  0  0  0  0  0  0
   -3.0744    6.6409  -19.2211 O   0  0  0  0  0  0  0  0  0  0  0  0
   -1.7064    7.7227  -17.4194 O   0  0  0  0  0  0  0  0  0  0  0  0
 30 31  1  0  0  0
 31 32  1  0  0  0
 31  1  1  0  0  0
  1  2  2  0  0  0
  2  3  1  0  0  0
  3  4  2  0  0  0
  4 14  1  0  0  0
 14 18  1  0  0  0
 18 20  1  0  0  0
 20 21  2  0  0  0
 21 22  1  0  0  0
 22 23  2  0  0  0
 23 24  1  0  0  0
 24 25  2  0  0  0
 24 26  1  0  0  0
 26 27  1  0  0  0
 27 28  1  0  0  0
 14 15  2  0  0  0
 15 16  1  0  0  0
 15 17  1  0  0  0
  4  5  1  0  0  0
  5  6  2  0  0  0
  6  7  1  0  0  0
  6  8  1  0  0  0
  8  9  2  0  0  0
  9 10  1  0  0  0
 10 11  1  0  0  0
 31 33  1  0  0  0
 33 34  1  0  0  0
 33 35  2  0  0  0
 33 36  2  0  0  0
 10  1  1  0  0  0
  9  3  1  0  0  0
 25 20  1  0  0  0
 28 23  1  0  0  0
 18 19  1  0  0  0
 27 29  1  0  0  0
 11 12  1  0  0  0
 11 13  1  0  0  0
M  END
> <minimizedAffinity>
-7.30402

> <minimizedRMSD>
0.99470

$$$$
P20260


 33 36  0  0  0  0  0  0  0  0999 V2000
   -5.1460    5.7248  -17.2863 C   0  0  0  0  0  0  0  0  0  0  0  0
   -6.0771    5.7193  -18.2243 N   0  0  0  0  0  0  0  0  0  0  0  0
   -7.1866    5.1358  -17.6617 C   0  0  0  0  0  0  0  0  0  0  0  0
   -8.4480    4.8859  -18.2206 C   0  0  0  0  0  0  0  0  0  0  0  0
   -9.4343    4.3365  -17.4028 C   0  0  0  0  0  0  0  0  0  0  0  0
  -10.6652    4.1266  -17.8921 F   0  0  0  0  0  0  0  0  0  0  0  0
   -9.1760    4.0012  -16.0828 C   0  0  0  0  0  0  0  0  0  0  0  0
   -7.9040    4.1778  -15.5354 C   0  0  0  0  0  0  0  0  0  0  0  0
   -6.9340    4.7791  -16.3409 C   0  0  0  0  0  0  0  0  0  0  0  0
   -5.6220    5.1169  -16.1407 N   0  0  0  0  0  0  0  0  0  0  0  0
   -5.1051    4.9541  -15.3188 H   0  0  0  0  0  0  0  0  0  0  0  0
   -7.6379    3.6914  -14.1667 C   0  0  0  0  0  0  0  0  0  0  0  0
   -7.1605    2.6365  -14.0240 O   0  0  0  0  0  0  0  0  0  0  0  0
   -8.1117    4.7258  -13.1219 N   0  0  0  0  0  0  0  0  0  0  0  0
   -8.4131    5.5839  -13.4987 H   0  0  0  0  0  0  0  0  0  0  0  0
   -8.1820    4.6419  -11.7340 C   0  0  0  0  0  0  0  0  0  0  0  0
   -7.9167    5.7967  -10.9785 C   0  0  0  0  0  0  0  0  0  0  0  0
   -7.9881    5.7680   -9.5817 C   0  0  0  0  0  0  0  0  0  0  0  0
   -8.3564    4.5835   -8.9681 C   0  0  0  0  0  0  0  0  0  0  0  0
   -8.6522    3.4521   -9.7163 C   0  0  0  0  0  0  0  0  0  0  0  0
   -8.5509    3.4540  -11.0988 C   0  0  0  0  0  0  0  0  0  0  0  0
   -9.1011    2.3544   -8.8144 C   0  0  0  0  0  0  0  0  0  0  0  0
   -8.9263    2.8598   -7.4227 N   0  0  0  0  0  0  0  0  0  0  0  0
   -8.5362    4.2826   -7.5210 C   0  0  0  0  0  0  0  0  0  0  0  0
   -8.1964    2.3292   -6.9472 H   0  0  0  0  0  0  0  0  0  0  0  0
   -3.7352    6.2663  -17.4402 C   0  0  0  0  0  0  0  0  0  0  0  0
   -3.7876    7.8125  -17.4397 C   0  0  0  0  0  0  0  0  0  0  0  0
   -2.7816    5.7270  -15.9658 S   0  0  0  0  0  0  0  0  0  0  0  0
   -1.0680    5.9943  -16.3637 C   0  0  0  0  0  0  0  0  0  0  0  0
   -2.9623    4.2944  -15.7940 O   0  0  0  0  0  0  0  0  0  0  0  0
   -3.0960    6.6090  -14.8554 O   0  0  0  0  0  0  0  0  0  0  0  0
   -3.0474    4.3161  -19.0619 C   0  0  0  0  0  0  0  0  0  0  0  0
   -3.1031    5.8130  -18.7798 C   0  0  0  0  0  0  0  0  0  0  0  0
 32 33  1  0  0  0
 33 26  1  0  0  0
 26 27  1  0  0  0
 26  1  1  0  0  0
  1  2  2  0  0  0
  2  3  1  0  0  0
  3  4  2  0  0  0
  4  5  1  0  0  0
  5  6  1  0  0  0
  5  7  2  0  0  0
  7  8  1  0  0  0
  8 12  1  0  0  0
 12 13  2  0  0  0
 12 14  1  0  0  0
 14 16  1  0  0  0
 16 17  2  0  0  0
 17 18  1  0  0  0
 18 19  2  0  0  0
 19 20  1  0  0  0
 20 21  2  0  0  0
 20 22  1  0  0  0
 22 23  1  0  0  0
 23 24  1  0  0  0
  8  9  2  0  0  0
  9 10  1  0  0  0
 26 28  1  0  0  0
 28 29  1  0  0  0
 28 30  2  0  0  0
 28 31  2  0  0  0
 10  1  1  0  0  0
  9  3  1  0  0  0
 21 16  1  0  0  0
 24 19  1  0  0  0
 14 15  1  0  0  0
 23 25  1  0  0  0
 10 11  1  0  0  0
M  END
> <minimizedAffinity>
-7.64775

> <minimizedRMSD>
1.96141

$$$$
P20262


 38 42  0  0  0  0  0  0  0  0999 V2000
   -4.3604    7.1486  -20.9028 C   0  0  0  0  0  0  0  0  0  0  0  0
   -4.6188    6.5250  -19.5145 C   0  0  0  0  0  0  0  0  0  0  0  0
   -3.8839    7.3789  -18.4492 C   0  0  0  0  0  0  0  0  0  0  0  0
   -4.2429    7.0681  -16.9584 C   0  0  0  0  0  0  0  0  0  0  0  0
   -3.2264    6.0830  -16.3525 C   0  0  0  0  0  0  0  0  0  0  0  0
   -5.6376    6.5275  -16.8270 C   0  0  0  0  0  0  0  0  0  0  0  0
   -6.3265    6.2068  -15.7491 N   0  0  0  0  0  0  0  0  0  0  0  0
   -7.4424    5.5216  -16.2053 C   0  0  0  0  0  0  0  0  0  0  0  0
   -8.5445    4.9567  -15.5330 C   0  0  0  0  0  0  0  0  0  0  0  0
   -9.4661    4.1866  -16.2656 C   0  0  0  0  0  0  0  0  0  0  0  0
   -9.3200    4.0333  -17.6404 C   0  0  0  0  0  0  0  0  0  0  0  0
  -10.2148    3.3197  -18.3349 F   0  0  0  0  0  0  0  0  0  0  0  0
   -8.3008    4.6571  -18.3435 C   0  0  0  0  0  0  0  0  0  0  0  0
   -7.3954    5.4070  -17.5931 C   0  0  0  0  0  0  0  0  0  0  0  0
   -6.3582    6.2126  -17.9468 N   0  0  0  0  0  0  0  0  0  0  0  0
   -6.0578    6.6546  -19.2545 N   0  0  0  0  0  0  0  0  0  0  0  0
   -6.3310    7.6326  -19.3509 H   0  0  0  0  0  0  0  0  0  0  0  0
   -4.1479    8.6334  -15.9769 S   0  0  0  0  0  0  0  0  0  0  0  0
   -5.4090    9.7170  -16.6155 C   0  0  0  0  0  0  0  0  0  0  0  0
   -4.4674    8.3718  -14.5852 O   0  0  0  0  0  0  0  0  0  0  0  0
   -2.8763    9.2740  -16.2841 O   0  0  0  0  0  0  0  0  0  0  0  0
   -8.8197    5.3553  -14.1333 C   0  0  0  0  0  0  0  0  0  0  0  0
   -9.4889    6.2984  -13.9670 O   0  0  0  0  0  0  0  0  0  0  0  0
   -8.2278    4.3531  -13.1136 N   0  0  0  0  0  0  0  0  0  0  0  0
   -7.7543    3.5886  -13.5143 H   0  0  0  0  0  0  0  0  0  0  0  0
   -8.2561    4.3566  -11.7201 C   0  0  0  0  0  0  0  0  0  0  0  0
   -7.9309    5.5166  -10.9966 C   0  0  0  0  0  0  0  0  0  0  0  0
   -7.9971    5.5352   -9.6004 C   0  0  0  0  0  0  0  0  0  0  0  0
   -8.3957    4.3825   -8.9512 C   0  0  0  0  0  0  0  0  0  0  0  0
   -8.7194    3.2349   -9.6638 C   0  0  0  0  0  0  0  0  0  0  0  0
   -8.6495    3.1978  -11.0480 C   0  0  0  0  0  0  0  0  0  0  0  0
   -9.1606    2.1710   -8.7200 C   0  0  0  0  0  0  0  0  0  0  0  0
   -8.9507    2.7115   -7.3489 N   0  0  0  0  0  0  0  0  0  0  0  0
   -8.5942    4.1397   -7.4965 C   0  0  0  0  0  0  0  0  0  0  0  0
   -8.1942    2.2077   -6.8858 H   0  0  0  0  0  0  0  0  0  0  0  0
   -4.1716    5.0468  -19.5438 C   0  0  0  0  0  0  0  0  0  0  0  0
   -2.9589    4.8926  -20.2731 O   0  0  0  0  0  0  0  0  0  0  0  0
   -3.0929    5.1839  -21.1886 H   0  0  0  0  0  0  0  0  0  0  0  0
  2  1  1  0  0  0
  2 36  1  0  0  0
 36 37  1  0  0  0
  2  3  1  0  0  0
  3  4  1  0  0  0
  4  5  1  0  0  0
  4 18  1  0  0  0
 18 19  1  0  0  0
 18 20  2  0  0  0
 18 21  2  0  0  0
  4  6  1  0  0  0
  6  7  2  0  0  0
  7  8  1  0  0  0
  8  9  2  0  0  0
  9 22  1  0  0  0
 22 23  2  0  0  0
 22 24  1  0  0  0
 24 26  1  0  0  0
 26 27  2  0  0  0
 27 28  1  0  0  0
 28 29  2  0  0  0
 29 30  1  0  0  0
 30 31  2  0  0  0
 30 32  1  0  0  0
 32 33  1  0  0  0
 33 34  1  0  0  0
  9 10  1  0  0  0
 10 11  2  0  0  0
 11 12  1  0  0  0
 11 13  1  0  0  0
 13 14  2  0  0  0
 14 15  1  0  0  0
 15 16  1  0  0  0
 16  2  1  0  0  0
 15  6  1  0  0  0
 14  8  1  0  0  0
 31 26  1  0  0  0
 34 29  1  0  0  0
 37 38  1  0  0  0
 24 25  1  0  0  0
 33 35  1  0  0  0
 16 17  1  0  0  0
M  END
> <minimizedAffinity>
-8.73606

> <minimizedRMSD>
0.81022

$$$$
P20263


 35 38  0  0  0  0  0  0  0  0999 V2000
   -5.1814    6.5706  -16.2567 C   0  0  0  0  0  0  0  0  0  0  0  0
   -5.7193    5.8081  -15.3137 N   0  0  0  0  0  0  0  0  0  0  0  0
   -6.8217    5.2026  -15.8484 C   0  0  0  0  0  0  0  0  0  0  0  0
   -7.7662    4.3303  -15.2872 C   0  0  0  0  0  0  0  0  0  0  0  0
   -8.8856    3.9637  -16.0443 C   0  0  0  0  0  0  0  0  0  0  0  0
   -9.0090    4.3586  -17.3628 C   0  0  0  0  0  0  0  0  0  0  0  0
  -10.0809    3.9628  -18.0633 F   0  0  0  0  0  0  0  0  0  0  0  0
   -8.0352    5.1386  -17.9760 C   0  0  0  0  0  0  0  0  0  0  0  0
   -6.9638    5.5764  -17.1809 C   0  0  0  0  0  0  0  0  0  0  0  0
   -5.8628    6.3752  -17.4525 N   0  0  0  0  0  0  0  0  0  0  0  0
   -7.6352    3.7435  -13.9386 C   0  0  0  0  0  0  0  0  0  0  0  0
   -7.4375    2.5952  -13.8596 O   0  0  0  0  0  0  0  0  0  0  0  0
   -7.8931    4.7931  -12.8358 N   0  0  0  0  0  0  0  0  0  0  0  0
   -7.9564    5.7215  -13.1572 H   0  0  0  0  0  0  0  0  0  0  0  0
   -8.0507    4.6402  -11.4596 C   0  0  0  0  0  0  0  0  0  0  0  0
   -7.8247    5.7466  -10.6251 C   0  0  0  0  0  0  0  0  0  0  0  0
   -8.0025    5.6449   -9.2402 C   0  0  0  0  0  0  0  0  0  0  0  0
   -8.4285    4.4356   -8.7179 C   0  0  0  0  0  0  0  0  0  0  0  0
   -8.6848    3.3510   -9.5450 C   0  0  0  0  0  0  0  0  0  0  0  0
   -8.4872    3.4280  -10.9153 C   0  0  0  0  0  0  0  0  0  0  0  0
   -9.2115    2.2147   -8.7375 C   0  0  0  0  0  0  0  0  0  0  0  0
   -9.0948    2.6305   -7.3099 N   0  0  0  0  0  0  0  0  0  0  0  0
   -8.7145    4.0599   -7.3058 C   0  0  0  0  0  0  0  0  0  0  0  0
   -8.3784    2.0761   -6.8410 H   0  0  0  0  0  0  0  0  0  0  0  0
   -5.5535    6.8238  -18.8053 C   0  0  0  0  0  0  0  0  0  0  0  0
   -6.1440    8.1408  -18.9999 N   0  0  0  0  0  0  0  0  0  0  0  0
   -7.1536    8.0838  -18.8668 H   0  0  0  0  0  0  0  0  0  0  0  0
   -5.9435    8.4670  -19.9453 H   0  0  0  0  0  0  0  0  0  0  0  0
   -2.9690    7.6186  -17.0516 C   0  0  0  0  0  0  0  0  0  0  0  0
   -4.0204    7.5111  -15.9450 C   0  0  0  0  0  0  0  0  0  0  0  0
   -3.3026    7.0235  -14.6632 C   0  0  0  0  0  0  0  0  0  0  0  0
   -4.7924    9.1474  -15.6085 S   0  0  0  0  0  0  0  0  0  0  0  0
   -3.4933   10.1477  -14.9182 C   0  0  0  0  0  0  0  0  0  0  0  0
   -5.1501    9.7631  -16.8777 O   0  0  0  0  0  0  0  0  0  0  0  0
   -5.8068    9.0218  -14.5782 O   0  0  0  0  0  0  0  0  0  0  0  0
 29 30  1  0  0  0
 30 31  1  0  0  0
 30  1  1  0  0  0
  1  2  2  0  0  0
  2  3  1  0  0  0
  3  4  2  0  0  0
  4 11  1  0  0  0
 11 12  2  0  0  0
 11 13  1  0  0  0
 13 15  1  0  0  0
 15 16  2  0  0  0
 16 17  1  0  0  0
 17 18  2  0  0  0
 18 19  1  0  0  0
 19 20  2  0  0  0
 19 21  1  0  0  0
 21 22  1  0  0  0
 22 23  1  0  0  0
  4  5  1  0  0  0
  5  6  2  0  0  0
  6  7  1  0  0  0
  6  8  1  0  0  0
  8  9  2  0  0  0
  9 10  1  0  0  0
 10 25  1  0  0  0
 25 26  1  0  0  0
 30 32  1  0  0  0
 32 33  1  0  0  0
 32 34  2  0  0  0
 32 35  2  0  0  0
 10  1  1  0  0  0
  9  3  1  0  0  0
 20 15  1  0  0  0
 23 18  1  0  0  0
 13 14  1  0  0  0
 22 24  1  0  0  0
 26 27  1  0  0  0
 26 28  1  0  0  0
M  END
> <minimizedAffinity>
-7.18861

> <minimizedRMSD>
0.39367

$$$$
P20268


 38 41  0  0  0  0  0  0  0  0999 V2000
   -7.3841    4.3510  -14.1775 C   0  0  0  0  0  0  0  0  0  0  0  0
   -6.9987    5.6171  -13.7156 O   0  0  0  0  0  0  0  0  0  0  0  0
   -6.6875    5.5461  -12.7996 H   0  0  0  0  0  0  0  0  0  0  0  0
   -7.8611    4.5169  -15.6099 C   0  0  0  0  0  0  0  0  0  0  0  0
   -9.0957    4.0069  -16.0873 C   0  0  0  0  0  0  0  0  0  0  0  0
   -9.4943    4.1349  -17.4174 C   0  0  0  0  0  0  0  0  0  0  0  0
  -10.6468    3.5835  -17.8215 F   0  0  0  0  0  0  0  0  0  0  0  0
   -8.7310    4.8226  -18.3449 C   0  0  0  0  0  0  0  0  0  0  0  0
   -7.5329    5.3452  -17.8775 C   0  0  0  0  0  0  0  0  0  0  0  0
   -6.5823    6.1072  -18.4988 N   0  0  0  0  0  0  0  0  0  0  0  0
   -5.4990    6.2111  -17.6588 C   0  0  0  0  0  0  0  0  0  0  0  0
   -5.7941    5.6914  -16.4806 N   0  0  0  0  0  0  0  0  0  0  0  0
   -7.0653    5.1717  -16.5814 C   0  0  0  0  0  0  0  0  0  0  0  0
   -6.6603    6.5115  -19.3931 H   0  0  0  0  0  0  0  0  0  0  0  0
   -4.1826    6.8633  -18.0046 C   0  0  0  0  0  0  0  0  0  0  0  0
   -3.1541    6.5988  -16.8939 C   0  0  0  0  0  0  0  0  0  0  0  0
   -4.4086    8.3824  -18.1310 C   0  0  0  0  0  0  0  0  0  0  0  0
   -3.5408    6.2598  -19.6055 S   0  0  0  0  0  0  0  0  0  0  0  0
   -3.0266    4.5815  -19.3221 C   0  0  0  0  0  0  0  0  0  0  0  0
   -2.3466    7.0162  -19.9399 O   0  0  0  0  0  0  0  0  0  0  0  0
   -4.6449    6.2157  -20.5530 O   0  0  0  0  0  0  0  0  0  0  0  0
   -4.1769    2.2952  -13.7165 C   0  0  0  0  0  0  0  0  0  0  0  0
   -4.8690    3.6291  -13.5484 C   0  0  0  0  0  0  0  0  0  0  0  0
   -4.3659    4.5564  -13.0539 O   0  0  0  0  0  0  0  0  0  0  0  0
   -6.2806    3.4581  -14.1476 N   0  0  0  0  0  0  0  0  0  0  0  0
   -6.4425    2.5883  -14.5795 H   0  0  0  0  0  0  0  0  0  0  0  0
   -8.3998    3.7625  -13.3202 N   0  0  0  0  0  0  0  0  0  0  0  0
   -9.1250    3.2260  -13.7145 H   0  0  0  0  0  0  0  0  0  0  0  0
   -8.3482    3.9587  -11.9242 C   0  0  0  0  0  0  0  0  0  0  0  0
   -8.0504    5.2107  -11.3495 C   0  0  0  0  0  0  0  0  0  0  0  0
   -8.0540    5.4067   -9.9627 C   0  0  0  0  0  0  0  0  0  0  0  0
   -8.3883    4.3401   -9.1521 C   0  0  0  0  0  0  0  0  0  0  0  0
   -8.7076    3.1071   -9.6981 C   0  0  0  0  0  0  0  0  0  0  0  0
   -8.6867    2.8975  -11.0689 C   0  0  0  0  0  0  0  0  0  0  0  0
   -9.1128    2.1695   -8.6151 C   0  0  0  0  0  0  0  0  0  0  0  0
   -8.8864    2.8880   -7.3315 N   0  0  0  0  0  0  0  0  0  0  0  0
   -8.5445    4.2867   -7.6736 C   0  0  0  0  0  0  0  0  0  0  0  0
   -8.1185    2.4551   -6.8184 H   0  0  0  0  0  0  0  0  0  0  0  0
 22 23  1  0  0  0
 23 24  2  0  0  0
 23 25  1  0  0  0
 25  1  1  0  0  0
  1  2  1  0  0  0
  1 27  1  0  0  0
 27 29  1  0  0  0
 29 30  2  0  0  0
 30 31  1  0  0  0
 31 32  2  0  0  0
 32 33  1  0  0  0
 33 34  2  0  0  0
 33 35  1  0  0  0
 35 36  1  0  0  0
 36 37  1  0  0  0
  1  4  1  0  0  0
  4  5  2  0  0  0
  5  6  1  0  0  0
  6  7  1  0  0  0
  6  8  2  0  0  0
  8  9  1  0  0  0
  9 10  1  0  0  0
 10 11  1  0  0  0
 11 15  1  0  0  0
 15 16  1  0  0  0
 15 17  1  0  0  0
 15 18  1  0  0  0
 18 19  1  0  0  0
 18 20  2  0  0  0
 18 21  2  0  0  0
 11 12  2  0  0  0
 12 13  1  0  0  0
 34 29  1  0  0  0
 13  4  1  0  0  0
 37 32  1  0  0  0
 13  9  2  0  0  0
 25 26  1  0  0  0
  2  3  1  0  0  0
 27 28  1  0  0  0
 36 38  1  0  0  0
 10 14  1  0  0  0
M  END
> <minimizedAffinity>
-8.09149

> <minimizedRMSD>
0.87554

$$$$
P20272


 35 39  0  0  0  0  0  0  0  0999 V2000
   -3.0266    7.5136  -16.3537 C   0  0  0  0  0  0  0  0  0  0  0  0
   -3.7567    6.4734  -15.4873 C   0  0  0  0  0  0  0  0  0  0  0  0
   -2.6673    5.5617  -14.8655 C   0  0  0  0  0  0  0  0  0  0  0  0
   -4.8169    5.5494  -16.2431 C   0  0  0  0  0  0  0  0  0  0  0  0
   -5.4139    6.0905  -17.5007 N   0  0  0  0  0  0  0  0  0  0  0  0
   -6.8934    5.8714  -17.3649 C   0  0  0  0  0  0  0  0  0  0  0  0
   -7.4589    4.5860  -18.0195 C   0  0  0  0  0  0  0  0  0  0  0  0
   -8.8609    4.2190  -17.5660 C   0  0  0  0  0  0  0  0  0  0  0  0
   -9.7323    5.1548  -18.0133 F   0  0  0  0  0  0  0  0  0  0  0  0
   -8.9539    4.1423  -16.0512 C   0  0  0  0  0  0  0  0  0  0  0  0
   -8.5403    5.4770  -15.4523 C   0  0  0  0  0  0  0  0  0  0  0  0
   -7.1162    5.9086  -15.8443 C   0  0  0  0  0  0  0  0  0  0  0  0
   -5.9803    5.0604  -15.4393 N   0  0  0  0  0  0  0  0  0  0  0  0
   -5.7317    5.0105  -14.0425 N   0  0  0  0  0  0  0  0  0  0  0  0
   -5.4998    6.3097  -13.4454 N   0  0  0  0  0  0  0  0  0  0  0  0
   -4.6374    7.3744  -14.1602 S   0  0  0  0  0  0  0  0  0  0  0  0
   -3.4008    7.8693  -12.9722 C   0  0  0  0  0  0  0  0  0  0  0  0
   -5.1571    8.6090  -14.7246 O   0  0  0  0  0  0  0  0  0  0  0  0
   -5.7183    4.1714  -13.5278 H   0  0  0  0  0  0  0  0  0  0  0  0
   -8.8328    5.7895  -13.9766 C   0  0  0  0  0  0  0  0  0  0  0  0
   -9.3524    6.8020  -13.6998 O   0  0  0  0  0  0  0  0  0  0  0  0
   -8.3279    4.6322  -13.0648 N   0  0  0  0  0  0  0  0  0  0  0  0
   -7.9910    3.8434  -13.5481 H   0  0  0  0  0  0  0  0  0  0  0  0
   -8.2757    4.5321  -11.6776 C   0  0  0  0  0  0  0  0  0  0  0  0
   -7.9326    5.6504  -10.8993 C   0  0  0  0  0  0  0  0  0  0  0  0
   -7.9629    5.5895   -9.5043 C   0  0  0  0  0  0  0  0  0  0  0  0
   -8.3593    4.4051   -8.9126 C   0  0  0  0  0  0  0  0  0  0  0  0
   -8.6868    3.2939   -9.6795 C   0  0  0  0  0  0  0  0  0  0  0  0
   -8.6279    3.3274  -11.0653 C   0  0  0  0  0  0  0  0  0  0  0  0
   -9.1343    2.1878   -8.7873 C   0  0  0  0  0  0  0  0  0  0  0  0
   -9.0216    2.6948   -7.3929 N   0  0  0  0  0  0  0  0  0  0  0  0
   -8.5644    4.0990   -7.4708 C   0  0  0  0  0  0  0  0  0  0  0  0
   -8.3456    2.1361   -6.8720 H   0  0  0  0  0  0  0  0  0  0  0  0
   -4.9280    5.4637  -18.7422 C   0  0  0  0  0  0  0  0  0  0  0  0
   -3.4878    4.4784  -18.4730 Cl  0  0  0  0  0  0  0  0  0  0  0  0
  1  2  1  0  0  0
  2  3  1  0  0  0
  2  4  1  0  0  0
  4  5  1  0  0  0
  5 34  1  0  0  0
 34 35  1  0  0  0
  5  6  1  0  0  0
  6  7  1  0  0  0
  7  8  1  0  0  0
  8  9  1  0  0  0
  8 10  1  0  0  0
 10 11  1  0  0  0
 11 20  1  0  0  0
 20 21  2  0  0  0
 20 22  1  0  0  0
 22 24  1  0  0  0
 24 25  2  0  0  0
 25 26  1  0  0  0
 26 27  2  0  0  0
 27 28  1  0  0  0
 28 29  2  0  0  0
 28 30  1  0  0  0
 30 31  1  0  0  0
 31 32  1  0  0  0
 11 12  1  0  0  0
 12 13  1  0  0  0
 13 14  1  0  0  0
 14 15  1  0  0  0
 15 16  2  0  0  0
 16 17  1  0  0  0
 16 18  2  0  0  0
 16  2  1  0  0  0
 13  4  1  0  0  0
 12  6  1  0  0  0
 29 24  1  0  0  0
 32 27  1  0  0  0
 22 23  1  0  0  0
 31 33  1  0  0  0
 14 19  1  0  0  0
M  END
> <minimizedAffinity>
-8.25384

> <minimizedRMSD>
0.60397

$$$$
P20273


 33 36  0  0  0  0  0  0  0  0999 V2000
   -7.6513    4.3767  -15.5926 C   0  0  0  0  0  0  0  0  0  0  0  0
   -8.9831    4.1496  -15.9492 C   0  0  0  0  0  0  0  0  0  0  0  0
   -9.3666    4.1865  -17.2887 C   0  0  0  0  0  0  0  0  0  0  0  0
  -10.6583    3.9919  -17.5928 F   0  0  0  0  0  0  0  0  0  0  0  0
   -8.4578    4.4439  -18.3183 C   0  0  0  0  0  0  0  0  0  0  0  0
   -7.1223    4.6794  -17.9684 C   0  0  0  0  0  0  0  0  0  0  0  0
   -6.0419    5.0118  -18.7516 N   0  0  0  0  0  0  0  0  0  0  0  0
   -5.0105    5.1319  -17.9329 C   0  0  0  0  0  0  0  0  0  0  0  0
   -5.4121    4.9265  -16.6316 N   0  0  0  0  0  0  0  0  0  0  0  0
   -6.7529    4.6358  -16.6331 C   0  0  0  0  0  0  0  0  0  0  0  0
   -4.8352    4.9793  -15.8356 H   0  0  0  0  0  0  0  0  0  0  0  0
   -8.3460    4.4467  -13.1778 N   0  0  0  0  0  0  0  0  0  0  0  0
   -7.1800    4.4793  -14.1898 C   0  0  0  0  0  0  0  0  0  0  0  0
   -6.0280    4.5645  -14.0155 O   0  0  0  0  0  0  0  0  0  0  0  0
   -9.2433    4.4465  -13.5828 H   0  0  0  0  0  0  0  0  0  0  0  0
   -7.7793    6.7840   -8.8309 C   0  0  0  0  0  0  0  0  0  0  0  0
   -8.0866    5.5550   -9.6262 C   0  0  0  0  0  0  0  0  0  0  0  0
   -8.0427    5.5689  -11.0313 C   0  0  0  0  0  0  0  0  0  0  0  0
   -8.3349    4.4174  -11.7843 C   0  0  0  0  0  0  0  0  0  0  0  0
   -8.6437    3.2195  -11.1424 C   0  0  0  0  0  0  0  0  0  0  0  0
   -8.6987    3.2156   -9.7601 C   0  0  0  0  0  0  0  0  0  0  0  0
   -8.4465    4.3639   -9.0121 C   0  0  0  0  0  0  0  0  0  0  0  0
   -8.6354    4.0377   -7.5645 C   0  0  0  0  0  0  0  0  0  0  0  0
   -9.3288    2.7284   -7.5382 N   0  0  0  0  0  0  0  0  0  0  0  0
   -8.9836    2.0847   -8.8319 C   0  0  0  0  0  0  0  0  0  0  0  0
  -10.3374    2.8584   -7.4602 H   0  0  0  0  0  0  0  0  0  0  0  0
   -3.6023    5.5316  -18.3255 C   0  0  0  0  0  0  0  0  0  0  0  0
   -3.6662    6.7536  -19.2531 C   0  0  0  0  0  0  0  0  0  0  0  0
   -2.9003    4.3699  -19.0459 C   0  0  0  0  0  0  0  0  0  0  0  0
   -2.7059    5.9376  -16.7813 S   0  0  0  0  0  0  0  0  0  0  0  0
   -1.0295    6.2802  -17.2677 C   0  0  0  0  0  0  0  0  0  0  0  0
   -2.6576    4.7603  -15.9344 O   0  0  0  0  0  0  0  0  0  0  0  0
   -3.2478    7.1819  -16.2597 O   0  0  0  0  0  0  0  0  0  0  0  0
 16 17  1  0  0  0
 17 18  2  0  0  0
 18 19  1  0  0  0
 19 12  1  0  0  0
 12 13  1  0  0  0
 13 14  2  0  0  0
 13  1  1  0  0  0
  1  2  2  0  0  0
  2  3  1  0  0  0
  3  4  1  0  0  0
  3  5  2  0  0  0
  5  6  1  0  0  0
  6  7  1  0  0  0
  7  8  2  0  0  0
  8 27  1  0  0  0
 27 28  1  0  0  0
 27 29  1  0  0  0
 27 30  1  0  0  0
 30 31  1  0  0  0
 30 32  2  0  0  0
 30 33  2  0  0  0
  8  9  1  0  0  0
  9 10  1  0  0  0
 19 20  2  0  0  0
 20 21  1  0  0  0
 21 22  2  0  0  0
 22 23  1  0  0  0
 23 24  1  0  0  0
 24 25  1  0  0  0
 22 17  1  0  0  0
 10  1  1  0  0  0
 25 21  1  0  0  0
 10  6  2  0  0  0
 12 15  1  0  0  0
  9 11  1  0  0  0
 24 26  1  0  0  0
M  END
> <minimizedAffinity>
-8.20319

> <minimizedRMSD>
1.78434

$$$$
P20274


 40 43  0  0  0  0  0  0  0  0999 V2000
   -6.7419    4.8410  -17.4403 C   0  0  0  0  0  0  0  0  0  0  0  0
   -7.6908    4.5027  -18.4072 C   0  0  0  0  0  0  0  0  0  0  0  0
   -9.0358    4.3629  -18.0551 C   0  0  0  0  0  0  0  0  0  0  0  0
   -9.9365    4.0551  -18.9992 F   0  0  0  0  0  0  0  0  0  0  0  0
   -9.4688    4.5405  -16.7463 C   0  0  0  0  0  0  0  0  0  0  0  0
   -8.5271    4.8511  -15.7701 C   0  0  0  0  0  0  0  0  0  0  0  0
   -7.1738    4.9725  -16.1171 C   0  0  0  0  0  0  0  0  0  0  0  0
   -8.8949    5.1584  -14.3619 C   0  0  0  0  0  0  0  0  0  0  0  0
   -9.6554    6.0751  -14.2232 O   0  0  0  0  0  0  0  0  0  0  0  0
   -8.2560    4.3145  -13.3930 N   0  0  0  0  0  0  0  0  0  0  0  0
   -7.7298    3.5767  -13.7779 H   0  0  0  0  0  0  0  0  0  0  0  0
   -8.2533    4.3612  -11.9973 C   0  0  0  0  0  0  0  0  0  0  0  0
   -7.8972    5.5361  -11.3094 C   0  0  0  0  0  0  0  0  0  0  0  0
   -7.9086    5.5976   -9.9067 C   0  0  0  0  0  0  0  0  0  0  0  0
   -7.5761    6.8703   -9.1930 C   0  0  0  0  0  0  0  0  0  0  0  0
   -8.3044    4.4573   -9.2214 C   0  0  0  0  0  0  0  0  0  0  0  0
   -8.6555    3.2942   -9.8989 C   0  0  0  0  0  0  0  0  0  0  0  0
   -8.6287    3.2220  -11.2839 C   0  0  0  0  0  0  0  0  0  0  0  0
   -9.0837    2.2534   -8.9223 C   0  0  0  0  0  0  0  0  0  0  0  0
   -8.8905    2.8373   -7.5691 N   0  0  0  0  0  0  0  0  0  0  0  0
   -8.4821    4.2455   -7.7560 C   0  0  0  0  0  0  0  0  0  0  0  0
   -8.1639    2.3261   -7.0682 H   0  0  0  0  0  0  0  0  0  0  0  0
   -5.3550    4.9273  -17.6664 N   0  0  0  0  0  0  0  0  0  0  0  0
   -4.7135    4.5163  -17.0428 H   0  0  0  0  0  0  0  0  0  0  0  0
   -2.2378    5.9088  -20.2491 C   0  0  0  0  0  0  0  0  0  0  0  0
   -2.8867    4.6537  -19.8232 N   0  0  0  0  0  0  0  0  0  0  0  0
   -4.3215    4.7705  -19.8993 N   0  0  0  0  0  0  0  0  0  0  0  0
   -4.8916    5.6502  -18.8626 C   0  0  0  0  0  0  0  0  0  0  0  0
   -3.8660    6.7570  -18.4180 C   0  0  0  0  0  0  0  0  0  0  0  0
   -2.9482    6.3050  -17.2421 C   0  0  0  0  0  0  0  0  0  0  0  0
   -2.9389    7.1620  -19.6323 C   0  0  0  0  0  0  0  0  0  0  0  0
   -3.6469    7.9100  -20.7744 C   0  0  0  0  0  0  0  0  0  0  0  0
   -2.6181    4.4477  -18.8610 H   0  0  0  0  0  0  0  0  0  0  0  0
   -4.7279    3.8409  -19.7941 H   0  0  0  0  0  0  0  0  0  0  0  0
   -4.7880    8.2502  -17.8371 S   0  0  0  0  0  0  0  0  0  0  0  0
   -5.0665    8.0767  -16.0882 C   0  0  0  0  0  0  0  0  0  0  0  0
   -6.1013    8.3104  -18.4638 O   0  0  0  0  0  0  0  0  0  0  0  0
   -3.9071    9.3988  -17.9851 O   0  0  0  0  0  0  0  0  0  0  0  0
   -0.1586    7.2768  -19.5736 C   0  0  0  0  0  0  0  0  0  0  0  0
   -0.7342    5.9030  -19.8886 C   0  0  0  0  0  0  0  0  0  0  0  0
 39 40  1  0  0  0
 25 40  1  0  0  0
 25 26  1  0  0  0
 26 27  1  0  0  0
 27 28  1  0  0  0
 28 23  1  0  0  0
 23  1  1  0  0  0
  1  2  2  0  0  0
  2  3  1  0  0  0
  3  4  1  0  0  0
  3  5  2  0  0  0
  5  6  1  0  0  0
  6  8  1  0  0  0
  8  9  2  0  0  0
  8 10  1  0  0  0
 10 12  1  0  0  0
 12 13  2  0  0  0
 13 14  1  0  0  0
 14 15  1  0  0  0
 14 16  2  0  0  0
 16 17  1  0  0  0
 17 18  2  0  0  0
 17 19  1  0  0  0
 19 20  1  0  0  0
 20 21  1  0  0  0
  6  7  2  0  0  0
 28 29  1  0  0  0
 29 30  1  0  0  0
 29 35  1  0  0  0
 35 36  1  0  0  0
 35 37  2  0  0  0
 35 38  2  0  0  0
 29 31  1  0  0  0
 31 32  1  0  0  0
 31 25  1  0  0  0
  7  1  1  0  0  0
 18 12  1  0  0  0
 21 16  1  0  0  0
 26 33  1  0  0  0
 27 34  1  0  0  0
 23 24  1  0  0  0
 10 11  1  0  0  0
 20 22  1  0  0  0
M  END
> <minimizedAffinity>
-8.76095

> <minimizedRMSD>
1.51017

$$$$
P20277


 36 39  0  0  0  0  0  0  0  0999 V2000
   -8.2082    4.9089  -12.8211 N   0  0  0  0  0  0  0  0  0  0  0  0
   -7.0516    5.0913  -13.8280 C   0  0  0  0  0  0  0  0  0  0  0  0
   -5.9237    5.3357  -13.6496 O   0  0  0  0  0  0  0  0  0  0  0  0
   -9.0944    4.7814  -13.2305 H   0  0  0  0  0  0  0  0  0  0  0  0
   -7.7618    7.3930  -10.9341 C   0  0  0  0  0  0  0  0  0  0  0  0
   -8.0159    5.9742  -10.5215 C   0  0  0  0  0  0  0  0  0  0  0  0
   -8.1101    5.7390   -9.1292 C   0  0  0  0  0  0  0  0  0  0  0  0
   -8.4512    4.4834   -8.6608 C   0  0  0  0  0  0  0  0  0  0  0  0
   -8.6403    3.4240   -9.5343 C   0  0  0  0  0  0  0  0  0  0  0  0
   -8.4550    3.5899  -10.8976 C   0  0  0  0  0  0  0  0  0  0  0  0
   -8.7483    2.5411  -11.8092 N   0  0  0  0  0  0  0  0  0  0  0  0
   -8.2021    4.8950  -11.4119 C   0  0  0  0  0  0  0  0  0  0  0  0
   -9.0290    2.2191   -8.7435 C   0  0  0  0  0  0  0  0  0  0  0  0
   -9.4089    2.7296   -7.3993 N   0  0  0  0  0  0  0  0  0  0  0  0
   -8.7044    4.0235   -7.2633 C   0  0  0  0  0  0  0  0  0  0  0  0
   -8.9258    1.6327  -11.4738 H   0  0  0  0  0  0  0  0  0  0  0  0
   -8.7742    2.7225  -12.7765 H   0  0  0  0  0  0  0  0  0  0  0  0
   -9.1086    2.0805   -6.6721 H   0  0  0  0  0  0  0  0  0  0  0  0
   -7.5051    4.9262  -15.2363 C   0  0  0  0  0  0  0  0  0  0  0  0
   -8.6481    4.2114  -15.6175 C   0  0  0  0  0  0  0  0  0  0  0  0
   -9.0558    4.1931  -16.9525 C   0  0  0  0  0  0  0  0  0  0  0  0
  -10.1919    3.5583  -17.2800 F   0  0  0  0  0  0  0  0  0  0  0  0
   -8.3374    4.8390  -17.9594 C   0  0  0  0  0  0  0  0  0  0  0  0
   -7.2025    5.5653  -17.5868 C   0  0  0  0  0  0  0  0  0  0  0  0
   -6.3622    6.3371  -18.3495 N   0  0  0  0  0  0  0  0  0  0  0  0
   -5.5273    6.9172  -17.5072 C   0  0  0  0  0  0  0  0  0  0  0  0
   -5.7619    6.4760  -16.2229 N   0  0  0  0  0  0  0  0  0  0  0  0
   -6.8266    5.6086  -16.2530 C   0  0  0  0  0  0  0  0  0  0  0  0
   -5.2536    6.7375  -15.4213 H   0  0  0  0  0  0  0  0  0  0  0  0
   -4.4572    7.9243  -17.8644 C   0  0  0  0  0  0  0  0  0  0  0  0
   -4.0394    7.7680  -19.3350 C   0  0  0  0  0  0  0  0  0  0  0  0
   -3.2296    7.7359  -16.9621 C   0  0  0  0  0  0  0  0  0  0  0  0
   -5.2166    9.5704  -17.6013 S   0  0  0  0  0  0  0  0  0  0  0  0
   -3.9505   10.7516  -18.0083 C   0  0  0  0  0  0  0  0  0  0  0  0
   -5.4773    9.7233  -16.1795 O   0  0  0  0  0  0  0  0  0  0  0  0
   -6.2917    9.7747  -18.5580 O   0  0  0  0  0  0  0  0  0  0  0  0
  5  6  1  0  0  0
  6  7  2  0  0  0
  7  8  1  0  0  0
  8  9  2  0  0  0
  9 10  1  0  0  0
 10 11  1  0  0  0
 10 12  2  0  0  0
 12  1  1  0  0  0
  1  2  1  0  0  0
  2  3  2  0  0  0
  2 19  1  0  0  0
 19 20  2  0  0  0
 20 21  1  0  0  0
 21 22  1  0  0  0
 21 23  2  0  0  0
 23 24  1  0  0  0
 24 25  1  0  0  0
 25 26  2  0  0  0
 26 30  1  0  0  0
 30 31  1  0  0  0
 30 32  1  0  0  0
 30 33  1  0  0  0
 33 34  1  0  0  0
 33 35  2  0  0  0
 33 36  2  0  0  0
 26 27  1  0  0  0
 27 28  1  0  0  0
  9 13  1  0  0  0
 13 14  1  0  0  0
 14 15  1  0  0  0
 12  6  1  0  0  0
 28 19  1  0  0  0
 15  8  1  0  0  0
 28 24  2  0  0  0
 11 16  1  0  0  0
 11 17  1  0  0  0
  1  4  1  0  0  0
 27 29  1  0  0  0
 14 18  1  0  0  0
M  END
> <minimizedAffinity>
-7.89720

> <minimizedRMSD>
1.10793

$$$$
P20284


 34 37  0  0  0  0  0  0  0  0999 V2000
   -5.0007    6.1446  -16.8236 C   0  0  0  0  0  0  0  0  0  0  0  0
   -5.6612    5.7409  -15.7498 N   0  0  0  0  0  0  0  0  0  0  0  0
   -6.7979    5.1175  -16.1888 C   0  0  0  0  0  0  0  0  0  0  0  0
   -7.8217    4.4756  -15.4801 C   0  0  0  0  0  0  0  0  0  0  0  0
   -8.9719    4.0551  -16.1536 C   0  0  0  0  0  0  0  0  0  0  0  0
   -9.0489    4.1898  -17.5330 C   0  0  0  0  0  0  0  0  0  0  0  0
  -10.1421    3.7447  -18.1695 F   0  0  0  0  0  0  0  0  0  0  0  0
   -7.9999    4.7274  -18.2814 C   0  0  0  0  0  0  0  0  0  0  0  0
   -6.8818    5.1902  -17.5727 C   0  0  0  0  0  0  0  0  0  0  0  0
   -5.6532    5.6923  -17.9600 N   0  0  0  0  0  0  0  0  0  0  0  0
   -3.7190    7.7517  -15.4017 C   0  0  0  0  0  0  0  0  0  0  0  0
   -3.7162    6.9434  -16.7204 C   0  0  0  0  0  0  0  0  0  0  0  0
   -3.4895    7.9518  -17.8541 C   0  0  0  0  0  0  0  0  0  0  0  0
   -2.3435    5.7377  -16.6931 S   0  0  0  0  0  0  0  0  0  0  0  0
   -2.8584    4.3803  -15.6575 C   0  0  0  0  0  0  0  0  0  0  0  0
   -1.2077    6.3633  -16.0348 O   0  0  0  0  0  0  0  0  0  0  0  0
   -2.1705    5.2049  -18.0349 O   0  0  0  0  0  0  0  0  0  0  0  0
   -5.1421    5.5562  -19.3094 C   0  0  0  0  0  0  0  0  0  0  0  0
   -5.6715    6.6044  -20.0994 O   0  0  0  0  0  0  0  0  0  0  0  0
   -6.6400    6.5513  -20.1001 H   0  0  0  0  0  0  0  0  0  0  0  0
   -7.6334    4.2213  -14.0506 C   0  0  0  0  0  0  0  0  0  0  0  0
   -6.8539    3.3622  -13.6637 O   0  0  0  0  0  0  0  0  0  0  0  0
   -8.3828    5.0972  -13.0755 C   0  0  0  0  0  0  0  0  0  0  0  0
   -9.0189    6.0571  -13.5026 O   0  0  0  0  0  0  0  0  0  0  0  0
   -8.2804    4.8432  -11.6272 C   0  0  0  0  0  0  0  0  0  0  0  0
   -7.9137    5.9242  -10.8015 C   0  0  0  0  0  0  0  0  0  0  0  0
   -7.9007    5.7802   -9.4143 C   0  0  0  0  0  0  0  0  0  0  0  0
   -8.2902    4.5624   -8.8833 C   0  0  0  0  0  0  0  0  0  0  0  0
   -8.6525    3.4955   -9.7004 C   0  0  0  0  0  0  0  0  0  0  0  0
   -8.6351    3.6048  -11.0825 C   0  0  0  0  0  0  0  0  0  0  0  0
   -9.0632    2.3373   -8.8559 C   0  0  0  0  0  0  0  0  0  0  0  0
   -8.9997    2.8036   -7.4439 N   0  0  0  0  0  0  0  0  0  0  0  0
   -8.4419    4.1713   -7.4543 C   0  0  0  0  0  0  0  0  0  0  0  0
   -8.3975    2.1858   -6.8996 H   0  0  0  0  0  0  0  0  0  0  0  0
 11 12  1  0  0  0
 12 13  1  0  0  0
 12  1  1  0  0  0
  1  2  2  0  0  0
  2  3  1  0  0  0
  3  4  2  0  0  0
  4 21  1  0  0  0
 21 22  2  0  0  0
 21 23  1  0  0  0
 23 24  2  0  0  0
 23 25  1  0  0  0
 25 26  2  0  0  0
 26 27  1  0  0  0
 27 28  2  0  0  0
 28 29  1  0  0  0
 29 30  2  0  0  0
 29 31  1  0  0  0
 31 32  1  0  0  0
 32 33  1  0  0  0
  4  5  1  0  0  0
  5  6  2  0  0  0
  6  7  1  0  0  0
  6  8  1  0  0  0
  8  9  2  0  0  0
  9 10  1  0  0  0
 10 18  1  0  0  0
 18 19  1  0  0  0
 12 14  1  0  0  0
 14 15  1  0  0  0
 14 16  2  0  0  0
 14 17  2  0  0  0
 10  1  1  0  0  0
  9  3  1  0  0  0
 30 25  1  0  0  0
 33 28  1  0  0  0
 32 34  1  0  0  0
 19 20  1  0  0  0
M  END
> <minimizedAffinity>
-7.21747

> <minimizedRMSD>
0.64251

$$$$
P20285


 34 37  0  0  0  0  0  0  0  0999 V2000
   -5.1383    5.8458  -17.2030 C   0  0  0  0  0  0  0  0  0  0  0  0
   -5.6570    5.4646  -16.0428 N   0  0  0  0  0  0  0  0  0  0  0  0
   -6.8907    4.9304  -16.3257 C   0  0  0  0  0  0  0  0  0  0  0  0
   -7.8414    4.2950  -15.5140 C   0  0  0  0  0  0  0  0  0  0  0  0
   -9.1021    3.9951  -16.0480 C   0  0  0  0  0  0  0  0  0  0  0  0
   -9.3792    4.2163  -17.3846 C   0  0  0  0  0  0  0  0  0  0  0  0
  -10.5831    3.8780  -17.8659 F   0  0  0  0  0  0  0  0  0  0  0  0
   -8.4189    4.7342  -18.2428 C   0  0  0  0  0  0  0  0  0  0  0  0
   -7.1841    5.0874  -17.6800 C   0  0  0  0  0  0  0  0  0  0  0  0
   -6.0193    5.5548  -18.2293 N   0  0  0  0  0  0  0  0  0  0  0  0
   -5.8077    5.6915  -19.6243 N   0  0  0  0  0  0  0  0  0  0  0  0
   -6.6451    5.3956  -20.1258 H   0  0  0  0  0  0  0  0  0  0  0  0
   -5.0188    5.1101  -19.9071 H   0  0  0  0  0  0  0  0  0  0  0  0
   -7.5465    3.8111  -14.1520 C   0  0  0  0  0  0  0  0  0  0  0  0
   -7.0730    2.7493  -14.0446 O   0  0  0  0  0  0  0  0  0  0  0  0
   -8.0306    4.8043  -13.0744 N   0  0  0  0  0  0  0  0  0  0  0  0
   -8.3251    5.6774  -13.4211 H   0  0  0  0  0  0  0  0  0  0  0  0
   -8.1189    4.6664  -11.6898 C   0  0  0  0  0  0  0  0  0  0  0  0
   -7.8998    5.7911  -10.8764 C   0  0  0  0  0  0  0  0  0  0  0  0
   -8.0296    5.7039   -9.4844 C   0  0  0  0  0  0  0  0  0  0  0  0
   -8.4128    4.4922   -8.9361 C   0  0  0  0  0  0  0  0  0  0  0  0
   -8.6438    3.3821   -9.7410 C   0  0  0  0  0  0  0  0  0  0  0  0
   -8.4827    3.4440  -11.1153 C   0  0  0  0  0  0  0  0  0  0  0  0
   -9.0562    2.2269   -8.8888 C   0  0  0  0  0  0  0  0  0  0  0  0
   -9.3641    2.8189   -7.5557 N   0  0  0  0  0  0  0  0  0  0  0  0
   -8.6391    4.1071   -7.5127 C   0  0  0  0  0  0  0  0  0  0  0  0
   -9.0399    2.2033   -6.8098 H   0  0  0  0  0  0  0  0  0  0  0  0
   -3.8989    7.9774  -17.7841 C   0  0  0  0  0  0  0  0  0  0  0  0
   -3.7814    6.5058  -17.3624 C   0  0  0  0  0  0  0  0  0  0  0  0
   -3.0219    6.4520  -16.0194 C   0  0  0  0  0  0  0  0  0  0  0  0
   -2.8718    5.5241  -18.6147 S   0  0  0  0  0  0  0  0  0  0  0  0
   -1.1537    5.6991  -18.1910 C   0  0  0  0  0  0  0  0  0  0  0  0
   -3.0246    6.1413  -19.9227 O   0  0  0  0  0  0  0  0  0  0  0  0
   -3.1856    4.1184  -18.4453 O   0  0  0  0  0  0  0  0  0  0  0  0
 28 29  1  0  0  0
 29 30  1  0  0  0
 29  1  1  0  0  0
  1  2  2  0  0  0
  2  3  1  0  0  0
  3  4  2  0  0  0
  4 14  1  0  0  0
 14 15  2  0  0  0
 14 16  1  0  0  0
 16 18  1  0  0  0
 18 19  2  0  0  0
 19 20  1  0  0  0
 20 21  2  0  0  0
 21 22  1  0  0  0
 22 23  2  0  0  0
 22 24  1  0  0  0
 24 25  1  0  0  0
 25 26  1  0  0  0
  4  5  1  0  0  0
  5  6  2  0  0  0
  6  7  1  0  0  0
  6  8  1  0  0  0
  8  9  2  0  0  0
  9 10  1  0  0  0
 10 11  1  0  0  0
 29 31  1  0  0  0
 31 32  1  0  0  0
 31 33  2  0  0  0
 31 34  2  0  0  0
 10  1  1  0  0  0
  9  3  1  0  0  0
 23 18  1  0  0  0
 26 21  1  0  0  0
 16 17  1  0  0  0
 25 27  1  0  0  0
 11 12  1  0  0  0
 11 13  1  0  0  0
M  END
> <minimizedAffinity>
-8.15427

> <minimizedRMSD>
1.28854

$$$$
P20292


 36 39  0  0  0  0  0  0  0  0999 V2000
   -7.6018    3.9411  -14.2356 C   0  0  0  0  0  0  0  0  0  0  0  0
   -7.5039    2.5580  -14.0115 O   0  0  0  0  0  0  0  0  0  0  0  0
   -6.3649    4.5205  -13.8962 O   0  0  0  0  0  0  0  0  0  0  0  0
   -8.2384    2.0024  -14.1839 H   0  0  0  0  0  0  0  0  0  0  0  0
   -6.2416    5.4454  -13.9820 H   0  0  0  0  0  0  0  0  0  0  0  0
   -7.8746    4.2222  -15.7082 C   0  0  0  0  0  0  0  0  0  0  0  0
   -9.1855    4.1432  -16.2303 C   0  0  0  0  0  0  0  0  0  0  0  0
   -9.4589    4.3091  -17.5844 C   0  0  0  0  0  0  0  0  0  0  0  0
  -10.7237    4.1794  -18.0128 F   0  0  0  0  0  0  0  0  0  0  0  0
   -8.4520    4.6104  -18.4956 C   0  0  0  0  0  0  0  0  0  0  0  0
   -7.1535    4.7836  -18.0055 C   0  0  0  0  0  0  0  0  0  0  0  0
   -6.0063    5.1626  -18.6635 N   0  0  0  0  0  0  0  0  0  0  0  0
   -5.0383    5.1436  -17.7627 C   0  0  0  0  0  0  0  0  0  0  0  0
   -5.5484    4.7977  -16.5316 N   0  0  0  0  0  0  0  0  0  0  0  0
   -6.8998    4.5806  -16.6570 C   0  0  0  0  0  0  0  0  0  0  0  0
   -5.0302    4.7189  -15.6982 H   0  0  0  0  0  0  0  0  0  0  0  0
   -3.5949    5.5336  -18.0197 C   0  0  0  0  0  0  0  0  0  0  0  0
   -3.5711    6.8896  -18.7405 C   0  0  0  0  0  0  0  0  0  0  0  0
   -2.9121    4.4684  -18.8927 C   0  0  0  0  0  0  0  0  0  0  0  0
   -2.7413    5.6507  -16.4062 S   0  0  0  0  0  0  0  0  0  0  0  0
   -1.0188    5.8978  -16.7763 C   0  0  0  0  0  0  0  0  0  0  0  0
   -3.2008    6.8596  -15.7414 O   0  0  0  0  0  0  0  0  0  0  0  0
   -2.8402    4.3744  -15.7225 O   0  0  0  0  0  0  0  0  0  0  0  0
   -8.6468    4.5586  -13.4580 N   0  0  0  0  0  0  0  0  0  0  0  0
   -9.4519    4.9244  -13.8906 H   0  0  0  0  0  0  0  0  0  0  0  0
   -7.9268    7.1110  -12.2195 C   0  0  0  0  0  0  0  0  0  0  0  0
   -8.1201    5.8456  -11.4264 C   0  0  0  0  0  0  0  0  0  0  0  0
   -7.9774    5.9000  -10.0278 C   0  0  0  0  0  0  0  0  0  0  0  0
   -8.2149    4.7570   -9.2855 C   0  0  0  0  0  0  0  0  0  0  0  0
   -8.5621    3.5656   -9.9002 C   0  0  0  0  0  0  0  0  0  0  0  0
   -8.6730    3.4735  -11.2779 C   0  0  0  0  0  0  0  0  0  0  0  0
   -8.4812    4.6229  -12.0589 C   0  0  0  0  0  0  0  0  0  0  0  0
   -8.8179    2.5210   -8.8699 C   0  0  0  0  0  0  0  0  0  0  0  0
   -8.6206    3.1789   -7.5473 N   0  0  0  0  0  0  0  0  0  0  0  0
   -8.2069    4.5735   -7.8085 C   0  0  0  0  0  0  0  0  0  0  0  0
   -7.8954    2.6926   -7.0200 H   0  0  0  0  0  0  0  0  0  0  0  0
 26 27  1  0  0  0
 27 28  2  0  0  0
 28 29  1  0  0  0
 29 30  2  0  0  0
 30 31  1  0  0  0
 31 32  2  0  0  0
 32 24  1  0  0  0
 24  1  1  0  0  0
  1  2  1  0  0  0
  1  3  1  0  0  0
  1  6  1  0  0  0
  6  7  2  0  0  0
  7  8  1  0  0  0
  8  9  1  0  0  0
  8 10  2  0  0  0
 10 11  1  0  0  0
 11 12  1  0  0  0
 12 13  2  0  0  0
 13 17  1  0  0  0
 17 18  1  0  0  0
 17 19  1  0  0  0
 17 20  1  0  0  0
 20 21  1  0  0  0
 20 22  2  0  0  0
 20 23  2  0  0  0
 13 14  1  0  0  0
 14 15  1  0  0  0
 30 33  1  0  0  0
 33 34  1  0  0  0
 34 35  1  0  0  0
 32 27  1  0  0  0
 15  6  1  0  0  0
 35 29  1  0  0  0
 15 11  2  0  0  0
 24 25  1  0  0  0
  2  4  1  0  0  0
  3  5  1  0  0  0
 14 16  1  0  0  0
 34 36  1  0  0  0
M  END
> <minimizedAffinity>
-8.29144

> <minimizedRMSD>
1.68626

$$$$
P20294


 36 39  0  0  0  0  0  0  0  0999 V2000
   -5.2017    5.3249  -17.7357 C   0  0  0  0  0  0  0  0  0  0  0  0
   -6.2195    5.3720  -18.5721 N   0  0  0  0  0  0  0  0  0  0  0  0
   -7.3200    4.9161  -17.8886 C   0  0  0  0  0  0  0  0  0  0  0  0
   -8.6358    4.7069  -18.3257 C   0  0  0  0  0  0  0  0  0  0  0  0
   -9.5821    4.2723  -17.3957 C   0  0  0  0  0  0  0  0  0  0  0  0
  -10.8556    4.0903  -17.7730 F   0  0  0  0  0  0  0  0  0  0  0  0
   -9.2416    4.0301  -16.0746 C   0  0  0  0  0  0  0  0  0  0  0  0
   -7.9229    4.1823  -15.6474 C   0  0  0  0  0  0  0  0  0  0  0  0
   -6.9842    4.6475  -16.5690 C   0  0  0  0  0  0  0  0  0  0  0  0
   -5.6377    4.8913  -16.4986 N   0  0  0  0  0  0  0  0  0  0  0  0
   -5.0746    4.7765  -15.6992 H   0  0  0  0  0  0  0  0  0  0  0  0
   -7.5705    3.8330  -14.2633 C   0  0  0  0  0  0  0  0  0  0  0  0
   -6.8961    2.9035  -14.0608 O   0  0  0  0  0  0  0  0  0  0  0  0
   -8.2870    4.7836  -13.2789 N   0  0  0  0  0  0  0  0  0  0  0  0
   -8.8659    5.4571  -13.7038 H   0  0  0  0  0  0  0  0  0  0  0  0
   -8.2474    4.8427  -11.8908 C   0  0  0  0  0  0  0  0  0  0  0  0
   -7.9419    6.0556  -11.2525 C   0  0  0  0  0  0  0  0  0  0  0  0
   -7.9047    6.1351   -9.8546 C   0  0  0  0  0  0  0  0  0  0  0  0
   -8.2202    5.0029   -9.1260 C   0  0  0  0  0  0  0  0  0  0  0  0
   -8.5823    3.8236   -9.7623 C   0  0  0  0  0  0  0  0  0  0  0  0
   -8.5705    3.7133  -11.1422 C   0  0  0  0  0  0  0  0  0  0  0  0
   -8.9818    2.8135   -8.7461 C   0  0  0  0  0  0  0  0  0  0  0  0
   -8.1995    1.6331   -8.8590 N   0  0  0  0  0  0  0  0  0  0  0  0
   -8.6036    3.3622   -7.4445 N   0  0  0  0  0  0  0  0  0  0  0  0
   -8.2826    4.7903   -7.6524 C   0  0  0  0  0  0  0  0  0  0  0  0
   -7.2138    1.8657   -8.7381 H   0  0  0  0  0  0  0  0  0  0  0  0
   -8.3405    1.2186   -9.7803 H   0  0  0  0  0  0  0  0  0  0  0  0
   -7.7881    2.8695   -7.0806 H   0  0  0  0  0  0  0  0  0  0  0  0
   -3.7489    5.6393  -18.0175 C   0  0  0  0  0  0  0  0  0  0  0  0
   -2.9486    4.3487  -18.2839 C   0  0  0  0  0  0  0  0  0  0  0  0
   -3.0130    6.4624  -16.5096 S   0  0  0  0  0  0  0  0  0  0  0  0
   -2.2693    5.1878  -15.5092 C   0  0  0  0  0  0  0  0  0  0  0  0
   -1.9065    7.2894  -16.9716 O   0  0  0  0  0  0  0  0  0  0  0  0
   -4.0584    7.0902  -15.7203 O   0  0  0  0  0  0  0  0  0  0  0  0
   -2.7148    6.2422  -20.3474 C   0  0  0  0  0  0  0  0  0  0  0  0
   -3.6022    6.6606  -19.1804 C   0  0  0  0  0  0  0  0  0  0  0  0
 35 36  1  0  0  0
 36 29  1  0  0  0
 29 30  1  0  0  0
 29  1  1  0  0  0
  1  2  2  0  0  0
  2  3  1  0  0  0
  3  4  2  0  0  0
  4  5  1  0  0  0
  5  6  1  0  0  0
  5  7  2  0  0  0
  7  8  1  0  0  0
  8 12  1  0  0  0
 12 13  2  0  0  0
 12 14  1  0  0  0
 14 16  1  0  0  0
 16 17  2  0  0  0
 17 18  1  0  0  0
 18 19  2  0  0  0
 19 20  1  0  0  0
 20 21  2  0  0  0
 20 22  1  0  0  0
 22 23  1  0  0  0
 22 24  1  0  0  0
 24 25  1  0  0  0
  8  9  2  0  0  0
  9 10  1  0  0  0
 29 31  1  0  0  0
 31 32  1  0  0  0
 31 33  2  0  0  0
 31 34  2  0  0  0
 10  1  1  0  0  0
  9  3  1  0  0  0
 21 16  1  0  0  0
 25 19  1  0  0  0
 14 15  1  0  0  0
 23 26  1  0  0  0
 23 27  1  0  0  0
 24 28  1  0  0  0
 10 11  1  0  0  0
M  END
> <minimizedAffinity>
-8.13193

> <minimizedRMSD>
2.26114

$$$$
P20295


 36 40  0  0  0  0  0  0  0  0999 V2000
   -4.2972    4.8493  -16.4064 C   0  0  0  0  0  0  0  0  0  0  0  0
   -4.9388    4.1514  -15.1850 N   0  0  0  0  0  0  0  0  0  0  0  0
   -6.3270    4.2626  -15.3526 C   0  0  0  0  0  0  0  0  0  0  0  0
   -7.4646    3.8716  -14.6908 C   0  0  0  0  0  0  0  0  0  0  0  0
   -8.7377    4.0313  -15.3325 C   0  0  0  0  0  0  0  0  0  0  0  0
   -8.8581    4.4976  -16.6672 C   0  0  0  0  0  0  0  0  0  0  0  0
  -10.0665    4.5772  -17.2374 F   0  0  0  0  0  0  0  0  0  0  0  0
   -7.7121    4.8500  -17.3213 C   0  0  0  0  0  0  0  0  0  0  0  0
   -7.2822    5.2694  -18.5882 N   0  0  0  0  0  0  0  0  0  0  0  0
   -5.8394    5.3506  -18.5866 C   0  0  0  0  0  0  0  0  0  0  0  0
   -5.1191    5.5503  -19.5476 O   0  0  0  0  0  0  0  0  0  0  0  0
   -5.4534    5.1219  -17.2652 N   0  0  0  0  0  0  0  0  0  0  0  0
   -6.5707    4.7478  -16.5925 C   0  0  0  0  0  0  0  0  0  0  0  0
   -4.4671    3.7158  -14.4387 H   0  0  0  0  0  0  0  0  0  0  0  0
   -7.8671    5.4747  -19.3531 H   0  0  0  0  0  0  0  0  0  0  0  0
   -7.4373    3.2853  -13.3362 C   0  0  0  0  0  0  0  0  0  0  0  0
   -7.0823    2.1834  -13.1870 O   0  0  0  0  0  0  0  0  0  0  0  0
   -8.0188    4.2982  -12.3208 N   0  0  0  0  0  0  0  0  0  0  0  0
   -8.3163    5.1506  -12.7133 H   0  0  0  0  0  0  0  0  0  0  0  0
   -8.1896    4.1999  -10.9422 C   0  0  0  0  0  0  0  0  0  0  0  0
   -7.9921    5.3497  -10.1557 C   0  0  0  0  0  0  0  0  0  0  0  0
   -8.1919    5.3127   -8.7714 C   0  0  0  0  0  0  0  0  0  0  0  0
   -8.6191    4.1256   -8.2042 C   0  0  0  0  0  0  0  0  0  0  0  0
   -8.8435    3.0004   -8.9865 C   0  0  0  0  0  0  0  0  0  0  0  0
   -8.6137    3.0093  -10.3531 C   0  0  0  0  0  0  0  0  0  0  0  0
   -9.3906    1.9009   -8.1433 C   0  0  0  0  0  0  0  0  0  0  0  0
   -9.3423    2.3918   -6.7362 N   0  0  0  0  0  0  0  0  0  0  0  0
   -8.9492    3.8163   -6.7853 C   0  0  0  0  0  0  0  0  0  0  0  0
   -8.6562    1.8578   -6.2029 H   0  0  0  0  0  0  0  0  0  0  0  0
   -2.4836    5.5603  -14.8101 C   0  0  0  0  0  0  0  0  0  0  0  0
   -3.4188    6.0421  -15.9435 C   0  0  0  0  0  0  0  0  0  0  0  0
   -4.2519    7.2228  -15.4011 C   0  0  0  0  0  0  0  0  0  0  0  0
   -2.3875    6.6957  -17.3008 S   0  0  0  0  0  0  0  0  0  0  0  0
   -2.0034    5.3221  -18.3706 C   0  0  0  0  0  0  0  0  0  0  0  0
   -3.1629    7.6799  -18.0320 O   0  0  0  0  0  0  0  0  0  0  0  0
   -1.1212    7.1137  -16.7192 O   0  0  0  0  0  0  0  0  0  0  0  0
 30 31  1  0  0  0
 31 32  1  0  0  0
  1 31  1  0  0  0
  1  2  1  0  0  0
  2  3  1  0  0  0
  3  4  2  0  0  0
  4 16  1  0  0  0
 16 17  2  0  0  0
 16 18  1  0  0  0
 18 20  1  0  0  0
 20 21  2  0  0  0
 21 22  1  0  0  0
 22 23  2  0  0  0
 23 24  1  0  0  0
 24 25  2  0  0  0
 24 26  1  0  0  0
 26 27  1  0  0  0
 27 28  1  0  0  0
  4  5  1  0  0  0
  5  6  2  0  0  0
  6  7  1  0  0  0
  6  8  1  0  0  0
  8  9  1  0  0  0
  9 10  1  0  0  0
 10 11  2  0  0  0
 10 12  1  0  0  0
 12 13  1  0  0  0
 31 33  1  0  0  0
 33 34  1  0  0  0
 33 35  2  0  0  0
 33 36  2  0  0  0
 12  1  1  0  0  0
 13  3  1  0  0  0
 25 20  1  0  0  0
 13  8  2  0  0  0
 28 23  1  0  0  0
  2 14  1  0  0  0
 18 19  1  0  0  0
 27 29  1  0  0  0
  9 15  1  0  0  0
M  END
> <minimizedAffinity>
-8.32987

> <minimizedRMSD>
1.40336

$$$$
P20297


 41 44  0  0  0  0  0  0  0  0999 V2000
   -7.2241    4.1418  -13.6510 C   0  0  0  0  0  0  0  0  0  0  0  0
   -6.4144    5.1820  -13.1112 O   0  0  0  0  0  0  0  0  0  0  0  0
   -6.2540    5.0115  -12.1699 H   0  0  0  0  0  0  0  0  0  0  0  0
   -7.4538    4.4441  -15.1279 C   0  0  0  0  0  0  0  0  0  0  0  0
   -8.6738    4.1341  -15.7791 C   0  0  0  0  0  0  0  0  0  0  0  0
   -8.8430    4.2817  -17.1525 C   0  0  0  0  0  0  0  0  0  0  0  0
  -10.0002    3.9082  -17.7140 F   0  0  0  0  0  0  0  0  0  0  0  0
   -7.8379    4.7893  -17.9615 C   0  0  0  0  0  0  0  0  0  0  0  0
   -6.6465    5.1169  -17.3240 C   0  0  0  0  0  0  0  0  0  0  0  0
   -5.4679    5.6132  -17.8124 N   0  0  0  0  0  0  0  0  0  0  0  0
   -4.5412    5.6105  -16.7926 C   0  0  0  0  0  0  0  0  0  0  0  0
   -5.1158    5.2512  -15.6600 N   0  0  0  0  0  0  0  0  0  0  0  0
   -6.4235    4.9338  -15.9650 C   0  0  0  0  0  0  0  0  0  0  0  0
   -5.3095    5.9196  -18.7345 H   0  0  0  0  0  0  0  0  0  0  0  0
   -3.0858    5.9985  -16.9556 C   0  0  0  0  0  0  0  0  0  0  0  0
   -2.2206    5.2132  -15.9587 C   0  0  0  0  0  0  0  0  0  0  0  0
   -2.9321    7.5045  -16.7054 C   0  0  0  0  0  0  0  0  0  0  0  0
   -2.6017    5.5786  -18.6700 S   0  0  0  0  0  0  0  0  0  0  0  0
   -0.8249    5.6574  -18.7225 C   0  0  0  0  0  0  0  0  0  0  0  0
   -2.9745    4.2056  -18.9534 O   0  0  0  0  0  0  0  0  0  0  0  0
   -3.0999    6.6342  -19.5393 O   0  0  0  0  0  0  0  0  0  0  0  0
   -4.9818    3.0575  -13.2170 N   0  0  0  0  0  0  0  0  0  0  0  0
   -6.4709    2.7199  -13.5490 C   0  0  0  0  0  0  0  0  0  0  0  0
   -7.0029    1.6838  -13.6827 O   0  0  0  0  0  0  0  0  0  0  0  0
   -4.7630    4.0172  -13.2332 H   0  0  0  0  0  0  0  0  0  0  0  0
   -3.8817    2.1954  -12.8925 C   0  0  0  0  0  0  0  0  0  0  0  0
   -2.4294    1.2152  -11.0968 C   0  0  0  0  0  0  0  0  0  0  0  0
   -3.5696    2.1912  -11.3901 C   0  0  0  0  0  0  0  0  0  0  0  0
   -4.7927    1.8343  -10.5405 C   0  0  0  0  0  0  0  0  0  0  0  0
   -8.5062    4.0916  -12.9144 N   0  0  0  0  0  0  0  0  0  0  0  0
   -9.3648    4.0269  -13.3917 H   0  0  0  0  0  0  0  0  0  0  0  0
   -8.4574    4.1398  -11.5053 C   0  0  0  0  0  0  0  0  0  0  0  0
   -8.1150    5.3324  -10.8324 C   0  0  0  0  0  0  0  0  0  0  0  0
   -8.0893    5.4044   -9.4355 C   0  0  0  0  0  0  0  0  0  0  0  0
   -8.4376    4.2746   -8.7203 C   0  0  0  0  0  0  0  0  0  0  0  0
   -8.7855    3.0995   -9.3702 C   0  0  0  0  0  0  0  0  0  0  0  0
   -8.7786    3.0063  -10.7520 C   0  0  0  0  0  0  0  0  0  0  0  0
   -9.2040    2.0754   -8.3751 C   0  0  0  0  0  0  0  0  0  0  0  0
   -8.9771    2.6804   -7.0330 N   0  0  0  0  0  0  0  0  0  0  0  0
   -8.5818    4.0889   -7.2508 C   0  0  0  0  0  0  0  0  0  0  0  0
   -8.2340    2.1802   -6.5450 H   0  0  0  0  0  0  0  0  0  0  0  0
 27 28  1  0  0  0
 28 29  1  0  0  0
 28 26  1  0  0  0
 26 22  1  0  0  0
 22 23  1  0  0  0
 23 24  2  0  0  0
 23  1  1  0  0  0
  1  2  1  0  0  0
  1 30  1  0  0  0
 30 32  1  0  0  0
 32 33  2  0  0  0
 33 34  1  0  0  0
 34 35  2  0  0  0
 35 36  1  0  0  0
 36 37  2  0  0  0
 36 38  1  0  0  0
 38 39  1  0  0  0
 39 40  1  0  0  0
  1  4  1  0  0  0
  4  5  2  0  0  0
  5  6  1  0  0  0
  6  7  1  0  0  0
  6  8  2  0  0  0
  8  9  1  0  0  0
  9 10  1  0  0  0
 10 11  1  0  0  0
 11 15  1  0  0  0
 15 16  1  0  0  0
 15 17  1  0  0  0
 15 18  1  0  0  0
 18 19  1  0  0  0
 18 20  2  0  0  0
 18 21  2  0  0  0
 11 12  2  0  0  0
 12 13  1  0  0  0
 37 32  1  0  0  0
 13  4  1  0  0  0
 40 35  1  0  0  0
 13  9  2  0  0  0
 22 25  1  0  0  0
  2  3  1  0  0  0
 30 31  1  0  0  0
 39 41  1  0  0  0
 10 14  1  0  0  0
M  END
> <minimizedAffinity>
-8.25273

> <minimizedRMSD>
0.35732

$$$$
P20299


 48 52  0  0  0  0  0  0  0  0999 V2000
   -7.1812    4.1984  -13.5733 C   0  0  0  0  0  0  0  0  0  0  0  0
   -6.4496    5.2856  -12.9912 O   0  0  0  0  0  0  0  0  0  0  0  0
   -6.3308    5.1241  -12.0422 H   0  0  0  0  0  0  0  0  0  0  0  0
   -7.3807    4.4341  -15.0767 C   0  0  0  0  0  0  0  0  0  0  0  0
   -8.6425    4.2669  -15.6982 C   0  0  0  0  0  0  0  0  0  0  0  0
   -8.8201    4.3547  -17.0772 C   0  0  0  0  0  0  0  0  0  0  0  0
  -10.0452    4.1848  -17.5951 F   0  0  0  0  0  0  0  0  0  0  0  0
   -7.7561    4.5909  -17.9332 C   0  0  0  0  0  0  0  0  0  0  0  0
   -6.5257    4.8170  -17.3273 C   0  0  0  0  0  0  0  0  0  0  0  0
   -5.2973    5.1154  -17.8502 N   0  0  0  0  0  0  0  0  0  0  0  0
   -4.4345    5.3789  -16.8064 C   0  0  0  0  0  0  0  0  0  0  0  0
   -5.0214    5.1079  -15.6517 N   0  0  0  0  0  0  0  0  0  0  0  0
   -6.3261    4.7660  -15.9557 C   0  0  0  0  0  0  0  0  0  0  0  0
   -5.0682    5.1382  -18.8074 H   0  0  0  0  0  0  0  0  0  0  0  0
   -3.0520    5.9664  -17.0130 C   0  0  0  0  0  0  0  0  0  0  0  0
   -2.0611    5.3707  -16.0085 C   0  0  0  0  0  0  0  0  0  0  0  0
   -3.0910    7.4917  -16.8166 C   0  0  0  0  0  0  0  0  0  0  0  0
   -2.5827    5.5660  -18.7333 S   0  0  0  0  0  0  0  0  0  0  0  0
   -0.8138    5.7387  -18.8134 C   0  0  0  0  0  0  0  0  0  0  0  0
   -2.8723    4.1715  -19.0057 O   0  0  0  0  0  0  0  0  0  0  0  0
   -3.1418    6.6009  -19.5907 O   0  0  0  0  0  0  0  0  0  0  0  0
   -5.0516    3.1822  -12.6719 N   0  0  0  0  0  0  0  0  0  0  0  0
   -6.3811    2.8045  -13.3695 C   0  0  0  0  0  0  0  0  0  0  0  0
   -6.7895    1.7634  -13.7070 O   0  0  0  0  0  0  0  0  0  0  0  0
   -4.9053    4.1492  -12.5593 H   0  0  0  0  0  0  0  0  0  0  0  0
   -3.9936    2.3485  -12.1607 C   0  0  0  0  0  0  0  0  0  0  0  0
   -2.6822    1.9069  -13.3142 S   0  0  0  0  0  0  0  0  0  0  0  0
   -2.0143    0.7163  -12.8261 O   0  0  0  0  0  0  0  0  0  0  0  0
   -3.1635    1.9509  -14.6839 O   0  0  0  0  0  0  0  0  0  0  0  0
    1.3463    6.3803  -12.4746 C   0  0  0  0  0  0  0  0  0  0  0  0
    0.3582    5.2685  -12.6694 C   0  0  0  0  0  0  0  0  0  0  0  0
    0.7109    4.1276  -13.4008 C   0  0  0  0  0  0  0  0  0  0  0  0
   -0.2182    3.1145  -13.6461 C   0  0  0  0  0  0  0  0  0  0  0  0
   -1.5031    3.2296  -13.1202 C   0  0  0  0  0  0  0  0  0  0  0  0
   -1.8655    4.3491  -12.3656 C   0  0  0  0  0  0  0  0  0  0  0  0
   -0.9411    5.3749  -12.1612 C   0  0  0  0  0  0  0  0  0  0  0  0
   -8.4897    4.0727  -12.8945 N   0  0  0  0  0  0  0  0  0  0  0  0
   -9.3345    3.9731  -13.3901 H   0  0  0  0  0  0  0  0  0  0  0  0
   -8.4381    4.1061  -11.4765 C   0  0  0  0  0  0  0  0  0  0  0  0
   -8.1066    5.2963  -10.7984 C   0  0  0  0  0  0  0  0  0  0  0  0
   -8.1272    5.3711   -9.4017 C   0  0  0  0  0  0  0  0  0  0  0  0
   -8.4903    4.2414   -8.6930 C   0  0  0  0  0  0  0  0  0  0  0  0
   -8.7982    3.0571   -9.3467 C   0  0  0  0  0  0  0  0  0  0  0  0
   -8.7596    2.9638  -10.7294 C   0  0  0  0  0  0  0  0  0  0  0  0
   -9.2195    2.0295   -8.3548 C   0  0  0  0  0  0  0  0  0  0  0  0
   -9.0679    2.6549   -7.0120 N   0  0  0  0  0  0  0  0  0  0  0  0
   -8.6881    4.0675   -7.2285 C   0  0  0  0  0  0  0  0  0  0  0  0
   -8.3402    2.1744   -6.4828 H   0  0  0  0  0  0  0  0  0  0  0  0
 30 31  1  0  0  0
 31 32  2  0  0  0
 32 33  1  0  0  0
 33 34  2  0  0  0
 34 27  1  0  0  0
 27 28  2  0  0  0
 27 29  2  0  0  0
 27 26  1  0  0  0
 26 22  1  0  0  0
 22 23  1  0  0  0
 23 24  2  0  0  0
 23  1  1  0  0  0
  1  2  1  0  0  0
  1 37  1  0  0  0
 37 39  1  0  0  0
 39 40  2  0  0  0
 40 41  1  0  0  0
 41 42  2  0  0  0
 42 43  1  0  0  0
 43 44  2  0  0  0
 43 45  1  0  0  0
 45 46  1  0  0  0
 46 47  1  0  0  0
  1  4  1  0  0  0
  4  5  2  0  0  0
  5  6  1  0  0  0
  6  7  1  0  0  0
  6  8  2  0  0  0
  8  9  1  0  0  0
  9 10  1  0  0  0
 10 11  1  0  0  0
 11 15  1  0  0  0
 15 16  1  0  0  0
 15 17  1  0  0  0
 15 18  1  0  0  0
 18 19  1  0  0  0
 18 20  2  0  0  0
 18 21  2  0  0  0
 11 12  2  0  0  0
 12 13  1  0  0  0
 34 35  1  0  0  0
 35 36  2  0  0  0
 36 31  1  0  0  0
 44 39  1  0  0  0
 13  4  1  0  0  0
 47 42  1  0  0  0
 13  9  2  0  0  0
 22 25  1  0  0  0
  2  3  1  0  0  0
 37 38  1  0  0  0
 46 48  1  0  0  0
 10 14  1  0  0  0
M  END
> <minimizedAffinity>
-8.70257

> <minimizedRMSD>
1.42614

$$$$
P20302


 36 40  0  0  0  0  0  0  0  0999 V2000
   -4.9503    6.9936  -18.7595 C   0  0  0  0  0  0  0  0  0  0  0  0
   -3.9129    7.0463  -19.8986 C   0  0  0  0  0  0  0  0  0  0  0  0
   -2.5548    6.4665  -19.4990 C   0  0  0  0  0  0  0  0  0  0  0  0
   -2.6621    5.3031  -18.5136 C   0  0  0  0  0  0  0  0  0  0  0  0
   -3.9923    4.5745  -18.6521 C   0  0  0  0  0  0  0  0  0  0  0  0
   -5.2020    5.4995  -18.3525 C   0  0  0  0  0  0  0  0  0  0  0  0
   -6.3312    4.9992  -19.1605 N   0  0  0  0  0  0  0  0  0  0  0  0
   -7.3536    4.7627  -18.2239 C   0  0  0  0  0  0  0  0  0  0  0  0
   -8.6478    4.3820  -18.5074 C   0  0  0  0  0  0  0  0  0  0  0  0
   -9.4754    4.0712  -17.4373 C   0  0  0  0  0  0  0  0  0  0  0  0
  -10.7488    3.7275  -17.6777 F   0  0  0  0  0  0  0  0  0  0  0  0
   -9.0086    4.1057  -16.1174 C   0  0  0  0  0  0  0  0  0  0  0  0
   -7.6921    4.5083  -15.8478 C   0  0  0  0  0  0  0  0  0  0  0  0
   -6.8759    4.8522  -16.9221 C   0  0  0  0  0  0  0  0  0  0  0  0
   -5.5622    5.3870  -16.9242 N   0  0  0  0  0  0  0  0  0  0  0  0
   -6.3619    4.8621  -20.1349 H   0  0  0  0  0  0  0  0  0  0  0  0
   -5.0115    5.6298  -16.1451 H   0  0  0  0  0  0  0  0  0  0  0  0
   -7.1915    4.6216  -14.4491 C   0  0  0  0  0  0  0  0  0  0  0  0
   -6.0419    4.7545  -14.2826 O   0  0  0  0  0  0  0  0  0  0  0  0
   -8.3433    4.4537  -13.4227 N   0  0  0  0  0  0  0  0  0  0  0  0
   -9.2273    4.2806  -13.8199 H   0  0  0  0  0  0  0  0  0  0  0  0
   -8.3297    4.5080  -12.0286 C   0  0  0  0  0  0  0  0  0  0  0  0
   -7.9750    5.6901  -11.3572 C   0  0  0  0  0  0  0  0  0  0  0  0
   -7.9519    5.7452   -9.9598 C   0  0  0  0  0  0  0  0  0  0  0  0
   -8.2907    4.6061   -9.2541 C   0  0  0  0  0  0  0  0  0  0  0  0
   -8.6487    3.4366   -9.9120 C   0  0  0  0  0  0  0  0  0  0  0  0
   -8.6699    3.3646  -11.2985 C   0  0  0  0  0  0  0  0  0  0  0  0
   -9.0064    2.3928   -8.9099 C   0  0  0  0  0  0  0  0  0  0  0  0
   -8.7499    2.9872   -7.5701 N   0  0  0  0  0  0  0  0  0  0  0  0
   -8.3809    4.4027   -7.7822 C   0  0  0  0  0  0  0  0  0  0  0  0
   -7.9863    2.4926   -7.1088 H   0  0  0  0  0  0  0  0  0  0  0  0
   -4.5687    7.9312  -17.5981 C   0  0  0  0  0  0  0  0  0  0  0  0
   -5.3667   10.2746  -16.3055 C   0  0  0  0  0  0  0  0  0  0  0  0
   -5.0568    9.6282  -17.9314 S   0  0  0  0  0  0  0  0  0  0  0  0
   -6.3201    9.6286  -18.6547 O   0  0  0  0  0  0  0  0  0  0  0  0
   -3.9107   10.3375  -18.4657 O   0  0  0  0  0  0  0  0  0  0  0  0
 33 34  1  0  0  0
 34 35  2  0  0  0
 34 36  2  0  0  0
 34 32  1  0  0  0
  1 32  1  0  0  0
  1  2  1  0  0  0
  2  3  1  0  0  0
  3  4  1  0  0  0
  4  5  1  0  0  0
  6  5  1  0  0  0
  6  7  1  0  0  0
  7  8  1  0  0  0
  8  9  2  0  0  0
  9 10  1  0  0  0
 10 11  1  0  0  0
 10 12  2  0  0  0
 12 13  1  0  0  0
 13 18  1  0  0  0
 18 19  2  0  0  0
 18 20  1  0  0  0
 20 22  1  0  0  0
 22 23  2  0  0  0
 23 24  1  0  0  0
 24 25  2  0  0  0
 25 26  1  0  0  0
 26 27  2  0  0  0
 26 28  1  0  0  0
 28 29  1  0  0  0
 29 30  1  0  0  0
 13 14  2  0  0  0
 14 15  1  0  0  0
  6  1  1  0  0  0
 14  8  1  0  0  0
 15  6  1  0  0  0
 27 22  1  0  0  0
 30 25  1  0  0  0
  7 16  1  0  0  0
 20 21  1  0  0  0
 29 31  1  0  0  0
 15 17  1  0  0  0
M  END
> <minimizedAffinity>
-8.68291

> <minimizedRMSD>
1.48280

$$$$
P20312


 37 40  0  0  0  0  0  0  0  0999 V2000
   -5.1646    5.1428  -16.7473 C   0  0  0  0  0  0  0  0  0  0  0  0
   -5.7756    4.8717  -17.8826 N   0  0  0  0  0  0  0  0  0  0  0  0
   -7.0925    4.6536  -17.5855 C   0  0  0  0  0  0  0  0  0  0  0  0
   -8.1464    4.3486  -18.4527 C   0  0  0  0  0  0  0  0  0  0  0  0
   -9.4253    4.2469  -17.9151 C   0  0  0  0  0  0  0  0  0  0  0  0
  -10.4510    3.9709  -18.7314 F   0  0  0  0  0  0  0  0  0  0  0  0
   -9.6734    4.4631  -16.5630 C   0  0  0  0  0  0  0  0  0  0  0  0
   -8.6249    4.7810  -15.6877 C   0  0  0  0  0  0  0  0  0  0  0  0
   -7.3278    4.8296  -16.2267 C   0  0  0  0  0  0  0  0  0  0  0  0
   -6.0691    5.0359  -15.7085 N   0  0  0  0  0  0  0  0  0  0  0  0
   -8.8817    5.2054  -14.2901 C   0  0  0  0  0  0  0  0  0  0  0  0
   -9.3953    6.2417  -14.1291 O   0  0  0  0  0  0  0  0  0  0  0  0
   -8.4047    4.1542  -13.2638 N   0  0  0  0  0  0  0  0  0  0  0  0
   -8.0673    3.3173  -13.6575 H   0  0  0  0  0  0  0  0  0  0  0  0
   -8.3743    4.1975  -11.8702 C   0  0  0  0  0  0  0  0  0  0  0  0
   -8.0322    5.3811  -11.1911 C   0  0  0  0  0  0  0  0  0  0  0  0
   -8.0298    5.4357   -9.7937 C   0  0  0  0  0  0  0  0  0  0  0  0
   -8.3967    4.2998   -9.0998 C   0  0  0  0  0  0  0  0  0  0  0  0
   -8.7270    3.1243   -9.7687 C   0  0  0  0  0  0  0  0  0  0  0  0
   -8.7130    3.0493  -11.1520 C   0  0  0  0  0  0  0  0  0  0  0  0
   -9.0575    2.0711   -8.7637 C   0  0  0  0  0  0  0  0  0  0  0  0
   -9.2788    2.8089   -7.4911 N   0  0  0  0  0  0  0  0  0  0  0  0
   -8.5273    4.0758   -7.6307 C   0  0  0  0  0  0  0  0  0  0  0  0
   -8.9248    2.2701   -6.7007 H   0  0  0  0  0  0  0  0  0  0  0  0
   -3.6644    6.8567  -15.7195 C   0  0  0  0  0  0  0  0  0  0  0  0
   -3.7329    5.5994  -16.6014 C   0  0  0  0  0  0  0  0  0  0  0  0
   -2.8066    4.5114  -16.0340 C   0  0  0  0  0  0  0  0  0  0  0  0
   -3.0653    6.0032  -18.2889 S   0  0  0  0  0  0  0  0  0  0  0  0
   -3.9931    7.3748  -18.9560 C   0  0  0  0  0  0  0  0  0  0  0  0
   -3.2583    4.8668  -19.1756 O   0  0  0  0  0  0  0  0  0  0  0  0
   -1.7121    6.5095  -18.1006 O   0  0  0  0  0  0  0  0  0  0  0  0
   -5.7607    5.2371  -14.3625 O   0  0  0  0  0  0  0  0  0  0  0  0
   -5.3433    4.0032  -13.7701 C   0  0  0  0  0  0  0  0  0  0  0  0
   -4.1994    4.2767  -12.7958 C   0  0  0  0  0  0  0  0  0  0  0  0
   -4.5810    5.2381  -11.6750 C   0  0  0  0  0  0  0  0  0  0  0  0
   -4.7599    6.5605  -12.1586 O   0  0  0  0  0  0  0  0  0  0  0  0
   -3.9295    6.8780  -12.5465 H   0  0  0  0  0  0  0  0  0  0  0  0
 25 26  1  0  0  0
 26 27  1  0  0  0
 26  1  1  0  0  0
  1  2  2  0  0  0
  2  3  1  0  0  0
  3  4  2  0  0  0
  4  5  1  0  0  0
  5  6  1  0  0  0
  5  7  2  0  0  0
  7  8  1  0  0  0
  8 11  1  0  0  0
 11 12  2  0  0  0
 11 13  1  0  0  0
 13 15  1  0  0  0
 15 16  2  0  0  0
 16 17  1  0  0  0
 17 18  2  0  0  0
 18 19  1  0  0  0
 19 20  2  0  0  0
 19 21  1  0  0  0
 21 22  1  0  0  0
 22 23  1  0  0  0
  8  9  2  0  0  0
  9 10  1  0  0  0
 10 32  1  0  0  0
 32 33  1  0  0  0
 33 34  1  0  0  0
 34 35  1  0  0  0
 35 36  1  0  0  0
 26 28  1  0  0  0
 28 29  1  0  0  0
 28 30  2  0  0  0
 28 31  2  0  0  0
 10  1  1  0  0  0
  9  3  1  0  0  0
 20 15  1  0  0  0
 23 18  1  0  0  0
 13 14  1  0  0  0
 22 24  1  0  0  0
 36 37  1  0  0  0
M  END
> <minimizedAffinity>
-7.22101

> <minimizedRMSD>
1.41646

$$$$
P20324


 37 40  0  0  0  0  0  0  0  0999 V2000
   -5.6504    6.7486  -16.7005 C   0  0  0  0  0  0  0  0  0  0  0  0
   -6.4176    6.4347  -15.6746 N   0  0  0  0  0  0  0  0  0  0  0  0
   -7.4006    5.6031  -16.1682 C   0  0  0  0  0  0  0  0  0  0  0  0
   -8.5442    5.0432  -15.5575 C   0  0  0  0  0  0  0  0  0  0  0  0
   -9.4104    4.2667  -16.3430 C   0  0  0  0  0  0  0  0  0  0  0  0
   -9.1312    4.0490  -17.6901 C   0  0  0  0  0  0  0  0  0  0  0  0
   -9.9908    3.3354  -18.4295 F   0  0  0  0  0  0  0  0  0  0  0  0
   -7.9999    4.5695  -18.3125 C   0  0  0  0  0  0  0  0  0  0  0  0
   -7.1646    5.3497  -17.5186 C   0  0  0  0  0  0  0  0  0  0  0  0
   -6.0313    6.0563  -17.8222 N   0  0  0  0  0  0  0  0  0  0  0  0
   -5.5709    6.0658  -18.6923 H   0  0  0  0  0  0  0  0  0  0  0  0
   -8.8774    5.3970  -14.1512 C   0  0  0  0  0  0  0  0  0  0  0  0
   -9.5695    6.3217  -13.9702 O   0  0  0  0  0  0  0  0  0  0  0  0
   -8.2554    4.3930  -13.1430 N   0  0  0  0  0  0  0  0  0  0  0  0
   -7.7645    3.6457  -13.5550 H   0  0  0  0  0  0  0  0  0  0  0  0
   -8.2790    4.3780  -11.7457 C   0  0  0  0  0  0  0  0  0  0  0  0
   -7.9409    5.5188  -10.9982 C   0  0  0  0  0  0  0  0  0  0  0  0
   -7.9939    5.5075   -9.5982 C   0  0  0  0  0  0  0  0  0  0  0  0
   -8.3972    4.3462   -8.9658 C   0  0  0  0  0  0  0  0  0  0  0  0
   -8.7258    3.2136   -9.7001 C   0  0  0  0  0  0  0  0  0  0  0  0
   -8.6647    3.2058  -11.0876 C   0  0  0  0  0  0  0  0  0  0  0  0
   -9.1128    2.1163   -8.7681 C   0  0  0  0  0  0  0  0  0  0  0  0
   -9.1886    2.7292   -7.4185 N   0  0  0  0  0  0  0  0  0  0  0  0
   -8.5677    4.0654   -7.5117 C   0  0  0  0  0  0  0  0  0  0  0  0
   -8.6824    2.1547   -6.7447 H   0  0  0  0  0  0  0  0  0  0  0  0
   -4.5447    7.7761  -16.7047 C   0  0  0  0  0  0  0  0  0  0  0  0
   -2.8017    6.6126  -15.4430 C   0  0  0  0  0  0  0  0  0  0  0  0
   -3.7844    7.6930  -15.4157 N   0  0  0  0  0  0  0  0  0  0  0  0
   -3.3007    8.5771  -15.2585 H   0  0  0  0  0  0  0  0  0  0  0  0
   -5.1604    9.2185  -16.8504 C   0  0  0  0  0  0  0  0  0  0  0  0
   -5.3063    9.6295  -18.6562 S   0  0  0  0  0  0  0  0  0  0  0  0
   -4.1339   10.9398  -18.9184 C   0  0  0  0  0  0  0  0  0  0  0  0
   -4.8469    8.5065  -19.4594 O   0  0  0  0  0  0  0  0  0  0  0  0
   -6.6291   10.1803  -18.9181 O   0  0  0  0  0  0  0  0  0  0  0  0
   -4.3935   10.2133  -16.0205 N   0  0  0  0  0  0  0  0  0  0  0  0
   -5.3021   11.1146  -15.3198 C   0  0  0  0  0  0  0  0  0  0  0  0
   -3.7856   10.7596  -16.6308 H   0  0  0  0  0  0  0  0  0  0  0  0
 27 28  1  0  0  0
 26 28  1  0  0  0
 26  1  1  0  0  0
  1  2  2  0  0  0
  2  3  1  0  0  0
  3  4  2  0  0  0
  4 12  1  0  0  0
 12 13  2  0  0  0
 12 14  1  0  0  0
 14 16  1  0  0  0
 16 17  2  0  0  0
 17 18  1  0  0  0
 18 19  2  0  0  0
 19 20  1  0  0  0
 20 21  2  0  0  0
 20 22  1  0  0  0
 22 23  1  0  0  0
 23 24  1  0  0  0
  4  5  1  0  0  0
  5  6  2  0  0  0
  6  7  1  0  0  0
  6  8  1  0  0  0
  8  9  2  0  0  0
  9 10  1  0  0  0
 26 30  1  0  0  0
 30 35  1  0  0  0
 35 36  1  0  0  0
 30 31  1  0  0  0
 31 32  1  0  0  0
 31 33  2  0  0  0
 31 34  2  0  0  0
 10  1  1  0  0  0
  9  3  1  0  0  0
 21 16  1  0  0  0
 24 19  1  0  0  0
 28 29  1  0  0  0
 14 15  1  0  0  0
 23 25  1  0  0  0
 10 11  1  0  0  0
 35 37  1  0  0  0
M  END
> <minimizedAffinity>
-6.85485

> <minimizedRMSD>
0.91346

$$$$
P20335


 41 44  0  0  0  0  0  0  0  0999 V2000
   -4.6216    5.3405  -15.0750 C   0  0  0  0  0  0  0  0  0  0  0  0
   -5.7793    5.1867  -14.4810 N   0  0  0  0  0  0  0  0  0  0  0  0
   -6.6789    4.9129  -15.4705 C   0  0  0  0  0  0  0  0  0  0  0  0
   -8.0566    4.7139  -15.3688 C   0  0  0  0  0  0  0  0  0  0  0  0
   -8.7990    4.4389  -16.5112 C   0  0  0  0  0  0  0  0  0  0  0  0
   -8.1734    4.4543  -17.7502 C   0  0  0  0  0  0  0  0  0  0  0  0
   -8.9355    4.2311  -18.8312 F   0  0  0  0  0  0  0  0  0  0  0  0
   -6.8036    4.7458  -17.9010 C   0  0  0  0  0  0  0  0  0  0  0  0
   -6.0756    4.9063  -16.7193 C   0  0  0  0  0  0  0  0  0  0  0  0
   -4.7496    5.1089  -16.4293 N   0  0  0  0  0  0  0  0  0  0  0  0
   -4.0112    5.0918  -17.0803 H   0  0  0  0  0  0  0  0  0  0  0  0
   -8.6696    4.9783  -14.0642 C   0  0  0  0  0  0  0  0  0  0  0  0
   -9.4438    5.8482  -13.9798 O   0  0  0  0  0  0  0  0  0  0  0  0
   -8.0675    4.0669  -12.9763 N   0  0  0  0  0  0  0  0  0  0  0  0
   -7.4855    3.3491  -13.3159 H   0  0  0  0  0  0  0  0  0  0  0  0
   -8.2117    4.0933  -11.6004 C   0  0  0  0  0  0  0  0  0  0  0  0
   -8.0262    5.2849  -10.8848 C   0  0  0  0  0  0  0  0  0  0  0  0
   -8.1354    5.2946   -9.4911 C   0  0  0  0  0  0  0  0  0  0  0  0
   -8.5205    4.1249   -8.8583 C   0  0  0  0  0  0  0  0  0  0  0  0
   -8.7468    2.9629   -9.5828 C   0  0  0  0  0  0  0  0  0  0  0  0
   -8.5312    2.9092  -10.9466 C   0  0  0  0  0  0  0  0  0  0  0  0
   -9.2656    1.8975   -8.6845 C   0  0  0  0  0  0  0  0  0  0  0  0
   -9.3329    2.4927   -7.3235 N   0  0  0  0  0  0  0  0  0  0  0  0
   -8.7865    3.8648   -7.4165 C   0  0  0  0  0  0  0  0  0  0  0  0
   -8.7767    1.9388   -6.6722 H   0  0  0  0  0  0  0  0  0  0  0  0
   -6.2697    4.9138  -19.1738 N   0  0  0  0  0  0  0  0  0  0  0  0
   -5.0962    5.7942  -19.6624 C   0  0  0  0  0  0  0  0  0  0  0  0
   -4.3461    6.4561  -19.0618 O   0  0  0  0  0  0  0  0  0  0  0  0
   -6.7105    4.3863  -19.8786 H   0  0  0  0  0  0  0  0  0  0  0  0
   -3.3387    5.7485  -14.3679 C   0  0  0  0  0  0  0  0  0  0  0  0
   -2.8631    4.5134  -13.5823 C   0  0  0  0  0  0  0  0  0  0  0  0
   -2.2788    6.0923  -15.3414 N   0  0  0  0  0  0  0  0  0  0  0  0
   -2.1490    7.5160  -15.6070 C   0  0  0  0  0  0  0  0  0  0  0  0
   -2.4883    5.6211  -16.2214 H   0  0  0  0  0  0  0  0  0  0  0  0
   -3.6819    6.9346  -13.3613 C   0  0  0  0  0  0  0  0  0  0  0  0
   -3.2630    6.8230  -11.9312 N   0  0  0  0  0  0  0  0  0  0  0  0
   -4.4829    6.6800  -10.7761 S   0  0  0  0  0  0  0  0  0  0  0  0
   -3.3684    7.0263   -9.3872 C   0  0  0  0  0  0  0  0  0  0  0  0
   -5.4880    7.7914  -10.8219 O   0  0  0  0  0  0  0  0  0  0  0  0
   -0.8182    7.3749  -12.0925 C   0  0  0  0  0  0  0  0  0  0  0  0
   -2.2071    7.8201  -11.6419 C   0  0  0  0  0  0  0  0  0  0  0  0
 40 41  1  0  0  0
 41 36  1  0  0  0
 36 35  1  0  0  0
 35 30  1  0  0  0
 30 31  1  0  0  0
 30 32  1  0  0  0
 32 33  1  0  0  0
 30  1  1  0  0  0
  1  2  2  0  0  0
  2  3  1  0  0  0
  3  4  2  0  0  0
  4 12  1  0  0  0
 12 13  2  0  0  0
 12 14  1  0  0  0
 14 16  1  0  0  0
 16 17  2  0  0  0
 17 18  1  0  0  0
 18 19  2  0  0  0
 19 20  1  0  0  0
 20 21  2  0  0  0
 20 22  1  0  0  0
 22 23  1  0  0  0
 23 24  1  0  0  0
  4  5  1  0  0  0
  5  6  2  0  0  0
  6  7  1  0  0  0
  6  8  1  0  0  0
  8 26  1  0  0  0
 26 27  1  0  0  0
 27 28  2  0  0  0
  8  9  2  0  0  0
  9 10  1  0  0  0
 36 37  1  0  0  0
 37 38  1  0  0  0
 37 39  2  0  0  0
 10  1  1  0  0  0
  9  3  1  0  0  0
 21 16  1  0  0  0
 24 19  1  0  0  0
 32 34  1  0  0  0
 14 15  1  0  0  0
 23 25  1  0  0  0
 26 29  1  0  0  0
 10 11  1  0  0  0
M  END
> <minimizedAffinity>
-7.75598

> <minimizedRMSD>
1.47046

$$$$
P20349


 36 39  0  0  0  0  0  0  0  0999 V2000
   -4.8863    5.3710  -16.0387 C   0  0  0  0  0  0  0  0  0  0  0  0
   -5.2527    5.1839  -17.2978 N   0  0  0  0  0  0  0  0  0  0  0  0
   -6.5851    4.8408  -17.2474 C   0  0  0  0  0  0  0  0  0  0  0  0
   -7.4789    4.4757  -18.2651 C   0  0  0  0  0  0  0  0  0  0  0  0
   -8.7823    4.1343  -17.8930 C   0  0  0  0  0  0  0  0  0  0  0  0
   -9.6582    3.7182  -18.8177 F   0  0  0  0  0  0  0  0  0  0  0  0
   -9.2230    4.2278  -16.5786 C   0  0  0  0  0  0  0  0  0  0  0  0
   -8.3636    4.6657  -15.5814 C   0  0  0  0  0  0  0  0  0  0  0  0
   -7.0416    4.9048  -15.9374 C   0  0  0  0  0  0  0  0  0  0  0  0
   -5.9526    5.2531  -15.1924 N   0  0  0  0  0  0  0  0  0  0  0  0
   -5.9378    5.3943  -14.2182 H   0  0  0  0  0  0  0  0  0  0  0  0
   -8.8054    5.0163  -14.2230 C   0  0  0  0  0  0  0  0  0  0  0  0
   -9.4244    5.9914  -14.0718 O   0  0  0  0  0  0  0  0  0  0  0  0
   -8.2504    4.0188  -13.1944 N   0  0  0  0  0  0  0  0  0  0  0  0
   -7.8201    3.2231  -13.5828 H   0  0  0  0  0  0  0  0  0  0  0  0
   -8.2570    4.0567  -11.8049 C   0  0  0  0  0  0  0  0  0  0  0  0
   -7.9470    5.2429  -11.1175 C   0  0  0  0  0  0  0  0  0  0  0  0
   -7.9751    5.2873   -9.7198 C   0  0  0  0  0  0  0  0  0  0  0  0
   -8.3873    4.1545   -9.0432 C   0  0  0  0  0  0  0  0  0  0  0  0
   -8.7122    2.9871   -9.7274 C   0  0  0  0  0  0  0  0  0  0  0  0
   -8.5992    2.9021  -11.1036 C   0  0  0  0  0  0  0  0  0  0  0  0
   -9.1934    1.9637   -8.7524 C   0  0  0  0  0  0  0  0  0  0  0  0
   -9.4310    2.7139   -7.4897 N   0  0  0  0  0  0  0  0  0  0  0  0
   -8.5925    3.9285   -7.5832 C   0  0  0  0  0  0  0  0  0  0  0  0
   -9.1547    2.1519   -6.6846 H   0  0  0  0  0  0  0  0  0  0  0  0
   -3.0336    5.0552  -14.3629 C   0  0  0  0  0  0  0  0  0  0  0  0
   -3.5521    5.8521  -15.5585 C   0  0  0  0  0  0  0  0  0  0  0  0
   -3.5816    7.2725  -15.1854 N   0  0  0  0  0  0  0  0  0  0  0  0
   -2.6245    7.5680  -14.9929 H   0  0  0  0  0  0  0  0  0  0  0  0
   -4.1351    8.1669  -16.1913 C   0  0  0  0  0  0  0  0  0  0  0  0
   -3.4838    8.0157  -17.4803 N   0  0  0  0  0  0  0  0  0  0  0  0
   -3.1463    7.0555  -17.5484 H   0  0  0  0  0  0  0  0  0  0  0  0
   -4.4405    8.3230  -18.8347 S   0  0  0  0  0  0  0  0  0  0  0  0
   -3.9212    9.9688  -19.2729 C   0  0  0  0  0  0  0  0  0  0  0  0
   -3.9903    7.4367  -19.8832 O   0  0  0  0  0  0  0  0  0  0  0  0
   -5.8309    8.3624  -18.4320 O   0  0  0  0  0  0  0  0  0  0  0  0
 27 26  1  0  0  0
 27 28  1  0  0  0
 28 30  1  0  0  0
 30 31  1  0  0  0
 31 33  1  0  0  0
 33 34  1  0  0  0
 33 35  2  0  0  0
 33 36  2  0  0  0
 27  1  1  0  0  0
  1  2  2  0  0  0
  2  3  1  0  0  0
  3  4  2  0  0  0
  4  5  1  0  0  0
  5  6  1  0  0  0
  5  7  2  0  0  0
  7  8  1  0  0  0
  8 12  1  0  0  0
 12 13  2  0  0  0
 12 14  1  0  0  0
 14 16  1  0  0  0
 16 17  2  0  0  0
 17 18  1  0  0  0
 18 19  2  0  0  0
 19 20  1  0  0  0
 20 21  2  0  0  0
 20 22  1  0  0  0
 22 23  1  0  0  0
 23 24  1  0  0  0
  8  9  2  0  0  0
  9 10  1  0  0  0
 10  1  1  0  0  0
  9  3  1  0  0  0
 21 16  1  0  0  0
 24 19  1  0  0  0
 28 29  1  0  0  0
 31 32  1  0  0  0
 14 15  1  0  0  0
 23 25  1  0  0  0
 10 11  1  0  0  0
M  END
> <minimizedAffinity>
-8.38322

> <minimizedRMSD>
0.50398

$$$$
P20350


 36 40  0  0  0  0  0  0  0  0999 V2000
   -3.3429    6.8001  -19.7362 C   0  0  0  0  0  0  0  0  0  0  0  0
   -3.7682    6.8870  -18.2353 C   0  0  0  0  0  0  0  0  0  0  0  0
   -2.4848    6.8844  -17.4257 N   0  0  0  0  0  0  0  0  0  0  0  0
   -2.0962    5.4875  -17.3158 C   0  0  0  0  0  0  0  0  0  0  0  0
   -3.2971    4.6453  -17.7278 C   0  0  0  0  0  0  0  0  0  0  0  0
   -4.5161    5.5956  -17.7972 C   0  0  0  0  0  0  0  0  0  0  0  0
   -5.5215    5.1204  -18.7716 N   0  0  0  0  0  0  0  0  0  0  0  0
   -6.6419    4.7619  -17.9820 C   0  0  0  0  0  0  0  0  0  0  0  0
   -7.8344    4.2130  -18.4238 C   0  0  0  0  0  0  0  0  0  0  0  0
   -8.8144    3.9312  -17.4733 C   0  0  0  0  0  0  0  0  0  0  0  0
   -9.9798    3.3877  -17.8541 F   0  0  0  0  0  0  0  0  0  0  0  0
   -8.6169    4.2134  -16.1176 C   0  0  0  0  0  0  0  0  0  0  0  0
   -7.4111    4.7924  -15.6963 C   0  0  0  0  0  0  0  0  0  0  0  0
   -6.4344    5.0813  -16.6443 C   0  0  0  0  0  0  0  0  0  0  0  0
   -5.1174    5.5391  -16.4551 N   0  0  0  0  0  0  0  0  0  0  0  0
   -2.6461    7.2832  -16.5009 H   0  0  0  0  0  0  0  0  0  0  0  0
   -5.4323    5.0655  -19.7505 H   0  0  0  0  0  0  0  0  0  0  0  0
   -4.6870    5.7732  -15.6012 H   0  0  0  0  0  0  0  0  0  0  0  0
   -4.7248    8.4462  -18.1068 S   0  0  0  0  0  0  0  0  0  0  0  0
   -4.8175    8.8586  -16.3829 C   0  0  0  0  0  0  0  0  0  0  0  0
   -6.0826    8.2879  -18.5932 O   0  0  0  0  0  0  0  0  0  0  0  0
   -3.8918    9.4897  -18.6913 O   0  0  0  0  0  0  0  0  0  0  0  0
   -7.1983    5.1808  -14.2812 C   0  0  0  0  0  0  0  0  0  0  0  0
   -6.4400    6.0452  -14.0614 O   0  0  0  0  0  0  0  0  0  0  0  0
   -8.0998    4.3644  -13.3172 N   0  0  0  0  0  0  0  0  0  0  0  0
   -8.7137    3.7352  -13.7605 H   0  0  0  0  0  0  0  0  0  0  0  0
   -8.1816    4.3770  -11.9262 C   0  0  0  0  0  0  0  0  0  0  0  0
   -7.7918    5.5083  -11.1928 C   0  0  0  0  0  0  0  0  0  0  0  0
   -7.8775    5.5241   -9.7977 C   0  0  0  0  0  0  0  0  0  0  0  0
   -8.3416    4.3914   -9.1572 C   0  0  0  0  0  0  0  0  0  0  0  0
   -8.7261    3.2683   -9.8777 C   0  0  0  0  0  0  0  0  0  0  0  0
   -8.6631    3.2434  -11.2636 C   0  0  0  0  0  0  0  0  0  0  0  0
   -9.2012    2.2175   -8.9342 C   0  0  0  0  0  0  0  0  0  0  0  0
   -8.9447    2.7332   -7.5637 N   0  0  0  0  0  0  0  0  0  0  0  0
   -8.5491    4.1500   -7.7026 C   0  0  0  0  0  0  0  0  0  0  0  0
   -8.1936    2.2012   -7.1241 H   0  0  0  0  0  0  0  0  0  0  0  0
  2  1  1  0  0  0
  2 19  1  0  0  0
 19 20  1  0  0  0
 19 21  2  0  0  0
 19 22  2  0  0  0
  2  3  1  0  0  0
  3  4  1  0  0  0
  4  5  1  0  0  0
  6  5  1  0  0  0
  6  7  1  0  0  0
  7  8  1  0  0  0
  8  9  2  0  0  0
  9 10  1  0  0  0
 10 11  1  0  0  0
 10 12  2  0  0  0
 12 13  1  0  0  0
 13 23  1  0  0  0
 23 24  2  0  0  0
 23 25  1  0  0  0
 25 27  1  0  0  0
 27 28  2  0  0  0
 28 29  1  0  0  0
 29 30  2  0  0  0
 30 31  1  0  0  0
 31 32  2  0  0  0
 31 33  1  0  0  0
 33 34  1  0  0  0
 34 35  1  0  0  0
 13 14  2  0  0  0
 14 15  1  0  0  0
  6  2  1  0  0  0
 14  8  1  0  0  0
 15  6  1  0  0  0
 32 27  1  0  0  0
 35 30  1  0  0  0
  3 16  1  0  0  0
  7 17  1  0  0  0
 25 26  1  0  0  0
 34 36  1  0  0  0
 15 18  1  0  0  0
M  END
> <minimizedAffinity>
-9.28245

> <minimizedRMSD>
0.76952

$$$$
P20351


 38 41  0  0  0  0  0  0  0  0999 V2000
   -5.5838    5.1896  -17.7620 N   0  0  0  0  0  0  0  0  0  0  0  0
   -5.0961    5.5645  -16.5151 C   0  0  0  0  0  0  0  0  0  0  0  0
   -6.0473    5.4556  -15.6091 N   0  0  0  0  0  0  0  0  0  0  0  0
   -7.1603    4.9746  -16.2210 C   0  0  0  0  0  0  0  0  0  0  0  0
   -8.4408    4.7149  -15.6874 C   0  0  0  0  0  0  0  0  0  0  0  0
   -9.4020    4.1241  -16.5103 C   0  0  0  0  0  0  0  0  0  0  0  0
   -9.0853    3.8429  -17.8363 C   0  0  0  0  0  0  0  0  0  0  0  0
  -10.0147    3.2829  -18.6201 F   0  0  0  0  0  0  0  0  0  0  0  0
   -7.8428    4.1457  -18.3988 C   0  0  0  0  0  0  0  0  0  0  0  0
   -6.8842    4.7288  -17.5634 C   0  0  0  0  0  0  0  0  0  0  0  0
   -8.7514    5.2052  -14.3168 C   0  0  0  0  0  0  0  0  0  0  0  0
   -9.4318    6.1523  -14.2278 O   0  0  0  0  0  0  0  0  0  0  0  0
   -8.0458    4.3679  -13.2181 N   0  0  0  0  0  0  0  0  0  0  0  0
   -7.4596    3.6532  -13.5572 H   0  0  0  0  0  0  0  0  0  0  0  0
   -8.1067    4.4630  -11.8253 C   0  0  0  0  0  0  0  0  0  0  0  0
   -7.6352    5.6100  -11.1627 C   0  0  0  0  0  0  0  0  0  0  0  0
   -7.6538    5.7057   -9.7656 C   0  0  0  0  0  0  0  0  0  0  0  0
   -8.1755    4.6514   -9.0470 C   0  0  0  0  0  0  0  0  0  0  0  0
   -8.6785    3.5317   -9.6971 C   0  0  0  0  0  0  0  0  0  0  0  0
   -8.6313    3.4040  -11.0823 C   0  0  0  0  0  0  0  0  0  0  0  0
   -9.2837    2.6297   -8.6838 C   0  0  0  0  0  0  0  0  0  0  0  0
   -8.5868    1.4129   -8.5380 N   0  0  0  0  0  0  0  0  0  0  0  0
   -9.1398    3.2713   -7.3793 N   0  0  0  0  0  0  0  0  0  0  0  0
   -8.3209    4.4788   -7.5727 C   0  0  0  0  0  0  0  0  0  0  0  0
   -7.6309    1.6025   -8.2369 H   0  0  0  0  0  0  0  0  0  0  0  0
   -8.5706    0.9212   -9.4315 H   0  0  0  0  0  0  0  0  0  0  0  0
   -8.6778    2.6371   -6.7276 H   0  0  0  0  0  0  0  0  0  0  0  0
   -3.7395    6.0950  -16.1102 C   0  0  0  0  0  0  0  0  0  0  0  0
   -2.5315    5.2838  -16.5806 C   0  0  0  0  0  0  0  0  0  0  0  0
   -3.6456    6.1502  -14.5674 C   0  0  0  0  0  0  0  0  0  0  0  0
   -3.6535    7.8002  -16.7848 S   0  0  0  0  0  0  0  0  0  0  0  0
   -3.2885    8.8950  -15.4256 C   0  0  0  0  0  0  0  0  0  0  0  0
   -4.9673    8.1747  -17.2871 O   0  0  0  0  0  0  0  0  0  0  0  0
   -2.5246    7.8615  -17.6976 O   0  0  0  0  0  0  0  0  0  0  0  0
   -4.8649    5.1276  -19.0406 C   0  0  0  0  0  0  0  0  0  0  0  0
   -4.2281    6.8528  -20.6240 C   0  0  0  0  0  0  0  0  0  0  0  0
   -5.3157    6.1893  -19.9249 N   0  0  0  0  0  0  0  0  0  0  0  0
   -5.9487    5.7880  -20.6167 H   0  0  0  0  0  0  0  0  0  0  0  0
 36 37  1  0  0  0
 37 35  1  0  0  0
 35  1  1  0  0  0
  1  2  1  0  0  0
  2 28  1  0  0  0
 28 29  1  0  0  0
 28 30  1  0  0  0
 28 31  1  0  0  0
 31 32  1  0  0  0
 31 33  2  0  0  0
 31 34  2  0  0  0
  2  3  2  0  0  0
  3  4  1  0  0  0
  4  5  2  0  0  0
  5 11  1  0  0  0
 11 12  2  0  0  0
 11 13  1  0  0  0
 13 15  1  0  0  0
 15 16  2  0  0  0
 16 17  1  0  0  0
 17 18  2  0  0  0
 18 19  1  0  0  0
 19 20  2  0  0  0
 19 21  1  0  0  0
 21 22  1  0  0  0
 21 23  1  0  0  0
 23 24  1  0  0  0
  5  6  1  0  0  0
  6  7  2  0  0  0
  7  8  1  0  0  0
  7  9  1  0  0  0
  9 10  2  0  0  0
 10  1  1  0  0  0
 10  4  1  0  0  0
 20 15  1  0  0  0
 24 18  1  0  0  0
 37 38  1  0  0  0
 13 14  1  0  0  0
 22 25  1  0  0  0
 22 26  1  0  0  0
 23 27  1  0  0  0
M  END
> <minimizedAffinity>
-8.80004

> <minimizedRMSD>
0.91852

$$$$
P20359


 32 36  0  0  0  0  0  0  0  0999 V2000
   -7.1685    4.8369  -14.7291 C   0  0  0  0  0  0  0  0  0  0  0  0
   -8.3481    4.4465  -15.3527 C   0  0  0  0  0  0  0  0  0  0  0  0
   -8.3933    4.3575  -16.7420 C   0  0  0  0  0  0  0  0  0  0  0  0
  -10.0154    4.0656  -17.6039 Br  0  0  0  0  0  0  0  0  0  0  0  0
   -7.2522    4.6332  -17.4927 C   0  0  0  0  0  0  0  0  0  0  0  0
   -7.0569    4.6805  -18.8554 N   0  0  0  0  0  0  0  0  0  0  0  0
   -5.7625    5.0362  -19.1249 C   0  0  0  0  0  0  0  0  0  0  0  0
   -5.1101    5.2437  -17.9251 C   0  0  0  0  0  0  0  0  0  0  0  0
   -6.0563    4.9957  -16.8858 C   0  0  0  0  0  0  0  0  0  0  0  0
   -6.0158    5.1051  -15.4806 C   0  0  0  0  0  0  0  0  0  0  0  0
   -7.7443    4.4877  -19.5333 H   0  0  0  0  0  0  0  0  0  0  0  0
   -3.7031    5.7046  -17.7050 C   0  0  0  0  0  0  0  0  0  0  0  0
   -3.5625    7.2136  -17.9733 C   0  0  0  0  0  0  0  0  0  0  0  0
   -2.1698    7.5837  -18.4769 C   0  0  0  0  0  0  0  0  0  0  0  0
   -1.1330    6.8080  -17.8051 N   0  0  0  0  0  0  0  0  0  0  0  0
   -1.2503    5.3724  -18.0991 C   0  0  0  0  0  0  0  0  0  0  0  0
   -2.6596    4.9048  -18.4788 C   0  0  0  0  0  0  0  0  0  0  0  0
   -1.2166    6.9470  -16.7981 H   0  0  0  0  0  0  0  0  0  0  0  0
   -6.5615    6.1169  -12.9459 O   0  0  0  0  0  0  0  0  0  0  0  0
   -7.1515    5.1655  -13.2800 C   0  0  0  0  0  0  0  0  0  0  0  0
   -8.0082    4.1768  -12.4562 N   0  0  0  0  0  0  0  0  0  0  0  0
   -8.4703    3.4894  -12.9883 H   0  0  0  0  0  0  0  0  0  0  0  0
   -8.2326    4.1003  -11.0836 C   0  0  0  0  0  0  0  0  0  0  0  0
   -8.0424    5.2257  -10.2652 C   0  0  0  0  0  0  0  0  0  0  0  0
   -8.2532    5.1536   -8.8855 C   0  0  0  0  0  0  0  0  0  0  0  0
   -8.6482    3.9433   -8.3476 C   0  0  0  0  0  0  0  0  0  0  0  0
   -8.8359    2.8277   -9.1552 C   0  0  0  0  0  0  0  0  0  0  0  0
   -8.6457    2.8877  -10.5275 C   0  0  0  0  0  0  0  0  0  0  0  0
   -9.1867    1.6572   -8.3003 C   0  0  0  0  0  0  0  0  0  0  0  0
   -9.4585    2.2067   -6.9475 N   0  0  0  0  0  0  0  0  0  0  0  0
   -8.9111    3.5783   -6.9266 C   0  0  0  0  0  0  0  0  0  0  0  0
   -9.0006    1.6350   -6.2377 H   0  0  0  0  0  0  0  0  0  0  0  0
 19 20  2  0  0  0
 20 21  1  0  0  0
 21 23  1  0  0  0
 23 24  2  0  0  0
 24 25  1  0  0  0
 25 26  2  0  0  0
 26 27  1  0  0  0
 27 28  2  0  0  0
 27 29  1  0  0  0
 29 30  1  0  0  0
 30 31  1  0  0  0
 20  1  1  0  0  0
  1  2  2  0  0  0
  2  3  1  0  0  0
  3  4  1  0  0  0
  3  5  2  0  0  0
  5  6  1  0  0  0
  6  7  1  0  0  0
  7  8  2  0  0  0
  8 12  1  0  0  0
 12 13  1  0  0  0
 13 14  1  0  0  0
 14 15  1  0  0  0
 15 16  1  0  0  0
 16 17  1  0  0  0
  8  9  1  0  0  0
  9 10  2  0  0  0
 28 23  1  0  0  0
 10  1  1  0  0  0
 31 26  1  0  0  0
  9  5  1  0  0  0
 17 12  1  0  0  0
 21 22  1  0  0  0
 30 32  1  0  0  0
  6 11  1  0  0  0
 15 18  1  0  0  0
M  END
> <minimizedAffinity>
-9.35182

> <minimizedRMSD>
0.33431

$$$$
P20360


 34 38  0  0  0  0  0  0  0  0999 V2000
   -8.3699    4.1753  -16.8602 C   0  0  0  0  0  0  0  0  0  0  0  0
   -8.5937    4.3755  -15.5001 C   0  0  0  0  0  0  0  0  0  0  0  0
   -7.6017    4.9357  -14.7051 C   0  0  0  0  0  0  0  0  0  0  0  0
   -6.3229    5.2490  -15.2268 C   0  0  0  0  0  0  0  0  0  0  0  0
   -5.2592    5.7787  -14.3076 C   0  0  0  0  0  0  0  0  0  0  0  0
   -6.1210    5.1012  -16.6324 C   0  0  0  0  0  0  0  0  0  0  0  0
   -5.0410    5.4115  -17.5367 C   0  0  0  0  0  0  0  0  0  0  0  0
   -5.4675    5.0802  -18.8073 C   0  0  0  0  0  0  0  0  0  0  0  0
   -6.7465    4.6102  -18.7258 N   0  0  0  0  0  0  0  0  0  0  0  0
   -7.1550    4.5783  -17.4126 C   0  0  0  0  0  0  0  0  0  0  0  0
   -7.2962    4.3344  -19.4945 H   0  0  0  0  0  0  0  0  0  0  0  0
   -3.7091    6.0005  -17.1742 C   0  0  0  0  0  0  0  0  0  0  0  0
   -3.5482    7.4717  -17.5490 C   0  0  0  0  0  0  0  0  0  0  0  0
   -2.2407    8.0153  -16.9592 C   0  0  0  0  0  0  0  0  0  0  0  0
   -1.1751    7.0151  -16.8372 N   0  0  0  0  0  0  0  0  0  0  0  0
   -1.2622    5.9960  -17.8787 C   0  0  0  0  0  0  0  0  0  0  0  0
   -2.5414    5.1712  -17.7340 C   0  0  0  0  0  0  0  0  0  0  0  0
   -1.2505    6.5626  -15.9261 H   0  0  0  0  0  0  0  0  0  0  0  0
   -7.9793    5.3400  -13.3198 C   0  0  0  0  0  0  0  0  0  0  0  0
   -8.2505    6.4587  -13.1229 O   0  0  0  0  0  0  0  0  0  0  0  0
   -7.9645    4.1288  -12.3599 N   0  0  0  0  0  0  0  0  0  0  0  0
   -7.7707    3.2646  -12.7898 H   0  0  0  0  0  0  0  0  0  0  0  0
   -8.1809    4.0609  -10.9850 C   0  0  0  0  0  0  0  0  0  0  0  0
   -7.9288    5.1702  -10.1595 C   0  0  0  0  0  0  0  0  0  0  0  0
   -8.1393    5.1023   -8.7788 C   0  0  0  0  0  0  0  0  0  0  0  0
   -8.6276    3.9224   -8.2529 C   0  0  0  0  0  0  0  0  0  0  0  0
   -8.8841    2.8236   -9.0686 C   0  0  0  0  0  0  0  0  0  0  0  0
   -8.6579    2.8688  -10.4345 C   0  0  0  0  0  0  0  0  0  0  0  0
   -9.3792    1.6995   -8.2206 C   0  0  0  0  0  0  0  0  0  0  0  0
   -9.7688    2.3316   -6.9323 N   0  0  0  0  0  0  0  0  0  0  0  0
   -8.9584    3.5667   -6.8421 C   0  0  0  0  0  0  0  0  0  0  0  0
   -9.5599    1.7094   -6.1515 H   0  0  0  0  0  0  0  0  0  0  0  0
  -10.3483    4.4598  -18.1642 C   0  0  0  0  0  0  0  0  0  0  0  0
   -9.3976    3.6381  -17.7235 C   0  0  0  0  0  0  0  0  0  0  0  0
 33 34  2  0  0  0
 34  1  1  0  0  0
  1  2  2  0  0  0
  2  3  1  0  0  0
  3 19  1  0  0  0
 19 20  2  0  0  0
 19 21  1  0  0  0
 21 23  1  0  0  0
 23 24  2  0  0  0
 24 25  1  0  0  0
 25 26  2  0  0  0
 26 27  1  0  0  0
 27 28  2  0  0  0
 27 29  1  0  0  0
 29 30  1  0  0  0
 30 31  1  0  0  0
  3  4  2  0  0  0
  4  5  1  0  0  0
  4  6  1  0  0  0
  6  7  1  0  0  0
  7 12  1  0  0  0
 12 13  1  0  0  0
 13 14  1  0  0  0
 14 15  1  0  0  0
 15 16  1  0  0  0
 16 17  1  0  0  0
  7  8  2  0  0  0
  8  9  1  0  0  0
  9 10  1  0  0  0
 10  1  1  0  0  0
 28 23  1  0  0  0
 10  6  2  0  0  0
 31 26  1  0  0  0
 17 12  1  0  0  0
 21 22  1  0  0  0
 30 32  1  0  0  0
 15 18  1  0  0  0
  9 11  1  0  0  0
M  END
> <minimizedAffinity>
-9.52289

> <minimizedRMSD>
0.58174

$$$$
P20362


 36 40  0  0  0  0  0  0  0  0999 V2000
   -8.2188    4.7253  -15.5038 C   0  0  0  0  0  0  0  0  0  0  0  0
   -8.8817    3.8563  -16.3614 C   0  0  0  0  0  0  0  0  0  0  0  0
   -8.4644    3.7058  -17.6858 C   0  0  0  0  0  0  0  0  0  0  0  0
   -7.3242    4.4068  -18.0949 C   0  0  0  0  0  0  0  0  0  0  0  0
   -6.7389    4.4737  -19.3315 N   0  0  0  0  0  0  0  0  0  0  0  0
   -5.5835    5.1968  -19.2606 C   0  0  0  0  0  0  0  0  0  0  0  0
   -5.4367    5.6999  -17.9814 C   0  0  0  0  0  0  0  0  0  0  0  0
   -6.5885    5.2400  -17.2491 C   0  0  0  0  0  0  0  0  0  0  0  0
   -7.0900    5.4294  -15.9444 C   0  0  0  0  0  0  0  0  0  0  0  0
   -7.0983    4.0614  -20.1501 H   0  0  0  0  0  0  0  0  0  0  0  0
   -4.2316    6.5218  -17.5713 C   0  0  0  0  0  0  0  0  0  0  0  0
   -4.4148    8.0021  -17.9402 C   0  0  0  0  0  0  0  0  0  0  0  0
   -3.1237    8.7799  -17.6957 C   0  0  0  0  0  0  0  0  0  0  0  0
   -2.6604    8.6446  -16.3221 N   0  0  0  0  0  0  0  0  0  0  0  0
   -2.4713    7.2505  -15.9362 C   0  0  0  0  0  0  0  0  0  0  0  0
   -3.7768    6.4466  -16.1027 C   0  0  0  0  0  0  0  0  0  0  0  0
   -3.3501    9.0664  -15.7002 H   0  0  0  0  0  0  0  0  0  0  0  0
   -3.5595    5.0209  -15.6294 C   0  0  0  0  0  0  0  0  0  0  0  0
   -3.8671    4.8186  -13.8923 S   0  0  0  0  0  0  0  0  0  0  0  0
   -4.7050    5.8975  -13.4191 O   0  0  0  0  0  0  0  0  0  0  0  0
   -2.6214    4.4682  -13.2400 O   0  0  0  0  0  0  0  0  0  0  0  0
   -4.6448    3.7575  -13.5478 H   0  0  0  0  0  0  0  0  0  0  0  0
   -9.4857    5.9023  -14.0135 O   0  0  0  0  0  0  0  0  0  0  0  0
   -8.7313    5.0193  -14.1365 C   0  0  0  0  0  0  0  0  0  0  0  0
   -8.1087    4.0774  -13.0787 N   0  0  0  0  0  0  0  0  0  0  0  0
   -7.5521    3.3540  -13.4475 H   0  0  0  0  0  0  0  0  0  0  0  0
   -8.2078    4.0865  -11.6862 C   0  0  0  0  0  0  0  0  0  0  0  0
   -7.9476    5.2545  -10.9507 C   0  0  0  0  0  0  0  0  0  0  0  0
   -8.0512    5.2639   -9.5556 C   0  0  0  0  0  0  0  0  0  0  0  0
   -8.4319    4.0974   -8.9186 C   0  0  0  0  0  0  0  0  0  0  0  0
   -8.6858    2.9378   -9.6406 C   0  0  0  0  0  0  0  0  0  0  0  0
   -8.5702    2.9096  -11.0233 C   0  0  0  0  0  0  0  0  0  0  0  0
   -9.0508    1.8405   -8.6974 C   0  0  0  0  0  0  0  0  0  0  0  0
   -9.2317    2.4851   -7.3714 N   0  0  0  0  0  0  0  0  0  0  0  0
   -8.6364    3.8339   -7.4661 C   0  0  0  0  0  0  0  0  0  0  0  0
   -8.7577    1.9422   -6.6497 H   0  0  0  0  0  0  0  0  0  0  0  0
 23 24  2  0  0  0
 24 25  1  0  0  0
 25 27  1  0  0  0
 27 28  2  0  0  0
 28 29  1  0  0  0
 29 30  2  0  0  0
 30 31  1  0  0  0
 31 32  2  0  0  0
 31 33  1  0  0  0
 33 34  1  0  0  0
 34 35  1  0  0  0
 24  1  1  0  0  0
  1  2  2  0  0  0
  2  3  1  0  0  0
  3  4  2  0  0  0
  4  5  1  0  0  0
  5  6  1  0  0  0
  6  7  2  0  0  0
 11  7  1  0  0  0
 11 12  1  0  0  0
 12 13  1  0  0  0
 13 14  1  0  0  0
 14 15  1  0  0  0
 15 16  1  0  0  0
 16 18  1  0  0  0
 18 19  1  0  0  0
 19 20  2  0  0  0
 19 21  2  0  0  0
  7  8  1  0  0  0
  8  9  2  0  0  0
 32 27  1  0  0  0
  9  1  1  0  0  0
 35 30  1  0  0  0
  8  4  1  0  0  0
 16 11  1  0  0  0
 25 26  1  0  0  0
 34 36  1  0  0  0
  5 10  1  0  0  0
 14 17  1  0  0  0
 19 22  1  0  0  0
M  END
> <minimizedAffinity>
-8.95984

> <minimizedRMSD>
0.78080

$$$$
P20366


 34 38  0  0  0  0  0  0  0  0999 V2000
   -9.6656    3.6506  -17.7674 C   0  0  0  0  0  0  0  0  0  0  0  0
   -8.5123    4.1668  -16.9727 C   0  0  0  0  0  0  0  0  0  0  0  0
   -8.6193    4.3086  -15.5745 C   0  0  0  0  0  0  0  0  0  0  0  0
   -7.5877    4.8774  -14.8318 C   0  0  0  0  0  0  0  0  0  0  0  0
   -6.3904    5.2629  -15.4577 C   0  0  0  0  0  0  0  0  0  0  0  0
   -5.3844    5.8663  -14.7286 O   0  0  0  0  0  0  0  0  0  0  0  0
   -6.2363    5.0938  -16.8513 C   0  0  0  0  0  0  0  0  0  0  0  0
   -5.1972    5.4360  -17.7860 C   0  0  0  0  0  0  0  0  0  0  0  0
   -5.6580    5.0760  -19.0364 C   0  0  0  0  0  0  0  0  0  0  0  0
   -6.9296    4.5797  -18.9046 N   0  0  0  0  0  0  0  0  0  0  0  0
   -7.3029    4.5640  -17.5758 C   0  0  0  0  0  0  0  0  0  0  0  0
   -5.4805    5.9814  -13.8037 H   0  0  0  0  0  0  0  0  0  0  0  0
   -7.4956    4.2777  -19.6513 H   0  0  0  0  0  0  0  0  0  0  0  0
   -3.8915    6.0903  -17.4048 C   0  0  0  0  0  0  0  0  0  0  0  0
   -3.5590    7.3536  -18.2042 C   0  0  0  0  0  0  0  0  0  0  0  0
   -2.7039    7.0837  -19.4299 C   0  0  0  0  0  0  0  0  0  0  0  0
   -1.5349    6.2700  -19.1089 N   0  0  0  0  0  0  0  0  0  0  0  0
   -1.9565    4.9588  -18.6095 C   0  0  0  0  0  0  0  0  0  0  0  0
   -2.7266    5.0999  -17.3059 C   0  0  0  0  0  0  0  0  0  0  0  0
   -0.9817    6.7417  -18.3935 H   0  0  0  0  0  0  0  0  0  0  0  0
   -7.7704    5.2692  -13.4112 C   0  0  0  0  0  0  0  0  0  0  0  0
   -7.4817    6.3700  -13.1438 O   0  0  0  0  0  0  0  0  0  0  0  0
   -8.2379    4.1106  -12.5074 N   0  0  0  0  0  0  0  0  0  0  0  0
   -8.4961    3.2912  -12.9883 H   0  0  0  0  0  0  0  0  0  0  0  0
   -8.3545    4.0344  -11.1204 C   0  0  0  0  0  0  0  0  0  0  0  0
   -8.0574    5.1586  -10.3274 C   0  0  0  0  0  0  0  0  0  0  0  0
   -8.1379    5.1023   -8.9343 C   0  0  0  0  0  0  0  0  0  0  0  0
   -8.5250    3.9107   -8.3554 C   0  0  0  0  0  0  0  0  0  0  0  0
   -8.8128    2.7950   -9.1348 C   0  0  0  0  0  0  0  0  0  0  0  0
   -8.7366    2.8359  -10.5197 C   0  0  0  0  0  0  0  0  0  0  0  0
   -9.1306    1.6468   -8.2380 C   0  0  0  0  0  0  0  0  0  0  0  0
   -9.3122    2.2290   -6.8844 N   0  0  0  0  0  0  0  0  0  0  0  0
   -8.6939    3.5694   -6.9145 C   0  0  0  0  0  0  0  0  0  0  0  0
   -8.8526    1.6452   -6.1857 H   0  0  0  0  0  0  0  0  0  0  0  0
  1  2  1  0  0  0
  2  3  2  0  0  0
  3  4  1  0  0  0
  4 21  1  0  0  0
 21 22  2  0  0  0
 21 23  1  0  0  0
 23 25  1  0  0  0
 25 26  2  0  0  0
 26 27  1  0  0  0
 27 28  2  0  0  0
 28 29  1  0  0  0
 29 30  2  0  0  0
 29 31  1  0  0  0
 31 32  1  0  0  0
 32 33  1  0  0  0
  4  5  2  0  0  0
  5  6  1  0  0  0
  5  7  1  0  0  0
  7  8  1  0  0  0
  8 14  1  0  0  0
 14 15  1  0  0  0
 15 16  1  0  0  0
 16 17  1  0  0  0
 17 18  1  0  0  0
 18 19  1  0  0  0
  8  9  2  0  0  0
  9 10  1  0  0  0
 10 11  1  0  0  0
 11  2  1  0  0  0
 30 25  1  0  0  0
 11  7  2  0  0  0
 33 28  1  0  0  0
 19 14  1  0  0  0
 23 24  1  0  0  0
 32 34  1  0  0  0
  6 12  1  0  0  0
 17 20  1  0  0  0
 10 13  1  0  0  0
M  END
> <minimizedAffinity>
-9.98137

> <minimizedRMSD>
0.33364

$$$$
P20367


 36 41  0  0  0  0  0  0  0  0999 V2000
   -6.6926    4.7618  -14.8171 C   0  0  0  0  0  0  0  0  0  0  0  0
   -7.8870    4.3565  -15.4441 C   0  0  0  0  0  0  0  0  0  0  0  0
   -8.0350    4.4986  -16.8280 C   0  0  0  0  0  0  0  0  0  0  0  0
   -7.0132    5.1021  -17.5450 C   0  0  0  0  0  0  0  0  0  0  0  0
   -5.8073    5.4884  -16.9313 C   0  0  0  0  0  0  0  0  0  0  0  0
   -5.6340    5.2997  -15.5714 C   0  0  0  0  0  0  0  0  0  0  0  0
   -4.8310    5.9636  -17.9916 C   0  0  0  0  0  0  0  0  0  0  0  0
   -5.9022    6.2640  -19.1088 C   0  0  0  0  0  0  0  0  0  0  0  0
   -6.9824    5.2716  -18.9475 N   0  0  0  0  0  0  0  0  0  0  0  0
   -4.0372    4.7848  -18.3559 N   0  0  0  0  0  0  0  0  0  0  0  0
   -2.9432    5.0271  -19.2735 C   0  0  0  0  0  0  0  0  0  0  0  0
   -1.8596    5.7968  -18.5446 C   0  0  0  0  0  0  0  0  0  0  0  0
   -2.4372    6.6381  -17.3961 C   0  0  0  0  0  0  0  0  0  0  0  0
   -1.4560    7.7617  -17.0888 C   0  0  0  0  0  0  0  0  0  0  0  0
   -1.9966    8.6844  -16.0996 N   0  0  0  0  0  0  0  0  0  0  0  0
   -3.2468    9.2741  -16.5739 C   0  0  0  0  0  0  0  0  0  0  0  0
   -4.3296    8.2171  -16.7835 C   0  0  0  0  0  0  0  0  0  0  0  0
   -3.8579    7.1497  -17.7685 C   0  0  0  0  0  0  0  0  0  0  0  0
   -7.5369    4.8402  -19.6372 H   0  0  0  0  0  0  0  0  0  0  0  0
   -4.6639    4.1053  -18.7870 H   0  0  0  0  0  0  0  0  0  0  0  0
   -1.3191    9.4276  -15.9292 H   0  0  0  0  0  0  0  0  0  0  0  0
   -7.8341    4.3557  -12.5861 N   0  0  0  0  0  0  0  0  0  0  0  0
   -6.5433    4.7833  -13.3328 C   0  0  0  0  0  0  0  0  0  0  0  0
   -5.5069    5.1321  -12.9169 O   0  0  0  0  0  0  0  0  0  0  0  0
   -8.5576    4.0284  -13.1680 H   0  0  0  0  0  0  0  0  0  0  0  0
   -7.8433    6.8954  -10.8259 C   0  0  0  0  0  0  0  0  0  0  0  0
   -8.0611    5.4852  -10.3576 C   0  0  0  0  0  0  0  0  0  0  0  0
   -8.2576    5.3222   -8.9683 C   0  0  0  0  0  0  0  0  0  0  0  0
   -8.6307    4.0890   -8.4750 C   0  0  0  0  0  0  0  0  0  0  0  0
   -8.7996    3.0075   -9.3240 C   0  0  0  0  0  0  0  0  0  0  0  0
   -8.5521    3.1210  -10.6835 C   0  0  0  0  0  0  0  0  0  0  0  0
   -8.1390    4.3595  -11.2131 C   0  0  0  0  0  0  0  0  0  0  0  0
   -9.2209    1.8239   -8.5156 C   0  0  0  0  0  0  0  0  0  0  0  0
   -9.6455    2.3814   -7.2031 N   0  0  0  0  0  0  0  0  0  0  0  0
   -8.9308    3.6692   -7.0756 C   0  0  0  0  0  0  0  0  0  0  0  0
   -9.3830    1.7508   -6.4455 H   0  0  0  0  0  0  0  0  0  0  0  0
 26 27  1  0  0  0
 27 28  2  0  0  0
 28 29  1  0  0  0
 29 30  2  0  0  0
 30 31  1  0  0  0
 31 32  2  0  0  0
 32 22  1  0  0  0
 22 23  1  0  0  0
 23 24  2  0  0  0
 23  1  1  0  0  0
  1  2  2  0  0  0
  2  3  1  0  0  0
  3  4  2  0  0  0
  4  5  1  0  0  0
  5  6  2  0  0  0
  5  7  1  0  0  0
  7  8  1  0  0  0
  8  9  1  0  0  0
  7 10  1  0  0  0
 10 11  1  0  0  0
 11 12  1  0  0  0
 13 12  1  0  0  0
 13 14  1  0  0  0
 14 15  1  0  0  0
 15 16  1  0  0  0
 16 17  1  0  0  0
 18 17  1  0  0  0
 30 33  1  0  0  0
 33 34  1  0  0  0
 34 35  1  0  0  0
 32 27  1  0  0  0
  6  1  1  0  0  0
 18  7  1  0  0  0
 35 29  1  0  0  0
  9  4  1  0  0  0
 18 13  1  0  0  0
 22 25  1  0  0  0
  9 19  1  0  0  0
 10 20  1  0  0  0
 15 21  1  0  0  0
 34 36  1  0  0  0
M  END
> <minimizedAffinity>
-9.20911

> <minimizedRMSD>
0.48346

$$$$
P20371


 35 39  0  0  0  0  0  0  0  0999 V2000
   -5.2190    5.4848  -20.4877 N   0  0  0  0  0  0  0  0  0  0  0  0
   -5.5675    5.2973  -19.2018 C   0  0  0  0  0  0  0  0  0  0  0  0
   -6.8449    4.9169  -18.8810 N   0  0  0  0  0  0  0  0  0  0  0  0
   -6.9740    4.8168  -17.5127 C   0  0  0  0  0  0  0  0  0  0  0  0
   -8.0810    4.5196  -16.7172 C   0  0  0  0  0  0  0  0  0  0  0  0
   -7.9026    4.6281  -15.3287 C   0  0  0  0  0  0  0  0  0  0  0  0
   -9.2954    4.5500  -14.3549 Cl  0  0  0  0  0  0  0  0  0  0  0  0
   -6.6697    4.9178  -14.7423 C   0  0  0  0  0  0  0  0  0  0  0  0
   -5.5777    5.1768  -15.5602 C   0  0  0  0  0  0  0  0  0  0  0  0
   -5.7364    5.1449  -16.9617 C   0  0  0  0  0  0  0  0  0  0  0  0
   -4.8506    5.4531  -18.0361 C   0  0  0  0  0  0  0  0  0  0  0  0
   -5.8741    5.3213  -21.2041 H   0  0  0  0  0  0  0  0  0  0  0  0
   -4.3088    5.7856  -20.7122 H   0  0  0  0  0  0  0  0  0  0  0  0
   -7.5629    4.7413  -19.5313 H   0  0  0  0  0  0  0  0  0  0  0  0
   -3.4405    5.9189  -17.8422 C   0  0  0  0  0  0  0  0  0  0  0  0
   -3.2426    7.3770  -18.2842 C   0  0  0  0  0  0  0  0  0  0  0  0
   -1.7970    7.6598  -18.6861 C   0  0  0  0  0  0  0  0  0  0  0  0
   -0.8657    6.9128  -17.8518 N   0  0  0  0  0  0  0  0  0  0  0  0
   -0.9909    5.4614  -18.0349 C   0  0  0  0  0  0  0  0  0  0  0  0
   -2.3901    4.9980  -18.4523 C   0  0  0  0  0  0  0  0  0  0  0  0
   -1.0497    7.1367  -16.8739 H   0  0  0  0  0  0  0  0  0  0  0  0
   -6.5249    5.1521  -13.2721 C   0  0  0  0  0  0  0  0  0  0  0  0
   -5.9059    6.0780  -12.9173 O   0  0  0  0  0  0  0  0  0  0  0  0
   -7.3473    4.1227  -12.4579 N   0  0  0  0  0  0  0  0  0  0  0  0
   -7.7193    3.3809  -12.9876 H   0  0  0  0  0  0  0  0  0  0  0  0
   -7.6461    4.0756  -11.0995 C   0  0  0  0  0  0  0  0  0  0  0  0
   -7.4546    5.1884  -10.2672 C   0  0  0  0  0  0  0  0  0  0  0  0
   -7.8503    5.1538   -8.9252 C   0  0  0  0  0  0  0  0  0  0  0  0
   -8.4372    3.9980   -8.4447 C   0  0  0  0  0  0  0  0  0  0  0  0
   -8.6273    2.8941   -9.2692 C   0  0  0  0  0  0  0  0  0  0  0  0
   -8.2434    2.9141  -10.5985 C   0  0  0  0  0  0  0  0  0  0  0  0
   -9.2303    1.7875   -8.4709 C   0  0  0  0  0  0  0  0  0  0  0  0
   -9.7276    2.4318   -7.2270 N   0  0  0  0  0  0  0  0  0  0  0  0
   -8.9236    3.6658   -7.0737 C   0  0  0  0  0  0  0  0  0  0  0  0
   -9.5904    1.8150   -6.4263 H   0  0  0  0  0  0  0  0  0  0  0  0
  1  2  1  0  0  0
  2  3  1  0  0  0
  3  4  1  0  0  0
  4  5  2  0  0  0
  5  6  1  0  0  0
  6  7  1  0  0  0
  6  8  2  0  0  0
  8 22  1  0  0  0
 22 23  2  0  0  0
 22 24  1  0  0  0
 24 26  1  0  0  0
 26 27  2  0  0  0
 27 28  1  0  0  0
 28 29  2  0  0  0
 29 30  1  0  0  0
 30 31  2  0  0  0
 30 32  1  0  0  0
 32 33  1  0  0  0
 33 34  1  0  0  0
  8  9  1  0  0  0
  9 10  2  0  0  0
 10 11  1  0  0  0
 11 15  1  0  0  0
 15 16  1  0  0  0
 16 17  1  0  0  0
 17 18  1  0  0  0
 18 19  1  0  0  0
 19 20  1  0  0  0
 11  2  2  0  0  0
 20 15  1  0  0  0
 10  4  1  0  0  0
 31 26  1  0  0  0
 34 29  1  0  0  0
  1 12  1  0  0  0
  1 13  1  0  0  0
  3 14  1  0  0  0
 24 25  1  0  0  0
 33 35  1  0  0  0
 18 21  1  0  0  0
M  END
> <minimizedAffinity>
-8.99367

> <minimizedRMSD>
0.28535

$$$$
P20372


 35 39  0  0  0  0  0  0  0  0999 V2000
   -9.6122    3.6707  -17.5347 N   0  0  0  0  0  0  0  0  0  0  0  0
   -8.5895    4.1938  -16.7388 C   0  0  0  0  0  0  0  0  0  0  0  0
   -8.7961    4.3237  -15.3574 C   0  0  0  0  0  0  0  0  0  0  0  0
   -7.8210    4.8870  -14.5373 C   0  0  0  0  0  0  0  0  0  0  0  0
   -6.5809    5.2697  -15.0634 C   0  0  0  0  0  0  0  0  0  0  0  0
   -6.3330    5.1380  -16.4433 C   0  0  0  0  0  0  0  0  0  0  0  0
   -5.2274    5.4978  -17.2850 C   0  0  0  0  0  0  0  0  0  0  0  0
   -5.6583    5.2877  -18.5744 C   0  0  0  0  0  0  0  0  0  0  0  0
   -4.7140    5.8140  -20.1450 Br  0  0  0  0  0  0  0  0  0  0  0  0
   -6.8932    4.7087  -18.5539 N   0  0  0  0  0  0  0  0  0  0  0  0
   -7.3515    4.6219  -17.2542 C   0  0  0  0  0  0  0  0  0  0  0  0
  -10.4598    3.3857  -17.1227 H   0  0  0  0  0  0  0  0  0  0  0  0
   -9.4852    3.5871  -18.5074 H   0  0  0  0  0  0  0  0  0  0  0  0
   -7.3851    4.3986  -19.3483 H   0  0  0  0  0  0  0  0  0  0  0  0
   -3.8998    6.0863  -16.8970 C   0  0  0  0  0  0  0  0  0  0  0  0
   -4.0233    7.5169  -16.3702 C   0  0  0  0  0  0  0  0  0  0  0  0
   -2.6356    8.0889  -16.0977 C   0  0  0  0  0  0  0  0  0  0  0  0
   -1.8836    7.2461  -15.1705 N   0  0  0  0  0  0  0  0  0  0  0  0
   -1.7333    5.8769  -15.6647 C   0  0  0  0  0  0  0  0  0  0  0  0
   -3.0861    5.2210  -15.9349 C   0  0  0  0  0  0  0  0  0  0  0  0
   -2.3754    7.2207  -14.2772 H   0  0  0  0  0  0  0  0  0  0  0  0
   -8.1182    5.2710  -13.1299 C   0  0  0  0  0  0  0  0  0  0  0  0
   -8.3991    6.3867  -12.9258 O   0  0  0  0  0  0  0  0  0  0  0  0
   -7.9802    4.0782  -12.1563 N   0  0  0  0  0  0  0  0  0  0  0  0
   -7.6545    3.2455  -12.5684 H   0  0  0  0  0  0  0  0  0  0  0  0
   -8.2420    3.9896  -10.7896 C   0  0  0  0  0  0  0  0  0  0  0  0
   -7.9981    5.0819   -9.9399 C   0  0  0  0  0  0  0  0  0  0  0  0
   -8.2116    4.9840   -8.5613 C   0  0  0  0  0  0  0  0  0  0  0  0
   -8.6668    3.7820   -8.0539 C   0  0  0  0  0  0  0  0  0  0  0  0
   -8.9174    2.7020   -8.8914 C   0  0  0  0  0  0  0  0  0  0  0  0
   -8.7214    2.7883  -10.2628 C   0  0  0  0  0  0  0  0  0  0  0  0
   -9.3346    1.5295   -8.0694 C   0  0  0  0  0  0  0  0  0  0  0  0
   -9.5451    2.0454   -6.6919 N   0  0  0  0  0  0  0  0  0  0  0  0
   -8.9363    3.3904   -6.6414 C   0  0  0  0  0  0  0  0  0  0  0  0
   -9.0946    1.4305   -6.0142 H   0  0  0  0  0  0  0  0  0  0  0  0
  1  2  1  0  0  0
  2  3  2  0  0  0
  3  4  1  0  0  0
  4 22  1  0  0  0
 22 23  2  0  0  0
 22 24  1  0  0  0
 24 26  1  0  0  0
 26 27  2  0  0  0
 27 28  1  0  0  0
 28 29  2  0  0  0
 29 30  1  0  0  0
 30 31  2  0  0  0
 30 32  1  0  0  0
 32 33  1  0  0  0
 33 34  1  0  0  0
  4  5  2  0  0  0
  5  6  1  0  0  0
  6  7  1  0  0  0
  7 15  1  0  0  0
 15 16  1  0  0  0
 16 17  1  0  0  0
 17 18  1  0  0  0
 18 19  1  0  0  0
 19 20  1  0  0  0
  7  8  2  0  0  0
  8  9  1  0  0  0
  8 10  1  0  0  0
 10 11  1  0  0  0
 11  2  1  0  0  0
 31 26  1  0  0  0
 11  6  2  0  0  0
 34 29  1  0  0  0
 20 15  1  0  0  0
  1 12  1  0  0  0
  1 13  1  0  0  0
 24 25  1  0  0  0
 33 35  1  0  0  0
 18 21  1  0  0  0
 10 14  1  0  0  0
M  END
> <minimizedAffinity>
-9.39775

> <minimizedRMSD>
0.80918

$$$$
P20376


 34 38  0  0  0  0  0  0  0  0999 V2000
   -5.3872    7.1712  -17.9288 C   0  0  0  0  0  0  0  0  0  0  0  0
   -5.1407    5.6550  -17.8616 C   0  0  0  0  0  0  0  0  0  0  0  0
   -6.0922    5.0794  -16.8196 C   0  0  0  0  0  0  0  0  0  0  0  0
   -5.9927    5.0081  -15.4374 C   0  0  0  0  0  0  0  0  0  0  0  0
   -7.1120    4.5835  -14.6982 C   0  0  0  0  0  0  0  0  0  0  0  0
   -8.3088    4.2537  -15.3647 C   0  0  0  0  0  0  0  0  0  0  0  0
   -8.3937    4.3168  -16.7555 C   0  0  0  0  0  0  0  0  0  0  0  0
   -7.2676    4.6809  -17.4648 C   0  0  0  0  0  0  0  0  0  0  0  0
   -7.2055    4.8504  -18.8557 N   0  0  0  0  0  0  0  0  0  0  0  0
   -5.7863    5.0009  -19.1339 C   0  0  0  0  0  0  0  0  0  0  0  0
   -5.6976    5.7844  -20.2956 O   0  0  0  0  0  0  0  0  0  0  0  0
   -7.9522    4.8643  -19.4971 H   0  0  0  0  0  0  0  0  0  0  0  0
   -6.1674    6.6217  -20.1575 H   0  0  0  0  0  0  0  0  0  0  0  0
   -3.6250    5.4274  -17.5818 C   0  0  0  0  0  0  0  0  0  0  0  0
   -2.9328    6.6327  -16.9044 C   0  0  0  0  0  0  0  0  0  0  0  0
   -1.4749    6.3382  -16.5527 C   0  0  0  0  0  0  0  0  0  0  0  0
   -0.7569    5.5814  -17.5698 N   0  0  0  0  0  0  0  0  0  0  0  0
   -1.4257    5.6363  -18.8608 C   0  0  0  0  0  0  0  0  0  0  0  0
   -2.7820    4.9321  -18.7733 C   0  0  0  0  0  0  0  0  0  0  0  0
   -0.6934    4.6077  -17.2726 H   0  0  0  0  0  0  0  0  0  0  0  0
   -6.9867    4.5376  -13.2133 C   0  0  0  0  0  0  0  0  0  0  0  0
   -5.9735    4.0941  -12.6830 O   0  0  0  0  0  0  0  0  0  0  0  0
   -8.0725    5.1198  -12.3337 C   0  0  0  0  0  0  0  0  0  0  0  0
   -8.7843    6.0115  -12.7798 O   0  0  0  0  0  0  0  0  0  0  0  0
   -8.1636    4.7232  -10.9153 C   0  0  0  0  0  0  0  0  0  0  0  0
   -7.9568    5.7130   -9.9337 C   0  0  0  0  0  0  0  0  0  0  0  0
   -8.1799    5.4301   -8.5847 C   0  0  0  0  0  0  0  0  0  0  0  0
   -8.6119    4.1594   -8.2503 C   0  0  0  0  0  0  0  0  0  0  0  0
   -8.7794    3.1686   -9.2183 C   0  0  0  0  0  0  0  0  0  0  0  0
   -8.5713    3.4315  -10.5640 C   0  0  0  0  0  0  0  0  0  0  0  0
   -9.1957    1.9048   -8.5370 C   0  0  0  0  0  0  0  0  0  0  0  0
   -9.6839    2.3322   -7.2002 N   0  0  0  0  0  0  0  0  0  0  0  0
   -8.9865    3.6051   -6.9147 C   0  0  0  0  0  0  0  0  0  0  0  0
   -9.4520    1.6324   -6.4953 H   0  0  0  0  0  0  0  0  0  0  0  0
  2  1  1  0  0  0
  2 14  1  0  0  0
 14 15  1  0  0  0
 15 16  1  0  0  0
 16 17  1  0  0  0
 17 18  1  0  0  0
 18 19  1  0  0  0
  2  3  1  0  0  0
  3  4  2  0  0  0
  4  5  1  0  0  0
  5 21  1  0  0  0
 21 22  2  0  0  0
 21 23  1  0  0  0
 23 24  2  0  0  0
 23 25  1  0  0  0
 25 26  2  0  0  0
 26 27  1  0  0  0
 27 28  2  0  0  0
 28 29  1  0  0  0
 29 30  2  0  0  0
 29 31  1  0  0  0
 31 32  1  0  0  0
 32 33  1  0  0  0
  5  6  2  0  0  0
  6  7  1  0  0  0
  7  8  2  0  0  0
  8  9  1  0  0  0
  9 10  1  0  0  0
 10 11  1  0  0  0
 10  2  1  0  0  0
 19 14  1  0  0  0
  8  3  1  0  0  0
 30 25  1  0  0  0
 33 28  1  0  0  0
 17 20  1  0  0  0
 32 34  1  0  0  0
  9 12  1  0  0  0
 11 13  1  0  0  0
M  END
> <minimizedAffinity>
-10.08716

> <minimizedRMSD>
0.83120

$$$$
P20377


 37 42  0  0  0  0  0  0  0  0999 V2000
   -2.9437    4.8457  -15.4135 C   0  0  0  0  0  0  0  0  0  0  0  0
   -3.7679    6.0272  -15.9341 C   0  0  0  0  0  0  0  0  0  0  0  0
   -5.0123    6.0933  -15.1122 N   0  0  0  0  0  0  0  0  0  0  0  0
   -6.0740    5.2784  -15.5530 C   0  0  0  0  0  0  0  0  0  0  0  0
   -7.1191    4.8134  -14.7404 C   0  0  0  0  0  0  0  0  0  0  0  0
   -8.2619    4.2118  -15.3052 C   0  0  0  0  0  0  0  0  0  0  0  0
   -8.4104    4.0669  -16.6971 C   0  0  0  0  0  0  0  0  0  0  0  0
   -7.3505    4.5168  -17.4870 C   0  0  0  0  0  0  0  0  0  0  0  0
   -7.1616    4.5969  -18.8497 N   0  0  0  0  0  0  0  0  0  0  0  0
   -5.9442    5.1835  -19.1286 C   0  0  0  0  0  0  0  0  0  0  0  0
   -5.6159    5.4344  -20.3867 O   0  0  0  0  0  0  0  0  0  0  0  0
   -5.3089    5.4401  -17.9330 C   0  0  0  0  0  0  0  0  0  0  0  0
   -6.2132    5.0672  -16.9230 C   0  0  0  0  0  0  0  0  0  0  0  0
   -3.9920    6.0984  -17.5442 C   0  0  0  0  0  0  0  0  0  0  0  0
   -4.0680    7.6071  -17.9407 C   0  0  0  0  0  0  0  0  0  0  0  0
   -2.7861    8.1210  -18.5938 C   0  0  0  0  0  0  0  0  0  0  0  0
   -1.5907    7.5786  -17.9649 N   0  0  0  0  0  0  0  0  0  0  0  0
   -1.4821    6.1337  -18.1561 C   0  0  0  0  0  0  0  0  0  0  0  0
   -2.8250    5.4153  -18.3038 C   0  0  0  0  0  0  0  0  0  0  0  0
   -5.0862    6.6675  -14.3159 H   0  0  0  0  0  0  0  0  0  0  0  0
   -7.8028    4.2811  -19.5266 H   0  0  0  0  0  0  0  0  0  0  0  0
   -6.1906    5.1780  -21.0810 H   0  0  0  0  0  0  0  0  0  0  0  0
   -1.6250    7.7772  -16.9651 H   0  0  0  0  0  0  0  0  0  0  0  0
   -6.9566    4.9624  -13.2749 C   0  0  0  0  0  0  0  0  0  0  0  0
   -5.8671    4.8198  -12.7265 O   0  0  0  0  0  0  0  0  0  0  0  0
   -8.1069    5.4406  -12.4409 C   0  0  0  0  0  0  0  0  0  0  0  0
   -8.8039    6.3506  -12.8808 O   0  0  0  0  0  0  0  0  0  0  0  0
   -8.2198    4.9547  -11.0504 C   0  0  0  0  0  0  0  0  0  0  0  0
   -8.0169    5.9057  -10.0303 C   0  0  0  0  0  0  0  0  0  0  0  0
   -8.1722    5.5514   -8.6904 C   0  0  0  0  0  0  0  0  0  0  0  0
   -8.5581    4.2549   -8.4046 C   0  0  0  0  0  0  0  0  0  0  0  0
   -8.7345    3.3049   -9.4133 C   0  0  0  0  0  0  0  0  0  0  0  0
   -8.5563    3.6291  -10.7519 C   0  0  0  0  0  0  0  0  0  0  0  0
   -9.1310    2.0101   -8.7760 C   0  0  0  0  0  0  0  0  0  0  0  0
   -9.5845    2.3777   -7.4077 N   0  0  0  0  0  0  0  0  0  0  0  0
   -8.8751    3.6327   -7.0840 C   0  0  0  0  0  0  0  0  0  0  0  0
   -9.3379    1.6461   -6.7412 H   0  0  0  0  0  0  0  0  0  0  0  0
  2  1  1  0  0  0
  2  3  1  0  0  0
  3  4  1  0  0  0
  4  5  1  0  0  0
  5 24  1  0  0  0
 24 25  2  0  0  0
 24 26  1  0  0  0
 26 27  2  0  0  0
 26 28  1  0  0  0
 28 29  2  0  0  0
 29 30  1  0  0  0
 30 31  2  0  0  0
 31 32  1  0  0  0
 32 33  2  0  0  0
 32 34  1  0  0  0
 34 35  1  0  0  0
 35 36  1  0  0  0
  5  6  2  0  0  0
  6  7  1  0  0  0
  7  8  2  0  0  0
  8  9  1  0  0  0
  9 10  1  0  0  0
 10 11  1  0  0  0
 10 12  2  0  0  0
 12 13  1  0  0  0
 12 14  1  0  0  0
 14 15  1  0  0  0
 15 16  1  0  0  0
 16 17  1  0  0  0
 17 18  1  0  0  0
 18 19  1  0  0  0
 14  2  1  0  0  0
 13  4  2  0  0  0
 19 14  1  0  0  0
 33 28  1  0  0  0
 13  8  1  0  0  0
 36 31  1  0  0  0
  3 20  1  0  0  0
 35 37  1  0  0  0
  9 21  1  0  0  0
 11 22  1  0  0  0
 17 23  1  0  0  0
M  END
> <minimizedAffinity>
-10.13146

> <minimizedRMSD>
0.38034

$$$$
P20381


 34 38  0  0  0  0  0  0  0  0999 V2000
   -4.2207    4.9093  -18.8532 C   0  0  0  0  0  0  0  0  0  0  0  0
   -4.7584    6.0614  -18.0093 C   0  0  0  0  0  0  0  0  0  0  0  0
   -5.6337    5.4850  -16.9157 C   0  0  0  0  0  0  0  0  0  0  0  0
   -5.3149    4.9794  -15.6678 C   0  0  0  0  0  0  0  0  0  0  0  0
   -6.3276    4.3675  -14.9062 C   0  0  0  0  0  0  0  0  0  0  0  0
   -7.6402    4.2773  -15.3959 C   0  0  0  0  0  0  0  0  0  0  0  0
   -7.9565    4.7980  -16.6517 C   0  0  0  0  0  0  0  0  0  0  0  0
   -6.9559    5.4184  -17.3813 C   0  0  0  0  0  0  0  0  0  0  0  0
   -7.0932    5.9093  -18.6949 N   0  0  0  0  0  0  0  0  0  0  0  0
   -5.8836    6.7032  -18.8939 C   0  0  0  0  0  0  0  0  0  0  0  0
   -6.2001    8.0436  -18.5894 O   0  0  0  0  0  0  0  0  0  0  0  0
   -7.8304    5.7540  -19.3287 H   0  0  0  0  0  0  0  0  0  0  0  0
   -6.5404    8.0975  -17.6826 H   0  0  0  0  0  0  0  0  0  0  0  0
   -3.5399    6.9590  -17.6873 C   0  0  0  0  0  0  0  0  0  0  0  0
   -3.6875    7.9007  -16.4925 C   0  0  0  0  0  0  0  0  0  0  0  0
   -2.4426    8.7842  -16.3706 C   0  0  0  0  0  0  0  0  0  0  0  0
   -1.2162    7.9995  -16.2403 N   0  0  0  0  0  0  0  0  0  0  0  0
   -1.0217    7.1006  -17.3674 C   0  0  0  0  0  0  0  0  0  0  0  0
   -2.2109    6.1663  -17.5203 C   0  0  0  0  0  0  0  0  0  0  0  0
   -1.2678    7.4477  -15.3840 H   0  0  0  0  0  0  0  0  0  0  0  0
   -5.9531    3.8182  -13.5833 C   0  0  0  0  0  0  0  0  0  0  0  0
   -4.7919    3.9093  -13.2010 O   0  0  0  0  0  0  0  0  0  0  0  0
   -6.9690    3.0608  -12.7547 C   0  0  0  0  0  0  0  0  0  0  0  0
   -7.2581    1.9273  -13.1302 O   0  0  0  0  0  0  0  0  0  0  0  0
   -7.4883    3.6029  -11.4653 C   0  0  0  0  0  0  0  0  0  0  0  0
   -7.1629    4.8723  -10.9511 C   0  0  0  0  0  0  0  0  0  0  0  0
   -7.5320    5.2353   -9.6463 C   0  0  0  0  0  0  0  0  0  0  0  0
   -8.2426    4.3270   -8.8808 C   0  0  0  0  0  0  0  0  0  0  0  0
   -8.6230    3.1039   -9.4064 C   0  0  0  0  0  0  0  0  0  0  0  0
   -8.2601    2.7337  -10.6891 C   0  0  0  0  0  0  0  0  0  0  0  0
   -9.3478    2.3097   -8.3747 C   0  0  0  0  0  0  0  0  0  0  0  0
   -9.5287    3.2210   -7.2135 N   0  0  0  0  0  0  0  0  0  0  0  0
   -8.6761    4.4023   -7.4556 C   0  0  0  0  0  0  0  0  0  0  0  0
   -9.2433    2.7532   -6.3532 H   0  0  0  0  0  0  0  0  0  0  0  0
  2  1  1  0  0  0
  2 14  1  0  0  0
 14 15  1  0  0  0
 15 16  1  0  0  0
 16 17  1  0  0  0
 17 18  1  0  0  0
 18 19  1  0  0  0
  2  3  1  0  0  0
  3  4  2  0  0  0
  4  5  1  0  0  0
  5 21  1  0  0  0
 21 22  2  0  0  0
 21 23  1  0  0  0
 23 24  2  0  0  0
 23 25  1  0  0  0
 25 26  2  0  0  0
 26 27  1  0  0  0
 27 28  2  0  0  0
 28 29  1  0  0  0
 29 30  2  0  0  0
 29 31  1  0  0  0
 31 32  1  0  0  0
 32 33  1  0  0  0
  5  6  2  0  0  0
  6  7  1  0  0  0
  7  8  2  0  0  0
  8  9  1  0  0  0
  9 10  1  0  0  0
 10 11  1  0  0  0
 10  2  1  0  0  0
 19 14  1  0  0  0
  8  3  1  0  0  0
 30 25  1  0  0  0
 33 28  1  0  0  0
 17 20  1  0  0  0
 32 34  1  0  0  0
  9 12  1  0  0  0
 11 13  1  0  0  0
M  END
> <minimizedAffinity>
-7.54051

> <minimizedRMSD>
0.96164

$$$$
P20384


 22 24  0  0  0  0  0  0  0  0999 V2000
   -4.0321    5.9579  -20.5516 C   0  0  0  0  0  0  0  0  0  0  0  0
   -4.9131    5.5338  -19.4314 C   0  0  0  0  0  0  0  0  0  0  0  0
   -6.1471    4.9770  -19.6351 N   0  0  0  0  0  0  0  0  0  0  0  0
   -6.7660    4.7312  -18.4329 C   0  0  0  0  0  0  0  0  0  0  0  0
   -8.0380    4.2065  -18.1765 C   0  0  0  0  0  0  0  0  0  0  0  0
   -8.4668    4.1607  -16.8479 C   0  0  0  0  0  0  0  0  0  0  0  0
   -7.6391    4.5964  -15.8125 C   0  0  0  0  0  0  0  0  0  0  0  0
   -6.3448    5.0770  -16.0904 C   0  0  0  0  0  0  0  0  0  0  0  0
   -5.8957    5.1551  -17.4265 C   0  0  0  0  0  0  0  0  0  0  0  0
   -4.7036    5.6340  -18.0674 C   0  0  0  0  0  0  0  0  0  0  0  0
   -6.5361    4.7804  -20.5179 H   0  0  0  0  0  0  0  0  0  0  0  0
   -3.4499    6.2147  -17.4793 C   0  0  0  0  0  0  0  0  0  0  0  0
   -3.6586    7.6052  -16.8811 C   0  0  0  0  0  0  0  0  0  0  0  0
   -2.3131    8.1741  -16.4378 C   0  0  0  0  0  0  0  0  0  0  0  0
   -1.6329    7.2910  -15.4892 N   0  0  0  0  0  0  0  0  0  0  0  0
   -1.4234    5.9519  -16.0455 C   0  0  0  0  0  0  0  0  0  0  0  0
   -2.7318    5.2998  -16.4912 C   0  0  0  0  0  0  0  0  0  0  0  0
   -2.2008    7.2128  -14.6455 H   0  0  0  0  0  0  0  0  0  0  0  0
   -8.1400    4.7153  -14.4206 C   0  0  0  0  0  0  0  0  0  0  0  0
   -7.4320    5.1314  -13.5158 O   0  0  0  0  0  0  0  0  0  0  0  0
   -9.4418    4.4174  -14.2412 O   0  0  0  0  0  0  0  0  0  0  0  0
   -9.9531    4.1004  -14.9595 H   0  0  0  0  0  0  0  0  0  0  0  0
  1  2  1  0  0  0
  2  3  1  0  0  0
  3  4  1  0  0  0
  4  5  2  0  0  0
  5  6  1  0  0  0
  6  7  2  0  0  0
  7 19  1  0  0  0
 19 20  2  0  0  0
 19 21  1  0  0  0
  7  8  1  0  0  0
  8  9  2  0  0  0
  9 10  1  0  0  0
 10 12  1  0  0  0
 12 13  1  0  0  0
 13 14  1  0  0  0
 14 15  1  0  0  0
 15 16  1  0  0  0
 16 17  1  0  0  0
 10  2  2  0  0  0
 17 12  1  0  0  0
  9  4  1  0  0  0
  3 11  1  0  0  0
 21 22  1  0  0  0
 15 18  1  0  0  0
M  END
> <minimizedAffinity>
-7.33553

> <minimizedRMSD>
0.73383

$$$$
P20389


 41 45  0  0  0  0  0  0  0  0999 V2000
   -7.0980    4.9594  -13.1819 C   0  0  0  0  0  0  0  0  0  0  0  0
   -7.3588    6.3512  -13.0672 O   0  0  0  0  0  0  0  0  0  0  0  0
   -7.3584    6.6043  -12.1308 H   0  0  0  0  0  0  0  0  0  0  0  0
   -7.1309    4.7186  -14.6938 C   0  0  0  0  0  0  0  0  0  0  0  0
   -8.3163    4.3370  -15.3455 C   0  0  0  0  0  0  0  0  0  0  0  0
   -8.4030    4.2798  -16.7413 C   0  0  0  0  0  0  0  0  0  0  0  0
   -9.8980    3.9726  -17.5063 Cl  0  0  0  0  0  0  0  0  0  0  0  0
   -7.2768    4.6003  -17.4984 C   0  0  0  0  0  0  0  0  0  0  0  0
   -7.0882    4.6811  -18.8591 N   0  0  0  0  0  0  0  0  0  0  0  0
   -5.8038    5.0810  -19.1306 C   0  0  0  0  0  0  0  0  0  0  0  0
   -5.1537    5.2997  -17.9333 C   0  0  0  0  0  0  0  0  0  0  0  0
   -6.0814    4.9737  -16.8984 C   0  0  0  0  0  0  0  0  0  0  0  0
   -6.0133    5.0244  -15.4911 C   0  0  0  0  0  0  0  0  0  0  0  0
   -7.7732    4.4815  -19.5375 H   0  0  0  0  0  0  0  0  0  0  0  0
   -3.7639    5.8106  -17.7042 C   0  0  0  0  0  0  0  0  0  0  0  0
   -3.5386    7.2240  -18.2355 C   0  0  0  0  0  0  0  0  0  0  0  0
   -2.1650    7.7369  -17.7911 C   0  0  0  0  0  0  0  0  0  0  0  0
   -1.1283    6.7043  -17.6822 N   0  0  0  0  0  0  0  0  0  0  0  0
   -1.3901    5.5803  -18.5832 C   0  0  0  0  0  0  0  0  0  0  0  0
   -2.6832    4.8493  -18.2162 C   0  0  0  0  0  0  0  0  0  0  0  0
   -1.1035    6.3602  -16.7223 H   0  0  0  0  0  0  0  0  0  0  0  0
   -5.2764    3.4190  -12.5376 O   0  0  0  0  0  0  0  0  0  0  0  0
   -5.6872    4.5146  -12.5334 C   0  0  0  0  0  0  0  0  0  0  0  0
   -5.0611    5.8255  -11.9673 N   0  0  0  0  0  0  0  0  0  0  0  0
   -5.6442    6.6170  -12.0194 H   0  0  0  0  0  0  0  0  0  0  0  0
   -3.7633    6.0671  -11.3784 C   0  0  0  0  0  0  0  0  0  0  0  0
   -3.6006    5.4787   -9.9833 C   0  0  0  0  0  0  0  0  0  0  0  0
   -3.0092    6.3902   -9.1672 F   0  0  0  0  0  0  0  0  0  0  0  0
   -4.8108    5.1975   -9.4395 F   0  0  0  0  0  0  0  0  0  0  0  0
   -8.2038    4.2734  -12.5186 N   0  0  0  0  0  0  0  0  0  0  0  0
   -8.9077    3.8632  -13.0712 H   0  0  0  0  0  0  0  0  0  0  0  0
   -8.2991    4.1777  -11.1162 C   0  0  0  0  0  0  0  0  0  0  0  0
   -8.1467    5.2675  -10.2301 C   0  0  0  0  0  0  0  0  0  0  0  0
   -8.3295    5.1366   -8.8469 C   0  0  0  0  0  0  0  0  0  0  0  0
   -8.7086    3.9078   -8.3547 C   0  0  0  0  0  0  0  0  0  0  0  0
   -8.8878    2.8274   -9.2077 C   0  0  0  0  0  0  0  0  0  0  0  0
   -8.7029    2.9469  -10.5756 C   0  0  0  0  0  0  0  0  0  0  0  0
   -9.2543    1.6296   -8.3978 C   0  0  0  0  0  0  0  0  0  0  0  0
   -9.6941    2.1783   -7.0866 N   0  0  0  0  0  0  0  0  0  0  0  0
   -8.9903    3.4738   -6.9560 C   0  0  0  0  0  0  0  0  0  0  0  0
   -9.4301    1.5492   -6.3283 H   0  0  0  0  0  0  0  0  0  0  0  0
 22 23  2  0  0  0
 23 24  1  0  0  0
 24 26  1  0  0  0
 26 27  1  0  0  0
 27 28  1  0  0  0
 27 29  1  0  0  0
 23  1  1  0  0  0
  1  2  1  0  0  0
  1 30  1  0  0  0
 30 32  1  0  0  0
 32 33  2  0  0  0
 33 34  1  0  0  0
 34 35  2  0  0  0
 35 36  1  0  0  0
 36 37  2  0  0  0
 36 38  1  0  0  0
 38 39  1  0  0  0
 39 40  1  0  0  0
  1  4  1  0  0  0
  4  5  2  0  0  0
  5  6  1  0  0  0
  6  7  1  0  0  0
  6  8  2  0  0  0
  8  9  1  0  0  0
  9 10  1  0  0  0
 10 11  2  0  0  0
 11 15  1  0  0  0
 15 16  1  0  0  0
 16 17  1  0  0  0
 17 18  1  0  0  0
 18 19  1  0  0  0
 19 20  1  0  0  0
 11 12  1  0  0  0
 12 13  2  0  0  0
 37 32  1  0  0  0
 13  4  1  0  0  0
 40 35  1  0  0  0
 12  8  1  0  0  0
 20 15  1  0  0  0
 24 25  1  0  0  0
  2  3  1  0  0  0
 30 31  1  0  0  0
 39 41  1  0  0  0
  9 14  1  0  0  0
 18 21  1  0  0  0
M  END
> <minimizedAffinity>
-8.83431

> <minimizedRMSD>
1.31159

$$$$
P20390


 32 36  0  0  0  0  0  0  0  0999 V2000
   -7.3871    4.7442  -14.7220 C   0  0  0  0  0  0  0  0  0  0  0  0
   -8.5262    4.1934  -15.3049 C   0  0  0  0  0  0  0  0  0  0  0  0
   -8.5893    4.0471  -16.6846 C   0  0  0  0  0  0  0  0  0  0  0  0
   -9.7041    3.5860  -17.2611 F   0  0  0  0  0  0  0  0  0  0  0  0
   -7.5087    4.4544  -17.4634 C   0  0  0  0  0  0  0  0  0  0  0  0
   -7.3699    4.4748  -18.8263 N   0  0  0  0  0  0  0  0  0  0  0  0
   -6.1387    4.9651  -19.1587 C   0  0  0  0  0  0  0  0  0  0  0  0
   -5.4658    5.3085  -18.0027 C   0  0  0  0  0  0  0  0  0  0  0  0
   -6.3416    4.9851  -16.9121 C   0  0  0  0  0  0  0  0  0  0  0  0
   -6.2844    5.1295  -15.5088 C   0  0  0  0  0  0  0  0  0  0  0  0
   -8.0546    4.1803  -19.4695 H   0  0  0  0  0  0  0  0  0  0  0  0
   -4.0981    5.9322  -17.9829 C   0  0  0  0  0  0  0  0  0  0  0  0
   -4.1055    7.3607  -17.4292 C   0  0  0  0  0  0  0  0  0  0  0  0
   -2.7011    7.9562  -17.4773 C   0  0  0  0  0  0  0  0  0  0  0  0
   -1.7425    7.1215  -16.7567 N   0  0  0  0  0  0  0  0  0  0  0  0
   -1.6852    5.7654  -17.3028 C   0  0  0  0  0  0  0  0  0  0  0  0
   -3.0496    5.0809  -17.2635 C   0  0  0  0  0  0  0  0  0  0  0  0
   -2.0199    7.0712  -15.7764 H   0  0  0  0  0  0  0  0  0  0  0  0
   -6.8932    6.1240  -12.9800 O   0  0  0  0  0  0  0  0  0  0  0  0
   -7.3776    5.1027  -13.2776 C   0  0  0  0  0  0  0  0  0  0  0  0
   -8.1120    4.0502  -12.4115 N   0  0  0  0  0  0  0  0  0  0  0  0
   -8.5005    3.2995  -12.9164 H   0  0  0  0  0  0  0  0  0  0  0  0
   -8.3127    3.9923  -11.0327 C   0  0  0  0  0  0  0  0  0  0  0  0
   -8.0968    5.1189  -10.2224 C   0  0  0  0  0  0  0  0  0  0  0  0
   -8.2915    5.0572   -8.8382 C   0  0  0  0  0  0  0  0  0  0  0  0
   -8.6954    3.8560   -8.2860 C   0  0  0  0  0  0  0  0  0  0  0  0
   -8.9055    2.7376   -9.0829 C   0  0  0  0  0  0  0  0  0  0  0  0
   -8.7291    2.7878  -10.4585 C   0  0  0  0  0  0  0  0  0  0  0  0
   -9.2709    1.5786   -8.2180 C   0  0  0  0  0  0  0  0  0  0  0  0
   -9.5067    2.1370   -6.8615 N   0  0  0  0  0  0  0  0  0  0  0  0
   -8.9509    3.5060   -6.8599 C   0  0  0  0  0  0  0  0  0  0  0  0
   -9.0353    1.5659   -6.1600 H   0  0  0  0  0  0  0  0  0  0  0  0
 19 20  2  0  0  0
 20 21  1  0  0  0
 21 23  1  0  0  0
 23 24  2  0  0  0
 24 25  1  0  0  0
 25 26  2  0  0  0
 26 27  1  0  0  0
 27 28  2  0  0  0
 27 29  1  0  0  0
 29 30  1  0  0  0
 30 31  1  0  0  0
 20  1  1  0  0  0
  1  2  2  0  0  0
  2  3  1  0  0  0
  3  4  1  0  0  0
  3  5  2  0  0  0
  5  6  1  0  0  0
  6  7  1  0  0  0
  7  8  2  0  0  0
  8 12  1  0  0  0
 12 13  1  0  0  0
 13 14  1  0  0  0
 14 15  1  0  0  0
 15 16  1  0  0  0
 16 17  1  0  0  0
  8  9  1  0  0  0
  9 10  2  0  0  0
 28 23  1  0  0  0
 10  1  1  0  0  0
 31 26  1  0  0  0
  9  5  1  0  0  0
 17 12  1  0  0  0
 21 22  1  0  0  0
 30 32  1  0  0  0
  6 11  1  0  0  0
 15 18  1  0  0  0
M  END
> <minimizedAffinity>
-9.73793

> <minimizedRMSD>
0.34954

$$$$
P20391


 38 42  0  0  0  0  0  0  0  0999 V2000
   -7.2017    5.0096  -13.1991 C   0  0  0  0  0  0  0  0  0  0  0  0
   -5.9716    4.4909  -12.7469 O   0  0  0  0  0  0  0  0  0  0  0  0
   -5.8958    4.6266  -11.7895 H   0  0  0  0  0  0  0  0  0  0  0  0
   -7.2550    4.7612  -14.7203 C   0  0  0  0  0  0  0  0  0  0  0  0
   -8.4074    4.3456  -15.4040 C   0  0  0  0  0  0  0  0  0  0  0  0
   -8.4291    4.2455  -16.8007 C   0  0  0  0  0  0  0  0  0  0  0  0
   -9.8661    3.8377  -17.6217 Cl  0  0  0  0  0  0  0  0  0  0  0  0
   -7.2879    4.5864  -17.5236 C   0  0  0  0  0  0  0  0  0  0  0  0
   -7.0526    4.6408  -18.8783 N   0  0  0  0  0  0  0  0  0  0  0  0
   -5.7733    5.0745  -19.1128 C   0  0  0  0  0  0  0  0  0  0  0  0
   -5.1708    5.3280  -17.8967 C   0  0  0  0  0  0  0  0  0  0  0  0
   -6.1248    4.9992  -16.8884 C   0  0  0  0  0  0  0  0  0  0  0  0
   -6.1083    5.0648  -15.4818 C   0  0  0  0  0  0  0  0  0  0  0  0
   -7.7059    4.4036  -19.5756 H   0  0  0  0  0  0  0  0  0  0  0  0
   -3.7978    5.8663  -17.6279 C   0  0  0  0  0  0  0  0  0  0  0  0
   -3.5851    7.2778  -18.1704 C   0  0  0  0  0  0  0  0  0  0  0  0
   -2.2250    7.8183  -17.7189 C   0  0  0  0  0  0  0  0  0  0  0  0
   -1.1917    6.7921  -17.5631 N   0  0  0  0  0  0  0  0  0  0  0  0
   -1.4015    5.6567  -18.4557 C   0  0  0  0  0  0  0  0  0  0  0  0
   -2.6923    4.9157  -18.1074 C   0  0  0  0  0  0  0  0  0  0  0  0
   -1.2032    6.4584  -16.5993 H   0  0  0  0  0  0  0  0  0  0  0  0
   -9.4760    8.2551  -13.0773 C   0  0  0  0  0  0  0  0  0  0  0  0
   -8.8162    6.9858  -13.1634 N   0  0  0  0  0  0  0  0  0  0  0  0
   -7.3144    6.6164  -13.0067 C   0  0  0  0  0  0  0  0  0  0  0  0
   -6.3765    7.3011  -12.8601 O   0  0  0  0  0  0  0  0  0  0  0  0
   -9.4106    6.2241  -13.3525 H   0  0  0  0  0  0  0  0  0  0  0  0
   -8.2824    4.2555  -12.5325 N   0  0  0  0  0  0  0  0  0  0  0  0
   -8.9813    3.8269  -13.0775 H   0  0  0  0  0  0  0  0  0  0  0  0
   -8.3296    4.1393  -11.1263 C   0  0  0  0  0  0  0  0  0  0  0  0
   -8.0918    5.2185  -10.2495 C   0  0  0  0  0  0  0  0  0  0  0  0
   -8.2464    5.0960   -8.8623 C   0  0  0  0  0  0  0  0  0  0  0  0
   -8.6622    3.8838   -8.3556 C   0  0  0  0  0  0  0  0  0  0  0  0
   -8.8948    2.8046   -9.1972 C   0  0  0  0  0  0  0  0  0  0  0  0
   -8.7543    2.9184  -10.5715 C   0  0  0  0  0  0  0  0  0  0  0  0
   -9.2777    1.6234   -8.3689 C   0  0  0  0  0  0  0  0  0  0  0  0
   -9.6821    2.1942   -7.0578 N   0  0  0  0  0  0  0  0  0  0  0  0
   -8.9535    3.4780   -6.9496 C   0  0  0  0  0  0  0  0  0  0  0  0
   -9.4165    1.5675   -6.2981 H   0  0  0  0  0  0  0  0  0  0  0  0
 22 23  1  0  0  0
 23 24  1  0  0  0
 24 25  2  0  0  0
 24  1  1  0  0  0
  1  2  1  0  0  0
  1 27  1  0  0  0
 27 29  1  0  0  0
 29 30  2  0  0  0
 30 31  1  0  0  0
 31 32  2  0  0  0
 32 33  1  0  0  0
 33 34  2  0  0  0
 33 35  1  0  0  0
 35 36  1  0  0  0
 36 37  1  0  0  0
  1  4  1  0  0  0
  4  5  2  0  0  0
  5  6  1  0  0  0
  6  7  1  0  0  0
  6  8  2  0  0  0
  8  9  1  0  0  0
  9 10  1  0  0  0
 10 11  2  0  0  0
 11 15  1  0  0  0
 15 16  1  0  0  0
 16 17  1  0  0  0
 17 18  1  0  0  0
 18 19  1  0  0  0
 19 20  1  0  0  0
 11 12  1  0  0  0
 12 13  2  0  0  0
 34 29  1  0  0  0
 13  4  1  0  0  0
 37 32  1  0  0  0
 12  8  1  0  0  0
 20 15  1  0  0  0
 23 26  1  0  0  0
  2  3  1  0  0  0
 27 28  1  0  0  0
 36 38  1  0  0  0
  9 14  1  0  0  0
 18 21  1  0  0  0
M  END
> <minimizedAffinity>
-9.59495

> <minimizedRMSD>
0.29945

$$$$
P20395


 38 43  0  0  0  0  0  0  0  0999 V2000
   -7.8238    5.3758  -14.6142 C   0  0  0  0  0  0  0  0  0  0  0  0
   -8.5477    4.1563  -15.2120 C   0  0  0  0  0  0  0  0  0  0  0  0
   -8.6266    4.3230  -16.7289 C   0  0  0  0  0  0  0  0  0  0  0  0
   -9.2420    2.9090  -17.5560 Cl  0  0  0  0  0  0  0  0  0  0  0  0
   -7.3047    4.7307  -17.2745 C   0  0  0  0  0  0  0  0  0  0  0  0
   -7.0325    4.6971  -18.6117 N   0  0  0  0  0  0  0  0  0  0  0  0
   -5.7666    5.1442  -18.8067 C   0  0  0  0  0  0  0  0  0  0  0  0
   -5.2036    5.5094  -17.5909 C   0  0  0  0  0  0  0  0  0  0  0  0
   -6.2129    5.2585  -16.5772 C   0  0  0  0  0  0  0  0  0  0  0  0
   -6.3066    5.4938  -15.0477 C   0  0  0  0  0  0  0  0  0  0  0  0
   -5.4216    4.5898  -14.1914 C   0  0  0  0  0  0  0  0  0  0  0  0
   -5.0124    5.4525  -13.0843 N   0  0  0  0  0  0  0  0  0  0  0  0
   -4.7618    6.7187  -13.7245 C   0  0  0  0  0  0  0  0  0  0  0  0
   -5.7962    6.8587  -14.7388 N   0  0  0  0  0  0  0  0  0  0  0  0
   -7.6514    4.3984  -19.3167 H   0  0  0  0  0  0  0  0  0  0  0  0
   -4.1680    5.0962  -12.6366 H   0  0  0  0  0  0  0  0  0  0  0  0
   -5.4044    7.2828  -15.5797 H   0  0  0  0  0  0  0  0  0  0  0  0
   -3.8025    6.0679  -17.5614 C   0  0  0  0  0  0  0  0  0  0  0  0
   -3.7262    7.5904  -17.4547 C   0  0  0  0  0  0  0  0  0  0  0  0
   -2.2764    8.0581  -17.5648 C   0  0  0  0  0  0  0  0  0  0  0  0
   -1.4098    7.3920  -16.5907 N   0  0  0  0  0  0  0  0  0  0  0  0
   -1.4319    5.9377  -16.7596 C   0  0  0  0  0  0  0  0  0  0  0  0
   -2.8436    5.3808  -16.5959 C   0  0  0  0  0  0  0  0  0  0  0  0
   -1.7307    7.6214  -15.6501 H   0  0  0  0  0  0  0  0  0  0  0  0
   -8.3040    6.8276  -12.8437 O   0  0  0  0  0  0  0  0  0  0  0  0
   -8.1013    5.7120  -13.1425 C   0  0  0  0  0  0  0  0  0  0  0  0
   -8.1031    4.4207  -12.2763 N   0  0  0  0  0  0  0  0  0  0  0  0
   -7.9765    3.5852  -12.7815 H   0  0  0  0  0  0  0  0  0  0  0  0
   -8.2542    4.2542  -10.9057 C   0  0  0  0  0  0  0  0  0  0  0  0
   -8.0294    5.3303  -10.0328 C   0  0  0  0  0  0  0  0  0  0  0  0
   -8.1979    5.1796   -8.6558 C   0  0  0  0  0  0  0  0  0  0  0  0
   -8.6157    3.9508   -8.1813 C   0  0  0  0  0  0  0  0  0  0  0  0
   -8.8405    2.8847   -9.0439 C   0  0  0  0  0  0  0  0  0  0  0  0
   -8.6496    3.0101  -10.4107 C   0  0  0  0  0  0  0  0  0  0  0  0
   -9.2620    1.6926   -8.2543 C   0  0  0  0  0  0  0  0  0  0  0  0
   -9.4769    2.1731   -6.8648 N   0  0  0  0  0  0  0  0  0  0  0  0
   -8.8851    3.5233   -6.7804 C   0  0  0  0  0  0  0  0  0  0  0  0
   -9.0183    1.5472   -6.2027 H   0  0  0  0  0  0  0  0  0  0  0  0
 25 26  2  0  0  0
 26 27  1  0  0  0
 27 29  1  0  0  0
 29 30  2  0  0  0
 30 31  1  0  0  0
 31 32  2  0  0  0
 32 33  1  0  0  0
 33 34  2  0  0  0
 33 35  1  0  0  0
 35 36  1  0  0  0
 36 37  1  0  0  0
  1 26  1  0  0  0
  1  2  1  0  0  0
  2  3  1  0  0  0
  3  4  1  0  0  0
  3  5  1  0  0  0
  5  6  1  0  0  0
  6  7  1  0  0  0
  7  8  2  0  0  0
  8 18  1  0  0  0
 18 19  1  0  0  0
 19 20  1  0  0  0
 20 21  1  0  0  0
 21 22  1  0  0  0
 22 23  1  0  0  0
  8  9  1  0  0  0
  9 10  1  0  0  0
 10 11  1  0  0  0
 11 12  1  0  0  0
 12 13  1  0  0  0
 13 14  1  0  0  0
 34 29  1  0  0  0
 10  1  1  0  0  0
 37 32  1  0  0  0
  9  5  2  0  0  0
 14 10  1  0  0  0
 23 18  1  0  0  0
 27 28  1  0  0  0
 36 38  1  0  0  0
  6 15  1  0  0  0
 21 24  1  0  0  0
 12 16  1  0  0  0
 14 17  1  0  0  0
M  END
> <minimizedAffinity>
-9.23231

> <minimizedRMSD>
0.37986

$$$$
P20397


 34 39  0  0  0  0  0  0  0  0999 V2000
   -7.5768    4.8624  -14.8332 C   0  0  0  0  0  0  0  0  0  0  0  0
   -8.6713    4.3689  -15.5379 C   0  0  0  0  0  0  0  0  0  0  0  0
   -8.6037    4.2104  -16.9244 C   0  0  0  0  0  0  0  0  0  0  0  0
   -9.9889    3.7438  -17.7775 Cl  0  0  0  0  0  0  0  0  0  0  0  0
   -7.4244    4.5491  -17.5837 C   0  0  0  0  0  0  0  0  0  0  0  0
   -7.0595    4.6161  -18.9107 N   0  0  0  0  0  0  0  0  0  0  0  0
   -5.7399    5.0273  -19.0131 C   0  0  0  0  0  0  0  0  0  0  0  0
   -5.2496    5.2382  -17.7406 C   0  0  0  0  0  0  0  0  0  0  0  0
   -6.3243    4.9645  -16.8638 C   0  0  0  0  0  0  0  0  0  0  0  0
   -6.3604    5.1118  -15.4720 C   0  0  0  0  0  0  0  0  0  0  0  0
   -5.1241    5.6168  -14.7891 C   0  0  0  0  0  0  0  0  0  0  0  0
   -3.8778    5.2611  -15.6205 C   0  0  0  0  0  0  0  0  0  0  0  0
   -3.9276    5.7155  -17.1464 C   0  0  0  0  0  0  0  0  0  0  0  0
   -3.8398    7.2612  -17.1912 C   0  0  0  0  0  0  0  0  0  0  0  0
   -3.3731    7.7966  -18.5388 C   0  0  0  0  0  0  0  0  0  0  0  0
   -2.1003    7.1991  -18.9332 N   0  0  0  0  0  0  0  0  0  0  0  0
   -2.2589    5.7561  -19.1109 C   0  0  0  0  0  0  0  0  0  0  0  0
   -2.6968    5.0755  -17.8231 C   0  0  0  0  0  0  0  0  0  0  0  0
   -7.6474    4.4039  -19.6713 H   0  0  0  0  0  0  0  0  0  0  0  0
   -1.4051    7.3758  -18.2081 H   0  0  0  0  0  0  0  0  0  0  0  0
   -7.6016    6.4286  -13.1865 O   0  0  0  0  0  0  0  0  0  0  0  0
   -7.7513    5.2983  -13.4340 C   0  0  0  0  0  0  0  0  0  0  0  0
   -8.1158    4.1155  -12.5181 N   0  0  0  0  0  0  0  0  0  0  0  0
   -8.2596    3.2613  -12.9859 H   0  0  0  0  0  0  0  0  0  0  0  0
   -8.2748    4.0573  -11.1390 C   0  0  0  0  0  0  0  0  0  0  0  0
   -8.0399    5.1925  -10.3453 C   0  0  0  0  0  0  0  0  0  0  0  0
   -8.1673    5.1327   -8.9565 C   0  0  0  0  0  0  0  0  0  0  0  0
   -8.5434    3.9304   -8.3891 C   0  0  0  0  0  0  0  0  0  0  0  0
   -8.7806    2.8078   -9.1738 C   0  0  0  0  0  0  0  0  0  0  0  0
   -8.6465    2.8483  -10.5516 C   0  0  0  0  0  0  0  0  0  0  0  0
   -9.1258    1.6548   -8.2947 C   0  0  0  0  0  0  0  0  0  0  0  0
   -9.3193    2.2231   -6.9357 N   0  0  0  0  0  0  0  0  0  0  0  0
   -8.7405    3.5817   -6.9543 C   0  0  0  0  0  0  0  0  0  0  0  0
   -8.8409    1.6472   -6.2430 H   0  0  0  0  0  0  0  0  0  0  0  0
 21 22  2  0  0  0
 22 23  1  0  0  0
 23 25  1  0  0  0
 25 26  2  0  0  0
 26 27  1  0  0  0
 27 28  2  0  0  0
 28 29  1  0  0  0
 29 30  2  0  0  0
 29 31  1  0  0  0
 31 32  1  0  0  0
 32 33  1  0  0  0
 22  1  1  0  0  0
  1  2  2  0  0  0
  2  3  1  0  0  0
  3  4  1  0  0  0
  3  5  2  0  0  0
  5  6  1  0  0  0
  6  7  1  0  0  0
  7  8  2  0  0  0
  8  9  1  0  0  0
  9 10  2  0  0  0
 10 11  1  0  0  0
 11 12  1  0  0  0
 12 13  1  0  0  0
 13 14  1  0  0  0
 14 15  1  0  0  0
 15 16  1  0  0  0
 16 17  1  0  0  0
 17 18  1  0  0  0
 30 25  1  0  0  0
 10  1  1  0  0  0
 18 13  1  0  0  0
 33 28  1  0  0  0
  9  5  1  0  0  0
 13  8  1  0  0  0
 23 24  1  0  0  0
 32 34  1  0  0  0
  6 19  1  0  0  0
 16 20  1  0  0  0
M  END
> <minimizedAffinity>
-10.75685

> <minimizedRMSD>
0.29352

$$$$
P20399


 37 41  0  0  0  0  0  0  0  0999 V2000
   -5.4056    6.3009  -13.8171 C   0  0  0  0  0  0  0  0  0  0  0  0
   -6.2325    5.5038  -14.7861 C   0  0  0  0  0  0  0  0  0  0  0  0
   -7.4774    5.0031  -14.3069 C   0  0  0  0  0  0  0  0  0  0  0  0
   -8.3087    4.2685  -15.1357 C   0  0  0  0  0  0  0  0  0  0  0  0
   -7.9656    4.0238  -16.4625 C   0  0  0  0  0  0  0  0  0  0  0  0
   -6.8095    4.6114  -16.9667 C   0  0  0  0  0  0  0  0  0  0  0  0
   -6.3989    4.6789  -18.2785 N   0  0  0  0  0  0  0  0  0  0  0  0
   -5.1738    5.2484  -18.3458 C   0  0  0  0  0  0  0  0  0  0  0  0
   -4.7954    5.6121  -17.0669 C   0  0  0  0  0  0  0  0  0  0  0  0
   -5.8946    5.3010  -16.1718 C   0  0  0  0  0  0  0  0  0  0  0  0
   -6.9187    4.3607  -19.0517 H   0  0  0  0  0  0  0  0  0  0  0  0
   -3.4400    6.1901  -16.8030 C   0  0  0  0  0  0  0  0  0  0  0  0
   -3.4760    7.6874  -16.4930 C   0  0  0  0  0  0  0  0  0  0  0  0
   -2.0984    8.1951  -16.0907 C   0  0  0  0  0  0  0  0  0  0  0  0
   -1.5090    7.3931  -15.0194 N   0  0  0  0  0  0  0  0  0  0  0  0
   -1.3185    6.0077  -15.4535 C   0  0  0  0  0  0  0  0  0  0  0  0
   -2.6395    5.3406  -15.8082 C   0  0  0  0  0  0  0  0  0  0  0  0
   -2.1297    7.4079  -14.2101 H   0  0  0  0  0  0  0  0  0  0  0  0
   -8.0448    5.3558  -12.9560 C   0  0  0  0  0  0  0  0  0  0  0  0
   -8.7922    6.2519  -12.8785 O   0  0  0  0  0  0  0  0  0  0  0  0
   -7.5747    4.3412  -11.8777 N   0  0  0  0  0  0  0  0  0  0  0  0
   -6.8729    3.7184  -12.1757 H   0  0  0  0  0  0  0  0  0  0  0  0
   -7.9851    4.1693  -10.5565 C   0  0  0  0  0  0  0  0  0  0  0  0
   -7.9012    5.2155   -9.6262 C   0  0  0  0  0  0  0  0  0  0  0  0
   -8.2850    5.0220   -8.2948 C   0  0  0  0  0  0  0  0  0  0  0  0
   -8.7668    3.7801   -7.9217 C   0  0  0  0  0  0  0  0  0  0  0  0
   -8.8937    2.7561   -8.8494 C   0  0  0  0  0  0  0  0  0  0  0  0
   -8.5055    2.9288  -10.1703 C   0  0  0  0  0  0  0  0  0  0  0  0
   -9.4402    1.5414   -8.1794 C   0  0  0  0  0  0  0  0  0  0  0  0
   -9.7126    1.9236   -6.7688 N   0  0  0  0  0  0  0  0  0  0  0  0
   -9.1839    3.2906   -6.5777 C   0  0  0  0  0  0  0  0  0  0  0  0
   -9.2449    1.2760   -6.1345 H   0  0  0  0  0  0  0  0  0  0  0  0
   -8.9488    3.3227  -17.3325 C   0  0  0  0  0  0  0  0  0  0  0  0
   -9.6852    4.4105  -18.0351 C   0  0  0  0  0  0  0  0  0  0  0  0
  -11.1088    4.1078  -18.1659 C   0  0  0  0  0  0  0  0  0  0  0  0
   -9.1809    4.5344  -19.2889 F   0  0  0  0  0  0  0  0  0  0  0  0
   -9.5353    5.5664  -17.3570 F   0  0  0  0  0  0  0  0  0  0  0  0
  1  2  1  0  0  0
  2  3  2  0  0  0
  3 19  1  0  0  0
 19 20  2  0  0  0
 19 21  1  0  0  0
 21 23  1  0  0  0
 23 24  2  0  0  0
 24 25  1  0  0  0
 25 26  2  0  0  0
 26 27  1  0  0  0
 27 28  2  0  0  0
 27 29  1  0  0  0
 29 30  1  0  0  0
 30 31  1  0  0  0
  3  4  1  0  0  0
  4  5  2  0  0  0
  5 33  1  0  0  0
 33 34  1  0  0  0
 34 35  1  0  0  0
 34 36  1  0  0  0
 34 37  1  0  0  0
  5  6  1  0  0  0
  6  7  1  0  0  0
  7  8  1  0  0  0
  8  9  2  0  0  0
  9 12  1  0  0  0
 12 13  1  0  0  0
 13 14  1  0  0  0
 14 15  1  0  0  0
 15 16  1  0  0  0
 16 17  1  0  0  0
  9 10  1  0  0  0
 10  2  1  0  0  0
 28 23  1  0  0  0
 10  6  2  0  0  0
 31 26  1  0  0  0
 17 12  1  0  0  0
 21 22  1  0  0  0
 30 32  1  0  0  0
  7 11  1  0  0  0
 15 18  1  0  0  0
M  END
> <minimizedAffinity>
-6.89834

> <minimizedRMSD>
1.11902

$$$$
P20400


 41 46  0  0  0  0  0  0  0  0999 V2000
   -7.1838    5.0683  -13.2142 C   0  0  0  0  0  0  0  0  0  0  0  0
   -9.7764    3.4371  -17.4516 Cl  0  0  0  0  0  0  0  0  0  0  0  0
   -8.3848    4.1120  -16.7297 C   0  0  0  0  0  0  0  0  0  0  0  0
   -8.3154    4.2581  -15.3444 C   0  0  0  0  0  0  0  0  0  0  0  0
   -7.1886    4.8194  -14.7294 C   0  0  0  0  0  0  0  0  0  0  0  0
   -6.1124    5.2317  -15.5483 C   0  0  0  0  0  0  0  0  0  0  0  0
   -6.1694    5.1123  -16.9555 C   0  0  0  0  0  0  0  0  0  0  0  0
   -5.2858    5.4506  -18.0353 C   0  0  0  0  0  0  0  0  0  0  0  0
   -5.9506    5.1234  -19.2014 C   0  0  0  0  0  0  0  0  0  0  0  0
   -7.1751    4.6064  -18.8797 N   0  0  0  0  0  0  0  0  0  0  0  0
   -7.3227    4.5653  -17.5141 C   0  0  0  0  0  0  0  0  0  0  0  0
   -7.8510    4.3077  -19.5302 H   0  0  0  0  0  0  0  0  0  0  0  0
   -3.9037    6.0424  -17.9801 C   0  0  0  0  0  0  0  0  0  0  0  0
   -3.8641    7.4373  -17.3438 C   0  0  0  0  0  0  0  0  0  0  0  0
   -2.4364    7.9793  -17.3199 C   0  0  0  0  0  0  0  0  0  0  0  0
   -1.5031    7.0657  -16.6605 N   0  0  0  0  0  0  0  0  0  0  0  0
   -1.5042    5.7514  -17.3076 C   0  0  0  0  0  0  0  0  0  0  0  0
   -2.8918    5.1137  -17.2992 C   0  0  0  0  0  0  0  0  0  0  0  0
   -1.7779    6.9564  -15.6843 H   0  0  0  0  0  0  0  0  0  0  0  0
   -5.8317    5.1528  -12.6501 N   0  0  0  0  0  0  0  0  0  0  0  0
   -5.1646    4.1096  -12.5695 C   0  0  0  0  0  0  0  0  0  0  0  0
   -3.8236    3.8846  -12.1285 N   0  0  0  0  0  0  0  0  0  0  0  0
   -3.6989    3.9520  -11.1543 H   0  0  0  0  0  0  0  0  0  0  0  0
   -2.6258    3.5770  -12.8607 C   0  0  0  0  0  0  0  0  0  0  0  0
   -1.8246    2.4194  -12.2560 C   0  0  0  0  0  0  0  0  0  0  0  0
   -2.2602    1.0276  -12.6845 C   0  0  0  0  0  0  0  0  0  0  0  0
   -1.0316    0.2196  -12.3448 C   0  0  0  0  0  0  0  0  0  0  0  0
    0.0912    1.1715  -12.7041 C   0  0  0  0  0  0  0  0  0  0  0  0
   -0.4203    2.5075  -12.5698 O   0  0  0  0  0  0  0  0  0  0  0  0
   -8.1145    4.1622  -12.5546 N   0  0  0  0  0  0  0  0  0  0  0  0
   -8.6671    3.5626  -13.1063 H   0  0  0  0  0  0  0  0  0  0  0  0
   -8.2484    4.1162  -11.1657 C   0  0  0  0  0  0  0  0  0  0  0  0
   -8.1193    5.2468  -10.3325 C   0  0  0  0  0  0  0  0  0  0  0  0
   -8.2804    5.1686   -8.9427 C   0  0  0  0  0  0  0  0  0  0  0  0
   -8.6056    3.9472   -8.3901 C   0  0  0  0  0  0  0  0  0  0  0  0
   -8.8009    2.8363   -9.1958 C   0  0  0  0  0  0  0  0  0  0  0  0
   -8.6420    2.9065  -10.5728 C   0  0  0  0  0  0  0  0  0  0  0  0
   -9.2068    1.6767   -8.3523 C   0  0  0  0  0  0  0  0  0  0  0  0
   -9.0208    2.1100   -6.9396 N   0  0  0  0  0  0  0  0  0  0  0  0
   -8.8371    3.5777   -6.9672 C   0  0  0  0  0  0  0  0  0  0  0  0
   -8.1977    1.6600   -6.5391 H   0  0  0  0  0  0  0  0  0  0  0  0
  2  3  1  0  0  0
  3  4  2  0  0  0
  4  5  1  0  0  0
  5  1  1  0  0  0
  1 20  1  0  0  0
 20 21  2  0  0  0
 21 22  1  0  0  0
 22 24  1  0  0  0
 25 24  1  0  0  0
 25 26  1  0  0  0
 26 27  1  0  0  0
 27 28  1  0  0  0
 28 29  1  0  0  0
  1 30  1  0  0  0
 30 32  1  0  0  0
 32 33  2  0  0  0
 33 34  1  0  0  0
 34 35  2  0  0  0
 35 36  1  0  0  0
 36 37  2  0  0  0
 36 38  1  0  0  0
 38 39  1  0  0  0
 39 40  1  0  0  0
  5  6  2  0  0  0
  6  7  1  0  0  0
  7  8  1  0  0  0
  8 13  1  0  0  0
 13 14  1  0  0  0
 14 15  1  0  0  0
 15 16  1  0  0  0
 16 17  1  0  0  0
 17 18  1  0  0  0
  8  9  2  0  0  0
  9 10  1  0  0  0
 10 11  1  0  0  0
 11  3  1  0  0  0
 29 25  1  0  0  0
 37 32  1  0  0  0
 11  7  2  0  0  0
 40 35  1  0  0  0
 18 13  1  0  0  0
 22 23  1  0  0  0
 30 31  1  0  0  0
 39 41  1  0  0  0
 16 19  1  0  0  0
 10 12  1  0  0  0
M  END
> <minimizedAffinity>
-9.40936

> <minimizedRMSD>
1.89837

$$$$
P20401


 34 38  0  0  0  0  0  0  0  0999 V2000
   -7.1627    4.5825  -14.8221 C   0  0  0  0  0  0  0  0  0  0  0  0
   -8.3849    4.1836  -15.3639 C   0  0  0  0  0  0  0  0  0  0  0  0
   -8.5663    4.1915  -16.7452 C   0  0  0  0  0  0  0  0  0  0  0  0
   -9.7562    3.8647  -17.2706 F   0  0  0  0  0  0  0  0  0  0  0  0
   -7.5147    4.6096  -17.5617 C   0  0  0  0  0  0  0  0  0  0  0  0
   -7.4587    4.7637  -18.9212 N   0  0  0  0  0  0  0  0  0  0  0  0
   -6.2247    5.2279  -19.2876 C   0  0  0  0  0  0  0  0  0  0  0  0
   -5.4595    5.4151  -18.1558 C   0  0  0  0  0  0  0  0  0  0  0  0
   -6.2771    5.0061  -17.0525 C   0  0  0  0  0  0  0  0  0  0  0  0
   -6.1030    4.9812  -15.6570 C   0  0  0  0  0  0  0  0  0  0  0  0
   -8.1970    4.5694  -19.5429 H   0  0  0  0  0  0  0  0  0  0  0  0
   -4.0678    5.9884  -18.1552 C   0  0  0  0  0  0  0  0  0  0  0  0
   -3.9914    7.3468  -17.4473 C   0  0  0  0  0  0  0  0  0  0  0  0
   -2.5712    7.9026  -17.5044 C   0  0  0  0  0  0  0  0  0  0  0  0
   -1.6074    6.9624  -16.9386 N   0  0  0  0  0  0  0  0  0  0  0  0
   -1.6263    5.6788  -17.6393 C   0  0  0  0  0  0  0  0  0  0  0  0
   -3.0095    5.0319  -17.5997 C   0  0  0  0  0  0  0  0  0  0  0  0
   -1.8357    6.8061  -15.9568 H   0  0  0  0  0  0  0  0  0  0  0  0
   -8.0874    4.1227  -12.5158 N   0  0  0  0  0  0  0  0  0  0  0  0
   -6.9612    4.7629  -13.3565 C   0  0  0  0  0  0  0  0  0  0  0  0
   -6.0061    5.3445  -13.0235 O   0  0  0  0  0  0  0  0  0  0  0  0
   -8.7525    3.6162  -13.0357 H   0  0  0  0  0  0  0  0  0  0  0  0
   -8.1902    5.2793  -10.2917 C   0  0  0  0  0  0  0  0  0  0  0  0
   -8.3580    5.1502   -8.8976 C   0  0  0  0  0  0  0  0  0  0  0  0
   -8.7096    3.9233   -8.3738 C   0  0  0  0  0  0  0  0  0  0  0  0
   -8.8845    2.8225   -9.1987 C   0  0  0  0  0  0  0  0  0  0  0  0
   -8.6884    2.9113  -10.5671 C   0  0  0  0  0  0  0  0  0  0  0  0
   -8.3171    4.1454  -11.1314 C   0  0  0  0  0  0  0  0  0  0  0  0
   -9.2581    1.6456   -8.3575 C   0  0  0  0  0  0  0  0  0  0  0  0
   -9.6754    2.2268   -7.0544 N   0  0  0  0  0  0  0  0  0  0  0  0
   -8.9815    3.5276   -6.9616 C   0  0  0  0  0  0  0  0  0  0  0  0
   -9.3946    1.6175   -6.2862 H   0  0  0  0  0  0  0  0  0  0  0  0
   -8.0042    7.6744  -11.2674 N   0  0  0  0  0  0  0  0  0  0  0  0
   -8.0460    6.6305  -10.7569 C   0  0  0  0  0  0  0  0  0  0  0  0
 33 34  3  0  0  0
 34 23  1  0  0  0
 23 24  2  0  0  0
 24 25  1  0  0  0
 25 26  2  0  0  0
 26 27  1  0  0  0
 27 28  2  0  0  0
 28 19  1  0  0  0
 19 20  1  0  0  0
 20 21  2  0  0  0
 20  1  1  0  0  0
  1  2  2  0  0  0
  2  3  1  0  0  0
  3  4  1  0  0  0
  3  5  2  0  0  0
  5  6  1  0  0  0
  6  7  1  0  0  0
  7  8  2  0  0  0
  8 12  1  0  0  0
 12 13  1  0  0  0
 13 14  1  0  0  0
 14 15  1  0  0  0
 15 16  1  0  0  0
 16 17  1  0  0  0
  8  9  1  0  0  0
  9 10  2  0  0  0
 26 29  1  0  0  0
 29 30  1  0  0  0
 30 31  1  0  0  0
 28 23  1  0  0  0
 10  1  1  0  0  0
 31 25  1  0  0  0
  9  5  1  0  0  0
 17 12  1  0  0  0
 19 22  1  0  0  0
  6 11  1  0  0  0
 15 18  1  0  0  0
 30 32  1  0  0  0
M  END
> <minimizedAffinity>
-9.22244

> <minimizedRMSD>
0.39932

$$$$
P20402


 39 43  0  0  0  0  0  0  0  0999 V2000
   -5.1573    5.4604  -17.6525 C   0  0  0  0  0  0  0  0  0  0  0  0
   -5.6157    5.0817  -18.9094 C   0  0  0  0  0  0  0  0  0  0  0  0
   -6.8793    4.5748  -18.8155 N   0  0  0  0  0  0  0  0  0  0  0  0
   -7.2778    4.5929  -17.5077 C   0  0  0  0  0  0  0  0  0  0  0  0
   -8.4810    4.1682  -16.9528 C   0  0  0  0  0  0  0  0  0  0  0  0
   -9.4663    3.6834  -17.7140 F   0  0  0  0  0  0  0  0  0  0  0  0
   -8.6548    4.2636  -15.5864 C   0  0  0  0  0  0  0  0  0  0  0  0
   -7.6489    4.7778  -14.7797 C   0  0  0  0  0  0  0  0  0  0  0  0
   -6.4507    5.2258  -15.3385 C   0  0  0  0  0  0  0  0  0  0  0  0
   -6.2414    5.1406  -16.7418 C   0  0  0  0  0  0  0  0  0  0  0  0
   -7.4192    4.2475  -19.5708 H   0  0  0  0  0  0  0  0  0  0  0  0
   -2.7666    5.9687  -18.6119 C   0  0  0  0  0  0  0  0  0  0  0  0
   -3.3123    6.7685  -19.6574 O   0  0  0  0  0  0  0  0  0  0  0  0
   -1.3428    6.5295  -18.2202 C   0  0  0  0  0  0  0  0  0  0  0  0
   -1.3216    7.6956  -17.3188 N   0  0  0  0  0  0  0  0  0  0  0  0
   -2.5849    8.4150  -17.3595 C   0  0  0  0  0  0  0  0  0  0  0  0
   -3.8152    7.5880  -16.9044 C   0  0  0  0  0  0  0  0  0  0  0  0
   -5.0497    8.3826  -17.3563 C   0  0  0  0  0  0  0  0  0  0  0  0
   -3.7445    6.0623  -17.3492 C   0  0  0  0  0  0  0  0  0  0  0  0
   -3.1035    5.2623  -16.1725 C   0  0  0  0  0  0  0  0  0  0  0  0
   -2.7327    6.7251  -20.4339 H   0  0  0  0  0  0  0  0  0  0  0  0
   -0.5714    8.3243  -17.6056 H   0  0  0  0  0  0  0  0  0  0  0  0
   -2.3602    4.5417  -20.5529 C   0  0  0  0  0  0  0  0  0  0  0  0
   -2.6545    4.6177  -19.1308 N   0  0  0  0  0  0  0  0  0  0  0  0
   -1.9071    4.1427  -18.6247 H   0  0  0  0  0  0  0  0  0  0  0  0
   -7.7670    4.5438  -13.3258 C   0  0  0  0  0  0  0  0  0  0  0  0
   -7.7992    3.4247  -13.0254 O   0  0  0  0  0  0  0  0  0  0  0  0
   -7.8202    5.8035  -12.4619 N   0  0  0  0  0  0  0  0  0  0  0  0
   -7.6976    6.6468  -12.9549 H   0  0  0  0  0  0  0  0  0  0  0  0
   -8.0138    5.9524  -11.0921 C   0  0  0  0  0  0  0  0  0  0  0  0
   -8.1058    7.2142  -10.5004 C   0  0  0  0  0  0  0  0  0  0  0  0
   -8.2859    7.3240   -9.1134 C   0  0  0  0  0  0  0  0  0  0  0  0
   -8.3901    6.1649   -8.3562 C   0  0  0  0  0  0  0  0  0  0  0  0
   -8.3072    4.9141   -8.9472 C   0  0  0  0  0  0  0  0  0  0  0  0
   -8.1134    4.7915  -10.3065 C   0  0  0  0  0  0  0  0  0  0  0  0
   -8.4352    3.8469   -7.9128 C   0  0  0  0  0  0  0  0  0  0  0  0
   -8.9115    4.5539   -6.6936 N   0  0  0  0  0  0  0  0  0  0  0  0
   -8.5755    5.9813   -6.8877 C   0  0  0  0  0  0  0  0  0  0  0  0
   -8.4400    4.1889   -5.8660 H   0  0  0  0  0  0  0  0  0  0  0  0
 23 24  1  0  0  0
 24 12  1  0  0  0
 12 13  1  0  0  0
 12 14  1  0  0  0
 14 15  1  0  0  0
 15 16  1  0  0  0
 16 17  1  0  0  0
 17 18  1  0  0  0
 17 19  1  0  0  0
 19 20  1  0  0  0
 19  1  1  0  0  0
  1  2  2  0  0  0
  2  3  1  0  0  0
  3  4  1  0  0  0
  4  5  2  0  0  0
  5  6  1  0  0  0
  5  7  1  0  0  0
  7  8  2  0  0  0
  8 26  1  0  0  0
 26 27  2  0  0  0
 26 28  1  0  0  0
 28 30  1  0  0  0
 30 31  2  0  0  0
 31 32  1  0  0  0
 32 33  2  0  0  0
 33 34  1  0  0  0
 34 35  2  0  0  0
 34 36  1  0  0  0
 36 37  1  0  0  0
 37 38  1  0  0  0
  8  9  1  0  0  0
  9 10  2  0  0  0
 19 12  1  0  0  0
 10  1  1  0  0  0
 10  4  1  0  0  0
 35 30  1  0  0  0
 38 33  1  0  0  0
 24 25  1  0  0  0
 13 21  1  0  0  0
 15 22  1  0  0  0
  3 11  1  0  0  0
 28 29  1  0  0  0
 37 39  1  0  0  0
M  END
> <minimizedAffinity>
-8.73158

> <minimizedRMSD>
0.97422

$$$$
P20404


 43 47  0  0  0  0  0  0  0  0999 V2000
   -7.2741    5.3292  -13.1494 C   0  0  0  0  0  0  0  0  0  0  0  0
   -6.0577    5.3033  -12.4368 O   0  0  0  0  0  0  0  0  0  0  0  0
   -5.6718    4.4148  -12.4881 H   0  0  0  0  0  0  0  0  0  0  0  0
   -5.8643    5.2993  -15.4307 C   0  0  0  0  0  0  0  0  0  0  0  0
   -7.0562    4.9869  -14.6567 C   0  0  0  0  0  0  0  0  0  0  0  0
   -8.1839    4.4859  -15.3262 C   0  0  0  0  0  0  0  0  0  0  0  0
   -8.1877    4.3056  -16.6960 C   0  0  0  0  0  0  0  0  0  0  0  0
   -9.7509    3.7901  -17.5711 Br  0  0  0  0  0  0  0  0  0  0  0  0
   -7.0624    4.6275  -17.4388 C   0  0  0  0  0  0  0  0  0  0  0  0
   -6.9098    4.5604  -18.8016 N   0  0  0  0  0  0  0  0  0  0  0  0
   -5.6838    5.0126  -19.1514 C   0  0  0  0  0  0  0  0  0  0  0  0
   -5.0138    5.4178  -18.0114 C   0  0  0  0  0  0  0  0  0  0  0  0
   -5.8896    5.1349  -16.8723 C   0  0  0  0  0  0  0  0  0  0  0  0
   -7.5918    4.2317  -19.4310 H   0  0  0  0  0  0  0  0  0  0  0  0
   -3.6581    6.0665  -18.1475 C   0  0  0  0  0  0  0  0  0  0  0  0
   -3.5860    7.4472  -17.4798 C   0  0  0  0  0  0  0  0  0  0  0  0
   -2.1751    8.0217  -17.5362 C   0  0  0  0  0  0  0  0  0  0  0  0
   -1.1720    7.0748  -17.0512 N   0  0  0  0  0  0  0  0  0  0  0  0
   -1.1544    5.8741  -17.8899 C   0  0  0  0  0  0  0  0  0  0  0  0
   -2.4860    5.1365  -17.8384 C   0  0  0  0  0  0  0  0  0  0  0  0
   -1.3953    6.8110  -16.0916 H   0  0  0  0  0  0  0  0  0  0  0  0
   -3.4857    4.8604  -14.5340 C   0  0  0  0  0  0  0  0  0  0  0  0
   -4.6379    5.8400  -14.7332 C   0  0  0  0  0  0  0  0  0  0  0  0
   -7.9863    6.7932  -13.1100 C   0  0  0  0  0  0  0  0  0  0  0  0
   -9.1404    6.9689  -13.2082 O   0  0  0  0  0  0  0  0  0  0  0  0
   -6.8252    7.8107  -12.8728 N   0  0  0  0  0  0  0  0  0  0  0  0
   -5.9378    7.4025  -12.7500 H   0  0  0  0  0  0  0  0  0  0  0  0
   -6.8424    9.2539  -12.8042 C   0  0  0  0  0  0  0  0  0  0  0  0
   -6.1886    9.9552  -13.9894 C   0  0  0  0  0  0  0  0  0  0  0  0
   -5.1079   10.6564  -13.5544 F   0  0  0  0  0  0  0  0  0  0  0  0
   -5.7100    9.0317  -14.8657 F   0  0  0  0  0  0  0  0  0  0  0  0
   -8.1306    4.3395  -12.4773 N   0  0  0  0  0  0  0  0  0  0  0  0
   -8.6310    3.7081  -13.0431 H   0  0  0  0  0  0  0  0  0  0  0  0
   -8.2840    4.2322  -11.0884 C   0  0  0  0  0  0  0  0  0  0  0  0
   -8.1139    5.3093  -10.1924 C   0  0  0  0  0  0  0  0  0  0  0  0
   -8.2382    5.1635   -8.8048 C   0  0  0  0  0  0  0  0  0  0  0  0
   -8.5726    3.9248   -8.3083 C   0  0  0  0  0  0  0  0  0  0  0  0
   -8.7888    2.8584   -9.1660 C   0  0  0  0  0  0  0  0  0  0  0  0
   -8.6667    2.9971  -10.5443 C   0  0  0  0  0  0  0  0  0  0  0  0
   -9.0981    1.6416   -8.3609 C   0  0  0  0  0  0  0  0  0  0  0  0
   -9.2966    2.1121   -6.9647 N   0  0  0  0  0  0  0  0  0  0  0  0
   -8.7622    3.4854   -6.8981 C   0  0  0  0  0  0  0  0  0  0  0  0
   -8.7932    1.5076   -6.3154 H   0  0  0  0  0  0  0  0  0  0  0  0
 22 23  1  0  0  0
 23  4  1  0  0  0
  4  5  2  0  0  0
  5  1  1  0  0  0
  1  2  1  0  0  0
  1 32  1  0  0  0
 32 34  1  0  0  0
 34 35  2  0  0  0
 35 36  1  0  0  0
 36 37  2  0  0  0
 37 38  1  0  0  0
 38 39  2  0  0  0
 38 40  1  0  0  0
 40 41  1  0  0  0
 41 42  1  0  0  0
  1 24  1  0  0  0
 24 25  2  0  0  0
 24 26  1  0  0  0
 26 28  1  0  0  0
 28 29  1  0  0  0
 29 30  1  0  0  0
 29 31  1  0  0  0
  5  6  1  0  0  0
  6  7  2  0  0  0
  7  8  1  0  0  0
  7  9  1  0  0  0
  9 10  1  0  0  0
 10 11  1  0  0  0
 11 12  2  0  0  0
 12 15  1  0  0  0
 15 16  1  0  0  0
 16 17  1  0  0  0
 17 18  1  0  0  0
 18 19  1  0  0  0
 19 20  1  0  0  0
 12 13  1  0  0  0
 13  4  1  0  0  0
 39 34  1  0  0  0
 13  9  2  0  0  0
 42 37  1  0  0  0
 20 15  1  0  0  0
  2  3  1  0  0  0
 32 33  1  0  0  0
 41 43  1  0  0  0
 26 27  1  0  0  0
 10 14  1  0  0  0
 18 21  1  0  0  0
M  END
> <minimizedAffinity>
-8.49438

> <minimizedRMSD>
0.60530

$$$$
P20405


 41 46  0  0  0  0  0  0  0  0999 V2000
   -5.5929    5.8782  -14.9268 C   0  0  0  0  0  0  0  0  0  0  0  0
   -6.0804    6.8310  -13.8165 C   0  0  0  0  0  0  0  0  0  0  0  0
   -4.7592    6.7737  -15.9560 C   0  0  0  0  0  0  0  0  0  0  0  0
   -4.5908    7.9802  -15.7215 O   0  0  0  0  0  0  0  0  0  0  0  0
   -4.2526    6.1346  -17.2968 C   0  0  0  0  0  0  0  0  0  0  0  0
   -3.7694    7.2795  -18.2162 C   0  0  0  0  0  0  0  0  0  0  0  0
   -2.5043    7.9720  -17.6841 C   0  0  0  0  0  0  0  0  0  0  0  0
   -1.6823    7.1170  -16.8239 N   0  0  0  0  0  0  0  0  0  0  0  0
   -1.7053    5.7408  -17.2880 C   0  0  0  0  0  0  0  0  0  0  0  0
   -3.0932    5.1323  -17.0865 C   0  0  0  0  0  0  0  0  0  0  0  0
   -5.4477    5.4262  -17.8893 C   0  0  0  0  0  0  0  0  0  0  0  0
   -5.7496    5.0674  -19.1837 C   0  0  0  0  0  0  0  0  0  0  0  0
   -6.9849    4.4620  -19.1825 N   0  0  0  0  0  0  0  0  0  0  0  0
   -7.4666    4.3869  -17.8990 C   0  0  0  0  0  0  0  0  0  0  0  0
   -8.6421    3.8583  -17.3910 C   0  0  0  0  0  0  0  0  0  0  0  0
   -9.5433    3.2649  -18.1803 F   0  0  0  0  0  0  0  0  0  0  0  0
   -8.8858    4.0136  -16.0340 C   0  0  0  0  0  0  0  0  0  0  0  0
   -7.9686    4.6854  -15.2040 C   0  0  0  0  0  0  0  0  0  0  0  0
   -6.7355    5.1910  -15.6945 C   0  0  0  0  0  0  0  0  0  0  0  0
   -6.5353    5.0052  -17.0812 C   0  0  0  0  0  0  0  0  0  0  0  0
   -2.0449    7.1544  -15.8712 H   0  0  0  0  0  0  0  0  0  0  0  0
   -7.4536    4.1317  -19.9828 H   0  0  0  0  0  0  0  0  0  0  0  0
   -8.5054    5.0032  -13.8597 C   0  0  0  0  0  0  0  0  0  0  0  0
   -9.3414    5.8144  -13.7902 O   0  0  0  0  0  0  0  0  0  0  0  0
   -7.9001    4.0953  -12.7696 N   0  0  0  0  0  0  0  0  0  0  0  0
   -7.2519    3.4316  -13.0991 H   0  0  0  0  0  0  0  0  0  0  0  0
   -8.1216    4.0613  -11.3932 C   0  0  0  0  0  0  0  0  0  0  0  0
   -7.9898    5.2270  -10.6196 C   0  0  0  0  0  0  0  0  0  0  0  0
   -8.1850    5.1971   -9.2348 C   0  0  0  0  0  0  0  0  0  0  0  0
   -8.5533    3.9992   -8.6512 C   0  0  0  0  0  0  0  0  0  0  0  0
   -8.7168    2.8522   -9.4171 C   0  0  0  0  0  0  0  0  0  0  0  0
   -8.4816    2.8566  -10.7853 C   0  0  0  0  0  0  0  0  0  0  0  0
   -9.1452    1.7263   -8.5368 C   0  0  0  0  0  0  0  0  0  0  0  0
   -9.3631    2.3111   -7.1879 N   0  0  0  0  0  0  0  0  0  0  0  0
   -8.8255    3.6860   -7.2200 C   0  0  0  0  0  0  0  0  0  0  0  0
   -8.8724    1.7597   -6.4839 H   0  0  0  0  0  0  0  0  0  0  0  0
   -4.8165    4.7881  -14.4129 O   0  0  0  0  0  0  0  0  0  0  0  0
   -3.8619    5.0207  -13.3782 C   0  0  0  0  0  0  0  0  0  0  0  0
   -2.7836    3.9470  -13.2326 C   0  0  0  0  0  0  0  0  0  0  0  0
   -2.5545    1.6438  -12.8155 C   0  0  0  0  0  0  0  0  0  0  0  0
   -3.3458    2.8030  -12.5852 O   0  0  0  0  0  0  0  0  0  0  0  0
 40 41  1  0  0  0
 41 39  1  0  0  0
 39 38  1  0  0  0
 38 37  1  0  0  0
 37  1  1  0  0  0
  1  2  1  0  0  0
  1  3  1  0  0  0
  3  4  2  0  0  0
  3  5  1  0  0  0
  5  6  1  0  0  0
  6  7  1  0  0  0
  7  8  1  0  0  0
  8  9  1  0  0  0
  9 10  1  0  0  0
  5 11  1  0  0  0
 11 12  2  0  0  0
 12 13  1  0  0  0
 13 14  1  0  0  0
 14 15  1  0  0  0
 15 16  1  0  0  0
 15 17  2  0  0  0
 17 18  1  0  0  0
 18 23  1  0  0  0
 23 24  2  0  0  0
 23 25  1  0  0  0
 25 27  1  0  0  0
 27 28  2  0  0  0
 28 29  1  0  0  0
 29 30  2  0  0  0
 30 31  1  0  0  0
 31 32  2  0  0  0
 31 33  1  0  0  0
 33 34  1  0  0  0
 34 35  1  0  0  0
 18 19  2  0  0  0
 19 20  1  0  0  0
 19  1  1  0  0  0
 10  5  1  0  0  0
 20 11  1  0  0  0
 20 14  2  0  0  0
 32 27  1  0  0  0
 35 30  1  0  0  0
  8 21  1  0  0  0
 13 22  1  0  0  0
 25 26  1  0  0  0
 34 36  1  0  0  0
M  END
> <minimizedAffinity>
-10.00522

> <minimizedRMSD>
1.38821

$$$$
P20406


 34 38  0  0  0  0  0  0  0  0999 V2000
   -7.1992    4.6265  -14.7085 C   0  0  0  0  0  0  0  0  0  0  0  0
   -8.4084    4.2704  -15.3060 C   0  0  0  0  0  0  0  0  0  0  0  0
   -8.5284    4.2610  -16.7017 C   0  0  0  0  0  0  0  0  0  0  0  0
   -9.7047    3.9723  -17.2752 F   0  0  0  0  0  0  0  0  0  0  0  0
   -7.4314    4.6319  -17.4819 C   0  0  0  0  0  0  0  0  0  0  0  0
   -7.2904    4.7809  -18.8400 N   0  0  0  0  0  0  0  0  0  0  0  0
   -6.0135    5.1975  -19.1357 C   0  0  0  0  0  0  0  0  0  0  0  0
   -5.3164    5.3529  -17.9551 C   0  0  0  0  0  0  0  0  0  0  0  0
   -6.2120    4.9763  -16.9103 C   0  0  0  0  0  0  0  0  0  0  0  0
   -6.0943    4.9498  -15.5120 C   0  0  0  0  0  0  0  0  0  0  0  0
   -7.9984    4.6142  -19.5035 H   0  0  0  0  0  0  0  0  0  0  0  0
   -3.9114    5.8431  -17.7418 C   0  0  0  0  0  0  0  0  0  0  0  0
   -3.6418    7.2152  -18.3555 C   0  0  0  0  0  0  0  0  0  0  0  0
   -2.2512    7.7152  -17.9473 C   0  0  0  0  0  0  0  0  0  0  0  0
   -1.2637    6.6522  -17.7452 N   0  0  0  0  0  0  0  0  0  0  0  0
   -1.5322    5.4863  -18.5800 C   0  0  0  0  0  0  0  0  0  0  0  0
   -2.8540    4.8234  -18.1896 C   0  0  0  0  0  0  0  0  0  0  0  0
   -1.2834    6.3670  -16.7661 H   0  0  0  0  0  0  0  0  0  0  0  0
   -8.1821    4.3574  -12.3706 N   0  0  0  0  0  0  0  0  0  0  0  0
   -7.0048    4.8558  -13.2430 C   0  0  0  0  0  0  0  0  0  0  0  0
   -6.0157    5.4005  -12.9412 O   0  0  0  0  0  0  0  0  0  0  0  0
   -8.9441    3.9926  -12.8762 H   0  0  0  0  0  0  0  0  0  0  0  0
   -8.2003    5.4534  -10.0842 C   0  0  0  0  0  0  0  0  0  0  0  0
   -8.2936    5.2357   -8.6944 C   0  0  0  0  0  0  0  0  0  0  0  0
   -8.5969    3.9757   -8.2127 C   0  0  0  0  0  0  0  0  0  0  0  0
   -8.7826    2.9101   -9.0736 C   0  0  0  0  0  0  0  0  0  0  0  0
   -8.6659    3.0729  -10.4434 C   0  0  0  0  0  0  0  0  0  0  0  0
   -8.3412    4.3407  -10.9691 C   0  0  0  0  0  0  0  0  0  0  0  0
   -9.0390    1.6755   -8.2770 C   0  0  0  0  0  0  0  0  0  0  0  0
   -9.2935    2.1409   -6.8899 N   0  0  0  0  0  0  0  0  0  0  0  0
   -8.7779    3.5208   -6.8052 C   0  0  0  0  0  0  0  0  0  0  0  0
   -8.8067    1.5420   -6.2231 H   0  0  0  0  0  0  0  0  0  0  0  0
   -9.1186    8.1060   -9.5837 C   0  0  0  0  0  0  0  0  0  0  0  0
   -7.9849    7.1584  -10.6301 S   0  0  0  0  0  0  0  0  0  0  0  0
 33 34  1  0  0  0
 34 23  1  0  0  0
 23 24  2  0  0  0
 24 25  1  0  0  0
 25 26  2  0  0  0
 26 27  1  0  0  0
 27 28  2  0  0  0
 28 19  1  0  0  0
 19 20  1  0  0  0
 20 21  2  0  0  0
 20  1  1  0  0  0
  1  2  2  0  0  0
  2  3  1  0  0  0
  3  4  1  0  0  0
  3  5  2  0  0  0
  5  6  1  0  0  0
  6  7  1  0  0  0
  7  8  2  0  0  0
  8 12  1  0  0  0
 12 13  1  0  0  0
 13 14  1  0  0  0
 14 15  1  0  0  0
 15 16  1  0  0  0
 16 17  1  0  0  0
  8  9  1  0  0  0
  9 10  2  0  0  0
 26 29  1  0  0  0
 29 30  1  0  0  0
 30 31  1  0  0  0
 28 23  1  0  0  0
 10  1  1  0  0  0
 31 25  1  0  0  0
  9  5  1  0  0  0
 17 12  1  0  0  0
 19 22  1  0  0  0
  6 11  1  0  0  0
 15 18  1  0  0  0
 30 32  1  0  0  0
M  END
> <minimizedAffinity>
-9.45909

> <minimizedRMSD>
0.34615

$$$$
P20408


 37 41  0  0  0  0  0  0  0  0999 V2000
   -8.0720    4.1192  -12.4763 N   0  0  0  0  0  0  0  0  0  0  0  0
   -7.2958    5.1673  -13.3130 C   0  0  0  0  0  0  0  0  0  0  0  0
   -6.8022    6.1775  -12.9928 O   0  0  0  0  0  0  0  0  0  0  0  0
   -8.4594    3.3799  -12.9984 H   0  0  0  0  0  0  0  0  0  0  0  0
   -7.2735    4.8196  -14.7616 C   0  0  0  0  0  0  0  0  0  0  0  0
   -8.4148    4.3113  -15.3736 C   0  0  0  0  0  0  0  0  0  0  0  0
   -8.4505    4.1744  -16.7559 C   0  0  0  0  0  0  0  0  0  0  0  0
   -9.8896    3.7011  -17.5273 Cl  0  0  0  0  0  0  0  0  0  0  0  0
   -7.3392    4.5428  -17.5129 C   0  0  0  0  0  0  0  0  0  0  0  0
   -7.1634    4.5586  -18.8755 N   0  0  0  0  0  0  0  0  0  0  0  0
   -5.9200    5.0329  -19.1767 C   0  0  0  0  0  0  0  0  0  0  0  0
   -5.2740    5.3633  -18.0022 C   0  0  0  0  0  0  0  0  0  0  0  0
   -6.1749    5.0433  -16.9317 C   0  0  0  0  0  0  0  0  0  0  0  0
   -6.1469    5.1801  -15.5255 C   0  0  0  0  0  0  0  0  0  0  0  0
   -7.8344    4.2707  -19.5359 H   0  0  0  0  0  0  0  0  0  0  0  0
   -3.9092    5.9854  -17.9448 C   0  0  0  0  0  0  0  0  0  0  0  0
   -3.9513    7.4262  -17.4221 C   0  0  0  0  0  0  0  0  0  0  0  0
   -2.5494    8.0264  -17.4034 C   0  0  0  0  0  0  0  0  0  0  0  0
   -1.6225    7.2132  -16.6171 N   0  0  0  0  0  0  0  0  0  0  0  0
   -1.5331    5.8499  -17.1460 C   0  0  0  0  0  0  0  0  0  0  0  0
   -2.8916    5.1518  -17.1624 C   0  0  0  0  0  0  0  0  0  0  0  0
   -1.9503    7.1747  -15.6519 H   0  0  0  0  0  0  0  0  0  0  0  0
   -8.6775    3.4495   -6.9159 C   0  0  0  0  0  0  0  0  0  0  0  0
   -9.3536    2.1284   -6.9451 N   0  0  0  0  0  0  0  0  0  0  0  0
   -9.1405    1.5811   -8.3056 C   0  0  0  0  0  0  0  0  0  0  0  0
   -8.8580    2.7709   -9.1641 C   0  0  0  0  0  0  0  0  0  0  0  0
   -8.7131    2.8385  -10.5422 C   0  0  0  0  0  0  0  0  0  0  0  0
   -8.3111    4.0531  -11.1047 C   0  0  0  0  0  0  0  0  0  0  0  0
   -8.1214    5.1802  -10.2900 C   0  0  0  0  0  0  0  0  0  0  0  0
   -8.2818    5.1011   -8.9035 C   0  0  0  0  0  0  0  0  0  0  0  0
   -8.6364    3.8834   -8.3520 C   0  0  0  0  0  0  0  0  0  0  0  0
  -10.3508    2.2380   -6.7608 H   0  0  0  0  0  0  0  0  0  0  0  0
   -9.3454    4.3922   -5.9249 C   0  0  0  0  0  0  0  0  0  0  0  0
   -7.4405    3.9791   -4.4296 O   0  0  0  0  0  0  0  0  0  0  0  0
   -8.5758    4.3920   -4.6288 C   0  0  0  0  0  0  0  0  0  0  0  0
   -9.2507    5.0107   -3.6369 O   0  0  0  0  0  0  0  0  0  0  0  0
  -10.1196    5.3272   -3.7880 H   0  0  0  0  0  0  0  0  0  0  0  0
 34 35  2  0  0  0
 35 36  1  0  0  0
 35 33  1  0  0  0
 23 33  1  0  0  0
 23 24  1  0  0  0
 24 25  1  0  0  0
 25 26  1  0  0  0
 26 27  2  0  0  0
 27 28  1  0  0  0
 28  1  1  0  0  0
  1  2  1  0  0  0
  2  3  2  0  0  0
  2  5  1  0  0  0
  5  6  2  0  0  0
  6  7  1  0  0  0
  7  8  1  0  0  0
  7  9  2  0  0  0
  9 10  1  0  0  0
 10 11  1  0  0  0
 11 12  2  0  0  0
 12 16  1  0  0  0
 16 17  1  0  0  0
 17 18  1  0  0  0
 18 19  1  0  0  0
 19 20  1  0  0  0
 20 21  1  0  0  0
 12 13  1  0  0  0
 13 14  2  0  0  0
 28 29  2  0  0  0
 29 30  1  0  0  0
 30 31  2  0  0  0
 31 23  1  0  0  0
 31 26  1  0  0  0
 14  5  1  0  0  0
 13  9  1  0  0  0
 21 16  1  0  0  0
 36 37  1  0  0  0
 24 32  1  0  0  0
  1  4  1  0  0  0
 10 15  1  0  0  0
 19 22  1  0  0  0
M  END
> <minimizedAffinity>
-9.59751

> <minimizedRMSD>
0.30633

$$$$
P20409


 38 42  0  0  0  0  0  0  0  0999 V2000
   -5.4218    5.2021  -17.9237 C   0  0  0  0  0  0  0  0  0  0  0  0
   -6.1252    4.8910  -19.0830 C   0  0  0  0  0  0  0  0  0  0  0  0
   -7.3809    4.4561  -18.7641 N   0  0  0  0  0  0  0  0  0  0  0  0
   -7.5241    4.4454  -17.4045 C   0  0  0  0  0  0  0  0  0  0  0  0
   -8.6089    4.0491  -16.6199 C   0  0  0  0  0  0  0  0  0  0  0  0
   -9.7292    3.5713  -17.1744 F   0  0  0  0  0  0  0  0  0  0  0  0
   -8.5327    4.1913  -15.2423 C   0  0  0  0  0  0  0  0  0  0  0  0
   -7.4133    4.7831  -14.6810 C   0  0  0  0  0  0  0  0  0  0  0  0
   -6.3290    5.1708  -15.4740 C   0  0  0  0  0  0  0  0  0  0  0  0
   -6.3446    4.9662  -16.8592 C   0  0  0  0  0  0  0  0  0  0  0  0
   -8.0737    4.1919  -19.4118 H   0  0  0  0  0  0  0  0  0  0  0  0
   -2.8470    5.2895  -17.0150 C   0  0  0  0  0  0  0  0  0  0  0  0
   -1.5624    5.6510  -17.8174 C   0  0  0  0  0  0  0  0  0  0  0  0
   -1.4497    7.0974  -18.0230 N   0  0  0  0  0  0  0  0  0  0  0  0
   -2.5509    7.6167  -18.8358 C   0  0  0  0  0  0  0  0  0  0  0  0
   -3.9445    7.2453  -18.3165 C   0  0  0  0  0  0  0  0  0  0  0  0
   -4.0086    5.7523  -17.9665 C   0  0  0  0  0  0  0  0  0  0  0  0
   -0.5679    7.2963  -18.4955 H   0  0  0  0  0  0  0  0  0  0  0  0
   -2.7400    5.7570  -15.4839 C   0  0  0  0  0  0  0  0  0  0  0  0
   -1.2626    5.9310  -15.0476 C   0  0  0  0  0  0  0  0  0  0  0  0
   -3.4524    7.0849  -15.1705 C   0  0  0  0  0  0  0  0  0  0  0  0
   -3.2899    4.6612  -14.7119 O   0  0  0  0  0  0  0  0  0  0  0  0
   -4.0694    3.5987  -12.6593 C   0  0  0  0  0  0  0  0  0  0  0  0
   -3.2791    4.7367  -13.2831 C   0  0  0  0  0  0  0  0  0  0  0  0
   -7.3542    5.1360  -13.2461 C   0  0  0  0  0  0  0  0  0  0  0  0
   -6.7047    6.0530  -12.9302 O   0  0  0  0  0  0  0  0  0  0  0  0
   -8.1977    4.1675  -12.3934 N   0  0  0  0  0  0  0  0  0  0  0  0
   -8.7212    3.5129  -12.9098 H   0  0  0  0  0  0  0  0  0  0  0  0
   -8.3396    4.0678  -11.0143 C   0  0  0  0  0  0  0  0  0  0  0  0
   -8.1031    5.1747  -10.1809 C   0  0  0  0  0  0  0  0  0  0  0  0
   -8.2471    5.0703   -8.7951 C   0  0  0  0  0  0  0  0  0  0  0  0
   -8.6401    3.8528   -8.2727 C   0  0  0  0  0  0  0  0  0  0  0  0
   -8.8655    2.7546   -9.0969 C   0  0  0  0  0  0  0  0  0  0  0  0
   -8.7133    2.8394  -10.4695 C   0  0  0  0  0  0  0  0  0  0  0  0
   -9.2356    1.5781   -8.2581 C   0  0  0  0  0  0  0  0  0  0  0  0
   -9.5263    2.1330   -6.9146 N   0  0  0  0  0  0  0  0  0  0  0  0
   -8.8815    3.4580   -6.8551 C   0  0  0  0  0  0  0  0  0  0  0  0
   -9.1438    1.5231   -6.1920 H   0  0  0  0  0  0  0  0  0  0  0  0
 23 24  1  0  0  0
 24 22  1  0  0  0
 22 19  1  0  0  0
 19 20  1  0  0  0
 19 21  1  0  0  0
 12 19  1  0  0  0
 12 13  1  0  0  0
 13 14  1  0  0  0
 14 15  1  0  0  0
 15 16  1  0  0  0
 16 17  1  0  0  0
 17  1  1  0  0  0
  1  2  2  0  0  0
  2  3  1  0  0  0
  3  4  1  0  0  0
  4  5  2  0  0  0
  5  6  1  0  0  0
  5  7  1  0  0  0
  7  8  2  0  0  0
  8 25  1  0  0  0
 25 26  2  0  0  0
 25 27  1  0  0  0
 27 29  1  0  0  0
 29 30  2  0  0  0
 30 31  1  0  0  0
 31 32  2  0  0  0
 32 33  1  0  0  0
 33 34  2  0  0  0
 33 35  1  0  0  0
 35 36  1  0  0  0
 36 37  1  0  0  0
  8  9  1  0  0  0
  9 10  2  0  0  0
 17 12  1  0  0  0
 10  1  1  0  0  0
 10  4  1  0  0  0
 34 29  1  0  0  0
 37 32  1  0  0  0
 14 18  1  0  0  0
  3 11  1  0  0  0
 27 28  1  0  0  0
 36 38  1  0  0  0
M  END
> <minimizedAffinity>
-9.28184

> <minimizedRMSD>
0.49008

$$$$
P20411


 49 54  0  0  0  0  0  0  0  0999 V2000
   -7.3476    4.9313  -14.9569 C   0  0  0  0  0  0  0  0  0  0  0  0
   -8.4367    4.6023  -15.7654 C   0  0  0  0  0  0  0  0  0  0  0  0
   -8.3483    4.4541  -17.1286 C   0  0  0  0  0  0  0  0  0  0  0  0
   -9.9072    4.0761  -18.0475 Br  0  0  0  0  0  0  0  0  0  0  0  0
   -7.1578    4.7252  -17.7665 C   0  0  0  0  0  0  0  0  0  0  0  0
   -6.8942    4.7292  -19.1112 N   0  0  0  0  0  0  0  0  0  0  0  0
   -5.6061    5.0934  -19.3178 C   0  0  0  0  0  0  0  0  0  0  0  0
   -5.0071    5.3403  -18.0930 C   0  0  0  0  0  0  0  0  0  0  0  0
   -5.9982    5.0626  -17.0625 C   0  0  0  0  0  0  0  0  0  0  0  0
   -6.0810    5.0712  -15.6163 C   0  0  0  0  0  0  0  0  0  0  0  0
   -7.5411    4.5023  -19.8178 H   0  0  0  0  0  0  0  0  0  0  0  0
   -3.6203    5.9223  -18.0472 C   0  0  0  0  0  0  0  0  0  0  0  0
   -3.6117    7.3326  -17.4514 C   0  0  0  0  0  0  0  0  0  0  0  0
   -2.2060    7.9186  -17.4575 C   0  0  0  0  0  0  0  0  0  0  0  0
   -1.2473    7.0371  -16.7970 N   0  0  0  0  0  0  0  0  0  0  0  0
   -1.1921    5.7294  -17.4552 C   0  0  0  0  0  0  0  0  0  0  0  0
   -2.5458    5.0200  -17.4583 C   0  0  0  0  0  0  0  0  0  0  0  0
   -1.5276    6.9090  -15.8247 H   0  0  0  0  0  0  0  0  0  0  0  0
   -7.6977    5.0720  -13.4565 C   0  0  0  0  0  0  0  0  0  0  0  0
   -8.9861    4.4681  -13.2530 O   0  0  0  0  0  0  0  0  0  0  0  0
   -9.2334    4.5412  -12.3179 H   0  0  0  0  0  0  0  0  0  0  0  0
   -9.0475    6.9093  -12.6176 O   0  0  0  0  0  0  0  0  0  0  0  0
   -7.9605    6.6129  -12.9367 C   0  0  0  0  0  0  0  0  0  0  0  0
   -6.6372    7.4190  -12.8639 N   0  0  0  0  0  0  0  0  0  0  0  0
   -5.8330    6.9157  -13.1271 H   0  0  0  0  0  0  0  0  0  0  0  0
   -6.3918    8.7941  -12.4711 C   0  0  0  0  0  0  0  0  0  0  0  0
   -6.2672    9.7738  -13.6294 C   0  0  0  0  0  0  0  0  0  0  0  0
   -7.4868   10.2822  -13.9330 F   0  0  0  0  0  0  0  0  0  0  0  0
   -5.8420    9.1048  -14.7350 F   0  0  0  0  0  0  0  0  0  0  0  0
   -6.7678    4.2993  -12.6227 N   0  0  0  0  0  0  0  0  0  0  0  0
   -5.9516    3.8929  -12.9939 H   0  0  0  0  0  0  0  0  0  0  0  0
   -7.1120    4.1716  -11.2525 C   0  0  0  0  0  0  0  0  0  0  0  0
   -6.7256    5.1669  -10.3354 C   0  0  0  0  0  0  0  0  0  0  0  0
   -7.1646    5.1530   -9.0086 C   0  0  0  0  0  0  0  0  0  0  0  0
   -7.9697    4.1103   -8.5975 C   0  0  0  0  0  0  0  0  0  0  0  0
   -8.3504    3.1107   -9.4815 C   0  0  0  0  0  0  0  0  0  0  0  0
   -7.9453    3.1290  -10.8099 C   0  0  0  0  0  0  0  0  0  0  0  0
   -9.2071    2.1223   -8.7646 C   0  0  0  0  0  0  0  0  0  0  0  0
   -9.1786    2.5055   -7.3258 N   0  0  0  0  0  0  0  0  0  0  0  0
   -8.5525    3.8429   -7.2537 C   0  0  0  0  0  0  0  0  0  0  0  0
   -8.6289    1.8311   -6.7935 H   0  0  0  0  0  0  0  0  0  0  0  0
   -4.9041    4.9252  -14.9287 O   0  0  0  0  0  0  0  0  0  0  0  0
   -4.2724    6.0956  -14.4327 C   0  0  0  0  0  0  0  0  0  0  0  0
   -2.9024    5.7603  -13.8855 C   0  0  0  0  0  0  0  0  0  0  0  0
   -2.6042    4.4541  -13.4991 C   0  0  0  0  0  0  0  0  0  0  0  0
   -1.3446    4.1771  -12.9780 C   0  0  0  0  0  0  0  0  0  0  0  0
   -0.4215    5.2066  -12.8467 C   0  0  0  0  0  0  0  0  0  0  0  0
   -0.7998    6.4787  -13.2402 C   0  0  0  0  0  0  0  0  0  0  0  0
   -2.0154    6.7821  -13.7539 N   0  0  0  0  0  0  0  0  0  0  0  0
 22 23  2  0  0  0
 23 24  1  0  0  0
 24 26  1  0  0  0
 26 27  1  0  0  0
 27 28  1  0  0  0
 27 29  1  0  0  0
 23 19  1  0  0  0
 19 20  1  0  0  0
 19 30  1  0  0  0
 30 32  1  0  0  0
 32 33  2  0  0  0
 33 34  1  0  0  0
 34 35  2  0  0  0
 35 36  1  0  0  0
 36 37  2  0  0  0
 36 38  1  0  0  0
 38 39  1  0  0  0
 39 40  1  0  0  0
 19  1  1  0  0  0
  1  2  2  0  0  0
  2  3  1  0  0  0
  3  4  1  0  0  0
  3  5  2  0  0  0
  5  6  1  0  0  0
  6  7  1  0  0  0
  7  8  2  0  0  0
  8 12  1  0  0  0
 12 13  1  0  0  0
 13 14  1  0  0  0
 14 15  1  0  0  0
 15 16  1  0  0  0
 16 17  1  0  0  0
  8  9  1  0  0  0
  9 10  2  0  0  0
 10 42  1  0  0  0
 42 43  1  0  0  0
 43 44  1  0  0  0
 44 45  2  0  0  0
 45 46  1  0  0  0
 46 47  2  0  0  0
 47 48  1  0  0  0
 48 49  2  0  0  0
 37 32  1  0  0  0
 10  1  1  0  0  0
 49 44  1  0  0  0
 40 35  1  0  0  0
  9  5  1  0  0  0
 17 12  1  0  0  0
 24 25  1  0  0  0
 20 21  1  0  0  0
 30 31  1  0  0  0
 39 41  1  0  0  0
  6 11  1  0  0  0
 15 18  1  0  0  0
M  END
> <minimizedAffinity>
-7.79847

> <minimizedRMSD>
0.54626

$$$$
P20412


 32 37  0  0  0  0  0  0  0  0999 V2000
   -7.0979    4.8427  -14.2260 C   0  0  0  0  0  0  0  0  0  0  0  0
   -8.2684    4.3133  -14.8097 C   0  0  0  0  0  0  0  0  0  0  0  0
   -8.2970    4.1765  -16.1794 C   0  0  0  0  0  0  0  0  0  0  0  0
   -7.1927    4.5311  -16.9212 C   0  0  0  0  0  0  0  0  0  0  0  0
   -6.1020    5.1607  -16.3881 C   0  0  0  0  0  0  0  0  0  0  0  0
   -6.0167    5.2970  -15.0176 C   0  0  0  0  0  0  0  0  0  0  0  0
   -5.3797    5.8259  -17.5170 C   0  0  0  0  0  0  0  0  0  0  0  0
   -6.1435    5.2955  -18.7819 C   0  0  0  0  0  0  0  0  0  0  0  0
   -7.1940    4.3950  -18.3187 N   0  0  0  0  0  0  0  0  0  0  0  0
   -8.5942    4.4785  -18.7029 C   0  0  0  0  0  0  0  0  0  0  0  0
   -9.5910    3.8138  -17.2986 S   0  0  0  0  0  0  0  0  0  0  0  0
   -3.8562    5.7592  -17.4830 C   0  0  0  0  0  0  0  0  0  0  0  0
   -3.2699    7.1766  -17.3425 C   0  0  0  0  0  0  0  0  0  0  0  0
   -1.8092    7.2654  -17.7795 C   0  0  0  0  0  0  0  0  0  0  0  0
   -1.1224    6.0033  -17.5568 N   0  0  0  0  0  0  0  0  0  0  0  0
   -1.6653    4.9453  -18.4158 C   0  0  0  0  0  0  0  0  0  0  0  0
   -3.1845    5.0197  -18.6362 C   0  0  0  0  0  0  0  0  0  0  0  0
   -1.2362    5.7304  -16.5806 H   0  0  0  0  0  0  0  0  0  0  0  0
   -6.3117    5.9277  -12.3736 O   0  0  0  0  0  0  0  0  0  0  0  0
   -7.0305    5.0924  -12.7613 C   0  0  0  0  0  0  0  0  0  0  0  0
   -7.9469    4.1191  -11.9847 N   0  0  0  0  0  0  0  0  0  0  0  0
   -8.4034    3.4489  -12.5430 H   0  0  0  0  0  0  0  0  0  0  0  0
   -8.2313    4.0364  -10.6269 C   0  0  0  0  0  0  0  0  0  0  0  0
   -8.0481    5.1434   -9.7844 C   0  0  0  0  0  0  0  0  0  0  0  0
   -8.2848    5.0422   -8.4117 C   0  0  0  0  0  0  0  0  0  0  0  0
   -8.7160    3.8282   -7.9109 C   0  0  0  0  0  0  0  0  0  0  0  0
   -8.9148    2.7362   -8.7469 C   0  0  0  0  0  0  0  0  0  0  0  0
   -8.6785    2.8187  -10.1092 C   0  0  0  0  0  0  0  0  0  0  0  0
   -9.3332    1.5602   -7.9324 C   0  0  0  0  0  0  0  0  0  0  0  0
   -9.6024    2.0832   -6.5686 N   0  0  0  0  0  0  0  0  0  0  0  0
   -9.0108    3.4348   -6.5043 C   0  0  0  0  0  0  0  0  0  0  0  0
   -9.1720    1.4781   -5.8693 H   0  0  0  0  0  0  0  0  0  0  0  0
 19 20  2  0  0  0
 20 21  1  0  0  0
 21 23  1  0  0  0
 23 24  2  0  0  0
 24 25  1  0  0  0
 25 26  2  0  0  0
 26 27  1  0  0  0
 27 28  2  0  0  0
 27 29  1  0  0  0
 29 30  1  0  0  0
 30 31  1  0  0  0
 20  1  1  0  0  0
  1  2  2  0  0  0
  2  3  1  0  0  0
  3  4  2  0  0  0
  4  5  1  0  0  0
  5  6  2  0  0  0
  5  7  1  0  0  0
  7 12  1  0  0  0
 12 13  1  0  0  0
 13 14  1  0  0  0
 14 15  1  0  0  0
 15 16  1  0  0  0
 16 17  1  0  0  0
  7  8  1  0  0  0
  8  9  1  0  0  0
  9 10  1  0  0  0
 10 11  1  0  0  0
 28 23  1  0  0  0
  6  1  1  0  0  0
 17 12  1  0  0  0
 31 26  1  0  0  0
 11  3  1  0  0  0
  9  4  1  0  0  0
 21 22  1  0  0  0
 30 32  1  0  0  0
 15 18  1  0  0  0
M  END
> <minimizedAffinity>
-9.30263

> <minimizedRMSD>
0.69015

$$$$
P20413


 36 40  0  0  0  0  0  0  0  0999 V2000
   -6.5663    6.3598  -12.8007 N   0  0  0  0  0  0  0  0  0  0  0  0
   -7.1204    5.3536  -13.2040 C   0  0  0  0  0  0  0  0  0  0  0  0
   -7.1314    5.0047  -14.6862 C   0  0  0  0  0  0  0  0  0  0  0  0
   -8.3167    4.5808  -15.2907 C   0  0  0  0  0  0  0  0  0  0  0  0
   -8.3701    4.3795  -16.6734 C   0  0  0  0  0  0  0  0  0  0  0  0
   -9.8291    3.9566  -17.4477 Cl  0  0  0  0  0  0  0  0  0  0  0  0
   -7.2339    4.6457  -17.4369 C   0  0  0  0  0  0  0  0  0  0  0  0
   -7.0398    4.6439  -18.8005 N   0  0  0  0  0  0  0  0  0  0  0  0
   -5.7564    5.0292  -19.0876 C   0  0  0  0  0  0  0  0  0  0  0  0
   -5.1044    5.2920  -17.8988 C   0  0  0  0  0  0  0  0  0  0  0  0
   -6.0337    5.0269  -16.8483 C   0  0  0  0  0  0  0  0  0  0  0  0
   -5.9670    5.1419  -15.4449 C   0  0  0  0  0  0  0  0  0  0  0  0
   -7.7210    4.4019  -19.4689 H   0  0  0  0  0  0  0  0  0  0  0  0
   -3.7122    5.8104  -17.6953 C   0  0  0  0  0  0  0  0  0  0  0  0
   -3.5108    7.2212  -18.2449 C   0  0  0  0  0  0  0  0  0  0  0  0
   -2.1253    7.7463  -17.8567 C   0  0  0  0  0  0  0  0  0  0  0  0
   -1.0980    6.7077  -17.7460 N   0  0  0  0  0  0  0  0  0  0  0  0
   -1.3589    5.5763  -18.6301 C   0  0  0  0  0  0  0  0  0  0  0  0
   -2.6424    4.8499  -18.2283 C   0  0  0  0  0  0  0  0  0  0  0  0
   -1.0723    6.3726  -16.7829 H   0  0  0  0  0  0  0  0  0  0  0  0
   -4.7217    7.3790  -13.7855 O   0  0  0  0  0  0  0  0  0  0  0  0
   -5.9034    7.3053  -13.4926 C   0  0  0  0  0  0  0  0  0  0  0  0
   -6.7268    8.3256  -13.7938 O   0  0  0  0  0  0  0  0  0  0  0  0
   -7.6357    8.2753  -13.5716 H   0  0  0  0  0  0  0  0  0  0  0  0
   -7.9581    4.2562  -12.4219 N   0  0  0  0  0  0  0  0  0  0  0  0
   -8.3534    3.5572  -12.9915 H   0  0  0  0  0  0  0  0  0  0  0  0
   -8.2262    4.1196  -11.0618 C   0  0  0  0  0  0  0  0  0  0  0  0
   -8.0550    5.2107  -10.1815 C   0  0  0  0  0  0  0  0  0  0  0  0
   -8.2866    5.1033   -8.8078 C   0  0  0  0  0  0  0  0  0  0  0  0
   -8.7036    3.8853   -8.3209 C   0  0  0  0  0  0  0  0  0  0  0  0
   -8.8734    2.7966   -9.1704 C   0  0  0  0  0  0  0  0  0  0  0  0
   -8.6341    2.8909  -10.5339 C   0  0  0  0  0  0  0  0  0  0  0  0
   -9.2779    1.6158   -8.3533 C   0  0  0  0  0  0  0  0  0  0  0  0
   -9.7291    2.1809   -7.0542 N   0  0  0  0  0  0  0  0  0  0  0  0
   -9.0148    3.4694   -6.9230 C   0  0  0  0  0  0  0  0  0  0  0  0
   -9.4825    1.5554   -6.2871 H   0  0  0  0  0  0  0  0  0  0  0  0
 21 22  2  0  0  0
 22 23  1  0  0  0
 22  1  1  0  0  0
  1  2  2  0  0  0
  2 25  1  0  0  0
 25 27  1  0  0  0
 27 28  2  0  0  0
 28 29  1  0  0  0
 29 30  2  0  0  0
 30 31  1  0  0  0
 31 32  2  0  0  0
 31 33  1  0  0  0
 33 34  1  0  0  0
 34 35  1  0  0  0
  2  3  1  0  0  0
  3  4  2  0  0  0
  4  5  1  0  0  0
  5  6  1  0  0  0
  5  7  2  0  0  0
  7  8  1  0  0  0
  8  9  1  0  0  0
  9 10  2  0  0  0
 10 14  1  0  0  0
 14 15  1  0  0  0
 15 16  1  0  0  0
 16 17  1  0  0  0
 17 18  1  0  0  0
 18 19  1  0  0  0
 10 11  1  0  0  0
 11 12  2  0  0  0
 32 27  1  0  0  0
 12  3  1  0  0  0
 35 30  1  0  0  0
 11  7  1  0  0  0
 19 14  1  0  0  0
 23 24  1  0  0  0
 25 26  1  0  0  0
 34 36  1  0  0  0
  8 13  1  0  0  0
 17 20  1  0  0  0
M  END
> <minimizedAffinity>
-8.87238

> <minimizedRMSD>
0.48179

$$$$
P20414


 36 40  0  0  0  0  0  0  0  0999 V2000
   -5.3352    5.2273  -19.0636 C   0  0  0  0  0  0  0  0  0  0  0  0
   -6.5703    4.6575  -19.3304 N   0  0  0  0  0  0  0  0  0  0  0  0
   -7.2741    4.4634  -18.1583 C   0  0  0  0  0  0  0  0  0  0  0  0
   -8.5194    3.8607  -17.8993 C   0  0  0  0  0  0  0  0  0  0  0  0
   -9.0153    3.9057  -16.5813 C   0  0  0  0  0  0  0  0  0  0  0  0
   -8.2897    4.5461  -15.5830 C   0  0  0  0  0  0  0  0  0  0  0  0
   -7.0296    5.0828  -15.8464 C   0  0  0  0  0  0  0  0  0  0  0  0
   -6.5101    5.0392  -17.1485 C   0  0  0  0  0  0  0  0  0  0  0  0
   -5.2853    5.5124  -17.7115 C   0  0  0  0  0  0  0  0  0  0  0  0
   -6.8993    4.4243  -20.2286 H   0  0  0  0  0  0  0  0  0  0  0  0
   -4.1949    6.1791  -16.9059 C   0  0  0  0  0  0  0  0  0  0  0  0
   -4.0059    7.6633  -17.2474 C   0  0  0  0  0  0  0  0  0  0  0  0
   -2.6764    7.9987  -17.9003 C   0  0  0  0  0  0  0  0  0  0  0  0
   -1.5629    7.3668  -17.2034 N   0  0  0  0  0  0  0  0  0  0  0  0
   -1.6494    5.9191  -17.3567 C   0  0  0  0  0  0  0  0  0  0  0  0
   -2.9188    5.3416  -16.7433 C   0  0  0  0  0  0  0  0  0  0  0  0
   -1.6023    7.6064  -16.2127 H   0  0  0  0  0  0  0  0  0  0  0  0
   -8.8076    4.8568  -14.2328 C   0  0  0  0  0  0  0  0  0  0  0  0
   -9.5199    5.7755  -14.1317 O   0  0  0  0  0  0  0  0  0  0  0  0
   -8.2101    3.9334  -13.1553 N   0  0  0  0  0  0  0  0  0  0  0  0
   -7.6923    3.1728  -13.5054 H   0  0  0  0  0  0  0  0  0  0  0  0
   -8.2829    3.9991  -11.7630 C   0  0  0  0  0  0  0  0  0  0  0  0
   -7.9293    5.1836  -11.0905 C   0  0  0  0  0  0  0  0  0  0  0  0
   -7.9546    5.2493   -9.6947 C   0  0  0  0  0  0  0  0  0  0  0  0
   -7.4095    6.8331   -8.8203 Br  0  0  0  0  0  0  0  0  0  0  0  0
   -8.3871    4.1454   -8.9886 C   0  0  0  0  0  0  0  0  0  0  0  0
   -8.7337    2.9711   -9.6560 C   0  0  0  0  0  0  0  0  0  0  0  0
   -8.6630    2.8702  -11.0379 C   0  0  0  0  0  0  0  0  0  0  0  0
   -9.1366    1.9434   -8.6502 C   0  0  0  0  0  0  0  0  0  0  0  0
   -9.3803    2.7043   -7.3993 N   0  0  0  0  0  0  0  0  0  0  0  0
   -8.5721    3.9379   -7.5229 C   0  0  0  0  0  0  0  0  0  0  0  0
   -9.0818    2.1622   -6.5885 H   0  0  0  0  0  0  0  0  0  0  0  0
   -4.3124    5.4362  -20.1236 C   0  0  0  0  0  0  0  0  0  0  0  0
   -5.1203    7.5685  -20.9277 C   0  0  0  0  0  0  0  0  0  0  0  0
   -4.8578    6.1814  -21.2399 N   0  0  0  0  0  0  0  0  0  0  0  0
   -4.1911    6.1437  -22.0110 H   0  0  0  0  0  0  0  0  0  0  0  0
 34 35  1  0  0  0
 35 33  1  0  0  0
 33  1  1  0  0  0
  1  2  1  0  0  0
  2  3  1  0  0  0
  3  4  2  0  0  0
  4  5  1  0  0  0
  5  6  2  0  0  0
  6 18  1  0  0  0
 18 19  2  0  0  0
 18 20  1  0  0  0
 20 22  1  0  0  0
 22 23  2  0  0  0
 23 24  1  0  0  0
 24 25  1  0  0  0
 24 26  2  0  0  0
 26 27  1  0  0  0
 27 28  2  0  0  0
 27 29  1  0  0  0
 29 30  1  0  0  0
 30 31  1  0  0  0
  6  7  1  0  0  0
  7  8  2  0  0  0
  8  9  1  0  0  0
  9 11  1  0  0  0
 11 12  1  0  0  0
 12 13  1  0  0  0
 13 14  1  0  0  0
 14 15  1  0  0  0
 15 16  1  0  0  0
  9  1  2  0  0  0
 16 11  1  0  0  0
  8  3  1  0  0  0
 28 22  1  0  0  0
 31 26  1  0  0  0
 35 36  1  0  0  0
  2 10  1  0  0  0
 20 21  1  0  0  0
 30 32  1  0  0  0
 14 17  1  0  0  0
M  END
> <minimizedAffinity>
-10.31434

> <minimizedRMSD>
0.65260

$$$$
P20417


 36 40  0  0  0  0  0  0  0  0999 V2000
   -5.7608    5.3310  -18.6677 C   0  0  0  0  0  0  0  0  0  0  0  0
   -7.0440    4.8669  -18.4357 N   0  0  0  0  0  0  0  0  0  0  0  0
   -7.2753    4.7714  -17.0856 C   0  0  0  0  0  0  0  0  0  0  0  0
   -8.3839    4.3185  -16.3657 C   0  0  0  0  0  0  0  0  0  0  0  0
   -9.4965    3.9205  -17.0007 F   0  0  0  0  0  0  0  0  0  0  0  0
   -8.3009    4.2679  -14.9688 C   0  0  0  0  0  0  0  0  0  0  0  0
   -7.1201    4.6475  -14.3243 C   0  0  0  0  0  0  0  0  0  0  0  0
   -6.0435    5.1510  -15.0515 C   0  0  0  0  0  0  0  0  0  0  0  0
   -6.1234    5.2211  -16.4521 C   0  0  0  0  0  0  0  0  0  0  0  0
   -5.1999    5.6686  -17.4478 C   0  0  0  0  0  0  0  0  0  0  0  0
   -7.6962    4.6385  -19.1370 H   0  0  0  0  0  0  0  0  0  0  0  0
   -3.8820    6.3229  -17.0940 C   0  0  0  0  0  0  0  0  0  0  0  0
   -3.6829    7.7392  -17.6441 C   0  0  0  0  0  0  0  0  0  0  0  0
   -2.6801    7.8463  -18.7811 C   0  0  0  0  0  0  0  0  0  0  0  0
   -1.4652    7.0850  -18.5029 N   0  0  0  0  0  0  0  0  0  0  0  0
   -1.7837    5.6613  -18.4091 C   0  0  0  0  0  0  0  0  0  0  0  0
   -2.6699    5.3920  -17.2064 C   0  0  0  0  0  0  0  0  0  0  0  0
   -1.0623    7.4007  -17.6207 H   0  0  0  0  0  0  0  0  0  0  0  0
   -6.8496    4.3418  -12.8947 C   0  0  0  0  0  0  0  0  0  0  0  0
   -5.8384    3.8277  -12.6369 O   0  0  0  0  0  0  0  0  0  0  0  0
   -8.0314    4.7153  -11.9950 N   0  0  0  0  0  0  0  0  0  0  0  0
   -8.7487    5.2180  -12.4445 H   0  0  0  0  0  0  0  0  0  0  0  0
   -8.2551    4.4619  -10.6555 C   0  0  0  0  0  0  0  0  0  0  0  0
   -8.1231    5.4960   -9.7248 C   0  0  0  0  0  0  0  0  0  0  0  0
   -8.2580    5.2225   -8.3613 C   0  0  0  0  0  0  0  0  0  0  0  0
   -8.6276    3.9427   -7.9773 C   0  0  0  0  0  0  0  0  0  0  0  0
   -8.8118    2.9343   -8.9145 C   0  0  0  0  0  0  0  0  0  0  0  0
   -8.5707    3.1598  -10.2566 C   0  0  0  0  0  0  0  0  0  0  0  0
   -9.2833    1.6939   -8.2346 C   0  0  0  0  0  0  0  0  0  0  0  0
   -9.5058    2.0700   -6.8130 N   0  0  0  0  0  0  0  0  0  0  0  0
   -8.8975    3.4002   -6.6157 C   0  0  0  0  0  0  0  0  0  0  0  0
   -9.0631    1.3880   -6.1972 H   0  0  0  0  0  0  0  0  0  0  0  0
   -5.2098    5.3455  -20.0424 C   0  0  0  0  0  0  0  0  0  0  0  0
   -4.6408    6.8399  -21.8262 C   0  0  0  0  0  0  0  0  0  0  0  0
   -5.5434    6.5981  -20.7071 N   0  0  0  0  0  0  0  0  0  0  0  0
   -6.5015    6.5493  -21.0535 H   0  0  0  0  0  0  0  0  0  0  0  0
 34 35  1  0  0  0
 35 33  1  0  0  0
 33  1  1  0  0  0
  1  2  1  0  0  0
  2  3  1  0  0  0
  3  4  2  0  0  0
  4  5  1  0  0  0
  4  6  1  0  0  0
  6  7  2  0  0  0
  7 19  1  0  0  0
 19 20  2  0  0  0
 19 21  1  0  0  0
 21 23  1  0  0  0
 23 24  2  0  0  0
 24 25  1  0  0  0
 25 26  2  0  0  0
 26 27  1  0  0  0
 27 28  2  0  0  0
 27 29  1  0  0  0
 29 30  1  0  0  0
 30 31  1  0  0  0
  7  8  1  0  0  0
  8  9  2  0  0  0
  9 10  1  0  0  0
 10 12  1  0  0  0
 12 13  1  0  0  0
 13 14  1  0  0  0
 14 15  1  0  0  0
 15 16  1  0  0  0
 16 17  1  0  0  0
 10  1  2  0  0  0
 17 12  1  0  0  0
  9  3  1  0  0  0
 28 23  1  0  0  0
 31 26  1  0  0  0
 35 36  1  0  0  0
  2 11  1  0  0  0
 21 22  1  0  0  0
 30 32  1  0  0  0
 15 18  1  0  0  0
M  END
> <minimizedAffinity>
-9.11922

> <minimizedRMSD>
0.29285

$$$$
P20418


 32 36  0  0  0  0  0  0  0  0999 V2000
   -7.2107    4.8490  -14.7527 C   0  0  0  0  0  0  0  0  0  0  0  0
   -8.3650    4.3465  -15.3491 C   0  0  0  0  0  0  0  0  0  0  0  0
   -8.4228    4.2081  -16.7317 C   0  0  0  0  0  0  0  0  0  0  0  0
   -9.8819    3.7625  -17.4921 Cl  0  0  0  0  0  0  0  0  0  0  0  0
   -7.3134    4.5605  -17.5007 C   0  0  0  0  0  0  0  0  0  0  0  0
   -7.1521    4.5675  -18.8649 N   0  0  0  0  0  0  0  0  0  0  0  0
   -5.9071    5.0274  -19.1829 C   0  0  0  0  0  0  0  0  0  0  0  0
   -5.2468    5.3632  -18.0179 C   0  0  0  0  0  0  0  0  0  0  0  0
   -6.1381    5.0552  -16.9355 C   0  0  0  0  0  0  0  0  0  0  0  0
   -6.0922    5.2017  -15.5308 C   0  0  0  0  0  0  0  0  0  0  0  0
   -7.8332    4.2830  -19.5164 H   0  0  0  0  0  0  0  0  0  0  0  0
   -3.8785    5.9802  -17.9802 C   0  0  0  0  0  0  0  0  0  0  0  0
   -3.8960    7.4008  -17.4059 C   0  0  0  0  0  0  0  0  0  0  0  0
   -2.4942    8.0012  -17.4310 C   0  0  0  0  0  0  0  0  0  0  0  0
   -1.5416    7.1575  -16.7134 N   0  0  0  0  0  0  0  0  0  0  0  0
   -1.4744    5.8106  -17.2812 C   0  0  0  0  0  0  0  0  0  0  0  0
   -2.8363    5.1200  -17.2637 C   0  0  0  0  0  0  0  0  0  0  0  0
   -1.8298    7.0905  -15.7373 H   0  0  0  0  0  0  0  0  0  0  0  0
   -6.7413    6.2237  -12.9934 O   0  0  0  0  0  0  0  0  0  0  0  0
   -7.2158    5.2018  -13.3046 C   0  0  0  0  0  0  0  0  0  0  0  0
   -7.9655    4.1438  -12.4576 N   0  0  0  0  0  0  0  0  0  0  0  0
   -8.3405    3.3936  -12.9730 H   0  0  0  0  0  0  0  0  0  0  0  0
   -8.1957    4.0809  -11.0833 C   0  0  0  0  0  0  0  0  0  0  0  0
   -8.0207    5.2136  -10.2721 C   0  0  0  0  0  0  0  0  0  0  0  0
   -8.2526    5.1529   -8.8940 C   0  0  0  0  0  0  0  0  0  0  0  0
   -8.6522    3.9469   -8.3489 C   0  0  0  0  0  0  0  0  0  0  0  0
   -8.8256    2.8235   -9.1477 C   0  0  0  0  0  0  0  0  0  0  0  0
   -8.6144    2.8726  -10.5183 C   0  0  0  0  0  0  0  0  0  0  0  0
   -9.1956    1.6612   -8.2890 C   0  0  0  0  0  0  0  0  0  0  0  0
   -9.4653    2.2173   -6.9376 N   0  0  0  0  0  0  0  0  0  0  0  0
   -8.9360    3.5966   -6.9283 C   0  0  0  0  0  0  0  0  0  0  0  0
   -8.9953    1.6563   -6.2271 H   0  0  0  0  0  0  0  0  0  0  0  0
 19 20  2  0  0  0
 20 21  1  0  0  0
 21 23  1  0  0  0
 23 24  2  0  0  0
 24 25  1  0  0  0
 25 26  2  0  0  0
 26 27  1  0  0  0
 27 28  2  0  0  0
 27 29  1  0  0  0
 29 30  1  0  0  0
 30 31  1  0  0  0
 20  1  1  0  0  0
  1  2  2  0  0  0
  2  3  1  0  0  0
  3  4  1  0  0  0
  3  5  2  0  0  0
  5  6  1  0  0  0
  6  7  1  0  0  0
  7  8  2  0  0  0
  8 12  1  0  0  0
 12 13  1  0  0  0
 13 14  1  0  0  0
 14 15  1  0  0  0
 15 16  1  0  0  0
 16 17  1  0  0  0
  8  9  1  0  0  0
  9 10  2  0  0  0
 28 23  1  0  0  0
 10  1  1  0  0  0
 31 26  1  0  0  0
  9  5  1  0  0  0
 17 12  1  0  0  0
 21 22  1  0  0  0
 30 32  1  0  0  0
  6 11  1  0  0  0
 15 18  1  0  0  0
M  END
> <minimizedAffinity>
-9.43857

> <minimizedRMSD>
0.25620

$$$$
P20419


 36 40  0  0  0  0  0  0  0  0999 V2000
   -5.5242    5.2498  -18.7934 C   0  0  0  0  0  0  0  0  0  0  0  0
   -6.8161    4.7769  -18.6324 N   0  0  0  0  0  0  0  0  0  0  0  0
   -7.1382    4.6837  -17.2958 C   0  0  0  0  0  0  0  0  0  0  0  0
   -8.2962    4.2428  -16.6417 C   0  0  0  0  0  0  0  0  0  0  0  0
   -9.6377    3.6843  -17.5289 Cl  0  0  0  0  0  0  0  0  0  0  0  0
   -8.3858    4.3507  -15.2504 C   0  0  0  0  0  0  0  0  0  0  0  0
   -7.3309    4.9053  -14.5374 C   0  0  0  0  0  0  0  0  0  0  0  0
   -6.1545    5.2947  -15.1885 C   0  0  0  0  0  0  0  0  0  0  0  0
   -6.0513    5.1773  -16.5879 C   0  0  0  0  0  0  0  0  0  0  0  0
   -5.0123    5.4880  -17.5223 C   0  0  0  0  0  0  0  0  0  0  0  0
   -7.4214    4.5398  -19.3717 H   0  0  0  0  0  0  0  0  0  0  0  0
   -3.6534    5.9776  -17.0919 C   0  0  0  0  0  0  0  0  0  0  0  0
   -3.5192    7.5055  -17.2000 C   0  0  0  0  0  0  0  0  0  0  0  0
   -2.1140    7.9376  -17.6103 C   0  0  0  0  0  0  0  0  0  0  0  0
   -1.1117    7.1854  -16.8726 N   0  0  0  0  0  0  0  0  0  0  0  0
   -1.1546    5.7449  -17.1355 C   0  0  0  0  0  0  0  0  0  0  0  0
   -2.4750    5.2325  -17.7142 C   0  0  0  0  0  0  0  0  0  0  0  0
   -1.2633    7.3367  -15.8753 H   0  0  0  0  0  0  0  0  0  0  0  0
   -7.4496    5.2591  -13.1013 C   0  0  0  0  0  0  0  0  0  0  0  0
   -7.0861    6.3212  -12.7794 O   0  0  0  0  0  0  0  0  0  0  0  0
   -7.9833    4.0844  -12.2535 N   0  0  0  0  0  0  0  0  0  0  0  0
   -8.1552    3.2567  -12.7581 H   0  0  0  0  0  0  0  0  0  0  0  0
   -8.2614    4.0049  -10.8904 C   0  0  0  0  0  0  0  0  0  0  0  0
   -8.0671    5.1192  -10.0562 C   0  0  0  0  0  0  0  0  0  0  0  0
   -8.2836    5.0336   -8.6780 C   0  0  0  0  0  0  0  0  0  0  0  0
   -8.7001    3.8237   -8.1572 C   0  0  0  0  0  0  0  0  0  0  0  0
   -8.9023    2.7219   -8.9801 C   0  0  0  0  0  0  0  0  0  0  0  0
   -8.6931    2.7922  -10.3500 C   0  0  0  0  0  0  0  0  0  0  0  0
   -9.2908    1.5503   -8.1429 C   0  0  0  0  0  0  0  0  0  0  0  0
   -9.5546    2.0882   -6.7837 N   0  0  0  0  0  0  0  0  0  0  0  0
   -8.9751    3.4456   -6.7421 C   0  0  0  0  0  0  0  0  0  0  0  0
   -9.1132    1.4962   -6.0800 H   0  0  0  0  0  0  0  0  0  0  0  0
   -4.9274    5.3117  -20.1652 C   0  0  0  0  0  0  0  0  0  0  0  0
   -5.3636    7.6762  -20.4672 C   0  0  0  0  0  0  0  0  0  0  0  0
   -4.3903    6.6109  -20.5645 N   0  0  0  0  0  0  0  0  0  0  0  0
   -3.6000    6.8360  -19.9602 H   0  0  0  0  0  0  0  0  0  0  0  0
 34 35  1  0  0  0
 35 33  1  0  0  0
 33  1  1  0  0  0
  1  2  1  0  0  0
  2  3  1  0  0  0
  3  4  2  0  0  0
  4  5  1  0  0  0
  4  6  1  0  0  0
  6  7  2  0  0  0
  7 19  1  0  0  0
 19 20  2  0  0  0
 19 21  1  0  0  0
 21 23  1  0  0  0
 23 24  2  0  0  0
 24 25  1  0  0  0
 25 26  2  0  0  0
 26 27  1  0  0  0
 27 28  2  0  0  0
 27 29  1  0  0  0
 29 30  1  0  0  0
 30 31  1  0  0  0
  7  8  1  0  0  0
  8  9  2  0  0  0
  9 10  1  0  0  0
 10 12  1  0  0  0
 12 13  1  0  0  0
 13 14  1  0  0  0
 14 15  1  0  0  0
 15 16  1  0  0  0
 16 17  1  0  0  0
 10  1  2  0  0  0
 17 12  1  0  0  0
  9  3  1  0  0  0
 28 23  1  0  0  0
 31 26  1  0  0  0
 35 36  1  0  0  0
  2 11  1  0  0  0
 21 22  1  0  0  0
 30 32  1  0  0  0
 15 18  1  0  0  0
M  END
> <minimizedAffinity>
-8.89500

> <minimizedRMSD>
0.32253

$$$$
P20420


 38 42  0  0  0  0  0  0  0  0999 V2000
   -5.7852    5.6639  -18.9438 C   0  0  0  0  0  0  0  0  0  0  0  0
   -6.9818    4.9864  -18.8037 N   0  0  0  0  0  0  0  0  0  0  0  0
   -7.2309    4.7394  -17.4636 C   0  0  0  0  0  0  0  0  0  0  0  0
   -8.3559    4.2274  -16.8004 C   0  0  0  0  0  0  0  0  0  0  0  0
   -9.7102    3.6933  -17.6781 Cl  0  0  0  0  0  0  0  0  0  0  0  0
   -8.4137    4.2510  -15.4020 C   0  0  0  0  0  0  0  0  0  0  0  0
   -7.3315    4.7410  -14.6830 C   0  0  0  0  0  0  0  0  0  0  0  0
   -6.1614    5.1472  -15.3448 C   0  0  0  0  0  0  0  0  0  0  0  0
   -6.1148    5.1740  -16.7546 C   0  0  0  0  0  0  0  0  0  0  0  0
   -5.1643    5.6600  -17.7037 C   0  0  0  0  0  0  0  0  0  0  0  0
   -7.5700    4.7189  -19.5465 H   0  0  0  0  0  0  0  0  0  0  0  0
   -3.8014    6.2128  -17.4364 C   0  0  0  0  0  0  0  0  0  0  0  0
   -3.8024    7.6094  -16.8224 C   0  0  0  0  0  0  0  0  0  0  0  0
   -2.3625    8.1067  -16.7214 C   0  0  0  0  0  0  0  0  0  0  0  0
   -1.5193    7.1872  -15.9546 N   0  0  0  0  0  0  0  0  0  0  0  0
   -1.5086    5.8401  -16.5312 C   0  0  0  0  0  0  0  0  0  0  0  0
   -2.9142    5.2562  -16.6384 C   0  0  0  0  0  0  0  0  0  0  0  0
   -1.8743    7.1338  -14.9998 H   0  0  0  0  0  0  0  0  0  0  0  0
   -7.4439    5.0850  -13.2392 C   0  0  0  0  0  0  0  0  0  0  0  0
   -7.1453    6.1743  -12.9394 O   0  0  0  0  0  0  0  0  0  0  0  0
   -7.9433    3.9071  -12.3700 N   0  0  0  0  0  0  0  0  0  0  0  0
   -8.0568    3.0571  -12.8536 H   0  0  0  0  0  0  0  0  0  0  0  0
   -8.2599    3.8532  -11.0093 C   0  0  0  0  0  0  0  0  0  0  0  0
   -8.1072    4.9970  -10.2032 C   0  0  0  0  0  0  0  0  0  0  0  0
   -8.3421    4.9378   -8.8306 C   0  0  0  0  0  0  0  0  0  0  0  0
   -8.1784    6.0359   -8.0821 F   0  0  0  0  0  0  0  0  0  0  0  0
   -8.7188    3.7362   -8.2824 C   0  0  0  0  0  0  0  0  0  0  0  0
   -8.8887    2.5948   -9.0652 C   0  0  0  0  0  0  0  0  0  0  0  0
   -8.6762    2.6418  -10.4393 C   0  0  0  0  0  0  0  0  0  0  0  0
   -9.2370    1.4386   -8.1855 C   0  0  0  0  0  0  0  0  0  0  0  0
   -9.3464    2.0529   -6.8799 N   0  0  0  0  0  0  0  0  0  0  0  0
   -8.9677    3.3785   -6.8840 C   0  0  0  0  0  0  0  0  0  0  0  0
   -8.8391    4.1057   -5.9182 O   0  0  0  0  0  0  0  0  0  0  0  0
   -9.6573    1.5764   -6.0765 H   0  0  0  0  0  0  0  0  0  0  0  0
   -5.3952    6.3851  -20.1997 C   0  0  0  0  0  0  0  0  0  0  0  0
   -3.1306    6.6432  -21.1091 C   0  0  0  0  0  0  0  0  0  0  0  0
   -4.2965    5.8044  -20.9480 N   0  0  0  0  0  0  0  0  0  0  0  0
   -4.0054    4.9535  -20.4666 H   0  0  0  0  0  0  0  0  0  0  0  0
 36 37  1  0  0  0
 37 35  1  0  0  0
 35  1  1  0  0  0
  1  2  1  0  0  0
  2  3  1  0  0  0
  3  4  2  0  0  0
  4  5  1  0  0  0
  4  6  1  0  0  0
  6  7  2  0  0  0
  7 19  1  0  0  0
 19 20  2  0  0  0
 19 21  1  0  0  0
 21 23  1  0  0  0
 23 24  2  0  0  0
 24 25  1  0  0  0
 25 26  1  0  0  0
 25 27  2  0  0  0
 27 28  1  0  0  0
 28 29  2  0  0  0
 28 30  1  0  0  0
 30 31  1  0  0  0
 31 32  1  0  0  0
 32 33  2  0  0  0
  7  8  1  0  0  0
  8  9  2  0  0  0
  9 10  1  0  0  0
 10 12  1  0  0  0
 12 13  1  0  0  0
 13 14  1  0  0  0
 14 15  1  0  0  0
 15 16  1  0  0  0
 16 17  1  0  0  0
 10  1  2  0  0  0
 17 12  1  0  0  0
  9  3  1  0  0  0
 29 23  1  0  0  0
 32 27  1  0  0  0
 37 38  1  0  0  0
  2 11  1  0  0  0
 21 22  1  0  0  0
 31 34  1  0  0  0
 15 18  1  0  0  0
M  END
> <minimizedAffinity>
-9.54974

> <minimizedRMSD>
0.42842

$$$$
P20422


 41 46  0  0  0  0  0  0  0  0999 V2000
   -5.3533    5.6229  -18.6920 C   0  0  0  0  0  0  0  0  0  0  0  0
   -6.5889    5.0148  -18.5318 N   0  0  0  0  0  0  0  0  0  0  0  0
   -6.8681    4.8194  -17.1989 C   0  0  0  0  0  0  0  0  0  0  0  0
   -8.0110    4.3455  -16.5430 C   0  0  0  0  0  0  0  0  0  0  0  0
   -9.4063    3.9356  -17.4306 Cl  0  0  0  0  0  0  0  0  0  0  0  0
   -8.0512    4.3444  -15.1440 C   0  0  0  0  0  0  0  0  0  0  0  0
   -6.9570    4.8102  -14.4263 C   0  0  0  0  0  0  0  0  0  0  0  0
   -5.7987    5.2287  -15.0891 C   0  0  0  0  0  0  0  0  0  0  0  0
   -5.7625    5.2667  -16.4937 C   0  0  0  0  0  0  0  0  0  0  0  0
   -4.8142    5.8056  -17.4236 C   0  0  0  0  0  0  0  0  0  0  0  0
   -7.1856    4.7577  -19.2715 H   0  0  0  0  0  0  0  0  0  0  0  0
   -3.5370    6.4752  -16.9557 C   0  0  0  0  0  0  0  0  0  0  0  0
   -3.2943    7.9081  -17.4481 C   0  0  0  0  0  0  0  0  0  0  0  0
   -1.8901    8.1825  -17.9669 C   0  0  0  0  0  0  0  0  0  0  0  0
   -0.8665    7.4670  -17.2088 N   0  0  0  0  0  0  0  0  0  0  0  0
   -1.0304    6.0370  -17.4487 C   0  0  0  0  0  0  0  0  0  0  0  0
   -2.3407    5.5068  -16.8877 C   0  0  0  0  0  0  0  0  0  0  0  0
   -0.9743    7.6639  -16.2138 H   0  0  0  0  0  0  0  0  0  0  0  0
   -7.0063    5.1023  -12.9719 C   0  0  0  0  0  0  0  0  0  0  0  0
   -6.2504    5.8978  -12.5709 O   0  0  0  0  0  0  0  0  0  0  0  0
   -8.0578    4.2532  -12.2236 N   0  0  0  0  0  0  0  0  0  0  0  0
   -8.6321    3.7032  -12.8040 H   0  0  0  0  0  0  0  0  0  0  0  0
   -8.3269    4.1387  -10.8552 C   0  0  0  0  0  0  0  0  0  0  0  0
   -8.6473    2.8699  -10.3535 C   0  0  0  0  0  0  0  0  0  0  0  0
   -8.8731    2.7201   -8.9860 C   0  0  0  0  0  0  0  0  0  0  0  0
   -8.7924    3.7930   -8.1064 C   0  0  0  0  0  0  0  0  0  0  0  0
   -8.4813    5.0373   -8.5900 C   0  0  0  0  0  0  0  0  0  0  0  0
   -8.2694    5.2062   -9.9524 C   0  0  0  0  0  0  0  0  0  0  0  0
   -8.0557    6.5196  -10.2773 O   0  0  0  0  0  0  0  0  0  0  0  0
   -7.9388    7.2447   -9.0296 C   0  0  0  0  0  0  0  0  0  0  0  0
   -8.8456    8.4732   -9.1260 C   0  0  0  0  0  0  0  0  0  0  0  0
   -6.4773    7.6827   -8.8859 C   0  0  0  0  0  0  0  0  0  0  0  0
   -8.3700    6.3231   -7.8727 C   0  0  0  0  0  0  0  0  0  0  0  0
   -9.0856    3.3352   -6.7232 C   0  0  0  0  0  0  0  0  0  0  0  0
   -9.5557    1.9419   -6.8495 N   0  0  0  0  0  0  0  0  0  0  0  0
   -9.1738    1.4824   -8.2094 C   0  0  0  0  0  0  0  0  0  0  0  0
  -10.5686    1.9014   -6.7366 H   0  0  0  0  0  0  0  0  0  0  0  0
   -4.9249    6.0111  -20.0691 C   0  0  0  0  0  0  0  0  0  0  0  0
   -2.9161    4.6415  -20.2797 C   0  0  0  0  0  0  0  0  0  0  0  0
   -3.4839    5.9773  -20.3080 N   0  0  0  0  0  0  0  0  0  0  0  0
   -3.3003    6.3854  -21.2246 H   0  0  0  0  0  0  0  0  0  0  0  0
 39 40  1  0  0  0
 40 38  1  0  0  0
 38  1  1  0  0  0
  1  2  1  0  0  0
  2  3  1  0  0  0
  3  4  2  0  0  0
  4  5  1  0  0  0
  4  6  1  0  0  0
  6  7  2  0  0  0
  7 19  1  0  0  0
 19 20  2  0  0  0
 19 21  1  0  0  0
 21 23  1  0  0  0
 23 24  2  0  0  0
 24 25  1  0  0  0
 25 26  2  0  0  0
 26 27  1  0  0  0
 27 28  2  0  0  0
 28 29  1  0  0  0
 29 30  1  0  0  0
 30 31  1  0  0  0
 30 32  1  0  0  0
 30 33  1  0  0  0
 26 34  1  0  0  0
 34 35  1  0  0  0
 35 36  1  0  0  0
  7  8  1  0  0  0
  8  9  2  0  0  0
  9 10  1  0  0  0
 10 12  1  0  0  0
 12 13  1  0  0  0
 13 14  1  0  0  0
 14 15  1  0  0  0
 15 16  1  0  0  0
 16 17  1  0  0  0
 10  1  2  0  0  0
 17 12  1  0  0  0
  9  3  1  0  0  0
 28 23  1  0  0  0
 36 25  1  0  0  0
 33 27  1  0  0  0
 40 41  1  0  0  0
  2 11  1  0  0  0
 21 22  1  0  0  0
 35 37  1  0  0  0
 15 18  1  0  0  0
M  END
> <minimizedAffinity>
-9.21286

> <minimizedRMSD>
0.41642

$$$$
P20423


 37 41  0  0  0  0  0  0  0  0999 V2000
   -5.2162    5.4801  -18.2797 C   0  0  0  0  0  0  0  0  0  0  0  0
   -6.4535    4.8729  -18.4676 N   0  0  0  0  0  0  0  0  0  0  0  0
   -7.0905    4.6845  -17.2547 C   0  0  0  0  0  0  0  0  0  0  0  0
   -8.3730    4.2233  -16.9134 C   0  0  0  0  0  0  0  0  0  0  0  0
   -9.4833    3.7593  -18.1164 Cl  0  0  0  0  0  0  0  0  0  0  0  0
   -8.7956    4.2625  -15.5762 C   0  0  0  0  0  0  0  0  0  0  0  0
   -7.9321    4.7433  -14.6043 C   0  0  0  0  0  0  0  0  0  0  0  0
   -6.6297    5.1206  -14.9341 C   0  0  0  0  0  0  0  0  0  0  0  0
   -6.2123    5.1264  -16.2770 C   0  0  0  0  0  0  0  0  0  0  0  0
   -5.0322    5.6343  -16.9105 C   0  0  0  0  0  0  0  0  0  0  0  0
   -6.8241    4.6135  -19.3420 H   0  0  0  0  0  0  0  0  0  0  0  0
   -3.9275    6.2816  -16.0951 C   0  0  0  0  0  0  0  0  0  0  0  0
   -3.7322    7.7892  -16.2563 C   0  0  0  0  0  0  0  0  0  0  0  0
   -2.4039    8.1867  -16.8722 C   0  0  0  0  0  0  0  0  0  0  0  0
   -1.3018    7.4812  -16.2265 N   0  0  0  0  0  0  0  0  0  0  0  0
   -1.3773    6.0536  -16.5135 C   0  0  0  0  0  0  0  0  0  0  0  0
   -2.6577    5.4196  -15.9913 C   0  0  0  0  0  0  0  0  0  0  0  0
   -1.3552    7.6249  -15.2181 H   0  0  0  0  0  0  0  0  0  0  0  0
   -8.3617    5.0874  -13.2290 C   0  0  0  0  0  0  0  0  0  0  0  0
   -8.7702    6.1668  -13.0563 O   0  0  0  0  0  0  0  0  0  0  0  0
   -8.0894    3.9511  -12.2268 N   0  0  0  0  0  0  0  0  0  0  0  0
   -7.6682    3.1507  -12.6158 H   0  0  0  0  0  0  0  0  0  0  0  0
   -8.3418    3.8707  -10.8598 C   0  0  0  0  0  0  0  0  0  0  0  0
   -8.1151    4.9842  -10.0316 C   0  0  0  0  0  0  0  0  0  0  0  0
   -8.3058    4.8885   -8.6570 C   0  0  0  0  0  0  0  0  0  0  0  0
   -8.0837    5.9488   -7.8693 F   0  0  0  0  0  0  0  0  0  0  0  0
   -8.7389    3.6992   -8.1230 C   0  0  0  0  0  0  0  0  0  0  0  0
   -8.9688    2.5978   -8.9412 C   0  0  0  0  0  0  0  0  0  0  0  0
   -8.7709    2.6606  -10.3117 C   0  0  0  0  0  0  0  0  0  0  0  0
   -9.3825    1.4496   -8.0841 C   0  0  0  0  0  0  0  0  0  0  0  0
   -9.7702    2.0596   -6.7854 N   0  0  0  0  0  0  0  0  0  0  0  0
   -9.0213    3.3355   -6.7099 C   0  0  0  0  0  0  0  0  0  0  0  0
   -9.5105    1.4473   -6.0120 H   0  0  0  0  0  0  0  0  0  0  0  0
   -4.3867    5.9321  -19.4399 C   0  0  0  0  0  0  0  0  0  0  0  0
   -2.5217    4.3430  -19.5746 C   0  0  0  0  0  0  0  0  0  0  0  0
   -3.7360    4.8556  -20.1687 N   0  0  0  0  0  0  0  0  0  0  0  0
   -4.3981    4.0835  -20.2451 H   0  0  0  0  0  0  0  0  0  0  0  0
 35 36  1  0  0  0
 36 34  1  0  0  0
 34  1  1  0  0  0
  1  2  1  0  0  0
  2  3  1  0  0  0
  3  4  2  0  0  0
  4  5  1  0  0  0
  4  6  1  0  0  0
  6  7  2  0  0  0
  7 19  1  0  0  0
 19 20  2  0  0  0
 19 21  1  0  0  0
 21 23  1  0  0  0
 23 24  2  0  0  0
 24 25  1  0  0  0
 25 26  1  0  0  0
 25 27  2  0  0  0
 27 28  1  0  0  0
 28 29  2  0  0  0
 28 30  1  0  0  0
 30 31  1  0  0  0
 31 32  1  0  0  0
  7  8  1  0  0  0
  8  9  2  0  0  0
  9 10  1  0  0  0
 10 12  1  0  0  0
 12 13  1  0  0  0
 13 14  1  0  0  0
 14 15  1  0  0  0
 15 16  1  0  0  0
 16 17  1  0  0  0
 10  1  2  0  0  0
 17 12  1  0  0  0
  9  3  1  0  0  0
 29 23  1  0  0  0
 32 27  1  0  0  0
 36 37  1  0  0  0
  2 11  1  0  0  0
 21 22  1  0  0  0
 31 33  1  0  0  0
 15 18  1  0  0  0
M  END
> <minimizedAffinity>
-9.28245

> <minimizedRMSD>
0.74560

$$$$
P20424


 41 46  0  0  0  0  0  0  0  0999 V2000
   -5.3109    5.4107  -18.3199 C   0  0  0  0  0  0  0  0  0  0  0  0
   -6.5418    4.7871  -18.3815 N   0  0  0  0  0  0  0  0  0  0  0  0
   -7.0604    4.6365  -17.1047 C   0  0  0  0  0  0  0  0  0  0  0  0
   -8.2949    4.1516  -16.6478 C   0  0  0  0  0  0  0  0  0  0  0  0
   -9.4568    3.5695  -17.7449 Cl  0  0  0  0  0  0  0  0  0  0  0  0
   -8.6224    4.2421  -15.2890 C   0  0  0  0  0  0  0  0  0  0  0  0
   -7.7101    4.7955  -14.4004 C   0  0  0  0  0  0  0  0  0  0  0  0
   -6.4429    5.2029  -14.8442 C   0  0  0  0  0  0  0  0  0  0  0  0
   -6.1156    5.1395  -16.2144 C   0  0  0  0  0  0  0  0  0  0  0  0
   -4.9930    5.5704  -16.9781 C   0  0  0  0  0  0  0  0  0  0  0  0
   -6.9854    4.4931  -19.2097 H   0  0  0  0  0  0  0  0  0  0  0  0
   -3.7162    6.1669  -16.4767 C   0  0  0  0  0  0  0  0  0  0  0  0
   -3.8607    7.5469  -15.8477 C   0  0  0  0  0  0  0  0  0  0  0  0
   -2.4638    8.0967  -15.5584 C   0  0  0  0  0  0  0  0  0  0  0  0
   -1.6834    7.1893  -14.7153 N   0  0  0  0  0  0  0  0  0  0  0  0
   -1.5603    5.8454  -15.2808 C   0  0  0  0  0  0  0  0  0  0  0  0
   -2.9298    5.2342  -15.5558 C   0  0  0  0  0  0  0  0  0  0  0  0
   -2.1393    7.1184  -13.8056 H   0  0  0  0  0  0  0  0  0  0  0  0
   -8.1088    5.2131  -13.0298 C   0  0  0  0  0  0  0  0  0  0  0  0
   -8.4106    6.3346  -12.8983 O   0  0  0  0  0  0  0  0  0  0  0  0
   -8.0822    4.0550  -12.0042 N   0  0  0  0  0  0  0  0  0  0  0  0
   -7.8600    3.1739  -12.3831 H   0  0  0  0  0  0  0  0  0  0  0  0
   -8.3222    4.0562  -10.6268 C   0  0  0  0  0  0  0  0  0  0  0  0
   -8.1055    5.2232   -9.8773 C   0  0  0  0  0  0  0  0  0  0  0  0
   -8.2994    5.2281   -8.4972 C   0  0  0  0  0  0  0  0  0  0  0  0
   -8.0665    6.3491   -7.8016 F   0  0  0  0  0  0  0  0  0  0  0  0
   -8.7141    4.0795   -7.8583 C   0  0  0  0  0  0  0  0  0  0  0  0
   -8.9360    2.9218   -8.6027 C   0  0  0  0  0  0  0  0  0  0  0  0
   -8.7499    2.8897   -9.9845 C   0  0  0  0  0  0  0  0  0  0  0  0
   -9.3230    1.8147   -7.6813 C   0  0  0  0  0  0  0  0  0  0  0  0
   -9.5415    2.4503   -6.3615 N   0  0  0  0  0  0  0  0  0  0  0  0
   -8.9560    3.8160   -6.3997 C   0  0  0  0  0  0  0  0  0  0  0  0
   -7.6613    3.9255   -5.5604 C   0  0  0  0  0  0  0  0  0  0  0  0
   -7.8019    5.1827   -4.7152 C   0  0  0  0  0  0  0  0  0  0  0  0
   -9.2785    5.1904   -4.3884 C   0  0  0  0  0  0  0  0  0  0  0  0
   -9.9220    4.8128   -5.7169 C   0  0  0  0  0  0  0  0  0  0  0  0
   -9.0859    1.8998   -5.6337 H   0  0  0  0  0  0  0  0  0  0  0  0
   -4.5644    5.9060  -19.5238 C   0  0  0  0  0  0  0  0  0  0  0  0
   -2.5743    4.4267  -19.5378 C   0  0  0  0  0  0  0  0  0  0  0  0
   -3.7638    4.9012  -20.2125 N   0  0  0  0  0  0  0  0  0  0  0  0
   -4.3637    4.0937  -20.3810 H   0  0  0  0  0  0  0  0  0  0  0  0
 39 40  1  0  0  0
 40 38  1  0  0  0
 38  1  1  0  0  0
  1  2  1  0  0  0
  2  3  1  0  0  0
  3  4  2  0  0  0
  4  5  1  0  0  0
  4  6  1  0  0  0
  6  7  2  0  0  0
  7 19  1  0  0  0
 19 20  2  0  0  0
 19 21  1  0  0  0
 21 23  1  0  0  0
 23 24  2  0  0  0
 24 25  1  0  0  0
 25 26  1  0  0  0
 25 27  2  0  0  0
 27 28  1  0  0  0
 28 29  2  0  0  0
 28 30  1  0  0  0
 30 31  1  0  0  0
 31 32  1  0  0  0
 32 33  1  0  0  0
 33 34  1  0  0  0
 34 35  1  0  0  0
 35 36  1  0  0  0
  7  8  1  0  0  0
  8  9  2  0  0  0
  9 10  1  0  0  0
 10 12  1  0  0  0
 12 13  1  0  0  0
 13 14  1  0  0  0
 14 15  1  0  0  0
 15 16  1  0  0  0
 16 17  1  0  0  0
 10  1  2  0  0  0
 17 12  1  0  0  0
  9  3  1  0  0  0
 29 23  1  0  0  0
 36 32  1  0  0  0
 32 27  1  0  0  0
 40 41  1  0  0  0
  2 11  1  0  0  0
 21 22  1  0  0  0
 31 37  1  0  0  0
 15 18  1  0  0  0
M  END
> <minimizedAffinity>
-10.06980

> <minimizedRMSD>
0.79982

$$$$
P20426


 38 42  0  0  0  0  0  0  0  0999 V2000
   -5.5132    5.1698  -18.8693 C   0  0  0  0  0  0  0  0  0  0  0  0
   -6.8075    4.6970  -18.7479 N   0  0  0  0  0  0  0  0  0  0  0  0
   -7.1890    4.6599  -17.4304 C   0  0  0  0  0  0  0  0  0  0  0  0
   -8.3856    4.2640  -16.8254 C   0  0  0  0  0  0  0  0  0  0  0  0
   -9.6975    3.7299  -17.7707 Cl  0  0  0  0  0  0  0  0  0  0  0  0
   -8.5380    4.4247  -15.4487 C   0  0  0  0  0  0  0  0  0  0  0  0
   -7.5149    5.0064  -14.7153 C   0  0  0  0  0  0  0  0  0  0  0  0
   -6.2990    5.3523  -15.3129 C   0  0  0  0  0  0  0  0  0  0  0  0
   -6.1282    5.1682  -16.6960 C   0  0  0  0  0  0  0  0  0  0  0  0
   -5.0365    5.4248  -17.5911 C   0  0  0  0  0  0  0  0  0  0  0  0
   -7.3770    4.4246  -19.5034 H   0  0  0  0  0  0  0  0  0  0  0  0
   -3.6821    5.8734  -17.0875 C   0  0  0  0  0  0  0  0  0  0  0  0
   -3.4856    7.3957  -17.0388 C   0  0  0  0  0  0  0  0  0  0  0  0
   -2.4091    7.9410  -17.9672 C   0  0  0  0  0  0  0  0  0  0  0  0
   -1.2022    7.1224  -17.9195 N   0  0  0  0  0  0  0  0  0  0  0  0
   -1.5092    5.7987  -18.4620 C   0  0  0  0  0  0  0  0  0  0  0  0
   -2.4851    5.0581  -17.5688 C   0  0  0  0  0  0  0  0  0  0  0  0
   -0.8868    7.0325  -16.9537 H   0  0  0  0  0  0  0  0  0  0  0  0
   -7.7223    5.4660  -13.3284 C   0  0  0  0  0  0  0  0  0  0  0  0
   -7.6455    6.6139  -13.1290 O   0  0  0  0  0  0  0  0  0  0  0  0
   -7.9263    4.2923  -12.3485 N   0  0  0  0  0  0  0  0  0  0  0  0
   -7.8803    3.3991  -12.7601 H   0  0  0  0  0  0  0  0  0  0  0  0
   -8.1648    4.2903  -10.9773 C   0  0  0  0  0  0  0  0  0  0  0  0
   -7.8536    5.4322  -10.2181 C   0  0  0  0  0  0  0  0  0  0  0  0
   -7.9782    5.4289   -8.8310 C   0  0  0  0  0  0  0  0  0  0  0  0
   -8.4204    4.2706   -8.2266 C   0  0  0  0  0  0  0  0  0  0  0  0
   -8.7598    3.1459   -8.9720 C   0  0  0  0  0  0  0  0  0  0  0  0
   -8.6419    3.1353  -10.3543 C   0  0  0  0  0  0  0  0  0  0  0  0
   -9.1661    2.0453   -8.0430 C   0  0  0  0  0  0  0  0  0  0  0  0
   -9.1366    2.6291   -6.6788 N   0  0  0  0  0  0  0  0  0  0  0  0
   -8.5662    3.9790   -6.7730 C   0  0  0  0  0  0  0  0  0  0  0  0
  -10.4628    2.6880   -6.1227 C   0  0  0  0  0  0  0  0  0  0  0  0
  -10.4465    3.4241   -4.9783 F   0  0  0  0  0  0  0  0  0  0  0  0
  -10.8725    1.4461   -5.7891 F   0  0  0  0  0  0  0  0  0  0  0  0
   -4.9250    5.2779  -20.2320 C   0  0  0  0  0  0  0  0  0  0  0  0
   -5.3480    7.6744  -20.4335 C   0  0  0  0  0  0  0  0  0  0  0  0
   -4.4007    6.5946  -20.6045 N   0  0  0  0  0  0  0  0  0  0  0  0
   -3.5836    6.7900  -20.0260 H   0  0  0  0  0  0  0  0  0  0  0  0
 36 37  1  0  0  0
 37 35  1  0  0  0
 35  1  1  0  0  0
  1  2  1  0  0  0
  2  3  1  0  0  0
  3  4  2  0  0  0
  4  5  1  0  0  0
  4  6  1  0  0  0
  6  7  2  0  0  0
  7 19  1  0  0  0
 19 20  2  0  0  0
 19 21  1  0  0  0
 21 23  1  0  0  0
 23 24  2  0  0  0
 24 25  1  0  0  0
 25 26  2  0  0  0
 26 27  1  0  0  0
 27 28  2  0  0  0
 27 29  1  0  0  0
 29 30  1  0  0  0
 30 32  1  0  0  0
 32 33  1  0  0  0
 32 34  1  0  0  0
 30 31  1  0  0  0
  7  8  1  0  0  0
  8  9  2  0  0  0
  9 10  1  0  0  0
 10 12  1  0  0  0
 12 13  1  0  0  0
 13 14  1  0  0  0
 14 15  1  0  0  0
 15 16  1  0  0  0
 16 17  1  0  0  0
 10  1  2  0  0  0
 17 12  1  0  0  0
  9  3  1  0  0  0
 28 23  1  0  0  0
 31 26  1  0  0  0
 37 38  1  0  0  0
  2 11  1  0  0  0
 21 22  1  0  0  0
 15 18  1  0  0  0
M  END
> <minimizedAffinity>
-9.06043

> <minimizedRMSD>
0.25548

$$$$
P20427


 33 37  0  0  0  0  0  0  0  0999 V2000
   -8.4982    4.1263  -16.9593 C   0  0  0  0  0  0  0  0  0  0  0  0
   -8.5338    4.2432  -15.5680 C   0  0  0  0  0  0  0  0  0  0  0  0
   -7.4274    4.7674  -14.8994 C   0  0  0  0  0  0  0  0  0  0  0  0
   -6.2561    5.1165  -15.5867 C   0  0  0  0  0  0  0  0  0  0  0  0
   -6.2021    4.9663  -16.9843 C   0  0  0  0  0  0  0  0  0  0  0  0
   -5.2259    5.2866  -17.9768 C   0  0  0  0  0  0  0  0  0  0  0  0
   -5.7884    4.9926  -19.2037 C   0  0  0  0  0  0  0  0  0  0  0  0
   -7.0591    4.5315  -18.9946 N   0  0  0  0  0  0  0  0  0  0  0  0
   -7.3263    4.4851  -17.6420 C   0  0  0  0  0  0  0  0  0  0  0  0
   -7.6897    4.2713  -19.7045 H   0  0  0  0  0  0  0  0  0  0  0  0
   -3.8842    5.8971  -17.7012 C   0  0  0  0  0  0  0  0  0  0  0  0
   -3.7627    7.2922  -18.3426 C   0  0  0  0  0  0  0  0  0  0  0  0
   -2.3311    7.6210  -18.7610 C   0  0  0  0  0  0  0  0  0  0  0  0
   -1.3789    7.1219  -17.7803 N   0  0  0  0  0  0  0  0  0  0  0  0
   -1.3879    5.6575  -17.6894 C   0  0  0  0  0  0  0  0  0  0  0  0
   -2.7115    5.0045  -18.0977 C   0  0  0  0  0  0  0  0  0  0  0  0
   -1.6160    7.5086  -16.8667 H   0  0  0  0  0  0  0  0  0  0  0  0
   -7.5258    5.1822  -13.4785 C   0  0  0  0  0  0  0  0  0  0  0  0
   -7.2219    6.2766  -13.2101 O   0  0  0  0  0  0  0  0  0  0  0  0
   -8.0714    4.0485  -12.5862 N   0  0  0  0  0  0  0  0  0  0  0  0
   -8.3266    3.2299  -13.0699 H   0  0  0  0  0  0  0  0  0  0  0  0
   -8.2616    3.9944  -11.2077 C   0  0  0  0  0  0  0  0  0  0  0  0
   -8.0287    5.1263  -10.4066 C   0  0  0  0  0  0  0  0  0  0  0  0
   -8.2221    5.0810   -9.0230 C   0  0  0  0  0  0  0  0  0  0  0  0
   -8.6571    3.8943   -8.4678 C   0  0  0  0  0  0  0  0  0  0  0  0
   -8.8765    2.7689   -9.2582 C   0  0  0  0  0  0  0  0  0  0  0  0
   -8.6872    2.7979  -10.6293 C   0  0  0  0  0  0  0  0  0  0  0  0
   -9.2802    1.6352   -8.3762 C   0  0  0  0  0  0  0  0  0  0  0  0
   -9.6972    2.2736   -7.1012 N   0  0  0  0  0  0  0  0  0  0  0  0
   -8.9563    3.5539   -7.0461 C   0  0  0  0  0  0  0  0  0  0  0  0
   -9.4493    1.6826   -6.3077 H   0  0  0  0  0  0  0  0  0  0  0  0
  -10.6124    4.6414  -17.7531 O   0  0  0  0  0  0  0  0  0  0  0  0
   -9.7071    3.8187  -17.7272 C   0  0  0  0  0  0  0  0  0  0  0  0
 32 33  2  0  0  0
 33  1  1  0  0  0
  1  2  2  0  0  0
  2  3  1  0  0  0
  3 18  1  0  0  0
 18 19  2  0  0  0
 18 20  1  0  0  0
 20 22  1  0  0  0
 22 23  2  0  0  0
 23 24  1  0  0  0
 24 25  2  0  0  0
 25 26  1  0  0  0
 26 27  2  0  0  0
 26 28  1  0  0  0
 28 29  1  0  0  0
 29 30  1  0  0  0
  3  4  2  0  0  0
  4  5  1  0  0  0
  5  6  1  0  0  0
  6 11  1  0  0  0
 11 12  1  0  0  0
 12 13  1  0  0  0
 13 14  1  0  0  0
 14 15  1  0  0  0
 15 16  1  0  0  0
  6  7  2  0  0  0
  7  8  1  0  0  0
  8  9  1  0  0  0
  9  1  1  0  0  0
 27 22  1  0  0  0
  9  5  2  0  0  0
 30 25  1  0  0  0
 16 11  1  0  0  0
 20 21  1  0  0  0
 29 31  1  0  0  0
 14 17  1  0  0  0
  8 10  1  0  0  0
M  END
> <minimizedAffinity>
-10.15355

> <minimizedRMSD>
0.42519

$$$$
P20429


 34 39  0  0  0  0  0  0  0  0999 V2000
   -8.0952    4.5275  -15.3401 C   0  0  0  0  0  0  0  0  0  0  0  0
   -8.9334    4.1338  -16.3786 C   0  0  0  0  0  0  0  0  0  0  0  0
   -8.4704    4.1687  -17.6971 C   0  0  0  0  0  0  0  0  0  0  0  0
   -9.3096    3.9036  -18.7088 F   0  0  0  0  0  0  0  0  0  0  0  0
   -7.1694    4.6217  -17.9389 C   0  0  0  0  0  0  0  0  0  0  0  0
   -6.5217    4.9566  -19.1098 N   0  0  0  0  0  0  0  0  0  0  0  0
   -5.3102    5.5268  -18.8162 C   0  0  0  0  0  0  0  0  0  0  0  0
   -4.5003    6.1550  -19.6827 N   0  0  0  0  0  0  0  0  0  0  0  0
   -3.3720    6.6505  -19.1988 N   0  0  0  0  0  0  0  0  0  0  0  0
   -3.0294    6.4682  -17.8938 C   0  0  0  0  0  0  0  0  0  0  0  0
   -3.8241    5.7799  -16.9740 C   0  0  0  0  0  0  0  0  0  0  0  0
   -5.0698    5.3711  -17.4657 C   0  0  0  0  0  0  0  0  0  0  0  0
   -6.2870    4.9113  -16.8958 C   0  0  0  0  0  0  0  0  0  0  0  0
   -6.7527    4.8439  -15.5739 C   0  0  0  0  0  0  0  0  0  0  0  0
   -3.3439    5.5612  -15.5676 C   0  0  0  0  0  0  0  0  0  0  0  0
   -1.8231    5.7000  -15.4574 C   0  0  0  0  0  0  0  0  0  0  0  0
   -1.3986    6.9798  -16.0293 N   0  0  0  0  0  0  0  0  0  0  0  0
   -1.6669    6.9871  -17.4805 C   0  0  0  0  0  0  0  0  0  0  0  0
   -6.8751    4.8088  -20.0167 H   0  0  0  0  0  0  0  0  0  0  0  0
   -0.3997    7.1089  -15.8682 H   0  0  0  0  0  0  0  0  0  0  0  0
   -9.3125    5.8122  -13.9308 O   0  0  0  0  0  0  0  0  0  0  0  0
   -8.6049    4.8866  -13.9960 C   0  0  0  0  0  0  0  0  0  0  0  0
   -8.0106    4.0045  -12.8839 N   0  0  0  0  0  0  0  0  0  0  0  0
   -7.3729    3.3223  -13.1957 H   0  0  0  0  0  0  0  0  0  0  0  0
   -8.2281    4.0138  -11.5074 C   0  0  0  0  0  0  0  0  0  0  0  0
   -7.9690    5.1711  -10.7489 C   0  0  0  0  0  0  0  0  0  0  0  0
   -8.1434    5.1797   -9.3617 C   0  0  0  0  0  0  0  0  0  0  0  0
   -8.5852    4.0199   -8.7584 C   0  0  0  0  0  0  0  0  0  0  0  0
   -8.8301    2.8701   -9.5052 C   0  0  0  0  0  0  0  0  0  0  0  0
   -8.6585    2.8470  -10.8790 C   0  0  0  0  0  0  0  0  0  0  0  0
   -9.2292    1.7722   -8.5772 C   0  0  0  0  0  0  0  0  0  0  0  0
   -9.6211    2.4604   -7.3194 N   0  0  0  0  0  0  0  0  0  0  0  0
   -8.8643    3.7324   -7.3211 C   0  0  0  0  0  0  0  0  0  0  0  0
   -9.3688    1.8950   -6.5088 H   0  0  0  0  0  0  0  0  0  0  0  0
 21 22  2  0  0  0
 22 23  1  0  0  0
 23 25  1  0  0  0
 25 26  2  0  0  0
 26 27  1  0  0  0
 27 28  2  0  0  0
 28 29  1  0  0  0
 29 30  2  0  0  0
 29 31  1  0  0  0
 31 32  1  0  0  0
 32 33  1  0  0  0
 22  1  1  0  0  0
  1  2  2  0  0  0
  2  3  1  0  0  0
  3  4  1  0  0  0
  3  5  2  0  0  0
  5  6  1  0  0  0
  6  7  1  0  0  0
  7  8  2  0  0  0
  8  9  1  0  0  0
  9 10  2  0  0  0
 10 11  1  0  0  0
 11 12  2  0  0  0
 12 13  1  0  0  0
 13 14  2  0  0  0
 11 15  1  0  0  0
 15 16  1  0  0  0
 16 17  1  0  0  0
 17 18  1  0  0  0
 30 25  1  0  0  0
 14  1  1  0  0  0
 33 28  1  0  0  0
 13  5  1  0  0  0
 12  7  1  0  0  0
 18 10  1  0  0  0
 23 24  1  0  0  0
 32 34  1  0  0  0
  6 19  1  0  0  0
 17 20  1  0  0  0
M  END
> <minimizedAffinity>
-11.26860

> <minimizedRMSD>
0.88947

$$$$
P20430


 38 42  0  0  0  0  0  0  0  0999 V2000
   -5.1236    5.6467  -18.8028 C   0  0  0  0  0  0  0  0  0  0  0  0
   -6.3261    5.0368  -19.1413 N   0  0  0  0  0  0  0  0  0  0  0  0
   -7.0379    4.7102  -18.0052 C   0  0  0  0  0  0  0  0  0  0  0  0
   -8.3365    4.2100  -17.8141 C   0  0  0  0  0  0  0  0  0  0  0  0
   -9.1202    3.8892  -18.8516 F   0  0  0  0  0  0  0  0  0  0  0  0
   -8.8666    4.1522  -16.5189 C   0  0  0  0  0  0  0  0  0  0  0  0
   -8.0898    4.5570  -15.4410 C   0  0  0  0  0  0  0  0  0  0  0  0
   -6.7554    4.9334  -15.6252 C   0  0  0  0  0  0  0  0  0  0  0  0
   -6.2314    5.0496  -16.9252 C   0  0  0  0  0  0  0  0  0  0  0  0
   -5.0004    5.5922  -17.4183 C   0  0  0  0  0  0  0  0  0  0  0  0
   -6.6276    4.8624  -20.0621 H   0  0  0  0  0  0  0  0  0  0  0  0
   -3.9159    6.1006  -16.4884 C   0  0  0  0  0  0  0  0  0  0  0  0
   -3.5770    7.5815  -16.5745 C   0  0  0  0  0  0  0  0  0  0  0  0
   -2.6461    7.9816  -15.4285 C   0  0  0  0  0  0  0  0  0  0  0  0
   -1.7407    6.9234  -14.9676 N   0  0  0  0  0  0  0  0  0  0  0  0
   -1.3992    5.9763  -16.0151 C   0  0  0  0  0  0  0  0  0  0  0  0
   -2.6507    5.2198  -16.4893 C   0  0  0  0  0  0  0  0  0  0  0  0
   -2.1924    6.4174  -14.2058 H   0  0  0  0  0  0  0  0  0  0  0  0
   -0.7420    6.6863  -17.0521 O   0  0  0  0  0  0  0  0  0  0  0  0
    0.0833    5.8679  -17.8645 C   0  0  0  0  0  0  0  0  0  0  0  0
   -8.6498    4.8565  -14.0995 C   0  0  0  0  0  0  0  0  0  0  0  0
   -9.3424    5.7928  -14.0199 O   0  0  0  0  0  0  0  0  0  0  0  0
   -8.1222    3.9088  -13.0058 N   0  0  0  0  0  0  0  0  0  0  0  0
   -7.6095    3.1380  -13.3408 H   0  0  0  0  0  0  0  0  0  0  0  0
   -8.2525    3.9649  -11.6174 C   0  0  0  0  0  0  0  0  0  0  0  0
   -7.9844    5.1598  -10.9244 C   0  0  0  0  0  0  0  0  0  0  0  0
   -8.0791    5.2246   -9.5308 C   0  0  0  0  0  0  0  0  0  0  0  0
   -8.4603    4.0847   -8.8508 C   0  0  0  0  0  0  0  0  0  0  0  0
   -8.7261    2.9018   -9.5312 C   0  0  0  0  0  0  0  0  0  0  0  0
   -8.6218    2.8195  -10.9128 C   0  0  0  0  0  0  0  0  0  0  0  0
   -9.0724    1.8384   -8.5443 C   0  0  0  0  0  0  0  0  0  0  0  0
   -9.2617    2.5347   -7.2466 N   0  0  0  0  0  0  0  0  0  0  0  0
   -8.6496    3.8708   -7.3879 C   0  0  0  0  0  0  0  0  0  0  0  0
   -8.8024    2.0151   -6.4987 H   0  0  0  0  0  0  0  0  0  0  0  0
   -4.2719    6.3114  -19.8405 C   0  0  0  0  0  0  0  0  0  0  0  0
   -2.6193    4.5354  -20.1178 C   0  0  0  0  0  0  0  0  0  0  0  0
   -3.5859    5.4051  -20.7473 N   0  0  0  0  0  0  0  0  0  0  0  0
   -4.2873    4.8221  -21.2041 H   0  0  0  0  0  0  0  0  0  0  0  0
 36 37  1  0  0  0
 37 35  1  0  0  0
 35  1  1  0  0  0
  1  2  1  0  0  0
  2  3  1  0  0  0
  3  4  2  0  0  0
  4  5  1  0  0  0
  4  6  1  0  0  0
  6  7  2  0  0  0
  7 21  1  0  0  0
 21 22  2  0  0  0
 21 23  1  0  0  0
 23 25  1  0  0  0
 25 26  2  0  0  0
 26 27  1  0  0  0
 27 28  2  0  0  0
 28 29  1  0  0  0
 29 30  2  0  0  0
 29 31  1  0  0  0
 31 32  1  0  0  0
 32 33  1  0  0  0
  7  8  1  0  0  0
  8  9  2  0  0  0
  9 10  1  0  0  0
 12 10  1  0  0  0
 12 13  1  0  0  0
 13 14  1  0  0  0
 14 15  1  0  0  0
 15 16  1  0  0  0
 16 19  1  0  0  0
 19 20  1  0  0  0
 16 17  1  0  0  0
 10  1  2  0  0  0
 17 12  1  0  0  0
  9  3  1  0  0  0
 30 25  1  0  0  0
 33 28  1  0  0  0
 37 38  1  0  0  0
  2 11  1  0  0  0
 23 24  1  0  0  0
 32 34  1  0  0  0
 15 18  1  0  0  0
M  END
> <minimizedAffinity>
-9.99973

> <minimizedRMSD>
0.83987

$$$$
P20431


 37 41  0  0  0  0  0  0  0  0999 V2000
   -5.7170    6.0535  -17.9297 C   0  0  0  0  0  0  0  0  0  0  0  0
   -6.9597    5.6469  -17.5805 N   0  0  0  0  0  0  0  0  0  0  0  0
   -6.9257    5.1013  -16.3393 C   0  0  0  0  0  0  0  0  0  0  0  0
   -7.9160    4.3661  -15.7111 C   0  0  0  0  0  0  0  0  0  0  0  0
   -9.2377    3.8210  -16.6499 Cl  0  0  0  0  0  0  0  0  0  0  0  0
   -7.8076    4.2080  -14.3427 C   0  0  0  0  0  0  0  0  0  0  0  0
   -6.6897    4.7405  -13.6852 C   0  0  0  0  0  0  0  0  0  0  0  0
   -5.6140    5.3310  -14.3773 C   0  0  0  0  0  0  0  0  0  0  0  0
   -5.7333    5.5142  -15.7576 C   0  0  0  0  0  0  0  0  0  0  0  0
   -4.9145    6.0398  -16.8085 C   0  0  0  0  0  0  0  0  0  0  0  0
   -7.7643    5.7338  -18.1411 H   0  0  0  0  0  0  0  0  0  0  0  0
   -3.4797    6.4658  -16.8385 C   0  0  0  0  0  0  0  0  0  0  0  0
   -3.2496    7.7383  -16.0232 C   0  0  0  0  0  0  0  0  0  0  0  0
   -1.8182    8.2257  -16.2224 C   0  0  0  0  0  0  0  0  0  0  0  0
   -0.8442    7.1890  -15.8861 N   0  0  0  0  0  0  0  0  0  0  0  0
   -1.0490    5.9620  -16.6590 C   0  0  0  0  0  0  0  0  0  0  0  0
   -2.4569    5.4006  -16.4620 C   0  0  0  0  0  0  0  0  0  0  0  0
   -0.9284    6.9694  -14.8936 H   0  0  0  0  0  0  0  0  0  0  0  0
   -6.6844    4.8827  -12.2143 C   0  0  0  0  0  0  0  0  0  0  0  0
   -5.9436    5.6530  -11.7464 O   0  0  0  0  0  0  0  0  0  0  0  0
   -7.7505    3.9930  -11.5501 N   0  0  0  0  0  0  0  0  0  0  0  0
   -8.2004    3.3642  -12.1596 H   0  0  0  0  0  0  0  0  0  0  0  0
   -8.1801    3.9328  -10.2343 C   0  0  0  0  0  0  0  0  0  0  0  0
   -8.0683    5.0565   -9.3984 C   0  0  0  0  0  0  0  0  0  0  0  0
   -8.4650    5.0037   -8.0573 C   0  0  0  0  0  0  0  0  0  0  0  0
   -8.3166    6.1913   -7.1606 C   0  0  0  0  0  0  0  0  0  0  0  0
   -8.9519    3.7920   -7.5899 C   0  0  0  0  0  0  0  0  0  0  0  0
   -9.0680    2.6842   -8.4259 C   0  0  0  0  0  0  0  0  0  0  0  0
   -8.7009    2.7353   -9.7566 C   0  0  0  0  0  0  0  0  0  0  0  0
   -9.5278    1.5111   -7.6341 C   0  0  0  0  0  0  0  0  0  0  0  0
   -9.9531    2.0495   -6.3203 N   0  0  0  0  0  0  0  0  0  0  0  0
   -9.3761    3.4044   -6.2128 C   0  0  0  0  0  0  0  0  0  0  0  0
   -9.6032    1.4572   -5.5673 H   0  0  0  0  0  0  0  0  0  0  0  0
   -5.4384    6.2477  -19.3490 C   0  0  0  0  0  0  0  0  0  0  0  0
   -6.6924    4.1398  -19.8025 C   0  0  0  0  0  0  0  0  0  0  0  0
   -5.4807    4.9429  -19.9540 N   0  0  0  0  0  0  0  0  0  0  0  0
   -5.3277    5.0704  -20.9544 H   0  0  0  0  0  0  0  0  0  0  0  0
 35 36  1  0  0  0
 36 34  1  0  0  0
 34  1  1  0  0  0
  1  2  1  0  0  0
  2  3  1  0  0  0
  3  4  2  0  0  0
  4  5  1  0  0  0
  4  6  1  0  0  0
  6  7  2  0  0  0
  7 19  1  0  0  0
 19 20  2  0  0  0
 19 21  1  0  0  0
 21 23  1  0  0  0
 23 24  2  0  0  0
 24 25  1  0  0  0
 25 26  1  0  0  0
 25 27  2  0  0  0
 27 28  1  0  0  0
 28 29  2  0  0  0
 28 30  1  0  0  0
 30 31  1  0  0  0
 31 32  1  0  0  0
  7  8  1  0  0  0
  8  9  2  0  0  0
  9 10  1  0  0  0
 10 12  1  0  0  0
 12 13  1  0  0  0
 13 14  1  0  0  0
 14 15  1  0  0  0
 15 16  1  0  0  0
 16 17  1  0  0  0
 10  1  2  0  0  0
 17 12  1  0  0  0
  9  3  1  0  0  0
 29 23  1  0  0  0
 32 27  1  0  0  0
 36 37  1  0  0  0
  2 11  1  0  0  0
 21 22  1  0  0  0
 31 33  1  0  0  0
 15 18  1  0  0  0
M  END
> <minimizedAffinity>
-7.28109

> <minimizedRMSD>
0.69204

$$$$
P20432


 40 44  0  0  0  0  0  0  0  0999 V2000
   -7.3656    4.9633  -13.1981 C   0  0  0  0  0  0  0  0  0  0  0  0
   -8.1388    6.1516  -13.0955 O   0  0  0  0  0  0  0  0  0  0  0  0
   -8.2419    6.3906  -12.1611 H   0  0  0  0  0  0  0  0  0  0  0  0
   -7.2874    4.7116  -14.7119 C   0  0  0  0  0  0  0  0  0  0  0  0
   -8.4172    4.2869  -15.4230 C   0  0  0  0  0  0  0  0  0  0  0  0
   -8.4193    4.2150  -16.8167 C   0  0  0  0  0  0  0  0  0  0  0  0
   -9.8348    3.7695  -17.6426 Cl  0  0  0  0  0  0  0  0  0  0  0  0
   -7.2816    4.5932  -17.5234 C   0  0  0  0  0  0  0  0  0  0  0  0
   -7.0514    4.6924  -18.8761 N   0  0  0  0  0  0  0  0  0  0  0  0
   -5.7719    5.1264  -19.0969 C   0  0  0  0  0  0  0  0  0  0  0  0
   -5.1640    5.3335  -17.8734 C   0  0  0  0  0  0  0  0  0  0  0  0
   -6.1268    5.0019  -16.8708 C   0  0  0  0  0  0  0  0  0  0  0  0
   -6.1346    5.0507  -15.4582 C   0  0  0  0  0  0  0  0  0  0  0  0
   -7.7077    4.4829  -19.5794 H   0  0  0  0  0  0  0  0  0  0  0  0
   -3.7761    5.8408  -17.6278 C   0  0  0  0  0  0  0  0  0  0  0  0
   -3.5717    7.2476  -18.1920 C   0  0  0  0  0  0  0  0  0  0  0  0
   -2.1813    7.7691  -17.8278 C   0  0  0  0  0  0  0  0  0  0  0  0
   -1.1269    6.7507  -17.8106 N   0  0  0  0  0  0  0  0  0  0  0  0
   -1.4586    5.6008  -18.6529 C   0  0  0  0  0  0  0  0  0  0  0  0
   -2.6982    4.8719  -18.1387 C   0  0  0  0  0  0  0  0  0  0  0  0
   -0.9959    6.4290  -16.8515 H   0  0  0  0  0  0  0  0  0  0  0  0
   -5.2307    3.7112  -12.5559 N   0  0  0  0  0  0  0  0  0  0  0  0
   -5.8849    5.1259  -12.5748 C   0  0  0  0  0  0  0  0  0  0  0  0
   -5.4505    6.1681  -12.2575 O   0  0  0  0  0  0  0  0  0  0  0  0
   -5.7821    2.9967  -12.9491 H   0  0  0  0  0  0  0  0  0  0  0  0
   -2.8490    3.6051  -13.0607 C   0  0  0  0  0  0  0  0  0  0  0  0
   -3.9489    3.2790  -12.0558 C   0  0  0  0  0  0  0  0  0  0  0  0
   -3.9706    1.7913  -11.7255 C   0  0  0  0  0  0  0  0  0  0  0  0
   -8.0575    3.8777  -12.4954 N   0  0  0  0  0  0  0  0  0  0  0  0
   -8.3444    3.0870  -13.0069 H   0  0  0  0  0  0  0  0  0  0  0  0
   -8.3247    3.9281  -11.1172 C   0  0  0  0  0  0  0  0  0  0  0  0
   -8.1073    5.0572  -10.2990 C   0  0  0  0  0  0  0  0  0  0  0  0
   -8.2913    5.0223   -8.9103 C   0  0  0  0  0  0  0  0  0  0  0  0
   -8.6887    3.8360   -8.3342 C   0  0  0  0  0  0  0  0  0  0  0  0
   -8.9017    2.7106   -9.1143 C   0  0  0  0  0  0  0  0  0  0  0  0
   -8.7310    2.7406  -10.4920 C   0  0  0  0  0  0  0  0  0  0  0  0
   -9.2380    1.5596   -8.2294 C   0  0  0  0  0  0  0  0  0  0  0  0
   -9.4883    2.1390   -6.8848 N   0  0  0  0  0  0  0  0  0  0  0  0
   -8.9258    3.5040   -6.9014 C   0  0  0  0  0  0  0  0  0  0  0  0
   -9.0280    1.5774   -6.1685 H   0  0  0  0  0  0  0  0  0  0  0  0
 26 27  1  0  0  0
 27 28  1  0  0  0
 27 22  1  0  0  0
 22 23  1  0  0  0
 23 24  2  0  0  0
 23  1  1  0  0  0
  1  2  1  0  0  0
  1 29  1  0  0  0
 29 31  1  0  0  0
 31 32  2  0  0  0
 32 33  1  0  0  0
 33 34  2  0  0  0
 34 35  1  0  0  0
 35 36  2  0  0  0
 35 37  1  0  0  0
 37 38  1  0  0  0
 38 39  1  0  0  0
  1  4  1  0  0  0
  4  5  2  0  0  0
  5  6  1  0  0  0
  6  7  1  0  0  0
  6  8  2  0  0  0
  8  9  1  0  0  0
  9 10  1  0  0  0
 10 11  2  0  0  0
 11 15  1  0  0  0
 15 16  1  0  0  0
 16 17  1  0  0  0
 17 18  1  0  0  0
 18 19  1  0  0  0
 19 20  1  0  0  0
 11 12  1  0  0  0
 12 13  2  0  0  0
 36 31  1  0  0  0
 13  4  1  0  0  0
 39 34  1  0  0  0
 12  8  1  0  0  0
 20 15  1  0  0  0
 22 25  1  0  0  0
  2  3  1  0  0  0
 29 30  1  0  0  0
 38 40  1  0  0  0
  9 14  1  0  0  0
 18 21  1  0  0  0
M  END
> <minimizedAffinity>
-9.96225

> <minimizedRMSD>
0.35662

$$$$
P20435


 35 39  0  0  0  0  0  0  0  0999 V2000
   -5.3779    5.6285  -20.5236 N   0  0  0  0  0  0  0  0  0  0  0  0
   -5.6792    5.3621  -19.2379 C   0  0  0  0  0  0  0  0  0  0  0  0
   -6.9081    4.8668  -18.9274 N   0  0  0  0  0  0  0  0  0  0  0  0
   -7.0304    4.7374  -17.5659 C   0  0  0  0  0  0  0  0  0  0  0  0
   -8.1224    4.3347  -16.8020 C   0  0  0  0  0  0  0  0  0  0  0  0
   -9.7150    3.8848  -17.6572 Br  0  0  0  0  0  0  0  0  0  0  0  0
   -8.0512    4.3977  -15.4156 C   0  0  0  0  0  0  0  0  0  0  0  0
   -6.8831    4.8579  -14.8112 C   0  0  0  0  0  0  0  0  0  0  0  0
   -5.7662    5.2277  -15.5846 C   0  0  0  0  0  0  0  0  0  0  0  0
   -5.8362    5.1680  -16.9948 C   0  0  0  0  0  0  0  0  0  0  0  0
   -4.9578    5.5241  -18.0751 C   0  0  0  0  0  0  0  0  0  0  0  0
   -6.0353    5.4414  -21.2322 H   0  0  0  0  0  0  0  0  0  0  0  0
   -4.5004    6.0103  -20.7545 H   0  0  0  0  0  0  0  0  0  0  0  0
   -7.6061    4.6355  -19.5821 H   0  0  0  0  0  0  0  0  0  0  0  0
   -3.5668    6.0771  -18.0091 C   0  0  0  0  0  0  0  0  0  0  0  0
   -3.5323    7.4846  -17.4076 C   0  0  0  0  0  0  0  0  0  0  0  0
   -2.1070    8.0245  -17.4201 C   0  0  0  0  0  0  0  0  0  0  0  0
   -1.1914    7.1273  -16.7180 N   0  0  0  0  0  0  0  0  0  0  0  0
   -1.1821    5.7868  -17.3049 C   0  0  0  0  0  0  0  0  0  0  0  0
   -2.5730    5.1573  -17.2986 C   0  0  0  0  0  0  0  0  0  0  0  0
   -1.4813    7.0579  -15.7425 H   0  0  0  0  0  0  0  0  0  0  0  0
   -6.8691    5.1511  -13.3502 C   0  0  0  0  0  0  0  0  0  0  0  0
   -6.3325    6.1268  -12.9957 O   0  0  0  0  0  0  0  0  0  0  0  0
   -7.6557    4.0891  -12.5440 N   0  0  0  0  0  0  0  0  0  0  0  0
   -7.9512    3.3096  -13.0678 H   0  0  0  0  0  0  0  0  0  0  0  0
   -8.0138    4.0570  -11.1974 C   0  0  0  0  0  0  0  0  0  0  0  0
   -7.8436    5.1846  -10.3784 C   0  0  0  0  0  0  0  0  0  0  0  0
   -8.1737    5.1422   -9.0198 C   0  0  0  0  0  0  0  0  0  0  0  0
   -8.6653    3.9587   -8.5014 C   0  0  0  0  0  0  0  0  0  0  0  0
   -8.8461    2.8447   -9.3110 C   0  0  0  0  0  0  0  0  0  0  0  0
   -8.5400    2.8772  -10.6640 C   0  0  0  0  0  0  0  0  0  0  0  0
   -9.3241    1.7028   -8.4795 C   0  0  0  0  0  0  0  0  0  0  0  0
   -9.6199    2.2635   -7.1354 N   0  0  0  0  0  0  0  0  0  0  0  0
   -9.0389    3.6214   -7.0986 C   0  0  0  0  0  0  0  0  0  0  0  0
   -9.1975    1.6816   -6.4119 H   0  0  0  0  0  0  0  0  0  0  0  0
  1  2  1  0  0  0
  2  3  1  0  0  0
  3  4  1  0  0  0
  4  5  2  0  0  0
  5  6  1  0  0  0
  5  7  1  0  0  0
  7  8  2  0  0  0
  8 22  1  0  0  0
 22 23  2  0  0  0
 22 24  1  0  0  0
 24 26  1  0  0  0
 26 27  2  0  0  0
 27 28  1  0  0  0
 28 29  2  0  0  0
 29 30  1  0  0  0
 30 31  2  0  0  0
 30 32  1  0  0  0
 32 33  1  0  0  0
 33 34  1  0  0  0
  8  9  1  0  0  0
  9 10  2  0  0  0
 10 11  1  0  0  0
 11 15  1  0  0  0
 15 16  1  0  0  0
 16 17  1  0  0  0
 17 18  1  0  0  0
 18 19  1  0  0  0
 19 20  1  0  0  0
 11  2  2  0  0  0
 20 15  1  0  0  0
 10  4  1  0  0  0
 31 26  1  0  0  0
 34 29  1  0  0  0
  1 12  1  0  0  0
  1 13  1  0  0  0
  3 14  1  0  0  0
 24 25  1  0  0  0
 33 35  1  0  0  0
 18 21  1  0  0  0
M  END
> <minimizedAffinity>
-9.62269

> <minimizedRMSD>
0.25207

$$$$
P20437


 39 44  0  0  0  0  0  0  0  0999 V2000
   -7.3824    4.7943  -14.7416 C   0  0  0  0  0  0  0  0  0  0  0  0
   -8.4848    4.3132  -15.4389 C   0  0  0  0  0  0  0  0  0  0  0  0
   -8.4308    4.2134  -16.8298 C   0  0  0  0  0  0  0  0  0  0  0  0
   -9.8208    3.7868  -17.7132 Cl  0  0  0  0  0  0  0  0  0  0  0  0
   -7.2668    4.5977  -17.4985 C   0  0  0  0  0  0  0  0  0  0  0  0
   -6.9829    4.6994  -18.8383 N   0  0  0  0  0  0  0  0  0  0  0  0
   -5.7442    5.2721  -19.0352 C   0  0  0  0  0  0  0  0  0  0  0  0
   -5.1366    5.3732  -17.7907 C   0  0  0  0  0  0  0  0  0  0  0  0
   -6.1402    5.0325  -16.8196 C   0  0  0  0  0  0  0  0  0  0  0  0
   -6.1967    5.1193  -15.4140 C   0  0  0  0  0  0  0  0  0  0  0  0
   -7.5828    4.4034  -19.5606 H   0  0  0  0  0  0  0  0  0  0  0  0
   -3.7531    5.7955  -17.3717 C   0  0  0  0  0  0  0  0  0  0  0  0
   -3.5625    7.3171  -17.3270 C   0  0  0  0  0  0  0  0  0  0  0  0
   -2.1839    7.7377  -17.8297 C   0  0  0  0  0  0  0  0  0  0  0  0
   -1.1431    6.9184  -17.2252 N   0  0  0  0  0  0  0  0  0  0  0  0
   -1.2662    5.4918  -17.5354 C   0  0  0  0  0  0  0  0  0  0  0  0
   -2.6254    5.0678  -18.0927 C   0  0  0  0  0  0  0  0  0  0  0  0
   -1.1892    7.0336  -16.2128 H   0  0  0  0  0  0  0  0  0  0  0  0
   -7.0828    6.2413  -13.0168 O   0  0  0  0  0  0  0  0  0  0  0  0
   -7.4745    5.1809  -13.3101 C   0  0  0  0  0  0  0  0  0  0  0  0
   -8.1149    4.0755  -12.4433 N   0  0  0  0  0  0  0  0  0  0  0  0
   -8.4343    3.2911  -12.9454 H   0  0  0  0  0  0  0  0  0  0  0  0
   -8.3145    4.0071  -11.0663 C   0  0  0  0  0  0  0  0  0  0  0  0
   -8.0883    5.1347  -10.2581 C   0  0  0  0  0  0  0  0  0  0  0  0
   -8.2643    5.0741   -8.8733 C   0  0  0  0  0  0  0  0  0  0  0  0
   -8.6662    3.8739   -8.3199 C   0  0  0  0  0  0  0  0  0  0  0  0
   -8.8883    2.7562   -9.1164 C   0  0  0  0  0  0  0  0  0  0  0  0
   -8.7268    2.8036  -10.4930 C   0  0  0  0  0  0  0  0  0  0  0  0
   -9.2399    1.5979   -8.2458 C   0  0  0  0  0  0  0  0  0  0  0  0
   -9.4907    2.1652   -6.8966 N   0  0  0  0  0  0  0  0  0  0  0  0
   -8.9085    3.5224   -6.8918 C   0  0  0  0  0  0  0  0  0  0  0  0
   -9.0435    1.5884   -6.1840 H   0  0  0  0  0  0  0  0  0  0  0  0
   -5.4262    5.5930  -20.3151 N   0  0  0  0  0  0  0  0  0  0  0  0
   -5.5627    4.8872  -20.9877 H   0  0  0  0  0  0  0  0  0  0  0  0
   -4.9116    6.8484  -20.8036 C   0  0  0  0  0  0  0  0  0  0  0  0
   -5.1375    7.0698  -22.3203 C   0  0  0  0  0  0  0  0  0  0  0  0
   -3.8324    6.4223  -22.5873 N   0  0  0  0  0  0  0  0  0  0  0  0
   -3.4240    6.7833  -21.2069 C   0  0  0  0  0  0  0  0  0  0  0  0
   -3.2817    6.8676  -23.3213 H   0  0  0  0  0  0  0  0  0  0  0  0
 19 20  2  0  0  0
 20 21  1  0  0  0
 21 23  1  0  0  0
 23 24  2  0  0  0
 24 25  1  0  0  0
 25 26  2  0  0  0
 26 27  1  0  0  0
 27 28  2  0  0  0
 27 29  1  0  0  0
 29 30  1  0  0  0
 30 31  1  0  0  0
 20  1  1  0  0  0
  1  2  2  0  0  0
  2  3  1  0  0  0
  3  4  1  0  0  0
  3  5  2  0  0  0
  5  6  1  0  0  0
  6  7  1  0  0  0
  7 33  1  0  0  0
 33 35  1  0  0  0
 35 36  1  0  0  0
 36 37  1  0  0  0
 37 38  1  0  0  0
  7  8  2  0  0  0
  8 12  1  0  0  0
 12 13  1  0  0  0
 13 14  1  0  0  0
 14 15  1  0  0  0
 15 16  1  0  0  0
 16 17  1  0  0  0
  8  9  1  0  0  0
  9 10  2  0  0  0
 28 23  1  0  0  0
 10  1  1  0  0  0
 31 26  1  0  0  0
  9  5  1  0  0  0
 38 35  1  0  0  0
 17 12  1  0  0  0
 21 22  1  0  0  0
 30 32  1  0  0  0
  6 11  1  0  0  0
 33 34  1  0  0  0
 37 39  1  0  0  0
 15 18  1  0  0  0
M  END
> <minimizedAffinity>
-10.40683

> <minimizedRMSD>
0.32582

$$$$
P20449


 35 39  0  0  0  0  0  0  0  0999 V2000
   -9.2912    3.0109  -17.6955 C   0  0  0  0  0  0  0  0  0  0  0  0
   -8.4507    4.2507  -17.7750 C   0  0  0  0  0  0  0  0  0  0  0  0
   -7.2748    4.3148  -18.7119 C   0  0  0  0  0  0  0  0  0  0  0  0
   -6.2121    4.9697  -18.1951 C   0  0  0  0  0  0  0  0  0  0  0  0
   -6.5225    5.1602  -16.7635 C   0  0  0  0  0  0  0  0  0  0  0  0
   -5.7523    5.7087  -15.7507 C   0  0  0  0  0  0  0  0  0  0  0  0
   -6.2798    5.7674  -14.4578 C   0  0  0  0  0  0  0  0  0  0  0  0
   -7.5711    5.2797  -14.1808 C   0  0  0  0  0  0  0  0  0  0  0  0
   -8.3606    4.7346  -15.1979 C   0  0  0  0  0  0  0  0  0  0  0  0
   -7.8220    4.6934  -16.4852 C   0  0  0  0  0  0  0  0  0  0  0  0
   -5.1756    5.6100  -19.0089 C   0  0  0  0  0  0  0  0  0  0  0  0
   -3.8450    5.3739  -18.9903 C   0  0  0  0  0  0  0  0  0  0  0  0
   -2.8691    6.2335  -19.7664 C   0  0  0  0  0  0  0  0  0  0  0  0
   -3.3897    7.5495  -20.1351 N   0  0  0  0  0  0  0  0  0  0  0  0
   -4.6595    7.3757  -20.8271 C   0  0  0  0  0  0  0  0  0  0  0  0
   -5.7023    6.6645  -19.9639 C   0  0  0  0  0  0  0  0  0  0  0  0
   -2.7261    8.0206  -20.7500 H   0  0  0  0  0  0  0  0  0  0  0  0
   -3.1757    4.2395  -18.2922 C   0  0  0  0  0  0  0  0  0  0  0  0
   -2.3092    3.5889  -19.2552 N   0  0  0  0  0  0  0  0  0  0  0  0
   -2.8647    3.2611  -20.0454 H   0  0  0  0  0  0  0  0  0  0  0  0
   -1.8451    2.7953  -18.8133 H   0  0  0  0  0  0  0  0  0  0  0  0
   -8.0956    5.5075  -12.8078 C   0  0  0  0  0  0  0  0  0  0  0  0
   -8.4229    6.5950  -12.5316 O   0  0  0  0  0  0  0  0  0  0  0  0
   -8.0371    4.2267  -11.9405 N   0  0  0  0  0  0  0  0  0  0  0  0
   -7.7963    3.4076  -12.4307 H   0  0  0  0  0  0  0  0  0  0  0  0
   -8.2708    4.0436  -10.5720 C   0  0  0  0  0  0  0  0  0  0  0  0
   -8.0340    5.0872   -9.6605 C   0  0  0  0  0  0  0  0  0  0  0  0
   -8.2071    4.9010   -8.2838 C   0  0  0  0  0  0  0  0  0  0  0  0
   -8.6400    3.6669   -7.8381 C   0  0  0  0  0  0  0  0  0  0  0  0
   -8.8927    2.6336   -8.7328 C   0  0  0  0  0  0  0  0  0  0  0  0
   -8.7086    2.8000  -10.1016 C   0  0  0  0  0  0  0  0  0  0  0  0
   -9.3259    1.4254   -7.9687 C   0  0  0  0  0  0  0  0  0  0  0  0
   -9.5427    1.8805   -6.5752 N   0  0  0  0  0  0  0  0  0  0  0  0
   -8.8938    3.1967   -6.4456 C   0  0  0  0  0  0  0  0  0  0  0  0
   -9.1251    1.2183   -5.9215 H   0  0  0  0  0  0  0  0  0  0  0  0
  2  1  1  0  0  0
  2  3  1  0  0  0
  3  4  2  0  0  0
  4 11  1  0  0  0
 11 12  2  0  0  0
 12 18  1  0  0  0
 18 19  1  0  0  0
 12 13  1  0  0  0
 13 14  1  0  0  0
 14 15  1  0  0  0
 15 16  1  0  0  0
  4  5  1  0  0  0
  5  6  2  0  0  0
  6  7  1  0  0  0
  7  8  2  0  0  0
  8 22  1  0  0  0
 22 23  2  0  0  0
 22 24  1  0  0  0
 24 26  1  0  0  0
 26 27  2  0  0  0
 27 28  1  0  0  0
 28 29  2  0  0  0
 29 30  1  0  0  0
 30 31  2  0  0  0
 30 32  1  0  0  0
 32 33  1  0  0  0
 33 34  1  0  0  0
  8  9  1  0  0  0
  9 10  2  0  0  0
 10  2  1  0  0  0
 16 11  1  0  0  0
 10  5  1  0  0  0
 31 26  1  0  0  0
 34 29  1  0  0  0
 19 20  1  0  0  0
 19 21  1  0  0  0
 14 17  1  0  0  0
 24 25  1  0  0  0
 33 35  1  0  0  0
M  END
> <minimizedAffinity>
-9.54683

> <minimizedRMSD>
0.70525

$$$$
P20451


 34 38  0  0  0  0  0  0  0  0999 V2000
   -7.7520    5.1659  -12.6511 C   0  0  0  0  0  0  0  0  0  0  0  0
   -6.5864    5.5920  -11.9779 O   0  0  0  0  0  0  0  0  0  0  0  0
   -6.7933    5.7541  -11.0442 H   0  0  0  0  0  0  0  0  0  0  0  0
   -7.3381    4.9326  -14.1164 C   0  0  0  0  0  0  0  0  0  0  0  0
   -6.0312    5.2353  -14.5240 C   0  0  0  0  0  0  0  0  0  0  0  0
   -5.6414    5.1710  -15.8570 C   0  0  0  0  0  0  0  0  0  0  0  0
   -6.5496    4.7652  -16.8574 C   0  0  0  0  0  0  0  0  0  0  0  0
   -6.3570    4.6118  -18.2809 C   0  0  0  0  0  0  0  0  0  0  0  0
   -7.5197    4.2040  -18.8974 C   0  0  0  0  0  0  0  0  0  0  0  0
   -8.8251    4.0206  -17.8118 S   0  0  0  0  0  0  0  0  0  0  0  0
   -7.8570    4.4664  -16.4598 C   0  0  0  0  0  0  0  0  0  0  0  0
   -8.2639    4.5515  -15.1068 C   0  0  0  0  0  0  0  0  0  0  0  0
   -5.1050    4.8454  -18.9692 C   0  0  0  0  0  0  0  0  0  0  0  0
   -3.8914    4.5382  -18.4734 C   0  0  0  0  0  0  0  0  0  0  0  0
   -2.6070    4.8844  -19.1540 C   0  0  0  0  0  0  0  0  0  0  0  0
   -2.7523    6.0201  -20.0642 N   0  0  0  0  0  0  0  0  0  0  0  0
   -3.8551    5.8078  -20.9939 C   0  0  0  0  0  0  0  0  0  0  0  0
   -5.2035    5.5252  -20.3103 C   0  0  0  0  0  0  0  0  0  0  0  0
   -1.8879    6.1361  -20.5932 H   0  0  0  0  0  0  0  0  0  0  0  0
   -8.2789    7.5556  -12.6305 C   0  0  0  0  0  0  0  0  0  0  0  0
   -8.7807    6.1923  -12.6461 N   0  0  0  0  0  0  0  0  0  0  0  0
   -9.3517    6.0736  -13.4829 H   0  0  0  0  0  0  0  0  0  0  0  0
   -8.0705    3.9255  -11.9871 N   0  0  0  0  0  0  0  0  0  0  0  0
   -8.0926    3.0934  -12.5129 H   0  0  0  0  0  0  0  0  0  0  0  0
   -8.3511    3.8711  -10.6056 C   0  0  0  0  0  0  0  0  0  0  0  0
   -8.0616    4.9122   -9.6859 C   0  0  0  0  0  0  0  0  0  0  0  0
   -8.3021    4.8013   -8.3115 C   0  0  0  0  0  0  0  0  0  0  0  0
   -8.7881    3.6060   -7.8427 C   0  0  0  0  0  0  0  0  0  0  0  0
   -9.0047    2.5442   -8.7122 C   0  0  0  0  0  0  0  0  0  0  0  0
   -8.8023    2.6583  -10.0790 C   0  0  0  0  0  0  0  0  0  0  0  0
   -9.3724    1.3481   -7.9066 C   0  0  0  0  0  0  0  0  0  0  0  0
   -9.8314    1.8933   -6.6055 N   0  0  0  0  0  0  0  0  0  0  0  0
   -9.0991    3.1701   -6.4503 C   0  0  0  0  0  0  0  0  0  0  0  0
   -9.6011    1.2525   -5.8461 H   0  0  0  0  0  0  0  0  0  0  0  0
 20 21  1  0  0  0
 21  1  1  0  0  0
  1  2  1  0  0  0
  1 23  1  0  0  0
 23 25  1  0  0  0
 25 26  2  0  0  0
 26 27  1  0  0  0
 27 28  2  0  0  0
 28 29  1  0  0  0
 29 30  2  0  0  0
 29 31  1  0  0  0
 31 32  1  0  0  0
 32 33  1  0  0  0
  1  4  1  0  0  0
  4  5  2  0  0  0
  5  6  1  0  0  0
  6  7  2  0  0  0
  7  8  1  0  0  0
  8 13  1  0  0  0
 13 14  2  0  0  0
 14 15  1  0  0  0
 15 16  1  0  0  0
 16 17  1  0  0  0
 17 18  1  0  0  0
  8  9  2  0  0  0
  9 10  1  0  0  0
 10 11  1  0  0  0
 11 12  2  0  0  0
 30 25  1  0  0  0
 12  4  1  0  0  0
 33 28  1  0  0  0
 11  7  1  0  0  0
 18 13  1  0  0  0
 21 22  1  0  0  0
  2  3  1  0  0  0
 23 24  1  0  0  0
 32 34  1  0  0  0
 16 19  1  0  0  0
M  END
> <minimizedAffinity>
-9.38425

> <minimizedRMSD>
0.38693

$$$$
P20466


 34 38  0  0  0  0  0  0  0  0999 V2000
   -3.8778    5.7248  -16.2450 C   0  0  0  0  0  0  0  0  0  0  0  0
   -5.2216    5.2431  -15.7601 C   0  0  0  0  0  0  0  0  0  0  0  0
   -5.3871    5.0894  -14.3693 C   0  0  0  0  0  0  0  0  0  0  0  0
   -6.5915    4.6701  -13.8071 C   0  0  0  0  0  0  0  0  0  0  0  0
   -7.6700    4.3588  -14.6291 C   0  0  0  0  0  0  0  0  0  0  0  0
   -7.5119    4.4825  -16.0184 C   0  0  0  0  0  0  0  0  0  0  0  0
   -8.7366    4.1280  -17.1755 S   0  0  0  0  0  0  0  0  0  0  0  0
   -7.7034    4.4977  -18.4675 C   0  0  0  0  0  0  0  0  0  0  0  0
   -6.4588    4.9205  -18.0537 C   0  0  0  0  0  0  0  0  0  0  0  0
   -6.3169    4.9093  -16.6140 C   0  0  0  0  0  0  0  0  0  0  0  0
   -5.4423    5.2698  -19.0010 C   0  0  0  0  0  0  0  0  0  0  0  0
   -4.4103    4.4777  -19.3326 C   0  0  0  0  0  0  0  0  0  0  0  0
   -3.3843    4.8208  -20.3599 C   0  0  0  0  0  0  0  0  0  0  0  0
   -3.4816    6.1676  -20.9343 N   0  0  0  0  0  0  0  0  0  0  0  0
   -4.8722    6.6362  -21.0116 C   0  0  0  0  0  0  0  0  0  0  0  0
   -5.5751    6.6142  -19.6508 C   0  0  0  0  0  0  0  0  0  0  0  0
   -3.0865    6.1535  -21.8745 H   0  0  0  0  0  0  0  0  0  0  0  0
   -6.6792    4.6224  -12.3275 C   0  0  0  0  0  0  0  0  0  0  0  0
   -5.6783    4.4330  -11.6438 O   0  0  0  0  0  0  0  0  0  0  0  0
   -7.9651    4.9714  -11.6261 C   0  0  0  0  0  0  0  0  0  0  0  0
   -8.7358    5.7671  -12.1511 O   0  0  0  0  0  0  0  0  0  0  0  0
   -8.1599    4.4977  -10.2483 C   0  0  0  0  0  0  0  0  0  0  0  0
   -7.9473    5.4326   -9.2157 C   0  0  0  0  0  0  0  0  0  0  0  0
   -8.1608    5.0721   -7.8877 C   0  0  0  0  0  0  0  0  0  0  0  0
   -8.6489    3.8039   -7.6360 C   0  0  0  0  0  0  0  0  0  0  0  0
   -8.8569    2.8793   -8.6657 C   0  0  0  0  0  0  0  0  0  0  0  0
   -8.5442    3.1761   -9.9875 C   0  0  0  0  0  0  0  0  0  0  0  0
   -8.7852    2.2649  -11.0273 N   0  0  0  0  0  0  0  0  0  0  0  0
   -9.4245    1.6341   -8.0600 C   0  0  0  0  0  0  0  0  0  0  0  0
   -9.8657    2.0187   -6.6949 N   0  0  0  0  0  0  0  0  0  0  0  0
   -9.0412    3.1879   -6.3330 C   0  0  0  0  0  0  0  0  0  0  0  0
   -9.0543    1.3410  -10.8196 H   0  0  0  0  0  0  0  0  0  0  0  0
   -8.6851    2.5496  -11.9644 H   0  0  0  0  0  0  0  0  0  0  0  0
   -9.7072    1.2533   -6.0395 H   0  0  0  0  0  0  0  0  0  0  0  0
  1  2  1  0  0  0
  2  3  2  0  0  0
  3  4  1  0  0  0
  4 18  1  0  0  0
 18 19  2  0  0  0
 18 20  1  0  0  0
 20 21  2  0  0  0
 20 22  1  0  0  0
 22 23  2  0  0  0
 23 24  1  0  0  0
 24 25  2  0  0  0
 25 26  1  0  0  0
 26 27  2  0  0  0
 27 28  1  0  0  0
 26 29  1  0  0  0
 29 30  1  0  0  0
 30 31  1  0  0  0
  4  5  2  0  0  0
  5  6  1  0  0  0
  6  7  1  0  0  0
  7  8  1  0  0  0
  8  9  2  0  0  0
  9 11  1  0  0  0
 11 12  2  0  0  0
 12 13  1  0  0  0
 13 14  1  0  0  0
 14 15  1  0  0  0
 15 16  1  0  0  0
  9 10  1  0  0  0
 10  2  1  0  0  0
 27 22  1  0  0  0
 10  6  2  0  0  0
 31 25  1  0  0  0
 16 11  1  0  0  0
 28 32  1  0  0  0
 28 33  1  0  0  0
 30 34  1  0  0  0
 14 17  1  0  0  0
M  END
> <minimizedAffinity>
-10.19338

> <minimizedRMSD>
0.52873

$$$$
P20470


 43 48  0  0  0  0  0  0  0  0999 V2000
   -4.9581    5.4701  -15.7545 C   0  0  0  0  0  0  0  0  0  0  0  0
   -5.1045    5.3785  -14.3627 C   0  0  0  0  0  0  0  0  0  0  0  0
   -6.3367    5.0854  -13.7968 C   0  0  0  0  0  0  0  0  0  0  0  0
   -7.4314    4.8379  -14.6268 C   0  0  0  0  0  0  0  0  0  0  0  0
   -9.0163    4.8082  -13.9718 Cl  0  0  0  0  0  0  0  0  0  0  0  0
   -7.2437    4.7311  -16.0274 C   0  0  0  0  0  0  0  0  0  0  0  0
   -8.4344    4.2957  -17.2081 S   0  0  0  0  0  0  0  0  0  0  0  0
   -7.3271    4.4203  -18.4825 C   0  0  0  0  0  0  0  0  0  0  0  0
   -6.0668    4.7876  -18.0635 C   0  0  0  0  0  0  0  0  0  0  0  0
   -6.0051    5.0335  -16.6276 C   0  0  0  0  0  0  0  0  0  0  0  0
   -4.9665    4.8145  -18.9896 C   0  0  0  0  0  0  0  0  0  0  0  0
   -3.7662    4.2664  -18.7426 C   0  0  0  0  0  0  0  0  0  0  0  0
   -2.6277    4.2777  -19.7065 C   0  0  0  0  0  0  0  0  0  0  0  0
   -2.8991    4.8095  -21.0520 N   0  0  0  0  0  0  0  0  0  0  0  0
   -3.8909    5.8981  -20.9929 C   0  0  0  0  0  0  0  0  0  0  0  0
   -5.2067    5.5076  -20.3047 C   0  0  0  0  0  0  0  0  0  0  0  0
   -3.2600    4.0596  -21.6416 H   0  0  0  0  0  0  0  0  0  0  0  0
   -4.3494    8.1525  -17.3898 O   0  0  0  0  0  0  0  0  0  0  0  0
   -3.5756    7.4211  -16.9212 C   0  0  0  0  0  0  0  0  0  0  0  0
   -3.7835    6.1049  -16.1665 N   0  0  0  0  0  0  0  0  0  0  0  0
   -2.9542    5.6282  -15.9335 H   0  0  0  0  0  0  0  0  0  0  0  0
   -2.2271    7.6087  -16.9226 O   0  0  0  0  0  0  0  0  0  0  0  0
   -1.7327    8.7524  -17.6370 C   0  0  0  0  0  0  0  0  0  0  0  0
   -1.3967    8.3961  -19.0648 C   0  0  0  0  0  0  0  0  0  0  0  0
   -1.9880    9.0968  -20.1261 C   0  0  0  0  0  0  0  0  0  0  0  0
   -1.6768    8.7785  -21.4498 C   0  0  0  0  0  0  0  0  0  0  0  0
   -0.7635    7.7638  -21.7277 C   0  0  0  0  0  0  0  0  0  0  0  0
   -0.1539    7.0735  -20.6828 C   0  0  0  0  0  0  0  0  0  0  0  0
   -0.4606    7.3941  -19.3588 C   0  0  0  0  0  0  0  0  0  0  0  0
   -6.4631    5.2656  -12.3178 C   0  0  0  0  0  0  0  0  0  0  0  0
   -5.9221    6.1854  -11.8400 O   0  0  0  0  0  0  0  0  0  0  0  0
   -7.3430    4.1689  -11.6673 N   0  0  0  0  0  0  0  0  0  0  0  0
   -7.6242    3.4499  -12.2782 H   0  0  0  0  0  0  0  0  0  0  0  0
   -7.8017    4.0344  -10.3571 C   0  0  0  0  0  0  0  0  0  0  0  0
   -7.7607    5.1100   -9.4559 C   0  0  0  0  0  0  0  0  0  0  0  0
   -8.2222    4.9656   -8.1427 C   0  0  0  0  0  0  0  0  0  0  0  0
   -8.7174    3.7357   -7.7554 C   0  0  0  0  0  0  0  0  0  0  0  0
   -8.7648    2.6696   -8.6480 C   0  0  0  0  0  0  0  0  0  0  0  0
   -8.3226    2.8002   -9.9545 C   0  0  0  0  0  0  0  0  0  0  0  0
   -9.2878    1.4678   -7.9358 C   0  0  0  0  0  0  0  0  0  0  0  0
   -9.8994    1.9895   -6.6873 N   0  0  0  0  0  0  0  0  0  0  0  0
   -9.2254    3.2813   -6.4275 C   0  0  0  0  0  0  0  0  0  0  0  0
   -9.7402    1.3425   -5.9149 H   0  0  0  0  0  0  0  0  0  0  0  0
 18 19  2  0  0  0
 19 20  1  0  0  0
 20  1  1  0  0  0
  1  2  2  0  0  0
  2  3  1  0  0  0
  3 30  1  0  0  0
 30 31  2  0  0  0
 30 32  1  0  0  0
 32 34  1  0  0  0
 34 35  2  0  0  0
 35 36  1  0  0  0
 36 37  2  0  0  0
 37 38  1  0  0  0
 38 39  2  0  0  0
 38 40  1  0  0  0
 40 41  1  0  0  0
 41 42  1  0  0  0
  3  4  2  0  0  0
  4  5  1  0  0  0
  4  6  1  0  0  0
  6  7  1  0  0  0
  7  8  1  0  0  0
  8  9  2  0  0  0
  9 11  1  0  0  0
 11 12  2  0  0  0
 12 13  1  0  0  0
 13 14  1  0  0  0
 14 15  1  0  0  0
 15 16  1  0  0  0
  9 10  1  0  0  0
 19 22  1  0  0  0
 22 23  1  0  0  0
 23 24  1  0  0  0
 24 25  2  0  0  0
 25 26  1  0  0  0
 26 27  2  0  0  0
 27 28  1  0  0  0
 28 29  2  0  0  0
 10  1  1  0  0  0
 29 24  1  0  0  0
 39 34  1  0  0  0
 10  6  2  0  0  0
 42 37  1  0  0  0
 16 11  1  0  0  0
 20 21  1  0  0  0
 32 33  1  0  0  0
 41 43  1  0  0  0
 14 17  1  0  0  0
M  END
> <minimizedAffinity>
-8.34006

> <minimizedRMSD>
0.67709

$$$$
P20516


 35 39  0  0  0  0  0  0  0  0999 V2000
   -6.9385    4.5721  -14.5896 C   0  0  0  0  0  0  0  0  0  0  0  0
   -8.1931    4.3888  -15.1994 C   0  0  0  0  0  0  0  0  0  0  0  0
   -8.3066    4.5271  -16.5810 C   0  0  0  0  0  0  0  0  0  0  0  0
   -9.5317    4.4816  -17.1825 O   0  0  0  0  0  0  0  0  0  0  0  0
   -7.1685    4.8216  -17.3272 C   0  0  0  0  0  0  0  0  0  0  0  0
   -5.9171    4.8630  -16.7208 C   0  0  0  0  0  0  0  0  0  0  0  0
   -5.7805    4.7633  -15.3506 C   0  0  0  0  0  0  0  0  0  0  0  0
   -4.8668    5.1525  -17.7463 C   0  0  0  0  0  0  0  0  0  0  0  0
   -5.7247    5.4704  -19.0145 C   0  0  0  0  0  0  0  0  0  0  0  0
   -5.5632    4.4737  -20.0194 O   0  0  0  0  0  0  0  0  0  0  0  0
   -7.1136    5.3901  -18.6025 N   0  0  0  0  0  0  0  0  0  0  0  0
  -10.2950    4.2831  -16.6766 H   0  0  0  0  0  0  0  0  0  0  0  0
   -4.6464    4.4795  -20.3363 H   0  0  0  0  0  0  0  0  0  0  0  0
   -7.8881    5.6867  -19.1330 H   0  0  0  0  0  0  0  0  0  0  0  0
   -5.3339    6.8259  -19.5978 C   0  0  0  0  0  0  0  0  0  0  0  0
   -4.9286    6.9801  -20.9387 C   0  0  0  0  0  0  0  0  0  0  0  0
   -4.5716    8.2361  -21.4154 C   0  0  0  0  0  0  0  0  0  0  0  0
   -4.5726    9.3542  -20.6616 N   0  0  0  0  0  0  0  0  0  0  0  0
   -4.9566    9.1977  -19.3762 C   0  0  0  0  0  0  0  0  0  0  0  0
   -5.3525    7.9880  -18.8228 C   0  0  0  0  0  0  0  0  0  0  0  0
   -5.7325    7.9719  -17.5393 F   0  0  0  0  0  0  0  0  0  0  0  0
   -6.0688    5.6118  -12.7682 O   0  0  0  0  0  0  0  0  0  0  0  0
   -6.8553    4.8290  -13.1312 C   0  0  0  0  0  0  0  0  0  0  0  0
   -7.9330    4.0552  -12.3441 N   0  0  0  0  0  0  0  0  0  0  0  0
   -8.5303    3.5021  -12.8979 H   0  0  0  0  0  0  0  0  0  0  0  0
   -8.1981    4.0116  -10.9796 C   0  0  0  0  0  0  0  0  0  0  0  0
   -8.0624    5.1708  -10.1969 C   0  0  0  0  0  0  0  0  0  0  0  0
   -8.3262    5.1465   -8.8262 C   0  0  0  0  0  0  0  0  0  0  0  0
   -8.7030    3.9453   -8.2599 C   0  0  0  0  0  0  0  0  0  0  0  0
   -8.8392    2.7979   -9.0330 C   0  0  0  0  0  0  0  0  0  0  0  0
   -8.6067    2.8121  -10.3985 C   0  0  0  0  0  0  0  0  0  0  0  0
   -9.2700    1.6687   -8.1635 C   0  0  0  0  0  0  0  0  0  0  0  0
   -9.1534    2.1591   -6.7632 N   0  0  0  0  0  0  0  0  0  0  0  0
   -9.0443    3.6323   -6.8452 C   0  0  0  0  0  0  0  0  0  0  0  0
   -8.3220    1.7678   -6.3203 H   0  0  0  0  0  0  0  0  0  0  0  0
 22 23  2  0  0  0
 23 24  1  0  0  0
 24 26  1  0  0  0
 26 27  2  0  0  0
 27 28  1  0  0  0
 28 29  2  0  0  0
 29 30  1  0  0  0
 30 31  2  0  0  0
 30 32  1  0  0  0
 32 33  1  0  0  0
 33 34  1  0  0  0
 23  1  1  0  0  0
  1  2  2  0  0  0
  2  3  1  0  0  0
  3  4  1  0  0  0
  3  5  2  0  0  0
  5  6  1  0  0  0
  6  7  2  0  0  0
  6  8  1  0  0  0
  8  9  1  0  0  0
  9 10  1  0  0  0
  9 15  1  0  0  0
 15 16  2  0  0  0
 16 17  1  0  0  0
 17 18  2  0  0  0
 18 19  1  0  0  0
 19 20  2  0  0  0
 20 21  1  0  0  0
  9 11  1  0  0  0
 31 26  1  0  0  0
  7  1  1  0  0  0
 20 15  1  0  0  0
 34 29  1  0  0  0
 11  5  1  0  0  0
 24 25  1  0  0  0
 33 35  1  0  0  0
  4 12  1  0  0  0
 10 13  1  0  0  0
 11 14  1  0  0  0
M  END
> <minimizedAffinity>
-9.12311

> <minimizedRMSD>
0.60829

$$$$
P20520


 34 38  0  0  0  0  0  0  0  0999 V2000
   -9.8336    3.5511  -17.8813 C   0  0  0  0  0  0  0  0  0  0  0  0
   -8.5561    3.9873  -17.2606 C   0  0  0  0  0  0  0  0  0  0  0  0
   -8.3889    4.1469  -15.8815 C   0  0  0  0  0  0  0  0  0  0  0  0
   -7.1728    4.6294  -15.3347 C   0  0  0  0  0  0  0  0  0  0  0  0
   -6.1368    5.0193  -16.2188 C   0  0  0  0  0  0  0  0  0  0  0  0
   -6.3030    4.8460  -17.5849 C   0  0  0  0  0  0  0  0  0  0  0  0
   -7.4754    4.2780  -18.0642 C   0  0  0  0  0  0  0  0  0  0  0  0
   -7.3809    4.0540  -19.4248 N   0  0  0  0  0  0  0  0  0  0  0  0
   -6.1514    4.4547  -19.9186 C   0  0  0  0  0  0  0  0  0  0  0  0
   -5.7778    4.2661  -21.0670 O   0  0  0  0  0  0  0  0  0  0  0  0
   -5.4196    5.2149  -18.7678 C   0  0  0  0  0  0  0  0  0  0  0  0
   -5.5194    6.7327  -19.0286 C   0  0  0  0  0  0  0  0  0  0  0  0
   -4.5571    7.1875  -20.1270 C   0  0  0  0  0  0  0  0  0  0  0  0
   -3.1331    6.7082  -19.8689 C   0  0  0  0  0  0  0  0  0  0  0  0
   -3.0715    5.2612  -19.6976 N   0  0  0  0  0  0  0  0  0  0  0  0
   -3.9512    4.8183  -18.6114 C   0  0  0  0  0  0  0  0  0  0  0  0
   -8.0971    3.6596  -19.9732 H   0  0  0  0  0  0  0  0  0  0  0  0
   -2.1121    4.9924  -19.4794 H   0  0  0  0  0  0  0  0  0  0  0  0
   -7.0290    4.8397  -13.8300 C   0  0  0  0  0  0  0  0  0  0  0  0
   -5.8129    4.2848  -13.3843 O   0  0  0  0  0  0  0  0  0  0  0  0
   -6.9695    6.1653  -13.5496 F   0  0  0  0  0  0  0  0  0  0  0  0
   -5.0763    4.6891  -13.8688 H   0  0  0  0  0  0  0  0  0  0  0  0
   -8.1003    4.2157  -13.0888 N   0  0  0  0  0  0  0  0  0  0  0  0
   -8.7961    3.7393  -13.5969 H   0  0  0  0  0  0  0  0  0  0  0  0
   -8.2115    4.2457  -11.6946 C   0  0  0  0  0  0  0  0  0  0  0  0
   -8.1638    5.4263  -10.9242 C   0  0  0  0  0  0  0  0  0  0  0  0
   -8.2980    5.4114   -9.5276 C   0  0  0  0  0  0  0  0  0  0  0  0
   -8.5387    4.2046   -8.9052 C   0  0  0  0  0  0  0  0  0  0  0  0
   -8.6515    3.0378   -9.6458 C   0  0  0  0  0  0  0  0  0  0  0  0
   -8.4949    3.0433  -11.0243 C   0  0  0  0  0  0  0  0  0  0  0  0
   -8.9415    1.8984   -8.7248 C   0  0  0  0  0  0  0  0  0  0  0  0
   -9.3138    2.5286   -7.4274 N   0  0  0  0  0  0  0  0  0  0  0  0
   -8.7218    3.8839   -7.4610 C   0  0  0  0  0  0  0  0  0  0  0  0
   -8.9322    1.9923   -6.6483 H   0  0  0  0  0  0  0  0  0  0  0  0
  1  2  1  0  0  0
  2  3  2  0  0  0
  3  4  1  0  0  0
  4 19  1  0  0  0
 19 20  1  0  0  0
 19 21  1  0  0  0
 19 23  1  0  0  0
 23 25  1  0  0  0
 25 26  2  0  0  0
 26 27  1  0  0  0
 27 28  2  0  0  0
 28 29  1  0  0  0
 29 30  2  0  0  0
 29 31  1  0  0  0
 31 32  1  0  0  0
 32 33  1  0  0  0
  4  5  2  0  0  0
  5  6  1  0  0  0
  6  7  2  0  0  0
  7  8  1  0  0  0
  8  9  1  0  0  0
  9 10  2  0  0  0
  9 11  1  0  0  0
 11 12  1  0  0  0
 12 13  1  0  0  0
 13 14  1  0  0  0
 14 15  1  0  0  0
 15 16  1  0  0  0
  7  2  1  0  0  0
 16 11  1  0  0  0
 30 25  1  0  0  0
 11  6  1  0  0  0
 33 28  1  0  0  0
 20 22  1  0  0  0
 23 24  1  0  0  0
 32 34  1  0  0  0
  8 17  1  0  0  0
 15 18  1  0  0  0
M  END
> <minimizedAffinity>
-9.67349

> <minimizedRMSD>
0.22489

$$$$
P20521


 32 36  0  0  0  0  0  0  0  0999 V2000
   -9.3699    3.6617  -17.7025 C   0  0  0  0  0  0  0  0  0  0  0  0
   -8.1439    4.1303  -17.0027 C   0  0  0  0  0  0  0  0  0  0  0  0
   -8.0738    4.2863  -15.6130 C   0  0  0  0  0  0  0  0  0  0  0  0
   -6.9285    4.8464  -15.0137 C   0  0  0  0  0  0  0  0  0  0  0  0
   -5.8228    5.2224  -15.7813 C   0  0  0  0  0  0  0  0  0  0  0  0
   -5.8832    5.0195  -17.1459 C   0  0  0  0  0  0  0  0  0  0  0  0
   -7.0198    4.4693  -17.7277 C   0  0  0  0  0  0  0  0  0  0  0  0
   -6.8442    4.3523  -19.0931 N   0  0  0  0  0  0  0  0  0  0  0  0
   -5.5915    4.7904  -19.4864 C   0  0  0  0  0  0  0  0  0  0  0  0
   -5.1819    4.7493  -20.6358 O   0  0  0  0  0  0  0  0  0  0  0  0
   -4.8815    5.3816  -18.2179 C   0  0  0  0  0  0  0  0  0  0  0  0
   -3.4829    4.8021  -17.9462 C   0  0  0  0  0  0  0  0  0  0  0  0
   -2.4718    5.8684  -17.5414 C   0  0  0  0  0  0  0  0  0  0  0  0
   -2.3363    6.9191  -18.5403 N   0  0  0  0  0  0  0  0  0  0  0  0
   -3.5965    7.3010  -19.1771 C   0  0  0  0  0  0  0  0  0  0  0  0
   -4.8341    6.9081  -18.3786 C   0  0  0  0  0  0  0  0  0  0  0  0
   -7.5260    4.0007  -19.7101 H   0  0  0  0  0  0  0  0  0  0  0  0
   -1.6971    6.5923  -19.2648 H   0  0  0  0  0  0  0  0  0  0  0  0
   -6.9113    5.1993  -13.5732 C   0  0  0  0  0  0  0  0  0  0  0  0
   -6.1854    6.0444  -13.2241 O   0  0  0  0  0  0  0  0  0  0  0  0
   -7.9065    4.3382  -12.7663 N   0  0  0  0  0  0  0  0  0  0  0  0
   -8.4665    3.7377  -13.3094 H   0  0  0  0  0  0  0  0  0  0  0  0
   -8.1408    4.2725  -11.3959 C   0  0  0  0  0  0  0  0  0  0  0  0
   -8.0484    5.4225  -10.5962 C   0  0  0  0  0  0  0  0  0  0  0  0
   -8.2848    5.3588   -9.2207 C   0  0  0  0  0  0  0  0  0  0  0  0
   -8.6118    4.1341   -8.6702 C   0  0  0  0  0  0  0  0  0  0  0  0
   -8.7059    2.9958   -9.4600 C   0  0  0  0  0  0  0  0  0  0  0  0
   -8.4731    3.0427  -10.8251 C   0  0  0  0  0  0  0  0  0  0  0  0
   -9.1007    1.8352   -8.6154 C   0  0  0  0  0  0  0  0  0  0  0  0
   -9.1072    2.3223   -7.2086 N   0  0  0  0  0  0  0  0  0  0  0  0
   -8.9462    3.7918   -7.2610 C   0  0  0  0  0  0  0  0  0  0  0  0
   -8.3359    1.9034   -6.6890 H   0  0  0  0  0  0  0  0  0  0  0  0
  1  2  1  0  0  0
  2  3  2  0  0  0
  3  4  1  0  0  0
  4 19  1  0  0  0
 19 20  2  0  0  0
 19 21  1  0  0  0
 21 23  1  0  0  0
 23 24  2  0  0  0
 24 25  1  0  0  0
 25 26  2  0  0  0
 26 27  1  0  0  0
 27 28  2  0  0  0
 27 29  1  0  0  0
 29 30  1  0  0  0
 30 31  1  0  0  0
  4  5  2  0  0  0
  5  6  1  0  0  0
  6  7  2  0  0  0
  7  8  1  0  0  0
  8  9  1  0  0  0
  9 10  2  0  0  0
  9 11  1  0  0  0
 11 12  1  0  0  0
 12 13  1  0  0  0
 13 14  1  0  0  0
 14 15  1  0  0  0
 15 16  1  0  0  0
  7  2  1  0  0  0
 16 11  1  0  0  0
 28 23  1  0  0  0
 11  6  1  0  0  0
 31 26  1  0  0  0
 21 22  1  0  0  0
 30 32  1  0  0  0
  8 17  1  0  0  0
 14 18  1  0  0  0
M  END
> <minimizedAffinity>
-9.88392

> <minimizedRMSD>
0.40935

$$$$
P20524


 37 41  0  0  0  0  0  0  0  0999 V2000
   -3.1938    6.0827  -18.9193 C   0  0  0  0  0  0  0  0  0  0  0  0
   -3.6322    6.5818  -20.2887 C   0  0  0  0  0  0  0  0  0  0  0  0
   -5.0511    7.1360  -20.2463 C   0  0  0  0  0  0  0  0  0  0  0  0
   -5.8368    6.6782  -19.0164 C   0  0  0  0  0  0  0  0  0  0  0  0
   -5.5833    5.1974  -18.6379 C   0  0  0  0  0  0  0  0  0  0  0  0
   -4.0756    4.9043  -18.4875 C   0  0  0  0  0  0  0  0  0  0  0  0
   -6.3345    4.3365  -19.7124 C   0  0  0  0  0  0  0  0  0  0  0  0
   -5.9401    4.0157  -20.8239 O   0  0  0  0  0  0  0  0  0  0  0  0
   -7.5935    4.0525  -19.1874 N   0  0  0  0  0  0  0  0  0  0  0  0
   -7.6471    4.3424  -17.8325 C   0  0  0  0  0  0  0  0  0  0  0  0
   -8.6855    4.0892  -16.9612 C   0  0  0  0  0  0  0  0  0  0  0  0
   -9.8996    3.6958  -17.4299 O   0  0  0  0  0  0  0  0  0  0  0  0
   -8.4386    4.2279  -15.6009 C   0  0  0  0  0  0  0  0  0  0  0  0
   -7.1626    4.6452  -15.1530 C   0  0  0  0  0  0  0  0  0  0  0  0
   -6.1621    5.0244  -16.0588 C   0  0  0  0  0  0  0  0  0  0  0  0
   -6.4288    4.8851  -17.4126 C   0  0  0  0  0  0  0  0  0  0  0  0
   -8.3464    3.6931  -19.7100 H   0  0  0  0  0  0  0  0  0  0  0  0
  -10.0403    3.6099  -18.3522 H   0  0  0  0  0  0  0  0  0  0  0  0
    0.6070    5.5360  -18.4021 C   0  0  0  0  0  0  0  0  0  0  0  0
   -0.7467    5.7720  -17.7769 C   0  0  0  0  0  0  0  0  0  0  0  0
   -0.8947    5.9100  -16.6278 O   0  0  0  0  0  0  0  0  0  0  0  0
   -1.7800    5.7931  -18.9322 N   0  0  0  0  0  0  0  0  0  0  0  0
   -1.4122    5.5732  -19.8185 H   0  0  0  0  0  0  0  0  0  0  0  0
   -6.8099    4.3878  -13.7294 C   0  0  0  0  0  0  0  0  0  0  0  0
   -5.8412    3.7802  -13.5102 O   0  0  0  0  0  0  0  0  0  0  0  0
   -7.8939    4.9150  -12.7737 N   0  0  0  0  0  0  0  0  0  0  0  0
   -8.5830    5.4739  -13.2004 H   0  0  0  0  0  0  0  0  0  0  0  0
   -8.0582    4.7316  -11.4111 C   0  0  0  0  0  0  0  0  0  0  0  0
   -8.0784    5.8305  -10.5491 C   0  0  0  0  0  0  0  0  0  0  0  0
   -8.2565    5.6346   -9.1762 C   0  0  0  0  0  0  0  0  0  0  0  0
   -8.5299    4.3548   -8.7179 C   0  0  0  0  0  0  0  0  0  0  0  0
   -8.5949    3.2811   -9.5933 C   0  0  0  0  0  0  0  0  0  0  0  0
   -8.2950    3.4371  -10.9347 C   0  0  0  0  0  0  0  0  0  0  0  0
   -9.0822    2.0715   -8.8729 C   0  0  0  0  0  0  0  0  0  0  0  0
   -9.1608    2.4477   -7.4336 N   0  0  0  0  0  0  0  0  0  0  0  0
   -8.8303    3.8851   -7.3364 C   0  0  0  0  0  0  0  0  0  0  0  0
   -8.4930    1.8986   -6.8924 H   0  0  0  0  0  0  0  0  0  0  0  0
 19 20  1  0  0  0
 20 21  2  0  0  0
 20 22  1  0  0  0
  1 22  1  0  0  0
  1  2  1  0  0  0
  2  3  1  0  0  0
  3  4  1  0  0  0
  5  4  1  0  0  0
  5  6  1  0  0  0
  5  7  1  0  0  0
  7  8  2  0  0  0
  7  9  1  0  0  0
  9 10  1  0  0  0
 10 11  2  0  0  0
 11 12  1  0  0  0
 11 13  1  0  0  0
 13 14  2  0  0  0
 14 24  1  0  0  0
 24 25  2  0  0  0
 24 26  1  0  0  0
 26 28  1  0  0  0
 28 29  2  0  0  0
 29 30  1  0  0  0
 30 31  2  0  0  0
 31 32  1  0  0  0
 32 33  2  0  0  0
 32 34  1  0  0  0
 34 35  1  0  0  0
 35 36  1  0  0  0
 14 15  1  0  0  0
 15 16  2  0  0  0
  6  1  1  0  0  0
 16 10  1  0  0  0
 16  5  1  0  0  0
 33 28  1  0  0  0
 36 31  1  0  0  0
 22 23  1  0  0  0
  9 17  1  0  0  0
 12 18  1  0  0  0
 26 27  1  0  0  0
 35 37  1  0  0  0
M  END
> <minimizedAffinity>
-10.43919

> <minimizedRMSD>
0.41613

$$$$
P20525


 30 33  0  0  0  0  0  0  0  0999 V2000
   -7.8866    4.0338  -13.0402 N   0  0  0  0  0  0  0  0  0  0  0  0
   -7.3645    5.1393  -13.9977 C   0  0  0  0  0  0  0  0  0  0  0  0
   -6.9623    6.2120  -13.7679 O   0  0  0  0  0  0  0  0  0  0  0  0
   -8.1005    3.1777  -13.4767 H   0  0  0  0  0  0  0  0  0  0  0  0
   -8.2284    6.5384   -8.7567 C   0  0  0  0  0  0  0  0  0  0  0  0
   -8.3014    5.2633   -9.5374 C   0  0  0  0  0  0  0  0  0  0  0  0
   -8.0340    5.2465  -10.9195 C   0  0  0  0  0  0  0  0  0  0  0  0
   -8.1021    4.0567  -11.6591 C   0  0  0  0  0  0  0  0  0  0  0  0
   -8.4465    2.8599  -11.0188 C   0  0  0  0  0  0  0  0  0  0  0  0
   -8.6902    2.8776   -9.6527 C   0  0  0  0  0  0  0  0  0  0  0  0
   -8.6105    4.0560   -8.9214 C   0  0  0  0  0  0  0  0  0  0  0  0
   -8.9203    3.7659   -7.4904 C   0  0  0  0  0  0  0  0  0  0  0  0
   -9.0386    2.2970   -7.3669 N   0  0  0  0  0  0  0  0  0  0  0  0
   -9.0854    1.7561   -8.7521 C   0  0  0  0  0  0  0  0  0  0  0  0
   -9.8926    2.0538   -6.8651 H   0  0  0  0  0  0  0  0  0  0  0  0
   -7.5190    4.7357  -15.4310 C   0  0  0  0  0  0  0  0  0  0  0  0
   -8.8223    4.3350  -15.8379 C   0  0  0  0  0  0  0  0  0  0  0  0
   -9.1098    4.0147  -17.1634 C   0  0  0  0  0  0  0  0  0  0  0  0
   -8.0741    4.0990  -18.0558 C   0  0  0  0  0  0  0  0  0  0  0  0
   -6.7993    4.5301  -17.6920 C   0  0  0  0  0  0  0  0  0  0  0  0
   -6.4804    4.8693  -16.3775 C   0  0  0  0  0  0  0  0  0  0  0  0
   -5.9307    4.5386  -18.9189 C   0  0  0  0  0  0  0  0  0  0  0  0
   -6.8411    3.9253  -19.9667 C   0  0  0  0  0  0  0  0  0  0  0  0
   -6.5253    3.6247  -21.1060 O   0  0  0  0  0  0  0  0  0  0  0  0
   -8.0898    3.7581  -19.3932 N   0  0  0  0  0  0  0  0  0  0  0  0
   -8.8855    3.4377  -19.8763 H   0  0  0  0  0  0  0  0  0  0  0  0
   -5.0890    5.3464  -16.0575 C   0  0  0  0  0  0  0  0  0  0  0  0
   -4.9930    6.6968  -15.9310 F   0  0  0  0  0  0  0  0  0  0  0  0
   -4.1825    5.0387  -17.0412 F   0  0  0  0  0  0  0  0  0  0  0  0
   -4.5635    4.7960  -14.9323 F   0  0  0  0  0  0  0  0  0  0  0  0
  5  6  1  0  0  0
  6  7  2  0  0  0
  7  8  1  0  0  0
  8  1  1  0  0  0
  1  2  1  0  0  0
  2  3  2  0  0  0
  2 16  1  0  0  0
 16 17  2  0  0  0
 17 18  1  0  0  0
 18 19  2  0  0  0
 19 20  1  0  0  0
 20 21  2  0  0  0
 21 27  1  0  0  0
 27 28  1  0  0  0
 27 29  1  0  0  0
 27 30  1  0  0  0
 20 22  1  0  0  0
 22 23  1  0  0  0
 23 24  2  0  0  0
 23 25  1  0  0  0
  8  9  2  0  0  0
  9 10  1  0  0  0
 10 11  2  0  0  0
 11 12  1  0  0  0
 12 13  1  0  0  0
 13 14  1  0  0  0
 11  6  1  0  0  0
 21 16  1  0  0  0
 14 10  1  0  0  0
 25 19  1  0  0  0
  1  4  1  0  0  0
 25 26  1  0  0  0
 13 15  1  0  0  0
M  END
> <minimizedAffinity>
-9.07389

> <minimizedRMSD>
0.41424

$$$$
P20532


 35 38  0  0  0  0  0  0  0  0999 V2000
   -7.2462    4.9729  -14.9821 C   0  0  0  0  0  0  0  0  0  0  0  0
   -8.3444    4.4070  -15.6410 C   0  0  0  0  0  0  0  0  0  0  0  0
   -8.2746    4.1596  -17.0153 C   0  0  0  0  0  0  0  0  0  0  0  0
   -9.6804    3.6571  -17.8315 Cl  0  0  0  0  0  0  0  0  0  0  0  0
   -7.1144    4.4576  -17.7093 C   0  0  0  0  0  0  0  0  0  0  0  0
   -6.0004    4.9380  -17.0126 C   0  0  0  0  0  0  0  0  0  0  0  0
   -6.0491    5.2153  -15.6562 C   0  0  0  0  0  0  0  0  0  0  0  0
   -4.8869    5.2370  -17.9794 C   0  0  0  0  0  0  0  0  0  0  0  0
   -4.4892    6.5655  -17.7458 O   0  0  0  0  0  0  0  0  0  0  0  0
   -5.5905    4.9084  -19.3463 C   0  0  0  0  0  0  0  0  0  0  0  0
   -5.1731    5.1442  -20.5393 N   0  0  0  0  0  0  0  0  0  0  0  0
   -6.8299    4.3351  -19.0796 N   0  0  0  0  0  0  0  0  0  0  0  0
   -5.2652    7.1464  -17.7821 H   0  0  0  0  0  0  0  0  0  0  0  0
   -7.4159    3.9100  -19.7468 H   0  0  0  0  0  0  0  0  0  0  0  0
   -7.9341    4.5810  -12.5984 N   0  0  0  0  0  0  0  0  0  0  0  0
   -7.4276    5.5886  -13.6514 C   0  0  0  0  0  0  0  0  0  0  0  0
   -7.2056    6.7315  -13.5605 O   0  0  0  0  0  0  0  0  0  0  0  0
   -8.1165    3.6782  -12.9461 H   0  0  0  0  0  0  0  0  0  0  0  0
   -9.6101    1.9157   -7.9058 C   0  0  0  0  0  0  0  0  0  0  0  0
   -8.4338    2.8456   -7.9231 C   0  0  0  0  0  0  0  0  0  0  0  0
   -8.4326    3.6526   -6.6716 N   0  0  0  0  0  0  0  0  0  0  0  0
   -8.6620    5.0501   -7.0341 C   0  0  0  0  0  0  0  0  0  0  0  0
   -8.5161    5.1169   -8.5136 C   0  0  0  0  0  0  0  0  0  0  0  0
   -8.4599    6.2297   -9.3259 C   0  0  0  0  0  0  0  0  0  0  0  0
   -8.2802    6.0334  -10.6947 C   0  0  0  0  0  0  0  0  0  0  0  0
   -8.1751    4.7407  -11.2361 C   0  0  0  0  0  0  0  0  0  0  0  0
   -8.2734    3.6208  -10.4087 C   0  0  0  0  0  0  0  0  0  0  0  0
   -8.4304    3.8338   -9.0444 C   0  0  0  0  0  0  0  0  0  0  0  0
   -7.5322    3.5604   -6.2014 H   0  0  0  0  0  0  0  0  0  0  0  0
   -3.9172    5.8279  -20.9247 C   0  0  0  0  0  0  0  0  0  0  0  0
   -3.9107    7.3158  -20.5425 C   0  0  0  0  0  0  0  0  0  0  0  0
   -3.9210    5.8111  -22.4685 C   0  0  0  0  0  0  0  0  0  0  0  0
   -2.6650    5.0864  -20.4024 C   0  0  0  0  0  0  0  0  0  0  0  0
   -1.4508    5.6091  -20.9401 O   0  0  0  0  0  0  0  0  0  0  0  0
   -1.4524    5.5038  -21.9044 H   0  0  0  0  0  0  0  0  0  0  0  0
 20 19  1  0  0  0
 20 21  1  0  0  0
 21 22  1  0  0  0
 22 23  1  0  0  0
 23 24  2  0  0  0
 24 25  1  0  0  0
 25 26  2  0  0  0
 26 15  1  0  0  0
 15 16  1  0  0  0
 16 17  2  0  0  0
 16  1  1  0  0  0
  1  2  2  0  0  0
  2  3  1  0  0  0
  3  4  1  0  0  0
  3  5  2  0  0  0
  5  6  1  0  0  0
  6  7  2  0  0  0
  6  8  1  0  0  0
  8  9  1  0  0  0
  8 10  1  0  0  0
 10 11  2  0  0  0
 11 30  1  0  0  0
 30 31  1  0  0  0
 30 32  1  0  0  0
 30 33  1  0  0  0
 33 34  1  0  0  0
 10 12  1  0  0  0
 26 27  1  0  0  0
 27 28  2  0  0  0
 28 20  1  0  0  0
 28 23  1  0  0  0
  7  1  1  0  0  0
 12  5  1  0  0  0
 21 29  1  0  0  0
 15 18  1  0  0  0
  9 13  1  0  0  0
 34 35  1  0  0  0
 12 14  1  0  0  0
M  END
> <minimizedAffinity>
-8.26970

> <minimizedRMSD>
0.33948

$$$$
P20533


 32 36  0  0  0  0  0  0  0  0999 V2000
   -7.2825    4.1160  -13.1295 N   0  0  0  0  0  0  0  0  0  0  0  0
   -7.5554    5.2310  -14.1670 C   0  0  0  0  0  0  0  0  0  0  0  0
   -7.8114    6.3598  -14.0150 O   0  0  0  0  0  0  0  0  0  0  0  0
   -7.0108    3.2518  -13.5151 H   0  0  0  0  0  0  0  0  0  0  0  0
   -7.5743    4.7006  -15.5489 C   0  0  0  0  0  0  0  0  0  0  0  0
   -8.8030    4.1598  -16.0034 C   0  0  0  0  0  0  0  0  0  0  0  0
   -9.0072    3.8361  -17.3523 C   0  0  0  0  0  0  0  0  0  0  0  0
   -7.9515    4.0271  -18.2067 C   0  0  0  0  0  0  0  0  0  0  0  0
   -6.7598    4.5282  -17.7585 C   0  0  0  0  0  0  0  0  0  0  0  0
   -5.8782    4.6136  -18.8053 C   0  0  0  0  0  0  0  0  0  0  0  0
   -4.6019    5.0954  -18.6058 C   0  0  0  0  0  0  0  0  0  0  0  0
   -4.2567    5.4961  -17.3020 C   0  0  0  0  0  0  0  0  0  0  0  0
   -5.1810    5.4053  -16.2308 C   0  0  0  0  0  0  0  0  0  0  0  0
   -6.4892    4.8974  -16.4426 C   0  0  0  0  0  0  0  0  0  0  0  0
   -6.5812    4.0902  -20.0050 C   0  0  0  0  0  0  0  0  0  0  0  0
   -6.1311    3.9444  -21.1256 O   0  0  0  0  0  0  0  0  0  0  0  0
   -7.8551    3.7653  -19.5656 N   0  0  0  0  0  0  0  0  0  0  0  0
   -8.5777    3.4055  -20.1292 H   0  0  0  0  0  0  0  0  0  0  0  0
   -6.7503    5.0302  -10.8123 C   0  0  0  0  0  0  0  0  0  0  0  0
   -7.0769    4.9957   -9.4343 C   0  0  0  0  0  0  0  0  0  0  0  0
   -7.9548    4.0398   -8.9690 C   0  0  0  0  0  0  0  0  0  0  0  0
   -8.4944    3.1052   -9.8329 C   0  0  0  0  0  0  0  0  0  0  0  0
   -8.2106    3.1382  -11.1922 C   0  0  0  0  0  0  0  0  0  0  0  0
   -7.3595    4.1361  -11.7213 C   0  0  0  0  0  0  0  0  0  0  0  0
   -9.3193    2.1392   -9.0446 C   0  0  0  0  0  0  0  0  0  0  0  0
   -9.5088    2.7774   -7.7144 N   0  0  0  0  0  0  0  0  0  0  0  0
   -8.3986    3.7429   -7.5760 C   0  0  0  0  0  0  0  0  0  0  0  0
   -9.4662    2.0770   -6.9740 H   0  0  0  0  0  0  0  0  0  0  0  0
   -5.9475    7.6585  -11.4143 C   0  0  0  0  0  0  0  0  0  0  0  0
   -5.3037    6.0163  -11.1820 S   0  0  0  0  0  0  0  0  0  0  0  0
   -4.5001    6.0715   -9.9669 O   0  0  0  0  0  0  0  0  0  0  0  0
   -4.6713    5.5107  -12.3856 O   0  0  0  0  0  0  0  0  0  0  0  0
 29 30  1  0  0  0
 30 31  2  0  0  0
 30 32  2  0  0  0
 30 19  1  0  0  0
 19 20  2  0  0  0
 20 21  1  0  0  0
 21 22  2  0  0  0
 22 23  1  0  0  0
 23 24  2  0  0  0
 24  1  1  0  0  0
  1  2  1  0  0  0
  2  3  2  0  0  0
  2  5  1  0  0  0
  5  6  2  0  0  0
  6  7  1  0  0  0
  7  8  2  0  0  0
  8  9  1  0  0  0
  9 10  2  0  0  0
 10 11  1  0  0  0
 11 12  2  0  0  0
 12 13  1  0  0  0
 13 14  2  0  0  0
 10 15  1  0  0  0
 15 16  2  0  0  0
 15 17  1  0  0  0
 22 25  1  0  0  0
 25 26  1  0  0  0
 26 27  1  0  0  0
 24 19  1  0  0  0
 14  5  1  0  0  0
 27 21  1  0  0  0
 17  8  1  0  0  0
 14  9  1  0  0  0
  1  4  1  0  0  0
 17 18  1  0  0  0
 26 28  1  0  0  0
M  END
> <minimizedAffinity>
-8.77338

> <minimizedRMSD>
0.66290

$$$$
P20535


 34 38  0  0  0  0  0  0  0  0999 V2000
   -2.5984    5.3270  -14.6179 C   0  0  0  0  0  0  0  0  0  0  0  0
   -3.1788    4.1056  -13.8943 C   0  0  0  0  0  0  0  0  0  0  0  0
   -4.4347    3.5906  -14.5942 C   0  0  0  0  0  0  0  0  0  0  0  0
   -5.5349    4.6819  -14.7210 C   0  0  0  0  0  0  0  0  0  0  0  0
   -4.9077    6.0748  -14.4355 C   0  0  0  0  0  0  0  0  0  0  0  0
   -3.6048    6.2668  -15.0907 N   0  0  0  0  0  0  0  0  0  0  0  0
   -6.0841    4.7526  -16.1479 C   0  0  0  0  0  0  0  0  0  0  0  0
   -7.3856    4.8131  -16.4574 C   0  0  0  0  0  0  0  0  0  0  0  0
   -8.5262    4.8234  -15.5188 C   0  0  0  0  0  0  0  0  0  0  0  0
   -8.0418    5.0668  -14.0930 C   0  0  0  0  0  0  0  0  0  0  0  0
   -6.7476    4.2923  -13.7650 C   0  0  0  0  0  0  0  0  0  0  0  0
   -7.5509    4.8504  -17.7988 N   0  0  0  0  0  0  0  0  0  0  0  0
   -6.3436    4.7624  -18.4613 C   0  0  0  0  0  0  0  0  0  0  0  0
   -6.2060    4.5873  -19.6602 O   0  0  0  0  0  0  0  0  0  0  0  0
   -5.2498    4.8454  -17.4113 C   0  0  0  0  0  0  0  0  0  0  0  0
   -3.2806    7.2154  -14.9022 H   0  0  0  0  0  0  0  0  0  0  0  0
   -8.4238    4.9303  -18.2470 H   0  0  0  0  0  0  0  0  0  0  0  0
   -6.4965    4.4506  -12.2459 C   0  0  0  0  0  0  0  0  0  0  0  0
   -5.4798    4.8242  -11.8077 O   0  0  0  0  0  0  0  0  0  0  0  0
   -7.8447    4.1258  -11.5331 N   0  0  0  0  0  0  0  0  0  0  0  0
   -8.5869    3.8979  -12.1384 H   0  0  0  0  0  0  0  0  0  0  0  0
   -8.1687    4.1059  -10.1804 C   0  0  0  0  0  0  0  0  0  0  0  0
   -7.9432    5.2349   -9.3767 C   0  0  0  0  0  0  0  0  0  0  0  0
   -8.2515    5.2265   -8.0071 C   0  0  0  0  0  0  0  0  0  0  0  0
   -8.0064    6.4307   -7.1541 C   0  0  0  0  0  0  0  0  0  0  0  0
   -8.7482    4.0461   -7.4702 C   0  0  0  0  0  0  0  0  0  0  0  0
   -8.9628    2.9263   -8.2670 C   0  0  0  0  0  0  0  0  0  0  0  0
   -8.7087    2.9482   -9.6286 C   0  0  0  0  0  0  0  0  0  0  0  0
   -9.3972    1.7856   -7.4103 C   0  0  0  0  0  0  0  0  0  0  0  0
   -9.7258    2.3751   -6.0883 N   0  0  0  0  0  0  0  0  0  0  0  0
   -9.0910    3.7084   -6.0560 C   0  0  0  0  0  0  0  0  0  0  0  0
   -9.3554    1.7900   -5.3394 H   0  0  0  0  0  0  0  0  0  0  0  0
   -1.8036    5.6680  -12.4048 C   0  0  0  0  0  0  0  0  0  0  0  0
   -1.7182    6.0536  -13.7688 O   0  0  0  0  0  0  0  0  0  0  0  0
 33 34  1  0  0  0
  1 34  1  0  0  0
  1  2  1  0  0  0
  2  3  1  0  0  0
  4  3  1  0  0  0
  4  5  1  0  0  0
  5  6  1  0  0  0
  4  7  1  0  0  0
  7  8  2  0  0  0
  8  9  1  0  0  0
  9 10  1  0  0  0
 10 11  1  0  0  0
 11 18  1  0  0  0
 18 19  2  0  0  0
 18 20  1  0  0  0
 20 22  1  0  0  0
 22 23  2  0  0  0
 23 24  1  0  0  0
 24 25  1  0  0  0
 24 26  2  0  0  0
 26 27  1  0  0  0
 27 28  2  0  0  0
 27 29  1  0  0  0
 29 30  1  0  0  0
 30 31  1  0  0  0
  8 12  1  0  0  0
 12 13  1  0  0  0
 13 14  2  0  0  0
 13 15  1  0  0  0
  6  1  1  0  0  0
 15  7  1  0  0  0
 11  4  1  0  0  0
 28 22  1  0  0  0
 31 26  1  0  0  0
  6 16  1  0  0  0
 20 21  1  0  0  0
 30 32  1  0  0  0
 12 17  1  0  0  0
M  END
> <minimizedAffinity>
-8.05058

> <minimizedRMSD>
1.58922

$$$$
P20540


 29 32  0  0  0  0  0  0  0  0999 V2000
   -9.7344    3.6773  -17.5227 N   0  0  0  0  0  0  0  0  0  0  0  0
   -8.4688    4.0921  -17.1156 C   0  0  0  0  0  0  0  0  0  0  0  0
   -8.1634    4.2261  -15.7652 C   0  0  0  0  0  0  0  0  0  0  0  0
   -6.9079    4.7139  -15.3531 C   0  0  0  0  0  0  0  0  0  0  0  0
   -5.9395    5.0855  -16.2989 C   0  0  0  0  0  0  0  0  0  0  0  0
   -6.2198    4.8583  -17.6393 C   0  0  0  0  0  0  0  0  0  0  0  0
   -7.4387    4.2926  -18.0118 C   0  0  0  0  0  0  0  0  0  0  0  0
   -7.4491    4.0219  -19.3744 N   0  0  0  0  0  0  0  0  0  0  0  0
   -6.2498    4.4108  -19.9681 C   0  0  0  0  0  0  0  0  0  0  0  0
   -5.9388    4.1786  -21.1269 O   0  0  0  0  0  0  0  0  0  0  0  0
   -5.4840    5.2062  -18.8984 C   0  0  0  0  0  0  0  0  0  0  0  0
   -3.6265    4.7752  -18.8637 Br  0  0  0  0  0  0  0  0  0  0  0  0
  -10.4467    3.5439  -16.8564 H   0  0  0  0  0  0  0  0  0  0  0  0
   -9.9167    3.5174  -18.4769 H   0  0  0  0  0  0  0  0  0  0  0  0
   -8.2028    3.6105  -19.8561 H   0  0  0  0  0  0  0  0  0  0  0  0
   -6.6979    4.9937  -13.9035 C   0  0  0  0  0  0  0  0  0  0  0  0
   -5.9632    5.8517  -13.6026 O   0  0  0  0  0  0  0  0  0  0  0  0
   -7.6201    4.1067  -13.0271 N   0  0  0  0  0  0  0  0  0  0  0  0
   -8.0920    3.3940  -13.5157 H   0  0  0  0  0  0  0  0  0  0  0  0
   -7.8896    4.1542  -11.6596 C   0  0  0  0  0  0  0  0  0  0  0  0
   -7.7649    5.3415  -10.9233 C   0  0  0  0  0  0  0  0  0  0  0  0
   -8.0798    5.3742   -9.5587 C   0  0  0  0  0  0  0  0  0  0  0  0
   -8.5223    4.2098   -8.9572 C   0  0  0  0  0  0  0  0  0  0  0  0
   -8.6456    3.0310   -9.6831 C   0  0  0  0  0  0  0  0  0  0  0  0
   -8.3329    2.9835  -11.0321 C   0  0  0  0  0  0  0  0  0  0  0  0
   -9.1114    1.9413   -8.7740 C   0  0  0  0  0  0  0  0  0  0  0  0
   -9.5829    2.6329   -7.5433 N   0  0  0  0  0  0  0  0  0  0  0  0
   -8.9016    3.9469   -7.5386 C   0  0  0  0  0  0  0  0  0  0  0  0
   -9.3279    2.0968   -6.7138 H   0  0  0  0  0  0  0  0  0  0  0  0
  1  2  1  0  0  0
  2  3  2  0  0  0
  3  4  1  0  0  0
  4 16  1  0  0  0
 16 17  2  0  0  0
 16 18  1  0  0  0
 18 20  1  0  0  0
 20 21  2  0  0  0
 21 22  1  0  0  0
 22 23  2  0  0  0
 23 24  1  0  0  0
 24 25  2  0  0  0
 24 26  1  0  0  0
 26 27  1  0  0  0
 27 28  1  0  0  0
  4  5  2  0  0  0
  5  6  1  0  0  0
  6  7  2  0  0  0
  7  8  1  0  0  0
  8  9  1  0  0  0
  9 10  2  0  0  0
  9 11  1  0  0  0
 11 12  1  0  0  0
  7  2  1  0  0  0
 25 20  1  0  0  0
 11  6  1  0  0  0
 28 23  1  0  0  0
  1 13  1  0  0  0
  1 14  1  0  0  0
 18 19  1  0  0  0
 27 29  1  0  0  0
  8 15  1  0  0  0
M  END
> <minimizedAffinity>
-8.81902

> <minimizedRMSD>
0.37028

$$$$
P20552


 36 39  0  0  0  0  0  0  0  0999 V2000
   -6.9073    4.6420  -14.6746 C   0  0  0  0  0  0  0  0  0  0  0  0
   -8.0681    4.2410  -15.3572 C   0  0  0  0  0  0  0  0  0  0  0  0
   -8.0873    4.2177  -16.7538 C   0  0  0  0  0  0  0  0  0  0  0  0
   -9.5120    3.7769  -17.5730 Cl  0  0  0  0  0  0  0  0  0  0  0  0
   -6.9631    4.5950  -17.4628 C   0  0  0  0  0  0  0  0  0  0  0  0
   -5.8195    5.0244  -16.7786 C   0  0  0  0  0  0  0  0  0  0  0  0
   -5.7793    5.0670  -15.3933 C   0  0  0  0  0  0  0  0  0  0  0  0
   -4.7564    5.4060  -17.7763 C   0  0  0  0  0  0  0  0  0  0  0  0
   -3.5449    4.7797  -17.4439 O   0  0  0  0  0  0  0  0  0  0  0  0
   -5.4739    5.0181  -19.1270 C   0  0  0  0  0  0  0  0  0  0  0  0
   -5.0214    5.1883  -20.3230 N   0  0  0  0  0  0  0  0  0  0  0  0
   -6.7221    4.5011  -18.8403 N   0  0  0  0  0  0  0  0  0  0  0  0
   -3.6862    3.8232  -17.3660 H   0  0  0  0  0  0  0  0  0  0  0  0
   -7.3465    4.1245  -19.5018 H   0  0  0  0  0  0  0  0  0  0  0  0
   -6.8190    4.6227  -13.1900 C   0  0  0  0  0  0  0  0  0  0  0  0
   -5.9451    5.2714  -12.6296 O   0  0  0  0  0  0  0  0  0  0  0  0
   -7.7508    3.7425  -12.3888 C   0  0  0  0  0  0  0  0  0  0  0  0
   -8.1294    2.7145  -12.9406 O   0  0  0  0  0  0  0  0  0  0  0  0
   -8.1188    6.5719  -11.0292 C   0  0  0  0  0  0  0  0  0  0  0  0
   -8.2301    5.2469  -10.3300 C   0  0  0  0  0  0  0  0  0  0  0  0
   -8.4654    5.2858   -8.9370 C   0  0  0  0  0  0  0  0  0  0  0  0
   -8.7098    4.1089   -8.2495 C   0  0  0  0  0  0  0  0  0  0  0  0
   -8.7447    2.8978   -8.9121 C   0  0  0  0  0  0  0  0  0  0  0  0
   -8.4373    2.8159  -10.2533 C   0  0  0  0  0  0  0  0  0  0  0  0
   -8.1356    3.9895  -10.9748 C   0  0  0  0  0  0  0  0  0  0  0  0
   -9.1702    1.8175   -7.9824 C   0  0  0  0  0  0  0  0  0  0  0  0
   -9.1359    2.4225   -6.6227 N   0  0  0  0  0  0  0  0  0  0  0  0
   -9.0206    3.8869   -6.8096 C   0  0  0  0  0  0  0  0  0  0  0  0
   -8.3326    2.0706   -6.1018 H   0  0  0  0  0  0  0  0  0  0  0  0
   -3.7176    5.8473  -20.5247 C   0  0  0  0  0  0  0  0  0  0  0  0
   -3.9097    7.2850  -21.0918 C   0  0  0  0  0  0  0  0  0  0  0  0
   -2.8204    7.5898  -22.1263 C   0  0  0  0  0  0  0  0  0  0  0  0
   -3.8541    8.3249  -19.9644 C   0  0  0  0  0  0  0  0  0  0  0  0
   -5.2292    7.4047  -21.7388 N   0  0  0  0  0  0  0  0  0  0  0  0
   -5.2996    6.7248  -22.4958 H   0  0  0  0  0  0  0  0  0  0  0  0
   -5.3388    8.3460  -22.1159 H   0  0  0  0  0  0  0  0  0  0  0  0
 19 20  1  0  0  0
 20 21  2  0  0  0
 21 22  1  0  0  0
 22 23  2  0  0  0
 23 24  1  0  0  0
 24 25  2  0  0  0
 25 17  1  0  0  0
 17 18  2  0  0  0
 17 15  1  0  0  0
 15 16  2  0  0  0
 15  1  1  0  0  0
  1  2  2  0  0  0
  2  3  1  0  0  0
  3  4  1  0  0  0
  3  5  2  0  0  0
  5  6  1  0  0  0
  6  7  2  0  0  0
  6  8  1  0  0  0
  8  9  1  0  0  0
  8 10  1  0  0  0
 10 11  2  0  0  0
 11 30  1  0  0  0
 30 31  1  0  0  0
 31 32  1  0  0  0
 31 33  1  0  0  0
 31 34  1  0  0  0
 10 12  1  0  0  0
 23 26  1  0  0  0
 26 27  1  0  0  0
 27 28  1  0  0  0
 25 20  1  0  0  0
  7  1  1  0  0  0
 28 22  1  0  0  0
 12  5  1  0  0  0
  9 13  1  0  0  0
 34 35  1  0  0  0
 34 36  1  0  0  0
 12 14  1  0  0  0
 27 29  1  0  0  0
M  END
> <minimizedAffinity>
-8.52360

> <minimizedRMSD>
0.64058

$$$$
P20555


 38 42  0  0  0  0  0  0  0  0999 V2000
   -6.9638    4.8683  -15.5175 C   0  0  0  0  0  0  0  0  0  0  0  0
   -8.1317    4.2252  -15.9675 C   0  0  0  0  0  0  0  0  0  0  0  0
   -8.2808    3.9504  -17.3170 C   0  0  0  0  0  0  0  0  0  0  0  0
   -9.7356    3.3452  -17.9313 Cl  0  0  0  0  0  0  0  0  0  0  0  0
   -7.2662    4.2862  -18.1808 C   0  0  0  0  0  0  0  0  0  0  0  0
   -6.1381    4.9825  -17.7670 C   0  0  0  0  0  0  0  0  0  0  0  0
   -5.9708    5.2864  -16.4226 C   0  0  0  0  0  0  0  0  0  0  0  0
   -5.3502    5.3692  -19.0017 C   0  0  0  0  0  0  0  0  0  0  0  0
   -6.0469    4.5446  -20.0987 C   0  0  0  0  0  0  0  0  0  0  0  0
   -5.7150    4.3677  -21.2605 O   0  0  0  0  0  0  0  0  0  0  0  0
   -7.2026    4.0230  -19.5388 N   0  0  0  0  0  0  0  0  0  0  0  0
   -7.8897    3.5290  -20.0418 H   0  0  0  0  0  0  0  0  0  0  0  0
   -7.5105    4.1541  -13.1848 N   0  0  0  0  0  0  0  0  0  0  0  0
   -6.8770    5.2477  -14.0817 C   0  0  0  0  0  0  0  0  0  0  0  0
   -6.4390    6.2948  -13.8041 O   0  0  0  0  0  0  0  0  0  0  0  0
   -7.7370    3.3179  -13.6523 H   0  0  0  0  0  0  0  0  0  0  0  0
   -9.2012    1.7766   -6.5805 N   0  0  0  0  0  0  0  0  0  0  0  0
   -9.4941    2.5205   -7.7725 N   0  0  0  0  0  0  0  0  0  0  0  0
   -8.8491    3.8564   -7.7201 C   0  0  0  0  0  0  0  0  0  0  0  0
   -8.4755    4.1486   -9.1370 C   0  0  0  0  0  0  0  0  0  0  0  0
   -8.0889    5.3431   -9.7134 C   0  0  0  0  0  0  0  0  0  0  0  0
   -7.7586    5.3442  -11.0717 C   0  0  0  0  0  0  0  0  0  0  0  0
   -7.8114    4.1618  -11.8251 C   0  0  0  0  0  0  0  0  0  0  0  0
   -8.2064    2.9597  -11.2265 C   0  0  0  0  0  0  0  0  0  0  0  0
   -8.5372    2.9731   -9.8824 C   0  0  0  0  0  0  0  0  0  0  0  0
   -8.9726    1.8469   -8.9980 C   0  0  0  0  0  0  0  0  0  0  0  0
   -9.5743    2.2716   -5.7705 H   0  0  0  0  0  0  0  0  0  0  0  0
   -8.1909    1.6763   -6.4820 H   0  0  0  0  0  0  0  0  0  0  0  0
   -3.8641    5.2059  -18.9379 C   0  0  0  0  0  0  0  0  0  0  0  0
   -3.2748    4.2564  -18.4369 O   0  0  0  0  0  0  0  0  0  0  0  0
   -3.2601    6.3193  -19.4357 O   0  0  0  0  0  0  0  0  0  0  0  0
   -2.4055    7.0308  -18.5336 C   0  0  0  0  0  0  0  0  0  0  0  0
   -3.2550    7.7813  -17.5395 C   0  0  0  0  0  0  0  0  0  0  0  0
   -4.2303    8.6871  -17.9796 C   0  0  0  0  0  0  0  0  0  0  0  0
   -5.0330    9.3646  -17.0605 C   0  0  0  0  0  0  0  0  0  0  0  0
   -4.8737    9.1369  -15.6945 C   0  0  0  0  0  0  0  0  0  0  0  0
   -3.9141    8.2305  -15.2467 C   0  0  0  0  0  0  0  0  0  0  0  0
   -3.1099    7.5536  -16.1646 C   0  0  0  0  0  0  0  0  0  0  0  0
 17 18  1  0  0  0
 18 19  1  0  0  0
 19 20  1  0  0  0
 20 21  2  0  0  0
 21 22  1  0  0  0
 22 23  2  0  0  0
 23 13  1  0  0  0
 13 14  1  0  0  0
 14 15  2  0  0  0
 14  1  1  0  0  0
  1  2  2  0  0  0
  2  3  1  0  0  0
  3  4  1  0  0  0
  3  5  2  0  0  0
  5  6  1  0  0  0
  6  7  2  0  0  0
  6  8  1  0  0  0
  8 29  1  0  0  0
 29 30  2  0  0  0
 29 31  1  0  0  0
 31 32  1  0  0  0
 32 33  1  0  0  0
 33 34  2  0  0  0
 34 35  1  0  0  0
 35 36  2  0  0  0
 36 37  1  0  0  0
 37 38  2  0  0  0
  8  9  1  0  0  0
  9 10  2  0  0  0
  9 11  1  0  0  0
 23 24  1  0  0  0
 24 25  2  0  0  0
 25 26  1  0  0  0
 26 18  1  0  0  0
 25 20  1  0  0  0
  7  1  1  0  0  0
 38 33  1  0  0  0
 11  5  1  0  0  0
 17 27  1  0  0  0
 17 28  1  0  0  0
 13 16  1  0  0  0
 11 12  1  0  0  0
M  END
> <minimizedAffinity>
-8.34474

> <minimizedRMSD>
1.97391

$$$$
P20556


 38 42  0  0  0  0  0  0  0  0999 V2000
   -5.8268    4.1490  -21.0183 O   0  0  0  0  0  0  0  0  0  0  0  0
   -6.1814    4.3368  -19.8652 C   0  0  0  0  0  0  0  0  0  0  0  0
   -5.3650    4.9401  -18.7159 C   0  0  0  0  0  0  0  0  0  0  0  0
   -6.2913    4.8351  -17.5313 C   0  0  0  0  0  0  0  0  0  0  0  0
   -7.5019    4.3147  -18.0032 C   0  0  0  0  0  0  0  0  0  0  0  0
   -8.6142    4.1545  -17.2092 C   0  0  0  0  0  0  0  0  0  0  0  0
  -10.0997    3.7193  -17.9092 Cl  0  0  0  0  0  0  0  0  0  0  0  0
   -8.5142    4.4544  -15.8621 C   0  0  0  0  0  0  0  0  0  0  0  0
   -7.3008    4.9547  -15.3496 C   0  0  0  0  0  0  0  0  0  0  0  0
   -6.1684    5.1839  -16.1886 C   0  0  0  0  0  0  0  0  0  0  0  0
   -7.4202    4.0164  -19.3543 N   0  0  0  0  0  0  0  0  0  0  0  0
   -8.1538    3.6255  -19.8817 H   0  0  0  0  0  0  0  0  0  0  0  0
   -7.2970    5.3697  -13.9117 C   0  0  0  0  0  0  0  0  0  0  0  0
   -6.9802    6.4683  -13.6660 O   0  0  0  0  0  0  0  0  0  0  0  0
   -7.7602    4.2234  -12.9745 N   0  0  0  0  0  0  0  0  0  0  0  0
   -7.8996    3.3570  -13.4208 H   0  0  0  0  0  0  0  0  0  0  0  0
   -8.0116    4.2208  -11.6013 C   0  0  0  0  0  0  0  0  0  0  0  0
   -7.8498    5.3839  -10.8328 C   0  0  0  0  0  0  0  0  0  0  0  0
   -8.0966    5.3756   -9.4553 C   0  0  0  0  0  0  0  0  0  0  0  0
   -8.4894    4.1892   -8.8649 C   0  0  0  0  0  0  0  0  0  0  0  0
   -8.6609    3.0376   -9.6212 C   0  0  0  0  0  0  0  0  0  0  0  0
   -8.4377    3.0355  -10.9913 C   0  0  0  0  0  0  0  0  0  0  0  0
   -9.1093    1.9268   -8.7333 C   0  0  0  0  0  0  0  0  0  0  0  0
   -9.0193    2.4427   -7.3391 N   0  0  0  0  0  0  0  0  0  0  0  0
   -8.8050    3.9023   -7.4382 C   0  0  0  0  0  0  0  0  0  0  0  0
   -8.2372    2.0050   -6.8522 H   0  0  0  0  0  0  0  0  0  0  0  0
   -5.0317    5.7605  -15.6000 N   0  0  0  0  0  0  0  0  0  0  0  0
   -4.0003    5.1675  -14.6394 C   0  0  0  0  0  0  0  0  0  0  0  0
   -3.8795    4.0831  -14.2382 O   0  0  0  0  0  0  0  0  0  0  0  0
   -4.8726    6.7004  -15.8459 H   0  0  0  0  0  0  0  0  0  0  0  0
   -3.1724    6.2014  -14.3298 O   0  0  0  0  0  0  0  0  0  0  0  0
   -1.7964    5.8629  -14.1226 C   0  0  0  0  0  0  0  0  0  0  0  0
   -1.0724    5.8407  -15.4437 C   0  0  0  0  0  0  0  0  0  0  0  0
   -1.7728    6.0422  -16.6411 C   0  0  0  0  0  0  0  0  0  0  0  0
   -1.1045    6.0066  -17.8660 C   0  0  0  0  0  0  0  0  0  0  0  0
    0.2669    5.7613  -17.9061 C   0  0  0  0  0  0  0  0  0  0  0  0
    0.9705    5.5453  -16.7225 C   0  0  0  0  0  0  0  0  0  0  0  0
    0.3039    5.5805  -15.4969 C   0  0  0  0  0  0  0  0  0  0  0  0
  1  2  2  0  0  0
  2  3  1  0  0  0
  3  4  1  0  0  0
  4  5  2  0  0  0
  5  6  1  0  0  0
  6  7  1  0  0  0
  6  8  2  0  0  0
  8  9  1  0  0  0
  9 13  1  0  0  0
 13 14  2  0  0  0
 13 15  1  0  0  0
 15 17  1  0  0  0
 17 18  2  0  0  0
 18 19  1  0  0  0
 19 20  2  0  0  0
 20 21  1  0  0  0
 21 22  2  0  0  0
 21 23  1  0  0  0
 23 24  1  0  0  0
 24 25  1  0  0  0
  9 10  2  0  0  0
 10 27  1  0  0  0
 27 28  1  0  0  0
 28 29  2  0  0  0
 28 31  1  0  0  0
 31 32  1  0  0  0
 32 33  1  0  0  0
 33 34  2  0  0  0
 34 35  1  0  0  0
 35 36  2  0  0  0
 36 37  1  0  0  0
 37 38  2  0  0  0
  5 11  1  0  0  0
 11  2  1  0  0  0
 10  4  1  0  0  0
 38 33  1  0  0  0
 22 17  1  0  0  0
 25 20  1  0  0  0
 15 16  1  0  0  0
 24 26  1  0  0  0
 27 30  1  0  0  0
 11 12  1  0  0  0
M  END
> <minimizedAffinity>
-8.35892

> <minimizedRMSD>
1.97608

$$$$
P20557


 37 41  0  0  0  0  0  0  0  0999 V2000
   -7.0117    5.2056  -14.0084 C   0  0  0  0  0  0  0  0  0  0  0  0
   -6.4470    6.1923  -13.7481 O   0  0  0  0  0  0  0  0  0  0  0  0
   -7.8227    4.2492  -13.1074 N   0  0  0  0  0  0  0  0  0  0  0  0
   -8.1422    3.4328  -13.5554 H   0  0  0  0  0  0  0  0  0  0  0  0
   -8.1921    4.3582  -11.7015 C   0  0  0  0  0  0  0  0  0  0  0  0
   -8.4388    2.9694  -11.0652 C   0  0  0  0  0  0  0  0  0  0  0  0
   -8.6044    3.0838   -9.5897 C   0  0  0  0  0  0  0  0  0  0  0  0
   -8.3097    4.1746   -8.8746 C   0  0  0  0  0  0  0  0  0  0  0  0
   -8.6876    3.9692   -7.4560 C   0  0  0  0  0  0  0  0  0  0  0  0
   -9.1048    2.5510   -7.3444 N   0  0  0  0  0  0  0  0  0  0  0  0
   -9.1644    2.0189   -8.7258 C   0  0  0  0  0  0  0  0  0  0  0  0
   -7.7108    5.4319   -9.4287 C   0  0  0  0  0  0  0  0  0  0  0  0
   -7.1820    5.1578  -10.8668 C   0  0  0  0  0  0  0  0  0  0  0  0
   -8.6979    6.5216   -9.4388 N   0  0  0  0  0  0  0  0  0  0  0  0
   -8.4708    7.2218   -8.2159 N   0  0  0  0  0  0  0  0  0  0  0  0
   -7.0865    7.1547   -7.9718 N   0  0  0  0  0  0  0  0  0  0  0  0
   -6.6066    5.9403   -8.5892 N   0  0  0  0  0  0  0  0  0  0  0  0
  -10.0220    2.4874   -6.9026 H   0  0  0  0  0  0  0  0  0  0  0  0
   -9.6466    6.1483   -9.4696 H   0  0  0  0  0  0  0  0  0  0  0  0
   -8.9853    6.7786   -7.4547 H   0  0  0  0  0  0  0  0  0  0  0  0
   -6.9087    7.1310   -6.9677 H   0  0  0  0  0  0  0  0  0  0  0  0
   -6.3625    5.2545   -7.8747 H   0  0  0  0  0  0  0  0  0  0  0  0
   -3.9666    4.7878  -18.7596 N   0  0  0  0  0  0  0  0  0  0  0  0
   -5.3677    5.1804  -18.8781 C   0  0  0  0  0  0  0  0  0  0  0  0
   -6.1202    4.4207  -20.0200 C   0  0  0  0  0  0  0  0  0  0  0  0
   -5.7452    4.2205  -21.1657 O   0  0  0  0  0  0  0  0  0  0  0  0
   -7.3293    4.0038  -19.4856 N   0  0  0  0  0  0  0  0  0  0  0  0
   -7.3937    4.2669  -18.1244 C   0  0  0  0  0  0  0  0  0  0  0  0
   -8.4560    4.0371  -17.2826 C   0  0  0  0  0  0  0  0  0  0  0  0
   -9.9810    3.6731  -17.9325 Cl  0  0  0  0  0  0  0  0  0  0  0  0
   -8.2978    4.2746  -15.9243 C   0  0  0  0  0  0  0  0  0  0  0  0
   -7.0824    4.7946  -15.4407 C   0  0  0  0  0  0  0  0  0  0  0  0
   -6.0367    5.1173  -16.3254 C   0  0  0  0  0  0  0  0  0  0  0  0
   -6.2113    4.8478  -17.6770 C   0  0  0  0  0  0  0  0  0  0  0  0
   -3.4676    5.0474  -19.6105 H   0  0  0  0  0  0  0  0  0  0  0  0
   -3.9065    3.7785  -18.6247 H   0  0  0  0  0  0  0  0  0  0  0  0
   -8.0489    3.5766  -20.0042 H   0  0  0  0  0  0  0  0  0  0  0  0
 24 23  1  0  0  0
 24 25  1  0  0  0
 25 26  2  0  0  0
 25 27  1  0  0  0
 27 28  1  0  0  0
 28 29  2  0  0  0
 29 30  1  0  0  0
 29 31  1  0  0  0
 31 32  2  0  0  0
 32  1  1  0  0  0
  1  2  2  0  0  0
  1  3  1  0  0  0
  5  3  1  0  0  0
  5  6  1  0  0  0
  6  7  1  0  0  0
  7  8  2  0  0  0
  8  9  1  0  0  0
  9 10  1  0  0  0
 10 11  1  0  0  0
  8 12  1  0  0  0
 12 13  1  0  0  0
 12 14  1  0  0  0
 14 15  1  0  0  0
 15 16  1  0  0  0
 16 17  1  0  0  0
 32 33  1  0  0  0
 33 34  2  0  0  0
 34 24  1  0  0  0
 34 28  1  0  0  0
 13  5  1  0  0  0
 11  7  1  0  0  0
 17 12  1  0  0  0
 23 35  1  0  0  0
 23 36  1  0  0  0
 27 37  1  0  0  0
  3  4  1  0  0  0
 10 18  1  0  0  0
 14 19  1  0  0  0
 15 20  1  0  0  0
 16 21  1  0  0  0
 17 22  1  0  0  0
M  END
> <minimizedAffinity>
-9.13275

> <minimizedRMSD>
0.21224

$$$$
P20559


 35 38  0  0  0  0  0  0  0  0999 V2000
   -7.2126    4.9641  -13.6909 C   0  0  0  0  0  0  0  0  0  0  0  0
   -5.9305    4.5187  -13.2938 O   0  0  0  0  0  0  0  0  0  0  0  0
   -5.8843    3.5532  -13.3748 H   0  0  0  0  0  0  0  0  0  0  0  0
   -6.0031    4.0730  -20.9976 O   0  0  0  0  0  0  0  0  0  0  0  0
   -6.3576    4.2522  -19.8421 C   0  0  0  0  0  0  0  0  0  0  0  0
   -5.5330    4.8437  -18.6940 C   0  0  0  0  0  0  0  0  0  0  0  0
   -6.5152    4.7113  -17.5585 C   0  0  0  0  0  0  0  0  0  0  0  0
   -7.6717    4.2072  -17.9933 C   0  0  0  0  0  0  0  0  0  0  0  0
   -7.5958    3.9293  -19.3227 N   0  0  0  0  0  0  0  0  0  0  0  0
   -8.8751    3.9706  -17.1569 C   0  0  0  0  0  0  0  0  0  0  0  0
  -10.3058    4.4833  -18.0533 Cl  0  0  0  0  0  0  0  0  0  0  0  0
   -8.7693    4.6805  -15.7921 C   0  0  0  0  0  0  0  0  0  0  0  0
   -7.3617    4.5093  -15.1806 C   0  0  0  0  0  0  0  0  0  0  0  0
   -6.2497    5.0571  -16.1275 C   0  0  0  0  0  0  0  0  0  0  0  0
   -8.3331    3.5451  -19.8499 H   0  0  0  0  0  0  0  0  0  0  0  0
   -7.3909    6.5612  -13.5921 C   0  0  0  0  0  0  0  0  0  0  0  0
   -6.4954    7.2969  -13.7508 O   0  0  0  0  0  0  0  0  0  0  0  0
   -8.8892    6.8485  -13.2954 N   0  0  0  0  0  0  0  0  0  0  0  0
   -9.4666    6.0513  -13.2796 H   0  0  0  0  0  0  0  0  0  0  0  0
   -9.5757    8.1021  -13.0377 C   0  0  0  0  0  0  0  0  0  0  0  0
   -9.2906    8.7128  -11.6641 C   0  0  0  0  0  0  0  0  0  0  0  0
   -9.9351    8.0316  -10.6886 F   0  0  0  0  0  0  0  0  0  0  0  0
   -7.9655    8.6467  -11.3775 F   0  0  0  0  0  0  0  0  0  0  0  0
   -8.2119    4.2241  -12.8827 N   0  0  0  0  0  0  0  0  0  0  0  0
   -8.9141    3.7296  -13.3640 H   0  0  0  0  0  0  0  0  0  0  0  0
   -8.2272    4.1790  -11.4779 C   0  0  0  0  0  0  0  0  0  0  0  0
   -8.0477    5.3099  -10.6573 C   0  0  0  0  0  0  0  0  0  0  0  0
   -8.2216    5.2573   -9.2691 C   0  0  0  0  0  0  0  0  0  0  0  0
   -8.5652    4.0528   -8.6973 C   0  0  0  0  0  0  0  0  0  0  0  0
   -8.7419    2.9228   -9.4791 C   0  0  0  0  0  0  0  0  0  0  0  0
   -8.6019    2.9736  -10.8584 C   0  0  0  0  0  0  0  0  0  0  0  0
   -9.1523    1.7862   -8.6069 C   0  0  0  0  0  0  0  0  0  0  0  0
   -8.9445    2.2496   -7.2076 N   0  0  0  0  0  0  0  0  0  0  0  0
   -8.8613    3.7252   -7.2758 C   0  0  0  0  0  0  0  0  0  0  0  0
   -8.0791    1.8627   -6.8308 H   0  0  0  0  0  0  0  0  0  0  0  0
  4  5  2  0  0  0
  5  6  1  0  0  0
  6  7  1  0  0  0
  7  8  2  0  0  0
  8  9  1  0  0  0
  8 10  1  0  0  0
 10 11  1  0  0  0
 10 12  1  0  0  0
 13 12  1  0  0  0
 13  1  1  0  0  0
  1  2  1  0  0  0
  1 24  1  0  0  0
 24 26  1  0  0  0
 26 27  2  0  0  0
 27 28  1  0  0  0
 28 29  2  0  0  0
 29 30  1  0  0  0
 30 31  2  0  0  0
 30 32  1  0  0  0
 32 33  1  0  0  0
 33 34  1  0  0  0
  1 16  1  0  0  0
 16 17  2  0  0  0
 16 18  1  0  0  0
 18 20  1  0  0  0
 20 21  1  0  0  0
 21 22  1  0  0  0
 21 23  1  0  0  0
 13 14  1  0  0  0
  9  5  1  0  0  0
 31 26  1  0  0  0
 14  7  1  0  0  0
 34 29  1  0  0  0
  9 15  1  0  0  0
  2  3  1  0  0  0
 24 25  1  0  0  0
 33 35  1  0  0  0
 18 19  1  0  0  0
M  END
> <minimizedAffinity>
-8.15409

> <minimizedRMSD>
0.27465

$$$$
P20560


 27 31  0  0  0  0  0  0  0  0999 V2000
   -7.3104    5.1696  -13.8754 C   0  0  0  0  0  0  0  0  0  0  0  0
   -6.8244    6.2026  -13.6229 O   0  0  0  0  0  0  0  0  0  0  0  0
   -8.0251    4.1401  -12.9542 N   0  0  0  0  0  0  0  0  0  0  0  0
   -8.4206    3.3709  -13.4246 H   0  0  0  0  0  0  0  0  0  0  0  0
   -5.5664    4.4613  -20.5925 O   0  0  0  0  0  0  0  0  0  0  0  0
   -6.1858    4.4201  -19.5436 C   0  0  0  0  0  0  0  0  0  0  0  0
   -7.5029    3.9164  -19.3774 N   0  0  0  0  0  0  0  0  0  0  0  0
   -7.7887    4.0634  -18.1291 C   0  0  0  0  0  0  0  0  0  0  0  0
   -8.8811    3.8445  -17.1576 C   0  0  0  0  0  0  0  0  0  0  0  0
  -10.0387    3.3573  -17.6252 F   0  0  0  0  0  0  0  0  0  0  0  0
   -8.6890    4.1430  -15.8472 C   0  0  0  0  0  0  0  0  0  0  0  0
   -7.4071    4.6939  -15.2909 C   0  0  0  0  0  0  0  0  0  0  0  0
   -6.3989    4.9104  -16.1502 C   0  0  0  0  0  0  0  0  0  0  0  0
   -6.6812    4.6009  -17.4622 C   0  0  0  0  0  0  0  0  0  0  0  0
   -5.6739    4.8575  -18.2295 C   0  0  0  0  0  0  0  0  0  0  0  0
   -4.6535    5.3441  -17.4603 N   0  0  0  0  0  0  0  0  0  0  0  0
   -5.0925    5.3910  -16.2148 N   0  0  0  0  0  0  0  0  0  0  0  0
   -8.1970    4.1296  -11.5677 C   0  0  0  0  0  0  0  0  0  0  0  0
   -8.0834    5.3055  -10.8112 C   0  0  0  0  0  0  0  0  0  0  0  0
   -8.2892    5.2911   -9.4263 C   0  0  0  0  0  0  0  0  0  0  0  0
   -8.6012    4.0889   -8.8182 C   0  0  0  0  0  0  0  0  0  0  0  0
   -8.7218    2.9236   -9.5618 C   0  0  0  0  0  0  0  0  0  0  0  0
   -8.5268    2.9240  -10.9363 C   0  0  0  0  0  0  0  0  0  0  0  0
   -9.1018    1.7980   -8.6604 C   0  0  0  0  0  0  0  0  0  0  0  0
   -9.0448    2.3342   -7.2725 N   0  0  0  0  0  0  0  0  0  0  0  0
   -8.8808    3.7992   -7.3845 C   0  0  0  0  0  0  0  0  0  0  0  0
   -8.2530    1.9298   -6.7725 H   0  0  0  0  0  0  0  0  0  0  0  0
  5  6  2  0  0  0
  6  7  1  0  0  0
  7  8  2  0  0  0
  8  9  1  0  0  0
  9 10  1  0  0  0
  9 11  2  0  0  0
 11 12  1  0  0  0
 12  1  1  0  0  0
  1  2  2  0  0  0
  1  3  1  0  0  0
  3 18  1  0  0  0
 18 19  2  0  0  0
 19 20  1  0  0  0
 20 21  2  0  0  0
 21 22  1  0  0  0
 22 23  2  0  0  0
 22 24  1  0  0  0
 24 25  1  0  0  0
 25 26  1  0  0  0
 12 13  2  0  0  0
 13 14  1  0  0  0
 14 15  2  0  0  0
 15 16  1  0  0  0
 16 17  2  0  0  0
 15  6  1  0  0  0
 14  8  1  0  0  0
 23 18  1  0  0  0
 17 13  1  0  0  0
 26 21  1  0  0  0
  3  4  1  0  0  0
 25 27  1  0  0  0
M  END
> <minimizedAffinity>
-8.65189

> <minimizedRMSD>
0.28024

$$$$
P20563


 28 31  0  0  0  0  0  0  0  0999 V2000
   -5.5389    5.1975  -18.8114 C   0  0  0  0  0  0  0  0  0  0  0  0
   -6.1832    4.4276  -19.9929 C   0  0  0  0  0  0  0  0  0  0  0  0
   -5.7786    4.3072  -21.1387 O   0  0  0  0  0  0  0  0  0  0  0  0
   -7.3854    3.8939  -19.5343 N   0  0  0  0  0  0  0  0  0  0  0  0
   -7.5706    4.1485  -18.1910 C   0  0  0  0  0  0  0  0  0  0  0  0
   -8.6345    3.7499  -17.4142 C   0  0  0  0  0  0  0  0  0  0  0  0
   -8.6017    4.0859  -16.0589 C   0  0  0  0  0  0  0  0  0  0  0  0
   -7.5479    4.8488  -15.5324 C   0  0  0  0  0  0  0  0  0  0  0  0
   -6.5055    5.2772  -16.3611 C   0  0  0  0  0  0  0  0  0  0  0  0
   -6.5046    4.8887  -17.6900 C   0  0  0  0  0  0  0  0  0  0  0  0
   -8.0224    3.3977  -20.0976 H   0  0  0  0  0  0  0  0  0  0  0  0
   -7.5343    5.3147  -14.1172 C   0  0  0  0  0  0  0  0  0  0  0  0
   -7.0566    6.3565  -13.8910 O   0  0  0  0  0  0  0  0  0  0  0  0
   -8.1665    4.2744  -13.1649 N   0  0  0  0  0  0  0  0  0  0  0  0
   -8.5729    3.4982  -13.6138 H   0  0  0  0  0  0  0  0  0  0  0  0
   -8.2550    4.2563  -11.7736 C   0  0  0  0  0  0  0  0  0  0  0  0
   -8.1491    5.4361  -11.0196 C   0  0  0  0  0  0  0  0  0  0  0  0
   -8.2788    5.4100   -9.6264 C   0  0  0  0  0  0  0  0  0  0  0  0
   -8.5323    4.1958   -9.0162 C   0  0  0  0  0  0  0  0  0  0  0  0
   -8.6238    3.0238   -9.7595 C   0  0  0  0  0  0  0  0  0  0  0  0
   -8.4736    3.0321  -11.1357 C   0  0  0  0  0  0  0  0  0  0  0  0
   -8.8957    1.8801   -8.8393 C   0  0  0  0  0  0  0  0  0  0  0  0
   -9.3230    2.5081   -7.5592 N   0  0  0  0  0  0  0  0  0  0  0  0
   -8.7502    3.8729   -7.5765 C   0  0  0  0  0  0  0  0  0  0  0  0
   -8.9614    1.9800   -6.7651 H   0  0  0  0  0  0  0  0  0  0  0  0
   -3.5186    5.2152  -17.1619 C   0  0  0  0  0  0  0  0  0  0  0  0
   -4.0849    4.8706  -18.5207 C   0  0  0  0  0  0  0  0  0  0  0  0
   -3.3148    4.4010  -19.3624 O   0  0  0  0  0  0  0  0  0  0  0  0
 26 27  1  0  0  0
 27 28  2  0  0  0
  1 27  1  0  0  0
  1  2  1  0  0  0
  2  3  2  0  0  0
  2  4  1  0  0  0
  4  5  1  0  0  0
  5  6  2  0  0  0
  6  7  1  0  0  0
  7  8  2  0  0  0
  8 12  1  0  0  0
 12 13  2  0  0  0
 12 14  1  0  0  0
 14 16  1  0  0  0
 16 17  2  0  0  0
 17 18  1  0  0  0
 18 19  2  0  0  0
 19 20  1  0  0  0
 20 21  2  0  0  0
 20 22  1  0  0  0
 22 23  1  0  0  0
 23 24  1  0  0  0
  8  9  1  0  0  0
  9 10  2  0  0  0
 10  1  1  0  0  0
 10  5  1  0  0  0
 21 16  1  0  0  0
 24 19  1  0  0  0
  4 11  1  0  0  0
 14 15  1  0  0  0
 23 25  1  0  0  0
M  END
> <minimizedAffinity>
-8.73751

> <minimizedRMSD>
0.35523

$$$$
P20564


 29 33  0  0  0  0  0  0  0  0999 V2000
   -2.9301    5.5835  -17.2000 O   0  0  0  0  0  0  0  0  0  0  0  0
   -4.1094    5.3693  -16.9974 C   0  0  0  0  0  0  0  0  0  0  0  0
   -4.7502    5.4366  -15.7365 N   0  0  0  0  0  0  0  0  0  0  0  0
   -5.9799    5.0960  -15.9351 C   0  0  0  0  0  0  0  0  0  0  0  0
   -7.2438    4.9584  -15.1610 C   0  0  0  0  0  0  0  0  0  0  0  0
   -8.3789    4.6185  -15.8397 C   0  0  0  0  0  0  0  0  0  0  0  0
   -8.4352    4.3796  -17.2995 C   0  0  0  0  0  0  0  0  0  0  0  0
  -10.0453    4.2222  -18.1516 Br  0  0  0  0  0  0  0  0  0  0  0  0
   -7.3069    4.4650  -17.9926 C   0  0  0  0  0  0  0  0  0  0  0  0
   -6.1589    4.7841  -17.3039 C   0  0  0  0  0  0  0  0  0  0  0  0
   -5.0777    4.9912  -18.0069 C   0  0  0  0  0  0  0  0  0  0  0  0
   -5.5215    4.7344  -19.3804 C   0  0  0  0  0  0  0  0  0  0  0  0
   -4.8707    4.7833  -20.4047 O   0  0  0  0  0  0  0  0  0  0  0  0
   -6.9001    4.4194  -19.2855 N   0  0  0  0  0  0  0  0  0  0  0  0
   -7.4802    4.1988  -20.0498 H   0  0  0  0  0  0  0  0  0  0  0  0
   -7.3900    5.4512  -13.7654 C   0  0  0  0  0  0  0  0  0  0  0  0
   -7.2796    6.5883  -13.5205 O   0  0  0  0  0  0  0  0  0  0  0  0
   -7.7865    4.2597  -12.8532 N   0  0  0  0  0  0  0  0  0  0  0  0
   -7.8837    3.3981  -13.3194 H   0  0  0  0  0  0  0  0  0  0  0  0
   -8.0273    4.2114  -11.4805 C   0  0  0  0  0  0  0  0  0  0  0  0
   -7.9747    5.3708  -10.6906 C   0  0  0  0  0  0  0  0  0  0  0  0
   -8.2510    5.3173   -9.3195 C   0  0  0  0  0  0  0  0  0  0  0  0
   -8.5854    4.0957   -8.7660 C   0  0  0  0  0  0  0  0  0  0  0  0
   -8.6347    2.9448   -9.5451 C   0  0  0  0  0  0  0  0  0  0  0  0
   -8.3569    2.9819  -10.9017 C   0  0  0  0  0  0  0  0  0  0  0  0
   -8.9910    1.7827   -8.6776 C   0  0  0  0  0  0  0  0  0  0  0  0
   -9.4980    2.3813   -7.4131 N   0  0  0  0  0  0  0  0  0  0  0  0
   -8.9143    3.7401   -7.3551 C   0  0  0  0  0  0  0  0  0  0  0  0
   -9.1949    1.8289   -6.6110 H   0  0  0  0  0  0  0  0  0  0  0  0
  1  2  2  0  0  0
  2  3  1  0  0  0
  3  4  2  0  0  0
  4  5  1  0  0  0
  5 16  1  0  0  0
 16 17  2  0  0  0
 16 18  1  0  0  0
 18 20  1  0  0  0
 20 21  2  0  0  0
 21 22  1  0  0  0
 22 23  2  0  0  0
 23 24  1  0  0  0
 24 25  2  0  0  0
 24 26  1  0  0  0
 26 27  1  0  0  0
 27 28  1  0  0  0
  5  6  2  0  0  0
  6  7  1  0  0  0
  7  8  1  0  0  0
  7  9  2  0  0  0
  9 10  1  0  0  0
 10 11  2  0  0  0
 11 12  1  0  0  0
 12 13  2  0  0  0
 12 14  1  0  0  0
 11  2  1  0  0  0
 10  4  1  0  0  0
 25 20  1  0  0  0
 14  9  1  0  0  0
 28 23  1  0  0  0
 18 19  1  0  0  0
 27 29  1  0  0  0
 14 15  1  0  0  0
M  END
> <minimizedAffinity>
-8.72355

> <minimizedRMSD>
0.30351

$$$$
P20567


 30 34  0  0  0  0  0  0  0  0999 V2000
   -5.6100    4.3515  -20.6330 O   0  0  0  0  0  0  0  0  0  0  0  0
   -6.2723    4.3294  -19.6111 C   0  0  0  0  0  0  0  0  0  0  0  0
   -7.6107    3.9086  -19.4833 N   0  0  0  0  0  0  0  0  0  0  0  0
   -7.9161    4.0574  -18.2394 C   0  0  0  0  0  0  0  0  0  0  0  0
   -9.0842    3.8443  -17.3587 C   0  0  0  0  0  0  0  0  0  0  0  0
   -8.9444    4.1109  -16.0308 C   0  0  0  0  0  0  0  0  0  0  0  0
   -7.7244    4.6685  -15.4025 C   0  0  0  0  0  0  0  0  0  0  0  0
   -6.6478    4.8292  -16.1734 C   0  0  0  0  0  0  0  0  0  0  0  0
   -6.8010    4.5279  -17.5148 C   0  0  0  0  0  0  0  0  0  0  0  0
   -5.7830    4.7089  -18.3029 C   0  0  0  0  0  0  0  0  0  0  0  0
   -4.8461    5.1420  -17.2837 C   0  0  0  0  0  0  0  0  0  0  0  0
   -5.3539    5.2544  -16.0540 N   0  0  0  0  0  0  0  0  0  0  0  0
   -7.6738    5.2089  -14.0131 C   0  0  0  0  0  0  0  0  0  0  0  0
   -7.3110    6.2998  -13.8067 O   0  0  0  0  0  0  0  0  0  0  0  0
   -8.1037    4.0914  -13.0311 N   0  0  0  0  0  0  0  0  0  0  0  0
   -8.2971    3.2234  -13.4535 H   0  0  0  0  0  0  0  0  0  0  0  0
   -8.2613    4.1146  -11.6461 C   0  0  0  0  0  0  0  0  0  0  0  0
   -8.1185    5.3084  -10.9203 C   0  0  0  0  0  0  0  0  0  0  0  0
   -8.2551    5.3230   -9.5279 C   0  0  0  0  0  0  0  0  0  0  0  0
   -8.5512    4.1351   -8.8854 C   0  0  0  0  0  0  0  0  0  0  0  0
   -8.7112    2.9573   -9.6014 C   0  0  0  0  0  0  0  0  0  0  0  0
   -8.5546    2.9233  -10.9788 C   0  0  0  0  0  0  0  0  0  0  0  0
   -9.0836    1.8542   -8.6722 C   0  0  0  0  0  0  0  0  0  0  0  0
   -9.0124    2.4206   -7.2970 N   0  0  0  0  0  0  0  0  0  0  0  0
   -8.7755    3.8739   -7.4373 C   0  0  0  0  0  0  0  0  0  0  0  0
   -8.2461    1.9893   -6.7801 H   0  0  0  0  0  0  0  0  0  0  0  0
   -3.4167    5.4070  -17.6075 C   0  0  0  0  0  0  0  0  0  0  0  0
   -3.2356    6.6338  -18.1648 F   0  0  0  0  0  0  0  0  0  0  0  0
   -2.9176    4.5014  -18.4931 F   0  0  0  0  0  0  0  0  0  0  0  0
   -2.6149    5.3517  -16.5088 F   0  0  0  0  0  0  0  0  0  0  0  0
  1  2  2  0  0  0
  2  3  1  0  0  0
  3  4  2  0  0  0
  4  5  1  0  0  0
  5  6  2  0  0  0
  6  7  1  0  0  0
  7 13  1  0  0  0
 13 14  2  0  0  0
 13 15  1  0  0  0
 15 17  1  0  0  0
 17 18  2  0  0  0
 18 19  1  0  0  0
 19 20  2  0  0  0
 20 21  1  0  0  0
 21 22  2  0  0  0
 21 23  1  0  0  0
 23 24  1  0  0  0
 24 25  1  0  0  0
  7  8  2  0  0  0
  8  9  1  0  0  0
  9 10  2  0  0  0
 10 11  1  0  0  0
 11 27  1  0  0  0
 27 28  1  0  0  0
 27 29  1  0  0  0
 27 30  1  0  0  0
 11 12  2  0  0  0
 10  2  1  0  0  0
  9  4  1  0  0  0
 22 17  1  0  0  0
 12  8  1  0  0  0
 25 20  1  0  0  0
 15 16  1  0  0  0
 24 26  1  0  0  0
M  END
> <minimizedAffinity>
-9.04982

> <minimizedRMSD>
0.24486

$$$$
P20568


 28 32  0  0  0  0  0  0  0  0999 V2000
   -2.8728    6.0392  -16.5199 C   0  0  0  0  0  0  0  0  0  0  0  0
   -4.2973    5.6174  -16.4028 C   0  0  0  0  0  0  0  0  0  0  0  0
   -4.9236    5.6423  -15.2318 N   0  0  0  0  0  0  0  0  0  0  0  0
   -6.1766    5.1533  -15.4956 C   0  0  0  0  0  0  0  0  0  0  0  0
   -7.3278    4.9399  -14.8523 C   0  0  0  0  0  0  0  0  0  0  0  0
   -8.4730    4.3963  -15.6213 C   0  0  0  0  0  0  0  0  0  0  0  0
   -8.4413    4.1615  -16.9560 C   0  0  0  0  0  0  0  0  0  0  0  0
   -9.8094    3.7259  -17.8481 Cl  0  0  0  0  0  0  0  0  0  0  0  0
   -7.1927    4.4079  -17.7085 C   0  0  0  0  0  0  0  0  0  0  0  0
   -6.1703    4.8769  -16.8545 C   0  0  0  0  0  0  0  0  0  0  0  0
   -5.0939    5.1567  -17.5317 C   0  0  0  0  0  0  0  0  0  0  0  0
   -5.4417    4.8087  -18.9005 C   0  0  0  0  0  0  0  0  0  0  0  0
   -4.7001    4.9223  -19.8601 O   0  0  0  0  0  0  0  0  0  0  0  0
   -6.7624    4.3304  -18.9228 N   0  0  0  0  0  0  0  0  0  0  0  0
   -7.5035    5.4429  -13.4630 C   0  0  0  0  0  0  0  0  0  0  0  0
   -7.4513    6.5826  -13.2132 O   0  0  0  0  0  0  0  0  0  0  0  0
   -7.8451    4.2314  -12.5593 N   0  0  0  0  0  0  0  0  0  0  0  0
   -7.8966    3.3679  -13.0295 H   0  0  0  0  0  0  0  0  0  0  0  0
   -8.0909    4.1653  -11.1904 C   0  0  0  0  0  0  0  0  0  0  0  0
   -7.9618    5.3011  -10.3747 C   0  0  0  0  0  0  0  0  0  0  0  0
   -8.2271    5.2318   -9.0035 C   0  0  0  0  0  0  0  0  0  0  0  0
   -8.6399    4.0218   -8.4795 C   0  0  0  0  0  0  0  0  0  0  0  0
   -8.7727    2.8968   -9.2869 C   0  0  0  0  0  0  0  0  0  0  0  0
   -8.4923    2.9450  -10.6416 C   0  0  0  0  0  0  0  0  0  0  0  0
   -9.2214    1.7453   -8.4501 C   0  0  0  0  0  0  0  0  0  0  0  0
   -9.6866    2.3515   -7.1729 N   0  0  0  0  0  0  0  0  0  0  0  0
   -8.9922    3.6550   -7.0774 C   0  0  0  0  0  0  0  0  0  0  0  0
   -9.4364    1.7557   -6.3837 H   0  0  0  0  0  0  0  0  0  0  0  0
  1  2  1  0  0  0
  2  3  2  0  0  0
  3  4  1  0  0  0
  4  5  2  0  0  0
  5 15  1  0  0  0
 15 16  2  0  0  0
 15 17  1  0  0  0
 17 19  1  0  0  0
 19 20  2  0  0  0
 20 21  1  0  0  0
 21 22  2  0  0  0
 22 23  1  0  0  0
 23 24  2  0  0  0
 23 25  1  0  0  0
 25 26  1  0  0  0
 26 27  1  0  0  0
  5  6  1  0  0  0
  6  7  2  0  0  0
  7  8  1  0  0  0
  7  9  1  0  0  0
  9 10  1  0  0  0
 10 11  2  0  0  0
 11 12  1  0  0  0
 12 13  2  0  0  0
 12 14  1  0  0  0
 11  2  1  0  0  0
 10  4  1  0  0  0
 24 19  1  0  0  0
 14  9  2  0  0  0
 27 22  1  0  0  0
 17 18  1  0  0  0
 26 28  1  0  0  0
M  END
> <minimizedAffinity>
-8.70516

> <minimizedRMSD>
0.31429

$$$$
P20569


 40 44  0  0  0  0  0  0  0  0999 V2000
   -8.1209    5.6582  -13.8678 C   0  0  0  0  0  0  0  0  0  0  0  0
   -9.5544    5.7846  -13.7863 O   0  0  0  0  0  0  0  0  0  0  0  0
   -9.8116    5.9637  -12.8683 H   0  0  0  0  0  0  0  0  0  0  0  0
   -7.8818    5.3712  -15.4172 C   0  0  0  0  0  0  0  0  0  0  0  0
   -8.7649    4.1514  -15.8551 C   0  0  0  0  0  0  0  0  0  0  0  0
   -8.8319    3.8351  -17.3542 C   0  0  0  0  0  0  0  0  0  0  0  0
  -10.2199    4.5320  -18.2070 Cl  0  0  0  0  0  0  0  0  0  0  0  0
   -7.5931    4.2381  -18.0532 C   0  0  0  0  0  0  0  0  0  0  0  0
   -6.5364    4.8729  -17.5326 C   0  0  0  0  0  0  0  0  0  0  0  0
   -5.4692    5.0322  -18.6065 C   0  0  0  0  0  0  0  0  0  0  0  0
   -6.1545    4.3719  -19.8029 C   0  0  0  0  0  0  0  0  0  0  0  0
   -5.7106    4.2227  -20.9303 O   0  0  0  0  0  0  0  0  0  0  0  0
   -7.3878    3.9461  -19.3666 N   0  0  0  0  0  0  0  0  0  0  0  0
   -6.4255    5.3779  -16.0820 C   0  0  0  0  0  0  0  0  0  0  0  0
   -5.3483    4.6039  -15.3098 C   0  0  0  0  0  0  0  0  0  0  0  0
   -4.3416    5.5729  -14.8695 N   0  0  0  0  0  0  0  0  0  0  0  0
   -4.3494    6.5907  -15.8639 N   0  0  0  0  0  0  0  0  0  0  0  0
   -5.7786    6.7897  -16.1141 C   0  0  0  0  0  0  0  0  0  0  0  0
   -8.0443    3.4846  -19.9370 H   0  0  0  0  0  0  0  0  0  0  0  0
   -3.4225    5.1342  -14.8129 H   0  0  0  0  0  0  0  0  0  0  0  0
   -3.8680    6.2825  -16.7087 H   0  0  0  0  0  0  0  0  0  0  0  0
   -8.6115    7.9756  -12.9967 N   0  0  0  0  0  0  0  0  0  0  0  0
   -7.4434    6.9817  -13.2771 C   0  0  0  0  0  0  0  0  0  0  0  0
   -6.2938    7.0949  -13.0975 O   0  0  0  0  0  0  0  0  0  0  0  0
   -9.4945    7.6732  -13.3100 H   0  0  0  0  0  0  0  0  0  0  0  0
   -8.6081    9.2630  -12.3546 C   0  0  0  0  0  0  0  0  0  0  0  0
   -7.0993   10.6797  -13.8200 C   0  0  0  0  0  0  0  0  0  0  0  0
   -8.5169   10.4285  -13.3316 C   0  0  0  0  0  0  0  0  0  0  0  0
   -7.8126    4.4904  -13.0135 N   0  0  0  0  0  0  0  0  0  0  0  0
   -7.4264    3.6966  -13.4495 H   0  0  0  0  0  0  0  0  0  0  0  0
   -8.0306    4.4287  -11.6199 C   0  0  0  0  0  0  0  0  0  0  0  0
   -8.0092    5.5442  -10.7545 C   0  0  0  0  0  0  0  0  0  0  0  0
   -8.2147    5.4298   -9.3733 C   0  0  0  0  0  0  0  0  0  0  0  0
   -8.5060    4.1874   -8.8598 C   0  0  0  0  0  0  0  0  0  0  0  0
   -8.5849    3.0785   -9.6908 C   0  0  0  0  0  0  0  0  0  0  0  0
   -8.3274    3.1760  -11.0543 C   0  0  0  0  0  0  0  0  0  0  0  0
   -8.9697    1.8914   -8.8678 C   0  0  0  0  0  0  0  0  0  0  0  0
   -9.4171    2.4455   -7.5576 N   0  0  0  0  0  0  0  0  0  0  0  0
   -8.7748    3.7714   -7.4543 C   0  0  0  0  0  0  0  0  0  0  0  0
   -9.1152    1.8419   -6.7928 H   0  0  0  0  0  0  0  0  0  0  0  0
 27 28  1  0  0  0
 28 26  1  0  0  0
 26 22  1  0  0  0
 22 23  1  0  0  0
 23 24  2  0  0  0
 23  1  1  0  0  0
  1  2  1  0  0  0
  1 29  1  0  0  0
 29 31  1  0  0  0
 31 32  2  0  0  0
 32 33  1  0  0  0
 33 34  2  0  0  0
 34 35  1  0  0  0
 35 36  2  0  0  0
 35 37  1  0  0  0
 37 38  1  0  0  0
 38 39  1  0  0  0
  1  4  1  0  0  0
  4  5  1  0  0  0
  5  6  1  0  0  0
  6  7  1  0  0  0
  6  8  1  0  0  0
  8  9  2  0  0  0
  9 10  1  0  0  0
 10 11  1  0  0  0
 11 12  2  0  0  0
 11 13  1  0  0  0
  9 14  1  0  0  0
 14 15  1  0  0  0
 15 16  1  0  0  0
 16 17  1  0  0  0
 17 18  1  0  0  0
 36 31  1  0  0  0
 14  4  1  0  0  0
 39 34  1  0  0  0
 13  8  1  0  0  0
 18 14  1  0  0  0
 22 25  1  0  0  0
  2  3  1  0  0  0
 29 30  1  0  0  0
 38 40  1  0  0  0
 13 19  1  0  0  0
 16 20  1  0  0  0
 17 21  1  0  0  0
M  END
> <minimizedAffinity>
-7.84556

> <minimizedRMSD>
0.70632

$$$$
P20570


 29 33  0  0  0  0  0  0  0  0999 V2000
   -6.8530    4.7324  -15.1468 C   0  0  0  0  0  0  0  0  0  0  0  0
   -8.1194    4.3859  -15.7255 C   0  0  0  0  0  0  0  0  0  0  0  0
   -8.3119    4.2596  -17.1210 C   0  0  0  0  0  0  0  0  0  0  0  0
   -9.8506    4.0922  -17.8028 Cl  0  0  0  0  0  0  0  0  0  0  0  0
   -7.2389    4.4114  -17.9462 C   0  0  0  0  0  0  0  0  0  0  0  0
   -6.0666    4.7739  -17.3677 C   0  0  0  0  0  0  0  0  0  0  0  0
   -5.0297    5.0447  -18.2209 C   0  0  0  0  0  0  0  0  0  0  0  0
   -4.0073    5.4418  -17.4012 C   0  0  0  0  0  0  0  0  0  0  0  0
   -4.4957    5.3926  -16.0705 N   0  0  0  0  0  0  0  0  0  0  0  0
   -5.8125    4.9729  -16.0521 C   0  0  0  0  0  0  0  0  0  0  0  0
   -5.5816    4.7844  -19.5540 C   0  0  0  0  0  0  0  0  0  0  0  0
   -5.0206    4.8654  -20.6342 O   0  0  0  0  0  0  0  0  0  0  0  0
   -6.9441    4.3955  -19.3216 N   0  0  0  0  0  0  0  0  0  0  0  0
   -3.9701    5.6251  -15.2712 H   0  0  0  0  0  0  0  0  0  0  0  0
   -7.5845    4.1510  -20.0283 H   0  0  0  0  0  0  0  0  0  0  0  0
   -5.9060    5.7548  -13.3440 O   0  0  0  0  0  0  0  0  0  0  0  0
   -6.7013    4.9722  -13.6938 C   0  0  0  0  0  0  0  0  0  0  0  0
   -7.7100    4.1281  -12.8718 N   0  0  0  0  0  0  0  0  0  0  0  0
   -8.2274    3.4766  -13.3981 H   0  0  0  0  0  0  0  0  0  0  0  0
   -8.0032    4.1420  -11.5086 C   0  0  0  0  0  0  0  0  0  0  0  0
   -7.9240    5.3239  -10.7581 C   0  0  0  0  0  0  0  0  0  0  0  0
   -8.2346    5.3287   -9.3936 C   0  0  0  0  0  0  0  0  0  0  0  0
   -8.5974    4.1354   -8.7974 C   0  0  0  0  0  0  0  0  0  0  0  0
   -8.6784    2.9622   -9.5360 C   0  0  0  0  0  0  0  0  0  0  0  0
   -8.4008    2.9480  -10.8949 C   0  0  0  0  0  0  0  0  0  0  0  0
   -9.1163    1.8500   -8.6448 C   0  0  0  0  0  0  0  0  0  0  0  0
   -9.0576    2.3866   -7.2571 N   0  0  0  0  0  0  0  0  0  0  0  0
   -8.9715    3.8580   -7.3826 C   0  0  0  0  0  0  0  0  0  0  0  0
   -8.2356    2.0249   -6.7734 H   0  0  0  0  0  0  0  0  0  0  0  0
 16 17  2  0  0  0
 17 18  1  0  0  0
 18 20  1  0  0  0
 20 21  2  0  0  0
 21 22  1  0  0  0
 22 23  2  0  0  0
 23 24  1  0  0  0
 24 25  2  0  0  0
 24 26  1  0  0  0
 26 27  1  0  0  0
 27 28  1  0  0  0
 17  1  1  0  0  0
  1  2  2  0  0  0
  2  3  1  0  0  0
  3  4  1  0  0  0
  3  5  2  0  0  0
  5  6  1  0  0  0
  6  7  1  0  0  0
  7  8  2  0  0  0
  8  9  1  0  0  0
  9 10  1  0  0  0
  7 11  1  0  0  0
 11 12  2  0  0  0
 11 13  1  0  0  0
 25 20  1  0  0  0
 10  1  1  0  0  0
 28 23  1  0  0  0
 13  5  1  0  0  0
 10  6  2  0  0  0
 18 19  1  0  0  0
 27 29  1  0  0  0
  9 14  1  0  0  0
 13 15  1  0  0  0
M  END
> <minimizedAffinity>
-8.90673

> <minimizedRMSD>
0.48928

$$$$
P20576


 33 38  0  0  0  0  0  0  0  0999 V2000
   -6.0852    4.1137  -21.0591 O   0  0  0  0  0  0  0  0  0  0  0  0
   -6.5800    4.1693  -19.9458 C   0  0  0  0  0  0  0  0  0  0  0  0
   -7.8588    3.7179  -19.5891 N   0  0  0  0  0  0  0  0  0  0  0  0
   -7.9780    3.9369  -18.3243 C   0  0  0  0  0  0  0  0  0  0  0  0
   -8.9812    3.7588  -17.2626 C   0  0  0  0  0  0  0  0  0  0  0  0
  -10.1842    3.3060  -17.6392 F   0  0  0  0  0  0  0  0  0  0  0  0
   -8.6740    4.0669  -15.9809 C   0  0  0  0  0  0  0  0  0  0  0  0
   -7.3565    4.6285  -15.5546 C   0  0  0  0  0  0  0  0  0  0  0  0
   -6.4306    4.8388  -16.5044 C   0  0  0  0  0  0  0  0  0  0  0  0
   -6.7927    4.4972  -17.8005 C   0  0  0  0  0  0  0  0  0  0  0  0
   -5.9256    4.6726  -18.7548 C   0  0  0  0  0  0  0  0  0  0  0  0
   -4.8533    5.2044  -17.9352 C   0  0  0  0  0  0  0  0  0  0  0  0
   -5.1446    5.3161  -16.6349 N   0  0  0  0  0  0  0  0  0  0  0  0
   -3.5440    5.5456  -18.5167 C   0  0  0  0  0  0  0  0  0  0  0  0
   -3.4135    6.0942  -19.7969 C   0  0  0  0  0  0  0  0  0  0  0  0
   -2.1437    6.3545  -20.3176 C   0  0  0  0  0  0  0  0  0  0  0  0
   -1.0051    6.0845  -19.5603 C   0  0  0  0  0  0  0  0  0  0  0  0
   -1.1312    5.5554  -18.2783 C   0  0  0  0  0  0  0  0  0  0  0  0
   -2.3979    5.2824  -17.7591 C   0  0  0  0  0  0  0  0  0  0  0  0
   -7.1600    5.0963  -14.1417 C   0  0  0  0  0  0  0  0  0  0  0  0
   -6.6776    6.1349  -13.9035 O   0  0  0  0  0  0  0  0  0  0  0  0
   -7.7871    4.0334  -13.1916 N   0  0  0  0  0  0  0  0  0  0  0  0
   -8.0606    3.1966  -13.6322 H   0  0  0  0  0  0  0  0  0  0  0  0
   -8.0247    4.0748  -11.8140 C   0  0  0  0  0  0  0  0  0  0  0  0
   -8.0103    5.2837  -11.1007 C   0  0  0  0  0  0  0  0  0  0  0  0
   -8.2703    5.3108   -9.7234 C   0  0  0  0  0  0  0  0  0  0  0  0
   -8.5573    4.1192   -9.0831 C   0  0  0  0  0  0  0  0  0  0  0  0
   -8.5826    2.9197   -9.7845 C   0  0  0  0  0  0  0  0  0  0  0  0
   -8.3107    2.8773  -11.1449 C   0  0  0  0  0  0  0  0  0  0  0  0
   -8.9101    1.8083   -8.8399 C   0  0  0  0  0  0  0  0  0  0  0  0
   -9.3952    2.4750   -7.5999 N   0  0  0  0  0  0  0  0  0  0  0  0
   -8.8446    3.8473   -7.6445 C   0  0  0  0  0  0  0  0  0  0  0  0
   -9.0555    1.9817   -6.7743 H   0  0  0  0  0  0  0  0  0  0  0  0
  1  2  2  0  0  0
  2  3  1  0  0  0
  3  4  2  0  0  0
  4  5  1  0  0  0
  5  6  1  0  0  0
  5  7  2  0  0  0
  7  8  1  0  0  0
  8 20  1  0  0  0
 20 21  2  0  0  0
 20 22  1  0  0  0
 22 24  1  0  0  0
 24 25  2  0  0  0
 25 26  1  0  0  0
 26 27  2  0  0  0
 27 28  1  0  0  0
 28 29  2  0  0  0
 28 30  1  0  0  0
 30 31  1  0  0  0
 31 32  1  0  0  0
  8  9  2  0  0  0
  9 10  1  0  0  0
 10 11  2  0  0  0
 11 12  1  0  0  0
 12 14  1  0  0  0
 14 15  2  0  0  0
 15 16  1  0  0  0
 16 17  2  0  0  0
 17 18  1  0  0  0
 18 19  2  0  0  0
 12 13  2  0  0  0
 11  2  1  0  0  0
 19 14  1  0  0  0
 10  4  1  0  0  0
 29 24  1  0  0  0
 13  9  1  0  0  0
 32 27  1  0  0  0
 22 23  1  0  0  0
 31 33  1  0  0  0
M  END
> <minimizedAffinity>
-9.63505

> <minimizedRMSD>
0.26515

$$$$
P20580


 31 36  0  0  0  0  0  0  0  0999 V2000
   -7.0120    6.2050  -13.8038 O   0  0  0  0  0  0  0  0  0  0  0  0
   -7.4733    5.1564  -14.0329 C   0  0  0  0  0  0  0  0  0  0  0  0
   -8.1233    4.1197  -13.0883 N   0  0  0  0  0  0  0  0  0  0  0  0
   -8.5094    3.3351  -13.5406 H   0  0  0  0  0  0  0  0  0  0  0  0
   -7.5084    4.7043  -15.4522 C   0  0  0  0  0  0  0  0  0  0  0  0
   -8.6387    4.0497  -15.9785 C   0  0  0  0  0  0  0  0  0  0  0  0
   -8.7299    3.7563  -17.3413 C   0  0  0  0  0  0  0  0  0  0  0  0
   -7.6692    4.1240  -18.1364 C   0  0  0  0  0  0  0  0  0  0  0  0
   -6.5439    4.7780  -17.6362 C   0  0  0  0  0  0  0  0  0  0  0  0
   -6.4443    5.0659  -16.2854 C   0  0  0  0  0  0  0  0  0  0  0  0
   -5.6260    5.1186  -18.7860 C   0  0  0  0  0  0  0  0  0  0  0  0
   -5.5985    6.6149  -19.0264 C   0  0  0  0  0  0  0  0  0  0  0  0
   -4.4281    7.0761  -18.1936 C   0  0  0  0  0  0  0  0  0  0  0  0
   -3.4568    6.0378  -18.2843 O   0  0  0  0  0  0  0  0  0  0  0  0
   -4.1533    4.8078  -18.5840 C   0  0  0  0  0  0  0  0  0  0  0  0
   -6.3063    4.3732  -19.9630 C   0  0  0  0  0  0  0  0  0  0  0  0
   -5.8910    4.2194  -21.1015 O   0  0  0  0  0  0  0  0  0  0  0  0
   -7.5329    3.9075  -19.4959 N   0  0  0  0  0  0  0  0  0  0  0  0
   -8.2157    3.4791  -20.0610 H   0  0  0  0  0  0  0  0  0  0  0  0
   -8.2520    4.1147  -11.6980 C   0  0  0  0  0  0  0  0  0  0  0  0
   -8.5405    2.8777  -11.0802 C   0  0  0  0  0  0  0  0  0  0  0  0
   -8.7014    2.8435   -9.7118 C   0  0  0  0  0  0  0  0  0  0  0  0
   -8.5715    4.0308   -9.0290 C   0  0  0  0  0  0  0  0  0  0  0  0
   -8.7432    3.9475   -7.6613 C   0  0  0  0  0  0  0  0  0  0  0  0
   -8.5317    5.1399   -7.0416 C   0  0  0  0  0  0  0  0  0  0  0  0
   -8.1704    6.3676   -8.2489 S   0  0  0  0  0  0  0  0  0  0  0  0
   -8.2667    5.2462   -9.5668 C   0  0  0  0  0  0  0  0  0  0  0  0
   -8.1043    5.3202  -10.9567 C   0  0  0  0  0  0  0  0  0  0  0  0
   -9.0456    2.6524   -7.3509 N   0  0  0  0  0  0  0  0  0  0  0  0
   -8.9798    1.8133   -8.6561 C   0  0  0  0  0  0  0  0  0  0  0  0
   -9.2669    2.3099   -6.4549 H   0  0  0  0  0  0  0  0  0  0  0  0
  1  2  2  0  0  0
  2  3  1  0  0  0
  3 20  1  0  0  0
 20 21  2  0  0  0
 21 22  1  0  0  0
 22 23  2  0  0  0
 23 24  1  0  0  0
 24 25  2  0  0  0
 25 26  1  0  0  0
 26 27  1  0  0  0
 27 28  2  0  0  0
 24 29  1  0  0  0
 29 30  1  0  0  0
  2  5  1  0  0  0
  5  6  2  0  0  0
  6  7  1  0  0  0
  7  8  2  0  0  0
  8  9  1  0  0  0
  9 10  2  0  0  0
  9 11  1  0  0  0
 11 12  1  0  0  0
 12 13  1  0  0  0
 13 14  1  0  0  0
 14 15  1  0  0  0
 11 16  1  0  0  0
 16 17  2  0  0  0
 16 18  1  0  0  0
 28 20  1  0  0  0
 10  5  1  0  0  0
 15 11  1  0  0  0
 30 22  1  0  0  0
 18  8  1  0  0  0
 27 23  1  0  0  0
  3  4  1  0  0  0
 29 31  1  0  0  0
 18 19  1  0  0  0
M  END
> <minimizedAffinity>
-9.70577

> <minimizedRMSD>
0.27530

$$$$
P20581


 28 31  0  0  0  0  0  0  0  0999 V2000
   -8.0189    4.1258  -13.0426 N   0  0  0  0  0  0  0  0  0  0  0  0
   -6.9886    4.8260  -13.9662 C   0  0  0  0  0  0  0  0  0  0  0  0
   -6.1009    5.5397  -13.7062 O   0  0  0  0  0  0  0  0  0  0  0  0
   -8.6303    3.5061  -13.5023 H   0  0  0  0  0  0  0  0  0  0  0  0
   -7.2256    4.5381  -15.4140 C   0  0  0  0  0  0  0  0  0  0  0  0
   -8.4864    4.1142  -15.8754 C   0  0  0  0  0  0  0  0  0  0  0  0
   -8.7147    3.9474  -17.2378 C   0  0  0  0  0  0  0  0  0  0  0  0
   -9.9202    3.5914  -17.6948 F   0  0  0  0  0  0  0  0  0  0  0  0
   -7.6766    4.1696  -18.1089 C   0  0  0  0  0  0  0  0  0  0  0  0
   -6.4329    4.6167  -17.6760 C   0  0  0  0  0  0  0  0  0  0  0  0
   -6.1903    4.8157  -16.3275 C   0  0  0  0  0  0  0  0  0  0  0  0
   -5.5414    4.8039  -18.8667 C   0  0  0  0  0  0  0  0  0  0  0  0
   -6.4184    4.2738  -20.0117 C   0  0  0  0  0  0  0  0  0  0  0  0
   -6.0934    4.1303  -21.1806 O   0  0  0  0  0  0  0  0  0  0  0  0
   -7.6612    3.9705  -19.4778 N   0  0  0  0  0  0  0  0  0  0  0  0
   -8.4314    3.6550  -20.0035 H   0  0  0  0  0  0  0  0  0  0  0  0
   -8.2662    5.4404  -10.9230 C   0  0  0  0  0  0  0  0  0  0  0  0
   -8.4296    5.4162   -9.5211 C   0  0  0  0  0  0  0  0  0  0  0  0
   -8.6071    4.2029   -8.8851 C   0  0  0  0  0  0  0  0  0  0  0  0
   -8.6158    3.0193   -9.6063 C   0  0  0  0  0  0  0  0  0  0  0  0
   -8.4172    3.0144  -10.9784 C   0  0  0  0  0  0  0  0  0  0  0  0
   -8.2217    4.2320  -11.6562 C   0  0  0  0  0  0  0  0  0  0  0  0
   -8.8542    1.8791   -8.6693 C   0  0  0  0  0  0  0  0  0  0  0  0
   -9.3356    2.5094   -7.4098 N   0  0  0  0  0  0  0  0  0  0  0  0
   -8.8353    3.8995   -7.4426 C   0  0  0  0  0  0  0  0  0  0  0  0
   -8.9616    2.0157   -6.5994 H   0  0  0  0  0  0  0  0  0  0  0  0
   -8.4213    7.7296  -12.1318 N   0  0  0  0  0  0  0  0  0  0  0  0
   -8.3222    6.7401  -11.5292 C   0  0  0  0  0  0  0  0  0  0  0  0
 27 28  3  0  0  0
 28 17  1  0  0  0
 17 18  2  0  0  0
 18 19  1  0  0  0
 19 20  2  0  0  0
 20 21  1  0  0  0
 21 22  2  0  0  0
 22  1  1  0  0  0
  1  2  1  0  0  0
  2  3  2  0  0  0
  2  5  1  0  0  0
  5  6  2  0  0  0
  6  7  1  0  0  0
  7  8  1  0  0  0
  7  9  2  0  0  0
  9 10  1  0  0  0
 10 11  2  0  0  0
 10 12  1  0  0  0
 12 13  1  0  0  0
 13 14  2  0  0  0
 13 15  1  0  0  0
 20 23  1  0  0  0
 23 24  1  0  0  0
 24 25  1  0  0  0
 22 17  1  0  0  0
 11  5  1  0  0  0
 25 19  1  0  0  0
 15  9  1  0  0  0
  1  4  1  0  0  0
 15 16  1  0  0  0
 24 26  1  0  0  0
M  END
> <minimizedAffinity>
-8.67995

> <minimizedRMSD>
0.28121

$$$$
P20582


 35 40  0  0  0  0  0  0  0  0999 V2000
   -4.8231    5.1408  -17.9548 C   0  0  0  0  0  0  0  0  0  0  0  0
   -5.1212    5.2245  -16.6495 N   0  0  0  0  0  0  0  0  0  0  0  0
   -6.4114    4.7626  -16.5213 C   0  0  0  0  0  0  0  0  0  0  0  0
   -7.3515    4.5955  -15.5768 C   0  0  0  0  0  0  0  0  0  0  0  0
   -8.6954    4.1084  -16.0099 C   0  0  0  0  0  0  0  0  0  0  0  0
   -9.0113    3.8293  -17.2961 C   0  0  0  0  0  0  0  0  0  0  0  0
  -10.2395    3.4642  -17.6833 F   0  0  0  0  0  0  0  0  0  0  0  0
   -7.9941    3.9586  -18.3537 C   0  0  0  0  0  0  0  0  0  0  0  0
   -6.7755    4.4295  -17.8173 C   0  0  0  0  0  0  0  0  0  0  0  0
   -5.9031    4.6044  -18.7674 C   0  0  0  0  0  0  0  0  0  0  0  0
   -6.5832    4.1669  -19.9689 C   0  0  0  0  0  0  0  0  0  0  0  0
   -6.0934    4.1217  -21.0834 O   0  0  0  0  0  0  0  0  0  0  0  0
   -7.8838    3.7653  -19.6239 N   0  0  0  0  0  0  0  0  0  0  0  0
   -1.7386    6.6355  -19.6163 C   0  0  0  0  0  0  0  0  0  0  0  0
   -1.3618    6.0022  -18.5242 N   0  0  0  0  0  0  0  0  0  0  0  0
   -2.4181    5.3957  -17.8767 N   0  0  0  0  0  0  0  0  0  0  0  0
   -3.5649    5.5943  -18.4933 C   0  0  0  0  0  0  0  0  0  0  0  0
   -3.4223    6.4926  -19.9445 S   0  0  0  0  0  0  0  0  0  0  0  0
   -0.3730    6.6795  -21.7319 C   0  0  0  0  0  0  0  0  0  0  0  0
   -0.7994    7.4363  -20.4782 C   0  0  0  0  0  0  0  0  0  0  0  0
   -1.3735    8.8092  -20.8297 C   0  0  0  0  0  0  0  0  0  0  0  0
   -7.1372    5.0607  -14.1670 C   0  0  0  0  0  0  0  0  0  0  0  0
   -6.6113    6.0785  -13.9326 O   0  0  0  0  0  0  0  0  0  0  0  0
   -7.8088    4.0294  -13.2140 N   0  0  0  0  0  0  0  0  0  0  0  0
   -8.1172    3.2033  -13.6517 H   0  0  0  0  0  0  0  0  0  0  0  0
   -8.0451    4.0859  -11.8372 C   0  0  0  0  0  0  0  0  0  0  0  0
   -8.0231    5.3023  -11.1369 C   0  0  0  0  0  0  0  0  0  0  0  0
   -8.2614    5.3429   -9.7563 C   0  0  0  0  0  0  0  0  0  0  0  0
   -8.5418    4.1579   -9.1012 C   0  0  0  0  0  0  0  0  0  0  0  0
   -8.5834    2.9522   -9.7915 C   0  0  0  0  0  0  0  0  0  0  0  0
   -8.3245    2.8951  -11.1537 C   0  0  0  0  0  0  0  0  0  0  0  0
   -8.9116    1.8523   -8.8339 C   0  0  0  0  0  0  0  0  0  0  0  0
   -9.3728    2.5345   -7.5929 N   0  0  0  0  0  0  0  0  0  0  0  0
   -8.8053    3.8992   -7.6560 C   0  0  0  0  0  0  0  0  0  0  0  0
   -9.0289    2.0435   -6.7677 H   0  0  0  0  0  0  0  0  0  0  0  0
 19 20  1  0  0  0
 20 21  1  0  0  0
 20 14  1  0  0  0
 14 15  2  0  0  0
 15 16  1  0  0  0
 16 17  2  0  0  0
 17  1  1  0  0  0
  1  2  2  0  0  0
  2  3  1  0  0  0
  3  4  2  0  0  0
  4 22  1  0  0  0
 22 23  2  0  0  0
 22 24  1  0  0  0
 24 26  1  0  0  0
 26 27  2  0  0  0
 27 28  1  0  0  0
 28 29  2  0  0  0
 29 30  1  0  0  0
 30 31  2  0  0  0
 30 32  1  0  0  0
 32 33  1  0  0  0
 33 34  1  0  0  0
  4  5  1  0  0  0
  5  6  2  0  0  0
  6  7  1  0  0  0
  6  8  1  0  0  0
  8  9  1  0  0  0
  9 10  2  0  0  0
 10 11  1  0  0  0
 11 12  2  0  0  0
 11 13  1  0  0  0
 17 18  1  0  0  0
 18 14  1  0  0  0
 10  1  1  0  0  0
  9  3  1  0  0  0
 31 26  1  0  0  0
 13  8  2  0  0  0
 34 29  1  0  0  0
 24 25  1  0  0  0
 33 35  1  0  0  0
M  END
> <minimizedAffinity>
-8.86545

> <minimizedRMSD>
0.53937

$$$$
P20585


 37 40  0  0  0  0  0  0  0  0999 V2000
   -6.4852    4.8076  -13.3839 C   0  0  0  0  0  0  0  0  0  0  0  0
   -6.3188    6.1946  -13.1443 O   0  0  0  0  0  0  0  0  0  0  0  0
   -7.0123    6.6885  -13.6091 H   0  0  0  0  0  0  0  0  0  0  0  0
   -5.3889    5.0986  -15.7962 C   0  0  0  0  0  0  0  0  0  0  0  0
   -6.4883    4.7176  -14.9409 C   0  0  0  0  0  0  0  0  0  0  0  0
   -7.7267    4.3823  -15.5572 C   0  0  0  0  0  0  0  0  0  0  0  0
   -7.8665    4.3353  -16.9354 C   0  0  0  0  0  0  0  0  0  0  0  0
   -9.5282    4.1551  -17.7432 Br  0  0  0  0  0  0  0  0  0  0  0  0
   -6.7744    4.5691  -17.7202 C   0  0  0  0  0  0  0  0  0  0  0  0
   -5.5608    4.9832  -17.1895 C   0  0  0  0  0  0  0  0  0  0  0  0
   -4.6491    5.2579  -18.3647 C   0  0  0  0  0  0  0  0  0  0  0  0
   -5.4672    4.8038  -19.5743 C   0  0  0  0  0  0  0  0  0  0  0  0
   -5.1046    4.7495  -20.7387 O   0  0  0  0  0  0  0  0  0  0  0  0
   -6.7108    4.4570  -19.1009 N   0  0  0  0  0  0  0  0  0  0  0  0
   -7.4601    4.1663  -19.6694 H   0  0  0  0  0  0  0  0  0  0  0  0
   -3.7370    7.0609  -15.2663 C   0  0  0  0  0  0  0  0  0  0  0  0
   -4.0914    5.5866  -15.1957 C   0  0  0  0  0  0  0  0  0  0  0  0
   -5.3979    3.8539  -12.6705 C   0  0  0  0  0  0  0  0  0  0  0  0
   -5.3771    2.6899  -12.7805 O   0  0  0  0  0  0  0  0  0  0  0  0
   -4.4530    4.8097  -11.8829 N   0  0  0  0  0  0  0  0  0  0  0  0
   -4.6369    5.7685  -12.0100 H   0  0  0  0  0  0  0  0  0  0  0  0
   -3.3510    4.5174  -10.9965 C   0  0  0  0  0  0  0  0  0  0  0  0
   -2.2970    3.5954  -11.6028 C   0  0  0  0  0  0  0  0  0  0  0  0
   -1.1118    3.7889  -10.9660 F   0  0  0  0  0  0  0  0  0  0  0  0
   -2.0872    3.9342  -12.9043 F   0  0  0  0  0  0  0  0  0  0  0  0
   -7.8136    4.4607  -12.8263 N   0  0  0  0  0  0  0  0  0  0  0  0
   -8.5638    4.2749  -13.4362 H   0  0  0  0  0  0  0  0  0  0  0  0
   -8.0162    4.3932  -11.4266 C   0  0  0  0  0  0  0  0  0  0  0  0
   -7.9710    5.5188  -10.5776 C   0  0  0  0  0  0  0  0  0  0  0  0
   -8.2404    5.4273   -9.2052 C   0  0  0  0  0  0  0  0  0  0  0  0
   -8.5790    4.1973   -8.6826 C   0  0  0  0  0  0  0  0  0  0  0  0
   -8.6667    3.0837   -9.5000 C   0  0  0  0  0  0  0  0  0  0  0  0
   -8.4088    3.1667  -10.8623 C   0  0  0  0  0  0  0  0  0  0  0  0
   -9.0938    1.9064   -8.6922 C   0  0  0  0  0  0  0  0  0  0  0  0
   -9.1411    2.3638   -7.2753 N   0  0  0  0  0  0  0  0  0  0  0  0
   -8.9441    3.8279   -7.2883 C   0  0  0  0  0  0  0  0  0  0  0  0
   -8.3997    1.9152   -6.7373 H   0  0  0  0  0  0  0  0  0  0  0  0
 16 17  1  0  0  0
 17  4  1  0  0  0
  4  5  2  0  0  0
  5  1  1  0  0  0
  1  2  1  0  0  0
  1 26  1  0  0  0
 26 28  1  0  0  0
 28 29  2  0  0  0
 29 30  1  0  0  0
 30 31  2  0  0  0
 31 32  1  0  0  0
 32 33  2  0  0  0
 32 34  1  0  0  0
 34 35  1  0  0  0
 35 36  1  0  0  0
  1 18  1  0  0  0
 18 19  2  0  0  0
 18 20  1  0  0  0
 20 22  1  0  0  0
 22 23  1  0  0  0
 23 24  1  0  0  0
 23 25  1  0  0  0
  5  6  1  0  0  0
  6  7  2  0  0  0
  7  8  1  0  0  0
  7  9  1  0  0  0
  9 10  2  0  0  0
 10 11  1  0  0  0
 11 12  1  0  0  0
 12 13  2  0  0  0
 12 14  1  0  0  0
 10  4  1  0  0  0
 33 28  1  0  0  0
 14  9  1  0  0  0
 36 31  1  0  0  0
  2  3  1  0  0  0
 26 27  1  0  0  0
 35 37  1  0  0  0
 20 21  1  0  0  0
 14 15  1  0  0  0
M  END
> <minimizedAffinity>
-7.90080

> <minimizedRMSD>
1.02261

$$$$
P20586


 38 42  0  0  0  0  0  0  0  0999 V2000
   -7.6425    5.2983  -13.5575 C   0  0  0  0  0  0  0  0  0  0  0  0
   -6.4544    5.7286  -12.9218 O   0  0  0  0  0  0  0  0  0  0  0  0
   -5.7940    5.0189  -12.9561 H   0  0  0  0  0  0  0  0  0  0  0  0
   -4.9087    4.6444  -20.3539 O   0  0  0  0  0  0  0  0  0  0  0  0
   -5.5548    4.6588  -19.3262 C   0  0  0  0  0  0  0  0  0  0  0  0
   -6.8979    4.4076  -19.1658 N   0  0  0  0  0  0  0  0  0  0  0  0
   -7.2276    4.5176  -17.8191 C   0  0  0  0  0  0  0  0  0  0  0  0
   -8.4346    4.3881  -17.1998 C   0  0  0  0  0  0  0  0  0  0  0  0
   -9.9731    4.1895  -18.2164 Br  0  0  0  0  0  0  0  0  0  0  0  0
   -8.5040    4.5508  -15.8163 C   0  0  0  0  0  0  0  0  0  0  0  0
   -7.3744    4.9360  -15.0345 C   0  0  0  0  0  0  0  0  0  0  0  0
   -6.1063    5.0709  -15.7085 C   0  0  0  0  0  0  0  0  0  0  0  0
   -4.8089    5.4133  -15.2360 C   0  0  0  0  0  0  0  0  0  0  0  0
   -3.6933    5.5152  -16.1006 C   0  0  0  0  0  0  0  0  0  0  0  0
   -3.8164    5.2897  -17.4786 C   0  0  0  0  0  0  0  0  0  0  0  0
   -5.0619    4.9505  -17.9541 C   0  0  0  0  0  0  0  0  0  0  0  0
   -6.1265    4.8435  -17.0929 C   0  0  0  0  0  0  0  0  0  0  0  0
   -7.5265    4.1851  -19.8901 H   0  0  0  0  0  0  0  0  0  0  0  0
   -8.7843    6.4583  -13.5256 C   0  0  0  0  0  0  0  0  0  0  0  0
   -9.9070    6.2803  -13.8119 O   0  0  0  0  0  0  0  0  0  0  0  0
   -8.0661    7.7413  -13.0013 N   0  0  0  0  0  0  0  0  0  0  0  0
   -7.1206    7.6143  -12.7581 H   0  0  0  0  0  0  0  0  0  0  0  0
   -8.5644    9.0867  -12.8149 C   0  0  0  0  0  0  0  0  0  0  0  0
   -7.4862   10.1608  -12.8846 C   0  0  0  0  0  0  0  0  0  0  0  0
   -6.4703    9.8541  -12.0374 F   0  0  0  0  0  0  0  0  0  0  0  0
   -6.9512   10.2167  -14.1305 F   0  0  0  0  0  0  0  0  0  0  0  0
   -8.0723    4.1228  -12.7975 N   0  0  0  0  0  0  0  0  0  0  0  0
   -8.2041    3.2798  -13.2885 H   0  0  0  0  0  0  0  0  0  0  0  0
   -8.3086    4.1206  -11.4128 C   0  0  0  0  0  0  0  0  0  0  0  0
   -8.1391    5.2386  -10.5679 C   0  0  0  0  0  0  0  0  0  0  0  0
   -8.3243    5.1698   -9.1809 C   0  0  0  0  0  0  0  0  0  0  0  0
   -8.6475    3.9518   -8.6295 C   0  0  0  0  0  0  0  0  0  0  0  0
   -8.7638    2.8237   -9.4285 C   0  0  0  0  0  0  0  0  0  0  0  0
   -8.5951    2.8897  -10.8038 C   0  0  0  0  0  0  0  0  0  0  0  0
   -9.0262    1.6420   -8.5565 C   0  0  0  0  0  0  0  0  0  0  0  0
   -9.4656    2.2139   -7.2540 N   0  0  0  0  0  0  0  0  0  0  0  0
   -8.8781    3.5709   -7.2069 C   0  0  0  0  0  0  0  0  0  0  0  0
   -9.1192    1.6473   -6.4798 H   0  0  0  0  0  0  0  0  0  0  0  0
  4  5  2  0  0  0
  5  6  1  0  0  0
  6  7  1  0  0  0
  7  8  2  0  0  0
  8  9  1  0  0  0
  8 10  1  0  0  0
 10 11  2  0  0  0
 11  1  1  0  0  0
  1  2  1  0  0  0
  1 27  1  0  0  0
 27 29  1  0  0  0
 29 30  2  0  0  0
 30 31  1  0  0  0
 31 32  2  0  0  0
 32 33  1  0  0  0
 33 34  2  0  0  0
 33 35  1  0  0  0
 35 36  1  0  0  0
 36 37  1  0  0  0
  1 19  1  0  0  0
 19 20  2  0  0  0
 19 21  1  0  0  0
 21 23  1  0  0  0
 23 24  1  0  0  0
 24 25  1  0  0  0
 24 26  1  0  0  0
 11 12  1  0  0  0
 12 13  2  0  0  0
 13 14  1  0  0  0
 14 15  2  0  0  0
 15 16  1  0  0  0
 16 17  2  0  0  0
 16  5  1  0  0  0
 17  7  1  0  0  0
 34 29  1  0  0  0
 17 12  1  0  0  0
 37 32  1  0  0  0
  6 18  1  0  0  0
  2  3  1  0  0  0
 27 28  1  0  0  0
 36 38  1  0  0  0
 21 22  1  0  0  0
M  END
> <minimizedAffinity>
-8.86773

> <minimizedRMSD>
0.33846

$$$$
P20587


 36 40  0  0  0  0  0  0  0  0999 V2000
   -4.2563    5.0570  -15.0631 C   0  0  0  0  0  0  0  0  0  0  0  0
   -5.1922    5.8412  -15.9867 C   0  0  0  0  0  0  0  0  0  0  0  0
   -4.6105    5.7398  -17.5173 C   0  0  0  0  0  0  0  0  0  0  0  0
   -3.6421    6.3602  -17.9427 O   0  0  0  0  0  0  0  0  0  0  0  0
   -5.3289    4.6531  -18.2549 C   0  0  0  0  0  0  0  0  0  0  0  0
   -5.9648    4.5608  -19.6269 C   0  0  0  0  0  0  0  0  0  0  0  0
   -5.4106    4.6868  -20.7061 O   0  0  0  0  0  0  0  0  0  0  0  0
   -7.3043    4.1268  -19.4303 N   0  0  0  0  0  0  0  0  0  0  0  0
   -7.6452    4.1550  -18.0845 C   0  0  0  0  0  0  0  0  0  0  0  0
   -8.8085    3.9993  -17.3860 C   0  0  0  0  0  0  0  0  0  0  0  0
   -9.9246    3.5751  -17.9826 F   0  0  0  0  0  0  0  0  0  0  0  0
   -8.8031    4.3277  -16.0184 C   0  0  0  0  0  0  0  0  0  0  0  0
   -7.6663    4.9211  -15.3983 C   0  0  0  0  0  0  0  0  0  0  0  0
   -6.5081    5.0904  -16.1406 C   0  0  0  0  0  0  0  0  0  0  0  0
   -6.5326    4.5587  -17.4077 C   0  0  0  0  0  0  0  0  0  0  0  0
   -7.9101    3.8436  -20.1529 H   0  0  0  0  0  0  0  0  0  0  0  0
   -7.8127    5.4266  -14.0101 C   0  0  0  0  0  0  0  0  0  0  0  0
   -7.9589    6.5703  -13.8342 O   0  0  0  0  0  0  0  0  0  0  0  0
   -7.7792    4.2538  -13.0026 N   0  0  0  0  0  0  0  0  0  0  0  0
   -7.5630    3.3779  -13.3967 H   0  0  0  0  0  0  0  0  0  0  0  0
   -8.0054    4.2351  -11.6264 C   0  0  0  0  0  0  0  0  0  0  0  0
   -7.8680    5.3969  -10.8507 C   0  0  0  0  0  0  0  0  0  0  0  0
   -8.0856    5.3663   -9.4685 C   0  0  0  0  0  0  0  0  0  0  0  0
   -8.4592    4.1674   -8.8904 C   0  0  0  0  0  0  0  0  0  0  0  0
   -8.6029    3.0158   -9.6567 C   0  0  0  0  0  0  0  0  0  0  0  0
   -8.3686    3.0271  -11.0221 C   0  0  0  0  0  0  0  0  0  0  0  0
   -8.9952    1.8834   -8.7657 C   0  0  0  0  0  0  0  0  0  0  0  0
   -9.4194    2.5201   -7.4890 N   0  0  0  0  0  0  0  0  0  0  0  0
   -8.7462    3.8383   -7.4640 C   0  0  0  0  0  0  0  0  0  0  0  0
   -9.1253    1.9541   -6.6931 H   0  0  0  0  0  0  0  0  0  0  0  0
   -5.4328    7.0975  -15.3890 O   0  0  0  0  0  0  0  0  0  0  0  0
   -4.9804    8.2593  -16.0726 C   0  0  0  0  0  0  0  0  0  0  0  0
   -3.7862    8.9143  -15.3846 C   0  0  0  0  0  0  0  0  0  0  0  0
   -2.8977    9.6488  -16.3774 C   0  0  0  0  0  0  0  0  0  0  0  0
   -2.4367    8.7749  -17.4012 O   0  0  0  0  0  0  0  0  0  0  0  0
   -1.9139    8.0603  -17.0051 H   0  0  0  0  0  0  0  0  0  0  0  0
  2  1  1  0  0  0
  2 31  1  0  0  0
 31 32  1  0  0  0
 32 33  1  0  0  0
 33 34  1  0  0  0
 34 35  1  0  0  0
  2  3  1  0  0  0
  3  4  2  0  0  0
  5  3  1  0  0  0
  5  6  1  0  0  0
  6  7  2  0  0  0
  6  8  1  0  0  0
  8  9  1  0  0  0
  9 10  2  0  0  0
 10 11  1  0  0  0
 10 12  1  0  0  0
 12 13  2  0  0  0
 13 17  1  0  0  0
 17 18  2  0  0  0
 17 19  1  0  0  0
 19 21  1  0  0  0
 21 22  2  0  0  0
 22 23  1  0  0  0
 23 24  2  0  0  0
 24 25  1  0  0  0
 25 26  2  0  0  0
 25 27  1  0  0  0
 27 28  1  0  0  0
 28 29  1  0  0  0
 13 14  1  0  0  0
 14 15  2  0  0  0
 14  2  1  0  0  0
 15  5  1  0  0  0
 15  9  1  0  0  0
 26 21  1  0  0  0
 29 24  1  0  0  0
 35 36  1  0  0  0
  8 16  1  0  0  0
 19 20  1  0  0  0
 28 30  1  0  0  0
M  END
> <minimizedAffinity>
-7.68704

> <minimizedRMSD>
0.33322

$$$$
P20589


 34 38  0  0  0  0  0  0  0  0999 V2000
   -5.5843    5.5342  -15.1339 C   0  0  0  0  0  0  0  0  0  0  0  0
   -5.7568    6.8399  -14.3615 C   0  0  0  0  0  0  0  0  0  0  0  0
   -4.6809    5.8969  -16.4412 C   0  0  0  0  0  0  0  0  0  0  0  0
   -3.8389    6.7856  -16.5004 O   0  0  0  0  0  0  0  0  0  0  0  0
   -5.0037    4.9219  -17.5441 C   0  0  0  0  0  0  0  0  0  0  0  0
   -5.2177    5.1486  -19.0345 C   0  0  0  0  0  0  0  0  0  0  0  0
   -4.3932    5.5126  -19.8572 O   0  0  0  0  0  0  0  0  0  0  0  0
   -6.5337    4.7285  -19.3421 N   0  0  0  0  0  0  0  0  0  0  0  0
   -7.2503    4.4488  -18.1886 C   0  0  0  0  0  0  0  0  0  0  0  0
   -8.5755    4.2256  -17.9439 C   0  0  0  0  0  0  0  0  0  0  0  0
   -9.4537    4.0501  -18.9373 F   0  0  0  0  0  0  0  0  0  0  0  0
   -9.0000    4.2708  -16.6094 C   0  0  0  0  0  0  0  0  0  0  0  0
   -8.1191    4.6640  -15.5582 C   0  0  0  0  0  0  0  0  0  0  0  0
   -6.7804    4.9033  -15.8321 C   0  0  0  0  0  0  0  0  0  0  0  0
   -6.3994    4.6333  -17.1323 C   0  0  0  0  0  0  0  0  0  0  0  0
   -6.8930    4.6458  -20.2549 H   0  0  0  0  0  0  0  0  0  0  0  0
   -8.7328    4.9304  -14.2419 C   0  0  0  0  0  0  0  0  0  0  0  0
   -9.6672    5.6267  -14.1840 O   0  0  0  0  0  0  0  0  0  0  0  0
   -7.9768    4.1737  -13.1267 N   0  0  0  0  0  0  0  0  0  0  0  0
   -7.2561    3.5833  -13.4448 H   0  0  0  0  0  0  0  0  0  0  0  0
   -8.1491    4.1912  -11.7438 C   0  0  0  0  0  0  0  0  0  0  0  0
   -8.0707    5.3837  -11.0083 C   0  0  0  0  0  0  0  0  0  0  0  0
   -8.2452    5.3801   -9.6198 C   0  0  0  0  0  0  0  0  0  0  0  0
   -8.5268    4.1777   -8.9977 C   0  0  0  0  0  0  0  0  0  0  0  0
   -8.6140    2.9961   -9.7257 C   0  0  0  0  0  0  0  0  0  0  0  0
   -8.4096    2.9798  -11.0948 C   0  0  0  0  0  0  0  0  0  0  0  0
   -8.9424    1.8713   -8.8001 C   0  0  0  0  0  0  0  0  0  0  0  0
   -9.3756    2.5243   -7.5339 N   0  0  0  0  0  0  0  0  0  0  0  0
   -8.7764    3.8770   -7.5584 C   0  0  0  0  0  0  0  0  0  0  0  0
   -9.0360    1.9991   -6.7281 H   0  0  0  0  0  0  0  0  0  0  0  0
   -4.8473    4.5056  -14.4527 O   0  0  0  0  0  0  0  0  0  0  0  0
   -2.6099    4.5026  -13.6546 C   0  0  0  0  0  0  0  0  0  0  0  0
   -4.0526    4.8508  -13.3132 C   0  0  0  0  0  0  0  0  0  0  0  0
   -4.4577    4.0802  -12.0655 C   0  0  0  0  0  0  0  0  0  0  0  0
 32 33  1  0  0  0
 33 34  1  0  0  0
 33 31  1  0  0  0
 31  1  1  0  0  0
  1  2  1  0  0  0
  1  3  1  0  0  0
  3  4  2  0  0  0
  5  3  1  0  0  0
  5  6  1  0  0  0
  6  7  2  0  0  0
  6  8  1  0  0  0
  8  9  1  0  0  0
  9 10  2  0  0  0
 10 11  1  0  0  0
 10 12  1  0  0  0
 12 13  2  0  0  0
 13 17  1  0  0  0
 17 18  2  0  0  0
 17 19  1  0  0  0
 19 21  1  0  0  0
 21 22  2  0  0  0
 22 23  1  0  0  0
 23 24  2  0  0  0
 24 25  1  0  0  0
 25 26  2  0  0  0
 25 27  1  0  0  0
 27 28  1  0  0  0
 28 29  1  0  0  0
 13 14  1  0  0  0
 14 15  2  0  0  0
 14  1  1  0  0  0
 15  5  1  0  0  0
 15  9  1  0  0  0
 26 21  1  0  0  0
 29 24  1  0  0  0
  8 16  1  0  0  0
 19 20  1  0  0  0
 28 30  1  0  0  0
M  END
> <minimizedAffinity>
-9.55738

> <minimizedRMSD>
0.90673

$$$$
P20591


 26 29  0  0  0  0  0  0  0  0999 V2000
   -7.4086    5.1579  -14.0636 C   0  0  0  0  0  0  0  0  0  0  0  0
   -6.9509    6.2102  -13.8461 O   0  0  0  0  0  0  0  0  0  0  0  0
   -7.9648    4.0875  -13.0964 N   0  0  0  0  0  0  0  0  0  0  0  0
   -8.2277    3.2413  -13.5253 H   0  0  0  0  0  0  0  0  0  0  0  0
   -5.1472    6.1476  -19.0003 C   0  0  0  0  0  0  0  0  0  0  0  0
   -5.6459    4.7336  -18.8212 C   0  0  0  0  0  0  0  0  0  0  0  0
   -6.4884    4.2030  -20.0071 C   0  0  0  0  0  0  0  0  0  0  0  0
   -6.1311    4.0650  -21.1679 O   0  0  0  0  0  0  0  0  0  0  0  0
   -7.7351    3.8489  -19.5017 N   0  0  0  0  0  0  0  0  0  0  0  0
   -7.8114    4.0826  -18.1400 C   0  0  0  0  0  0  0  0  0  0  0  0
   -8.8804    3.8424  -17.3100 C   0  0  0  0  0  0  0  0  0  0  0  0
   -8.7148    4.1458  -15.9561 C   0  0  0  0  0  0  0  0  0  0  0  0
   -7.5156    4.7105  -15.4781 C   0  0  0  0  0  0  0  0  0  0  0  0
   -6.4466    4.9534  -16.3439 C   0  0  0  0  0  0  0  0  0  0  0  0
   -6.6105    4.6172  -17.6762 C   0  0  0  0  0  0  0  0  0  0  0  0
   -8.4693    3.4792  -20.0436 H   0  0  0  0  0  0  0  0  0  0  0  0
   -8.1545    4.1255  -11.7173 C   0  0  0  0  0  0  0  0  0  0  0  0
   -8.0830    5.3285  -10.9980 C   0  0  0  0  0  0  0  0  0  0  0  0
   -8.2930    5.3481   -9.6142 C   0  0  0  0  0  0  0  0  0  0  0  0
   -8.5769    4.1538   -8.9774 C   0  0  0  0  0  0  0  0  0  0  0  0
   -8.6402    2.9603   -9.6877 C   0  0  0  0  0  0  0  0  0  0  0  0
   -8.4307    2.9260  -11.0552 C   0  0  0  0  0  0  0  0  0  0  0  0
   -8.9259    1.8409   -8.7429 C   0  0  0  0  0  0  0  0  0  0  0  0
   -9.3857    2.4986   -7.4897 N   0  0  0  0  0  0  0  0  0  0  0  0
   -8.8323    3.8711   -7.5353 C   0  0  0  0  0  0  0  0  0  0  0  0
   -9.0314    1.9986   -6.6743 H   0  0  0  0  0  0  0  0  0  0  0  0
  6  5  1  0  0  0
  6  7  1  0  0  0
  7  8  2  0  0  0
  7  9  1  0  0  0
  9 10  1  0  0  0
 10 11  2  0  0  0
 11 12  1  0  0  0
 12 13  2  0  0  0
 13  1  1  0  0  0
  1  2  2  0  0  0
  1  3  1  0  0  0
  3 17  1  0  0  0
 17 18  2  0  0  0
 18 19  1  0  0  0
 19 20  2  0  0  0
 20 21  1  0  0  0
 21 22  2  0  0  0
 21 23  1  0  0  0
 23 24  1  0  0  0
 24 25  1  0  0  0
 13 14  1  0  0  0
 14 15  2  0  0  0
 15  6  1  0  0  0
 15 10  1  0  0  0
 22 17  1  0  0  0
 25 20  1  0  0  0
  9 16  1  0  0  0
  3  4  1  0  0  0
 24 26  1  0  0  0
M  END
> <minimizedAffinity>
-8.80501

> <minimizedRMSD>
0.26880

$$$$
P20592


 26 29  0  0  0  0  0  0  0  0999 V2000
   -7.2332    5.0498  -14.0008 C   0  0  0  0  0  0  0  0  0  0  0  0
   -6.5786    5.9850  -13.7541 O   0  0  0  0  0  0  0  0  0  0  0  0
   -8.0033    4.0901  -13.0641 N   0  0  0  0  0  0  0  0  0  0  0  0
   -8.4234    3.3226  -13.5155 H   0  0  0  0  0  0  0  0  0  0  0  0
   -6.1456    4.0440  -21.1451 O   0  0  0  0  0  0  0  0  0  0  0  0
   -6.5242    4.1889  -20.0023 C   0  0  0  0  0  0  0  0  0  0  0  0
   -7.7689    3.8933  -19.4798 N   0  0  0  0  0  0  0  0  0  0  0  0
   -7.7991    4.1266  -18.1110 C   0  0  0  0  0  0  0  0  0  0  0  0
   -8.8475    3.9010  -17.2535 C   0  0  0  0  0  0  0  0  0  0  0  0
   -8.6239    4.1490  -15.8931 C   0  0  0  0  0  0  0  0  0  0  0  0
   -7.3939    4.6617  -15.4273 C   0  0  0  0  0  0  0  0  0  0  0  0
   -6.3465    4.9080  -16.3136 C   0  0  0  0  0  0  0  0  0  0  0  0
   -6.5824    4.6117  -17.6399 C   0  0  0  0  0  0  0  0  0  0  0  0
   -5.6856    4.7076  -18.7848 C   0  0  0  0  0  0  0  0  0  0  0  0
   -4.5398    5.0925  -18.7473 O   0  0  0  0  0  0  0  0  0  0  0  0
   -8.5316    3.5620  -20.0068 H   0  0  0  0  0  0  0  0  0  0  0  0
   -8.1995    4.1347  -11.6858 C   0  0  0  0  0  0  0  0  0  0  0  0
   -8.0889    5.3333  -10.9667 C   0  0  0  0  0  0  0  0  0  0  0  0
   -8.2834    5.3550   -9.5809 C   0  0  0  0  0  0  0  0  0  0  0  0
   -8.5824    4.1668   -8.9384 C   0  0  0  0  0  0  0  0  0  0  0  0
   -8.6999    2.9819   -9.6490 C   0  0  0  0  0  0  0  0  0  0  0  0
   -8.5143    2.9460  -11.0215 C   0  0  0  0  0  0  0  0  0  0  0  0
   -9.0394    1.8699   -8.7190 C   0  0  0  0  0  0  0  0  0  0  0  0
   -9.0453    2.4516   -7.3485 N   0  0  0  0  0  0  0  0  0  0  0  0
   -8.8369    3.9093   -7.4946 C   0  0  0  0  0  0  0  0  0  0  0  0
   -8.2933    2.0446   -6.7923 H   0  0  0  0  0  0  0  0  0  0  0  0
  5  6  2  0  0  0
  6  7  1  0  0  0
  7  8  1  0  0  0
  8  9  2  0  0  0
  9 10  1  0  0  0
 10 11  2  0  0  0
 11  1  1  0  0  0
  1  2  2  0  0  0
  1  3  1  0  0  0
  3 17  1  0  0  0
 17 18  2  0  0  0
 18 19  1  0  0  0
 19 20  2  0  0  0
 20 21  1  0  0  0
 21 22  2  0  0  0
 21 23  1  0  0  0
 23 24  1  0  0  0
 24 25  1  0  0  0
 11 12  1  0  0  0
 12 13  2  0  0  0
 13 14  1  0  0  0
 14 15  2  0  0  0
 14  6  1  0  0  0
 13  8  1  0  0  0
 22 17  1  0  0  0
 25 20  1  0  0  0
  7 16  1  0  0  0
  3  4  1  0  0  0
 24 26  1  0  0  0
M  END
> <minimizedAffinity>
-8.75483

> <minimizedRMSD>
0.26224

$$$$
P20593


 28 32  0  0  0  0  0  0  0  0999 V2000
   -5.9744    4.1925  -21.0619 O   0  0  0  0  0  0  0  0  0  0  0  0
   -6.4925    4.2184  -19.9590 C   0  0  0  0  0  0  0  0  0  0  0  0
   -7.7889    3.7589  -19.6460 N   0  0  0  0  0  0  0  0  0  0  0  0
   -7.9401    3.9436  -18.3806 C   0  0  0  0  0  0  0  0  0  0  0  0
   -8.9945    3.7331  -17.3649 C   0  0  0  0  0  0  0  0  0  0  0  0
   -8.7100    4.0249  -16.0660 C   0  0  0  0  0  0  0  0  0  0  0  0
   -7.4086    4.5744  -15.5827 C   0  0  0  0  0  0  0  0  0  0  0  0
   -6.4625    4.7959  -16.5006 C   0  0  0  0  0  0  0  0  0  0  0  0
   -6.7651    4.4834  -17.8157 C   0  0  0  0  0  0  0  0  0  0  0  0
   -5.8599    4.6828  -18.7363 C   0  0  0  0  0  0  0  0  0  0  0  0
   -4.7407    5.2108  -17.9605 C   0  0  0  0  0  0  0  0  0  0  0  0
   -3.6416    5.5307  -18.3698 O   0  0  0  0  0  0  0  0  0  0  0  0
   -5.1906    5.2743  -16.6052 N   0  0  0  0  0  0  0  0  0  0  0  0
   -4.6562    5.6160  -15.8523 H   0  0  0  0  0  0  0  0  0  0  0  0
   -7.1997    5.0281  -14.1701 C   0  0  0  0  0  0  0  0  0  0  0  0
   -6.5940    6.0004  -13.9356 O   0  0  0  0  0  0  0  0  0  0  0  0
   -7.9189    4.0357  -13.2160 N   0  0  0  0  0  0  0  0  0  0  0  0
   -8.2991    3.2420  -13.6573 H   0  0  0  0  0  0  0  0  0  0  0  0
   -8.1138    4.0862  -11.8345 C   0  0  0  0  0  0  0  0  0  0  0  0
   -8.0452    5.2961  -11.1261 C   0  0  0  0  0  0  0  0  0  0  0  0
   -8.2617    5.3314   -9.7422 C   0  0  0  0  0  0  0  0  0  0  0  0
   -8.5482    4.1456   -9.0910 C   0  0  0  0  0  0  0  0  0  0  0  0
   -8.6119    2.9444   -9.7872 C   0  0  0  0  0  0  0  0  0  0  0  0
   -8.3974    2.8956  -11.1559 C   0  0  0  0  0  0  0  0  0  0  0  0
   -8.9022    1.8370   -8.8271 C   0  0  0  0  0  0  0  0  0  0  0  0
   -9.3524    2.5104   -7.5787 N   0  0  0  0  0  0  0  0  0  0  0  0
   -8.8006    3.8819   -7.6444 C   0  0  0  0  0  0  0  0  0  0  0  0
   -8.9917    2.0204   -6.7601 H   0  0  0  0  0  0  0  0  0  0  0  0
  1  2  2  0  0  0
  2  3  1  0  0  0
  3  4  2  0  0  0
  4  5  1  0  0  0
  5  6  2  0  0  0
  6  7  1  0  0  0
  7 15  1  0  0  0
 15 16  2  0  0  0
 15 17  1  0  0  0
 17 19  1  0  0  0
 19 20  2  0  0  0
 20 21  1  0  0  0
 21 22  2  0  0  0
 22 23  1  0  0  0
 23 24  2  0  0  0
 23 25  1  0  0  0
 25 26  1  0  0  0
 26 27  1  0  0  0
  7  8  2  0  0  0
  8  9  1  0  0  0
  9 10  2  0  0  0
 10 11  1  0  0  0
 11 12  2  0  0  0
 11 13  1  0  0  0
 10  2  1  0  0  0
  9  4  1  0  0  0
 24 19  1  0  0  0
 13  8  1  0  0  0
 27 22  1  0  0  0
 17 18  1  0  0  0
 26 28  1  0  0  0
 13 14  1  0  0  0
M  END
> <minimizedAffinity>
-8.69706

> <minimizedRMSD>
0.26138

$$$$
P20595


 29 33  0  0  0  0  0  0  0  0999 V2000
   -6.1297    3.9893  -21.0253 O   0  0  0  0  0  0  0  0  0  0  0  0
   -6.6252    4.1287  -19.9234 C   0  0  0  0  0  0  0  0  0  0  0  0
   -7.8948    3.7060  -19.5257 N   0  0  0  0  0  0  0  0  0  0  0  0
   -8.3259    4.4084  -18.3482 C   0  0  0  0  0  0  0  0  0  0  0  0
   -8.9496    3.5593  -17.2562 C   0  0  0  0  0  0  0  0  0  0  0  0
   -8.6922    4.1266  -15.8478 C   0  0  0  0  0  0  0  0  0  0  0  0
   -7.1950    4.3575  -15.5038 C   0  0  0  0  0  0  0  0  0  0  0  0
   -6.5327    5.2588  -16.5517 C   0  0  0  0  0  0  0  0  0  0  0  0
   -5.0309    5.1485  -16.7202 N   0  0  0  0  0  0  0  0  0  0  0  0
   -4.8199    4.8801  -18.1503 N   0  0  0  0  0  0  0  0  0  0  0  0
   -6.0480    4.7878  -18.7400 C   0  0  0  0  0  0  0  0  0  0  0  0
   -7.0456    4.9549  -17.8966 C   0  0  0  0  0  0  0  0  0  0  0  0
   -8.4245    3.0182  -19.9900 H   0  0  0  0  0  0  0  0  0  0  0  0
   -4.6632    4.3831  -16.1550 H   0  0  0  0  0  0  0  0  0  0  0  0
   -3.9501    4.7843  -18.6014 H   0  0  0  0  0  0  0  0  0  0  0  0
   -7.1169    4.9840  -14.0982 C   0  0  0  0  0  0  0  0  0  0  0  0
   -6.6364    6.0322  -13.8867 O   0  0  0  0  0  0  0  0  0  0  0  0
   -7.8729    4.0031  -13.1396 N   0  0  0  0  0  0  0  0  0  0  0  0
   -8.2533    3.2084  -13.5790 H   0  0  0  0  0  0  0  0  0  0  0  0
   -8.0947    4.0727  -11.7639 C   0  0  0  0  0  0  0  0  0  0  0  0
   -8.0027    5.2802  -11.0580 C   0  0  0  0  0  0  0  0  0  0  0  0
   -8.2312    5.3194   -9.6760 C   0  0  0  0  0  0  0  0  0  0  0  0
   -8.5498    4.1407   -9.0243 C   0  0  0  0  0  0  0  0  0  0  0  0
   -8.6631    2.9484   -9.7240 C   0  0  0  0  0  0  0  0  0  0  0  0
   -8.4391    2.8947  -11.0908 C   0  0  0  0  0  0  0  0  0  0  0  0
   -9.0721    1.8591   -8.7930 C   0  0  0  0  0  0  0  0  0  0  0  0
   -9.0102    2.4391   -7.4227 N   0  0  0  0  0  0  0  0  0  0  0  0
   -8.8429    3.9002   -7.5841 C   0  0  0  0  0  0  0  0  0  0  0  0
   -8.2180    2.0493   -6.9119 H   0  0  0  0  0  0  0  0  0  0  0  0
  1  2  2  0  0  0
  2  3  1  0  0  0
  3  4  1  0  0  0
  4  5  1  0  0  0
  5  6  1  0  0  0
  6  7  1  0  0  0
  7 16  1  0  0  0
 16 17  2  0  0  0
 16 18  1  0  0  0
 18 20  1  0  0  0
 20 21  2  0  0  0
 21 22  1  0  0  0
 22 23  2  0  0  0
 23 24  1  0  0  0
 24 25  2  0  0  0
 24 26  1  0  0  0
 26 27  1  0  0  0
 27 28  1  0  0  0
  7  8  1  0  0  0
  8  9  1  0  0  0
  9 10  1  0  0  0
 10 11  1  0  0  0
 11 12  2  0  0  0
 11  2  1  0  0  0
 12  4  1  0  0  0
 25 20  1  0  0  0
 12  8  1  0  0  0
 28 23  1  0  0  0
  3 13  1  0  0  0
 18 19  1  0  0  0
 27 29  1  0  0  0
  9 14  1  0  0  0
 10 15  1  0  0  0
M  END
> <minimizedAffinity>
-8.58604

> <minimizedRMSD>
0.23846

$$$$
P20596


 32 36  0  0  0  0  0  0  0  0999 V2000
   -7.2508    5.0440  -14.0164 C   0  0  0  0  0  0  0  0  0  0  0  0
   -6.5346    5.9338  -13.7722 O   0  0  0  0  0  0  0  0  0  0  0  0
   -8.1494    4.1955  -13.0857 N   0  0  0  0  0  0  0  0  0  0  0  0
   -8.7243    3.5444  -13.5492 H   0  0  0  0  0  0  0  0  0  0  0  0
   -6.0967    4.0643  -21.1530 O   0  0  0  0  0  0  0  0  0  0  0  0
   -6.4864    4.2006  -20.0130 C   0  0  0  0  0  0  0  0  0  0  0  0
   -7.7323    3.8862  -19.5029 N   0  0  0  0  0  0  0  0  0  0  0  0
   -7.7789    4.1170  -18.1342 C   0  0  0  0  0  0  0  0  0  0  0  0
   -8.8351    3.8827  -17.2876 C   0  0  0  0  0  0  0  0  0  0  0  0
   -8.6304    4.1362  -15.9250 C   0  0  0  0  0  0  0  0  0  0  0  0
   -7.4061    4.6511  -15.4438 C   0  0  0  0  0  0  0  0  0  0  0  0
   -6.3520    4.9068  -16.3213 C   0  0  0  0  0  0  0  0  0  0  0  0
   -6.5724    4.6141  -17.6506 C   0  0  0  0  0  0  0  0  0  0  0  0
   -5.6659    4.7279  -18.7858 C   0  0  0  0  0  0  0  0  0  0  0  0
   -4.5275    5.1326  -18.7338 O   0  0  0  0  0  0  0  0  0  0  0  0
   -8.4850    3.5446  -20.0377 H   0  0  0  0  0  0  0  0  0  0  0  0
   -8.2775    4.2029  -11.6982 C   0  0  0  0  0  0  0  0  0  0  0  0
   -8.5271    2.9962  -11.0453 C   0  0  0  0  0  0  0  0  0  0  0  0
   -8.6798    3.0138   -9.6695 C   0  0  0  0  0  0  0  0  0  0  0  0
   -8.5900    4.1978   -8.9415 C   0  0  0  0  0  0  0  0  0  0  0  0
   -8.3242    5.4159   -9.5619 C   0  0  0  0  0  0  0  0  0  0  0  0
   -8.1745    5.3948  -10.9629 C   0  0  0  0  0  0  0  0  0  0  0  0
   -8.8250    3.8938   -7.4987 C   0  0  0  0  0  0  0  0  0  0  0  0
   -8.8756    2.4201   -7.3746 N   0  0  0  0  0  0  0  0  0  0  0  0
   -8.9746    1.8780   -8.7519 C   0  0  0  0  0  0  0  0  0  0  0  0
   -9.6904    2.1413   -6.8280 H   0  0  0  0  0  0  0  0  0  0  0  0
   -8.1603    6.6680   -8.8115 C   0  0  0  0  0  0  0  0  0  0  0  0
   -9.2039    7.5875   -8.6729 C   0  0  0  0  0  0  0  0  0  0  0  0
   -8.9887    8.7464   -7.9435 C   0  0  0  0  0  0  0  0  0  0  0  0
   -7.8188    9.0533   -7.3453 N   0  0  0  0  0  0  0  0  0  0  0  0
   -6.8164    8.1630   -7.4977 C   0  0  0  0  0  0  0  0  0  0  0  0
   -6.9364    6.9786   -8.2078 C   0  0  0  0  0  0  0  0  0  0  0  0
  5  6  2  0  0  0
  6  7  1  0  0  0
  7  8  1  0  0  0
  8  9  2  0  0  0
  9 10  1  0  0  0
 10 11  2  0  0  0
 11  1  1  0  0  0
  1  2  2  0  0  0
  1  3  1  0  0  0
  3 17  1  0  0  0
 17 18  2  0  0  0
 18 19  1  0  0  0
 19 20  2  0  0  0
 20 21  1  0  0  0
 21 27  1  0  0  0
 27 28  2  0  0  0
 28 29  1  0  0  0
 29 30  2  0  0  0
 30 31  1  0  0  0
 31 32  2  0  0  0
 21 22  2  0  0  0
 20 23  1  0  0  0
 23 24  1  0  0  0
 24 25  1  0  0  0
 11 12  1  0  0  0
 12 13  2  0  0  0
 13 14  1  0  0  0
 14 15  2  0  0  0
 14  6  1  0  0  0
 13  8  1  0  0  0
 22 17  1  0  0  0
 25 19  1  0  0  0
 32 27  1  0  0  0
  7 16  1  0  0  0
  3  4  1  0  0  0
 24 26  1  0  0  0
M  END
> <minimizedAffinity>
-8.98203

> <minimizedRMSD>
0.57996

$$$$
P20600


 30 34  0  0  0  0  0  0  0  0999 V2000
   -4.2893    5.1260  -19.1999 N   0  0  0  0  0  0  0  0  0  0  0  0
   -5.2739    4.9607  -18.3997 C   0  0  0  0  0  0  0  0  0  0  0  0
   -6.5340    4.4391  -18.7374 N   0  0  0  0  0  0  0  0  0  0  0  0
   -7.2357    4.4775  -17.6540 C   0  0  0  0  0  0  0  0  0  0  0  0
   -8.6189    4.2004  -17.2225 C   0  0  0  0  0  0  0  0  0  0  0  0
   -9.7242    3.7836  -18.4352 Cl  0  0  0  0  0  0  0  0  0  0  0  0
   -8.9577    4.4054  -15.9254 C   0  0  0  0  0  0  0  0  0  0  0  0
   -8.0198    4.9527  -14.9047 C   0  0  0  0  0  0  0  0  0  0  0  0
   -6.7585    5.2175  -15.2638 C   0  0  0  0  0  0  0  0  0  0  0  0
   -6.4450    4.9445  -16.5833 C   0  0  0  0  0  0  0  0  0  0  0  0
   -5.2638    5.2883  -17.0028 C   0  0  0  0  0  0  0  0  0  0  0  0
   -4.7584    5.8023  -15.7561 C   0  0  0  0  0  0  0  0  0  0  0  0
   -5.6094    5.7728  -14.7430 N   0  0  0  0  0  0  0  0  0  0  0  0
   -8.5093    5.3920  -13.5732 C   0  0  0  0  0  0  0  0  0  0  0  0
   -9.3024    6.2413  -13.4569 O   0  0  0  0  0  0  0  0  0  0  0  0
   -7.8468    4.4835  -12.5065 N   0  0  0  0  0  0  0  0  0  0  0  0
   -7.1430    3.8879  -12.8519 H   0  0  0  0  0  0  0  0  0  0  0  0
   -8.0849    4.3727  -11.1404 C   0  0  0  0  0  0  0  0  0  0  0  0
   -7.9404    5.4809  -10.2907 C   0  0  0  0  0  0  0  0  0  0  0  0
   -8.1552    5.3594   -8.9152 C   0  0  0  0  0  0  0  0  0  0  0  0
   -8.5368    4.1265   -8.4217 C   0  0  0  0  0  0  0  0  0  0  0  0
   -8.6978    3.0320   -9.2654 C   0  0  0  0  0  0  0  0  0  0  0  0
   -8.4631    3.1302  -10.6257 C   0  0  0  0  0  0  0  0  0  0  0  0
   -9.1061    1.8470   -8.4553 C   0  0  0  0  0  0  0  0  0  0  0  0
   -9.5084    2.3992   -7.1329 N   0  0  0  0  0  0  0  0  0  0  0  0
   -8.8129    3.7004   -7.0196 C   0  0  0  0  0  0  0  0  0  0  0  0
   -9.2180    1.7731   -6.3819 H   0  0  0  0  0  0  0  0  0  0  0  0
   -5.3376    5.1219  -21.2767 N   0  0  0  0  0  0  0  0  0  0  0  0
   -4.3793    4.7625  -20.4994 C   0  0  0  0  0  0  0  0  0  0  0  0
   -5.3480    4.8245  -22.2151 H   0  0  0  0  0  0  0  0  0  0  0  0
 28 29  2  0  0  0
 29  1  1  0  0  0
  1  2  2  0  0  0
  2  3  1  0  0  0
  3  4  2  0  0  0
  4  5  1  0  0  0
  5  6  1  0  0  0
  5  7  2  0  0  0
  7  8  1  0  0  0
  8 14  1  0  0  0
 14 15  2  0  0  0
 14 16  1  0  0  0
 16 18  1  0  0  0
 18 19  2  0  0  0
 19 20  1  0  0  0
 20 21  2  0  0  0
 21 22  1  0  0  0
 22 23  2  0  0  0
 22 24  1  0  0  0
 24 25  1  0  0  0
 25 26  1  0  0  0
  8  9  2  0  0  0
  9 10  1  0  0  0
 10 11  2  0  0  0
 11 12  1  0  0  0
 12 13  2  0  0  0
 11  2  1  0  0  0
 10  4  1  0  0  0
 23 18  1  0  0  0
 13  9  1  0  0  0
 26 21  1  0  0  0
 28 30  1  0  0  0
 16 17  1  0  0  0
 25 27  1  0  0  0
M  END
> <minimizedAffinity>
-8.69271

> <minimizedRMSD>
0.80342

$$$$
P20602


 29 33  0  0  0  0  0  0  0  0999 V2000
   -7.4162    4.6235  -15.3750 C   0  0  0  0  0  0  0  0  0  0  0  0
   -8.6631    4.1070  -15.9090 C   0  0  0  0  0  0  0  0  0  0  0  0
   -8.9263    3.8279  -17.3187 C   0  0  0  0  0  0  0  0  0  0  0  0
  -10.1420    3.4126  -17.6903 F   0  0  0  0  0  0  0  0  0  0  0  0
   -7.9549    4.0070  -18.2780 C   0  0  0  0  0  0  0  0  0  0  0  0
   -6.8425    4.4968  -17.6981 C   0  0  0  0  0  0  0  0  0  0  0  0
   -5.8943    4.6901  -18.6314 C   0  0  0  0  0  0  0  0  0  0  0  0
   -4.8297    5.1795  -17.9220 N   0  0  0  0  0  0  0  0  0  0  0  0
   -5.1953    5.2645  -16.5461 C   0  0  0  0  0  0  0  0  0  0  0  0
   -6.4948    4.8152  -16.4104 C   0  0  0  0  0  0  0  0  0  0  0  0
   -6.3991    4.2896  -19.9255 C   0  0  0  0  0  0  0  0  0  0  0  0
   -5.8389    4.2829  -21.0087 O   0  0  0  0  0  0  0  0  0  0  0  0
   -7.7200    3.8586  -19.6426 N   0  0  0  0  0  0  0  0  0  0  0  0
   -3.9561    5.4310  -18.2997 H   0  0  0  0  0  0  0  0  0  0  0  0
   -8.3641    3.5120  -20.3015 H   0  0  0  0  0  0  0  0  0  0  0  0
   -6.5733    5.9441  -13.7273 O   0  0  0  0  0  0  0  0  0  0  0  0
   -7.2160    4.9985  -13.9678 C   0  0  0  0  0  0  0  0  0  0  0  0
   -7.9758    4.0340  -13.0230 N   0  0  0  0  0  0  0  0  0  0  0  0
   -8.3858    3.2580  -13.4690 H   0  0  0  0  0  0  0  0  0  0  0  0
   -8.1733    4.0864  -11.6446 C   0  0  0  0  0  0  0  0  0  0  0  0
   -8.0572    5.2910  -10.9357 C   0  0  0  0  0  0  0  0  0  0  0  0
   -8.2639    5.3302   -9.5524 C   0  0  0  0  0  0  0  0  0  0  0  0
   -8.5690    4.1502   -8.8999 C   0  0  0  0  0  0  0  0  0  0  0  0
   -8.6898    2.9565   -9.5990 C   0  0  0  0  0  0  0  0  0  0  0  0
   -8.5047    2.9055  -10.9717 C   0  0  0  0  0  0  0  0  0  0  0  0
   -9.0596    1.8654   -8.6536 C   0  0  0  0  0  0  0  0  0  0  0  0
   -8.9240    2.4409   -7.2869 N   0  0  0  0  0  0  0  0  0  0  0  0
   -8.8403    3.9083   -7.4558 C   0  0  0  0  0  0  0  0  0  0  0  0
   -8.0781    2.0889   -6.8386 H   0  0  0  0  0  0  0  0  0  0  0  0
 16 17  2  0  0  0
 17 18  1  0  0  0
 18 20  1  0  0  0
 20 21  2  0  0  0
 21 22  1  0  0  0
 22 23  2  0  0  0
 23 24  1  0  0  0
 24 25  2  0  0  0
 24 26  1  0  0  0
 26 27  1  0  0  0
 27 28  1  0  0  0
 17  1  1  0  0  0
  1  2  2  0  0  0
  2  3  1  0  0  0
  3  4  1  0  0  0
  3  5  2  0  0  0
  5  6  1  0  0  0
  6  7  2  0  0  0
  7  8  1  0  0  0
  8  9  1  0  0  0
  9 10  2  0  0  0
  7 11  1  0  0  0
 11 12  2  0  0  0
 11 13  1  0  0  0
 25 20  1  0  0  0
 10  1  1  0  0  0
 28 23  1  0  0  0
 13  5  1  0  0  0
 10  6  1  0  0  0
 18 19  1  0  0  0
 27 29  1  0  0  0
  8 14  1  0  0  0
 13 15  1  0  0  0
M  END
> <minimizedAffinity>
-9.41508

> <minimizedRMSD>
0.23445

$$$$
P20604


 31 35  0  0  0  0  0  0  0  0999 V2000
   -2.4967    7.9414  -17.5772 C   0  0  0  0  0  0  0  0  0  0  0  0
   -3.3484    7.0444  -18.3595 N   0  0  0  0  0  0  0  0  0  0  0  0
   -3.3079    5.6880  -17.8065 C   0  0  0  0  0  0  0  0  0  0  0  0
   -4.1509    4.7278  -18.6412 C   0  0  0  0  0  0  0  0  0  0  0  0
   -5.5946    5.1781  -18.8469 C   0  0  0  0  0  0  0  0  0  0  0  0
   -5.6109    6.6546  -19.2675 C   0  0  0  0  0  0  0  0  0  0  0  0
   -4.7227    7.5473  -18.4039 C   0  0  0  0  0  0  0  0  0  0  0  0
   -6.3068    4.3662  -19.9810 C   0  0  0  0  0  0  0  0  0  0  0  0
   -5.9178    4.1663  -21.1221 O   0  0  0  0  0  0  0  0  0  0  0  0
   -7.5153    3.9084  -19.4743 N   0  0  0  0  0  0  0  0  0  0  0  0
   -7.6293    4.1771  -18.1260 C   0  0  0  0  0  0  0  0  0  0  0  0
   -8.6684    3.7945  -17.3064 C   0  0  0  0  0  0  0  0  0  0  0  0
   -8.5572    4.0934  -15.9490 C   0  0  0  0  0  0  0  0  0  0  0  0
   -7.4322    4.7772  -15.4556 C   0  0  0  0  0  0  0  0  0  0  0  0
   -6.4054    5.1818  -16.3224 C   0  0  0  0  0  0  0  0  0  0  0  0
   -6.5109    4.8769  -17.6705 C   0  0  0  0  0  0  0  0  0  0  0  0
   -8.2034    3.4504  -20.0090 H   0  0  0  0  0  0  0  0  0  0  0  0
   -7.3586    5.2024  -14.0284 C   0  0  0  0  0  0  0  0  0  0  0  0
   -6.8443    6.2248  -13.7909 O   0  0  0  0  0  0  0  0  0  0  0  0
   -8.0685    4.1947  -13.0914 N   0  0  0  0  0  0  0  0  0  0  0  0
   -8.4924    3.4337  -13.5501 H   0  0  0  0  0  0  0  0  0  0  0  0
   -8.2050    4.1895  -11.7039 C   0  0  0  0  0  0  0  0  0  0  0  0
   -8.1146    5.3724  -10.9537 C   0  0  0  0  0  0  0  0  0  0  0  0
   -8.2912    5.3560   -9.5651 C   0  0  0  0  0  0  0  0  0  0  0  0
   -8.5658    4.1467   -8.9536 C   0  0  0  0  0  0  0  0  0  0  0  0
   -8.6418    2.9708   -9.6917 C   0  0  0  0  0  0  0  0  0  0  0  0
   -8.4570    2.9714  -11.0643 C   0  0  0  0  0  0  0  0  0  0  0  0
   -8.9277    1.8316   -8.7696 C   0  0  0  0  0  0  0  0  0  0  0  0
   -9.3761    2.4645   -7.4990 N   0  0  0  0  0  0  0  0  0  0  0  0
   -8.8104    3.8324   -7.5163 C   0  0  0  0  0  0  0  0  0  0  0  0
   -9.0226    1.9429   -6.6970 H   0  0  0  0  0  0  0  0  0  0  0  0
  1  2  1  0  0  0
  2  3  1  0  0  0
  3  4  1  0  0  0
  4  5  1  0  0  0
  5  6  1  0  0  0
  6  7  1  0  0  0
  5  8  1  0  0  0
  8  9  2  0  0  0
  8 10  1  0  0  0
 10 11  1  0  0  0
 11 12  2  0  0  0
 12 13  1  0  0  0
 13 14  2  0  0  0
 14 18  1  0  0  0
 18 19  2  0  0  0
 18 20  1  0  0  0
 20 22  1  0  0  0
 22 23  2  0  0  0
 23 24  1  0  0  0
 24 25  2  0  0  0
 25 26  1  0  0  0
 26 27  2  0  0  0
 26 28  1  0  0  0
 28 29  1  0  0  0
 29 30  1  0  0  0
 14 15  1  0  0  0
 15 16  2  0  0  0
  7  2  1  0  0  0
 16 11  1  0  0  0
 16  5  1  0  0  0
 27 22  1  0  0  0
 30 25  1  0  0  0
 10 17  1  0  0  0
 20 21  1  0  0  0
 29 31  1  0  0  0
M  END
> <minimizedAffinity>
-9.50100

> <minimizedRMSD>
0.30377

$$$$
P20605


 33 38  0  0  0  0  0  0  0  0999 V2000
   -6.8466    4.8015  -15.0880 C   0  0  0  0  0  0  0  0  0  0  0  0
   -8.1106    4.4787  -15.7249 C   0  0  0  0  0  0  0  0  0  0  0  0
   -8.2921    4.3103  -17.1613 C   0  0  0  0  0  0  0  0  0  0  0  0
   -9.9892    4.1790  -17.9062 Br  0  0  0  0  0  0  0  0  0  0  0  0
   -7.2423    4.3970  -18.0427 C   0  0  0  0  0  0  0  0  0  0  0  0
   -6.1286    4.7275  -17.3728 C   0  0  0  0  0  0  0  0  0  0  0  0
   -5.1327    4.9353  -18.2521 C   0  0  0  0  0  0  0  0  0  0  0  0
   -4.0853    5.2998  -17.4561 N   0  0  0  0  0  0  0  0  0  0  0  0
   -4.5027    5.2968  -16.0958 C   0  0  0  0  0  0  0  0  0  0  0  0
   -5.8416    4.9539  -16.0521 C   0  0  0  0  0  0  0  0  0  0  0  0
   -5.6056    4.6994  -19.5949 C   0  0  0  0  0  0  0  0  0  0  0  0
   -5.0189    4.7743  -20.6604 O   0  0  0  0  0  0  0  0  0  0  0  0
   -6.9588    4.3494  -19.4028 N   0  0  0  0  0  0  0  0  0  0  0  0
   -7.5965    4.1111  -20.1140 H   0  0  0  0  0  0  0  0  0  0  0  0
   -2.7175    5.5223  -17.9688 C   0  0  0  0  0  0  0  0  0  0  0  0
   -2.6144    6.7759  -18.8664 C   0  0  0  0  0  0  0  0  0  0  0  0
   -2.1716    7.5575  -17.6864 N   0  0  0  0  0  0  0  0  0  0  0  0
   -1.7550    6.2910  -17.0440 C   0  0  0  0  0  0  0  0  0  0  0  0
   -2.9223    8.0487  -17.2010 H   0  0  0  0  0  0  0  0  0  0  0  0
   -6.0907    6.0083  -13.3132 O   0  0  0  0  0  0  0  0  0  0  0  0
   -6.7344    5.0946  -13.6533 C   0  0  0  0  0  0  0  0  0  0  0  0
   -7.6135    4.1218  -12.8268 N   0  0  0  0  0  0  0  0  0  0  0  0
   -8.0001    3.3770  -13.3417 H   0  0  0  0  0  0  0  0  0  0  0  0
   -7.9456    4.1299  -11.4731 C   0  0  0  0  0  0  0  0  0  0  0  0
   -7.8820    5.3080  -10.7151 C   0  0  0  0  0  0  0  0  0  0  0  0
   -8.2213    5.3057   -9.3577 C   0  0  0  0  0  0  0  0  0  0  0  0
   -8.5989    4.1094   -8.7772 C   0  0  0  0  0  0  0  0  0  0  0  0
   -8.6712    2.9418   -9.5256 C   0  0  0  0  0  0  0  0  0  0  0  0
   -8.3641    2.9342  -10.8778 C   0  0  0  0  0  0  0  0  0  0  0  0
   -9.1267    1.8243   -8.6504 C   0  0  0  0  0  0  0  0  0  0  0  0
   -9.0863    2.3497   -7.2574 N   0  0  0  0  0  0  0  0  0  0  0  0
   -8.9918    3.8219   -7.3697 C   0  0  0  0  0  0  0  0  0  0  0  0
   -8.2733    1.9804   -6.7644 H   0  0  0  0  0  0  0  0  0  0  0  0
 20 21  2  0  0  0
 21 22  1  0  0  0
 22 24  1  0  0  0
 24 25  2  0  0  0
 25 26  1  0  0  0
 26 27  2  0  0  0
 27 28  1  0  0  0
 28 29  2  0  0  0
 28 30  1  0  0  0
 30 31  1  0  0  0
 31 32  1  0  0  0
 21  1  1  0  0  0
  1  2  2  0  0  0
  2  3  1  0  0  0
  3  4  1  0  0  0
  3  5  2  0  0  0
  5  6  1  0  0  0
  6  7  2  0  0  0
  7  8  1  0  0  0
  8 15  1  0  0  0
 15 16  1  0  0  0
 16 17  1  0  0  0
 17 18  1  0  0  0
  8  9  1  0  0  0
  9 10  2  0  0  0
  7 11  1  0  0  0
 11 12  2  0  0  0
 11 13  1  0  0  0
 29 24  1  0  0  0
 10  1  1  0  0  0
 32 27  1  0  0  0
 13  5  1  0  0  0
 10  6  1  0  0  0
 18 15  1  0  0  0
 22 23  1  0  0  0
 31 33  1  0  0  0
 17 19  1  0  0  0
 13 14  1  0  0  0
M  END
> <minimizedAffinity>
-8.74462

> <minimizedRMSD>
0.43042

$$$$
P20606


 38 42  0  0  0  0  0  0  0  0999 V2000
   -6.8942    5.0829  -13.3738 C   0  0  0  0  0  0  0  0  0  0  0  0
   -7.0175    6.5012  -13.3138 O   0  0  0  0  0  0  0  0  0  0  0  0
   -7.8109    6.7775  -13.7986 H   0  0  0  0  0  0  0  0  0  0  0  0
   -5.0477    4.8966  -20.4105 O   0  0  0  0  0  0  0  0  0  0  0  0
   -5.5842    4.8185  -19.3245 C   0  0  0  0  0  0  0  0  0  0  0  0
   -6.8540    4.3662  -19.0276 N   0  0  0  0  0  0  0  0  0  0  0  0
   -7.0528    4.4344  -17.6527 C   0  0  0  0  0  0  0  0  0  0  0  0
   -8.1474    4.1523  -16.8927 C   0  0  0  0  0  0  0  0  0  0  0  0
   -9.6210    3.7693  -17.6325 Cl  0  0  0  0  0  0  0  0  0  0  0  0
   -8.0406    4.3055  -15.5087 C   0  0  0  0  0  0  0  0  0  0  0  0
   -6.8535    4.7957  -14.8790 C   0  0  0  0  0  0  0  0  0  0  0  0
   -5.7507    5.1335  -15.6927 C   0  0  0  0  0  0  0  0  0  0  0  0
   -4.5617    5.6669  -15.3286 N   0  0  0  0  0  0  0  0  0  0  0  0
   -3.6217    5.9303  -16.2890 C   0  0  0  0  0  0  0  0  0  0  0  0
   -3.7860    5.7153  -17.6506 C   0  0  0  0  0  0  0  0  0  0  0  0
   -4.9970    5.1886  -18.0114 C   0  0  0  0  0  0  0  0  0  0  0  0
   -5.9310    4.9123  -17.0534 C   0  0  0  0  0  0  0  0  0  0  0  0
   -7.5138    4.0462  -19.6845 H   0  0  0  0  0  0  0  0  0  0  0  0
   -5.5890    4.5783  -12.5814 C   0  0  0  0  0  0  0  0  0  0  0  0
   -4.9215    5.3136  -11.9566 O   0  0  0  0  0  0  0  0  0  0  0  0
   -5.4434    3.0457  -12.8302 N   0  0  0  0  0  0  0  0  0  0  0  0
   -6.0972    2.6665  -13.4610 H   0  0  0  0  0  0  0  0  0  0  0  0
   -4.5075    2.0948  -12.2868 C   0  0  0  0  0  0  0  0  0  0  0  0
   -3.1121    2.1865  -12.8934 C   0  0  0  0  0  0  0  0  0  0  0  0
   -2.8155    1.0136  -13.5178 F   0  0  0  0  0  0  0  0  0  0  0  0
   -3.0831    3.1392  -13.8634 F   0  0  0  0  0  0  0  0  0  0  0  0
   -8.0831    4.4742  -12.7540 N   0  0  0  0  0  0  0  0  0  0  0  0
   -8.7623    4.0639  -13.3368 H   0  0  0  0  0  0  0  0  0  0  0  0
   -8.2866    4.4557  -11.3643 C   0  0  0  0  0  0  0  0  0  0  0  0
   -8.1460    5.5712  -10.5138 C   0  0  0  0  0  0  0  0  0  0  0  0
   -8.3101    5.4777   -9.1251 C   0  0  0  0  0  0  0  0  0  0  0  0
   -8.5996    4.2454   -8.5815 C   0  0  0  0  0  0  0  0  0  0  0  0
   -8.7340    3.1330   -9.3933 C   0  0  0  0  0  0  0  0  0  0  0  0
   -8.5856    3.2212  -10.7705 C   0  0  0  0  0  0  0  0  0  0  0  0
   -9.0370    1.9397   -8.5573 C   0  0  0  0  0  0  0  0  0  0  0  0
   -8.9936    2.3940   -7.1392 N   0  0  0  0  0  0  0  0  0  0  0  0
   -8.8319    3.8638   -7.1629 C   0  0  0  0  0  0  0  0  0  0  0  0
   -8.2054    1.9623   -6.6567 H   0  0  0  0  0  0  0  0  0  0  0  0
  4  5  2  0  0  0
  5  6  1  0  0  0
  6  7  1  0  0  0
  7  8  2  0  0  0
  8  9  1  0  0  0
  8 10  1  0  0  0
 10 11  2  0  0  0
 11  1  1  0  0  0
  1  2  1  0  0  0
  1 27  1  0  0  0
 27 29  1  0  0  0
 29 30  2  0  0  0
 30 31  1  0  0  0
 31 32  2  0  0  0
 32 33  1  0  0  0
 33 34  2  0  0  0
 33 35  1  0  0  0
 35 36  1  0  0  0
 36 37  1  0  0  0
  1 19  1  0  0  0
 19 20  2  0  0  0
 19 21  1  0  0  0
 21 23  1  0  0  0
 23 24  1  0  0  0
 24 25  1  0  0  0
 24 26  1  0  0  0
 11 12  1  0  0  0
 12 13  2  0  0  0
 13 14  1  0  0  0
 14 15  2  0  0  0
 15 16  1  0  0  0
 16 17  2  0  0  0
 16  5  1  0  0  0
 17  7  1  0  0  0
 34 29  1  0  0  0
 17 12  1  0  0  0
 37 32  1  0  0  0
  6 18  1  0  0  0
  2  3  1  0  0  0
 27 28  1  0  0  0
 36 38  1  0  0  0
 21 22  1  0  0  0
M  END
> <minimizedAffinity>
-9.19181

> <minimizedRMSD>
1.09416

$$$$
P20607


 34 38  0  0  0  0  0  0  0  0999 V2000
   -7.0842    4.7441  -15.3989 C   0  0  0  0  0  0  0  0  0  0  0  0
   -8.3386    4.3111  -15.8663 C   0  0  0  0  0  0  0  0  0  0  0  0
   -8.5327    4.1007  -17.2240 C   0  0  0  0  0  0  0  0  0  0  0  0
  -10.0804    3.8087  -17.8497 Cl  0  0  0  0  0  0  0  0  0  0  0  0
   -7.4738    4.2766  -18.0819 C   0  0  0  0  0  0  0  0  0  0  0  0
   -6.2475    4.7681  -17.6506 C   0  0  0  0  0  0  0  0  0  0  0  0
   -6.0343    5.0095  -16.2992 C   0  0  0  0  0  0  0  0  0  0  0  0
   -5.4156    5.0818  -18.8742 C   0  0  0  0  0  0  0  0  0  0  0  0
   -6.2218    4.3679  -19.9950 C   0  0  0  0  0  0  0  0  0  0  0  0
   -5.8933    4.1531  -21.1507 O   0  0  0  0  0  0  0  0  0  0  0  0
   -7.4507    4.0403  -19.4471 N   0  0  0  0  0  0  0  0  0  0  0  0
   -8.2109    3.6849  -19.9618 H   0  0  0  0  0  0  0  0  0  0  0  0
   -6.2651    6.0179  -13.6809 O   0  0  0  0  0  0  0  0  0  0  0  0
   -6.9495    5.1121  -13.9589 C   0  0  0  0  0  0  0  0  0  0  0  0
   -7.8683    4.2359  -13.0681 N   0  0  0  0  0  0  0  0  0  0  0  0
   -8.4074    3.5736  -13.5579 H   0  0  0  0  0  0  0  0  0  0  0  0
   -8.0549    4.2336  -11.6857 C   0  0  0  0  0  0  0  0  0  0  0  0
   -8.0119    5.4214  -10.9404 C   0  0  0  0  0  0  0  0  0  0  0  0
   -8.2647    5.4121   -9.5633 C   0  0  0  0  0  0  0  0  0  0  0  0
   -8.5587    4.2043   -8.9572 C   0  0  0  0  0  0  0  0  0  0  0  0
   -8.5886    3.0232   -9.6900 C   0  0  0  0  0  0  0  0  0  0  0  0
   -8.3421    3.0181  -11.0534 C   0  0  0  0  0  0  0  0  0  0  0  0
   -8.8928    1.8855   -8.7717 C   0  0  0  0  0  0  0  0  0  0  0  0
   -9.3966    2.5170   -7.5214 N   0  0  0  0  0  0  0  0  0  0  0  0
   -8.8606    3.8968   -7.5293 C   0  0  0  0  0  0  0  0  0  0  0  0
   -9.0588    2.0083   -6.7043 H   0  0  0  0  0  0  0  0  0  0  0  0
   -3.9400    4.7108  -18.7972 C   0  0  0  0  0  0  0  0  0  0  0  0
   -3.0191    5.6568  -19.5987 C   0  0  0  0  0  0  0  0  0  0  0  0
   -1.5925    5.6507  -19.0232 C   0  0  0  0  0  0  0  0  0  0  0  0
   -1.3781    6.7710  -18.0115 C   0  0  0  0  0  0  0  0  0  0  0  0
   -1.5960    8.1104  -18.5650 N   0  0  0  0  0  0  0  0  0  0  0  0
   -2.4648    8.1283  -19.7440 C   0  0  0  0  0  0  0  0  0  0  0  0
   -3.5799    7.0907  -19.6578 C   0  0  0  0  0  0  0  0  0  0  0  0
   -0.6910    8.5016  -18.8265 H   0  0  0  0  0  0  0  0  0  0  0  0
 13 14  2  0  0  0
 14 15  1  0  0  0
 15 17  1  0  0  0
 17 18  2  0  0  0
 18 19  1  0  0  0
 19 20  2  0  0  0
 20 21  1  0  0  0
 21 22  2  0  0  0
 21 23  1  0  0  0
 23 24  1  0  0  0
 24 25  1  0  0  0
 14  1  1  0  0  0
  1  2  2  0  0  0
  2  3  1  0  0  0
  3  4  1  0  0  0
  3  5  2  0  0  0
  5  6  1  0  0  0
  6  7  2  0  0  0
  6  8  1  0  0  0
  8 27  1  0  0  0
 27 28  1  0  0  0
 28 29  1  0  0  0
 29 30  1  0  0  0
 30 31  1  0  0  0
 31 32  1  0  0  0
 32 33  1  0  0  0
  8  9  1  0  0  0
  9 10  2  0  0  0
  9 11  1  0  0  0
 22 17  1  0  0  0
  7  1  1  0  0  0
 33 28  1  0  0  0
 25 20  1  0  0  0
 11  5  1  0  0  0
 15 16  1  0  0  0
 24 26  1  0  0  0
 31 34  1  0  0  0
 11 12  1  0  0  0
M  END
> <minimizedAffinity>
-8.80436

> <minimizedRMSD>
0.39631

$$$$
P20608


 29 32  0  0  0  0  0  0  0  0999 V2000
   -5.7063    5.1709  -18.8552 C   0  0  0  0  0  0  0  0  0  0  0  0
   -6.3346    4.3488  -20.0176 C   0  0  0  0  0  0  0  0  0  0  0  0
   -5.8830    4.1596  -21.1368 O   0  0  0  0  0  0  0  0  0  0  0  0
   -7.5554    3.8573  -19.5616 N   0  0  0  0  0  0  0  0  0  0  0  0
   -7.7255    4.1203  -18.2165 C   0  0  0  0  0  0  0  0  0  0  0  0
   -8.7543    3.7050  -17.4086 C   0  0  0  0  0  0  0  0  0  0  0  0
   -8.6641    4.0128  -16.0469 C   0  0  0  0  0  0  0  0  0  0  0  0
   -7.5887    4.7531  -15.5379 C   0  0  0  0  0  0  0  0  0  0  0  0
   -6.5721    5.1732  -16.3894 C   0  0  0  0  0  0  0  0  0  0  0  0
   -6.6509    4.8510  -17.7299 C   0  0  0  0  0  0  0  0  0  0  0  0
   -8.2107    3.3847  -20.1241 H   0  0  0  0  0  0  0  0  0  0  0  0
   -7.5145    5.2169  -14.1261 C   0  0  0  0  0  0  0  0  0  0  0  0
   -6.9282    6.2034  -13.9101 O   0  0  0  0  0  0  0  0  0  0  0  0
   -8.2277    4.2456  -13.1623 N   0  0  0  0  0  0  0  0  0  0  0  0
   -8.7211    3.5163  -13.6027 H   0  0  0  0  0  0  0  0  0  0  0  0
   -8.2870    4.2326  -11.7703 C   0  0  0  0  0  0  0  0  0  0  0  0
   -8.1683    5.4189  -11.0270 C   0  0  0  0  0  0  0  0  0  0  0  0
   -8.2767    5.4051   -9.6326 C   0  0  0  0  0  0  0  0  0  0  0  0
   -8.5252    4.1965   -9.0106 C   0  0  0  0  0  0  0  0  0  0  0  0
   -8.6255    3.0184   -9.7437 C   0  0  0  0  0  0  0  0  0  0  0  0
   -8.4918    3.0137  -11.1211 C   0  0  0  0  0  0  0  0  0  0  0  0
   -8.8903    1.8834   -8.8121 C   0  0  0  0  0  0  0  0  0  0  0  0
   -9.3128    2.5235   -7.5365 N   0  0  0  0  0  0  0  0  0  0  0  0
   -8.7342    3.8860   -7.5671 C   0  0  0  0  0  0  0  0  0  0  0  0
   -8.9516    2.0007   -6.7386 H   0  0  0  0  0  0  0  0  0  0  0  0
   -4.2598    4.8020  -18.5075 C   0  0  0  0  0  0  0  0  0  0  0  0
   -1.9176    5.3814  -18.5955 C   0  0  0  0  0  0  0  0  0  0  0  0
   -3.2844    5.9052  -18.6219 N   0  0  0  0  0  0  0  0  0  0  0  0
   -3.4120    6.9799  -17.6484 C   0  0  0  0  0  0  0  0  0  0  0  0
 27 28  1  0  0  0
 28 29  1  0  0  0
 28 26  1  0  0  0
  1 26  1  0  0  0
  1  2  1  0  0  0
  2  3  2  0  0  0
  2  4  1  0  0  0
  4  5  1  0  0  0
  5  6  2  0  0  0
  6  7  1  0  0  0
  7  8  2  0  0  0
  8 12  1  0  0  0
 12 13  2  0  0  0
 12 14  1  0  0  0
 14 16  1  0  0  0
 16 17  2  0  0  0
 17 18  1  0  0  0
 18 19  2  0  0  0
 19 20  1  0  0  0
 20 21  2  0  0  0
 20 22  1  0  0  0
 22 23  1  0  0  0
 23 24  1  0  0  0
  8  9  1  0  0  0
  9 10  2  0  0  0
 10  1  1  0  0  0
 10  5  1  0  0  0
 21 16  1  0  0  0
 24 19  1  0  0  0
  4 11  1  0  0  0
 14 15  1  0  0  0
 23 25  1  0  0  0
M  END
> <minimizedAffinity>
-8.30233

> <minimizedRMSD>
0.61275

$$$$
P20609


 35 40  0  0  0  0  0  0  0  0999 V2000
   -8.1165    6.4567  -13.0624 O   0  0  0  0  0  0  0  0  0  0  0  0
   -7.9618    5.3078  -13.2030 C   0  0  0  0  0  0  0  0  0  0  0  0
   -8.1109    4.1455  -12.1940 N   0  0  0  0  0  0  0  0  0  0  0  0
   -7.9979    3.2471  -12.5804 H   0  0  0  0  0  0  0  0  0  0  0  0
   -8.3789    4.1629  -10.8285 C   0  0  0  0  0  0  0  0  0  0  0  0
   -8.2256    5.3521  -10.1015 C   0  0  0  0  0  0  0  0  0  0  0  0
   -8.3887    5.3582   -8.7224 C   0  0  0  0  0  0  0  0  0  0  0  0
   -8.1761    6.4874   -8.0341 F   0  0  0  0  0  0  0  0  0  0  0  0
   -8.6852    4.1831   -8.0706 C   0  0  0  0  0  0  0  0  0  0  0  0
   -8.8975    3.0134   -8.7995 C   0  0  0  0  0  0  0  0  0  0  0  0
   -8.7575    2.9835  -10.1811 C   0  0  0  0  0  0  0  0  0  0  0  0
   -9.2501    1.9085   -7.8636 C   0  0  0  0  0  0  0  0  0  0  0  0
   -8.8350    2.3816   -6.5142 N   0  0  0  0  0  0  0  0  0  0  0  0
   -8.6532    3.8652   -6.6191 C   0  0  0  0  0  0  0  0  0  0  0  0
   -7.3518    4.3595   -5.9736 C   0  0  0  0  0  0  0  0  0  0  0  0
   -7.5786    4.1911   -4.4741 C   0  0  0  0  0  0  0  0  0  0  0  0
   -8.9923    4.6996   -4.2702 C   0  0  0  0  0  0  0  0  0  0  0  0
   -9.6007    4.5502   -5.6480 C   0  0  0  0  0  0  0  0  0  0  0  0
  -10.7187    4.9876   -5.8787 O   0  0  0  0  0  0  0  0  0  0  0  0
   -7.9585    1.9379   -6.2397 H   0  0  0  0  0  0  0  0  0  0  0  0
   -7.6463    4.8287  -14.5511 C   0  0  0  0  0  0  0  0  0  0  0  0
   -8.6358    4.3569  -15.4942 C   0  0  0  0  0  0  0  0  0  0  0  0
   -8.4032    4.1797  -16.9309 C   0  0  0  0  0  0  0  0  0  0  0  0
   -9.7228    3.8159  -17.9462 Cl  0  0  0  0  0  0  0  0  0  0  0  0
   -7.1658    4.4156  -17.5019 C   0  0  0  0  0  0  0  0  0  0  0  0
   -6.3028    4.7819  -16.5365 C   0  0  0  0  0  0  0  0  0  0  0  0
   -5.1502    5.1901  -17.0936 C   0  0  0  0  0  0  0  0  0  0  0  0
   -4.4035    5.6443  -16.0445 N   0  0  0  0  0  0  0  0  0  0  0  0
   -5.1953    5.5720  -14.8655 C   0  0  0  0  0  0  0  0  0  0  0  0
   -6.4240    5.0331  -15.1958 C   0  0  0  0  0  0  0  0  0  0  0  0
   -5.2210    5.0629  -18.5245 C   0  0  0  0  0  0  0  0  0  0  0  0
   -4.3915    5.3896  -19.3533 O   0  0  0  0  0  0  0  0  0  0  0  0
   -6.5228    4.5484  -18.7379 N   0  0  0  0  0  0  0  0  0  0  0  0
   -3.4748    5.9670  -16.0957 H   0  0  0  0  0  0  0  0  0  0  0  0
   -6.9122    4.3211  -19.6131 H   0  0  0  0  0  0  0  0  0  0  0  0
  1  2  2  0  0  0
  2  3  1  0  0  0
  3  5  1  0  0  0
  5  6  2  0  0  0
  6  7  1  0  0  0
  7  8  1  0  0  0
  7  9  2  0  0  0
  9 10  1  0  0  0
 10 11  2  0  0  0
 10 12  1  0  0  0
 12 13  1  0  0  0
 13 14  1  0  0  0
 14 15  1  0  0  0
 15 16  1  0  0  0
 16 17  1  0  0  0
 17 18  1  0  0  0
 18 19  2  0  0  0
  2 21  1  0  0  0
 21 22  2  0  0  0
 22 23  1  0  0  0
 23 24  1  0  0  0
 23 25  2  0  0  0
 25 26  1  0  0  0
 26 27  2  0  0  0
 27 28  1  0  0  0
 28 29  1  0  0  0
 29 30  2  0  0  0
 27 31  1  0  0  0
 31 32  2  0  0  0
 31 33  1  0  0  0
 11  5  1  0  0  0
 18 14  1  0  0  0
 30 21  1  0  0  0
 14  9  1  0  0  0
 33 25  1  0  0  0
 30 26  1  0  0  0
  3  4  1  0  0  0
 13 20  1  0  0  0
 28 34  1  0  0  0
 33 35  1  0  0  0
M  END
> <minimizedAffinity>
-9.72819

> <minimizedRMSD>
0.68380

$$$$
P20610


 38 43  0  0  0  0  0  0  0  0999 V2000
   -4.4954    5.4420  -18.3379 C   0  0  0  0  0  0  0  0  0  0  0  0
   -4.3928    6.8086  -17.7048 N   0  0  0  0  0  0  0  0  0  0  0  0
   -4.5452    6.5088  -16.2089 C   0  0  0  0  0  0  0  0  0  0  0  0
   -5.5642    5.4110  -16.1754 C   0  0  0  0  0  0  0  0  0  0  0  0
   -6.6325    5.1251  -15.3457 C   0  0  0  0  0  0  0  0  0  0  0  0
   -7.7816    4.5212  -15.9069 C   0  0  0  0  0  0  0  0  0  0  0  0
   -7.8355    4.2801  -17.2917 C   0  0  0  0  0  0  0  0  0  0  0  0
   -9.3128    3.9181  -18.0498 Cl  0  0  0  0  0  0  0  0  0  0  0  0
   -6.6982    4.4876  -18.0435 C   0  0  0  0  0  0  0  0  0  0  0  0
   -5.5410    4.8740  -17.4328 C   0  0  0  0  0  0  0  0  0  0  0  0
   -6.5195    4.6523  -19.4093 N   0  0  0  0  0  0  0  0  0  0  0  0
   -5.2705    5.2432  -19.6981 C   0  0  0  0  0  0  0  0  0  0  0  0
   -4.8790    5.4795  -20.8312 O   0  0  0  0  0  0  0  0  0  0  0  0
   -5.1387    7.4218  -18.0335 H   0  0  0  0  0  0  0  0  0  0  0  0
   -7.1800    4.3903  -20.0907 H   0  0  0  0  0  0  0  0  0  0  0  0
   -6.6554    5.6110  -13.9524 C   0  0  0  0  0  0  0  0  0  0  0  0
   -6.4815    6.7436  -13.7456 O   0  0  0  0  0  0  0  0  0  0  0  0
   -6.9802    4.4581  -12.9850 N   0  0  0  0  0  0  0  0  0  0  0  0
   -7.1582    3.5931  -13.4200 H   0  0  0  0  0  0  0  0  0  0  0  0
   -7.0679    4.4384  -11.5150 C   0  0  0  0  0  0  0  0  0  0  0  0
   -8.0080    3.2553  -11.1308 C   0  0  0  0  0  0  0  0  0  0  0  0
   -8.4088    3.2556   -9.7046 C   0  0  0  0  0  0  0  0  0  0  0  0
   -8.2144    4.2689   -8.8658 C   0  0  0  0  0  0  0  0  0  0  0  0
   -8.7157    3.9253   -7.5116 C   0  0  0  0  0  0  0  0  0  0  0  0
   -9.4078    2.6350   -7.6702 N   0  0  0  0  0  0  0  0  0  0  0  0
   -9.0049    2.0984   -8.9897 C   0  0  0  0  0  0  0  0  0  0  0  0
   -7.5146    5.5247   -9.2243 C   0  0  0  0  0  0  0  0  0  0  0  0
   -7.4167    5.7568  -10.7649 C   0  0  0  0  0  0  0  0  0  0  0  0
   -8.6721    6.4839  -11.2637 C   0  0  0  0  0  0  0  0  0  0  0  0
   -8.4485    7.9652  -10.9687 C   0  0  0  0  0  0  0  0  0  0  0  0
   -6.9555    8.2090  -11.1300 C   0  0  0  0  0  0  0  0  0  0  0  0
   -6.3576    6.8367  -10.9309 C   0  0  0  0  0  0  0  0  0  0  0  0
   -5.1486    6.6449  -10.8400 O   0  0  0  0  0  0  0  0  0  0  0  0
  -10.4182    2.7714   -7.6394 H   0  0  0  0  0  0  0  0  0  0  0  0
   -3.1141    4.7274  -18.3434 C   0  0  0  0  0  0  0  0  0  0  0  0
   -1.5438    5.9900  -19.7094 C   0  0  0  0  0  0  0  0  0  0  0  0
   -1.8785    5.5475  -18.3596 N   0  0  0  0  0  0  0  0  0  0  0  0
   -2.0173    6.3667  -17.7678 H   0  0  0  0  0  0  0  0  0  0  0  0
 36 37  1  0  0  0
 37 35  1  0  0  0
  1 35  1  0  0  0
  1  2  1  0  0  0
  2  3  1  0  0  0
  3  4  1  0  0  0
  4  5  2  0  0  0
  5 16  1  0  0  0
 16 17  2  0  0  0
 16 18  1  0  0  0
 20 18  1  0  0  0
 20 21  1  0  0  0
 21 22  1  0  0  0
 22 23  2  0  0  0
 23 24  1  0  0  0
 24 25  1  0  0  0
 25 26  1  0  0  0
 23 27  1  0  0  0
 28 27  1  0  0  0
 28 29  1  0  0  0
 29 30  1  0  0  0
 30 31  1  0  0  0
 31 32  1  0  0  0
 32 33  2  0  0  0
  5  6  1  0  0  0
  6  7  2  0  0  0
  7  8  1  0  0  0
  7  9  1  0  0  0
  9 10  2  0  0  0
  9 11  1  0  0  0
 11 12  1  0  0  0
 12 13  2  0  0  0
 10  1  1  0  0  0
 12  1  1  0  0  0
 10  4  1  0  0  0
 28 20  1  0  0  0
 26 22  1  0  0  0
 32 28  1  0  0  0
 37 38  1  0  0  0
  2 14  1  0  0  0
 18 19  1  0  0  0
 25 34  1  0  0  0
 11 15  1  0  0  0
M  END
> <minimizedAffinity>
-8.17565

> <minimizedRMSD>
0.41291

$$$$
P20611


 29 33  0  0  0  0  0  0  0  0999 V2000
   -7.1810    4.8115  -15.1813 C   0  0  0  0  0  0  0  0  0  0  0  0
   -8.4304    4.3880  -15.7809 C   0  0  0  0  0  0  0  0  0  0  0  0
   -8.6278    4.1387  -17.2061 C   0  0  0  0  0  0  0  0  0  0  0  0
  -10.1921    3.9253  -17.8288 Cl  0  0  0  0  0  0  0  0  0  0  0  0
   -7.5909    4.2168  -18.1072 C   0  0  0  0  0  0  0  0  0  0  0  0
   -6.4872    4.6391  -17.4703 C   0  0  0  0  0  0  0  0  0  0  0  0
   -5.5156    4.8655  -18.3718 C   0  0  0  0  0  0  0  0  0  0  0  0
   -4.4910    5.3705  -17.6206 N   0  0  0  0  0  0  0  0  0  0  0  0
   -4.9088    5.4311  -16.2583 C   0  0  0  0  0  0  0  0  0  0  0  0
   -6.2038    4.9656  -16.1700 C   0  0  0  0  0  0  0  0  0  0  0  0
   -5.9841    4.5223  -19.6950 C   0  0  0  0  0  0  0  0  0  0  0  0
   -5.3969    4.5645  -20.7623 O   0  0  0  0  0  0  0  0  0  0  0  0
   -7.3162    4.1074  -19.4680 N   0  0  0  0  0  0  0  0  0  0  0  0
   -3.6103    5.6466  -17.9634 H   0  0  0  0  0  0  0  0  0  0  0  0
   -7.9451    3.7933  -20.1573 H   0  0  0  0  0  0  0  0  0  0  0  0
   -6.4701    6.1442  -13.4763 O   0  0  0  0  0  0  0  0  0  0  0  0
   -7.0516    5.1723  -13.7633 C   0  0  0  0  0  0  0  0  0  0  0  0
   -7.8030    4.1508  -12.8716 N   0  0  0  0  0  0  0  0  0  0  0  0
   -8.1518    3.3643  -13.3501 H   0  0  0  0  0  0  0  0  0  0  0  0
   -8.0651    4.1648  -11.5028 C   0  0  0  0  0  0  0  0  0  0  0  0
   -7.9643    5.3452  -10.7528 C   0  0  0  0  0  0  0  0  0  0  0  0
   -8.2297    5.3454   -9.3790 C   0  0  0  0  0  0  0  0  0  0  0  0
   -8.5766    4.1504   -8.7762 C   0  0  0  0  0  0  0  0  0  0  0  0
   -8.6854    2.9806   -9.5165 C   0  0  0  0  0  0  0  0  0  0  0  0
   -8.4449    2.9692  -10.8819 C   0  0  0  0  0  0  0  0  0  0  0  0
   -9.1025    1.8660   -8.6190 C   0  0  0  0  0  0  0  0  0  0  0  0
   -9.0148    2.3983   -7.2307 N   0  0  0  0  0  0  0  0  0  0  0  0
   -8.9039    3.8686   -7.3511 C   0  0  0  0  0  0  0  0  0  0  0  0
   -8.1928    2.0203   -6.7596 H   0  0  0  0  0  0  0  0  0  0  0  0
 16 17  2  0  0  0
 17 18  1  0  0  0
 18 20  1  0  0  0
 20 21  2  0  0  0
 21 22  1  0  0  0
 22 23  2  0  0  0
 23 24  1  0  0  0
 24 25  2  0  0  0
 24 26  1  0  0  0
 26 27  1  0  0  0
 27 28  1  0  0  0
 17  1  1  0  0  0
  1  2  2  0  0  0
  2  3  1  0  0  0
  3  4  1  0  0  0
  3  5  2  0  0  0
  5  6  1  0  0  0
  6  7  2  0  0  0
  7  8  1  0  0  0
  8  9  1  0  0  0
  9 10  2  0  0  0
  7 11  1  0  0  0
 11 12  2  0  0  0
 11 13  1  0  0  0
 25 20  1  0  0  0
 10  1  1  0  0  0
 28 23  1  0  0  0
 13  5  1  0  0  0
 10  6  1  0  0  0
 18 19  1  0  0  0
 27 29  1  0  0  0
  8 14  1  0  0  0
 13 15  1  0  0  0
M  END
> <minimizedAffinity>
-8.78912

> <minimizedRMSD>
0.22243

$$$$
P20612


 30 34  0  0  0  0  0  0  0  0999 V2000
   -6.5904    6.0656  -13.7200 O   0  0  0  0  0  0  0  0  0  0  0  0
   -7.0902    5.0432  -13.9831 C   0  0  0  0  0  0  0  0  0  0  0  0
   -7.7623    3.9884  -13.0675 N   0  0  0  0  0  0  0  0  0  0  0  0
   -8.0439    3.1640  -13.5260 H   0  0  0  0  0  0  0  0  0  0  0  0
   -7.2293    4.6654  -15.3871 C   0  0  0  0  0  0  0  0  0  0  0  0
   -8.4985    4.2277  -15.9306 C   0  0  0  0  0  0  0  0  0  0  0  0
   -8.7518    3.9702  -17.3395 C   0  0  0  0  0  0  0  0  0  0  0  0
  -10.3387    3.6958  -17.8733 Cl  0  0  0  0  0  0  0  0  0  0  0  0
   -7.7542    4.0715  -18.2816 C   0  0  0  0  0  0  0  0  0  0  0  0
   -6.6273    4.5090  -17.6939 C   0  0  0  0  0  0  0  0  0  0  0  0
   -5.6919    4.7310  -18.6330 C   0  0  0  0  0  0  0  0  0  0  0  0
   -4.6300    5.2199  -17.9237 N   0  0  0  0  0  0  0  0  0  0  0  0
   -4.9915    5.2876  -16.5435 C   0  0  0  0  0  0  0  0  0  0  0  0
   -6.2874    4.8313  -16.4063 C   0  0  0  0  0  0  0  0  0  0  0  0
   -6.2149    4.3828  -19.9341 C   0  0  0  0  0  0  0  0  0  0  0  0
   -5.6747    4.4292  -21.0253 O   0  0  0  0  0  0  0  0  0  0  0  0
   -7.5321    3.9532  -19.6504 N   0  0  0  0  0  0  0  0  0  0  0  0
   -3.7597    5.4821  -18.3020 H   0  0  0  0  0  0  0  0  0  0  0  0
   -8.1836    3.6250  -20.3115 H   0  0  0  0  0  0  0  0  0  0  0  0
   -8.0321    4.0173  -11.7033 C   0  0  0  0  0  0  0  0  0  0  0  0
   -7.9623    5.2186  -10.9965 C   0  0  0  0  0  0  0  0  0  0  0  0
   -8.2635    5.2409   -9.6423 C   0  0  0  0  0  0  0  0  0  0  0  0
   -8.2299    6.4057   -8.9940 F   0  0  0  0  0  0  0  0  0  0  0  0
   -8.5932    4.0755   -8.9891 C   0  0  0  0  0  0  0  0  0  0  0  0
   -8.6703    2.8822   -9.6885 C   0  0  0  0  0  0  0  0  0  0  0  0
   -8.4086    2.8356  -11.0512 C   0  0  0  0  0  0  0  0  0  0  0  0
   -9.0650    1.7899   -8.7552 C   0  0  0  0  0  0  0  0  0  0  0  0
   -9.0793    2.3888   -7.3905 N   0  0  0  0  0  0  0  0  0  0  0  0
   -8.9148    3.8514   -7.5589 C   0  0  0  0  0  0  0  0  0  0  0  0
   -8.3121    2.0115   -6.8342 H   0  0  0  0  0  0  0  0  0  0  0  0
  1  2  2  0  0  0
  2  3  1  0  0  0
  3 20  1  0  0  0
 20 21  2  0  0  0
 21 22  1  0  0  0
 22 23  1  0  0  0
 22 24  2  0  0  0
 24 25  1  0  0  0
 25 26  2  0  0  0
 25 27  1  0  0  0
 27 28  1  0  0  0
 28 29  1  0  0  0
  2  5  1  0  0  0
  5  6  2  0  0  0
  6  7  1  0  0  0
  7  8  1  0  0  0
  7  9  2  0  0  0
  9 10  1  0  0  0
 10 11  2  0  0  0
 11 12  1  0  0  0
 12 13  1  0  0  0
 13 14  2  0  0  0
 11 15  1  0  0  0
 15 16  2  0  0  0
 15 17  1  0  0  0
 26 20  1  0  0  0
 14  5  1  0  0  0
 29 24  1  0  0  0
 17  9  1  0  0  0
 14 10  1  0  0  0
  3  4  1  0  0  0
 28 30  1  0  0  0
 12 18  1  0  0  0
 17 19  1  0  0  0
M  END
> <minimizedAffinity>
-8.90116

> <minimizedRMSD>
0.22787

$$$$
P20613


 34 39  0  0  0  0  0  0  0  0999 V2000
   -6.9305    6.4340  -13.2521 O   0  0  0  0  0  0  0  0  0  0  0  0
   -7.2884    5.3549  -13.5238 C   0  0  0  0  0  0  0  0  0  0  0  0
   -7.9436    4.2595  -12.6392 N   0  0  0  0  0  0  0  0  0  0  0  0
   -8.2265    3.4516  -13.1255 H   0  0  0  0  0  0  0  0  0  0  0  0
   -8.1968    4.2343  -11.2656 C   0  0  0  0  0  0  0  0  0  0  0  0
   -8.1490    5.4127  -10.5115 C   0  0  0  0  0  0  0  0  0  0  0  0
   -8.4101    5.3824   -9.1424 C   0  0  0  0  0  0  0  0  0  0  0  0
   -8.3413    6.5175   -8.4336 F   0  0  0  0  0  0  0  0  0  0  0  0
   -8.7034    4.1859   -8.5200 C   0  0  0  0  0  0  0  0  0  0  0  0
   -8.7550    3.0148   -9.2703 C   0  0  0  0  0  0  0  0  0  0  0  0
   -8.5197    3.0202  -10.6438 C   0  0  0  0  0  0  0  0  0  0  0  0
   -9.0480    1.8592   -8.3737 C   0  0  0  0  0  0  0  0  0  0  0  0
   -9.1883    2.4224   -7.0040 N   0  0  0  0  0  0  0  0  0  0  0  0
   -8.8871    3.8786   -7.0703 C   0  0  0  0  0  0  0  0  0  0  0  0
   -9.9333    4.6768   -6.2713 C   0  0  0  0  0  0  0  0  0  0  0  0
   -9.5230    4.5438   -4.7994 C   0  0  0  0  0  0  0  0  0  0  0  0
   -8.0567    4.1200   -4.8054 C   0  0  0  0  0  0  0  0  0  0  0  0
   -7.6283    4.2364   -6.2615 C   0  0  0  0  0  0  0  0  0  0  0  0
   -8.5332    1.9621   -6.3721 H   0  0  0  0  0  0  0  0  0  0  0  0
   -7.2254    4.9335  -14.9318 C   0  0  0  0  0  0  0  0  0  0  0  0
   -8.4021    4.5274  -15.6713 C   0  0  0  0  0  0  0  0  0  0  0  0
   -8.4497    4.3091  -17.1142 C   0  0  0  0  0  0  0  0  0  0  0  0
   -9.9459    4.1599  -17.9014 Cl  0  0  0  0  0  0  0  0  0  0  0  0
   -7.3227    4.3899  -17.8992 C   0  0  0  0  0  0  0  0  0  0  0  0
   -6.2862    4.7771  -17.1381 C   0  0  0  0  0  0  0  0  0  0  0  0
   -5.2332    5.0406  -17.9326 C   0  0  0  0  0  0  0  0  0  0  0  0
   -4.2962    5.5385  -17.0701 N   0  0  0  0  0  0  0  0  0  0  0  0
   -4.8561    5.5773  -15.7582 C   0  0  0  0  0  0  0  0  0  0  0  0
   -6.1447    5.0873  -15.8088 C   0  0  0  0  0  0  0  0  0  0  0  0
   -5.5670    4.7474  -19.3083 C   0  0  0  0  0  0  0  0  0  0  0  0
   -4.8773    4.8298  -20.3097 O   0  0  0  0  0  0  0  0  0  0  0  0
   -6.9157    4.3337  -19.2305 N   0  0  0  0  0  0  0  0  0  0  0  0
   -3.3859    5.8233  -17.3140 H   0  0  0  0  0  0  0  0  0  0  0  0
   -7.4748    4.0526  -19.9905 H   0  0  0  0  0  0  0  0  0  0  0  0
  1  2  2  0  0  0
  2  3  1  0  0  0
  3  5  1  0  0  0
  5  6  2  0  0  0
  6  7  1  0  0  0
  7  8  1  0  0  0
  7  9  2  0  0  0
  9 10  1  0  0  0
 10 11  2  0  0  0
 10 12  1  0  0  0
 12 13  1  0  0  0
 13 14  1  0  0  0
 14 15  1  0  0  0
 15 16  1  0  0  0
 16 17  1  0  0  0
 17 18  1  0  0  0
  2 20  1  0  0  0
 20 21  2  0  0  0
 21 22  1  0  0  0
 22 23  1  0  0  0
 22 24  2  0  0  0
 24 25  1  0  0  0
 25 26  2  0  0  0
 26 27  1  0  0  0
 27 28  1  0  0  0
 28 29  2  0  0  0
 26 30  1  0  0  0
 30 31  2  0  0  0
 30 32  1  0  0  0
 11  5  1  0  0  0
 18 14  1  0  0  0
 29 20  1  0  0  0
 14  9  1  0  0  0
 32 24  1  0  0  0
 29 25  1  0  0  0
  3  4  1  0  0  0
 13 19  1  0  0  0
 27 33  1  0  0  0
 32 34  1  0  0  0
M  END
> <minimizedAffinity>
-9.81112

> <minimizedRMSD>
0.52106

$$$$
P20614


 31 35  0  0  0  0  0  0  0  0999 V2000
   -7.7288    4.1225  -12.8827 N   0  0  0  0  0  0  0  0  0  0  0  0
   -6.9293    5.1297  -13.7526 C   0  0  0  0  0  0  0  0  0  0  0  0
   -6.3269    6.0831  -13.4465 O   0  0  0  0  0  0  0  0  0  0  0  0
   -8.0894    3.3492  -13.3738 H   0  0  0  0  0  0  0  0  0  0  0  0
   -7.0769    4.8040  -15.1795 C   0  0  0  0  0  0  0  0  0  0  0  0
   -8.3482    4.3859  -15.7503 C   0  0  0  0  0  0  0  0  0  0  0  0
   -8.5842    4.1375  -17.1665 C   0  0  0  0  0  0  0  0  0  0  0  0
  -10.1575    3.8666  -17.7501 Cl  0  0  0  0  0  0  0  0  0  0  0  0
   -7.5694    4.2326  -18.0893 C   0  0  0  0  0  0  0  0  0  0  0  0
   -6.4450    4.6558  -17.4858 C   0  0  0  0  0  0  0  0  0  0  0  0
   -5.4919    4.8508  -18.4149 C   0  0  0  0  0  0  0  0  0  0  0  0
   -4.4219    5.3031  -17.6926 N   0  0  0  0  0  0  0  0  0  0  0  0
   -4.8063    5.3963  -16.3181 C   0  0  0  0  0  0  0  0  0  0  0  0
   -6.1161    4.9674  -16.1903 C   0  0  0  0  0  0  0  0  0  0  0  0
   -6.0063    4.5117  -19.7229 C   0  0  0  0  0  0  0  0  0  0  0  0
   -5.4615    4.5436  -20.8132 O   0  0  0  0  0  0  0  0  0  0  0  0
   -7.3336    4.1086  -19.4550 N   0  0  0  0  0  0  0  0  0  0  0  0
   -3.5355    5.5270  -18.0577 H   0  0  0  0  0  0  0  0  0  0  0  0
   -7.9836    3.7925  -20.1235 H   0  0  0  0  0  0  0  0  0  0  0  0
   -8.2486    5.3108   -9.3957 C   0  0  0  0  0  0  0  0  0  0  0  0
   -7.9458    5.3158  -10.7657 C   0  0  0  0  0  0  0  0  0  0  0  0
   -8.0193    4.1351  -11.5180 C   0  0  0  0  0  0  0  0  0  0  0  0
   -8.4086    2.9372  -10.9050 C   0  0  0  0  0  0  0  0  0  0  0  0
   -8.6841    2.9420   -9.5450 C   0  0  0  0  0  0  0  0  0  0  0  0
   -8.6055    4.1110   -8.7995 C   0  0  0  0  0  0  0  0  0  0  0  0
   -8.9635    3.8200   -7.3815 C   0  0  0  0  0  0  0  0  0  0  0  0
   -9.0980    2.3522   -7.2745 N   0  0  0  0  0  0  0  0  0  0  0  0
   -9.0994    1.8149   -8.6614 C   0  0  0  0  0  0  0  0  0  0  0  0
   -9.9716    2.1135   -6.8052 H   0  0  0  0  0  0  0  0  0  0  0  0
   -8.0981    7.4791   -7.9827 N   0  0  0  0  0  0  0  0  0  0  0  0
   -8.1679    6.5168   -8.6290 C   0  0  0  0  0  0  0  0  0  0  0  0
 30 31  3  0  0  0
 31 20  1  0  0  0
 20 21  2  0  0  0
 21 22  1  0  0  0
 22  1  1  0  0  0
  1  2  1  0  0  0
  2  3  2  0  0  0
  2  5  1  0  0  0
  5  6  2  0  0  0
  6  7  1  0  0  0
  7  8  1  0  0  0
  7  9  2  0  0  0
  9 10  1  0  0  0
 10 11  2  0  0  0
 11 12  1  0  0  0
 12 13  1  0  0  0
 13 14  2  0  0  0
 11 15  1  0  0  0
 15 16  2  0  0  0
 15 17  1  0  0  0
 22 23  2  0  0  0
 23 24  1  0  0  0
 24 25  2  0  0  0
 25 26  1  0  0  0
 26 27  1  0  0  0
 27 28  1  0  0  0
 25 20  1  0  0  0
 14  5  1  0  0  0
 28 24  1  0  0  0
 17  9  1  0  0  0
 14 10  1  0  0  0
  1  4  1  0  0  0
 12 18  1  0  0  0
 17 19  1  0  0  0
 27 29  1  0  0  0
M  END
> <minimizedAffinity>
-8.52385

> <minimizedRMSD>
0.33297

$$$$
P20615


 29 33  0  0  0  0  0  0  0  0999 V2000
   -6.9518    4.8347  -15.3184 C   0  0  0  0  0  0  0  0  0  0  0  0
   -8.2264    4.4108  -15.8736 C   0  0  0  0  0  0  0  0  0  0  0  0
   -8.4755    4.1482  -17.2857 C   0  0  0  0  0  0  0  0  0  0  0  0
  -10.0615    3.9321  -17.8546 Cl  0  0  0  0  0  0  0  0  0  0  0  0
   -7.4673    4.2141  -18.2185 C   0  0  0  0  0  0  0  0  0  0  0  0
   -6.3418    4.6526  -17.6290 C   0  0  0  0  0  0  0  0  0  0  0  0
   -5.4063    4.8627  -18.5718 C   0  0  0  0  0  0  0  0  0  0  0  0
   -4.3552    5.3875  -17.8756 N   0  0  0  0  0  0  0  0  0  0  0  0
   -4.7165    5.4697  -16.4951 C   0  0  0  0  0  0  0  0  0  0  0  0
   -6.0071    4.9946  -16.3422 C   0  0  0  0  0  0  0  0  0  0  0  0
   -5.9209    4.4898  -19.8691 C   0  0  0  0  0  0  0  0  0  0  0  0
   -5.3719    4.5087  -20.9572 O   0  0  0  0  0  0  0  0  0  0  0  0
   -7.2415    4.0753  -19.5855 N   0  0  0  0  0  0  0  0  0  0  0  0
   -3.4921    5.6634  -18.2605 H   0  0  0  0  0  0  0  0  0  0  0  0
   -7.8934    3.7438  -20.2446 H   0  0  0  0  0  0  0  0  0  0  0  0
   -6.1578    6.1024  -13.5916 O   0  0  0  0  0  0  0  0  0  0  0  0
   -6.7890    5.1668  -13.8946 C   0  0  0  0  0  0  0  0  0  0  0  0
   -7.6136    4.1837  -13.0210 N   0  0  0  0  0  0  0  0  0  0  0  0
   -7.9985    3.4209  -13.5101 H   0  0  0  0  0  0  0  0  0  0  0  0
   -7.8981    4.2054  -11.6552 C   0  0  0  0  0  0  0  0  0  0  0  0
   -7.7762    5.3765  -10.8931 C   0  0  0  0  0  0  0  0  0  0  0  0
   -8.0944    5.3813   -9.5286 C   0  0  0  0  0  0  0  0  0  0  0  0
   -8.5293    4.2025   -8.9504 C   0  0  0  0  0  0  0  0  0  0  0  0
   -8.6481    3.0363   -9.7019 C   0  0  0  0  0  0  0  0  0  0  0  0
   -8.3421    3.0203  -11.0534 C   0  0  0  0  0  0  0  0  0  0  0  0
   -9.1041    1.9239   -8.8097 C   0  0  0  0  0  0  0  0  0  0  0  0
   -9.5936    2.6015   -7.5880 N   0  0  0  0  0  0  0  0  0  0  0  0
   -9.3816    1.8511   -6.4540 F   0  0  0  0  0  0  0  0  0  0  0  0
   -8.9100    3.9075   -7.5351 C   0  0  0  0  0  0  0  0  0  0  0  0
 16 17  2  0  0  0
 17 18  1  0  0  0
 18 20  1  0  0  0
 20 21  2  0  0  0
 21 22  1  0  0  0
 22 23  2  0  0  0
 23 24  1  0  0  0
 24 25  2  0  0  0
 24 26  1  0  0  0
 26 27  1  0  0  0
 27 28  1  0  0  0
 27 29  1  0  0  0
 17  1  1  0  0  0
  1  2  2  0  0  0
  2  3  1  0  0  0
  3  4  1  0  0  0
  3  5  2  0  0  0
  5  6  1  0  0  0
  6  7  2  0  0  0
  7  8  1  0  0  0
  8  9  1  0  0  0
  9 10  2  0  0  0
  7 11  1  0  0  0
 11 12  2  0  0  0
 11 13  1  0  0  0
 25 20  1  0  0  0
 10  1  1  0  0  0
 29 23  1  0  0  0
 13  5  1  0  0  0
 10  6  1  0  0  0
 18 19  1  0  0  0
  8 14  1  0  0  0
 13 15  1  0  0  0
M  END
> <minimizedAffinity>
-8.93493

> <minimizedRMSD>
0.23464

$$$$
P20616


 33 37  0  0  0  0  0  0  0  0999 V2000
   -7.9464    7.0371  -13.4408 O   0  0  0  0  0  0  0  0  0  0  0  0
   -7.6875    5.9135  -13.6443 C   0  0  0  0  0  0  0  0  0  0  0  0
   -7.4157    4.7488  -12.6547 N   0  0  0  0  0  0  0  0  0  0  0  0
   -7.1415    3.9034  -13.0782 H   0  0  0  0  0  0  0  0  0  0  0  0
   -7.4842    5.4680  -15.0871 C   0  0  0  0  0  0  0  0  0  0  0  0
   -8.4063    4.3912  -15.6857 C   0  0  0  0  0  0  0  0  0  0  0  0
   -8.3036    4.4257  -17.2281 C   0  0  0  0  0  0  0  0  0  0  0  0
   -9.3368    3.2199  -17.9550 Cl  0  0  0  0  0  0  0  0  0  0  0  0
   -6.8743    4.2961  -17.7561 C   0  0  0  0  0  0  0  0  0  0  0  0
   -6.5450    4.7983  -19.1128 N   0  0  0  0  0  0  0  0  0  0  0  0
   -5.5253    5.8463  -18.9646 C   0  0  0  0  0  0  0  0  0  0  0  0
   -4.3981    5.4508  -19.6950 O   0  0  0  0  0  0  0  0  0  0  0  0
   -5.2207    5.8785  -17.5104 C   0  0  0  0  0  0  0  0  0  0  0  0
   -5.9497    4.9887  -16.8659 C   0  0  0  0  0  0  0  0  0  0  0  0
   -6.0133    5.1934  -15.4008 C   0  0  0  0  0  0  0  0  0  0  0  0
   -5.0127    6.3888  -15.2547 C   0  0  0  0  0  0  0  0  0  0  0  0
   -4.7048    6.8195  -16.6476 N   0  0  0  0  0  0  0  0  0  0  0  0
   -7.3800    5.1855  -19.5523 H   0  0  0  0  0  0  0  0  0  0  0  0
   -4.1028    4.5796  -19.3873 H   0  0  0  0  0  0  0  0  0  0  0  0
   -4.2174    7.6349  -16.9060 H   0  0  0  0  0  0  0  0  0  0  0  0
   -7.4966    4.7056  -11.2659 C   0  0  0  0  0  0  0  0  0  0  0  0
   -6.7040    5.6063  -10.5287 C   0  0  0  0  0  0  0  0  0  0  0  0
   -6.7329    5.6294   -9.1415 C   0  0  0  0  0  0  0  0  0  0  0  0
   -7.5881    4.7562   -8.5144 C   0  0  0  0  0  0  0  0  0  0  0  0
   -8.4023    3.8695   -9.2301 C   0  0  0  0  0  0  0  0  0  0  0  0
   -8.3514    3.8100  -10.6153 C   0  0  0  0  0  0  0  0  0  0  0  0
   -9.2594    3.1260   -8.2448 C   0  0  0  0  0  0  0  0  0  0  0  0
   -9.1443    3.9618   -7.0190 N   0  0  0  0  0  0  0  0  0  0  0  0
   -7.8265    4.5894   -7.0566 C   0  0  0  0  0  0  0  0  0  0  0  0
   -9.4103    3.2654   -5.7676 C   0  0  0  0  0  0  0  0  0  0  0  0
  -10.7406    2.5306   -5.8173 C   0  0  0  0  0  0  0  0  0  0  0  0
  -11.3802    2.6398   -4.6286 F   0  0  0  0  0  0  0  0  0  0  0  0
  -10.5296    1.2166   -6.0530 F   0  0  0  0  0  0  0  0  0  0  0  0
  1  2  2  0  0  0
  2  3  1  0  0  0
  3 21  1  0  0  0
 21 22  2  0  0  0
 22 23  1  0  0  0
 23 24  2  0  0  0
 24 25  1  0  0  0
 25 26  2  0  0  0
 25 27  1  0  0  0
 27 28  1  0  0  0
 28 30  1  0  0  0
 30 31  1  0  0  0
 31 32  1  0  0  0
 31 33  1  0  0  0
 28 29  1  0  0  0
  5  2  1  0  0  0
  5  6  1  0  0  0
  6  7  1  0  0  0
  7  8  1  0  0  0
  7  9  1  0  0  0
  9 10  1  0  0  0
 10 11  1  0  0  0
 11 12  1  0  0  0
 11 13  1  0  0  0
 13 14  2  0  0  0
 14 15  1  0  0  0
 15 16  1  0  0  0
 16 17  1  0  0  0
 26 21  1  0  0  0
 15  5  1  0  0  0
 29 24  1  0  0  0
 14  9  1  0  0  0
 17 13  1  0  0  0
  3  4  1  0  0  0
 10 18  1  0  0  0
 12 19  1  0  0  0
 17 20  1  0  0  0
M  END
> <minimizedAffinity>
-7.96550

> <minimizedRMSD>
0.59217

$$$$
P20618


 34 39  0  0  0  0  0  0  0  0999 V2000
   -8.5678    4.3892  -17.5558 C   0  0  0  0  0  0  0  0  0  0  0  0
   -8.6313    4.5995  -16.2119 C   0  0  0  0  0  0  0  0  0  0  0  0
   -7.4409    4.9434  -15.3687 C   0  0  0  0  0  0  0  0  0  0  0  0
   -6.2438    5.0326  -15.9688 C   0  0  0  0  0  0  0  0  0  0  0  0
   -6.2188    4.7426  -17.3219 C   0  0  0  0  0  0  0  0  0  0  0  0
   -7.2564    4.4158  -18.2123 C   0  0  0  0  0  0  0  0  0  0  0  0
   -6.8119    4.2524  -19.4100 N   0  0  0  0  0  0  0  0  0  0  0  0
   -5.4496    4.5741  -19.3531 C   0  0  0  0  0  0  0  0  0  0  0  0
   -4.6840    4.5879  -20.2985 O   0  0  0  0  0  0  0  0  0  0  0  0
   -5.1060    4.9036  -17.9787 C   0  0  0  0  0  0  0  0  0  0  0  0
   -4.2915    5.3311  -16.8488 C   0  0  0  0  0  0  0  0  0  0  0  0
   -4.9494    5.4057  -15.6867 N   0  0  0  0  0  0  0  0  0  0  0  0
   -2.8563    5.6587  -16.9879 C   0  0  0  0  0  0  0  0  0  0  0  0
   -2.1094    5.3246  -18.1235 C   0  0  0  0  0  0  0  0  0  0  0  0
   -0.7583    5.6762  -18.2051 C   0  0  0  0  0  0  0  0  0  0  0  0
   -0.1432    6.3522  -17.1532 C   0  0  0  0  0  0  0  0  0  0  0  0
   -0.8784    6.6848  -16.0180 C   0  0  0  0  0  0  0  0  0  0  0  0
   -2.2300    6.3426  -15.9363 C   0  0  0  0  0  0  0  0  0  0  0  0
   -7.6175    5.4644  -13.9763 C   0  0  0  0  0  0  0  0  0  0  0  0
   -7.6285    6.6129  -13.7573 O   0  0  0  0  0  0  0  0  0  0  0  0
   -7.8663    4.2568  -13.0307 N   0  0  0  0  0  0  0  0  0  0  0  0
   -7.8763    3.3792  -13.4766 H   0  0  0  0  0  0  0  0  0  0  0  0
   -8.0783    4.2142  -11.6489 C   0  0  0  0  0  0  0  0  0  0  0  0
   -8.0099    5.3781  -10.8658 C   0  0  0  0  0  0  0  0  0  0  0  0
   -8.2345    5.3321   -9.4837 C   0  0  0  0  0  0  0  0  0  0  0  0
   -8.5436    4.1136   -8.9091 C   0  0  0  0  0  0  0  0  0  0  0  0
   -8.6210    2.9586   -9.6791 C   0  0  0  0  0  0  0  0  0  0  0  0
   -8.3825    2.9876  -11.0460 C   0  0  0  0  0  0  0  0  0  0  0  0
   -8.9655    1.8054   -8.7925 C   0  0  0  0  0  0  0  0  0  0  0  0
   -9.4166    2.4157   -7.5114 N   0  0  0  0  0  0  0  0  0  0  0  0
   -8.8181    3.7682   -7.4841 C   0  0  0  0  0  0  0  0  0  0  0  0
   -9.0875    1.8644   -6.7188 H   0  0  0  0  0  0  0  0  0  0  0  0
  -10.8602    4.7152  -18.0619 O   0  0  0  0  0  0  0  0  0  0  0  0
   -9.7475    4.3800  -18.4249 C   0  0  0  0  0  0  0  0  0  0  0  0
 33 34  2  0  0  0
 34  1  1  0  0  0
  1  2  2  0  0  0
  2  3  1  0  0  0
  3 19  1  0  0  0
 19 20  2  0  0  0
 19 21  1  0  0  0
 21 23  1  0  0  0
 23 24  2  0  0  0
 24 25  1  0  0  0
 25 26  2  0  0  0
 26 27  1  0  0  0
 27 28  2  0  0  0
 27 29  1  0  0  0
 29 30  1  0  0  0
 30 31  1  0  0  0
  3  4  2  0  0  0
  4  5  1  0  0  0
  5  6  1  0  0  0
  6  7  2  0  0  0
  7  8  1  0  0  0
  8  9  2  0  0  0
  8 10  1  0  0  0
 10 11  1  0  0  0
 11 13  1  0  0  0
 13 14  2  0  0  0
 14 15  1  0  0  0
 15 16  2  0  0  0
 16 17  1  0  0  0
 17 18  2  0  0  0
 11 12  2  0  0  0
  6  1  1  0  0  0
 18 13  1  0  0  0
 28 23  1  0  0  0
 12  4  1  0  0  0
 31 26  1  0  0  0
 10  5  2  0  0  0
 21 22  1  0  0  0
 30 32  1  0  0  0
M  END
> <minimizedAffinity>
-9.28983

> <minimizedRMSD>
0.53898

$$$$
P20619


 31 35  0  0  0  0  0  0  0  0999 V2000
   -7.3317    4.6974  -15.3614 C   0  0  0  0  0  0  0  0  0  0  0  0
   -8.5137    4.0991  -15.8374 C   0  0  0  0  0  0  0  0  0  0  0  0
   -8.6904    3.8407  -17.1972 C   0  0  0  0  0  0  0  0  0  0  0  0
   -7.6563    4.1697  -18.0419 C   0  0  0  0  0  0  0  0  0  0  0  0
   -6.4817    4.7780  -17.5990 C   0  0  0  0  0  0  0  0  0  0  0  0
   -6.3127    5.0578  -16.2532 C   0  0  0  0  0  0  0  0  0  0  0  0
   -5.6048    5.0825  -18.7835 C   0  0  0  0  0  0  0  0  0  0  0  0
   -6.3821    4.3402  -19.9291 C   0  0  0  0  0  0  0  0  0  0  0  0
   -6.0161    4.1482  -21.0816 O   0  0  0  0  0  0  0  0  0  0  0  0
   -7.6033    3.9342  -19.4035 N   0  0  0  0  0  0  0  0  0  0  0  0
   -8.3323    3.5331  -19.9298 H   0  0  0  0  0  0  0  0  0  0  0  0
   -6.4814    5.9682  -13.6602 O   0  0  0  0  0  0  0  0  0  0  0  0
   -7.1890    5.0760  -13.9243 C   0  0  0  0  0  0  0  0  0  0  0  0
   -8.0896    4.2052  -13.0130 N   0  0  0  0  0  0  0  0  0  0  0  0
   -8.6555    3.5569  -13.4912 H   0  0  0  0  0  0  0  0  0  0  0  0
   -8.2292    4.1902  -11.6254 C   0  0  0  0  0  0  0  0  0  0  0  0
   -8.1030    5.3634  -10.8668 C   0  0  0  0  0  0  0  0  0  0  0  0
   -8.2751    5.3400   -9.4783 C   0  0  0  0  0  0  0  0  0  0  0  0
   -8.5727    4.1329   -8.8723 C   0  0  0  0  0  0  0  0  0  0  0  0
   -8.7013    2.9705   -9.6196 C   0  0  0  0  0  0  0  0  0  0  0  0
   -8.5291    2.9779  -10.9953 C   0  0  0  0  0  0  0  0  0  0  0  0
   -9.0745    1.8406   -8.7231 C   0  0  0  0  0  0  0  0  0  0  0  0
   -9.0013    2.3687   -7.3327 N   0  0  0  0  0  0  0  0  0  0  0  0
   -8.8402    3.8353   -7.4385 C   0  0  0  0  0  0  0  0  0  0  0  0
   -8.2031    1.9624   -6.8447 H   0  0  0  0  0  0  0  0  0  0  0  0
   -4.2210    4.5891  -18.6747 N   0  0  0  0  0  0  0  0  0  0  0  0
   -3.9554    4.1385  -19.5503 H   0  0  0  0  0  0  0  0  0  0  0  0
   -3.3010    5.6973  -18.4041 C   0  0  0  0  0  0  0  0  0  0  0  0
   -1.8817    5.2775  -18.8740 C   0  0  0  0  0  0  0  0  0  0  0  0
   -1.3586    5.8777  -17.5529 C   0  0  0  0  0  0  0  0  0  0  0  0
   -2.7543    5.5838  -16.9602 C   0  0  0  0  0  0  0  0  0  0  0  0
 12 13  2  0  0  0
 13 14  1  0  0  0
 14 16  1  0  0  0
 16 17  2  0  0  0
 17 18  1  0  0  0
 18 19  2  0  0  0
 19 20  1  0  0  0
 20 21  2  0  0  0
 20 22  1  0  0  0
 22 23  1  0  0  0
 23 24  1  0  0  0
 13  1  1  0  0  0
  1  2  2  0  0  0
  2  3  1  0  0  0
  3  4  2  0  0  0
  4  5  1  0  0  0
  5  6  2  0  0  0
  5  7  1  0  0  0
  7 26  1  0  0  0
 26 28  1  0  0  0
 28 29  1  0  0  0
 29 30  1  0  0  0
 30 31  1  0  0  0
  7  8  1  0  0  0
  8  9  2  0  0  0
  8 10  1  0  0  0
 21 16  1  0  0  0
  6  1  1  0  0  0
 31 28  1  0  0  0
 24 19  1  0  0  0
 10  4  1  0  0  0
 14 15  1  0  0  0
 23 25  1  0  0  0
 26 27  1  0  0  0
 10 11  1  0  0  0
M  END
> <minimizedAffinity>
-8.59338

> <minimizedRMSD>
0.41815

$$$$
P20620


 32 35  0  0  0  0  0  0  0  0999 V2000
   -5.4192    4.8488  -18.6626 C   0  0  0  0  0  0  0  0  0  0  0  0
   -6.1837    4.4113  -19.9378 C   0  0  0  0  0  0  0  0  0  0  0  0
   -5.7560    4.3796  -21.0821 O   0  0  0  0  0  0  0  0  0  0  0  0
   -7.4534    4.0063  -19.5392 N   0  0  0  0  0  0  0  0  0  0  0  0
   -7.6171    4.1371  -18.1701 C   0  0  0  0  0  0  0  0  0  0  0  0
   -8.7228    3.8401  -17.4088 C   0  0  0  0  0  0  0  0  0  0  0  0
   -9.8407    3.3759  -17.9757 F   0  0  0  0  0  0  0  0  0  0  0  0
   -8.6661    4.0647  -16.0362 C   0  0  0  0  0  0  0  0  0  0  0  0
   -7.5123    4.6077  -15.4581 C   0  0  0  0  0  0  0  0  0  0  0  0
   -6.3794    4.8521  -16.2314 C   0  0  0  0  0  0  0  0  0  0  0  0
   -6.4543    4.6344  -17.5957 C   0  0  0  0  0  0  0  0  0  0  0  0
   -8.1468    3.6699  -20.1518 H   0  0  0  0  0  0  0  0  0  0  0  0
   -7.5075    5.1060  -14.0623 C   0  0  0  0  0  0  0  0  0  0  0  0
   -7.0911    6.1804  -13.8751 O   0  0  0  0  0  0  0  0  0  0  0  0
   -8.1080    4.0816  -13.0797 N   0  0  0  0  0  0  0  0  0  0  0  0
   -8.4614    3.2649  -13.5007 H   0  0  0  0  0  0  0  0  0  0  0  0
   -8.2321    4.1231  -11.6943 C   0  0  0  0  0  0  0  0  0  0  0  0
   -8.1089    5.3340  -10.9928 C   0  0  0  0  0  0  0  0  0  0  0  0
   -8.2691    5.3763   -9.6043 C   0  0  0  0  0  0  0  0  0  0  0  0
   -8.5522    4.1949   -8.9456 C   0  0  0  0  0  0  0  0  0  0  0  0
   -8.6522    2.9923   -9.6379 C   0  0  0  0  0  0  0  0  0  0  0  0
   -8.4961    2.9363  -11.0108 C   0  0  0  0  0  0  0  0  0  0  0  0
   -8.9143    1.8900   -8.6684 C   0  0  0  0  0  0  0  0  0  0  0  0
   -9.3551    2.5722   -7.4218 N   0  0  0  0  0  0  0  0  0  0  0  0
   -8.7830    3.9362   -7.4953 C   0  0  0  0  0  0  0  0  0  0  0  0
   -9.0006    2.0804   -6.6015 H   0  0  0  0  0  0  0  0  0  0  0  0
   -4.8957    6.2772  -18.7490 C   0  0  0  0  0  0  0  0  0  0  0  0
   -2.9429    5.4557  -19.8763 N   0  0  0  0  0  0  0  0  0  0  0  0
   -3.4384    6.4364  -18.9447 N   0  0  0  0  0  0  0  0  0  0  0  0
   -1.9380    5.5804  -19.9988 H   0  0  0  0  0  0  0  0  0  0  0  0
   -3.4119    5.5725  -20.7745 H   0  0  0  0  0  0  0  0  0  0  0  0
   -3.2489    7.3704  -19.3084 H   0  0  0  0  0  0  0  0  0  0  0  0
 28 29  1  0  0  0
 29 27  1  0  0  0
  1 27  1  0  0  0
  1  2  1  0  0  0
  2  3  2  0  0  0
  2  4  1  0  0  0
  4  5  1  0  0  0
  5  6  2  0  0  0
  6  7  1  0  0  0
  6  8  1  0  0  0
  8  9  2  0  0  0
  9 13  1  0  0  0
 13 14  2  0  0  0
 13 15  1  0  0  0
 15 17  1  0  0  0
 17 18  2  0  0  0
 18 19  1  0  0  0
 19 20  2  0  0  0
 20 21  1  0  0  0
 21 22  2  0  0  0
 21 23  1  0  0  0
 23 24  1  0  0  0
 24 25  1  0  0  0
  9 10  1  0  0  0
 10 11  2  0  0  0
 11  1  1  0  0  0
 11  5  1  0  0  0
 22 17  1  0  0  0
 25 20  1  0  0  0
 28 30  1  0  0  0
 28 31  1  0  0  0
 29 32  1  0  0  0
  4 12  1  0  0  0
 15 16  1  0  0  0
 24 26  1  0  0  0
M  END
> <minimizedAffinity>
-8.60254

> <minimizedRMSD>
0.79646

$$$$
P20622


 30 33  0  0  0  0  0  0  0  0999 V2000
   -4.9712    5.2376  -18.0186 C   0  0  0  0  0  0  0  0  0  0  0  0
   -5.6037    4.7766  -19.3557 C   0  0  0  0  0  0  0  0  0  0  0  0
   -5.0787    4.7656  -20.4578 O   0  0  0  0  0  0  0  0  0  0  0  0
   -6.8934    4.3572  -19.0729 N   0  0  0  0  0  0  0  0  0  0  0  0
   -7.1717    4.4437  -17.7175 C   0  0  0  0  0  0  0  0  0  0  0  0
   -8.3535    4.1612  -17.0712 C   0  0  0  0  0  0  0  0  0  0  0  0
   -9.7366    3.7622  -17.9762 Cl  0  0  0  0  0  0  0  0  0  0  0  0
   -8.4165    4.3320  -15.6898 C   0  0  0  0  0  0  0  0  0  0  0  0
   -7.3021    4.8224  -14.9972 C   0  0  0  0  0  0  0  0  0  0  0  0
   -6.1044    5.0934  -15.6606 C   0  0  0  0  0  0  0  0  0  0  0  0
   -6.0622    4.9180  -17.0331 C   0  0  0  0  0  0  0  0  0  0  0  0
   -7.5325    4.0376  -19.7501 H   0  0  0  0  0  0  0  0  0  0  0  0
   -3.7292    7.1395  -19.1289 N   0  0  0  0  0  0  0  0  0  0  0  0
   -4.6442    6.7294  -18.0572 C   0  0  0  0  0  0  0  0  0  0  0  0
   -3.5712    8.1457  -19.0746 H   0  0  0  0  0  0  0  0  0  0  0  0
   -4.1397    6.9081  -20.0335 H   0  0  0  0  0  0  0  0  0  0  0  0
   -7.4314    5.2757  -13.5950 C   0  0  0  0  0  0  0  0  0  0  0  0
   -7.2911    6.4141  -13.3789 O   0  0  0  0  0  0  0  0  0  0  0  0
   -7.7483    4.1085  -12.6391 N   0  0  0  0  0  0  0  0  0  0  0  0
   -7.7414    3.2183  -13.0593 H   0  0  0  0  0  0  0  0  0  0  0  0
   -8.0427    4.1083  -11.2784 C   0  0  0  0  0  0  0  0  0  0  0  0
   -7.8776    5.2636  -10.4969 C   0  0  0  0  0  0  0  0  0  0  0  0
   -8.1693    5.2508   -9.1291 C   0  0  0  0  0  0  0  0  0  0  0  0
   -8.6183    4.0699   -8.5694 C   0  0  0  0  0  0  0  0  0  0  0  0
   -8.7691    2.9221   -9.3405 C   0  0  0  0  0  0  0  0  0  0  0  0
   -8.4923    2.9229  -10.6960 C   0  0  0  0  0  0  0  0  0  0  0  0
   -9.2043    1.7974   -8.4628 C   0  0  0  0  0  0  0  0  0  0  0  0
   -9.6741    2.4459   -7.2092 N   0  0  0  0  0  0  0  0  0  0  0  0
   -8.9811    3.7535   -7.1578 C   0  0  0  0  0  0  0  0  0  0  0  0
   -9.4252    1.8783   -6.3991 H   0  0  0  0  0  0  0  0  0  0  0  0
 13 14  1  0  0  0
  1 14  1  0  0  0
  1  2  1  0  0  0
  2  3  2  0  0  0
  2  4  1  0  0  0
  4  5  1  0  0  0
  5  6  2  0  0  0
  6  7  1  0  0  0
  6  8  1  0  0  0
  8  9  2  0  0  0
  9 17  1  0  0  0
 17 18  2  0  0  0
 17 19  1  0  0  0
 19 21  1  0  0  0
 21 22  2  0  0  0
 22 23  1  0  0  0
 23 24  2  0  0  0
 24 25  1  0  0  0
 25 26  2  0  0  0
 25 27  1  0  0  0
 27 28  1  0  0  0
 28 29  1  0  0  0
  9 10  1  0  0  0
 10 11  2  0  0  0
 11  1  1  0  0  0
 11  5  1  0  0  0
 26 21  1  0  0  0
 29 24  1  0  0  0
 13 15  1  0  0  0
 13 16  1  0  0  0
  4 12  1  0  0  0
 19 20  1  0  0  0
 28 30  1  0  0  0
M  END
> <minimizedAffinity>
-8.53551

> <minimizedRMSD>
0.55917

$$$$
P20623


 29 32  0  0  0  0  0  0  0  0999 V2000
   -5.7038    4.7757  -18.8516 C   0  0  0  0  0  0  0  0  0  0  0  0
   -6.5772    4.1895  -19.9805 C   0  0  0  0  0  0  0  0  0  0  0  0
   -6.2320    3.9750  -21.1341 O   0  0  0  0  0  0  0  0  0  0  0  0
   -7.8273    3.9061  -19.4309 N   0  0  0  0  0  0  0  0  0  0  0  0
   -7.8443    4.1464  -18.0662 C   0  0  0  0  0  0  0  0  0  0  0  0
   -8.8593    3.9129  -17.1674 C   0  0  0  0  0  0  0  0  0  0  0  0
   -8.5769    4.1312  -15.8097 C   0  0  0  0  0  0  0  0  0  0  0  0
   -7.3070    4.5822  -15.3885 C   0  0  0  0  0  0  0  0  0  0  0  0
   -6.3179    4.8533  -16.3254 C   0  0  0  0  0  0  0  0  0  0  0  0
   -6.6075    4.6328  -17.6609 C   0  0  0  0  0  0  0  0  0  0  0  0
   -8.5989    3.5773  -19.9465 H   0  0  0  0  0  0  0  0  0  0  0  0
   -6.9096    4.4973  -13.9557 C   0  0  0  0  0  0  0  0  0  0  0  0
   -5.8463    4.0921  -13.7144 O   0  0  0  0  0  0  0  0  0  0  0  0
   -8.0613    4.8859  -13.0207 N   0  0  0  0  0  0  0  0  0  0  0  0
   -8.8433    5.2791  -13.4715 H   0  0  0  0  0  0  0  0  0  0  0  0
   -8.1803    4.7741  -11.6492 C   0  0  0  0  0  0  0  0  0  0  0  0
   -8.1534    5.9073  -10.8354 C   0  0  0  0  0  0  0  0  0  0  0  0
   -8.2422    5.7616   -9.4478 C   0  0  0  0  0  0  0  0  0  0  0  0
   -8.4738    4.4971   -8.9251 C   0  0  0  0  0  0  0  0  0  0  0  0
   -8.5777    3.3887   -9.7517 C   0  0  0  0  0  0  0  0  0  0  0  0
   -8.3665    3.4964  -11.1110 C   0  0  0  0  0  0  0  0  0  0  0  0
   -9.0007    2.2006   -8.9613 C   0  0  0  0  0  0  0  0  0  0  0  0
   -8.9567    2.6213   -7.5327 N   0  0  0  0  0  0  0  0  0  0  0  0
   -8.7036    4.0788   -7.5141 C   0  0  0  0  0  0  0  0  0  0  0  0
   -8.2065    2.1300   -7.0466 H   0  0  0  0  0  0  0  0  0  0  0  0
   -5.3206    6.2321  -19.0878 C   0  0  0  0  0  0  0  0  0  0  0  0
   -3.1909    5.6655  -20.1244 C   0  0  0  0  0  0  0  0  0  0  0  0
   -3.8651    6.4872  -19.1240 N   0  0  0  0  0  0  0  0  0  0  0  0
   -3.7085    7.4704  -19.3455 H   0  0  0  0  0  0  0  0  0  0  0  0
 27 28  1  0  0  0
 28 26  1  0  0  0
  1 26  1  0  0  0
  1  2  1  0  0  0
  2  3  2  0  0  0
  2  4  1  0  0  0
  4  5  1  0  0  0
  5  6  2  0  0  0
  6  7  1  0  0  0
  7  8  2  0  0  0
  8 12  1  0  0  0
 12 13  2  0  0  0
 12 14  1  0  0  0
 14 16  1  0  0  0
 16 17  2  0  0  0
 17 18  1  0  0  0
 18 19  2  0  0  0
 19 20  1  0  0  0
 20 21  2  0  0  0
 20 22  1  0  0  0
 22 23  1  0  0  0
 23 24  1  0  0  0
  8  9  1  0  0  0
  9 10  2  0  0  0
 10  1  1  0  0  0
 10  5  1  0  0  0
 21 16  1  0  0  0
 24 19  1  0  0  0
 28 29  1  0  0  0
  4 11  1  0  0  0
 14 15  1  0  0  0
 23 25  1  0  0  0
M  END
> <minimizedAffinity>
-8.50769

> <minimizedRMSD>
0.91192

$$$$
P20624


 41 46  0  0  0  0  0  0  0  0999 V2000
   -6.9683    5.1627  -13.4463 C   0  0  0  0  0  0  0  0  0  0  0  0
   -7.2140    6.5680  -13.3917 O   0  0  0  0  0  0  0  0  0  0  0  0
   -7.2316    6.8574  -12.4660 H   0  0  0  0  0  0  0  0  0  0  0  0
   -6.9672    4.8516  -14.9346 C   0  0  0  0  0  0  0  0  0  0  0  0
   -8.2719    4.5069  -15.6085 C   0  0  0  0  0  0  0  0  0  0  0  0
   -8.4269    4.3102  -16.9421 C   0  0  0  0  0  0  0  0  0  0  0  0
   -9.9334    4.1246  -17.6943 Cl  0  0  0  0  0  0  0  0  0  0  0  0
   -7.2552    4.4167  -17.8323 C   0  0  0  0  0  0  0  0  0  0  0  0
   -6.1042    4.7761  -17.1032 C   0  0  0  0  0  0  0  0  0  0  0  0
   -5.9105    4.9913  -15.7493 C   0  0  0  0  0  0  0  0  0  0  0  0
   -4.5964    5.3684  -15.6514 N   0  0  0  0  0  0  0  0  0  0  0  0
   -4.1224    5.3458  -16.9000 C   0  0  0  0  0  0  0  0  0  0  0  0
   -5.0966    4.9589  -17.9071 C   0  0  0  0  0  0  0  0  0  0  0  0
   -5.6291    4.6622  -19.2223 C   0  0  0  0  0  0  0  0  0  0  0  0
   -4.9945    4.7196  -20.2610 O   0  0  0  0  0  0  0  0  0  0  0  0
   -6.9769    4.2966  -19.0876 N   0  0  0  0  0  0  0  0  0  0  0  0
   -2.7302    5.7006  -17.2338 C   0  0  0  0  0  0  0  0  0  0  0  0
   -2.0290    6.5292  -16.3448 C   0  0  0  0  0  0  0  0  0  0  0  0
   -0.7063    6.8905  -16.6068 C   0  0  0  0  0  0  0  0  0  0  0  0
   -0.0742    6.4212  -17.7551 C   0  0  0  0  0  0  0  0  0  0  0  0
   -0.7642    5.5939  -18.6396 C   0  0  0  0  0  0  0  0  0  0  0  0
   -2.0902    5.2332  -18.3844 C   0  0  0  0  0  0  0  0  0  0  0  0
   -5.3806    3.2835  -12.6499 N   0  0  0  0  0  0  0  0  0  0  0  0
   -5.5676    4.8316  -12.7063 C   0  0  0  0  0  0  0  0  0  0  0  0
   -4.8974    5.6947  -12.2773 O   0  0  0  0  0  0  0  0  0  0  0  0
   -6.0494    2.7686  -13.1568 H   0  0  0  0  0  0  0  0  0  0  0  0
   -3.4710    1.7835  -12.9718 C   0  0  0  0  0  0  0  0  0  0  0  0
   -4.3855    2.4832  -11.9748 C   0  0  0  0  0  0  0  0  0  0  0  0
   -5.0660    1.4630  -11.0654 C   0  0  0  0  0  0  0  0  0  0  0  0
   -8.0944    4.4698  -12.7996 N   0  0  0  0  0  0  0  0  0  0  0  0
   -8.7721    4.0405  -13.3703 H   0  0  0  0  0  0  0  0  0  0  0  0
   -8.2456    4.3934  -11.4109 C   0  0  0  0  0  0  0  0  0  0  0  0
   -8.1984    5.5155  -10.5585 C   0  0  0  0  0  0  0  0  0  0  0  0
   -8.3672    5.4069   -9.1710 C   0  0  0  0  0  0  0  0  0  0  0  0
   -8.6169    4.1600   -8.6395 C   0  0  0  0  0  0  0  0  0  0  0  0
   -8.6914    3.0430   -9.4589 C   0  0  0  0  0  0  0  0  0  0  0  0
   -8.5171    3.1433  -10.8313 C   0  0  0  0  0  0  0  0  0  0  0  0
   -8.9609    1.8394   -8.6179 C   0  0  0  0  0  0  0  0  0  0  0  0
   -9.4083    2.3768   -7.3025 N   0  0  0  0  0  0  0  0  0  0  0  0
   -8.8465    3.7444   -7.2268 C   0  0  0  0  0  0  0  0  0  0  0  0
   -9.0500    1.8008   -6.5408 H   0  0  0  0  0  0  0  0  0  0  0  0
 27 28  1  0  0  0
 28 29  1  0  0  0
 28 23  1  0  0  0
 23 24  1  0  0  0
 24 25  2  0  0  0
 24  1  1  0  0  0
  1  2  1  0  0  0
  1 30  1  0  0  0
 30 32  1  0  0  0
 32 33  2  0  0  0
 33 34  1  0  0  0
 34 35  2  0  0  0
 35 36  1  0  0  0
 36 37  2  0  0  0
 36 38  1  0  0  0
 38 39  1  0  0  0
 39 40  1  0  0  0
  1  4  1  0  0  0
  4  5  1  0  0  0
  5  6  2  0  0  0
  6  7  1  0  0  0
  6  8  1  0  0  0
  8  9  1  0  0  0
  9 10  1  0  0  0
 10 11  1  0  0  0
 11 12  2  0  0  0
 12 17  1  0  0  0
 17 18  2  0  0  0
 18 19  1  0  0  0
 19 20  2  0  0  0
 20 21  1  0  0  0
 21 22  2  0  0  0
 12 13  1  0  0  0
 13 14  1  0  0  0
 14 15  2  0  0  0
 14 16  1  0  0  0
 37 32  1  0  0  0
 10  4  2  0  0  0
 22 17  1  0  0  0
 40 35  1  0  0  0
 16  8  2  0  0  0
 13  9  2  0  0  0
 23 26  1  0  0  0
  2  3  1  0  0  0
 30 31  1  0  0  0
 39 41  1  0  0  0
M  END
> <minimizedAffinity>
-9.23330

> <minimizedRMSD>
0.62203

$$$$
P20625


 31 35  0  0  0  0  0  0  0  0999 V2000
   -6.9545    4.7394  -15.0434 C   0  0  0  0  0  0  0  0  0  0  0  0
   -8.1558    4.2705  -15.5970 C   0  0  0  0  0  0  0  0  0  0  0  0
   -8.2788    4.1466  -16.9775 C   0  0  0  0  0  0  0  0  0  0  0  0
   -9.7869    3.8540  -17.6991 Cl  0  0  0  0  0  0  0  0  0  0  0  0
   -7.1897    4.4246  -17.7694 C   0  0  0  0  0  0  0  0  0  0  0  0
   -6.0177    4.9469  -17.2393 C   0  0  0  0  0  0  0  0  0  0  0  0
   -5.8791    5.0988  -15.8682 C   0  0  0  0  0  0  0  0  0  0  0  0
   -5.1147    5.3335  -18.3868 C   0  0  0  0  0  0  0  0  0  0  0  0
   -3.6459    5.0660  -18.1582 C   0  0  0  0  0  0  0  0  0  0  0  0
   -3.1101    6.3513  -17.5314 C   0  0  0  0  0  0  0  0  0  0  0  0
   -4.1196    7.4057  -17.7053 N   0  0  0  0  0  0  0  0  0  0  0  0
   -5.1157    6.8433  -18.6361 C   0  0  0  0  0  0  0  0  0  0  0  0
   -5.8145    4.6586  -19.5903 C   0  0  0  0  0  0  0  0  0  0  0  0
   -5.3957    4.5231  -20.7282 O   0  0  0  0  0  0  0  0  0  0  0  0
   -7.0702    4.2691  -19.1435 N   0  0  0  0  0  0  0  0  0  0  0  0
   -3.6951    8.2446  -18.1009 H   0  0  0  0  0  0  0  0  0  0  0  0
   -7.7849    3.9261  -19.7273 H   0  0  0  0  0  0  0  0  0  0  0  0
   -6.1214    5.8889  -13.2622 O   0  0  0  0  0  0  0  0  0  0  0  0
   -6.8712    5.0560  -13.5929 C   0  0  0  0  0  0  0  0  0  0  0  0
   -7.8869    4.2344  -12.7643 N   0  0  0  0  0  0  0  0  0  0  0  0
   -8.4646    3.6386  -13.2939 H   0  0  0  0  0  0  0  0  0  0  0  0
   -8.1170    4.2006  -11.3908 C   0  0  0  0  0  0  0  0  0  0  0  0
   -8.0202    5.3669  -10.6164 C   0  0  0  0  0  0  0  0  0  0  0  0
   -8.2750    5.3377   -9.2425 C   0  0  0  0  0  0  0  0  0  0  0  0
   -8.6130    4.1284   -8.6652 C   0  0  0  0  0  0  0  0  0  0  0  0
   -8.7090    2.9718   -9.4284 C   0  0  0  0  0  0  0  0  0  0  0  0
   -8.4709    2.9874  -10.7939 C   0  0  0  0  0  0  0  0  0  0  0  0
   -9.1231    1.8370   -8.5563 C   0  0  0  0  0  0  0  0  0  0  0  0
   -9.0772    2.3491   -7.1589 N   0  0  0  0  0  0  0  0  0  0  0  0
   -8.9578    3.8203   -7.2501 C   0  0  0  0  0  0  0  0  0  0  0  0
   -8.2717    1.9606   -6.6683 H   0  0  0  0  0  0  0  0  0  0  0  0
 18 19  2  0  0  0
 19 20  1  0  0  0
 20 22  1  0  0  0
 22 23  2  0  0  0
 23 24  1  0  0  0
 24 25  2  0  0  0
 25 26  1  0  0  0
 26 27  2  0  0  0
 26 28  1  0  0  0
 28 29  1  0  0  0
 29 30  1  0  0  0
 19  1  1  0  0  0
  1  2  2  0  0  0
  2  3  1  0  0  0
  3  4  1  0  0  0
  3  5  2  0  0  0
  5  6  1  0  0  0
  6  7  2  0  0  0
  6  8  1  0  0  0
  8  9  1  0  0  0
  9 10  1  0  0  0
 10 11  1  0  0  0
 11 12  1  0  0  0
  8 13  1  0  0  0
 13 14  2  0  0  0
 13 15  1  0  0  0
 27 22  1  0  0  0
  7  1  1  0  0  0
 12  8  1  0  0  0
 30 25  1  0  0  0
 15  5  1  0  0  0
 20 21  1  0  0  0
 29 31  1  0  0  0
 11 16  1  0  0  0
 15 17  1  0  0  0
M  END
> <minimizedAffinity>
-9.50077

> <minimizedRMSD>
0.42586

$$$$
P20626


 31 34  0  0  0  0  0  0  0  0999 V2000
   -7.3884    4.6988  -15.4597 C   0  0  0  0  0  0  0  0  0  0  0  0
   -8.5261    4.0479  -15.9514 C   0  0  0  0  0  0  0  0  0  0  0  0
   -8.6640    3.8185  -17.3171 C   0  0  0  0  0  0  0  0  0  0  0  0
   -9.7946    3.3076  -17.8136 F   0  0  0  0  0  0  0  0  0  0  0  0
   -7.6293    4.1595  -18.1543 C   0  0  0  0  0  0  0  0  0  0  0  0
   -6.4937    4.8049  -17.6833 C   0  0  0  0  0  0  0  0  0  0  0  0
   -6.3756    5.0996  -16.3349 C   0  0  0  0  0  0  0  0  0  0  0  0
   -5.5833    5.1272  -18.8361 C   0  0  0  0  0  0  0  0  0  0  0  0
   -6.3084    4.3658  -20.0142 C   0  0  0  0  0  0  0  0  0  0  0  0
   -5.9192    4.1818  -21.1588 O   0  0  0  0  0  0  0  0  0  0  0  0
   -7.5285    3.9176  -19.5132 N   0  0  0  0  0  0  0  0  0  0  0  0
   -8.2277    3.4854  -20.0549 H   0  0  0  0  0  0  0  0  0  0  0  0
   -6.5373    5.9963  -13.7916 O   0  0  0  0  0  0  0  0  0  0  0  0
   -7.2593    5.1110  -14.0357 C   0  0  0  0  0  0  0  0  0  0  0  0
   -8.1376    4.2486  -13.1023 N   0  0  0  0  0  0  0  0  0  0  0  0
   -8.7225    3.6058  -13.5647 H   0  0  0  0  0  0  0  0  0  0  0  0
   -8.2367    4.2323  -11.7120 C   0  0  0  0  0  0  0  0  0  0  0  0
   -8.1369    5.4156  -10.9617 C   0  0  0  0  0  0  0  0  0  0  0  0
   -8.2824    5.3972   -9.5703 C   0  0  0  0  0  0  0  0  0  0  0  0
   -8.5451    4.1865   -8.9577 C   0  0  0  0  0  0  0  0  0  0  0  0
   -8.6277    3.0109   -9.6968 C   0  0  0  0  0  0  0  0  0  0  0  0
   -8.4625    3.0116  -11.0713 C   0  0  0  0  0  0  0  0  0  0  0  0
   -8.9096    1.8719   -8.7742 C   0  0  0  0  0  0  0  0  0  0  0  0
   -9.3592    2.5069   -7.5046 N   0  0  0  0  0  0  0  0  0  0  0  0
   -8.7835    3.8706   -7.5200 C   0  0  0  0  0  0  0  0  0  0  0  0
   -9.0125    1.9825   -6.7014 H   0  0  0  0  0  0  0  0  0  0  0  0
   -4.2003    4.6800  -18.6680 N   0  0  0  0  0  0  0  0  0  0  0  0
   -3.8816    4.2931  -19.5563 H   0  0  0  0  0  0  0  0  0  0  0  0
   -3.2791    5.7089  -18.2721 C   0  0  0  0  0  0  0  0  0  0  0  0
   -2.7975    5.4031  -16.9848 O   0  0  0  0  0  0  0  0  0  0  0  0
   -3.5412    5.3579  -16.3637 H   0  0  0  0  0  0  0  0  0  0  0  0
 13 14  2  0  0  0
 14 15  1  0  0  0
 15 17  1  0  0  0
 17 18  2  0  0  0
 18 19  1  0  0  0
 19 20  2  0  0  0
 20 21  1  0  0  0
 21 22  2  0  0  0
 21 23  1  0  0  0
 23 24  1  0  0  0
 24 25  1  0  0  0
 14  1  1  0  0  0
  1  2  2  0  0  0
  2  3  1  0  0  0
  3  4  1  0  0  0
  3  5  2  0  0  0
  5  6  1  0  0  0
  6  7  2  0  0  0
  6  8  1  0  0  0
  8 27  1  0  0  0
 27 29  1  0  0  0
 29 30  1  0  0  0
  8  9  1  0  0  0
  9 10  2  0  0  0
  9 11  1  0  0  0
 22 17  1  0  0  0
  7  1  1  0  0  0
 25 20  1  0  0  0
 11  5  1  0  0  0
 15 16  1  0  0  0
 24 26  1  0  0  0
 27 28  1  0  0  0
 30 31  1  0  0  0
 11 12  1  0  0  0
M  END
> <minimizedAffinity>
-8.36722

> <minimizedRMSD>
0.56871

$$$$
P20627


 31 34  0  0  0  0  0  0  0  0999 V2000
   -5.4132    4.8701  -18.6216 C   0  0  0  0  0  0  0  0  0  0  0  0
   -6.1766    4.4199  -19.9179 C   0  0  0  0  0  0  0  0  0  0  0  0
   -5.7388    4.3863  -21.0605 O   0  0  0  0  0  0  0  0  0  0  0  0
   -7.4470    4.0086  -19.5276 N   0  0  0  0  0  0  0  0  0  0  0  0
   -7.6165    4.1436  -18.1592 C   0  0  0  0  0  0  0  0  0  0  0  0
   -8.7317    3.8423  -17.4134 C   0  0  0  0  0  0  0  0  0  0  0  0
   -9.8440    3.3837  -17.9996 F   0  0  0  0  0  0  0  0  0  0  0  0
   -8.6879    4.0524  -16.0382 C   0  0  0  0  0  0  0  0  0  0  0  0
   -7.5454    4.6026  -15.4452 C   0  0  0  0  0  0  0  0  0  0  0  0
   -6.4059    4.8643  -16.2044 C   0  0  0  0  0  0  0  0  0  0  0  0
   -6.4595    4.6450  -17.5703 C   0  0  0  0  0  0  0  0  0  0  0  0
   -8.1352    3.6665  -20.1429 H   0  0  0  0  0  0  0  0  0  0  0  0
   -7.5600    5.1009  -14.0501 C   0  0  0  0  0  0  0  0  0  0  0  0
   -7.1880    6.1924  -13.8679 O   0  0  0  0  0  0  0  0  0  0  0  0
   -8.1174    4.0570  -13.0621 N   0  0  0  0  0  0  0  0  0  0  0  0
   -8.4375    3.2246  -13.4792 H   0  0  0  0  0  0  0  0  0  0  0  0
   -8.2419    4.0994  -11.6766 C   0  0  0  0  0  0  0  0  0  0  0  0
   -8.1052    5.3077  -10.9723 C   0  0  0  0  0  0  0  0  0  0  0  0
   -8.2626    5.3498   -9.5832 C   0  0  0  0  0  0  0  0  0  0  0  0
   -8.5544    4.1705   -8.9252 C   0  0  0  0  0  0  0  0  0  0  0  0
   -8.6651    2.9698   -9.6189 C   0  0  0  0  0  0  0  0  0  0  0  0
   -8.5127    2.9144  -10.9927 C   0  0  0  0  0  0  0  0  0  0  0  0
   -8.9325    1.8685   -8.6495 C   0  0  0  0  0  0  0  0  0  0  0  0
   -9.3664    2.5524   -7.4013 N   0  0  0  0  0  0  0  0  0  0  0  0
   -8.7849    3.9125   -7.4748 C   0  0  0  0  0  0  0  0  0  0  0  0
   -9.0137    2.0574   -6.5822 H   0  0  0  0  0  0  0  0  0  0  0  0
   -4.9740    6.2716  -18.7389 N   0  0  0  0  0  0  0  0  0  0  0  0
   -5.3354    6.6435  -19.6172 H   0  0  0  0  0  0  0  0  0  0  0  0
   -2.7812    5.2456  -18.4965 C   0  0  0  0  0  0  0  0  0  0  0  0
   -3.5352    6.4696  -18.7245 N   0  0  0  0  0  0  0  0  0  0  0  0
   -3.2542    6.8587  -19.6245 H   0  0  0  0  0  0  0  0  0  0  0  0
 29 30  1  0  0  0
 30 27  1  0  0  0
  1 27  1  0  0  0
  1  2  1  0  0  0
  2  3  2  0  0  0
  2  4  1  0  0  0
  4  5  1  0  0  0
  5  6  2  0  0  0
  6  7  1  0  0  0
  6  8  1  0  0  0
  8  9  2  0  0  0
  9 13  1  0  0  0
 13 14  2  0  0  0
 13 15  1  0  0  0
 15 17  1  0  0  0
 17 18  2  0  0  0
 18 19  1  0  0  0
 19 20  2  0  0  0
 20 21  1  0  0  0
 21 22  2  0  0  0
 21 23  1  0  0  0
 23 24  1  0  0  0
 24 25  1  0  0  0
  9 10  1  0  0  0
 10 11  2  0  0  0
 11  1  1  0  0  0
 11  5  1  0  0  0
 22 17  1  0  0  0
 25 20  1  0  0  0
 30 31  1  0  0  0
 27 28  1  0  0  0
  4 12  1  0  0  0
 15 16  1  0  0  0
 24 26  1  0  0  0
M  END
> <minimizedAffinity>
-8.47247

> <minimizedRMSD>
0.56406

$$$$
P20628


 30 33  0  0  0  0  0  0  0  0999 V2000
   -5.5636    5.1327  -18.7891 C   0  0  0  0  0  0  0  0  0  0  0  0
   -6.2829    4.3879  -19.9768 C   0  0  0  0  0  0  0  0  0  0  0  0
   -5.8909    4.2153  -21.1216 O   0  0  0  0  0  0  0  0  0  0  0  0
   -7.5144    3.9540  -19.4886 N   0  0  0  0  0  0  0  0  0  0  0  0
   -7.6177    4.1765  -18.1267 C   0  0  0  0  0  0  0  0  0  0  0  0
   -8.6554    3.8292  -17.2974 C   0  0  0  0  0  0  0  0  0  0  0  0
   -9.7898    3.3409  -17.8055 F   0  0  0  0  0  0  0  0  0  0  0  0
   -8.5139    4.0212  -15.9263 C   0  0  0  0  0  0  0  0  0  0  0  0
   -7.3662    4.6371  -15.4193 C   0  0  0  0  0  0  0  0  0  0  0  0
   -6.3431    5.0368  -16.2837 C   0  0  0  0  0  0  0  0  0  0  0  0
   -6.4744    4.7951  -17.6408 C   0  0  0  0  0  0  0  0  0  0  0  0
   -8.2185    3.5431  -20.0405 H   0  0  0  0  0  0  0  0  0  0  0  0
   -7.2280    5.0312  -13.9931 C   0  0  0  0  0  0  0  0  0  0  0  0
   -6.4371    5.8533  -13.7425 O   0  0  0  0  0  0  0  0  0  0  0  0
   -8.1749    4.2377  -13.0669 N   0  0  0  0  0  0  0  0  0  0  0  0
   -8.8093    3.6475  -13.5342 H   0  0  0  0  0  0  0  0  0  0  0  0
   -8.2775    4.2209  -11.6777 C   0  0  0  0  0  0  0  0  0  0  0  0
   -8.1401    5.4023  -10.9304 C   0  0  0  0  0  0  0  0  0  0  0  0
   -8.2703    5.3907   -9.5386 C   0  0  0  0  0  0  0  0  0  0  0  0
   -8.5373    4.1855   -8.9176 C   0  0  0  0  0  0  0  0  0  0  0  0
   -8.6648    3.0144   -9.6525 C   0  0  0  0  0  0  0  0  0  0  0  0
   -8.5305    3.0094  -11.0319 C   0  0  0  0  0  0  0  0  0  0  0  0
   -8.9968    1.8866   -8.7384 C   0  0  0  0  0  0  0  0  0  0  0  0
   -8.9163    2.4313   -7.3551 N   0  0  0  0  0  0  0  0  0  0  0  0
   -8.7792    3.8988   -7.4774 C   0  0  0  0  0  0  0  0  0  0  0  0
   -8.1065    2.0426   -6.8719 H   0  0  0  0  0  0  0  0  0  0  0  0
   -4.1876    4.6759  -18.5664 N   0  0  0  0  0  0  0  0  0  0  0  0
   -4.0641    4.4866  -17.5718 H   0  0  0  0  0  0  0  0  0  0  0  0
   -1.8002    5.1301  -18.6724 C   0  0  0  0  0  0  0  0  0  0  0  0
   -3.1935    5.6559  -18.9803 C   0  0  0  0  0  0  0  0  0  0  0  0
 29 30  1  0  0  0
 30 27  1  0  0  0
  1 27  1  0  0  0
  1  2  1  0  0  0
  2  3  2  0  0  0
  2  4  1  0  0  0
  4  5  1  0  0  0
  5  6  2  0  0  0
  6  7  1  0  0  0
  6  8  1  0  0  0
  8  9  2  0  0  0
  9 13  1  0  0  0
 13 14  2  0  0  0
 13 15  1  0  0  0
 15 17  1  0  0  0
 17 18  2  0  0  0
 18 19  1  0  0  0
 19 20  2  0  0  0
 20 21  1  0  0  0
 21 22  2  0  0  0
 21 23  1  0  0  0
 23 24  1  0  0  0
 24 25  1  0  0  0
  9 10  1  0  0  0
 10 11  2  0  0  0
 11  1  1  0  0  0
 11  5  1  0  0  0
 22 17  1  0  0  0
 25 20  1  0  0  0
 27 28  1  0  0  0
  4 12  1  0  0  0
 15 16  1  0  0  0
 24 26  1  0  0  0
M  END
> <minimizedAffinity>
-8.61708

> <minimizedRMSD>
0.71925

$$$$
P20630


 29 32  0  0  0  0  0  0  0  0999 V2000
   -4.1351    6.6081  -18.3860 N   0  0  0  0  0  0  0  0  0  0  0  0
   -4.5836    5.2138  -18.3362 C   0  0  0  0  0  0  0  0  0  0  0  0
   -5.3998    4.8314  -19.6171 C   0  0  0  0  0  0  0  0  0  0  0  0
   -5.0241    4.8763  -20.7788 O   0  0  0  0  0  0  0  0  0  0  0  0
   -6.6578    4.4465  -19.1901 N   0  0  0  0  0  0  0  0  0  0  0  0
   -6.7761    4.5402  -17.8107 C   0  0  0  0  0  0  0  0  0  0  0  0
   -7.8962    4.3035  -17.0504 C   0  0  0  0  0  0  0  0  0  0  0  0
   -9.5210    3.9465  -17.8840 Br  0  0  0  0  0  0  0  0  0  0  0  0
   -7.8218    4.4736  -15.6740 C   0  0  0  0  0  0  0  0  0  0  0  0
   -6.6263    4.9298  -15.0912 C   0  0  0  0  0  0  0  0  0  0  0  0
   -5.4980    5.2057  -15.8764 C   0  0  0  0  0  0  0  0  0  0  0  0
   -5.5881    4.9891  -17.2447 C   0  0  0  0  0  0  0  0  0  0  0  0
   -3.4554    6.7200  -19.1382 H   0  0  0  0  0  0  0  0  0  0  0  0
   -3.7025    6.8581  -17.4968 H   0  0  0  0  0  0  0  0  0  0  0  0
   -7.3782    4.1442  -19.7891 H   0  0  0  0  0  0  0  0  0  0  0  0
   -6.6476    5.2977  -13.6530 C   0  0  0  0  0  0  0  0  0  0  0  0
   -6.0892    6.2683  -13.3205 O   0  0  0  0  0  0  0  0  0  0  0  0
   -7.5351    4.3229  -12.8417 N   0  0  0  0  0  0  0  0  0  0  0  0
   -7.9589    3.6113  -13.3739 H   0  0  0  0  0  0  0  0  0  0  0  0
   -7.8316    4.2887  -11.4813 C   0  0  0  0  0  0  0  0  0  0  0  0
   -7.6977    5.4300  -10.6758 C   0  0  0  0  0  0  0  0  0  0  0  0
   -8.0503    5.3961   -9.3218 C   0  0  0  0  0  0  0  0  0  0  0  0
   -8.5259    4.2083   -8.7983 C   0  0  0  0  0  0  0  0  0  0  0  0
   -8.6396    3.0707   -9.5900 C   0  0  0  0  0  0  0  0  0  0  0  0
   -8.3053    3.0928  -10.9335 C   0  0  0  0  0  0  0  0  0  0  0  0
   -9.1195    1.9360   -8.7475 C   0  0  0  0  0  0  0  0  0  0  0  0
   -9.6432    2.5678   -7.5060 N   0  0  0  0  0  0  0  0  0  0  0  0
   -8.9594    3.8776   -7.4098 C   0  0  0  0  0  0  0  0  0  0  0  0
   -9.4250    1.9913   -6.6933 H   0  0  0  0  0  0  0  0  0  0  0  0
  2  1  1  0  0  0
  2  3  1  0  0  0
  3  4  2  0  0  0
  3  5  1  0  0  0
  5  6  1  0  0  0
  6  7  2  0  0  0
  7  8  1  0  0  0
  7  9  1  0  0  0
  9 10  2  0  0  0
 10 16  1  0  0  0
 16 17  2  0  0  0
 16 18  1  0  0  0
 18 20  1  0  0  0
 20 21  2  0  0  0
 21 22  1  0  0  0
 22 23  2  0  0  0
 23 24  1  0  0  0
 24 25  2  0  0  0
 24 26  1  0  0  0
 26 27  1  0  0  0
 27 28  1  0  0  0
 10 11  1  0  0  0
 11 12  2  0  0  0
 12  2  1  0  0  0
 12  6  1  0  0  0
 25 20  1  0  0  0
 28 23  1  0  0  0
  1 13  1  0  0  0
  1 14  1  0  0  0
  5 15  1  0  0  0
 18 19  1  0  0  0
 27 29  1  0  0  0
M  END
> <minimizedAffinity>
-8.29383

> <minimizedRMSD>
0.50975

$$$$
P20631


 34 38  0  0  0  0  0  0  0  0999 V2000
   -7.5670    4.6558  -15.4576 C   0  0  0  0  0  0  0  0  0  0  0  0
   -8.7741    4.1681  -15.9819 C   0  0  0  0  0  0  0  0  0  0  0  0
   -8.9004    3.9285  -17.3465 C   0  0  0  0  0  0  0  0  0  0  0  0
  -10.0735    3.5561  -17.8723 F   0  0  0  0  0  0  0  0  0  0  0  0
   -7.8004    4.1158  -18.1502 C   0  0  0  0  0  0  0  0  0  0  0  0
   -6.5842    4.5558  -17.6365 C   0  0  0  0  0  0  0  0  0  0  0  0
   -6.4565    4.8446  -16.2851 C   0  0  0  0  0  0  0  0  0  0  0  0
   -5.5743    4.6628  -18.7493 C   0  0  0  0  0  0  0  0  0  0  0  0
   -6.4358    4.2150  -19.9895 C   0  0  0  0  0  0  0  0  0  0  0  0
   -6.0844    4.1006  -21.1559 O   0  0  0  0  0  0  0  0  0  0  0  0
   -7.7122    3.9197  -19.5177 N   0  0  0  0  0  0  0  0  0  0  0  0
   -8.4562    3.6112  -20.0839 H   0  0  0  0  0  0  0  0  0  0  0  0
   -6.9894    6.1653  -13.8500 O   0  0  0  0  0  0  0  0  0  0  0  0
   -7.4873    5.1284  -14.0504 C   0  0  0  0  0  0  0  0  0  0  0  0
   -8.1483    4.1297  -13.0751 N   0  0  0  0  0  0  0  0  0  0  0  0
   -8.5678    3.3499  -13.5054 H   0  0  0  0  0  0  0  0  0  0  0  0
   -8.2474    4.1527  -11.6850 C   0  0  0  0  0  0  0  0  0  0  0  0
   -8.1272    5.3525  -10.9650 C   0  0  0  0  0  0  0  0  0  0  0  0
   -8.2732    5.3715   -9.5730 C   0  0  0  0  0  0  0  0  0  0  0  0
   -8.5454    4.1794   -8.9282 C   0  0  0  0  0  0  0  0  0  0  0  0
   -8.6448    2.9872   -9.6378 C   0  0  0  0  0  0  0  0  0  0  0  0
   -8.4948    2.9534  -11.0133 C   0  0  0  0  0  0  0  0  0  0  0  0
   -8.9139    1.8717   -8.6833 C   0  0  0  0  0  0  0  0  0  0  0  0
   -9.3704    2.5413   -7.4313 N   0  0  0  0  0  0  0  0  0  0  0  0
   -8.7713    3.8978   -7.4811 C   0  0  0  0  0  0  0  0  0  0  0  0
   -9.0390    2.0329   -6.6115 H   0  0  0  0  0  0  0  0  0  0  0  0
   -5.0837    6.0378  -18.8700 N   0  0  0  0  0  0  0  0  0  0  0  0
   -5.7198    6.7810  -18.9802 H   0  0  0  0  0  0  0  0  0  0  0  0
   -3.7110    6.2913  -18.8282 C   0  0  0  0  0  0  0  0  0  0  0  0
   -2.7611    5.3134  -18.5067 C   0  0  0  0  0  0  0  0  0  0  0  0
   -1.3926    5.6022  -18.5155 C   0  0  0  0  0  0  0  0  0  0  0  0
   -0.9491    6.8705  -18.8755 C   0  0  0  0  0  0  0  0  0  0  0  0
   -1.8731    7.8426  -19.2439 C   0  0  0  0  0  0  0  0  0  0  0  0
   -3.2394    7.5472  -19.2345 C   0  0  0  0  0  0  0  0  0  0  0  0
 13 14  2  0  0  0
 14 15  1  0  0  0
 15 17  1  0  0  0
 17 18  2  0  0  0
 18 19  1  0  0  0
 19 20  2  0  0  0
 20 21  1  0  0  0
 21 22  2  0  0  0
 21 23  1  0  0  0
 23 24  1  0  0  0
 24 25  1  0  0  0
 14  1  1  0  0  0
  1  2  2  0  0  0
  2  3  1  0  0  0
  3  4  1  0  0  0
  3  5  2  0  0  0
  5  6  1  0  0  0
  6  7  2  0  0  0
  6  8  1  0  0  0
  8 27  1  0  0  0
 27 29  1  0  0  0
 29 30  2  0  0  0
 30 31  1  0  0  0
 31 32  2  0  0  0
 32 33  1  0  0  0
 33 34  2  0  0  0
  8  9  1  0  0  0
  9 10  2  0  0  0
  9 11  1  0  0  0
 22 17  1  0  0  0
  7  1  1  0  0  0
 34 29  1  0  0  0
 25 20  1  0  0  0
 11  5  1  0  0  0
 15 16  1  0  0  0
 24 26  1  0  0  0
 27 28  1  0  0  0
 11 12  1  0  0  0
M  END
> <minimizedAffinity>
-9.05711

> <minimizedRMSD>
1.18284

$$$$
P20632


 30 34  0  0  0  0  0  0  0  0999 V2000
   -7.3667    4.7526  -15.4244 C   0  0  0  0  0  0  0  0  0  0  0  0
   -8.5080    4.0862  -15.9032 C   0  0  0  0  0  0  0  0  0  0  0  0
   -8.6504    3.8089  -17.2633 C   0  0  0  0  0  0  0  0  0  0  0  0
   -7.6242    4.1919  -18.0994 C   0  0  0  0  0  0  0  0  0  0  0  0
   -6.4920    4.8760  -17.6554 C   0  0  0  0  0  0  0  0  0  0  0  0
   -6.3556    5.1607  -16.3066 C   0  0  0  0  0  0  0  0  0  0  0  0
   -5.5887    5.1760  -18.8401 C   0  0  0  0  0  0  0  0  0  0  0  0
   -5.6040    6.6558  -19.2502 C   0  0  0  0  0  0  0  0  0  0  0  0
   -4.6770    7.5166  -18.4080 C   0  0  0  0  0  0  0  0  0  0  0  0
   -3.3543    6.9935  -18.4231 O   0  0  0  0  0  0  0  0  0  0  0  0
   -3.2960    5.6933  -17.8468 C   0  0  0  0  0  0  0  0  0  0  0  0
   -4.1478    4.7126  -18.6371 C   0  0  0  0  0  0  0  0  0  0  0  0
   -6.3228    4.3790  -19.9703 C   0  0  0  0  0  0  0  0  0  0  0  0
   -5.9464    4.1850  -21.1165 O   0  0  0  0  0  0  0  0  0  0  0  0
   -7.5318    3.9343  -19.4523 N   0  0  0  0  0  0  0  0  0  0  0  0
   -8.2336    3.4918  -19.9823 H   0  0  0  0  0  0  0  0  0  0  0  0
   -6.6087    6.0837  -13.7281 O   0  0  0  0  0  0  0  0  0  0  0  0
   -7.2398    5.1356  -13.9892 C   0  0  0  0  0  0  0  0  0  0  0  0
   -7.9801    4.1381  -13.0665 N   0  0  0  0  0  0  0  0  0  0  0  0
   -8.3820    3.3682  -13.5301 H   0  0  0  0  0  0  0  0  0  0  0  0
   -8.1705    4.1523  -11.6857 C   0  0  0  0  0  0  0  0  0  0  0  0
   -8.1100    5.3460  -10.9496 C   0  0  0  0  0  0  0  0  0  0  0  0
   -8.3096    5.3448   -9.5641 C   0  0  0  0  0  0  0  0  0  0  0  0
   -8.5838    4.1406   -8.9427 C   0  0  0  0  0  0  0  0  0  0  0  0
   -8.6428    2.9560   -9.6688 C   0  0  0  0  0  0  0  0  0  0  0  0
   -8.4289    2.9405  -11.0370 C   0  0  0  0  0  0  0  0  0  0  0  0
   -8.9418    1.8262   -8.7393 C   0  0  0  0  0  0  0  0  0  0  0  0
   -9.4048    2.4714   -7.4801 N   0  0  0  0  0  0  0  0  0  0  0  0
   -8.8407    3.8395   -7.5047 C   0  0  0  0  0  0  0  0  0  0  0  0
   -9.0596    1.9582   -6.6690 H   0  0  0  0  0  0  0  0  0  0  0  0
 17 18  2  0  0  0
 18 19  1  0  0  0
 19 21  1  0  0  0
 21 22  2  0  0  0
 22 23  1  0  0  0
 23 24  2  0  0  0
 24 25  1  0  0  0
 25 26  2  0  0  0
 25 27  1  0  0  0
 27 28  1  0  0  0
 28 29  1  0  0  0
 18  1  1  0  0  0
  1  2  2  0  0  0
  2  3  1  0  0  0
  3  4  2  0  0  0
  4  5  1  0  0  0
  5  6  2  0  0  0
  5  7  1  0  0  0
  7  8  1  0  0  0
  8  9  1  0  0  0
  9 10  1  0  0  0
 10 11  1  0  0  0
 11 12  1  0  0  0
  7 13  1  0  0  0
 13 14  2  0  0  0
 13 15  1  0  0  0
 26 21  1  0  0  0
  6  1  1  0  0  0
 12  7  1  0  0  0
 29 24  1  0  0  0
 15  4  1  0  0  0
 19 20  1  0  0  0
 28 30  1  0  0  0
 15 16  1  0  0  0
M  END
> <minimizedAffinity>
-9.39525

> <minimizedRMSD>
0.31458

$$$$
P20641


 45 50  0  0  0  0  0  0  0  0999 V2000
   -7.8613    4.9449  -14.2046 C   0  0  0  0  0  0  0  0  0  0  0  0
   -6.5299    5.2426  -14.4624 C   0  0  0  0  0  0  0  0  0  0  0  0
   -6.0171    5.1044  -15.7502 C   0  0  0  0  0  0  0  0  0  0  0  0
   -6.8478    4.6844  -16.8104 C   0  0  0  0  0  0  0  0  0  0  0  0
   -6.5624    4.5458  -18.2212 C   0  0  0  0  0  0  0  0  0  0  0  0
   -7.6799    4.1069  -18.8916 C   0  0  0  0  0  0  0  0  0  0  0  0
   -9.0258    3.8445  -17.8994 S   0  0  0  0  0  0  0  0  0  0  0  0
   -8.1783    4.3609  -16.5081 C   0  0  0  0  0  0  0  0  0  0  0  0
   -8.7082    4.4761  -15.2110 C   0  0  0  0  0  0  0  0  0  0  0  0
   -9.0477    6.2021  -12.7135 O   0  0  0  0  0  0  0  0  0  0  0  0
   -8.3973    5.2415  -12.8570 C   0  0  0  0  0  0  0  0  0  0  0  0
   -8.0199    4.1273  -11.8538 N   0  0  0  0  0  0  0  0  0  0  0  0
   -7.5173    3.3754  -12.2428 H   0  0  0  0  0  0  0  0  0  0  0  0
   -8.2748    4.0142  -10.4912 C   0  0  0  0  0  0  0  0  0  0  0  0
   -8.0530    5.0937   -9.6220 C   0  0  0  0  0  0  0  0  0  0  0  0
   -8.2977    4.9707   -8.2517 C   0  0  0  0  0  0  0  0  0  0  0  0
   -8.7689    3.7608   -7.7799 C   0  0  0  0  0  0  0  0  0  0  0  0
   -8.9907    2.6899   -8.6402 C   0  0  0  0  0  0  0  0  0  0  0  0
   -8.7517    2.7962   -9.9995 C   0  0  0  0  0  0  0  0  0  0  0  0
   -9.4586    1.5168   -7.8457 C   0  0  0  0  0  0  0  0  0  0  0  0
   -9.8564    2.0764   -6.5251 N   0  0  0  0  0  0  0  0  0  0  0  0
   -9.0966    3.3390   -6.3874 C   0  0  0  0  0  0  0  0  0  0  0  0
   -9.6121    1.4294   -5.7753 H   0  0  0  0  0  0  0  0  0  0  0  0
   -5.2380    4.8323  -18.8830 C   0  0  0  0  0  0  0  0  0  0  0  0
   -5.1722    6.2004  -19.5719 C   0  0  0  0  0  0  0  0  0  0  0  0
   -4.4741    6.1126  -20.8671 N   0  0  0  0  0  0  0  0  0  0  0  0
   -5.1443    5.8451  -21.5881 H   0  0  0  0  0  0  0  0  0  0  0  0
   -3.8655    7.3938  -21.2335 C   0  0  0  0  0  0  0  0  0  0  0  0
   -3.0140    8.0086  -20.1100 C   0  0  0  0  0  0  0  0  0  0  0  0
   -3.4373    9.4487  -19.7957 C   0  0  0  0  0  0  0  0  0  0  0  0
   -3.2253    9.8436  -18.3332 C   0  0  0  0  0  0  0  0  0  0  0  0
   -4.4978    9.1783  -17.2610 S   0  0  0  0  0  0  0  0  0  0  0  0
   -5.7999    9.3168  -17.8982 O   0  0  0  0  0  0  0  0  0  0  0  0
   -4.0717    7.8987  -16.7367 O   0  0  0  0  0  0  0  0  0  0  0  0
   -4.5238   10.3237  -15.9015 C   0  0  0  0  0  0  0  0  0  0  0  0
   -3.8719   11.4815  -15.9281 N   0  0  0  0  0  0  0  0  0  0  0  0
   -4.1414   12.0978  -14.7377 C   0  0  0  0  0  0  0  0  0  0  0  0
   -4.9654   11.3197  -13.9662 C   0  0  0  0  0  0  0  0  0  0  0  0
   -5.1974   10.1847  -14.7070 N   0  0  0  0  0  0  0  0  0  0  0  0
   -6.0324    9.0783  -14.2617 C   0  0  0  0  0  0  0  0  0  0  0  0
   -5.3769    8.2865  -13.1723 C   0  0  0  0  0  0  0  0  0  0  0  0
   -5.9628    7.9739  -11.9568 C   0  0  0  0  0  0  0  0  0  0  0  0
   -4.8979    7.0298  -11.0044 S   0  0  0  0  0  0  0  0  0  0  0  0
   -3.7395    7.1028  -12.2634 C   0  0  0  0  0  0  0  0  0  0  0  0
   -4.0883    7.7774  -13.3366 N   0  0  0  0  0  0  0  0  0  0  0  0
 10 11  2  0  0  0
 11 12  1  0  0  0
 12 14  1  0  0  0
 14 15  2  0  0  0
 15 16  1  0  0  0
 16 17  2  0  0  0
 17 18  1  0  0  0
 18 19  2  0  0  0
 18 20  1  0  0  0
 20 21  1  0  0  0
 21 22  1  0  0  0
 11  1  1  0  0  0
  1  2  2  0  0  0
  2  3  1  0  0  0
  3  4  2  0  0  0
  4  5  1  0  0  0
  5 24  1  0  0  0
 24 25  1  0  0  0
 25 26  1  0  0  0
 26 28  1  0  0  0
 28 29  1  0  0  0
 29 30  1  0  0  0
 30 31  1  0  0  0
 31 32  1  0  0  0
 32 33  2  0  0  0
 32 34  2  0  0  0
 32 35  1  0  0  0
 35 36  2  0  0  0
 36 37  1  0  0  0
 37 38  2  0  0  0
 38 39  1  0  0  0
 39 40  1  0  0  0
 40 41  1  0  0  0
 41 42  2  0  0  0
 42 43  1  0  0  0
 43 44  1  0  0  0
 44 45  2  0  0  0
  5  6  2  0  0  0
  6  7  1  0  0  0
  7  8  1  0  0  0
  8  9  2  0  0  0
 19 14  1  0  0  0
  9  1  1  0  0  0
 22 17  1  0  0  0
  8  4  1  0  0  0
 39 35  1  0  0  0
 45 41  1  0  0  0
 12 13  1  0  0  0
 21 23  1  0  0  0
 26 27  1  0  0  0
M  END
> <minimizedAffinity>
-6.29559

> <minimizedRMSD>
1.40908

$$$$
P20647


 35 38  0  0  0  0  0  0  0  0999 V2000
   -6.9774    4.6825  -18.3973 C   0  0  0  0  0  0  0  0  0  0  0  0
   -8.2661    4.3466  -18.7527 C   0  0  0  0  0  0  0  0  0  0  0  0
   -9.2757    4.0786  -17.4126 S   0  0  0  0  0  0  0  0  0  0  0  0
   -8.0181    4.4414  -16.2977 C   0  0  0  0  0  0  0  0  0  0  0  0
   -8.1031    4.4426  -14.8873 C   0  0  0  0  0  0  0  0  0  0  0  0
   -6.9551    4.6767  -14.0982 C   0  0  0  0  0  0  0  0  0  0  0  0
   -5.7623    4.9860  -14.7701 C   0  0  0  0  0  0  0  0  0  0  0  0
   -5.6898    4.9809  -16.1665 C   0  0  0  0  0  0  0  0  0  0  0  0
   -4.5031    5.1962  -16.7608 F   0  0  0  0  0  0  0  0  0  0  0  0
   -6.8243    4.7207  -16.9608 C   0  0  0  0  0  0  0  0  0  0  0  0
   -6.9719    4.5543  -12.5811 C   0  0  0  0  0  0  0  0  0  0  0  0
   -6.7308    5.8345  -12.0526 O   0  0  0  0  0  0  0  0  0  0  0  0
   -5.9126    3.7122  -12.2055 O   0  0  0  0  0  0  0  0  0  0  0  0
   -7.3419    6.5278  -12.2068 H   0  0  0  0  0  0  0  0  0  0  0  0
   -5.9098    2.8145  -12.4741 H   0  0  0  0  0  0  0  0  0  0  0  0
   -8.2051    4.0093  -12.0620 N   0  0  0  0  0  0  0  0  0  0  0  0
   -8.9033    3.6965  -12.6816 H   0  0  0  0  0  0  0  0  0  0  0  0
   -8.4098    3.9249  -10.6734 C   0  0  0  0  0  0  0  0  0  0  0  0
   -8.2388    5.0397   -9.8267 C   0  0  0  0  0  0  0  0  0  0  0  0
   -8.4013    4.9417   -8.4398 C   0  0  0  0  0  0  0  0  0  0  0  0
   -8.7797    3.7217   -7.9164 C   0  0  0  0  0  0  0  0  0  0  0  0
   -8.9597    2.6150   -8.7386 C   0  0  0  0  0  0  0  0  0  0  0  0
   -8.7685    2.6940  -10.1060 C   0  0  0  0  0  0  0  0  0  0  0  0
   -9.3737    1.4494   -7.9043 C   0  0  0  0  0  0  0  0  0  0  0  0
   -9.8288    2.0488   -6.6244 N   0  0  0  0  0  0  0  0  0  0  0  0
   -9.0975    3.3322   -6.5110 C   0  0  0  0  0  0  0  0  0  0  0  0
   -9.5991    1.4364   -5.8417 H   0  0  0  0  0  0  0  0  0  0  0  0
   -5.8564    4.9391  -19.3674 C   0  0  0  0  0  0  0  0  0  0  0  0
   -4.8442    6.6418  -20.8670 N   0  0  0  0  0  0  0  0  0  0  0  0
   -5.5943    6.4289  -19.6223 C   0  0  0  0  0  0  0  0  0  0  0  0
   -4.6886    7.6405  -21.0037 H   0  0  0  0  0  0  0  0  0  0  0  0
   -5.3773    6.2700  -21.6531 H   0  0  0  0  0  0  0  0  0  0  0  0
   -4.6020    5.2298  -14.0735 O   0  0  0  0  0  0  0  0  0  0  0  0
   -4.2833    6.6195  -14.1216 C   0  0  0  0  0  0  0  0  0  0  0  0
   -3.0632    6.7564  -14.7057 F   0  0  0  0  0  0  0  0  0  0  0  0
 29 30  1  0  0  0
 30 28  1  0  0  0
 28  1  1  0  0  0
  1  2  2  0  0  0
  2  3  1  0  0  0
  3  4  1  0  0  0
  4  5  2  0  0  0
  5  6  1  0  0  0
  6 11  1  0  0  0
 11 12  1  0  0  0
 11 13  1  0  0  0
 11 16  1  0  0  0
 16 18  1  0  0  0
 18 19  2  0  0  0
 19 20  1  0  0  0
 20 21  2  0  0  0
 21 22  1  0  0  0
 22 23  2  0  0  0
 22 24  1  0  0  0
 24 25  1  0  0  0
 25 26  1  0  0  0
  6  7  2  0  0  0
  7 33  1  0  0  0
 33 34  1  0  0  0
 34 35  1  0  0  0
  7  8  1  0  0  0
  8  9  1  0  0  0
  8 10  2  0  0  0
 10  1  1  0  0  0
 10  4  1  0  0  0
 23 18  1  0  0  0
 26 21  1  0  0  0
 29 31  1  0  0  0
 29 32  1  0  0  0
 12 14  1  0  0  0
 13 15  1  0  0  0
 16 17  1  0  0  0
 25 27  1  0  0  0
M  END
> <minimizedAffinity>
-7.92845

> <minimizedRMSD>
0.40507

$$$$
P20659


 32 36  0  0  0  0  0  0  0  0999 V2000
   -5.2743    5.2233  -18.8449 C   0  0  0  0  0  0  0  0  0  0  0  0
   -5.0443    5.2818  -17.5506 N   0  0  0  0  0  0  0  0  0  0  0  0
   -6.0821    4.8943  -16.6709 C   0  0  0  0  0  0  0  0  0  0  0  0
   -6.0387    5.0025  -15.2855 C   0  0  0  0  0  0  0  0  0  0  0  0
   -7.2021    4.7713  -14.5369 C   0  0  0  0  0  0  0  0  0  0  0  0
   -8.4211    4.4241  -15.1548 C   0  0  0  0  0  0  0  0  0  0  0  0
   -8.4389    4.3240  -16.5542 C   0  0  0  0  0  0  0  0  0  0  0  0
   -9.7563    4.0280  -17.6250 S   0  0  0  0  0  0  0  0  0  0  0  0
   -8.7799    4.2267  -19.0204 C   0  0  0  0  0  0  0  0  0  0  0  0
   -7.4840    4.4903  -18.6792 C   0  0  0  0  0  0  0  0  0  0  0  0
   -7.2842    4.5360  -17.2869 C   0  0  0  0  0  0  0  0  0  0  0  0
   -6.4307    4.7724  -19.4786 N   0  0  0  0  0  0  0  0  0  0  0  0
   -6.4781    4.6650  -20.4561 H   0  0  0  0  0  0  0  0  0  0  0  0
   -7.1802    5.0997  -13.0821 C   0  0  0  0  0  0  0  0  0  0  0  0
   -6.6295    6.0780  -12.7576 O   0  0  0  0  0  0  0  0  0  0  0  0
   -8.0100    4.0915  -12.2489 N   0  0  0  0  0  0  0  0  0  0  0  0
   -8.4406    3.3787  -12.7740 H   0  0  0  0  0  0  0  0  0  0  0  0
   -8.2463    4.0292  -10.8759 C   0  0  0  0  0  0  0  0  0  0  0  0
   -8.1005    5.1627  -10.0584 C   0  0  0  0  0  0  0  0  0  0  0  0
   -8.3682    5.1004   -8.6857 C   0  0  0  0  0  0  0  0  0  0  0  0
   -8.7810    3.8932   -8.1557 C   0  0  0  0  0  0  0  0  0  0  0  0
   -8.9131    2.7649   -8.9601 C   0  0  0  0  0  0  0  0  0  0  0  0
   -8.6550    2.8134  -10.3207 C   0  0  0  0  0  0  0  0  0  0  0  0
   -9.3279    1.6119   -8.1082 C   0  0  0  0  0  0  0  0  0  0  0  0
   -9.8279    2.2237   -6.8502 N   0  0  0  0  0  0  0  0  0  0  0  0
   -9.1392    3.5328   -6.7520 C   0  0  0  0  0  0  0  0  0  0  0  0
   -9.5945    1.6361   -6.0497 H   0  0  0  0  0  0  0  0  0  0  0  0
   -4.3305    5.6222  -19.7841 N   0  0  0  0  0  0  0  0  0  0  0  0
   -3.1026    4.8286  -19.8253 C   0  0  0  0  0  0  0  0  0  0  0  0
   -3.0069    7.6994  -19.2258 C   0  0  0  0  0  0  0  0  0  0  0  0
   -4.1124    7.0595  -20.0647 C   0  0  0  0  0  0  0  0  0  0  0  0
   -5.4231    7.8371  -19.9339 C   0  0  0  0  0  0  0  0  0  0  0  0
 30 31  1  0  0  0
 31 32  1  0  0  0
 31 28  1  0  0  0
 28 29  1  0  0  0
 28  1  1  0  0  0
  1  2  2  0  0  0
  2  3  1  0  0  0
  3  4  1  0  0  0
  4  5  2  0  0  0
  5 14  1  0  0  0
 14 15  2  0  0  0
 14 16  1  0  0  0
 16 18  1  0  0  0
 18 19  2  0  0  0
 19 20  1  0  0  0
 20 21  2  0  0  0
 21 22  1  0  0  0
 22 23  2  0  0  0
 22 24  1  0  0  0
 24 25  1  0  0  0
 25 26  1  0  0  0
  5  6  1  0  0  0
  6  7  2  0  0  0
  7  8  1  0  0  0
  8  9  1  0  0  0
  9 10  2  0  0  0
 10 11  1  0  0  0
 10 12  1  0  0  0
 12  1  1  0  0  0
 11  3  2  0  0  0
 23 18  1  0  0  0
 11  7  1  0  0  0
 26 21  1  0  0  0
 16 17  1  0  0  0
 25 27  1  0  0  0
 12 13  1  0  0  0
M  END
> <minimizedAffinity>
-9.12471

> <minimizedRMSD>
0.58566

$$$$
P20660


 33 38  0  0  0  0  0  0  0  0999 V2000
   -3.5863    5.9361  -18.2643 N   0  0  0  0  0  0  0  0  0  0  0  0
   -3.8437    5.8347  -19.7220 C   0  0  0  0  0  0  0  0  0  0  0  0
   -5.3528    5.5802  -19.8290 C   0  0  0  0  0  0  0  0  0  0  0  0
   -5.6813    5.1443  -18.4611 C   0  0  0  0  0  0  0  0  0  0  0  0
   -4.6881    5.4252  -17.5797 C   0  0  0  0  0  0  0  0  0  0  0  0
   -4.8527    5.2922  -16.2001 N   0  0  0  0  0  0  0  0  0  0  0  0
   -6.1581    5.0241  -15.7197 C   0  0  0  0  0  0  0  0  0  0  0  0
   -6.5188    5.1166  -14.3886 C   0  0  0  0  0  0  0  0  0  0  0  0
   -7.8467    4.8757  -14.0267 C   0  0  0  0  0  0  0  0  0  0  0  0
   -8.8281    4.4505  -14.9454 C   0  0  0  0  0  0  0  0  0  0  0  0
   -8.4488    4.3474  -16.2896 C   0  0  0  0  0  0  0  0  0  0  0  0
   -9.3639    3.9162  -17.6899 S   0  0  0  0  0  0  0  0  0  0  0  0
   -8.0600    4.2628  -18.7627 C   0  0  0  0  0  0  0  0  0  0  0  0
   -6.9576    4.6713  -18.0633 C   0  0  0  0  0  0  0  0  0  0  0  0
   -7.1521    4.6521  -16.6574 C   0  0  0  0  0  0  0  0  0  0  0  0
   -4.0901    5.3814  -15.5839 H   0  0  0  0  0  0  0  0  0  0  0  0
   -8.2280    5.2307  -12.6444 C   0  0  0  0  0  0  0  0  0  0  0  0
   -8.5364    6.3332  -12.4219 O   0  0  0  0  0  0  0  0  0  0  0  0
   -8.1638    4.0055  -11.7154 N   0  0  0  0  0  0  0  0  0  0  0  0
   -7.9431    3.1582  -12.1656 H   0  0  0  0  0  0  0  0  0  0  0  0
   -8.3662    3.9003  -10.3467 C   0  0  0  0  0  0  0  0  0  0  0  0
   -8.1071    4.9831   -9.4888 C   0  0  0  0  0  0  0  0  0  0  0  0
   -8.3217    4.8730   -8.1126 C   0  0  0  0  0  0  0  0  0  0  0  0
   -8.8013    3.6727   -7.6279 C   0  0  0  0  0  0  0  0  0  0  0  0
   -9.0413    2.5963   -8.4790 C   0  0  0  0  0  0  0  0  0  0  0  0
   -8.8314    2.6890   -9.8406 C   0  0  0  0  0  0  0  0  0  0  0  0
   -9.5022    1.4350   -7.6689 C   0  0  0  0  0  0  0  0  0  0  0  0
   -9.9517    2.0299   -6.3863 N   0  0  0  0  0  0  0  0  0  0  0  0
   -9.1462    3.2661   -6.2341 C   0  0  0  0  0  0  0  0  0  0  0  0
   -9.7751    1.3893   -5.6125 H   0  0  0  0  0  0  0  0  0  0  0  0
   -2.0330    5.9031  -16.3335 C   0  0  0  0  0  0  0  0  0  0  0  0
   -2.1815    5.8202  -17.8500 C   0  0  0  0  0  0  0  0  0  0  0  0
   -1.5346    4.5564  -18.4116 C   0  0  0  0  0  0  0  0  0  0  0  0
 31 32  1  0  0  0
 32 33  1  0  0  0
 32  1  1  0  0  0
  1  2  1  0  0  0
  2  3  1  0  0  0
  3  4  1  0  0  0
  4  5  2  0  0  0
  5  6  1  0  0  0
  6  7  1  0  0  0
  7  8  2  0  0  0
  8  9  1  0  0  0
  9 17  1  0  0  0
 17 18  2  0  0  0
 17 19  1  0  0  0
 19 21  1  0  0  0
 21 22  2  0  0  0
 22 23  1  0  0  0
 23 24  2  0  0  0
 24 25  1  0  0  0
 25 26  2  0  0  0
 25 27  1  0  0  0
 27 28  1  0  0  0
 28 29  1  0  0  0
  9 10  2  0  0  0
 10 11  1  0  0  0
 11 12  1  0  0  0
 12 13  1  0  0  0
 13 14  2  0  0  0
 14 15  1  0  0  0
  5  1  1  0  0  0
 15  7  1  0  0  0
 14  4  1  0  0  0
 26 21  1  0  0  0
 15 11  2  0  0  0
 29 24  1  0  0  0
  6 16  1  0  0  0
 19 20  1  0  0  0
 28 30  1  0  0  0
M  END
> <minimizedAffinity>
-9.88225

> <minimizedRMSD>
0.66887

$$$$
P20661


 32 36  0  0  0  0  0  0  0  0999 V2000
   -5.9454    5.3948  -15.0271 C   0  0  0  0  0  0  0  0  0  0  0  0
   -7.1588    4.7687  -14.3065 C   0  0  0  0  0  0  0  0  0  0  0  0
   -8.4449    5.0247  -15.0997 C   0  0  0  0  0  0  0  0  0  0  0  0
   -8.3789    4.2244  -16.3707 C   0  0  0  0  0  0  0  0  0  0  0  0
   -9.7591    4.3822  -17.5024 S   0  0  0  0  0  0  0  0  0  0  0  0
   -8.7628    4.0746  -18.9695 C   0  0  0  0  0  0  0  0  0  0  0  0
   -7.3280    4.5266  -18.6537 C   0  0  0  0  0  0  0  0  0  0  0  0
   -7.0326    5.8896  -19.0709 N   0  0  0  0  0  0  0  0  0  0  0  0
   -5.6771    6.2992  -18.8565 C   0  0  0  0  0  0  0  0  0  0  0  0
   -4.7858    5.4585  -19.6207 N   0  0  0  0  0  0  0  0  0  0  0  0
   -5.3750    6.3178  -17.3564 C   0  0  0  0  0  0  0  0  0  0  0  0
   -5.8615    5.0836  -16.5549 C   0  0  0  0  0  0  0  0  0  0  0  0
   -7.0742    4.3364  -17.1599 C   0  0  0  0  0  0  0  0  0  0  0  0
   -7.6417    6.5206  -18.5500 H   0  0  0  0  0  0  0  0  0  0  0  0
   -4.8938    4.4890  -19.3225 H   0  0  0  0  0  0  0  0  0  0  0  0
   -3.8224    5.7562  -19.4671 H   0  0  0  0  0  0  0  0  0  0  0  0
   -7.3696    5.3301  -12.8885 C   0  0  0  0  0  0  0  0  0  0  0  0
   -7.2370    6.4619  -12.6109 O   0  0  0  0  0  0  0  0  0  0  0  0
   -7.8640    4.1206  -12.0173 N   0  0  0  0  0  0  0  0  0  0  0  0
   -7.9612    3.2720  -12.5068 H   0  0  0  0  0  0  0  0  0  0  0  0
   -8.1879    4.0540  -10.6609 C   0  0  0  0  0  0  0  0  0  0  0  0
   -8.0838    5.1712   -9.8210 C   0  0  0  0  0  0  0  0  0  0  0  0
   -8.3792    5.0687   -8.4551 C   0  0  0  0  0  0  0  0  0  0  0  0
   -8.7703    3.8392   -7.9530 C   0  0  0  0  0  0  0  0  0  0  0  0
   -8.8927    2.7346   -8.7847 C   0  0  0  0  0  0  0  0  0  0  0  0
   -8.6177    2.8252  -10.1416 C   0  0  0  0  0  0  0  0  0  0  0  0
   -9.2946    1.5455   -7.9776 C   0  0  0  0  0  0  0  0  0  0  0  0
   -9.5872    2.0545   -6.6149 N   0  0  0  0  0  0  0  0  0  0  0  0
   -9.0878    3.4430   -6.5513 C   0  0  0  0  0  0  0  0  0  0  0  0
   -9.1130    1.4802   -5.9180 H   0  0  0  0  0  0  0  0  0  0  0  0
   -3.8252    5.7921  -13.9722 C   0  0  0  0  0  0  0  0  0  0  0  0
   -4.7555    4.8272  -14.4354 O   0  0  0  0  0  0  0  0  0  0  0  0
 31 32  1  0  0  0
  1 32  1  0  0  0
  1  2  1  0  0  0
  2 17  1  0  0  0
 17 18  2  0  0  0
 17 19  1  0  0  0
 19 21  1  0  0  0
 21 22  2  0  0  0
 22 23  1  0  0  0
 23 24  2  0  0  0
 24 25  1  0  0  0
 25 26  2  0  0  0
 25 27  1  0  0  0
 27 28  1  0  0  0
 28 29  1  0  0  0
  2  3  1  0  0  0
  4  3  1  0  0  0
  4  5  1  0  0  0
  5  6  1  0  0  0
  7  6  1  0  0  0
  7  8  1  0  0  0
  8  9  1  0  0  0
  9 10  1  0  0  0
  9 11  1  0  0  0
 12 11  1  0  0  0
 12 13  1  0  0  0
 12  1  1  0  0  0
 26 21  1  0  0  0
 13  4  1  0  0  0
 29 24  1  0  0  0
 13  7  1  0  0  0
 19 20  1  0  0  0
 28 30  1  0  0  0
  8 14  1  0  0  0
 10 15  1  0  0  0
 10 16  1  0  0  0
M  END
> <minimizedAffinity>
-8.47964

> <minimizedRMSD>
0.54897

$$$$
P20662


 44 48  0  0  0  0  0  0  0  0999 V2000
   -7.8247    5.1014  -14.1254 C   0  0  0  0  0  0  0  0  0  0  0  0
   -6.5384    5.4947  -14.5318 C   0  0  0  0  0  0  0  0  0  0  0  0
   -6.1681    5.4080  -15.8662 C   0  0  0  0  0  0  0  0  0  0  0  0
   -7.1009    4.9432  -16.7789 C   0  0  0  0  0  0  0  0  0  0  0  0
   -8.3682    4.4879  -16.3649 C   0  0  0  0  0  0  0  0  0  0  0  0
   -8.7408    4.5459  -15.0269 C   0  0  0  0  0  0  0  0  0  0  0  0
   -9.1858    4.1555  -17.5799 C   0  0  0  0  0  0  0  0  0  0  0  0
   -9.5744    2.4856  -17.7865 Cl  0  0  0  0  0  0  0  0  0  0  0  0
   -8.2254    4.4808  -18.6701 C   0  0  0  0  0  0  0  0  0  0  0  0
   -7.0301    4.9176  -18.2371 C   0  0  0  0  0  0  0  0  0  0  0  0
   -5.8597    5.2930  -19.0827 C   0  0  0  0  0  0  0  0  0  0  0  0
   -4.5941    4.7715  -18.5837 N   0  0  0  0  0  0  0  0  0  0  0  0
   -6.0284    4.6211  -20.3071 O   0  0  0  0  0  0  0  0  0  0  0  0
   -4.6590    3.7584  -18.4851 H   0  0  0  0  0  0  0  0  0  0  0  0
   -4.3885    5.1890  -17.6760 H   0  0  0  0  0  0  0  0  0  0  0  0
   -6.0775    3.6656  -20.1476 H   0  0  0  0  0  0  0  0  0  0  0  0
   -5.7689    6.8542  -19.2378 C   0  0  0  0  0  0  0  0  0  0  0  0
   -4.5062    7.2795  -19.8782 N   0  0  0  0  0  0  0  0  0  0  0  0
   -3.7416    7.5074  -19.3015 H   0  0  0  0  0  0  0  0  0  0  0  0
   -4.3472    7.3730  -21.2550 C   0  0  0  0  0  0  0  0  0  0  0  0
   -3.0835    7.1069  -21.8045 C   0  0  0  0  0  0  0  0  0  0  0  0
   -2.8392    7.2377  -23.1750 C   0  0  0  0  0  0  0  0  0  0  0  0
   -3.8543    7.6680  -24.0221 C   0  0  0  0  0  0  0  0  0  0  0  0
   -5.1025    7.9812  -23.4928 C   0  0  0  0  0  0  0  0  0  0  0  0
   -5.3382    7.8499  -22.1189 C   0  0  0  0  0  0  0  0  0  0  0  0
   -7.8747    4.4867  -11.6972 N   0  0  0  0  0  0  0  0  0  0  0  0
   -8.2194    5.5367  -12.7684 C   0  0  0  0  0  0  0  0  0  0  0  0
   -8.6684    6.6082  -12.6606 O   0  0  0  0  0  0  0  0  0  0  0  0
   -7.5743    3.6190  -12.0523 H   0  0  0  0  0  0  0  0  0  0  0  0
   -9.5089    2.9660   -7.2088 C   0  0  0  0  0  0  0  0  0  0  0  0
   -9.3571    3.6770   -5.9247 N   0  0  0  0  0  0  0  0  0  0  0  0
   -8.1839    4.5585   -6.0722 C   0  0  0  0  0  0  0  0  0  0  0  0
   -7.9626    4.7028   -7.5361 C   0  0  0  0  0  0  0  0  0  0  0  0
   -7.1882    5.6109   -8.2267 C   0  0  0  0  0  0  0  0  0  0  0  0
   -7.1806    5.5435   -9.6229 C   0  0  0  0  0  0  0  0  0  0  0  0
   -7.9183    4.5639  -10.3080 C   0  0  0  0  0  0  0  0  0  0  0  0
   -8.6875    3.6489   -9.5961 C   0  0  0  0  0  0  0  0  0  0  0  0
   -8.7062    3.7413   -8.2075 C   0  0  0  0  0  0  0  0  0  0  0  0
   -9.2043    3.0101   -5.1682 H   0  0  0  0  0  0  0  0  0  0  0  0
   -8.3317    1.0231   -7.9906 N   0  0  0  0  0  0  0  0  0  0  0  0
   -9.0689    1.6269   -6.9204 N   0  0  0  0  0  0  0  0  0  0  0  0
   -8.0518    0.0801   -7.7210 H   0  0  0  0  0  0  0  0  0  0  0  0
   -7.5010    1.5810   -8.1884 H   0  0  0  0  0  0  0  0  0  0  0  0
   -8.4727    1.6543   -6.0933 H   0  0  0  0  0  0  0  0  0  0  0  0
 40 41  1  0  0  0
 30 41  1  0  0  0
 30 31  1  0  0  0
 31 32  1  0  0  0
 32 33  1  0  0  0
 33 34  2  0  0  0
 34 35  1  0  0  0
 35 36  2  0  0  0
 36 26  1  0  0  0
 26 27  1  0  0  0
 27 28  2  0  0  0
 27  1  1  0  0  0
  1  2  2  0  0  0
  2  3  1  0  0  0
  3  4  2  0  0  0
  4  5  1  0  0  0
  5  6  2  0  0  0
  5  7  1  0  0  0
  7  8  1  0  0  0
  7  9  1  0  0  0
  9 10  2  0  0  0
 10 11  1  0  0  0
 11 12  1  0  0  0
 11 13  1  0  0  0
 11 17  1  0  0  0
 17 18  1  0  0  0
 18 20  1  0  0  0
 20 21  2  0  0  0
 21 22  1  0  0  0
 22 23  2  0  0  0
 23 24  1  0  0  0
 24 25  2  0  0  0
 36 37  1  0  0  0
 37 38  2  0  0  0
 38 30  1  0  0  0
 38 33  1  0  0  0
  6  1  1  0  0  0
 25 20  1  0  0  0
 10  4  1  0  0  0
 40 42  1  0  0  0
 40 43  1  0  0  0
 41 44  1  0  0  0
 31 39  1  0  0  0
 26 29  1  0  0  0
 12 14  1  0  0  0
 12 15  1  0  0  0
 13 16  1  0  0  0
 18 19  1  0  0  0
M  END
> <minimizedAffinity>
-9.11952

> <minimizedRMSD>
0.67491

$$$$
P20696


 35 40  0  0  0  0  0  0  0  0999 V2000
   -4.1029    5.9521  -20.6057 N   0  0  0  0  0  0  0  0  0  0  0  0
   -4.7949    6.0166  -19.2794 C   0  0  0  0  0  0  0  0  0  0  0  0
   -4.0365    5.1125  -18.2850 C   0  0  0  0  0  0  0  0  0  0  0  0
   -4.2694    5.4149  -16.8707 N   0  0  0  0  0  0  0  0  0  0  0  0
   -5.5006    5.0563  -16.2809 C   0  0  0  0  0  0  0  0  0  0  0  0
   -5.4932    4.9199  -14.8720 C   0  0  0  0  0  0  0  0  0  0  0  0
   -6.6292    4.5372  -14.1777 C   0  0  0  0  0  0  0  0  0  0  0  0
   -7.8368    4.3448  -14.8403 C   0  0  0  0  0  0  0  0  0  0  0  0
   -7.8500    4.4491  -16.2410 C   0  0  0  0  0  0  0  0  0  0  0  0
   -9.1819    4.0406  -17.2449 S   0  0  0  0  0  0  0  0  0  0  0  0
   -8.3305    4.4635  -18.6404 C   0  0  0  0  0  0  0  0  0  0  0  0
   -7.0640    4.9639  -18.3852 C   0  0  0  0  0  0  0  0  0  0  0  0
   -6.7253    4.8423  -16.9833 C   0  0  0  0  0  0  0  0  0  0  0  0
   -6.2308    5.5146  -19.5093 C   0  0  0  0  0  0  0  0  0  0  0  0
   -3.1415    6.2771  -20.5038 H   0  0  0  0  0  0  0  0  0  0  0  0
   -4.5935    6.5459  -21.2745 H   0  0  0  0  0  0  0  0  0  0  0  0
   -3.5744    5.8637  -16.3371 H   0  0  0  0  0  0  0  0  0  0  0  0
   -4.7793    7.4837  -18.7827 C   0  0  0  0  0  0  0  0  0  0  0  0
   -5.4823    8.6380  -19.5738 C   0  0  0  0  0  0  0  0  0  0  0  0
   -4.3634    9.5675  -19.0633 C   0  0  0  0  0  0  0  0  0  0  0  0
   -3.4693    8.3163  -18.9687 C   0  0  0  0  0  0  0  0  0  0  0  0
   -6.5280    4.0550  -12.7780 C   0  0  0  0  0  0  0  0  0  0  0  0
   -5.7881    3.1862  -12.5385 O   0  0  0  0  0  0  0  0  0  0  0  0
   -7.5496    4.7733  -11.8771 N   0  0  0  0  0  0  0  0  0  0  0  0
   -8.0075    5.5355  -12.2997 H   0  0  0  0  0  0  0  0  0  0  0  0
   -7.9300    4.5211  -10.5659 C   0  0  0  0  0  0  0  0  0  0  0  0
   -7.9847    5.5810   -9.6501 C   0  0  0  0  0  0  0  0  0  0  0  0
   -8.3381    5.3438   -8.3180 C   0  0  0  0  0  0  0  0  0  0  0  0
   -8.7355    4.0666   -7.9627 C   0  0  0  0  0  0  0  0  0  0  0  0
   -8.7513    3.0322   -8.8929 C   0  0  0  0  0  0  0  0  0  0  0  0
   -8.2984    3.2263  -10.1853 C   0  0  0  0  0  0  0  0  0  0  0  0
   -9.3223    1.8076   -8.2575 C   0  0  0  0  0  0  0  0  0  0  0  0
   -9.9159    2.2780   -6.9759 N   0  0  0  0  0  0  0  0  0  0  0  0
   -9.2079    3.5358   -6.6506 C   0  0  0  0  0  0  0  0  0  0  0  0
   -9.7702    1.5864   -6.2404 H   0  0  0  0  0  0  0  0  0  0  0  0
  2  1  1  0  0  0
  2 18  1  0  0  0
 18 19  1  0  0  0
 19 20  1  0  0  0
 20 21  1  0  0  0
  2  3  1  0  0  0
  3  4  1  0  0  0
  4  5  1  0  0  0
  5  6  1  0  0  0
  6  7  2  0  0  0
  7 22  1  0  0  0
 22 23  2  0  0  0
 22 24  1  0  0  0
 24 26  1  0  0  0
 26 27  2  0  0  0
 27 28  1  0  0  0
 28 29  2  0  0  0
 29 30  1  0  0  0
 30 31  2  0  0  0
 30 32  1  0  0  0
 32 33  1  0  0  0
 33 34  1  0  0  0
  7  8  1  0  0  0
  8  9  2  0  0  0
  9 10  1  0  0  0
 10 11  1  0  0  0
 11 12  2  0  0  0
 12 13  1  0  0  0
 12 14  1  0  0  0
 14  2  1  0  0  0
 21 18  1  0  0  0
 13  5  2  0  0  0
 31 26  1  0  0  0
 13  9  1  0  0  0
 34 29  1  0  0  0
  1 15  1  0  0  0
  1 16  1  0  0  0
  4 17  1  0  0  0
 24 25  1  0  0  0
 33 35  1  0  0  0
M  END
> <minimizedAffinity>
-9.16034

> <minimizedRMSD>
0.26472

$$$$
P20729


 33 37  0  0  0  0  0  0  0  0999 V2000
   -7.5696    5.1632  -13.9607 C   0  0  0  0  0  0  0  0  0  0  0  0
   -6.9782    6.1455  -13.7409 O   0  0  0  0  0  0  0  0  0  0  0  0
   -8.1986    4.1346  -12.9933 N   0  0  0  0  0  0  0  0  0  0  0  0
   -8.5833    3.3403  -13.4295 H   0  0  0  0  0  0  0  0  0  0  0  0
   -3.7283    5.5548  -17.8739 N   0  0  0  0  0  0  0  0  0  0  0  0
   -5.0472    5.2864  -17.5304 N   0  0  0  0  0  0  0  0  0  0  0  0
   -5.5331    5.3188  -16.2642 C   0  0  0  0  0  0  0  0  0  0  0  0
   -6.8436    4.9413  -16.3846 C   0  0  0  0  0  0  0  0  0  0  0  0
   -7.7860    4.7805  -15.3669 C   0  0  0  0  0  0  0  0  0  0  0  0
   -9.0293    4.3437  -15.8655 C   0  0  0  0  0  0  0  0  0  0  0  0
   -9.2747    4.1268  -17.2514 C   0  0  0  0  0  0  0  0  0  0  0  0
  -10.5100    3.7589  -17.6163 F   0  0  0  0  0  0  0  0  0  0  0  0
   -8.3222    4.3026  -18.2672 C   0  0  0  0  0  0  0  0  0  0  0  0
   -7.0695    4.7154  -17.7935 C   0  0  0  0  0  0  0  0  0  0  0  0
   -5.9332    4.9612  -18.4652 N   0  0  0  0  0  0  0  0  0  0  0  0
   -3.1980    5.7844  -17.0333 H   0  0  0  0  0  0  0  0  0  0  0  0
   -3.6990    6.3433  -18.5203 H   0  0  0  0  0  0  0  0  0  0  0  0
   -8.3096    4.1487  -11.6042 C   0  0  0  0  0  0  0  0  0  0  0  0
   -8.6821    2.9756  -10.9502 C   0  0  0  0  0  0  0  0  0  0  0  0
   -8.7873    2.9944   -9.5679 C   0  0  0  0  0  0  0  0  0  0  0  0
   -8.5375    4.1492   -8.8296 C   0  0  0  0  0  0  0  0  0  0  0  0
   -8.1891    5.3384   -9.4618 C   0  0  0  0  0  0  0  0  0  0  0  0
   -8.0643    5.3153  -10.8647 C   0  0  0  0  0  0  0  0  0  0  0  0
   -8.7336    3.8404   -7.3829 C   0  0  0  0  0  0  0  0  0  0  0  0
   -9.2590    2.4589   -7.2963 N   0  0  0  0  0  0  0  0  0  0  0  0
   -9.1569    1.8739   -8.6571 C   0  0  0  0  0  0  0  0  0  0  0  0
  -10.2325    2.4721   -6.9921 H   0  0  0  0  0  0  0  0  0  0  0  0
   -7.9910    6.6108   -8.7505 C   0  0  0  0  0  0  0  0  0  0  0  0
   -8.8876    7.6072   -8.8723 C   0  0  0  0  0  0  0  0  0  0  0  0
   -8.7268    8.9398   -8.2055 C   0  0  0  0  0  0  0  0  0  0  0  0
   -7.4038    9.1405   -7.6972 O   0  0  0  0  0  0  0  0  0  0  0  0
   -6.9440    8.0050   -6.9640 C   0  0  0  0  0  0  0  0  0  0  0  0
   -6.7703    6.8044   -7.8963 C   0  0  0  0  0  0  0  0  0  0  0  0
  5  6  1  0  0  0
  6  7  1  0  0  0
  7  8  2  0  0  0
  8  9  1  0  0  0
  9  1  1  0  0  0
  1  2  2  0  0  0
  1  3  1  0  0  0
  3 18  1  0  0  0
 18 19  2  0  0  0
 19 20  1  0  0  0
 20 21  2  0  0  0
 21 22  1  0  0  0
 22 28  1  0  0  0
 28 29  2  0  0  0
 29 30  1  0  0  0
 30 31  1  0  0  0
 31 32  1  0  0  0
 32 33  1  0  0  0
 22 23  2  0  0  0
 21 24  1  0  0  0
 24 25  1  0  0  0
 25 26  1  0  0  0
  9 10  2  0  0  0
 10 11  1  0  0  0
 11 12  1  0  0  0
 11 13  2  0  0  0
 13 14  1  0  0  0
 14 15  2  0  0  0
 15  6  1  0  0  0
 14  8  1  0  0  0
 23 18  1  0  0  0
 26 20  1  0  0  0
 33 28  1  0  0  0
  5 16  1  0  0  0
  5 17  1  0  0  0
  3  4  1  0  0  0
 25 27  1  0  0  0
M  END
> <minimizedAffinity>
-9.38728

> <minimizedRMSD>
0.20208

$$$$
P20730


 34 38  0  0  0  0  0  0  0  0999 V2000
   -7.6233    5.2198  -13.8582 C   0  0  0  0  0  0  0  0  0  0  0  0
   -7.2135    6.2873  -13.6207 O   0  0  0  0  0  0  0  0  0  0  0  0
   -8.0991    4.0952  -12.9099 N   0  0  0  0  0  0  0  0  0  0  0  0
   -8.3305    3.2493  -13.3572 H   0  0  0  0  0  0  0  0  0  0  0  0
   -3.5235    5.5902  -17.6260 C   0  0  0  0  0  0  0  0  0  0  0  0
   -4.9228    5.3306  -17.3715 N   0  0  0  0  0  0  0  0  0  0  0  0
   -5.4913    5.3344  -16.1122 C   0  0  0  0  0  0  0  0  0  0  0  0
   -6.8053    4.9647  -16.2571 C   0  0  0  0  0  0  0  0  0  0  0  0
   -7.7811    4.8206  -15.2673 C   0  0  0  0  0  0  0  0  0  0  0  0
   -9.0177    4.3995  -15.8127 C   0  0  0  0  0  0  0  0  0  0  0  0
   -9.2209    4.1683  -17.2099 C   0  0  0  0  0  0  0  0  0  0  0  0
  -10.4497    3.8156  -17.6118 F   0  0  0  0  0  0  0  0  0  0  0  0
   -8.2397    4.3268  -18.2038 C   0  0  0  0  0  0  0  0  0  0  0  0
   -7.0315    4.7340  -17.6479 C   0  0  0  0  0  0  0  0  0  0  0  0
   -5.8766    5.0387  -18.3308 C   0  0  0  0  0  0  0  0  0  0  0  0
   -5.6184    5.0927  -19.6642 N   0  0  0  0  0  0  0  0  0  0  0  0
   -6.3276    4.8767  -20.3120 H   0  0  0  0  0  0  0  0  0  0  0  0
   -4.7223    5.3478  -19.9822 H   0  0  0  0  0  0  0  0  0  0  0  0
   -8.2536    4.0840  -11.5257 C   0  0  0  0  0  0  0  0  0  0  0  0
   -8.6722    2.9047  -10.9106 C   0  0  0  0  0  0  0  0  0  0  0  0
   -8.8496    2.9069   -9.5375 C   0  0  0  0  0  0  0  0  0  0  0  0
   -8.6228    4.0512   -8.7701 C   0  0  0  0  0  0  0  0  0  0  0  0
   -8.2076    5.2385   -9.3614 C   0  0  0  0  0  0  0  0  0  0  0  0
   -8.0185    5.2337  -10.7567 C   0  0  0  0  0  0  0  0  0  0  0  0
   -8.9139    3.7150   -7.3432 C   0  0  0  0  0  0  0  0  0  0  0  0
   -9.6640    2.4362   -7.3697 N   0  0  0  0  0  0  0  0  0  0  0  0
   -9.2744    1.7854   -8.6475 C   0  0  0  0  0  0  0  0  0  0  0  0
  -10.6689    2.6100   -7.3482 H   0  0  0  0  0  0  0  0  0  0  0  0
   -7.9920    6.4876   -8.6163 C   0  0  0  0  0  0  0  0  0  0  0  0
   -8.8018    7.5462   -8.8021 C   0  0  0  0  0  0  0  0  0  0  0  0
   -8.5996    8.8597   -8.1098 C   0  0  0  0  0  0  0  0  0  0  0  0
   -7.3038    8.9654   -7.5113 O   0  0  0  0  0  0  0  0  0  0  0  0
   -6.9808    7.8030   -6.7472 C   0  0  0  0  0  0  0  0  0  0  0  0
   -6.8371    6.5831   -7.6595 C   0  0  0  0  0  0  0  0  0  0  0  0
  5  6  1  0  0  0
  6  7  1  0  0  0
  7  8  2  0  0  0
  8  9  1  0  0  0
  9  1  1  0  0  0
  1  2  2  0  0  0
  1  3  1  0  0  0
  3 19  1  0  0  0
 19 20  2  0  0  0
 20 21  1  0  0  0
 21 22  2  0  0  0
 22 23  1  0  0  0
 23 29  1  0  0  0
 29 30  2  0  0  0
 30 31  1  0  0  0
 31 32  1  0  0  0
 32 33  1  0  0  0
 33 34  1  0  0  0
 23 24  2  0  0  0
 22 25  1  0  0  0
 25 26  1  0  0  0
 26 27  1  0  0  0
  9 10  2  0  0  0
 10 11  1  0  0  0
 11 12  1  0  0  0
 11 13  2  0  0  0
 13 14  1  0  0  0
 14 15  2  0  0  0
 15 16  1  0  0  0
 15  6  1  0  0  0
 14  8  1  0  0  0
 24 19  1  0  0  0
 27 21  1  0  0  0
 34 29  1  0  0  0
  3  4  1  0  0  0
 26 28  1  0  0  0
 16 17  1  0  0  0
 16 18  1  0  0  0
M  END
> <minimizedAffinity>
-10.01753

> <minimizedRMSD>
0.24952

$$$$
P20731


 31 35  0  0  0  0  0  0  0  0999 V2000
   -8.2439    4.7632  -11.7513 C   0  0  0  0  0  0  0  0  0  0  0  0
   -8.4842    3.4975  -11.2205 C   0  0  0  0  0  0  0  0  0  0  0  0
   -8.5878    3.4000   -9.8380 C   0  0  0  0  0  0  0  0  0  0  0  0
   -8.4431    4.5158   -9.0045 C   0  0  0  0  0  0  0  0  0  0  0  0
   -8.1929    5.7800   -9.5284 C   0  0  0  0  0  0  0  0  0  0  0  0
   -8.0862    5.8830  -10.9217 C   0  0  0  0  0  0  0  0  0  0  0  0
   -8.6621    4.0900   -7.5907 C   0  0  0  0  0  0  0  0  0  0  0  0
   -9.0932    2.6769   -7.6235 N   0  0  0  0  0  0  0  0  0  0  0  0
   -8.9059    2.1950   -9.0143 C   0  0  0  0  0  0  0  0  0  0  0  0
  -10.0753    2.6046   -7.3575 H   0  0  0  0  0  0  0  0  0  0  0  0
   -8.0830    7.0184   -8.7439 C   0  0  0  0  0  0  0  0  0  0  0  0
   -9.0127    7.9855   -8.8680 C   0  0  0  0  0  0  0  0  0  0  0  0
   -8.8909    9.3248   -8.2082 C   0  0  0  0  0  0  0  0  0  0  0  0
   -7.5689    9.5637   -7.7150 O   0  0  0  0  0  0  0  0  0  0  0  0
   -7.0853    8.4543   -6.9576 C   0  0  0  0  0  0  0  0  0  0  0  0
   -6.8858    7.2369   -7.8629 C   0  0  0  0  0  0  0  0  0  0  0  0
   -8.3142    5.0492  -13.1888 C   0  0  0  0  0  0  0  0  0  0  0  0
   -9.2561    5.6873  -13.6504 O   0  0  0  0  0  0  0  0  0  0  0  0
   -7.1371    4.7699  -14.0805 C   0  0  0  0  0  0  0  0  0  0  0  0
   -6.0223    4.7357  -13.5766 O   0  0  0  0  0  0  0  0  0  0  0  0
   -5.0344    5.4590  -19.7759 C   0  0  0  0  0  0  0  0  0  0  0  0
   -5.3084    5.2962  -18.3692 N   0  0  0  0  0  0  0  0  0  0  0  0
   -4.3302    5.5537  -17.4798 N   0  0  0  0  0  0  0  0  0  0  0  0
   -4.9238    5.3554  -16.2996 C   0  0  0  0  0  0  0  0  0  0  0  0
   -6.2823    4.9790  -16.4219 C   0  0  0  0  0  0  0  0  0  0  0  0
   -7.3482    4.6822  -15.5456 C   0  0  0  0  0  0  0  0  0  0  0  0
   -8.5942    4.3391  -16.0991 C   0  0  0  0  0  0  0  0  0  0  0  0
   -8.7686    4.2829  -17.4723 C   0  0  0  0  0  0  0  0  0  0  0  0
   -9.9669    3.9581  -17.9701 F   0  0  0  0  0  0  0  0  0  0  0  0
   -7.7337    4.5660  -18.3511 C   0  0  0  0  0  0  0  0  0  0  0  0
   -6.5001    4.9298  -17.7993 C   0  0  0  0  0  0  0  0  0  0  0  0
 21 22  1  0  0  0
 22 23  1  0  0  0
 23 24  2  0  0  0
 24 25  1  0  0  0
 25 26  2  0  0  0
 26 19  1  0  0  0
 19 20  2  0  0  0
 19 17  1  0  0  0
 17 18  2  0  0  0
 17  1  1  0  0  0
  1  2  2  0  0  0
  2  3  1  0  0  0
  3  4  2  0  0  0
  4  5  1  0  0  0
  5 11  1  0  0  0
 11 12  2  0  0  0
 12 13  1  0  0  0
 13 14  1  0  0  0
 14 15  1  0  0  0
 15 16  1  0  0  0
  5  6  2  0  0  0
  4  7  1  0  0  0
  7  8  1  0  0  0
  8  9  1  0  0  0
 26 27  1  0  0  0
 27 28  2  0  0  0
 28 29  1  0  0  0
 28 30  1  0  0  0
 30 31  2  0  0  0
 31 22  1  0  0  0
 31 25  1  0  0  0
  6  1  1  0  0  0
  9  3  1  0  0  0
 16 11  1  0  0  0
  8 10  1  0  0  0
M  END
> <minimizedAffinity>
-8.79501

> <minimizedRMSD>
0.28698

$$$$
P20733


 34 38  0  0  0  0  0  0  0  0999 V2000
   -8.3365    4.9936  -13.1815 C   0  0  0  0  0  0  0  0  0  0  0  0
   -9.2197    5.7178  -13.6310 O   0  0  0  0  0  0  0  0  0  0  0  0
   -8.2553    4.7267  -11.7391 C   0  0  0  0  0  0  0  0  0  0  0  0
   -8.4517    3.4595  -11.1923 C   0  0  0  0  0  0  0  0  0  0  0  0
   -8.5525    3.3797   -9.8100 C   0  0  0  0  0  0  0  0  0  0  0  0
   -8.4390    4.5146   -8.9917 C   0  0  0  0  0  0  0  0  0  0  0  0
   -8.2044    5.7744   -9.5298 C   0  0  0  0  0  0  0  0  0  0  0  0
   -8.1122    5.8608  -10.9249 C   0  0  0  0  0  0  0  0  0  0  0  0
   -8.6713    4.0925   -7.5759 C   0  0  0  0  0  0  0  0  0  0  0  0
   -9.2901    2.7499   -7.6531 N   0  0  0  0  0  0  0  0  0  0  0  0
   -8.8380    2.1866   -8.9517 C   0  0  0  0  0  0  0  0  0  0  0  0
  -10.3073    2.8229   -7.6296 H   0  0  0  0  0  0  0  0  0  0  0  0
   -8.0917    7.0191   -8.7574 C   0  0  0  0  0  0  0  0  0  0  0  0
   -9.0237    7.9842   -8.8765 C   0  0  0  0  0  0  0  0  0  0  0  0
   -8.8913    9.3284   -8.2291 C   0  0  0  0  0  0  0  0  0  0  0  0
   -7.5591    9.5736   -7.7677 O   0  0  0  0  0  0  0  0  0  0  0  0
   -7.0586    8.4747   -7.0054 C   0  0  0  0  0  0  0  0  0  0  0  0
   -6.8820    7.2411   -7.8937 C   0  0  0  0  0  0  0  0  0  0  0  0
   -7.2146    4.5649  -14.0867 C   0  0  0  0  0  0  0  0  0  0  0  0
   -6.1553    4.2581  -13.5603 O   0  0  0  0  0  0  0  0  0  0  0  0
   -4.1252    5.6076  -15.1093 C   0  0  0  0  0  0  0  0  0  0  0  0
   -4.9645    5.3810  -16.3144 C   0  0  0  0  0  0  0  0  0  0  0  0
   -4.4040    5.5943  -17.5119 N   0  0  0  0  0  0  0  0  0  0  0  0
   -5.3833    5.3021  -18.3901 N   0  0  0  0  0  0  0  0  0  0  0  0
   -6.5712    4.9539  -17.8055 C   0  0  0  0  0  0  0  0  0  0  0  0
   -7.8118    4.6082  -18.3590 C   0  0  0  0  0  0  0  0  0  0  0  0
   -8.8418    4.2926  -17.4879 C   0  0  0  0  0  0  0  0  0  0  0  0
  -10.0431    3.9747  -17.9847 F   0  0  0  0  0  0  0  0  0  0  0  0
   -8.6521    4.2900  -16.1179 C   0  0  0  0  0  0  0  0  0  0  0  0
   -7.4004    4.6141  -15.5577 C   0  0  0  0  0  0  0  0  0  0  0  0
   -6.3325    4.9687  -16.4244 C   0  0  0  0  0  0  0  0  0  0  0  0
   -5.0674    5.3853  -19.8086 C   0  0  0  0  0  0  0  0  0  0  0  0
   -3.7066    4.9592  -20.0237 O   0  0  0  0  0  0  0  0  0  0  0  0
   -3.1052    5.5335  -19.5242 H   0  0  0  0  0  0  0  0  0  0  0  0
 21 22  1  0  0  0
 22 23  2  0  0  0
 23 24  1  0  0  0
 24 32  1  0  0  0
 32 33  1  0  0  0
 24 25  1  0  0  0
 25 26  2  0  0  0
 26 27  1  0  0  0
 27 28  1  0  0  0
 27 29  2  0  0  0
 29 30  1  0  0  0
 30 19  1  0  0  0
 19 20  2  0  0  0
 19  1  1  0  0  0
  1  2  2  0  0  0
  1  3  1  0  0  0
  3  4  2  0  0  0
  4  5  1  0  0  0
  5  6  2  0  0  0
  6  7  1  0  0  0
  7 13  1  0  0  0
 13 14  2  0  0  0
 14 15  1  0  0  0
 15 16  1  0  0  0
 16 17  1  0  0  0
 17 18  1  0  0  0
  7  8  2  0  0  0
  6  9  1  0  0  0
  9 10  1  0  0  0
 10 11  1  0  0  0
 30 31  2  0  0  0
 31 22  1  0  0  0
 31 25  1  0  0  0
  8  3  1  0  0  0
 11  5  1  0  0  0
 18 13  1  0  0  0
 33 34  1  0  0  0
 10 12  1  0  0  0
M  END
> <minimizedAffinity>
-9.01773

> <minimizedRMSD>
0.27087

$$$$
P20736


 37 41  0  0  0  0  0  0  0  0999 V2000
   -8.2086    4.8054  -11.4269 C   0  0  0  0  0  0  0  0  0  0  0  0
   -8.0576    5.9001  -10.5656 C   0  0  0  0  0  0  0  0  0  0  0  0
   -8.1663    5.7549   -9.1796 C   0  0  0  0  0  0  0  0  0  0  0  0
   -8.4646    4.4842   -8.7011 C   0  0  0  0  0  0  0  0  0  0  0  0
   -8.6092    3.3929   -9.5709 C   0  0  0  0  0  0  0  0  0  0  0  0
   -8.4098    3.5105  -10.9442 C   0  0  0  0  0  0  0  0  0  0  0  0
   -8.5918    2.4232  -11.8069 N   0  0  0  0  0  0  0  0  0  0  0  0
   -9.0161    2.1879   -8.7829 C   0  0  0  0  0  0  0  0  0  0  0  0
   -9.2376    2.6459   -7.3894 N   0  0  0  0  0  0  0  0  0  0  0  0
   -8.7190    4.0252   -7.3038 C   0  0  0  0  0  0  0  0  0  0  0  0
   -8.7317    1.5209  -11.4388 H   0  0  0  0  0  0  0  0  0  0  0  0
   -8.5799    2.5609  -12.7816 H   0  0  0  0  0  0  0  0  0  0  0  0
   -8.7367    2.0418   -6.7378 H   0  0  0  0  0  0  0  0  0  0  0  0
   -7.9764    6.9598   -8.3608 C   0  0  0  0  0  0  0  0  0  0  0  0
   -8.7685    8.0354   -8.5344 C   0  0  0  0  0  0  0  0  0  0  0  0
   -8.5084    9.3530   -7.8718 C   0  0  0  0  0  0  0  0  0  0  0  0
   -7.1883    9.4262   -7.3235 O   0  0  0  0  0  0  0  0  0  0  0  0
   -6.8868    8.2763   -6.5336 C   0  0  0  0  0  0  0  0  0  0  0  0
   -6.8123    7.0268   -7.4130 C   0  0  0  0  0  0  0  0  0  0  0  0
   -8.2088    5.1388  -12.8549 C   0  0  0  0  0  0  0  0  0  0  0  0
   -8.8898    6.0692  -13.2804 O   0  0  0  0  0  0  0  0  0  0  0  0
   -7.2091    4.4901  -13.7697 C   0  0  0  0  0  0  0  0  0  0  0  0
   -6.2034    4.0157  -13.2618 O   0  0  0  0  0  0  0  0  0  0  0  0
   -4.2120    5.7826  -14.7484 C   0  0  0  0  0  0  0  0  0  0  0  0
   -5.0527    5.5807  -15.9565 C   0  0  0  0  0  0  0  0  0  0  0  0
   -4.5383    5.9422  -17.1371 N   0  0  0  0  0  0  0  0  0  0  0  0
   -5.4912    5.6199  -18.0299 N   0  0  0  0  0  0  0  0  0  0  0  0
   -6.6412    5.1328  -17.4615 C   0  0  0  0  0  0  0  0  0  0  0  0
   -7.8659    4.7310  -18.0159 C   0  0  0  0  0  0  0  0  0  0  0  0
   -8.8526    4.2749  -17.1591 C   0  0  0  0  0  0  0  0  0  0  0  0
  -10.0359    3.9143  -17.6691 F   0  0  0  0  0  0  0  0  0  0  0  0
   -8.6414    4.1983  -15.7965 C   0  0  0  0  0  0  0  0  0  0  0  0
   -7.4082    4.5800  -15.2345 C   0  0  0  0  0  0  0  0  0  0  0  0
   -6.3826    5.0686  -16.0851 C   0  0  0  0  0  0  0  0  0  0  0  0
   -5.2223    5.9273  -19.4249 C   0  0  0  0  0  0  0  0  0  0  0  0
   -5.3440    4.7777  -20.2460 O   0  0  0  0  0  0  0  0  0  0  0  0
   -4.7000    4.1093  -19.9640 H   0  0  0  0  0  0  0  0  0  0  0  0
 24 25  1  0  0  0
 25 26  2  0  0  0
 26 27  1  0  0  0
 27 35  1  0  0  0
 35 36  1  0  0  0
 27 28  1  0  0  0
 28 29  2  0  0  0
 29 30  1  0  0  0
 30 31  1  0  0  0
 30 32  2  0  0  0
 32 33  1  0  0  0
 33 22  1  0  0  0
 22 23  2  0  0  0
 22 20  1  0  0  0
 20 21  2  0  0  0
 20  1  1  0  0  0
  1  2  2  0  0  0
  2  3  1  0  0  0
  3 14  1  0  0  0
 14 15  2  0  0  0
 15 16  1  0  0  0
 16 17  1  0  0  0
 17 18  1  0  0  0
 18 19  1  0  0  0
  3  4  2  0  0  0
  4  5  1  0  0  0
  5  6  2  0  0  0
  6  7  1  0  0  0
  5  8  1  0  0  0
  8  9  1  0  0  0
  9 10  1  0  0  0
 33 34  2  0  0  0
 34 25  1  0  0  0
 34 28  1  0  0  0
  6  1  1  0  0  0
 19 14  1  0  0  0
 10  4  1  0  0  0
 36 37  1  0  0  0
  7 11  1  0  0  0
  7 12  1  0  0  0
  9 13  1  0  0  0
M  END
> <minimizedAffinity>
-9.66600

> <minimizedRMSD>
0.33731

$$$$
P20740


 35 39  0  0  0  0  0  0  0  0999 V2000
   -7.6254    5.3168  -13.8397 C   0  0  0  0  0  0  0  0  0  0  0  0
   -7.1381    6.3470  -13.5912 O   0  0  0  0  0  0  0  0  0  0  0  0
   -8.2536    4.2591  -12.9121 N   0  0  0  0  0  0  0  0  0  0  0  0
   -8.6707    3.4984  -13.3775 H   0  0  0  0  0  0  0  0  0  0  0  0
   -5.3922    5.0920  -17.9090 N   0  0  0  0  0  0  0  0  0  0  0  0
   -4.5110    5.4939  -16.9842 N   0  0  0  0  0  0  0  0  0  0  0  0
   -5.2217    5.5084  -15.8567 C   0  0  0  0  0  0  0  0  0  0  0  0
   -6.5560    5.0973  -16.0530 C   0  0  0  0  0  0  0  0  0  0  0  0
   -7.6900    4.9092  -15.2496 C   0  0  0  0  0  0  0  0  0  0  0  0
   -8.8779    4.4445  -15.8188 C   0  0  0  0  0  0  0  0  0  0  0  0
   -8.9490    4.2302  -17.1885 C   0  0  0  0  0  0  0  0  0  0  0  0
  -10.1099    3.8298  -17.7214 F   0  0  0  0  0  0  0  0  0  0  0  0
   -7.8541    4.4423  -18.0240 C   0  0  0  0  0  0  0  0  0  0  0  0
   -6.6533    4.8483  -17.4166 C   0  0  0  0  0  0  0  0  0  0  0  0
   -4.9913    4.8909  -19.2394 N   0  0  0  0  0  0  0  0  0  0  0  0
   -4.1186    4.3629  -19.2363 H   0  0  0  0  0  0  0  0  0  0  0  0
   -3.2775    6.3469  -20.2124 C   0  0  0  0  0  0  0  0  0  0  0  0
   -4.7784    6.1256  -19.9806 C   0  0  0  0  0  0  0  0  0  0  0  0
   -5.3764    7.3723  -19.3509 C   0  0  0  0  0  0  0  0  0  0  0  0
   -8.3274    4.2040  -11.5256 C   0  0  0  0  0  0  0  0  0  0  0  0
   -8.6940    3.0102  -10.9137 C   0  0  0  0  0  0  0  0  0  0  0  0
   -8.8166    2.9995   -9.5357 C   0  0  0  0  0  0  0  0  0  0  0  0
   -8.5767    4.1403   -8.7625 C   0  0  0  0  0  0  0  0  0  0  0  0
   -8.1913    5.3369   -9.3528 C   0  0  0  0  0  0  0  0  0  0  0  0
   -8.0602    5.3439  -10.7521 C   0  0  0  0  0  0  0  0  0  0  0  0
   -8.8406    3.7903   -7.3340 C   0  0  0  0  0  0  0  0  0  0  0  0
   -9.5889    2.5098   -7.3615 N   0  0  0  0  0  0  0  0  0  0  0  0
   -9.2073    1.8675   -8.6452 C   0  0  0  0  0  0  0  0  0  0  0  0
  -10.5939    2.6814   -7.3316 H   0  0  0  0  0  0  0  0  0  0  0  0
   -7.9548    6.5897   -8.6185 C   0  0  0  0  0  0  0  0  0  0  0  0
   -8.8201    7.6166   -8.7178 C   0  0  0  0  0  0  0  0  0  0  0  0
   -8.5945    8.9427   -8.0586 C   0  0  0  0  0  0  0  0  0  0  0  0
   -7.2441    9.1030   -7.6125 O   0  0  0  0  0  0  0  0  0  0  0  0
   -6.7937    7.9628   -6.8804 C   0  0  0  0  0  0  0  0  0  0  0  0
   -6.7097    6.7352   -7.7903 C   0  0  0  0  0  0  0  0  0  0  0  0
 17 18  1  0  0  0
 18 19  1  0  0  0
 18 15  1  0  0  0
 15  5  1  0  0  0
  5  6  1  0  0  0
  6  7  2  0  0  0
  7  8  1  0  0  0
  8  9  2  0  0  0
  9  1  1  0  0  0
  1  2  2  0  0  0
  1  3  1  0  0  0
  3 20  1  0  0  0
 20 21  2  0  0  0
 21 22  1  0  0  0
 22 23  2  0  0  0
 23 24  1  0  0  0
 24 30  1  0  0  0
 30 31  2  0  0  0
 31 32  1  0  0  0
 32 33  1  0  0  0
 33 34  1  0  0  0
 34 35  1  0  0  0
 24 25  2  0  0  0
 23 26  1  0  0  0
 26 27  1  0  0  0
 27 28  1  0  0  0
  9 10  1  0  0  0
 10 11  2  0  0  0
 11 12  1  0  0  0
 11 13  1  0  0  0
 13 14  2  0  0  0
 14  5  1  0  0  0
 14  8  1  0  0  0
 25 20  1  0  0  0
 28 22  1  0  0  0
 35 30  1  0  0  0
 15 16  1  0  0  0
  3  4  1  0  0  0
 27 29  1  0  0  0
M  END
> <minimizedAffinity>
-8.97971

> <minimizedRMSD>
0.27507

$$$$
P20744


 36 40  0  0  0  0  0  0  0  0999 V2000
   -7.9804    1.3059   -8.7051 N   0  0  0  0  0  0  0  0  0  0  0  0
   -9.0717    2.2068   -8.7572 C   0  0  0  0  0  0  0  0  0  0  0  0
   -9.2002    2.7818   -7.4210 N   0  0  0  0  0  0  0  0  0  0  0  0
   -8.6154    4.1464   -7.4939 C   0  0  0  0  0  0  0  0  0  0  0  0
   -8.4679    4.4767   -8.9423 C   0  0  0  0  0  0  0  0  0  0  0  0
   -8.1317    5.6548   -9.5915 C   0  0  0  0  0  0  0  0  0  0  0  0
   -8.0336    5.6163  -10.9969 C   0  0  0  0  0  0  0  0  0  0  0  0
   -8.2854    4.4373  -11.7158 C   0  0  0  0  0  0  0  0  0  0  0  0
   -8.6369    3.2746  -11.0498 C   0  0  0  0  0  0  0  0  0  0  0  0
   -8.7324    3.3221   -9.6719 C   0  0  0  0  0  0  0  0  0  0  0  0
   -8.2061    0.5345   -8.0770 H   0  0  0  0  0  0  0  0  0  0  0  0
   -7.1531    1.7935   -8.3612 H   0  0  0  0  0  0  0  0  0  0  0  0
   -8.6908    2.2154   -6.7427 H   0  0  0  0  0  0  0  0  0  0  0  0
   -7.9387    6.9290   -8.8896 C   0  0  0  0  0  0  0  0  0  0  0  0
   -8.9204    7.8489   -8.8713 C   0  0  0  0  0  0  0  0  0  0  0  0
   -8.7757    9.1807   -8.2000 C   0  0  0  0  0  0  0  0  0  0  0  0
   -7.4174    9.4764   -7.8588 O   0  0  0  0  0  0  0  0  0  0  0  0
   -6.7812    8.3712   -7.2162 C   0  0  0  0  0  0  0  0  0  0  0  0
   -6.6373    7.2007   -8.1904 C   0  0  0  0  0  0  0  0  0  0  0  0
   -8.2333    4.3972  -13.1014 N   0  0  0  0  0  0  0  0  0  0  0  0
   -7.4699    5.2856  -14.0992 C   0  0  0  0  0  0  0  0  0  0  0  0
   -6.8242    6.2398  -13.9214 O   0  0  0  0  0  0  0  0  0  0  0  0
   -8.7727    3.6842  -13.5136 H   0  0  0  0  0  0  0  0  0  0  0  0
   -7.6791    4.8292  -15.4918 C   0  0  0  0  0  0  0  0  0  0  0  0
   -8.9396    4.4116  -15.9415 C   0  0  0  0  0  0  0  0  0  0  0  0
   -9.1485    4.1683  -17.2927 C   0  0  0  0  0  0  0  0  0  0  0  0
  -10.3708    3.8191  -17.7098 F   0  0  0  0  0  0  0  0  0  0  0  0
   -8.1378    4.3265  -18.2358 C   0  0  0  0  0  0  0  0  0  0  0  0
   -6.8840    4.7462  -17.7672 C   0  0  0  0  0  0  0  0  0  0  0  0
   -6.6323    4.9774  -16.4183 C   0  0  0  0  0  0  0  0  0  0  0  0
   -5.2788    5.3706  -16.3753 C   0  0  0  0  0  0  0  0  0  0  0  0
   -4.7248    5.4317  -17.5861 N   0  0  0  0  0  0  0  0  0  0  0  0
   -5.7123    5.0628  -18.4097 N   0  0  0  0  0  0  0  0  0  0  0  0
   -5.5525    5.1155  -19.7810 N   0  0  0  0  0  0  0  0  0  0  0  0
   -4.5906    5.3732  -20.0015 H   0  0  0  0  0  0  0  0  0  0  0  0
   -6.1887    5.8109  -20.1709 H   0  0  0  0  0  0  0  0  0  0  0  0
  2  1  1  0  0  0
  2  3  1  0  0  0
  3  4  1  0  0  0
  4  5  1  0  0  0
  5  6  2  0  0  0
  6 14  1  0  0  0
 14 15  2  0  0  0
 15 16  1  0  0  0
 16 17  1  0  0  0
 17 18  1  0  0  0
 18 19  1  0  0  0
  6  7  1  0  0  0
  7  8  2  0  0  0
  8 20  1  0  0  0
 20 21  1  0  0  0
 21 22  2  0  0  0
 21 24  1  0  0  0
 24 25  2  0  0  0
 25 26  1  0  0  0
 26 27  1  0  0  0
 26 28  2  0  0  0
 28 29  1  0  0  0
 29 30  2  0  0  0
 30 31  1  0  0  0
 31 32  2  0  0  0
 32 33  1  0  0  0
 33 34  1  0  0  0
  8  9  1  0  0  0
  9 10  2  0  0  0
 10  2  1  0  0  0
 10  5  1  0  0  0
 19 14  1  0  0  0
 30 24  1  0  0  0
 33 29  1  0  0  0
  1 11  1  0  0  0
  1 12  1  0  0  0
  3 13  1  0  0  0
 20 23  1  0  0  0
 34 35  1  0  0  0
 34 36  1  0  0  0
M  END
> <minimizedAffinity>
-9.90362

> <minimizedRMSD>
0.27910

$$$$
P20745


 36 41  0  0  0  0  0  0  0  0999 V2000
   -7.1183    6.2156  -13.7527 O   0  0  0  0  0  0  0  0  0  0  0  0
   -7.6590    5.2010  -13.9561 C   0  0  0  0  0  0  0  0  0  0  0  0
   -8.3079    4.1982  -12.9765 N   0  0  0  0  0  0  0  0  0  0  0  0
   -8.7724    3.4441  -13.4064 H   0  0  0  0  0  0  0  0  0  0  0  0
   -8.3429    4.1873  -11.5846 C   0  0  0  0  0  0  0  0  0  0  0  0
   -8.6621    3.0005  -10.9287 C   0  0  0  0  0  0  0  0  0  0  0  0
   -8.7423    3.0178   -9.5465 C   0  0  0  0  0  0  0  0  0  0  0  0
   -8.5179    4.1841   -8.8106 C   0  0  0  0  0  0  0  0  0  0  0  0
   -8.1914    5.3774   -9.4429 C   0  0  0  0  0  0  0  0  0  0  0  0
   -8.0945    5.3554  -10.8469 C   0  0  0  0  0  0  0  0  0  0  0  0
   -8.7182    3.8628   -7.3647 C   0  0  0  0  0  0  0  0  0  0  0  0
   -9.4139    2.5537   -7.3307 N   0  0  0  0  0  0  0  0  0  0  0  0
   -9.0610    1.8953   -8.6148 C   0  0  0  0  0  0  0  0  0  0  0  0
  -10.4229    2.6859   -7.2613 H   0  0  0  0  0  0  0  0  0  0  0  0
   -7.9905    6.6512   -8.7353 C   0  0  0  0  0  0  0  0  0  0  0  0
   -8.8824    7.6518   -8.8588 C   0  0  0  0  0  0  0  0  0  0  0  0
   -8.7060    8.9891   -8.2062 C   0  0  0  0  0  0  0  0  0  0  0  0
   -7.3711    9.1897   -7.7304 O   0  0  0  0  0  0  0  0  0  0  0  0
   -6.9049    8.0654   -6.9835 C   0  0  0  0  0  0  0  0  0  0  0  0
   -6.7631    6.8401   -7.8891 C   0  0  0  0  0  0  0  0  0  0  0  0
   -7.8619    4.7962  -15.3536 C   0  0  0  0  0  0  0  0  0  0  0  0
   -9.1016    4.3566  -15.8542 C   0  0  0  0  0  0  0  0  0  0  0  0
   -9.3352    4.1313  -17.2390 C   0  0  0  0  0  0  0  0  0  0  0  0
  -10.5650    3.7408  -17.6031 F   0  0  0  0  0  0  0  0  0  0  0  0
   -8.3730    4.3115  -18.2483 C   0  0  0  0  0  0  0  0  0  0  0  0
   -7.1157    4.7103  -17.7667 C   0  0  0  0  0  0  0  0  0  0  0  0
   -5.9626    4.9186  -18.4253 N   0  0  0  0  0  0  0  0  0  0  0  0
   -5.0551    5.2098  -17.4621 N   0  0  0  0  0  0  0  0  0  0  0  0
   -5.5875    5.2736  -16.2031 C   0  0  0  0  0  0  0  0  0  0  0  0
   -6.9054    4.9419  -16.3583 C   0  0  0  0  0  0  0  0  0  0  0  0
   -3.6296    5.2860  -17.7944 C   0  0  0  0  0  0  0  0  0  0  0  0
   -3.3164    6.3746  -18.7230 N   0  0  0  0  0  0  0  0  0  0  0  0
   -3.3023    6.0064  -20.1343 C   0  0  0  0  0  0  0  0  0  0  0  0
   -3.1193    7.3578  -20.8113 C   0  0  0  0  0  0  0  0  0  0  0  0
   -3.7081    8.3758  -19.8367 C   0  0  0  0  0  0  0  0  0  0  0  0
   -4.1496    7.5648  -18.6248 C   0  0  0  0  0  0  0  0  0  0  0  0
  1  2  2  0  0  0
  2  3  1  0  0  0
  3  5  1  0  0  0
  5  6  2  0  0  0
  6  7  1  0  0  0
  7  8  2  0  0  0
  8  9  1  0  0  0
  9 15  1  0  0  0
 15 16  2  0  0  0
 16 17  1  0  0  0
 17 18  1  0  0  0
 18 19  1  0  0  0
 19 20  1  0  0  0
  9 10  2  0  0  0
  8 11  1  0  0  0
 11 12  1  0  0  0
 12 13  1  0  0  0
  2 21  1  0  0  0
 21 22  2  0  0  0
 22 23  1  0  0  0
 23 24  1  0  0  0
 23 25  2  0  0  0
 25 26  1  0  0  0
 26 27  2  0  0  0
 27 28  1  0  0  0
 28 31  1  0  0  0
 31 32  1  0  0  0
 32 33  1  0  0  0
 33 34  1  0  0  0
 34 35  1  0  0  0
 35 36  1  0  0  0
 28 29  1  0  0  0
 29 30  2  0  0  0
 10  5  1  0  0  0
 30 21  1  0  0  0
 13  7  1  0  0  0
 30 26  1  0  0  0
 20 15  1  0  0  0
 36 32  1  0  0  0
  3  4  1  0  0  0
 12 14  1  0  0  0
M  END
> <minimizedAffinity>
-9.21306

> <minimizedRMSD>
0.77983

$$$$
P20746


 33 37  0  0  0  0  0  0  0  0999 V2000
   -7.7138    5.1570  -13.9436 C   0  0  0  0  0  0  0  0  0  0  0  0
   -7.3083    6.2332  -13.7425 O   0  0  0  0  0  0  0  0  0  0  0  0
   -8.2516    4.0906  -12.9647 N   0  0  0  0  0  0  0  0  0  0  0  0
   -8.6092    3.2801  -13.3940 H   0  0  0  0  0  0  0  0  0  0  0  0
   -5.6639    5.7659  -19.4717 N   0  0  0  0  0  0  0  0  0  0  0  0
   -5.7761    5.2714  -18.1677 N   0  0  0  0  0  0  0  0  0  0  0  0
   -4.7798    5.4221  -17.2864 N   0  0  0  0  0  0  0  0  0  0  0  0
   -5.3833    5.2830  -16.1041 C   0  0  0  0  0  0  0  0  0  0  0  0
   -6.7415    4.9208  -16.2282 C   0  0  0  0  0  0  0  0  0  0  0  0
   -7.8332    4.7273  -15.3586 C   0  0  0  0  0  0  0  0  0  0  0  0
   -9.0666    4.3319  -15.8941 C   0  0  0  0  0  0  0  0  0  0  0  0
   -9.2013    4.1372  -17.2631 C   0  0  0  0  0  0  0  0  0  0  0  0
  -10.3951    3.7967  -17.7613 F   0  0  0  0  0  0  0  0  0  0  0  0
   -8.1524    4.3620  -18.1488 C   0  0  0  0  0  0  0  0  0  0  0  0
   -6.9353    4.7911  -17.6026 C   0  0  0  0  0  0  0  0  0  0  0  0
   -4.7017    6.0578  -19.6430 H   0  0  0  0  0  0  0  0  0  0  0  0
   -6.2873    6.5649  -19.5871 H   0  0  0  0  0  0  0  0  0  0  0  0
   -8.3132    4.0889  -11.5731 C   0  0  0  0  0  0  0  0  0  0  0  0
   -8.7071    2.9260  -10.9161 C   0  0  0  0  0  0  0  0  0  0  0  0
   -8.8249    2.9624   -9.5372 C   0  0  0  0  0  0  0  0  0  0  0  0
   -8.5672    4.1249   -8.8063 C   0  0  0  0  0  0  0  0  0  0  0  0
   -8.1672    5.2952   -9.4398 C   0  0  0  0  0  0  0  0  0  0  0  0
   -8.0319    5.2533  -10.8402 C   0  0  0  0  0  0  0  0  0  0  0  0
   -8.8258    3.8293   -7.3642 C   0  0  0  0  0  0  0  0  0  0  0  0
   -9.5835    2.5546   -7.3387 N   0  0  0  0  0  0  0  0  0  0  0  0
   -9.2231    1.8664   -8.6049 C   0  0  0  0  0  0  0  0  0  0  0  0
  -10.5867    2.7348   -7.3018 H   0  0  0  0  0  0  0  0  0  0  0  0
   -7.9316    6.5655   -8.7362 C   0  0  0  0  0  0  0  0  0  0  0  0
   -8.8133    7.5779   -8.8339 C   0  0  0  0  0  0  0  0  0  0  0  0
   -8.6066    8.9089   -8.1768 C   0  0  0  0  0  0  0  0  0  0  0  0
   -7.2607    9.0898   -7.7253 O   0  0  0  0  0  0  0  0  0  0  0  0
   -6.7925    7.9538   -6.9979 C   0  0  0  0  0  0  0  0  0  0  0  0
   -6.6828    6.7355   -7.9174 C   0  0  0  0  0  0  0  0  0  0  0  0
  5  6  1  0  0  0
  6  7  1  0  0  0
  7  8  2  0  0  0
  8  9  1  0  0  0
  9 10  2  0  0  0
 10  1  1  0  0  0
  1  2  2  0  0  0
  1  3  1  0  0  0
  3 18  1  0  0  0
 18 19  2  0  0  0
 19 20  1  0  0  0
 20 21  2  0  0  0
 21 22  1  0  0  0
 22 28  1  0  0  0
 28 29  2  0  0  0
 29 30  1  0  0  0
 30 31  1  0  0  0
 31 32  1  0  0  0
 32 33  1  0  0  0
 22 23  2  0  0  0
 21 24  1  0  0  0
 24 25  1  0  0  0
 25 26  1  0  0  0
 10 11  1  0  0  0
 11 12  2  0  0  0
 12 13  1  0  0  0
 12 14  1  0  0  0
 14 15  2  0  0  0
 15  6  1  0  0  0
 15  9  1  0  0  0
 23 18  1  0  0  0
 26 20  1  0  0  0
 33 28  1  0  0  0
  5 16  1  0  0  0
  5 17  1  0  0  0
  3  4  1  0  0  0
 25 27  1  0  0  0
M  END
> <minimizedAffinity>
-9.44948

> <minimizedRMSD>
0.23873

$$$$
P20749


 33 37  0  0  0  0  0  0  0  0999 V2000
   -7.6781    5.4133  -13.6870 C   0  0  0  0  0  0  0  0  0  0  0  0
   -7.4168    6.5182  -13.4166 O   0  0  0  0  0  0  0  0  0  0  0  0
   -8.0433    4.2202  -12.7781 N   0  0  0  0  0  0  0  0  0  0  0  0
   -8.1479    3.3613  -13.2478 H   0  0  0  0  0  0  0  0  0  0  0  0
   -3.3428    6.8407  -16.7688 C   0  0  0  0  0  0  0  0  0  0  0  0
   -4.7954    6.6942  -16.7925 N   0  0  0  0  0  0  0  0  0  0  0  0
   -5.2969    6.1237  -15.5230 C   0  0  0  0  0  0  0  0  0  0  0  0
   -6.5533    5.4114  -15.9055 C   0  0  0  0  0  0  0  0  0  0  0  0
   -7.6277    5.0199  -15.1144 C   0  0  0  0  0  0  0  0  0  0  0  0
   -8.7146    4.3887  -15.7218 C   0  0  0  0  0  0  0  0  0  0  0  0
   -8.6965    4.1680  -17.1028 C   0  0  0  0  0  0  0  0  0  0  0  0
   -9.7673    3.6011  -17.6754 F   0  0  0  0  0  0  0  0  0  0  0  0
   -7.6089    4.5451  -17.8957 C   0  0  0  0  0  0  0  0  0  0  0  0
   -6.5254    5.1591  -17.2780 C   0  0  0  0  0  0  0  0  0  0  0  0
   -5.2724    5.7191  -17.8745 N   0  0  0  0  0  0  0  0  0  0  0  0
   -5.5028    6.4099  -19.1619 C   0  0  0  0  0  0  0  0  0  0  0  0
   -4.3320    4.7700  -18.0217 O   0  0  0  0  0  0  0  0  0  0  0  0
   -8.2489    4.1609  -11.4014 C   0  0  0  0  0  0  0  0  0  0  0  0
   -8.6501    2.9587  -10.8239 C   0  0  0  0  0  0  0  0  0  0  0  0
   -8.8305    2.9175   -9.4490 C   0  0  0  0  0  0  0  0  0  0  0  0
   -8.6109    4.0348   -8.6443 C   0  0  0  0  0  0  0  0  0  0  0  0
   -8.2281    5.2499   -9.2009 C   0  0  0  0  0  0  0  0  0  0  0  0
   -8.0465    5.2917  -10.5959 C   0  0  0  0  0  0  0  0  0  0  0  0
   -8.8710    3.6576   -7.2245 C   0  0  0  0  0  0  0  0  0  0  0  0
   -9.4183    2.2823   -7.2302 N   0  0  0  0  0  0  0  0  0  0  0  0
   -9.2555    1.7600   -8.6108 C   0  0  0  0  0  0  0  0  0  0  0  0
  -10.4057    2.2965   -6.9745 H   0  0  0  0  0  0  0  0  0  0  0  0
   -8.0265    6.4850   -8.4272 C   0  0  0  0  0  0  0  0  0  0  0  0
   -8.7832    7.5724   -8.6656 C   0  0  0  0  0  0  0  0  0  0  0  0
   -8.5832    8.8793   -7.9604 C   0  0  0  0  0  0  0  0  0  0  0  0
   -7.3320    8.9382   -7.2673 O   0  0  0  0  0  0  0  0  0  0  0  0
   -7.1079    7.7638   -6.4873 C   0  0  0  0  0  0  0  0  0  0  0  0
   -6.9366    6.5439   -7.3946 C   0  0  0  0  0  0  0  0  0  0  0  0
  5  6  1  0  0  0
  6  7  1  0  0  0
  7  8  1  0  0  0
  8  9  2  0  0  0
  9  1  1  0  0  0
  1  2  2  0  0  0
  1  3  1  0  0  0
  3 18  1  0  0  0
 18 19  2  0  0  0
 19 20  1  0  0  0
 20 21  2  0  0  0
 21 22  1  0  0  0
 22 28  1  0  0  0
 28 29  2  0  0  0
 29 30  1  0  0  0
 30 31  1  0  0  0
 31 32  1  0  0  0
 32 33  1  0  0  0
 22 23  2  0  0  0
 21 24  1  0  0  0
 24 25  1  0  0  0
 25 26  1  0  0  0
  9 10  1  0  0  0
 10 11  2  0  0  0
 11 12  1  0  0  0
 11 13  1  0  0  0
 13 14  2  0  0  0
 14 15  1  0  0  0
 15 16  1  0  0  0
 15 17  1  0  0  0
 15  6  1  0  0  0
 14  8  1  0  0  0
 23 18  1  0  0  0
 26 20  1  0  0  0
 33 28  1  0  0  0
  3  4  1  0  0  0
 25 27  1  0  0  0
M  CHG 1  15   1
M  CHG 1  17  -1
M  END
> <minimizedAffinity>
-8.85144

> <minimizedRMSD>
0.35966

$$$$
P20750


 33 37  0  0  0  0  0  0  0  0999 V2000
   -8.5522    5.1093  -14.2050 C   0  0  0  0  0  0  0  0  0  0  0  0
   -9.3246    5.9845  -14.1559 O   0  0  0  0  0  0  0  0  0  0  0  0
   -7.9713    4.2210  -13.0805 N   0  0  0  0  0  0  0  0  0  0  0  0
   -7.3863    3.4927  -13.3913 H   0  0  0  0  0  0  0  0  0  0  0  0
   -3.3277    6.2880  -15.2744 C   0  0  0  0  0  0  0  0  0  0  0  0
   -4.3351    5.3004  -15.6422 N   0  0  0  0  0  0  0  0  0  0  0  0
   -5.5890    5.4893  -14.8872 C   0  0  0  0  0  0  0  0  0  0  0  0
   -6.6644    5.0187  -15.8110 C   0  0  0  0  0  0  0  0  0  0  0  0
   -8.0031    4.7751  -15.5424 C   0  0  0  0  0  0  0  0  0  0  0  0
   -8.8257    4.3977  -16.6003 C   0  0  0  0  0  0  0  0  0  0  0  0
   -8.3069    4.3026  -17.8955 C   0  0  0  0  0  0  0  0  0  0  0  0
   -9.1343    3.9747  -18.8963 F   0  0  0  0  0  0  0  0  0  0  0  0
   -6.9752    4.5930  -18.1741 C   0  0  0  0  0  0  0  0  0  0  0  0
   -6.1597    4.9523  -17.1100 C   0  0  0  0  0  0  0  0  0  0  0  0
   -4.7450    5.4135  -17.1286 N   0  0  0  0  0  0  0  0  0  0  0  0
   -3.8619    4.5428  -17.9584 C   0  0  0  0  0  0  0  0  0  0  0  0
   -4.7186    6.7232  -17.4863 O   0  0  0  0  0  0  0  0  0  0  0  0
   -8.1415    4.2839  -11.6958 C   0  0  0  0  0  0  0  0  0  0  0  0
   -8.5221    3.1476  -10.9883 C   0  0  0  0  0  0  0  0  0  0  0  0
   -8.6869    3.2475   -9.6126 C   0  0  0  0  0  0  0  0  0  0  0  0
   -8.4871    4.4505   -8.9329 C   0  0  0  0  0  0  0  0  0  0  0  0
   -8.1201    5.6025   -9.6179 C   0  0  0  0  0  0  0  0  0  0  0  0
   -7.9374    5.4914  -11.0111 C   0  0  0  0  0  0  0  0  0  0  0  0
   -8.7417    4.2176   -7.4794 C   0  0  0  0  0  0  0  0  0  0  0  0
   -9.3641    2.8826   -7.3692 N   0  0  0  0  0  0  0  0  0  0  0  0
   -9.0656    2.1795   -8.6397 C   0  0  0  0  0  0  0  0  0  0  0  0
  -10.3724    2.9720   -7.2432 H   0  0  0  0  0  0  0  0  0  0  0  0
   -7.9195    6.9182   -8.9871 C   0  0  0  0  0  0  0  0  0  0  0  0
   -8.8048    7.9141   -9.1841 C   0  0  0  0  0  0  0  0  0  0  0  0
   -8.6010    9.3078   -8.6660 C   0  0  0  0  0  0  0  0  0  0  0  0
   -7.2749    9.5220   -8.1668 O   0  0  0  0  0  0  0  0  0  0  0  0
   -6.8526    8.4468   -7.3299 C   0  0  0  0  0  0  0  0  0  0  0  0
   -6.6922    7.1704   -8.1569 C   0  0  0  0  0  0  0  0  0  0  0  0
  5  6  1  0  0  0
  6  7  1  0  0  0
  7  8  1  0  0  0
  8  9  2  0  0  0
  9  1  1  0  0  0
  1  2  2  0  0  0
  1  3  1  0  0  0
  3 18  1  0  0  0
 18 19  2  0  0  0
 19 20  1  0  0  0
 20 21  2  0  0  0
 21 22  1  0  0  0
 22 28  1  0  0  0
 28 29  2  0  0  0
 29 30  1  0  0  0
 30 31  1  0  0  0
 31 32  1  0  0  0
 32 33  1  0  0  0
 22 23  2  0  0  0
 21 24  1  0  0  0
 24 25  1  0  0  0
 25 26  1  0  0  0
  9 10  1  0  0  0
 10 11  2  0  0  0
 11 12  1  0  0  0
 11 13  1  0  0  0
 13 14  2  0  0  0
 14 15  1  0  0  0
 15 16  1  0  0  0
 15 17  1  0  0  0
 15  6  1  0  0  0
 14  8  1  0  0  0
 23 18  1  0  0  0
 26 20  1  0  0  0
 33 28  1  0  0  0
  3  4  1  0  0  0
 25 27  1  0  0  0
M  CHG 1  15   1
M  CHG 1  17  -1
M  END
> <minimizedAffinity>
-8.47152

> <minimizedRMSD>
0.91521

$$$$
P20751


 31 35  0  0  0  0  0  0  0  0999 V2000
   -8.3671    4.0855  -11.4136 C   0  0  0  0  0  0  0  0  0  0  0  0
   -8.7707    2.9092  -10.7923 C   0  0  0  0  0  0  0  0  0  0  0  0
   -8.8816    2.9116   -9.4127 C   0  0  0  0  0  0  0  0  0  0  0  0
   -8.5760    4.0417   -8.6460 C   0  0  0  0  0  0  0  0  0  0  0  0
   -8.1475    5.2186   -9.2451 C   0  0  0  0  0  0  0  0  0  0  0  0
   -8.0508    5.2185  -10.6472 C   0  0  0  0  0  0  0  0  0  0  0  0
   -8.8246    3.7044   -7.2118 C   0  0  0  0  0  0  0  0  0  0  0  0
   -9.6398    2.4655   -7.2229 N   0  0  0  0  0  0  0  0  0  0  0  0
   -9.3157    1.8029   -8.5126 C   0  0  0  0  0  0  0  0  0  0  0  0
  -10.6336    2.6899   -7.1751 H   0  0  0  0  0  0  0  0  0  0  0  0
   -7.8119    6.4537   -8.5187 C   0  0  0  0  0  0  0  0  0  0  0  0
   -8.6157    7.5318   -8.5860 C   0  0  0  0  0  0  0  0  0  0  0  0
   -8.2806    8.8430   -7.9438 C   0  0  0  0  0  0  0  0  0  0  0  0
   -6.9031    8.9230   -7.5638 O   0  0  0  0  0  0  0  0  0  0  0  0
   -6.4889    7.7614   -6.8445 C   0  0  0  0  0  0  0  0  0  0  0  0
   -6.5251    6.5250   -7.7455 C   0  0  0  0  0  0  0  0  0  0  0  0
   -7.8198    5.2634  -13.7366 C   0  0  0  0  0  0  0  0  0  0  0  0
   -7.3869    6.3186  -13.4925 O   0  0  0  0  0  0  0  0  0  0  0  0
   -8.2694    4.1274  -12.7994 N   0  0  0  0  0  0  0  0  0  0  0  0
   -8.5302    3.2952  -13.2562 H   0  0  0  0  0  0  0  0  0  0  0  0
   -3.4203    5.5346  -16.9479 C   0  0  0  0  0  0  0  0  0  0  0  0
   -4.8422    5.3341  -16.8293 N   0  0  0  0  0  0  0  0  0  0  0  0
   -5.5386    5.3732  -15.6647 C   0  0  0  0  0  0  0  0  0  0  0  0
   -6.8104    5.0166  -16.0125 C   0  0  0  0  0  0  0  0  0  0  0  0
   -7.8831    4.8557  -15.1423 C   0  0  0  0  0  0  0  0  0  0  0  0
   -9.0360    4.3917  -15.7915 C   0  0  0  0  0  0  0  0  0  0  0  0
   -9.0850    4.1817  -17.1997 C   0  0  0  0  0  0  0  0  0  0  0  0
  -10.2521    3.7656  -17.7145 F   0  0  0  0  0  0  0  0  0  0  0  0
   -8.0043    4.4005  -18.0818 C   0  0  0  0  0  0  0  0  0  0  0  0
   -6.8232    4.8073  -17.4368 C   0  0  0  0  0  0  0  0  0  0  0  0
   -5.5909    5.0623  -17.9193 N   0  0  0  0  0  0  0  0  0  0  0  0
 21 22  1  0  0  0
 22 23  1  0  0  0
 23 24  2  0  0  0
 24 25  1  0  0  0
 25 17  1  0  0  0
 17 18  2  0  0  0
 17 19  1  0  0  0
 19  1  1  0  0  0
  1  2  2  0  0  0
  2  3  1  0  0  0
  3  4  2  0  0  0
  4  5  1  0  0  0
  5 11  1  0  0  0
 11 12  2  0  0  0
 12 13  1  0  0  0
 13 14  1  0  0  0
 14 15  1  0  0  0
 15 16  1  0  0  0
  5  6  2  0  0  0
  4  7  1  0  0  0
  7  8  1  0  0  0
  8  9  1  0  0  0
 25 26  2  0  0  0
 26 27  1  0  0  0
 27 28  1  0  0  0
 27 29  2  0  0  0
 29 30  1  0  0  0
 30 31  2  0  0  0
 31 22  1  0  0  0
 30 24  1  0  0  0
  6  1  1  0  0  0
  9  3  1  0  0  0
 16 11  1  0  0  0
 19 20  1  0  0  0
  8 10  1  0  0  0
M  END
> <minimizedAffinity>
-9.08219

> <minimizedRMSD>
0.33373

$$$$
P20752


 37 42  0  0  0  0  0  0  0  0999 V2000
   -9.0728    6.2779  -13.5073 O   0  0  0  0  0  0  0  0  0  0  0  0
   -8.4476    5.3037  -13.6464 C   0  0  0  0  0  0  0  0  0  0  0  0
   -7.9353    4.2864  -12.6049 N   0  0  0  0  0  0  0  0  0  0  0  0
   -7.3571    3.5783  -12.9703 H   0  0  0  0  0  0  0  0  0  0  0  0
   -8.1283    4.8755  -15.0254 C   0  0  0  0  0  0  0  0  0  0  0  0
   -9.1944    4.3375  -15.7733 C   0  0  0  0  0  0  0  0  0  0  0  0
   -9.0421    4.0803  -17.1354 C   0  0  0  0  0  0  0  0  0  0  0  0
  -10.0777    3.6081  -17.8391 F   0  0  0  0  0  0  0  0  0  0  0  0
   -7.8505    4.3502  -17.7843 C   0  0  0  0  0  0  0  0  0  0  0  0
   -6.8260    4.9107  -17.0416 C   0  0  0  0  0  0  0  0  0  0  0  0
   -6.9201    5.1529  -15.6608 C   0  0  0  0  0  0  0  0  0  0  0  0
   -5.5903    5.7608  -15.2490 C   0  0  0  0  0  0  0  0  0  0  0  0
   -5.5817    6.9516  -14.2926 C   0  0  0  0  0  0  0  0  0  0  0  0
   -5.2953    6.3856  -12.8996 C   0  0  0  0  0  0  0  0  0  0  0  0
   -4.9784    4.9594  -13.0569 N   0  0  0  0  0  0  0  0  0  0  0  0
   -4.6542    4.8102  -14.4811 C   0  0  0  0  0  0  0  0  0  0  0  0
   -4.9700    6.1440  -16.5694 N   0  0  0  0  0  0  0  0  0  0  0  0
   -5.5645    5.2854  -17.5447 N   0  0  0  0  0  0  0  0  0  0  0  0
   -5.7814    4.3820  -12.8074 H   0  0  0  0  0  0  0  0  0  0  0  0
   -3.9601    6.0032  -16.5412 H   0  0  0  0  0  0  0  0  0  0  0  0
   -5.1688    5.0089  -18.4027 H   0  0  0  0  0  0  0  0  0  0  0  0
   -8.1581    4.2070  -11.2313 C   0  0  0  0  0  0  0  0  0  0  0  0
   -8.5939    3.0069  -10.6745 C   0  0  0  0  0  0  0  0  0  0  0  0
   -8.8095    2.9587   -9.3042 C   0  0  0  0  0  0  0  0  0  0  0  0
   -8.5861    4.0637   -8.4840 C   0  0  0  0  0  0  0  0  0  0  0  0
   -8.1757    5.2767   -9.0228 C   0  0  0  0  0  0  0  0  0  0  0  0
   -7.9627    5.3289  -10.4121 C   0  0  0  0  0  0  0  0  0  0  0  0
   -8.9013    3.6879   -7.0758 C   0  0  0  0  0  0  0  0  0  0  0  0
   -9.2609    2.2511   -7.0728 N   0  0  0  0  0  0  0  0  0  0  0  0
   -9.3162    1.8162   -8.4921 C   0  0  0  0  0  0  0  0  0  0  0  0
  -10.1700    2.1181   -6.6297 H   0  0  0  0  0  0  0  0  0  0  0  0
   -7.9750    6.5014   -8.2356 C   0  0  0  0  0  0  0  0  0  0  0  0
   -8.6624    7.6215   -8.5248 C   0  0  0  0  0  0  0  0  0  0  0  0
   -8.4475    8.9196   -7.8073 C   0  0  0  0  0  0  0  0  0  0  0  0
   -7.2443    8.9206   -7.0313 O   0  0  0  0  0  0  0  0  0  0  0  0
   -7.1275    7.7381   -6.2396 C   0  0  0  0  0  0  0  0  0  0  0  0
   -6.9506    6.5120   -7.1370 C   0  0  0  0  0  0  0  0  0  0  0  0
  1  2  2  0  0  0
  2  3  1  0  0  0
  3 22  1  0  0  0
 22 23  2  0  0  0
 23 24  1  0  0  0
 24 25  2  0  0  0
 25 26  1  0  0  0
 26 32  1  0  0  0
 32 33  2  0  0  0
 33 34  1  0  0  0
 34 35  1  0  0  0
 35 36  1  0  0  0
 36 37  1  0  0  0
 26 27  2  0  0  0
 25 28  1  0  0  0
 28 29  1  0  0  0
 29 30  1  0  0  0
  2  5  1  0  0  0
  5  6  2  0  0  0
  6  7  1  0  0  0
  7  8  1  0  0  0
  7  9  2  0  0  0
  9 10  1  0  0  0
 10 11  2  0  0  0
 11 12  1  0  0  0
 12 13  1  0  0  0
 13 14  1  0  0  0
 14 15  1  0  0  0
 15 16  1  0  0  0
 12 17  1  0  0  0
 17 18  1  0  0  0
 27 22  1  0  0  0
 11  5  1  0  0  0
 16 12  1  0  0  0
 30 24  1  0  0  0
 18 10  1  0  0  0
 37 32  1  0  0  0
  3  4  1  0  0  0
 29 31  1  0  0  0
 15 19  1  0  0  0
 17 20  1  0  0  0
 18 21  1  0  0  0
M  END
> <minimizedAffinity>
-9.37179

> <minimizedRMSD>
0.80451

$$$$
P20753


 37 42  0  0  0  0  0  0  0  0999 V2000
   -9.3678    5.9557  -14.1563 O   0  0  0  0  0  0  0  0  0  0  0  0
   -8.5112    5.1638  -14.2199 C   0  0  0  0  0  0  0  0  0  0  0  0
   -7.8365    4.3231  -13.1072 N   0  0  0  0  0  0  0  0  0  0  0  0
   -7.1825    3.6615  -13.4296 H   0  0  0  0  0  0  0  0  0  0  0  0
   -8.0300    4.8054  -15.5771 C   0  0  0  0  0  0  0  0  0  0  0  0
   -8.9642    4.2947  -16.4821 C   0  0  0  0  0  0  0  0  0  0  0  0
   -8.6496    4.1456  -17.8325 C   0  0  0  0  0  0  0  0  0  0  0  0
   -9.5895    3.7111  -18.6806 F   0  0  0  0  0  0  0  0  0  0  0  0
   -7.3875    4.4455  -18.3092 C   0  0  0  0  0  0  0  0  0  0  0  0
   -6.4527    4.8964  -17.3973 C   0  0  0  0  0  0  0  0  0  0  0  0
   -6.7537    5.0956  -16.0434 C   0  0  0  0  0  0  0  0  0  0  0  0
   -5.4846    5.5344  -15.3724 C   0  0  0  0  0  0  0  0  0  0  0  0
   -4.9822    4.5679  -14.2982 C   0  0  0  0  0  0  0  0  0  0  0  0
   -4.1186    5.4168  -13.3630 C   0  0  0  0  0  0  0  0  0  0  0  0
   -4.1521    6.8036  -13.8655 N   0  0  0  0  0  0  0  0  0  0  0  0
   -5.4352    6.8664  -14.6055 C   0  0  0  0  0  0  0  0  0  0  0  0
   -4.4545    5.6141  -16.4970 N   0  0  0  0  0  0  0  0  0  0  0  0
   -5.0860    5.0594  -17.6433 N   0  0  0  0  0  0  0  0  0  0  0  0
   -3.3633    6.9868  -14.4856 H   0  0  0  0  0  0  0  0  0  0  0  0
   -3.6226    5.0759  -16.2549 H   0  0  0  0  0  0  0  0  0  0  0  0
   -4.6299    4.8253  -18.4838 H   0  0  0  0  0  0  0  0  0  0  0  0
   -8.0054    4.3511  -11.7182 C   0  0  0  0  0  0  0  0  0  0  0  0
   -8.5481    3.2395  -11.0747 C   0  0  0  0  0  0  0  0  0  0  0  0
   -8.7108    3.2783   -9.6952 C   0  0  0  0  0  0  0  0  0  0  0  0
   -8.3509    4.3984   -8.9451 C   0  0  0  0  0  0  0  0  0  0  0  0
   -7.8322    5.5322   -9.5617 C   0  0  0  0  0  0  0  0  0  0  0  0
   -7.6534    5.4811  -10.9626 C   0  0  0  0  0  0  0  0  0  0  0  0
   -8.6302    4.1093   -7.5052 C   0  0  0  0  0  0  0  0  0  0  0  0
   -9.4307    2.8695   -7.4712 N   0  0  0  0  0  0  0  0  0  0  0  0
   -9.2359    2.2146   -8.7865 C   0  0  0  0  0  0  0  0  0  0  0  0
  -10.4165    3.0890   -7.3282 H   0  0  0  0  0  0  0  0  0  0  0  0
   -7.4887    6.7731   -8.8427 C   0  0  0  0  0  0  0  0  0  0  0  0
   -8.3276    7.8266   -8.8566 C   0  0  0  0  0  0  0  0  0  0  0  0
   -8.0167    9.1392   -8.2004 C   0  0  0  0  0  0  0  0  0  0  0  0
   -6.6539    9.2373   -7.7727 O   0  0  0  0  0  0  0  0  0  0  0  0
   -6.2211    8.0497   -7.1124 C   0  0  0  0  0  0  0  0  0  0  0  0
   -6.1867    6.8805   -8.0982 C   0  0  0  0  0  0  0  0  0  0  0  0
  1  2  2  0  0  0
  2  3  1  0  0  0
  3 22  1  0  0  0
 22 23  2  0  0  0
 23 24  1  0  0  0
 24 25  2  0  0  0
 25 26  1  0  0  0
 26 32  1  0  0  0
 32 33  2  0  0  0
 33 34  1  0  0  0
 34 35  1  0  0  0
 35 36  1  0  0  0
 36 37  1  0  0  0
 26 27  2  0  0  0
 25 28  1  0  0  0
 28 29  1  0  0  0
 29 30  1  0  0  0
  2  5  1  0  0  0
  5  6  2  0  0  0
  6  7  1  0  0  0
  7  8  1  0  0  0
  7  9  2  0  0  0
  9 10  1  0  0  0
 10 11  2  0  0  0
 11 12  1  0  0  0
 12 13  1  0  0  0
 13 14  1  0  0  0
 14 15  1  0  0  0
 15 16  1  0  0  0
 12 17  1  0  0  0
 17 18  1  0  0  0
 27 22  1  0  0  0
 11  5  1  0  0  0
 16 12  1  0  0  0
 30 24  1  0  0  0
 18 10  1  0  0  0
 37 32  1  0  0  0
  3  4  1  0  0  0
 29 31  1  0  0  0
 15 19  1  0  0  0
 17 20  1  0  0  0
 18 21  1  0  0  0
M  END
> <minimizedAffinity>
-8.88990

> <minimizedRMSD>
0.83172

$$$$
P20756


 32 36  0  0  0  0  0  0  0  0999 V2000
   -6.9165    6.0418  -14.0727 O   0  0  0  0  0  0  0  0  0  0  0  0
   -7.5621    5.0818  -14.2383 C   0  0  0  0  0  0  0  0  0  0  0  0
   -8.2844    4.1690  -13.2162 N   0  0  0  0  0  0  0  0  0  0  0  0
   -8.8333    3.4562  -13.6159 H   0  0  0  0  0  0  0  0  0  0  0  0
   -7.8523    4.6765  -15.6419 C   0  0  0  0  0  0  0  0  0  0  0  0
   -9.1449    4.2582  -15.9950 C   0  0  0  0  0  0  0  0  0  0  0  0
   -9.4948    4.0670  -17.3270 C   0  0  0  0  0  0  0  0  0  0  0  0
  -10.7564    3.7574  -17.6409 F   0  0  0  0  0  0  0  0  0  0  0  0
   -8.5926    4.2511  -18.3605 C   0  0  0  0  0  0  0  0  0  0  0  0
   -7.3134    4.6539  -17.9996 C   0  0  0  0  0  0  0  0  0  0  0  0
   -6.2237    4.9499  -18.7708 N   0  0  0  0  0  0  0  0  0  0  0  0
   -5.1000    5.2793  -17.9542 N   0  0  0  0  0  0  0  0  0  0  0  0
   -4.0017    5.5092  -18.5046 O   0  0  0  0  0  0  0  0  0  0  0  0
   -5.4835    5.2703  -16.6679 C   0  0  0  0  0  0  0  0  0  0  0  0
   -6.8887    4.8712  -16.6622 C   0  0  0  0  0  0  0  0  0  0  0  0
   -6.2152    4.9377  -19.7552 H   0  0  0  0  0  0  0  0  0  0  0  0
   -8.2835    4.1928  -11.8203 C   0  0  0  0  0  0  0  0  0  0  0  0
   -8.6466    3.0360  -11.1309 C   0  0  0  0  0  0  0  0  0  0  0  0
   -8.7052    3.0791   -9.7460 C   0  0  0  0  0  0  0  0  0  0  0  0
   -8.4289    4.2458   -9.0377 C   0  0  0  0  0  0  0  0  0  0  0  0
   -8.0907    5.4198   -9.7037 C   0  0  0  0  0  0  0  0  0  0  0  0
   -7.9970    5.3691  -11.1097 C   0  0  0  0  0  0  0  0  0  0  0  0
   -8.6454    3.9839   -7.5846 C   0  0  0  0  0  0  0  0  0  0  0  0
   -8.9365    2.5394   -7.4371 N   0  0  0  0  0  0  0  0  0  0  0  0
   -9.1106    1.9948   -8.8072 C   0  0  0  0  0  0  0  0  0  0  0  0
   -9.7906    2.4069   -6.8954 H   0  0  0  0  0  0  0  0  0  0  0  0
   -7.9152    6.7068   -9.0137 C   0  0  0  0  0  0  0  0  0  0  0  0
   -8.8942    7.6298   -9.0342 C   0  0  0  0  0  0  0  0  0  0  0  0
   -8.7830    8.9595   -8.3498 C   0  0  0  0  0  0  0  0  0  0  0  0
   -7.4478    9.2491   -7.9229 O   0  0  0  0  0  0  0  0  0  0  0  0
   -6.8473    8.1299   -7.2698 C   0  0  0  0  0  0  0  0  0  0  0  0
   -6.6422    6.9881   -8.2673 C   0  0  0  0  0  0  0  0  0  0  0  0
  1  2  2  0  0  0
  2  3  1  0  0  0
  3 17  1  0  0  0
 17 18  2  0  0  0
 18 19  1  0  0  0
 19 20  2  0  0  0
 20 21  1  0  0  0
 21 27  1  0  0  0
 27 28  2  0  0  0
 28 29  1  0  0  0
 29 30  1  0  0  0
 30 31  1  0  0  0
 31 32  1  0  0  0
 21 22  2  0  0  0
 20 23  1  0  0  0
 23 24  1  0  0  0
 24 25  1  0  0  0
  2  5  1  0  0  0
  5  6  2  0  0  0
  6  7  1  0  0  0
  7  8  1  0  0  0
  7  9  2  0  0  0
  9 10  1  0  0  0
 10 11  1  0  0  0
 11 12  1  0  0  0
 12 13  1  0  0  0
 12 14  2  0  0  0
 14 15  1  0  0  0
 22 17  1  0  0  0
 15  5  1  0  0  0
 25 19  1  0  0  0
 15 10  2  0  0  0
 32 27  1  0  0  0
  3  4  1  0  0  0
 24 26  1  0  0  0
 11 16  1  0  0  0
M  CHG 1  12   1
M  CHG 1  13  -1
M  END
> <minimizedAffinity>
-9.65812

> <minimizedRMSD>
0.22138

$$$$
P20758


 37 42  0  0  0  0  0  0  0  0999 V2000
   -7.1867    6.2623  -13.6959 O   0  0  0  0  0  0  0  0  0  0  0  0
   -7.7084    5.2420  -13.9137 C   0  0  0  0  0  0  0  0  0  0  0  0
   -8.3302    4.2135  -12.9517 N   0  0  0  0  0  0  0  0  0  0  0  0
   -8.7825    3.4581  -13.3922 H   0  0  0  0  0  0  0  0  0  0  0  0
   -7.8165    4.8083  -15.3171 C   0  0  0  0  0  0  0  0  0  0  0  0
   -9.0227    4.3541  -15.8425 C   0  0  0  0  0  0  0  0  0  0  0  0
   -9.1325    4.1532  -17.2198 C   0  0  0  0  0  0  0  0  0  0  0  0
  -10.3027    3.7281  -17.7157 F   0  0  0  0  0  0  0  0  0  0  0  0
   -8.0663    4.4127  -18.0840 C   0  0  0  0  0  0  0  0  0  0  0  0
   -6.8677    4.8392  -17.5389 C   0  0  0  0  0  0  0  0  0  0  0  0
   -6.7389    4.9997  -16.1657 C   0  0  0  0  0  0  0  0  0  0  0  0
   -5.3289    5.3344  -15.8233 C   0  0  0  0  0  0  0  0  0  0  0  0
   -4.7349    5.6578  -17.2264 C   0  0  0  0  0  0  0  0  0  0  0  0
   -3.3295    5.0554  -17.3489 C   0  0  0  0  0  0  0  0  0  0  0  0
   -2.5973    5.5262  -18.5993 C   0  0  0  0  0  0  0  0  0  0  0  0
   -2.5006    6.9850  -18.6125 N   0  0  0  0  0  0  0  0  0  0  0  0
   -3.8334    7.5733  -18.6240 C   0  0  0  0  0  0  0  0  0  0  0  0
   -4.6589    7.1765  -17.4103 C   0  0  0  0  0  0  0  0  0  0  0  0
   -5.6536    5.0412  -18.2287 N   0  0  0  0  0  0  0  0  0  0  0  0
   -1.9931    7.2822  -19.4458 H   0  0  0  0  0  0  0  0  0  0  0  0
   -5.4551    4.8229  -19.1679 H   0  0  0  0  0  0  0  0  0  0  0  0
   -8.3571    4.1775  -11.5620 C   0  0  0  0  0  0  0  0  0  0  0  0
   -8.6669    2.9863  -10.9159 C   0  0  0  0  0  0  0  0  0  0  0  0
   -8.7457    3.0016   -9.5342 C   0  0  0  0  0  0  0  0  0  0  0  0
   -8.5045    4.1622   -8.7907 C   0  0  0  0  0  0  0  0  0  0  0  0
   -8.1696    5.3561   -9.4156 C   0  0  0  0  0  0  0  0  0  0  0  0
   -8.0985    5.3402  -10.8190 C   0  0  0  0  0  0  0  0  0  0  0  0
   -8.7081    3.8334   -7.3475 C   0  0  0  0  0  0  0  0  0  0  0  0
   -9.4356    2.5408   -7.3253 N   0  0  0  0  0  0  0  0  0  0  0  0
   -9.0864    1.8807   -8.6098 C   0  0  0  0  0  0  0  0  0  0  0  0
  -10.4417    2.6967   -7.2642 H   0  0  0  0  0  0  0  0  0  0  0  0
   -7.9194    6.6251   -8.7139 C   0  0  0  0  0  0  0  0  0  0  0  0
   -8.8240    7.6217   -8.7516 C   0  0  0  0  0  0  0  0  0  0  0  0
   -8.5884    8.9645   -8.1307 C   0  0  0  0  0  0  0  0  0  0  0  0
   -7.2110    9.1768   -7.8048 O   0  0  0  0  0  0  0  0  0  0  0  0
   -6.6601    8.0638   -7.1006 C   0  0  0  0  0  0  0  0  0  0  0  0
   -6.6138    6.8246   -7.9974 C   0  0  0  0  0  0  0  0  0  0  0  0
  1  2  2  0  0  0
  2  3  1  0  0  0
  3 22  1  0  0  0
 22 23  2  0  0  0
 23 24  1  0  0  0
 24 25  2  0  0  0
 25 26  1  0  0  0
 26 32  1  0  0  0
 32 33  2  0  0  0
 33 34  1  0  0  0
 34 35  1  0  0  0
 35 36  1  0  0  0
 36 37  1  0  0  0
 26 27  2  0  0  0
 25 28  1  0  0  0
 28 29  1  0  0  0
 29 30  1  0  0  0
  2  5  1  0  0  0
  5  6  2  0  0  0
  6  7  1  0  0  0
  7  8  1  0  0  0
  7  9  2  0  0  0
  9 10  1  0  0  0
 10 11  2  0  0  0
 11 12  1  0  0  0
 12 13  1  0  0  0
 13 14  1  0  0  0
 14 15  1  0  0  0
 15 16  1  0  0  0
 16 17  1  0  0  0
 17 18  1  0  0  0
 13 19  1  0  0  0
 27 22  1  0  0  0
 11  5  1  0  0  0
 18 13  1  0  0  0
 30 24  1  0  0  0
 19 10  1  0  0  0
 37 32  1  0  0  0
  3  4  1  0  0  0
 29 31  1  0  0  0
 16 20  1  0  0  0
 19 21  1  0  0  0
M  END
> <minimizedAffinity>
-10.04442

> <minimizedRMSD>
0.43453

$$$$
P20759


 38 43  0  0  0  0  0  0  0  0999 V2000
   -8.1587    5.0140  -13.9999 C   0  0  0  0  0  0  0  0  0  0  0  0
   -7.7232    4.7911  -15.4434 C   0  0  0  0  0  0  0  0  0  0  0  0
   -8.6069    4.3891  -16.4587 C   0  0  0  0  0  0  0  0  0  0  0  0
   -8.1900    4.3459  -17.7943 C   0  0  0  0  0  0  0  0  0  0  0  0
   -9.0728    3.9655  -18.7301 F   0  0  0  0  0  0  0  0  0  0  0  0
   -6.9067    4.7508  -18.1745 C   0  0  0  0  0  0  0  0  0  0  0  0
   -6.0385    5.2085  -17.1929 C   0  0  0  0  0  0  0  0  0  0  0  0
   -6.4364    5.1772  -15.8480 C   0  0  0  0  0  0  0  0  0  0  0  0
   -5.3069    5.6880  -15.0112 C   0  0  0  0  0  0  0  0  0  0  0  0
   -4.5212    6.5056  -15.9381 N   0  0  0  0  0  0  0  0  0  0  0  0
   -4.6820    5.8960  -17.2870 C   0  0  0  0  0  0  0  0  0  0  0  0
   -3.5071    4.9360  -17.4634 C   0  0  0  0  0  0  0  0  0  0  0  0
   -3.1406    4.8191  -18.9230 C   0  0  0  0  0  0  0  0  0  0  0  0
   -2.6903    6.0611  -19.5466 N   0  0  0  0  0  0  0  0  0  0  0  0
   -3.2293    7.2494  -18.8771 C   0  0  0  0  0  0  0  0  0  0  0  0
   -4.6389    7.0252  -18.3346 C   0  0  0  0  0  0  0  0  0  0  0  0
   -3.5385    6.5007  -15.6649 H   0  0  0  0  0  0  0  0  0  0  0  0
   -2.9939    6.0677  -20.5204 H   0  0  0  0  0  0  0  0  0  0  0  0
   -9.6425    6.7260  -13.7007 O   0  0  0  0  0  0  0  0  0  0  0  0
   -9.5669    5.5452  -14.0675 N   0  0  0  0  0  0  0  0  0  0  0  0
   -8.0787    3.7949  -13.1951 N   0  0  0  0  0  0  0  0  0  0  0  0
   -8.0051    2.9147  -13.6301 H   0  0  0  0  0  0  0  0  0  0  0  0
   -8.1081    3.8957  -11.7885 C   0  0  0  0  0  0  0  0  0  0  0  0
   -8.5726    2.8101  -11.0406 C   0  0  0  0  0  0  0  0  0  0  0  0
   -8.7503    2.9516   -9.6706 C   0  0  0  0  0  0  0  0  0  0  0  0
   -8.5045    4.1564   -9.0096 C   0  0  0  0  0  0  0  0  0  0  0  0
   -8.0513    5.2592   -9.7072 C   0  0  0  0  0  0  0  0  0  0  0  0
   -7.8562    5.0960  -11.0928 C   0  0  0  0  0  0  0  0  0  0  0  0
   -8.8704    3.9842   -7.5726 C   0  0  0  0  0  0  0  0  0  0  0  0
   -9.6649    2.7351   -7.5062 N   0  0  0  0  0  0  0  0  0  0  0  0
   -9.2328    1.9407   -8.6843 C   0  0  0  0  0  0  0  0  0  0  0  0
  -10.6624    2.9416   -7.5595 H   0  0  0  0  0  0  0  0  0  0  0  0
   -7.8110    6.5909   -9.1244 C   0  0  0  0  0  0  0  0  0  0  0  0
   -8.8168    7.4794   -9.0049 C   0  0  0  0  0  0  0  0  0  0  0  0
   -8.6178    8.8826   -8.5201 C   0  0  0  0  0  0  0  0  0  0  0  0
   -7.2386    9.2642   -8.5296 O   0  0  0  0  0  0  0  0  0  0  0  0
   -6.4180    8.2757   -7.9062 C   0  0  0  0  0  0  0  0  0  0  0  0
   -6.4170    6.9797   -8.7213 C   0  0  0  0  0  0  0  0  0  0  0  0
 19 20  2  0  0  0
 20  1  1  0  0  0
  1 21  1  0  0  0
 21 23  1  0  0  0
 23 24  2  0  0  0
 24 25  1  0  0  0
 25 26  2  0  0  0
 26 27  1  0  0  0
 27 33  1  0  0  0
 33 34  2  0  0  0
 34 35  1  0  0  0
 35 36  1  0  0  0
 36 37  1  0  0  0
 37 38  1  0  0  0
 27 28  2  0  0  0
 26 29  1  0  0  0
 29 30  1  0  0  0
 30 31  1  0  0  0
  1  2  1  0  0  0
  2  3  2  0  0  0
  3  4  1  0  0  0
  4  5  1  0  0  0
  4  6  2  0  0  0
  6  7  1  0  0  0
  7  8  2  0  0  0
  8  9  1  0  0  0
  9 10  1  0  0  0
 10 11  1  0  0  0
 11 12  1  0  0  0
 12 13  1  0  0  0
 13 14  1  0  0  0
 14 15  1  0  0  0
 15 16  1  0  0  0
 28 23  1  0  0  0
  8  2  1  0  0  0
 16 11  1  0  0  0
 31 25  1  0  0  0
 11  7  1  0  0  0
 38 33  1  0  0  0
 21 22  1  0  0  0
 30 32  1  0  0  0
 10 17  1  0  0  0
 14 18  1  0  0  0
M  END
> <minimizedAffinity>
-10.10402

> <minimizedRMSD>
0.97608

$$$$
P20760


 35 40  0  0  0  0  0  0  0  0999 V2000
   -5.7478    6.2454  -13.0873 O   0  0  0  0  0  0  0  0  0  0  0  0
   -6.5688    5.5465  -13.5435 C   0  0  0  0  0  0  0  0  0  0  0  0
   -7.6165    4.6414  -12.8481 N   0  0  0  0  0  0  0  0  0  0  0  0
   -8.1520    4.0859  -13.4595 H   0  0  0  0  0  0  0  0  0  0  0  0
   -6.7447    5.5686  -15.0700 C   0  0  0  0  0  0  0  0  0  0  0  0
   -7.4994    4.5229  -15.8606 C   0  0  0  0  0  0  0  0  0  0  0  0
   -7.7052    4.9020  -17.3324 C   0  0  0  0  0  0  0  0  0  0  0  0
   -8.2425    3.8789  -18.0355 F   0  0  0  0  0  0  0  0  0  0  0  0
   -6.5139    5.5772  -18.0534 C   0  0  0  0  0  0  0  0  0  0  0  0
   -5.7255    4.9157  -19.0707 N   0  0  0  0  0  0  0  0  0  0  0  0
   -4.3740    5.2633  -18.9583 C   0  0  0  0  0  0  0  0  0  0  0  0
   -3.5120    5.1157  -19.8146 O   0  0  0  0  0  0  0  0  0  0  0  0
   -4.1814    5.8576  -17.6982 N   0  0  0  0  0  0  0  0  0  0  0  0
   -3.3950    5.1614  -16.7398 N   0  0  0  0  0  0  0  0  0  0  0  0
   -4.2590    4.9401  -15.5686 C   0  0  0  0  0  0  0  0  0  0  0  0
   -5.3935    5.9417  -15.6982 C   0  0  0  0  0  0  0  0  0  0  0  0
   -5.4659    6.2326  -17.1722 C   0  0  0  0  0  0  0  0  0  0  0  0
   -6.0903    4.3037  -19.7502 H   0  0  0  0  0  0  0  0  0  0  0  0
   -2.5831    5.7204  -16.4777 H   0  0  0  0  0  0  0  0  0  0  0  0
   -7.9237    4.4858  -11.4994 C   0  0  0  0  0  0  0  0  0  0  0  0
   -8.3345    3.2616  -10.9863 C   0  0  0  0  0  0  0  0  0  0  0  0
   -8.6287    3.1940   -9.6287 C   0  0  0  0  0  0  0  0  0  0  0  0
   -8.5393    4.3096   -8.7913 C   0  0  0  0  0  0  0  0  0  0  0  0
   -8.1632    5.5460   -9.2932 C   0  0  0  0  0  0  0  0  0  0  0  0
   -7.8369    5.6053  -10.6563 C   0  0  0  0  0  0  0  0  0  0  0  0
   -8.9164    3.9043   -7.4066 C   0  0  0  0  0  0  0  0  0  0  0  0
   -9.4029    2.5098   -7.4815 N   0  0  0  0  0  0  0  0  0  0  0  0
   -9.0574    2.0056   -8.8348 C   0  0  0  0  0  0  0  0  0  0  0  0
  -10.4133    2.4828   -7.3443 H   0  0  0  0  0  0  0  0  0  0  0  0
   -8.1039    6.7949   -8.5190 C   0  0  0  0  0  0  0  0  0  0  0  0
   -8.9675    7.7956   -8.7774 C   0  0  0  0  0  0  0  0  0  0  0  0
   -8.8868    9.1361   -8.1140 C   0  0  0  0  0  0  0  0  0  0  0  0
   -7.6313    9.3376   -7.4569 O   0  0  0  0  0  0  0  0  0  0  0  0
   -7.2838    8.2217   -6.6368 C   0  0  0  0  0  0  0  0  0  0  0  0
   -7.0220    6.9816   -7.4947 C   0  0  0  0  0  0  0  0  0  0  0  0
  1  2  2  0  0  0
  2  3  1  0  0  0
  3 20  1  0  0  0
 20 21  2  0  0  0
 21 22  1  0  0  0
 22 23  2  0  0  0
 23 24  1  0  0  0
 24 30  1  0  0  0
 30 31  2  0  0  0
 31 32  1  0  0  0
 32 33  1  0  0  0
 33 34  1  0  0  0
 34 35  1  0  0  0
 24 25  2  0  0  0
 23 26  1  0  0  0
 26 27  1  0  0  0
 27 28  1  0  0  0
  5  2  1  0  0  0
  5  6  1  0  0  0
  6  7  1  0  0  0
  7  8  1  0  0  0
  7  9  1  0  0  0
  9 10  1  0  0  0
 10 11  1  0  0  0
 11 12  2  0  0  0
 11 13  1  0  0  0
 13 14  1  0  0  0
 14 15  1  0  0  0
 16 15  1  0  0  0
 16 17  1  0  0  0
 25 20  1  0  0  0
 16  5  1  0  0  0
 28 22  1  0  0  0
 17  9  1  0  0  0
 35 30  1  0  0  0
 17 13  1  0  0  0
  3  4  1  0  0  0
 27 29  1  0  0  0
 10 18  1  0  0  0
 14 19  1  0  0  0
M  END
> <minimizedAffinity>
-7.83108

> <minimizedRMSD>
0.73887

$$$$
P20761


 33 37  0  0  0  0  0  0  0  0999 V2000
   -7.5420    4.8969  -10.7245 C   0  0  0  0  0  0  0  0  0  0  0  0
   -8.1286    3.9014  -11.5306 C   0  0  0  0  0  0  0  0  0  0  0  0
   -8.7536    2.8279  -10.9022 C   0  0  0  0  0  0  0  0  0  0  0  0
   -8.8716    2.8482   -9.5196 C   0  0  0  0  0  0  0  0  0  0  0  0
   -8.5327    3.9731   -8.7702 C   0  0  0  0  0  0  0  0  0  0  0  0
   -7.9064    5.0540   -9.3693 C   0  0  0  0  0  0  0  0  0  0  0  0
   -8.8927    3.7191   -7.3414 C   0  0  0  0  0  0  0  0  0  0  0  0
   -9.6874    2.4683   -7.3355 N   0  0  0  0  0  0  0  0  0  0  0  0
   -9.3256    1.7716   -8.5926 C   0  0  0  0  0  0  0  0  0  0  0  0
  -10.6853    2.6787   -7.3177 H   0  0  0  0  0  0  0  0  0  0  0  0
   -7.7356    6.3383   -8.6700 C   0  0  0  0  0  0  0  0  0  0  0  0
   -8.6235    7.3259   -8.8959 C   0  0  0  0  0  0  0  0  0  0  0  0
   -8.5755    8.6490   -8.1886 C   0  0  0  0  0  0  0  0  0  0  0  0
   -7.3403    8.8506   -7.4962 O   0  0  0  0  0  0  0  0  0  0  0  0
   -6.9665    7.7029   -6.7320 C   0  0  0  0  0  0  0  0  0  0  0  0
   -6.6453    6.5242   -7.6568 C   0  0  0  0  0  0  0  0  0  0  0  0
   -8.1085    3.9554  -12.9367 N   0  0  0  0  0  0  0  0  0  0  0  0
   -8.4069    5.1333  -13.9057 C   0  0  0  0  0  0  0  0  0  0  0  0
   -8.6395    6.2573  -13.6828 O   0  0  0  0  0  0  0  0  0  0  0  0
   -7.8659    3.1096  -13.3783 H   0  0  0  0  0  0  0  0  0  0  0  0
   -8.3507    4.7324  -15.3329 C   0  0  0  0  0  0  0  0  0  0  0  0
   -9.5065    4.3205  -16.0066 C   0  0  0  0  0  0  0  0  0  0  0  0
   -9.4784    4.1002  -17.3800 C   0  0  0  0  0  0  0  0  0  0  0  0
  -10.6075    3.7769  -18.0182 F   0  0  0  0  0  0  0  0  0  0  0  0
   -8.3233    4.2585  -18.1335 C   0  0  0  0  0  0  0  0  0  0  0  0
   -7.1871    4.6864  -17.4490 C   0  0  0  0  0  0  0  0  0  0  0  0
   -5.9345    4.9950  -17.9027 N   0  0  0  0  0  0  0  0  0  0  0  0
   -5.0814    5.3766  -16.9324 N   0  0  0  0  0  0  0  0  0  0  0  0
   -5.8348    5.3373  -15.8252 C   0  0  0  0  0  0  0  0  0  0  0  0
   -7.1648    4.9221  -16.0770 C   0  0  0  0  0  0  0  0  0  0  0  0
   -5.6793    4.9430  -18.8521 H   0  0  0  0  0  0  0  0  0  0  0  0
   -5.1324    5.5275  -11.4292 N   0  0  0  0  0  0  0  0  0  0  0  0
   -6.2404    5.3533  -11.1284 C   0  0  0  0  0  0  0  0  0  0  0  0
 32 33  3  0  0  0
 33  1  1  0  0  0
  1  2  2  0  0  0
  2 17  1  0  0  0
 17 18  1  0  0  0
 18 19  2  0  0  0
 18 21  1  0  0  0
 21 22  2  0  0  0
 22 23  1  0  0  0
 23 24  1  0  0  0
 23 25  2  0  0  0
 25 26  1  0  0  0
 26 27  1  0  0  0
 27 28  1  0  0  0
 28 29  2  0  0  0
 29 30  1  0  0  0
  2  3  1  0  0  0
  3  4  2  0  0  0
  4  5  1  0  0  0
  5  6  2  0  0  0
  6 11  1  0  0  0
 11 12  2  0  0  0
 12 13  1  0  0  0
 13 14  1  0  0  0
 14 15  1  0  0  0
 15 16  1  0  0  0
  5  7  1  0  0  0
  7  8  1  0  0  0
  8  9  1  0  0  0
  6  1  1  0  0  0
 16 11  1  0  0  0
 30 21  1  0  0  0
  9  4  1  0  0  0
 30 26  2  0  0  0
 17 20  1  0  0  0
 27 31  1  0  0  0
  8 10  1  0  0  0
M  END
> <minimizedAffinity>
-8.65228

> <minimizedRMSD>
0.44152

$$$$
P20765


 34 39  0  0  0  0  0  0  0  0999 V2000
   -8.1909    3.7318  -13.2779 N   0  0  0  0  0  0  0  0  0  0  0  0
   -8.0819    2.8525  -13.7071 H   0  0  0  0  0  0  0  0  0  0  0  0
   -2.2832    5.6388  -15.2346 O   0  0  0  0  0  0  0  0  0  0  0  0
   -3.3939    4.8887  -15.1993 N   0  0  0  0  0  0  0  0  0  0  0  0
   -3.5123    4.4197  -13.8030 N   0  0  0  0  0  0  0  0  0  0  0  0
   -4.9473    4.3202  -13.5280 C   0  0  0  0  0  0  0  0  0  0  0  0
   -5.5738    5.4065  -14.3546 C   0  0  0  0  0  0  0  0  0  0  0  0
   -6.9943    5.2793  -14.8314 C   0  0  0  0  0  0  0  0  0  0  0  0
   -8.2434    4.9854  -14.0028 C   0  0  0  0  0  0  0  0  0  0  0  0
   -9.2774    4.9750  -15.0655 N   0  0  0  0  0  0  0  0  0  0  0  0
   -8.6338    4.6450  -16.1426 C   0  0  0  0  0  0  0  0  0  0  0  0
   -7.1827    4.4277  -16.0436 C   0  0  0  0  0  0  0  0  0  0  0  0
   -6.4310    4.8398  -17.2800 C   0  0  0  0  0  0  0  0  0  0  0  0
   -7.1490    5.7614  -17.9841 F   0  0  0  0  0  0  0  0  0  0  0  0
   -5.0544    5.4128  -16.9907 C   0  0  0  0  0  0  0  0  0  0  0  0
   -4.6265    5.6652  -15.5344 C   0  0  0  0  0  0  0  0  0  0  0  0
   -3.3186    4.1370  -15.8847 H   0  0  0  0  0  0  0  0  0  0  0  0
   -3.0755    5.0871  -13.1672 H   0  0  0  0  0  0  0  0  0  0  0  0
   -8.3156    3.9209  -11.8698 C   0  0  0  0  0  0  0  0  0  0  0  0
   -8.6329    2.8330  -11.0451 C   0  0  0  0  0  0  0  0  0  0  0  0
   -8.7194    3.0279   -9.6750 C   0  0  0  0  0  0  0  0  0  0  0  0
   -8.4706    4.2698   -9.0950 C   0  0  0  0  0  0  0  0  0  0  0  0
   -8.1619    5.3710   -9.8810 C   0  0  0  0  0  0  0  0  0  0  0  0
   -8.0886    5.1789  -11.2753 C   0  0  0  0  0  0  0  0  0  0  0  0
   -8.5711    4.1166   -7.6117 C   0  0  0  0  0  0  0  0  0  0  0  0
   -9.2735    2.8309   -7.3808 N   0  0  0  0  0  0  0  0  0  0  0  0
   -9.0362    2.0316   -8.6080 C   0  0  0  0  0  0  0  0  0  0  0  0
  -10.2719    2.9885   -7.2440 H   0  0  0  0  0  0  0  0  0  0  0  0
   -7.9107    6.7052   -9.3256 C   0  0  0  0  0  0  0  0  0  0  0  0
   -8.9218    7.5723   -9.1408 C   0  0  0  0  0  0  0  0  0  0  0  0
   -8.7091    8.9652   -8.6303 C   0  0  0  0  0  0  0  0  0  0  0  0
   -7.3358    9.3623   -8.7070 O   0  0  0  0  0  0  0  0  0  0  0  0
   -6.4716    8.3732   -8.1451 C   0  0  0  0  0  0  0  0  0  0  0  0
   -6.4991    7.0989   -8.9905 C   0  0  0  0  0  0  0  0  0  0  0  0
  4  3  1  0  0  0
  4  5  1  0  0  0
  5  6  1  0  0  0
  7  6  1  0  0  0
  7  8  1  0  0  0
  8  9  1  0  0  0
  9  1  1  0  0  0
  1 19  1  0  0  0
 19 20  2  0  0  0
 20 21  1  0  0  0
 21 22  2  0  0  0
 22 23  1  0  0  0
 23 29  1  0  0  0
 29 30  2  0  0  0
 30 31  1  0  0  0
 31 32  1  0  0  0
 32 33  1  0  0  0
 33 34  1  0  0  0
 23 24  2  0  0  0
 22 25  1  0  0  0
 25 26  1  0  0  0
 26 27  1  0  0  0
  9 10  1  0  0  0
 10 11  2  0  0  0
 12 11  1  0  0  0
 12 13  1  0  0  0
 13 14  1  0  0  0
 13 15  1  0  0  0
 16 15  1  0  0  0
 16  4  1  0  0  0
 16  7  1  0  0  0
 12  8  1  0  0  0
 24 19  1  0  0  0
 27 21  1  0  0  0
 34 29  1  0  0  0
  4 17  1  0  0  0
  5 18  1  0  0  0
  1  2  1  0  0  0
 26 28  1  0  0  0
M  CHG 1   3  -1
M  CHG 1   4   1
M  END
> <minimizedAffinity>
-8.42762

> <minimizedRMSD>
1.78447

$$$$
P20767


 33 37  0  0  0  0  0  0  0  0999 V2000
   -8.6875    4.5909   -6.4815 O   0  0  0  0  0  0  0  0  0  0  0  0
   -8.7936    3.8311   -7.4263 C   0  0  0  0  0  0  0  0  0  0  0  0
   -9.1897    2.5132   -7.3556 N   0  0  0  0  0  0  0  0  0  0  0  0
   -9.1477    1.8461   -8.6335 C   0  0  0  0  0  0  0  0  0  0  0  0
   -8.7943    2.9548   -9.5680 C   0  0  0  0  0  0  0  0  0  0  0  0
   -8.6921    2.9211  -10.9525 C   0  0  0  0  0  0  0  0  0  0  0  0
   -8.3135    4.0885  -11.6174 C   0  0  0  0  0  0  0  0  0  0  0  0
   -8.0376    5.2574  -10.8874 C   0  0  0  0  0  0  0  0  0  0  0  0
   -8.1536    5.3055   -9.4852 C   0  0  0  0  0  0  0  0  0  0  0  0
   -8.5392    4.1308   -8.8515 C   0  0  0  0  0  0  0  0  0  0  0  0
   -9.4716    2.0735   -6.5211 H   0  0  0  0  0  0  0  0  0  0  0  0
   -7.8684    6.5766   -8.8053 C   0  0  0  0  0  0  0  0  0  0  0  0
   -8.7910    7.5547   -8.7460 C   0  0  0  0  0  0  0  0  0  0  0  0
   -8.5386    8.8734   -8.0779 C   0  0  0  0  0  0  0  0  0  0  0  0
   -7.1530    9.0898   -7.7908 O   0  0  0  0  0  0  0  0  0  0  0  0
   -6.5584    7.9390   -7.1829 C   0  0  0  0  0  0  0  0  0  0  0  0
   -6.5148    6.7849   -8.1840 C   0  0  0  0  0  0  0  0  0  0  0  0
   -8.1986    4.0798  -13.0076 N   0  0  0  0  0  0  0  0  0  0  0  0
   -7.6508    5.1520  -13.9763 C   0  0  0  0  0  0  0  0  0  0  0  0
   -7.1391    6.1788  -13.7581 O   0  0  0  0  0  0  0  0  0  0  0  0
   -8.5186    3.2565  -13.4424 H   0  0  0  0  0  0  0  0  0  0  0  0
   -7.8127    4.7592  -15.3925 C   0  0  0  0  0  0  0  0  0  0  0  0
   -9.0565    4.3270  -15.8720 C   0  0  0  0  0  0  0  0  0  0  0  0
   -9.2475    4.1397  -17.2369 C   0  0  0  0  0  0  0  0  0  0  0  0
  -10.4525    3.7549  -17.6803 F   0  0  0  0  0  0  0  0  0  0  0  0
   -8.2350    4.3742  -18.1660 C   0  0  0  0  0  0  0  0  0  0  0  0
   -6.9927    4.7645  -17.6661 C   0  0  0  0  0  0  0  0  0  0  0  0
   -5.7959    5.0287  -18.2846 N   0  0  0  0  0  0  0  0  0  0  0  0
   -4.7739    5.3294  -17.3178 N   0  0  0  0  0  0  0  0  0  0  0  0
   -3.5946    5.5140  -17.6972 O   0  0  0  0  0  0  0  0  0  0  0  0
   -5.3307    5.3248  -16.0977 C   0  0  0  0  0  0  0  0  0  0  0  0
   -6.7316    4.9566  -16.2852 C   0  0  0  0  0  0  0  0  0  0  0  0
   -5.6558    5.0142  -19.2590 H   0  0  0  0  0  0  0  0  0  0  0  0
  1  2  2  0  0  0
  2  3  1  0  0  0
  3  4  1  0  0  0
  4  5  1  0  0  0
  5  6  2  0  0  0
  6  7  1  0  0  0
  7 18  1  0  0  0
 18 19  1  0  0  0
 19 20  2  0  0  0
 19 22  1  0  0  0
 22 23  2  0  0  0
 23 24  1  0  0  0
 24 25  1  0  0  0
 24 26  2  0  0  0
 26 27  1  0  0  0
 27 28  1  0  0  0
 28 29  1  0  0  0
 29 30  1  0  0  0
 29 31  2  0  0  0
 31 32  1  0  0  0
  7  8  2  0  0  0
  8  9  1  0  0  0
  9 12  1  0  0  0
 12 13  2  0  0  0
 13 14  1  0  0  0
 14 15  1  0  0  0
 15 16  1  0  0  0
 16 17  1  0  0  0
  9 10  2  0  0  0
 10  2  1  0  0  0
 10  5  1  0  0  0
 32 22  1  0  0  0
 17 12  1  0  0  0
 32 27  2  0  0  0
  3 11  1  0  0  0
 18 21  1  0  0  0
 28 33  1  0  0  0
M  CHG 1  29   1
M  CHG 1  30  -1
M  END
> <minimizedAffinity>
-9.56588

> <minimizedRMSD>
0.35325

$$$$
P20768


 34 38  0  0  0  0  0  0  0  0999 V2000
   -8.7913    5.0108  -14.0702 C   0  0  0  0  0  0  0  0  0  0  0  0
   -9.5240    5.9047  -13.9272 O   0  0  0  0  0  0  0  0  0  0  0  0
   -8.1794    4.0494  -13.0393 N   0  0  0  0  0  0  0  0  0  0  0  0
   -7.6421    3.3198  -13.4244 H   0  0  0  0  0  0  0  0  0  0  0  0
   -4.8198    5.4404  -15.5751 N   0  0  0  0  0  0  0  0  0  0  0  0
   -5.9842    5.4897  -14.8697 C   0  0  0  0  0  0  0  0  0  0  0  0
   -6.9333    5.0429  -15.7362 C   0  0  0  0  0  0  0  0  0  0  0  0
   -8.2546    4.7694  -15.4109 C   0  0  0  0  0  0  0  0  0  0  0  0
   -8.9942    4.3545  -16.5202 C   0  0  0  0  0  0  0  0  0  0  0  0
   -8.4390    4.3013  -17.8297 C   0  0  0  0  0  0  0  0  0  0  0  0
   -9.2690    3.9356  -18.8168 F   0  0  0  0  0  0  0  0  0  0  0  0
   -7.0967    4.6087  -18.1524 C   0  0  0  0  0  0  0  0  0  0  0  0
   -6.3186    4.9523  -17.0328 C   0  0  0  0  0  0  0  0  0  0  0  0
   -5.0037    5.2348  -16.9077 N   0  0  0  0  0  0  0  0  0  0  0  0
   -3.4709    5.5548  -15.0086 C   0  0  0  0  0  0  0  0  0  0  0  0
   -2.9996    3.7160  -13.4615 C   0  0  0  0  0  0  0  0  0  0  0  0
   -3.4263    5.1026  -13.6042 N   0  0  0  0  0  0  0  0  0  0  0  0
   -2.7740    5.6969  -13.0927 H   0  0  0  0  0  0  0  0  0  0  0  0
   -8.2609    4.0419  -11.6522 C   0  0  0  0  0  0  0  0  0  0  0  0
   -8.6037    2.8739  -10.9864 C   0  0  0  0  0  0  0  0  0  0  0  0
   -8.7517    2.9351   -9.6102 C   0  0  0  0  0  0  0  0  0  0  0  0
   -8.5063    4.1061   -8.8872 C   0  0  0  0  0  0  0  0  0  0  0  0
   -8.1211    5.2766   -9.5303 C   0  0  0  0  0  0  0  0  0  0  0  0
   -8.0105    5.2210  -10.9306 C   0  0  0  0  0  0  0  0  0  0  0  0
   -8.7670    3.8286   -7.4440 C   0  0  0  0  0  0  0  0  0  0  0  0
   -9.4080    2.4968   -7.3712 N   0  0  0  0  0  0  0  0  0  0  0  0
   -9.1914    1.8497   -8.6885 C   0  0  0  0  0  0  0  0  0  0  0  0
  -10.4064    2.5963   -7.1878 H   0  0  0  0  0  0  0  0  0  0  0  0
   -7.8566    6.5598   -8.8546 C   0  0  0  0  0  0  0  0  0  0  0  0
   -8.7833    7.5372   -8.8486 C   0  0  0  0  0  0  0  0  0  0  0  0
   -8.5496    8.8894   -8.2474 C   0  0  0  0  0  0  0  0  0  0  0  0
   -7.1633    9.1355   -7.9881 O   0  0  0  0  0  0  0  0  0  0  0  0
   -6.5555    8.0373   -7.3093 C   0  0  0  0  0  0  0  0  0  0  0  0
   -6.5200    6.8010   -8.2109 C   0  0  0  0  0  0  0  0  0  0  0  0
 16 17  1  0  0  0
 17 15  1  0  0  0
 15  5  1  0  0  0
  5  6  1  0  0  0
  6  7  2  0  0  0
  7  8  1  0  0  0
  8  1  1  0  0  0
  1  2  2  0  0  0
  1  3  1  0  0  0
  3 19  1  0  0  0
 19 20  2  0  0  0
 20 21  1  0  0  0
 21 22  2  0  0  0
 22 23  1  0  0  0
 23 29  1  0  0  0
 29 30  2  0  0  0
 30 31  1  0  0  0
 31 32  1  0  0  0
 32 33  1  0  0  0
 33 34  1  0  0  0
 23 24  2  0  0  0
 22 25  1  0  0  0
 25 26  1  0  0  0
 26 27  1  0  0  0
  8  9  2  0  0  0
  9 10  1  0  0  0
 10 11  1  0  0  0
 10 12  2  0  0  0
 12 13  1  0  0  0
 13 14  2  0  0  0
 14  5  1  0  0  0
 13  7  1  0  0  0
 24 19  1  0  0  0
 27 21  1  0  0  0
 34 29  1  0  0  0
 17 18  1  0  0  0
  3  4  1  0  0  0
 26 28  1  0  0  0
M  END
> <minimizedAffinity>
-9.09777

> <minimizedRMSD>
0.59073

$$$$
P20769


 40 44  0  0  0  0  0  0  0  0999 V2000
   -7.2351    4.5666  -13.4015 C   0  0  0  0  0  0  0  0  0  0  0  0
   -7.8949    3.3557  -13.0826 O   0  0  0  0  0  0  0  0  0  0  0  0
   -7.8245    3.1904  -12.1294 H   0  0  0  0  0  0  0  0  0  0  0  0
   -7.4018    4.7387  -14.9241 C   0  0  0  0  0  0  0  0  0  0  0  0
   -8.6901    4.4770  -15.4852 C   0  0  0  0  0  0  0  0  0  0  0  0
   -8.9243    4.3727  -16.8504 C   0  0  0  0  0  0  0  0  0  0  0  0
  -10.1546    4.0817  -17.2951 F   0  0  0  0  0  0  0  0  0  0  0  0
   -7.9035    4.5470  -17.7616 C   0  0  0  0  0  0  0  0  0  0  0  0
   -6.6658    4.9253  -17.2463 C   0  0  0  0  0  0  0  0  0  0  0  0
   -5.5066    5.2350  -17.9044 N   0  0  0  0  0  0  0  0  0  0  0  0
   -4.5163    5.6390  -17.0961 N   0  0  0  0  0  0  0  0  0  0  0  0
   -5.0347    5.4721  -15.8738 C   0  0  0  0  0  0  0  0  0  0  0  0
   -6.3898    5.0438  -15.8802 C   0  0  0  0  0  0  0  0  0  0  0  0
   -5.4088    5.1672  -18.8817 H   0  0  0  0  0  0  0  0  0  0  0  0
   -5.0602    5.4870  -12.7178 O   0  0  0  0  0  0  0  0  0  0  0  0
   -5.7114    4.5266  -12.8901 C   0  0  0  0  0  0  0  0  0  0  0  0
   -5.3923    3.0189  -12.6018 N   0  0  0  0  0  0  0  0  0  0  0  0
   -6.0808    2.3855  -12.9084 H   0  0  0  0  0  0  0  0  0  0  0  0
   -4.2623    2.4144  -11.9651 C   0  0  0  0  0  0  0  0  0  0  0  0
   -3.0913    2.1499  -12.8919 C   0  0  0  0  0  0  0  0  0  0  0  0
   -2.1589    3.3420  -13.0069 C   0  0  0  0  0  0  0  0  0  0  0  0
   -2.5317    4.1196  -14.0487 F   0  0  0  0  0  0  0  0  0  0  0  0
   -8.0620    5.5270  -12.6562 N   0  0  0  0  0  0  0  0  0  0  0  0
   -8.5120    6.2919  -13.0824 H   0  0  0  0  0  0  0  0  0  0  0  0
   -8.1536    5.2503  -11.2589 C   0  0  0  0  0  0  0  0  0  0  0  0
   -8.5631    4.0013  -10.7566 C   0  0  0  0  0  0  0  0  0  0  0  0
   -8.5964    3.7923   -9.3900 C   0  0  0  0  0  0  0  0  0  0  0  0
   -8.2776    4.8104   -8.5011 C   0  0  0  0  0  0  0  0  0  0  0  0
   -7.9209    6.0705   -8.9683 C   0  0  0  0  0  0  0  0  0  0  0  0
   -7.8119    6.2602  -10.3572 C   0  0  0  0  0  0  0  0  0  0  0  0
   -8.5352    4.3233   -7.1149 C   0  0  0  0  0  0  0  0  0  0  0  0
   -8.8400    2.8785   -7.2173 N   0  0  0  0  0  0  0  0  0  0  0  0
   -9.0846    2.5931   -8.6501 C   0  0  0  0  0  0  0  0  0  0  0  0
   -9.6699    2.6550   -6.6681 H   0  0  0  0  0  0  0  0  0  0  0  0
   -7.7758    7.2403   -8.1021 C   0  0  0  0  0  0  0  0  0  0  0  0
   -8.5562    8.3173   -8.3097 C   0  0  0  0  0  0  0  0  0  0  0  0
   -8.4281    9.5769   -7.5112 C   0  0  0  0  0  0  0  0  0  0  0  0
   -7.2504    9.5938   -6.6967 O   0  0  0  0  0  0  0  0  0  0  0  0
   -7.0679    8.3580   -6.0040 C   0  0  0  0  0  0  0  0  0  0  0  0
   -6.7596    7.2412   -7.0008 C   0  0  0  0  0  0  0  0  0  0  0  0
 15 16  2  0  0  0
 16 17  1  0  0  0
 17 19  1  0  0  0
 19 20  1  0  0  0
 20 21  1  0  0  0
 21 22  1  0  0  0
 16  1  1  0  0  0
  1  2  1  0  0  0
  1 23  1  0  0  0
 23 25  1  0  0  0
 25 26  2  0  0  0
 26 27  1  0  0  0
 27 28  2  0  0  0
 28 29  1  0  0  0
 29 35  1  0  0  0
 35 36  2  0  0  0
 36 37  1  0  0  0
 37 38  1  0  0  0
 38 39  1  0  0  0
 39 40  1  0  0  0
 29 30  2  0  0  0
 28 31  1  0  0  0
 31 32  1  0  0  0
 32 33  1  0  0  0
  1  4  1  0  0  0
  4  5  2  0  0  0
  5  6  1  0  0  0
  6  7  1  0  0  0
  6  8  2  0  0  0
  8  9  1  0  0  0
  9 10  1  0  0  0
 10 11  1  0  0  0
 11 12  2  0  0  0
 12 13  1  0  0  0
 30 25  1  0  0  0
 13  4  1  0  0  0
 33 27  1  0  0  0
 13  9  2  0  0  0
 40 35  1  0  0  0
 17 18  1  0  0  0
  2  3  1  0  0  0
 23 24  1  0  0  0
 32 34  1  0  0  0
 10 14  1  0  0  0
M  END
> <minimizedAffinity>
-8.07386

> <minimizedRMSD>
0.59746

$$$$
P20770


 37 42  0  0  0  0  0  0  0  0999 V2000
   -7.4319    5.0888  -14.0937 C   0  0  0  0  0  0  0  0  0  0  0  0
   -6.8433    6.1134  -13.8938 O   0  0  0  0  0  0  0  0  0  0  0  0
   -8.0174    4.1485  -13.1793 N   0  0  0  0  0  0  0  0  0  0  0  0
   -8.3811    3.3383  -13.6042 H   0  0  0  0  0  0  0  0  0  0  0  0
   -0.8694    6.8655  -17.1208 C   0  0  0  0  0  0  0  0  0  0  0  0
   -2.2594    6.4413  -17.2600 N   0  0  0  0  0  0  0  0  0  0  0  0
   -3.1477    7.5928  -17.4645 C   0  0  0  0  0  0  0  0  0  0  0  0
   -4.4400    7.2346  -18.2049 C   0  0  0  0  0  0  0  0  0  0  0  0
   -4.9196    5.8129  -17.8698 C   0  0  0  0  0  0  0  0  0  0  0  0
   -3.8045    4.7869  -18.1874 C   0  0  0  0  0  0  0  0  0  0  0  0
   -2.4203    5.4367  -18.3067 C   0  0  0  0  0  0  0  0  0  0  0  0
   -5.3981    5.7290  -16.3770 C   0  0  0  0  0  0  0  0  0  0  0  0
   -6.7443    5.0875  -16.5075 C   0  0  0  0  0  0  0  0  0  0  0  0
   -7.0457    4.9270  -17.8573 C   0  0  0  0  0  0  0  0  0  0  0  0
   -8.2516    4.3846  -18.2575 C   0  0  0  0  0  0  0  0  0  0  0  0
   -9.1635    4.0114  -17.2786 C   0  0  0  0  0  0  0  0  0  0  0  0
  -10.3428    3.4979  -17.6482 F   0  0  0  0  0  0  0  0  0  0  0  0
   -8.8944    4.1958  -15.9213 C   0  0  0  0  0  0  0  0  0  0  0  0
   -7.6645    4.7358  -15.5225 C   0  0  0  0  0  0  0  0  0  0  0  0
   -6.1097    5.5372  -18.7075 N   0  0  0  0  0  0  0  0  0  0  0  0
   -6.2215    5.7402  -19.6644 H   0  0  0  0  0  0  0  0  0  0  0  0
   -8.1587    4.1873  -11.7919 C   0  0  0  0  0  0  0  0  0  0  0  0
   -8.5346    3.0200  -11.1256 C   0  0  0  0  0  0  0  0  0  0  0  0
   -8.6969    3.0687   -9.7490 C   0  0  0  0  0  0  0  0  0  0  0  0
   -8.4848    4.2414   -9.0269 C   0  0  0  0  0  0  0  0  0  0  0  0
   -8.1308    5.4194   -9.6715 C   0  0  0  0  0  0  0  0  0  0  0  0
   -7.9646    5.3741  -11.0676 C   0  0  0  0  0  0  0  0  0  0  0  0
   -8.7606    3.9752   -7.5859 C   0  0  0  0  0  0  0  0  0  0  0  0
   -8.9958    2.5178   -7.4520 N   0  0  0  0  0  0  0  0  0  0  0  0
   -9.1521    1.9852   -8.8316 C   0  0  0  0  0  0  0  0  0  0  0  0
   -9.8427    2.3461   -6.9102 H   0  0  0  0  0  0  0  0  0  0  0  0
   -7.9674    6.7014   -8.9763 C   0  0  0  0  0  0  0  0  0  0  0  0
   -8.9409    7.6289   -9.0125 C   0  0  0  0  0  0  0  0  0  0  0  0
   -8.8003    8.9796   -8.3744 C   0  0  0  0  0  0  0  0  0  0  0  0
   -7.4516    9.2672   -7.9847 O   0  0  0  0  0  0  0  0  0  0  0  0
   -6.8569    8.1661   -7.2961 C   0  0  0  0  0  0  0  0  0  0  0  0
   -6.6831    6.9816   -8.2487 C   0  0  0  0  0  0  0  0  0  0  0  0
  5  6  1  0  0  0
  6  7  1  0  0  0
  7  8  1  0  0  0
  8  9  1  0  0  0
  9 10  1  0  0  0
 10 11  1  0  0  0
  9 12  1  0  0  0
 12 13  1  0  0  0
 13 14  2  0  0  0
 14 15  1  0  0  0
 15 16  2  0  0  0
 16 17  1  0  0  0
 16 18  1  0  0  0
 18 19  2  0  0  0
 19  1  1  0  0  0
  1  2  2  0  0  0
  1  3  1  0  0  0
  3 22  1  0  0  0
 22 23  2  0  0  0
 23 24  1  0  0  0
 24 25  2  0  0  0
 25 26  1  0  0  0
 26 32  1  0  0  0
 32 33  2  0  0  0
 33 34  1  0  0  0
 34 35  1  0  0  0
 35 36  1  0  0  0
 36 37  1  0  0  0
 26 27  2  0  0  0
 25 28  1  0  0  0
 28 29  1  0  0  0
 29 30  1  0  0  0
 14 20  1  0  0  0
 11  6  1  0  0  0
 19 13  1  0  0  0
 27 22  1  0  0  0
 20  9  1  0  0  0
 30 24  1  0  0  0
 37 32  1  0  0  0
  3  4  1  0  0  0
 29 31  1  0  0  0
 20 21  1  0  0  0
M  END
> <minimizedAffinity>
-10.30264

> <minimizedRMSD>
0.51019

$$$$
P20773


 41 45  0  0  0  0  0  0  0  0999 V2000
   -7.5950    4.8677  -13.7644 C   0  0  0  0  0  0  0  0  0  0  0  0
   -6.2098    4.7029  -13.5106 O   0  0  0  0  0  0  0  0  0  0  0  0
   -6.0321    4.8626  -12.5705 H   0  0  0  0  0  0  0  0  0  0  0  0
   -7.8422    4.6086  -15.2572 C   0  0  0  0  0  0  0  0  0  0  0  0
   -9.0824    4.1138  -15.7084 C   0  0  0  0  0  0  0  0  0  0  0  0
   -9.3624    3.9675  -17.0741 C   0  0  0  0  0  0  0  0  0  0  0  0
  -10.5609    3.5135  -17.4586 F   0  0  0  0  0  0  0  0  0  0  0  0
   -8.4471    4.3411  -18.0458 C   0  0  0  0  0  0  0  0  0  0  0  0
   -7.2348    4.8476  -17.6266 C   0  0  0  0  0  0  0  0  0  0  0  0
   -6.9277    4.9635  -16.2632 C   0  0  0  0  0  0  0  0  0  0  0  0
   -5.5459    5.5365  -16.1555 C   0  0  0  0  0  0  0  0  0  0  0  0
   -5.1163    5.6153  -17.6232 C   0  0  0  0  0  0  0  0  0  0  0  0
   -4.5616    6.8217  -17.8918 F   0  0  0  0  0  0  0  0  0  0  0  0
   -4.1791    4.6861  -17.9227 F   0  0  0  0  0  0  0  0  0  0  0  0
   -6.2664    5.4228  -18.4774 N   0  0  0  0  0  0  0  0  0  0  0  0
   -6.3541    5.6424  -19.4330 H   0  0  0  0  0  0  0  0  0  0  0  0
   -6.8407    7.2159  -13.2257 N   0  0  0  0  0  0  0  0  0  0  0  0
   -8.1264    6.3549  -13.4542 C   0  0  0  0  0  0  0  0  0  0  0  0
   -9.2576    6.6632  -13.4477 O   0  0  0  0  0  0  0  0  0  0  0  0
   -5.9926    6.7340  -13.3589 H   0  0  0  0  0  0  0  0  0  0  0  0
   -5.5671    9.2500  -13.6426 C   0  0  0  0  0  0  0  0  0  0  0  0
   -6.6961    8.6032  -12.8510 C   0  0  0  0  0  0  0  0  0  0  0  0
   -6.4581    8.7277  -11.3526 C   0  0  0  0  0  0  0  0  0  0  0  0
   -8.2656    3.8941  -12.9099 N   0  0  0  0  0  0  0  0  0  0  0  0
   -8.7158    3.1389  -13.3529 H   0  0  0  0  0  0  0  0  0  0  0  0
   -8.3218    3.9447  -11.5172 C   0  0  0  0  0  0  0  0  0  0  0  0
   -8.7509    2.8151  -10.8180 C   0  0  0  0  0  0  0  0  0  0  0  0
   -8.8461    2.8580   -9.4319 C   0  0  0  0  0  0  0  0  0  0  0  0
   -8.5653    4.0102   -8.7041 C   0  0  0  0  0  0  0  0  0  0  0  0
   -8.1884    5.1681   -9.3562 C   0  0  0  0  0  0  0  0  0  0  0  0
   -8.0467    5.0990  -10.7570 C   0  0  0  0  0  0  0  0  0  0  0  0
   -8.8346    3.7468   -7.2629 C   0  0  0  0  0  0  0  0  0  0  0  0
   -9.1210    2.2999   -7.1351 N   0  0  0  0  0  0  0  0  0  0  0  0
   -9.3008    1.7786   -8.5132 C   0  0  0  0  0  0  0  0  0  0  0  0
   -9.9717    2.1565   -6.5910 H   0  0  0  0  0  0  0  0  0  0  0  0
   -7.9901    6.4704   -8.7006 C   0  0  0  0  0  0  0  0  0  0  0  0
   -8.9064    7.4472   -8.8436 C   0  0  0  0  0  0  0  0  0  0  0  0
   -8.7326    8.8239   -8.2782 C   0  0  0  0  0  0  0  0  0  0  0  0
   -7.3804    9.0719   -7.8770 O   0  0  0  0  0  0  0  0  0  0  0  0
   -6.8700    8.0032   -7.0782 C   0  0  0  0  0  0  0  0  0  0  0  0
   -6.7362    6.7295   -7.9167 C   0  0  0  0  0  0  0  0  0  0  0  0
 21 22  1  0  0  0
 22 23  1  0  0  0
 22 17  1  0  0  0
 17 18  1  0  0  0
 18 19  2  0  0  0
 18  1  1  0  0  0
  1  2  1  0  0  0
  1 24  1  0  0  0
 24 26  1  0  0  0
 26 27  2  0  0  0
 27 28  1  0  0  0
 28 29  2  0  0  0
 29 30  1  0  0  0
 30 36  1  0  0  0
 36 37  2  0  0  0
 37 38  1  0  0  0
 38 39  1  0  0  0
 39 40  1  0  0  0
 40 41  1  0  0  0
 30 31  2  0  0  0
 29 32  1  0  0  0
 32 33  1  0  0  0
 33 34  1  0  0  0
  1  4  1  0  0  0
  4  5  2  0  0  0
  5  6  1  0  0  0
  6  7  1  0  0  0
  6  8  2  0  0  0
  8  9  1  0  0  0
  9 10  2  0  0  0
 10 11  1  0  0  0
 11 12  1  0  0  0
 12 13  1  0  0  0
 12 14  1  0  0  0
 12 15  1  0  0  0
 31 26  1  0  0  0
 10  4  1  0  0  0
 34 28  1  0  0  0
 15  9  1  0  0  0
 41 36  1  0  0  0
 17 20  1  0  0  0
  2  3  1  0  0  0
 24 25  1  0  0  0
 33 35  1  0  0  0
 15 16  1  0  0  0
M  END
> <minimizedAffinity>
-9.56435

> <minimizedRMSD>
0.34975

$$$$
P20774


 35 39  0  0  0  0  0  0  0  0999 V2000
   -7.5460    5.2842  -13.9503 C   0  0  0  0  0  0  0  0  0  0  0  0
   -7.1242    6.3478  -13.7256 O   0  0  0  0  0  0  0  0  0  0  0  0
   -8.0474    4.1870  -12.9943 N   0  0  0  0  0  0  0  0  0  0  0  0
   -8.2855    3.3373  -13.4310 H   0  0  0  0  0  0  0  0  0  0  0  0
   -8.2187    4.2002  -11.6160 C   0  0  0  0  0  0  0  0  0  0  0  0
   -8.6880    3.0475  -11.0083 C   0  0  0  0  0  0  0  0  0  0  0  0
   -8.8602    3.0695   -9.6378 C   0  0  0  0  0  0  0  0  0  0  0  0
   -8.5641    4.1905   -8.8380 C   0  0  0  0  0  0  0  0  0  0  0  0
   -8.1182    5.3567   -9.4443 C   0  0  0  0  0  0  0  0  0  0  0  0
   -7.9394    5.3398  -10.8456 C   0  0  0  0  0  0  0  0  0  0  0  0
   -8.8157    3.7808   -7.4033 C   0  0  0  0  0  0  0  0  0  0  0  0
   -9.3244    4.8143   -6.4024 C   0  0  0  0  0  0  0  0  0  0  0  0
   -9.7873    2.6648   -7.5524 N   0  0  0  0  0  0  0  0  0  0  0  0
   -9.8104    1.7392   -6.4477 C   0  0  0  0  0  0  0  0  0  0  0  0
   -9.3877    1.9649   -8.7892 C   0  0  0  0  0  0  0  0  0  0  0  0
   -7.8733    6.6201   -8.7425 C   0  0  0  0  0  0  0  0  0  0  0  0
   -8.7668    7.6233   -8.8187 C   0  0  0  0  0  0  0  0  0  0  0  0
   -8.5594    8.9510   -8.1553 C   0  0  0  0  0  0  0  0  0  0  0  0
   -7.2134    9.1308   -7.6997 O   0  0  0  0  0  0  0  0  0  0  0  0
   -6.7346    7.9816   -6.9984 C   0  0  0  0  0  0  0  0  0  0  0  0
   -6.6065    6.7941   -7.9567 C   0  0  0  0  0  0  0  0  0  0  0  0
   -5.4236    5.1560  -18.0843 N   0  0  0  0  0  0  0  0  0  0  0  0
   -4.4759    5.4027  -17.1461 N   0  0  0  0  0  0  0  0  0  0  0  0
   -5.1641    5.3848  -16.0041 C   0  0  0  0  0  0  0  0  0  0  0  0
   -6.5147    5.0187  -16.1880 C   0  0  0  0  0  0  0  0  0  0  0  0
   -7.6383    4.8529  -15.3595 C   0  0  0  0  0  0  0  0  0  0  0  0
   -8.8457    4.4074  -15.9084 C   0  0  0  0  0  0  0  0  0  0  0  0
   -8.9348    4.1804  -17.2754 C   0  0  0  0  0  0  0  0  0  0  0  0
  -10.1062    3.7914  -17.7933 F   0  0  0  0  0  0  0  0  0  0  0  0
   -7.8561    4.3937  -18.1349 C   0  0  0  0  0  0  0  0  0  0  0  0
   -6.6475    4.8122  -17.5596 C   0  0  0  0  0  0  0  0  0  0  0  0
   -5.0780    5.3396  -19.4891 C   0  0  0  0  0  0  0  0  0  0  0  0
   -4.7137    7.3300  -20.8055 C   0  0  0  0  0  0  0  0  0  0  0  0
   -5.6104    6.6445  -19.8927 N   0  0  0  0  0  0  0  0  0  0  0  0
   -6.5097    6.5065  -20.3538 H   0  0  0  0  0  0  0  0  0  0  0  0
 33 34  1  0  0  0
 34 32  1  0  0  0
 32 22  1  0  0  0
 22 23  1  0  0  0
 23 24  2  0  0  0
 24 25  1  0  0  0
 25 26  2  0  0  0
 26  1  1  0  0  0
  1  2  2  0  0  0
  1  3  1  0  0  0
  3  5  1  0  0  0
  5  6  2  0  0  0
  6  7  1  0  0  0
  7  8  2  0  0  0
  8  9  1  0  0  0
  9 16  1  0  0  0
 16 17  2  0  0  0
 17 18  1  0  0  0
 18 19  1  0  0  0
 19 20  1  0  0  0
 20 21  1  0  0  0
  9 10  2  0  0  0
  8 11  1  0  0  0
 11 12  1  0  0  0
 11 13  1  0  0  0
 13 14  1  0  0  0
 13 15  1  0  0  0
 26 27  1  0  0  0
 27 28  2  0  0  0
 28 29  1  0  0  0
 28 30  1  0  0  0
 30 31  2  0  0  0
 31 22  1  0  0  0
 31 25  1  0  0  0
 10  5  1  0  0  0
 15  7  1  0  0  0
 21 16  1  0  0  0
 34 35  1  0  0  0
  3  4  1  0  0  0
M  END
> <minimizedAffinity>
-9.28934

> <minimizedRMSD>
0.18525

$$$$
P20775


 35 39  0  0  0  0  0  0  0  0999 V2000
   -7.1415    5.0392  -13.8837 C   0  0  0  0  0  0  0  0  0  0  0  0
   -6.2491    5.7476  -13.6296 O   0  0  0  0  0  0  0  0  0  0  0  0
   -8.1765    4.3603  -12.9585 N   0  0  0  0  0  0  0  0  0  0  0  0
   -8.8858    3.8643  -13.4277 H   0  0  0  0  0  0  0  0  0  0  0  0
   -8.2697    4.3355  -11.5607 C   0  0  0  0  0  0  0  0  0  0  0  0
   -8.6267    3.1285  -10.9558 C   0  0  0  0  0  0  0  0  0  0  0  0
   -8.7808    3.0980   -9.5787 C   0  0  0  0  0  0  0  0  0  0  0  0
   -8.5778    4.2318   -8.7873 C   0  0  0  0  0  0  0  0  0  0  0  0
   -8.2074    5.4449   -9.3536 C   0  0  0  0  0  0  0  0  0  0  0  0
   -8.0588    5.4732  -10.7552 C   0  0  0  0  0  0  0  0  0  0  0  0
   -7.7584    6.6504  -11.3241 F   0  0  0  0  0  0  0  0  0  0  0  0
   -8.8640    3.8638   -7.3675 C   0  0  0  0  0  0  0  0  0  0  0  0
   -9.5852    2.5722   -7.4230 N   0  0  0  0  0  0  0  0  0  0  0  0
   -9.1778    1.9503   -8.7072 C   0  0  0  0  0  0  0  0  0  0  0  0
  -10.5935    2.7251   -7.4042 H   0  0  0  0  0  0  0  0  0  0  0  0
   -8.0226    6.6796   -8.5689 C   0  0  0  0  0  0  0  0  0  0  0  0
   -8.9054    7.6923   -8.6551 C   0  0  0  0  0  0  0  0  0  0  0  0
   -8.7272    8.9999   -7.9449 C   0  0  0  0  0  0  0  0  0  0  0  0
   -7.4052    9.1633   -7.4217 O   0  0  0  0  0  0  0  0  0  0  0  0
   -6.9647    7.9972   -6.7265 C   0  0  0  0  0  0  0  0  0  0  0  0
   -6.8076    6.8229   -7.6951 C   0  0  0  0  0  0  0  0  0  0  0  0
   -5.3494    5.1702  -18.2038 N   0  0  0  0  0  0  0  0  0  0  0  0
   -4.4066    5.5445  -17.3022 N   0  0  0  0  0  0  0  0  0  0  0  0
   -4.9733    5.3339  -16.1190 C   0  0  0  0  0  0  0  0  0  0  0  0
   -6.3219    4.9484  -16.2269 C   0  0  0  0  0  0  0  0  0  0  0  0
   -7.3754    4.7341  -15.3142 C   0  0  0  0  0  0  0  0  0  0  0  0
   -8.6500    4.4296  -15.7985 C   0  0  0  0  0  0  0  0  0  0  0  0
   -8.8594    4.3476  -17.1684 C   0  0  0  0  0  0  0  0  0  0  0  0
  -10.0960    4.1008  -17.6166 F   0  0  0  0  0  0  0  0  0  0  0  0
   -7.8340    4.5492  -18.0966 C   0  0  0  0  0  0  0  0  0  0  0  0
   -6.5578    4.8556  -17.6002 C   0  0  0  0  0  0  0  0  0  0  0  0
   -5.1374    5.4727  -19.6284 C   0  0  0  0  0  0  0  0  0  0  0  0
   -2.9944    6.2841  -20.6024 C   0  0  0  0  0  0  0  0  0  0  0  0
   -3.8008    5.1340  -20.1940 N   0  0  0  0  0  0  0  0  0  0  0  0
   -3.2792    4.6168  -19.4862 H   0  0  0  0  0  0  0  0  0  0  0  0
 33 34  1  0  0  0
 34 32  1  0  0  0
 32 22  1  0  0  0
 22 23  1  0  0  0
 23 24  2  0  0  0
 24 25  1  0  0  0
 25 26  2  0  0  0
 26  1  1  0  0  0
  1  2  2  0  0  0
  1  3  1  0  0  0
  3  5  1  0  0  0
  5  6  2  0  0  0
  6  7  1  0  0  0
  7  8  2  0  0  0
  8  9  1  0  0  0
  9 16  1  0  0  0
 16 17  2  0  0  0
 17 18  1  0  0  0
 18 19  1  0  0  0
 19 20  1  0  0  0
 20 21  1  0  0  0
  9 10  2  0  0  0
 10 11  1  0  0  0
  8 12  1  0  0  0
 12 13  1  0  0  0
 13 14  1  0  0  0
 26 27  1  0  0  0
 27 28  2  0  0  0
 28 29  1  0  0  0
 28 30  1  0  0  0
 30 31  2  0  0  0
 31 22  1  0  0  0
 31 25  1  0  0  0
 10  5  1  0  0  0
 14  7  1  0  0  0
 21 16  1  0  0  0
 34 35  1  0  0  0
  3  4  1  0  0  0
 13 15  1  0  0  0
M  END
> <minimizedAffinity>
-8.80990

> <minimizedRMSD>
0.47111

$$$$
P20776


 38 43  0  0  0  0  0  0  0  0999 V2000
   -8.3617    4.2580  -11.3174 C   0  0  0  0  0  0  0  0  0  0  0  0
   -8.7212    3.1020  -10.6362 C   0  0  0  0  0  0  0  0  0  0  0  0
   -8.8201    3.1546   -9.2467 C   0  0  0  0  0  0  0  0  0  0  0  0
   -8.5821    4.3218   -8.5022 C   0  0  0  0  0  0  0  0  0  0  0  0
   -8.2607    5.4950   -9.1886 C   0  0  0  0  0  0  0  0  0  0  0  0
   -8.1483    5.4393  -10.5965 C   0  0  0  0  0  0  0  0  0  0  0  0
   -8.6781    3.9674   -7.0350 C   0  0  0  0  0  0  0  0  0  0  0  0
   -7.4871    4.4248   -6.1841 C   0  0  0  0  0  0  0  0  0  0  0  0
   -7.8801    4.1360   -4.7467 C   0  0  0  0  0  0  0  0  0  0  0  0
   -9.3686    4.4475   -4.7174 C   0  0  0  0  0  0  0  0  0  0  0  0
   -9.8215    4.5437   -6.1850 C   0  0  0  0  0  0  0  0  0  0  0  0
   -8.8250    2.4814   -6.9852 N   0  0  0  0  0  0  0  0  0  0  0  0
   -9.1862    2.0297   -8.3420 C   0  0  0  0  0  0  0  0  0  0  0  0
   -9.5594    2.2253   -6.3252 H   0  0  0  0  0  0  0  0  0  0  0  0
   -8.0325    6.8148   -8.5888 C   0  0  0  0  0  0  0  0  0  0  0  0
   -8.9915    7.7581   -8.5796 C   0  0  0  0  0  0  0  0  0  0  0  0
   -8.7779    9.1446   -8.0453 C   0  0  0  0  0  0  0  0  0  0  0  0
   -7.4080    9.4346   -7.7473 O   0  0  0  0  0  0  0  0  0  0  0  0
   -6.7448    8.3317   -7.1261 C   0  0  0  0  0  0  0  0  0  0  0  0
   -6.6526    7.1742   -8.1190 C   0  0  0  0  0  0  0  0  0  0  0  0
   -7.8076    5.3512  -13.6938 C   0  0  0  0  0  0  0  0  0  0  0  0
   -7.4856    6.4569  -13.4961 O   0  0  0  0  0  0  0  0  0  0  0  0
   -8.1989    4.2283  -12.7034 N   0  0  0  0  0  0  0  0  0  0  0  0
   -8.3590    3.3500  -13.1185 H   0  0  0  0  0  0  0  0  0  0  0  0
   -5.4349    5.1817  -17.7306 N   0  0  0  0  0  0  0  0  0  0  0  0
   -4.6321    5.7137  -16.7735 N   0  0  0  0  0  0  0  0  0  0  0  0
   -5.3564    5.6113  -15.6595 C   0  0  0  0  0  0  0  0  0  0  0  0
   -6.6546    5.1081  -15.8916 C   0  0  0  0  0  0  0  0  0  0  0  0
   -7.8091    4.8926  -15.1064 C   0  0  0  0  0  0  0  0  0  0  0  0
   -8.9711    4.4175  -15.7226 C   0  0  0  0  0  0  0  0  0  0  0  0
   -8.9769    4.1759  -17.0924 C   0  0  0  0  0  0  0  0  0  0  0  0
  -10.1136    3.7724  -17.6739 F   0  0  0  0  0  0  0  0  0  0  0  0
   -7.8502    4.3788  -17.8933 C   0  0  0  0  0  0  0  0  0  0  0  0
   -6.6901    4.8494  -17.2629 C   0  0  0  0  0  0  0  0  0  0  0  0
   -4.9754    5.1239  -19.1256 C   0  0  0  0  0  0  0  0  0  0  0  0
   -2.6288    4.3482  -19.2609 C   0  0  0  0  0  0  0  0  0  0  0  0
   -3.5439    5.4876  -19.2519 N   0  0  0  0  0  0  0  0  0  0  0  0
   -3.4214    6.0017  -20.1243 H   0  0  0  0  0  0  0  0  0  0  0  0
 36 37  1  0  0  0
 37 35  1  0  0  0
 35 25  1  0  0  0
 25 26  1  0  0  0
 26 27  2  0  0  0
 27 28  1  0  0  0
 28 29  2  0  0  0
 29 21  1  0  0  0
 21 22  2  0  0  0
 21 23  1  0  0  0
 23  1  1  0  0  0
  1  2  2  0  0  0
  2  3  1  0  0  0
  3  4  2  0  0  0
  4  5  1  0  0  0
  5 15  1  0  0  0
 15 16  2  0  0  0
 16 17  1  0  0  0
 17 18  1  0  0  0
 18 19  1  0  0  0
 19 20  1  0  0  0
  5  6  2  0  0  0
  4  7  1  0  0  0
  7  8  1  0  0  0
  8  9  1  0  0  0
  9 10  1  0  0  0
 10 11  1  0  0  0
  7 12  1  0  0  0
 12 13  1  0  0  0
 29 30  1  0  0  0
 30 31  2  0  0  0
 31 32  1  0  0  0
 31 33  1  0  0  0
 33 34  2  0  0  0
 34 25  1  0  0  0
 34 28  1  0  0  0
  6  1  1  0  0  0
 11  7  1  0  0  0
 13  3  1  0  0  0
 20 15  1  0  0  0
 37 38  1  0  0  0
 23 24  1  0  0  0
 12 14  1  0  0  0
M  END
> <minimizedAffinity>
-9.61695

> <minimizedRMSD>
0.24053

$$$$
P20777


 34 38  0  0  0  0  0  0  0  0999 V2000
   -7.5404    5.2760  -13.9869 C   0  0  0  0  0  0  0  0  0  0  0  0
   -7.1154    6.3337  -13.7359 O   0  0  0  0  0  0  0  0  0  0  0  0
   -8.0388    4.1513  -13.0552 N   0  0  0  0  0  0  0  0  0  0  0  0
   -8.2808    3.3139  -13.5130 H   0  0  0  0  0  0  0  0  0  0  0  0
   -5.3107    5.1552  -18.0855 N   0  0  0  0  0  0  0  0  0  0  0  0
   -4.4118    5.4764  -17.1218 N   0  0  0  0  0  0  0  0  0  0  0  0
   -5.1300    5.4515  -16.0001 C   0  0  0  0  0  0  0  0  0  0  0  0
   -6.4684    5.0657  -16.2189 C   0  0  0  0  0  0  0  0  0  0  0  0
   -7.6058    4.8782  -15.4112 C   0  0  0  0  0  0  0  0  0  0  0  0
   -8.7973    4.4407  -15.9968 C   0  0  0  0  0  0  0  0  0  0  0  0
   -8.8541    4.2313  -17.3692 C   0  0  0  0  0  0  0  0  0  0  0  0
  -10.0143    3.8627  -17.9230 F   0  0  0  0  0  0  0  0  0  0  0  0
   -7.7523    4.4348  -18.2002 C   0  0  0  0  0  0  0  0  0  0  0  0
   -6.5602    4.8556  -17.5950 C   0  0  0  0  0  0  0  0  0  0  0  0
   -4.8428    5.0689  -19.4649 C   0  0  0  0  0  0  0  0  0  0  0  0
   -5.0767    7.4860  -19.8384 C   0  0  0  0  0  0  0  0  0  0  0  0
   -5.3625    6.1447  -20.3046 N   0  0  0  0  0  0  0  0  0  0  0  0
   -4.9581    6.0416  -21.2353 H   0  0  0  0  0  0  0  0  0  0  0  0
   -8.2019    4.1278  -11.6729 C   0  0  0  0  0  0  0  0  0  0  0  0
   -8.6152    2.9429  -11.0686 C   0  0  0  0  0  0  0  0  0  0  0  0
   -8.8175    2.9456   -9.7002 C   0  0  0  0  0  0  0  0  0  0  0  0
   -8.6075    4.0925   -8.9253 C   0  0  0  0  0  0  0  0  0  0  0  0
   -8.1881    5.2822   -9.5050 C   0  0  0  0  0  0  0  0  0  0  0  0
   -7.9788    5.2776  -10.8968 C   0  0  0  0  0  0  0  0  0  0  0  0
   -8.9496    3.7579   -7.5064 C   0  0  0  0  0  0  0  0  0  0  0  0
   -9.7431    2.5166   -7.5919 N   0  0  0  0  0  0  0  0  0  0  0  0
   -9.6205    1.7285   -6.4742 F   0  0  0  0  0  0  0  0  0  0  0  0
   -9.2883    1.8320   -8.8191 C   0  0  0  0  0  0  0  0  0  0  0  0
   -8.0174    6.5347   -8.7537 C   0  0  0  0  0  0  0  0  0  0  0  0
   -8.8705    7.5606   -8.9300 C   0  0  0  0  0  0  0  0  0  0  0  0
   -8.7302    8.8729   -8.2192 C   0  0  0  0  0  0  0  0  0  0  0  0
   -7.4464    9.0234   -7.6046 O   0  0  0  0  0  0  0  0  0  0  0  0
   -7.0824    7.8641   -6.8552 C   0  0  0  0  0  0  0  0  0  0  0  0
   -6.8742    6.6680   -7.7871 C   0  0  0  0  0  0  0  0  0  0  0  0
 16 17  1  0  0  0
 17 15  1  0  0  0
 15  5  1  0  0  0
  5  6  1  0  0  0
  6  7  2  0  0  0
  7  8  1  0  0  0
  8  9  2  0  0  0
  9  1  1  0  0  0
  1  2  2  0  0  0
  1  3  1  0  0  0
  3 19  1  0  0  0
 19 20  2  0  0  0
 20 21  1  0  0  0
 21 22  2  0  0  0
 22 23  1  0  0  0
 23 29  1  0  0  0
 29 30  2  0  0  0
 30 31  1  0  0  0
 31 32  1  0  0  0
 32 33  1  0  0  0
 33 34  1  0  0  0
 23 24  2  0  0  0
 22 25  1  0  0  0
 25 26  1  0  0  0
 26 27  1  0  0  0
 26 28  1  0  0  0
  9 10  1  0  0  0
 10 11  2  0  0  0
 11 12  1  0  0  0
 11 13  1  0  0  0
 13 14  2  0  0  0
 14  5  1  0  0  0
 14  8  1  0  0  0
 24 19  1  0  0  0
 28 21  1  0  0  0
 34 29  1  0  0  0
 17 18  1  0  0  0
  3  4  1  0  0  0
M  END
> <minimizedAffinity>
-9.37792

> <minimizedRMSD>
0.25289

$$$$
P20779


 43 48  0  0  0  0  0  0  0  0999 V2000
   -5.1197    5.4316  -17.1162 N   0  0  0  0  0  0  0  0  0  0  0  0
   -6.4175    4.9751  -17.0620 C   0  0  0  0  0  0  0  0  0  0  0  0
   -7.3078    4.6484  -18.0722 C   0  0  0  0  0  0  0  0  0  0  0  0
   -8.6117    4.2492  -17.7609 C   0  0  0  0  0  0  0  0  0  0  0  0
   -9.4587    3.9429  -18.7535 F   0  0  0  0  0  0  0  0  0  0  0  0
   -9.0789    4.2736  -16.4538 C   0  0  0  0  0  0  0  0  0  0  0  0
   -8.2005    4.6393  -15.4412 C   0  0  0  0  0  0  0  0  0  0  0  0
   -6.8723    4.9110  -15.7522 C   0  0  0  0  0  0  0  0  0  0  0  0
   -5.7486    5.1837  -14.8062 C   0  0  0  0  0  0  0  0  0  0  0  0
   -4.5805    5.6268  -15.7565 C   0  0  0  0  0  0  0  0  0  0  0  0
   -4.2977    7.1486  -15.5556 C   0  0  0  0  0  0  0  0  0  0  0  0
   -3.6199    7.4611  -14.2115 C   0  0  0  0  0  0  0  0  0  0  0  0
   -2.3949    6.5660  -14.0017 C   0  0  0  0  0  0  0  0  0  0  0  0
   -2.8164    5.1603  -14.0918 N   0  0  0  0  0  0  0  0  0  0  0  0
   -3.3497    4.8707  -15.4242 N   0  0  0  0  0  0  0  0  0  0  0  0
   -3.5390    4.9809  -13.3946 H   0  0  0  0  0  0  0  0  0  0  0  0
   -3.5613    3.8742  -15.4757 H   0  0  0  0  0  0  0  0  0  0  0  0
   -8.6943    4.9825  -14.0960 C   0  0  0  0  0  0  0  0  0  0  0  0
   -9.4970    5.8252  -14.0183 O   0  0  0  0  0  0  0  0  0  0  0  0
   -8.0029    4.1591  -12.9960 N   0  0  0  0  0  0  0  0  0  0  0  0
   -7.2969    3.5529  -13.3174 H   0  0  0  0  0  0  0  0  0  0  0  0
   -8.2121    4.1314  -11.6250 C   0  0  0  0  0  0  0  0  0  0  0  0
   -8.5892    2.9485  -11.0056 C   0  0  0  0  0  0  0  0  0  0  0  0
   -8.7717    2.9695   -9.6324 C   0  0  0  0  0  0  0  0  0  0  0  0
   -8.5789    4.1280   -8.8749 C   0  0  0  0  0  0  0  0  0  0  0  0
   -8.2204    5.3249   -9.4810 C   0  0  0  0  0  0  0  0  0  0  0  0
   -8.0325    5.3004  -10.8712 C   0  0  0  0  0  0  0  0  0  0  0  0
   -8.8337    3.8016   -7.4418 C   0  0  0  0  0  0  0  0  0  0  0  0
   -9.4066    2.4374   -7.4071 N   0  0  0  0  0  0  0  0  0  0  0  0
   -9.1614    1.8396   -8.7429 C   0  0  0  0  0  0  0  0  0  0  0  0
  -10.4083    2.4812   -7.2197 H   0  0  0  0  0  0  0  0  0  0  0  0
   -8.0384    6.6082   -8.7843 C   0  0  0  0  0  0  0  0  0  0  0  0
   -8.9283    7.6059   -8.9475 C   0  0  0  0  0  0  0  0  0  0  0  0
   -8.7465    8.9695   -8.3553 C   0  0  0  0  0  0  0  0  0  0  0  0
   -7.4037    9.1895   -7.9110 O   0  0  0  0  0  0  0  0  0  0  0  0
   -6.9320    8.1045   -7.1123 C   0  0  0  0  0  0  0  0  0  0  0  0
   -6.8102    6.8287   -7.9490 C   0  0  0  0  0  0  0  0  0  0  0  0
   -1.4058    6.9386  -14.9640 O   0  0  0  0  0  0  0  0  0  0  0  0
   -0.7762    8.1760  -14.6599 C   0  0  0  0  0  0  0  0  0  0  0  0
   -4.3246    5.7504  -18.2714 C   0  0  0  0  0  0  0  0  0  0  0  0
   -2.7239    4.3816  -19.2327 C   0  0  0  0  0  0  0  0  0  0  0  0
   -2.9216    5.3935  -18.2240 N   0  0  0  0  0  0  0  0  0  0  0  0
   -2.3431    6.2093  -18.4247 H   0  0  0  0  0  0  0  0  0  0  0  0
 41 42  1  0  0  0
 42 40  1  0  0  0
 40  1  1  0  0  0
  1  2  1  0  0  0
  2  3  2  0  0  0
  3  4  1  0  0  0
  4  5  1  0  0  0
  4  6  2  0  0  0
  6  7  1  0  0  0
  7 18  1  0  0  0
 18 19  2  0  0  0
 18 20  1  0  0  0
 20 22  1  0  0  0
 22 23  2  0  0  0
 23 24  1  0  0  0
 24 25  2  0  0  0
 25 26  1  0  0  0
 26 32  1  0  0  0
 32 33  2  0  0  0
 33 34  1  0  0  0
 34 35  1  0  0  0
 35 36  1  0  0  0
 36 37  1  0  0  0
 26 27  2  0  0  0
 25 28  1  0  0  0
 28 29  1  0  0  0
 29 30  1  0  0  0
  7  8  2  0  0  0
  8  9  1  0  0  0
 10  9  1  0  0  0
 10 11  1  0  0  0
 11 12  1  0  0  0
 12 13  1  0  0  0
 13 38  1  0  0  0
 38 39  1  0  0  0
 13 14  1  0  0  0
 14 15  1  0  0  0
 10  1  1  0  0  0
  8  2  1  0  0  0
 15 10  1  0  0  0
 27 22  1  0  0  0
 30 24  1  0  0  0
 37 32  1  0  0  0
 42 43  1  0  0  0
 20 21  1  0  0  0
 29 31  1  0  0  0
 14 16  1  0  0  0
 15 17  1  0  0  0
M  END
> <minimizedAffinity>
-9.67521

> <minimizedRMSD>
1.29547

$$$$
P20781


 35 39  0  0  0  0  0  0  0  0999 V2000
   -7.0363    4.8984  -13.9133 C   0  0  0  0  0  0  0  0  0  0  0  0
   -6.0559    5.4879  -13.6723 O   0  0  0  0  0  0  0  0  0  0  0  0
   -8.1689    4.4085  -12.9774 N   0  0  0  0  0  0  0  0  0  0  0  0
   -8.9348    3.9957  -13.4381 H   0  0  0  0  0  0  0  0  0  0  0  0
   -8.2813    4.4574  -11.5780 C   0  0  0  0  0  0  0  0  0  0  0  0
   -8.6368    3.2515  -10.9584 C   0  0  0  0  0  0  0  0  0  0  0  0
   -8.7424    3.2070   -9.5794 C   0  0  0  0  0  0  0  0  0  0  0  0
   -8.5159    4.3335   -8.7977 C   0  0  0  0  0  0  0  0  0  0  0  0
   -8.2124    5.5653   -9.3773 C   0  0  0  0  0  0  0  0  0  0  0  0
   -8.1091    5.6372  -10.7989 C   0  0  0  0  0  0  0  0  0  0  0  0
   -7.8448    6.9732  -11.4526 C   0  0  0  0  0  0  0  0  0  0  0  0
   -8.7321    3.9700   -7.3654 C   0  0  0  0  0  0  0  0  0  0  0  0
   -8.9627    2.5077   -7.3170 N   0  0  0  0  0  0  0  0  0  0  0  0
   -9.1359    2.0550   -8.7195 C   0  0  0  0  0  0  0  0  0  0  0  0
   -9.8022    2.3022   -6.7753 H   0  0  0  0  0  0  0  0  0  0  0  0
   -8.0331    6.7652   -8.5350 C   0  0  0  0  0  0  0  0  0  0  0  0
   -8.9634    7.7373   -8.4808 C   0  0  0  0  0  0  0  0  0  0  0  0
   -8.7263    9.0596   -7.8140 C   0  0  0  0  0  0  0  0  0  0  0  0
   -7.3653    9.2394   -7.4087 O   0  0  0  0  0  0  0  0  0  0  0  0
   -6.8442    8.0679   -6.7807 C   0  0  0  0  0  0  0  0  0  0  0  0
   -6.7316    6.9370   -7.8041 C   0  0  0  0  0  0  0  0  0  0  0  0
   -5.3530    5.3334  -18.2400 N   0  0  0  0  0  0  0  0  0  0  0  0
   -4.3465    5.5190  -17.3541 N   0  0  0  0  0  0  0  0  0  0  0  0
   -4.8986    5.2521  -16.1742 C   0  0  0  0  0  0  0  0  0  0  0  0
   -6.2666    4.9193  -16.2684 C   0  0  0  0  0  0  0  0  0  0  0  0
   -7.3081    4.6542  -15.3510 C   0  0  0  0  0  0  0  0  0  0  0  0
   -8.5915    4.3743  -15.8388 C   0  0  0  0  0  0  0  0  0  0  0  0
   -8.8183    4.3507  -17.2091 C   0  0  0  0  0  0  0  0  0  0  0  0
  -10.0558    4.1013  -17.6560 F   0  0  0  0  0  0  0  0  0  0  0  0
   -7.8119    4.6312  -18.1339 C   0  0  0  0  0  0  0  0  0  0  0  0
   -6.5355    4.9318  -17.6340 C   0  0  0  0  0  0  0  0  0  0  0  0
   -5.2624    5.8240  -19.6222 C   0  0  0  0  0  0  0  0  0  0  0  0
   -3.2530    6.6858  -20.7338 C   0  0  0  0  0  0  0  0  0  0  0  0
   -4.0113    5.4996  -20.3489 N   0  0  0  0  0  0  0  0  0  0  0  0
   -3.4260    4.9207  -19.7467 H   0  0  0  0  0  0  0  0  0  0  0  0
 33 34  1  0  0  0
 34 32  1  0  0  0
 32 22  1  0  0  0
 22 23  1  0  0  0
 23 24  2  0  0  0
 24 25  1  0  0  0
 25 26  2  0  0  0
 26  1  1  0  0  0
  1  2  2  0  0  0
  1  3  1  0  0  0
  3  5  1  0  0  0
  5  6  2  0  0  0
  6  7  1  0  0  0
  7  8  2  0  0  0
  8  9  1  0  0  0
  9 16  1  0  0  0
 16 17  2  0  0  0
 17 18  1  0  0  0
 18 19  1  0  0  0
 19 20  1  0  0  0
 20 21  1  0  0  0
  9 10  2  0  0  0
 10 11  1  0  0  0
  8 12  1  0  0  0
 12 13  1  0  0  0
 13 14  1  0  0  0
 26 27  1  0  0  0
 27 28  2  0  0  0
 28 29  1  0  0  0
 28 30  1  0  0  0
 30 31  2  0  0  0
 31 22  1  0  0  0
 31 25  1  0  0  0
 10  5  1  0  0  0
 14  7  1  0  0  0
 21 16  1  0  0  0
 34 35  1  0  0  0
  3  4  1  0  0  0
 13 15  1  0  0  0
M  END
> <minimizedAffinity>
-8.63666

> <minimizedRMSD>
0.31989

$$$$
P20782


 34 38  0  0  0  0  0  0  0  0999 V2000
   -7.5823    5.1547  -13.9578 C   0  0  0  0  0  0  0  0  0  0  0  0
   -7.0627    6.1762  -13.7353 O   0  0  0  0  0  0  0  0  0  0  0  0
   -8.1555    4.0916  -12.9940 N   0  0  0  0  0  0  0  0  0  0  0  0
   -8.4785    3.2706  -13.4310 H   0  0  0  0  0  0  0  0  0  0  0  0
   -5.0049    5.2737  -17.4835 N   0  0  0  0  0  0  0  0  0  0  0  0
   -5.5205    5.2977  -16.2198 C   0  0  0  0  0  0  0  0  0  0  0  0
   -6.8345    4.9402  -16.3685 C   0  0  0  0  0  0  0  0  0  0  0  0
   -7.7881    4.7736  -15.3621 C   0  0  0  0  0  0  0  0  0  0  0  0
   -9.0307    4.3407  -15.8651 C   0  0  0  0  0  0  0  0  0  0  0  0
   -9.2652    4.1283  -17.2527 C   0  0  0  0  0  0  0  0  0  0  0  0
  -10.4926    3.7346  -17.6213 F   0  0  0  0  0  0  0  0  0  0  0  0
   -8.3077    4.3259  -18.2625 C   0  0  0  0  0  0  0  0  0  0  0  0
   -7.0549    4.7337  -17.7805 C   0  0  0  0  0  0  0  0  0  0  0  0
   -5.9179    4.9930  -18.4469 N   0  0  0  0  0  0  0  0  0  0  0  0
   -3.2791    4.7161  -19.0334 N   0  0  0  0  0  0  0  0  0  0  0  0
   -3.6114    5.5331  -17.8574 C   0  0  0  0  0  0  0  0  0  0  0  0
   -2.3107    4.8877  -19.3039 H   0  0  0  0  0  0  0  0  0  0  0  0
   -3.8971    4.9648  -19.8058 H   0  0  0  0  0  0  0  0  0  0  0  0
   -8.2896    4.1057  -11.6068 C   0  0  0  0  0  0  0  0  0  0  0  0
   -8.6786    2.9360  -10.9560 C   0  0  0  0  0  0  0  0  0  0  0  0
   -8.8220    2.9678   -9.5785 C   0  0  0  0  0  0  0  0  0  0  0  0
   -8.5887    4.1312   -8.8414 C   0  0  0  0  0  0  0  0  0  0  0  0
   -8.2016    5.3088   -9.4691 C   0  0  0  0  0  0  0  0  0  0  0  0
   -8.0458    5.2729  -10.8677 C   0  0  0  0  0  0  0  0  0  0  0  0
   -8.8394    3.8238   -7.4005 C   0  0  0  0  0  0  0  0  0  0  0  0
   -9.5752    2.5365   -7.3802 N   0  0  0  0  0  0  0  0  0  0  0  0
   -9.2104    1.8622   -8.6526 C   0  0  0  0  0  0  0  0  0  0  0  0
  -10.5811    2.6997   -7.3370 H   0  0  0  0  0  0  0  0  0  0  0  0
   -7.9799    6.5804   -8.7644 C   0  0  0  0  0  0  0  0  0  0  0  0
   -8.8653    7.5883   -8.8732 C   0  0  0  0  0  0  0  0  0  0  0  0
   -8.6614    8.9269   -8.2312 C   0  0  0  0  0  0  0  0  0  0  0  0
   -7.3114    9.1187   -7.7958 O   0  0  0  0  0  0  0  0  0  0  0  0
   -6.8349    7.9971   -7.0516 C   0  0  0  0  0  0  0  0  0  0  0  0
   -6.7316    6.7609   -7.9474 C   0  0  0  0  0  0  0  0  0  0  0  0
 15 16  1  0  0  0
 16  5  1  0  0  0
  5  6  1  0  0  0
  6  7  2  0  0  0
  7  8  1  0  0  0
  8  1  1  0  0  0
  1  2  2  0  0  0
  1  3  1  0  0  0
  3 19  1  0  0  0
 19 20  2  0  0  0
 20 21  1  0  0  0
 21 22  2  0  0  0
 22 23  1  0  0  0
 23 29  1  0  0  0
 29 30  2  0  0  0
 30 31  1  0  0  0
 31 32  1  0  0  0
 32 33  1  0  0  0
 33 34  1  0  0  0
 23 24  2  0  0  0
 22 25  1  0  0  0
 25 26  1  0  0  0
 26 27  1  0  0  0
  8  9  2  0  0  0
  9 10  1  0  0  0
 10 11  1  0  0  0
 10 12  2  0  0  0
 12 13  1  0  0  0
 13 14  2  0  0  0
 14  5  1  0  0  0
 13  7  1  0  0  0
 24 19  1  0  0  0
 27 21  1  0  0  0
 34 29  1  0  0  0
 15 17  1  0  0  0
 15 18  1  0  0  0
  3  4  1  0  0  0
 26 28  1  0  0  0
M  END
> <minimizedAffinity>
-9.20716

> <minimizedRMSD>
0.33457

$$$$
P20783


 34 38  0  0  0  0  0  0  0  0999 V2000
   -7.6252    5.2479  -13.9006 C   0  0  0  0  0  0  0  0  0  0  0  0
   -7.2242    6.3202  -13.6696 O   0  0  0  0  0  0  0  0  0  0  0  0
   -8.0989    4.1275  -12.9454 N   0  0  0  0  0  0  0  0  0  0  0  0
   -8.3215    3.2762  -13.3870 H   0  0  0  0  0  0  0  0  0  0  0  0
   -5.4830    5.1046  -18.0699 N   0  0  0  0  0  0  0  0  0  0  0  0
   -4.5517    5.4390  -17.1400 N   0  0  0  0  0  0  0  0  0  0  0  0
   -5.2305    5.3985  -15.9892 C   0  0  0  0  0  0  0  0  0  0  0  0
   -6.5809    5.0146  -16.1573 C   0  0  0  0  0  0  0  0  0  0  0  0
   -7.7064    4.8368  -15.3225 C   0  0  0  0  0  0  0  0  0  0  0  0
   -8.9192    4.4081  -15.8811 C   0  0  0  0  0  0  0  0  0  0  0  0
   -9.0085    4.1888  -17.2503 C   0  0  0  0  0  0  0  0  0  0  0  0
  -10.1784    3.8093  -17.7825 F   0  0  0  0  0  0  0  0  0  0  0  0
   -7.9250    4.3934  -18.1032 C   0  0  0  0  0  0  0  0  0  0  0  0
   -6.7138    4.8036  -17.5295 C   0  0  0  0  0  0  0  0  0  0  0  0
   -5.1598    5.1839  -19.5030 C   0  0  0  0  0  0  0  0  0  0  0  0
   -3.1174    6.1023  -20.3872 C   0  0  0  0  0  0  0  0  0  0  0  0
   -3.7101    4.9455  -19.7187 N   0  0  0  0  0  0  0  0  0  0  0  0
   -3.2521    4.8020  -18.8187 H   0  0  0  0  0  0  0  0  0  0  0  0
   -8.2620    4.1268  -11.5605 C   0  0  0  0  0  0  0  0  0  0  0  0
   -8.6592    2.9520  -10.9245 C   0  0  0  0  0  0  0  0  0  0  0  0
   -8.8005    2.9625   -9.5439 C   0  0  0  0  0  0  0  0  0  0  0  0
   -8.5710    4.1120   -8.7901 C   0  0  0  0  0  0  0  0  0  0  0  0
   -8.2095    5.3048   -9.4070 C   0  0  0  0  0  0  0  0  0  0  0  0
   -8.0408    5.2878  -10.8054 C   0  0  0  0  0  0  0  0  0  0  0  0
   -8.8382    3.8040   -7.3549 C   0  0  0  0  0  0  0  0  0  0  0  0
   -9.1365    2.3550   -7.2633 N   0  0  0  0  0  0  0  0  0  0  0  0
   -9.2289    1.8461   -8.6547 C   0  0  0  0  0  0  0  0  0  0  0  0
  -10.0210    2.2089   -6.7768 H   0  0  0  0  0  0  0  0  0  0  0  0
   -8.0356    6.5787   -8.6926 C   0  0  0  0  0  0  0  0  0  0  0  0
   -8.8898    7.5987   -8.8974 C   0  0  0  0  0  0  0  0  0  0  0  0
   -8.7387    8.9385   -8.2423 C   0  0  0  0  0  0  0  0  0  0  0  0
   -7.4526    9.1093   -7.6377 O   0  0  0  0  0  0  0  0  0  0  0  0
   -7.0827    7.9736   -6.8557 C   0  0  0  0  0  0  0  0  0  0  0  0
   -6.8738    6.7544   -7.7564 C   0  0  0  0  0  0  0  0  0  0  0  0
 16 17  1  0  0  0
 17 15  1  0  0  0
 15  5  1  0  0  0
  5  6  1  0  0  0
  6  7  2  0  0  0
  7  8  1  0  0  0
  8  9  2  0  0  0
  9  1  1  0  0  0
  1  2  2  0  0  0
  1  3  1  0  0  0
  3 19  1  0  0  0
 19 20  2  0  0  0
 20 21  1  0  0  0
 21 22  2  0  0  0
 22 23  1  0  0  0
 23 29  1  0  0  0
 29 30  2  0  0  0
 30 31  1  0  0  0
 31 32  1  0  0  0
 32 33  1  0  0  0
 33 34  1  0  0  0
 23 24  2  0  0  0
 22 25  1  0  0  0
 25 26  1  0  0  0
 26 27  1  0  0  0
  9 10  1  0  0  0
 10 11  2  0  0  0
 11 12  1  0  0  0
 11 13  1  0  0  0
 13 14  2  0  0  0
 14  5  1  0  0  0
 14  8  1  0  0  0
 24 19  1  0  0  0
 27 21  1  0  0  0
 34 29  1  0  0  0
 17 18  1  0  0  0
  3  4  1  0  0  0
 26 28  1  0  0  0
M  END
> <minimizedAffinity>
-9.20256

> <minimizedRMSD>
0.16873

$$$$
P20784


 37 42  0  0  0  0  0  0  0  0999 V2000
   -9.3826    5.9439  -14.0017 O   0  0  0  0  0  0  0  0  0  0  0  0
   -8.7463    4.9744  -14.1277 C   0  0  0  0  0  0  0  0  0  0  0  0
   -8.2376    3.9712  -13.0777 N   0  0  0  0  0  0  0  0  0  0  0  0
   -7.7796    3.1829  -13.4490 H   0  0  0  0  0  0  0  0  0  0  0  0
   -8.3156    4.6282  -15.4958 C   0  0  0  0  0  0  0  0  0  0  0  0
   -9.2143    4.1960  -16.4655 C   0  0  0  0  0  0  0  0  0  0  0  0
   -8.7911    4.1438  -17.7969 C   0  0  0  0  0  0  0  0  0  0  0  0
   -9.6713    3.7436  -18.7268 F   0  0  0  0  0  0  0  0  0  0  0  0
   -7.5054    4.5631  -18.1872 C   0  0  0  0  0  0  0  0  0  0  0  0
   -6.6181    4.9988  -17.2121 C   0  0  0  0  0  0  0  0  0  0  0  0
   -7.0179    4.9542  -15.8726 C   0  0  0  0  0  0  0  0  0  0  0  0
   -5.8825    5.3552  -14.9899 C   0  0  0  0  0  0  0  0  0  0  0  0
   -4.6990    5.3163  -15.8814 N   0  0  0  0  0  0  0  0  0  0  0  0
   -5.2312    5.6261  -17.2453 C   0  0  0  0  0  0  0  0  0  0  0  0
   -4.2195    5.1259  -18.2808 C   0  0  0  0  0  0  0  0  0  0  0  0
   -4.4247    5.7210  -19.6740 C   0  0  0  0  0  0  0  0  0  0  0  0
   -4.6599    7.2286  -19.6793 C   0  0  0  0  0  0  0  0  0  0  0  0
   -5.7109    7.6152  -18.7352 N   0  0  0  0  0  0  0  0  0  0  0  0
   -5.2940    7.1809  -17.3871 C   0  0  0  0  0  0  0  0  0  0  0  0
   -4.2688    4.3916  -15.8659 H   0  0  0  0  0  0  0  0  0  0  0  0
   -6.5885    7.1616  -18.9892 H   0  0  0  0  0  0  0  0  0  0  0  0
   -8.3196    3.9968  -11.6889 C   0  0  0  0  0  0  0  0  0  0  0  0
   -8.7242    2.8598  -10.9997 C   0  0  0  0  0  0  0  0  0  0  0  0
   -8.8247    2.9408   -9.6207 C   0  0  0  0  0  0  0  0  0  0  0  0
   -8.5176    4.1136   -8.9213 C   0  0  0  0  0  0  0  0  0  0  0  0
   -8.0955    5.2547   -9.5890 C   0  0  0  0  0  0  0  0  0  0  0  0
   -8.0015    5.1722  -10.9886 C   0  0  0  0  0  0  0  0  0  0  0  0
   -8.7581    3.8602   -7.4685 C   0  0  0  0  0  0  0  0  0  0  0  0
   -9.5673    2.6194   -7.4031 N   0  0  0  0  0  0  0  0  0  0  0  0
   -9.2486    1.8850   -8.6542 C   0  0  0  0  0  0  0  0  0  0  0  0
  -10.5619    2.8419   -7.3617 H   0  0  0  0  0  0  0  0  0  0  0  0
   -7.7682    6.5330   -8.9379 C   0  0  0  0  0  0  0  0  0  0  0  0
   -8.7093    7.4819   -8.7730 C   0  0  0  0  0  0  0  0  0  0  0  0
   -8.4150    8.8348   -8.2008 C   0  0  0  0  0  0  0  0  0  0  0  0
   -7.0123    9.1179   -8.1763 O   0  0  0  0  0  0  0  0  0  0  0  0
   -6.2683    8.0369   -7.6142 C   0  0  0  0  0  0  0  0  0  0  0  0
   -6.3523    6.7986   -8.5097 C   0  0  0  0  0  0  0  0  0  0  0  0
  1  2  2  0  0  0
  2  3  1  0  0  0
  3 22  1  0  0  0
 22 23  2  0  0  0
 23 24  1  0  0  0
 24 25  2  0  0  0
 25 26  1  0  0  0
 26 32  1  0  0  0
 32 33  2  0  0  0
 33 34  1  0  0  0
 34 35  1  0  0  0
 35 36  1  0  0  0
 36 37  1  0  0  0
 26 27  2  0  0  0
 25 28  1  0  0  0
 28 29  1  0  0  0
 29 30  1  0  0  0
  2  5  1  0  0  0
  5  6  2  0  0  0
  6  7  1  0  0  0
  7  8  1  0  0  0
  7  9  2  0  0  0
  9 10  1  0  0  0
 10 11  2  0  0  0
 11 12  1  0  0  0
 12 13  1  0  0  0
 13 14  1  0  0  0
 14 15  1  0  0  0
 15 16  1  0  0  0
 16 17  1  0  0  0
 17 18  1  0  0  0
 18 19  1  0  0  0
 27 22  1  0  0  0
 11  5  1  0  0  0
 19 14  1  0  0  0
 30 24  1  0  0  0
 14 10  1  0  0  0
 37 32  1  0  0  0
  3  4  1  0  0  0
 29 31  1  0  0  0
 13 20  1  0  0  0
 18 21  1  0  0  0
M  END
> <minimizedAffinity>
-11.28470

> <minimizedRMSD>
0.71192

$$$$
P20786


 37 41  0  0  0  0  0  0  0  0999 V2000
   -8.6854    5.0314  -14.0823 C   0  0  0  0  0  0  0  0  0  0  0  0
   -9.5134    5.8476  -13.9852 O   0  0  0  0  0  0  0  0  0  0  0  0
   -8.0364    4.1333  -13.0097 N   0  0  0  0  0  0  0  0  0  0  0  0
   -7.4068    3.4624  -13.3600 H   0  0  0  0  0  0  0  0  0  0  0  0
   -8.1959    4.1167  -11.6259 C   0  0  0  0  0  0  0  0  0  0  0  0
   -8.5859    2.9337  -11.0033 C   0  0  0  0  0  0  0  0  0  0  0  0
   -8.7930    2.9546   -9.6343 C   0  0  0  0  0  0  0  0  0  0  0  0
   -8.5924    4.1115   -8.8753 C   0  0  0  0  0  0  0  0  0  0  0  0
   -8.1787    5.2961   -9.4711 C   0  0  0  0  0  0  0  0  0  0  0  0
   -7.9887    5.2786  -10.8653 C   0  0  0  0  0  0  0  0  0  0  0  0
   -8.9210    3.7918   -7.4529 C   0  0  0  0  0  0  0  0  0  0  0  0
   -9.6772    2.5170   -7.4880 N   0  0  0  0  0  0  0  0  0  0  0  0
   -9.2444    1.8460   -8.7412 C   0  0  0  0  0  0  0  0  0  0  0  0
  -10.6811    2.6962   -7.5059 H   0  0  0  0  0  0  0  0  0  0  0  0
   -7.9576    6.5540   -8.7402 C   0  0  0  0  0  0  0  0  0  0  0  0
   -8.8299    7.5738   -8.8439 C   0  0  0  0  0  0  0  0  0  0  0  0
   -8.6190    8.9005   -8.1799 C   0  0  0  0  0  0  0  0  0  0  0  0
   -7.2734    9.0713   -7.7235 O   0  0  0  0  0  0  0  0  0  0  0  0
   -6.8188    7.9332   -6.9910 C   0  0  0  0  0  0  0  0  0  0  0  0
   -6.7173    6.7101   -7.9050 C   0  0  0  0  0  0  0  0  0  0  0  0
   -6.4490    5.1489  -17.1547 C   0  0  0  0  0  0  0  0  0  0  0  0
   -7.3601    4.6339  -18.0990 C   0  0  0  0  0  0  0  0  0  0  0  0
   -8.6049    4.1516  -17.6993 C   0  0  0  0  0  0  0  0  0  0  0  0
   -9.4464    3.6561  -18.6153 F   0  0  0  0  0  0  0  0  0  0  0  0
   -9.0061    4.2161  -16.3787 C   0  0  0  0  0  0  0  0  0  0  0  0
   -8.1329    4.7552  -15.4340 C   0  0  0  0  0  0  0  0  0  0  0  0
   -6.8256    5.1793  -15.7842 C   0  0  0  0  0  0  0  0  0  0  0  0
   -5.8931    5.6318  -14.6867 C   0  0  0  0  0  0  0  0  0  0  0  0
   -3.1579    5.5667  -18.2580 C   0  0  0  0  0  0  0  0  0  0  0  0
   -3.5721    6.8280  -18.5666 N   0  0  0  0  0  0  0  0  0  0  0  0
   -4.8026    6.8389  -18.0986 C   0  0  0  0  0  0  0  0  0  0  0  0
   -5.1668    5.6035  -17.6071 N   0  0  0  0  0  0  0  0  0  0  0  0
   -4.0698    4.8105  -17.6452 N   0  0  0  0  0  0  0  0  0  0  0  0
   -1.8051    5.0637  -18.6117 C   0  0  0  0  0  0  0  0  0  0  0  0
   -0.6849    5.6533  -17.7520 C   0  0  0  0  0  0  0  0  0  0  0  0
    0.0444    6.8651  -19.8830 C   0  0  0  0  0  0  0  0  0  0  0  0
    0.4570    6.3262  -18.5218 C   0  0  0  0  0  0  0  0  0  0  0  0
 36 37  1  0  0  0
 37 35  1  0  0  0
 35 34  1  0  0  0
 34 29  1  0  0  0
 29 30  1  0  0  0
 30 31  2  0  0  0
 31 32  1  0  0  0
 32 21  1  0  0  0
 21 22  2  0  0  0
 22 23  1  0  0  0
 23 24  1  0  0  0
 23 25  2  0  0  0
 25 26  1  0  0  0
 26  1  1  0  0  0
  1  2  2  0  0  0
  1  3  1  0  0  0
  3  5  1  0  0  0
  5  6  2  0  0  0
  6  7  1  0  0  0
  7  8  2  0  0  0
  8  9  1  0  0  0
  9 15  1  0  0  0
 15 16  2  0  0  0
 16 17  1  0  0  0
 17 18  1  0  0  0
 18 19  1  0  0  0
 19 20  1  0  0  0
  9 10  2  0  0  0
  8 11  1  0  0  0
 11 12  1  0  0  0
 12 13  1  0  0  0
 26 27  2  0  0  0
 27 28  1  0  0  0
 32 33  1  0  0  0
 33 29  2  0  0  0
 27 21  1  0  0  0
 10  5  1  0  0  0
 13  7  1  0  0  0
 20 15  1  0  0  0
  3  4  1  0  0  0
 12 14  1  0  0  0
M  END
> <minimizedAffinity>
-8.96980

> <minimizedRMSD>
1.12573

$$$$
P20788


 36 41  0  0  0  0  0  0  0  0999 V2000
   -9.3910    5.9744  -13.9859 O   0  0  0  0  0  0  0  0  0  0  0  0
   -8.6934    5.0442  -14.0899 C   0  0  0  0  0  0  0  0  0  0  0  0
   -8.0773    4.1325  -13.0125 N   0  0  0  0  0  0  0  0  0  0  0  0
   -7.4542    3.4519  -13.3557 H   0  0  0  0  0  0  0  0  0  0  0  0
   -8.2823    4.6715  -15.4587 C   0  0  0  0  0  0  0  0  0  0  0  0
   -9.1805    4.1991  -16.4110 C   0  0  0  0  0  0  0  0  0  0  0  0
   -8.7648    4.1076  -17.7433 C   0  0  0  0  0  0  0  0  0  0  0  0
   -9.6285    3.6359  -18.6539 F   0  0  0  0  0  0  0  0  0  0  0  0
   -7.5068    4.5721  -18.1594 C   0  0  0  0  0  0  0  0  0  0  0  0
   -6.6281    5.0638  -17.2067 C   0  0  0  0  0  0  0  0  0  0  0  0
   -6.9932    4.9946  -15.8595 C   0  0  0  0  0  0  0  0  0  0  0  0
   -5.7994    5.2740  -15.0070 C   0  0  0  0  0  0  0  0  0  0  0  0
   -4.6698    5.1618  -15.9631 N   0  0  0  0  0  0  0  0  0  0  0  0
   -5.2196    5.6343  -17.2751 C   0  0  0  0  0  0  0  0  0  0  0  0
   -5.1768    7.1785  -17.1886 C   0  0  0  0  0  0  0  0  0  0  0  0
   -5.2547    7.8167  -18.5451 C   0  0  0  0  0  0  0  0  0  0  0  0
   -4.1012    7.4333  -19.2665 O   0  0  0  0  0  0  0  0  0  0  0  0
   -4.2076    6.0675  -19.6345 C   0  0  0  0  0  0  0  0  0  0  0  0
   -4.3802    5.1208  -18.4474 C   0  0  0  0  0  0  0  0  0  0  0  0
   -4.3557    4.1940  -16.0343 H   0  0  0  0  0  0  0  0  0  0  0  0
   -8.2577    4.1140  -11.6335 C   0  0  0  0  0  0  0  0  0  0  0  0
   -8.6662    2.9417  -11.0084 C   0  0  0  0  0  0  0  0  0  0  0  0
   -8.8205    2.9604   -9.6321 C   0  0  0  0  0  0  0  0  0  0  0  0
   -8.5942    4.1156   -8.8759 C   0  0  0  0  0  0  0  0  0  0  0  0
   -8.1979    5.2997   -9.4819 C   0  0  0  0  0  0  0  0  0  0  0  0
   -8.0205    5.2728  -10.8759 C   0  0  0  0  0  0  0  0  0  0  0  0
   -8.8708    3.7916   -7.4434 C   0  0  0  0  0  0  0  0  0  0  0  0
   -9.6030    2.5020   -7.4523 N   0  0  0  0  0  0  0  0  0  0  0  0
   -9.2107    1.8429   -8.7232 C   0  0  0  0  0  0  0  0  0  0  0  0
  -10.6101    2.6620   -7.4279 H   0  0  0  0  0  0  0  0  0  0  0  0
   -7.9830    6.5688   -8.7697 C   0  0  0  0  0  0  0  0  0  0  0  0
   -8.8682    7.5769   -8.8838 C   0  0  0  0  0  0  0  0  0  0  0  0
   -8.6676    8.9169   -8.2444 C   0  0  0  0  0  0  0  0  0  0  0  0
   -7.3172    9.1118   -7.8125 O   0  0  0  0  0  0  0  0  0  0  0  0
   -6.8402    7.9950   -7.0613 C   0  0  0  0  0  0  0  0  0  0  0  0
   -6.7386    6.7514   -7.9477 C   0  0  0  0  0  0  0  0  0  0  0  0
  1  2  2  0  0  0
  2  3  1  0  0  0
  3 21  1  0  0  0
 21 22  2  0  0  0
 22 23  1  0  0  0
 23 24  2  0  0  0
 24 25  1  0  0  0
 25 31  1  0  0  0
 31 32  2  0  0  0
 32 33  1  0  0  0
 33 34  1  0  0  0
 34 35  1  0  0  0
 35 36  1  0  0  0
 25 26  2  0  0  0
 24 27  1  0  0  0
 27 28  1  0  0  0
 28 29  1  0  0  0
  2  5  1  0  0  0
  5  6  2  0  0  0
  6  7  1  0  0  0
  7  8  1  0  0  0
  7  9  2  0  0  0
  9 10  1  0  0  0
 10 11  2  0  0  0
 11 12  1  0  0  0
 12 13  1  0  0  0
 13 14  1  0  0  0
 14 15  1  0  0  0
 15 16  1  0  0  0
 16 17  1  0  0  0
 17 18  1  0  0  0
 18 19  1  0  0  0
 26 21  1  0  0  0
 11  5  1  0  0  0
 19 14  1  0  0  0
 29 23  1  0  0  0
 14 10  1  0  0  0
 36 31  1  0  0  0
  3  4  1  0  0  0
 28 30  1  0  0  0
 13 20  1  0  0  0
M  END
> <minimizedAffinity>
-10.83319

> <minimizedRMSD>
0.70785

$$$$
P20789


 38 42  0  0  0  0  0  0  0  0999 V2000
   -8.2402    3.8688  -12.7358 N   0  0  0  0  0  0  0  0  0  0  0  0
   -8.8771    3.3738  -13.3002 H   0  0  0  0  0  0  0  0  0  0  0  0
   -8.3143    5.2218   -9.2275 C   0  0  0  0  0  0  0  0  0  0  0  0
   -8.1456    5.1340  -10.6255 C   0  0  0  0  0  0  0  0  0  0  0  0
   -8.3404    3.9286  -11.3227 C   0  0  0  0  0  0  0  0  0  0  0  0
   -8.6849    2.7739  -10.6101 C   0  0  0  0  0  0  0  0  0  0  0  0
   -8.8308    2.8496   -9.2382 C   0  0  0  0  0  0  0  0  0  0  0  0
   -8.6469    4.0457   -8.5547 C   0  0  0  0  0  0  0  0  0  0  0  0
   -8.9648    3.8202   -7.1127 C   0  0  0  0  0  0  0  0  0  0  0  0
   -9.2191    2.3715   -6.9433 N   0  0  0  0  0  0  0  0  0  0  0  0
   -9.2652    1.7768   -8.3022 C   0  0  0  0  0  0  0  0  0  0  0  0
  -10.1091    2.2255   -6.4668 H   0  0  0  0  0  0  0  0  0  0  0  0
   -7.3375    7.9532   -6.8419 C   0  0  0  0  0  0  0  0  0  0  0  0
   -7.3797    6.7075   -7.4480 C   0  0  0  0  0  0  0  0  0  0  0  0
   -8.2169    6.5200   -8.5495 C   0  0  0  0  0  0  0  0  0  0  0  0
   -8.9731    7.6149   -8.9857 C   0  0  0  0  0  0  0  0  0  0  0  0
   -8.8669    8.8199   -8.3121 C   0  0  0  0  0  0  0  0  0  0  0  0
   -8.0478    9.0201   -7.2604 N   0  0  0  0  0  0  0  0  0  0  0  0
   -7.0382    8.8716   -4.7147 C   0  0  0  0  0  0  0  0  0  0  0  0
   -6.4885    8.0724   -5.7569 O   0  0  0  0  0  0  0  0  0  0  0  0
   -7.0741    4.6297  -13.2898 C   0  0  0  0  0  0  0  0  0  0  0  0
   -7.1944    4.7461  -14.8288 C   0  0  0  0  0  0  0  0  0  0  0  0
   -8.3324    4.2636  -15.5260 C   0  0  0  0  0  0  0  0  0  0  0  0
   -8.4447    4.3035  -16.9132 C   0  0  0  0  0  0  0  0  0  0  0  0
   -9.5421    3.8125  -17.5005 F   0  0  0  0  0  0  0  0  0  0  0  0
   -7.4574    4.8572  -17.7057 C   0  0  0  0  0  0  0  0  0  0  0  0
   -6.3684    5.4287  -17.0415 C   0  0  0  0  0  0  0  0  0  0  0  0
   -6.2267    5.3971  -15.6502 C   0  0  0  0  0  0  0  0  0  0  0  0
   -5.0178    6.1040  -15.4346 C   0  0  0  0  0  0  0  0  0  0  0  0
   -4.4677    6.5680  -16.5574 N   0  0  0  0  0  0  0  0  0  0  0  0
   -5.2616    6.0907  -17.5219 N   0  0  0  0  0  0  0  0  0  0  0  0
   -5.0001    6.3661  -18.8703 N   0  0  0  0  0  0  0  0  0  0  0  0
   -4.1148    6.8663  -18.9497 H   0  0  0  0  0  0  0  0  0  0  0  0
   -5.7511    6.9415  -19.2517 H   0  0  0  0  0  0  0  0  0  0  0  0
   -5.6937    4.0933  -12.7572 C   0  0  0  0  0  0  0  0  0  0  0  0
   -4.8555    3.7430  -13.7485 F   0  0  0  0  0  0  0  0  0  0  0  0
   -5.8062    3.0476  -11.9121 F   0  0  0  0  0  0  0  0  0  0  0  0
   -5.0421    5.0654  -12.0704 F   0  0  0  0  0  0  0  0  0  0  0  0
 19 20  1  0  0  0
 20 13  1  0  0  0
 13 14  2  0  0  0
 14 15  1  0  0  0
 15  3  1  0  0  0
  3  4  2  0  0  0
  4  5  1  0  0  0
  5  1  1  0  0  0
 21  1  1  0  0  0
 21 22  1  0  0  0
 22 23  2  0  0  0
 23 24  1  0  0  0
 24 25  1  0  0  0
 24 26  2  0  0  0
 26 27  1  0  0  0
 27 28  2  0  0  0
 28 29  1  0  0  0
 29 30  2  0  0  0
 30 31  1  0  0  0
 31 32  1  0  0  0
 21 35  1  0  0  0
 35 36  1  0  0  0
 35 37  1  0  0  0
 35 38  1  0  0  0
  5  6  2  0  0  0
  6  7  1  0  0  0
  7  8  2  0  0  0
  8  9  1  0  0  0
  9 10  1  0  0  0
 10 11  1  0  0  0
 15 16  2  0  0  0
 16 17  1  0  0  0
 17 18  2  0  0  0
 18 13  1  0  0  0
  8  3  1  0  0  0
 28 22  1  0  0  0
 11  7  1  0  0  0
 31 27  1  0  0  0
  1  2  1  0  0  0
 32 33  1  0  0  0
 32 34  1  0  0  0
 10 12  1  0  0  0
M  END
> <minimizedAffinity>
-8.54928

> <minimizedRMSD>
0.72359

$$$$
P20790


 34 38  0  0  0  0  0  0  0  0999 V2000
   -8.2046    5.3413   -9.4708 C   0  0  0  0  0  0  0  0  0  0  0  0
   -8.0911    5.3139  -10.8752 C   0  0  0  0  0  0  0  0  0  0  0  0
   -8.3336    4.1461  -11.6147 C   0  0  0  0  0  0  0  0  0  0  0  0
   -8.6975    2.9701  -10.9630 C   0  0  0  0  0  0  0  0  0  0  0  0
   -8.7894    2.9867   -9.5807 C   0  0  0  0  0  0  0  0  0  0  0  0
   -8.5376    4.1419   -8.8444 C   0  0  0  0  0  0  0  0  0  0  0  0
   -8.7435    3.8429   -7.3958 C   0  0  0  0  0  0  0  0  0  0  0  0
   -9.0286    2.3942   -7.2859 N   0  0  0  0  0  0  0  0  0  0  0  0
   -9.1800    1.8754   -8.6688 C   0  0  0  0  0  0  0  0  0  0  0  0
   -9.8897    2.2456   -6.7598 H   0  0  0  0  0  0  0  0  0  0  0  0
   -6.7749    8.0070   -7.2422 C   0  0  0  0  0  0  0  0  0  0  0  0
   -6.9113    6.7939   -7.8991 C   0  0  0  0  0  0  0  0  0  0  0  0
   -8.0091    6.5995   -8.7397 C   0  0  0  0  0  0  0  0  0  0  0  0
   -8.9195    7.6549   -8.8739 C   0  0  0  0  0  0  0  0  0  0  0  0
   -8.7005    8.8292   -8.1733 C   0  0  0  0  0  0  0  0  0  0  0  0
   -7.6352    9.0368   -7.3739 N   0  0  0  0  0  0  0  0  0  0  0  0
   -6.0146    8.3597   -5.0624 C   0  0  0  0  0  0  0  0  0  0  0  0
   -5.6668    8.1338   -6.4244 O   0  0  0  0  0  0  0  0  0  0  0  0
   -8.2215    4.1386  -13.0025 N   0  0  0  0  0  0  0  0  0  0  0  0
   -7.5714    5.1594  -13.9621 C   0  0  0  0  0  0  0  0  0  0  0  0
   -6.9607    6.1283  -13.7357 O   0  0  0  0  0  0  0  0  0  0  0  0
   -8.6218    3.3550  -13.4441 H   0  0  0  0  0  0  0  0  0  0  0  0
   -7.7782    4.7811  -15.3685 C   0  0  0  0  0  0  0  0  0  0  0  0
   -9.0111    4.3280  -15.8763 C   0  0  0  0  0  0  0  0  0  0  0  0
   -9.2408    4.1137  -17.2651 C   0  0  0  0  0  0  0  0  0  0  0  0
  -10.4653    3.7140  -17.6362 F   0  0  0  0  0  0  0  0  0  0  0  0
   -8.2813    4.3167  -18.2727 C   0  0  0  0  0  0  0  0  0  0  0  0
   -7.0324    4.7349  -17.7874 C   0  0  0  0  0  0  0  0  0  0  0  0
   -5.8862    4.9826  -18.4432 N   0  0  0  0  0  0  0  0  0  0  0  0
   -5.0120    5.2906  -17.4821 N   0  0  0  0  0  0  0  0  0  0  0  0
   -5.5128    5.3200  -16.2224 C   0  0  0  0  0  0  0  0  0  0  0  0
   -6.8243    4.9557  -16.3728 C   0  0  0  0  0  0  0  0  0  0  0  0
   -3.6672    5.4421  -17.8032 O   0  0  0  0  0  0  0  0  0  0  0  0
   -3.4567    4.9286  -19.1113 C   0  0  0  0  0  0  0  0  0  0  0  0
 17 18  1  0  0  0
 18 11  1  0  0  0
 11 12  2  0  0  0
 12 13  1  0  0  0
 13  1  1  0  0  0
  1  2  2  0  0  0
  2  3  1  0  0  0
  3 19  1  0  0  0
 19 20  1  0  0  0
 20 21  2  0  0  0
 20 23  1  0  0  0
 23 24  2  0  0  0
 24 25  1  0  0  0
 25 26  1  0  0  0
 25 27  2  0  0  0
 27 28  1  0  0  0
 28 29  2  0  0  0
 29 30  1  0  0  0
 30 33  1  0  0  0
 33 34  1  0  0  0
 30 31  1  0  0  0
 31 32  2  0  0  0
  3  4  2  0  0  0
  4  5  1  0  0  0
  5  6  2  0  0  0
  6  7  1  0  0  0
  7  8  1  0  0  0
  8  9  1  0  0  0
 13 14  2  0  0  0
 14 15  1  0  0  0
 15 16  2  0  0  0
 16 11  1  0  0  0
  6  1  1  0  0  0
 32 23  1  0  0  0
  9  5  1  0  0  0
 32 28  1  0  0  0
 19 22  1  0  0  0
  8 10  1  0  0  0
M  END
> <minimizedAffinity>
-8.90514

> <minimizedRMSD>
0.49636

$$$$
P20793


 36 40  0  0  0  0  0  0  0  0999 V2000
   -8.2935    5.2803   -9.4066 C   0  0  0  0  0  0  0  0  0  0  0  0
   -8.1000    5.2782  -10.8044 C   0  0  0  0  0  0  0  0  0  0  0  0
   -8.2622    4.1135  -11.5712 C   0  0  0  0  0  0  0  0  0  0  0  0
   -8.6258    2.9181  -10.9513 C   0  0  0  0  0  0  0  0  0  0  0  0
   -8.7920    2.9098   -9.5752 C   0  0  0  0  0  0  0  0  0  0  0  0
   -8.6189    4.0613   -8.8131 C   0  0  0  0  0  0  0  0  0  0  0  0
   -8.8847    3.7356   -7.3798 C   0  0  0  0  0  0  0  0  0  0  0  0
   -9.1419    2.2799   -7.3028 N   0  0  0  0  0  0  0  0  0  0  0  0
   -9.1875    1.7723   -8.6974 C   0  0  0  0  0  0  0  0  0  0  0  0
  -10.0326    2.1058   -6.8374 H   0  0  0  0  0  0  0  0  0  0  0  0
   -7.2808    7.8456   -6.8542 C   0  0  0  0  0  0  0  0  0  0  0  0
   -7.3345    6.6431   -7.5419 C   0  0  0  0  0  0  0  0  0  0  0  0
   -8.1876    6.5296   -8.6419 C   0  0  0  0  0  0  0  0  0  0  0  0
   -8.9463    7.6519   -8.9936 C   0  0  0  0  0  0  0  0  0  0  0  0
   -8.8278    8.8098   -8.2426 C   0  0  0  0  0  0  0  0  0  0  0  0
   -7.9956    8.9382   -7.1901 N   0  0  0  0  0  0  0  0  0  0  0  0
   -7.1007    7.8085   -4.5260 C   0  0  0  0  0  0  0  0  0  0  0  0
   -6.4191    7.8899   -5.7734 O   0  0  0  0  0  0  0  0  0  0  0  0
   -8.0811    4.1209  -12.9543 N   0  0  0  0  0  0  0  0  0  0  0  0
   -7.5687    5.2376  -13.8948 C   0  0  0  0  0  0  0  0  0  0  0  0
   -7.1456    6.2986  -13.6501 O   0  0  0  0  0  0  0  0  0  0  0  0
   -8.3180    3.2785  -13.4055 H   0  0  0  0  0  0  0  0  0  0  0  0
   -7.6661    4.8428  -15.3235 C   0  0  0  0  0  0  0  0  0  0  0  0
   -8.8856    4.4118  -15.8628 C   0  0  0  0  0  0  0  0  0  0  0  0
   -8.9972    4.1964  -17.2297 C   0  0  0  0  0  0  0  0  0  0  0  0
  -10.1773    3.8208  -17.7366 F   0  0  0  0  0  0  0  0  0  0  0  0
   -7.9291    4.3969  -18.1035 C   0  0  0  0  0  0  0  0  0  0  0  0
   -6.7119    4.8237  -17.5544 C   0  0  0  0  0  0  0  0  0  0  0  0
   -6.5609    5.0389  -16.1825 C   0  0  0  0  0  0  0  0  0  0  0  0
   -5.2162    5.4479  -16.0387 C   0  0  0  0  0  0  0  0  0  0  0  0
   -4.5579    5.4995  -17.2002 N   0  0  0  0  0  0  0  0  0  0  0  0
   -5.4909    5.1353  -18.1148 N   0  0  0  0  0  0  0  0  0  0  0  0
   -5.1443    5.1271  -19.5429 C   0  0  0  0  0  0  0  0  0  0  0  0
   -3.6854    4.8980  -19.7134 N   0  0  0  0  0  0  0  0  0  0  0  0
   -3.1675    5.6458  -19.2519 H   0  0  0  0  0  0  0  0  0  0  0  0
   -3.4565    4.8892  -20.7074 H   0  0  0  0  0  0  0  0  0  0  0  0
 17 18  1  0  0  0
 18 11  1  0  0  0
 11 12  2  0  0  0
 12 13  1  0  0  0
 13  1  1  0  0  0
  1  2  2  0  0  0
  2  3  1  0  0  0
  3 19  1  0  0  0
 19 20  1  0  0  0
 20 21  2  0  0  0
 20 23  1  0  0  0
 23 24  2  0  0  0
 24 25  1  0  0  0
 25 26  1  0  0  0
 25 27  2  0  0  0
 27 28  1  0  0  0
 28 29  2  0  0  0
 29 30  1  0  0  0
 30 31  2  0  0  0
 31 32  1  0  0  0
 32 33  1  0  0  0
 33 34  1  0  0  0
  3  4  2  0  0  0
  4  5  1  0  0  0
  5  6  2  0  0  0
  6  7  1  0  0  0
  7  8  1  0  0  0
  8  9  1  0  0  0
 13 14  2  0  0  0
 14 15  1  0  0  0
 15 16  2  0  0  0
 16 11  1  0  0  0
  6  1  1  0  0  0
 29 23  1  0  0  0
  9  5  1  0  0  0
 32 28  1  0  0  0
 19 22  1  0  0  0
 34 35  1  0  0  0
 34 36  1  0  0  0
  8 10  1  0  0  0
M  END
> <minimizedAffinity>
-9.24992

> <minimizedRMSD>
0.48125

$$$$
P20794


 38 43  0  0  0  0  0  0  0  0999 V2000
   -8.1645    4.0569  -12.8951 N   0  0  0  0  0  0  0  0  0  0  0  0
   -7.7712    5.2161  -13.8324 C   0  0  0  0  0  0  0  0  0  0  0  0
   -7.4574    6.3134  -13.5882 O   0  0  0  0  0  0  0  0  0  0  0  0
   -8.3159    3.1952  -13.3465 H   0  0  0  0  0  0  0  0  0  0  0  0
   -7.7585    4.8109  -15.2608 C   0  0  0  0  0  0  0  0  0  0  0  0
   -8.8892    4.2637  -15.8642 C   0  0  0  0  0  0  0  0  0  0  0  0
   -8.9109    4.1039  -17.2516 C   0  0  0  0  0  0  0  0  0  0  0  0
  -10.0089    3.5907  -17.8235 F   0  0  0  0  0  0  0  0  0  0  0  0
   -7.8463    4.5216  -18.0594 C   0  0  0  0  0  0  0  0  0  0  0  0
   -6.7255    5.0874  -17.4645 C   0  0  0  0  0  0  0  0  0  0  0  0
   -6.6689    5.1677  -16.0600 C   0  0  0  0  0  0  0  0  0  0  0  0
   -5.3451    5.6842  -15.5780 C   0  0  0  0  0  0  0  0  0  0  0  0
   -4.5839    5.9171  -16.8648 C   0  0  0  0  0  0  0  0  0  0  0  0
   -3.4194    6.3027  -16.9044 O   0  0  0  0  0  0  0  0  0  0  0  0
   -5.5051    5.7143  -18.1055 C   0  0  0  0  0  0  0  0  0  0  0  0
   -4.7866    4.9227  -19.1825 C   0  0  0  0  0  0  0  0  0  0  0  0
   -4.0667    5.9898  -19.9812 C   0  0  0  0  0  0  0  0  0  0  0  0
   -5.0833    7.1015  -20.0081 C   0  0  0  0  0  0  0  0  0  0  0  0
   -5.7605    7.0691  -18.6992 N   0  0  0  0  0  0  0  0  0  0  0  0
   -6.7627    7.2153  -18.8197 H   0  0  0  0  0  0  0  0  0  0  0  0
   -8.3142    5.2062   -9.3513 C   0  0  0  0  0  0  0  0  0  0  0  0
   -8.1655    5.1971  -10.7517 C   0  0  0  0  0  0  0  0  0  0  0  0
   -8.3404    4.0301  -11.5139 C   0  0  0  0  0  0  0  0  0  0  0  0
   -8.6773    2.8342  -10.8882 C   0  0  0  0  0  0  0  0  0  0  0  0
   -8.8222    2.8354   -9.5094 C   0  0  0  0  0  0  0  0  0  0  0  0
   -8.6348    3.9907   -8.7516 C   0  0  0  0  0  0  0  0  0  0  0  0
   -8.8461    3.6588   -7.3105 C   0  0  0  0  0  0  0  0  0  0  0  0
   -9.3298    2.2617   -7.2555 N   0  0  0  0  0  0  0  0  0  0  0  0
   -9.1638    1.6921   -8.6160 C   0  0  0  0  0  0  0  0  0  0  0  0
  -10.3130    2.2416   -6.9847 H   0  0  0  0  0  0  0  0  0  0  0  0
   -7.0630    7.8088   -6.9456 C   0  0  0  0  0  0  0  0  0  0  0  0
   -7.1896    6.5922   -7.5985 C   0  0  0  0  0  0  0  0  0  0  0  0
   -8.1492    6.4604   -8.6043 C   0  0  0  0  0  0  0  0  0  0  0  0
   -8.9388    7.5796   -8.8975 C   0  0  0  0  0  0  0  0  0  0  0  0
   -8.7417    8.7520   -8.1870 C   0  0  0  0  0  0  0  0  0  0  0  0
   -7.8046    8.8984   -7.2293 N   0  0  0  0  0  0  0  0  0  0  0  0
   -6.0725    9.1283   -5.2927 C   0  0  0  0  0  0  0  0  0  0  0  0
   -6.0933    7.8713   -5.9610 O   0  0  0  0  0  0  0  0  0  0  0  0
 37 38  1  0  0  0
 38 31  1  0  0  0
 31 32  2  0  0  0
 32 33  1  0  0  0
 33 21  1  0  0  0
 21 22  2  0  0  0
 22 23  1  0  0  0
 23  1  1  0  0  0
  1  2  1  0  0  0
  2  3  2  0  0  0
  2  5  1  0  0  0
  5  6  2  0  0  0
  6  7  1  0  0  0
  7  8  1  0  0  0
  7  9  2  0  0  0
  9 10  1  0  0  0
 10 11  2  0  0  0
 11 12  1  0  0  0
 12 13  1  0  0  0
 13 14  2  0  0  0
 13 15  1  0  0  0
 15 16  1  0  0  0
 16 17  1  0  0  0
 17 18  1  0  0  0
 18 19  1  0  0  0
 23 24  2  0  0  0
 24 25  1  0  0  0
 25 26  2  0  0  0
 26 27  1  0  0  0
 27 28  1  0  0  0
 28 29  1  0  0  0
 33 34  2  0  0  0
 34 35  1  0  0  0
 35 36  2  0  0  0
 36 31  1  0  0  0
 26 21  1  0  0  0
 11  5  1  0  0  0
 19 15  1  0  0  0
 29 25  1  0  0  0
 15 10  1  0  0  0
  1  4  1  0  0  0
 19 20  1  0  0  0
 28 30  1  0  0  0
M  END
> <minimizedAffinity>
-10.32128

> <minimizedRMSD>
0.22309

$$$$
P20795


 35 39  0  0  0  0  0  0  0  0999 V2000
   -8.3307    5.3525   -9.5105 C   0  0  0  0  0  0  0  0  0  0  0  0
   -8.1575    5.3288  -10.9122 C   0  0  0  0  0  0  0  0  0  0  0  0
   -8.2654    4.1393  -11.6517 C   0  0  0  0  0  0  0  0  0  0  0  0
   -8.5314    2.9350  -10.9993 C   0  0  0  0  0  0  0  0  0  0  0  0
   -8.6895    2.9492   -9.6243 C   0  0  0  0  0  0  0  0  0  0  0  0
   -8.5945    4.1320   -8.8910 C   0  0  0  0  0  0  0  0  0  0  0  0
   -8.8263    3.8044   -7.4485 C   0  0  0  0  0  0  0  0  0  0  0  0
   -9.4100    2.4423   -7.4312 N   0  0  0  0  0  0  0  0  0  0  0  0
   -8.9603    1.8095   -8.6973 C   0  0  0  0  0  0  0  0  0  0  0  0
  -10.4284    2.4900   -7.3972 H   0  0  0  0  0  0  0  0  0  0  0  0
   -7.3985    8.0079   -7.0177 C   0  0  0  0  0  0  0  0  0  0  0  0
   -7.4134    6.7891   -7.6788 C   0  0  0  0  0  0  0  0  0  0  0  0
   -8.2686    6.6208   -8.7708 C   0  0  0  0  0  0  0  0  0  0  0  0
   -9.0726    7.7068   -9.1375 C   0  0  0  0  0  0  0  0  0  0  0  0
   -8.9910    8.8843   -8.4125 C   0  0  0  0  0  0  0  0  0  0  0  0
   -8.1546    9.0668   -7.3717 N   0  0  0  0  0  0  0  0  0  0  0  0
   -7.0294    8.9522   -4.9142 C   0  0  0  0  0  0  0  0  0  0  0  0
   -6.5303    8.1078   -5.9460 O   0  0  0  0  0  0  0  0  0  0  0  0
   -8.1354    4.1250  -13.0409 N   0  0  0  0  0  0  0  0  0  0  0  0
   -7.5033    5.1600  -14.0019 C   0  0  0  0  0  0  0  0  0  0  0  0
   -6.9247    6.1492  -13.7750 O   0  0  0  0  0  0  0  0  0  0  0  0
   -8.5061    3.3264  -13.4814 H   0  0  0  0  0  0  0  0  0  0  0  0
   -7.7137    4.7863  -15.4242 C   0  0  0  0  0  0  0  0  0  0  0  0
   -8.9765    4.3803  -15.8766 C   0  0  0  0  0  0  0  0  0  0  0  0
   -9.1975    4.1773  -17.2333 C   0  0  0  0  0  0  0  0  0  0  0  0
  -10.4219    3.8417  -17.6531 F   0  0  0  0  0  0  0  0  0  0  0  0
   -8.1954    4.3512  -18.1819 C   0  0  0  0  0  0  0  0  0  0  0  0
   -6.9374    4.7602  -17.7187 C   0  0  0  0  0  0  0  0  0  0  0  0
   -6.6792    4.9782  -16.3647 C   0  0  0  0  0  0  0  0  0  0  0  0
   -5.3286    5.3868  -16.3365 C   0  0  0  0  0  0  0  0  0  0  0  0
   -4.7792    5.4470  -17.5526 N   0  0  0  0  0  0  0  0  0  0  0  0
   -5.7602    5.0460  -18.3709 N   0  0  0  0  0  0  0  0  0  0  0  0
   -5.5727    5.0150  -19.7631 N   0  0  0  0  0  0  0  0  0  0  0  0
   -4.6091    5.2676  -19.9821 H   0  0  0  0  0  0  0  0  0  0  0  0
   -6.2075    5.6790  -20.2065 H   0  0  0  0  0  0  0  0  0  0  0  0
 17 18  1  0  0  0
 18 11  1  0  0  0
 11 12  2  0  0  0
 12 13  1  0  0  0
 13  1  1  0  0  0
  1  2  2  0  0  0
  2  3  1  0  0  0
  3 19  1  0  0  0
 19 20  1  0  0  0
 20 21  2  0  0  0
 20 23  1  0  0  0
 23 24  2  0  0  0
 24 25  1  0  0  0
 25 26  1  0  0  0
 25 27  2  0  0  0
 27 28  1  0  0  0
 28 29  2  0  0  0
 29 30  1  0  0  0
 30 31  2  0  0  0
 31 32  1  0  0  0
 32 33  1  0  0  0
  3  4  2  0  0  0
  4  5  1  0  0  0
  5  6  2  0  0  0
  6  7  1  0  0  0
  7  8  1  0  0  0
  8  9  1  0  0  0
 13 14  2  0  0  0
 14 15  1  0  0  0
 15 16  2  0  0  0
 16 11  1  0  0  0
  6  1  1  0  0  0
 29 23  1  0  0  0
  9  5  1  0  0  0
 32 28  1  0  0  0
 19 22  1  0  0  0
 33 34  1  0  0  0
 33 35  1  0  0  0
  8 10  1  0  0  0
M  END
> <minimizedAffinity>
-9.42470

> <minimizedRMSD>
0.27584

$$$$
P20796


 35 39  0  0  0  0  0  0  0  0999 V2000
   -8.2443    4.0726  -11.3085 C   0  0  0  0  0  0  0  0  0  0  0  0
   -8.6814    2.8865  -10.7337 C   0  0  0  0  0  0  0  0  0  0  0  0
   -8.9053    2.8726   -9.3645 C   0  0  0  0  0  0  0  0  0  0  0  0
   -8.7337    4.0109   -8.5729 C   0  0  0  0  0  0  0  0  0  0  0  0
   -8.2980    5.2033   -9.1274 C   0  0  0  0  0  0  0  0  0  0  0  0
   -8.0199    5.1942  -10.5066 C   0  0  0  0  0  0  0  0  0  0  0  0
   -9.1231    3.6760   -7.1695 C   0  0  0  0  0  0  0  0  0  0  0  0
   -9.8436    2.3842   -7.2502 N   0  0  0  0  0  0  0  0  0  0  0  0
   -9.3487    1.7438   -8.4960 C   0  0  0  0  0  0  0  0  0  0  0  0
  -10.8506    2.5382   -7.3021 H   0  0  0  0  0  0  0  0  0  0  0  0
   -8.2191    6.4739   -8.4088 C   0  0  0  0  0  0  0  0  0  0  0  0
   -7.3468    6.7092   -7.3497 C   0  0  0  0  0  0  0  0  0  0  0  0
   -7.3004    7.9848   -6.8051 C   0  0  0  0  0  0  0  0  0  0  0  0
   -8.0481    9.0228   -7.2367 N   0  0  0  0  0  0  0  0  0  0  0  0
   -8.9180    8.7607   -8.2272 C   0  0  0  0  0  0  0  0  0  0  0  0
   -9.0241    7.5315   -8.8403 C   0  0  0  0  0  0  0  0  0  0  0  0
   -9.6342    9.8286   -8.6830 O   0  0  0  0  0  0  0  0  0  0  0  0
  -10.1704    9.6172   -9.9848 C   0  0  0  0  0  0  0  0  0  0  0  0
   -7.6731    5.4053  -13.5591 C   0  0  0  0  0  0  0  0  0  0  0  0
   -7.2734    6.4626  -13.2445 O   0  0  0  0  0  0  0  0  0  0  0  0
   -8.1168    4.1929  -12.6861 N   0  0  0  0  0  0  0  0  0  0  0  0
   -8.3436    3.3804  -13.1937 H   0  0  0  0  0  0  0  0  0  0  0  0
   -9.0291    3.8807  -17.0439 C   0  0  0  0  0  0  0  0  0  0  0  0
   -7.8966    4.4683  -17.9272 C   0  0  0  0  0  0  0  0  0  0  0  0
   -6.6880    4.8889  -17.1747 C   0  0  0  0  0  0  0  0  0  0  0  0
   -6.6803    5.1429  -15.8697 C   0  0  0  0  0  0  0  0  0  0  0  0
   -5.3025    5.5193  -15.4679 C   0  0  0  0  0  0  0  0  0  0  0  0
   -4.4942    5.3260  -16.7162 N   0  0  0  0  0  0  0  0  0  0  0  0
   -5.4569    5.1075  -17.7471 N   0  0  0  0  0  0  0  0  0  0  0  0
   -7.9226    5.1237  -15.0582 C   0  0  0  0  0  0  0  0  0  0  0  0
   -8.8498    4.0059  -15.5110 C   0  0  0  0  0  0  0  0  0  0  0  0
   -3.8782    4.5183  -16.6234 H   0  0  0  0  0  0  0  0  0  0  0  0
   -5.2695    5.1126  -18.7136 H   0  0  0  0  0  0  0  0  0  0  0  0
  -10.7585    4.5136  -18.5085 C   0  0  0  0  0  0  0  0  0  0  0  0
  -10.3531    4.4233  -17.3055 N   0  0  0  0  0  0  0  0  0  0  0  0
 34 35  2  0  0  0
 23 35  1  0  0  0
 23 24  1  0  0  0
 24 25  1  0  0  0
 25 26  2  0  0  0
 26 27  1  0  0  0
 27 28  1  0  0  0
 28 29  1  0  0  0
 26 30  1  0  0  0
 30 19  1  0  0  0
 19 20  2  0  0  0
 19 21  1  0  0  0
 21  1  1  0  0  0
  1  2  2  0  0  0
  2  3  1  0  0  0
  3  4  2  0  0  0
  4  5  1  0  0  0
  5 11  1  0  0  0
 11 12  2  0  0  0
 12 13  1  0  0  0
 13 14  2  0  0  0
 14 15  1  0  0  0
 15 17  1  0  0  0
 17 18  1  0  0  0
 15 16  2  0  0  0
  5  6  2  0  0  0
  4  7  1  0  0  0
  7  8  1  0  0  0
  8  9  1  0  0  0
 30 31  1  0  0  0
 31 23  1  0  0  0
 29 25  1  0  0  0
  6  1  1  0  0  0
  9  3  1  0  0  0
 16 11  1  0  0  0
 28 32  1  0  0  0
 29 33  1  0  0  0
 21 22  1  0  0  0
  8 10  1  0  0  0
M  END
> <minimizedAffinity>
-8.23201

> <minimizedRMSD>
0.31543

$$$$
P20797


 40 45  0  0  0  0  0  0  0  0999 V2000
   -8.2109    4.1083  -12.6832 N   0  0  0  0  0  0  0  0  0  0  0  0
   -8.5573    5.2347  -13.6815 C   0  0  0  0  0  0  0  0  0  0  0  0
   -9.0773    6.2663  -13.5086 O   0  0  0  0  0  0  0  0  0  0  0  0
   -7.8375    3.2948  -13.0931 H   0  0  0  0  0  0  0  0  0  0  0  0
   -8.1808    4.8934  -15.0741 C   0  0  0  0  0  0  0  0  0  0  0  0
   -9.1290    4.3461  -15.9443 C   0  0  0  0  0  0  0  0  0  0  0  0
   -8.7980    4.1445  -17.2844 C   0  0  0  0  0  0  0  0  0  0  0  0
   -9.7236    3.6442  -18.1128 F   0  0  0  0  0  0  0  0  0  0  0  0
   -7.5349    4.4643  -17.7740 C   0  0  0  0  0  0  0  0  0  0  0  0
   -6.5961    4.9895  -16.8985 C   0  0  0  0  0  0  0  0  0  0  0  0
   -6.9165    5.2244  -15.5662 C   0  0  0  0  0  0  0  0  0  0  0  0
   -5.7095    5.7515  -14.8523 C   0  0  0  0  0  0  0  0  0  0  0  0
   -5.9311    6.9972  -14.2017 O   0  0  0  0  0  0  0  0  0  0  0  0
   -4.6248    5.8542  -16.0262 C   0  0  0  0  0  0  0  0  0  0  0  0
   -4.2671    7.3306  -16.3409 C   0  0  0  0  0  0  0  0  0  0  0  0
   -2.6293    7.2605  -17.1293 S   0  0  0  0  0  0  0  0  0  0  0  0
   -2.3015    5.6072  -16.5294 C   0  0  0  0  0  0  0  0  0  0  0  0
   -3.3373    5.2662  -15.5638 N   0  0  0  0  0  0  0  0  0  0  0  0
   -5.2560    5.2780  -17.2399 N   0  0  0  0  0  0  0  0  0  0  0  0
   -6.2172    7.6561  -14.8536 H   0  0  0  0  0  0  0  0  0  0  0  0
   -3.0939    5.6464  -14.6492 H   0  0  0  0  0  0  0  0  0  0  0  0
   -4.8251    5.1265  -18.1120 H   0  0  0  0  0  0  0  0  0  0  0  0
   -8.2968    5.1984   -9.1194 C   0  0  0  0  0  0  0  0  0  0  0  0
   -8.1338    5.2060  -10.5186 C   0  0  0  0  0  0  0  0  0  0  0  0
   -8.3409    4.0560  -11.2970 C   0  0  0  0  0  0  0  0  0  0  0  0
   -8.7060    2.8581  -10.6884 C   0  0  0  0  0  0  0  0  0  0  0  0
   -8.8467    2.8395   -9.3093 C   0  0  0  0  0  0  0  0  0  0  0  0
   -8.6426    3.9810   -8.5367 C   0  0  0  0  0  0  0  0  0  0  0  0
   -8.8837    3.6410   -7.1024 C   0  0  0  0  0  0  0  0  0  0  0  0
   -9.3646    2.2422   -7.0625 N   0  0  0  0  0  0  0  0  0  0  0  0
   -9.2178    1.6920   -8.4331 C   0  0  0  0  0  0  0  0  0  0  0  0
  -10.3438    2.2167   -6.7781 H   0  0  0  0  0  0  0  0  0  0  0  0
   -7.2196    7.7104   -6.5403 C   0  0  0  0  0  0  0  0  0  0  0  0
   -7.3408    6.5032   -7.2113 C   0  0  0  0  0  0  0  0  0  0  0  0
   -8.1405    6.4422   -8.3542 C   0  0  0  0  0  0  0  0  0  0  0  0
   -8.7837    7.6185   -8.7600 C   0  0  0  0  0  0  0  0  0  0  0  0
   -8.6053    8.7764   -8.0214 C   0  0  0  0  0  0  0  0  0  0  0  0
   -7.8187    8.8537   -6.9298 N   0  0  0  0  0  0  0  0  0  0  0  0
   -7.0488    8.2806   -4.2819 C   0  0  0  0  0  0  0  0  0  0  0  0
   -6.4128    7.7020   -5.4169 O   0  0  0  0  0  0  0  0  0  0  0  0
 39 40  1  0  0  0
 40 33  1  0  0  0
 33 34  2  0  0  0
 34 35  1  0  0  0
 35 23  1  0  0  0
 23 24  2  0  0  0
 24 25  1  0  0  0
 25  1  1  0  0  0
  1  2  1  0  0  0
  2  3  2  0  0  0
  2  5  1  0  0  0
  5  6  2  0  0  0
  6  7  1  0  0  0
  7  8  1  0  0  0
  7  9  2  0  0  0
  9 10  1  0  0  0
 10 11  2  0  0  0
 11 12  1  0  0  0
 12 13  1  0  0  0
 12 14  1  0  0  0
 14 15  1  0  0  0
 15 16  1  0  0  0
 16 17  1  0  0  0
 17 18  1  0  0  0
 14 19  1  0  0  0
 25 26  2  0  0  0
 26 27  1  0  0  0
 27 28  2  0  0  0
 28 29  1  0  0  0
 29 30  1  0  0  0
 30 31  1  0  0  0
 35 36  2  0  0  0
 36 37  1  0  0  0
 37 38  2  0  0  0
 38 33  1  0  0  0
 28 23  1  0  0  0
 11  5  1  0  0  0
 18 14  1  0  0  0
 31 27  1  0  0  0
 19 10  1  0  0  0
  1  4  1  0  0  0
 13 20  1  0  0  0
 18 21  1  0  0  0
 19 22  1  0  0  0
 30 32  1  0  0  0
M  END
> <minimizedAffinity>
-9.47952

> <minimizedRMSD>
0.92630

$$$$
P20798


 35 39  0  0  0  0  0  0  0  0999 V2000
   -8.3147    5.3645   -9.4881 C   0  0  0  0  0  0  0  0  0  0  0  0
   -8.1409    5.3306  -10.8877 C   0  0  0  0  0  0  0  0  0  0  0  0
   -8.2927    4.1442  -11.6220 C   0  0  0  0  0  0  0  0  0  0  0  0
   -8.6240    2.9582  -10.9671 C   0  0  0  0  0  0  0  0  0  0  0  0
   -8.7645    2.9808   -9.5885 C   0  0  0  0  0  0  0  0  0  0  0  0
   -8.6015    4.1544   -8.8583 C   0  0  0  0  0  0  0  0  0  0  0  0
   -8.8312    3.8581   -7.4126 C   0  0  0  0  0  0  0  0  0  0  0  0
   -9.0336    2.3962   -7.2940 N   0  0  0  0  0  0  0  0  0  0  0  0
   -9.1198    1.8581   -8.6755 C   0  0  0  0  0  0  0  0  0  0  0  0
   -9.8974    2.2018   -6.7875 H   0  0  0  0  0  0  0  0  0  0  0  0
   -7.2661    8.0544   -7.0834 C   0  0  0  0  0  0  0  0  0  0  0  0
   -7.2969    6.8330   -7.7383 C   0  0  0  0  0  0  0  0  0  0  0  0
   -8.2287    6.6363   -8.7596 C   0  0  0  0  0  0  0  0  0  0  0  0
   -9.0868    7.6979   -9.0698 C   0  0  0  0  0  0  0  0  0  0  0  0
   -8.9829    8.8807   -8.3565 C   0  0  0  0  0  0  0  0  0  0  0  0
   -8.0770    9.0898   -7.3805 N   0  0  0  0  0  0  0  0  0  0  0  0
   -6.8414    7.8514   -4.7959 C   0  0  0  0  0  0  0  0  0  0  0  0
   -6.3228    8.1823   -6.0800 O   0  0  0  0  0  0  0  0  0  0  0  0
   -8.1290    4.1176  -13.0071 N   0  0  0  0  0  0  0  0  0  0  0  0
   -7.5142    5.1643  -13.9668 C   0  0  0  0  0  0  0  0  0  0  0  0
   -6.9797    6.1776  -13.7398 O   0  0  0  0  0  0  0  0  0  0  0  0
   -8.4583    3.2998  -13.4454 H   0  0  0  0  0  0  0  0  0  0  0  0
   -7.7273    4.7884  -15.3750 C   0  0  0  0  0  0  0  0  0  0  0  0
   -8.9814    4.3597  -15.8595 C   0  0  0  0  0  0  0  0  0  0  0  0
   -9.2447    4.1450  -17.2410 C   0  0  0  0  0  0  0  0  0  0  0  0
  -10.4843    3.7760  -17.5911 F   0  0  0  0  0  0  0  0  0  0  0  0
   -8.3032    4.3229  -18.2656 C   0  0  0  0  0  0  0  0  0  0  0  0
   -7.0412    4.7290  -17.8078 C   0  0  0  0  0  0  0  0  0  0  0  0
   -5.9160    4.9651  -18.4980 N   0  0  0  0  0  0  0  0  0  0  0  0
   -5.0044    5.2808  -17.5833 N   0  0  0  0  0  0  0  0  0  0  0  0
   -3.6832    5.5349  -17.9553 N   0  0  0  0  0  0  0  0  0  0  0  0
   -5.4756    5.3210  -16.3058 C   0  0  0  0  0  0  0  0  0  0  0  0
   -6.7920    4.9511  -16.4021 C   0  0  0  0  0  0  0  0  0  0  0  0
   -3.5905    5.4401  -18.9666 H   0  0  0  0  0  0  0  0  0  0  0  0
   -3.0655    4.8677  -17.4932 H   0  0  0  0  0  0  0  0  0  0  0  0
 17 18  1  0  0  0
 18 11  1  0  0  0
 11 12  2  0  0  0
 12 13  1  0  0  0
 13  1  1  0  0  0
  1  2  2  0  0  0
  2  3  1  0  0  0
  3 19  1  0  0  0
 19 20  1  0  0  0
 20 21  2  0  0  0
 20 23  1  0  0  0
 23 24  2  0  0  0
 24 25  1  0  0  0
 25 26  1  0  0  0
 25 27  2  0  0  0
 27 28  1  0  0  0
 28 29  2  0  0  0
 29 30  1  0  0  0
 30 31  1  0  0  0
 30 32  1  0  0  0
 32 33  2  0  0  0
  3  4  2  0  0  0
  4  5  1  0  0  0
  5  6  2  0  0  0
  6  7  1  0  0  0
  7  8  1  0  0  0
  8  9  1  0  0  0
 13 14  2  0  0  0
 14 15  1  0  0  0
 15 16  2  0  0  0
 16 11  1  0  0  0
  6  1  1  0  0  0
 33 23  1  0  0  0
  9  5  1  0  0  0
 33 28  1  0  0  0
 19 22  1  0  0  0
 31 34  1  0  0  0
 31 35  1  0  0  0
  8 10  1  0  0  0
M  END
> <minimizedAffinity>
-9.28233

> <minimizedRMSD>
0.42156

$$$$
P20805


 33 37  0  0  0  0  0  0  0  0999 V2000
   -7.8815    5.2743   -9.4019 C   0  0  0  0  0  0  0  0  0  0  0  0
   -7.8344    5.2440  -10.8136 C   0  0  0  0  0  0  0  0  0  0  0  0
   -8.2785    4.1337  -11.5519 C   0  0  0  0  0  0  0  0  0  0  0  0
   -8.7802    3.0157  -10.8922 C   0  0  0  0  0  0  0  0  0  0  0  0
   -8.8200    3.0299   -9.5085 C   0  0  0  0  0  0  0  0  0  0  0  0
   -8.3890    4.1317   -8.7746 C   0  0  0  0  0  0  0  0  0  0  0  0
   -8.5791    3.8277   -7.3212 C   0  0  0  0  0  0  0  0  0  0  0  0
   -9.0238    2.4254   -7.2131 N   0  0  0  0  0  0  0  0  0  0  0  0
   -9.2898    1.9547   -8.5909 C   0  0  0  0  0  0  0  0  0  0  0  0
   -9.8739    2.3686   -6.6522 H   0  0  0  0  0  0  0  0  0  0  0  0
   -7.7351    8.2672   -7.1226 C   0  0  0  0  0  0  0  0  0  0  0  0
   -8.2483    7.2677   -7.9268 C   0  0  0  0  0  0  0  0  0  0  0  0
   -7.3853    6.4433   -8.6493 C   0  0  0  0  0  0  0  0  0  0  0  0
   -6.0228    6.7575   -8.5892 C   0  0  0  0  0  0  0  0  0  0  0  0
   -5.6026    7.8157   -7.7923 C   0  0  0  0  0  0  0  0  0  0  0  0
   -6.4269    8.5653   -7.0304 N   0  0  0  0  0  0  0  0  0  0  0  0
   -8.4346    8.8608   -4.9888 C   0  0  0  0  0  0  0  0  0  0  0  0
   -8.6728    8.9635   -6.3832 O   0  0  0  0  0  0  0  0  0  0  0  0
   -8.2397    4.1243  -12.9454 N   0  0  0  0  0  0  0  0  0  0  0  0
   -7.6240    5.1368  -13.9407 C   0  0  0  0  0  0  0  0  0  0  0  0
   -7.1210    6.1742  -13.7516 O   0  0  0  0  0  0  0  0  0  0  0  0
   -8.6750    3.3471  -13.3646 H   0  0  0  0  0  0  0  0  0  0  0  0
   -7.7958    4.7014  -15.3393 C   0  0  0  0  0  0  0  0  0  0  0  0
   -8.9916    4.1562  -15.8441 C   0  0  0  0  0  0  0  0  0  0  0  0
   -9.2076    3.8868  -17.2254 C   0  0  0  0  0  0  0  0  0  0  0  0
  -10.4102    3.4215  -17.5874 F   0  0  0  0  0  0  0  0  0  0  0  0
   -8.2603    4.1001  -18.2343 C   0  0  0  0  0  0  0  0  0  0  0  0
   -7.0570    4.6338  -17.7605 C   0  0  0  0  0  0  0  0  0  0  0  0
   -5.9481    4.9731  -18.4315 N   0  0  0  0  0  0  0  0  0  0  0  0
   -5.0908    5.3605  -17.4911 N   0  0  0  0  0  0  0  0  0  0  0  0
   -3.3459    5.7879  -17.9278 Br  0  0  0  0  0  0  0  0  0  0  0  0
   -5.5839    5.3956  -16.2271 C   0  0  0  0  0  0  0  0  0  0  0  0
   -6.8613    4.9153  -16.3536 C   0  0  0  0  0  0  0  0  0  0  0  0
 17 18  1  0  0  0
 18 11  1  0  0  0
 11 12  2  0  0  0
 12 13  1  0  0  0
 13  1  1  0  0  0
  1  2  2  0  0  0
  2  3  1  0  0  0
  3 19  1  0  0  0
 19 20  1  0  0  0
 20 21  2  0  0  0
 20 23  1  0  0  0
 23 24  2  0  0  0
 24 25  1  0  0  0
 25 26  1  0  0  0
 25 27  2  0  0  0
 27 28  1  0  0  0
 28 29  2  0  0  0
 29 30  1  0  0  0
 30 31  1  0  0  0
 30 32  1  0  0  0
 32 33  2  0  0  0
  3  4  2  0  0  0
  4  5  1  0  0  0
  5  6  2  0  0  0
  6  7  1  0  0  0
  7  8  1  0  0  0
  8  9  1  0  0  0
 13 14  2  0  0  0
 14 15  1  0  0  0
 15 16  2  0  0  0
 16 11  1  0  0  0
  6  1  1  0  0  0
 33 23  1  0  0  0
  9  5  1  0  0  0
 33 28  1  0  0  0
 19 22  1  0  0  0
  8 10  1  0  0  0
M  END
> <minimizedAffinity>
-8.84114

> <minimizedRMSD>
0.39631

$$$$
P20806


 37 40  0  0  0  0  0  0  0  0999 V2000
   -8.1932    5.3903  -12.4674 C   0  0  0  0  0  0  0  0  0  0  0  0
   -8.5272    6.4697  -12.1753 O   0  0  0  0  0  0  0  0  0  0  0  0
   -8.1359    4.0979  -11.6249 N   0  0  0  0  0  0  0  0  0  0  0  0
   -7.8873    3.2888  -12.1278 H   0  0  0  0  0  0  0  0  0  0  0  0
   -8.3773    3.8915  -10.2776 C   0  0  0  0  0  0  0  0  0  0  0  0
   -8.9068    2.6786   -9.8631 C   0  0  0  0  0  0  0  0  0  0  0  0
   -9.1877    2.5291   -8.5193 C   0  0  0  0  0  0  0  0  0  0  0  0
   -8.9397    3.5446   -7.5885 C   0  0  0  0  0  0  0  0  0  0  0  0
   -8.3605    4.7539   -7.9759 C   0  0  0  0  0  0  0  0  0  0  0  0
   -8.1124    4.9076   -9.3515 C   0  0  0  0  0  0  0  0  0  0  0  0
   -9.3499    3.0280   -6.2419 C   0  0  0  0  0  0  0  0  0  0  0  0
  -10.1572    1.8129   -6.4953 N   0  0  0  0  0  0  0  0  0  0  0  0
   -9.7180    1.3246   -7.8196 C   0  0  0  0  0  0  0  0  0  0  0  0
  -11.1513    2.0406   -6.5097 H   0  0  0  0  0  0  0  0  0  0  0  0
   -7.9766    5.8315   -7.0499 C   0  0  0  0  0  0  0  0  0  0  0  0
   -6.6282    6.1119   -6.7801 C   0  0  0  0  0  0  0  0  0  0  0  0
   -6.3048    7.1116   -5.8743 C   0  0  0  0  0  0  0  0  0  0  0  0
   -7.2181    7.8299   -5.1929 N   0  0  0  0  0  0  0  0  0  0  0  0
   -8.5054    7.5562   -5.4771 C   0  0  0  0  0  0  0  0  0  0  0  0
   -8.9225    6.6170   -6.4007 C   0  0  0  0  0  0  0  0  0  0  0  0
   -9.5204    8.2384   -4.8362 O   0  0  0  0  0  0  0  0  0  0  0  0
  -10.0913    7.4621   -3.7953 C   0  0  0  0  0  0  0  0  0  0  0  0
   -7.3345    4.7901  -16.5814 C   0  0  0  0  0  0  0  0  0  0  0  0
   -6.3180    5.1334  -15.6958 C   0  0  0  0  0  0  0  0  0  0  0  0
   -6.5205    5.2113  -14.3230 C   0  0  0  0  0  0  0  0  0  0  0  0
   -7.8468    5.1233  -13.8789 C   0  0  0  0  0  0  0  0  0  0  0  0
   -8.8999    4.9256  -14.7824 C   0  0  0  0  0  0  0  0  0  0  0  0
   -8.6332    4.7559  -16.1244 C   0  0  0  0  0  0  0  0  0  0  0  0
   -9.6280    4.5763  -16.9967 F   0  0  0  0  0  0  0  0  0  0  0  0
   -5.8355    5.1187  -18.5663 C   0  0  0  0  0  0  0  0  0  0  0  0
   -7.0431    4.3889  -17.9832 C   0  0  0  0  0  0  0  0  0  0  0  0
   -5.3447    5.3382  -13.3750 C   0  0  0  0  0  0  0  0  0  0  0  0
   -4.5555    4.1039  -13.1483 N   0  0  0  0  0  0  0  0  0  0  0  0
   -5.3139    3.0833  -12.4789 N   0  0  0  0  0  0  0  0  0  0  0  0
   -3.7425    4.3353  -12.5774 H   0  0  0  0  0  0  0  0  0  0  0  0
   -6.1306    2.8430  -13.0407 H   0  0  0  0  0  0  0  0  0  0  0  0
   -5.6172    3.4274  -11.5679 H   0  0  0  0  0  0  0  0  0  0  0  0
 30 31  1  0  0  0
 31 23  1  0  0  0
 23 24  2  0  0  0
 24 25  1  0  0  0
 25 32  1  0  0  0
 32 33  1  0  0  0
 33 34  1  0  0  0
 25 26  2  0  0  0
 26  1  1  0  0  0
  1  2  2  0  0  0
  1  3  1  0  0  0
  3  5  1  0  0  0
  5  6  2  0  0  0
  6  7  1  0  0  0
  7  8  2  0  0  0
  8  9  1  0  0  0
  9 15  1  0  0  0
 15 16  2  0  0  0
 16 17  1  0  0  0
 17 18  2  0  0  0
 18 19  1  0  0  0
 19 21  1  0  0  0
 21 22  1  0  0  0
 19 20  2  0  0  0
  9 10  2  0  0  0
  8 11  1  0  0  0
 11 12  1  0  0  0
 12 13  1  0  0  0
 26 27  1  0  0  0
 27 28  2  0  0  0
 28 29  1  0  0  0
 28 23  1  0  0  0
 10  5  1  0  0  0
 13  7  1  0  0  0
 20 15  1  0  0  0
 33 35  1  0  0  0
 34 36  1  0  0  0
 34 37  1  0  0  0
  3  4  1  0  0  0
 12 14  1  0  0  0
M  END
> <minimizedAffinity>
-7.95487

> <minimizedRMSD>
1.81264

$$$$
P20807


 33 37  0  0  0  0  0  0  0  0999 V2000
   -7.9069    5.5168   -9.3797 C   0  0  0  0  0  0  0  0  0  0  0  0
   -7.8799    5.5894  -10.7830 C   0  0  0  0  0  0  0  0  0  0  0  0
   -8.2573    4.4982  -11.5846 C   0  0  0  0  0  0  0  0  0  0  0  0
   -8.6474    3.2856  -11.0205 C   0  0  0  0  0  0  0  0  0  0  0  0
   -8.7095    3.2233   -9.6371 C   0  0  0  0  0  0  0  0  0  0  0  0
   -8.3784    4.3215   -8.8313 C   0  0  0  0  0  0  0  0  0  0  0  0
   -8.6135    3.9286   -7.4023 C   0  0  0  0  0  0  0  0  0  0  0  0
   -9.4120    2.6867   -7.4463 N   0  0  0  0  0  0  0  0  0  0  0  0
   -9.1195    2.0801   -8.7633 C   0  0  0  0  0  0  0  0  0  0  0  0
  -10.4064    2.8983   -7.3635 H   0  0  0  0  0  0  0  0  0  0  0  0
   -7.8165    8.3832   -6.9537 C   0  0  0  0  0  0  0  0  0  0  0  0
   -8.3154    7.3721   -7.7515 C   0  0  0  0  0  0  0  0  0  0  0  0
   -7.4505    6.6616   -8.5792 C   0  0  0  0  0  0  0  0  0  0  0  0
   -6.1136    7.0787   -8.6095 C   0  0  0  0  0  0  0  0  0  0  0  0
   -5.7137    8.1366   -7.8053 C   0  0  0  0  0  0  0  0  0  0  0  0
   -6.5335    8.7903   -6.9577 N   0  0  0  0  0  0  0  0  0  0  0  0
   -8.1227    9.5754   -4.9891 C   0  0  0  0  0  0  0  0  0  0  0  0
   -8.7403    8.9843   -6.1213 O   0  0  0  0  0  0  0  0  0  0  0  0
   -8.3821    4.7548  -13.0257 C   0  0  0  0  0  0  0  0  0  0  0  0
   -9.3049    5.4354  -13.4610 O   0  0  0  0  0  0  0  0  0  0  0  0
   -7.2738    4.3667  -13.9656 C   0  0  0  0  0  0  0  0  0  0  0  0
   -6.1756    4.1122  -13.4863 O   0  0  0  0  0  0  0  0  0  0  0  0
   -7.5091    4.4186  -15.4303 C   0  0  0  0  0  0  0  0  0  0  0  0
   -8.7120    3.9795  -16.0109 C   0  0  0  0  0  0  0  0  0  0  0  0
   -8.9228    4.0782  -17.3760 C   0  0  0  0  0  0  0  0  0  0  0  0
  -10.0903    3.6764  -17.8911 F   0  0  0  0  0  0  0  0  0  0  0  0
   -7.9535    4.5838  -18.2257 C   0  0  0  0  0  0  0  0  0  0  0  0
   -6.7602    5.0303  -17.6488 C   0  0  0  0  0  0  0  0  0  0  0  0
   -6.5167    4.9569  -16.2774 C   0  0  0  0  0  0  0  0  0  0  0  0
   -5.2207    5.5050  -16.1283 C   0  0  0  0  0  0  0  0  0  0  0  0
   -4.6884    5.9112  -17.2843 N   0  0  0  0  0  0  0  0  0  0  0  0
   -5.6335    5.5922  -18.1918 N   0  0  0  0  0  0  0  0  0  0  0  0
   -5.4036    5.8899  -19.5850 C   0  0  0  0  0  0  0  0  0  0  0  0
 17 18  1  0  0  0
 18 11  1  0  0  0
 11 12  2  0  0  0
 12 13  1  0  0  0
 13  1  1  0  0  0
  1  2  2  0  0  0
  2  3  1  0  0  0
  3 19  1  0  0  0
 19 20  2  0  0  0
 19 21  1  0  0  0
 21 22  2  0  0  0
 21 23  1  0  0  0
 23 24  2  0  0  0
 24 25  1  0  0  0
 25 26  1  0  0  0
 25 27  2  0  0  0
 27 28  1  0  0  0
 28 29  2  0  0  0
 29 30  1  0  0  0
 30 31  2  0  0  0
 31 32  1  0  0  0
 32 33  1  0  0  0
  3  4  2  0  0  0
  4  5  1  0  0  0
  5  6  2  0  0  0
  6  7  1  0  0  0
  7  8  1  0  0  0
  8  9  1  0  0  0
 13 14  2  0  0  0
 14 15  1  0  0  0
 15 16  2  0  0  0
 16 11  1  0  0  0
  6  1  1  0  0  0
 29 23  1  0  0  0
  9  5  1  0  0  0
 32 28  1  0  0  0
  8 10  1  0  0  0
M  END
> <minimizedAffinity>
-8.49618

> <minimizedRMSD>
0.43492

$$$$
P20809


 33 37  0  0  0  0  0  0  0  0999 V2000
   -7.8140    5.6269   -9.4447 C   0  0  0  0  0  0  0  0  0  0  0  0
   -7.7952    5.7416  -10.8421 C   0  0  0  0  0  0  0  0  0  0  0  0
   -8.1792    4.6803  -11.6781 C   0  0  0  0  0  0  0  0  0  0  0  0
   -8.5782    3.4531  -11.1545 C   0  0  0  0  0  0  0  0  0  0  0  0
   -8.6443    3.3533   -9.7714 C   0  0  0  0  0  0  0  0  0  0  0  0
   -8.2997    4.4237   -8.9320 C   0  0  0  0  0  0  0  0  0  0  0  0
   -8.5407    3.9960   -7.5148 C   0  0  0  0  0  0  0  0  0  0  0  0
   -9.3573    2.7679   -7.5937 N   0  0  0  0  0  0  0  0  0  0  0  0
   -9.0734    2.1939   -8.9278 C   0  0  0  0  0  0  0  0  0  0  0  0
  -10.3484    2.9917   -7.5049 H   0  0  0  0  0  0  0  0  0  0  0  0
   -7.6890    8.5598   -7.1066 C   0  0  0  0  0  0  0  0  0  0  0  0
   -8.2048    7.5639   -7.9125 C   0  0  0  0  0  0  0  0  0  0  0  0
   -7.3346    6.7458   -8.6250 C   0  0  0  0  0  0  0  0  0  0  0  0
   -5.9661    7.0354   -8.5335 C   0  0  0  0  0  0  0  0  0  0  0  0
   -5.5456    8.0857   -7.7320 C   0  0  0  0  0  0  0  0  0  0  0  0
   -6.3783    8.8482   -6.9964 N   0  0  0  0  0  0  0  0  0  0  0  0
   -8.4154    9.1833   -4.9968 C   0  0  0  0  0  0  0  0  0  0  0  0
   -8.6256    9.2838   -6.3961 O   0  0  0  0  0  0  0  0  0  0  0  0
   -8.3016    5.0227  -13.0983 C   0  0  0  0  0  0  0  0  0  0  0  0
   -9.0657    5.9219  -13.4339 O   0  0  0  0  0  0  0  0  0  0  0  0
   -7.3298    4.4870  -14.1133 C   0  0  0  0  0  0  0  0  0  0  0  0
   -6.1878    4.2531  -13.7363 O   0  0  0  0  0  0  0  0  0  0  0  0
   -7.7311    4.3910  -15.5388 C   0  0  0  0  0  0  0  0  0  0  0  0
   -8.9806    3.8790  -15.9257 C   0  0  0  0  0  0  0  0  0  0  0  0
   -9.3388    3.8128  -17.2672 C   0  0  0  0  0  0  0  0  0  0  0  0
  -10.5466    3.3472  -17.6039 F   0  0  0  0  0  0  0  0  0  0  0  0
   -8.4826    4.2225  -18.2772 C   0  0  0  0  0  0  0  0  0  0  0  0
   -7.2558    4.7526  -17.8822 C   0  0  0  0  0  0  0  0  0  0  0  0
   -6.2183    5.2515  -18.6232 N   0  0  0  0  0  0  0  0  0  0  0  0
   -5.1940    5.7160  -17.8777 N   0  0  0  0  0  0  0  0  0  0  0  0
   -5.5757    5.4428  -16.6250 C   0  0  0  0  0  0  0  0  0  0  0  0
   -6.8587    4.8493  -16.5508 C   0  0  0  0  0  0  0  0  0  0  0  0
   -6.2194    5.2697  -19.6075 H   0  0  0  0  0  0  0  0  0  0  0  0
 17 18  1  0  0  0
 18 11  1  0  0  0
 11 12  2  0  0  0
 12 13  1  0  0  0
 13  1  1  0  0  0
  1  2  2  0  0  0
  2  3  1  0  0  0
  3 19  1  0  0  0
 19 20  2  0  0  0
 19 21  1  0  0  0
 21 22  2  0  0  0
 21 23  1  0  0  0
 23 24  2  0  0  0
 24 25  1  0  0  0
 25 26  1  0  0  0
 25 27  2  0  0  0
 27 28  1  0  0  0
 28 29  1  0  0  0
 29 30  1  0  0  0
 30 31  2  0  0  0
 31 32  1  0  0  0
  3  4  2  0  0  0
  4  5  1  0  0  0
  5  6  2  0  0  0
  6  7  1  0  0  0
  7  8  1  0  0  0
  8  9  1  0  0  0
 13 14  2  0  0  0
 14 15  1  0  0  0
 15 16  2  0  0  0
 16 11  1  0  0  0
  6  1  1  0  0  0
 32 23  1  0  0  0
  9  5  1  0  0  0
 32 28  2  0  0  0
 29 33  1  0  0  0
  8 10  1  0  0  0
M  END
> <minimizedAffinity>
-8.54403

> <minimizedRMSD>
0.54508

$$$$
P20810


 36 40  0  0  0  0  0  0  0  0999 V2000
   -8.1010    5.4051   -8.7645 C   0  0  0  0  0  0  0  0  0  0  0  0
   -7.9650    5.6400  -10.1389 C   0  0  0  0  0  0  0  0  0  0  0  0
   -8.2410    4.6367  -11.0798 C   0  0  0  0  0  0  0  0  0  0  0  0
   -8.6428    3.3616  -10.6926 C   0  0  0  0  0  0  0  0  0  0  0  0
   -8.8069    3.1386   -9.3349 C   0  0  0  0  0  0  0  0  0  0  0  0
   -8.5612    4.1392   -8.3917 C   0  0  0  0  0  0  0  0  0  0  0  0
   -8.8875    3.6039   -7.0338 C   0  0  0  0  0  0  0  0  0  0  0  0
   -9.3371    2.2102   -7.2028 N   0  0  0  0  0  0  0  0  0  0  0  0
   -9.2583    1.8947   -8.6472 C   0  0  0  0  0  0  0  0  0  0  0  0
  -10.2982    2.1113   -6.8758 H   0  0  0  0  0  0  0  0  0  0  0  0
   -8.3076    7.8923   -5.9671 C   0  0  0  0  0  0  0  0  0  0  0  0
   -8.6972    6.9511   -6.8987 C   0  0  0  0  0  0  0  0  0  0  0  0
   -7.7622    6.4640   -7.8071 C   0  0  0  0  0  0  0  0  0  0  0  0
   -6.4782    7.0224   -7.7673 C   0  0  0  0  0  0  0  0  0  0  0  0
   -6.1918    7.9943   -6.8203 C   0  0  0  0  0  0  0  0  0  0  0  0
   -7.0749    8.4301   -5.8994 N   0  0  0  0  0  0  0  0  0  0  0  0
   -9.9397    7.1560   -4.4931 C   0  0  0  0  0  0  0  0  0  0  0  0
   -9.2904    8.2739   -5.0756 O   0  0  0  0  0  0  0  0  0  0  0  0
   -8.1889    5.0402  -12.4870 C   0  0  0  0  0  0  0  0  0  0  0  0
   -8.8244    6.0032  -12.8993 O   0  0  0  0  0  0  0  0  0  0  0  0
   -7.1840    4.3967  -13.3944 C   0  0  0  0  0  0  0  0  0  0  0  0
   -6.1604    3.9488  -12.8938 O   0  0  0  0  0  0  0  0  0  0  0  0
   -7.4345    4.4203  -14.8407 C   0  0  0  0  0  0  0  0  0  0  0  0
   -8.6467    4.0153  -15.4603 C   0  0  0  0  0  0  0  0  0  0  0  0
   -8.8842    4.0698  -16.8640 C   0  0  0  0  0  0  0  0  0  0  0  0
  -10.0847    3.6746  -17.3116 F   0  0  0  0  0  0  0  0  0  0  0  0
   -7.9467    4.5067  -17.8067 C   0  0  0  0  0  0  0  0  0  0  0  0
   -6.7716    4.9146  -17.1861 C   0  0  0  0  0  0  0  0  0  0  0  0
   -5.6642    5.4398  -17.8105 C   0  0  0  0  0  0  0  0  0  0  0  0
   -4.7437    5.7150  -16.8163 N   0  0  0  0  0  0  0  0  0  0  0  0
   -3.4323    6.2939  -17.0158 C   0  0  0  0  0  0  0  0  0  0  0  0
   -5.2589    5.3823  -15.5842 C   0  0  0  0  0  0  0  0  0  0  0  0
   -6.5199    4.8787  -15.7873 C   0  0  0  0  0  0  0  0  0  0  0  0
   -5.4395    5.7321  -19.2372 C   0  0  0  0  0  0  0  0  0  0  0  0
   -6.0463    6.9887  -19.4457 O   0  0  0  0  0  0  0  0  0  0  0  0
   -6.9845    6.9387  -19.2046 H   0  0  0  0  0  0  0  0  0  0  0  0
 17 18  1  0  0  0
 18 11  1  0  0  0
 11 12  2  0  0  0
 12 13  1  0  0  0
 13  1  1  0  0  0
  1  2  2  0  0  0
  2  3  1  0  0  0
  3 19  1  0  0  0
 19 20  2  0  0  0
 19 21  1  0  0  0
 21 22  2  0  0  0
 21 23  1  0  0  0
 23 24  2  0  0  0
 24 25  1  0  0  0
 25 26  1  0  0  0
 25 27  2  0  0  0
 27 28  1  0  0  0
 28 29  2  0  0  0
 29 34  1  0  0  0
 34 35  1  0  0  0
 29 30  1  0  0  0
 30 31  1  0  0  0
 30 32  1  0  0  0
 32 33  2  0  0  0
  3  4  2  0  0  0
  4  5  1  0  0  0
  5  6  2  0  0  0
  6  7  1  0  0  0
  7  8  1  0  0  0
  8  9  1  0  0  0
 13 14  2  0  0  0
 14 15  1  0  0  0
 15 16  2  0  0  0
 16 11  1  0  0  0
  6  1  1  0  0  0
 33 23  1  0  0  0
  9  5  1  0  0  0
 33 28  1  0  0  0
 35 36  1  0  0  0
  8 10  1  0  0  0
M  END
> <minimizedAffinity>
-9.08580

> <minimizedRMSD>
0.76090

$$$$
P20811


 36 40  0  0  0  0  0  0  0  0999 V2000
   -7.9436    5.4310   -8.9618 C   0  0  0  0  0  0  0  0  0  0  0  0
   -7.8752    5.6361  -10.3453 C   0  0  0  0  0  0  0  0  0  0  0  0
   -8.2390    4.6278  -11.2494 C   0  0  0  0  0  0  0  0  0  0  0  0
   -8.6678    3.3762  -10.8157 C   0  0  0  0  0  0  0  0  0  0  0  0
   -8.7724    3.1870   -9.4464 C   0  0  0  0  0  0  0  0  0  0  0  0
   -8.4367    4.1943   -8.5385 C   0  0  0  0  0  0  0  0  0  0  0  0
   -8.7101    3.6999   -7.1537 C   0  0  0  0  0  0  0  0  0  0  0  0
   -9.2455    2.3317   -7.2706 N   0  0  0  0  0  0  0  0  0  0  0  0
   -9.2375    1.9770   -8.7081 C   0  0  0  0  0  0  0  0  0  0  0  0
  -10.1982    2.2976   -6.9079 H   0  0  0  0  0  0  0  0  0  0  0  0
   -7.9319    8.1267   -6.3585 C   0  0  0  0  0  0  0  0  0  0  0  0
   -8.4063    7.1894   -7.2538 C   0  0  0  0  0  0  0  0  0  0  0  0
   -7.5033    6.4904   -8.0484 C   0  0  0  0  0  0  0  0  0  0  0  0
   -6.1499    6.8357   -7.9393 C   0  0  0  0  0  0  0  0  0  0  0  0
   -5.7734    7.8203   -7.0387 C   0  0  0  0  0  0  0  0  0  0  0  0
   -6.6348    8.4641   -6.2260 N   0  0  0  0  0  0  0  0  0  0  0  0
   -9.2782    7.9165   -4.4823 C   0  0  0  0  0  0  0  0  0  0  0  0
   -8.8973    8.7314   -5.5786 O   0  0  0  0  0  0  0  0  0  0  0  0
   -8.2428    5.0113  -12.6629 C   0  0  0  0  0  0  0  0  0  0  0  0
   -8.8890    5.9764  -13.0556 O   0  0  0  0  0  0  0  0  0  0  0  0
   -7.2790    4.3496  -13.6072 C   0  0  0  0  0  0  0  0  0  0  0  0
   -6.2968    3.7986  -13.1314 O   0  0  0  0  0  0  0  0  0  0  0  0
   -7.5126    4.4725  -15.0593 C   0  0  0  0  0  0  0  0  0  0  0  0
   -8.6519    3.8748  -15.6326 C   0  0  0  0  0  0  0  0  0  0  0  0
   -8.9080    3.9859  -16.9811 C   0  0  0  0  0  0  0  0  0  0  0  0
  -10.0193    3.4552  -17.5010 F   0  0  0  0  0  0  0  0  0  0  0  0
   -8.0319    4.6433  -17.8161 C   0  0  0  0  0  0  0  0  0  0  0  0
   -6.8976    5.2464  -17.2529 C   0  0  0  0  0  0  0  0  0  0  0  0
   -6.6234    5.2027  -15.8833 C   0  0  0  0  0  0  0  0  0  0  0  0
   -5.4587    6.0200  -15.7353 C   0  0  0  0  0  0  0  0  0  0  0  0
   -4.7399    6.4538  -14.5114 C   0  0  0  0  0  0  0  0  0  0  0  0
   -5.0179    6.4842  -16.9101 N   0  0  0  0  0  0  0  0  0  0  0  0
   -5.8596    5.9465  -17.8123 N   0  0  0  0  0  0  0  0  0  0  0  0
   -5.6182    6.2168  -19.2186 C   0  0  0  0  0  0  0  0  0  0  0  0
   -5.4165    5.0067  -19.9162 O   0  0  0  0  0  0  0  0  0  0  0  0
   -4.6472    4.5452  -19.5473 H   0  0  0  0  0  0  0  0  0  0  0  0
 17 18  1  0  0  0
 18 11  1  0  0  0
 11 12  2  0  0  0
 12 13  1  0  0  0
 13  1  1  0  0  0
  1  2  2  0  0  0
  2  3  1  0  0  0
  3 19  1  0  0  0
 19 20  2  0  0  0
 19 21  1  0  0  0
 21 22  2  0  0  0
 21 23  1  0  0  0
 23 24  2  0  0  0
 24 25  1  0  0  0
 25 26  1  0  0  0
 25 27  2  0  0  0
 27 28  1  0  0  0
 28 29  2  0  0  0
 29 30  1  0  0  0
 30 31  1  0  0  0
 30 32  2  0  0  0
 32 33  1  0  0  0
 33 34  1  0  0  0
 34 35  1  0  0  0
  3  4  2  0  0  0
  4  5  1  0  0  0
  5  6  2  0  0  0
  6  7  1  0  0  0
  7  8  1  0  0  0
  8  9  1  0  0  0
 13 14  2  0  0  0
 14 15  1  0  0  0
 15 16  2  0  0  0
 16 11  1  0  0  0
  6  1  1  0  0  0
 29 23  1  0  0  0
  9  5  1  0  0  0
 33 28  1  0  0  0
 35 36  1  0  0  0
  8 10  1  0  0  0
M  END
> <minimizedAffinity>
-8.72679

> <minimizedRMSD>
0.63527

$$$$
P20814


 39 43  0  0  0  0  0  0  0  0999 V2000
   -7.8132    5.4155   -8.9485 C   0  0  0  0  0  0  0  0  0  0  0  0
   -7.6364    5.4816  -10.3498 C   0  0  0  0  0  0  0  0  0  0  0  0
   -7.9892    4.4120  -11.1874 C   0  0  0  0  0  0  0  0  0  0  0  0
   -8.5809    3.2631  -10.6213 C   0  0  0  0  0  0  0  0  0  0  0  0
   -9.1549    2.2467  -11.3921 N   0  0  0  0  0  0  0  0  0  0  0  0
   -8.7374    3.1938   -9.2509 C   0  0  0  0  0  0  0  0  0  0  0  0
   -8.3592    4.2392   -8.4225 C   0  0  0  0  0  0  0  0  0  0  0  0
   -8.6034    3.7998   -7.0089 C   0  0  0  0  0  0  0  0  0  0  0  0
   -9.4602    2.5990   -7.0796 N   0  0  0  0  0  0  0  0  0  0  0  0
   -9.2667    2.0558   -8.4418 C   0  0  0  0  0  0  0  0  0  0  0  0
   -9.0646    2.2616  -12.3723 H   0  0  0  0  0  0  0  0  0  0  0  0
   -9.6490    1.5163  -10.9543 H   0  0  0  0  0  0  0  0  0  0  0  0
  -10.4378    2.8492   -6.9311 H   0  0  0  0  0  0  0  0  0  0  0  0
   -7.9020    8.1637   -6.4182 C   0  0  0  0  0  0  0  0  0  0  0  0
   -8.3333    7.2523   -7.3576 C   0  0  0  0  0  0  0  0  0  0  0  0
   -7.3951    6.5295   -8.0891 C   0  0  0  0  0  0  0  0  0  0  0  0
   -6.0510    6.8781   -7.9259 C   0  0  0  0  0  0  0  0  0  0  0  0
   -5.7187    7.8645   -7.0073 C   0  0  0  0  0  0  0  0  0  0  0  0
   -6.6141    8.4969   -6.2198 N   0  0  0  0  0  0  0  0  0  0  0  0
   -9.2306    7.8646   -4.5619 C   0  0  0  0  0  0  0  0  0  0  0  0
   -8.8919    8.7259   -5.6385 O   0  0  0  0  0  0  0  0  0  0  0  0
   -7.6598    4.3709  -12.6402 C   0  0  0  0  0  0  0  0  0  0  0  0
   -6.8389    3.5515  -13.0464 O   0  0  0  0  0  0  0  0  0  0  0  0
   -8.1911    5.3089  -13.6976 C   0  0  0  0  0  0  0  0  0  0  0  0
   -8.6975    6.3802  -13.4012 O   0  0  0  0  0  0  0  0  0  0  0  0
   -8.0353    4.9162  -15.1184 C   0  0  0  0  0  0  0  0  0  0  0  0
   -9.0533    4.1971  -15.7669 C   0  0  0  0  0  0  0  0  0  0  0  0
   -8.9393    3.8491  -17.1040 C   0  0  0  0  0  0  0  0  0  0  0  0
   -9.9356    3.1997  -17.7154 F   0  0  0  0  0  0  0  0  0  0  0  0
   -7.8200    4.1801  -17.8456 C   0  0  0  0  0  0  0  0  0  0  0  0
   -6.8055    4.8821  -17.1874 C   0  0  0  0  0  0  0  0  0  0  0  0
   -6.8735    5.2569  -15.8443 C   0  0  0  0  0  0  0  0  0  0  0  0
   -5.6209    5.8924  -15.5912 C   0  0  0  0  0  0  0  0  0  0  0  0
   -5.0912    6.4455  -14.3195 C   0  0  0  0  0  0  0  0  0  0  0  0
   -4.8567    5.9521  -16.6893 N   0  0  0  0  0  0  0  0  0  0  0  0
   -5.5991    5.3439  -17.6356 N   0  0  0  0  0  0  0  0  0  0  0  0
   -5.1029    5.2188  -18.9899 C   0  0  0  0  0  0  0  0  0  0  0  0
   -5.7160    6.2113  -19.8073 O   0  0  0  0  0  0  0  0  0  0  0  0
   -6.6781    6.0879  -19.7989 H   0  0  0  0  0  0  0  0  0  0  0  0
 20 21  1  0  0  0
 21 14  1  0  0  0
 14 15  2  0  0  0
 15 16  1  0  0  0
 16  1  1  0  0  0
  1  2  2  0  0  0
  2  3  1  0  0  0
  3 22  1  0  0  0
 22 23  2  0  0  0
 22 24  1  0  0  0
 24 25  2  0  0  0
 24 26  1  0  0  0
 26 27  2  0  0  0
 27 28  1  0  0  0
 28 29  1  0  0  0
 28 30  2  0  0  0
 30 31  1  0  0  0
 31 32  2  0  0  0
 32 33  1  0  0  0
 33 34  1  0  0  0
 33 35  2  0  0  0
 35 36  1  0  0  0
 36 37  1  0  0  0
 37 38  1  0  0  0
  3  4  2  0  0  0
  4  5  1  0  0  0
  4  6  1  0  0  0
  6  7  2  0  0  0
  7  8  1  0  0  0
  8  9  1  0  0  0
  9 10  1  0  0  0
 16 17  2  0  0  0
 17 18  1  0  0  0
 18 19  2  0  0  0
 19 14  1  0  0  0
  7  1  1  0  0  0
 32 26  1  0  0  0
 10  6  1  0  0  0
 36 31  1  0  0  0
 38 39  1  0  0  0
  5 11  1  0  0  0
  5 12  1  0  0  0
  9 13  1  0  0  0
M  END
> <minimizedAffinity>
-9.17554

> <minimizedRMSD>
0.68236

$$$$
P20820


 33 37  0  0  0  0  0  0  0  0999 V2000
   -8.0133    5.2966   -9.4557 C   0  0  0  0  0  0  0  0  0  0  0  0
   -7.8963    5.2964  -10.8672 C   0  0  0  0  0  0  0  0  0  0  0  0
   -8.2316    4.1718  -11.6391 C   0  0  0  0  0  0  0  0  0  0  0  0
   -8.6943    3.0135  -11.0133 C   0  0  0  0  0  0  0  0  0  0  0  0
   -8.8014    2.9989   -9.6324 C   0  0  0  0  0  0  0  0  0  0  0  0
   -8.4746    4.1124   -8.8661 C   0  0  0  0  0  0  0  0  0  0  0  0
   -8.6997    3.7706   -7.4251 C   0  0  0  0  0  0  0  0  0  0  0  0
   -9.1095    2.3558   -7.3552 N   0  0  0  0  0  0  0  0  0  0  0  0
   -9.2484    1.8816   -8.7511 C   0  0  0  0  0  0  0  0  0  0  0  0
  -10.0003    2.2720   -6.8656 H   0  0  0  0  0  0  0  0  0  0  0  0
   -8.0382    8.0377   -6.8710 C   0  0  0  0  0  0  0  0  0  0  0  0
   -8.4929    7.0501   -7.7243 C   0  0  0  0  0  0  0  0  0  0  0  0
   -7.6242    6.4749   -8.6539 C   0  0  0  0  0  0  0  0  0  0  0  0
   -6.3458    7.0344   -8.7426 C   0  0  0  0  0  0  0  0  0  0  0  0
   -5.9950    8.0685   -7.8825 C   0  0  0  0  0  0  0  0  0  0  0  0
   -6.8031    8.5668   -6.9225 N   0  0  0  0  0  0  0  0  0  0  0  0
   -8.3037    9.0033   -4.7736 C   0  0  0  0  0  0  0  0  0  0  0  0
   -8.9450    8.4510   -5.9123 O   0  0  0  0  0  0  0  0  0  0  0  0
   -8.1659    4.1796  -13.0346 N   0  0  0  0  0  0  0  0  0  0  0  0
   -7.5150    5.1996  -14.0080 C   0  0  0  0  0  0  0  0  0  0  0  0
   -7.0013    6.2283  -13.7952 O   0  0  0  0  0  0  0  0  0  0  0  0
   -8.6035    3.4139  -13.4721 H   0  0  0  0  0  0  0  0  0  0  0  0
   -7.7011    4.7691  -15.4141 C   0  0  0  0  0  0  0  0  0  0  0  0
   -8.9290    4.2215  -15.8591 C   0  0  0  0  0  0  0  0  0  0  0  0
   -9.1938    3.8875  -17.2134 C   0  0  0  0  0  0  0  0  0  0  0  0
  -10.4041    3.3898  -17.5058 F   0  0  0  0  0  0  0  0  0  0  0  0
   -8.2797    4.0588  -18.2586 C   0  0  0  0  0  0  0  0  0  0  0  0
   -7.0561    4.6132  -17.8575 C   0  0  0  0  0  0  0  0  0  0  0  0
   -5.9765    4.9056  -18.5973 N   0  0  0  0  0  0  0  0  0  0  0  0
   -5.0549    5.3366  -17.7253 N   0  0  0  0  0  0  0  0  0  0  0  0
   -3.7351    5.6256  -18.2400 C   0  0  0  0  0  0  0  0  0  0  0  0
   -5.5076    5.4271  -16.4349 C   0  0  0  0  0  0  0  0  0  0  0  0
   -6.7966    4.9517  -16.4716 C   0  0  0  0  0  0  0  0  0  0  0  0
 17 18  1  0  0  0
 18 11  1  0  0  0
 11 12  2  0  0  0
 12 13  1  0  0  0
 13  1  1  0  0  0
  1  2  2  0  0  0
  2  3  1  0  0  0
  3 19  1  0  0  0
 19 20  1  0  0  0
 20 21  2  0  0  0
 20 23  1  0  0  0
 23 24  2  0  0  0
 24 25  1  0  0  0
 25 26  1  0  0  0
 25 27  2  0  0  0
 27 28  1  0  0  0
 28 29  2  0  0  0
 29 30  1  0  0  0
 30 31  1  0  0  0
 30 32  1  0  0  0
 32 33  2  0  0  0
  3  4  2  0  0  0
  4  5  1  0  0  0
  5  6  2  0  0  0
  6  7  1  0  0  0
  7  8  1  0  0  0
  8  9  1  0  0  0
 13 14  2  0  0  0
 14 15  1  0  0  0
 15 16  2  0  0  0
 16 11  1  0  0  0
  6  1  1  0  0  0
 33 23  1  0  0  0
  9  5  1  0  0  0
 33 28  1  0  0  0
 19 22  1  0  0  0
  8 10  1  0  0  0
M  END
> <minimizedAffinity>
-8.82036

> <minimizedRMSD>
0.32911

$$$$
P20821


 36 40  0  0  0  0  0  0  0  0999 V2000
   -7.8798    5.2422   -9.4815 C   0  0  0  0  0  0  0  0  0  0  0  0
   -7.7856    5.2047  -10.8941 C   0  0  0  0  0  0  0  0  0  0  0  0
   -8.1823    4.0838  -11.6434 C   0  0  0  0  0  0  0  0  0  0  0  0
   -8.6844    2.9593  -10.9957 C   0  0  0  0  0  0  0  0  0  0  0  0
   -8.7862    2.9842   -9.6168 C   0  0  0  0  0  0  0  0  0  0  0  0
   -8.4122    4.1029   -8.8678 C   0  0  0  0  0  0  0  0  0  0  0  0
   -8.6295    3.7644   -7.4209 C   0  0  0  0  0  0  0  0  0  0  0  0
   -9.4621    2.5417   -7.4002 N   0  0  0  0  0  0  0  0  0  0  0  0
   -9.2148    1.8854   -8.7008 C   0  0  0  0  0  0  0  0  0  0  0  0
  -10.4486    2.7818   -7.3022 H   0  0  0  0  0  0  0  0  0  0  0  0
   -7.7224    8.2418   -7.2023 C   0  0  0  0  0  0  0  0  0  0  0  0
   -8.2409    7.2442   -8.0070 C   0  0  0  0  0  0  0  0  0  0  0  0
   -7.3839    6.4109   -8.7248 C   0  0  0  0  0  0  0  0  0  0  0  0
   -6.0189    6.7173   -8.6590 C   0  0  0  0  0  0  0  0  0  0  0  0
   -5.5927    7.7763   -7.8660 C   0  0  0  0  0  0  0  0  0  0  0  0
   -6.4132    8.5348   -7.1098 N   0  0  0  0  0  0  0  0  0  0  0  0
   -8.3076    9.0005   -5.0887 C   0  0  0  0  0  0  0  0  0  0  0  0
   -8.6551    8.9452   -6.4633 O   0  0  0  0  0  0  0  0  0  0  0  0
   -8.0755    4.0493  -13.0344 N   0  0  0  0  0  0  0  0  0  0  0  0
   -7.5751    5.1229  -14.0314 C   0  0  0  0  0  0  0  0  0  0  0  0
   -7.1027    6.1739  -13.8384 O   0  0  0  0  0  0  0  0  0  0  0  0
   -8.3655    3.2049  -13.4492 H   0  0  0  0  0  0  0  0  0  0  0  0
   -7.7822    4.6977  -15.4296 C   0  0  0  0  0  0  0  0  0  0  0  0
   -8.9981    4.1711  -15.9070 C   0  0  0  0  0  0  0  0  0  0  0  0
   -9.2443    3.8909  -17.2810 C   0  0  0  0  0  0  0  0  0  0  0  0
  -10.4631    3.4541  -17.6222 F   0  0  0  0  0  0  0  0  0  0  0  0
   -8.3099    4.0667  -18.3065 C   0  0  0  0  0  0  0  0  0  0  0  0
   -7.0901    4.5826  -17.8593 C   0  0  0  0  0  0  0  0  0  0  0  0
   -5.9900    4.8817  -18.5603 N   0  0  0  0  0  0  0  0  0  0  0  0
   -5.0822    5.2959  -17.6478 N   0  0  0  0  0  0  0  0  0  0  0  0
   -5.5776    5.3477  -16.3685 C   0  0  0  0  0  0  0  0  0  0  0  0
   -6.8627    4.8829  -16.4640 C   0  0  0  0  0  0  0  0  0  0  0  0
   -3.7153    5.6021  -18.0697 C   0  0  0  0  0  0  0  0  0  0  0  0
   -3.0905    4.5195  -18.6037 F   0  0  0  0  0  0  0  0  0  0  0  0
   -3.6631    6.6059  -18.9855 F   0  0  0  0  0  0  0  0  0  0  0  0
   -2.9479    6.0057  -17.0167 F   0  0  0  0  0  0  0  0  0  0  0  0
 17 18  1  0  0  0
 18 11  1  0  0  0
 11 12  2  0  0  0
 12 13  1  0  0  0
 13  1  1  0  0  0
  1  2  2  0  0  0
  2  3  1  0  0  0
  3 19  1  0  0  0
 19 20  1  0  0  0
 20 21  2  0  0  0
 20 23  1  0  0  0
 23 24  2  0  0  0
 24 25  1  0  0  0
 25 26  1  0  0  0
 25 27  2  0  0  0
 27 28  1  0  0  0
 28 29  2  0  0  0
 29 30  1  0  0  0
 30 33  1  0  0  0
 33 34  1  0  0  0
 33 35  1  0  0  0
 33 36  1  0  0  0
 30 31  1  0  0  0
 31 32  2  0  0  0
  3  4  2  0  0  0
  4  5  1  0  0  0
  5  6  2  0  0  0
  6  7  1  0  0  0
  7  8  1  0  0  0
  8  9  1  0  0  0
 13 14  2  0  0  0
 14 15  1  0  0  0
 15 16  2  0  0  0
 16 11  1  0  0  0
  6  1  1  0  0  0
 32 23  1  0  0  0
  9  5  1  0  0  0
 32 28  1  0  0  0
 19 22  1  0  0  0
  8 10  1  0  0  0
M  END
> <minimizedAffinity>
-8.97571

> <minimizedRMSD>
0.38708

$$$$
P20822


 41 45  0  0  0  0  0  0  0  0999 V2000
   -7.1368    4.6962  -13.5625 C   0  0  0  0  0  0  0  0  0  0  0  0
   -6.0679    3.7947  -13.2966 O   0  0  0  0  0  0  0  0  0  0  0  0
   -5.8493    3.8220  -12.3519 H   0  0  0  0  0  0  0  0  0  0  0  0
   -7.4338    4.6060  -15.0694 C   0  0  0  0  0  0  0  0  0  0  0  0
   -8.6922    4.1665  -15.5598 C   0  0  0  0  0  0  0  0  0  0  0  0
   -8.9607    4.0202  -16.9188 C   0  0  0  0  0  0  0  0  0  0  0  0
  -10.1651    3.5906  -17.3132 F   0  0  0  0  0  0  0  0  0  0  0  0
   -8.0158    4.3153  -17.8831 C   0  0  0  0  0  0  0  0  0  0  0  0
   -6.7975    4.8042  -17.4225 C   0  0  0  0  0  0  0  0  0  0  0  0
   -5.6865    5.2020  -18.1174 N   0  0  0  0  0  0  0  0  0  0  0  0
   -4.6803    5.6361  -17.3318 N   0  0  0  0  0  0  0  0  0  0  0  0
   -5.1591    5.4522  -16.0974 C   0  0  0  0  0  0  0  0  0  0  0  0
   -6.4867    4.9555  -16.0728 C   0  0  0  0  0  0  0  0  0  0  0  0
   -5.6279    5.1737  -19.0997 H   0  0  0  0  0  0  0  0  0  0  0  0
   -5.2557    6.0992  -12.6310 N   0  0  0  0  0  0  0  0  0  0  0  0
   -6.7021    6.2014  -13.2101 C   0  0  0  0  0  0  0  0  0  0  0  0
   -7.3750    7.1386  -13.4066 O   0  0  0  0  0  0  0  0  0  0  0  0
   -4.8732    5.1921  -12.6344 H   0  0  0  0  0  0  0  0  0  0  0  0
   -4.3928    7.1141  -12.0941 C   0  0  0  0  0  0  0  0  0  0  0  0
   -3.0155    9.1471  -12.6368 C   0  0  0  0  0  0  0  0  0  0  0  0
   -3.8171    7.9868  -13.2020 C   0  0  0  0  0  0  0  0  0  0  0  0
   -8.2799    4.2224  -12.7647 N   0  0  0  0  0  0  0  0  0  0  0  0
   -9.0815    3.9198  -13.2497 H   0  0  0  0  0  0  0  0  0  0  0  0
   -8.3088    4.1711  -11.3682 C   0  0  0  0  0  0  0  0  0  0  0  0
   -8.7277    2.9871  -10.7514 C   0  0  0  0  0  0  0  0  0  0  0  0
   -8.8351    2.9329   -9.3719 C   0  0  0  0  0  0  0  0  0  0  0  0
   -8.5247    4.0256   -8.5652 C   0  0  0  0  0  0  0  0  0  0  0  0
   -8.0582    5.2141   -9.1220 C   0  0  0  0  0  0  0  0  0  0  0  0
   -7.9967    5.2634  -10.5372 C   0  0  0  0  0  0  0  0  0  0  0  0
   -8.7587    3.6187   -7.1413 C   0  0  0  0  0  0  0  0  0  0  0  0
   -9.5455    2.3672   -7.1951 N   0  0  0  0  0  0  0  0  0  0  0  0
   -9.2389    1.7774   -8.5172 C   0  0  0  0  0  0  0  0  0  0  0  0
  -10.5425    2.5669   -7.1144 H   0  0  0  0  0  0  0  0  0  0  0  0
   -7.6135    6.3690   -8.3191 C   0  0  0  0  0  0  0  0  0  0  0  0
   -6.2776    6.7905   -8.3321 C   0  0  0  0  0  0  0  0  0  0  0  0
   -5.8816    7.8362   -7.5086 C   0  0  0  0  0  0  0  0  0  0  0  0
   -6.7034    8.4733   -6.6506 N   0  0  0  0  0  0  0  0  0  0  0  0
   -7.9864    8.0675   -6.6648 C   0  0  0  0  0  0  0  0  0  0  0  0
   -8.4808    7.0717   -7.4864 C   0  0  0  0  0  0  0  0  0  0  0  0
   -8.9156    8.6491   -5.8237 O   0  0  0  0  0  0  0  0  0  0  0  0
   -8.3016    9.2502   -4.6950 C   0  0  0  0  0  0  0  0  0  0  0  0
 20 21  1  0  0  0
 21 19  1  0  0  0
 19 15  1  0  0  0
 15 16  1  0  0  0
 16 17  2  0  0  0
 16  1  1  0  0  0
  1  2  1  0  0  0
  1 22  1  0  0  0
 22 24  1  0  0  0
 24 25  2  0  0  0
 25 26  1  0  0  0
 26 27  2  0  0  0
 27 28  1  0  0  0
 28 34  1  0  0  0
 34 35  2  0  0  0
 35 36  1  0  0  0
 36 37  2  0  0  0
 37 38  1  0  0  0
 38 40  1  0  0  0
 40 41  1  0  0  0
 38 39  2  0  0  0
 28 29  2  0  0  0
 27 30  1  0  0  0
 30 31  1  0  0  0
 31 32  1  0  0  0
  1  4  1  0  0  0
  4  5  2  0  0  0
  5  6  1  0  0  0
  6  7  1  0  0  0
  6  8  2  0  0  0
  8  9  1  0  0  0
  9 10  1  0  0  0
 10 11  1  0  0  0
 11 12  2  0  0  0
 12 13  1  0  0  0
 29 24  1  0  0  0
 13  4  1  0  0  0
 32 26  1  0  0  0
 13  9  2  0  0  0
 39 34  1  0  0  0
 15 18  1  0  0  0
  2  3  1  0  0  0
 22 23  1  0  0  0
 31 33  1  0  0  0
 10 14  1  0  0  0
M  END
> <minimizedAffinity>
-7.65482

> <minimizedRMSD>
0.35893

$$$$
P20823


 34 38  0  0  0  0  0  0  0  0999 V2000
   -8.0894    4.2359  -10.9051 C   0  0  0  0  0  0  0  0  0  0  0  0
   -8.6108    3.0181  -10.4772 C   0  0  0  0  0  0  0  0  0  0  0  0
   -8.8748    2.8572   -9.1277 C   0  0  0  0  0  0  0  0  0  0  0  0
   -8.6525    3.8818   -8.2098 C   0  0  0  0  0  0  0  0  0  0  0  0
   -8.1578    5.1269   -8.6109 C   0  0  0  0  0  0  0  0  0  0  0  0
   -7.8854    5.2757   -9.9868 C   0  0  0  0  0  0  0  0  0  0  0  0
   -9.0140    3.3747   -6.8483 C   0  0  0  0  0  0  0  0  0  0  0  0
   -9.3182    1.9368   -6.9773 N   0  0  0  0  0  0  0  0  0  0  0  0
   -9.3925    1.6482   -8.4271 C   0  0  0  0  0  0  0  0  0  0  0  0
  -10.2100    1.7243   -6.5301 H   0  0  0  0  0  0  0  0  0  0  0  0
   -7.8758    6.2260   -7.6683 C   0  0  0  0  0  0  0  0  0  0  0  0
   -6.6069    6.8136   -7.5836 C   0  0  0  0  0  0  0  0  0  0  0  0
   -6.3695    7.7901   -6.6254 C   0  0  0  0  0  0  0  0  0  0  0  0
   -7.2850    8.2033   -5.7256 N   0  0  0  0  0  0  0  0  0  0  0  0
   -8.5041    7.6456   -5.8368 C   0  0  0  0  0  0  0  0  0  0  0  0
   -8.8473    6.7086   -6.7926 C   0  0  0  0  0  0  0  0  0  0  0  0
   -9.5162    7.9864   -4.9601 O   0  0  0  0  0  0  0  0  0  0  0  0
  -10.2505    6.8507   -4.5322 C   0  0  0  0  0  0  0  0  0  0  0  0
   -8.4209    5.3211  -13.3245 C   0  0  0  0  0  0  0  0  0  0  0  0
   -9.2497    6.1391  -13.2245 O   0  0  0  0  0  0  0  0  0  0  0  0
   -7.7834    4.4005  -12.2525 N   0  0  0  0  0  0  0  0  0  0  0  0
   -7.0414    3.8413  -12.5780 H   0  0  0  0  0  0  0  0  0  0  0  0
   -8.2743    4.2087  -16.9418 C   0  0  0  0  0  0  0  0  0  0  0  0
   -8.7179    4.4102  -15.6317 C   0  0  0  0  0  0  0  0  0  0  0  0
   -7.8909    5.0136  -14.6744 C   0  0  0  0  0  0  0  0  0  0  0  0
   -6.6068    5.4355  -15.0603 C   0  0  0  0  0  0  0  0  0  0  0  0
   -5.5096    6.0899  -14.4582 C   0  0  0  0  0  0  0  0  0  0  0  0
   -4.4874    6.2805  -15.3008 N   0  0  0  0  0  0  0  0  0  0  0  0
   -4.9363    5.7510  -16.4575 N   0  0  0  0  0  0  0  0  0  0  0  0
   -4.1445    5.8563  -17.6593 C   0  0  0  0  0  0  0  0  0  0  0  0
   -6.1911    5.2127  -16.3691 C   0  0  0  0  0  0  0  0  0  0  0  0
   -6.9876    4.5830  -17.3228 C   0  0  0  0  0  0  0  0  0  0  0  0
  -10.5299    4.2863  -18.0676 C   0  0  0  0  0  0  0  0  0  0  0  0
   -9.1941    3.6121  -17.9545 C   0  0  0  0  0  0  0  0  0  0  0  0
 33 34  1  0  0  0
 34 23  1  0  0  0
 23 24  2  0  0  0
 24 25  1  0  0  0
 25 19  1  0  0  0
 19 20  2  0  0  0
 19 21  1  0  0  0
 21  1  1  0  0  0
  1  2  2  0  0  0
  2  3  1  0  0  0
  3  4  2  0  0  0
  4  5  1  0  0  0
  5 11  1  0  0  0
 11 12  2  0  0  0
 12 13  1  0  0  0
 13 14  2  0  0  0
 14 15  1  0  0  0
 15 17  1  0  0  0
 17 18  1  0  0  0
 15 16  2  0  0  0
  5  6  2  0  0  0
  4  7  1  0  0  0
  7  8  1  0  0  0
  8  9  1  0  0  0
 25 26  2  0  0  0
 26 27  1  0  0  0
 27 28  2  0  0  0
 28 29  1  0  0  0
 29 30  1  0  0  0
 29 31  1  0  0  0
 31 32  2  0  0  0
 32 23  1  0  0  0
  6  1  1  0  0  0
 31 26  1  0  0  0
  9  3  1  0  0  0
 16 11  1  0  0  0
 21 22  1  0  0  0
  8 10  1  0  0  0
M  END
> <minimizedAffinity>
-8.98880

> <minimizedRMSD>
1.27900

$$$$
P20824


 39 43  0  0  0  0  0  0  0  0999 V2000
   -8.1671    4.0989  -12.9582 N   0  0  0  0  0  0  0  0  0  0  0  0
   -7.6250    5.1452  -13.9626 C   0  0  0  0  0  0  0  0  0  0  0  0
   -7.0925    6.1688  -13.7766 O   0  0  0  0  0  0  0  0  0  0  0  0
   -8.5095    3.2723  -13.3688 H   0  0  0  0  0  0  0  0  0  0  0  0
   -7.8776    5.2868   -9.4123 C   0  0  0  0  0  0  0  0  0  0  0  0
   -7.8159    5.2519  -10.8255 C   0  0  0  0  0  0  0  0  0  0  0  0
   -8.2493    4.1371  -11.5649 C   0  0  0  0  0  0  0  0  0  0  0  0
   -8.7644    3.0250  -10.9030 C   0  0  0  0  0  0  0  0  0  0  0  0
   -8.8205    3.0438   -9.5196 C   0  0  0  0  0  0  0  0  0  0  0  0
   -8.3931    4.1463   -8.7857 C   0  0  0  0  0  0  0  0  0  0  0  0
   -8.5865    3.8426   -7.3320 C   0  0  0  0  0  0  0  0  0  0  0  0
   -9.0470    2.4457   -7.2243 N   0  0  0  0  0  0  0  0  0  0  0  0
   -9.2954    1.9696   -8.6027 C   0  0  0  0  0  0  0  0  0  0  0  0
   -9.9067    2.4007   -6.6771 H   0  0  0  0  0  0  0  0  0  0  0  0
   -7.7288    8.2758   -7.1235 C   0  0  0  0  0  0  0  0  0  0  0  0
   -8.2401    7.2917   -7.9482 C   0  0  0  0  0  0  0  0  0  0  0  0
   -7.3765    6.4500   -8.6511 C   0  0  0  0  0  0  0  0  0  0  0  0
   -6.0103    6.7350   -8.5524 C   0  0  0  0  0  0  0  0  0  0  0  0
   -5.5897    7.7805   -7.7381 C   0  0  0  0  0  0  0  0  0  0  0  0
   -6.4176    8.5442   -6.9941 N   0  0  0  0  0  0  0  0  0  0  0  0
   -8.1609    9.4467   -5.1625 C   0  0  0  0  0  0  0  0  0  0  0  0
   -8.6718    8.9842   -6.4022 O   0  0  0  0  0  0  0  0  0  0  0  0
   -7.8165    4.7069  -15.3641 C   0  0  0  0  0  0  0  0  0  0  0  0
   -9.0236    4.1848  -15.8696 C   0  0  0  0  0  0  0  0  0  0  0  0
   -9.2369    3.9096  -17.2507 C   0  0  0  0  0  0  0  0  0  0  0  0
  -10.4492    3.4791  -17.6213 F   0  0  0  0  0  0  0  0  0  0  0  0
   -8.2781    4.0892  -18.2553 C   0  0  0  0  0  0  0  0  0  0  0  0
   -7.0685    4.6077  -17.7809 C   0  0  0  0  0  0  0  0  0  0  0  0
   -5.9555    4.9384  -18.4509 N   0  0  0  0  0  0  0  0  0  0  0  0
   -5.0743    5.3576  -17.5244 N   0  0  0  0  0  0  0  0  0  0  0  0
   -5.5940    5.3567  -16.2552 C   0  0  0  0  0  0  0  0  0  0  0  0
   -6.8755    4.8906  -16.3818 C   0  0  0  0  0  0  0  0  0  0  0  0
   -3.7424    5.7996  -17.9549 C   0  0  0  0  0  0  0  0  0  0  0  0
   -2.7919    5.9417  -16.7418 C   0  0  0  0  0  0  0  0  0  0  0  0
   -3.0816    4.7980  -18.9277 C   0  0  0  0  0  0  0  0  0  0  0  0
   -3.8054    7.4348  -18.8192 S   0  0  0  0  0  0  0  0  0  0  0  0
   -5.0620    8.3577  -17.9763 C   0  0  0  0  0  0  0  0  0  0  0  0
   -4.2609    7.2853  -20.1900 O   0  0  0  0  0  0  0  0  0  0  0  0
   -2.5590    8.1428  -18.5697 O   0  0  0  0  0  0  0  0  0  0  0  0
 21 22  1  0  0  0
 22 15  1  0  0  0
 15 16  2  0  0  0
 16 17  1  0  0  0
 17  5  1  0  0  0
  5  6  2  0  0  0
  6  7  1  0  0  0
  7  1  1  0  0  0
  1  2  1  0  0  0
  2  3  2  0  0  0
  2 23  1  0  0  0
 23 24  2  0  0  0
 24 25  1  0  0  0
 25 26  1  0  0  0
 25 27  2  0  0  0
 27 28  1  0  0  0
 28 29  2  0  0  0
 29 30  1  0  0  0
 30 33  1  0  0  0
 33 34  1  0  0  0
 33 35  1  0  0  0
 33 36  1  0  0  0
 36 37  1  0  0  0
 36 38  2  0  0  0
 36 39  2  0  0  0
 30 31  1  0  0  0
 31 32  2  0  0  0
  7  8  2  0  0  0
  8  9  1  0  0  0
  9 10  2  0  0  0
 10 11  1  0  0  0
 11 12  1  0  0  0
 12 13  1  0  0  0
 17 18  2  0  0  0
 18 19  1  0  0  0
 19 20  2  0  0  0
 20 15  1  0  0  0
 10  5  1  0  0  0
 32 23  1  0  0  0
 13  9  1  0  0  0
 32 28  1  0  0  0
  1  4  1  0  0  0
 12 14  1  0  0  0
M  END
> <minimizedAffinity>
-9.02511

> <minimizedRMSD>
0.40486

$$$$
P20825


 40 45  0  0  0  0  0  0  0  0999 V2000
   -8.1344    3.9229  -12.9835 N   0  0  0  0  0  0  0  0  0  0  0  0
   -8.2953    3.0555  -13.4205 H   0  0  0  0  0  0  0  0  0  0  0  0
   -7.9743    5.1676   -9.4033 C   0  0  0  0  0  0  0  0  0  0  0  0
   -7.8357    5.1094  -10.8114 C   0  0  0  0  0  0  0  0  0  0  0  0
   -8.2557    4.0076  -11.5905 C   0  0  0  0  0  0  0  0  0  0  0  0
   -8.7431    2.8880  -10.9130 C   0  0  0  0  0  0  0  0  0  0  0  0
   -8.8518    2.9128   -9.5322 C   0  0  0  0  0  0  0  0  0  0  0  0
   -8.4903    4.0287   -8.7885 C   0  0  0  0  0  0  0  0  0  0  0  0
   -8.7563    3.7355   -7.3454 C   0  0  0  0  0  0  0  0  0  0  0  0
   -9.1131    2.3076   -7.2456 N   0  0  0  0  0  0  0  0  0  0  0  0
   -9.3470    1.8374   -8.6304 C   0  0  0  0  0  0  0  0  0  0  0  0
   -9.9587    2.1934   -6.6867 H   0  0  0  0  0  0  0  0  0  0  0  0
   -7.9906    8.0219   -6.9490 C   0  0  0  0  0  0  0  0  0  0  0  0
   -8.4391    6.9797   -7.7375 C   0  0  0  0  0  0  0  0  0  0  0  0
   -7.5717    6.3697   -8.6454 C   0  0  0  0  0  0  0  0  0  0  0  0
   -6.2981    6.9357   -8.7712 C   0  0  0  0  0  0  0  0  0  0  0  0
   -5.9532    8.0207   -7.9738 C   0  0  0  0  0  0  0  0  0  0  0  0
   -6.7632    8.5640   -7.0418 N   0  0  0  0  0  0  0  0  0  0  0  0
   -8.2546    9.0365   -4.8774 C   0  0  0  0  0  0  0  0  0  0  0  0
   -8.8978    8.4854   -6.0154 O   0  0  0  0  0  0  0  0  0  0  0  0
   -7.7794    5.0690  -13.8109 C   0  0  0  0  0  0  0  0  0  0  0  0
   -7.6378    4.7237  -15.2877 C   0  0  0  0  0  0  0  0  0  0  0  0
   -8.6758    4.0812  -15.9882 C   0  0  0  0  0  0  0  0  0  0  0  0
   -8.6206    3.9157  -17.3725 C   0  0  0  0  0  0  0  0  0  0  0  0
   -9.6532    3.3324  -17.9952 F   0  0  0  0  0  0  0  0  0  0  0  0
   -7.5435    4.3876  -18.1134 C   0  0  0  0  0  0  0  0  0  0  0  0
   -6.5146    5.0377  -17.4468 C   0  0  0  0  0  0  0  0  0  0  0  0
   -6.5501    5.1703  -16.0529 C   0  0  0  0  0  0  0  0  0  0  0  0
   -5.3287    5.9103  -15.6144 C   0  0  0  0  0  0  0  0  0  0  0  0
   -4.4385    5.9848  -16.7977 N   0  0  0  0  0  0  0  0  0  0  0  0
   -5.3046    5.7639  -18.0017 C   0  0  0  0  0  0  0  0  0  0  0  0
   -5.7082    7.1242  -18.5933 C   0  0  0  0  0  0  0  0  0  0  0  0
   -4.5872    7.8407  -19.3398 C   0  0  0  0  0  0  0  0  0  0  0  0
   -4.0462    7.0074  -20.4122 N   0  0  0  0  0  0  0  0  0  0  0  0
   -3.4919    5.7905  -19.8221 C   0  0  0  0  0  0  0  0  0  0  0  0
   -4.5532    4.9804  -19.0806 C   0  0  0  0  0  0  0  0  0  0  0  0
   -3.7205    5.2623  -16.7436 H   0  0  0  0  0  0  0  0  0  0  0  0
   -3.3119    7.5156  -20.9052 H   0  0  0  0  0  0  0  0  0  0  0  0
   -8.7017    6.2506  -13.6612 N   0  0  0  0  0  0  0  0  0  0  0  0
   -9.8779    6.0035  -13.9477 O   0  0  0  0  0  0  0  0  0  0  0  0
 19 20  1  0  0  0
 20 13  1  0  0  0
 13 14  2  0  0  0
 14 15  1  0  0  0
 15  3  1  0  0  0
  3  4  2  0  0  0
  4  5  1  0  0  0
  5  1  1  0  0  0
 21  1  1  0  0  0
 21 39  1  0  0  0
 39 40  2  0  0  0
 21 22  1  0  0  0
 22 23  2  0  0  0
 23 24  1  0  0  0
 24 25  1  0  0  0
 24 26  2  0  0  0
 26 27  1  0  0  0
 27 28  2  0  0  0
 28 29  1  0  0  0
 29 30  1  0  0  0
 30 31  1  0  0  0
 31 32  1  0  0  0
 32 33  1  0  0  0
 33 34  1  0  0  0
 34 35  1  0  0  0
 35 36  1  0  0  0
  5  6  2  0  0  0
  6  7  1  0  0  0
  7  8  2  0  0  0
  8  9  1  0  0  0
  9 10  1  0  0  0
 10 11  1  0  0  0
 15 16  2  0  0  0
 16 17  1  0  0  0
 17 18  2  0  0  0
 18 13  1  0  0  0
  8  3  1  0  0  0
 28 22  1  0  0  0
 36 31  1  0  0  0
 11  7  1  0  0  0
 31 27  1  0  0  0
  1  2  1  0  0  0
 30 37  1  0  0  0
 34 38  1  0  0  0
 10 12  1  0  0  0
M  END
> <minimizedAffinity>
-9.62572

> <minimizedRMSD>
0.19450

$$$$
P20828


 35 39  0  0  0  0  0  0  0  0999 V2000
   -7.7835    5.0592   -9.3124 C   0  0  0  0  0  0  0  0  0  0  0  0
   -7.5112    4.9772  -10.7088 C   0  0  0  0  0  0  0  0  0  0  0  0
   -8.0740    3.9651  -11.5345 C   0  0  0  0  0  0  0  0  0  0  0  0
   -8.7182    2.8845  -10.9485 C   0  0  0  0  0  0  0  0  0  0  0  0
   -8.8999    2.9009   -9.5770 C   0  0  0  0  0  0  0  0  0  0  0  0
   -8.5048    3.9820   -8.7818 C   0  0  0  0  0  0  0  0  0  0  0  0
   -8.8866    3.6636   -7.3623 C   0  0  0  0  0  0  0  0  0  0  0  0
   -9.7722    2.4819   -7.4255 N   0  0  0  0  0  0  0  0  0  0  0  0
   -9.4514    1.8208   -8.7059 C   0  0  0  0  0  0  0  0  0  0  0  0
  -10.7511    2.7679   -7.4067 H   0  0  0  0  0  0  0  0  0  0  0  0
   -7.6528    8.3359   -7.4387 C   0  0  0  0  0  0  0  0  0  0  0  0
   -8.0310    7.3585   -8.3428 C   0  0  0  0  0  0  0  0  0  0  0  0
   -7.3093    6.1650   -8.4364 C   0  0  0  0  0  0  0  0  0  0  0  0
   -6.1688    6.0801   -7.6311 C   0  0  0  0  0  0  0  0  0  0  0  0
   -5.8103    7.1523   -6.8219 C   0  0  0  0  0  0  0  0  0  0  0  0
   -6.5418    8.2743   -6.6867 N   0  0  0  0  0  0  0  0  0  0  0  0
   -7.9783   10.4414   -6.5151 C   0  0  0  0  0  0  0  0  0  0  0  0
   -8.5302    9.3936   -7.3002 O   0  0  0  0  0  0  0  0  0  0  0  0
   -7.9512    3.9962  -12.9318 N   0  0  0  0  0  0  0  0  0  0  0  0
   -8.6728    4.8697  -13.9840 C   0  0  0  0  0  0  0  0  0  0  0  0
   -9.4249    5.7517  -13.8476 O   0  0  0  0  0  0  0  0  0  0  0  0
   -7.2996    3.3581  -13.3027 H   0  0  0  0  0  0  0  0  0  0  0  0
   -8.2408    4.5676  -15.3466 C   0  0  0  0  0  0  0  0  0  0  0  0
   -9.0729    3.9874  -16.3108 C   0  0  0  0  0  0  0  0  0  0  0  0
   -8.6970    3.8799  -17.6765 C   0  0  0  0  0  0  0  0  0  0  0  0
   -9.5983    3.3497  -18.5148 F   0  0  0  0  0  0  0  0  0  0  0  0
   -7.4630    4.3053  -18.2039 C   0  0  0  0  0  0  0  0  0  0  0  0
   -6.6085    4.8794  -17.2497 C   0  0  0  0  0  0  0  0  0  0  0  0
   -5.3780    5.4072  -17.3788 N   0  0  0  0  0  0  0  0  0  0  0  0
   -5.0302    5.7926  -16.1410 N   0  0  0  0  0  0  0  0  0  0  0  0
   -5.9857    5.5805  -15.1953 C   0  0  0  0  0  0  0  0  0  0  0  0
   -7.0184    4.9889  -15.8715 C   0  0  0  0  0  0  0  0  0  0  0  0
   -4.1560    6.1955  -15.9343 H   0  0  0  0  0  0  0  0  0  0  0  0
   -6.3965    5.6952  -11.2625 C   0  0  0  0  0  0  0  0  0  0  0  0
   -5.4663    6.1153  -11.8199 N   0  0  0  0  0  0  0  0  0  0  0  0
 17 18  1  0  0  0
 18 11  1  0  0  0
 11 12  2  0  0  0
 12 13  1  0  0  0
 13  1  1  0  0  0
  1  2  2  0  0  0
  2 34  1  0  0  0
 34 35  3  0  0  0
  2  3  1  0  0  0
  3 19  1  0  0  0
 19 20  1  0  0  0
 20 21  2  0  0  0
 20 23  1  0  0  0
 23 24  2  0  0  0
 24 25  1  0  0  0
 25 26  1  0  0  0
 25 27  2  0  0  0
 27 28  1  0  0  0
 28 29  2  0  0  0
 29 30  1  0  0  0
 30 31  1  0  0  0
 31 32  2  0  0  0
  3  4  2  0  0  0
  4  5  1  0  0  0
  5  6  2  0  0  0
  6  7  1  0  0  0
  7  8  1  0  0  0
  8  9  1  0  0  0
 13 14  2  0  0  0
 14 15  1  0  0  0
 15 16  2  0  0  0
 16 11  1  0  0  0
  6  1  1  0  0  0
 32 23  1  0  0  0
  9  5  1  0  0  0
 32 28  1  0  0  0
 19 22  1  0  0  0
 30 33  1  0  0  0
  8 10  1  0  0  0
M  END
> <minimizedAffinity>
-8.50686

> <minimizedRMSD>
0.82813

$$$$
P20829


 42 47  0  0  0  0  0  0  0  0999 V2000
   -8.3152    4.1086  -12.8588 N   0  0  0  0  0  0  0  0  0  0  0  0
   -7.9619    5.2495  -13.8418 C   0  0  0  0  0  0  0  0  0  0  0  0
   -7.7121    6.3727  -13.6400 O   0  0  0  0  0  0  0  0  0  0  0  0
   -8.5620    3.2572  -13.2871 H   0  0  0  0  0  0  0  0  0  0  0  0
   -7.9794    4.7835  -15.2542 C   0  0  0  0  0  0  0  0  0  0  0  0
   -9.1029    4.1590  -15.7981 C   0  0  0  0  0  0  0  0  0  0  0  0
   -9.1378    3.8400  -17.1592 C   0  0  0  0  0  0  0  0  0  0  0  0
  -10.2438    3.2856  -17.6688 F   0  0  0  0  0  0  0  0  0  0  0  0
   -8.0605    4.0976  -17.9958 C   0  0  0  0  0  0  0  0  0  0  0  0
   -6.9563    4.7217  -17.4510 C   0  0  0  0  0  0  0  0  0  0  0  0
   -6.9145    5.0617  -16.0995 C   0  0  0  0  0  0  0  0  0  0  0  0
   -5.5921    5.6903  -15.8069 C   0  0  0  0  0  0  0  0  0  0  0  0
   -5.0597    5.9432  -17.2521 C   0  0  0  0  0  0  0  0  0  0  0  0
   -5.1493    7.3786  -17.6206 N   0  0  0  0  0  0  0  0  0  0  0  0
   -4.2141    7.6073  -18.7501 N   0  0  0  0  0  0  0  0  0  0  0  0
   -2.9231    7.0073  -18.3607 C   0  0  0  0  0  0  0  0  0  0  0  0
   -3.2801    5.5715  -17.3210 S   0  0  0  0  0  0  0  0  0  0  0  0
   -5.7472    4.9968  -18.1327 N   0  0  0  0  0  0  0  0  0  0  0  0
   -4.8839    7.9597  -16.8254 H   0  0  0  0  0  0  0  0  0  0  0  0
   -4.1010    8.6073  -18.9158 H   0  0  0  0  0  0  0  0  0  0  0  0
   -5.4405    4.6367  -18.9961 H   0  0  0  0  0  0  0  0  0  0  0  0
   -1.9899    6.6687  -19.5477 C   0  0  0  0  0  0  0  0  0  0  0  0
   -1.6373    7.9342  -20.3402 C   0  0  0  0  0  0  0  0  0  0  0  0
   -2.5268    5.6028  -20.5093 C   0  0  0  0  0  0  0  0  0  0  0  0
   -7.9200    5.1994   -9.3033 C   0  0  0  0  0  0  0  0  0  0  0  0
   -7.8953    5.1917  -10.7151 C   0  0  0  0  0  0  0  0  0  0  0  0
   -8.3412    4.0900  -11.4646 C   0  0  0  0  0  0  0  0  0  0  0  0
   -8.8290    2.9594  -10.8161 C   0  0  0  0  0  0  0  0  0  0  0  0
   -8.8629    2.9584   -9.4317 C   0  0  0  0  0  0  0  0  0  0  0  0
   -8.4268    4.0511   -8.6868 C   0  0  0  0  0  0  0  0  0  0  0  0
   -8.6104    3.7322   -7.2363 C   0  0  0  0  0  0  0  0  0  0  0  0
   -9.0838    2.3383   -7.1409 N   0  0  0  0  0  0  0  0  0  0  0  0
   -9.3290    1.8727   -8.5244 C   0  0  0  0  0  0  0  0  0  0  0  0
   -9.9468    2.2971   -6.5987 H   0  0  0  0  0  0  0  0  0  0  0  0
   -7.7204    8.2316   -7.0813 C   0  0  0  0  0  0  0  0  0  0  0  0
   -8.2489    7.2447   -7.8914 C   0  0  0  0  0  0  0  0  0  0  0  0
   -7.3986    6.3520   -8.5435 C   0  0  0  0  0  0  0  0  0  0  0  0
   -6.0243    6.5808   -8.4063 C   0  0  0  0  0  0  0  0  0  0  0  0
   -5.5848    7.6298   -7.6081 C   0  0  0  0  0  0  0  0  0  0  0  0
   -6.4033    8.4492   -6.9156 N   0  0  0  0  0  0  0  0  0  0  0  0
   -8.1712    9.4719   -5.1699 C   0  0  0  0  0  0  0  0  0  0  0  0
   -8.6535    9.0080   -6.4202 O   0  0  0  0  0  0  0  0  0  0  0  0
 41 42  1  0  0  0
 42 35  1  0  0  0
 35 36  2  0  0  0
 36 37  1  0  0  0
 37 25  1  0  0  0
 25 26  2  0  0  0
 26 27  1  0  0  0
 27  1  1  0  0  0
  1  2  1  0  0  0
  2  3  2  0  0  0
  2  5  1  0  0  0
  5  6  2  0  0  0
  6  7  1  0  0  0
  7  8  1  0  0  0
  7  9  2  0  0  0
  9 10  1  0  0  0
 10 11  2  0  0  0
 11 12  1  0  0  0
 13 12  1  0  0  0
 13 14  1  0  0  0
 14 15  1  0  0  0
 15 16  1  0  0  0
 16 22  1  0  0  0
 22 23  1  0  0  0
 22 24  1  0  0  0
 16 17  1  0  0  0
 13 18  1  0  0  0
 27 28  2  0  0  0
 28 29  1  0  0  0
 29 30  2  0  0  0
 30 31  1  0  0  0
 31 32  1  0  0  0
 32 33  1  0  0  0
 37 38  2  0  0  0
 38 39  1  0  0  0
 39 40  2  0  0  0
 40 35  1  0  0  0
 30 25  1  0  0  0
 11  5  1  0  0  0
 17 13  1  0  0  0
 33 29  1  0  0  0
 18 10  1  0  0  0
  1  4  1  0  0  0
 14 19  1  0  0  0
 15 20  1  0  0  0
 18 21  1  0  0  0
 32 34  1  0  0  0
M  END
> <minimizedAffinity>
-9.08402

> <minimizedRMSD>
0.44929

$$$$
P20832


 42 46  0  0  0  0  0  0  0  0999 V2000
   -7.1841    4.7125  -13.5624 C   0  0  0  0  0  0  0  0  0  0  0  0
   -6.1444    3.7770  -13.2944 O   0  0  0  0  0  0  0  0  0  0  0  0
   -5.9383    3.7854  -12.3466 H   0  0  0  0  0  0  0  0  0  0  0  0
   -7.4528    4.6423  -15.0710 C   0  0  0  0  0  0  0  0  0  0  0  0
   -8.6978    4.2015  -15.5899 C   0  0  0  0  0  0  0  0  0  0  0  0
   -8.9322    4.0434  -16.9531 C   0  0  0  0  0  0  0  0  0  0  0  0
  -10.1276    3.6119  -17.3717 F   0  0  0  0  0  0  0  0  0  0  0  0
   -7.9605    4.3218  -17.8943 C   0  0  0  0  0  0  0  0  0  0  0  0
   -6.7524    4.8115  -17.4076 C   0  0  0  0  0  0  0  0  0  0  0  0
   -5.6208    5.1932  -18.0774 N   0  0  0  0  0  0  0  0  0  0  0  0
   -4.6333    5.6312  -17.2708 N   0  0  0  0  0  0  0  0  0  0  0  0
   -5.1448    5.4647  -16.0471 C   0  0  0  0  0  0  0  0  0  0  0  0
   -6.4769    4.9776  -16.0521 C   0  0  0  0  0  0  0  0  0  0  0  0
   -5.5361    5.1517  -19.0574 H   0  0  0  0  0  0  0  0  0  0  0  0
   -6.6844    6.1843  -13.1679 C   0  0  0  0  0  0  0  0  0  0  0  0
   -7.2952    7.1649  -13.3513 O   0  0  0  0  0  0  0  0  0  0  0  0
   -5.2926    5.9722  -12.4966 N   0  0  0  0  0  0  0  0  0  0  0  0
   -4.9546    5.0482  -12.5309 H   0  0  0  0  0  0  0  0  0  0  0  0
   -4.4211    6.9096  -11.8344 C   0  0  0  0  0  0  0  0  0  0  0  0
   -3.5841    6.2533  -10.7469 C   0  0  0  0  0  0  0  0  0  0  0  0
   -2.3898    5.8664  -11.2682 F   0  0  0  0  0  0  0  0  0  0  0  0
   -3.3060    7.1627   -9.7777 F   0  0  0  0  0  0  0  0  0  0  0  0
   -8.3502    4.2789  -12.7725 N   0  0  0  0  0  0  0  0  0  0  0  0
   -9.1677    4.0149  -13.2535 H   0  0  0  0  0  0  0  0  0  0  0  0
   -8.1100    5.2944   -9.1290 C   0  0  0  0  0  0  0  0  0  0  0  0
   -8.0716    5.3326  -10.5489 C   0  0  0  0  0  0  0  0  0  0  0  0
   -8.3559    4.2231  -11.3723 C   0  0  0  0  0  0  0  0  0  0  0  0
   -8.7153    3.0252  -10.7501 C   0  0  0  0  0  0  0  0  0  0  0  0
   -8.8101    2.9773   -9.3706 C   0  0  0  0  0  0  0  0  0  0  0  0
   -8.5245    4.0836   -8.5671 C   0  0  0  0  0  0  0  0  0  0  0  0
   -8.7299    3.6556   -7.1425 C   0  0  0  0  0  0  0  0  0  0  0  0
   -9.4935    2.3909   -7.1925 N   0  0  0  0  0  0  0  0  0  0  0  0
   -9.1948    1.8122   -8.5183 C   0  0  0  0  0  0  0  0  0  0  0  0
  -10.4928    2.5722   -7.0980 H   0  0  0  0  0  0  0  0  0  0  0  0
   -8.0313    8.0532   -6.5416 C   0  0  0  0  0  0  0  0  0  0  0  0
   -8.5179    7.0449   -7.3559 C   0  0  0  0  0  0  0  0  0  0  0  0
   -7.7031    6.4791   -8.3331 C   0  0  0  0  0  0  0  0  0  0  0  0
   -6.4517    7.0863   -8.5025 C   0  0  0  0  0  0  0  0  0  0  0  0
   -6.0525    8.1159   -7.6577 C   0  0  0  0  0  0  0  0  0  0  0  0
   -6.8070    8.5962   -6.6525 N   0  0  0  0  0  0  0  0  0  0  0  0
   -8.4506    9.6873   -4.9465 C   0  0  0  0  0  0  0  0  0  0  0  0
   -8.9215    8.5161   -5.5919 O   0  0  0  0  0  0  0  0  0  0  0  0
 41 42  1  0  0  0
 42 35  1  0  0  0
 35 36  2  0  0  0
 36 37  1  0  0  0
 37 25  1  0  0  0
 25 26  2  0  0  0
 26 27  1  0  0  0
 27 23  1  0  0  0
 23  1  1  0  0  0
  1  2  1  0  0  0
  1 15  1  0  0  0
 15 16  2  0  0  0
 15 17  1  0  0  0
 17 19  1  0  0  0
 19 20  1  0  0  0
 20 21  1  0  0  0
 20 22  1  0  0  0
  1  4  1  0  0  0
  4  5  2  0  0  0
  5  6  1  0  0  0
  6  7  1  0  0  0
  6  8  2  0  0  0
  8  9  1  0  0  0
  9 10  1  0  0  0
 10 11  1  0  0  0
 11 12  2  0  0  0
 12 13  1  0  0  0
 27 28  2  0  0  0
 28 29  1  0  0  0
 29 30  2  0  0  0
 30 31  1  0  0  0
 31 32  1  0  0  0
 32 33  1  0  0  0
 37 38  2  0  0  0
 38 39  1  0  0  0
 39 40  2  0  0  0
 40 35  1  0  0  0
 30 25  1  0  0  0
 13  4  1  0  0  0
 33 29  1  0  0  0
 13  9  2  0  0  0
 23 24  1  0  0  0
  2  3  1  0  0  0
 17 18  1  0  0  0
 10 14  1  0  0  0
 32 34  1  0  0  0
M  END
> <minimizedAffinity>
-7.76199

> <minimizedRMSD>
0.42760

$$$$
P20835


 40 44  0  0  0  0  0  0  0  0999 V2000
   -8.1418    4.0020  -12.9649 N   0  0  0  0  0  0  0  0  0  0  0  0
   -8.7293    4.9542  -14.0254 C   0  0  0  0  0  0  0  0  0  0  0  0
   -9.4507    5.8635  -13.9088 O   0  0  0  0  0  0  0  0  0  0  0  0
   -7.6118    3.2565  -13.3289 H   0  0  0  0  0  0  0  0  0  0  0  0
   -8.2409    4.6202  -15.3821 C   0  0  0  0  0  0  0  0  0  0  0  0
   -9.1160    4.0613  -16.3219 C   0  0  0  0  0  0  0  0  0  0  0  0
   -8.7184    3.9290  -17.6440 C   0  0  0  0  0  0  0  0  0  0  0  0
   -9.5838    3.4291  -18.5384 F   0  0  0  0  0  0  0  0  0  0  0  0
   -7.4542    4.3279  -18.0749 C   0  0  0  0  0  0  0  0  0  0  0  0
   -6.5735    4.8518  -17.1205 C   0  0  0  0  0  0  0  0  0  0  0  0
   -6.9250    4.9956  -15.7509 C   0  0  0  0  0  0  0  0  0  0  0  0
   -5.7864    5.5187  -14.9821 C   0  0  0  0  0  0  0  0  0  0  0  0
   -4.7893    5.7086  -15.8771 N   0  0  0  0  0  0  0  0  0  0  0  0
   -3.6096    6.1322  -15.7633 O   0  0  0  0  0  0  0  0  0  0  0  0
   -5.2810    5.3197  -17.1916 N   0  0  0  0  0  0  0  0  0  0  0  0
   -4.4519    5.4550  -18.3549 C   0  0  0  0  0  0  0  0  0  0  0  0
   -5.8121    5.7081  -13.6359 O   0  0  0  0  0  0  0  0  0  0  0  0
   -4.7138    5.1891  -12.8895 C   0  0  0  0  0  0  0  0  0  0  0  0
   -4.6696    3.6632  -12.9728 C   0  0  0  0  0  0  0  0  0  0  0  0
   -4.7058    3.0173  -11.5921 C   0  0  0  0  0  0  0  0  0  0  0  0
   -4.5167    4.0038  -10.5826 O   0  0  0  0  0  0  0  0  0  0  0  0
   -3.6547    4.4313  -10.7058 H   0  0  0  0  0  0  0  0  0  0  0  0
   -7.8759    5.1785   -9.4302 C   0  0  0  0  0  0  0  0  0  0  0  0
   -7.8227    5.1481  -10.8390 C   0  0  0  0  0  0  0  0  0  0  0  0
   -8.2387    4.0247  -11.5760 C   0  0  0  0  0  0  0  0  0  0  0  0
   -8.7375    2.9036  -10.9212 C   0  0  0  0  0  0  0  0  0  0  0  0
   -8.8335    2.9408   -9.5412 C   0  0  0  0  0  0  0  0  0  0  0  0
   -8.4141    4.0481   -8.8087 C   0  0  0  0  0  0  0  0  0  0  0  0
   -8.6400    3.7647   -7.3578 C   0  0  0  0  0  0  0  0  0  0  0  0
   -9.1583    2.3895   -7.2435 N   0  0  0  0  0  0  0  0  0  0  0  0
   -9.3554    1.8886   -8.6236 C   0  0  0  0  0  0  0  0  0  0  0  0
  -10.0454    2.3895   -6.7402 H   0  0  0  0  0  0  0  0  0  0  0  0
   -7.6296    8.3231   -7.3731 C   0  0  0  0  0  0  0  0  0  0  0  0
   -8.1477    7.3560   -8.2136 C   0  0  0  0  0  0  0  0  0  0  0  0
   -7.3321    6.3196   -8.6682 C   0  0  0  0  0  0  0  0  0  0  0  0
   -5.9806    6.3820   -8.3100 C   0  0  0  0  0  0  0  0  0  0  0  0
   -5.5391    7.4212   -7.4998 C   0  0  0  0  0  0  0  0  0  0  0  0
   -6.3394    8.3859   -6.9970 N   0  0  0  0  0  0  0  0  0  0  0  0
   -8.0953    9.9064   -5.7383 C   0  0  0  0  0  0  0  0  0  0  0  0
   -8.5456    9.2513   -6.9128 O   0  0  0  0  0  0  0  0  0  0  0  0
 39 40  1  0  0  0
 40 33  1  0  0  0
 33 34  2  0  0  0
 34 35  1  0  0  0
 35 23  1  0  0  0
 23 24  2  0  0  0
 24 25  1  0  0  0
 25  1  1  0  0  0
  1  2  1  0  0  0
  2  3  2  0  0  0
  2  5  1  0  0  0
  5  6  2  0  0  0
  6  7  1  0  0  0
  7  8  1  0  0  0
  7  9  2  0  0  0
  9 10  1  0  0  0
 10 11  2  0  0  0
 11 12  1  0  0  0
 12 17  1  0  0  0
 17 18  1  0  0  0
 18 19  1  0  0  0
 19 20  1  0  0  0
 20 21  1  0  0  0
 12 13  2  0  0  0
 13 14  1  0  0  0
 13 15  1  0  0  0
 15 16  1  0  0  0
 25 26  2  0  0  0
 26 27  1  0  0  0
 27 28  2  0  0  0
 28 29  1  0  0  0
 29 30  1  0  0  0
 30 31  1  0  0  0
 35 36  2  0  0  0
 36 37  1  0  0  0
 37 38  2  0  0  0
 38 33  1  0  0  0
 28 23  1  0  0  0
 11  5  1  0  0  0
 31 27  1  0  0  0
 15 10  1  0  0  0
  1  4  1  0  0  0
 21 22  1  0  0  0
 30 32  1  0  0  0
M  CHG 1  13   1
M  CHG 1  14  -1
M  END
> <minimizedAffinity>
-8.52880

> <minimizedRMSD>
1.18644

$$$$
P20836


 34 38  0  0  0  0  0  0  0  0999 V2000
   -7.8207    5.2310   -9.4878 C   0  0  0  0  0  0  0  0  0  0  0  0
   -7.7230    5.1998  -10.8982 C   0  0  0  0  0  0  0  0  0  0  0  0
   -8.1279    4.0877  -11.6560 C   0  0  0  0  0  0  0  0  0  0  0  0
   -8.6418    2.9634  -11.0197 C   0  0  0  0  0  0  0  0  0  0  0  0
   -8.7605    2.9885   -9.6417 C   0  0  0  0  0  0  0  0  0  0  0  0
   -8.3788    4.1000   -8.8845 C   0  0  0  0  0  0  0  0  0  0  0  0
   -8.6293    3.7667   -7.4426 C   0  0  0  0  0  0  0  0  0  0  0  0
   -9.4894    2.5628   -7.4387 N   0  0  0  0  0  0  0  0  0  0  0  0
   -9.2280    1.8994   -8.7339 C   0  0  0  0  0  0  0  0  0  0  0  0
  -10.4722    2.8249   -7.3624 H   0  0  0  0  0  0  0  0  0  0  0  0
   -7.6355    8.3182   -7.3342 C   0  0  0  0  0  0  0  0  0  0  0  0
   -8.1575    7.3228   -8.1393 C   0  0  0  0  0  0  0  0  0  0  0  0
   -7.3074    6.3894   -8.7295 C   0  0  0  0  0  0  0  0  0  0  0  0
   -5.9337    6.5885   -8.5391 C   0  0  0  0  0  0  0  0  0  0  0  0
   -5.4978    7.6501   -7.7558 C   0  0  0  0  0  0  0  0  0  0  0  0
   -6.3211    8.5108   -7.1227 N   0  0  0  0  0  0  0  0  0  0  0  0
   -8.1087    9.6411   -5.4888 C   0  0  0  0  0  0  0  0  0  0  0  0
   -8.5716    9.1374   -6.7316 O   0  0  0  0  0  0  0  0  0  0  0  0
   -8.0330    4.0839  -13.0460 N   0  0  0  0  0  0  0  0  0  0  0  0
   -8.7178    4.9839  -14.1030 C   0  0  0  0  0  0  0  0  0  0  0  0
   -9.5268    5.8180  -13.9779 O   0  0  0  0  0  0  0  0  0  0  0  0
   -7.4326    3.3971  -13.4162 H   0  0  0  0  0  0  0  0  0  0  0  0
   -8.3032    4.6194  -15.4829 C   0  0  0  0  0  0  0  0  0  0  0  0
   -9.2398    4.1117  -16.3913 C   0  0  0  0  0  0  0  0  0  0  0  0
   -8.8900    3.9334  -17.7190 C   0  0  0  0  0  0  0  0  0  0  0  0
   -9.8098    3.4934  -18.5862 F   0  0  0  0  0  0  0  0  0  0  0  0
   -7.6189    4.2382  -18.1895 C   0  0  0  0  0  0  0  0  0  0  0  0
   -6.6807    4.7423  -17.2760 C   0  0  0  0  0  0  0  0  0  0  0  0
   -6.9941    4.9235  -15.9248 C   0  0  0  0  0  0  0  0  0  0  0  0
   -5.8181    5.4183  -15.2964 C   0  0  0  0  0  0  0  0  0  0  0  0
   -4.8308    5.5495  -16.2517 C   0  0  0  0  0  0  0  0  0  0  0  0
   -3.4285    6.0170  -16.0942 C   0  0  0  0  0  0  0  0  0  0  0  0
   -5.3813    5.1756  -17.4580 N   0  0  0  0  0  0  0  0  0  0  0  0
   -4.7305    5.2831  -18.7481 C   0  0  0  0  0  0  0  0  0  0  0  0
 17 18  1  0  0  0
 18 11  1  0  0  0
 11 12  2  0  0  0
 12 13  1  0  0  0
 13  1  1  0  0  0
  1  2  2  0  0  0
  2  3  1  0  0  0
  3 19  1  0  0  0
 19 20  1  0  0  0
 20 21  2  0  0  0
 20 23  1  0  0  0
 23 24  2  0  0  0
 24 25  1  0  0  0
 25 26  1  0  0  0
 25 27  2  0  0  0
 27 28  1  0  0  0
 28 29  2  0  0  0
 29 30  1  0  0  0
 30 31  2  0  0  0
 31 32  1  0  0  0
 31 33  1  0  0  0
 33 34  1  0  0  0
  3  4  2  0  0  0
  4  5  1  0  0  0
  5  6  2  0  0  0
  6  7  1  0  0  0
  7  8  1  0  0  0
  8  9  1  0  0  0
 13 14  2  0  0  0
 14 15  1  0  0  0
 15 16  2  0  0  0
 16 11  1  0  0  0
  6  1  1  0  0  0
 29 23  1  0  0  0
  9  5  1  0  0  0
 33 28  1  0  0  0
 19 22  1  0  0  0
  8 10  1  0  0  0
M  END
> <minimizedAffinity>
-9.30083

> <minimizedRMSD>
0.85061

$$$$
P20837


 45 49  0  0  0  0  0  0  0  0999 V2000
   -7.3127    4.8381  -13.5442 C   0  0  0  0  0  0  0  0  0  0  0  0
   -6.1473    4.1124  -13.2430 O   0  0  0  0  0  0  0  0  0  0  0  0
   -5.9560    4.1868  -12.2950 H   0  0  0  0  0  0  0  0  0  0  0  0
   -7.5380    4.6667  -15.0495 C   0  0  0  0  0  0  0  0  0  0  0  0
   -8.7740    4.1550  -15.5708 C   0  0  0  0  0  0  0  0  0  0  0  0
   -9.0774    3.9383  -16.9449 C   0  0  0  0  0  0  0  0  0  0  0  0
  -10.2910    3.4577  -17.2559 F   0  0  0  0  0  0  0  0  0  0  0  0
   -8.1989    4.2201  -17.9848 C   0  0  0  0  0  0  0  0  0  0  0  0
   -6.9795    4.7502  -17.5515 C   0  0  0  0  0  0  0  0  0  0  0  0
   -5.9534    5.1569  -18.3081 N   0  0  0  0  0  0  0  0  0  0  0  0
   -5.0110    5.5063  -17.4434 N   0  0  0  0  0  0  0  0  0  0  0  0
   -5.3733    5.4643  -16.1209 C   0  0  0  0  0  0  0  0  0  0  0  0
   -6.6638    4.9565  -16.1327 C   0  0  0  0  0  0  0  0  0  0  0  0
   -4.1098    5.7781  -17.7316 H   0  0  0  0  0  0  0  0  0  0  0  0
   -4.3726    5.9154  -15.0939 C   0  0  0  0  0  0  0  0  0  0  0  0
   -3.2491    4.8928  -14.9156 C   0  0  0  0  0  0  0  0  0  0  0  0
   -3.7893    7.2879  -15.4554 C   0  0  0  0  0  0  0  0  0  0  0  0
   -7.2531    6.4492  -13.2169 C   0  0  0  0  0  0  0  0  0  0  0  0
   -6.2447    7.0134  -13.0295 O   0  0  0  0  0  0  0  0  0  0  0  0
   -8.7232    6.9583  -13.1397 N   0  0  0  0  0  0  0  0  0  0  0  0
   -9.4020    6.3024  -13.4193 H   0  0  0  0  0  0  0  0  0  0  0  0
   -9.2575    8.2501  -12.7202 C   0  0  0  0  0  0  0  0  0  0  0  0
  -10.7072    8.5212  -13.1287 C   0  0  0  0  0  0  0  0  0  0  0  0
  -11.1938    7.4501  -13.8094 F   0  0  0  0  0  0  0  0  0  0  0  0
  -10.7544    9.5914  -13.9617 F   0  0  0  0  0  0  0  0  0  0  0  0
   -8.3965    4.1648  -12.7765 N   0  0  0  0  0  0  0  0  0  0  0  0
   -9.1646    3.7763  -13.2542 H   0  0  0  0  0  0  0  0  0  0  0  0
   -7.9480    5.1291   -9.1442 C   0  0  0  0  0  0  0  0  0  0  0  0
   -7.9151    5.1499  -10.5537 C   0  0  0  0  0  0  0  0  0  0  0  0
   -8.3307    4.0794  -11.3673 C   0  0  0  0  0  0  0  0  0  0  0  0
   -8.8061    2.9302  -10.7298 C   0  0  0  0  0  0  0  0  0  0  0  0
   -8.8584    2.8957   -9.3443 C   0  0  0  0  0  0  0  0  0  0  0  0
   -8.4689    3.9820   -8.5597 C   0  0  0  0  0  0  0  0  0  0  0  0
   -8.6968    3.6185   -7.1238 C   0  0  0  0  0  0  0  0  0  0  0  0
   -9.5378    2.4007   -7.1418 N   0  0  0  0  0  0  0  0  0  0  0  0
   -9.2755    1.7712   -8.4555 C   0  0  0  0  0  0  0  0  0  0  0  0
  -10.5240    2.6450   -7.0521 H   0  0  0  0  0  0  0  0  0  0  0  0
   -7.7535    8.2012   -6.9921 C   0  0  0  0  0  0  0  0  0  0  0  0
   -8.2897    7.1610   -7.7261 C   0  0  0  0  0  0  0  0  0  0  0  0
   -7.4385    6.2901   -8.3981 C   0  0  0  0  0  0  0  0  0  0  0  0
   -6.0658    6.5761   -8.3450 C   0  0  0  0  0  0  0  0  0  0  0  0
   -5.6245    7.6728   -7.6194 C   0  0  0  0  0  0  0  0  0  0  0  0
   -6.4395    8.4856   -6.9200 N   0  0  0  0  0  0  0  0  0  0  0  0
   -8.4961    8.9003   -4.9115 C   0  0  0  0  0  0  0  0  0  0  0  0
   -8.6750    8.9755   -6.3164 O   0  0  0  0  0  0  0  0  0  0  0  0
 44 45  1  0  0  0
 45 38  1  0  0  0
 38 39  2  0  0  0
 39 40  1  0  0  0
 40 28  1  0  0  0
 28 29  2  0  0  0
 29 30  1  0  0  0
 30 26  1  0  0  0
 26  1  1  0  0  0
  1  2  1  0  0  0
  1 18  1  0  0  0
 18 19  2  0  0  0
 18 20  1  0  0  0
 20 22  1  0  0  0
 22 23  1  0  0  0
 23 24  1  0  0  0
 23 25  1  0  0  0
  1  4  1  0  0  0
  4  5  2  0  0  0
  5  6  1  0  0  0
  6  7  1  0  0  0
  6  8  2  0  0  0
  8  9  1  0  0  0
  9 10  2  0  0  0
 10 11  1  0  0  0
 11 12  1  0  0  0
 12 15  1  0  0  0
 15 16  1  0  0  0
 15 17  1  0  0  0
 12 13  2  0  0  0
 30 31  2  0  0  0
 31 32  1  0  0  0
 32 33  2  0  0  0
 33 34  1  0  0  0
 34 35  1  0  0  0
 35 36  1  0  0  0
 40 41  2  0  0  0
 41 42  1  0  0  0
 42 43  2  0  0  0
 43 38  1  0  0  0
 33 28  1  0  0  0
 13  4  1  0  0  0
 36 32  1  0  0  0
 13  9  1  0  0  0
 26 27  1  0  0  0
  2  3  1  0  0  0
 20 21  1  0  0  0
 11 14  1  0  0  0
 35 37  1  0  0  0
M  END
> <minimizedAffinity>
-8.47407

> <minimizedRMSD>
0.46458

$$$$
P20838


 36 40  0  0  0  0  0  0  0  0999 V2000
   -7.9124    5.0892   -9.3239 C   0  0  0  0  0  0  0  0  0  0  0  0
   -7.7440    5.0537  -10.7284 C   0  0  0  0  0  0  0  0  0  0  0  0
   -8.1578    3.9599  -11.5088 C   0  0  0  0  0  0  0  0  0  0  0  0
   -8.7519    2.8599  -10.9024 C   0  0  0  0  0  0  0  0  0  0  0  0
   -8.9285    2.8842   -9.5311 C   0  0  0  0  0  0  0  0  0  0  0  0
   -8.5387    3.9774   -8.7517 C   0  0  0  0  0  0  0  0  0  0  0  0
   -8.8628    3.6458   -7.3236 C   0  0  0  0  0  0  0  0  0  0  0  0
   -9.7602    2.4703   -7.3630 N   0  0  0  0  0  0  0  0  0  0  0  0
   -9.4708    1.8072   -8.6513 C   0  0  0  0  0  0  0  0  0  0  0  0
  -10.7363    2.7636   -7.3227 H   0  0  0  0  0  0  0  0  0  0  0  0
   -7.7353    8.1012   -7.0631 C   0  0  0  0  0  0  0  0  0  0  0  0
   -8.2551    7.1282   -7.8966 C   0  0  0  0  0  0  0  0  0  0  0  0
   -7.4017    6.2303   -8.5361 C   0  0  0  0  0  0  0  0  0  0  0  0
   -6.0283    6.4471   -8.3647 C   0  0  0  0  0  0  0  0  0  0  0  0
   -5.5956    7.4871   -7.5506 C   0  0  0  0  0  0  0  0  0  0  0  0
   -6.4206    8.3085   -6.8694 N   0  0  0  0  0  0  0  0  0  0  0  0
   -8.4046    8.9720   -5.0194 C   0  0  0  0  0  0  0  0  0  0  0  0
   -8.6736    8.8774   -6.4091 O   0  0  0  0  0  0  0  0  0  0  0  0
   -8.0039    3.9543  -12.8936 N   0  0  0  0  0  0  0  0  0  0  0  0
   -8.6071    4.8812  -13.9755 C   0  0  0  0  0  0  0  0  0  0  0  0
   -9.3876    5.7458  -13.8826 O   0  0  0  0  0  0  0  0  0  0  0  0
   -7.4155    3.2451  -13.2400 H   0  0  0  0  0  0  0  0  0  0  0  0
   -8.1635    4.5087  -15.3474 C   0  0  0  0  0  0  0  0  0  0  0  0
   -9.1051    3.9997  -16.2569 C   0  0  0  0  0  0  0  0  0  0  0  0
   -8.7945    3.8869  -17.6029 C   0  0  0  0  0  0  0  0  0  0  0  0
   -9.7213    3.4277  -18.4515 F   0  0  0  0  0  0  0  0  0  0  0  0
   -7.5777    4.3160  -18.1105 C   0  0  0  0  0  0  0  0  0  0  0  0
   -6.6531    4.8466  -17.2093 C   0  0  0  0  0  0  0  0  0  0  0  0
   -6.8715    4.8894  -15.8042 C   0  0  0  0  0  0  0  0  0  0  0  0
   -5.6520    5.3628  -15.1467 C   0  0  0  0  0  0  0  0  0  0  0  0
   -5.2568    5.5075  -13.7482 C   0  0  0  0  0  0  0  0  0  0  0  0
   -4.8010    5.7420  -16.1144 N   0  0  0  0  0  0  0  0  0  0  0  0
   -3.6478    6.2419  -16.0510 O   0  0  0  0  0  0  0  0  0  0  0  0
   -5.4553    5.5035  -17.3986 N   0  0  0  0  0  0  0  0  0  0  0  0
   -5.1603    6.2432  -18.5580 O   0  0  0  0  0  0  0  0  0  0  0  0
   -4.3039    5.4783  -19.3892 C   0  0  0  0  0  0  0  0  0  0  0  0
 17 18  1  0  0  0
 18 11  1  0  0  0
 11 12  2  0  0  0
 12 13  1  0  0  0
 13  1  1  0  0  0
  1  2  2  0  0  0
  2  3  1  0  0  0
  3 19  1  0  0  0
 19 20  1  0  0  0
 20 21  2  0  0  0
 20 23  1  0  0  0
 23 24  2  0  0  0
 24 25  1  0  0  0
 25 26  1  0  0  0
 25 27  2  0  0  0
 27 28  1  0  0  0
 28 29  2  0  0  0
 29 30  1  0  0  0
 30 31  1  0  0  0
 30 32  2  0  0  0
 32 33  1  0  0  0
 32 34  1  0  0  0
 34 35  1  0  0  0
 35 36  1  0  0  0
  3  4  2  0  0  0
  4  5  1  0  0  0
  5  6  2  0  0  0
  6  7  1  0  0  0
  7  8  1  0  0  0
  8  9  1  0  0  0
 13 14  2  0  0  0
 14 15  1  0  0  0
 15 16  2  0  0  0
 16 11  1  0  0  0
  6  1  1  0  0  0
 29 23  1  0  0  0
  9  5  1  0  0  0
 34 28  1  0  0  0
 19 22  1  0  0  0
  8 10  1  0  0  0
M  CHG 1  32   1
M  CHG 1  33  -1
M  END
> <minimizedAffinity>
-9.11325

> <minimizedRMSD>
0.86191

$$$$
P20841


 36 40  0  0  0  0  0  0  0  0999 V2000
   -8.2031    5.9931  -12.4807 C   0  0  0  0  0  0  0  0  0  0  0  0
   -8.6719    6.9969  -12.1174 O   0  0  0  0  0  0  0  0  0  0  0  0
   -7.8515    4.7070  -11.6941 N   0  0  0  0  0  0  0  0  0  0  0  0
   -7.3880    4.0158  -12.2202 H   0  0  0  0  0  0  0  0  0  0  0  0
   -5.5169    6.1531  -16.3266 N   0  0  0  0  0  0  0  0  0  0  0  0
   -4.9232    7.0477  -15.4964 N   0  0  0  0  0  0  0  0  0  0  0  0
   -5.6790    6.9830  -14.3872 C   0  0  0  0  0  0  0  0  0  0  0  0
   -6.7722    6.1078  -14.5307 C   0  0  0  0  0  0  0  0  0  0  0  0
   -7.9282    5.7055  -13.8714 C   0  0  0  0  0  0  0  0  0  0  0  0
   -8.9007    4.9324  -14.5324 C   0  0  0  0  0  0  0  0  0  0  0  0
   -8.5640    4.2917  -15.6820 C   0  0  0  0  0  0  0  0  0  0  0  0
   -9.4574    3.6121  -16.3920 F   0  0  0  0  0  0  0  0  0  0  0  0
   -7.2988    4.4035  -16.1812 C   0  0  0  0  0  0  0  0  0  0  0  0
   -6.5140    5.4465  -15.7093 C   0  0  0  0  0  0  0  0  0  0  0  0
   -5.4792    6.2867  -17.7842 C   0  0  0  0  0  0  0  0  0  0  0  0
   -3.8000    5.6265  -19.5387 C   0  0  0  0  0  0  0  0  0  0  0  0
   -4.4895    5.3321  -18.2698 N   0  0  0  0  0  0  0  0  0  0  0  0
   -3.7727    5.2470  -17.5492 H   0  0  0  0  0  0  0  0  0  0  0  0
   -8.0797    4.3753  -10.3892 C   0  0  0  0  0  0  0  0  0  0  0  0
   -8.6237    3.1320  -10.1077 C   0  0  0  0  0  0  0  0  0  0  0  0
   -8.9365    2.8756   -8.7948 C   0  0  0  0  0  0  0  0  0  0  0  0
   -8.7035    3.8135   -7.7867 C   0  0  0  0  0  0  0  0  0  0  0  0
   -8.1715    5.0708   -8.0714 C   0  0  0  0  0  0  0  0  0  0  0  0
   -7.8800    5.3309   -9.4074 C   0  0  0  0  0  0  0  0  0  0  0  0
   -9.1318    3.2033   -6.4916 C   0  0  0  0  0  0  0  0  0  0  0  0
   -9.4014    1.7734   -6.7629 N   0  0  0  0  0  0  0  0  0  0  0  0
   -9.5707    1.6588   -8.2277 C   0  0  0  0  0  0  0  0  0  0  0  0
  -10.2516    1.4764   -6.2839 H   0  0  0  0  0  0  0  0  0  0  0  0
   -7.9121    6.1314   -7.0993 C   0  0  0  0  0  0  0  0  0  0  0  0
   -6.6206    6.6585   -6.9242 C   0  0  0  0  0  0  0  0  0  0  0  0
   -6.4187    7.6805   -6.0144 C   0  0  0  0  0  0  0  0  0  0  0  0
   -7.3947    8.1825   -5.2382 N   0  0  0  0  0  0  0  0  0  0  0  0
   -8.6238    7.6634   -5.4294 C   0  0  0  0  0  0  0  0  0  0  0  0
   -8.9368    6.6881   -6.3510 C   0  0  0  0  0  0  0  0  0  0  0  0
   -9.6843    8.1150   -4.6753 O   0  0  0  0  0  0  0  0  0  0  0  0
  -10.2624    7.0498   -3.9394 C   0  0  0  0  0  0  0  0  0  0  0  0
 16 17  1  0  0  0
 17 15  1  0  0  0
 15  5  1  0  0  0
  5  6  1  0  0  0
  6  7  2  0  0  0
  7  8  1  0  0  0
  8  9  2  0  0  0
  9  1  1  0  0  0
  1  2  2  0  0  0
  1  3  1  0  0  0
  3 19  1  0  0  0
 19 20  2  0  0  0
 20 21  1  0  0  0
 21 22  2  0  0  0
 22 23  1  0  0  0
 23 29  1  0  0  0
 29 30  2  0  0  0
 30 31  1  0  0  0
 31 32  2  0  0  0
 32 33  1  0  0  0
 33 35  1  0  0  0
 35 36  1  0  0  0
 33 34  2  0  0  0
 23 24  2  0  0  0
 22 25  1  0  0  0
 25 26  1  0  0  0
 26 27  1  0  0  0
  9 10  1  0  0  0
 10 11  2  0  0  0
 11 12  1  0  0  0
 11 13  1  0  0  0
 13 14  2  0  0  0
 14  5  1  0  0  0
 14  8  1  0  0  0
 24 19  1  0  0  0
 27 21  1  0  0  0
 34 29  1  0  0  0
 17 18  1  0  0  0
  3  4  1  0  0  0
 26 28  1  0  0  0
M  END
> <minimizedAffinity>
-7.47653

> <minimizedRMSD>
1.54628

$$$$
P20844


 36 41  0  0  0  0  0  0  0  0999 V2000
   -7.8585    5.3244   -9.3314 C   0  0  0  0  0  0  0  0  0  0  0  0
   -7.7714    5.3267  -10.7344 C   0  0  0  0  0  0  0  0  0  0  0  0
   -8.1601    4.2245  -11.5111 C   0  0  0  0  0  0  0  0  0  0  0  0
   -8.6821    3.0896  -10.9087 C   0  0  0  0  0  0  0  0  0  0  0  0
   -8.7869    3.0835   -9.5296 C   0  0  0  0  0  0  0  0  0  0  0  0
   -8.3858    4.1696   -8.7520 C   0  0  0  0  0  0  0  0  0  0  0  0
   -8.6304    3.8303   -7.3158 C   0  0  0  0  0  0  0  0  0  0  0  0
   -9.0335    2.4115   -7.2623 N   0  0  0  0  0  0  0  0  0  0  0  0
   -9.2970    1.9921   -8.6567 C   0  0  0  0  0  0  0  0  0  0  0  0
   -9.8769    2.3066   -6.6982 H   0  0  0  0  0  0  0  0  0  0  0  0
   -7.7276    8.3066   -7.0503 C   0  0  0  0  0  0  0  0  0  0  0  0
   -8.2399    7.3004   -7.8460 C   0  0  0  0  0  0  0  0  0  0  0  0
   -7.3700    6.4778   -8.5569 C   0  0  0  0  0  0  0  0  0  0  0  0
   -6.0045    6.7867   -8.4825 C   0  0  0  0  0  0  0  0  0  0  0  0
   -5.5874    7.8483   -7.6917 C   0  0  0  0  0  0  0  0  0  0  0  0
   -6.4192    8.6054   -6.9487 N   0  0  0  0  0  0  0  0  0  0  0  0
   -8.4877    8.8850   -4.9380 C   0  0  0  0  0  0  0  0  0  0  0  0
   -8.6689    9.0232   -6.3375 O   0  0  0  0  0  0  0  0  0  0  0  0
   -7.9716    4.2446  -12.8852 N   0  0  0  0  0  0  0  0  0  0  0  0
   -8.7144    5.0244  -13.9852 C   0  0  0  0  0  0  0  0  0  0  0  0
   -9.5522    5.8321  -13.9055 O   0  0  0  0  0  0  0  0  0  0  0  0
   -7.2442    3.6660  -13.2099 H   0  0  0  0  0  0  0  0  0  0  0  0
   -8.1802    4.7378  -15.3208 C   0  0  0  0  0  0  0  0  0  0  0  0
   -8.9594    4.1976  -16.3988 C   0  0  0  0  0  0  0  0  0  0  0  0
   -8.4510    4.1112  -17.7208 C   0  0  0  0  0  0  0  0  0  0  0  0
   -9.2378    3.6790  -18.7128 F   0  0  0  0  0  0  0  0  0  0  0  0
   -7.1620    4.5207  -17.9525 C   0  0  0  0  0  0  0  0  0  0  0  0
   -6.2336    4.7621  -18.9784 N   0  0  0  0  0  0  0  0  0  0  0  0
   -5.0561    5.4166  -18.4839 C   0  0  0  0  0  0  0  0  0  0  0  0
   -4.0910    5.9269  -19.0158 O   0  0  0  0  0  0  0  0  0  0  0  0
   -5.2896    5.4537  -17.1034 N   0  0  0  0  0  0  0  0  0  0  0  0
   -4.7186    5.9654  -15.9977 N   0  0  0  0  0  0  0  0  0  0  0  0
   -5.6946    5.7610  -15.0663 C   0  0  0  0  0  0  0  0  0  0  0  0
   -6.8687    5.1451  -15.5925 C   0  0  0  0  0  0  0  0  0  0  0  0
   -6.5021    4.9616  -16.8665 C   0  0  0  0  0  0  0  0  0  0  0  0
   -6.3734    4.5130  -19.9205 H   0  0  0  0  0  0  0  0  0  0  0  0
 17 18  1  0  0  0
 18 11  1  0  0  0
 11 12  2  0  0  0
 12 13  1  0  0  0
 13  1  1  0  0  0
  1  2  2  0  0  0
  2  3  1  0  0  0
  3 19  1  0  0  0
 19 20  1  0  0  0
 20 21  2  0  0  0
 20 23  1  0  0  0
 23 24  2  0  0  0
 24 25  1  0  0  0
 25 26  1  0  0  0
 25 27  2  0  0  0
 27 28  1  0  0  0
 28 29  1  0  0  0
 29 30  2  0  0  0
 29 31  1  0  0  0
 31 32  1  0  0  0
 32 33  2  0  0  0
 33 34  1  0  0  0
 34 35  2  0  0  0
  3  4  2  0  0  0
  4  5  1  0  0  0
  5  6  2  0  0  0
  6  7  1  0  0  0
  7  8  1  0  0  0
  8  9  1  0  0  0
 13 14  2  0  0  0
 14 15  1  0  0  0
 15 16  2  0  0  0
 16 11  1  0  0  0
  6  1  1  0  0  0
 34 23  1  0  0  0
  9  5  1  0  0  0
 35 27  1  0  0  0
 35 31  1  0  0  0
 19 22  1  0  0  0
 28 36  1  0  0  0
  8 10  1  0  0  0
M  END
> <minimizedAffinity>
-9.71028

> <minimizedRMSD>
0.82929

$$$$
P20846


 40 45  0  0  0  0  0  0  0  0999 V2000
   -8.4053    4.2004  -12.9995 N   0  0  0  0  0  0  0  0  0  0  0  0
   -7.7807    5.1884  -14.0052 C   0  0  0  0  0  0  0  0  0  0  0  0
   -7.2084    6.1896  -13.8263 O   0  0  0  0  0  0  0  0  0  0  0  0
   -8.9063    3.4580  -13.4081 H   0  0  0  0  0  0  0  0  0  0  0  0
   -7.9045    5.3469   -9.4807 C   0  0  0  0  0  0  0  0  0  0  0  0
   -7.9513    5.3188  -10.8904 C   0  0  0  0  0  0  0  0  0  0  0  0
   -8.3761    4.1874  -11.6081 C   0  0  0  0  0  0  0  0  0  0  0  0
   -8.7634    3.0384  -10.9325 C   0  0  0  0  0  0  0  0  0  0  0  0
   -8.7659    3.0701   -9.5499 C   0  0  0  0  0  0  0  0  0  0  0  0
   -8.3657    4.2011   -8.8301 C   0  0  0  0  0  0  0  0  0  0  0  0
   -8.4962    3.8755   -7.3719 C   0  0  0  0  0  0  0  0  0  0  0  0
   -9.3135    2.6444   -7.2968 N   0  0  0  0  0  0  0  0  0  0  0  0
   -9.1231    1.9750   -8.6017 C   0  0  0  0  0  0  0  0  0  0  0  0
  -10.2965    2.8755   -7.1529 H   0  0  0  0  0  0  0  0  0  0  0  0
   -7.6149    8.5522   -7.5273 C   0  0  0  0  0  0  0  0  0  0  0  0
   -8.1722    7.5267   -8.2680 C   0  0  0  0  0  0  0  0  0  0  0  0
   -7.3548    6.5233   -8.7818 C   0  0  0  0  0  0  0  0  0  0  0  0
   -5.9755    6.6723   -8.5805 C   0  0  0  0  0  0  0  0  0  0  0  0
   -5.5028    7.7632   -7.8626 C   0  0  0  0  0  0  0  0  0  0  0  0
   -6.2958    8.7010   -7.3063 N   0  0  0  0  0  0  0  0  0  0  0  0
   -8.0786    9.9930   -5.7715 C   0  0  0  0  0  0  0  0  0  0  0  0
   -8.5196    9.4589   -7.0092 O   0  0  0  0  0  0  0  0  0  0  0  0
   -7.9147    4.7063  -15.3895 C   0  0  0  0  0  0  0  0  0  0  0  0
   -9.0747    4.1326  -15.9328 C   0  0  0  0  0  0  0  0  0  0  0  0
   -9.2094    3.8315  -17.3188 C   0  0  0  0  0  0  0  0  0  0  0  0
  -10.3897    3.3389  -17.7234 F   0  0  0  0  0  0  0  0  0  0  0  0
   -8.2057    4.0385  -18.2855 C   0  0  0  0  0  0  0  0  0  0  0  0
   -7.0309    4.5983  -17.7596 C   0  0  0  0  0  0  0  0  0  0  0  0
   -5.8861    4.9714  -18.3630 N   0  0  0  0  0  0  0  0  0  0  0  0
   -5.1246    5.4904  -17.3809 N   0  0  0  0  0  0  0  0  0  0  0  0
   -5.7002    5.4585  -16.1512 C   0  0  0  0  0  0  0  0  0  0  0  0
   -6.9306    4.9014  -16.3544 C   0  0  0  0  0  0  0  0  0  0  0  0
   -3.8936    6.1832  -17.7050 C   0  0  0  0  0  0  0  0  0  0  0  0
   -2.6671    5.2655  -17.8343 C   0  0  0  0  0  0  0  0  0  0  0  0
   -2.4265    4.8892  -19.3068 C   0  0  0  0  0  0  0  0  0  0  0  0
   -1.8861    6.0641  -20.1231 C   0  0  0  0  0  0  0  0  0  0  0  0
   -0.6654    6.6071  -19.5330 N   0  0  0  0  0  0  0  0  0  0  0  0
   -0.8556    7.0364  -18.1492 C   0  0  0  0  0  0  0  0  0  0  0  0
   -1.3741    5.8903  -17.2798 C   0  0  0  0  0  0  0  0  0  0  0  0
   -0.3637    7.4094  -20.0859 H   0  0  0  0  0  0  0  0  0  0  0  0
 21 22  1  0  0  0
 22 15  1  0  0  0
 15 16  2  0  0  0
 16 17  1  0  0  0
 17  5  1  0  0  0
  5  6  2  0  0  0
  6  7  1  0  0  0
  7  1  1  0  0  0
  1  2  1  0  0  0
  2  3  2  0  0  0
  2 23  1  0  0  0
 23 24  2  0  0  0
 24 25  1  0  0  0
 25 26  1  0  0  0
 25 27  2  0  0  0
 27 28  1  0  0  0
 28 29  2  0  0  0
 29 30  1  0  0  0
 30 33  1  0  0  0
 33 34  1  0  0  0
 34 35  1  0  0  0
 35 36  1  0  0  0
 36 37  1  0  0  0
 37 38  1  0  0  0
 38 39  1  0  0  0
 30 31  1  0  0  0
 31 32  2  0  0  0
  7  8  2  0  0  0
  8  9  1  0  0  0
  9 10  2  0  0  0
 10 11  1  0  0  0
 11 12  1  0  0  0
 12 13  1  0  0  0
 17 18  2  0  0  0
 18 19  1  0  0  0
 19 20  2  0  0  0
 20 15  1  0  0  0
 10  5  1  0  0  0
 32 23  1  0  0  0
 13  9  1  0  0  0
 32 28  1  0  0  0
 39 34  1  0  0  0
  1  4  1  0  0  0
 37 40  1  0  0  0
 12 14  1  0  0  0
M  END
> <minimizedAffinity>
-8.96838

> <minimizedRMSD>
1.57738

$$$$
P20848


 37 41  0  0  0  0  0  0  0  0999 V2000
   -8.3209    4.1693  -11.2850 C   0  0  0  0  0  0  0  0  0  0  0  0
   -8.7932    2.9938  -10.7036 C   0  0  0  0  0  0  0  0  0  0  0  0
   -8.9005    2.9328   -9.3229 C   0  0  0  0  0  0  0  0  0  0  0  0
   -8.5527    4.0079   -8.5084 C   0  0  0  0  0  0  0  0  0  0  0  0
   -8.0638    5.2010   -9.0474 C   0  0  0  0  0  0  0  0  0  0  0  0
   -7.9796    5.2561  -10.4556 C   0  0  0  0  0  0  0  0  0  0  0  0
   -7.6090    6.4202  -11.0108 F   0  0  0  0  0  0  0  0  0  0  0  0
   -8.7959    3.6188   -7.0848 C   0  0  0  0  0  0  0  0  0  0  0  0
   -9.2744    2.2238   -7.0788 N   0  0  0  0  0  0  0  0  0  0  0  0
   -9.3447    1.7809   -8.4883 C   0  0  0  0  0  0  0  0  0  0  0  0
  -10.1983    2.1729   -6.6497 H   0  0  0  0  0  0  0  0  0  0  0  0
   -7.6201    6.3378   -8.2149 C   0  0  0  0  0  0  0  0  0  0  0  0
   -6.2773    6.7367   -8.1748 C   0  0  0  0  0  0  0  0  0  0  0  0
   -5.8935    7.7665   -7.3261 C   0  0  0  0  0  0  0  0  0  0  0  0
   -6.7350    8.4084   -6.4901 N   0  0  0  0  0  0  0  0  0  0  0  0
   -8.0244    8.0306   -6.5591 C   0  0  0  0  0  0  0  0  0  0  0  0
   -8.5052    7.0489   -7.4058 C   0  0  0  0  0  0  0  0  0  0  0  0
   -8.9772    8.6251   -5.7536 O   0  0  0  0  0  0  0  0  0  0  0  0
   -9.2221    7.8759   -4.5746 C   0  0  0  0  0  0  0  0  0  0  0  0
   -7.1081    4.8030  -13.5878 C   0  0  0  0  0  0  0  0  0  0  0  0
   -6.1476    5.4090  -13.3137 O   0  0  0  0  0  0  0  0  0  0  0  0
   -8.2167    4.2147  -12.6806 N   0  0  0  0  0  0  0  0  0  0  0  0
   -8.9709    3.8060  -13.1637 H   0  0  0  0  0  0  0  0  0  0  0  0
   -5.5302    5.3139  -17.9601 N   0  0  0  0  0  0  0  0  0  0  0  0
   -4.5032    5.5824  -17.1098 N   0  0  0  0  0  0  0  0  0  0  0  0
   -5.0367    5.3679  -15.9061 C   0  0  0  0  0  0  0  0  0  0  0  0
   -6.3735    4.9144  -15.9671 C   0  0  0  0  0  0  0  0  0  0  0  0
   -7.3693    4.5661  -15.0299 C   0  0  0  0  0  0  0  0  0  0  0  0
   -8.6188    4.1404  -15.4945 C   0  0  0  0  0  0  0  0  0  0  0  0
   -8.8704    4.0814  -16.8583 C   0  0  0  0  0  0  0  0  0  0  0  0
  -10.0856    3.7115  -17.2795 F   0  0  0  0  0  0  0  0  0  0  0  0
   -7.9096    4.4274  -17.8041 C   0  0  0  0  0  0  0  0  0  0  0  0
   -6.6624    4.8537  -17.3300 C   0  0  0  0  0  0  0  0  0  0  0  0
   -5.3391    5.5690  -19.3874 C   0  0  0  0  0  0  0  0  0  0  0  0
   -5.1166    7.5384  -20.7353 C   0  0  0  0  0  0  0  0  0  0  0  0
   -5.8708    6.9183  -19.6614 N   0  0  0  0  0  0  0  0  0  0  0  0
   -6.8510    6.8465  -19.9342 H   0  0  0  0  0  0  0  0  0  0  0  0
 35 36  1  0  0  0
 36 34  1  0  0  0
 34 24  1  0  0  0
 24 25  1  0  0  0
 25 26  2  0  0  0
 26 27  1  0  0  0
 27 28  2  0  0  0
 28 20  1  0  0  0
 20 21  2  0  0  0
 20 22  1  0  0  0
 22  1  1  0  0  0
  1  2  2  0  0  0
  2  3  1  0  0  0
  3  4  2  0  0  0
  4  5  1  0  0  0
  5 12  1  0  0  0
 12 13  2  0  0  0
 13 14  1  0  0  0
 14 15  2  0  0  0
 15 16  1  0  0  0
 16 18  1  0  0  0
 18 19  1  0  0  0
 16 17  2  0  0  0
  5  6  2  0  0  0
  6  7  1  0  0  0
  4  8  1  0  0  0
  8  9  1  0  0  0
  9 10  1  0  0  0
 28 29  1  0  0  0
 29 30  2  0  0  0
 30 31  1  0  0  0
 30 32  1  0  0  0
 32 33  2  0  0  0
 33 24  1  0  0  0
 33 27  1  0  0  0
  6  1  1  0  0  0
 10  3  1  0  0  0
 17 12  1  0  0  0
 36 37  1  0  0  0
 22 23  1  0  0  0
  9 11  1  0  0  0
M  END
> <minimizedAffinity>
-8.65523

> <minimizedRMSD>
0.58101

$$$$
P20849


 36 40  0  0  0  0  0  0  0  0999 V2000
   -8.7580    4.9796  -14.0335 C   0  0  0  0  0  0  0  0  0  0  0  0
   -9.5317    5.8464  -13.9161 O   0  0  0  0  0  0  0  0  0  0  0  0
   -8.1032    4.0708  -12.9693 N   0  0  0  0  0  0  0  0  0  0  0  0
   -7.5334    3.3550  -13.3329 H   0  0  0  0  0  0  0  0  0  0  0  0
   -5.3301    5.4098  -17.1907 N   0  0  0  0  0  0  0  0  0  0  0  0
   -4.9182    5.9573  -16.0152 N   0  0  0  0  0  0  0  0  0  0  0  0
   -5.9152    5.6914  -15.1748 C   0  0  0  0  0  0  0  0  0  0  0  0
   -7.0068    5.0586  -15.8043 C   0  0  0  0  0  0  0  0  0  0  0  0
   -8.2968    4.6514  -15.4072 C   0  0  0  0  0  0  0  0  0  0  0  0
   -9.1508    4.0864  -16.3595 C   0  0  0  0  0  0  0  0  0  0  0  0
   -8.7238    3.9395  -17.6733 C   0  0  0  0  0  0  0  0  0  0  0  0
   -9.5777    3.4465  -18.5786 F   0  0  0  0  0  0  0  0  0  0  0  0
   -7.4464    4.3148  -18.0891 C   0  0  0  0  0  0  0  0  0  0  0  0
   -6.6030    4.8875  -17.1292 C   0  0  0  0  0  0  0  0  0  0  0  0
   -4.4693    5.5111  -18.3787 C   0  0  0  0  0  0  0  0  0  0  0  0
   -2.4702    4.3008  -19.0660 C   0  0  0  0  0  0  0  0  0  0  0  0
   -3.0841    5.1247  -18.0312 N   0  0  0  0  0  0  0  0  0  0  0  0
   -2.5269    5.9704  -17.9101 H   0  0  0  0  0  0  0  0  0  0  0  0
   -8.1878    4.0994  -11.5784 C   0  0  0  0  0  0  0  0  0  0  0  0
   -8.7035    2.9911  -10.9144 C   0  0  0  0  0  0  0  0  0  0  0  0
   -8.7984    3.0405   -9.5346 C   0  0  0  0  0  0  0  0  0  0  0  0
   -8.3825    4.1570   -8.8078 C   0  0  0  0  0  0  0  0  0  0  0  0
   -7.8299    5.2744   -9.4399 C   0  0  0  0  0  0  0  0  0  0  0  0
   -7.7583    5.2216  -10.8487 C   0  0  0  0  0  0  0  0  0  0  0  0
   -8.5889    3.8592   -7.3516 C   0  0  0  0  0  0  0  0  0  0  0  0
   -9.3782    2.6131   -7.2697 N   0  0  0  0  0  0  0  0  0  0  0  0
  -10.6977    2.8988   -6.9762 F   0  0  0  0  0  0  0  0  0  0  0  0
   -9.2700    1.9745   -8.5985 C   0  0  0  0  0  0  0  0  0  0  0  0
   -7.3036    6.4371   -8.7000 C   0  0  0  0  0  0  0  0  0  0  0  0
   -5.9317    6.6032   -8.4761 C   0  0  0  0  0  0  0  0  0  0  0  0
   -5.4924    7.6682   -7.6992 C   0  0  0  0  0  0  0  0  0  0  0  0
   -6.3112    8.5619   -7.1059 N   0  0  0  0  0  0  0  0  0  0  0  0
   -7.6237    8.4011   -7.3533 C   0  0  0  0  0  0  0  0  0  0  0  0
   -8.1471    7.4040   -8.1545 C   0  0  0  0  0  0  0  0  0  0  0  0
   -8.5557    9.2542   -6.7929 O   0  0  0  0  0  0  0  0  0  0  0  0
   -8.1376    9.7369   -5.5262 C   0  0  0  0  0  0  0  0  0  0  0  0
 16 17  1  0  0  0
 17 15  1  0  0  0
 15  5  1  0  0  0
  5  6  1  0  0  0
  6  7  2  0  0  0
  7  8  1  0  0  0
  8  9  2  0  0  0
  9  1  1  0  0  0
  1  2  2  0  0  0
  1  3  1  0  0  0
  3 19  1  0  0  0
 19 20  2  0  0  0
 20 21  1  0  0  0
 21 22  2  0  0  0
 22 23  1  0  0  0
 23 29  1  0  0  0
 29 30  2  0  0  0
 30 31  1  0  0  0
 31 32  2  0  0  0
 32 33  1  0  0  0
 33 35  1  0  0  0
 35 36  1  0  0  0
 33 34  2  0  0  0
 23 24  2  0  0  0
 22 25  1  0  0  0
 25 26  1  0  0  0
 26 27  1  0  0  0
 26 28  1  0  0  0
  9 10  1  0  0  0
 10 11  2  0  0  0
 11 12  1  0  0  0
 11 13  1  0  0  0
 13 14  2  0  0  0
 14  5  1  0  0  0
 14  8  1  0  0  0
 24 19  1  0  0  0
 28 21  1  0  0  0
 34 29  1  0  0  0
 17 18  1  0  0  0
  3  4  1  0  0  0
M  END
> <minimizedAffinity>
-8.90978

> <minimizedRMSD>
0.89792

$$$$
P20850


 39 43  0  0  0  0  0  0  0  0999 V2000
   -8.2442    4.2014  -11.5662 C   0  0  0  0  0  0  0  0  0  0  0  0
   -8.8353    3.1612  -10.8412 C   0  0  0  0  0  0  0  0  0  0  0  0
   -8.8792    3.2673   -9.4562 C   0  0  0  0  0  0  0  0  0  0  0  0
   -8.3189    4.3628   -8.8083 C   0  0  0  0  0  0  0  0  0  0  0  0
   -7.8180    5.4606   -9.5052 C   0  0  0  0  0  0  0  0  0  0  0  0
   -7.7762    5.3497  -10.9010 C   0  0  0  0  0  0  0  0  0  0  0  0
   -8.2816    4.0889   -7.3385 C   0  0  0  0  0  0  0  0  0  0  0  0
   -9.1654    2.9280   -7.1009 N   0  0  0  0  0  0  0  0  0  0  0  0
   -9.4721    2.3415   -8.4332 C   0  0  0  0  0  0  0  0  0  0  0  0
   -7.3731    6.6683   -8.8030 C   0  0  0  0  0  0  0  0  0  0  0  0
   -6.0588    7.1288   -8.8589 C   0  0  0  0  0  0  0  0  0  0  0  0
   -5.6914    8.1903   -8.0418 C   0  0  0  0  0  0  0  0  0  0  0  0
   -6.5178    8.7947   -7.1583 N   0  0  0  0  0  0  0  0  0  0  0  0
   -7.7901    8.3588   -7.1566 C   0  0  0  0  0  0  0  0  0  0  0  0
   -8.2649    7.3668   -7.9865 C   0  0  0  0  0  0  0  0  0  0  0  0
   -8.7075    8.8709   -6.2604 O   0  0  0  0  0  0  0  0  0  0  0  0
   -8.6517    8.1882   -5.0175 C   0  0  0  0  0  0  0  0  0  0  0  0
   -8.7295    4.9935  -14.0777 C   0  0  0  0  0  0  0  0  0  0  0  0
   -9.5004    5.8710  -14.0183 O   0  0  0  0  0  0  0  0  0  0  0  0
   -8.1145    4.1182  -12.9544 N   0  0  0  0  0  0  0  0  0  0  0  0
   -7.5394    3.3848  -13.2715 H   0  0  0  0  0  0  0  0  0  0  0  0
   -5.4249    5.4326  -17.3671 N   0  0  0  0  0  0  0  0  0  0  0  0
   -4.8912    5.8487  -16.1899 N   0  0  0  0  0  0  0  0  0  0  0  0
   -5.8814    5.6555  -15.3166 C   0  0  0  0  0  0  0  0  0  0  0  0
   -7.0109    5.0275  -15.8897 C   0  0  0  0  0  0  0  0  0  0  0  0
   -8.2793    4.5994  -15.4369 C   0  0  0  0  0  0  0  0  0  0  0  0
   -9.1369    3.9549  -16.3350 C   0  0  0  0  0  0  0  0  0  0  0  0
   -8.7529    3.7769  -17.6580 C   0  0  0  0  0  0  0  0  0  0  0  0
   -9.6073    3.1995  -18.5116 F   0  0  0  0  0  0  0  0  0  0  0  0
   -7.5240    4.2191  -18.1388 C   0  0  0  0  0  0  0  0  0  0  0  0
   -6.6661    4.8501  -17.2289 C   0  0  0  0  0  0  0  0  0  0  0  0
   -4.6562    5.5786  -18.6013 C   0  0  0  0  0  0  0  0  0  0  0  0
   -5.3402    7.7804  -19.3515 C   0  0  0  0  0  0  0  0  0  0  0  0
   -5.4345    6.3480  -19.5911 N   0  0  0  0  0  0  0  0  0  0  0  0
   -5.0765    6.1443  -20.5242 H   0  0  0  0  0  0  0  0  0  0  0  0
  -10.2999    3.3601   -6.2748 C   0  0  0  0  0  0  0  0  0  0  0  0
  -10.7066    2.5792   -5.0268 C   0  0  0  0  0  0  0  0  0  0  0  0
  -12.0518    2.3574   -5.0849 F   0  0  0  0  0  0  0  0  0  0  0  0
  -10.5438    3.3474   -3.9314 F   0  0  0  0  0  0  0  0  0  0  0  0
 33 34  1  0  0  0
 34 32  1  0  0  0
 32 22  1  0  0  0
 22 23  1  0  0  0
 23 24  2  0  0  0
 24 25  1  0  0  0
 25 26  2  0  0  0
 26 18  1  0  0  0
 18 19  2  0  0  0
 18 20  1  0  0  0
 20  1  1  0  0  0
  1  2  2  0  0  0
  2  3  1  0  0  0
  3  4  2  0  0  0
  4  5  1  0  0  0
  5 10  1  0  0  0
 10 11  2  0  0  0
 11 12  1  0  0  0
 12 13  2  0  0  0
 13 14  1  0  0  0
 14 16  1  0  0  0
 16 17  1  0  0  0
 14 15  2  0  0  0
  5  6  2  0  0  0
  4  7  1  0  0  0
  7  8  1  0  0  0
  8 36  1  0  0  0
 36 37  1  0  0  0
 37 38  1  0  0  0
 37 39  1  0  0  0
  8  9  1  0  0  0
 26 27  1  0  0  0
 27 28  2  0  0  0
 28 29  1  0  0  0
 28 30  1  0  0  0
 30 31  2  0  0  0
 31 22  1  0  0  0
 31 25  1  0  0  0
  6  1  1  0  0  0
  9  3  1  0  0  0
 15 10  1  0  0  0
 34 35  1  0  0  0
 20 21  1  0  0  0
M  END
> <minimizedAffinity>
-8.96486

> <minimizedRMSD>
0.81571

$$$$
P20851


 39 44  0  0  0  0  0  0  0  0999 V2000
   -8.0890    4.0888  -13.1460 N   0  0  0  0  0  0  0  0  0  0  0  0
   -7.1943    4.8745  -14.1359 C   0  0  0  0  0  0  0  0  0  0  0  0
   -6.3281    5.6328  -13.9358 O   0  0  0  0  0  0  0  0  0  0  0  0
   -8.7047    3.4466  -13.5675 H   0  0  0  0  0  0  0  0  0  0  0  0
   -7.5684    4.5812  -15.5475 C   0  0  0  0  0  0  0  0  0  0  0  0
   -8.8559    4.1273  -15.8566 C   0  0  0  0  0  0  0  0  0  0  0  0
   -9.2532    3.9619  -17.1963 C   0  0  0  0  0  0  0  0  0  0  0  0
   -8.3493    4.1869  -18.2324 C   0  0  0  0  0  0  0  0  0  0  0  0
   -7.0932    4.6606  -17.9189 C   0  0  0  0  0  0  0  0  0  0  0  0
   -6.7026    4.8568  -16.5960 C   0  0  0  0  0  0  0  0  0  0  0  0
   -5.2868    5.3328  -16.5801 C   0  0  0  0  0  0  0  0  0  0  0  0
   -5.0471    5.6670  -18.0933 C   0  0  0  0  0  0  0  0  0  0  0  0
   -3.6472    5.2102  -18.5668 C   0  0  0  0  0  0  0  0  0  0  0  0
   -2.6301    6.3446  -18.5449 C   0  0  0  0  0  0  0  0  0  0  0  0
   -3.0328    7.4798  -19.4865 C   0  0  0  0  0  0  0  0  0  0  0  0
   -4.5469    7.6512  -19.6171 C   0  0  0  0  0  0  0  0  0  0  0  0
   -5.2754    7.1820  -18.3610 C   0  0  0  0  0  0  0  0  0  0  0  0
   -6.0585    4.8910  -18.8457 N   0  0  0  0  0  0  0  0  0  0  0  0
   -6.0169    4.6005  -19.7854 H   0  0  0  0  0  0  0  0  0  0  0  0
  -10.5346    3.5762  -17.4900 N   0  0  0  0  0  0  0  0  0  0  0  0
  -11.1564    4.4632  -18.0839 O   0  0  0  0  0  0  0  0  0  0  0  0
   -7.8187    5.3305   -9.6130 C   0  0  0  0  0  0  0  0  0  0  0  0
   -7.7565    5.2755  -11.0275 C   0  0  0  0  0  0  0  0  0  0  0  0
   -8.1645    4.1429  -11.7531 C   0  0  0  0  0  0  0  0  0  0  0  0
   -8.6557    3.0279  -11.0782 C   0  0  0  0  0  0  0  0  0  0  0  0
   -8.7440    3.0774   -9.6982 C   0  0  0  0  0  0  0  0  0  0  0  0
   -8.3496    4.2049   -8.9734 C   0  0  0  0  0  0  0  0  0  0  0  0
   -8.5434    3.8897   -7.5181 C   0  0  0  0  0  0  0  0  0  0  0  0
   -9.4026    2.6868   -7.4650 N   0  0  0  0  0  0  0  0  0  0  0  0
   -9.1822    2.0027   -8.7572 C   0  0  0  0  0  0  0  0  0  0  0  0
  -10.3825    2.9503   -7.3612 H   0  0  0  0  0  0  0  0  0  0  0  0
   -7.5977    8.5003   -7.5806 C   0  0  0  0  0  0  0  0  0  0  0  0
   -8.1179    7.5065   -8.3892 C   0  0  0  0  0  0  0  0  0  0  0  0
   -7.2880    6.4988   -8.8792 C   0  0  0  0  0  0  0  0  0  0  0  0
   -5.9225    6.6263   -8.5964 C   0  0  0  0  0  0  0  0  0  0  0  0
   -5.4808    7.6924   -7.8218 C   0  0  0  0  0  0  0  0  0  0  0  0
   -6.2928    8.6240   -7.2801 N   0  0  0  0  0  0  0  0  0  0  0  0
   -8.0437   10.0475   -5.9078 C   0  0  0  0  0  0  0  0  0  0  0  0
   -8.5257    9.3878   -7.0680 O   0  0  0  0  0  0  0  0  0  0  0  0
 38 39  1  0  0  0
 39 32  1  0  0  0
 32 33  2  0  0  0
 33 34  1  0  0  0
 34 22  1  0  0  0
 22 23  2  0  0  0
 23 24  1  0  0  0
 24  1  1  0  0  0
  1  2  1  0  0  0
  2  3  2  0  0  0
  2  5  1  0  0  0
  5  6  2  0  0  0
  6  7  1  0  0  0
  7 20  1  0  0  0
 20 21  2  0  0  0
  7  8  2  0  0  0
  8  9  1  0  0  0
  9 10  2  0  0  0
 10 11  1  0  0  0
 11 12  1  0  0  0
 12 13  1  0  0  0
 13 14  1  0  0  0
 14 15  1  0  0  0
 15 16  1  0  0  0
 16 17  1  0  0  0
 12 18  1  0  0  0
 24 25  2  0  0  0
 25 26  1  0  0  0
 26 27  2  0  0  0
 27 28  1  0  0  0
 28 29  1  0  0  0
 29 30  1  0  0  0
 34 35  2  0  0  0
 35 36  1  0  0  0
 36 37  2  0  0  0
 37 32  1  0  0  0
 27 22  1  0  0  0
 10  5  1  0  0  0
 17 12  1  0  0  0
 30 26  1  0  0  0
 18  9  1  0  0  0
  1  4  1  0  0  0
 18 19  1  0  0  0
 29 31  1  0  0  0
M  END
> <minimizedAffinity>
-10.12486

> <minimizedRMSD>
0.70340

$$$$
P20852


 45 50  0  0  0  0  0  0  0  0999 V2000
   -5.5993    5.0453  -17.6462 N   0  0  0  0  0  0  0  0  0  0  0  0
   -6.9157    4.6993  -17.3358 C   0  0  0  0  0  0  0  0  0  0  0  0
   -7.8616    4.0972  -18.1497 C   0  0  0  0  0  0  0  0  0  0  0  0
   -9.1028    3.7610  -17.6098 C   0  0  0  0  0  0  0  0  0  0  0  0
  -10.0123    3.1543  -18.3841 F   0  0  0  0  0  0  0  0  0  0  0  0
   -9.4224    4.0298  -16.2784 C   0  0  0  0  0  0  0  0  0  0  0  0
   -8.4766    4.6436  -15.4564 C   0  0  0  0  0  0  0  0  0  0  0  0
   -7.2340    4.9645  -16.0014 C   0  0  0  0  0  0  0  0  0  0  0  0
   -6.0319    5.5321  -15.3193 C   0  0  0  0  0  0  0  0  0  0  0  0
   -5.0808    5.8828  -16.5344 C   0  0  0  0  0  0  0  0  0  0  0  0
   -3.6633    5.3576  -16.1460 C   0  0  0  0  0  0  0  0  0  0  0  0
   -2.4932    6.0199  -16.8812 C   0  0  0  0  0  0  0  0  0  0  0  0
   -2.7784    7.4797  -17.2453 C   0  0  0  0  0  0  0  0  0  0  0  0
   -3.8164    7.9914  -16.3437 N   0  0  0  0  0  0  0  0  0  0  0  0
   -5.0807    7.3663  -16.7136 N   0  0  0  0  0  0  0  0  0  0  0  0
   -3.8898    9.0042  -16.4393 H   0  0  0  0  0  0  0  0  0  0  0  0
   -5.2701    7.5741  -17.6941 H   0  0  0  0  0  0  0  0  0  0  0  0
   -8.8025    5.0222  -14.0532 C   0  0  0  0  0  0  0  0  0  0  0  0
   -9.4548    6.0183  -13.9184 O   0  0  0  0  0  0  0  0  0  0  0  0
   -8.2767    4.1060  -13.0812 N   0  0  0  0  0  0  0  0  0  0  0  0
   -7.8331    3.3149  -13.4640 H   0  0  0  0  0  0  0  0  0  0  0  0
   -8.2869    4.1455  -11.6842 C   0  0  0  0  0  0  0  0  0  0  0  0
   -8.7037    3.0107  -10.9936 C   0  0  0  0  0  0  0  0  0  0  0  0
   -8.7553    3.0666   -9.6113 C   0  0  0  0  0  0  0  0  0  0  0  0
   -8.3865    4.2126   -8.9008 C   0  0  0  0  0  0  0  0  0  0  0  0
   -7.8971    5.3432   -9.5557 C   0  0  0  0  0  0  0  0  0  0  0  0
   -7.8866    5.2902  -10.9697 C   0  0  0  0  0  0  0  0  0  0  0  0
   -8.5723    3.9225   -7.4410 C   0  0  0  0  0  0  0  0  0  0  0  0
   -9.3798    2.6836   -7.3683 N   0  0  0  0  0  0  0  0  0  0  0  0
   -9.1365    1.9884   -8.6510 C   0  0  0  0  0  0  0  0  0  0  0  0
  -10.3695    2.9070   -7.2642 H   0  0  0  0  0  0  0  0  0  0  0  0
   -7.3600    6.5207   -8.8470 C   0  0  0  0  0  0  0  0  0  0  0  0
   -5.9910    6.6287   -8.5690 C   0  0  0  0  0  0  0  0  0  0  0  0
   -5.5231    7.7255   -7.8591 C   0  0  0  0  0  0  0  0  0  0  0  0
   -6.3119    8.7135   -7.3915 N   0  0  0  0  0  0  0  0  0  0  0  0
   -7.6231    8.6082   -7.6814 C   0  0  0  0  0  0  0  0  0  0  0  0
   -8.1764    7.5609   -8.4006 C   0  0  0  0  0  0  0  0  0  0  0  0
   -8.5202    9.5585   -7.2284 O   0  0  0  0  0  0  0  0  0  0  0  0
   -8.0305   10.2919   -6.1137 C   0  0  0  0  0  0  0  0  0  0  0  0
   -1.6106    8.2832  -17.0995 O   0  0  0  0  0  0  0  0  0  0  0  0
   -0.4181    7.5868  -17.4342 C   0  0  0  0  0  0  0  0  0  0  0  0
   -5.1825    5.2636  -19.0162 C   0  0  0  0  0  0  0  0  0  0  0  0
   -4.6511    6.8721  -20.7238 C   0  0  0  0  0  0  0  0  0  0  0  0
   -5.6346    6.4506  -19.7380 N   0  0  0  0  0  0  0  0  0  0  0  0
   -6.5117    6.2375  -20.2129 H   0  0  0  0  0  0  0  0  0  0  0  0
 43 44  1  0  0  0
 44 42  1  0  0  0
 42  1  1  0  0  0
  1  2  1  0  0  0
  2  3  2  0  0  0
  3  4  1  0  0  0
  4  5  1  0  0  0
  4  6  2  0  0  0
  6  7  1  0  0  0
  7 18  1  0  0  0
 18 19  2  0  0  0
 18 20  1  0  0  0
 20 22  1  0  0  0
 22 23  2  0  0  0
 23 24  1  0  0  0
 24 25  2  0  0  0
 25 26  1  0  0  0
 26 32  1  0  0  0
 32 33  2  0  0  0
 33 34  1  0  0  0
 34 35  2  0  0  0
 35 36  1  0  0  0
 36 38  1  0  0  0
 38 39  1  0  0  0
 36 37  2  0  0  0
 26 27  2  0  0  0
 25 28  1  0  0  0
 28 29  1  0  0  0
 29 30  1  0  0  0
  7  8  2  0  0  0
  8  9  1  0  0  0
 10  9  1  0  0  0
 10 11  1  0  0  0
 11 12  1  0  0  0
 12 13  1  0  0  0
 13 40  1  0  0  0
 40 41  1  0  0  0
 13 14  1  0  0  0
 14 15  1  0  0  0
 10  1  1  0  0  0
  8  2  1  0  0  0
 15 10  1  0  0  0
 27 22  1  0  0  0
 30 24  1  0  0  0
 37 32  1  0  0  0
 44 45  1  0  0  0
 20 21  1  0  0  0
 29 31  1  0  0  0
 14 16  1  0  0  0
 15 17  1  0  0  0
M  END
> <minimizedAffinity>
-9.20368

> <minimizedRMSD>
0.94864

$$$$
P20853


 36 40  0  0  0  0  0  0  0  0999 V2000
   -7.6174    5.1624  -13.8703 C   0  0  0  0  0  0  0  0  0  0  0  0
   -7.1536    6.2134  -13.6577 O   0  0  0  0  0  0  0  0  0  0  0  0
   -8.2135    4.1144  -12.9002 N   0  0  0  0  0  0  0  0  0  0  0  0
   -8.6150    3.3292  -13.3378 H   0  0  0  0  0  0  0  0  0  0  0  0
   -5.6608    5.1683  -18.1457 N   0  0  0  0  0  0  0  0  0  0  0  0
   -4.7568    5.6429  -17.2675 N   0  0  0  0  0  0  0  0  0  0  0  0
   -5.3709    5.5629  -16.0872 C   0  0  0  0  0  0  0  0  0  0  0  0
   -6.6670    5.0182  -16.1788 C   0  0  0  0  0  0  0  0  0  0  0  0
   -7.7209    4.7309  -15.2876 C   0  0  0  0  0  0  0  0  0  0  0  0
   -8.8971    4.1626  -15.7919 C   0  0  0  0  0  0  0  0  0  0  0  0
   -9.0226    3.9036  -17.1495 C   0  0  0  0  0  0  0  0  0  0  0  0
  -10.1734    3.4089  -17.6186 F   0  0  0  0  0  0  0  0  0  0  0  0
   -8.0000    4.1757  -18.0489 C   0  0  0  0  0  0  0  0  0  0  0  0
   -6.8267    4.7468  -17.5361 C   0  0  0  0  0  0  0  0  0  0  0  0
   -5.4537    5.1027  -19.5498 N   0  0  0  0  0  0  0  0  0  0  0  0
   -4.7168    4.4232  -19.7388 H   0  0  0  0  0  0  0  0  0  0  0  0
   -3.6093    6.3731  -20.5705 C   0  0  0  0  0  0  0  0  0  0  0  0
   -5.0638    6.3850  -20.1264 C   0  0  0  0  0  0  0  0  0  0  0  0
   -8.2746    4.1012  -11.5077 C   0  0  0  0  0  0  0  0  0  0  0  0
   -8.7827    2.9752  -10.8674 C   0  0  0  0  0  0  0  0  0  0  0  0
   -8.8499    2.9798   -9.4846 C   0  0  0  0  0  0  0  0  0  0  0  0
   -8.4373    4.0779   -8.7340 C   0  0  0  0  0  0  0  0  0  0  0  0
   -7.9205    5.2257   -9.3429 C   0  0  0  0  0  0  0  0  0  0  0  0
   -7.8505    5.2074  -10.7529 C   0  0  0  0  0  0  0  0  0  0  0  0
   -8.6595    3.7652   -7.2875 C   0  0  0  0  0  0  0  0  0  0  0  0
   -9.1061    2.3620   -7.1977 N   0  0  0  0  0  0  0  0  0  0  0  0
   -9.3335    1.8963   -8.5841 C   0  0  0  0  0  0  0  0  0  0  0  0
   -9.9714    2.3025   -6.6609 H   0  0  0  0  0  0  0  0  0  0  0  0
   -7.4397    6.3925   -8.5777 C   0  0  0  0  0  0  0  0  0  0  0  0
   -6.0885    6.7589   -8.5655 C   0  0  0  0  0  0  0  0  0  0  0  0
   -5.6765    7.8159   -7.7632 C   0  0  0  0  0  0  0  0  0  0  0  0
   -6.4972    8.5163   -6.9529 N   0  0  0  0  0  0  0  0  0  0  0  0
   -7.7956    8.1678   -6.9977 C   0  0  0  0  0  0  0  0  0  0  0  0
   -8.3035    7.1646   -7.8008 C   0  0  0  0  0  0  0  0  0  0  0  0
   -8.7279    8.8137   -6.2077 O   0  0  0  0  0  0  0  0  0  0  0  0
   -8.7561    8.2967   -4.8873 C   0  0  0  0  0  0  0  0  0  0  0  0
 17 18  1  0  0  0
 18 15  1  0  0  0
 15  5  1  0  0  0
  5  6  1  0  0  0
  6  7  2  0  0  0
  7  8  1  0  0  0
  8  9  2  0  0  0
  9  1  1  0  0  0
  1  2  2  0  0  0
  1  3  1  0  0  0
  3 19  1  0  0  0
 19 20  2  0  0  0
 20 21  1  0  0  0
 21 22  2  0  0  0
 22 23  1  0  0  0
 23 29  1  0  0  0
 29 30  2  0  0  0
 30 31  1  0  0  0
 31 32  2  0  0  0
 32 33  1  0  0  0
 33 35  1  0  0  0
 35 36  1  0  0  0
 33 34  2  0  0  0
 23 24  2  0  0  0
 22 25  1  0  0  0
 25 26  1  0  0  0
 26 27  1  0  0  0
  9 10  1  0  0  0
 10 11  2  0  0  0
 11 12  1  0  0  0
 11 13  1  0  0  0
 13 14  2  0  0  0
 14  5  1  0  0  0
 14  8  1  0  0  0
 24 19  1  0  0  0
 27 21  1  0  0  0
 34 29  1  0  0  0
 15 16  1  0  0  0
  3  4  1  0  0  0
 26 28  1  0  0  0
M  END
> <minimizedAffinity>
-8.78966

> <minimizedRMSD>
0.37300

$$$$
P20854


 37 41  0  0  0  0  0  0  0  0999 V2000
   -8.3253    4.0216  -10.9472 C   0  0  0  0  0  0  0  0  0  0  0  0
   -8.8169    2.8410  -10.3986 C   0  0  0  0  0  0  0  0  0  0  0  0
   -9.0374    2.7964   -9.0424 C   0  0  0  0  0  0  0  0  0  0  0  0
   -8.7347    3.8759   -8.2157 C   0  0  0  0  0  0  0  0  0  0  0  0
   -8.2113    5.0647   -8.7309 C   0  0  0  0  0  0  0  0  0  0  0  0
   -8.1190    5.1691  -10.1444 C   0  0  0  0  0  0  0  0  0  0  0  0
   -7.9375    6.5423  -10.7551 C   0  0  0  0  0  0  0  0  0  0  0  0
   -9.0508    3.4661   -6.8088 C   0  0  0  0  0  0  0  0  0  0  0  0
   -9.8741    2.2394   -6.9173 N   0  0  0  0  0  0  0  0  0  0  0  0
   -9.5168    1.6488   -8.2253 C   0  0  0  0  0  0  0  0  0  0  0  0
  -10.8670    2.4710   -6.8885 H   0  0  0  0  0  0  0  0  0  0  0  0
   -7.7531    6.1586   -7.8587 C   0  0  0  0  0  0  0  0  0  0  0  0
   -6.3872    6.4498   -7.7282 C   0  0  0  0  0  0  0  0  0  0  0  0
   -5.9879    7.4874   -6.9018 C   0  0  0  0  0  0  0  0  0  0  0  0
   -6.8393    8.2189   -6.1576 N   0  0  0  0  0  0  0  0  0  0  0  0
   -8.1446    7.9099   -6.2857 C   0  0  0  0  0  0  0  0  0  0  0  0
   -8.6426    6.9383   -7.1307 C   0  0  0  0  0  0  0  0  0  0  0  0
   -9.0912    8.5808   -5.5390 O   0  0  0  0  0  0  0  0  0  0  0  0
   -9.4807    7.8240   -4.4037 C   0  0  0  0  0  0  0  0  0  0  0  0
   -6.8685    4.4362  -13.1350 C   0  0  0  0  0  0  0  0  0  0  0  0
   -5.8239    4.8217  -12.7850 O   0  0  0  0  0  0  0  0  0  0  0  0
   -8.0977    3.9939  -12.3143 N   0  0  0  0  0  0  0  0  0  0  0  0
   -8.8418    3.6333  -12.8487 H   0  0  0  0  0  0  0  0  0  0  0  0
   -5.6813    6.0512  -17.3368 N   0  0  0  0  0  0  0  0  0  0  0  0
   -4.6633    6.3681  -16.5005 N   0  0  0  0  0  0  0  0  0  0  0  0
   -5.0314    5.7951  -15.3506 C   0  0  0  0  0  0  0  0  0  0  0  0
   -6.2831    5.1427  -15.4375 C   0  0  0  0  0  0  0  0  0  0  0  0
   -7.1475    4.4421  -14.5825 C   0  0  0  0  0  0  0  0  0  0  0  0
   -8.3585    3.9398  -15.0925 C   0  0  0  0  0  0  0  0  0  0  0  0
   -8.7290    4.1839  -16.3983 C   0  0  0  0  0  0  0  0  0  0  0  0
   -9.8844    3.7337  -16.8923 F   0  0  0  0  0  0  0  0  0  0  0  0
   -7.9527    4.9706  -17.2079 C   0  0  0  0  0  0  0  0  0  0  0  0
   -6.7061    5.3779  -16.7327 C   0  0  0  0  0  0  0  0  0  0  0  0
   -5.7251    6.5675  -18.6930 C   0  0  0  0  0  0  0  0  0  0  0  0
   -5.9462    4.4333  -20.0164 C   0  0  0  0  0  0  0  0  0  0  0  0
   -5.1963    5.6082  -19.6383 N   0  0  0  0  0  0  0  0  0  0  0  0
   -5.0133    6.1230  -20.4996 H   0  0  0  0  0  0  0  0  0  0  0  0
 35 36  1  0  0  0
 36 34  1  0  0  0
 34 24  1  0  0  0
 24 25  1  0  0  0
 25 26  2  0  0  0
 26 27  1  0  0  0
 27 28  2  0  0  0
 28 20  1  0  0  0
 20 21  2  0  0  0
 20 22  1  0  0  0
 22  1  1  0  0  0
  1  2  2  0  0  0
  2  3  1  0  0  0
  3  4  2  0  0  0
  4  5  1  0  0  0
  5 12  1  0  0  0
 12 13  2  0  0  0
 13 14  1  0  0  0
 14 15  2  0  0  0
 15 16  1  0  0  0
 16 18  1  0  0  0
 18 19  1  0  0  0
 16 17  2  0  0  0
  5  6  2  0  0  0
  6  7  1  0  0  0
  4  8  1  0  0  0
  8  9  1  0  0  0
  9 10  1  0  0  0
 28 29  1  0  0  0
 29 30  2  0  0  0
 30 31  1  0  0  0
 30 32  1  0  0  0
 32 33  2  0  0  0
 33 24  1  0  0  0
 33 27  1  0  0  0
  6  1  1  0  0  0
 10  3  1  0  0  0
 17 12  1  0  0  0
 36 37  1  0  0  0
 22 23  1  0  0  0
  9 11  1  0  0  0
M  END
> <minimizedAffinity>
-6.73439

> <minimizedRMSD>
0.82533

$$$$
P20858


 37 42  0  0  0  0  0  0  0  0999 V2000
   -8.3491    4.3565  -12.7446 N   0  0  0  0  0  0  0  0  0  0  0  0
   -7.8932    5.5548  -13.6241 C   0  0  0  0  0  0  0  0  0  0  0  0
   -7.5110    6.6193  -13.3178 O   0  0  0  0  0  0  0  0  0  0  0  0
   -8.7024    3.5872  -13.2470 H   0  0  0  0  0  0  0  0  0  0  0  0
   -8.0983    5.2527  -15.1249 C   0  0  0  0  0  0  0  0  0  0  0  0
   -8.6964    3.9400  -15.5928 C   0  0  0  0  0  0  0  0  0  0  0  0
   -8.8785    3.8743  -17.1015 C   0  0  0  0  0  0  0  0  0  0  0  0
   -9.8598    4.7353  -17.4597 F   0  0  0  0  0  0  0  0  0  0  0  0
   -7.6156    4.1923  -17.8649 C   0  0  0  0  0  0  0  0  0  0  0  0
   -6.8377    5.4090  -17.3980 C   0  0  0  0  0  0  0  0  0  0  0  0
   -6.8363    5.6669  -15.8989 C   0  0  0  0  0  0  0  0  0  0  0  0
   -5.5105    5.1392  -15.4164 C   0  0  0  0  0  0  0  0  0  0  0  0
   -4.6015    5.3061  -16.5468 N   0  0  0  0  0  0  0  0  0  0  0  0
   -3.9405    6.6144  -16.6197 C   0  0  0  0  0  0  0  0  0  0  0  0
   -4.5328    7.3479  -17.7480 N   0  0  0  0  0  0  0  0  0  0  0  0
   -4.9476    6.2782  -18.5997 N   0  0  0  0  0  0  0  0  0  0  0  0
   -5.4046    5.2315  -17.7604 N   0  0  0  0  0  0  0  0  0  0  0  0
   -3.8440    7.9437  -18.2072 H   0  0  0  0  0  0  0  0  0  0  0  0
   -4.1620    5.9560  -19.1648 H   0  0  0  0  0  0  0  0  0  0  0  0
   -8.0179    5.1968   -9.1344 C   0  0  0  0  0  0  0  0  0  0  0  0
   -7.9589    5.2663  -10.5401 C   0  0  0  0  0  0  0  0  0  0  0  0
   -8.3388    4.1949  -11.3634 C   0  0  0  0  0  0  0  0  0  0  0  0
   -8.7607    2.9963  -10.8018 C   0  0  0  0  0  0  0  0  0  0  0  0
   -8.8385    2.9223   -9.4215 C   0  0  0  0  0  0  0  0  0  0  0  0
   -8.5044    4.0039   -8.5987 C   0  0  0  0  0  0  0  0  0  0  0  0
   -8.7378    3.5828   -7.1781 C   0  0  0  0  0  0  0  0  0  0  0  0
   -9.5297    2.3349   -7.2438 N   0  0  0  0  0  0  0  0  0  0  0  0
   -9.2363    1.7592   -8.5739 C   0  0  0  0  0  0  0  0  0  0  0  0
  -10.5252    2.5379   -7.1536 H   0  0  0  0  0  0  0  0  0  0  0  0
   -7.9424    8.0611   -6.6988 C   0  0  0  0  0  0  0  0  0  0  0  0
   -8.4356    7.0510   -7.5024 C   0  0  0  0  0  0  0  0  0  0  0  0
   -7.5662    6.3423   -8.3268 C   0  0  0  0  0  0  0  0  0  0  0  0
   -6.2308    6.7677   -8.3503 C   0  0  0  0  0  0  0  0  0  0  0  0
   -5.8369    7.8258   -7.5427 C   0  0  0  0  0  0  0  0  0  0  0  0
   -6.6607    8.4725   -6.6940 N   0  0  0  0  0  0  0  0  0  0  0  0
   -9.0933    7.8954   -4.6946 C   0  0  0  0  0  0  0  0  0  0  0  0
   -8.8722    8.6581   -5.8699 O   0  0  0  0  0  0  0  0  0  0  0  0
 36 37  1  0  0  0
 37 30  1  0  0  0
 30 31  2  0  0  0
 31 32  1  0  0  0
 32 20  1  0  0  0
 20 21  2  0  0  0
 21 22  1  0  0  0
 22  1  1  0  0  0
  1  2  1  0  0  0
  2  3  2  0  0  0
  5  2  1  0  0  0
  5  6  1  0  0  0
  6  7  1  0  0  0
  7  8  1  0  0  0
  7  9  1  0  0  0
 10  9  1  0  0  0
 10 11  1  0  0  0
 11 12  1  0  0  0
 12 13  1  0  0  0
 13 14  1  0  0  0
 14 15  1  0  0  0
 15 16  1  0  0  0
 16 17  1  0  0  0
 22 23  2  0  0  0
 23 24  1  0  0  0
 24 25  2  0  0  0
 25 26  1  0  0  0
 26 27  1  0  0  0
 27 28  1  0  0  0
 32 33  2  0  0  0
 33 34  1  0  0  0
 34 35  2  0  0  0
 35 30  1  0  0  0
 25 20  1  0  0  0
 11  5  1  0  0  0
 17 13  1  0  0  0
 28 24  1  0  0  0
 17 10  1  0  0  0
  1  4  1  0  0  0
 15 18  1  0  0  0
 16 19  1  0  0  0
 27 29  1  0  0  0
M  END
> <minimizedAffinity>
-7.86731

> <minimizedRMSD>
0.37504

$$$$
P20859


 37 42  0  0  0  0  0  0  0  0999 V2000
   -8.2405    3.9182  -13.0330 N   0  0  0  0  0  0  0  0  0  0  0  0
   -8.8557    4.8313  -14.1356 C   0  0  0  0  0  0  0  0  0  0  0  0
   -9.5615    5.7590  -14.0437 O   0  0  0  0  0  0  0  0  0  0  0  0
   -7.7334    3.1458  -13.3729 H   0  0  0  0  0  0  0  0  0  0  0  0
   -8.3983    4.2567  -15.4844 C   0  0  0  0  0  0  0  0  0  0  0  0
   -9.4991    4.4849  -16.5033 C   0  0  0  0  0  0  0  0  0  0  0  0
   -9.1333    4.0700  -17.9157 C   0  0  0  0  0  0  0  0  0  0  0  0
   -9.1041    2.7092  -17.9529 F   0  0  0  0  0  0  0  0  0  0  0  0
   -7.7983    4.5876  -18.4119 C   0  0  0  0  0  0  0  0  0  0  0  0
   -6.6597    4.6349  -17.3990 C   0  0  0  0  0  0  0  0  0  0  0  0
   -6.9910    4.6789  -15.9081 C   0  0  0  0  0  0  0  0  0  0  0  0
   -6.3563    5.9525  -15.3892 C   0  0  0  0  0  0  0  0  0  0  0  0
   -5.2521    6.1652  -16.3272 N   0  0  0  0  0  0  0  0  0  0  0  0
   -4.4755    7.6330  -16.3857 S   0  0  0  0  0  0  0  0  0  0  0  0
   -3.2975    7.2381  -17.7127 C   0  0  0  0  0  0  0  0  0  0  0  0
   -3.9801    6.7214  -18.8960 N   0  0  0  0  0  0  0  0  0  0  0  0
   -4.6838    5.4827  -18.5524 C   0  0  0  0  0  0  0  0  0  0  0  0
   -5.7836    5.8075  -17.6310 N   0  0  0  0  0  0  0  0  0  0  0  0
   -3.2953    6.5316  -19.6277 H   0  0  0  0  0  0  0  0  0  0  0  0
   -7.8208    5.2498   -9.5771 C   0  0  0  0  0  0  0  0  0  0  0  0
   -7.8109    5.1534  -10.9829 C   0  0  0  0  0  0  0  0  0  0  0  0
   -8.2912    4.0171  -11.6503 C   0  0  0  0  0  0  0  0  0  0  0  0
   -8.8123    2.9467  -10.9342 C   0  0  0  0  0  0  0  0  0  0  0  0
   -8.8207    3.0295   -9.5561 C   0  0  0  0  0  0  0  0  0  0  0  0
   -8.3352    4.1492   -8.8851 C   0  0  0  0  0  0  0  0  0  0  0  0
   -8.4870    3.9075   -7.4154 C   0  0  0  0  0  0  0  0  0  0  0  0
   -8.9013    2.5006   -7.2434 N   0  0  0  0  0  0  0  0  0  0  0  0
   -9.3157    2.0214   -8.5807 C   0  0  0  0  0  0  0  0  0  0  0  0
   -9.6817    2.4399   -6.5894 H   0  0  0  0  0  0  0  0  0  0  0  0
   -7.5950    8.4858   -7.6819 C   0  0  0  0  0  0  0  0  0  0  0  0
   -8.1228    7.4480   -8.4241 C   0  0  0  0  0  0  0  0  0  0  0  0
   -7.2826    6.4429   -8.9004 C   0  0  0  0  0  0  0  0  0  0  0  0
   -5.9106    6.6084   -8.6750 C   0  0  0  0  0  0  0  0  0  0  0  0
   -5.4671    7.7146   -7.9620 C   0  0  0  0  0  0  0  0  0  0  0  0
   -6.2831    8.6495   -7.4324 N   0  0  0  0  0  0  0  0  0  0  0  0
   -7.9874   10.1603   -6.1284 C   0  0  0  0  0  0  0  0  0  0  0  0
   -8.5232    9.3803   -7.1847 O   0  0  0  0  0  0  0  0  0  0  0  0
 36 37  1  0  0  0
 37 30  1  0  0  0
 30 31  2  0  0  0
 31 32  1  0  0  0
 32 20  1  0  0  0
 20 21  2  0  0  0
 21 22  1  0  0  0
 22  1  1  0  0  0
  1  2  1  0  0  0
  2  3  2  0  0  0
  5  2  1  0  0  0
  5  6  1  0  0  0
  6  7  1  0  0  0
  7  8  1  0  0  0
  7  9  1  0  0  0
 10  9  1  0  0  0
 10 11  1  0  0  0
 11 12  1  0  0  0
 12 13  1  0  0  0
 13 14  1  0  0  0
 14 15  1  0  0  0
 15 16  1  0  0  0
 16 17  1  0  0  0
 17 18  1  0  0  0
 22 23  2  0  0  0
 23 24  1  0  0  0
 24 25  2  0  0  0
 25 26  1  0  0  0
 26 27  1  0  0  0
 27 28  1  0  0  0
 32 33  2  0  0  0
 33 34  1  0  0  0
 34 35  2  0  0  0
 35 30  1  0  0  0
 25 20  1  0  0  0
 11  5  1  0  0  0
 18 13  1  0  0  0
 28 24  1  0  0  0
 18 10  1  0  0  0
  1  4  1  0  0  0
 16 19  1  0  0  0
 27 29  1  0  0  0
M  END
> <minimizedAffinity>
-8.77861

> <minimizedRMSD>
0.99850

$$$$
P20860


 39 43  0  0  0  0  0  0  0  0999 V2000
   -8.6844    4.8888  -14.0417 C   0  0  0  0  0  0  0  0  0  0  0  0
   -9.4860    5.7760  -13.9601 O   0  0  0  0  0  0  0  0  0  0  0  0
   -8.0969    4.0600  -13.0299 N   0  0  0  0  0  0  0  0  0  0  0  0
   -7.5148    3.3449  -13.3751 H   0  0  0  0  0  0  0  0  0  0  0  0
   -8.2094    4.0939  -11.6378 C   0  0  0  0  0  0  0  0  0  0  0  0
   -8.6780    2.9590  -10.9811 C   0  0  0  0  0  0  0  0  0  0  0  0
   -8.7875    2.9969   -9.6006 C   0  0  0  0  0  0  0  0  0  0  0  0
   -8.4173    4.1201   -8.8638 C   0  0  0  0  0  0  0  0  0  0  0  0
   -7.9133    5.2647   -9.4836 C   0  0  0  0  0  0  0  0  0  0  0  0
   -7.8433    5.2316  -10.8942 C   0  0  0  0  0  0  0  0  0  0  0  0
   -8.6595    3.8361   -7.4157 C   0  0  0  0  0  0  0  0  0  0  0  0
   -9.0863    2.4271   -7.3065 N   0  0  0  0  0  0  0  0  0  0  0  0
   -9.2880    1.9307   -8.6879 C   0  0  0  0  0  0  0  0  0  0  0  0
   -9.9579    2.3642   -6.7804 H   0  0  0  0  0  0  0  0  0  0  0  0
   -7.4229    6.4337   -8.7281 C   0  0  0  0  0  0  0  0  0  0  0  0
   -6.1641    6.4209   -8.1140 C   0  0  0  0  0  0  0  0  0  0  0  0
   -5.7633    7.5142   -7.3588 C   0  0  0  0  0  0  0  0  0  0  0  0
   -6.5225    8.6097   -7.1545 N   0  0  0  0  0  0  0  0  0  0  0  0
   -7.7208    8.6199   -7.7696 C   0  0  0  0  0  0  0  0  0  0  0  0
   -8.1959    7.5844   -8.5577 C   0  0  0  0  0  0  0  0  0  0  0  0
   -8.5861    9.6861   -7.6035 O   0  0  0  0  0  0  0  0  0  0  0  0
   -8.0042   10.7599   -6.8765 C   0  0  0  0  0  0  0  0  0  0  0  0
   -6.6099    5.0389  -17.2402 C   0  0  0  0  0  0  0  0  0  0  0  0
   -7.4878    4.3561  -18.1029 C   0  0  0  0  0  0  0  0  0  0  0  0
   -8.6563    3.7802  -17.6154 C   0  0  0  0  0  0  0  0  0  0  0  0
   -9.4577    3.1095  -18.4519 F   0  0  0  0  0  0  0  0  0  0  0  0
   -9.0207    3.9108  -16.2881 C   0  0  0  0  0  0  0  0  0  0  0  0
   -8.1752    4.5981  -15.4150 C   0  0  0  0  0  0  0  0  0  0  0  0
   -6.9276    5.1195  -15.8539 C   0  0  0  0  0  0  0  0  0  0  0  0
   -5.9978    5.7350  -14.8326 C   0  0  0  0  0  0  0  0  0  0  0  0
   -3.4247    5.9328  -18.3665 C   0  0  0  0  0  0  0  0  0  0  0  0
   -4.0521    7.0530  -18.8121 N   0  0  0  0  0  0  0  0  0  0  0  0
   -5.3027    6.8394  -18.4637 C   0  0  0  0  0  0  0  0  0  0  0  0
   -5.4353    5.6375  -17.8013 N   0  0  0  0  0  0  0  0  0  0  0  0
   -4.2078    5.0687  -17.7202 N   0  0  0  0  0  0  0  0  0  0  0  0
   -1.9739    5.6963  -18.5784 C   0  0  0  0  0  0  0  0  0  0  0  0
   -1.0923    6.8385  -18.0667 C   0  0  0  0  0  0  0  0  0  0  0  0
    0.2077    5.8701  -16.0904 C   0  0  0  0  0  0  0  0  0  0  0  0
   -0.8540    6.8559  -16.5527 C   0  0  0  0  0  0  0  0  0  0  0  0
 38 39  1  0  0  0
 39 37  1  0  0  0
 37 36  1  0  0  0
 36 31  1  0  0  0
 31 32  1  0  0  0
 32 33  2  0  0  0
 33 34  1  0  0  0
 34 23  1  0  0  0
 23 24  2  0  0  0
 24 25  1  0  0  0
 25 26  1  0  0  0
 25 27  2  0  0  0
 27 28  1  0  0  0
 28  1  1  0  0  0
  1  2  2  0  0  0
  1  3  1  0  0  0
  3  5  1  0  0  0
  5  6  2  0  0  0
  6  7  1  0  0  0
  7  8  2  0  0  0
  8  9  1  0  0  0
  9 15  1  0  0  0
 15 16  2  0  0  0
 16 17  1  0  0  0
 17 18  2  0  0  0
 18 19  1  0  0  0
 19 21  1  0  0  0
 21 22  1  0  0  0
 19 20  2  0  0  0
  9 10  2  0  0  0
  8 11  1  0  0  0
 11 12  1  0  0  0
 12 13  1  0  0  0
 28 29  2  0  0  0
 29 30  1  0  0  0
 34 35  1  0  0  0
 35 31  2  0  0  0
 29 23  1  0  0  0
 10  5  1  0  0  0
 13  7  1  0  0  0
 20 15  1  0  0  0
  3  4  1  0  0  0
 12 14  1  0  0  0
M  END
> <minimizedAffinity>
-8.60884

> <minimizedRMSD>
1.27110

$$$$
P20861


 39 44  0  0  0  0  0  0  0  0999 V2000
   -8.2173    4.1074  -13.1013 N   0  0  0  0  0  0  0  0  0  0  0  0
   -7.7395    5.1679  -14.1185 C   0  0  0  0  0  0  0  0  0  0  0  0
   -7.3724    6.2641  -13.9529 O   0  0  0  0  0  0  0  0  0  0  0  0
   -8.5513    3.2726  -13.5025 H   0  0  0  0  0  0  0  0  0  0  0  0
   -7.9057    5.3550   -9.5834 C   0  0  0  0  0  0  0  0  0  0  0  0
   -7.8580    5.2871  -10.9953 C   0  0  0  0  0  0  0  0  0  0  0  0
   -8.2526    4.1401  -11.7075 C   0  0  0  0  0  0  0  0  0  0  0  0
   -8.6975    3.0160  -11.0219 C   0  0  0  0  0  0  0  0  0  0  0  0
   -8.7625    3.0748   -9.6415 C   0  0  0  0  0  0  0  0  0  0  0  0
   -8.3977    4.2215   -8.9297 C   0  0  0  0  0  0  0  0  0  0  0  0
   -8.5886    3.9230   -7.4708 C   0  0  0  0  0  0  0  0  0  0  0  0
   -9.3987    2.6868   -7.4040 N   0  0  0  0  0  0  0  0  0  0  0  0
   -9.1521    1.9954   -8.6865 C   0  0  0  0  0  0  0  0  0  0  0  0
  -10.3884    2.9122   -7.3031 H   0  0  0  0  0  0  0  0  0  0  0  0
   -7.7495    8.7502   -7.9543 C   0  0  0  0  0  0  0  0  0  0  0  0
   -8.1964    7.7008   -8.7354 C   0  0  0  0  0  0  0  0  0  0  0  0
   -7.4162    6.5537   -8.8728 C   0  0  0  0  0  0  0  0  0  0  0  0
   -6.1518    6.5836   -8.2709 C   0  0  0  0  0  0  0  0  0  0  0  0
   -5.7653    7.7053   -7.5469 C   0  0  0  0  0  0  0  0  0  0  0  0
   -6.5480    8.7865   -7.3508 N   0  0  0  0  0  0  0  0  0  0  0  0
   -8.0778   10.8729   -7.0770 C   0  0  0  0  0  0  0  0  0  0  0  0
   -8.6374    9.8007   -7.8186 O   0  0  0  0  0  0  0  0  0  0  0  0
   -7.8125    4.6795  -15.5209 C   0  0  0  0  0  0  0  0  0  0  0  0
   -8.9958    4.1583  -16.0629 C   0  0  0  0  0  0  0  0  0  0  0  0
   -9.0853    3.8934  -17.4242 C   0  0  0  0  0  0  0  0  0  0  0  0
  -10.2418    3.4561  -17.9400 F   0  0  0  0  0  0  0  0  0  0  0  0
   -8.0214    4.1227  -18.2878 C   0  0  0  0  0  0  0  0  0  0  0  0
   -6.8450    4.6521  -17.7400 C   0  0  0  0  0  0  0  0  0  0  0  0
   -6.7150    4.9068  -16.3765 C   0  0  0  0  0  0  0  0  0  0  0  0
   -5.3998    5.3927  -16.2396 C   0  0  0  0  0  0  0  0  0  0  0  0
   -4.7567    5.4719  -17.4031 N   0  0  0  0  0  0  0  0  0  0  0  0
   -5.6766    5.1132  -18.3167 N   0  0  0  0  0  0  0  0  0  0  0  0
   -5.5815    5.4334  -19.6914 N   0  0  0  0  0  0  0  0  0  0  0  0
   -6.4998    5.3051  -20.1164 H   0  0  0  0  0  0  0  0  0  0  0  0
   -5.1394    6.8142  -19.9470 C   0  0  0  0  0  0  0  0  0  0  0  0
   -5.2219    7.1584  -21.4562 C   0  0  0  0  0  0  0  0  0  0  0  0
   -3.9373    6.4263  -21.6602 N   0  0  0  0  0  0  0  0  0  0  0  0
   -3.6156    6.7492  -20.2462 C   0  0  0  0  0  0  0  0  0  0  0  0
   -3.3110    6.8465  -22.3470 H   0  0  0  0  0  0  0  0  0  0  0  0
 21 22  1  0  0  0
 22 15  1  0  0  0
 15 16  2  0  0  0
 16 17  1  0  0  0
 17  5  1  0  0  0
  5  6  2  0  0  0
  6  7  1  0  0  0
  7  1  1  0  0  0
  1  2  1  0  0  0
  2  3  2  0  0  0
  2 23  1  0  0  0
 23 24  2  0  0  0
 24 25  1  0  0  0
 25 26  1  0  0  0
 25 27  2  0  0  0
 27 28  1  0  0  0
 28 29  2  0  0  0
 29 30  1  0  0  0
 30 31  2  0  0  0
 31 32  1  0  0  0
 32 33  1  0  0  0
 33 35  1  0  0  0
 35 36  1  0  0  0
 36 37  1  0  0  0
 37 38  1  0  0  0
  7  8  2  0  0  0
  8  9  1  0  0  0
  9 10  2  0  0  0
 10 11  1  0  0  0
 11 12  1  0  0  0
 12 13  1  0  0  0
 17 18  2  0  0  0
 18 19  1  0  0  0
 19 20  2  0  0  0
 20 15  1  0  0  0
 10  5  1  0  0  0
 29 23  1  0  0  0
 38 35  1  0  0  0
 13  9  1  0  0  0
 32 28  1  0  0  0
  1  4  1  0  0  0
 33 34  1  0  0  0
 37 39  1  0  0  0
 12 14  1  0  0  0
M  END
> <minimizedAffinity>
-9.23049

> <minimizedRMSD>
1.05511

$$$$
P20888


 42 46  0  0  0  0  0  0  0  0999 V2000
   -8.8552    5.5043  -13.8031 C   0  0  0  0  0  0  0  0  0  0  0  0
   -9.7831    6.1732  -14.0229 O   0  0  0  0  0  0  0  0  0  0  0  0
   -7.9305    4.7386  -14.7602 N   0  0  0  0  0  0  0  0  0  0  0  0
   -7.1608    4.3022  -14.3286 H   0  0  0  0  0  0  0  0  0  0  0  0
   -8.2897    4.5962   -8.2039 C   0  0  0  0  0  0  0  0  0  0  0  0
   -8.3388    5.8472   -7.6258 C   0  0  0  0  0  0  0  0  0  0  0  0
   -8.3972    7.0998   -8.7798 S   0  0  0  0  0  0  0  0  0  0  0  0
   -8.3797    5.9924  -10.0984 C   0  0  0  0  0  0  0  0  0  0  0  0
   -8.4931    6.2976  -11.4696 C   0  0  0  0  0  0  0  0  0  0  0  0
   -8.4923    5.2408  -12.3882 C   0  0  0  0  0  0  0  0  0  0  0  0
   -8.3351    3.9236  -11.9733 C   0  0  0  0  0  0  0  0  0  0  0  0
   -8.2161    3.6376  -10.6149 C   0  0  0  0  0  0  0  0  0  0  0  0
   -8.2655    4.6746   -9.6484 C   0  0  0  0  0  0  0  0  0  0  0  0
   -8.3136    3.2891   -7.4474 C   0  0  0  0  0  0  0  0  0  0  0  0
   -9.7281    1.2339   -7.2906 N   0  0  0  0  0  0  0  0  0  0  0  0
   -9.7150    2.6454   -7.4994 C   0  0  0  0  0  0  0  0  0  0  0  0
  -10.5535    3.0912   -6.4092 N   0  0  0  0  0  0  0  0  0  0  0  0
  -10.6877    0.8917   -7.3409 H   0  0  0  0  0  0  0  0  0  0  0  0
   -9.3394    1.0226   -6.3716 H   0  0  0  0  0  0  0  0  0  0  0  0
  -10.1536    2.7807   -5.5237 H   0  0  0  0  0  0  0  0  0  0  0  0
  -11.4885    2.6979   -6.5165 H   0  0  0  0  0  0  0  0  0  0  0  0
   -8.0025    4.5627  -16.1245 C   0  0  0  0  0  0  0  0  0  0  0  0
   -6.8227    4.6491  -16.8437 C   0  0  0  0  0  0  0  0  0  0  0  0
   -6.8691    4.7016  -18.2477 C   0  0  0  0  0  0  0  0  0  0  0  0
   -8.1084    4.4440  -18.8417 C   0  0  0  0  0  0  0  0  0  0  0  0
   -9.2312    4.3029  -18.0418 C   0  0  0  0  0  0  0  0  0  0  0  0
   -9.2004    4.4110  -16.7023 N   0  0  0  0  0  0  0  0  0  0  0  0
   -5.6717    5.2653  -19.0404 C   0  0  0  0  0  0  0  0  0  0  0  0
   -5.6504    6.7849  -18.7669 C   0  0  0  0  0  0  0  0  0  0  0  0
   -4.6494    6.9686  -17.6501 C   0  0  0  0  0  0  0  0  0  0  0  0
   -3.7475    5.8663  -17.6867 O   0  0  0  0  0  0  0  0  0  0  0  0
   -4.3071    4.8178  -18.4944 C   0  0  0  0  0  0  0  0  0  0  0  0
   -5.6244    4.9429  -20.5459 C   0  0  0  0  0  0  0  0  0  0  0  0
   -6.0887    3.9480  -21.0910 O   0  0  0  0  0  0  0  0  0  0  0  0
   -4.8924    5.8904  -21.2056 O   0  0  0  0  0  0  0  0  0  0  0  0
   -4.8666    5.8385  -22.6325 C   0  0  0  0  0  0  0  0  0  0  0  0
   -5.4783    7.0931  -23.2125 C   0  0  0  0  0  0  0  0  0  0  0  0
   -5.9924    7.0787  -24.5185 C   0  0  0  0  0  0  0  0  0  0  0  0
   -6.5449    8.2315  -25.0785 C   0  0  0  0  0  0  0  0  0  0  0  0
   -6.5791    9.4157  -24.3459 C   0  0  0  0  0  0  0  0  0  0  0  0
   -6.0539    9.4500  -23.0559 C   0  0  0  0  0  0  0  0  0  0  0  0
   -5.5002    8.2976  -22.4947 C   0  0  0  0  0  0  0  0  0  0  0  0
 15 16  1  0  0  0
 16 17  1  0  0  0
 16 14  1  0  0  0
 14  5  1  0  0  0
  5  6  2  0  0  0
  6  7  1  0  0  0
  7  8  1  0  0  0
  8  9  2  0  0  0
  9 10  1  0  0  0
 10  1  1  0  0  0
  1  2  2  0  0  0
  1  3  1  0  0  0
  3 22  1  0  0  0
 22 23  2  0  0  0
 23 24  1  0  0  0
 24 28  1  0  0  0
 28 33  1  0  0  0
 33 34  2  0  0  0
 33 35  1  0  0  0
 35 36  1  0  0  0
 36 37  1  0  0  0
 37 38  2  0  0  0
 38 39  1  0  0  0
 39 40  2  0  0  0
 40 41  1  0  0  0
 41 42  2  0  0  0
 28 29  1  0  0  0
 29 30  1  0  0  0
 30 31  1  0  0  0
 31 32  1  0  0  0
 24 25  2  0  0  0
 25 26  1  0  0  0
 26 27  2  0  0  0
 10 11  2  0  0  0
 11 12  1  0  0  0
 12 13  2  0  0  0
 13  5  1  0  0  0
 13  8  1  0  0  0
 27 22  1  0  0  0
 32 28  1  0  0  0
 42 37  1  0  0  0
 15 18  1  0  0  0
 15 19  1  0  0  0
 17 20  1  0  0  0
 17 21  1  0  0  0
  3  4  1  0  0  0
M  END
> <minimizedAffinity>
-8.91294

> <minimizedRMSD>
0.40634

$$$$
P20908


 30 33  0  0  0  0  0  0  0  0999 V2000
   -8.2671    5.6400  -13.7240 C   0  0  0  0  0  0  0  0  0  0  0  0
   -7.4978    6.5021  -13.9075 O   0  0  0  0  0  0  0  0  0  0  0  0
   -9.0479    4.7599  -14.7321 N   0  0  0  0  0  0  0  0  0  0  0  0
   -9.7011    4.1466  -14.3242 H   0  0  0  0  0  0  0  0  0  0  0  0
   -8.3874    4.5442   -8.1129 C   0  0  0  0  0  0  0  0  0  0  0  0
   -8.3576    5.7977   -7.5320 C   0  0  0  0  0  0  0  0  0  0  0  0
   -8.3106    7.0571   -8.6724 S   0  0  0  0  0  0  0  0  0  0  0  0
   -8.3983    5.9567   -9.9897 C   0  0  0  0  0  0  0  0  0  0  0  0
   -8.4215    6.2856  -11.3543 C   0  0  0  0  0  0  0  0  0  0  0  0
   -8.4593    5.2547  -12.3064 C   0  0  0  0  0  0  0  0  0  0  0  0
   -8.4549    3.9248  -11.9123 C   0  0  0  0  0  0  0  0  0  0  0  0
   -8.4190    3.6140  -10.5506 C   0  0  0  0  0  0  0  0  0  0  0  0
   -8.4120    4.6290   -9.5572 C   0  0  0  0  0  0  0  0  0  0  0  0
   -8.3510    3.2647   -7.3188 C   0  0  0  0  0  0  0  0  0  0  0  0
   -9.5967    1.2209   -8.0206 N   0  0  0  0  0  0  0  0  0  0  0  0
   -9.6704    2.4894   -7.3054 C   0  0  0  0  0  0  0  0  0  0  0  0
  -10.5018    0.7527   -7.9767 H   0  0  0  0  0  0  0  0  0  0  0  0
   -8.8863    0.6288   -7.5903 H   0  0  0  0  0  0  0  0  0  0  0  0
   -8.9767    4.6959  -16.1072 C   0  0  0  0  0  0  0  0  0  0  0  0
   -7.8019    5.1408  -16.6732 C   0  0  0  0  0  0  0  0  0  0  0  0
   -7.5307    4.9353  -18.0250 C   0  0  0  0  0  0  0  0  0  0  0  0
   -8.5553    4.4406  -18.8118 C   0  0  0  0  0  0  0  0  0  0  0  0
   -9.7437    4.0928  -18.1789 C   0  0  0  0  0  0  0  0  0  0  0  0
   -9.9493    4.1382  -16.8371 N   0  0  0  0  0  0  0  0  0  0  0  0
   -6.1302    5.2530  -18.4471 C   0  0  0  0  0  0  0  0  0  0  0  0
   -5.5710    4.7544  -19.7730 C   0  0  0  0  0  0  0  0  0  0  0  0
   -4.0626    4.9951  -19.6274 C   0  0  0  0  0  0  0  0  0  0  0  0
   -3.8543    4.8352  -18.1419 C   0  0  0  0  0  0  0  0  0  0  0  0
   -2.7770    4.8563  -17.5622 O   0  0  0  0  0  0  0  0  0  0  0  0
   -5.1427    4.6687  -17.4210 C   0  0  0  0  0  0  0  0  0  0  0  0
 15 16  1  0  0  0
 16 14  1  0  0  0
 14  5  1  0  0  0
  5  6  2  0  0  0
  6  7  1  0  0  0
  7  8  1  0  0  0
  8  9  2  0  0  0
  9 10  1  0  0  0
 10  1  1  0  0  0
  1  2  2  0  0  0
  1  3  1  0  0  0
  3 19  1  0  0  0
 19 20  2  0  0  0
 20 21  1  0  0  0
 25 21  1  0  0  0
 25 26  1  0  0  0
 26 27  1  0  0  0
 27 28  1  0  0  0
 28 29  2  0  0  0
 28 30  1  0  0  0
 21 22  2  0  0  0
 22 23  1  0  0  0
 23 24  2  0  0  0
 10 11  2  0  0  0
 11 12  1  0  0  0
 12 13  2  0  0  0
 13  5  1  0  0  0
 13  8  1  0  0  0
 24 19  1  0  0  0
 30 25  1  0  0  0
 15 17  1  0  0  0
 15 18  1  0  0  0
  3  4  1  0  0  0
M  END
> <minimizedAffinity>
-8.66593

> <minimizedRMSD>
0.64742

$$$$
P20930


 37 40  0  0  0  0  0  0  0  0999 V2000
   -9.0307    4.8978  -16.0936 C   0  0  0  0  0  0  0  0  0  0  0  0
   -7.9216    5.4588  -16.6960 C   0  0  0  0  0  0  0  0  0  0  0  0
   -7.5531    5.0734  -17.9869 C   0  0  0  0  0  0  0  0  0  0  0  0
   -8.5112    4.3956  -18.7321 C   0  0  0  0  0  0  0  0  0  0  0  0
   -9.6877    4.0112  -18.0959 C   0  0  0  0  0  0  0  0  0  0  0  0
   -9.9203    4.1615  -16.7705 N   0  0  0  0  0  0  0  0  0  0  0  0
   -6.0915    5.2519  -18.3574 C   0  0  0  0  0  0  0  0  0  0  0  0
   -5.2830    4.6096  -17.2485 N   0  0  0  0  0  0  0  0  0  0  0  0
   -5.5649    4.5937  -19.6398 C   0  0  0  0  0  0  0  0  0  0  0  0
   -4.3132    5.2332  -19.9830 O   0  0  0  0  0  0  0  0  0  0  0  0
   -4.2254    6.4510  -19.2189 C   0  0  0  0  0  0  0  0  0  0  0  0
   -5.5958    6.7055  -18.5697 C   0  0  0  0  0  0  0  0  0  0  0  0
   -5.6045    3.6524  -17.1039 H   0  0  0  0  0  0  0  0  0  0  0  0
   -5.4037    5.1426  -16.3872 H   0  0  0  0  0  0  0  0  0  0  0  0
   -6.4159    7.6851  -19.3515 N   0  0  0  0  0  0  0  0  0  0  0  0
   -5.8474    7.9075  -20.6536 N   0  0  0  0  0  0  0  0  0  0  0  0
   -6.4496    8.5705  -18.8462 H   0  0  0  0  0  0  0  0  0  0  0  0
   -5.8111    7.0251  -21.1640 H   0  0  0  0  0  0  0  0  0  0  0  0
   -4.9037    8.2813  -20.5533 H   0  0  0  0  0  0  0  0  0  0  0  0
   -8.0433    5.5218  -13.7042 C   0  0  0  0  0  0  0  0  0  0  0  0
   -7.0502    6.1127  -13.8833 O   0  0  0  0  0  0  0  0  0  0  0  0
   -9.0646    4.9467  -14.7151 N   0  0  0  0  0  0  0  0  0  0  0  0
   -9.8694    4.5517  -14.3083 H   0  0  0  0  0  0  0  0  0  0  0  0
   -8.4548    4.5258   -8.0893 C   0  0  0  0  0  0  0  0  0  0  0  0
   -8.4514    5.7895   -7.5299 C   0  0  0  0  0  0  0  0  0  0  0  0
   -8.3611    7.0292   -8.6884 S   0  0  0  0  0  0  0  0  0  0  0  0
   -8.3901    5.9071   -9.9899 C   0  0  0  0  0  0  0  0  0  0  0  0
   -8.3429    6.2174  -11.3594 C   0  0  0  0  0  0  0  0  0  0  0  0
   -8.3399    5.1729  -12.2941 C   0  0  0  0  0  0  0  0  0  0  0  0
   -8.3751    3.8479  -11.8792 C   0  0  0  0  0  0  0  0  0  0  0  0
   -8.4087    3.5552  -10.5127 C   0  0  0  0  0  0  0  0  0  0  0  0
   -8.4314    4.5862   -9.5360 C   0  0  0  0  0  0  0  0  0  0  0  0
   -8.4313    3.2630   -7.2671 C   0  0  0  0  0  0  0  0  0  0  0  0
   -9.6122    1.1989   -8.0142 N   0  0  0  0  0  0  0  0  0  0  0  0
   -9.7337    2.4606   -7.2940 C   0  0  0  0  0  0  0  0  0  0  0  0
  -10.5076    0.7107   -7.9983 H   0  0  0  0  0  0  0  0  0  0  0  0
   -8.9012    0.6197   -7.5676 H   0  0  0  0  0  0  0  0  0  0  0  0
 34 35  1  0  0  0
 35 33  1  0  0  0
 33 24  1  0  0  0
 24 25  2  0  0  0
 25 26  1  0  0  0
 26 27  1  0  0  0
 27 28  2  0  0  0
 28 29  1  0  0  0
 29 20  1  0  0  0
 20 21  2  0  0  0
 20 22  1  0  0  0
 22  1  1  0  0  0
  1  2  2  0  0  0
  2  3  1  0  0  0
  3  7  1  0  0  0
  7  8  1  0  0  0
  7  9  1  0  0  0
  9 10  1  0  0  0
 10 11  1  0  0  0
 11 12  1  0  0  0
 12 15  1  0  0  0
 15 16  1  0  0  0
  3  4  2  0  0  0
  4  5  1  0  0  0
  5  6  2  0  0  0
 29 30  2  0  0  0
 30 31  1  0  0  0
 31 32  2  0  0  0
 32 24  1  0  0  0
 32 27  1  0  0  0
  6  1  1  0  0  0
 12  7  1  0  0  0
 34 36  1  0  0  0
 34 37  1  0  0  0
 22 23  1  0  0  0
  8 13  1  0  0  0
  8 14  1  0  0  0
 15 17  1  0  0  0
 16 18  1  0  0  0
 16 19  1  0  0  0
M  END
> <minimizedAffinity>
-8.28663

> <minimizedRMSD>
0.61435

$$$$
P20948


 29 31  0  0  0  0  0  0  0  0999 V2000
   -8.7272    5.1569  -13.2926 C   0  0  0  0  0  0  0  0  0  0  0  0
   -9.2494    6.2009  -13.3813 O   0  0  0  0  0  0  0  0  0  0  0  0
   -8.2286    4.1800  -14.4007 N   0  0  0  0  0  0  0  0  0  0  0  0
   -7.8873    3.3186  -14.0679 H   0  0  0  0  0  0  0  0  0  0  0  0
   -8.1880    4.3262  -15.7692 C   0  0  0  0  0  0  0  0  0  0  0  0
   -7.0017    4.5289  -16.4525 C   0  0  0  0  0  0  0  0  0  0  0  0
   -7.0350    4.6796  -17.8420 C   0  0  0  0  0  0  0  0  0  0  0  0
   -8.2862    4.6622  -18.4702 C   0  0  0  0  0  0  0  0  0  0  0  0
   -9.4187    4.4653  -17.7063 C   0  0  0  0  0  0  0  0  0  0  0  0
   -9.3852    4.2623  -16.3781 N   0  0  0  0  0  0  0  0  0  0  0  0
   -5.7981    4.8933  -18.6895 C   0  0  0  0  0  0  0  0  0  0  0  0
   -4.4629    4.7109  -17.9901 C   0  0  0  0  0  0  0  0  0  0  0  0
   -4.0617    6.1058  -17.5585 C   0  0  0  0  0  0  0  0  0  0  0  0
   -4.7983    7.0434  -18.3500 O   0  0  0  0  0  0  0  0  0  0  0  0
   -5.6956    6.3215  -19.2085 C   0  0  0  0  0  0  0  0  0  0  0  0
   -8.3737    4.5079  -11.9313 C   0  0  0  0  0  0  0  0  0  0  0  0
   -7.7412    3.1223  -12.1439 C   0  0  0  0  0  0  0  0  0  0  0  0
   -6.3433    2.9734  -11.5799 C   0  0  0  0  0  0  0  0  0  0  0  0
   -7.4901    5.4703  -11.1051 C   0  0  0  0  0  0  0  0  0  0  0  0
   -8.4709    5.1735   -7.4312 C   0  0  0  0  0  0  0  0  0  0  0  0
   -8.7347    6.5257   -7.5168 C   0  0  0  0  0  0  0  0  0  0  0  0
   -8.4132    7.1732   -9.0713 S   0  0  0  0  0  0  0  0  0  0  0  0
   -7.9099    5.6569   -9.6690 C   0  0  0  0  0  0  0  0  0  0  0  0
   -7.8854    4.7197   -8.6544 C   0  0  0  0  0  0  0  0  0  0  0  0
   -8.6936    4.3066   -6.2234 C   0  0  0  0  0  0  0  0  0  0  0  0
   -9.9897    3.6334   -6.2903 N   0  0  0  0  0  0  0  0  0  0  0  0
  -10.5106    3.8469   -5.4397 H   0  0  0  0  0  0  0  0  0  0  0  0
   -9.5067    1.7470   -7.8115 C   0  0  0  0  0  0  0  0  0  0  0  0
   -9.8761    2.1812   -6.4141 C   0  0  0  0  0  0  0  0  0  0  0  0
 28 29  1  0  0  0
 29 26  1  0  0  0
 26 25  1  0  0  0
 25 20  1  0  0  0
 20 21  2  0  0  0
 21 22  1  0  0  0
 22 23  1  0  0  0
 23 19  1  0  0  0
 16 19  1  0  0  0
 16 17  1  0  0  0
 17 18  1  0  0  0
 16  1  1  0  0  0
  1  2  2  0  0  0
  1  3  1  0  0  0
  3  5  1  0  0  0
  5  6  2  0  0  0
  6  7  1  0  0  0
 11  7  1  0  0  0
 11 12  1  0  0  0
 12 13  1  0  0  0
 13 14  1  0  0  0
 14 15  1  0  0  0
  7  8  2  0  0  0
  8  9  1  0  0  0
  9 10  2  0  0  0
 23 24  2  0  0  0
 24 20  1  0  0  0
 10  5  1  0  0  0
 15 11  1  0  0  0
 26 27  1  0  0  0
  3  4  1  0  0  0
M  END
> <minimizedAffinity>
-6.74670

> <minimizedRMSD>
0.89420

$$$$
P20950


 36 39  0  0  0  0  0  0  0  0999 V2000
   -8.6158    4.4437  -15.0266 N   0  0  0  0  0  0  0  0  0  0  0  0
   -8.2919    5.5262  -13.9710 C   0  0  0  0  0  0  0  0  0  0  0  0
   -7.9258    6.6279  -14.1037 O   0  0  0  0  0  0  0  0  0  0  0  0
   -8.9839    3.6075  -14.6598 H   0  0  0  0  0  0  0  0  0  0  0  0
   -8.4591    5.0091  -12.5799 C   0  0  0  0  0  0  0  0  0  0  0  0
   -8.6299    3.6568  -12.3406 C   0  0  0  0  0  0  0  0  0  0  0  0
   -8.6780    3.1868  -11.0294 C   0  0  0  0  0  0  0  0  0  0  0  0
   -8.4504    4.0297   -9.9132 C   0  0  0  0  0  0  0  0  0  0  0  0
   -8.2589    3.7360   -8.4974 C   0  0  0  0  0  0  0  0  0  0  0  0
   -8.1252    4.9089   -7.7756 C   0  0  0  0  0  0  0  0  0  0  0  0
   -8.1780    6.3070   -8.7374 S   0  0  0  0  0  0  0  0  0  0  0  0
   -8.3340    5.3956  -10.1840 C   0  0  0  0  0  0  0  0  0  0  0  0
   -8.3440    5.8999  -11.5036 C   0  0  0  0  0  0  0  0  0  0  0  0
   -8.1897    2.3962   -7.8070 C   0  0  0  0  0  0  0  0  0  0  0  0
   -7.3480    1.4436   -8.5026 N   0  0  0  0  0  0  0  0  0  0  0  0
   -7.8649    1.0734   -9.3003 H   0  0  0  0  0  0  0  0  0  0  0  0
   -6.0989    2.0389   -8.9887 C   0  0  0  0  0  0  0  0  0  0  0  0
   -5.1519    1.2609   -9.9523 C   0  0  0  0  0  0  0  0  0  0  0  0
   -5.5551   -0.0930  -10.3310 N   0  0  0  0  0  0  0  0  0  0  0  0
   -5.5659   -0.6886   -9.5030 H   0  0  0  0  0  0  0  0  0  0  0  0
   -4.8930   -0.4674  -11.0106 H   0  0  0  0  0  0  0  0  0  0  0  0
   -7.1261    4.7781  -18.3772 C   0  0  0  0  0  0  0  0  0  0  0  0
   -8.2811    4.4758  -19.1071 C   0  0  0  0  0  0  0  0  0  0  0  0
   -9.4526    4.1637  -18.4365 C   0  0  0  0  0  0  0  0  0  0  0  0
   -9.5539    4.0972  -17.0992 N   0  0  0  0  0  0  0  0  0  0  0  0
   -8.4736    4.4587  -16.3935 C   0  0  0  0  0  0  0  0  0  0  0  0
   -7.2705    4.8154  -16.9808 C   0  0  0  0  0  0  0  0  0  0  0  0
   -5.7792    5.1429  -19.0359 C   0  0  0  0  0  0  0  0  0  0  0  0
   -4.5592    4.6689  -18.2254 C   0  0  0  0  0  0  0  0  0  0  0  0
   -3.5581    5.7933  -18.3647 C   0  0  0  0  0  0  0  0  0  0  0  0
   -4.2837    7.0005  -18.6022 O   0  0  0  0  0  0  0  0  0  0  0  0
   -5.6258    6.6682  -18.9854 C   0  0  0  0  0  0  0  0  0  0  0  0
   -5.6519    4.5671  -20.4874 C   0  0  0  0  0  0  0  0  0  0  0  0
   -5.0124    5.8542  -22.4690 C   0  0  0  0  0  0  0  0  0  0  0  0
   -4.5638    5.0015  -21.3756 N   0  0  0  0  0  0  0  0  0  0  0  0
   -3.8815    5.5190  -20.8214 H   0  0  0  0  0  0  0  0  0  0  0  0
 34 35  1  0  0  0
 35 33  1  0  0  0
 28 33  1  0  0  0
 28 22  1  0  0  0
 22 23  2  0  0  0
 23 24  1  0  0  0
 24 25  2  0  0  0
 25 26  1  0  0  0
 26  1  1  0  0  0
  1  2  1  0  0  0
  2  3  2  0  0  0
  2  5  1  0  0  0
  5  6  2  0  0  0
  6  7  1  0  0  0
  7  8  2  0  0  0
  8  9  1  0  0  0
  9 14  1  0  0  0
 14 15  1  0  0  0
 15 17  1  0  0  0
 17 18  1  0  0  0
 18 19  1  0  0  0
  9 10  2  0  0  0
 10 11  1  0  0  0
 11 12  1  0  0  0
 12 13  2  0  0  0
 26 27  2  0  0  0
 28 29  1  0  0  0
 29 30  1  0  0  0
 30 31  1  0  0  0
 31 32  1  0  0  0
 32 28  1  0  0  0
 27 22  1  0  0  0
 13  5  1  0  0  0
 12  8  1  0  0  0
 35 36  1  0  0  0
  1  4  1  0  0  0
 15 16  1  0  0  0
 19 20  1  0  0  0
 19 21  1  0  0  0
M  END
> <minimizedAffinity>
-7.87986

> <minimizedRMSD>
1.15160

$$$$
P20975


 30 33  0  0  0  0  0  0  0  0999 V2000
   -7.1641    4.6629  -14.3636 C   0  0  0  0  0  0  0  0  0  0  0  0
   -6.0265    4.8392  -14.1528 O   0  0  0  0  0  0  0  0  0  0  0  0
   -8.3842    4.6673  -13.3916 N   0  0  0  0  0  0  0  0  0  0  0  0
   -9.2604    4.5668  -13.8292 H   0  0  0  0  0  0  0  0  0  0  0  0
   -8.4363    4.7928  -11.9779 C   0  0  0  0  0  0  0  0  0  0  0  0
   -8.6594    3.5949  -11.2862 C   0  0  0  0  0  0  0  0  0  0  0  0
   -8.6842    3.5860   -9.8948 C   0  0  0  0  0  0  0  0  0  0  0  0
   -8.5098    4.7408   -9.1520 C   0  0  0  0  0  0  0  0  0  0  0  0
   -8.3193    5.9548   -9.7789 C   0  0  0  0  0  0  0  0  0  0  0  0
   -8.2057    7.2103   -8.9536 C   0  0  0  0  0  0  0  0  0  0  0  0
   -8.3168    5.9764  -11.2081 C   0  0  0  0  0  0  0  0  0  0  0  0
   -8.5621    4.4134   -7.6949 C   0  0  0  0  0  0  0  0  0  0  0  0
   -9.0478    3.0279   -7.6178 N   0  0  0  0  0  0  0  0  0  0  0  0
   -8.8094    2.4353   -8.9534 C   0  0  0  0  0  0  0  0  0  0  0  0
  -10.0434    3.0134   -7.3966 H   0  0  0  0  0  0  0  0  0  0  0  0
   -8.3784    7.2810  -11.7804 C   0  0  0  0  0  0  0  0  0  0  0  0
   -8.4632    8.2270  -12.4471 N   0  0  0  0  0  0  0  0  0  0  0  0
   -5.1125    4.7846  -18.3753 N   0  0  0  0  0  0  0  0  0  0  0  0
   -5.4021    4.7436  -17.0305 C   0  0  0  0  0  0  0  0  0  0  0  0
   -6.7640    4.5837  -16.9376 C   0  0  0  0  0  0  0  0  0  0  0  0
   -7.5835    4.4735  -15.7936 C   0  0  0  0  0  0  0  0  0  0  0  0
   -8.9380    4.3060  -16.1747 C   0  0  0  0  0  0  0  0  0  0  0  0
   -9.3922    4.2460  -17.5280 C   0  0  0  0  0  0  0  0  0  0  0  0
  -10.7009    4.0716  -17.7557 F   0  0  0  0  0  0  0  0  0  0  0  0
   -8.5697    4.3745  -18.6472 C   0  0  0  0  0  0  0  0  0  0  0  0
   -7.2254    4.5420  -18.3140 C   0  0  0  0  0  0  0  0  0  0  0  0
   -6.1969    4.7063  -19.1488 N   0  0  0  0  0  0  0  0  0  0  0  0
   -3.8252    5.1177  -20.3581 C   0  0  0  0  0  0  0  0  0  0  0  0
   -3.8035    4.9817  -18.9010 N   0  0  0  0  0  0  0  0  0  0  0  0
   -3.4074    5.8294  -18.4949 H   0  0  0  0  0  0  0  0  0  0  0  0
 28 29  1  0  0  0
 29 18  1  0  0  0
 18 19  1  0  0  0
 19 20  2  0  0  0
 20 21  1  0  0  0
 21  1  1  0  0  0
  1  2  2  0  0  0
  1  3  1  0  0  0
  3  5  1  0  0  0
  5  6  2  0  0  0
  6  7  1  0  0  0
  7  8  2  0  0  0
  8  9  1  0  0  0
  9 10  1  0  0  0
  9 11  2  0  0  0
 11 16  1  0  0  0
 16 17  3  0  0  0
  8 12  1  0  0  0
 12 13  1  0  0  0
 13 14  1  0  0  0
 21 22  2  0  0  0
 22 23  1  0  0  0
 23 24  1  0  0  0
 23 25  2  0  0  0
 25 26  1  0  0  0
 26 27  2  0  0  0
 27 18  1  0  0  0
 26 20  1  0  0  0
 11  5  1  0  0  0
 14  7  1  0  0  0
 29 30  1  0  0  0
  3  4  1  0  0  0
 13 15  1  0  0  0
M  END
> <minimizedAffinity>
-7.87086

> <minimizedRMSD>
1.32111

$$$$
P20977


 29 32  0  0  0  0  0  0  0  0999 V2000
   -8.3368    4.5862  -13.2604 N   0  0  0  0  0  0  0  0  0  0  0  0
   -7.1119    4.5934  -14.2335 C   0  0  0  0  0  0  0  0  0  0  0  0
   -5.9711    4.7432  -14.0153 O   0  0  0  0  0  0  0  0  0  0  0  0
   -9.2139    4.5152  -13.7019 H   0  0  0  0  0  0  0  0  0  0  0  0
   -7.5309    4.4657  -15.6752 C   0  0  0  0  0  0  0  0  0  0  0  0
   -8.8921    4.3575  -16.0532 C   0  0  0  0  0  0  0  0  0  0  0  0
   -9.3572    4.3442  -17.4037 C   0  0  0  0  0  0  0  0  0  0  0  0
  -10.6746    4.2532  -17.6242 F   0  0  0  0  0  0  0  0  0  0  0  0
   -8.5396    4.4406  -18.5285 C   0  0  0  0  0  0  0  0  0  0  0  0
   -7.1891    4.5604  -18.2054 C   0  0  0  0  0  0  0  0  0  0  0  0
   -6.1622    4.6837  -19.0536 N   0  0  0  0  0  0  0  0  0  0  0  0
   -5.0968    4.8131  -18.2835 N   0  0  0  0  0  0  0  0  0  0  0  0
   -3.8458    4.9839  -18.8765 N   0  0  0  0  0  0  0  0  0  0  0  0
   -5.3560    4.7576  -16.9403 C   0  0  0  0  0  0  0  0  0  0  0  0
   -6.7154    4.5822  -16.8262 C   0  0  0  0  0  0  0  0  0  0  0  0
   -3.9482    4.9875  -19.8913 H   0  0  0  0  0  0  0  0  0  0  0  0
   -3.2309    4.2187  -18.5995 H   0  0  0  0  0  0  0  0  0  0  0  0
   -8.1430    5.7959  -11.0304 C   0  0  0  0  0  0  0  0  0  0  0  0
   -8.1664    5.7221   -9.6173 C   0  0  0  0  0  0  0  0  0  0  0  0
   -8.5036    4.5401   -9.0123 C   0  0  0  0  0  0  0  0  0  0  0  0
   -8.8106    3.4356   -9.7828 C   0  0  0  0  0  0  0  0  0  0  0  0
   -8.7605    3.4804  -11.1785 C   0  0  0  0  0  0  0  0  0  0  0  0
   -8.3890    4.6657  -11.8405 C   0  0  0  0  0  0  0  0  0  0  0  0
   -9.1101    2.3009   -8.8580 C   0  0  0  0  0  0  0  0  0  0  0  0
   -9.2748    2.9042   -7.5124 N   0  0  0  0  0  0  0  0  0  0  0  0
   -8.6121    4.2159   -7.5634 C   0  0  0  0  0  0  0  0  0  0  0  0
   -8.8364    2.3144   -6.8050 H   0  0  0  0  0  0  0  0  0  0  0  0
   -8.0545    8.2897  -11.6285 N   0  0  0  0  0  0  0  0  0  0  0  0
   -8.0439    7.1375  -11.4916 C   0  0  0  0  0  0  0  0  0  0  0  0
 28 29  3  0  0  0
 29 18  1  0  0  0
 18 19  2  0  0  0
 19 20  1  0  0  0
 20 21  2  0  0  0
 21 22  1  0  0  0
 22 23  2  0  0  0
 23  1  1  0  0  0
  1  2  1  0  0  0
  2  3  2  0  0  0
  2  5  1  0  0  0
  5  6  2  0  0  0
  6  7  1  0  0  0
  7  8  1  0  0  0
  7  9  2  0  0  0
  9 10  1  0  0  0
 10 11  2  0  0  0
 11 12  1  0  0  0
 12 13  1  0  0  0
 12 14  1  0  0  0
 14 15  2  0  0  0
 21 24  1  0  0  0
 24 25  1  0  0  0
 25 26  1  0  0  0
 23 18  1  0  0  0
 15  5  1  0  0  0
 26 20  1  0  0  0
 15 10  1  0  0  0
  1  4  1  0  0  0
 13 16  1  0  0  0
 13 17  1  0  0  0
 25 27  1  0  0  0
M  END
> <minimizedAffinity>
-7.84326

> <minimizedRMSD>
0.98062

$$$$
P20978


 30 33  0  0  0  0  0  0  0  0999 V2000
   -8.2388    6.3600  -11.2402 C   0  0  0  0  0  0  0  0  0  0  0  0
   -8.2961    6.2925   -9.8306 C   0  0  0  0  0  0  0  0  0  0  0  0
   -8.4524    5.0695   -9.2091 C   0  0  0  0  0  0  0  0  0  0  0  0
   -8.5186    3.8993   -9.9483 C   0  0  0  0  0  0  0  0  0  0  0  0
   -8.3782    3.9281  -11.3278 C   0  0  0  0  0  0  0  0  0  0  0  0
   -8.5371    2.7575  -12.1040 N   0  0  0  0  0  0  0  0  0  0  0  0
   -8.2780    5.1768  -12.0013 C   0  0  0  0  0  0  0  0  0  0  0  0
   -8.7100    2.7544   -9.0043 C   0  0  0  0  0  0  0  0  0  0  0  0
   -9.1201    3.3759   -7.7181 N   0  0  0  0  0  0  0  0  0  0  0  0
   -8.5851    4.7504   -7.7582 C   0  0  0  0  0  0  0  0  0  0  0  0
   -8.6090    1.8803  -11.6628 H   0  0  0  0  0  0  0  0  0  0  0  0
   -8.5759    2.8193  -13.0858 H   0  0  0  0  0  0  0  0  0  0  0  0
   -8.7241    2.8617   -6.9312 H   0  0  0  0  0  0  0  0  0  0  0  0
   -8.2358    5.0087  -13.4015 N   0  0  0  0  0  0  0  0  0  0  0  0
   -7.0570    4.6631  -14.3347 C   0  0  0  0  0  0  0  0  0  0  0  0
   -5.9213    4.5387  -14.1032 O   0  0  0  0  0  0  0  0  0  0  0  0
   -9.0996    5.1321  -13.8574 H   0  0  0  0  0  0  0  0  0  0  0  0
   -7.5269    4.5088  -15.7439 C   0  0  0  0  0  0  0  0  0  0  0  0
   -8.8835    4.2977  -16.0362 C   0  0  0  0  0  0  0  0  0  0  0  0
   -9.3282    4.2537  -17.3558 C   0  0  0  0  0  0  0  0  0  0  0  0
  -10.6319    4.0791  -17.6099 F   0  0  0  0  0  0  0  0  0  0  0  0
   -8.4603    4.4046  -18.4325 C   0  0  0  0  0  0  0  0  0  0  0  0
   -7.1101    4.5757  -18.1236 C   0  0  0  0  0  0  0  0  0  0  0  0
   -6.0140    4.7171  -18.9297 N   0  0  0  0  0  0  0  0  0  0  0  0
   -4.8587    4.8739  -18.2606 N   0  0  0  0  0  0  0  0  0  0  0  0
   -5.2344    4.8338  -16.9775 C   0  0  0  0  0  0  0  0  0  0  0  0
   -6.6249    4.6388  -16.8180 C   0  0  0  0  0  0  0  0  0  0  0  0
   -6.0666    4.7051  -19.9127 H   0  0  0  0  0  0  0  0  0  0  0  0
   -8.3265    8.8040  -12.0872 N   0  0  0  0  0  0  0  0  0  0  0  0
   -8.2615    7.6897  -11.7641 C   0  0  0  0  0  0  0  0  0  0  0  0
 29 30  3  0  0  0
 30  1  1  0  0  0
  1  2  2  0  0  0
  2  3  1  0  0  0
  3  4  2  0  0  0
  4  5  1  0  0  0
  5  6  1  0  0  0
  5  7  2  0  0  0
  7 14  1  0  0  0
 14 15  1  0  0  0
 15 16  2  0  0  0
 15 18  1  0  0  0
 18 19  2  0  0  0
 19 20  1  0  0  0
 20 21  1  0  0  0
 20 22  2  0  0  0
 22 23  1  0  0  0
 23 24  1  0  0  0
 24 25  1  0  0  0
 25 26  2  0  0  0
 26 27  1  0  0  0
  4  8  1  0  0  0
  8  9  1  0  0  0
  9 10  1  0  0  0
  7  1  1  0  0  0
 27 18  1  0  0  0
 10  3  1  0  0  0
 27 23  2  0  0  0
  6 11  1  0  0  0
  6 12  1  0  0  0
 14 17  1  0  0  0
 24 28  1  0  0  0
  9 13  1  0  0  0
M  END
> <minimizedAffinity>
-7.93808

> <minimizedRMSD>
1.32213

$$$$
P20984


 36 39  0  0  0  0  0  0  0  0999 V2000
   -7.5682    4.4843  -15.4061 C   0  0  0  0  0  0  0  0  0  0  0  0
   -8.7580    4.0829  -16.0263 C   0  0  0  0  0  0  0  0  0  0  0  0
   -8.8683    4.0612  -17.4078 C   0  0  0  0  0  0  0  0  0  0  0  0
  -10.0303    3.7027  -17.9635 F   0  0  0  0  0  0  0  0  0  0  0  0
   -7.8113    4.4147  -18.2323 C   0  0  0  0  0  0  0  0  0  0  0  0
   -6.6380    4.8475  -17.6071 C   0  0  0  0  0  0  0  0  0  0  0  0
   -6.5025    4.8923  -16.2194 C   0  0  0  0  0  0  0  0  0  0  0  0
   -5.2147    5.4102  -15.9960 C   0  0  0  0  0  0  0  0  0  0  0  0
   -4.5842    5.6917  -17.1287 N   0  0  0  0  0  0  0  0  0  0  0  0
   -5.4320    5.2810  -18.0955 N   0  0  0  0  0  0  0  0  0  0  0  0
   -7.3977    4.5326  -13.9384 C   0  0  0  0  0  0  0  0  0  0  0  0
   -6.3180    4.3391  -13.3935 O   0  0  0  0  0  0  0  0  0  0  0  0
   -8.5615    4.9348  -13.0805 C   0  0  0  0  0  0  0  0  0  0  0  0
   -9.4730    5.5742  -13.5892 O   0  0  0  0  0  0  0  0  0  0  0  0
   -7.9919    6.8865   -8.4945 C   0  0  0  0  0  0  0  0  0  0  0  0
   -8.2314    5.7080   -9.3965 C   0  0  0  0  0  0  0  0  0  0  0  0
   -8.2362    5.8430  -10.8004 C   0  0  0  0  0  0  0  0  0  0  0  0
   -8.4838    4.7223  -11.6245 C   0  0  0  0  0  0  0  0  0  0  0  0
   -8.7197    3.4541  -11.0867 C   0  0  0  0  0  0  0  0  0  0  0  0
   -8.7398    3.3420   -9.7061 C   0  0  0  0  0  0  0  0  0  0  0  0
   -8.5135    4.4442   -8.8783 C   0  0  0  0  0  0  0  0  0  0  0  0
   -8.6497    4.0119   -7.4519 C   0  0  0  0  0  0  0  0  0  0  0  0
   -9.1766    2.6356   -7.4850 N   0  0  0  0  0  0  0  0  0  0  0  0
   -8.9967    2.1324   -8.8660 C   0  0  0  0  0  0  0  0  0  0  0  0
  -10.1664    2.6341   -7.2385 H   0  0  0  0  0  0  0  0  0  0  0  0
   -8.0038    7.1188  -11.4185 C   0  0  0  0  0  0  0  0  0  0  0  0
   -7.8008    8.1273  -11.9559 N   0  0  0  0  0  0  0  0  0  0  0  0
   -5.0073    5.2978  -19.4952 C   0  0  0  0  0  0  0  0  0  0  0  0
   -3.5878    4.9273  -19.5978 N   0  0  0  0  0  0  0  0  0  0  0  0
   -3.5014    4.2548  -20.3598 H   0  0  0  0  0  0  0  0  0  0  0  0
   -2.6112    6.0210  -19.8546 C   0  0  0  0  0  0  0  0  0  0  0  0
   -1.3965    5.8947  -18.9115 C   0  0  0  0  0  0  0  0  0  0  0  0
   -2.0723    5.6665  -21.2407 C   0  0  0  0  0  0  0  0  0  0  0  0
   -3.1288    7.4926  -19.9186 C   0  0  0  0  0  0  0  0  0  0  0  0
   -2.1241    8.4208  -20.3282 O   0  0  0  0  0  0  0  0  0  0  0  0
   -1.3978    8.4158  -19.6852 H   0  0  0  0  0  0  0  0  0  0  0  0
 15 16  1  0  0  0
 16 17  2  0  0  0
 17 26  1  0  0  0
 26 27  3  0  0  0
 17 18  1  0  0  0
 18 13  1  0  0  0
 13 14  2  0  0  0
 13 11  1  0  0  0
 11 12  2  0  0  0
 11  1  1  0  0  0
  1  2  2  0  0  0
  2  3  1  0  0  0
  3  4  1  0  0  0
  3  5  2  0  0  0
  5  6  1  0  0  0
  6  7  2  0  0  0
  7  8  1  0  0  0
  8  9  2  0  0  0
  9 10  1  0  0  0
 10 28  1  0  0  0
 28 29  1  0  0  0
 29 31  1  0  0  0
 31 32  1  0  0  0
 31 33  1  0  0  0
 31 34  1  0  0  0
 34 35  1  0  0  0
 18 19  2  0  0  0
 19 20  1  0  0  0
 20 21  2  0  0  0
 21 22  1  0  0  0
 22 23  1  0  0  0
 23 24  1  0  0  0
 21 16  1  0  0  0
  7  1  1  0  0  0
 24 20  1  0  0  0
 10  6  1  0  0  0
 29 30  1  0  0  0
 35 36  1  0  0  0
 23 25  1  0  0  0
M  END
> <minimizedAffinity>
-8.56033

> <minimizedRMSD>
0.45406

$$$$
P20985


 32 35  0  0  0  0  0  0  0  0999 V2000
   -8.3588    4.1677  -12.9545 N   0  0  0  0  0  0  0  0  0  0  0  0
   -7.2561    4.7310  -13.8805 C   0  0  0  0  0  0  0  0  0  0  0  0
   -6.2704    5.3011  -13.6229 O   0  0  0  0  0  0  0  0  0  0  0  0
   -9.0614    3.6546  -13.4152 H   0  0  0  0  0  0  0  0  0  0  0  0
   -8.2482    6.7722   -8.6465 C   0  0  0  0  0  0  0  0  0  0  0  0
   -8.4044    5.4952   -9.4283 C   0  0  0  0  0  0  0  0  0  0  0  0
   -8.4052    5.4889  -10.8475 C   0  0  0  0  0  0  0  0  0  0  0  0
   -8.5207    4.2687  -11.5661 C   0  0  0  0  0  0  0  0  0  0  0  0
   -8.7510    3.0743  -10.8766 C   0  0  0  0  0  0  0  0  0  0  0  0
   -8.7858    3.1005   -9.4921 C   0  0  0  0  0  0  0  0  0  0  0  0
   -8.6066    4.2813   -8.7784 C   0  0  0  0  0  0  0  0  0  0  0  0
   -8.6858    3.9773   -7.3159 C   0  0  0  0  0  0  0  0  0  0  0  0
   -9.1432    2.5784   -7.2087 N   0  0  0  0  0  0  0  0  0  0  0  0
   -8.9451    1.9611   -8.5409 C   0  0  0  0  0  0  0  0  0  0  0  0
  -10.1299    2.5501   -6.9517 H   0  0  0  0  0  0  0  0  0  0  0  0
   -8.4592    6.7588  -11.5263 C   0  0  0  0  0  0  0  0  0  0  0  0
   -8.5704    7.7414  -12.1379 N   0  0  0  0  0  0  0  0  0  0  0  0
   -7.5078    4.5035  -15.3319 C   0  0  0  0  0  0  0  0  0  0  0  0
   -8.7461    4.1106  -15.8516 C   0  0  0  0  0  0  0  0  0  0  0  0
   -8.9468    4.0793  -17.2300 C   0  0  0  0  0  0  0  0  0  0  0  0
  -10.1534    3.7383  -17.6997 F   0  0  0  0  0  0  0  0  0  0  0  0
   -7.9566    4.4493  -18.1386 C   0  0  0  0  0  0  0  0  0  0  0  0
   -6.7214    4.8464  -17.6097 C   0  0  0  0  0  0  0  0  0  0  0  0
   -6.4784    4.8505  -16.2376 C   0  0  0  0  0  0  0  0  0  0  0  0
   -5.1344    5.2625  -16.1259 C   0  0  0  0  0  0  0  0  0  0  0  0
   -4.5685    5.4985  -17.3047 N   0  0  0  0  0  0  0  0  0  0  0  0
   -5.5615    5.3237  -18.1907 N   0  0  0  0  0  0  0  0  0  0  0  0
   -5.4379    5.6291  -19.5717 N   0  0  0  0  0  0  0  0  0  0  0  0
   -6.3272    6.0039  -19.9021 H   0  0  0  0  0  0  0  0  0  0  0  0
   -4.3832    6.6119  -19.8522 C   0  0  0  0  0  0  0  0  0  0  0  0
   -4.9742    7.7199  -20.7225 C   0  0  0  0  0  0  0  0  0  0  0  0
   -3.1679    5.9985  -20.5575 C   0  0  0  0  0  0  0  0  0  0  0  0
  5  6  1  0  0  0
  6  7  2  0  0  0
  7 16  1  0  0  0
 16 17  3  0  0  0
  7  8  1  0  0  0
  8  1  1  0  0  0
  1  2  1  0  0  0
  2  3  2  0  0  0
  2 18  1  0  0  0
 18 19  2  0  0  0
 19 20  1  0  0  0
 20 21  1  0  0  0
 20 22  2  0  0  0
 22 23  1  0  0  0
 23 24  2  0  0  0
 24 25  1  0  0  0
 25 26  2  0  0  0
 26 27  1  0  0  0
 27 28  1  0  0  0
 28 30  1  0  0  0
 30 31  1  0  0  0
 30 32  1  0  0  0
  8  9  2  0  0  0
  9 10  1  0  0  0
 10 11  2  0  0  0
 11 12  1  0  0  0
 12 13  1  0  0  0
 13 14  1  0  0  0
 11  6  1  0  0  0
 24 18  1  0  0  0
 14 10  1  0  0  0
 27 23  1  0  0  0
  1  4  1  0  0  0
 28 29  1  0  0  0
 13 15  1  0  0  0
M  END
> <minimizedAffinity>
-9.00542

> <minimizedRMSD>
0.35891

$$$$
P20986


 39 43  0  0  0  0  0  0  0  0999 V2000
   -7.4258    4.9983  -13.7889 C   0  0  0  0  0  0  0  0  0  0  0  0
   -7.5431    6.4004  -13.8826 O   0  0  0  0  0  0  0  0  0  0  0  0
   -7.4674    6.7910  -12.9979 H   0  0  0  0  0  0  0  0  0  0  0  0
   -7.5719    4.6044  -15.2664 C   0  0  0  0  0  0  0  0  0  0  0  0
   -8.8186    4.1100  -15.7451 C   0  0  0  0  0  0  0  0  0  0  0  0
   -9.0956    3.9305  -17.0989 C   0  0  0  0  0  0  0  0  0  0  0  0
  -10.3144    3.5346  -17.4806 F   0  0  0  0  0  0  0  0  0  0  0  0
   -8.1687    4.2227  -18.0763 C   0  0  0  0  0  0  0  0  0  0  0  0
   -6.9588    4.7422  -17.6330 C   0  0  0  0  0  0  0  0  0  0  0  0
   -5.8949    5.2008  -18.3597 N   0  0  0  0  0  0  0  0  0  0  0  0
   -4.8920    5.6827  -17.6085 N   0  0  0  0  0  0  0  0  0  0  0  0
   -5.3314    5.4973  -16.3587 C   0  0  0  0  0  0  0  0  0  0  0  0
   -6.6307    4.9291  -16.2892 C   0  0  0  0  0  0  0  0  0  0  0  0
   -5.8671    5.1795  -19.3435 H   0  0  0  0  0  0  0  0  0  0  0  0
   -6.0437    4.5706  -13.1059 C   0  0  0  0  0  0  0  0  0  0  0  0
   -5.7206    3.4645  -12.9025 O   0  0  0  0  0  0  0  0  0  0  0  0
   -5.3504    5.9142  -12.7158 N   0  0  0  0  0  0  0  0  0  0  0  0
   -5.8652    6.7235  -12.9376 H   0  0  0  0  0  0  0  0  0  0  0  0
   -4.0883    6.1598  -12.0884 C   0  0  0  0  0  0  0  0  0  0  0  0
   -2.9689    6.0191  -13.0669 C   0  0  0  0  0  0  0  0  0  0  0  0
   -2.8629    6.8318  -14.1980 C   0  0  0  0  0  0  0  0  0  0  0  0
   -1.8251    6.6203  -15.1004 C   0  0  0  0  0  0  0  0  0  0  0  0
   -0.9254    5.6004  -14.8388 C   0  0  0  0  0  0  0  0  0  0  0  0
   -0.9950    4.7973  -13.7560 N   0  0  0  0  0  0  0  0  0  0  0  0
   -2.0219    5.0153  -12.9034 C   0  0  0  0  0  0  0  0  0  0  0  0
   -8.5770    4.5725  -12.9571 N   0  0  0  0  0  0  0  0  0  0  0  0
   -9.4144    4.3084  -13.4024 H   0  0  0  0  0  0  0  0  0  0  0  0
   -8.3885    5.6526  -10.6634 C   0  0  0  0  0  0  0  0  0  0  0  0
   -8.3859    5.5010   -9.2607 C   0  0  0  0  0  0  0  0  0  0  0  0
   -8.5706    4.2473   -8.7219 C   0  0  0  0  0  0  0  0  0  0  0  0
   -8.7317    3.1475   -9.5435 C   0  0  0  0  0  0  0  0  0  0  0  0
   -8.7007    3.2691  -10.9280 C   0  0  0  0  0  0  0  0  0  0  0  0
   -8.5112    4.5330  -11.5356 C   0  0  0  0  0  0  0  0  0  0  0  0
   -8.9281    1.9317   -8.6993 C   0  0  0  0  0  0  0  0  0  0  0  0
   -9.1175    2.4296   -7.3115 N   0  0  0  0  0  0  0  0  0  0  0  0
   -8.6728    3.8357   -7.2944 C   0  0  0  0  0  0  0  0  0  0  0  0
   -8.5581    1.8772   -6.6616 H   0  0  0  0  0  0  0  0  0  0  0  0
   -8.3007    8.1146  -11.4683 N   0  0  0  0  0  0  0  0  0  0  0  0
   -8.3479    7.0099  -11.1117 C   0  0  0  0  0  0  0  0  0  0  0  0
 38 39  3  0  0  0
 39 28  1  0  0  0
 28 29  2  0  0  0
 29 30  1  0  0  0
 30 31  2  0  0  0
 31 32  1  0  0  0
 32 33  2  0  0  0
 33 26  1  0  0  0
 26  1  1  0  0  0
  1  2  1  0  0  0
  1 15  1  0  0  0
 15 16  2  0  0  0
 15 17  1  0  0  0
 17 19  1  0  0  0
 19 20  1  0  0  0
 20 21  2  0  0  0
 21 22  1  0  0  0
 22 23  2  0  0  0
 23 24  1  0  0  0
 24 25  2  0  0  0
  1  4  1  0  0  0
  4  5  2  0  0  0
  5  6  1  0  0  0
  6  7  1  0  0  0
  6  8  2  0  0  0
  8  9  1  0  0  0
  9 10  1  0  0  0
 10 11  1  0  0  0
 11 12  2  0  0  0
 12 13  1  0  0  0
 31 34  1  0  0  0
 34 35  1  0  0  0
 35 36  1  0  0  0
 33 28  1  0  0  0
 25 20  1  0  0  0
 13  4  1  0  0  0
 36 30  1  0  0  0
 13  9  2  0  0  0
 26 27  1  0  0  0
  2  3  1  0  0  0
 17 18  1  0  0  0
 10 14  1  0  0  0
 35 37  1  0  0  0
M  END
> <minimizedAffinity>
-8.03752

> <minimizedRMSD>
0.40419

$$$$
P20989


 33 37  0  0  0  0  0  0  0  0999 V2000
   -7.4796    4.6019  -15.4653 C   0  0  0  0  0  0  0  0  0  0  0  0
   -8.7325    4.0787  -15.8415 C   0  0  0  0  0  0  0  0  0  0  0  0
   -9.0635    3.9201  -17.1890 C   0  0  0  0  0  0  0  0  0  0  0  0
  -10.2715    3.4501  -17.5207 F   0  0  0  0  0  0  0  0  0  0  0  0
   -8.1784    4.2661  -18.1904 C   0  0  0  0  0  0  0  0  0  0  0  0
   -6.9656    4.8125  -17.8172 C   0  0  0  0  0  0  0  0  0  0  0  0
   -6.5987    5.0011  -16.4787 C   0  0  0  0  0  0  0  0  0  0  0  0
   -5.2206    5.6234  -16.4930 C   0  0  0  0  0  0  0  0  0  0  0  0
   -4.1479    4.9043  -15.6615 C   0  0  0  0  0  0  0  0  0  0  0  0
   -3.2326    5.9988  -15.1191 C   0  0  0  0  0  0  0  0  0  0  0  0
   -3.5761    7.2334  -15.8300 N   0  0  0  0  0  0  0  0  0  0  0  0
   -5.0371    7.0916  -16.0363 C   0  0  0  0  0  0  0  0  0  0  0  0
   -4.8216    5.6441  -17.9661 N   0  0  0  0  0  0  0  0  0  0  0  0
   -5.9190    5.1156  -18.6938 N   0  0  0  0  0  0  0  0  0  0  0  0
   -3.0827    7.2950  -16.7206 H   0  0  0  0  0  0  0  0  0  0  0  0
   -3.9923    5.0688  -18.1137 H   0  0  0  0  0  0  0  0  0  0  0  0
   -5.9405    4.9823  -19.6690 H   0  0  0  0  0  0  0  0  0  0  0  0
   -8.1834    4.0996  -13.0776 N   0  0  0  0  0  0  0  0  0  0  0  0
   -7.1880    4.8300  -14.0159 C   0  0  0  0  0  0  0  0  0  0  0  0
   -6.3090    5.5557  -13.7673 O   0  0  0  0  0  0  0  0  0  0  0  0
   -8.7939    3.4742  -13.5308 H   0  0  0  0  0  0  0  0  0  0  0  0
   -8.3469    5.3983  -10.9572 C   0  0  0  0  0  0  0  0  0  0  0  0
   -8.4384    5.3840   -9.5519 C   0  0  0  0  0  0  0  0  0  0  0  0
   -8.6035    4.1733   -8.9082 C   0  0  0  0  0  0  0  0  0  0  0  0
   -8.6824    2.9878   -9.6273 C   0  0  0  0  0  0  0  0  0  0  0  0
   -8.5616    2.9737  -11.0083 C   0  0  0  0  0  0  0  0  0  0  0  0
   -8.3554    4.1853  -11.6878 C   0  0  0  0  0  0  0  0  0  0  0  0
   -8.8824    1.8565   -8.6707 C   0  0  0  0  0  0  0  0  0  0  0  0
   -9.2977    2.5017   -7.3976 N   0  0  0  0  0  0  0  0  0  0  0  0
   -8.7555    3.8763   -7.4538 C   0  0  0  0  0  0  0  0  0  0  0  0
   -8.9097    1.9981   -6.5999 H   0  0  0  0  0  0  0  0  0  0  0  0
   -8.5999    7.6912  -12.1452 N   0  0  0  0  0  0  0  0  0  0  0  0
   -8.4353    6.6864  -11.5850 C   0  0  0  0  0  0  0  0  0  0  0  0
 32 33  3  0  0  0
 33 22  1  0  0  0
 22 23  2  0  0  0
 23 24  1  0  0  0
 24 25  2  0  0  0
 25 26  1  0  0  0
 26 27  2  0  0  0
 27 18  1  0  0  0
 18 19  1  0  0  0
 19 20  2  0  0  0
 19  1  1  0  0  0
  1  2  2  0  0  0
  2  3  1  0  0  0
  3  4  1  0  0  0
  3  5  2  0  0  0
  5  6  1  0  0  0
  6  7  2  0  0  0
  7  8  1  0  0  0
  8  9  1  0  0  0
  9 10  1  0  0  0
 10 11  1  0  0  0
 11 12  1  0  0  0
  8 13  1  0  0  0
 13 14  1  0  0  0
 25 28  1  0  0  0
 28 29  1  0  0  0
 29 30  1  0  0  0
 27 22  1  0  0  0
  7  1  1  0  0  0
 12  8  1  0  0  0
 30 24  1  0  0  0
 14  6  1  0  0  0
 18 21  1  0  0  0
 11 15  1  0  0  0
 13 16  1  0  0  0
 14 17  1  0  0  0
 29 31  1  0  0  0
M  END
> <minimizedAffinity>
-9.25276

> <minimizedRMSD>
0.24415

$$$$
P20990


 34 38  0  0  0  0  0  0  0  0999 V2000
   -7.3969    4.6966  -13.6157 C   0  0  0  0  0  0  0  0  0  0  0  0
   -7.4928    4.5961  -15.1358 C   0  0  0  0  0  0  0  0  0  0  0  0
   -8.6437    4.1460  -15.7994 C   0  0  0  0  0  0  0  0  0  0  0  0
   -8.6948    4.1063  -17.1954 C   0  0  0  0  0  0  0  0  0  0  0  0
   -9.8264    3.6884  -17.7796 F   0  0  0  0  0  0  0  0  0  0  0  0
   -7.6219    4.5314  -17.9791 C   0  0  0  0  0  0  0  0  0  0  0  0
   -6.4920    5.0308  -17.3476 C   0  0  0  0  0  0  0  0  0  0  0  0
   -6.4313    5.0413  -15.9505 C   0  0  0  0  0  0  0  0  0  0  0  0
   -5.1343    5.6619  -15.5287 C   0  0  0  0  0  0  0  0  0  0  0  0
   -4.3218    5.8098  -16.7479 N   0  0  0  0  0  0  0  0  0  0  0  0
   -5.2552    5.7021  -17.9091 C   0  0  0  0  0  0  0  0  0  0  0  0
   -5.5850    7.1240  -18.3918 C   0  0  0  0  0  0  0  0  0  0  0  0
   -4.4083    7.8257  -19.0670 C   0  0  0  0  0  0  0  0  0  0  0  0
   -3.8601    7.0322  -20.1669 N   0  0  0  0  0  0  0  0  0  0  0  0
   -3.4044    5.7404  -19.6561 C   0  0  0  0  0  0  0  0  0  0  0  0
   -4.5588    4.9469  -19.0416 C   0  0  0  0  0  0  0  0  0  0  0  0
   -3.6197    5.0713  -16.7928 H   0  0  0  0  0  0  0  0  0  0  0  0
   -3.0736    7.5289  -20.5854 H   0  0  0  0  0  0  0  0  0  0  0  0
   -8.6574    4.3556  -12.9180 N   0  0  0  0  0  0  0  0  0  0  0  0
   -9.4814    4.1323  -13.4084 H   0  0  0  0  0  0  0  0  0  0  0  0
   -8.3523    5.5346  -10.7153 C   0  0  0  0  0  0  0  0  0  0  0  0
   -8.2837    5.4732   -9.3113 C   0  0  0  0  0  0  0  0  0  0  0  0
   -8.5170    4.2629   -8.6867 C   0  0  0  0  0  0  0  0  0  0  0  0
   -8.7989    3.1245   -9.4245 C   0  0  0  0  0  0  0  0  0  0  0  0
   -8.8411    3.1565  -10.8111 C   0  0  0  0  0  0  0  0  0  0  0  0
   -8.6063    4.3701  -11.4909 C   0  0  0  0  0  0  0  0  0  0  0  0
   -9.0147    1.9739   -8.4985 C   0  0  0  0  0  0  0  0  0  0  0  0
   -9.0695    2.5602   -7.1336 N   0  0  0  0  0  0  0  0  0  0  0  0
   -8.5428    3.9362   -7.2333 C   0  0  0  0  0  0  0  0  0  0  0  0
   -8.4961    2.0111   -6.4932 H   0  0  0  0  0  0  0  0  0  0  0  0
   -8.0702    7.8619  -11.8277 N   0  0  0  0  0  0  0  0  0  0  0  0
   -8.2083    6.8258  -11.3201 C   0  0  0  0  0  0  0  0  0  0  0  0
   -6.2691    3.8395  -13.1138 N   0  0  0  0  0  0  0  0  0  0  0  0
   -5.4506    4.4724  -12.4333 O   0  0  0  0  0  0  0  0  0  0  0  0
 31 32  3  0  0  0
 32 21  1  0  0  0
 21 22  2  0  0  0
 22 23  1  0  0  0
 23 24  2  0  0  0
 24 25  1  0  0  0
 25 26  2  0  0  0
 26 19  1  0  0  0
  1 19  1  0  0  0
  1 33  1  0  0  0
 33 34  2  0  0  0
  1  2  1  0  0  0
  2  3  2  0  0  0
  3  4  1  0  0  0
  4  5  1  0  0  0
  4  6  2  0  0  0
  6  7  1  0  0  0
  7  8  2  0  0  0
  8  9  1  0  0  0
  9 10  1  0  0  0
 10 11  1  0  0  0
 11 12  1  0  0  0
 12 13  1  0  0  0
 13 14  1  0  0  0
 14 15  1  0  0  0
 15 16  1  0  0  0
 24 27  1  0  0  0
 27 28  1  0  0  0
 28 29  1  0  0  0
 26 21  1  0  0  0
  8  2  1  0  0  0
 16 11  1  0  0  0
 29 23  1  0  0  0
 11  7  1  0  0  0
 19 20  1  0  0  0
 10 17  1  0  0  0
 14 18  1  0  0  0
 28 30  1  0  0  0
M  END
> <minimizedAffinity>
-9.28641

> <minimizedRMSD>
0.22563

$$$$
P20993


 32 36  0  0  0  0  0  0  0  0999 V2000
   -7.5021    3.9460  -13.0365 N   0  0  0  0  0  0  0  0  0  0  0  0
   -6.9244    3.1859  -13.2767 H   0  0  0  0  0  0  0  0  0  0  0  0
   -7.9288    4.9109  -14.0285 C   0  0  0  0  0  0  0  0  0  0  0  0
   -9.3181    4.6335  -14.4585 N   0  0  0  0  0  0  0  0  0  0  0  0
   -9.2244    4.2896  -15.7042 C   0  0  0  0  0  0  0  0  0  0  0  0
   -7.9525    4.4543  -16.3128 C   0  0  0  0  0  0  0  0  0  0  0  0
   -7.6518    4.4737  -17.6630 C   0  0  0  0  0  0  0  0  0  0  0  0
   -8.5907    4.1712  -18.5676 F   0  0  0  0  0  0  0  0  0  0  0  0
   -6.3903    4.9087  -18.0393 C   0  0  0  0  0  0  0  0  0  0  0  0
   -5.5233    5.3145  -17.0228 C   0  0  0  0  0  0  0  0  0  0  0  0
   -5.8912    5.2745  -15.6767 C   0  0  0  0  0  0  0  0  0  0  0  0
   -7.1219    4.8424  -15.2866 C   0  0  0  0  0  0  0  0  0  0  0  0
   -4.8512    5.9821  -14.9732 C   0  0  0  0  0  0  0  0  0  0  0  0
   -3.9296    6.4715  -15.7463 N   0  0  0  0  0  0  0  0  0  0  0  0
   -4.2176    5.9706  -17.1601 N   0  0  0  0  0  0  0  0  0  0  0  0
   -3.2603    5.0742  -17.4283 O   0  0  0  0  0  0  0  0  0  0  0  0
   -4.7551    5.8437  -17.9752 H   0  0  0  0  0  0  0  0  0  0  0  0
   -8.1303    5.4091  -11.0708 C   0  0  0  0  0  0  0  0  0  0  0  0
   -8.3576    5.5245   -9.6838 C   0  0  0  0  0  0  0  0  0  0  0  0
   -8.4531    4.3783   -8.9277 C   0  0  0  0  0  0  0  0  0  0  0  0
   -8.3698    3.1325   -9.5245 C   0  0  0  0  0  0  0  0  0  0  0  0
   -8.0989    2.9952  -10.8832 C   0  0  0  0  0  0  0  0  0  0  0  0
   -7.9535    4.1416  -11.6946 C   0  0  0  0  0  0  0  0  0  0  0  0
   -8.5736    2.0892   -8.4767 C   0  0  0  0  0  0  0  0  0  0  0  0
   -9.6964    1.2682   -8.7564 N   0  0  0  0  0  0  0  0  0  0  0  0
   -8.9471    2.7917   -7.2493 N   0  0  0  0  0  0  0  0  0  0  0  0
   -8.6047    4.2092   -7.4563 C   0  0  0  0  0  0  0  0  0  0  0  0
  -10.5354    1.8459   -8.8085 H   0  0  0  0  0  0  0  0  0  0  0  0
   -9.8052    0.5768   -8.0145 H   0  0  0  0  0  0  0  0  0  0  0  0
   -8.4269    2.4159   -6.4564 H   0  0  0  0  0  0  0  0  0  0  0  0
   -7.9985    7.6594  -12.3509 N   0  0  0  0  0  0  0  0  0  0  0  0
   -8.0574    6.6445  -11.7874 C   0  0  0  0  0  0  0  0  0  0  0  0
 31 32  3  0  0  0
 32 18  1  0  0  0
 18 19  2  0  0  0
 19 20  1  0  0  0
 20 21  2  0  0  0
 21 22  1  0  0  0
 22 23  2  0  0  0
 23  1  1  0  0  0
  3  1  1  0  0  0
  3  4  1  0  0  0
  4  5  2  0  0  0
  5  6  1  0  0  0
  6  7  2  0  0  0
  7  8  1  0  0  0
  7  9  1  0  0  0
  9 10  2  0  0  0
 10 11  1  0  0  0
 11 12  2  0  0  0
 11 13  1  0  0  0
 13 14  2  0  0  0
 14 15  1  0  0  0
 15 16  1  0  0  0
 21 24  1  0  0  0
 24 25  1  0  0  0
 24 26  1  0  0  0
 26 27  1  0  0  0
 23 18  1  0  0  0
 12  3  1  0  0  0
 27 20  1  0  0  0
 12  6  1  0  0  0
 15 10  1  0  0  0
  1  2  1  0  0  0
 15 17  1  0  0  0
 25 28  1  0  0  0
 25 29  1  0  0  0
 26 30  1  0  0  0
M  CHG 1  15   1
M  CHG 1  16  -1
M  END
> <minimizedAffinity>
-9.11293

> <minimizedRMSD>
0.64990

$$$$
P20995


 38 41  0  0  0  0  0  0  0  0999 V2000
   -6.9654    4.8638  -13.3613 C   0  0  0  0  0  0  0  0  0  0  0  0
   -6.2894    3.6943  -12.9692 O   0  0  0  0  0  0  0  0  0  0  0  0
   -6.8083    2.9177  -13.2311 H   0  0  0  0  0  0  0  0  0  0  0  0
   -4.8148    5.2415  -16.0739 C   0  0  0  0  0  0  0  0  0  0  0  0
   -4.4356    5.4569  -17.3446 N   0  0  0  0  0  0  0  0  0  0  0  0
   -5.5398    5.2182  -18.0531 N   0  0  0  0  0  0  0  0  0  0  0  0
   -6.6184    4.8755  -17.2914 C   0  0  0  0  0  0  0  0  0  0  0  0
   -7.8657    4.4481  -17.7275 C   0  0  0  0  0  0  0  0  0  0  0  0
   -8.7879    4.1755  -16.7488 C   0  0  0  0  0  0  0  0  0  0  0  0
  -10.0130    3.7845  -17.1177 F   0  0  0  0  0  0  0  0  0  0  0  0
   -8.4871    4.3597  -15.4021 C   0  0  0  0  0  0  0  0  0  0  0  0
   -7.1977    4.7708  -14.9111 C   0  0  0  0  0  0  0  0  0  0  0  0
   -6.2280    4.9941  -15.9491 C   0  0  0  0  0  0  0  0  0  0  0  0
   -5.5735    5.2833  -19.0348 H   0  0  0  0  0  0  0  0  0  0  0  0
   -2.3811    5.6439  -15.5460 C   0  0  0  0  0  0  0  0  0  0  0  0
   -3.7278    5.1496  -15.0606 C   0  0  0  0  0  0  0  0  0  0  0  0
   -6.0370    6.1014  -12.8891 C   0  0  0  0  0  0  0  0  0  0  0  0
   -5.1682    5.9393  -12.1244 O   0  0  0  0  0  0  0  0  0  0  0  0
   -6.5000    7.3779  -13.6194 N   0  0  0  0  0  0  0  0  0  0  0  0
   -7.2167    7.2378  -14.2797 H   0  0  0  0  0  0  0  0  0  0  0  0
   -6.0512    8.7539  -13.4920 C   0  0  0  0  0  0  0  0  0  0  0  0
   -5.3370    9.3125  -14.7130 C   0  0  0  0  0  0  0  0  0  0  0  0
   -6.0516   10.3502  -15.2224 F   0  0  0  0  0  0  0  0  0  0  0  0
   -5.2884    8.3709  -15.6924 F   0  0  0  0  0  0  0  0  0  0  0  0
   -8.2850    4.8327  -12.6694 N   0  0  0  0  0  0  0  0  0  0  0  0
   -9.1105    4.9564  -13.1913 H   0  0  0  0  0  0  0  0  0  0  0  0
   -8.3661    4.6273  -11.2704 C   0  0  0  0  0  0  0  0  0  0  0  0
   -8.5383    3.3153  -10.7825 C   0  0  0  0  0  0  0  0  0  0  0  0
   -8.7228    3.1115   -9.4227 C   0  0  0  0  0  0  0  0  0  0  0  0
   -8.6496    4.1609   -8.5215 C   0  0  0  0  0  0  0  0  0  0  0  0
   -8.4497    5.4555   -8.9577 C   0  0  0  0  0  0  0  0  0  0  0  0
   -8.3654    5.6926  -10.3404 C   0  0  0  0  0  0  0  0  0  0  0  0
   -8.8805    3.6550   -7.1396 C   0  0  0  0  0  0  0  0  0  0  0  0
   -9.3220    2.2550   -7.2856 N   0  0  0  0  0  0  0  0  0  0  0  0
   -9.0575    1.8530   -8.6925 C   0  0  0  0  0  0  0  0  0  0  0  0
  -10.3188    2.1803   -7.0826 H   0  0  0  0  0  0  0  0  0  0  0  0
   -8.4674    7.0517  -10.7741 C   0  0  0  0  0  0  0  0  0  0  0  0
   -8.6058    8.1578  -11.1003 N   0  0  0  0  0  0  0  0  0  0  0  0
 15 16  1  0  0  0
 16  4  1  0  0  0
  4  5  2  0  0  0
  5  6  1  0  0  0
  6  7  1  0  0  0
  7  8  2  0  0  0
  8  9  1  0  0  0
  9 10  1  0  0  0
  9 11  2  0  0  0
 11 12  1  0  0  0
 12  1  1  0  0  0
  1  2  1  0  0  0
  1 25  1  0  0  0
 25 27  1  0  0  0
 27 28  2  0  0  0
 28 29  1  0  0  0
 29 30  2  0  0  0
 30 31  1  0  0  0
 31 32  2  0  0  0
 32 37  1  0  0  0
 37 38  3  0  0  0
 30 33  1  0  0  0
 33 34  1  0  0  0
 34 35  1  0  0  0
  1 17  1  0  0  0
 17 18  2  0  0  0
 17 19  1  0  0  0
 19 21  1  0  0  0
 21 22  1  0  0  0
 22 23  1  0  0  0
 22 24  1  0  0  0
 12 13  2  0  0  0
 13  4  1  0  0  0
 13  7  1  0  0  0
 32 27  1  0  0  0
 35 29  1  0  0  0
  6 14  1  0  0  0
  2  3  1  0  0  0
 25 26  1  0  0  0
 34 36  1  0  0  0
 19 20  1  0  0  0
M  END
> <minimizedAffinity>
-7.60488

> <minimizedRMSD>
0.47770

$$$$
P20997


 34 37  0  0  0  0  0  0  0  0999 V2000
   -5.2910    5.3427  -19.5291 C   0  0  0  0  0  0  0  0  0  0  0  0
   -5.4858    5.1377  -18.1230 N   0  0  0  0  0  0  0  0  0  0  0  0
   -6.6533    4.7882  -17.4836 C   0  0  0  0  0  0  0  0  0  0  0  0
   -7.9092    4.4084  -17.9625 C   0  0  0  0  0  0  0  0  0  0  0  0
   -8.8946    4.1313  -17.0240 C   0  0  0  0  0  0  0  0  0  0  0  0
  -10.1166    3.8020  -17.4578 F   0  0  0  0  0  0  0  0  0  0  0  0
   -8.6690    4.2460  -15.6596 C   0  0  0  0  0  0  0  0  0  0  0  0
   -7.4107    4.6413  -15.1795 C   0  0  0  0  0  0  0  0  0  0  0  0
   -6.3493    4.8906  -16.0974 C   0  0  0  0  0  0  0  0  0  0  0  0
   -4.9280    5.2413  -15.9362 C   0  0  0  0  0  0  0  0  0  0  0  0
   -4.4140    5.3522  -17.1790 N   0  0  0  0  0  0  0  0  0  0  0  0
   -3.2434    5.5397  -17.6047 O   0  0  0  0  0  0  0  0  0  0  0  0
   -7.2430    4.9699  -13.7350 C   0  0  0  0  0  0  0  0  0  0  0  0
   -6.4927    5.8228  -13.4687 O   0  0  0  0  0  0  0  0  0  0  0  0
   -8.1504    4.1111  -12.8216 N   0  0  0  0  0  0  0  0  0  0  0  0
   -8.6426    3.3954  -13.2851 H   0  0  0  0  0  0  0  0  0  0  0  0
   -8.3860    4.1867  -11.4394 C   0  0  0  0  0  0  0  0  0  0  0  0
   -8.6705    2.9665  -10.8025 C   0  0  0  0  0  0  0  0  0  0  0  0
   -8.8483    2.9441   -9.4285 C   0  0  0  0  0  0  0  0  0  0  0  0
   -8.7431    4.1012   -8.6698 C   0  0  0  0  0  0  0  0  0  0  0  0
   -8.4912    5.3196   -9.2683 C   0  0  0  0  0  0  0  0  0  0  0  0
   -8.3440    5.3746  -10.6693 C   0  0  0  0  0  0  0  0  0  0  0  0
   -8.9719    3.7686   -7.2336 C   0  0  0  0  0  0  0  0  0  0  0  0
   -9.5833    2.4221   -7.2453 N   0  0  0  0  0  0  0  0  0  0  0  0
   -9.1417    1.7952   -8.5187 C   0  0  0  0  0  0  0  0  0  0  0  0
  -10.6004    2.4924   -7.2167 H   0  0  0  0  0  0  0  0  0  0  0  0
   -8.3166    6.6919  -11.2391 C   0  0  0  0  0  0  0  0  0  0  0  0
   -8.3685    7.7928  -11.6080 N   0  0  0  0  0  0  0  0  0  0  0  0
   -4.2970    5.3460  -14.7463 O   0  0  0  0  0  0  0  0  0  0  0  0
   -3.4013    6.4404  -14.5899 C   0  0  0  0  0  0  0  0  0  0  0  0
   -4.0438    7.8171  -14.7651 C   0  0  0  0  0  0  0  0  0  0  0  0
   -4.3126    8.5380  -13.4516 C   0  0  0  0  0  0  0  0  0  0  0  0
   -5.7056    8.4420  -13.1563 O   0  0  0  0  0  0  0  0  0  0  0  0
   -6.2169    8.8492  -13.8730 H   0  0  0  0  0  0  0  0  0  0  0  0
  1  2  1  0  0  0
  2  3  1  0  0  0
  3  4  2  0  0  0
  4  5  1  0  0  0
  5  6  1  0  0  0
  5  7  2  0  0  0
  7  8  1  0  0  0
  8 13  1  0  0  0
 13 14  2  0  0  0
 13 15  1  0  0  0
 15 17  1  0  0  0
 17 18  2  0  0  0
 18 19  1  0  0  0
 19 20  2  0  0  0
 20 21  1  0  0  0
 21 22  2  0  0  0
 22 27  1  0  0  0
 27 28  3  0  0  0
 20 23  1  0  0  0
 23 24  1  0  0  0
 24 25  1  0  0  0
  8  9  2  0  0  0
  9 10  1  0  0  0
 10 29  1  0  0  0
 29 30  1  0  0  0
 30 31  1  0  0  0
 31 32  1  0  0  0
 32 33  1  0  0  0
 10 11  2  0  0  0
 11 12  1  0  0  0
 11  2  1  0  0  0
  9  3  1  0  0  0
 22 17  1  0  0  0
 25 19  1  0  0  0
 15 16  1  0  0  0
 24 26  1  0  0  0
 33 34  1  0  0  0
M  CHG 1  11   1
M  CHG 1  12  -1
M  END
> <minimizedAffinity>
-7.50428

> <minimizedRMSD>
0.60519

$$$$
P20998


 32 35  0  0  0  0  0  0  0  0999 V2000
   -4.2107    5.4433  -14.4925 C   0  0  0  0  0  0  0  0  0  0  0  0
   -4.9565    5.2581  -15.7488 C   0  0  0  0  0  0  0  0  0  0  0  0
   -6.3579    4.9344  -16.0359 C   0  0  0  0  0  0  0  0  0  0  0  0
   -7.4897    4.7088  -15.2026 C   0  0  0  0  0  0  0  0  0  0  0  0
   -8.7083    4.3052  -15.7561 C   0  0  0  0  0  0  0  0  0  0  0  0
   -8.8316    4.1737  -17.1323 C   0  0  0  0  0  0  0  0  0  0  0  0
  -10.0216    3.8202  -17.6347 F   0  0  0  0  0  0  0  0  0  0  0  0
   -7.7746    4.4379  -18.0048 C   0  0  0  0  0  0  0  0  0  0  0  0
   -6.5486    4.8155  -17.4428 C   0  0  0  0  0  0  0  0  0  0  0  0
   -5.3112    5.1068  -17.9931 N   0  0  0  0  0  0  0  0  0  0  0  0
   -4.3250    5.3383  -16.9307 N   0  0  0  0  0  0  0  0  0  0  0  0
   -3.1202    5.5546  -17.2028 O   0  0  0  0  0  0  0  0  0  0  0  0
   -7.4045    5.0968  -13.7767 C   0  0  0  0  0  0  0  0  0  0  0  0
   -6.6816    5.9789  -13.5345 O   0  0  0  0  0  0  0  0  0  0  0  0
   -8.3208    4.2706  -12.8491 N   0  0  0  0  0  0  0  0  0  0  0  0
   -8.8987    3.6219  -13.3122 H   0  0  0  0  0  0  0  0  0  0  0  0
   -8.4645    4.2936  -11.4516 C   0  0  0  0  0  0  0  0  0  0  0  0
   -8.6519    3.0421  -10.8403 C   0  0  0  0  0  0  0  0  0  0  0  0
   -8.7433    2.9694   -9.4595 C   0  0  0  0  0  0  0  0  0  0  0  0
   -8.6448    4.1056   -8.6690 C   0  0  0  0  0  0  0  0  0  0  0  0
   -8.4717    5.3503   -9.2380 C   0  0  0  0  0  0  0  0  0  0  0  0
   -8.4129    5.4569  -10.6425 C   0  0  0  0  0  0  0  0  0  0  0  0
   -8.7944    3.7224   -7.2347 C   0  0  0  0  0  0  0  0  0  0  0  0
   -9.3446    2.3502   -7.2626 N   0  0  0  0  0  0  0  0  0  0  0  0
   -8.9317    1.7822   -8.5720 C   0  0  0  0  0  0  0  0  0  0  0  0
  -10.3617    2.3726   -7.1888 H   0  0  0  0  0  0  0  0  0  0  0  0
   -8.4562    6.7973  -11.1547 C   0  0  0  0  0  0  0  0  0  0  0  0
   -8.6020    7.8932  -11.5135 N   0  0  0  0  0  0  0  0  0  0  0  0
   -4.9771    4.9211  -19.3489 O   0  0  0  0  0  0  0  0  0  0  0  0
   -4.8135    6.1445  -20.0802 C   0  0  0  0  0  0  0  0  0  0  0  0
   -3.3792    6.2531  -20.6044 C   0  0  0  0  0  0  0  0  0  0  0  0
   -5.2897    7.4381  -19.4186 C   0  0  0  0  0  0  0  0  0  0  0  0
  1  2  1  0  0  0
  2  3  1  0  0  0
  3  4  2  0  0  0
  4 13  1  0  0  0
 13 14  2  0  0  0
 13 15  1  0  0  0
 15 17  1  0  0  0
 17 18  2  0  0  0
 18 19  1  0  0  0
 19 20  2  0  0  0
 20 21  1  0  0  0
 21 22  2  0  0  0
 22 27  1  0  0  0
 27 28  3  0  0  0
 20 23  1  0  0  0
 23 24  1  0  0  0
 24 25  1  0  0  0
  4  5  1  0  0  0
  5  6  2  0  0  0
  6  7  1  0  0  0
  6  8  1  0  0  0
  8  9  2  0  0  0
  9 10  1  0  0  0
 10 29  1  0  0  0
 29 30  1  0  0  0
 30 31  1  0  0  0
 30 32  1  0  0  0
 10 11  1  0  0  0
 11 12  1  0  0  0
 11  2  2  0  0  0
  9  3  1  0  0  0
 22 17  1  0  0  0
 25 19  1  0  0  0
 15 16  1  0  0  0
 24 26  1  0  0  0
M  CHG 1  11   1
M  CHG 1  12  -1
M  END
> <minimizedAffinity>
-8.81612

> <minimizedRMSD>
0.30170

$$$$
P21000


 28 31  0  0  0  0  0  0  0  0999 V2000
   -8.3289    4.2510  -12.6677 N   0  0  0  0  0  0  0  0  0  0  0  0
   -7.1679    4.7904  -13.5318 C   0  0  0  0  0  0  0  0  0  0  0  0
   -6.2032    5.3705  -13.2251 O   0  0  0  0  0  0  0  0  0  0  0  0
   -9.0739    3.8579  -13.1773 H   0  0  0  0  0  0  0  0  0  0  0  0
   -8.3759    5.3811  -10.4562 C   0  0  0  0  0  0  0  0  0  0  0  0
   -8.4803    5.2710   -9.0575 C   0  0  0  0  0  0  0  0  0  0  0  0
   -8.7558    4.0338   -8.5101 C   0  0  0  0  0  0  0  0  0  0  0  0
   -8.9112    2.9125   -9.3163 C   0  0  0  0  0  0  0  0  0  0  0  0
   -8.7868    2.9894  -10.6935 C   0  0  0  0  0  0  0  0  0  0  0  0
   -8.4944    4.2299  -11.2763 C   0  0  0  0  0  0  0  0  0  0  0  0
   -9.1931    1.7310   -8.4467 C   0  0  0  0  0  0  0  0  0  0  0  0
   -9.6080    2.3122   -7.1445 N   0  0  0  0  0  0  0  0  0  0  0  0
   -8.9732    3.6468   -7.0851 C   0  0  0  0  0  0  0  0  0  0  0  0
   -9.2826    1.7284   -6.3740 H   0  0  0  0  0  0  0  0  0  0  0  0
   -8.3104    7.7583  -11.4993 N   0  0  0  0  0  0  0  0  0  0  0  0
   -8.3198    6.7154  -10.9861 C   0  0  0  0  0  0  0  0  0  0  0  0
   -7.3513    4.5771  -14.9925 C   0  0  0  0  0  0  0  0  0  0  0  0
   -8.5728    4.2117  -15.5660 C   0  0  0  0  0  0  0  0  0  0  0  0
   -8.7177    4.2047  -16.9502 C   0  0  0  0  0  0  0  0  0  0  0  0
   -9.9118    3.9025  -17.4728 F   0  0  0  0  0  0  0  0  0  0  0  0
   -7.6796    4.5513  -17.8143 C   0  0  0  0  0  0  0  0  0  0  0  0
   -6.4621    4.9257  -17.2306 C   0  0  0  0  0  0  0  0  0  0  0  0
   -6.2816    4.9291  -15.8476 C   0  0  0  0  0  0  0  0  0  0  0  0
   -4.9493    5.3585  -15.6636 C   0  0  0  0  0  0  0  0  0  0  0  0
   -4.3246    5.6102  -16.8094 N   0  0  0  0  0  0  0  0  0  0  0  0
   -5.2598    5.3575  -17.7597 N   0  0  0  0  0  0  0  0  0  0  0  0
   -4.9366    5.5037  -19.1972 C   0  0  0  0  0  0  0  0  0  0  0  0
   -4.5973    5.7379  -20.2844 N   0  0  0  0  0  0  0  0  0  0  0  0
 15 16  3  0  0  0
 16  5  1  0  0  0
  5  6  2  0  0  0
  6  7  1  0  0  0
  7  8  2  0  0  0
  8  9  1  0  0  0
  9 10  2  0  0  0
 10  1  1  0  0  0
  1  2  1  0  0  0
  2  3  2  0  0  0
  2 17  1  0  0  0
 17 18  2  0  0  0
 18 19  1  0  0  0
 19 20  1  0  0  0
 19 21  2  0  0  0
 21 22  1  0  0  0
 22 23  2  0  0  0
 23 24  1  0  0  0
 24 25  2  0  0  0
 25 26  1  0  0  0
 26 27  1  0  0  0
 27 28  3  0  0  0
  8 11  1  0  0  0
 11 12  1  0  0  0
 12 13  1  0  0  0
 10  5  1  0  0  0
 23 17  1  0  0  0
 13  7  1  0  0  0
 26 22  1  0  0  0
  1  4  1  0  0  0
 12 14  1  0  0  0
M  END
> <minimizedAffinity>
-8.38180

> <minimizedRMSD>
0.43601

$$$$
P21001


 30 34  0  0  0  0  0  0  0  0999 V2000
   -8.1759    4.1953  -12.1585 N   0  0  0  0  0  0  0  0  0  0  0  0
   -6.9597    4.7383  -12.9395 C   0  0  0  0  0  0  0  0  0  0  0  0
   -5.9559    5.1921  -12.5556 O   0  0  0  0  0  0  0  0  0  0  0  0
   -8.8777    3.7908  -12.7180 H   0  0  0  0  0  0  0  0  0  0  0  0
   -7.1219    4.6428  -14.4017 C   0  0  0  0  0  0  0  0  0  0  0  0
   -8.3576    4.3090  -15.0620 C   0  0  0  0  0  0  0  0  0  0  0  0
   -8.4834    4.3033  -16.4751 C   0  0  0  0  0  0  0  0  0  0  0  0
   -9.6578    4.0282  -17.0501 F   0  0  0  0  0  0  0  0  0  0  0  0
   -7.3813    4.6006  -17.2265 C   0  0  0  0  0  0  0  0  0  0  0  0
   -6.9377    4.7084  -18.5494 N   0  0  0  0  0  0  0  0  0  0  0  0
   -5.5733    5.1618  -18.6120 C   0  0  0  0  0  0  0  0  0  0  0  0
   -4.8142    5.3878  -19.5381 O   0  0  0  0  0  0  0  0  0  0  0  0
   -5.2285    5.2698  -17.2558 N   0  0  0  0  0  0  0  0  0  0  0  0
   -4.1666    5.6001  -16.4995 N   0  0  0  0  0  0  0  0  0  0  0  0
   -4.6686    5.4345  -15.2386 C   0  0  0  0  0  0  0  0  0  0  0  0
   -6.0299    4.9992  -15.2105 C   0  0  0  0  0  0  0  0  0  0  0  0
   -6.2862    4.9346  -16.5226 C   0  0  0  0  0  0  0  0  0  0  0  0
   -7.4895    4.5003  -19.3378 H   0  0  0  0  0  0  0  0  0  0  0  0
   -8.3545    5.3311   -9.9614 C   0  0  0  0  0  0  0  0  0  0  0  0
   -8.5202    5.2131   -8.5708 C   0  0  0  0  0  0  0  0  0  0  0  0
   -8.8280    3.9725   -8.0452 C   0  0  0  0  0  0  0  0  0  0  0  0
   -8.9687    2.8594   -8.8662 C   0  0  0  0  0  0  0  0  0  0  0  0
   -8.7853    2.9446  -10.2340 C   0  0  0  0  0  0  0  0  0  0  0  0
   -8.4425    4.1846  -10.7879 C   0  0  0  0  0  0  0  0  0  0  0  0
   -9.2943    1.6723   -8.0212 C   0  0  0  0  0  0  0  0  0  0  0  0
   -9.7439    2.2456   -6.7274 N   0  0  0  0  0  0  0  0  0  0  0  0
   -9.0926    3.5706   -6.6324 C   0  0  0  0  0  0  0  0  0  0  0  0
   -9.4525    1.6491   -5.9531 H   0  0  0  0  0  0  0  0  0  0  0  0
   -8.2634    7.7089  -11.0027 N   0  0  0  0  0  0  0  0  0  0  0  0
   -8.2760    6.6629  -10.4959 C   0  0  0  0  0  0  0  0  0  0  0  0
 29 30  3  0  0  0
 30 19  1  0  0  0
 19 20  2  0  0  0
 20 21  1  0  0  0
 21 22  2  0  0  0
 22 23  1  0  0  0
 23 24  2  0  0  0
 24  1  1  0  0  0
  1  2  1  0  0  0
  2  3  2  0  0  0
  2  5  1  0  0  0
  5  6  2  0  0  0
  6  7  1  0  0  0
  7  8  1  0  0  0
  7  9  2  0  0  0
  9 10  1  0  0  0
 10 11  1  0  0  0
 11 12  2  0  0  0
 11 13  1  0  0  0
 13 14  1  0  0  0
 14 15  2  0  0  0
 15 16  1  0  0  0
 16 17  2  0  0  0
 22 25  1  0  0  0
 25 26  1  0  0  0
 26 27  1  0  0  0
 24 19  1  0  0  0
 16  5  1  0  0  0
 27 21  1  0  0  0
 17  9  1  0  0  0
 17 13  1  0  0  0
  1  4  1  0  0  0
 10 18  1  0  0  0
 26 28  1  0  0  0
M  END
> <minimizedAffinity>
-8.83743

> <minimizedRMSD>
0.82176

$$$$
P21005


 30 33  0  0  0  0  0  0  0  0999 V2000
   -7.2593    4.7001  -13.8915 C   0  0  0  0  0  0  0  0  0  0  0  0
   -6.2490    5.2318  -13.6485 O   0  0  0  0  0  0  0  0  0  0  0  0
   -8.3663    4.1706  -12.9477 N   0  0  0  0  0  0  0  0  0  0  0  0
   -9.0957    3.6869  -13.3986 H   0  0  0  0  0  0  0  0  0  0  0  0
   -5.0569    5.5266  -17.5658 N   0  0  0  0  0  0  0  0  0  0  0  0
   -5.4417    5.3129  -16.2770 C   0  0  0  0  0  0  0  0  0  0  0  0
   -6.7072    4.7973  -16.3705 C   0  0  0  0  0  0  0  0  0  0  0  0
   -7.5706    4.4697  -15.3205 C   0  0  0  0  0  0  0  0  0  0  0  0
   -8.8200    4.0427  -15.8098 C   0  0  0  0  0  0  0  0  0  0  0  0
   -9.1393    3.9778  -17.2002 C   0  0  0  0  0  0  0  0  0  0  0  0
  -10.3918    3.6457  -17.5384 F   0  0  0  0  0  0  0  0  0  0  0  0
   -8.2534    4.2772  -18.2403 C   0  0  0  0  0  0  0  0  0  0  0  0
   -7.0026    4.6974  -17.7826 C   0  0  0  0  0  0  0  0  0  0  0  0
   -5.9222    5.0592  -18.4888 N   0  0  0  0  0  0  0  0  0  0  0  0
   -3.8862    6.2704  -18.0112 C   0  0  0  0  0  0  0  0  0  0  0  0
   -4.8857    8.4749  -18.2750 C   0  0  0  0  0  0  0  0  0  0  0  0
   -3.9663    7.6482  -17.4814 N   0  0  0  0  0  0  0  0  0  0  0  0
   -2.6290    8.2413  -17.4925 C   0  0  0  0  0  0  0  0  0  0  0  0
   -8.4991    4.2678  -11.5554 C   0  0  0  0  0  0  0  0  0  0  0  0
   -8.7742    3.0718  -10.8745 C   0  0  0  0  0  0  0  0  0  0  0  0
   -8.8185    3.0782   -9.4884 C   0  0  0  0  0  0  0  0  0  0  0  0
   -8.6078    4.2429   -8.7666 C   0  0  0  0  0  0  0  0  0  0  0  0
   -8.3750    5.4434   -9.4110 C   0  0  0  0  0  0  0  0  0  0  0  0
   -8.3431    5.4666  -10.8189 C   0  0  0  0  0  0  0  0  0  0  0  0
   -8.7014    3.9517   -7.3076 C   0  0  0  0  0  0  0  0  0  0  0  0
   -9.2009    2.5659   -7.2032 N   0  0  0  0  0  0  0  0  0  0  0  0
   -9.0389    1.9450   -8.5424 C   0  0  0  0  0  0  0  0  0  0  0  0
  -10.1849    2.5673   -6.9344 H   0  0  0  0  0  0  0  0  0  0  0  0
   -8.3110    6.7657  -11.4305 C   0  0  0  0  0  0  0  0  0  0  0  0
   -8.2728    7.7654  -12.0221 N   0  0  0  0  0  0  0  0  0  0  0  0
 16 17  1  0  0  0
 17 18  1  0  0  0
 17 15  1  0  0  0
 15  5  1  0  0  0
  5  6  1  0  0  0
  6  7  2  0  0  0
  7  8  1  0  0  0
  8  1  1  0  0  0
  1  2  2  0  0  0
  1  3  1  0  0  0
  3 19  1  0  0  0
 19 20  2  0  0  0
 20 21  1  0  0  0
 21 22  2  0  0  0
 22 23  1  0  0  0
 23 24  2  0  0  0
 24 29  1  0  0  0
 29 30  3  0  0  0
 22 25  1  0  0  0
 25 26  1  0  0  0
 26 27  1  0  0  0
  8  9  2  0  0  0
  9 10  1  0  0  0
 10 11  1  0  0  0
 10 12  2  0  0  0
 12 13  1  0  0  0
 13 14  2  0  0  0
 14  5  1  0  0  0
 13  7  1  0  0  0
 24 19  1  0  0  0
 27 21  1  0  0  0
  3  4  1  0  0  0
 26 28  1  0  0  0
M  END
> <minimizedAffinity>
-8.41079

> <minimizedRMSD>
0.45704

$$$$
P21009


 31 34  0  0  0  0  0  0  0  0999 V2000
   -7.1889    4.7647  -13.7763 C   0  0  0  0  0  0  0  0  0  0  0  0
   -6.2649    5.4203  -13.5002 O   0  0  0  0  0  0  0  0  0  0  0  0
   -8.3151    4.2021  -12.8882 N   0  0  0  0  0  0  0  0  0  0  0  0
   -9.0310    3.7353  -13.3769 H   0  0  0  0  0  0  0  0  0  0  0  0
   -8.4852    4.2464  -11.5067 C   0  0  0  0  0  0  0  0  0  0  0  0
   -8.7199    3.0404  -10.8504 C   0  0  0  0  0  0  0  0  0  0  0  0
   -8.7937    3.0584   -9.4709 C   0  0  0  0  0  0  0  0  0  0  0  0
   -8.6502    4.2374   -8.7408 C   0  0  0  0  0  0  0  0  0  0  0  0
   -8.4354    5.4611   -9.3675 C   0  0  0  0  0  0  0  0  0  0  0  0
   -8.3127    6.7311   -8.5713 C   0  0  0  0  0  0  0  0  0  0  0  0
   -8.3975    5.4660  -10.7808 C   0  0  0  0  0  0  0  0  0  0  0  0
   -8.7830    3.9163   -7.2857 C   0  0  0  0  0  0  0  0  0  0  0  0
   -9.2545    2.5195   -7.2175 N   0  0  0  0  0  0  0  0  0  0  0  0
   -8.9628    1.9104   -8.5343 C   0  0  0  0  0  0  0  0  0  0  0  0
  -10.2573    2.4951   -7.0328 H   0  0  0  0  0  0  0  0  0  0  0  0
   -8.4459    6.7350  -11.4677 C   0  0  0  0  0  0  0  0  0  0  0  0
   -8.5101    7.7147  -12.0914 N   0  0  0  0  0  0  0  0  0  0  0  0
   -5.3702    5.4541  -17.9634 N   0  0  0  0  0  0  0  0  0  0  0  0
   -4.3647    5.5265  -17.0675 N   0  0  0  0  0  0  0  0  0  0  0  0
   -4.9582    5.2199  -15.9177 C   0  0  0  0  0  0  0  0  0  0  0  0
   -6.3123    4.8473  -16.0849 C   0  0  0  0  0  0  0  0  0  0  0  0
   -7.3776    4.5030  -15.2253 C   0  0  0  0  0  0  0  0  0  0  0  0
   -8.6122    4.1529  -15.7883 C   0  0  0  0  0  0  0  0  0  0  0  0
   -8.7856    4.1846  -17.1631 C   0  0  0  0  0  0  0  0  0  0  0  0
   -9.9844    3.9091  -17.6902 F   0  0  0  0  0  0  0  0  0  0  0  0
   -7.7813    4.6208  -18.0145 C   0  0  0  0  0  0  0  0  0  0  0  0
   -6.5412    4.9466  -17.4536 C   0  0  0  0  0  0  0  0  0  0  0  0
   -5.0670    5.7999  -19.3439 C   0  0  0  0  0  0  0  0  0  0  0  0
   -3.0386    6.0155  -20.5218 C   0  0  0  0  0  0  0  0  0  0  0  0
   -3.7504    6.4352  -19.3451 N   0  0  0  0  0  0  0  0  0  0  0  0
   -3.8584    7.4495  -19.3525 H   0  0  0  0  0  0  0  0  0  0  0  0
 29 30  1  0  0  0
 30 28  1  0  0  0
 28 18  1  0  0  0
 18 19  1  0  0  0
 19 20  2  0  0  0
 20 21  1  0  0  0
 21 22  2  0  0  0
 22  1  1  0  0  0
  1  2  2  0  0  0
  1  3  1  0  0  0
  3  5  1  0  0  0
  5  6  2  0  0  0
  6  7  1  0  0  0
  7  8  2  0  0  0
  8  9  1  0  0  0
  9 10  1  0  0  0
  9 11  2  0  0  0
 11 16  1  0  0  0
 16 17  3  0  0  0
  8 12  1  0  0  0
 12 13  1  0  0  0
 13 14  1  0  0  0
 22 23  1  0  0  0
 23 24  2  0  0  0
 24 25  1  0  0  0
 24 26  1  0  0  0
 26 27  2  0  0  0
 27 18  1  0  0  0
 27 21  1  0  0  0
 11  5  1  0  0  0
 14  7  1  0  0  0
 30 31  1  0  0  0
  3  4  1  0  0  0
 13 15  1  0  0  0
M  END
> <minimizedAffinity>
-8.23087

> <minimizedRMSD>
0.89244

$$$$
P21010


 33 37  0  0  0  0  0  0  0  0999 V2000
   -7.3374    4.5419  -14.9097 C   0  0  0  0  0  0  0  0  0  0  0  0
   -8.5514    4.1361  -15.4656 C   0  0  0  0  0  0  0  0  0  0  0  0
   -8.7154    4.1708  -16.8548 C   0  0  0  0  0  0  0  0  0  0  0  0
   -9.9066    3.8249  -17.3650 F   0  0  0  0  0  0  0  0  0  0  0  0
   -7.6980    4.6094  -17.7134 C   0  0  0  0  0  0  0  0  0  0  0  0
   -6.4961    5.0378  -17.1656 C   0  0  0  0  0  0  0  0  0  0  0  0
   -6.3287    4.9853  -15.7779 C   0  0  0  0  0  0  0  0  0  0  0  0
   -5.0001    5.5650  -15.4135 C   0  0  0  0  0  0  0  0  0  0  0  0
   -4.2974    5.7923  -16.6820 N   0  0  0  0  0  0  0  0  0  0  0  0
   -5.2865    5.7165  -17.7883 C   0  0  0  0  0  0  0  0  0  0  0  0
   -5.6641    7.1277  -18.2880 C   0  0  0  0  0  0  0  0  0  0  0  0
   -4.7316    7.6287  -19.3919 C   0  0  0  0  0  0  0  0  0  0  0  0
   -4.7358    6.6956  -20.6079 C   0  0  0  0  0  0  0  0  0  0  0  0
   -5.0520    5.2911  -20.2804 N   0  0  0  0  0  0  0  0  0  0  0  0
   -4.5407    4.9798  -18.9307 C   0  0  0  0  0  0  0  0  0  0  0  0
   -3.5808    5.0780  -16.8114 H   0  0  0  0  0  0  0  0  0  0  0  0
   -4.6113    4.6742  -20.9627 H   0  0  0  0  0  0  0  0  0  0  0  0
   -8.3467    4.2411  -12.5889 N   0  0  0  0  0  0  0  0  0  0  0  0
   -7.1469    4.7190  -13.4385 C   0  0  0  0  0  0  0  0  0  0  0  0
   -6.1474    5.2279  -13.1165 O   0  0  0  0  0  0  0  0  0  0  0  0
   -9.1136    3.9084  -13.1091 H   0  0  0  0  0  0  0  0  0  0  0  0
   -8.3887    5.3438  -10.3645 C   0  0  0  0  0  0  0  0  0  0  0  0
   -8.4434    5.2129   -8.9650 C   0  0  0  0  0  0  0  0  0  0  0  0
   -8.6908    3.9670   -8.4223 C   0  0  0  0  0  0  0  0  0  0  0  0
   -8.8907    2.8623   -9.2374 C   0  0  0  0  0  0  0  0  0  0  0  0
   -8.8115    2.9594  -10.6201 C   0  0  0  0  0  0  0  0  0  0  0  0
   -8.5207    4.2043  -11.1969 C   0  0  0  0  0  0  0  0  0  0  0  0
   -9.1470    1.6647   -8.3830 C   0  0  0  0  0  0  0  0  0  0  0  0
   -9.3292    2.1835   -7.0036 N   0  0  0  0  0  0  0  0  0  0  0  0
   -8.8175    3.5674   -6.9920 C   0  0  0  0  0  0  0  0  0  0  0  0
   -8.8052    1.6107   -6.3419 H   0  0  0  0  0  0  0  0  0  0  0  0
   -8.3966    7.7434  -11.3573 N   0  0  0  0  0  0  0  0  0  0  0  0
   -8.3560    6.6862  -10.8757 C   0  0  0  0  0  0  0  0  0  0  0  0
 32 33  3  0  0  0
 33 22  1  0  0  0
 22 23  2  0  0  0
 23 24  1  0  0  0
 24 25  2  0  0  0
 25 26  1  0  0  0
 26 27  2  0  0  0
 27 18  1  0  0  0
 18 19  1  0  0  0
 19 20  2  0  0  0
 19  1  1  0  0  0
  1  2  2  0  0  0
  2  3  1  0  0  0
  3  4  1  0  0  0
  3  5  2  0  0  0
  5  6  1  0  0  0
  6  7  2  0  0  0
  7  8  1  0  0  0
  8  9  1  0  0  0
  9 10  1  0  0  0
 10 11  1  0  0  0
 11 12  1  0  0  0
 12 13  1  0  0  0
 13 14  1  0  0  0
 14 15  1  0  0  0
 25 28  1  0  0  0
 28 29  1  0  0  0
 29 30  1  0  0  0
 27 22  1  0  0  0
  7  1  1  0  0  0
 15 10  1  0  0  0
 30 24  1  0  0  0
 10  6  1  0  0  0
 18 21  1  0  0  0
  9 16  1  0  0  0
 14 17  1  0  0  0
 29 31  1  0  0  0
M  END
> <minimizedAffinity>
-10.02109

> <minimizedRMSD>
0.47704

$$$$
P21011


 33 36  0  0  0  0  0  0  0  0999 V2000
   -6.1312    6.1138  -13.0005 C   0  0  0  0  0  0  0  0  0  0  0  0
   -7.0361    4.9176  -13.2498 C   0  0  0  0  0  0  0  0  0  0  0  0
   -6.3320    3.7779  -12.7981 O   0  0  0  0  0  0  0  0  0  0  0  0
   -6.1494    3.8655  -11.8495 H   0  0  0  0  0  0  0  0  0  0  0  0
   -7.3371    4.7996  -14.7565 C   0  0  0  0  0  0  0  0  0  0  0  0
   -8.6308    4.4028  -15.1723 C   0  0  0  0  0  0  0  0  0  0  0  0
   -8.9253    4.1097  -16.4814 C   0  0  0  0  0  0  0  0  0  0  0  0
  -10.1683    3.7363  -16.8036 F   0  0  0  0  0  0  0  0  0  0  0  0
   -7.9850    4.2104  -17.4908 C   0  0  0  0  0  0  0  0  0  0  0  0
   -6.7681    4.7843  -17.1321 C   0  0  0  0  0  0  0  0  0  0  0  0
   -5.6983    5.1497  -17.9020 N   0  0  0  0  0  0  0  0  0  0  0  0
   -4.6456    5.5929  -17.1978 N   0  0  0  0  0  0  0  0  0  0  0  0
   -5.0686    5.5040  -15.9323 C   0  0  0  0  0  0  0  0  0  0  0  0
   -6.4106    5.0540  -15.8112 C   0  0  0  0  0  0  0  0  0  0  0  0
   -5.7005    5.0927  -18.8848 H   0  0  0  0  0  0  0  0  0  0  0  0
   -8.3529    3.6636  -18.8236 C   0  0  0  0  0  0  0  0  0  0  0  0
   -9.5413    4.3041  -19.3186 N   0  0  0  0  0  0  0  0  0  0  0  0
  -10.3127    4.1350  -18.6731 H   0  0  0  0  0  0  0  0  0  0  0  0
   -9.7757    3.9238  -20.2356 H   0  0  0  0  0  0  0  0  0  0  0  0
   -8.3155    4.9554  -12.5190 N   0  0  0  0  0  0  0  0  0  0  0  0
   -9.1465    5.1318  -13.0166 H   0  0  0  0  0  0  0  0  0  0  0  0
   -8.3810    4.7458  -11.1277 C   0  0  0  0  0  0  0  0  0  0  0  0
   -8.6004    3.4335  -10.6654 C   0  0  0  0  0  0  0  0  0  0  0  0
   -8.7492    3.2059   -9.3092 C   0  0  0  0  0  0  0  0  0  0  0  0
   -8.6080    4.2320   -8.3886 C   0  0  0  0  0  0  0  0  0  0  0  0
   -8.3699    5.5302   -8.8019 C   0  0  0  0  0  0  0  0  0  0  0  0
   -8.3081    5.7957  -10.1807 C   0  0  0  0  0  0  0  0  0  0  0  0
   -8.7964    3.6888   -7.0139 C   0  0  0  0  0  0  0  0  0  0  0  0
   -9.3269    2.3212   -7.1868 N   0  0  0  0  0  0  0  0  0  0  0  0
   -9.0811    1.9362   -8.6011 C   0  0  0  0  0  0  0  0  0  0  0  0
  -10.3272    2.3057   -6.9882 H   0  0  0  0  0  0  0  0  0  0  0  0
   -8.2896    7.1689  -10.5985 C   0  0  0  0  0  0  0  0  0  0  0  0
   -8.2617    8.2810  -10.9362 N   0  0  0  0  0  0  0  0  0  0  0  0
  2  1  1  0  0  0
  2  3  1  0  0  0
  2 20  1  0  0  0
 20 22  1  0  0  0
 22 23  2  0  0  0
 23 24  1  0  0  0
 24 25  2  0  0  0
 25 26  1  0  0  0
 26 27  2  0  0  0
 27 32  1  0  0  0
 32 33  3  0  0  0
 25 28  1  0  0  0
 28 29  1  0  0  0
 29 30  1  0  0  0
  2  5  1  0  0  0
  5  6  2  0  0  0
  6  7  1  0  0  0
  7  8  1  0  0  0
  7  9  2  0  0  0
  9 16  1  0  0  0
 16 17  1  0  0  0
  9 10  1  0  0  0
 10 11  1  0  0  0
 11 12  1  0  0  0
 12 13  2  0  0  0
 13 14  1  0  0  0
 27 22  1  0  0  0
 14  5  1  0  0  0
 30 24  1  0  0  0
 14 10  2  0  0  0
  3  4  1  0  0  0
 20 21  1  0  0  0
 29 31  1  0  0  0
 17 18  1  0  0  0
 17 19  1  0  0  0
 11 15  1  0  0  0
M  END
> <minimizedAffinity>
-7.99833

> <minimizedRMSD>
0.36213

$$$$
P21019


 33 37  0  0  0  0  0  0  0  0999 V2000
   -8.3333    5.3170   -9.6536 C   0  0  0  0  0  0  0  0  0  0  0  0
   -8.1977    5.1623  -11.0438 C   0  0  0  0  0  0  0  0  0  0  0  0
   -8.3956    3.9380  -11.6874 C   0  0  0  0  0  0  0  0  0  0  0  0
   -8.7286    2.8142  -10.9370 C   0  0  0  0  0  0  0  0  0  0  0  0
   -8.8123    2.9466   -9.5549 C   0  0  0  0  0  0  0  0  0  0  0  0
   -8.6218    4.1747   -8.9204 C   0  0  0  0  0  0  0  0  0  0  0  0
   -8.8324    4.0011   -7.4530 C   0  0  0  0  0  0  0  0  0  0  0  0
   -8.9186    2.5432   -7.2104 N   0  0  0  0  0  0  0  0  0  0  0  0
   -9.1329    1.9068   -8.5343 C   0  0  0  0  0  0  0  0  0  0  0  0
   -9.7002    2.3352   -6.5890 H   0  0  0  0  0  0  0  0  0  0  0  0
   -6.7881    8.3805   -8.1408 C   0  0  0  0  0  0  0  0  0  0  0  0
   -6.9288    7.0638   -8.5499 C   0  0  0  0  0  0  0  0  0  0  0  0
   -8.1494    6.6532   -9.0905 C   0  0  0  0  0  0  0  0  0  0  0  0
   -9.1776    7.6000   -9.1801 C   0  0  0  0  0  0  0  0  0  0  0  0
   -8.9339    8.8961   -8.7696 C   0  0  0  0  0  0  0  0  0  0  0  0
   -7.7596    9.3107   -8.2489 N   0  0  0  0  0  0  0  0  0  0  0  0
   -5.5039   10.0778   -7.1756 C   0  0  0  0  0  0  0  0  0  0  0  0
   -5.5547    8.7262   -7.6200 O   0  0  0  0  0  0  0  0  0  0  0  0
   -8.2543    3.8715  -13.0723 N   0  0  0  0  0  0  0  0  0  0  0  0
   -7.5741    4.8540  -14.0652 C   0  0  0  0  0  0  0  0  0  0  0  0
   -6.9614    5.8307  -13.8653 O   0  0  0  0  0  0  0  0  0  0  0  0
   -8.6497    3.0720  -13.4891 H   0  0  0  0  0  0  0  0  0  0  0  0
   -7.7987    4.5042  -15.4880 C   0  0  0  0  0  0  0  0  0  0  0  0
   -9.0483    4.0604  -15.9354 C   0  0  0  0  0  0  0  0  0  0  0  0
   -9.2957    3.9235  -17.2967 C   0  0  0  0  0  0  0  0  0  0  0  0
  -10.5231    3.5915  -17.7075 F   0  0  0  0  0  0  0  0  0  0  0  0
   -8.3330    4.1887  -18.2582 C   0  0  0  0  0  0  0  0  0  0  0  0
   -7.1050    4.6542  -17.7961 C   0  0  0  0  0  0  0  0  0  0  0  0
   -6.0012    5.0867  -18.4787 N   0  0  0  0  0  0  0  0  0  0  0  0
   -4.9879    5.4807  -17.6812 N   0  0  0  0  0  0  0  0  0  0  0  0
   -5.4855    5.3191  -16.4490 C   0  0  0  0  0  0  0  0  0  0  0  0
   -6.8081    4.8140  -16.4475 C   0  0  0  0  0  0  0  0  0  0  0  0
   -5.9513    5.1083  -19.4617 H   0  0  0  0  0  0  0  0  0  0  0  0
 17 18  1  0  0  0
 18 11  1  0  0  0
 11 12  2  0  0  0
 12 13  1  0  0  0
 13  1  1  0  0  0
  1  2  2  0  0  0
  2  3  1  0  0  0
  3 19  1  0  0  0
 19 20  1  0  0  0
 20 21  2  0  0  0
 20 23  1  0  0  0
 23 24  2  0  0  0
 24 25  1  0  0  0
 25 26  1  0  0  0
 25 27  2  0  0  0
 27 28  1  0  0  0
 28 29  1  0  0  0
 29 30  1  0  0  0
 30 31  2  0  0  0
 31 32  1  0  0  0
  3  4  2  0  0  0
  4  5  1  0  0  0
  5  6  2  0  0  0
  6  7  1  0  0  0
  7  8  1  0  0  0
  8  9  1  0  0  0
 13 14  2  0  0  0
 14 15  1  0  0  0
 15 16  2  0  0  0
 16 11  1  0  0  0
  6  1  1  0  0  0
 32 23  1  0  0  0
  9  5  1  0  0  0
 32 28  2  0  0  0
 19 22  1  0  0  0
 29 33  1  0  0  0
  8 10  1  0  0  0
M  END
> <minimizedAffinity>
-9.28454

> <minimizedRMSD>
0.54051

$$$$
P21023


 36 41  0  0  0  0  0  0  0  0999 V2000
   -8.0274    5.5636  -10.2855 C   0  0  0  0  0  0  0  0  0  0  0  0
   -8.2564    4.5376   -9.3384 C   0  0  0  0  0  0  0  0  0  0  0  0
   -8.4182    3.2132   -9.6988 C   0  0  0  0  0  0  0  0  0  0  0  0
   -8.3914    2.8331  -11.0170 C   0  0  0  0  0  0  0  0  0  0  0  0
   -8.1274    3.8268  -11.9605 C   0  0  0  0  0  0  0  0  0  0  0  0
   -8.0498    3.6707  -13.3152 N   0  0  0  0  0  0  0  0  0  0  0  0
   -7.7729    4.8438  -13.9681 C   0  0  0  0  0  0  0  0  0  0  0  0
   -7.6225    5.7857  -12.9536 C   0  0  0  0  0  0  0  0  0  0  0  0
   -7.9098    5.1771  -11.6641 C   0  0  0  0  0  0  0  0  0  0  0  0
   -8.5795    2.3532   -8.4931 C   0  0  0  0  0  0  0  0  0  0  0  0
   -8.8137    3.2968   -7.3728 N   0  0  0  0  0  0  0  0  0  0  0  0
   -8.3173    4.6146   -7.8435 C   0  0  0  0  0  0  0  0  0  0  0  0
   -8.1787    2.8089  -13.7733 H   0  0  0  0  0  0  0  0  0  0  0  0
   -8.2993    2.9989   -6.5439 H   0  0  0  0  0  0  0  0  0  0  0  0
   -7.7769    4.8336  -15.4326 C   0  0  0  0  0  0  0  0  0  0  0  0
   -8.9825    4.5399  -16.1004 C   0  0  0  0  0  0  0  0  0  0  0  0
   -9.0537    4.3677  -17.4720 C   0  0  0  0  0  0  0  0  0  0  0  0
  -10.2332    4.0621  -18.0297 F   0  0  0  0  0  0  0  0  0  0  0  0
   -7.9260    4.4768  -18.2642 C   0  0  0  0  0  0  0  0  0  0  0  0
   -6.7265    4.7601  -17.6055 C   0  0  0  0  0  0  0  0  0  0  0  0
   -5.4606    4.8938  -18.1006 N   0  0  0  0  0  0  0  0  0  0  0  0
   -4.5214    5.1094  -17.1660 N   0  0  0  0  0  0  0  0  0  0  0  0
   -5.2310    5.1695  -16.0276 C   0  0  0  0  0  0  0  0  0  0  0  0
   -6.6158    4.9444  -16.2230 C   0  0  0  0  0  0  0  0  0  0  0  0
   -5.2544    4.8368  -19.0616 H   0  0  0  0  0  0  0  0  0  0  0  0
   -6.7136    8.7618   -8.8767 C   0  0  0  0  0  0  0  0  0  0  0  0
   -6.7134    7.4999   -9.4514 C   0  0  0  0  0  0  0  0  0  0  0  0
   -7.9329    6.9464   -9.8223 C   0  0  0  0  0  0  0  0  0  0  0  0
   -9.0855    7.7149   -9.6119 C   0  0  0  0  0  0  0  0  0  0  0  0
   -8.9831    8.9467   -8.9832 C   0  0  0  0  0  0  0  0  0  0  0  0
   -7.8163    9.4811   -8.5781 N   0  0  0  0  0  0  0  0  0  0  0  0
   -4.6256    9.1063   -9.6528 C   0  0  0  0  0  0  0  0  0  0  0  0
   -5.5151    9.3539   -8.5625 O   0  0  0  0  0  0  0  0  0  0  0  0
   -7.2548    7.2818  -13.1799 C   0  0  0  0  0  0  0  0  0  0  0  0
   -6.0494    7.5243  -13.4991 O   0  0  0  0  0  0  0  0  0  0  0  0
   -8.1905    8.1262  -13.0392 O   0  0  0  0  0  0  0  0  0  0  0  0
 32 33  1  0  0  0
 33 26  1  0  0  0
 26 27  2  0  0  0
 27 28  1  0  0  0
 28  1  1  0  0  0
  1  2  2  0  0  0
  2  3  1  0  0  0
  3  4  2  0  0  0
  4  5  1  0  0  0
  5  6  1  0  0  0
  6  7  1  0  0  0
  7 15  1  0  0  0
 15 16  2  0  0  0
 16 17  1  0  0  0
 17 18  1  0  0  0
 17 19  2  0  0  0
 19 20  1  0  0  0
 20 21  1  0  0  0
 21 22  1  0  0  0
 22 23  2  0  0  0
 23 24  1  0  0  0
  7  8  2  0  0  0
  8 34  1  0  0  0
 34 35  2  0  0  0
 34 36  1  0  0  0
  8  9  1  0  0  0
  3 10  1  0  0  0
 10 11  1  0  0  0
 11 12  1  0  0  0
 28 29  2  0  0  0
 29 30  1  0  0  0
 30 31  2  0  0  0
 31 26  1  0  0  0
  9  1  1  0  0  0
 12  2  1  0  0  0
  9  5  2  0  0  0
 24 15  1  0  0  0
 24 20  2  0  0  0
  6 13  1  0  0  0
 21 25  1  0  0  0
 11 14  1  0  0  0
M  CHG 1  36  -1
M  END
> <minimizedAffinity>
-7.89148

> <minimizedRMSD>
0.44244

$$$$
P21028


 46 50  0  0  0  0  0  0  0  0999 V2000
   -7.3674    4.5885  -13.8503 C   0  0  0  0  0  0  0  0  0  0  0  0
   -6.4297    3.5420  -13.6777 O   0  0  0  0  0  0  0  0  0  0  0  0
   -6.8387    2.6975  -13.9236 H   0  0  0  0  0  0  0  0  0  0  0  0
   -6.7685    4.7305  -17.6536 C   0  0  0  0  0  0  0  0  0  0  0  0
   -8.0488    4.5321  -18.1650 C   0  0  0  0  0  0  0  0  0  0  0  0
   -9.1216    4.4118  -17.2939 C   0  0  0  0  0  0  0  0  0  0  0  0
  -10.3505    4.2174  -17.7879 F   0  0  0  0  0  0  0  0  0  0  0  0
   -8.9479    4.4683  -15.9119 C   0  0  0  0  0  0  0  0  0  0  0  0
   -7.6778    4.6133  -15.3547 C   0  0  0  0  0  0  0  0  0  0  0  0
   -6.6070    4.7432  -16.2564 C   0  0  0  0  0  0  0  0  0  0  0  0
   -5.6641    4.7943  -18.5353 N   0  0  0  0  0  0  0  0  0  0  0  0
   -5.8006    4.7038  -19.5061 H   0  0  0  0  0  0  0  0  0  0  0  0
   -3.4006    4.8398  -19.0953 C   0  0  0  0  0  0  0  0  0  0  0  0
   -4.3694    4.9875  -18.0188 N   0  0  0  0  0  0  0  0  0  0  0  0
   -4.2969    5.9234  -17.6199 H   0  0  0  0  0  0  0  0  0  0  0  0
   -6.7566    6.0447  -13.4574 C   0  0  0  0  0  0  0  0  0  0  0  0
   -5.6308    6.1838  -13.1614 O   0  0  0  0  0  0  0  0  0  0  0  0
   -7.9138    7.0886  -13.5505 N   0  0  0  0  0  0  0  0  0  0  0  0
   -8.7628    6.7331  -13.9001 H   0  0  0  0  0  0  0  0  0  0  0  0
   -7.9408    8.4862  -13.2082 C   0  0  0  0  0  0  0  0  0  0  0  0
   -9.1803    8.8938  -12.4692 C   0  0  0  0  0  0  0  0  0  0  0  0
   -9.1178    9.3099  -11.1363 C   0  0  0  0  0  0  0  0  0  0  0  0
  -10.2789    9.6884  -10.4676 C   0  0  0  0  0  0  0  0  0  0  0  0
  -11.4767    9.6536  -11.1576 C   0  0  0  0  0  0  0  0  0  0  0  0
  -11.5809    9.2768  -12.4506 N   0  0  0  0  0  0  0  0  0  0  0  0
  -10.4375    8.8982  -13.0662 C   0  0  0  0  0  0  0  0  0  0  0  0
   -8.5592    4.2374  -13.0481 N   0  0  0  0  0  0  0  0  0  0  0  0
   -9.4130    4.0038  -13.4790 H   0  0  0  0  0  0  0  0  0  0  0  0
   -8.4283    4.2489  -11.6353 C   0  0  0  0  0  0  0  0  0  0  0  0
   -8.6661    3.0978  -10.8767 C   0  0  0  0  0  0  0  0  0  0  0  0
   -8.5710    3.1565   -9.4873 C   0  0  0  0  0  0  0  0  0  0  0  0
   -8.2329    4.3327   -8.8251 C   0  0  0  0  0  0  0  0  0  0  0  0
   -7.9639    5.4828   -9.5353 C   0  0  0  0  0  0  0  0  0  0  0  0
   -8.1050    5.4173  -10.9327 C   0  0  0  0  0  0  0  0  0  0  0  0
   -8.1925    4.0809   -7.3564 C   0  0  0  0  0  0  0  0  0  0  0  0
   -8.8060    2.7536   -7.1622 N   0  0  0  0  0  0  0  0  0  0  0  0
   -8.7381    2.0680   -8.4770 C   0  0  0  0  0  0  0  0  0  0  0  0
   -9.7768    2.8530   -6.8653 H   0  0  0  0  0  0  0  0  0  0  0  0
   -7.5380    6.7457   -8.9429 C   0  0  0  0  0  0  0  0  0  0  0  0
   -8.3090    7.4018   -7.9873 C   0  0  0  0  0  0  0  0  0  0  0  0
   -7.9440    8.6791   -7.5921 C   0  0  0  0  0  0  0  0  0  0  0  0
   -6.8743    9.3394   -8.0833 N   0  0  0  0  0  0  0  0  0  0  0  0
   -6.1324    8.6712   -8.9899 C   0  0  0  0  0  0  0  0  0  0  0  0
   -6.3994    7.3897   -9.4268 C   0  0  0  0  0  0  0  0  0  0  0  0
   -5.0223    9.2822   -9.5259 O   0  0  0  0  0  0  0  0  0  0  0  0
   -4.9711    9.0765  -10.9305 C   0  0  0  0  0  0  0  0  0  0  0  0
 13 14  1  0  0  0
 14 11  1  0  0  0
 11  4  1  0  0  0
  4  5  2  0  0  0
  5  6  1  0  0  0
  6  7  1  0  0  0
  6  8  2  0  0  0
  8  9  1  0  0  0
  9  1  1  0  0  0
  1  2  1  0  0  0
  1 27  1  0  0  0
 27 29  1  0  0  0
 29 30  2  0  0  0
 30 31  1  0  0  0
 31 32  2  0  0  0
 32 33  1  0  0  0
 33 39  1  0  0  0
 39 40  2  0  0  0
 40 41  1  0  0  0
 41 42  2  0  0  0
 42 43  1  0  0  0
 43 45  1  0  0  0
 45 46  1  0  0  0
 43 44  2  0  0  0
 33 34  2  0  0  0
 32 35  1  0  0  0
 35 36  1  0  0  0
 36 37  1  0  0  0
  1 16  1  0  0  0
 16 17  2  0  0  0
 16 18  1  0  0  0
 18 20  1  0  0  0
 20 21  1  0  0  0
 21 22  2  0  0  0
 22 23  1  0  0  0
 23 24  2  0  0  0
 24 25  1  0  0  0
 25 26  2  0  0  0
  9 10  2  0  0  0
 10  4  1  0  0  0
 34 29  1  0  0  0
 26 21  1  0  0  0
 37 31  1  0  0  0
 44 39  1  0  0  0
 14 15  1  0  0  0
 11 12  1  0  0  0
  2  3  1  0  0  0
 27 28  1  0  0  0
 36 38  1  0  0  0
 18 19  1  0  0  0
M  END
> <minimizedAffinity>
-7.11525

> <minimizedRMSD>
0.52006

$$$$
P21029


 34 38  0  0  0  0  0  0  0  0999 V2000
   -8.0440    5.8010  -10.0477 C   0  0  0  0  0  0  0  0  0  0  0  0
   -8.0212    5.6552  -11.4473 C   0  0  0  0  0  0  0  0  0  0  0  0
   -8.2349    4.4163  -12.0638 C   0  0  0  0  0  0  0  0  0  0  0  0
   -8.4857    3.2924  -11.2780 C   0  0  0  0  0  0  0  0  0  0  0  0
   -8.4904    3.4299   -9.8947 C   0  0  0  0  0  0  0  0  0  0  0  0
   -8.2783    4.6635   -9.2885 C   0  0  0  0  0  0  0  0  0  0  0  0
   -8.2911    4.4927   -7.8057 C   0  0  0  0  0  0  0  0  0  0  0  0
   -8.7367    3.1074   -7.5502 N   0  0  0  0  0  0  0  0  0  0  0  0
   -8.6340    2.3816   -8.8412 C   0  0  0  0  0  0  0  0  0  0  0  0
   -9.7020    3.1038   -7.2207 H   0  0  0  0  0  0  0  0  0  0  0  0
   -6.2564    8.6876   -8.5356 C   0  0  0  0  0  0  0  0  0  0  0  0
   -6.5147    7.3946   -8.9456 C   0  0  0  0  0  0  0  0  0  0  0  0
   -7.7754    7.1084   -9.4622 C   0  0  0  0  0  0  0  0  0  0  0  0
   -8.7222    8.1318   -9.4949 C   0  0  0  0  0  0  0  0  0  0  0  0
   -8.3802    9.3829   -9.0063 C   0  0  0  0  0  0  0  0  0  0  0  0
   -7.1596    9.6879   -8.5242 N   0  0  0  0  0  0  0  0  0  0  0  0
   -4.4043    9.9102   -9.0441 C   0  0  0  0  0  0  0  0  0  0  0  0
   -4.9722    8.9716   -8.1353 O   0  0  0  0  0  0  0  0  0  0  0  0
   -8.1712    4.3031  -13.4536 N   0  0  0  0  0  0  0  0  0  0  0  0
   -7.2739    5.0384  -14.4844 C   0  0  0  0  0  0  0  0  0  0  0  0
   -6.3969    5.7953  -14.3222 O   0  0  0  0  0  0  0  0  0  0  0  0
   -8.7972    3.6508  -13.8432 H   0  0  0  0  0  0  0  0  0  0  0  0
   -7.6085    4.6896  -15.8880 C   0  0  0  0  0  0  0  0  0  0  0  0
   -8.9386    4.4715  -16.2556 C   0  0  0  0  0  0  0  0  0  0  0  0
   -9.2864    4.3268  -17.5901 C   0  0  0  0  0  0  0  0  0  0  0  0
  -10.5729    4.1464  -17.9116 F   0  0  0  0  0  0  0  0  0  0  0  0
   -8.3438    4.3743  -18.6093 C   0  0  0  0  0  0  0  0  0  0  0  0
   -7.0094    4.5517  -18.2359 C   0  0  0  0  0  0  0  0  0  0  0  0
   -6.5995    4.7199  -16.8839 C   0  0  0  0  0  0  0  0  0  0  0  0
   -5.1529    4.9037  -16.8288 C   0  0  0  0  0  0  0  0  0  0  0  0
   -4.7050    4.8351  -18.0912 N   0  0  0  0  0  0  0  0  0  0  0  0
   -3.5431    4.9269  -18.5549 O   0  0  0  0  0  0  0  0  0  0  0  0
   -5.8443    4.6215  -18.9671 N   0  0  0  0  0  0  0  0  0  0  0  0
   -5.7113    4.5283  -20.3959 C   0  0  0  0  0  0  0  0  0  0  0  0
 17 18  1  0  0  0
 18 11  1  0  0  0
 11 12  2  0  0  0
 12 13  1  0  0  0
 13  1  1  0  0  0
  1  2  2  0  0  0
  2  3  1  0  0  0
  3 19  1  0  0  0
 19 20  1  0  0  0
 20 21  2  0  0  0
 20 23  1  0  0  0
 23 24  2  0  0  0
 24 25  1  0  0  0
 25 26  1  0  0  0
 25 27  2  0  0  0
 27 28  1  0  0  0
 28 29  2  0  0  0
 29 30  1  0  0  0
 30 31  2  0  0  0
 31 32  1  0  0  0
 31 33  1  0  0  0
 33 34  1  0  0  0
  3  4  2  0  0  0
  4  5  1  0  0  0
  5  6  2  0  0  0
  6  7  1  0  0  0
  7  8  1  0  0  0
  8  9  1  0  0  0
 13 14  2  0  0  0
 14 15  1  0  0  0
 15 16  2  0  0  0
 16 11  1  0  0  0
  6  1  1  0  0  0
 29 23  1  0  0  0
  9  5  1  0  0  0
 33 28  1  0  0  0
 19 22  1  0  0  0
  8 10  1  0  0  0
M  CHG 1  31   1
M  CHG 1  32  -1
M  END
> <minimizedAffinity>
-8.08551

> <minimizedRMSD>
0.49176

$$$$
P21030


 34 38  0  0  0  0  0  0  0  0999 V2000
   -8.3307    5.8488  -10.0466 C   0  0  0  0  0  0  0  0  0  0  0  0
   -8.1931    5.6740  -11.4417 C   0  0  0  0  0  0  0  0  0  0  0  0
   -8.2437    4.4041  -12.0320 C   0  0  0  0  0  0  0  0  0  0  0  0
   -8.4334    3.2818  -11.2202 C   0  0  0  0  0  0  0  0  0  0  0  0
   -8.5360    3.4482   -9.8437 C   0  0  0  0  0  0  0  0  0  0  0  0
   -8.4915    4.7102   -9.2662 C   0  0  0  0  0  0  0  0  0  0  0  0
   -8.5639    4.5746   -7.7796 C   0  0  0  0  0  0  0  0  0  0  0  0
   -8.8822    3.1588   -7.5071 N   0  0  0  0  0  0  0  0  0  0  0  0
   -8.6299    2.4170   -8.7667 C   0  0  0  0  0  0  0  0  0  0  0  0
   -9.8602    3.0645   -7.2332 H   0  0  0  0  0  0  0  0  0  0  0  0
   -6.9630    9.0390   -8.7089 C   0  0  0  0  0  0  0  0  0  0  0  0
   -7.0035    7.7463   -9.1916 C   0  0  0  0  0  0  0  0  0  0  0  0
   -8.2478    7.1831   -9.4603 C   0  0  0  0  0  0  0  0  0  0  0  0
   -9.3888    7.9428   -9.1873 C   0  0  0  0  0  0  0  0  0  0  0  0
   -9.2408    9.2170   -8.6638 C   0  0  0  0  0  0  0  0  0  0  0  0
   -8.0455    9.7893   -8.4197 N   0  0  0  0  0  0  0  0  0  0  0  0
   -5.4758   10.5265   -9.5583 C   0  0  0  0  0  0  0  0  0  0  0  0
   -5.7251    9.5990   -8.5066 O   0  0  0  0  0  0  0  0  0  0  0  0
   -8.1236    4.2383  -13.4179 N   0  0  0  0  0  0  0  0  0  0  0  0
   -7.1171    4.8666  -14.4286 C   0  0  0  0  0  0  0  0  0  0  0  0
   -6.1888    5.5565  -14.2451 O   0  0  0  0  0  0  0  0  0  0  0  0
   -8.7817    3.6254  -13.8184 H   0  0  0  0  0  0  0  0  0  0  0  0
   -7.4906    4.5895  -15.8513 C   0  0  0  0  0  0  0  0  0  0  0  0
   -8.8439    4.3900  -16.1703 C   0  0  0  0  0  0  0  0  0  0  0  0
   -9.2683    4.3197  -17.4904 C   0  0  0  0  0  0  0  0  0  0  0  0
  -10.5708    4.1683  -17.7526 F   0  0  0  0  0  0  0  0  0  0  0  0
   -8.3892    4.4228  -18.5533 C   0  0  0  0  0  0  0  0  0  0  0  0
   -7.0495    4.6081  -18.2368 C   0  0  0  0  0  0  0  0  0  0  0  0
   -5.9653    4.7827  -19.0566 N   0  0  0  0  0  0  0  0  0  0  0  0
   -4.7749    4.9744  -18.2925 N   0  0  0  0  0  0  0  0  0  0  0  0
   -3.6958    5.1837  -18.8981 O   0  0  0  0  0  0  0  0  0  0  0  0
   -5.0965    4.9306  -16.9833 C   0  0  0  0  0  0  0  0  0  0  0  0
   -6.5443    4.7017  -16.9111 C   0  0  0  0  0  0  0  0  0  0  0  0
   -6.0024    4.7767  -20.0404 H   0  0  0  0  0  0  0  0  0  0  0  0
 17 18  1  0  0  0
 18 11  1  0  0  0
 11 12  2  0  0  0
 12 13  1  0  0  0
 13  1  1  0  0  0
  1  2  2  0  0  0
  2  3  1  0  0  0
  3 19  1  0  0  0
 19 20  1  0  0  0
 20 21  2  0  0  0
 20 23  1  0  0  0
 23 24  2  0  0  0
 24 25  1  0  0  0
 25 26  1  0  0  0
 25 27  2  0  0  0
 27 28  1  0  0  0
 28 29  1  0  0  0
 29 30  1  0  0  0
 30 31  1  0  0  0
 30 32  2  0  0  0
 32 33  1  0  0  0
  3  4  2  0  0  0
  4  5  1  0  0  0
  5  6  2  0  0  0
  6  7  1  0  0  0
  7  8  1  0  0  0
  8  9  1  0  0  0
 13 14  2  0  0  0
 14 15  1  0  0  0
 15 16  2  0  0  0
 16 11  1  0  0  0
  6  1  1  0  0  0
 33 23  1  0  0  0
  9  5  1  0  0  0
 33 28  2  0  0  0
 19 22  1  0  0  0
 29 34  1  0  0  0
  8 10  1  0  0  0
M  CHG 1  30   1
M  CHG 1  31  -1
M  END
> <minimizedAffinity>
-7.73115

> <minimizedRMSD>
0.66304

$$$$
P21031


 38 43  0  0  0  0  0  0  0  0999 V2000
   -8.2671    4.3585  -13.4858 N   0  0  0  0  0  0  0  0  0  0  0  0
   -7.1927    4.8000  -14.5126 C   0  0  0  0  0  0  0  0  0  0  0  0
   -6.1770    5.3577  -14.3544 O   0  0  0  0  0  0  0  0  0  0  0  0
   -9.0795    3.9677  -13.8815 H   0  0  0  0  0  0  0  0  0  0  0  0
   -7.6070    4.5299  -15.9125 C   0  0  0  0  0  0  0  0  0  0  0  0
   -8.9455    4.2784  -16.2080 C   0  0  0  0  0  0  0  0  0  0  0  0
   -9.3746    4.2204  -17.5345 C   0  0  0  0  0  0  0  0  0  0  0  0
  -10.6655    3.9730  -17.7891 F   0  0  0  0  0  0  0  0  0  0  0  0
   -8.4918    4.3979  -18.5904 C   0  0  0  0  0  0  0  0  0  0  0  0
   -7.1636    4.6287  -18.2898 C   0  0  0  0  0  0  0  0  0  0  0  0
   -6.7208    4.6839  -16.9692 C   0  0  0  0  0  0  0  0  0  0  0  0
   -5.2419    4.8757  -16.9565 C   0  0  0  0  0  0  0  0  0  0  0  0
   -4.9602    5.2312  -18.4528 C   0  0  0  0  0  0  0  0  0  0  0  0
   -3.6994    4.5201  -18.9617 C   0  0  0  0  0  0  0  0  0  0  0  0
   -2.4271    4.9937  -18.2551 C   0  0  0  0  0  0  0  0  0  0  0  0
   -2.4468    6.4746  -17.8777 C   0  0  0  0  0  0  0  0  0  0  0  0
   -3.3986    7.2752  -18.7520 C   0  0  0  0  0  0  0  0  0  0  0  0
   -4.8415    6.7692  -18.6564 C   0  0  0  0  0  0  0  0  0  0  0  0
   -6.1195    4.7298  -19.2360 N   0  0  0  0  0  0  0  0  0  0  0  0
   -6.1524    4.5166  -20.1966 H   0  0  0  0  0  0  0  0  0  0  0  0
   -8.1391    5.7692  -10.0392 C   0  0  0  0  0  0  0  0  0  0  0  0
   -8.1096    5.6572  -11.4431 C   0  0  0  0  0  0  0  0  0  0  0  0
   -8.2698    4.4250  -12.0912 C   0  0  0  0  0  0  0  0  0  0  0  0
   -8.4516    3.2673  -11.3359 C   0  0  0  0  0  0  0  0  0  0  0  0
   -8.4773    3.3729   -9.9519 C   0  0  0  0  0  0  0  0  0  0  0  0
   -8.3377    4.6042   -9.3131 C   0  0  0  0  0  0  0  0  0  0  0  0
   -8.3780    4.3848   -7.8362 C   0  0  0  0  0  0  0  0  0  0  0  0
   -8.8983    3.0131   -7.6516 N   0  0  0  0  0  0  0  0  0  0  0  0
   -8.5933    2.2985   -8.9181 C   0  0  0  0  0  0  0  0  0  0  0  0
   -9.9047    3.0328   -7.4869 H   0  0  0  0  0  0  0  0  0  0  0  0
   -6.3985    8.6996   -8.5592 C   0  0  0  0  0  0  0  0  0  0  0  0
   -6.6226    7.4121   -9.0032 C   0  0  0  0  0  0  0  0  0  0  0  0
   -7.9078    7.0707   -9.4208 C   0  0  0  0  0  0  0  0  0  0  0  0
   -8.9131    8.0345   -9.3171 C   0  0  0  0  0  0  0  0  0  0  0  0
   -8.5935    9.2857   -8.8116 C   0  0  0  0  0  0  0  0  0  0  0  0
   -7.3506    9.6451   -8.4309 N   0  0  0  0  0  0  0  0  0  0  0  0
   -4.5518    9.7955   -9.3152 C   0  0  0  0  0  0  0  0  0  0  0  0
   -5.1032    9.0367   -8.2436 O   0  0  0  0  0  0  0  0  0  0  0  0
 37 38  1  0  0  0
 38 31  1  0  0  0
 31 32  2  0  0  0
 32 33  1  0  0  0
 33 21  1  0  0  0
 21 22  2  0  0  0
 22 23  1  0  0  0
 23  1  1  0  0  0
  1  2  1  0  0  0
  2  3  2  0  0  0
  2  5  1  0  0  0
  5  6  2  0  0  0
  6  7  1  0  0  0
  7  8  1  0  0  0
  7  9  2  0  0  0
  9 10  1  0  0  0
 10 11  2  0  0  0
 11 12  1  0  0  0
 12 13  1  0  0  0
 13 14  1  0  0  0
 14 15  1  0  0  0
 15 16  1  0  0  0
 16 17  1  0  0  0
 17 18  1  0  0  0
 13 19  1  0  0  0
 23 24  2  0  0  0
 24 25  1  0  0  0
 25 26  2  0  0  0
 26 27  1  0  0  0
 27 28  1  0  0  0
 28 29  1  0  0  0
 33 34  2  0  0  0
 34 35  1  0  0  0
 35 36  2  0  0  0
 36 31  1  0  0  0
 26 21  1  0  0  0
 11  5  1  0  0  0
 18 13  1  0  0  0
 29 25  1  0  0  0
 19 10  1  0  0  0
  1  4  1  0  0  0
 19 20  1  0  0  0
 28 30  1  0  0  0
M  END
> <minimizedAffinity>
-8.99627

> <minimizedRMSD>
0.65535

$$$$
P21032


 39 44  0  0  0  0  0  0  0  0999 V2000
   -8.0935    4.1910  -13.0508 N   0  0  0  0  0  0  0  0  0  0  0  0
   -8.7131    5.0783  -14.1559 C   0  0  0  0  0  0  0  0  0  0  0  0
   -9.4085    6.0144  -14.0748 O   0  0  0  0  0  0  0  0  0  0  0  0
   -7.4736    3.4992  -13.3769 H   0  0  0  0  0  0  0  0  0  0  0  0
   -8.2959    4.6874  -15.5251 C   0  0  0  0  0  0  0  0  0  0  0  0
   -9.1568    4.0404  -16.4067 C   0  0  0  0  0  0  0  0  0  0  0  0
   -8.8043    3.9129  -17.7533 C   0  0  0  0  0  0  0  0  0  0  0  0
   -9.6747    3.3386  -18.5936 F   0  0  0  0  0  0  0  0  0  0  0  0
   -7.6056    4.4210  -18.2512 C   0  0  0  0  0  0  0  0  0  0  0  0
   -6.7477    5.0559  -17.3668 C   0  0  0  0  0  0  0  0  0  0  0  0
   -7.0785    5.1503  -16.0134 C   0  0  0  0  0  0  0  0  0  0  0  0
   -5.9866    5.8552  -15.2801 C   0  0  0  0  0  0  0  0  0  0  0  0
   -4.8669    5.9126  -16.2373 N   0  0  0  0  0  0  0  0  0  0  0  0
   -5.4582    5.8044  -17.6043 C   0  0  0  0  0  0  0  0  0  0  0  0
   -5.7455    7.2011  -18.1892 C   0  0  0  0  0  0  0  0  0  0  0  0
   -4.4948    7.9787  -18.5910 C   0  0  0  0  0  0  0  0  0  0  0  0
   -3.6237    7.2076  -19.4718 N   0  0  0  0  0  0  0  0  0  0  0  0
   -3.2519    5.9519  -18.8146 C   0  0  0  0  0  0  0  0  0  0  0  0
   -4.4732    5.0827  -18.5162 C   0  0  0  0  0  0  0  0  0  0  0  0
   -4.2236    5.1387  -16.0713 H   0  0  0  0  0  0  0  0  0  0  0  0
   -2.7823    7.7470  -19.6751 H   0  0  0  0  0  0  0  0  0  0  0  0
   -8.0960    5.4610   -9.5560 C   0  0  0  0  0  0  0  0  0  0  0  0
   -7.9959    5.3894  -10.9564 C   0  0  0  0  0  0  0  0  0  0  0  0
   -8.2698    4.2116  -11.6686 C   0  0  0  0  0  0  0  0  0  0  0  0
   -8.6655    3.0660  -10.9852 C   0  0  0  0  0  0  0  0  0  0  0  0
   -8.7733    3.1331   -9.6017 C   0  0  0  0  0  0  0  0  0  0  0  0
   -8.5054    4.3109   -8.8987 C   0  0  0  0  0  0  0  0  0  0  0  0
   -8.6752    4.0479   -7.4386 C   0  0  0  0  0  0  0  0  0  0  0  0
   -9.3585    2.7393   -7.3407 N   0  0  0  0  0  0  0  0  0  0  0  0
   -9.0942    2.0459   -8.6266 C   0  0  0  0  0  0  0  0  0  0  0  0
  -10.3612    2.8715   -7.2083 H   0  0  0  0  0  0  0  0  0  0  0  0
   -5.9995    8.0865   -7.9576 C   0  0  0  0  0  0  0  0  0  0  0  0
   -6.3953    6.8480   -8.4249 C   0  0  0  0  0  0  0  0  0  0  0  0
   -7.7034    6.6983   -8.8845 C   0  0  0  0  0  0  0  0  0  0  0  0
   -8.5552    7.7994   -8.7945 C   0  0  0  0  0  0  0  0  0  0  0  0
   -8.0790    8.9832   -8.2520 C   0  0  0  0  0  0  0  0  0  0  0  0
   -6.8100    9.1565   -7.8338 N   0  0  0  0  0  0  0  0  0  0  0  0
   -4.0670    9.1892   -8.4773 C   0  0  0  0  0  0  0  0  0  0  0  0
   -4.6736    8.2290   -7.6184 O   0  0  0  0  0  0  0  0  0  0  0  0
 38 39  1  0  0  0
 39 32  1  0  0  0
 32 33  2  0  0  0
 33 34  1  0  0  0
 34 22  1  0  0  0
 22 23  2  0  0  0
 23 24  1  0  0  0
 24  1  1  0  0  0
  1  2  1  0  0  0
  2  3  2  0  0  0
  2  5  1  0  0  0
  5  6  2  0  0  0
  6  7  1  0  0  0
  7  8  1  0  0  0
  7  9  2  0  0  0
  9 10  1  0  0  0
 10 11  2  0  0  0
 11 12  1  0  0  0
 12 13  1  0  0  0
 13 14  1  0  0  0
 14 15  1  0  0  0
 15 16  1  0  0  0
 16 17  1  0  0  0
 17 18  1  0  0  0
 18 19  1  0  0  0
 24 25  2  0  0  0
 25 26  1  0  0  0
 26 27  2  0  0  0
 27 28  1  0  0  0
 28 29  1  0  0  0
 29 30  1  0  0  0
 34 35  2  0  0  0
 35 36  1  0  0  0
 36 37  2  0  0  0
 37 32  1  0  0  0
 27 22  1  0  0  0
 11  5  1  0  0  0
 19 14  1  0  0  0
 30 26  1  0  0  0
 14 10  1  0  0  0
  1  4  1  0  0  0
 13 20  1  0  0  0
 17 21  1  0  0  0
 29 31  1  0  0  0
M  END
> <minimizedAffinity>
-8.78688

> <minimizedRMSD>
0.81526

$$$$
P21034


 44 48  0  0  0  0  0  0  0  0999 V2000
   -7.7175    5.0605  -14.1953 C   0  0  0  0  0  0  0  0  0  0  0  0
   -6.3508    5.2324  -13.8925 O   0  0  0  0  0  0  0  0  0  0  0  0
   -5.8715    4.4110  -14.0834 H   0  0  0  0  0  0  0  0  0  0  0  0
   -5.4855    5.2899  -16.8848 C   0  0  0  0  0  0  0  0  0  0  0  0
   -5.1091    5.3990  -18.1698 N   0  0  0  0  0  0  0  0  0  0  0  0
   -6.2078    5.0928  -18.8652 N   0  0  0  0  0  0  0  0  0  0  0  0
   -7.2891    4.7992  -18.0849 C   0  0  0  0  0  0  0  0  0  0  0  0
   -8.5682    4.4347  -18.4953 C   0  0  0  0  0  0  0  0  0  0  0  0
   -9.4881    4.2093  -17.4970 C   0  0  0  0  0  0  0  0  0  0  0  0
  -10.7376    3.8724  -17.8356 F   0  0  0  0  0  0  0  0  0  0  0  0
   -9.1529    4.3664  -16.1578 C   0  0  0  0  0  0  0  0  0  0  0  0
   -7.8572    4.7453  -15.7053 C   0  0  0  0  0  0  0  0  0  0  0  0
   -6.8844    4.9446  -16.7497 C   0  0  0  0  0  0  0  0  0  0  0  0
   -6.2354    5.0800  -19.8492 H   0  0  0  0  0  0  0  0  0  0  0  0
   -2.9992    5.4102  -16.2907 C   0  0  0  0  0  0  0  0  0  0  0  0
   -4.4482    5.5136  -15.8243 C   0  0  0  0  0  0  0  0  0  0  0  0
   -8.5970    6.3959  -13.9029 C   0  0  0  0  0  0  0  0  0  0  0  0
   -9.7664    6.4492  -13.9880 O   0  0  0  0  0  0  0  0  0  0  0  0
   -7.5567    7.4996  -13.5045 N   0  0  0  0  0  0  0  0  0  0  0  0
   -6.6143    7.2254  -13.5821 H   0  0  0  0  0  0  0  0  0  0  0  0
   -7.7580    8.8599  -13.0399 C   0  0  0  0  0  0  0  0  0  0  0  0
   -9.0306    9.1364  -12.2381 C   0  0  0  0  0  0  0  0  0  0  0  0
  -10.0921    9.2988  -13.0645 F   0  0  0  0  0  0  0  0  0  0  0  0
   -9.3099    8.1132  -11.4005 F   0  0  0  0  0  0  0  0  0  0  0  0
   -8.1157    3.9706  -13.2895 N   0  0  0  0  0  0  0  0  0  0  0  0
   -8.3046    3.0845  -13.6746 H   0  0  0  0  0  0  0  0  0  0  0  0
   -8.2390    4.1392  -11.8923 C   0  0  0  0  0  0  0  0  0  0  0  0
   -8.7228    3.0842  -11.1116 C   0  0  0  0  0  0  0  0  0  0  0  0
   -8.7695    3.2033   -9.7227 C   0  0  0  0  0  0  0  0  0  0  0  0
   -8.3575    4.3614   -9.0708 C   0  0  0  0  0  0  0  0  0  0  0  0
   -7.8387    5.4198   -9.7870 C   0  0  0  0  0  0  0  0  0  0  0  0
   -7.7554    5.2598  -11.1879 C   0  0  0  0  0  0  0  0  0  0  0  0
   -8.5080    4.1742   -7.5986 C   0  0  0  0  0  0  0  0  0  0  0  0
   -9.3024    2.9434   -7.4250 N   0  0  0  0  0  0  0  0  0  0  0  0
   -9.1683    2.1888   -8.6982 C   0  0  0  0  0  0  0  0  0  0  0  0
  -10.2806    3.1742   -7.2508 H   0  0  0  0  0  0  0  0  0  0  0  0
   -7.3577    6.6651   -9.1875 C   0  0  0  0  0  0  0  0  0  0  0  0
   -8.1814    7.4645   -8.3922 C   0  0  0  0  0  0  0  0  0  0  0  0
   -7.7271    8.7060   -7.9767 C   0  0  0  0  0  0  0  0  0  0  0  0
   -6.5283    9.2165   -8.3237 N   0  0  0  0  0  0  0  0  0  0  0  0
   -5.7526    8.4275   -9.0946 C   0  0  0  0  0  0  0  0  0  0  0  0
   -6.0946    7.1557   -9.5133 C   0  0  0  0  0  0  0  0  0  0  0  0
   -4.5374    8.9053   -9.5334 O   0  0  0  0  0  0  0  0  0  0  0  0
   -4.5040    8.9672  -10.9531 C   0  0  0  0  0  0  0  0  0  0  0  0
 15 16  1  0  0  0
 16  4  1  0  0  0
  4  5  2  0  0  0
  5  6  1  0  0  0
  6  7  1  0  0  0
  7  8  2  0  0  0
  8  9  1  0  0  0
  9 10  1  0  0  0
  9 11  2  0  0  0
 11 12  1  0  0  0
 12  1  1  0  0  0
  1  2  1  0  0  0
  1 25  1  0  0  0
 25 27  1  0  0  0
 27 28  2  0  0  0
 28 29  1  0  0  0
 29 30  2  0  0  0
 30 31  1  0  0  0
 31 37  1  0  0  0
 37 38  2  0  0  0
 38 39  1  0  0  0
 39 40  2  0  0  0
 40 41  1  0  0  0
 41 43  1  0  0  0
 43 44  1  0  0  0
 41 42  2  0  0  0
 31 32  2  0  0  0
 30 33  1  0  0  0
 33 34  1  0  0  0
 34 35  1  0  0  0
  1 17  1  0  0  0
 17 18  2  0  0  0
 17 19  1  0  0  0
 19 21  1  0  0  0
 21 22  1  0  0  0
 22 23  1  0  0  0
 22 24  1  0  0  0
 12 13  2  0  0  0
 13  4  1  0  0  0
 13  7  1  0  0  0
 32 27  1  0  0  0
 35 29  1  0  0  0
 42 37  1  0  0  0
  6 14  1  0  0  0
  2  3  1  0  0  0
 25 26  1  0  0  0
 34 36  1  0  0  0
 19 20  1  0  0  0
M  END
> <minimizedAffinity>
-7.86596

> <minimizedRMSD>
0.48377

$$$$
P21036


 34 38  0  0  0  0  0  0  0  0999 V2000
   -8.0854    5.5785   -9.6179 C   0  0  0  0  0  0  0  0  0  0  0  0
   -7.9774    5.5097  -11.0215 C   0  0  0  0  0  0  0  0  0  0  0  0
   -8.2975    4.3448  -11.7324 C   0  0  0  0  0  0  0  0  0  0  0  0
   -8.7210    3.2113  -11.0394 C   0  0  0  0  0  0  0  0  0  0  0  0
   -8.8155    3.2711   -9.6557 C   0  0  0  0  0  0  0  0  0  0  0  0
   -8.5165    4.4381   -8.9557 C   0  0  0  0  0  0  0  0  0  0  0  0
   -8.6872    4.1776   -7.4940 C   0  0  0  0  0  0  0  0  0  0  0  0
   -9.4305    2.9010   -7.4015 N   0  0  0  0  0  0  0  0  0  0  0  0
   -9.1690    2.1948   -8.6805 C   0  0  0  0  0  0  0  0  0  0  0  0
  -10.4288    3.0774   -7.2896 H   0  0  0  0  0  0  0  0  0  0  0  0
   -6.0809    8.1552   -7.8349 C   0  0  0  0  0  0  0  0  0  0  0  0
   -6.4528    6.9276   -8.3472 C   0  0  0  0  0  0  0  0  0  0  0  0
   -7.7127    6.8100   -8.9293 C   0  0  0  0  0  0  0  0  0  0  0  0
   -8.5501    7.9266   -8.9158 C   0  0  0  0  0  0  0  0  0  0  0  0
   -8.1021    9.0998   -8.3293 C   0  0  0  0  0  0  0  0  0  0  0  0
   -6.8766    9.2428   -7.7876 N   0  0  0  0  0  0  0  0  0  0  0  0
   -3.9780    8.8748   -8.3536 C   0  0  0  0  0  0  0  0  0  0  0  0
   -4.7952    8.2668   -7.3590 O   0  0  0  0  0  0  0  0  0  0  0  0
   -8.1999    4.3117  -13.1252 N   0  0  0  0  0  0  0  0  0  0  0  0
   -7.0559    4.7719  -14.0659 C   0  0  0  0  0  0  0  0  0  0  0  0
   -6.0512    5.3202  -13.8255 O   0  0  0  0  0  0  0  0  0  0  0  0
   -8.9849    3.9350  -13.5846 H   0  0  0  0  0  0  0  0  0  0  0  0
   -7.3484    4.5366  -15.4992 C   0  0  0  0  0  0  0  0  0  0  0  0
   -8.6594    4.3396  -15.9386 C   0  0  0  0  0  0  0  0  0  0  0  0
   -8.9469    4.3360  -17.2969 C   0  0  0  0  0  0  0  0  0  0  0  0
  -10.2170    4.1895  -17.6902 F   0  0  0  0  0  0  0  0  0  0  0  0
   -7.9610    4.4984  -18.2649 C   0  0  0  0  0  0  0  0  0  0  0  0
   -6.6446    4.6658  -17.8138 C   0  0  0  0  0  0  0  0  0  0  0  0
   -6.3234    4.6961  -16.4568 C   0  0  0  0  0  0  0  0  0  0  0  0
   -4.9315    4.9238  -16.4324 C   0  0  0  0  0  0  0  0  0  0  0  0
   -4.3953    5.0119  -17.6507 N   0  0  0  0  0  0  0  0  0  0  0  0
   -5.4518    4.8402  -18.4927 N   0  0  0  0  0  0  0  0  0  0  0  0
   -5.3252    4.8558  -19.9780 C   0  0  0  0  0  0  0  0  0  0  0  0
   -5.2311    4.8494  -21.1381 N   0  0  0  0  0  0  0  0  0  0  0  0
 17 18  1  0  0  0
 18 11  1  0  0  0
 11 12  2  0  0  0
 12 13  1  0  0  0
 13  1  1  0  0  0
  1  2  2  0  0  0
  2  3  1  0  0  0
  3 19  1  0  0  0
 19 20  1  0  0  0
 20 21  2  0  0  0
 20 23  1  0  0  0
 23 24  2  0  0  0
 24 25  1  0  0  0
 25 26  1  0  0  0
 25 27  2  0  0  0
 27 28  1  0  0  0
 28 29  2  0  0  0
 29 30  1  0  0  0
 30 31  2  0  0  0
 31 32  1  0  0  0
 32 33  1  0  0  0
 33 34  3  0  0  0
  3  4  2  0  0  0
  4  5  1  0  0  0
  5  6  2  0  0  0
  6  7  1  0  0  0
  7  8  1  0  0  0
  8  9  1  0  0  0
 13 14  2  0  0  0
 14 15  1  0  0  0
 15 16  2  0  0  0
 16 11  1  0  0  0
  6  1  1  0  0  0
 29 23  1  0  0  0
  9  5  1  0  0  0
 32 28  1  0  0  0
 19 22  1  0  0  0
  8 10  1  0  0  0
M  END
> <minimizedAffinity>
-7.79558

> <minimizedRMSD>
0.64298

$$$$
P21037


 35 39  0  0  0  0  0  0  0  0999 V2000
   -8.0788    5.1655   -9.4591 C   0  0  0  0  0  0  0  0  0  0  0  0
   -8.0167    5.1371  -10.8683 C   0  0  0  0  0  0  0  0  0  0  0  0
   -8.3974    4.0145  -11.6214 C   0  0  0  0  0  0  0  0  0  0  0  0
   -8.8581    2.8688  -10.9752 C   0  0  0  0  0  0  0  0  0  0  0  0
   -8.9328    2.8840   -9.5875 C   0  0  0  0  0  0  0  0  0  0  0  0
   -8.5631    4.0174   -8.8499 C   0  0  0  0  0  0  0  0  0  0  0  0
   -8.7852    3.7003   -7.4260 C   0  0  0  0  0  0  0  0  0  0  0  0
   -8.5375    4.4124   -6.4723 O   0  0  0  0  0  0  0  0  0  0  0  0
   -9.3469    2.4429   -7.3796 N   0  0  0  0  0  0  0  0  0  0  0  0
   -9.3537    1.7883   -8.6639 C   0  0  0  0  0  0  0  0  0  0  0  0
   -9.7049    2.0356   -6.5580 H   0  0  0  0  0  0  0  0  0  0  0  0
   -5.8289    7.6518   -7.8245 C   0  0  0  0  0  0  0  0  0  0  0  0
   -6.2952    6.4486   -8.3198 C   0  0  0  0  0  0  0  0  0  0  0  0
   -7.6151    6.3696   -8.7662 C   0  0  0  0  0  0  0  0  0  0  0  0
   -8.4109    7.5041   -8.6194 C   0  0  0  0  0  0  0  0  0  0  0  0
   -7.8605    8.6570   -8.0778 C   0  0  0  0  0  0  0  0  0  0  0  0
   -6.5749    8.7641   -7.6879 N   0  0  0  0  0  0  0  0  0  0  0  0
   -3.8941    8.8971   -7.8629 C   0  0  0  0  0  0  0  0  0  0  0  0
   -4.5043    7.6825   -7.4498 O   0  0  0  0  0  0  0  0  0  0  0  0
   -8.3153    4.0576  -13.0131 N   0  0  0  0  0  0  0  0  0  0  0  0
   -7.7066    5.1316  -13.9537 C   0  0  0  0  0  0  0  0  0  0  0  0
   -7.2497    6.1797  -13.7110 O   0  0  0  0  0  0  0  0  0  0  0  0
   -8.7072    3.2806  -13.4736 H   0  0  0  0  0  0  0  0  0  0  0  0
   -7.7867    4.6794  -15.3807 C   0  0  0  0  0  0  0  0  0  0  0  0
   -8.9163    4.1467  -15.8821 C   0  0  0  0  0  0  0  0  0  0  0  0
   -9.0758    3.9141  -17.3052 C   0  0  0  0  0  0  0  0  0  0  0  0
  -10.2623    3.4218  -17.7111 F   0  0  0  0  0  0  0  0  0  0  0  0
   -8.1445    4.2110  -18.2195 C   0  0  0  0  0  0  0  0  0  0  0  0
   -6.8685    4.7753  -17.7506 C   0  0  0  0  0  0  0  0  0  0  0  0
   -6.7310    4.9956  -16.3013 C   0  0  0  0  0  0  0  0  0  0  0  0
   -5.5029    5.5053  -16.2029 C   0  0  0  0  0  0  0  0  0  0  0  0
   -4.8270    5.5747  -17.5084 N   0  0  0  0  0  0  0  0  0  0  0  0
   -4.5502    6.8517  -17.7908 O   0  0  0  0  0  0  0  0  0  0  0  0
   -5.8390    5.0819  -18.4721 N   0  0  0  0  0  0  0  0  0  0  0  0
   -4.1634    4.8476  -17.4991 H   0  0  0  0  0  0  0  0  0  0  0  0
 18 19  1  0  0  0
 19 12  1  0  0  0
 12 13  2  0  0  0
 13 14  1  0  0  0
 14  1  1  0  0  0
  1  2  2  0  0  0
  2  3  1  0  0  0
  3 20  1  0  0  0
 20 21  1  0  0  0
 21 22  2  0  0  0
 21 24  1  0  0  0
 24 25  2  0  0  0
 25 26  1  0  0  0
 26 27  1  0  0  0
 26 28  2  0  0  0
 28 29  1  0  0  0
 29 30  1  0  0  0
 30 31  2  0  0  0
 31 32  1  0  0  0
 32 33  1  0  0  0
 32 34  1  0  0  0
  3  4  2  0  0  0
  4  5  1  0  0  0
  5  6  2  0  0  0
  6  7  1  0  0  0
  7  8  2  0  0  0
  7  9  1  0  0  0
  9 10  1  0  0  0
 14 15  2  0  0  0
 15 16  1  0  0  0
 16 17  2  0  0  0
 17 12  1  0  0  0
  6  1  1  0  0  0
 30 24  1  0  0  0
 10  5  1  0  0  0
 34 29  2  0  0  0
 20 23  1  0  0  0
 32 35  1  0  0  0
  9 11  1  0  0  0
M  CHG 1  32   1
M  CHG 1  33  -1
M  END
> <minimizedAffinity>
-9.30723

> <minimizedRMSD>
0.63047

$$$$
P21039


 39 44  0  0  0  0  0  0  0  0999 V2000
   -8.2186    3.9159  -13.1086 N   0  0  0  0  0  0  0  0  0  0  0  0
   -8.8265    4.8061  -14.1992 C   0  0  0  0  0  0  0  0  0  0  0  0
   -9.6267    5.6490  -14.1271 O   0  0  0  0  0  0  0  0  0  0  0  0
   -7.6087    3.2174  -13.4394 H   0  0  0  0  0  0  0  0  0  0  0  0
   -8.2030    4.5910  -15.5054 C   0  0  0  0  0  0  0  0  0  0  0  0
   -8.8846    4.0881  -16.6018 C   0  0  0  0  0  0  0  0  0  0  0  0
   -8.2811    4.1752  -17.8579 C   0  0  0  0  0  0  0  0  0  0  0  0
   -8.9758    3.7503  -18.9239 F   0  0  0  0  0  0  0  0  0  0  0  0
   -7.0057    4.7324  -18.0272 C   0  0  0  0  0  0  0  0  0  0  0  0
   -6.3188    5.1656  -16.9033 C   0  0  0  0  0  0  0  0  0  0  0  0
   -6.9230    5.1040  -15.6614 C   0  0  0  0  0  0  0  0  0  0  0  0
   -6.0547    5.7270  -14.6212 C   0  0  0  0  0  0  0  0  0  0  0  0
   -4.7467    6.0046  -15.4066 C   0  0  0  0  0  0  0  0  0  0  0  0
   -4.3328    7.4722  -15.1913 C   0  0  0  0  0  0  0  0  0  0  0  0
   -2.8478    7.6828  -15.4779 C   0  0  0  0  0  0  0  0  0  0  0  0
   -1.9707    6.8822  -14.6100 N   0  0  0  0  0  0  0  0  0  0  0  0
   -1.3093    7.7031  -13.5972 C   0  0  0  0  0  0  0  0  0  0  0  0
   -2.6574    5.7457  -13.9856 C   0  0  0  0  0  0  0  0  0  0  0  0
   -3.6068    5.0673  -14.9728 C   0  0  0  0  0  0  0  0  0  0  0  0
   -5.0686    5.8113  -16.8586 N   0  0  0  0  0  0  0  0  0  0  0  0
   -4.5159    6.0819  -17.6271 H   0  0  0  0  0  0  0  0  0  0  0  0
   -8.0724    5.2189   -9.6641 C   0  0  0  0  0  0  0  0  0  0  0  0
   -8.0516    5.1172  -11.0598 C   0  0  0  0  0  0  0  0  0  0  0  0
   -8.3875    3.9344  -11.7354 C   0  0  0  0  0  0  0  0  0  0  0  0
   -8.7896    2.8139  -11.0302 C   0  0  0  0  0  0  0  0  0  0  0  0
   -8.8898    2.9353   -9.6523 C   0  0  0  0  0  0  0  0  0  0  0  0
   -8.5334    4.1093   -8.9753 C   0  0  0  0  0  0  0  0  0  0  0  0
   -8.6974    3.8867   -7.5103 C   0  0  0  0  0  0  0  0  0  0  0  0
   -9.4218    2.6086   -7.3686 N   0  0  0  0  0  0  0  0  0  0  0  0
   -9.3148    1.9005   -8.6674 C   0  0  0  0  0  0  0  0  0  0  0  0
  -10.4014    2.7845   -7.1457 H   0  0  0  0  0  0  0  0  0  0  0  0
   -5.7498    7.9841   -8.7556 C   0  0  0  0  0  0  0  0  0  0  0  0
   -6.1875    6.7184   -9.1022 C   0  0  0  0  0  0  0  0  0  0  0  0
   -7.5575    6.4510   -9.0687 C   0  0  0  0  0  0  0  0  0  0  0  0
   -8.4007    7.4677   -8.6309 C   0  0  0  0  0  0  0  0  0  0  0  0
   -7.8602    8.6846   -8.2440 C   0  0  0  0  0  0  0  0  0  0  0  0
   -6.5457    8.9709   -8.3004 N   0  0  0  0  0  0  0  0  0  0  0  0
   -4.2053    9.5719   -9.3751 C   0  0  0  0  0  0  0  0  0  0  0  0
   -4.4060    8.2385   -8.9183 O   0  0  0  0  0  0  0  0  0  0  0  0
 38 39  1  0  0  0
 39 32  1  0  0  0
 32 33  2  0  0  0
 33 34  1  0  0  0
 34 22  1  0  0  0
 22 23  2  0  0  0
 23 24  1  0  0  0
 24  1  1  0  0  0
  1  2  1  0  0  0
  2  3  2  0  0  0
  2  5  1  0  0  0
  5  6  2  0  0  0
  6  7  1  0  0  0
  7  8  1  0  0  0
  7  9  2  0  0  0
  9 10  1  0  0  0
 10 11  2  0  0  0
 11 12  1  0  0  0
 12 13  1  0  0  0
 13 14  1  0  0  0
 14 15  1  0  0  0
 15 16  1  0  0  0
 16 17  1  0  0  0
 16 18  1  0  0  0
 18 19  1  0  0  0
 13 20  1  0  0  0
 24 25  2  0  0  0
 25 26  1  0  0  0
 26 27  2  0  0  0
 27 28  1  0  0  0
 28 29  1  0  0  0
 29 30  1  0  0  0
 34 35  2  0  0  0
 35 36  1  0  0  0
 36 37  2  0  0  0
 37 32  1  0  0  0
 27 22  1  0  0  0
 11  5  1  0  0  0
 19 13  1  0  0  0
 30 26  1  0  0  0
 20 10  1  0  0  0
  1  4  1  0  0  0
 20 21  1  0  0  0
 29 31  1  0  0  0
M  END
> <minimizedAffinity>
-10.07347

> <minimizedRMSD>
0.67574

$$$$
P21040


 39 44  0  0  0  0  0  0  0  0999 V2000
   -8.1764    4.0529  -13.0929 N   0  0  0  0  0  0  0  0  0  0  0  0
   -7.5545    5.1113  -14.0379 C   0  0  0  0  0  0  0  0  0  0  0  0
   -7.0187    6.1209  -13.7958 O   0  0  0  0  0  0  0  0  0  0  0  0
   -8.5055    3.2413  -13.5425 H   0  0  0  0  0  0  0  0  0  0  0  0
   -7.6738    4.7379  -15.4717 C   0  0  0  0  0  0  0  0  0  0  0  0
   -8.8730    4.2133  -15.9671 C   0  0  0  0  0  0  0  0  0  0  0  0
   -9.0276    3.9995  -17.3416 C   0  0  0  0  0  0  0  0  0  0  0  0
  -10.2048    3.5566  -17.7965 F   0  0  0  0  0  0  0  0  0  0  0  0
   -8.0055    4.2651  -18.2420 C   0  0  0  0  0  0  0  0  0  0  0  0
   -6.8295    4.7735  -17.7260 C   0  0  0  0  0  0  0  0  0  0  0  0
   -6.6476    5.0335  -16.3711 C   0  0  0  0  0  0  0  0  0  0  0  0
   -5.2759    5.5817  -16.0877 C   0  0  0  0  0  0  0  0  0  0  0  0
   -4.6440    5.8250  -17.4890 C   0  0  0  0  0  0  0  0  0  0  0  0
   -3.2387    5.2011  -17.5939 C   0  0  0  0  0  0  0  0  0  0  0  0
   -2.3487    5.9836  -18.5491 C   0  0  0  0  0  0  0  0  0  0  0  0
   -2.2059    7.4307  -18.0867 C   0  0  0  0  0  0  0  0  0  0  0  0
   -3.4031    7.9698  -17.4210 N   0  0  0  0  0  0  0  0  0  0  0  0
   -4.6248    7.3168  -17.8914 C   0  0  0  0  0  0  0  0  0  0  0  0
   -5.6032    5.1228  -18.4360 C   0  0  0  0  0  0  0  0  0  0  0  0
   -5.3827    4.8820  -19.6110 O   0  0  0  0  0  0  0  0  0  0  0  0
   -3.4670    8.9692  -17.6145 H   0  0  0  0  0  0  0  0  0  0  0  0
   -8.1604    5.2812   -9.5802 C   0  0  0  0  0  0  0  0  0  0  0  0
   -8.0578    5.2250  -10.9825 C   0  0  0  0  0  0  0  0  0  0  0  0
   -8.3457    4.0630  -11.7095 C   0  0  0  0  0  0  0  0  0  0  0  0
   -8.7753    2.9191  -11.0406 C   0  0  0  0  0  0  0  0  0  0  0  0
   -8.8817    2.9695   -9.6559 C   0  0  0  0  0  0  0  0  0  0  0  0
   -8.5795    4.1259   -8.9362 C   0  0  0  0  0  0  0  0  0  0  0  0
   -8.7705    3.8617   -7.4816 C   0  0  0  0  0  0  0  0  0  0  0  0
   -9.0908    2.4253   -7.3472 N   0  0  0  0  0  0  0  0  0  0  0  0
   -9.3048    1.8915   -8.7161 C   0  0  0  0  0  0  0  0  0  0  0  0
   -9.9369    2.3069   -6.7900 H   0  0  0  0  0  0  0  0  0  0  0  0
   -6.0949    7.8710   -7.8735 C   0  0  0  0  0  0  0  0  0  0  0  0
   -6.5002    6.6377   -8.3469 C   0  0  0  0  0  0  0  0  0  0  0  0
   -7.7752    6.5195   -8.9009 C   0  0  0  0  0  0  0  0  0  0  0  0
   -8.5920    7.6490   -8.8865 C   0  0  0  0  0  0  0  0  0  0  0  0
   -8.1088    8.8325   -8.3473 C   0  0  0  0  0  0  0  0  0  0  0  0
   -6.8686    8.9729   -7.8417 N   0  0  0  0  0  0  0  0  0  0  0  0
   -4.0979    8.9599   -8.1372 C   0  0  0  0  0  0  0  0  0  0  0  0
   -4.8031    7.9611   -7.4094 O   0  0  0  0  0  0  0  0  0  0  0  0
 38 39  1  0  0  0
 39 32  1  0  0  0
 32 33  2  0  0  0
 33 34  1  0  0  0
 34 22  1  0  0  0
 22 23  2  0  0  0
 23 24  1  0  0  0
 24  1  1  0  0  0
  1  2  1  0  0  0
  2  3  2  0  0  0
  2  5  1  0  0  0
  5  6  2  0  0  0
  6  7  1  0  0  0
  7  8  1  0  0  0
  7  9  2  0  0  0
  9 10  1  0  0  0
 10 11  2  0  0  0
 11 12  1  0  0  0
 13 12  1  0  0  0
 13 14  1  0  0  0
 14 15  1  0  0  0
 15 16  1  0  0  0
 16 17  1  0  0  0
 17 18  1  0  0  0
 13 19  1  0  0  0
 19 20  2  0  0  0
 24 25  2  0  0  0
 25 26  1  0  0  0
 26 27  2  0  0  0
 27 28  1  0  0  0
 28 29  1  0  0  0
 29 30  1  0  0  0
 34 35  2  0  0  0
 35 36  1  0  0  0
 36 37  2  0  0  0
 37 32  1  0  0  0
 27 22  1  0  0  0
 11  5  1  0  0  0
 18 13  1  0  0  0
 30 26  1  0  0  0
 19 10  1  0  0  0
  1  4  1  0  0  0
 17 21  1  0  0  0
 29 31  1  0  0  0
M  END
> <minimizedAffinity>
-10.47321

> <minimizedRMSD>
0.48476

$$$$
P21041


 37 41  0  0  0  0  0  0  0  0999 V2000
   -8.4709    4.4169  -12.0550 C   0  0  0  0  0  0  0  0  0  0  0  0
   -8.7053    3.3041  -11.2548 C   0  0  0  0  0  0  0  0  0  0  0  0
   -8.6935    3.4737   -9.8789 C   0  0  0  0  0  0  0  0  0  0  0  0
   -8.4404    4.7181   -9.2932 C   0  0  0  0  0  0  0  0  0  0  0  0
   -8.1667    5.8395  -10.0670 C   0  0  0  0  0  0  0  0  0  0  0  0
   -8.2092    5.6638  -11.4627 C   0  0  0  0  0  0  0  0  0  0  0  0
   -8.4657    4.5485   -7.8067 C   0  0  0  0  0  0  0  0  0  0  0  0
   -9.1378    3.2501   -7.5735 N   0  0  0  0  0  0  0  0  0  0  0  0
   -8.8745    2.4569   -8.7978 C   0  0  0  0  0  0  0  0  0  0  0  0
  -10.1403    3.3839   -7.4417 H   0  0  0  0  0  0  0  0  0  0  0  0
   -7.8340    7.1553   -9.5078 C   0  0  0  0  0  0  0  0  0  0  0  0
   -8.8027    8.1522   -9.3696 C   0  0  0  0  0  0  0  0  0  0  0  0
   -8.4810    9.4171   -8.8721 C   0  0  0  0  0  0  0  0  0  0  0  0
   -7.1706    9.7203   -8.5005 C   0  0  0  0  0  0  0  0  0  0  0  0
   -6.8305   11.0848   -7.9754 C   0  0  0  0  0  0  0  0  0  0  0  0
   -6.1851    8.7390   -8.6550 C   0  0  0  0  0  0  0  0  0  0  0  0
   -6.5183    7.4657   -9.1321 C   0  0  0  0  0  0  0  0  0  0  0  0
   -4.9112    9.0751   -8.2768 O   0  0  0  0  0  0  0  0  0  0  0  0
   -3.9408    8.8499   -9.2951 C   0  0  0  0  0  0  0  0  0  0  0  0
   -9.0361    5.2099  -14.5401 C   0  0  0  0  0  0  0  0  0  0  0  0
   -9.6850    6.1772  -14.4522 O   0  0  0  0  0  0  0  0  0  0  0  0
   -8.4557    4.2910  -13.4433 N   0  0  0  0  0  0  0  0  0  0  0  0
   -8.0010    3.4849  -13.7791 H   0  0  0  0  0  0  0  0  0  0  0  0
   -5.4150    4.8497  -17.3990 N   0  0  0  0  0  0  0  0  0  0  0  0
   -4.9584    5.0560  -16.1337 N   0  0  0  0  0  0  0  0  0  0  0  0
   -6.0611    5.0271  -15.3953 C   0  0  0  0  0  0  0  0  0  0  0  0
   -7.2230    4.8398  -16.1707 C   0  0  0  0  0  0  0  0  0  0  0  0
   -8.6016    4.8302  -15.9033 C   0  0  0  0  0  0  0  0  0  0  0  0
   -9.4823    4.6126  -16.9588 C   0  0  0  0  0  0  0  0  0  0  0  0
   -9.0021    4.4553  -18.2544 C   0  0  0  0  0  0  0  0  0  0  0  0
   -9.8770    4.2901  -19.2538 F   0  0  0  0  0  0  0  0  0  0  0  0
   -7.6431    4.4943  -18.5560 C   0  0  0  0  0  0  0  0  0  0  0  0
   -6.7723    4.6905  -17.4799 C   0  0  0  0  0  0  0  0  0  0  0  0
   -4.4711    4.9240  -18.5107 C   0  0  0  0  0  0  0  0  0  0  0  0
   -2.2425    4.2670  -19.1705 C   0  0  0  0  0  0  0  0  0  0  0  0
   -3.1887    4.3451  -18.0608 N   0  0  0  0  0  0  0  0  0  0  0  0
   -2.7953    4.9326  -17.3256 H   0  0  0  0  0  0  0  0  0  0  0  0
 35 36  1  0  0  0
 36 34  1  0  0  0
 34 24  1  0  0  0
 24 25  1  0  0  0
 25 26  2  0  0  0
 26 27  1  0  0  0
 27 28  2  0  0  0
 28 20  1  0  0  0
 20 21  2  0  0  0
 20 22  1  0  0  0
 22  1  1  0  0  0
  1  2  2  0  0  0
  2  3  1  0  0  0
  3  4  2  0  0  0
  4  5  1  0  0  0
  5 11  1  0  0  0
 11 12  2  0  0  0
 12 13  1  0  0  0
 13 14  2  0  0  0
 14 15  1  0  0  0
 14 16  1  0  0  0
 16 18  1  0  0  0
 18 19  1  0  0  0
 16 17  2  0  0  0
  5  6  2  0  0  0
  4  7  1  0  0  0
  7  8  1  0  0  0
  8  9  1  0  0  0
 28 29  1  0  0  0
 29 30  2  0  0  0
 30 31  1  0  0  0
 30 32  1  0  0  0
 32 33  2  0  0  0
 33 24  1  0  0  0
 33 27  1  0  0  0
  6  1  1  0  0  0
  9  3  1  0  0  0
 17 11  1  0  0  0
 36 37  1  0  0  0
 22 23  1  0  0  0
  8 10  1  0  0  0
M  END
> <minimizedAffinity>
-7.78239

> <minimizedRMSD>
1.16350

$$$$
P21044


 36 40  0  0  0  0  0  0  0  0999 V2000
   -8.8923    5.1831  -14.2654 C   0  0  0  0  0  0  0  0  0  0  0  0
   -9.5063    6.1654  -14.1127 O   0  0  0  0  0  0  0  0  0  0  0  0
   -8.3749    4.1530  -13.2331 N   0  0  0  0  0  0  0  0  0  0  0  0
   -7.9422    3.3597  -13.6237 H   0  0  0  0  0  0  0  0  0  0  0  0
   -5.6028    5.2110  -17.5850 N   0  0  0  0  0  0  0  0  0  0  0  0
   -5.0076    5.5318  -16.4084 N   0  0  0  0  0  0  0  0  0  0  0  0
   -6.0123    5.4891  -15.5318 C   0  0  0  0  0  0  0  0  0  0  0  0
   -7.2306    5.0666  -16.1097 C   0  0  0  0  0  0  0  0  0  0  0  0
   -8.5439    4.8233  -15.6556 C   0  0  0  0  0  0  0  0  0  0  0  0
   -9.5112    4.3686  -16.5569 C   0  0  0  0  0  0  0  0  0  0  0  0
   -9.1802    4.1949  -17.8926 C   0  0  0  0  0  0  0  0  0  0  0  0
  -10.1220    3.7740  -18.7462 F   0  0  0  0  0  0  0  0  0  0  0  0
   -7.9014    4.4587  -18.3779 C   0  0  0  0  0  0  0  0  0  0  0  0
   -6.9347    4.8854  -17.4578 C   0  0  0  0  0  0  0  0  0  0  0  0
   -4.7913    5.1109  -18.7920 C   0  0  0  0  0  0  0  0  0  0  0  0
   -5.4150    7.1534  -19.9325 C   0  0  0  0  0  0  0  0  0  0  0  0
   -5.4947    5.7017  -19.9297 N   0  0  0  0  0  0  0  0  0  0  0  0
   -5.0794    5.3485  -20.7917 H   0  0  0  0  0  0  0  0  0  0  0  0
   -8.4218    4.1658  -11.8421 C   0  0  0  0  0  0  0  0  0  0  0  0
   -8.7896    3.0216  -11.1409 C   0  0  0  0  0  0  0  0  0  0  0  0
   -8.8417    3.0946   -9.7590 C   0  0  0  0  0  0  0  0  0  0  0  0
   -8.5469    4.2787   -9.0702 C   0  0  0  0  0  0  0  0  0  0  0  0
   -8.1564    5.4229   -9.7468 C   0  0  0  0  0  0  0  0  0  0  0  0
   -8.1020    5.3424  -11.1491 C   0  0  0  0  0  0  0  0  0  0  0  0
   -8.7115    4.0252   -7.6025 C   0  0  0  0  0  0  0  0  0  0  0  0
   -9.5273    2.7947   -7.5515 N   0  0  0  0  0  0  0  0  0  0  0  0
   -9.3409    2.0314   -6.3360 C   0  0  0  0  0  0  0  0  0  0  0  0
   -9.1764    2.0257   -8.7650 C   0  0  0  0  0  0  0  0  0  0  0  0
   -7.7901    6.6782   -9.0982 C   0  0  0  0  0  0  0  0  0  0  0  0
   -8.6719    7.7581   -9.0323 C   0  0  0  0  0  0  0  0  0  0  0  0
   -8.2214    8.9682   -8.5273 C   0  0  0  0  0  0  0  0  0  0  0  0
   -6.9576    9.1791   -8.1092 N   0  0  0  0  0  0  0  0  0  0  0  0
   -6.1207    8.1273   -8.2070 C   0  0  0  0  0  0  0  0  0  0  0  0
   -6.4853    6.8697   -8.6465 C   0  0  0  0  0  0  0  0  0  0  0  0
   -4.8006    8.3072   -7.8642 O   0  0  0  0  0  0  0  0  0  0  0  0
   -3.9713    7.8970   -8.9471 C   0  0  0  0  0  0  0  0  0  0  0  0
 16 17  1  0  0  0
 17 15  1  0  0  0
 15  5  1  0  0  0
  5  6  1  0  0  0
  6  7  2  0  0  0
  7  8  1  0  0  0
  8  9  2  0  0  0
  9  1  1  0  0  0
  1  2  2  0  0  0
  1  3  1  0  0  0
  3 19  1  0  0  0
 19 20  2  0  0  0
 20 21  1  0  0  0
 21 22  2  0  0  0
 22 23  1  0  0  0
 23 29  1  0  0  0
 29 30  2  0  0  0
 30 31  1  0  0  0
 31 32  2  0  0  0
 32 33  1  0  0  0
 33 35  1  0  0  0
 35 36  1  0  0  0
 33 34  2  0  0  0
 23 24  2  0  0  0
 22 25  1  0  0  0
 25 26  1  0  0  0
 26 27  1  0  0  0
 26 28  1  0  0  0
  9 10  1  0  0  0
 10 11  2  0  0  0
 11 12  1  0  0  0
 11 13  1  0  0  0
 13 14  2  0  0  0
 14  5  1  0  0  0
 14  8  1  0  0  0
 24 19  1  0  0  0
 28 21  1  0  0  0
 34 29  1  0  0  0
 17 18  1  0  0  0
  3  4  1  0  0  0
M  END
> <minimizedAffinity>
-8.60565

> <minimizedRMSD>
0.79076

$$$$
P21046


 33 37  0  0  0  0  0  0  0  0999 V2000
   -7.5108    4.6121  -15.4170 C   0  0  0  0  0  0  0  0  0  0  0  0
   -8.8396    4.3822  -15.8715 C   0  0  0  0  0  0  0  0  0  0  0  0
   -9.2325    4.3479  -17.2524 C   0  0  0  0  0  0  0  0  0  0  0  0
  -10.5266    4.1358  -17.5363 F   0  0  0  0  0  0  0  0  0  0  0  0
   -8.3716    4.5531  -18.3353 C   0  0  0  0  0  0  0  0  0  0  0  0
   -7.0872    4.7772  -17.8795 C   0  0  0  0  0  0  0  0  0  0  0  0
   -6.6400    4.7976  -16.5059 C   0  0  0  0  0  0  0  0  0  0  0  0
   -5.2678    5.0324  -16.5133 C   0  0  0  0  0  0  0  0  0  0  0  0
   -4.9223    5.1650  -17.8363 N   0  0  0  0  0  0  0  0  0  0  0  0
   -3.8165    5.4096  -18.6515 C   0  0  0  0  0  0  0  0  0  0  0  0
   -2.5464    5.4881  -18.1862 N   0  0  0  0  0  0  0  0  0  0  0  0
   -4.1958    5.5157  -19.8987 N   0  0  0  0  0  0  0  0  0  0  0  0
   -5.5634    5.2574  -19.8857 N   0  0  0  0  0  0  0  0  0  0  0  0
   -6.0037    5.0498  -18.6388 C   0  0  0  0  0  0  0  0  0  0  0  0
   -2.3685    5.3940  -17.2225 H   0  0  0  0  0  0  0  0  0  0  0  0
   -1.8014    5.6391  -18.8118 H   0  0  0  0  0  0  0  0  0  0  0  0
   -6.1324    5.2309  -20.6886 H   0  0  0  0  0  0  0  0  0  0  0  0
   -8.3038    4.4467  -13.0221 N   0  0  0  0  0  0  0  0  0  0  0  0
   -7.1722    4.8742  -13.9965 C   0  0  0  0  0  0  0  0  0  0  0  0
   -6.1614    5.4232  -13.7889 O   0  0  0  0  0  0  0  0  0  0  0  0
   -9.0986    4.0614  -13.4570 H   0  0  0  0  0  0  0  0  0  0  0  0
   -8.2436    5.7228  -10.8829 C   0  0  0  0  0  0  0  0  0  0  0  0
   -8.3167    5.7062   -9.4750 C   0  0  0  0  0  0  0  0  0  0  0  0
   -8.5635    4.5109   -8.8298 C   0  0  0  0  0  0  0  0  0  0  0  0
   -8.7321    3.3363   -9.5485 C   0  0  0  0  0  0  0  0  0  0  0  0
   -8.6487    3.3234  -10.9351 C   0  0  0  0  0  0  0  0  0  0  0  0
   -8.3775    4.5206  -11.6203 C   0  0  0  0  0  0  0  0  0  0  0  0
   -8.9615    2.2155   -8.5835 C   0  0  0  0  0  0  0  0  0  0  0  0
   -9.2929    2.8756   -7.2939 N   0  0  0  0  0  0  0  0  0  0  0  0
   -8.6984    4.2240   -7.3718 C   0  0  0  0  0  0  0  0  0  0  0  0
   -8.8918    2.3545   -6.5141 H   0  0  0  0  0  0  0  0  0  0  0  0
   -8.2310    8.0227  -12.0848 N   0  0  0  0  0  0  0  0  0  0  0  0
   -8.2037    7.0266  -11.4860 C   0  0  0  0  0  0  0  0  0  0  0  0
 32 33  3  0  0  0
 33 22  1  0  0  0
 22 23  2  0  0  0
 23 24  1  0  0  0
 24 25  2  0  0  0
 25 26  1  0  0  0
 26 27  2  0  0  0
 27 18  1  0  0  0
 18 19  1  0  0  0
 19 20  2  0  0  0
 19  1  1  0  0  0
  1  2  2  0  0  0
  2  3  1  0  0  0
  3  4  1  0  0  0
  3  5  2  0  0  0
  5  6  1  0  0  0
  6  7  1  0  0  0
  7  8  2  0  0  0
  8  9  1  0  0  0
  9 10  1  0  0  0
 10 11  1  0  0  0
 10 12  2  0  0  0
 12 13  1  0  0  0
 13 14  1  0  0  0
 25 28  1  0  0  0
 28 29  1  0  0  0
 29 30  1  0  0  0
 27 22  1  0  0  0
  7  1  1  0  0  0
 14  9  1  0  0  0
 30 24  1  0  0  0
 14  6  2  0  0  0
 18 21  1  0  0  0
 11 15  1  0  0  0
 11 16  1  0  0  0
 13 17  1  0  0  0
 29 31  1  0  0  0
M  END
> <minimizedAffinity>
-9.09164

> <minimizedRMSD>
0.35326

$$$$
P21047


 30 33  0  0  0  0  0  0  0  0999 V2000
   -6.1449    4.6762  -14.4443 N   0  0  0  0  0  0  0  0  0  0  0  0
   -7.3491    4.4777  -14.5435 C   0  0  0  0  0  0  0  0  0  0  0  0
   -7.8725    4.4647  -15.9775 C   0  0  0  0  0  0  0  0  0  0  0  0
   -9.2335    4.2724  -16.2821 C   0  0  0  0  0  0  0  0  0  0  0  0
   -9.6836    4.2781  -17.6016 C   0  0  0  0  0  0  0  0  0  0  0  0
  -10.9833    4.0706  -17.8554 F   0  0  0  0  0  0  0  0  0  0  0  0
   -8.8299    4.5043  -18.6711 C   0  0  0  0  0  0  0  0  0  0  0  0
   -7.4888    4.7266  -18.3649 C   0  0  0  0  0  0  0  0  0  0  0  0
   -6.4192    4.9843  -19.1819 N   0  0  0  0  0  0  0  0  0  0  0  0
   -5.2567    5.1434  -18.5213 N   0  0  0  0  0  0  0  0  0  0  0  0
   -5.6031    4.9552  -17.2441 C   0  0  0  0  0  0  0  0  0  0  0  0
   -6.9881    4.7061  -17.0644 C   0  0  0  0  0  0  0  0  0  0  0  0
   -6.4938    5.0474  -20.1616 H   0  0  0  0  0  0  0  0  0  0  0  0
   -4.6853    5.7284  -12.8553 C   0  0  0  0  0  0  0  0  0  0  0  0
   -5.4142    4.4891  -13.3069 C   0  0  0  0  0  0  0  0  0  0  0  0
   -5.2589    3.4234  -12.7209 O   0  0  0  0  0  0  0  0  0  0  0  0
   -8.4771    4.3353  -13.4135 N   0  0  0  0  0  0  0  0  0  0  0  0
   -9.3557    4.0386  -13.7441 H   0  0  0  0  0  0  0  0  0  0  0  0
   -8.4178    4.5638  -12.0329 C   0  0  0  0  0  0  0  0  0  0  0  0
   -8.5093    3.4365  -11.1938 C   0  0  0  0  0  0  0  0  0  0  0  0
   -8.4777    3.5918   -9.8153 C   0  0  0  0  0  0  0  0  0  0  0  0
   -8.3322    4.8438   -9.2396 C   0  0  0  0  0  0  0  0  0  0  0  0
   -8.2444    5.9755  -10.0228 C   0  0  0  0  0  0  0  0  0  0  0  0
   -8.3091    5.8389  -11.4239 C   0  0  0  0  0  0  0  0  0  0  0  0
   -8.2815    4.6996   -7.7573 C   0  0  0  0  0  0  0  0  0  0  0  0
   -8.7944    3.3413   -7.4792 N   0  0  0  0  0  0  0  0  0  0  0  0
   -8.5529    2.5653   -8.7291 C   0  0  0  0  0  0  0  0  0  0  0  0
   -9.7912    3.3728   -7.2654 H   0  0  0  0  0  0  0  0  0  0  0  0
   -8.3188    7.0602  -12.1720 C   0  0  0  0  0  0  0  0  0  0  0  0
   -8.2575    8.0138  -12.8326 N   0  0  0  0  0  0  0  0  0  0  0  0
 14 15  1  0  0  0
 15 16  2  0  0  0
 15  1  1  0  0  0
  1  2  2  0  0  0
  2 17  1  0  0  0
 17 19  1  0  0  0
 19 20  2  0  0  0
 20 21  1  0  0  0
 21 22  2  0  0  0
 22 23  1  0  0  0
 23 24  2  0  0  0
 24 29  1  0  0  0
 29 30  3  0  0  0
 22 25  1  0  0  0
 25 26  1  0  0  0
 26 27  1  0  0  0
  2  3  1  0  0  0
  3  4  2  0  0  0
  4  5  1  0  0  0
  5  6  1  0  0  0
  5  7  2  0  0  0
  7  8  1  0  0  0
  8  9  1  0  0  0
  9 10  1  0  0  0
 10 11  2  0  0  0
 11 12  1  0  0  0
 24 19  1  0  0  0
 12  3  1  0  0  0
 27 21  1  0  0  0
 12  8  2  0  0  0
 17 18  1  0  0  0
 26 28  1  0  0  0
  9 13  1  0  0  0
M  END
> <minimizedAffinity>
-7.75778

> <minimizedRMSD>
0.74563

$$$$
P21049


 33 37  0  0  0  0  0  0  0  0999 V2000
   -5.4905    4.9051  -19.7205 C   0  0  0  0  0  0  0  0  0  0  0  0
   -5.6942    4.8819  -18.2893 N   0  0  0  0  0  0  0  0  0  0  0  0
   -4.6162    5.1003  -17.5128 N   0  0  0  0  0  0  0  0  0  0  0  0
   -5.0855    5.1079  -16.2615 C   0  0  0  0  0  0  0  0  0  0  0  0
   -6.5006    4.9078  -16.2326 C   0  0  0  0  0  0  0  0  0  0  0  0
   -7.5177    4.8472  -15.2447 C   0  0  0  0  0  0  0  0  0  0  0  0
   -8.8400    4.6106  -15.6270 C   0  0  0  0  0  0  0  0  0  0  0  0
   -9.1628    4.4289  -16.9528 C   0  0  0  0  0  0  0  0  0  0  0  0
  -10.4480    4.2278  -17.2762 F   0  0  0  0  0  0  0  0  0  0  0  0
   -8.1970    4.4781  -17.9509 C   0  0  0  0  0  0  0  0  0  0  0  0
   -8.7302    4.1739  -19.5384 Cl  0  0  0  0  0  0  0  0  0  0  0  0
   -6.8635    4.7346  -17.5816 C   0  0  0  0  0  0  0  0  0  0  0  0
   -4.1347    5.3133  -15.1261 C   0  0  0  0  0  0  0  0  0  0  0  0
   -2.7733    5.8368  -15.5371 C   0  0  0  0  0  0  0  0  0  0  0  0
   -1.9443    5.5351  -14.3077 C   0  0  0  0  0  0  0  0  0  0  0  0
   -2.4728    4.3305  -13.7308 O   0  0  0  0  0  0  0  0  0  0  0  0
   -3.7373    4.0552  -14.3646 C   0  0  0  0  0  0  0  0  0  0  0  0
   -7.2632    5.1953  -13.8263 C   0  0  0  0  0  0  0  0  0  0  0  0
   -6.4257    5.9773  -13.6079 O   0  0  0  0  0  0  0  0  0  0  0  0
   -8.2625    4.5014  -12.8682 N   0  0  0  0  0  0  0  0  0  0  0  0
   -8.9302    3.9302  -13.3122 H   0  0  0  0  0  0  0  0  0  0  0  0
   -8.3710    4.5542  -11.4702 C   0  0  0  0  0  0  0  0  0  0  0  0
   -8.6189    3.3219  -10.8393 C   0  0  0  0  0  0  0  0  0  0  0  0
   -8.7138    3.2702   -9.4574 C   0  0  0  0  0  0  0  0  0  0  0  0
   -8.5602    4.4094   -8.6873 C   0  0  0  0  0  0  0  0  0  0  0  0
   -8.3488    5.6400   -9.2789 C   0  0  0  0  0  0  0  0  0  0  0  0
   -8.2786    5.7265  -10.6839 C   0  0  0  0  0  0  0  0  0  0  0  0
   -8.6774    4.0607   -7.2440 C   0  0  0  0  0  0  0  0  0  0  0  0
   -9.1157    2.6537   -7.1967 N   0  0  0  0  0  0  0  0  0  0  0  0
   -8.9537    2.0984   -8.5651 C   0  0  0  0  0  0  0  0  0  0  0  0
  -10.0937    2.6015   -6.9117 H   0  0  0  0  0  0  0  0  0  0  0  0
   -8.2579    7.0605  -11.2158 C   0  0  0  0  0  0  0  0  0  0  0  0
   -8.3627    8.1190  -11.6850 N   0  0  0  0  0  0  0  0  0  0  0  0
  1  2  1  0  0  0
  2  3  1  0  0  0
  3  4  2  0  0  0
 13  4  1  0  0  0
 13 14  1  0  0  0
 14 15  1  0  0  0
 15 16  1  0  0  0
 16 17  1  0  0  0
  4  5  1  0  0  0
  5  6  2  0  0  0
  6 18  1  0  0  0
 18 19  2  0  0  0
 18 20  1  0  0  0
 20 22  1  0  0  0
 22 23  2  0  0  0
 23 24  1  0  0  0
 24 25  2  0  0  0
 25 26  1  0  0  0
 26 27  2  0  0  0
 27 32  1  0  0  0
 32 33  3  0  0  0
 25 28  1  0  0  0
 28 29  1  0  0  0
 29 30  1  0  0  0
  6  7  1  0  0  0
  7  8  2  0  0  0
  8  9  1  0  0  0
  8 10  1  0  0  0
 10 11  1  0  0  0
 10 12  2  0  0  0
 12  2  1  0  0  0
 17 13  1  0  0  0
 12  5  1  0  0  0
 27 22  1  0  0  0
 30 24  1  0  0  0
 20 21  1  0  0  0
 29 31  1  0  0  0
M  END
> <minimizedAffinity>
-7.83609

> <minimizedRMSD>
0.80232

$$$$
P21050


 37 40  0  0  0  0  0  0  0  0999 V2000
   -8.0951    4.8481  -13.3185 N   0  0  0  0  0  0  0  0  0  0  0  0
   -6.9587    5.1577  -14.3225 C   0  0  0  0  0  0  0  0  0  0  0  0
   -5.9249    5.6765  -14.1590 O   0  0  0  0  0  0  0  0  0  0  0  0
   -8.8438    4.3285  -13.6909 H   0  0  0  0  0  0  0  0  0  0  0  0
   -9.3214    2.4498   -8.5201 C   0  0  0  0  0  0  0  0  0  0  0  0
   -8.3279    3.5701   -8.4445 C   0  0  0  0  0  0  0  0  0  0  0  0
   -8.3019    4.4472   -9.6738 C   0  0  0  0  0  0  0  0  0  0  0  0
   -8.2731    4.1361  -11.0304 C   0  0  0  0  0  0  0  0  0  0  0  0
   -8.2320    5.1879  -11.9618 C   0  0  0  0  0  0  0  0  0  0  0  0
   -8.2882    6.5342  -11.5075 C   0  0  0  0  0  0  0  0  0  0  0  0
   -8.2708    6.8157  -10.1320 C   0  0  0  0  0  0  0  0  0  0  0  0
   -8.2874    8.0721   -9.5938 O   0  0  0  0  0  0  0  0  0  0  0  0
   -8.2748    5.7721   -9.2394 C   0  0  0  0  0  0  0  0  0  0  0  0
   -8.2962    5.8259   -7.7453 C   0  0  0  0  0  0  0  0  0  0  0  0
   -8.7796    4.4984   -7.3831 N   0  0  0  0  0  0  0  0  0  0  0  0
   -8.5370    4.1160   -6.0127 C   0  0  0  0  0  0  0  0  0  0  0  0
   -8.2855    8.8223  -10.1552 H   0  0  0  0  0  0  0  0  0  0  0  0
   -8.5376    7.6359  -12.3914 C   0  0  0  0  0  0  0  0  0  0  0  0
   -8.7555    8.6159  -12.9772 N   0  0  0  0  0  0  0  0  0  0  0  0
   -7.2597    4.7760  -15.7283 C   0  0  0  0  0  0  0  0  0  0  0  0
   -8.5457    4.4592  -16.1767 C   0  0  0  0  0  0  0  0  0  0  0  0
   -8.7981    4.3286  -17.5398 C   0  0  0  0  0  0  0  0  0  0  0  0
  -10.0413    4.0492  -17.9493 F   0  0  0  0  0  0  0  0  0  0  0  0
   -7.8131    4.5268  -18.5038 C   0  0  0  0  0  0  0  0  0  0  0  0
   -6.5281    4.8402  -18.0456 C   0  0  0  0  0  0  0  0  0  0  0  0
   -6.2321    4.9247  -16.6864 C   0  0  0  0  0  0  0  0  0  0  0  0
   -4.8448    5.1681  -16.6487 C   0  0  0  0  0  0  0  0  0  0  0  0
   -4.3008    5.2168  -17.8625 N   0  0  0  0  0  0  0  0  0  0  0  0
   -5.3558    5.1707  -18.6992 N   0  0  0  0  0  0  0  0  0  0  0  0
   -5.2724    5.4368  -20.0922 N   0  0  0  0  0  0  0  0  0  0  0  0
   -6.2213    5.5821  -20.4371 H   0  0  0  0  0  0  0  0  0  0  0  0
   -4.4609    6.6133  -20.4957 C   0  0  0  0  0  0  0  0  0  0  0  0
   -4.5074    7.8134  -19.5159 C   0  0  0  0  0  0  0  0  0  0  0  0
   -5.0421    7.1715  -21.8186 C   0  0  0  0  0  0  0  0  0  0  0  0
   -2.9847    6.1955  -20.7768 C   0  0  0  0  0  0  0  0  0  0  0  0
   -2.7593    4.7892  -20.8160 O   0  0  0  0  0  0  0  0  0  0  0  0
   -2.9623    4.4049  -19.9488 H   0  0  0  0  0  0  0  0  0  0  0  0
  6  5  1  0  0  0
  6  7  1  0  0  0
  7  8  2  0  0  0
  8  9  1  0  0  0
  9  1  1  0  0  0
  1  2  1  0  0  0
  2  3  2  0  0  0
  2 20  1  0  0  0
 20 21  2  0  0  0
 21 22  1  0  0  0
 22 23  1  0  0  0
 22 24  2  0  0  0
 24 25  1  0  0  0
 25 26  2  0  0  0
 26 27  1  0  0  0
 27 28  2  0  0  0
 28 29  1  0  0  0
 29 30  1  0  0  0
 30 32  1  0  0  0
 32 33  1  0  0  0
 32 34  1  0  0  0
 32 35  1  0  0  0
 35 36  1  0  0  0
  9 10  2  0  0  0
 10 18  1  0  0  0
 18 19  3  0  0  0
 10 11  1  0  0  0
 11 12  1  0  0  0
 11 13  2  0  0  0
 13 14  1  0  0  0
 14 15  1  0  0  0
 15 16  1  0  0  0
 15  6  1  0  0  0
 13  7  1  0  0  0
 26 20  1  0  0  0
 29 25  1  0  0  0
  1  4  1  0  0  0
 30 31  1  0  0  0
 36 37  1  0  0  0
 12 17  1  0  0  0
M  END
> <minimizedAffinity>
-8.67988

> <minimizedRMSD>
0.66205

$$$$
P21051


 27 30  0  0  0  0  0  0  0  0999 V2000
   -8.1482    4.2852  -12.9496 N   0  0  0  0  0  0  0  0  0  0  0  0
   -7.0387    4.7893  -13.9050 C   0  0  0  0  0  0  0  0  0  0  0  0
   -6.0543    5.3741  -13.6790 O   0  0  0  0  0  0  0  0  0  0  0  0
   -8.9251    3.8794  -13.3979 H   0  0  0  0  0  0  0  0  0  0  0  0
   -7.3827    4.5454  -15.3234 C   0  0  0  0  0  0  0  0  0  0  0  0
   -8.6723    4.1705  -15.7569 C   0  0  0  0  0  0  0  0  0  0  0  0
   -9.0364    4.0589  -17.1267 C   0  0  0  0  0  0  0  0  0  0  0  0
  -10.3086    3.7516  -17.4091 F   0  0  0  0  0  0  0  0  0  0  0  0
   -8.1677    4.2831  -18.1988 C   0  0  0  0  0  0  0  0  0  0  0  0
   -6.8849    4.6809  -17.8058 C   0  0  0  0  0  0  0  0  0  0  0  0
   -5.8261    5.0103  -18.5587 N   0  0  0  0  0  0  0  0  0  0  0  0
   -4.8542    5.2649  -17.6829 N   0  0  0  0  0  0  0  0  0  0  0  0
   -3.1539    5.7217  -18.2587 Br  0  0  0  0  0  0  0  0  0  0  0  0
   -5.2170    5.1885  -16.3756 C   0  0  0  0  0  0  0  0  0  0  0  0
   -6.5323    4.8006  -16.4060 C   0  0  0  0  0  0  0  0  0  0  0  0
   -8.0520    5.4630  -10.7421 C   0  0  0  0  0  0  0  0  0  0  0  0
   -8.1752    5.3679   -9.3398 C   0  0  0  0  0  0  0  0  0  0  0  0
   -8.5126    4.1533   -8.7742 C   0  0  0  0  0  0  0  0  0  0  0  0
   -8.7012    3.0294   -9.5636 C   0  0  0  0  0  0  0  0  0  0  0  0
   -8.5615    3.0895  -10.9400 C   0  0  0  0  0  0  0  0  0  0  0  0
   -8.2264    4.3126  -11.5485 C   0  0  0  0  0  0  0  0  0  0  0  0
   -9.0542    1.8715   -8.6873 C   0  0  0  0  0  0  0  0  0  0  0  0
   -9.4252    2.4763   -7.3835 N   0  0  0  0  0  0  0  0  0  0  0  0
   -8.7682    3.7993   -7.3474 C   0  0  0  0  0  0  0  0  0  0  0  0
   -9.0923    1.8941   -6.6150 H   0  0  0  0  0  0  0  0  0  0  0  0
   -7.8907    7.9177  -11.5653 N   0  0  0  0  0  0  0  0  0  0  0  0
   -7.9191    6.7969  -11.2581 C   0  0  0  0  0  0  0  0  0  0  0  0
 26 27  3  0  0  0
 27 16  1  0  0  0
 16 17  2  0  0  0
 17 18  1  0  0  0
 18 19  2  0  0  0
 19 20  1  0  0  0
 20 21  2  0  0  0
 21  1  1  0  0  0
  1  2  1  0  0  0
  2  3  2  0  0  0
  2  5  1  0  0  0
  5  6  2  0  0  0
  6  7  1  0  0  0
  7  8  1  0  0  0
  7  9  2  0  0  0
  9 10  1  0  0  0
 10 11  2  0  0  0
 11 12  1  0  0  0
 12 13  1  0  0  0
 12 14  1  0  0  0
 14 15  2  0  0  0
 19 22  1  0  0  0
 22 23  1  0  0  0
 23 24  1  0  0  0
 21 16  1  0  0  0
 15  5  1  0  0  0
 24 18  1  0  0  0
 15 10  1  0  0  0
  1  4  1  0  0  0
 23 25  1  0  0  0
M  END
> <minimizedAffinity>
-8.77492

> <minimizedRMSD>
0.27774

$$$$
P21054


 37 41  0  0  0  0  0  0  0  0999 V2000
   -7.3679    4.6160  -14.9955 C   0  0  0  0  0  0  0  0  0  0  0  0
   -8.6119    4.3165  -15.5506 C   0  0  0  0  0  0  0  0  0  0  0  0
   -8.7693    4.2926  -16.9304 C   0  0  0  0  0  0  0  0  0  0  0  0
   -9.9905    4.0788  -17.4299 F   0  0  0  0  0  0  0  0  0  0  0  0
   -7.7160    4.5341  -17.8094 C   0  0  0  0  0  0  0  0  0  0  0  0
   -6.4663    4.8341  -17.2488 C   0  0  0  0  0  0  0  0  0  0  0  0
   -6.2850    4.8792  -15.8648 C   0  0  0  0  0  0  0  0  0  0  0  0
   -4.9351    5.2306  -15.6976 C   0  0  0  0  0  0  0  0  0  0  0  0
   -4.2979    5.3967  -16.8502 N   0  0  0  0  0  0  0  0  0  0  0  0
   -5.2265    5.1337  -17.8163 N   0  0  0  0  0  0  0  0  0  0  0  0
   -4.8531    5.0917  -19.1858 C   0  0  0  0  0  0  0  0  0  0  0  0
   -5.6014    4.6249  -20.0369 O   0  0  0  0  0  0  0  0  0  0  0  0
   -8.3055    4.2470  -12.6604 N   0  0  0  0  0  0  0  0  0  0  0  0
   -7.1834    4.8534  -13.5398 C   0  0  0  0  0  0  0  0  0  0  0  0
   -6.2619    5.5084  -13.2459 O   0  0  0  0  0  0  0  0  0  0  0  0
   -9.0204    3.7911  -13.1607 H   0  0  0  0  0  0  0  0  0  0  0  0
   -9.3702    4.5233   -6.0643 C   0  0  0  0  0  0  0  0  0  0  0  0
   -8.6588    3.6005   -7.0425 C   0  0  0  0  0  0  0  0  0  0  0  0
   -9.3037    2.2687   -7.0626 N   0  0  0  0  0  0  0  0  0  0  0  0
   -9.0948    1.7254   -8.4297 C   0  0  0  0  0  0  0  0  0  0  0  0
   -8.8364    2.9218   -9.2882 C   0  0  0  0  0  0  0  0  0  0  0  0
   -8.7540    3.0035  -10.6719 C   0  0  0  0  0  0  0  0  0  0  0  0
   -8.4687    4.2418  -11.2654 C   0  0  0  0  0  0  0  0  0  0  0  0
   -8.3495    5.3894  -10.4437 C   0  0  0  0  0  0  0  0  0  0  0  0
   -8.3957    5.2734   -9.0393 C   0  0  0  0  0  0  0  0  0  0  0  0
   -8.6279    4.0328   -8.4767 C   0  0  0  0  0  0  0  0  0  0  0  0
  -10.3007    2.3560   -6.8656 H   0  0  0  0  0  0  0  0  0  0  0  0
   -8.3650    6.7267  -10.9671 C   0  0  0  0  0  0  0  0  0  0  0  0
   -8.4320    7.7660  -11.4833 N   0  0  0  0  0  0  0  0  0  0  0  0
   -3.5827    5.5043  -19.4865 O   0  0  0  0  0  0  0  0  0  0  0  0
   -3.2017    6.8930  -19.4096 C   0  0  0  0  0  0  0  0  0  0  0  0
   -1.7804    7.0356  -18.9188 C   0  0  0  0  0  0  0  0  0  0  0  0
   -1.0733    5.9246  -18.4446 C   0  0  0  0  0  0  0  0  0  0  0  0
    0.2543    6.0478  -18.0310 C   0  0  0  0  0  0  0  0  0  0  0  0
    0.8931    7.2837  -18.0895 C   0  0  0  0  0  0  0  0  0  0  0  0
    0.2051    8.3964  -18.5673 C   0  0  0  0  0  0  0  0  0  0  0  0
   -1.1214    8.2718  -18.9863 C   0  0  0  0  0  0  0  0  0  0  0  0
 18 17  1  0  0  0
 18 19  1  0  0  0
 19 20  1  0  0  0
 20 21  1  0  0  0
 21 22  2  0  0  0
 22 23  1  0  0  0
 23 13  1  0  0  0
 13 14  1  0  0  0
 14 15  2  0  0  0
 14  1  1  0  0  0
  1  2  2  0  0  0
  2  3  1  0  0  0
  3  4  1  0  0  0
  3  5  2  0  0  0
  5  6  1  0  0  0
  6  7  2  0  0  0
  7  8  1  0  0  0
  8  9  2  0  0  0
  9 10  1  0  0  0
 10 11  1  0  0  0
 11 12  2  0  0  0
 11 30  1  0  0  0
 30 31  1  0  0  0
 31 32  1  0  0  0
 32 33  2  0  0  0
 33 34  1  0  0  0
 34 35  2  0  0  0
 35 36  1  0  0  0
 36 37  2  0  0  0
 23 24  2  0  0  0
 24 28  1  0  0  0
 28 29  3  0  0  0
 24 25  1  0  0  0
 25 26  2  0  0  0
 26 18  1  0  0  0
 26 21  1  0  0  0
  7  1  1  0  0  0
 37 32  1  0  0  0
 10  6  1  0  0  0
 19 27  1  0  0  0
 13 16  1  0  0  0
M  END
> <minimizedAffinity>
-8.57744

> <minimizedRMSD>
0.78792

$$$$
P21055


 37 41  0  0  0  0  0  0  0  0999 V2000
   -7.5420    5.4394  -10.9591 C   0  0  0  0  0  0  0  0  0  0  0  0
   -7.4745    4.0306  -11.6205 C   0  0  0  0  0  0  0  0  0  0  0  0
   -8.4987    3.0113  -11.0930 C   0  0  0  0  0  0  0  0  0  0  0  0
   -8.7429    3.1452   -9.6417 C   0  0  0  0  0  0  0  0  0  0  0  0
   -8.4229    4.2071   -8.8982 C   0  0  0  0  0  0  0  0  0  0  0  0
   -8.7704    3.9282   -7.4753 C   0  0  0  0  0  0  0  0  0  0  0  0
   -9.5329    2.6689   -7.4907 N   0  0  0  0  0  0  0  0  0  0  0  0
   -9.2718    2.0417   -8.7970 C   0  0  0  0  0  0  0  0  0  0  0  0
   -7.6869    5.4196   -9.3886 C   0  0  0  0  0  0  0  0  0  0  0  0
   -6.3542    5.3928   -8.7262 N   0  0  0  0  0  0  0  0  0  0  0  0
   -6.0191    6.7681   -8.4395 N   0  0  0  0  0  0  0  0  0  0  0  0
   -7.1185    7.5500   -8.8502 N   0  0  0  0  0  0  0  0  0  0  0  0
   -8.2492    6.6784   -8.8769 N   0  0  0  0  0  0  0  0  0  0  0  0
  -10.5293    2.8583   -7.3831 H   0  0  0  0  0  0  0  0  0  0  0  0
   -5.6583    4.9816   -9.3483 H   0  0  0  0  0  0  0  0  0  0  0  0
   -5.1823    7.0403   -8.9553 H   0  0  0  0  0  0  0  0  0  0  0  0
   -6.9490    7.9356   -9.7792 H   0  0  0  0  0  0  0  0  0  0  0  0
   -8.9730    7.0364   -9.5001 H   0  0  0  0  0  0  0  0  0  0  0  0
   -7.5653    4.0956  -13.0793 N   0  0  0  0  0  0  0  0  0  0  0  0
   -6.7717    4.9354  -14.0928 C   0  0  0  0  0  0  0  0  0  0  0  0
   -5.9724    5.7654  -13.9238 O   0  0  0  0  0  0  0  0  0  0  0  0
   -8.2456    3.5051  -13.4765 H   0  0  0  0  0  0  0  0  0  0  0  0
   -7.2011    4.6742  -15.5002 C   0  0  0  0  0  0  0  0  0  0  0  0
   -8.5019    4.2701  -15.8513 C   0  0  0  0  0  0  0  0  0  0  0  0
   -8.8416    4.0888  -17.1896 C   0  0  0  0  0  0  0  0  0  0  0  0
  -10.0915    3.7282  -17.5055 F   0  0  0  0  0  0  0  0  0  0  0  0
   -7.9346    4.3076  -18.2221 C   0  0  0  0  0  0  0  0  0  0  0  0
   -6.6539    4.7479  -17.8633 C   0  0  0  0  0  0  0  0  0  0  0  0
   -6.2778    4.9362  -16.5348 C   0  0  0  0  0  0  0  0  0  0  0  0
   -4.9410    5.3849  -16.6146 C   0  0  0  0  0  0  0  0  0  0  0  0
   -4.5026    5.4852  -17.8699 N   0  0  0  0  0  0  0  0  0  0  0  0
   -5.5423    5.0745  -18.6042 N   0  0  0  0  0  0  0  0  0  0  0  0
   -5.4533    5.0352  -19.9983 N   0  0  0  0  0  0  0  0  0  0  0  0
   -4.5194    5.3259  -20.2877 H   0  0  0  0  0  0  0  0  0  0  0  0
   -6.1459    5.6664  -20.4012 H   0  0  0  0  0  0  0  0  0  0  0  0
   -9.2011    7.0298  -12.2525 N   0  0  0  0  0  0  0  0  0  0  0  0
   -8.5323    6.3080  -11.6318 C   0  0  0  0  0  0  0  0  0  0  0  0
 36 37  3  0  0  0
  1 37  1  0  0  0
  1  2  1  0  0  0
  2 19  1  0  0  0
 19 20  1  0  0  0
 20 21  2  0  0  0
 20 23  1  0  0  0
 23 24  2  0  0  0
 24 25  1  0  0  0
 25 26  1  0  0  0
 25 27  2  0  0  0
 27 28  1  0  0  0
 28 29  2  0  0  0
 29 30  1  0  0  0
 30 31  2  0  0  0
 31 32  1  0  0  0
 32 33  1  0  0  0
  2  3  1  0  0  0
  3  4  1  0  0  0
  4  5  2  0  0  0
  5  6  1  0  0  0
  6  7  1  0  0  0
  7  8  1  0  0  0
  5  9  1  0  0  0
  9 10  1  0  0  0
 10 11  1  0  0  0
 11 12  1  0  0  0
 12 13  1  0  0  0
  9  1  1  0  0  0
 29 23  1  0  0  0
  8  4  1  0  0  0
 13  9  1  0  0  0
 32 28  1  0  0  0
 19 22  1  0  0  0
 33 34  1  0  0  0
 33 35  1  0  0  0
  7 14  1  0  0  0
 10 15  1  0  0  0
 11 16  1  0  0  0
 12 17  1  0  0  0
 13 18  1  0  0  0
M  END
> <minimizedAffinity>
-9.14312

> <minimizedRMSD>
0.14190

$$$$
P21058


 29 32  0  0  0  0  0  0  0  0999 V2000
   -8.3065    4.3761  -12.1451 N   0  0  0  0  0  0  0  0  0  0  0  0
   -7.1553    4.9316  -13.0106 C   0  0  0  0  0  0  0  0  0  0  0  0
   -6.1956    5.5192  -12.7050 O   0  0  0  0  0  0  0  0  0  0  0  0
   -9.0498    3.9787  -12.6537 H   0  0  0  0  0  0  0  0  0  0  0  0
   -7.3520    4.6752  -14.4444 C   0  0  0  0  0  0  0  0  0  0  0  0
   -8.5694    4.2558  -15.0244 C   0  0  0  0  0  0  0  0  0  0  0  0
   -8.7459    4.1180  -16.4308 C   0  0  0  0  0  0  0  0  0  0  0  0
   -9.9455    3.6902  -16.8568 F   0  0  0  0  0  0  0  0  0  0  0  0
   -7.7328    4.3959  -17.3623 C   0  0  0  0  0  0  0  0  0  0  0  0
   -6.5166    4.8414  -16.8240 C   0  0  0  0  0  0  0  0  0  0  0  0
   -5.3567    5.1908  -17.4163 N   0  0  0  0  0  0  0  0  0  0  0  0
   -4.5240    5.4879  -16.4095 N   0  0  0  0  0  0  0  0  0  0  0  0
   -5.0786    5.3597  -15.1751 C   0  0  0  0  0  0  0  0  0  0  0  0
   -6.3682    4.9572  -15.3992 C   0  0  0  0  0  0  0  0  0  0  0  0
   -3.5927    5.7739  -16.5513 H   0  0  0  0  0  0  0  0  0  0  0  0
   -7.7523    4.0766  -18.7321 C   0  0  0  0  0  0  0  0  0  0  0  0
   -7.7554    3.6272  -19.8015 N   0  0  0  0  0  0  0  0  0  0  0  0
   -8.3217    5.4848   -9.9275 C   0  0  0  0  0  0  0  0  0  0  0  0
   -8.3730    5.3546   -8.5286 C   0  0  0  0  0  0  0  0  0  0  0  0
   -8.6478    4.1127   -7.9871 C   0  0  0  0  0  0  0  0  0  0  0  0
   -8.8674    3.0116   -8.8028 C   0  0  0  0  0  0  0  0  0  0  0  0
   -8.7693    3.1031  -10.1819 C   0  0  0  0  0  0  0  0  0  0  0  0
   -8.4653    4.3455  -10.7551 C   0  0  0  0  0  0  0  0  0  0  0  0
   -9.1786    1.8230   -7.9555 C   0  0  0  0  0  0  0  0  0  0  0  0
   -9.3699    2.3521   -6.5807 N   0  0  0  0  0  0  0  0  0  0  0  0
   -8.8000    3.7119   -6.5595 C   0  0  0  0  0  0  0  0  0  0  0  0
   -8.8861    1.7589   -5.9066 H   0  0  0  0  0  0  0  0  0  0  0  0
   -8.3786    7.8738  -10.9439 N   0  0  0  0  0  0  0  0  0  0  0  0
   -8.3122    6.8233  -10.4504 C   0  0  0  0  0  0  0  0  0  0  0  0
 28 29  3  0  0  0
 29 18  1  0  0  0
 18 19  2  0  0  0
 19 20  1  0  0  0
 20 21  2  0  0  0
 21 22  1  0  0  0
 22 23  2  0  0  0
 23  1  1  0  0  0
  1  2  1  0  0  0
  2  3  2  0  0  0
  2  5  1  0  0  0
  5  6  2  0  0  0
  6  7  1  0  0  0
  7  8  1  0  0  0
  7  9  2  0  0  0
  9 16  1  0  0  0
 16 17  3  0  0  0
  9 10  1  0  0  0
 10 11  2  0  0  0
 11 12  1  0  0  0
 12 13  1  0  0  0
 13 14  2  0  0  0
 21 24  1  0  0  0
 24 25  1  0  0  0
 25 26  1  0  0  0
 23 18  1  0  0  0
 14  5  1  0  0  0
 26 20  1  0  0  0
 14 10  1  0  0  0
  1  4  1  0  0  0
 12 15  1  0  0  0
 25 27  1  0  0  0
M  END
> <minimizedAffinity>
-7.30044

> <minimizedRMSD>
0.71914

$$$$
P21060


 34 38  0  0  0  0  0  0  0  0999 V2000
   -7.8185    5.4605  -10.8629 C   0  0  0  0  0  0  0  0  0  0  0  0
   -8.5633    4.2589  -11.5142 C   0  0  0  0  0  0  0  0  0  0  0  0
   -8.2884    2.9196  -10.8318 C   0  0  0  0  0  0  0  0  0  0  0  0
   -8.5953    3.0847   -9.3921 C   0  0  0  0  0  0  0  0  0  0  0  0
   -8.3595    4.2010   -8.6943 C   0  0  0  0  0  0  0  0  0  0  0  0
   -8.8880    4.0047   -7.3113 C   0  0  0  0  0  0  0  0  0  0  0  0
   -9.6203    2.7336   -7.3287 N   0  0  0  0  0  0  0  0  0  0  0  0
   -9.2153    2.0283   -8.5553 C   0  0  0  0  0  0  0  0  0  0  0  0
   -7.5880    5.3770   -9.2717 C   0  0  0  0  0  0  0  0  0  0  0  0
   -6.0506    5.0835   -9.1126 C   0  0  0  0  0  0  0  0  0  0  0  0
   -5.5217    5.0191   -7.6945 C   0  0  0  0  0  0  0  0  0  0  0  0
   -5.7540    6.5423   -6.8275 S   0  0  0  0  0  0  0  0  0  0  0  0
   -5.5784    6.2587   -5.4146 O   0  0  0  0  0  0  0  0  0  0  0  0
   -4.9586    7.5601   -7.4850 O   0  0  0  0  0  0  0  0  0  0  0  0
   -7.4694    6.9010   -7.1101 C   0  0  0  0  0  0  0  0  0  0  0  0
   -7.8879    6.7379   -8.5698 C   0  0  0  0  0  0  0  0  0  0  0  0
  -10.6254    2.9072   -7.3387 H   0  0  0  0  0  0  0  0  0  0  0  0
   -8.3873    4.1642  -12.9582 N   0  0  0  0  0  0  0  0  0  0  0  0
   -7.2443    4.6674  -13.8634 C   0  0  0  0  0  0  0  0  0  0  0  0
   -6.2281    5.1681  -13.5888 O   0  0  0  0  0  0  0  0  0  0  0  0
   -9.1169    3.7042  -13.4330 H   0  0  0  0  0  0  0  0  0  0  0  0
   -7.5613    4.5069  -15.3038 C   0  0  0  0  0  0  0  0  0  0  0  0
   -8.8232    4.1255  -15.8127 C   0  0  0  0  0  0  0  0  0  0  0  0
   -9.1124    4.0384  -17.2029 C   0  0  0  0  0  0  0  0  0  0  0  0
  -10.3564    3.6820  -17.5532 F   0  0  0  0  0  0  0  0  0  0  0  0
   -8.1983    4.3292  -18.2243 C   0  0  0  0  0  0  0  0  0  0  0  0
   -6.9471    4.7509  -17.7536 C   0  0  0  0  0  0  0  0  0  0  0  0
   -5.8554    5.1335  -18.4370 N   0  0  0  0  0  0  0  0  0  0  0  0
   -4.9427    5.4296  -17.5028 N   0  0  0  0  0  0  0  0  0  0  0  0
   -5.3726    5.2552  -16.2244 C   0  0  0  0  0  0  0  0  0  0  0  0
   -6.6693    4.8251  -16.3368 C   0  0  0  0  0  0  0  0  0  0  0  0
   -4.0370    5.7466  -17.7228 H   0  0  0  0  0  0  0  0  0  0  0  0
   -8.9916    7.6805  -11.6922 N   0  0  0  0  0  0  0  0  0  0  0  0
   -8.4840    6.7070  -11.3128 C   0  0  0  0  0  0  0  0  0  0  0  0
 33 34  3  0  0  0
  1 34  1  0  0  0
  1  2  1  0  0  0
  2 18  1  0  0  0
 18 19  1  0  0  0
 19 20  2  0  0  0
 19 22  1  0  0  0
 22 23  2  0  0  0
 23 24  1  0  0  0
 24 25  1  0  0  0
 24 26  2  0  0  0
 26 27  1  0  0  0
 27 28  2  0  0  0
 28 29  1  0  0  0
 29 30  1  0  0  0
 30 31  2  0  0  0
  2  3  1  0  0  0
  3  4  1  0  0  0
  4  5  2  0  0  0
  5  6  1  0  0  0
  6  7  1  0  0  0
  7  8  1  0  0  0
  5  9  1  0  0  0
  9 10  1  0  0  0
 10 11  1  0  0  0
 11 12  1  0  0  0
 12 13  2  0  0  0
 12 14  2  0  0  0
 12 15  1  0  0  0
 15 16  1  0  0  0
  9  1  1  0  0  0
 31 22  1  0  0  0
  8  4  1  0  0  0
 16  9  1  0  0  0
 31 27  1  0  0  0
 18 21  1  0  0  0
 29 32  1  0  0  0
  7 17  1  0  0  0
M  END
> <minimizedAffinity>
-9.21180

> <minimizedRMSD>
0.22966

$$$$
P21061


 36 40  0  0  0  0  0  0  0  0999 V2000
   -3.1701    7.0253  -19.1259 C   0  0  0  0  0  0  0  0  0  0  0  0
   -4.4899    7.6345  -19.3394 N   0  0  0  0  0  0  0  0  0  0  0  0
   -5.2987    7.1832  -18.2013 N   0  0  0  0  0  0  0  0  0  0  0  0
   -5.2039    5.7153  -18.0985 C   0  0  0  0  0  0  0  0  0  0  0  0
   -5.3889    5.2816  -16.6103 C   0  0  0  0  0  0  0  0  0  0  0  0
   -6.7981    4.7759  -16.6347 C   0  0  0  0  0  0  0  0  0  0  0  0
   -7.2000    4.6614  -17.9685 C   0  0  0  0  0  0  0  0  0  0  0  0
   -8.4615    4.2101  -18.2975 C   0  0  0  0  0  0  0  0  0  0  0  0
   -9.3316    3.9122  -17.2601 C   0  0  0  0  0  0  0  0  0  0  0  0
  -10.5902    3.5653  -17.5465 F   0  0  0  0  0  0  0  0  0  0  0  0
   -8.9441    4.0076  -15.9210 C   0  0  0  0  0  0  0  0  0  0  0  0
   -7.6556    4.4355  -15.5903 C   0  0  0  0  0  0  0  0  0  0  0  0
   -6.1756    4.9679  -18.8993 N   0  0  0  0  0  0  0  0  0  0  0  0
   -3.5284    5.3027  -18.7026 S   0  0  0  0  0  0  0  0  0  0  0  0
   -4.8959    7.3138  -20.2185 H   0  0  0  0  0  0  0  0  0  0  0  0
   -6.2717    7.4540  -18.3442 H   0  0  0  0  0  0  0  0  0  0  0  0
   -6.1288    4.7343  -19.8546 H   0  0  0  0  0  0  0  0  0  0  0  0
   -7.2793    4.6814  -14.1676 C   0  0  0  0  0  0  0  0  0  0  0  0
   -6.2557    5.2096  -13.9735 O   0  0  0  0  0  0  0  0  0  0  0  0
   -8.3987    4.2656  -13.1784 N   0  0  0  0  0  0  0  0  0  0  0  0
   -9.2082    3.8992  -13.6024 H   0  0  0  0  0  0  0  0  0  0  0  0
   -8.4456    4.3266  -11.7774 C   0  0  0  0  0  0  0  0  0  0  0  0
   -8.6944    3.1222  -11.1011 C   0  0  0  0  0  0  0  0  0  0  0  0
   -8.7244    3.1190   -9.7140 C   0  0  0  0  0  0  0  0  0  0  0  0
   -8.5012    4.2773   -8.9862 C   0  0  0  0  0  0  0  0  0  0  0  0
   -8.2848    5.4842   -9.6246 C   0  0  0  0  0  0  0  0  0  0  0  0
   -8.2896    5.5194  -11.0328 C   0  0  0  0  0  0  0  0  0  0  0  0
   -8.5758    3.9750   -7.5290 C   0  0  0  0  0  0  0  0  0  0  0  0
   -9.0704    2.5892   -7.4232 N   0  0  0  0  0  0  0  0  0  0  0  0
   -8.9658    1.9829   -8.7760 C   0  0  0  0  0  0  0  0  0  0  0  0
  -10.0422    2.5874   -7.1132 H   0  0  0  0  0  0  0  0  0  0  0  0
   -8.3309    6.8208  -11.6377 C   0  0  0  0  0  0  0  0  0  0  0  0
   -8.4011    7.8212  -12.2253 N   0  0  0  0  0  0  0  0  0  0  0  0
   -2.2092    6.0572  -21.3329 C   0  0  0  0  0  0  0  0  0  0  0  0
   -2.1911    7.1960  -20.3099 C   0  0  0  0  0  0  0  0  0  0  0  0
   -2.4420    8.5267  -21.0310 C   0  0  0  0  0  0  0  0  0  0  0  0
 34 35  1  0  0  0
 35 36  1  0  0  0
  1 35  1  0  0  0
  1  2  1  0  0  0
  2  3  1  0  0  0
  3  4  1  0  0  0
  4  5  1  0  0  0
  5  6  1  0  0  0
  6  7  2  0  0  0
  7  8  1  0  0  0
  8  9  2  0  0  0
  9 10  1  0  0  0
  9 11  1  0  0  0
 11 12  2  0  0  0
 12 18  1  0  0  0
 18 19  2  0  0  0
 18 20  1  0  0  0
 20 22  1  0  0  0
 22 23  2  0  0  0
 23 24  1  0  0  0
 24 25  2  0  0  0
 25 26  1  0  0  0
 26 27  2  0  0  0
 27 32  1  0  0  0
 32 33  3  0  0  0
 25 28  1  0  0  0
 28 29  1  0  0  0
 29 30  1  0  0  0
  7 13  1  0  0  0
  4 14  1  0  0  0
 14  1  1  0  0  0
 13  4  1  0  0  0
 12  6  1  0  0  0
 27 22  1  0  0  0
 30 24  1  0  0  0
  2 15  1  0  0  0
  3 16  1  0  0  0
 20 21  1  0  0  0
 29 31  1  0  0  0
 13 17  1  0  0  0
M  END
> <minimizedAffinity>
-9.79097

> <minimizedRMSD>
0.53468

$$$$
P21064


 29 32  0  0  0  0  0  0  0  0999 V2000
   -8.2647    4.2790  -13.0136 N   0  0  0  0  0  0  0  0  0  0  0  0
   -7.1491    4.8266  -13.9437 C   0  0  0  0  0  0  0  0  0  0  0  0
   -6.1966    5.4566  -13.6943 O   0  0  0  0  0  0  0  0  0  0  0  0
   -9.0101    3.8364  -13.4802 H   0  0  0  0  0  0  0  0  0  0  0  0
   -7.4586    4.5121  -15.3793 C   0  0  0  0  0  0  0  0  0  0  0  0
   -8.6868    4.1210  -15.7709 C   0  0  0  0  0  0  0  0  0  0  0  0
   -9.0414    4.0312  -17.1745 C   0  0  0  0  0  0  0  0  0  0  0  0
  -10.3059    3.6617  -17.4569 F   0  0  0  0  0  0  0  0  0  0  0  0
   -8.2153    4.3553  -18.1766 C   0  0  0  0  0  0  0  0  0  0  0  0
   -6.8676    4.8381  -17.8346 C   0  0  0  0  0  0  0  0  0  0  0  0
   -6.5231    4.8862  -16.4050 C   0  0  0  0  0  0  0  0  0  0  0  0
   -5.2764    5.3595  -16.4253 C   0  0  0  0  0  0  0  0  0  0  0  0
   -4.8255    5.6740  -17.7891 N   0  0  0  0  0  0  0  0  0  0  0  0
   -3.7494    4.9361  -18.0847 O   0  0  0  0  0  0  0  0  0  0  0  0
   -5.9539    5.2523  -18.6528 N   0  0  0  0  0  0  0  0  0  0  0  0
   -4.0927    6.2157  -17.4165 H   0  0  0  0  0  0  0  0  0  0  0  0
   -8.2106    6.6890   -8.5839 C   0  0  0  0  0  0  0  0  0  0  0  0
   -8.3438    5.4459   -9.4206 C   0  0  0  0  0  0  0  0  0  0  0  0
   -8.3123    5.4999  -10.8392 C   0  0  0  0  0  0  0  0  0  0  0  0
   -8.3835    4.3122  -11.6143 C   0  0  0  0  0  0  0  0  0  0  0  0
   -8.6069    3.0837  -10.9782 C   0  0  0  0  0  0  0  0  0  0  0  0
   -8.7190    3.0554   -9.5985 C   0  0  0  0  0  0  0  0  0  0  0  0
   -8.5780    4.2089   -8.8307 C   0  0  0  0  0  0  0  0  0  0  0  0
   -8.7551    3.8402   -7.3907 C   0  0  0  0  0  0  0  0  0  0  0  0
   -9.3752    2.5010   -7.4015 N   0  0  0  0  0  0  0  0  0  0  0  0
   -8.9772    1.8914   -8.6947 C   0  0  0  0  0  0  0  0  0  0  0  0
  -10.3905    2.5776   -7.3409 H   0  0  0  0  0  0  0  0  0  0  0  0
   -8.4195    6.7956  -11.4577 C   0  0  0  0  0  0  0  0  0  0  0  0
   -8.5426    7.7882  -12.0504 N   0  0  0  0  0  0  0  0  0  0  0  0
 17 18  1  0  0  0
 18 19  2  0  0  0
 19 28  1  0  0  0
 28 29  3  0  0  0
 19 20  1  0  0  0
 20  1  1  0  0  0
  1  2  1  0  0  0
  2  3  2  0  0  0
  2  5  1  0  0  0
  5  6  2  0  0  0
  6  7  1  0  0  0
  7  8  1  0  0  0
  7  9  2  0  0  0
  9 10  1  0  0  0
 10 11  1  0  0  0
 11 12  2  0  0  0
 12 13  1  0  0  0
 13 14  1  0  0  0
 13 15  1  0  0  0
 20 21  2  0  0  0
 21 22  1  0  0  0
 22 23  2  0  0  0
 23 24  1  0  0  0
 24 25  1  0  0  0
 25 26  1  0  0  0
 23 18  1  0  0  0
 11  5  1  0  0  0
 26 22  1  0  0  0
 15 10  2  0  0  0
  1  4  1  0  0  0
 13 16  1  0  0  0
 25 27  1  0  0  0
M  CHG 1  13   1
M  CHG 1  14  -1
M  END
> <minimizedAffinity>
-8.91269

> <minimizedRMSD>
0.29557

$$$$
P21065


 30 33  0  0  0  0  0  0  0  0999 V2000
   -7.1795    4.9463  -13.6340 C   0  0  0  0  0  0  0  0  0  0  0  0
   -6.4282    5.7951  -13.3565 O   0  0  0  0  0  0  0  0  0  0  0  0
   -8.1572    4.1434  -12.7450 N   0  0  0  0  0  0  0  0  0  0  0  0
   -8.7470    3.5256  -13.2347 H   0  0  0  0  0  0  0  0  0  0  0  0
   -5.4069    5.3728  -17.9657 N   0  0  0  0  0  0  0  0  0  0  0  0
   -6.5445    4.8914  -17.3571 C   0  0  0  0  0  0  0  0  0  0  0  0
   -7.7966    4.5500  -17.8728 C   0  0  0  0  0  0  0  0  0  0  0  0
   -8.7940    4.2281  -16.9643 C   0  0  0  0  0  0  0  0  0  0  0  0
  -10.0171    3.9401  -17.4249 F   0  0  0  0  0  0  0  0  0  0  0  0
   -8.5823    4.2845  -15.5952 C   0  0  0  0  0  0  0  0  0  0  0  0
   -7.3181    4.6229  -15.0796 C   0  0  0  0  0  0  0  0  0  0  0  0
   -6.2356    4.8858  -15.9677 C   0  0  0  0  0  0  0  0  0  0  0  0
   -4.8075    5.1991  -15.7848 C   0  0  0  0  0  0  0  0  0  0  0  0
   -3.9253    5.2634  -14.6104 C   0  0  0  0  0  0  0  0  0  0  0  0
   -4.3147    5.4920  -17.0008 N   0  0  0  0  0  0  0  0  0  0  0  0
   -3.1562    5.8078  -17.3758 O   0  0  0  0  0  0  0  0  0  0  0  0
   -4.7367    5.3442  -20.1630 C   0  0  0  0  0  0  0  0  0  0  0  0
   -5.4293    6.0752  -19.1773 O   0  0  0  0  0  0  0  0  0  0  0  0
   -8.3402    4.1519  -11.3569 C   0  0  0  0  0  0  0  0  0  0  0  0
   -8.5848    2.9131  -10.7482 C   0  0  0  0  0  0  0  0  0  0  0  0
   -8.7623    2.8678   -9.3761 C   0  0  0  0  0  0  0  0  0  0  0  0
   -8.6753    4.0146   -8.5959 C   0  0  0  0  0  0  0  0  0  0  0  0
   -8.4482    5.2502   -9.1699 C   0  0  0  0  0  0  0  0  0  0  0  0
   -8.3219    5.3296  -10.5691 C   0  0  0  0  0  0  0  0  0  0  0  0
   -8.9092    3.6496   -7.1683 C   0  0  0  0  0  0  0  0  0  0  0  0
   -9.5148    2.3034   -7.2117 N   0  0  0  0  0  0  0  0  0  0  0  0
   -9.0557    1.7000   -8.4906 C   0  0  0  0  0  0  0  0  0  0  0  0
  -10.5324    2.3700   -7.1945 H   0  0  0  0  0  0  0  0  0  0  0  0
   -8.3877    6.6460  -11.1417 C   0  0  0  0  0  0  0  0  0  0  0  0
   -8.5445    7.7237  -11.5485 N   0  0  0  0  0  0  0  0  0  0  0  0
 17 18  1  0  0  0
 18  5  1  0  0  0
  5  6  1  0  0  0
  6  7  2  0  0  0
  7  8  1  0  0  0
  8  9  1  0  0  0
  8 10  2  0  0  0
 10 11  1  0  0  0
 11  1  1  0  0  0
  1  2  2  0  0  0
  1  3  1  0  0  0
  3 19  1  0  0  0
 19 20  2  0  0  0
 20 21  1  0  0  0
 21 22  2  0  0  0
 22 23  1  0  0  0
 23 24  2  0  0  0
 24 29  1  0  0  0
 29 30  3  0  0  0
 22 25  1  0  0  0
 25 26  1  0  0  0
 26 27  1  0  0  0
 11 12  2  0  0  0
 12 13  1  0  0  0
 13 14  1  0  0  0
 13 15  2  0  0  0
 15 16  1  0  0  0
 15  5  1  0  0  0
 12  6  1  0  0  0
 24 19  1  0  0  0
 27 21  1  0  0  0
  3  4  1  0  0  0
 26 28  1  0  0  0
M  CHG 1  15   1
M  CHG 1  16  -1
M  END
> <minimizedAffinity>
-8.57108

> <minimizedRMSD>
0.30590

$$$$
P21071


 36 40  0  0  0  0  0  0  0  0999 V2000
   -7.0921    4.8119  -13.1995 C   0  0  0  0  0  0  0  0  0  0  0  0
   -6.1197    5.4056  -12.9511 O   0  0  0  0  0  0  0  0  0  0  0  0
   -8.2481    4.3639  -12.2870 N   0  0  0  0  0  0  0  0  0  0  0  0
   -9.0009    3.9361  -12.7555 H   0  0  0  0  0  0  0  0  0  0  0  0
   -8.4025    4.4654  -10.9049 C   0  0  0  0  0  0  0  0  0  0  0  0
   -8.6285    3.2997  -10.1688 C   0  0  0  0  0  0  0  0  0  0  0  0
   -8.7063    3.4073   -8.7872 C   0  0  0  0  0  0  0  0  0  0  0  0
   -8.5428    4.6298   -8.1323 C   0  0  0  0  0  0  0  0  0  0  0  0
   -8.3581    5.7838   -8.8599 C   0  0  0  0  0  0  0  0  0  0  0  0
   -8.2813    6.9596   -8.2220 F   0  0  0  0  0  0  0  0  0  0  0  0
   -8.3227    5.7227  -10.2527 C   0  0  0  0  0  0  0  0  0  0  0  0
   -8.6131    4.4195   -6.6527 C   0  0  0  0  0  0  0  0  0  0  0  0
   -7.2514    4.5800   -5.9574 C   0  0  0  0  0  0  0  0  0  0  0  0
   -7.1970    6.0148   -5.4488 C   0  0  0  0  0  0  0  0  0  0  0  0
   -8.6026    6.2977   -4.9591 C   0  0  0  0  0  0  0  0  0  0  0  0
   -9.4478    5.4294   -5.8567 C   0  0  0  0  0  0  0  0  0  0  0  0
  -10.6722    5.5255   -5.8749 O   0  0  0  0  0  0  0  0  0  0  0  0
   -9.1675    3.0461   -6.4920 N   0  0  0  0  0  0  0  0  0  0  0  0
   -8.9391    2.3335   -7.7766 C   0  0  0  0  0  0  0  0  0  0  0  0
  -10.1662    3.0927   -6.2898 H   0  0  0  0  0  0  0  0  0  0  0  0
   -8.4108    6.9657  -10.9669 C   0  0  0  0  0  0  0  0  0  0  0  0
   -8.5817    7.9643  -11.5379 N   0  0  0  0  0  0  0  0  0  0  0  0
   -5.5347    5.8241  -17.3596 N   0  0  0  0  0  0  0  0  0  0  0  0
   -4.4540    5.8000  -16.5496 N   0  0  0  0  0  0  0  0  0  0  0  0
   -4.9593    5.3713  -15.3967 C   0  0  0  0  0  0  0  0  0  0  0  0
   -6.3040    4.9556  -15.5213 C   0  0  0  0  0  0  0  0  0  0  0  0
   -7.3062    4.5226  -14.6347 C   0  0  0  0  0  0  0  0  0  0  0  0
   -8.5376    4.1086  -15.1554 C   0  0  0  0  0  0  0  0  0  0  0  0
   -8.7675    4.1577  -16.5242 C   0  0  0  0  0  0  0  0  0  0  0  0
   -9.9583    3.7810  -17.0080 F   0  0  0  0  0  0  0  0  0  0  0  0
   -7.8371    4.7006  -17.4043 C   0  0  0  0  0  0  0  0  0  0  0  0
   -6.6108    5.1189  -16.8675 C   0  0  0  0  0  0  0  0  0  0  0  0
   -5.5174    6.8146  -18.4269 C   0  0  0  0  0  0  0  0  0  0  0  0
   -4.3211    5.6477  -20.1523 C   0  0  0  0  0  0  0  0  0  0  0  0
   -5.5556    6.2426  -19.7406 N   0  0  0  0  0  0  0  0  0  0  0  0
   -6.2791    5.5237  -19.7566 H   0  0  0  0  0  0  0  0  0  0  0  0
 34 35  1  0  0  0
 35 33  1  0  0  0
 33 23  1  0  0  0
 23 24  1  0  0  0
 24 25  2  0  0  0
 25 26  1  0  0  0
 26 27  2  0  0  0
 27  1  1  0  0  0
  1  2  2  0  0  0
  1  3  1  0  0  0
  3  5  1  0  0  0
  5  6  2  0  0  0
  6  7  1  0  0  0
  7  8  2  0  0  0
  8  9  1  0  0  0
  9 10  1  0  0  0
  9 11  2  0  0  0
 11 21  1  0  0  0
 21 22  3  0  0  0
  8 12  1  0  0  0
 12 13  1  0  0  0
 13 14  1  0  0  0
 14 15  1  0  0  0
 15 16  1  0  0  0
 16 17  2  0  0  0
 12 18  1  0  0  0
 18 19  1  0  0  0
 27 28  1  0  0  0
 28 29  2  0  0  0
 29 30  1  0  0  0
 29 31  1  0  0  0
 31 32  2  0  0  0
 32 23  1  0  0  0
 32 26  1  0  0  0
 11  5  1  0  0  0
 16 12  1  0  0  0
 19  7  1  0  0  0
 35 36  1  0  0  0
  3  4  1  0  0  0
 18 20  1  0  0  0
M  END
> <minimizedAffinity>
-8.45849

> <minimizedRMSD>
0.47792

$$$$
P21072


 30 33  0  0  0  0  0  0  0  0999 V2000
   -7.1366    4.7156  -13.8053 C   0  0  0  0  0  0  0  0  0  0  0  0
   -6.1167    5.2103  -13.5323 O   0  0  0  0  0  0  0  0  0  0  0  0
   -8.2789    4.2199  -12.9005 N   0  0  0  0  0  0  0  0  0  0  0  0
   -9.0119    3.7646  -13.3744 H   0  0  0  0  0  0  0  0  0  0  0  0
   -5.4926    5.6013  -18.0057 N   0  0  0  0  0  0  0  0  0  0  0  0
   -4.4748    5.7151  -17.1104 N   0  0  0  0  0  0  0  0  0  0  0  0
   -5.0139    5.3068  -15.9692 C   0  0  0  0  0  0  0  0  0  0  0  0
   -6.3515    4.8900  -16.1265 C   0  0  0  0  0  0  0  0  0  0  0  0
   -7.3754    4.4920  -15.2495 C   0  0  0  0  0  0  0  0  0  0  0  0
   -8.6091    4.1203  -15.7857 C   0  0  0  0  0  0  0  0  0  0  0  0
   -8.8150    4.1743  -17.1626 C   0  0  0  0  0  0  0  0  0  0  0  0
  -10.0235    3.8686  -17.6504 F   0  0  0  0  0  0  0  0  0  0  0  0
   -7.8363    4.6215  -18.0489 C   0  0  0  0  0  0  0  0  0  0  0  0
   -6.6108    4.9941  -17.4894 C   0  0  0  0  0  0  0  0  0  0  0  0
   -5.4317    6.3599  -19.2597 C   0  0  0  0  0  0  0  0  0  0  0  0
   -3.4479    6.1639  -20.6096 C   0  0  0  0  0  0  0  0  0  0  0  0
   -4.0468    6.8351  -19.4589 N   0  0  0  0  0  0  0  0  0  0  0  0
   -4.0555    7.8419  -19.6222 H   0  0  0  0  0  0  0  0  0  0  0  0
   -8.4451    4.3109  -11.5153 C   0  0  0  0  0  0  0  0  0  0  0  0
   -8.7286    3.1231  -10.8306 C   0  0  0  0  0  0  0  0  0  0  0  0
   -8.7942    3.1549   -9.4462 C   0  0  0  0  0  0  0  0  0  0  0  0
   -8.5698    4.3273   -8.7376 C   0  0  0  0  0  0  0  0  0  0  0  0
   -8.3197    5.5183   -9.3901 C   0  0  0  0  0  0  0  0  0  0  0  0
   -8.2925    5.5225  -10.7936 C   0  0  0  0  0  0  0  0  0  0  0  0
   -8.6938    4.0698   -7.2736 C   0  0  0  0  0  0  0  0  0  0  0  0
   -9.0652    2.6542   -7.1395 N   0  0  0  0  0  0  0  0  0  0  0  0
  -10.3043    2.4537   -6.4125 C   0  0  0  0  0  0  0  0  0  0  0  0
   -9.0771    2.0404   -8.4898 C   0  0  0  0  0  0  0  0  0  0  0  0
   -8.2990    6.8154  -11.4230 C   0  0  0  0  0  0  0  0  0  0  0  0
   -8.3352    7.8042  -12.0341 N   0  0  0  0  0  0  0  0  0  0  0  0
 16 17  1  0  0  0
 17 15  1  0  0  0
 15  5  1  0  0  0
  5  6  1  0  0  0
  6  7  2  0  0  0
  7  8  1  0  0  0
  8  9  2  0  0  0
  9  1  1  0  0  0
  1  2  2  0  0  0
  1  3  1  0  0  0
  3 19  1  0  0  0
 19 20  2  0  0  0
 20 21  1  0  0  0
 21 22  2  0  0  0
 22 23  1  0  0  0
 23 24  2  0  0  0
 24 29  1  0  0  0
 29 30  3  0  0  0
 22 25  1  0  0  0
 25 26  1  0  0  0
 26 27  1  0  0  0
 26 28  1  0  0  0
  9 10  1  0  0  0
 10 11  2  0  0  0
 11 12  1  0  0  0
 11 13  1  0  0  0
 13 14  2  0  0  0
 14  5  1  0  0  0
 14  8  1  0  0  0
 24 19  1  0  0  0
 28 21  1  0  0  0
 17 18  1  0  0  0
  3  4  1  0  0  0
M  END
> <minimizedAffinity>
-8.00769

> <minimizedRMSD>
0.48455

$$$$
P21073


 32 36  0  0  0  0  0  0  0  0999 V2000
   -8.3601    4.2356  -13.1749 N   0  0  0  0  0  0  0  0  0  0  0  0
   -7.2512    4.6674  -14.1674 C   0  0  0  0  0  0  0  0  0  0  0  0
   -6.2354    5.2113  -13.9773 O   0  0  0  0  0  0  0  0  0  0  0  0
   -9.1651    3.8563  -13.5959 H   0  0  0  0  0  0  0  0  0  0  0  0
   -7.6271    4.4148  -15.5928 C   0  0  0  0  0  0  0  0  0  0  0  0
   -8.9186    3.9914  -15.9301 C   0  0  0  0  0  0  0  0  0  0  0  0
   -9.3103    3.9338  -17.2697 C   0  0  0  0  0  0  0  0  0  0  0  0
  -10.5691    3.5886  -17.5643 F   0  0  0  0  0  0  0  0  0  0  0  0
   -8.4542    4.3050  -18.2953 C   0  0  0  0  0  0  0  0  0  0  0  0
   -7.1907    4.7481  -17.9608 C   0  0  0  0  0  0  0  0  0  0  0  0
   -6.7739    4.7944  -16.6311 C   0  0  0  0  0  0  0  0  0  0  0  0
   -5.3753    5.3342  -16.5790 C   0  0  0  0  0  0  0  0  0  0  0  0
   -5.0802    5.6716  -18.0627 C   0  0  0  0  0  0  0  0  0  0  0  0
   -4.7113    7.1368  -18.2986 C   0  0  0  0  0  0  0  0  0  0  0  0
   -3.9183    7.1245  -19.6057 C   0  0  0  0  0  0  0  0  0  0  0  0
   -3.5338    5.7337  -19.8734 N   0  0  0  0  0  0  0  0  0  0  0  0
   -3.8433    4.9825  -18.6459 C   0  0  0  0  0  0  0  0  0  0  0  0
   -6.2986    5.3717  -18.8352 N   0  0  0  0  0  0  0  0  0  0  0  0
   -2.5371    5.6757  -20.0823 H   0  0  0  0  0  0  0  0  0  0  0  0
   -6.4540    5.5728  -19.7863 H   0  0  0  0  0  0  0  0  0  0  0  0
   -8.2734    5.5022  -11.0416 C   0  0  0  0  0  0  0  0  0  0  0  0
   -8.2797    5.4830   -9.6343 C   0  0  0  0  0  0  0  0  0  0  0  0
   -8.4960    4.2808   -8.9899 C   0  0  0  0  0  0  0  0  0  0  0  0
   -8.6881    3.1075   -9.7095 C   0  0  0  0  0  0  0  0  0  0  0  0
   -8.6338    3.0932  -11.0940 C   0  0  0  0  0  0  0  0  0  0  0  0
   -8.4032    4.2973  -11.7755 C   0  0  0  0  0  0  0  0  0  0  0  0
   -8.9396    1.9884   -8.7501 C   0  0  0  0  0  0  0  0  0  0  0  0
   -9.2658    2.6599   -7.4636 N   0  0  0  0  0  0  0  0  0  0  0  0
   -8.6170    3.9845   -7.5328 C   0  0  0  0  0  0  0  0  0  0  0  0
   -8.8972    2.1234   -6.6782 H   0  0  0  0  0  0  0  0  0  0  0  0
   -8.4187    7.7875  -12.2639 N   0  0  0  0  0  0  0  0  0  0  0  0
   -8.3431    6.7972  -11.6597 C   0  0  0  0  0  0  0  0  0  0  0  0
 31 32  3  0  0  0
 32 21  1  0  0  0
 21 22  2  0  0  0
 22 23  1  0  0  0
 23 24  2  0  0  0
 24 25  1  0  0  0
 25 26  2  0  0  0
 26  1  1  0  0  0
  1  2  1  0  0  0
  2  3  2  0  0  0
  2  5  1  0  0  0
  5  6  2  0  0  0
  6  7  1  0  0  0
  7  8  1  0  0  0
  7  9  2  0  0  0
  9 10  1  0  0  0
 10 11  2  0  0  0
 11 12  1  0  0  0
 13 12  1  0  0  0
 13 14  1  0  0  0
 14 15  1  0  0  0
 15 16  1  0  0  0
 16 17  1  0  0  0
 13 18  1  0  0  0
 24 27  1  0  0  0
 27 28  1  0  0  0
 28 29  1  0  0  0
 26 21  1  0  0  0
 11  5  1  0  0  0
 17 13  1  0  0  0
 29 23  1  0  0  0
 18 10  1  0  0  0
  1  4  1  0  0  0
 16 19  1  0  0  0
 18 20  1  0  0  0
 28 30  1  0  0  0
M  END
> <minimizedAffinity>
-9.77147

> <minimizedRMSD>
0.51495

$$$$
P21075


 29 33  0  0  0  0  0  0  0  0999 V2000
   -8.2485    4.2882  -12.8353 N   0  0  0  0  0  0  0  0  0  0  0  0
   -7.1741    4.9557  -13.7449 C   0  0  0  0  0  0  0  0  0  0  0  0
   -6.1769    5.5027  -13.4649 O   0  0  0  0  0  0  0  0  0  0  0  0
   -8.9674    3.8222  -13.3203 H   0  0  0  0  0  0  0  0  0  0  0  0
   -7.6167    4.9381  -15.2305 C   0  0  0  0  0  0  0  0  0  0  0  0
   -8.5032    3.8404  -15.7857 C   0  0  0  0  0  0  0  0  0  0  0  0
   -8.9449    4.0894  -17.2167 C   0  0  0  0  0  0  0  0  0  0  0  0
   -9.5761    2.9707  -17.6657 F   0  0  0  0  0  0  0  0  0  0  0  0
   -7.7945    4.3675  -18.1485 C   0  0  0  0  0  0  0  0  0  0  0  0
   -6.7843    5.4066  -17.6797 C   0  0  0  0  0  0  0  0  0  0  0  0
   -5.4231    5.2097  -18.3866 C   0  0  0  0  0  0  0  0  0  0  0  0
   -5.0322    6.3301  -19.3203 C   0  0  0  0  0  0  0  0  0  0  0  0
   -4.5383    7.3732  -18.4797 O   0  0  0  0  0  0  0  0  0  0  0  0
   -3.9308    6.7585  -17.3313 C   0  0  0  0  0  0  0  0  0  0  0  0
   -4.3725    5.2948  -17.2941 C   0  0  0  0  0  0  0  0  0  0  0  0
   -5.0812    4.8722  -16.0117 C   0  0  0  0  0  0  0  0  0  0  0  0
   -6.4855    5.4215  -16.1706 C   0  0  0  0  0  0  0  0  0  0  0  0
   -8.2857    5.4164  -10.6486 C   0  0  0  0  0  0  0  0  0  0  0  0
   -8.3765    5.3377   -9.2494 C   0  0  0  0  0  0  0  0  0  0  0  0
   -8.6117    4.1031   -8.6777 C   0  0  0  0  0  0  0  0  0  0  0  0
   -8.7390    2.9593   -9.4609 C   0  0  0  0  0  0  0  0  0  0  0  0
   -8.6122    3.0065  -10.8405 C   0  0  0  0  0  0  0  0  0  0  0  0
   -8.3574    4.2436  -11.4427 C   0  0  0  0  0  0  0  0  0  0  0  0
   -9.0135    1.7941   -8.5646 C   0  0  0  0  0  0  0  0  0  0  0  0
   -9.4420    2.4012   -7.2769 N   0  0  0  0  0  0  0  0  0  0  0  0
   -8.8217    3.7405   -7.2453 C   0  0  0  0  0  0  0  0  0  0  0  0
   -9.1150    1.8386   -6.4915 H   0  0  0  0  0  0  0  0  0  0  0  0
   -8.5164    7.7863  -11.6854 N   0  0  0  0  0  0  0  0  0  0  0  0
   -8.3556    6.7274  -11.2336 C   0  0  0  0  0  0  0  0  0  0  0  0
 28 29  3  0  0  0
 29 18  1  0  0  0
 18 19  2  0  0  0
 19 20  1  0  0  0
 20 21  2  0  0  0
 21 22  1  0  0  0
 22 23  2  0  0  0
 23  1  1  0  0  0
  1  2  1  0  0  0
  2  3  2  0  0  0
  5  2  1  0  0  0
  5  6  1  0  0  0
  6  7  1  0  0  0
  7  8  1  0  0  0
  7  9  1  0  0  0
 10  9  1  0  0  0
 10 11  1  0  0  0
 11 12  1  0  0  0
 12 13  1  0  0  0
 13 14  1  0  0  0
 15 14  1  0  0  0
 15 16  1  0  0  0
 17 16  1  0  0  0
 21 24  1  0  0  0
 24 25  1  0  0  0
 25 26  1  0  0  0
 23 18  1  0  0  0
 17  5  1  0  0  0
 26 20  1  0  0  0
 17 10  1  0  0  0
 15 11  1  0  0  0
  1  4  1  0  0  0
 25 27  1  0  0  0
M  END
> <minimizedAffinity>
-8.70597

> <minimizedRMSD>
0.23200

$$$$
P21077


 30 34  0  0  0  0  0  0  0  0999 V2000
   -8.2168    4.2326  -12.9811 N   0  0  0  0  0  0  0  0  0  0  0  0
   -7.1442    4.8475  -13.9217 C   0  0  0  0  0  0  0  0  0  0  0  0
   -6.2325    5.5378  -13.6811 O   0  0  0  0  0  0  0  0  0  0  0  0
   -8.9356    3.7415  -13.4409 H   0  0  0  0  0  0  0  0  0  0  0  0
   -7.4278    4.5575  -15.3459 C   0  0  0  0  0  0  0  0  0  0  0  0
   -8.7192    4.1896  -15.8114 C   0  0  0  0  0  0  0  0  0  0  0  0
   -9.0755    4.0684  -17.1942 C   0  0  0  0  0  0  0  0  0  0  0  0
  -10.3529    3.7860  -17.4812 F   0  0  0  0  0  0  0  0  0  0  0  0
   -8.2100    4.2858  -18.2717 C   0  0  0  0  0  0  0  0  0  0  0  0
   -6.9680    4.6711  -17.8048 C   0  0  0  0  0  0  0  0  0  0  0  0
   -6.5626    4.8090  -16.4241 C   0  0  0  0  0  0  0  0  0  0  0  0
   -5.2442    5.2524  -16.4140 C   0  0  0  0  0  0  0  0  0  0  0  0
   -4.8945    5.3967  -17.7321 N   0  0  0  0  0  0  0  0  0  0  0  0
   -3.8507    5.8632  -18.5104 C   0  0  0  0  0  0  0  0  0  0  0  0
   -4.1837    5.8268  -19.7765 N   0  0  0  0  0  0  0  0  0  0  0  0
   -5.4695    5.2632  -19.8078 N   0  0  0  0  0  0  0  0  0  0  0  0
   -5.9066    5.0449  -18.5553 C   0  0  0  0  0  0  0  0  0  0  0  0
   -5.9764    5.0581  -20.6264 H   0  0  0  0  0  0  0  0  0  0  0  0
   -8.2793    5.4583  -10.8267 C   0  0  0  0  0  0  0  0  0  0  0  0
   -8.3766    5.4162   -9.4227 C   0  0  0  0  0  0  0  0  0  0  0  0
   -8.5948    4.1970   -8.8095 C   0  0  0  0  0  0  0  0  0  0  0  0
   -8.7011    3.0296   -9.5560 C   0  0  0  0  0  0  0  0  0  0  0  0
   -8.5653    3.0416  -10.9354 C   0  0  0  0  0  0  0  0  0  0  0  0
   -8.3274    4.2633  -11.5841 C   0  0  0  0  0  0  0  0  0  0  0  0
   -8.9649    1.8865   -8.6284 C   0  0  0  0  0  0  0  0  0  0  0  0
   -9.4013    2.5233   -7.3577 N   0  0  0  0  0  0  0  0  0  0  0  0
   -8.8015    3.8738   -7.3671 C   0  0  0  0  0  0  0  0  0  0  0  0
   -9.0641    1.9890   -6.5570 H   0  0  0  0  0  0  0  0  0  0  0  0
   -8.5241    7.7695  -11.9833 N   0  0  0  0  0  0  0  0  0  0  0  0
   -8.3600    6.7560  -11.4381 C   0  0  0  0  0  0  0  0  0  0  0  0
 29 30  3  0  0  0
 30 19  1  0  0  0
 19 20  2  0  0  0
 20 21  1  0  0  0
 21 22  2  0  0  0
 22 23  1  0  0  0
 23 24  2  0  0  0
 24  1  1  0  0  0
  1  2  1  0  0  0
  2  3  2  0  0  0
  2  5  1  0  0  0
  5  6  2  0  0  0
  6  7  1  0  0  0
  7  8  1  0  0  0
  7  9  2  0  0  0
  9 10  1  0  0  0
 10 11  1  0  0  0
 11 12  2  0  0  0
 12 13  1  0  0  0
 13 14  1  0  0  0
 14 15  2  0  0  0
 15 16  1  0  0  0
 16 17  1  0  0  0
 22 25  1  0  0  0
 25 26  1  0  0  0
 26 27  1  0  0  0
 24 19  1  0  0  0
 11  5  1  0  0  0
 17 13  1  0  0  0
 27 21  1  0  0  0
 17 10  2  0  0  0
  1  4  1  0  0  0
 16 18  1  0  0  0
 26 28  1  0  0  0
M  END
> <minimizedAffinity>
-9.62346

> <minimizedRMSD>
0.18701

$$$$
P21079


 32 36  0  0  0  0  0  0  0  0999 V2000
   -8.3321    4.3218  -12.9414 N   0  0  0  0  0  0  0  0  0  0  0  0
   -7.1675    4.7786  -13.8460 C   0  0  0  0  0  0  0  0  0  0  0  0
   -6.1616    5.3041  -13.5760 O   0  0  0  0  0  0  0  0  0  0  0  0
   -9.1138    3.9671  -13.4235 H   0  0  0  0  0  0  0  0  0  0  0  0
   -7.4107    4.5307  -15.2940 C   0  0  0  0  0  0  0  0  0  0  0  0
   -8.6501    4.1277  -15.7896 C   0  0  0  0  0  0  0  0  0  0  0  0
   -8.8645    4.1081  -17.1729 C   0  0  0  0  0  0  0  0  0  0  0  0
  -10.0821    3.7690  -17.6196 F   0  0  0  0  0  0  0  0  0  0  0  0
   -7.8749    4.4969  -18.0843 C   0  0  0  0  0  0  0  0  0  0  0  0
   -6.6483    4.9154  -17.5899 C   0  0  0  0  0  0  0  0  0  0  0  0
   -6.4235    4.9024  -16.2091 C   0  0  0  0  0  0  0  0  0  0  0  0
   -5.0617    5.4435  -15.9209 C   0  0  0  0  0  0  0  0  0  0  0  0
   -4.3742    5.4886  -17.2296 N   0  0  0  0  0  0  0  0  0  0  0  0
   -5.4558    5.5598  -18.2678 C   0  0  0  0  0  0  0  0  0  0  0  0
   -5.7653    7.0313  -18.5892 C   0  0  0  0  0  0  0  0  0  0  0  0
   -4.6149    7.7351  -19.2940 C   0  0  0  0  0  0  0  0  0  0  0  0
   -4.2575    7.0422  -20.4856 O   0  0  0  0  0  0  0  0  0  0  0  0
   -3.8166    5.7213  -20.1943 C   0  0  0  0  0  0  0  0  0  0  0  0
   -4.9292    4.9023  -19.5419 C   0  0  0  0  0  0  0  0  0  0  0  0
   -3.8111    4.6486  -17.3625 H   0  0  0  0  0  0  0  0  0  0  0  0
   -8.3111    5.4957  -10.7536 C   0  0  0  0  0  0  0  0  0  0  0  0
   -8.3287    5.4086   -9.3493 C   0  0  0  0  0  0  0  0  0  0  0  0
   -8.5693    4.1812   -8.7629 C   0  0  0  0  0  0  0  0  0  0  0  0
   -8.7896    3.0528   -9.5392 C   0  0  0  0  0  0  0  0  0  0  0  0
   -8.7280    3.1030  -10.9239 C   0  0  0  0  0  0  0  0  0  0  0  0
   -8.4576    4.3298  -11.5453 C   0  0  0  0  0  0  0  0  0  0  0  0
   -9.0560    1.8859   -8.6474 C   0  0  0  0  0  0  0  0  0  0  0  0
   -9.2075    2.4494   -7.2806 N   0  0  0  0  0  0  0  0  0  0  0  0
   -8.6757    3.8240   -7.3201 C   0  0  0  0  0  0  0  0  0  0  0  0
   -8.6810    1.8891   -6.6103 H   0  0  0  0  0  0  0  0  0  0  0  0
   -8.3589    7.8441  -11.8599 N   0  0  0  0  0  0  0  0  0  0  0  0
   -8.3278    6.8212  -11.3083 C   0  0  0  0  0  0  0  0  0  0  0  0
 31 32  3  0  0  0
 32 21  1  0  0  0
 21 22  2  0  0  0
 22 23  1  0  0  0
 23 24  2  0  0  0
 24 25  1  0  0  0
 25 26  2  0  0  0
 26  1  1  0  0  0
  1  2  1  0  0  0
  2  3  2  0  0  0
  2  5  1  0  0  0
  5  6  2  0  0  0
  6  7  1  0  0  0
  7  8  1  0  0  0
  7  9  2  0  0  0
  9 10  1  0  0  0
 10 11  2  0  0  0
 11 12  1  0  0  0
 12 13  1  0  0  0
 13 14  1  0  0  0
 14 15  1  0  0  0
 15 16  1  0  0  0
 16 17  1  0  0  0
 17 18  1  0  0  0
 18 19  1  0  0  0
 24 27  1  0  0  0
 27 28  1  0  0  0
 28 29  1  0  0  0
 26 21  1  0  0  0
 11  5  1  0  0  0
 19 14  1  0  0  0
 29 23  1  0  0  0
 14 10  1  0  0  0
  1  4  1  0  0  0
 13 20  1  0  0  0
 28 30  1  0  0  0
M  END
> <minimizedAffinity>
-9.81346

> <minimizedRMSD>
0.41674

$$$$
P21096


 37 42  0  0  0  0  0  0  0  0999 V2000
   -3.8550    5.5871  -19.8999 C   0  0  0  0  0  0  0  0  0  0  0  0
   -3.9119    5.1897  -21.2575 C   0  0  0  0  0  0  0  0  0  0  0  0
   -4.9452    4.3968  -21.7460 C   0  0  0  0  0  0  0  0  0  0  0  0
   -5.9883    4.0384  -20.9070 C   0  0  0  0  0  0  0  0  0  0  0  0
   -5.9749    4.4323  -19.5658 C   0  0  0  0  0  0  0  0  0  0  0  0
   -4.8500    5.1230  -19.0082 C   0  0  0  0  0  0  0  0  0  0  0  0
   -4.8094    5.4318  -17.5908 N   0  0  0  0  0  0  0  0  0  0  0  0
   -5.8312    5.0024  -16.7124 C   0  0  0  0  0  0  0  0  0  0  0  0
   -5.8510    5.2230  -15.3354 C   0  0  0  0  0  0  0  0  0  0  0  0
   -6.9807    4.8599  -14.5804 C   0  0  0  0  0  0  0  0  0  0  0  0
   -8.1313    4.3168  -15.1851 C   0  0  0  0  0  0  0  0  0  0  0  0
   -8.1072    4.1234  -16.5702 C   0  0  0  0  0  0  0  0  0  0  0  0
   -9.3432    3.5497  -17.6221 S   0  0  0  0  0  0  0  0  0  0  0  0
   -8.3586    3.7160  -19.0120 C   0  0  0  0  0  0  0  0  0  0  0  0
   -7.0988    4.1490  -18.6849 C   0  0  0  0  0  0  0  0  0  0  0  0
   -6.9742    4.4325  -17.2999 C   0  0  0  0  0  0  0  0  0  0  0  0
   -4.0539    5.9517  -17.2328 H   0  0  0  0  0  0  0  0  0  0  0  0
   -2.8125    6.6082  -19.4774 C   0  0  0  0  0  0  0  0  0  0  0  0
   -1.4416    6.1218  -19.6861 N   0  0  0  0  0  0  0  0  0  0  0  0
   -1.2832    5.9685  -20.6820 H   0  0  0  0  0  0  0  0  0  0  0  0
   -1.3117    5.2446  -19.1822 H   0  0  0  0  0  0  0  0  0  0  0  0
   -4.2986    8.6732  -19.8391 C   0  0  0  0  0  0  0  0  0  0  0  0
   -3.0041    7.9562  -20.2086 C   0  0  0  0  0  0  0  0  0  0  0  0
   -7.0108    5.1912  -13.1246 C   0  0  0  0  0  0  0  0  0  0  0  0
   -6.5140    6.1904  -12.7769 O   0  0  0  0  0  0  0  0  0  0  0  0
   -7.8154    4.1370  -12.3220 N   0  0  0  0  0  0  0  0  0  0  0  0
   -8.1992    3.4108  -12.8647 H   0  0  0  0  0  0  0  0  0  0  0  0
   -8.0841    4.0500  -10.9562 C   0  0  0  0  0  0  0  0  0  0  0  0
   -7.9352    5.1617  -10.1122 C   0  0  0  0  0  0  0  0  0  0  0  0
   -8.2365    5.0729   -8.7481 C   0  0  0  0  0  0  0  0  0  0  0  0
   -8.6917    3.8645   -8.2553 C   0  0  0  0  0  0  0  0  0  0  0  0
   -8.8331    2.7584   -9.0874 C   0  0  0  0  0  0  0  0  0  0  0  0
   -8.5380    2.8315  -10.4395 C   0  0  0  0  0  0  0  0  0  0  0  0
   -9.2957    1.5962   -8.2723 C   0  0  0  0  0  0  0  0  0  0  0  0
   -9.7927    2.1876   -7.0036 N   0  0  0  0  0  0  0  0  0  0  0  0
   -9.0870    3.4816   -6.8677 C   0  0  0  0  0  0  0  0  0  0  0  0
   -9.5738    1.5776   -6.2160 H   0  0  0  0  0  0  0  0  0  0  0  0
 22 23  1  0  0  0
 23 18  1  0  0  0
 18 19  1  0  0  0
 18  1  1  0  0  0
  1  2  2  0  0  0
  2  3  1  0  0  0
  3  4  2  0  0  0
  4  5  1  0  0  0
  5  6  2  0  0  0
  6  7  1  0  0  0
  7  8  1  0  0  0
  8  9  1  0  0  0
  9 10  2  0  0  0
 10 24  1  0  0  0
 24 25  2  0  0  0
 24 26  1  0  0  0
 26 28  1  0  0  0
 28 29  2  0  0  0
 29 30  1  0  0  0
 30 31  2  0  0  0
 31 32  1  0  0  0
 32 33  2  0  0  0
 32 34  1  0  0  0
 34 35  1  0  0  0
 35 36  1  0  0  0
 10 11  1  0  0  0
 11 12  2  0  0  0
 12 13  1  0  0  0
 13 14  1  0  0  0
 14 15  2  0  0  0
 15 16  1  0  0  0
  6  1  1  0  0  0
 16  8  2  0  0  0
 15  5  1  0  0  0
 33 28  1  0  0  0
 16 12  1  0  0  0
 36 31  1  0  0  0
 19 20  1  0  0  0
 19 21  1  0  0  0
  7 17  1  0  0  0
 26 27  1  0  0  0
 35 37  1  0  0  0
M  END
> <minimizedAffinity>
-9.98354

> <minimizedRMSD>
0.33897

$$$$
P21099


 39 44  0  0  0  0  0  0  0  0999 V2000
   -6.7071    4.4411  -18.7936 C   0  0  0  0  0  0  0  0  0  0  0  0
   -7.8050    3.8837  -19.4179 C   0  0  0  0  0  0  0  0  0  0  0  0
   -9.0251    3.4216  -18.3472 S   0  0  0  0  0  0  0  0  0  0  0  0
   -8.1717    4.0452  -16.9918 C   0  0  0  0  0  0  0  0  0  0  0  0
   -8.6877    4.0958  -15.6809 C   0  0  0  0  0  0  0  0  0  0  0  0
   -7.9469    4.7511  -14.7152 C   0  0  0  0  0  0  0  0  0  0  0  0
   -6.6752    5.2119  -15.0115 C   0  0  0  0  0  0  0  0  0  0  0  0
   -6.0587    5.0112  -16.2638 C   0  0  0  0  0  0  0  0  0  0  0  0
   -6.8939    4.5239  -17.3360 C   0  0  0  0  0  0  0  0  0  0  0  0
   -3.9533    6.6091  -20.2239 C   0  0  0  0  0  0  0  0  0  0  0  0
   -3.2506    5.6715  -20.9846 C   0  0  0  0  0  0  0  0  0  0  0  0
   -3.7452    4.3805  -21.1254 C   0  0  0  0  0  0  0  0  0  0  0  0
   -4.9075    3.9951  -20.4587 C   0  0  0  0  0  0  0  0  0  0  0  0
   -5.5871    4.8926  -19.6286 C   0  0  0  0  0  0  0  0  0  0  0  0
   -5.1542    6.2193  -19.6049 C   0  0  0  0  0  0  0  0  0  0  0  0
   -3.4687    8.3602  -18.5669 N   0  0  0  0  0  0  0  0  0  0  0  0
   -3.3700    7.9737  -19.9722 C   0  0  0  0  0  0  0  0  0  0  0  0
   -3.0635    9.2877  -18.4401 H   0  0  0  0  0  0  0  0  0  0  0  0
   -2.9622    7.6865  -17.9925 H   0  0  0  0  0  0  0  0  0  0  0  0
   -8.4699    5.0470  -13.3586 C   0  0  0  0  0  0  0  0  0  0  0  0
   -8.9965    6.0760  -13.1927 O   0  0  0  0  0  0  0  0  0  0  0  0
   -8.1269    3.9248  -12.3549 N   0  0  0  0  0  0  0  0  0  0  0  0
   -7.7457    3.1123  -12.7596 H   0  0  0  0  0  0  0  0  0  0  0  0
   -8.2693    3.8747  -10.9687 C   0  0  0  0  0  0  0  0  0  0  0  0
   -8.0143    5.0100  -10.1804 C   0  0  0  0  0  0  0  0  0  0  0  0
   -8.1362    4.9621   -8.7886 C   0  0  0  0  0  0  0  0  0  0  0  0
   -8.5369    3.7735   -8.2096 C   0  0  0  0  0  0  0  0  0  0  0  0
   -8.7889    2.6466   -8.9856 C   0  0  0  0  0  0  0  0  0  0  0  0
   -8.6519    2.6743  -10.3656 C   0  0  0  0  0  0  0  0  0  0  0  0
   -9.1791    1.5161   -8.0926 C   0  0  0  0  0  0  0  0  0  0  0  0
   -9.4260    2.1271   -6.7659 N   0  0  0  0  0  0  0  0  0  0  0  0
   -8.7750    3.4493   -6.7736 C   0  0  0  0  0  0  0  0  0  0  0  0
   -9.0255    1.5436   -6.0314 H   0  0  0  0  0  0  0  0  0  0  0  0
   -4.5920    5.3778  -16.4376 C   0  0  0  0  0  0  0  0  0  0  0  0
   -3.7227    5.5286  -15.2758 N   0  0  0  0  0  0  0  0  0  0  0  0
   -3.6968    6.8212  -14.6101 C   0  0  0  0  0  0  0  0  0  0  0  0
   -3.0521    6.5329  -13.2554 C   0  0  0  0  0  0  0  0  0  0  0  0
   -2.6575    5.0622  -13.3094 C   0  0  0  0  0  0  0  0  0  0  0  0
   -3.6537    4.4733  -14.2914 C   0  0  0  0  0  0  0  0  0  0  0  0
 16 17  1  0  0  0
 17 10  1  0  0  0
 10 11  2  0  0  0
 11 12  1  0  0  0
 12 13  2  0  0  0
 13 14  1  0  0  0
 14  1  1  0  0  0
  1  2  2  0  0  0
  2  3  1  0  0  0
  3  4  1  0  0  0
  4  5  2  0  0  0
  5  6  1  0  0  0
  6 20  1  0  0  0
 20 21  2  0  0  0
 20 22  1  0  0  0
 22 24  1  0  0  0
 24 25  2  0  0  0
 25 26  1  0  0  0
 26 27  2  0  0  0
 27 28  1  0  0  0
 28 29  2  0  0  0
 28 30  1  0  0  0
 30 31  1  0  0  0
 31 32  1  0  0  0
  6  7  2  0  0  0
  7  8  1  0  0  0
  8 34  1  0  0  0
 34 35  1  0  0  0
 35 36  1  0  0  0
 36 37  1  0  0  0
 37 38  1  0  0  0
 38 39  1  0  0  0
  8  9  2  0  0  0
 14 15  2  0  0  0
 15 10  1  0  0  0
  9  1  1  0  0  0
  9  4  1  0  0  0
 29 24  1  0  0  0
 39 35  1  0  0  0
 32 27  1  0  0  0
 16 18  1  0  0  0
 16 19  1  0  0  0
 22 23  1  0  0  0
 31 33  1  0  0  0
M  END
> <minimizedAffinity>
-9.29173

> <minimizedRMSD>
0.75122

$$$$
P21104


 38 42  0  0  0  0  0  0  0  0999 V2000
   -6.0428    4.9631  -16.0719 C   0  0  0  0  0  0  0  0  0  0  0  0
   -6.5105    5.1174  -14.7629 C   0  0  0  0  0  0  0  0  0  0  0  0
   -7.8135    4.7620  -14.4364 C   0  0  0  0  0  0  0  0  0  0  0  0
   -8.6669    4.2006  -15.3849 C   0  0  0  0  0  0  0  0  0  0  0  0
   -8.2146    4.1046  -16.7141 C   0  0  0  0  0  0  0  0  0  0  0  0
   -9.1152    3.4738  -18.0365 S   0  0  0  0  0  0  0  0  0  0  0  0
   -7.9250    3.9256  -19.1540 C   0  0  0  0  0  0  0  0  0  0  0  0
   -6.8188    4.4974  -18.5611 C   0  0  0  0  0  0  0  0  0  0  0  0
   -6.9385    4.5363  -17.1060 C   0  0  0  0  0  0  0  0  0  0  0  0
   -5.7350    5.0193  -19.3948 C   0  0  0  0  0  0  0  0  0  0  0  0
   -4.7691    4.1617  -19.9220 C   0  0  0  0  0  0  0  0  0  0  0  0
   -3.6583    4.6800  -20.5803 C   0  0  0  0  0  0  0  0  0  0  0  0
   -3.5200    6.0526  -20.7574 C   0  0  0  0  0  0  0  0  0  0  0  0
   -4.5081    6.9341  -20.3010 C   0  0  0  0  0  0  0  0  0  0  0  0
   -5.6253    6.3978  -19.6395 C   0  0  0  0  0  0  0  0  0  0  0  0
   -4.2986    8.4103  -20.5338 C   0  0  0  0  0  0  0  0  0  0  0  0
   -4.0181    9.1812  -19.3267 N   0  0  0  0  0  0  0  0  0  0  0  0
   -4.8173    9.1269  -18.6953 H   0  0  0  0  0  0  0  0  0  0  0  0
   -3.8482   10.1553  -19.5772 H   0  0  0  0  0  0  0  0  0  0  0  0
   -2.5344    6.1521  -17.0428 C   0  0  0  0  0  0  0  0  0  0  0  0
   -3.9386    6.5367  -16.6271 C   0  0  0  0  0  0  0  0  0  0  0  0
   -4.3102    7.6428  -16.5614 O   0  0  0  0  0  0  0  0  0  0  0  0
   -4.6949    5.2015  -16.3653 N   0  0  0  0  0  0  0  0  0  0  0  0
   -4.1344    4.3936  -16.4140 H   0  0  0  0  0  0  0  0  0  0  0  0
   -8.3173    5.0864  -13.0797 C   0  0  0  0  0  0  0  0  0  0  0  0
   -8.9257    6.0735  -12.9433 O   0  0  0  0  0  0  0  0  0  0  0  0
   -7.9740    3.9732  -12.0650 N   0  0  0  0  0  0  0  0  0  0  0  0
   -7.5069    3.1959  -12.4484 H   0  0  0  0  0  0  0  0  0  0  0  0
   -8.2179    3.8901  -10.6955 C   0  0  0  0  0  0  0  0  0  0  0  0
   -7.9758    4.9824   -9.8458 C   0  0  0  0  0  0  0  0  0  0  0  0
   -8.2145    4.8909   -8.4701 C   0  0  0  0  0  0  0  0  0  0  0  0
   -8.7018    3.6987   -7.9706 C   0  0  0  0  0  0  0  0  0  0  0  0
   -8.9354    2.6124   -8.8086 C   0  0  0  0  0  0  0  0  0  0  0  0
   -8.7029    2.6888  -10.1722 C   0  0  0  0  0  0  0  0  0  0  0  0
   -9.4052    1.4601   -7.9846 C   0  0  0  0  0  0  0  0  0  0  0  0
   -9.8194    2.0571   -6.6894 N   0  0  0  0  0  0  0  0  0  0  0  0
   -9.0456    3.3134   -6.5702 C   0  0  0  0  0  0  0  0  0  0  0  0
   -9.5975    1.4268   -5.9188 H   0  0  0  0  0  0  0  0  0  0  0  0
 20 21  1  0  0  0
 21 22  2  0  0  0
 21 23  1  0  0  0
 23  1  1  0  0  0
  1  2  2  0  0  0
  2  3  1  0  0  0
  3 25  1  0  0  0
 25 26  2  0  0  0
 25 27  1  0  0  0
 27 29  1  0  0  0
 29 30  2  0  0  0
 30 31  1  0  0  0
 31 32  2  0  0  0
 32 33  1  0  0  0
 33 34  2  0  0  0
 33 35  1  0  0  0
 35 36  1  0  0  0
 36 37  1  0  0  0
  3  4  2  0  0  0
  4  5  1  0  0  0
  5  6  1  0  0  0
  6  7  1  0  0  0
  7  8  2  0  0  0
  8 10  1  0  0  0
 10 11  2  0  0  0
 11 12  1  0  0  0
 12 13  2  0  0  0
 13 14  1  0  0  0
 14 16  1  0  0  0
 16 17  1  0  0  0
 14 15  2  0  0  0
  8  9  1  0  0  0
  9  1  1  0  0  0
 34 29  1  0  0  0
  9  5  2  0  0  0
 37 32  1  0  0  0
 15 10  1  0  0  0
 23 24  1  0  0  0
 27 28  1  0  0  0
 36 38  1  0  0  0
 17 18  1  0  0  0
 17 19  1  0  0  0
M  END
> <minimizedAffinity>
-9.37127

> <minimizedRMSD>
0.91759

$$$$
P21115


 42 46  0  0  0  0  0  0  0  0999 V2000
   -3.8065    4.7778  -16.5172 C   0  0  0  0  0  0  0  0  0  0  0  0
   -5.0164    5.7043  -16.3220 C   0  0  0  0  0  0  0  0  0  0  0  0
   -5.3073    5.8639  -14.8063 C   0  0  0  0  0  0  0  0  0  0  0  0
   -6.0955    4.7132  -14.1580 C   0  0  0  0  0  0  0  0  0  0  0  0
   -7.4563    4.5683  -14.8263 C   0  0  0  0  0  0  0  0  0  0  0  0
   -7.9742    3.3716  -14.4250 F   0  0  0  0  0  0  0  0  0  0  0  0
   -7.3423    4.6252  -16.3199 C   0  0  0  0  0  0  0  0  0  0  0  0
   -8.6147    4.0256  -17.2822 S   0  0  0  0  0  0  0  0  0  0  0  0
   -7.8248    4.4924  -18.7091 C   0  0  0  0  0  0  0  0  0  0  0  0
   -6.5897    5.0771  -18.4858 C   0  0  0  0  0  0  0  0  0  0  0  0
   -6.2822    5.1630  -17.0525 C   0  0  0  0  0  0  0  0  0  0  0  0
   -5.7723    5.4503  -19.6428 C   0  0  0  0  0  0  0  0  0  0  0  0
   -5.1496    4.4711  -20.4152 C   0  0  0  0  0  0  0  0  0  0  0  0
   -4.1807    4.8221  -21.3504 C   0  0  0  0  0  0  0  0  0  0  0  0
   -3.8396    6.1566  -21.5375 C   0  0  0  0  0  0  0  0  0  0  0  0
   -4.5199    7.1643  -20.8444 C   0  0  0  0  0  0  0  0  0  0  0  0
   -5.5510    6.7869  -19.9726 C   0  0  0  0  0  0  0  0  0  0  0  0
   -4.0688    8.5914  -21.0387 C   0  0  0  0  0  0  0  0  0  0  0  0
   -3.6124    9.2796  -19.8373 N   0  0  0  0  0  0  0  0  0  0  0  0
   -4.3848    9.3568  -19.1756 H   0  0  0  0  0  0  0  0  0  0  0  0
   -3.2820   10.2123  -20.0846 H   0  0  0  0  0  0  0  0  0  0  0  0
   -4.6422    7.0257  -16.9041 N   0  0  0  0  0  0  0  0  0  0  0  0
   -3.2603    7.1769  -17.3258 N   0  0  0  0  0  0  0  0  0  0  0  0
   -4.8321    7.7397  -16.2009 H   0  0  0  0  0  0  0  0  0  0  0  0
   -3.0412    6.4735  -18.0313 H   0  0  0  0  0  0  0  0  0  0  0  0
   -2.6443    7.0555  -16.5219 H   0  0  0  0  0  0  0  0  0  0  0  0
   -6.2514    5.0421  -12.6699 C   0  0  0  0  0  0  0  0  0  0  0  0
   -5.5299    5.7963  -12.1421 O   0  0  0  0  0  0  0  0  0  0  0  0
   -7.4199    4.1933  -12.0922 N   0  0  0  0  0  0  0  0  0  0  0  0
   -7.8323    3.5695  -12.7325 H   0  0  0  0  0  0  0  0  0  0  0  0
   -7.9801    4.1724  -10.8100 C   0  0  0  0  0  0  0  0  0  0  0  0
   -8.3484    2.9189  -10.3010 C   0  0  0  0  0  0  0  0  0  0  0  0
   -8.7640    2.8334   -8.9816 C   0  0  0  0  0  0  0  0  0  0  0  0
   -8.7940    3.9528   -8.1584 C   0  0  0  0  0  0  0  0  0  0  0  0
   -8.4887    5.2067   -8.6529 C   0  0  0  0  0  0  0  0  0  0  0  0
   -8.1338    5.3288  -10.0080 C   0  0  0  0  0  0  0  0  0  0  0  0
   -9.2189    3.5401   -6.7885 C   0  0  0  0  0  0  0  0  0  0  0  0
   -9.8049    2.1954   -6.9553 N   0  0  0  0  0  0  0  0  0  0  0  0
   -9.1957    1.6404   -8.1917 C   0  0  0  0  0  0  0  0  0  0  0  0
  -10.8179    2.2591   -7.0560 H   0  0  0  0  0  0  0  0  0  0  0  0
   -8.1227    6.6593  -10.5576 C   0  0  0  0  0  0  0  0  0  0  0  0
   -8.2187    7.7153  -11.0343 N   0  0  0  0  0  0  0  0  0  0  0  0
  2  1  1  0  0  0
  2 22  1  0  0  0
 22 23  1  0  0  0
  2  3  1  0  0  0
  3  4  1  0  0  0
  4 27  1  0  0  0
 27 28  2  0  0  0
 27 29  1  0  0  0
 29 31  1  0  0  0
 31 32  2  0  0  0
 32 33  1  0  0  0
 33 34  2  0  0  0
 34 35  1  0  0  0
 35 36  2  0  0  0
 36 41  1  0  0  0
 41 42  3  0  0  0
 34 37  1  0  0  0
 37 38  1  0  0  0
 38 39  1  0  0  0
  4  5  1  0  0  0
  5  6  1  0  0  0
  5  7  1  0  0  0
  7  8  1  0  0  0
  8  9  1  0  0  0
  9 10  2  0  0  0
 10 12  1  0  0  0
 12 13  2  0  0  0
 13 14  1  0  0  0
 14 15  2  0  0  0
 15 16  1  0  0  0
 16 18  1  0  0  0
 18 19  1  0  0  0
 16 17  2  0  0  0
 10 11  1  0  0  0
 11  2  1  0  0  0
 36 31  1  0  0  0
 11  7  2  0  0  0
 39 33  1  0  0  0
 17 12  1  0  0  0
 22 24  1  0  0  0
 23 25  1  0  0  0
 23 26  1  0  0  0
 29 30  1  0  0  0
 38 40  1  0  0  0
 19 20  1  0  0  0
 19 21  1  0  0  0
M  END
> <minimizedAffinity>
-7.75860

> <minimizedRMSD>
0.51358

$$$$
P21123


 35 40  0  0  0  0  0  0  0  0999 V2000
   -4.2455    6.8898  -20.0548 C   0  0  0  0  0  0  0  0  0  0  0  0
   -3.8762    6.0898  -21.3116 C   0  0  0  0  0  0  0  0  0  0  0  0
   -3.9494    4.5942  -21.0205 C   0  0  0  0  0  0  0  0  0  0  0  0
   -5.3176    4.2270  -20.4688 C   0  0  0  0  0  0  0  0  0  0  0  0
   -5.7333    5.0098  -19.2173 C   0  0  0  0  0  0  0  0  0  0  0  0
   -5.6728    6.5145  -19.5625 C   0  0  0  0  0  0  0  0  0  0  0  0
   -4.9305    4.9362  -17.7781 C   0  0  0  0  0  0  0  0  0  0  0  0
   -3.7362    5.0115  -17.5482 O   0  0  0  0  0  0  0  0  0  0  0  0
   -5.9246    4.8131  -16.6809 C   0  0  0  0  0  0  0  0  0  0  0  0
   -5.9347    5.0039  -15.3182 C   0  0  0  0  0  0  0  0  0  0  0  0
   -7.1417    4.7328  -14.6478 C   0  0  0  0  0  0  0  0  0  0  0  0
   -8.2880    4.2017  -15.3082 C   0  0  0  0  0  0  0  0  0  0  0  0
   -8.2233    4.0568  -16.6993 C   0  0  0  0  0  0  0  0  0  0  0  0
   -9.2975    3.4661  -17.9086 S   0  0  0  0  0  0  0  0  0  0  0  0
   -8.2368    3.9194  -19.2093 C   0  0  0  0  0  0  0  0  0  0  0  0
   -7.0846    4.4850  -18.7322 C   0  0  0  0  0  0  0  0  0  0  0  0
   -7.0764    4.4440  -17.3362 C   0  0  0  0  0  0  0  0  0  0  0  0
   -5.2540    9.1268  -20.5092 N   0  0  0  0  0  0  0  0  0  0  0  0
   -4.0313    8.3949  -20.2125 C   0  0  0  0  0  0  0  0  0  0  0  0
   -5.0417   10.1202  -20.6015 H   0  0  0  0  0  0  0  0  0  0  0  0
   -5.9237    8.9912  -19.7519 H   0  0  0  0  0  0  0  0  0  0  0  0
   -7.2635    5.1594  -13.2275 C   0  0  0  0  0  0  0  0  0  0  0  0
   -7.0102    6.2693  -12.9687 O   0  0  0  0  0  0  0  0  0  0  0  0
   -7.8207    4.0264  -12.3386 N   0  0  0  0  0  0  0  0  0  0  0  0
   -8.0223    3.1893  -12.8160 H   0  0  0  0  0  0  0  0  0  0  0  0
   -8.0847    3.9958  -10.9715 C   0  0  0  0  0  0  0  0  0  0  0  0
   -7.8706    5.1245  -10.1635 C   0  0  0  0  0  0  0  0  0  0  0  0
   -8.1662    5.0937   -8.7958 C   0  0  0  0  0  0  0  0  0  0  0  0
   -8.6633    3.9200   -8.2618 C   0  0  0  0  0  0  0  0  0  0  0  0
   -8.8533    2.7948   -9.0582 C   0  0  0  0  0  0  0  0  0  0  0  0
   -8.5863    2.8181  -10.4158 C   0  0  0  0  0  0  0  0  0  0  0  0
   -9.3142    1.6662   -8.1985 C   0  0  0  0  0  0  0  0  0  0  0  0
   -9.7937    2.3093   -6.9498 N   0  0  0  0  0  0  0  0  0  0  0  0
   -9.0561    3.5905   -6.8597 C   0  0  0  0  0  0  0  0  0  0  0  0
   -9.5867    1.7207   -6.1429 H   0  0  0  0  0  0  0  0  0  0  0  0
 18 19  1  0  0  0
  1 19  1  0  0  0
  1  2  1  0  0  0
  2  3  1  0  0  0
  3  4  1  0  0  0
  5  4  1  0  0  0
  5  6  1  0  0  0
  5  7  1  0  0  0
  7  8  2  0  0  0
  7  9  1  0  0  0
  9 10  1  0  0  0
 10 11  2  0  0  0
 11 22  1  0  0  0
 22 23  2  0  0  0
 22 24  1  0  0  0
 24 26  1  0  0  0
 26 27  2  0  0  0
 27 28  1  0  0  0
 28 29  2  0  0  0
 29 30  1  0  0  0
 30 31  2  0  0  0
 30 32  1  0  0  0
 32 33  1  0  0  0
 33 34  1  0  0  0
 11 12  1  0  0  0
 12 13  2  0  0  0
 13 14  1  0  0  0
 14 15  1  0  0  0
 15 16  2  0  0  0
 16 17  1  0  0  0
  6  1  1  0  0  0
 17  9  2  0  0  0
 16  5  1  0  0  0
 31 26  1  0  0  0
 17 13  1  0  0  0
 34 29  1  0  0  0
 18 20  1  0  0  0
 18 21  1  0  0  0
 24 25  1  0  0  0
 33 35  1  0  0  0
M  END
> <minimizedAffinity>
-10.42089

> <minimizedRMSD>
0.29926

$$$$
P21135


 36 40  0  0  0  0  0  0  0  0999 V2000
   -7.0231    4.5191  -18.5512 C   0  0  0  0  0  0  0  0  0  0  0  0
   -8.2766    4.0485  -18.8808 C   0  0  0  0  0  0  0  0  0  0  0  0
   -9.2232    3.6747  -17.5226 S   0  0  0  0  0  0  0  0  0  0  0  0
   -8.0040    4.2032  -16.4307 C   0  0  0  0  0  0  0  0  0  0  0  0
   -8.1209    4.3000  -15.0255 C   0  0  0  0  0  0  0  0  0  0  0  0
   -7.0319    4.7873  -14.2979 C   0  0  0  0  0  0  0  0  0  0  0  0
   -5.8283    5.0758  -14.9261 C   0  0  0  0  0  0  0  0  0  0  0  0
   -5.7152    4.9217  -16.3039 C   0  0  0  0  0  0  0  0  0  0  0  0
   -4.4590    5.1597  -16.8242 O   0  0  0  0  0  0  0  0  0  0  0  0
   -6.8287    4.5561  -17.1093 C   0  0  0  0  0  0  0  0  0  0  0  0
   -3.7537    5.3985  -16.2553 H   0  0  0  0  0  0  0  0  0  0  0  0
   -4.6941    6.7053  -20.5693 C   0  0  0  0  0  0  0  0  0  0  0  0
   -4.0720    5.7510  -21.3766 C   0  0  0  0  0  0  0  0  0  0  0  0
   -4.4769    4.4203  -21.3213 C   0  0  0  0  0  0  0  0  0  0  0  0
   -5.4818    4.0182  -20.4422 C   0  0  0  0  0  0  0  0  0  0  0  0
   -6.0879    4.9474  -19.5941 C   0  0  0  0  0  0  0  0  0  0  0  0
   -5.7279    6.2971  -19.7117 C   0  0  0  0  0  0  0  0  0  0  0  0
   -5.3410    9.0650  -20.4588 N   0  0  0  0  0  0  0  0  0  0  0  0
   -4.2212    8.1338  -20.5578 C   0  0  0  0  0  0  0  0  0  0  0  0
   -4.9879   10.0219  -20.4535 H   0  0  0  0  0  0  0  0  0  0  0  0
   -5.8554    8.8876  -19.5961 H   0  0  0  0  0  0  0  0  0  0  0  0
   -7.1523    5.1184  -12.8554 C   0  0  0  0  0  0  0  0  0  0  0  0
   -6.6941    6.1301  -12.4942 O   0  0  0  0  0  0  0  0  0  0  0  0
   -7.8334    3.9845  -12.0554 N   0  0  0  0  0  0  0  0  0  0  0  0
   -8.0705    3.1903  -12.5866 H   0  0  0  0  0  0  0  0  0  0  0  0
   -8.1669    3.9036  -10.7030 C   0  0  0  0  0  0  0  0  0  0  0  0
   -8.0143    5.0239   -9.8629 C   0  0  0  0  0  0  0  0  0  0  0  0
   -8.2819    4.9396   -8.4944 C   0  0  0  0  0  0  0  0  0  0  0  0
   -8.7012    3.7201   -8.0048 C   0  0  0  0  0  0  0  0  0  0  0  0
   -8.8678    2.6013   -8.8174 C   0  0  0  0  0  0  0  0  0  0  0  0
   -8.6117    2.6818  -10.1794 C   0  0  0  0  0  0  0  0  0  0  0  0
   -9.2819    1.4360   -7.9802 C   0  0  0  0  0  0  0  0  0  0  0  0
   -9.4308    2.0234   -6.6644 N   0  0  0  0  0  0  0  0  0  0  0  0
   -9.0250    3.3393   -6.6255 C   0  0  0  0  0  0  0  0  0  0  0  0
   -8.9314    4.0651   -5.6537 O   0  0  0  0  0  0  0  0  0  0  0  0
   -9.7829    1.5363   -5.8847 H   0  0  0  0  0  0  0  0  0  0  0  0
 18 19  1  0  0  0
 19 12  1  0  0  0
 12 13  2  0  0  0
 13 14  1  0  0  0
 14 15  2  0  0  0
 15 16  1  0  0  0
 16  1  1  0  0  0
  1  2  2  0  0  0
  2  3  1  0  0  0
  3  4  1  0  0  0
  4  5  2  0  0  0
  5  6  1  0  0  0
  6 22  1  0  0  0
 22 23  2  0  0  0
 22 24  1  0  0  0
 24 26  1  0  0  0
 26 27  2  0  0  0
 27 28  1  0  0  0
 28 29  2  0  0  0
 29 30  1  0  0  0
 30 31  2  0  0  0
 30 32  1  0  0  0
 32 33  1  0  0  0
 33 34  1  0  0  0
 34 35  2  0  0  0
  6  7  2  0  0  0
  7  8  1  0  0  0
  8  9  1  0  0  0
  8 10  2  0  0  0
 16 17  2  0  0  0
 17 12  1  0  0  0
 10  1  1  0  0  0
 10  4  1  0  0  0
 31 26  1  0  0  0
 34 29  1  0  0  0
 18 20  1  0  0  0
 18 21  1  0  0  0
 24 25  1  0  0  0
 33 36  1  0  0  0
  9 11  1  0  0  0
M  END
> <minimizedAffinity>
-9.50107

> <minimizedRMSD>
0.46386

$$$$
P21152


 37 42  0  0  0  0  0  0  0  0999 V2000
   -3.8866    5.3928  -21.2668 C   0  0  0  0  0  0  0  0  0  0  0  0
   -4.9030    4.5577  -21.7544 C   0  0  0  0  0  0  0  0  0  0  0  0
   -5.9271    4.1156  -20.9280 C   0  0  0  0  0  0  0  0  0  0  0  0
   -5.9520    4.4941  -19.5911 C   0  0  0  0  0  0  0  0  0  0  0  0
   -4.8439    5.1932  -19.0181 C   0  0  0  0  0  0  0  0  0  0  0  0
   -3.8289    5.6937  -19.8788 C   0  0  0  0  0  0  0  0  0  0  0  0
   -4.8061    5.4375  -17.5834 N   0  0  0  0  0  0  0  0  0  0  0  0
   -5.8292    4.9614  -16.7253 C   0  0  0  0  0  0  0  0  0  0  0  0
   -5.8540    5.1410  -15.3430 C   0  0  0  0  0  0  0  0  0  0  0  0
   -6.9926    4.7770  -14.5993 C   0  0  0  0  0  0  0  0  0  0  0  0
   -8.1449    4.2606  -15.2239 C   0  0  0  0  0  0  0  0  0  0  0  0
   -8.1097    4.0981  -16.6165 C   0  0  0  0  0  0  0  0  0  0  0  0
   -9.3496    3.5920  -17.6991 S   0  0  0  0  0  0  0  0  0  0  0  0
   -8.3482    3.7852  -19.0755 C   0  0  0  0  0  0  0  0  0  0  0  0
   -7.0812    4.1762  -18.7263 C   0  0  0  0  0  0  0  0  0  0  0  0
   -6.9676    4.4094  -17.3326 C   0  0  0  0  0  0  0  0  0  0  0  0
   -4.0538    5.9443  -17.2008 H   0  0  0  0  0  0  0  0  0  0  0  0
   -2.7550    6.6135  -19.3532 C   0  0  0  0  0  0  0  0  0  0  0  0
   -3.3324    7.8774  -18.8980 N   0  0  0  0  0  0  0  0  0  0  0  0
   -3.7969    8.3400  -19.6795 H   0  0  0  0  0  0  0  0  0  0  0  0
   -2.5919    8.4794  -18.5380 H   0  0  0  0  0  0  0  0  0  0  0  0
   -7.0058    5.1004  -13.1397 C   0  0  0  0  0  0  0  0  0  0  0  0
   -6.5002    6.0994  -12.8024 O   0  0  0  0  0  0  0  0  0  0  0  0
   -7.7229    4.0064  -12.3076 N   0  0  0  0  0  0  0  0  0  0  0  0
   -8.0008    3.2139  -12.8213 H   0  0  0  0  0  0  0  0  0  0  0  0
   -8.0383    3.9623  -10.9494 C   0  0  0  0  0  0  0  0  0  0  0  0
   -7.9211    5.1067  -10.1439 C   0  0  0  0  0  0  0  0  0  0  0  0
   -8.2209    5.0596   -8.7785 C   0  0  0  0  0  0  0  0  0  0  0  0
   -8.6286    3.8545   -8.2393 C   0  0  0  0  0  0  0  0  0  0  0  0
   -8.7541    2.7207   -9.0327 C   0  0  0  0  0  0  0  0  0  0  0  0
   -8.4740    2.7558  -10.3914 C   0  0  0  0  0  0  0  0  0  0  0  0
   -9.2259    1.5807   -8.1950 C   0  0  0  0  0  0  0  0  0  0  0  0
   -9.2019    2.0639   -6.7904 N   0  0  0  0  0  0  0  0  0  0  0  0
   -9.0204    3.5284   -6.8397 C   0  0  0  0  0  0  0  0  0  0  0  0
   -8.4285    1.6320   -6.2847 H   0  0  0  0  0  0  0  0  0  0  0  0
   -2.3479    4.8748  -23.2044 C   0  0  0  0  0  0  0  0  0  0  0  0
   -2.9043    5.9449  -22.2805 C   0  0  0  0  0  0  0  0  0  0  0  0
 36 37  1  0  0  0
 37  1  1  0  0  0
  1  2  2  0  0  0
  2  3  1  0  0  0
  3  4  2  0  0  0
  4  5  1  0  0  0
  5  6  2  0  0  0
  6 18  1  0  0  0
 18 19  1  0  0  0
  5  7  1  0  0  0
  7  8  1  0  0  0
  8  9  1  0  0  0
  9 10  2  0  0  0
 10 22  1  0  0  0
 22 23  2  0  0  0
 22 24  1  0  0  0
 24 26  1  0  0  0
 26 27  2  0  0  0
 27 28  1  0  0  0
 28 29  2  0  0  0
 29 30  1  0  0  0
 30 31  2  0  0  0
 30 32  1  0  0  0
 32 33  1  0  0  0
 33 34  1  0  0  0
 10 11  1  0  0  0
 11 12  2  0  0  0
 12 13  1  0  0  0
 13 14  1  0  0  0
 14 15  2  0  0  0
 15 16  1  0  0  0
  6  1  1  0  0  0
 16  8  2  0  0  0
 15  4  1  0  0  0
 31 26  1  0  0  0
 16 12  1  0  0  0
 34 29  1  0  0  0
 19 20  1  0  0  0
 19 21  1  0  0  0
  7 17  1  0  0  0
 24 25  1  0  0  0
 33 35  1  0  0  0
M  END
> <minimizedAffinity>
-10.16867

> <minimizedRMSD>
0.55476

$$$$
P21198


 38 42  0  0  0  0  0  0  0  0999 V2000
   -4.7426    5.3397  -17.3738 C   0  0  0  0  0  0  0  0  0  0  0  0
   -5.3031    5.4291  -16.1784 N   0  0  0  0  0  0  0  0  0  0  0  0
   -6.6269    5.1033  -16.3585 C   0  0  0  0  0  0  0  0  0  0  0  0
   -7.6896    5.0033  -15.4428 C   0  0  0  0  0  0  0  0  0  0  0  0
   -8.9395    4.5347  -15.8777 C   0  0  0  0  0  0  0  0  0  0  0  0
   -9.1393    4.2333  -17.2157 C   0  0  0  0  0  0  0  0  0  0  0  0
  -10.3450    3.8120  -17.6149 F   0  0  0  0  0  0  0  0  0  0  0  0
   -8.1317    4.3858  -18.1614 C   0  0  0  0  0  0  0  0  0  0  0  0
   -6.8824    4.8222  -17.7010 C   0  0  0  0  0  0  0  0  0  0  0  0
   -5.7017    5.1150  -18.3390 N   0  0  0  0  0  0  0  0  0  0  0  0
   -5.5737    5.2768  -19.7447 N   0  0  0  0  0  0  0  0  0  0  0  0
   -6.4550    5.0330  -20.1967 H   0  0  0  0  0  0  0  0  0  0  0  0
   -4.8336    4.6665  -20.0913 H   0  0  0  0  0  0  0  0  0  0  0  0
   -0.9641    5.6974  -17.5847 C   0  0  0  0  0  0  0  0  0  0  0  0
   -1.3696    4.9824  -18.6145 N   0  0  0  0  0  0  0  0  0  0  0  0
   -2.7386    4.8171  -18.6348 N   0  0  0  0  0  0  0  0  0  0  0  0
   -3.3345    5.4178  -17.6241 C   0  0  0  0  0  0  0  0  0  0  0  0
   -2.2486    6.2274  -16.5658 S   0  0  0  0  0  0  0  0  0  0  0  0
    0.9330    5.4863  -15.9490 C   0  0  0  0  0  0  0  0  0  0  0  0
    0.4664    6.0656  -17.2855 C   0  0  0  0  0  0  0  0  0  0  0  0
    1.4057    5.6017  -18.4030 C   0  0  0  0  0  0  0  0  0  0  0  0
   -7.5486    5.5260  -14.0691 C   0  0  0  0  0  0  0  0  0  0  0  0
   -7.2096    6.6323  -13.9212 O   0  0  0  0  0  0  0  0  0  0  0  0
   -7.9966    4.4708  -13.0371 N   0  0  0  0  0  0  0  0  0  0  0  0
   -8.3099    3.6220  -13.4251 H   0  0  0  0  0  0  0  0  0  0  0  0
   -8.0299    4.5232  -11.6501 C   0  0  0  0  0  0  0  0  0  0  0  0
   -7.4755    5.5853  -10.9183 C   0  0  0  0  0  0  0  0  0  0  0  0
   -7.5514    5.6093   -9.5175 C   0  0  0  0  0  0  0  0  0  0  0  0
   -8.1935    4.5654   -8.8805 C   0  0  0  0  0  0  0  0  0  0  0  0
   -8.7438    3.5237   -9.6140 C   0  0  0  0  0  0  0  0  0  0  0  0
   -8.6645    3.4759  -10.9923 C   0  0  0  0  0  0  0  0  0  0  0  0
   -9.3149    2.5081   -8.6973 C   0  0  0  0  0  0  0  0  0  0  0  0
   -8.4378    1.3906   -8.6353 N   0  0  0  0  0  0  0  0  0  0  0  0
   -9.3082    3.1107   -7.3632 N   0  0  0  0  0  0  0  0  0  0  0  0
   -8.3843    4.2723   -7.4312 C   0  0  0  0  0  0  0  0  0  0  0  0
   -7.5166    1.6983   -8.3234 H   0  0  0  0  0  0  0  0  0  0  0  0
   -8.3598    0.9677   -9.5603 H   0  0  0  0  0  0  0  0  0  0  0  0
   -8.9766    2.4364   -6.6734 H   0  0  0  0  0  0  0  0  0  0  0  0
 19 20  1  0  0  0
 20 21  1  0  0  0
 20 14  1  0  0  0
 14 15  2  0  0  0
 15 16  1  0  0  0
 16 17  2  0  0  0
 17  1  1  0  0  0
  1  2  2  0  0  0
  2  3  1  0  0  0
  3  4  2  0  0  0
  4 22  1  0  0  0
 22 23  2  0  0  0
 22 24  1  0  0  0
 24 26  1  0  0  0
 26 27  2  0  0  0
 27 28  1  0  0  0
 28 29  2  0  0  0
 29 30  1  0  0  0
 30 31  2  0  0  0
 30 32  1  0  0  0
 32 33  1  0  0  0
 32 34  1  0  0  0
 34 35  1  0  0  0
  4  5  1  0  0  0
  5  6  2  0  0  0
  6  7  1  0  0  0
  6  8  1  0  0  0
  8  9  2  0  0  0
  9 10  1  0  0  0
 10 11  1  0  0  0
 17 18  1  0  0  0
 18 14  1  0  0  0
 10  1  1  0  0  0
  9  3  1  0  0  0
 31 26  1  0  0  0
 35 29  1  0  0  0
 24 25  1  0  0  0
 33 36  1  0  0  0
 33 37  1  0  0  0
 34 38  1  0  0  0
 11 12  1  0  0  0
 11 13  1  0  0  0
M  END
> <minimizedAffinity>
-10.07013

> <minimizedRMSD>
0.44055

$$$$
P21199


 35 39  0  0  0  0  0  0  0  0999 V2000
   -4.5695    5.4835  -16.6616 C   0  0  0  0  0  0  0  0  0  0  0  0
   -5.0701    5.4969  -15.4406 N   0  0  0  0  0  0  0  0  0  0  0  0
   -6.4038    5.1636  -15.5709 C   0  0  0  0  0  0  0  0  0  0  0  0
   -7.4229    4.9346  -14.6245 C   0  0  0  0  0  0  0  0  0  0  0  0
   -8.6956    4.5121  -15.0559 C   0  0  0  0  0  0  0  0  0  0  0  0
   -8.9521    4.3239  -16.4092 C   0  0  0  0  0  0  0  0  0  0  0  0
  -10.1597    3.8884  -16.7885 F   0  0  0  0  0  0  0  0  0  0  0  0
   -7.9646    4.5447  -17.3570 C   0  0  0  0  0  0  0  0  0  0  0  0
   -6.7130    4.9779  -16.9146 C   0  0  0  0  0  0  0  0  0  0  0  0
   -5.5476    5.2394  -17.5876 N   0  0  0  0  0  0  0  0  0  0  0  0
   -5.4341    5.2498  -18.5654 H   0  0  0  0  0  0  0  0  0  0  0  0
   -0.8396    5.6841  -17.2800 C   0  0  0  0  0  0  0  0  0  0  0  0
   -1.4343    5.2477  -18.3749 N   0  0  0  0  0  0  0  0  0  0  0  0
   -2.8024    5.1978  -18.2487 N   0  0  0  0  0  0  0  0  0  0  0  0
   -3.2054    5.6091  -17.0637 C   0  0  0  0  0  0  0  0  0  0  0  0
   -1.9502    6.1863  -16.0582 S   0  0  0  0  0  0  0  0  0  0  0  0
    1.1673    5.4048  -15.7024 C   0  0  0  0  0  0  0  0  0  0  0  0
    0.6610    5.6779  -17.1173 C   0  0  0  0  0  0  0  0  0  0  0  0
    1.2691    6.9653  -17.6683 C   0  0  0  0  0  0  0  0  0  0  0  0
   -7.1873    5.1828  -13.1892 C   0  0  0  0  0  0  0  0  0  0  0  0
   -6.4584    6.0404  -12.8780 O   0  0  0  0  0  0  0  0  0  0  0  0
   -8.0485    4.2330  -12.3208 N   0  0  0  0  0  0  0  0  0  0  0  0
   -8.5272    3.5350  -12.8238 H   0  0  0  0  0  0  0  0  0  0  0  0
   -8.2561    4.2055  -10.9437 C   0  0  0  0  0  0  0  0  0  0  0  0
   -8.0236    5.3360  -10.1465 C   0  0  0  0  0  0  0  0  0  0  0  0
   -8.2272    5.2890   -8.7632 C   0  0  0  0  0  0  0  0  0  0  0  0
   -8.6756    4.1058   -8.2041 C   0  0  0  0  0  0  0  0  0  0  0  0
   -8.9218    2.9906   -8.9927 C   0  0  0  0  0  0  0  0  0  0  0  0
   -8.7089    3.0167  -10.3622 C   0  0  0  0  0  0  0  0  0  0  0  0
   -9.3952    1.8669   -8.1352 C   0  0  0  0  0  0  0  0  0  0  0  0
   -9.5484    2.4253   -6.7643 N   0  0  0  0  0  0  0  0  0  0  0  0
   -8.9544    3.7785   -6.7783 C   0  0  0  0  0  0  0  0  0  0  0  0
   -9.0606    1.8358   -6.0898 H   0  0  0  0  0  0  0  0  0  0  0  0
   -8.0681    4.1669  -18.7182 C   0  0  0  0  0  0  0  0  0  0  0  0
   -7.9042    3.7503  -19.7903 N   0  0  0  0  0  0  0  0  0  0  0  0
 17 18  1  0  0  0
 18 19  1  0  0  0
 18 12  1  0  0  0
 12 13  2  0  0  0
 13 14  1  0  0  0
 14 15  2  0  0  0
 15  1  1  0  0  0
  1  2  2  0  0  0
  2  3  1  0  0  0
  3  4  2  0  0  0
  4 20  1  0  0  0
 20 21  2  0  0  0
 20 22  1  0  0  0
 22 24  1  0  0  0
 24 25  2  0  0  0
 25 26  1  0  0  0
 26 27  2  0  0  0
 27 28  1  0  0  0
 28 29  2  0  0  0
 28 30  1  0  0  0
 30 31  1  0  0  0
 31 32  1  0  0  0
  4  5  1  0  0  0
  5  6  2  0  0  0
  6  7  1  0  0  0
  6  8  1  0  0  0
  8 34  1  0  0  0
 34 35  3  0  0  0
  8  9  2  0  0  0
  9 10  1  0  0  0
 15 16  1  0  0  0
 16 12  1  0  0  0
 10  1  1  0  0  0
  9  3  1  0  0  0
 29 24  1  0  0  0
 32 27  1  0  0  0
 22 23  1  0  0  0
 31 33  1  0  0  0
 10 11  1  0  0  0
M  END
> <minimizedAffinity>
-7.76001

> <minimizedRMSD>
0.67850

$$$$
P21201


 41 45  0  0  0  0  0  0  0  0999 V2000
   -7.7391    5.0344  -13.9807 C   0  0  0  0  0  0  0  0  0  0  0  0
   -6.3426    5.0863  -13.7430 O   0  0  0  0  0  0  0  0  0  0  0  0
   -6.1810    5.3026  -12.8113 H   0  0  0  0  0  0  0  0  0  0  0  0
   -7.9239    4.6898  -15.4645 C   0  0  0  0  0  0  0  0  0  0  0  0
   -9.1621    4.2086  -15.9549 C   0  0  0  0  0  0  0  0  0  0  0  0
   -9.4207    4.0345  -17.3126 C   0  0  0  0  0  0  0  0  0  0  0  0
  -10.6285    3.5947  -17.6870 F   0  0  0  0  0  0  0  0  0  0  0  0
   -8.4670    4.3148  -18.2783 C   0  0  0  0  0  0  0  0  0  0  0  0
   -7.2146    4.7509  -17.8411 C   0  0  0  0  0  0  0  0  0  0  0  0
   -6.1069    5.0724  -18.5795 N   0  0  0  0  0  0  0  0  0  0  0  0
   -5.1499    5.3328  -17.7153 C   0  0  0  0  0  0  0  0  0  0  0  0
   -5.6454    5.2942  -16.4370 N   0  0  0  0  0  0  0  0  0  0  0  0
   -6.9681    4.9094  -16.4806 C   0  0  0  0  0  0  0  0  0  0  0  0
   -5.1383    5.5070  -15.6204 H   0  0  0  0  0  0  0  0  0  0  0  0
   -3.7813    5.5668  -18.0704 C   0  0  0  0  0  0  0  0  0  0  0  0
   -3.3640    5.6286  -19.3169 N   0  0  0  0  0  0  0  0  0  0  0  0
   -1.9913    5.6947  -19.4136 N   0  0  0  0  0  0  0  0  0  0  0  0
   -1.3983    5.6648  -18.2377 C   0  0  0  0  0  0  0  0  0  0  0  0
   -2.5149    5.7233  -16.9208 S   0  0  0  0  0  0  0  0  0  0  0  0
    0.0953    5.4930  -18.0750 C   0  0  0  0  0  0  0  0  0  0  0  0
    0.6277    5.7472  -16.6664 C   0  0  0  0  0  0  0  0  0  0  0  0
    0.8611    6.3507  -19.0855 C   0  0  0  0  0  0  0  0  0  0  0  0
   -7.5953    7.4651  -13.1540 N   0  0  0  0  0  0  0  0  0  0  0  0
   -8.5878    6.3960  -13.7022 C   0  0  0  0  0  0  0  0  0  0  0  0
   -9.7463    6.4515  -13.8711 O   0  0  0  0  0  0  0  0  0  0  0  0
   -6.6713    7.1472  -13.0344 H   0  0  0  0  0  0  0  0  0  0  0  0
   -7.8112    8.8457  -12.7931 C   0  0  0  0  0  0  0  0  0  0  0  0
  -10.1725    9.5292  -12.2097 C   0  0  0  0  0  0  0  0  0  0  0  0
   -8.8531    8.9815  -11.6849 C   0  0  0  0  0  0  0  0  0  0  0  0
   -8.2167    3.9578  -13.1090 N   0  0  0  0  0  0  0  0  0  0  0  0
   -8.4663    3.0987  -13.5199 H   0  0  0  0  0  0  0  0  0  0  0  0
   -8.3364    4.0919  -11.7116 C   0  0  0  0  0  0  0  0  0  0  0  0
   -7.9118    5.2172  -10.9750 C   0  0  0  0  0  0  0  0  0  0  0  0
   -8.0208    5.2942   -9.5802 C   0  0  0  0  0  0  0  0  0  0  0  0
   -8.5010    4.1968   -8.9044 C   0  0  0  0  0  0  0  0  0  0  0  0
   -8.8483    3.0474   -9.5923 C   0  0  0  0  0  0  0  0  0  0  0  0
   -8.7707    2.9781  -10.9783 C   0  0  0  0  0  0  0  0  0  0  0  0
   -9.2226    1.9871   -8.6157 C   0  0  0  0  0  0  0  0  0  0  0  0
   -9.3049    2.6537   -7.2868 N   0  0  0  0  0  0  0  0  0  0  0  0
   -8.6975    3.9914   -7.4439 C   0  0  0  0  0  0  0  0  0  0  0  0
   -8.7910    2.1139   -6.5904 H   0  0  0  0  0  0  0  0  0  0  0  0
 28 29  1  0  0  0
 29 27  1  0  0  0
 27 23  1  0  0  0
 23 24  1  0  0  0
 24 25  2  0  0  0
 24  1  1  0  0  0
  1  2  1  0  0  0
  1 30  1  0  0  0
 30 32  1  0  0  0
 32 33  2  0  0  0
 33 34  1  0  0  0
 34 35  2  0  0  0
 35 36  1  0  0  0
 36 37  2  0  0  0
 36 38  1  0  0  0
 38 39  1  0  0  0
 39 40  1  0  0  0
  1  4  1  0  0  0
  4  5  2  0  0  0
  5  6  1  0  0  0
  6  7  1  0  0  0
  6  8  2  0  0  0
  8  9  1  0  0  0
  9 10  1  0  0  0
 10 11  2  0  0  0
 11 15  1  0  0  0
 15 16  2  0  0  0
 16 17  1  0  0  0
 17 18  2  0  0  0
 18 20  1  0  0  0
 20 21  1  0  0  0
 20 22  1  0  0  0
 18 19  1  0  0  0
 11 12  1  0  0  0
 12 13  1  0  0  0
 37 32  1  0  0  0
 13  4  1  0  0  0
 40 35  1  0  0  0
 13  9  2  0  0  0
 19 15  1  0  0  0
 23 26  1  0  0  0
  2  3  1  0  0  0
 30 31  1  0  0  0
 39 41  1  0  0  0
 12 14  1  0  0  0
M  END
> <minimizedAffinity>
-9.02248

> <minimizedRMSD>
0.71416

$$$$
P21203


 49 54  0  0  0  0  0  0  0  0999 V2000
   -7.7055    5.0604  -13.8065 C   0  0  0  0  0  0  0  0  0  0  0  0
   -8.2152    6.3810  -13.6725 O   0  0  0  0  0  0  0  0  0  0  0  0
   -8.1684    6.6528  -12.7425 H   0  0  0  0  0  0  0  0  0  0  0  0
   -7.8469    4.7869  -15.3032 C   0  0  0  0  0  0  0  0  0  0  0  0
   -9.0797    4.4189  -15.8958 C   0  0  0  0  0  0  0  0  0  0  0  0
   -9.2288    4.2290  -17.2688 C   0  0  0  0  0  0  0  0  0  0  0  0
  -10.4166    3.8251  -17.7393 F   0  0  0  0  0  0  0  0  0  0  0  0
   -8.1833    4.4497  -18.1527 C   0  0  0  0  0  0  0  0  0  0  0  0
   -6.9546    4.8473  -17.6191 C   0  0  0  0  0  0  0  0  0  0  0  0
   -5.7849    5.1364  -18.2731 N   0  0  0  0  0  0  0  0  0  0  0  0
   -4.8941    5.3812  -17.3365 C   0  0  0  0  0  0  0  0  0  0  0  0
   -5.4804    5.3414  -16.0965 N   0  0  0  0  0  0  0  0  0  0  0  0
   -6.8058    4.9872  -16.2406 C   0  0  0  0  0  0  0  0  0  0  0  0
   -5.0287    5.5341  -15.2432 H   0  0  0  0  0  0  0  0  0  0  0  0
   -3.4985    5.6119  -17.5567 C   0  0  0  0  0  0  0  0  0  0  0  0
   -2.7452    4.8645  -18.3372 N   0  0  0  0  0  0  0  0  0  0  0  0
   -1.4108    5.2208  -18.2789 N   0  0  0  0  0  0  0  0  0  0  0  0
   -1.1974    6.2011  -17.4266 C   0  0  0  0  0  0  0  0  0  0  0  0
   -2.6396    6.8812  -16.7804 S   0  0  0  0  0  0  0  0  0  0  0  0
    0.1507    6.7155  -17.0070 C   0  0  0  0  0  0  0  0  0  0  0  0
    0.5814    7.8933  -17.8759 C   0  0  0  0  0  0  0  0  0  0  0  0
    1.2052    5.6070  -17.0526 C   0  0  0  0  0  0  0  0  0  0  0  0
   -5.7357    3.6292  -13.1216 N   0  0  0  0  0  0  0  0  0  0  0  0
   -6.1512    4.9827  -13.3533 C   0  0  0  0  0  0  0  0  0  0  0  0
   -5.5501    6.0181  -13.2448 O   0  0  0  0  0  0  0  0  0  0  0  0
   -6.4064    2.9497  -13.3621 H   0  0  0  0  0  0  0  0  0  0  0  0
   -4.4956    3.0898  -12.5931 C   0  0  0  0  0  0  0  0  0  0  0  0
   -2.9544    3.9533  -12.9296 S   0  0  0  0  0  0  0  0  0  0  0  0
   -2.9556    4.3253  -14.3363 O   0  0  0  0  0  0  0  0  0  0  0  0
   -2.7064    4.9393  -11.8944 O   0  0  0  0  0  0  0  0  0  0  0  0
    1.5402   -0.1160  -12.4833 C   0  0  0  0  0  0  0  0  0  0  0  0
    0.4254    0.8864  -12.5401 C   0  0  0  0  0  0  0  0  0  0  0  0
    0.7021    2.2420  -12.7555 C   0  0  0  0  0  0  0  0  0  0  0  0
   -0.3385    3.1663  -12.8530 C   0  0  0  0  0  0  0  0  0  0  0  0
   -1.6650    2.7358  -12.7447 C   0  0  0  0  0  0  0  0  0  0  0  0
   -1.9547    1.3883  -12.5282 C   0  0  0  0  0  0  0  0  0  0  0  0
   -0.9077    0.4677  -12.4361 C   0  0  0  0  0  0  0  0  0  0  0  0
   -8.5277    4.1450  -13.0011 N   0  0  0  0  0  0  0  0  0  0  0  0
   -9.1191    3.4941  -13.4438 H   0  0  0  0  0  0  0  0  0  0  0  0
   -8.4673    4.2015  -11.5977 C   0  0  0  0  0  0  0  0  0  0  0  0
   -8.1613    5.3849  -10.8947 C   0  0  0  0  0  0  0  0  0  0  0  0
   -8.1612    5.4341   -9.4950 C   0  0  0  0  0  0  0  0  0  0  0  0
   -8.4950    4.2879   -8.8046 C   0  0  0  0  0  0  0  0  0  0  0  0
   -8.7811    3.1063   -9.4776 C   0  0  0  0  0  0  0  0  0  0  0  0
   -8.7730    3.0451  -10.8605 C   0  0  0  0  0  0  0  0  0  0  0  0
   -9.0943    2.0437   -8.4772 C   0  0  0  0  0  0  0  0  0  0  0  0
   -9.4091    2.7868   -7.2294 N   0  0  0  0  0  0  0  0  0  0  0  0
   -8.6664    4.0628   -7.3395 C   0  0  0  0  0  0  0  0  0  0  0  0
   -9.0982    2.2614   -6.4122 H   0  0  0  0  0  0  0  0  0  0  0  0
 31 32  1  0  0  0
 32 33  2  0  0  0
 33 34  1  0  0  0
 34 35  2  0  0  0
 35 28  1  0  0  0
 28 29  2  0  0  0
 28 30  2  0  0  0
 28 27  1  0  0  0
 27 23  1  0  0  0
 23 24  1  0  0  0
 24 25  2  0  0  0
 24  1  1  0  0  0
  1  2  1  0  0  0
  1 38  1  0  0  0
 38 40  1  0  0  0
 40 41  2  0  0  0
 41 42  1  0  0  0
 42 43  2  0  0  0
 43 44  1  0  0  0
 44 45  2  0  0  0
 44 46  1  0  0  0
 46 47  1  0  0  0
 47 48  1  0  0  0
  1  4  1  0  0  0
  4  5  2  0  0  0
  5  6  1  0  0  0
  6  7  1  0  0  0
  6  8  2  0  0  0
  8  9  1  0  0  0
  9 10  1  0  0  0
 10 11  2  0  0  0
 11 15  1  0  0  0
 15 16  2  0  0  0
 16 17  1  0  0  0
 17 18  2  0  0  0
 18 20  1  0  0  0
 20 21  1  0  0  0
 20 22  1  0  0  0
 18 19  1  0  0  0
 11 12  1  0  0  0
 12 13  1  0  0  0
 35 36  1  0  0  0
 36 37  2  0  0  0
 37 32  1  0  0  0
 45 40  1  0  0  0
 13  4  1  0  0  0
 48 43  1  0  0  0
 13  9  2  0  0  0
 19 15  1  0  0  0
 23 26  1  0  0  0
  2  3  1  0  0  0
 38 39  1  0  0  0
 47 49  1  0  0  0
 12 14  1  0  0  0
M  END
> <minimizedAffinity>
-9.63558

> <minimizedRMSD>
1.08928

$$$$
P21204


 34 38  0  0  0  0  0  0  0  0999 V2000
   -8.6664    4.3706  -16.9152 C   0  0  0  0  0  0  0  0  0  0  0  0
   -8.4084    4.5228  -15.5493 C   0  0  0  0  0  0  0  0  0  0  0  0
   -7.1402    4.9020  -15.0911 C   0  0  0  0  0  0  0  0  0  0  0  0
   -6.1170    5.1079  -16.0248 C   0  0  0  0  0  0  0  0  0  0  0  0
   -4.7834    5.3951  -15.8676 N   0  0  0  0  0  0  0  0  0  0  0  0
   -4.2769    5.4468  -17.0870 C   0  0  0  0  0  0  0  0  0  0  0  0
   -5.2793    5.3991  -18.0210 N   0  0  0  0  0  0  0  0  0  0  0  0
   -5.2269    5.8000  -19.4063 C   0  0  0  0  0  0  0  0  0  0  0  0
   -6.4247    5.0025  -17.3790 C   0  0  0  0  0  0  0  0  0  0  0  0
   -7.6725    4.6180  -17.8632 C   0  0  0  0  0  0  0  0  0  0  0  0
   -2.8798    5.5040  -17.3839 C   0  0  0  0  0  0  0  0  0  0  0  0
   -2.3423    4.9366  -18.4434 N   0  0  0  0  0  0  0  0  0  0  0  0
   -0.9737    5.0727  -18.4719 N   0  0  0  0  0  0  0  0  0  0  0  0
   -0.5145    5.7284  -17.4260 C   0  0  0  0  0  0  0  0  0  0  0  0
   -1.7459    6.2662  -16.3502 S   0  0  0  0  0  0  0  0  0  0  0  0
    0.9334    6.0367  -17.1627 C   0  0  0  0  0  0  0  0  0  0  0  0
    1.4395    5.3434  -15.8966 C   0  0  0  0  0  0  0  0  0  0  0  0
    1.8102    5.6371  -18.3533 C   0  0  0  0  0  0  0  0  0  0  0  0
   -6.9828    5.2313  -13.6616 C   0  0  0  0  0  0  0  0  0  0  0  0
   -6.4385    6.2226  -13.3676 O   0  0  0  0  0  0  0  0  0  0  0  0
   -7.6995    4.1790  -12.7781 N   0  0  0  0  0  0  0  0  0  0  0  0
   -8.0172    3.3825  -13.2616 H   0  0  0  0  0  0  0  0  0  0  0  0
   -7.9671    4.1769  -11.4123 C   0  0  0  0  0  0  0  0  0  0  0  0
   -7.7728    5.3258  -10.6318 C   0  0  0  0  0  0  0  0  0  0  0  0
   -8.0793    5.3225   -9.2677 C   0  0  0  0  0  0  0  0  0  0  0  0
   -8.5757    4.1589   -8.7092 C   0  0  0  0  0  0  0  0  0  0  0  0
   -8.7744    3.0233   -9.4814 C   0  0  0  0  0  0  0  0  0  0  0  0
   -8.4766    3.0106  -10.8347 C   0  0  0  0  0  0  0  0  0  0  0  0
   -9.2945    1.9214   -8.6249 C   0  0  0  0  0  0  0  0  0  0  0  0
   -9.5087    2.5041   -7.2720 N   0  0  0  0  0  0  0  0  0  0  0  0
   -8.9521    3.8741   -7.2972 C   0  0  0  0  0  0  0  0  0  0  0  0
   -9.0272    1.9434   -6.5691 H   0  0  0  0  0  0  0  0  0  0  0  0
  -10.5134    4.6374  -18.6045 C   0  0  0  0  0  0  0  0  0  0  0  0
  -10.0347    3.9665  -17.3500 C   0  0  0  0  0  0  0  0  0  0  0  0
 33 34  1  0  0  0
 34  1  1  0  0  0
  1  2  2  0  0  0
  2  3  1  0  0  0
  3 19  1  0  0  0
 19 20  2  0  0  0
 19 21  1  0  0  0
 21 23  1  0  0  0
 23 24  2  0  0  0
 24 25  1  0  0  0
 25 26  2  0  0  0
 26 27  1  0  0  0
 27 28  2  0  0  0
 27 29  1  0  0  0
 29 30  1  0  0  0
 30 31  1  0  0  0
  3  4  2  0  0  0
  4  5  1  0  0  0
  5  6  2  0  0  0
  6 11  1  0  0  0
 11 12  2  0  0  0
 12 13  1  0  0  0
 13 14  2  0  0  0
 14 16  1  0  0  0
 16 17  1  0  0  0
 16 18  1  0  0  0
 14 15  1  0  0  0
  6  7  1  0  0  0
  7  8  1  0  0  0
  7  9  1  0  0  0
  9 10  2  0  0  0
 10  1  1  0  0  0
 28 23  1  0  0  0
  9  4  1  0  0  0
 31 26  1  0  0  0
 15 11  1  0  0  0
 21 22  1  0  0  0
 30 32  1  0  0  0
M  END
> <minimizedAffinity>
-8.37096

> <minimizedRMSD>
0.45646

$$$$
P21207


 35 39  0  0  0  0  0  0  0  0999 V2000
   -5.0353    5.3239  -17.8999 C   0  0  0  0  0  0  0  0  0  0  0  0
   -5.4207    5.2691  -16.6404 N   0  0  0  0  0  0  0  0  0  0  0  0
   -6.7537    4.9213  -16.6622 C   0  0  0  0  0  0  0  0  0  0  0  0
   -7.6693    4.6702  -15.6185 C   0  0  0  0  0  0  0  0  0  0  0  0
   -8.9705    4.2563  -15.9446 C   0  0  0  0  0  0  0  0  0  0  0  0
   -9.3535    4.1311  -17.2752 C   0  0  0  0  0  0  0  0  0  0  0  0
  -10.6046    3.7470  -17.5537 F   0  0  0  0  0  0  0  0  0  0  0  0
   -8.4851    4.4058  -18.3272 C   0  0  0  0  0  0  0  0  0  0  0  0
   -7.1900    4.7915  -17.9802 C   0  0  0  0  0  0  0  0  0  0  0  0
   -6.0951    5.1064  -18.7458 N   0  0  0  0  0  0  0  0  0  0  0  0
   -6.0733    5.1658  -19.7282 H   0  0  0  0  0  0  0  0  0  0  0  0
   -1.3356    5.6440  -18.6768 C   0  0  0  0  0  0  0  0  0  0  0  0
   -1.9833    5.3890  -19.7994 N   0  0  0  0  0  0  0  0  0  0  0  0
   -3.3484    5.3021  -19.6203 N   0  0  0  0  0  0  0  0  0  0  0  0
   -3.6956    5.5028  -18.3659 C   0  0  0  0  0  0  0  0  0  0  0  0
   -2.3853    5.9117  -17.3371 S   0  0  0  0  0  0  0  0  0  0  0  0
    0.7523    5.7446  -17.1758 C   0  0  0  0  0  0  0  0  0  0  0  0
    0.1738    5.6361  -18.5861 C   0  0  0  0  0  0  0  0  0  0  0  0
    0.7770    6.7036  -19.4956 C   0  0  0  0  0  0  0  0  0  0  0  0
   -7.3021    4.9773  -14.2144 C   0  0  0  0  0  0  0  0  0  0  0  0
   -6.3572    5.6389  -14.0363 O   0  0  0  0  0  0  0  0  0  0  0  0
   -8.3417    4.4198  -13.2088 N   0  0  0  0  0  0  0  0  0  0  0  0
   -9.1000    3.9455  -13.6204 H   0  0  0  0  0  0  0  0  0  0  0  0
   -8.3779    4.4811  -11.8046 C   0  0  0  0  0  0  0  0  0  0  0  0
   -8.6447    3.2613  -11.1539 C   0  0  0  0  0  0  0  0  0  0  0  0
   -8.7109    3.2242   -9.7688 C   0  0  0  0  0  0  0  0  0  0  0  0
   -8.4897    4.3604   -9.0107 C   0  0  0  0  0  0  0  0  0  0  0  0
   -8.2355    5.5748   -9.6175 C   0  0  0  0  0  0  0  0  0  0  0  0
   -8.2121    5.6513  -11.0263 C   0  0  0  0  0  0  0  0  0  0  0  0
   -8.6120    4.0318   -7.5633 C   0  0  0  0  0  0  0  0  0  0  0  0
   -9.1296    2.6518   -7.4993 N   0  0  0  0  0  0  0  0  0  0  0  0
   -9.0015    2.0740   -8.8636 C   0  0  0  0  0  0  0  0  0  0  0  0
  -10.1084    2.6581   -7.2123 H   0  0  0  0  0  0  0  0  0  0  0  0
   -8.1859    6.9838  -11.5608 C   0  0  0  0  0  0  0  0  0  0  0  0
   -8.2527    8.0088  -12.1057 N   0  0  0  0  0  0  0  0  0  0  0  0
 17 18  1  0  0  0
 18 19  1  0  0  0
 18 12  1  0  0  0
 12 13  2  0  0  0
 13 14  1  0  0  0
 14 15  2  0  0  0
 15  1  1  0  0  0
  1  2  2  0  0  0
  2  3  1  0  0  0
  3  4  2  0  0  0
  4 20  1  0  0  0
 20 21  2  0  0  0
 20 22  1  0  0  0
 22 24  1  0  0  0
 24 25  2  0  0  0
 25 26  1  0  0  0
 26 27  2  0  0  0
 27 28  1  0  0  0
 28 29  2  0  0  0
 29 34  1  0  0  0
 34 35  3  0  0  0
 27 30  1  0  0  0
 30 31  1  0  0  0
 31 32  1  0  0  0
  4  5  1  0  0  0
  5  6  2  0  0  0
  6  7  1  0  0  0
  6  8  1  0  0  0
  8  9  2  0  0  0
  9 10  1  0  0  0
 15 16  1  0  0  0
 16 12  1  0  0  0
 10  1  1  0  0  0
  9  3  1  0  0  0
 29 24  1  0  0  0
 32 26  1  0  0  0
 22 23  1  0  0  0
 31 33  1  0  0  0
 10 11  1  0  0  0
M  END
> <minimizedAffinity>
-9.04335

> <minimizedRMSD>
0.68508

$$$$
P21212


 37 41  0  0  0  0  0  0  0  0999 V2000
   -5.2078    5.7434  -17.8948 C   0  0  0  0  0  0  0  0  0  0  0  0
   -5.5387    5.5758  -16.6374 N   0  0  0  0  0  0  0  0  0  0  0  0
   -6.8575    5.0834  -16.6526 C   0  0  0  0  0  0  0  0  0  0  0  0
   -7.6631    4.6875  -15.5935 C   0  0  0  0  0  0  0  0  0  0  0  0
   -8.9231    4.1382  -15.8650 C   0  0  0  0  0  0  0  0  0  0  0  0
   -9.3610    4.0208  -17.1869 C   0  0  0  0  0  0  0  0  0  0  0  0
  -10.5744    3.5074  -17.4182 F   0  0  0  0  0  0  0  0  0  0  0  0
   -8.5779    4.4452  -18.2536 C   0  0  0  0  0  0  0  0  0  0  0  0
   -7.3320    4.9728  -17.9571 C   0  0  0  0  0  0  0  0  0  0  0  0
   -6.3130    5.4874  -18.8718 N   0  0  0  0  0  0  0  0  0  0  0  0
   -5.9567    4.5495  -19.7557 O   0  0  0  0  0  0  0  0  0  0  0  0
   -6.1044    4.5485  -19.0822 H   0  0  0  0  0  0  0  0  0  0  0  0
   -1.6088    6.4865  -18.8367 C   0  0  0  0  0  0  0  0  0  0  0  0
   -2.3722    6.6852  -19.8950 N   0  0  0  0  0  0  0  0  0  0  0  0
   -3.7099    6.4831  -19.6342 N   0  0  0  0  0  0  0  0  0  0  0  0
   -3.9167    6.1264  -18.3855 C   0  0  0  0  0  0  0  0  0  0  0  0
   -2.5142    6.1278  -17.4094 S   0  0  0  0  0  0  0  0  0  0  0  0
    0.6390    5.5671  -18.0582 C   0  0  0  0  0  0  0  0  0  0  0  0
   -0.1072    6.6607  -18.8249 C   0  0  0  0  0  0  0  0  0  0  0  0
    0.4489    6.7270  -20.2537 C   0  0  0  0  0  0  0  0  0  0  0  0
   -7.3162    5.0245  -14.1992 C   0  0  0  0  0  0  0  0  0  0  0  0
   -6.4333    5.7700  -14.0260 O   0  0  0  0  0  0  0  0  0  0  0  0
   -8.2926    4.3743  -13.1900 N   0  0  0  0  0  0  0  0  0  0  0  0
   -9.0071    3.8335  -13.5977 H   0  0  0  0  0  0  0  0  0  0  0  0
   -8.3250    4.4297  -11.7985 C   0  0  0  0  0  0  0  0  0  0  0  0
   -8.1835    5.6571  -11.1284 C   0  0  0  0  0  0  0  0  0  0  0  0
   -8.2339    5.7279   -9.7345 C   0  0  0  0  0  0  0  0  0  0  0  0
   -8.4230    4.5548   -9.0349 C   0  0  0  0  0  0  0  0  0  0  0  0
   -8.5530    3.3316   -9.6904 C   0  0  0  0  0  0  0  0  0  0  0  0
   -8.5101    3.2482  -11.0744 C   0  0  0  0  0  0  0  0  0  0  0  0
   -8.6202    2.2641   -8.6512 C   0  0  0  0  0  0  0  0  0  0  0  0
   -9.6844    1.3277   -8.7964 N   0  0  0  0  0  0  0  0  0  0  0  0
   -8.9563    2.9387   -7.4022 N   0  0  0  0  0  0  0  0  0  0  0  0
   -8.4847    4.3238   -7.5634 C   0  0  0  0  0  0  0  0  0  0  0  0
  -10.5777    1.8172   -8.7427 H   0  0  0  0  0  0  0  0  0  0  0  0
   -9.6312    0.6343   -8.0503 H   0  0  0  0  0  0  0  0  0  0  0  0
   -8.4841    2.4906   -6.6169 H   0  0  0  0  0  0  0  0  0  0  0  0
 18 19  1  0  0  0
 19 20  1  0  0  0
 19 13  1  0  0  0
 13 14  2  0  0  0
 14 15  1  0  0  0
 15 16  2  0  0  0
 16  1  1  0  0  0
  1  2  2  0  0  0
  2  3  1  0  0  0
  3  4  2  0  0  0
  4 21  1  0  0  0
 21 22  2  0  0  0
 21 23  1  0  0  0
 23 25  1  0  0  0
 25 26  2  0  0  0
 26 27  1  0  0  0
 27 28  2  0  0  0
 28 29  1  0  0  0
 29 30  2  0  0  0
 29 31  1  0  0  0
 31 32  1  0  0  0
 31 33  1  0  0  0
 33 34  1  0  0  0
  4  5  1  0  0  0
  5  6  2  0  0  0
  6  7  1  0  0  0
  6  8  1  0  0  0
  8  9  2  0  0  0
  9 10  1  0  0  0
 10 11  1  0  0  0
 16 17  1  0  0  0
 17 13  1  0  0  0
 10  1  1  0  0  0
  9  3  1  0  0  0
 30 25  1  0  0  0
 34 28  1  0  0  0
 23 24  1  0  0  0
 32 35  1  0  0  0
 32 36  1  0  0  0
 33 37  1  0  0  0
 10 12  1  0  0  0
M  CHG 1  10   1
M  CHG 1  11  -1
M  END
> <minimizedAffinity>
-9.76727

> <minimizedRMSD>
1.05527

$$$$
P21213


 39 43  0  0  0  0  0  0  0  0999 V2000
   -4.9022    5.3762  -16.9779 C   0  0  0  0  0  0  0  0  0  0  0  0
   -5.6176    5.4403  -15.7884 C   0  0  0  0  0  0  0  0  0  0  0  0
   -6.9854    5.0885  -16.0453 C   0  0  0  0  0  0  0  0  0  0  0  0
   -8.1736    4.8863  -15.2965 C   0  0  0  0  0  0  0  0  0  0  0  0
   -9.3313    4.3737  -15.8964 C   0  0  0  0  0  0  0  0  0  0  0  0
   -9.3477    4.1306  -17.2539 C   0  0  0  0  0  0  0  0  0  0  0  0
  -10.4638    3.6571  -17.8206 F   0  0  0  0  0  0  0  0  0  0  0  0
   -8.2403    4.3931  -18.0486 C   0  0  0  0  0  0  0  0  0  0  0  0
   -7.0641    4.8519  -17.4254 C   0  0  0  0  0  0  0  0  0  0  0  0
   -5.8305    5.1590  -17.9758 N   0  0  0  0  0  0  0  0  0  0  0  0
   -5.6316    5.2492  -19.4097 C   0  0  0  0  0  0  0  0  0  0  0  0
   -1.1204    5.8309  -17.2174 C   0  0  0  0  0  0  0  0  0  0  0  0
   -1.5044    5.0034  -18.1659 N   0  0  0  0  0  0  0  0  0  0  0  0
   -2.8645    4.7803  -18.1430 N   0  0  0  0  0  0  0  0  0  0  0  0
   -3.4829    5.4711  -17.2063 C   0  0  0  0  0  0  0  0  0  0  0  0
   -2.4200    6.4546  -16.2871 S   0  0  0  0  0  0  0  0  0  0  0  0
    0.7666    5.6652  -15.5820 C   0  0  0  0  0  0  0  0  0  0  0  0
    0.2977    6.2355  -16.9226 C   0  0  0  0  0  0  0  0  0  0  0  0
    1.2471    5.7950  -18.0386 C   0  0  0  0  0  0  0  0  0  0  0  0
   -8.3148    5.3539  -13.9103 C   0  0  0  0  0  0  0  0  0  0  0  0
   -8.6155    6.4685  -13.7386 O   0  0  0  0  0  0  0  0  0  0  0  0
   -8.0682    4.2182  -12.8983 N   0  0  0  0  0  0  0  0  0  0  0  0
   -7.7469    3.3761  -13.2943 H   0  0  0  0  0  0  0  0  0  0  0  0
   -8.2258    4.1891  -11.5148 C   0  0  0  0  0  0  0  0  0  0  0  0
   -8.0441    5.3542  -10.7487 C   0  0  0  0  0  0  0  0  0  0  0  0
   -8.1958    5.3326   -9.3592 C   0  0  0  0  0  0  0  0  0  0  0  0
   -8.5765    4.1442   -8.7680 C   0  0  0  0  0  0  0  0  0  0  0  0
   -8.7791    2.9947   -9.5278 C   0  0  0  0  0  0  0  0  0  0  0  0
   -8.5772    2.9878  -10.8977 C   0  0  0  0  0  0  0  0  0  0  0  0
   -9.2159    1.8884   -8.6240 C   0  0  0  0  0  0  0  0  0  0  0  0
   -9.6099    2.5634   -7.3570 N   0  0  0  0  0  0  0  0  0  0  0  0
   -8.8394    3.8249   -7.3345 C   0  0  0  0  0  0  0  0  0  0  0  0
   -9.3700    1.9833   -6.5531 H   0  0  0  0  0  0  0  0  0  0  0  0
   -4.9847    5.6095  -14.6007 O   0  0  0  0  0  0  0  0  0  0  0  0
   -5.1416    6.9077  -14.0275 C   0  0  0  0  0  0  0  0  0  0  0  0
   -5.1387    6.8027  -12.5043 C   0  0  0  0  0  0  0  0  0  0  0  0
   -5.7279    8.0405  -11.8427 C   0  0  0  0  0  0  0  0  0  0  0  0
   -6.9420    8.4304  -12.4665 O   0  0  0  0  0  0  0  0  0  0  0  0
   -6.7734    8.6430  -13.3978 H   0  0  0  0  0  0  0  0  0  0  0  0
 17 18  1  0  0  0
 18 19  1  0  0  0
 18 12  1  0  0  0
 12 13  2  0  0  0
 13 14  1  0  0  0
 14 15  2  0  0  0
 15  1  1  0  0  0
  1  2  2  0  0  0
  2 34  1  0  0  0
 34 35  1  0  0  0
 35 36  1  0  0  0
 36 37  1  0  0  0
 37 38  1  0  0  0
  2  3  1  0  0  0
  3  4  2  0  0  0
  4 20  1  0  0  0
 20 21  2  0  0  0
 20 22  1  0  0  0
 22 24  1  0  0  0
 24 25  2  0  0  0
 25 26  1  0  0  0
 26 27  2  0  0  0
 27 28  1  0  0  0
 28 29  2  0  0  0
 28 30  1  0  0  0
 30 31  1  0  0  0
 31 32  1  0  0  0
  4  5  1  0  0  0
  5  6  2  0  0  0
  6  7  1  0  0  0
  6  8  1  0  0  0
  8  9  2  0  0  0
  9 10  1  0  0  0
 10 11  1  0  0  0
 15 16  1  0  0  0
 16 12  1  0  0  0
 10  1  1  0  0  0
  9  3  1  0  0  0
 29 24  1  0  0  0
 32 27  1  0  0  0
 38 39  1  0  0  0
 22 23  1  0  0  0
 31 33  1  0  0  0
M  END
> <minimizedAffinity>
-7.84641

> <minimizedRMSD>
0.69572

$$$$
P21214


 35 39  0  0  0  0  0  0  0  0999 V2000
   -5.5409    5.2219  -17.8936 N   0  0  0  0  0  0  0  0  0  0  0  0
   -4.6347    5.5172  -16.8966 C   0  0  0  0  0  0  0  0  0  0  0  0
   -5.3543    5.5433  -15.6979 C   0  0  0  0  0  0  0  0  0  0  0  0
   -4.8110    5.7587  -14.3217 C   0  0  0  0  0  0  0  0  0  0  0  0
   -6.7257    5.2110  -16.0081 C   0  0  0  0  0  0  0  0  0  0  0  0
   -7.9184    5.0319  -15.2610 C   0  0  0  0  0  0  0  0  0  0  0  0
   -9.0678    4.5140  -15.8690 C   0  0  0  0  0  0  0  0  0  0  0  0
   -9.0671    4.2532  -17.2279 C   0  0  0  0  0  0  0  0  0  0  0  0
  -10.1768    3.7663  -17.7965 F   0  0  0  0  0  0  0  0  0  0  0  0
   -7.9496    4.4983  -18.0173 C   0  0  0  0  0  0  0  0  0  0  0  0
   -6.7862    4.9595  -17.3794 C   0  0  0  0  0  0  0  0  0  0  0  0
   -3.2283    5.6691  -17.1697 C   0  0  0  0  0  0  0  0  0  0  0  0
   -2.5677    4.8309  -17.9413 N   0  0  0  0  0  0  0  0  0  0  0  0
   -1.2216    5.0924  -17.9954 N   0  0  0  0  0  0  0  0  0  0  0  0
   -0.8783    6.1013  -17.2244 C   0  0  0  0  0  0  0  0  0  0  0  0
   -2.2265    6.9176  -16.5410 S   0  0  0  0  0  0  0  0  0  0  0  0
    0.5561    6.4664  -16.9583 C   0  0  0  0  0  0  0  0  0  0  0  0
    1.3400    5.4118  -16.1789 C   0  0  0  0  0  0  0  0  0  0  0  0
    0.6612    7.8383  -16.3062 C   0  0  0  0  0  0  0  0  0  0  0  0
   -7.9987    5.4763  -13.8546 C   0  0  0  0  0  0  0  0  0  0  0  0
   -7.9078    6.6186  -13.6302 O   0  0  0  0  0  0  0  0  0  0  0  0
   -8.1457    4.2756  -12.8939 N   0  0  0  0  0  0  0  0  0  0  0  0
   -8.1261    3.3935  -13.3307 H   0  0  0  0  0  0  0  0  0  0  0  0
   -8.3016    4.2376  -11.5104 C   0  0  0  0  0  0  0  0  0  0  0  0
   -8.0541    5.3705  -10.7188 C   0  0  0  0  0  0  0  0  0  0  0  0
   -8.1925    5.3164   -9.3279 C   0  0  0  0  0  0  0  0  0  0  0  0
   -8.5925    4.1233   -8.7548 C   0  0  0  0  0  0  0  0  0  0  0  0
   -8.8493    3.0052   -9.5367 C   0  0  0  0  0  0  0  0  0  0  0  0
   -8.6987    3.0384  -10.9141 C   0  0  0  0  0  0  0  0  0  0  0  0
   -9.2584    1.8689   -8.6631 C   0  0  0  0  0  0  0  0  0  0  0  0
   -9.3905    2.4288   -7.2907 N   0  0  0  0  0  0  0  0  0  0  0  0
   -8.8087    3.7865   -7.3202 C   0  0  0  0  0  0  0  0  0  0  0  0
   -8.8847    1.8453   -6.6242 H   0  0  0  0  0  0  0  0  0  0  0  0
   -5.1295    6.2906  -19.8904 C   0  0  0  0  0  0  0  0  0  0  0  0
   -5.2457    5.0303  -19.2508 O   0  0  0  0  0  0  0  0  0  0  0  0
 34 35  1  0  0  0
 35  1  1  0  0  0
  1  2  1  0  0  0
  2 12  1  0  0  0
 12 13  2  0  0  0
 13 14  1  0  0  0
 14 15  2  0  0  0
 15 17  1  0  0  0
 17 18  1  0  0  0
 17 19  1  0  0  0
 15 16  1  0  0  0
  2  3  2  0  0  0
  3  4  1  0  0  0
  3  5  1  0  0  0
  5  6  2  0  0  0
  6 20  1  0  0  0
 20 21  2  0  0  0
 20 22  1  0  0  0
 22 24  1  0  0  0
 24 25  2  0  0  0
 25 26  1  0  0  0
 26 27  2  0  0  0
 27 28  1  0  0  0
 28 29  2  0  0  0
 28 30  1  0  0  0
 30 31  1  0  0  0
 31 32  1  0  0  0
  6  7  1  0  0  0
  7  8  2  0  0  0
  8  9  1  0  0  0
  8 10  1  0  0  0
 10 11  2  0  0  0
 11  1  1  0  0  0
 16 12  1  0  0  0
 11  5  1  0  0  0
 29 24  1  0  0  0
 32 27  1  0  0  0
 22 23  1  0  0  0
 31 33  1  0  0  0
M  END
> <minimizedAffinity>
-8.83697

> <minimizedRMSD>
0.45359

$$$$
P21215


 34 39  0  0  0  0  0  0  0  0999 V2000
   -0.9673    5.7194  -16.9783 C   0  0  0  0  0  0  0  0  0  0  0  0
   -1.4320    5.6049  -18.2130 N   0  0  0  0  0  0  0  0  0  0  0  0
   -2.8085    5.5787  -18.1917 C   0  0  0  0  0  0  0  0  0  0  0  0
   -3.3778    5.7045  -16.9444 C   0  0  0  0  0  0  0  0  0  0  0  0
   -2.1866    5.9437  -15.7678 S   0  0  0  0  0  0  0  0  0  0  0  0
   -4.7751    5.5423  -16.7535 C   0  0  0  0  0  0  0  0  0  0  0  0
   -5.4654    5.5502  -15.6393 N   0  0  0  0  0  0  0  0  0  0  0  0
   -6.7379    5.1487  -15.9974 C   0  0  0  0  0  0  0  0  0  0  0  0
   -7.8969    4.9415  -15.2265 C   0  0  0  0  0  0  0  0  0  0  0  0
   -9.0492    4.4229  -15.8345 C   0  0  0  0  0  0  0  0  0  0  0  0
   -9.0626    4.1742  -17.1996 C   0  0  0  0  0  0  0  0  0  0  0  0
  -10.1789    3.6972  -17.7625 F   0  0  0  0  0  0  0  0  0  0  0  0
   -7.9600    4.4306  -18.0092 C   0  0  0  0  0  0  0  0  0  0  0  0
   -6.8086    4.9083  -17.3753 C   0  0  0  0  0  0  0  0  0  0  0  0
   -5.5701    5.2613  -17.8362 N   0  0  0  0  0  0  0  0  0  0  0  0
   -5.1260    5.3770  -19.2149 C   0  0  0  0  0  0  0  0  0  0  0  0
   -3.6003    5.2857  -19.4250 C   0  0  0  0  0  0  0  0  0  0  0  0
   -7.9641    5.4083  -13.8283 C   0  0  0  0  0  0  0  0  0  0  0  0
   -7.9275    6.5586  -13.6291 O   0  0  0  0  0  0  0  0  0  0  0  0
   -8.1782    4.2276  -12.8514 N   0  0  0  0  0  0  0  0  0  0  0  0
   -8.2439    3.3441  -13.2808 H   0  0  0  0  0  0  0  0  0  0  0  0
   -8.2930    4.2112  -11.4637 C   0  0  0  0  0  0  0  0  0  0  0  0
   -8.0434    5.3605  -10.6980 C   0  0  0  0  0  0  0  0  0  0  0  0
   -8.1977    5.3414   -9.3077 C   0  0  0  0  0  0  0  0  0  0  0  0
   -8.6063    4.1636   -8.7092 C   0  0  0  0  0  0  0  0  0  0  0  0
   -8.8500    3.0249   -9.4644 C   0  0  0  0  0  0  0  0  0  0  0  0
   -8.6919    3.0258  -10.8410 C   0  0  0  0  0  0  0  0  0  0  0  0
   -9.2594    1.9085   -8.5667 C   0  0  0  0  0  0  0  0  0  0  0  0
   -9.4074    2.4997   -7.2091 N   0  0  0  0  0  0  0  0  0  0  0  0
   -8.8475    3.8667   -7.2701 C   0  0  0  0  0  0  0  0  0  0  0  0
   -8.8952    1.9415   -6.5261 H   0  0  0  0  0  0  0  0  0  0  0  0
    0.8569    5.4532  -15.1761 C   0  0  0  0  0  0  0  0  0  0  0  0
    0.5095    5.5886  -16.6581 C   0  0  0  0  0  0  0  0  0  0  0  0
    1.3050    6.7249  -17.2948 C   0  0  0  0  0  0  0  0  0  0  0  0
 32 33  1  0  0  0
 33 34  1  0  0  0
 33  1  1  0  0  0
  1  2  2  0  0  0
  2  3  1  0  0  0
  3  4  2  0  0  0
  4  5  1  0  0  0
  4  6  1  0  0  0
  6  7  2  0  0  0
  7  8  1  0  0  0
  8  9  2  0  0  0
  9 18  1  0  0  0
 18 19  2  0  0  0
 18 20  1  0  0  0
 20 22  1  0  0  0
 22 23  2  0  0  0
 23 24  1  0  0  0
 24 25  2  0  0  0
 25 26  1  0  0  0
 26 27  2  0  0  0
 26 28  1  0  0  0
 28 29  1  0  0  0
 29 30  1  0  0  0
  9 10  1  0  0  0
 10 11  2  0  0  0
 11 12  1  0  0  0
 11 13  1  0  0  0
 13 14  2  0  0  0
 14 15  1  0  0  0
 15 16  1  0  0  0
 16 17  1  0  0  0
  5  1  1  0  0  0
 15  6  1  0  0  0
 17  3  1  0  0  0
 14  8  1  0  0  0
 27 22  1  0  0  0
 30 25  1  0  0  0
 20 21  1  0  0  0
 29 31  1  0  0  0
M  END
> <minimizedAffinity>
-9.80562

> <minimizedRMSD>
0.40868

$$$$
P21217


 34 38  0  0  0  0  0  0  0  0999 V2000
   -4.3044    5.4818  -17.0830 C   0  0  0  0  0  0  0  0  0  0  0  0
   -4.8250    5.3433  -15.8784 N   0  0  0  0  0  0  0  0  0  0  0  0
   -6.1654    5.0891  -16.0756 C   0  0  0  0  0  0  0  0  0  0  0  0
   -7.1990    4.8216  -15.1563 C   0  0  0  0  0  0  0  0  0  0  0  0
   -8.4722    4.4705  -15.6273 C   0  0  0  0  0  0  0  0  0  0  0  0
   -8.7189    4.4411  -16.9937 C   0  0  0  0  0  0  0  0  0  0  0  0
   -9.9407    4.1037  -17.4240 F   0  0  0  0  0  0  0  0  0  0  0  0
   -7.7426    4.7782  -17.9319 C   0  0  0  0  0  0  0  0  0  0  0  0
   -6.4685    5.0923  -17.4402 C   0  0  0  0  0  0  0  0  0  0  0  0
   -5.2920    5.4781  -18.0422 N   0  0  0  0  0  0  0  0  0  0  0  0
   -0.5386    5.7863  -17.4939 C   0  0  0  0  0  0  0  0  0  0  0  0
   -1.0152    5.0009  -18.4380 N   0  0  0  0  0  0  0  0  0  0  0  0
   -2.3747    4.8629  -18.3678 N   0  0  0  0  0  0  0  0  0  0  0  0
   -2.9088    5.5702  -17.3960 C   0  0  0  0  0  0  0  0  0  0  0  0
   -1.7695    6.5012  -16.5182 S   0  0  0  0  0  0  0  0  0  0  0  0
    1.5126    5.2833  -16.0496 C   0  0  0  0  0  0  0  0  0  0  0  0
    0.9419    5.9693  -17.2867 C   0  0  0  0  0  0  0  0  0  0  0  0
    1.3132    7.4484  -17.3227 C   0  0  0  0  0  0  0  0  0  0  0  0
   -6.9859    5.0511  -13.7130 C   0  0  0  0  0  0  0  0  0  0  0  0
   -6.2430    5.8938  -13.3939 O   0  0  0  0  0  0  0  0  0  0  0  0
   -7.8915    4.1357  -12.8562 N   0  0  0  0  0  0  0  0  0  0  0  0
   -8.3753    3.4439  -13.3627 H   0  0  0  0  0  0  0  0  0  0  0  0
   -8.1341    4.1308  -11.4835 C   0  0  0  0  0  0  0  0  0  0  0  0
   -7.9669    5.2897  -10.7074 C   0  0  0  0  0  0  0  0  0  0  0  0
   -8.2319    5.2787   -9.3330 C   0  0  0  0  0  0  0  0  0  0  0  0
   -8.6788    4.1015   -8.7639 C   0  0  0  0  0  0  0  0  0  0  0  0
   -8.8453    2.9517   -9.5299 C   0  0  0  0  0  0  0  0  0  0  0  0
   -8.5683    2.9434  -10.8868 C   0  0  0  0  0  0  0  0  0  0  0  0
   -9.3182    1.8441   -8.6458 C   0  0  0  0  0  0  0  0  0  0  0  0
   -9.7879    2.5198   -7.4061 N   0  0  0  0  0  0  0  0  0  0  0  0
   -9.0364    3.7927   -7.3486 C   0  0  0  0  0  0  0  0  0  0  0  0
   -9.5838    1.9468   -6.5873 H   0  0  0  0  0  0  0  0  0  0  0  0
   -5.1107    5.9694  -19.4207 C   0  0  0  0  0  0  0  0  0  0  0  0
   -4.8615    6.4902  -20.4281 N   0  0  0  0  0  0  0  0  0  0  0  0
 16 17  1  0  0  0
 17 18  1  0  0  0
 17 11  1  0  0  0
 11 12  2  0  0  0
 12 13  1  0  0  0
 13 14  2  0  0  0
 14  1  1  0  0  0
  1  2  2  0  0  0
  2  3  1  0  0  0
  3  4  2  0  0  0
  4 19  1  0  0  0
 19 20  2  0  0  0
 19 21  1  0  0  0
 21 23  1  0  0  0
 23 24  2  0  0  0
 24 25  1  0  0  0
 25 26  2  0  0  0
 26 27  1  0  0  0
 27 28  2  0  0  0
 27 29  1  0  0  0
 29 30  1  0  0  0
 30 31  1  0  0  0
  4  5  1  0  0  0
  5  6  2  0  0  0
  6  7  1  0  0  0
  6  8  1  0  0  0
  8  9  2  0  0  0
  9 10  1  0  0  0
 10 33  1  0  0  0
 33 34  3  0  0  0
 14 15  1  0  0  0
 15 11  1  0  0  0
 10  1  1  0  0  0
  9  3  1  0  0  0
 28 23  1  0  0  0
 31 26  1  0  0  0
 21 22  1  0  0  0
 30 32  1  0  0  0
M  END
> <minimizedAffinity>
-8.37551

> <minimizedRMSD>
0.46003

$$$$
P21218


 34 38  0  0  0  0  0  0  0  0999 V2000
   -4.6349    5.3738  -17.2380 C   0  0  0  0  0  0  0  0  0  0  0  0
   -5.2062    5.3439  -15.9930 N   0  0  0  0  0  0  0  0  0  0  0  0
   -6.5478    5.0051  -16.2002 C   0  0  0  0  0  0  0  0  0  0  0  0
   -7.5747    4.7875  -15.2635 C   0  0  0  0  0  0  0  0  0  0  0  0
   -8.8378    4.4148  -15.7446 C   0  0  0  0  0  0  0  0  0  0  0  0
   -9.0710    4.2828  -17.1127 C   0  0  0  0  0  0  0  0  0  0  0  0
  -10.2961    3.9322  -17.5226 F   0  0  0  0  0  0  0  0  0  0  0  0
   -8.0808    4.5125  -18.0635 C   0  0  0  0  0  0  0  0  0  0  0  0
   -6.8220    4.8688  -17.5797 C   0  0  0  0  0  0  0  0  0  0  0  0
   -5.6669    5.1226  -18.2363 N   0  0  0  0  0  0  0  0  0  0  0  0
   -5.3914    5.1203  -19.4543 O   0  0  0  0  0  0  0  0  0  0  0  0
   -4.7645    5.5235  -15.1316 H   0  0  0  0  0  0  0  0  0  0  0  0
   -0.8807    5.8640  -17.4029 C   0  0  0  0  0  0  0  0  0  0  0  0
   -1.2495    5.0982  -18.4097 N   0  0  0  0  0  0  0  0  0  0  0  0
   -2.6129    4.9193  -18.4673 N   0  0  0  0  0  0  0  0  0  0  0  0
   -3.2468    5.5454  -17.5032 C   0  0  0  0  0  0  0  0  0  0  0  0
   -2.2208    6.5339  -16.5448 S   0  0  0  0  0  0  0  0  0  0  0  0
    0.9201    7.4306  -16.4645 C   0  0  0  0  0  0  0  0  0  0  0  0
    0.5621    6.0422  -16.9902 C   0  0  0  0  0  0  0  0  0  0  0  0
    1.5094    5.6534  -18.1277 C   0  0  0  0  0  0  0  0  0  0  0  0
   -7.3372    5.0799  -13.8282 C   0  0  0  0  0  0  0  0  0  0  0  0
   -6.5436    5.9016  -13.5800 O   0  0  0  0  0  0  0  0  0  0  0  0
   -8.2729    4.2751  -12.8954 N   0  0  0  0  0  0  0  0  0  0  0  0
   -8.9124    3.6881  -13.3599 H   0  0  0  0  0  0  0  0  0  0  0  0
   -8.3579    4.2457  -11.5052 C   0  0  0  0  0  0  0  0  0  0  0  0
   -8.0868    5.3895  -10.7377 C   0  0  0  0  0  0  0  0  0  0  0  0
   -8.2152    5.3644   -9.3451 C   0  0  0  0  0  0  0  0  0  0  0  0
   -8.5987    4.1803   -8.7431 C   0  0  0  0  0  0  0  0  0  0  0  0
   -8.8464    3.0421   -9.4976 C   0  0  0  0  0  0  0  0  0  0  0  0
   -8.7397    3.0562  -10.8798 C   0  0  0  0  0  0  0  0  0  0  0  0
   -9.1879    1.9096   -8.5911 C   0  0  0  0  0  0  0  0  0  0  0  0
   -9.3209    2.4933   -7.2293 N   0  0  0  0  0  0  0  0  0  0  0  0
   -8.8055    3.8767   -7.2999 C   0  0  0  0  0  0  0  0  0  0  0  0
   -8.7752    1.9499   -6.5604 H   0  0  0  0  0  0  0  0  0  0  0  0
 18 19  1  0  0  0
 19 20  1  0  0  0
 19 13  1  0  0  0
 13 14  2  0  0  0
 14 15  1  0  0  0
 15 16  2  0  0  0
 16  1  1  0  0  0
  1  2  1  0  0  0
  2  3  1  0  0  0
  3  4  2  0  0  0
  4 21  1  0  0  0
 21 22  2  0  0  0
 21 23  1  0  0  0
 23 25  1  0  0  0
 25 26  2  0  0  0
 26 27  1  0  0  0
 27 28  2  0  0  0
 28 29  1  0  0  0
 29 30  2  0  0  0
 29 31  1  0  0  0
 31 32  1  0  0  0
 32 33  1  0  0  0
  4  5  1  0  0  0
  5  6  2  0  0  0
  6  7  1  0  0  0
  6  8  1  0  0  0
  8  9  2  0  0  0
  9 10  1  0  0  0
 10 11  1  0  0  0
 16 17  1  0  0  0
 17 13  1  0  0  0
 10  1  2  0  0  0
  9  3  1  0  0  0
 30 25  1  0  0  0
 33 28  1  0  0  0
  2 12  1  0  0  0
 23 24  1  0  0  0
 32 34  1  0  0  0
M  CHG 1  10   1
M  CHG 1  11  -1
M  END
> <minimizedAffinity>
-9.07715

> <minimizedRMSD>
0.61800

$$$$
P21219


 36 40  0  0  0  0  0  0  0  0999 V2000
   -5.5471    5.2826  -17.8826 N   0  0  0  0  0  0  0  0  0  0  0  0
   -4.7034    5.5092  -16.8089 C   0  0  0  0  0  0  0  0  0  0  0  0
   -5.3832    5.4991  -15.6767 N   0  0  0  0  0  0  0  0  0  0  0  0
   -6.6764    5.1517  -16.0037 C   0  0  0  0  0  0  0  0  0  0  0  0
   -7.8211    4.9610  -15.2024 C   0  0  0  0  0  0  0  0  0  0  0  0
   -9.0051    4.4803  -15.7830 C   0  0  0  0  0  0  0  0  0  0  0  0
   -9.0588    4.2409  -17.1467 C   0  0  0  0  0  0  0  0  0  0  0  0
  -10.1987    3.7851  -17.6811 F   0  0  0  0  0  0  0  0  0  0  0  0
   -7.9706    4.4866  -17.9803 C   0  0  0  0  0  0  0  0  0  0  0  0
   -6.7865    4.9404  -17.3802 C   0  0  0  0  0  0  0  0  0  0  0  0
   -3.2806    5.6913  -16.9234 C   0  0  0  0  0  0  0  0  0  0  0  0
   -2.6479    5.5864  -18.0746 N   0  0  0  0  0  0  0  0  0  0  0  0
   -1.2886    5.6359  -17.9496 N   0  0  0  0  0  0  0  0  0  0  0  0
   -0.9069    5.7871  -16.6974 C   0  0  0  0  0  0  0  0  0  0  0  0
   -2.2301    5.9934  -15.6045 S   0  0  0  0  0  0  0  0  0  0  0  0
    0.5403    5.6838  -16.2849 C   0  0  0  0  0  0  0  0  0  0  0  0
    0.7785    5.3591  -14.8144 C   0  0  0  0  0  0  0  0  0  0  0  0
    1.3085    6.9451  -16.6854 C   0  0  0  0  0  0  0  0  0  0  0  0
   -7.8473    5.4074  -13.7940 C   0  0  0  0  0  0  0  0  0  0  0  0
   -7.7034    6.5459  -13.5742 O   0  0  0  0  0  0  0  0  0  0  0  0
   -8.1738    4.2334  -12.8372 N   0  0  0  0  0  0  0  0  0  0  0  0
   -8.3212    3.3677  -13.2823 H   0  0  0  0  0  0  0  0  0  0  0  0
   -8.2928    4.2036  -11.4496 C   0  0  0  0  0  0  0  0  0  0  0  0
   -8.0424    5.3445  -10.6721 C   0  0  0  0  0  0  0  0  0  0  0  0
   -8.2075    5.3150   -9.2832 C   0  0  0  0  0  0  0  0  0  0  0  0
   -8.6219    4.1335   -8.6960 C   0  0  0  0  0  0  0  0  0  0  0  0
   -8.8651    3.0019   -9.4616 C   0  0  0  0  0  0  0  0  0  0  0  0
   -8.7040    3.0155  -10.8385 C   0  0  0  0  0  0  0  0  0  0  0  0
   -9.2773    1.8782   -8.5742 C   0  0  0  0  0  0  0  0  0  0  0  0
   -9.4088    2.4515   -7.2070 N   0  0  0  0  0  0  0  0  0  0  0  0
   -8.8697    3.8270   -7.2603 C   0  0  0  0  0  0  0  0  0  0  0  0
   -8.8767    1.8925   -6.5402 H   0  0  0  0  0  0  0  0  0  0  0  0
   -5.1725    5.3011  -19.2949 C   0  0  0  0  0  0  0  0  0  0  0  0
   -4.4739    6.9927  -20.8414 C   0  0  0  0  0  0  0  0  0  0  0  0
   -5.4362    6.6545  -19.8013 N   0  0  0  0  0  0  0  0  0  0  0  0
   -6.3792    6.6928  -20.1881 H   0  0  0  0  0  0  0  0  0  0  0  0
 34 35  1  0  0  0
 35 33  1  0  0  0
 33  1  1  0  0  0
  1  2  1  0  0  0
  2 11  1  0  0  0
 11 12  2  0  0  0
 12 13  1  0  0  0
 13 14  2  0  0  0
 14 16  1  0  0  0
 16 17  1  0  0  0
 16 18  1  0  0  0
 14 15  1  0  0  0
  2  3  2  0  0  0
  3  4  1  0  0  0
  4  5  2  0  0  0
  5 19  1  0  0  0
 19 20  2  0  0  0
 19 21  1  0  0  0
 21 23  1  0  0  0
 23 24  2  0  0  0
 24 25  1  0  0  0
 25 26  2  0  0  0
 26 27  1  0  0  0
 27 28  2  0  0  0
 27 29  1  0  0  0
 29 30  1  0  0  0
 30 31  1  0  0  0
  5  6  1  0  0  0
  6  7  2  0  0  0
  7  8  1  0  0  0
  7  9  1  0  0  0
  9 10  2  0  0  0
 10  1  1  0  0  0
 15 11  1  0  0  0
 10  4  1  0  0  0
 28 23  1  0  0  0
 31 26  1  0  0  0
 35 36  1  0  0  0
 21 22  1  0  0  0
 30 32  1  0  0  0
M  END
> <minimizedAffinity>
-8.70342

> <minimizedRMSD>
0.46221

$$$$
P21221


 42 46  0  0  0  0  0  0  0  0999 V2000
   -7.3127    5.1333  -13.6127 C   0  0  0  0  0  0  0  0  0  0  0  0
   -7.6476    6.5023  -13.4457 O   0  0  0  0  0  0  0  0  0  0  0  0
   -8.5520    6.6548  -13.7614 H   0  0  0  0  0  0  0  0  0  0  0  0
   -4.5870    5.3725  -17.3677 C   0  0  0  0  0  0  0  0  0  0  0  0
   -5.5493    5.1580  -18.2337 N   0  0  0  0  0  0  0  0  0  0  0  0
   -6.6785    4.9150  -17.5002 C   0  0  0  0  0  0  0  0  0  0  0  0
   -7.9453    4.5689  -17.9693 C   0  0  0  0  0  0  0  0  0  0  0  0
   -8.9257    4.3066  -17.0304 C   0  0  0  0  0  0  0  0  0  0  0  0
  -10.1435    3.9360  -17.4484 F   0  0  0  0  0  0  0  0  0  0  0  0
   -8.6781    4.4320  -15.6631 C   0  0  0  0  0  0  0  0  0  0  0  0
   -7.4307    4.8618  -15.1310 C   0  0  0  0  0  0  0  0  0  0  0  0
   -6.4365    5.0411  -16.1293 C   0  0  0  0  0  0  0  0  0  0  0  0
   -5.0920    5.3557  -16.0910 N   0  0  0  0  0  0  0  0  0  0  0  0
   -4.5750    5.5397  -15.2736 H   0  0  0  0  0  0  0  0  0  0  0  0
   -0.8469    5.8882  -17.8833 C   0  0  0  0  0  0  0  0  0  0  0  0
   -1.3835    5.5085  -19.0219 N   0  0  0  0  0  0  0  0  0  0  0  0
   -2.7440    5.3186  -18.9250 N   0  0  0  0  0  0  0  0  0  0  0  0
   -3.2070    5.5505  -17.7148 C   0  0  0  0  0  0  0  0  0  0  0  0
   -1.9933    6.0470  -16.6024 S   0  0  0  0  0  0  0  0  0  0  0  0
    1.1526    5.5115  -16.4113 C   0  0  0  0  0  0  0  0  0  0  0  0
    0.6157    6.1819  -17.6768 C   0  0  0  0  0  0  0  0  0  0  0  0
    1.4494    5.7373  -18.8841 C   0  0  0  0  0  0  0  0  0  0  0  0
   -5.8154    4.7864  -13.1104 C   0  0  0  0  0  0  0  0  0  0  0  0
   -4.9654    5.5874  -13.0321 O   0  0  0  0  0  0  0  0  0  0  0  0
   -5.7835    3.2496  -12.8407 N   0  0  0  0  0  0  0  0  0  0  0  0
   -6.6201    2.7761  -13.0533 H   0  0  0  0  0  0  0  0  0  0  0  0
   -4.7227    2.4070  -12.3283 C   0  0  0  0  0  0  0  0  0  0  0  0
   -4.8924    2.0129  -10.8641 C   0  0  0  0  0  0  0  0  0  0  0  0
   -5.4363    3.0421  -10.1689 F   0  0  0  0  0  0  0  0  0  0  0  0
   -5.7766    0.9840  -10.7803 F   0  0  0  0  0  0  0  0  0  0  0  0
   -8.2971    4.3281  -12.8759 N   0  0  0  0  0  0  0  0  0  0  0  0
   -8.8996    3.7474  -13.3945 H   0  0  0  0  0  0  0  0  0  0  0  0
   -8.4321    4.3356  -11.4745 C   0  0  0  0  0  0  0  0  0  0  0  0
   -8.1440    5.4433  -10.6442 C   0  0  0  0  0  0  0  0  0  0  0  0
   -8.2260    5.3732   -9.2444 C   0  0  0  0  0  0  0  0  0  0  0  0
   -8.5911    4.1753   -8.6710 C   0  0  0  0  0  0  0  0  0  0  0  0
   -8.8385    3.0615   -9.4611 C   0  0  0  0  0  0  0  0  0  0  0  0
   -8.7386    3.1176  -10.8440 C   0  0  0  0  0  0  0  0  0  0  0  0
   -9.1626    1.9043   -8.5739 C   0  0  0  0  0  0  0  0  0  0  0  0
   -9.4932    2.5152   -7.2584 N   0  0  0  0  0  0  0  0  0  0  0  0
   -8.7624    3.8011   -7.2360 C   0  0  0  0  0  0  0  0  0  0  0  0
   -9.1823    1.9133   -6.4958 H   0  0  0  0  0  0  0  0  0  0  0  0
 20 21  1  0  0  0
 21 22  1  0  0  0
 21 15  1  0  0  0
 15 16  2  0  0  0
 16 17  1  0  0  0
 17 18  2  0  0  0
 18  4  1  0  0  0
  4  5  2  0  0  0
  5  6  1  0  0  0
  6  7  2  0  0  0
  7  8  1  0  0  0
  8  9  1  0  0  0
  8 10  2  0  0  0
 10 11  1  0  0  0
 11  1  1  0  0  0
  1  2  1  0  0  0
  1 31  1  0  0  0
 31 33  1  0  0  0
 33 34  2  0  0  0
 34 35  1  0  0  0
 35 36  2  0  0  0
 36 37  1  0  0  0
 37 38  2  0  0  0
 37 39  1  0  0  0
 39 40  1  0  0  0
 40 41  1  0  0  0
  1 23  1  0  0  0
 23 24  2  0  0  0
 23 25  1  0  0  0
 25 27  1  0  0  0
 27 28  1  0  0  0
 28 29  1  0  0  0
 28 30  1  0  0  0
 11 12  2  0  0  0
 12 13  1  0  0  0
 18 19  1  0  0  0
 19 15  1  0  0  0
 13  4  1  0  0  0
 12  6  1  0  0  0
 38 33  1  0  0  0
 41 36  1  0  0  0
  2  3  1  0  0  0
 31 32  1  0  0  0
 40 42  1  0  0  0
 25 26  1  0  0  0
 13 14  1  0  0  0
M  END
> <minimizedAffinity>
-8.86285

> <minimizedRMSD>
1.67042

$$$$
P21223


 41 45  0  0  0  0  0  0  0  0999 V2000
   -7.1977    4.3150  -13.8413 C   0  0  0  0  0  0  0  0  0  0  0  0
   -6.4738    5.4653  -13.4109 O   0  0  0  0  0  0  0  0  0  0  0  0
   -6.3127    5.4075  -12.4562 H   0  0  0  0  0  0  0  0  0  0  0  0
   -7.4522    4.4234  -15.3958 C   0  0  0  0  0  0  0  0  0  0  0  0
   -8.9233    4.5047  -15.8411 C   0  0  0  0  0  0  0  0  0  0  0  0
   -9.0753    4.2475  -17.3428 C   0  0  0  0  0  0  0  0  0  0  0  0
  -10.1480    4.9434  -17.8014 F   0  0  0  0  0  0  0  0  0  0  0  0
   -7.8438    4.5886  -18.1735 C   0  0  0  0  0  0  0  0  0  0  0  0
   -7.0449    5.7470  -17.5968 C   0  0  0  0  0  0  0  0  0  0  0  0
   -5.7737    5.9600  -18.3126 N   0  0  0  0  0  0  0  0  0  0  0  0
   -4.7672    6.2902  -17.2968 C   0  0  0  0  0  0  0  0  0  0  0  0
   -5.1906    5.4620  -16.0984 C   0  0  0  0  0  0  0  0  0  0  0  0
   -6.7053    5.5843  -16.1015 C   0  0  0  0  0  0  0  0  0  0  0  0
   -5.8685    6.7288  -18.9762 H   0  0  0  0  0  0  0  0  0  0  0  0
   -3.3497    6.0085  -17.6904 C   0  0  0  0  0  0  0  0  0  0  0  0
   -2.9458    5.3225  -18.7391 N   0  0  0  0  0  0  0  0  0  0  0  0
   -1.5692    5.2469  -18.8146 N   0  0  0  0  0  0  0  0  0  0  0  0
   -0.9738    5.8550  -17.8110 C   0  0  0  0  0  0  0  0  0  0  0  0
   -2.0634    6.5636  -16.6881 S   0  0  0  0  0  0  0  0  0  0  0  0
    0.5112    5.9542  -17.6006 C   0  0  0  0  0  0  0  0  0  0  0  0
    0.8993    5.4690  -16.2030 C   0  0  0  0  0  0  0  0  0  0  0  0
    1.2784    5.1710  -18.6665 C   0  0  0  0  0  0  0  0  0  0  0  0
   -4.8699    3.5220  -13.2908 N   0  0  0  0  0  0  0  0  0  0  0  0
   -6.3024    2.9925  -13.6388 C   0  0  0  0  0  0  0  0  0  0  0  0
   -6.6867    1.8977  -13.8091 O   0  0  0  0  0  0  0  0  0  0  0  0
   -4.8180    4.4905  -13.1215 H   0  0  0  0  0  0  0  0  0  0  0  0
   -3.3087    2.0045  -14.4209 C   0  0  0  0  0  0  0  0  0  0  0  0
   -3.6138    2.8203  -13.1782 C   0  0  0  0  0  0  0  0  0  0  0  0
   -3.5711    1.9466  -11.9448 C   0  0  0  0  0  0  0  0  0  0  0  0
   -8.4553    4.2243  -13.0770 N   0  0  0  0  0  0  0  0  0  0  0  0
   -9.3187    4.1371  -13.5420 H   0  0  0  0  0  0  0  0  0  0  0  0
   -8.4000    4.2648  -11.6662 C   0  0  0  0  0  0  0  0  0  0  0  0
   -8.0705    5.4565  -10.9830 C   0  0  0  0  0  0  0  0  0  0  0  0
   -8.0330    5.5170   -9.5843 C   0  0  0  0  0  0  0  0  0  0  0  0
   -8.3759    4.3810   -8.8774 C   0  0  0  0  0  0  0  0  0  0  0  0
   -8.7082    3.2028   -9.5359 C   0  0  0  0  0  0  0  0  0  0  0  0
   -8.6965    3.1191  -10.9184 C   0  0  0  0  0  0  0  0  0  0  0  0
   -9.0671    2.1588   -8.5306 C   0  0  0  0  0  0  0  0  0  0  0  0
   -9.2639    2.9056   -7.2561 N   0  0  0  0  0  0  0  0  0  0  0  0
   -8.4975    4.1614   -7.4074 C   0  0  0  0  0  0  0  0  0  0  0  0
   -8.9083    2.3644   -6.4680 H   0  0  0  0  0  0  0  0  0  0  0  0
 27 28  1  0  0  0
 28 29  1  0  0  0
 28 23  1  0  0  0
 23 24  1  0  0  0
 24 25  2  0  0  0
 24  1  1  0  0  0
  1  2  1  0  0  0
  1 30  1  0  0  0
 30 32  1  0  0  0
 32 33  2  0  0  0
 33 34  1  0  0  0
 34 35  2  0  0  0
 35 36  1  0  0  0
 36 37  2  0  0  0
 36 38  1  0  0  0
 38 39  1  0  0  0
 39 40  1  0  0  0
  1  4  1  0  0  0
  4  5  1  0  0  0
  5  6  1  0  0  0
  6  7  1  0  0  0
  6  8  1  0  0  0
  9  8  1  0  0  0
  9 10  1  0  0  0
 10 11  1  0  0  0
 11 15  1  0  0  0
 15 16  2  0  0  0
 16 17  1  0  0  0
 17 18  2  0  0  0
 18 20  1  0  0  0
 20 21  1  0  0  0
 20 22  1  0  0  0
 18 19  1  0  0  0
 11 12  1  0  0  0
 13 12  1  0  0  0
 37 32  1  0  0  0
 13  4  1  0  0  0
 40 35  1  0  0  0
 13  9  1  0  0  0
 19 15  1  0  0  0
 23 26  1  0  0  0
  2  3  1  0  0  0
 30 31  1  0  0  0
 39 41  1  0  0  0
 10 14  1  0  0  0
M  END
> <minimizedAffinity>
-8.63833

> <minimizedRMSD>
0.41881

$$$$
P21224


 40 45  0  0  0  0  0  0  0  0999 V2000
   -5.4024    5.5247  -17.7473 N   0  0  0  0  0  0  0  0  0  0  0  0
   -4.7122    6.0970  -16.6918 C   0  0  0  0  0  0  0  0  0  0  0  0
   -5.4322    6.0640  -15.5892 N   0  0  0  0  0  0  0  0  0  0  0  0
   -6.6374    5.4971  -15.9343 C   0  0  0  0  0  0  0  0  0  0  0  0
   -7.7779    5.2255  -15.1505 C   0  0  0  0  0  0  0  0  0  0  0  0
   -8.8842    4.5930  -15.7299 C   0  0  0  0  0  0  0  0  0  0  0  0
   -8.8655    4.2760  -17.0813 C   0  0  0  0  0  0  0  0  0  0  0  0
   -9.9471    3.6949  -17.6172 F   0  0  0  0  0  0  0  0  0  0  0  0
   -7.7632    4.5498  -17.8960 C   0  0  0  0  0  0  0  0  0  0  0  0
   -6.6498    5.1519  -17.2896 C   0  0  0  0  0  0  0  0  0  0  0  0
   -3.3515    6.5499  -16.7880 C   0  0  0  0  0  0  0  0  0  0  0  0
   -2.9557    7.4653  -17.6517 N   0  0  0  0  0  0  0  0  0  0  0  0
   -1.5826    7.5067  -17.7725 N   0  0  0  0  0  0  0  0  0  0  0  0
   -0.9767    6.6567  -16.9638 C   0  0  0  0  0  0  0  0  0  0  0  0
   -2.0665    5.8102  -15.9281 S   0  0  0  0  0  0  0  0  0  0  0  0
    0.5263    6.4943  -16.9304 C   0  0  0  0  0  0  0  0  0  0  0  0
    1.0685    5.6190  -15.8002 C   0  0  0  0  0  0  0  0  0  0  0  0
    1.0317    5.9513  -18.2738 C   0  0  0  0  0  0  0  0  0  0  0  0
   -7.8396    5.6975  -13.7502 C   0  0  0  0  0  0  0  0  0  0  0  0
   -7.6998    6.8372  -13.5388 O   0  0  0  0  0  0  0  0  0  0  0  0
   -8.0783    4.5185  -12.7761 N   0  0  0  0  0  0  0  0  0  0  0  0
   -8.0881    3.6296  -13.1994 H   0  0  0  0  0  0  0  0  0  0  0  0
   -8.2817    4.5104  -11.3964 C   0  0  0  0  0  0  0  0  0  0  0  0
   -8.0114    5.6436  -10.6151 C   0  0  0  0  0  0  0  0  0  0  0  0
   -8.1271    5.5837   -9.2260 C   0  0  0  0  0  0  0  0  0  0  0  0
   -7.7811    6.6423   -8.4841 F   0  0  0  0  0  0  0  0  0  0  0  0
   -8.5369    4.4140   -8.6264 C   0  0  0  0  0  0  0  0  0  0  0  0
   -8.8366    3.2971   -9.4053 C   0  0  0  0  0  0  0  0  0  0  0  0
   -8.7095    3.3254  -10.7877 C   0  0  0  0  0  0  0  0  0  0  0  0
   -9.1818    2.1379   -8.5222 C   0  0  0  0  0  0  0  0  0  0  0  0
   -9.1516    2.6656   -7.1436 N   0  0  0  0  0  0  0  0  0  0  0  0
  -10.4575    2.7482   -6.5064 C   0  0  0  0  0  0  0  0  0  0  0  0
  -10.3090    3.8353   -5.4628 C   0  0  0  0  0  0  0  0  0  0  0  0
   -9.4693    4.8030   -6.2382 C   0  0  0  0  0  0  0  0  0  0  0  0
   -9.5046    6.0149   -6.0570 O   0  0  0  0  0  0  0  0  0  0  0  0
   -8.5739    4.0418   -7.1884 C   0  0  0  0  0  0  0  0  0  0  0  0
   -4.8349    5.2728  -19.0718 C   0  0  0  0  0  0  0  0  0  0  0  0
   -2.6255    4.6057  -19.9036 C   0  0  0  0  0  0  0  0  0  0  0  0
   -3.5806    4.5711  -18.8295 N   0  0  0  0  0  0  0  0  0  0  0  0
   -3.1427    4.9879  -18.0080 H   0  0  0  0  0  0  0  0  0  0  0  0
 38 39  1  0  0  0
 39 37  1  0  0  0
 37  1  1  0  0  0
  1  2  1  0  0  0
  2 11  1  0  0  0
 11 12  2  0  0  0
 12 13  1  0  0  0
 13 14  2  0  0  0
 14 16  1  0  0  0
 16 17  1  0  0  0
 16 18  1  0  0  0
 14 15  1  0  0  0
  2  3  2  0  0  0
  3  4  1  0  0  0
  4  5  2  0  0  0
  5 19  1  0  0  0
 19 20  2  0  0  0
 19 21  1  0  0  0
 21 23  1  0  0  0
 23 24  2  0  0  0
 24 25  1  0  0  0
 25 26  1  0  0  0
 25 27  2  0  0  0
 27 28  1  0  0  0
 28 29  2  0  0  0
 28 30  1  0  0  0
 30 31  1  0  0  0
 31 32  1  0  0  0
 32 33  1  0  0  0
 33 34  1  0  0  0
 34 35  2  0  0  0
 36 34  1  0  0  0
  5  6  1  0  0  0
  6  7  2  0  0  0
  7  8  1  0  0  0
  7  9  1  0  0  0
  9 10  2  0  0  0
 10  1  1  0  0  0
 15 11  1  0  0  0
 10  4  1  0  0  0
 29 23  1  0  0  0
 36 31  1  0  0  0
 36 27  1  0  0  0
 39 40  1  0  0  0
 21 22  1  0  0  0
M  END
> <minimizedAffinity>
-8.93416

> <minimizedRMSD>
0.27795

$$$$
P21225


 37 41  0  0  0  0  0  0  0  0999 V2000
   -5.1095    5.2823  -17.2153 N   0  0  0  0  0  0  0  0  0  0  0  0
   -4.6914    5.4908  -15.9154 C   0  0  0  0  0  0  0  0  0  0  0  0
   -5.7193    5.4497  -15.0874 N   0  0  0  0  0  0  0  0  0  0  0  0
   -6.8212    5.1316  -15.8518 C   0  0  0  0  0  0  0  0  0  0  0  0
   -8.1671    4.8960  -15.5231 C   0  0  0  0  0  0  0  0  0  0  0  0
   -9.0910    4.4649  -16.5003 C   0  0  0  0  0  0  0  0  0  0  0  0
   -8.6993    4.3630  -17.8097 C   0  0  0  0  0  0  0  0  0  0  0  0
   -9.5381    3.9361  -18.7590 F   0  0  0  0  0  0  0  0  0  0  0  0
   -7.4306    4.7388  -18.1789 C   0  0  0  0  0  0  0  0  0  0  0  0
   -6.4702    5.0364  -17.1942 C   0  0  0  0  0  0  0  0  0  0  0  0
   -3.3164    5.6934  -15.5388 C   0  0  0  0  0  0  0  0  0  0  0  0
   -2.5563    6.6227  -16.0870 N   0  0  0  0  0  0  0  0  0  0  0  0
   -1.2768    6.6321  -15.5955 N   0  0  0  0  0  0  0  0  0  0  0  0
   -1.0902    5.6975  -14.6873 C   0  0  0  0  0  0  0  0  0  0  0  0
   -2.5020    4.7605  -14.3564 S   0  0  0  0  0  0  0  0  0  0  0  0
    0.2079    5.4384  -13.9724 C   0  0  0  0  0  0  0  0  0  0  0  0
    0.1125    4.2027  -13.0767 C   0  0  0  0  0  0  0  0  0  0  0  0
    1.3651    5.2666  -14.9629 C   0  0  0  0  0  0  0  0  0  0  0  0
   -8.7049    5.1904  -14.1914 C   0  0  0  0  0  0  0  0  0  0  0  0
   -9.7620    5.6691  -14.0809 O   0  0  0  0  0  0  0  0  0  0  0  0
   -7.7219    4.6796  -13.1193 N   0  0  0  0  0  0  0  0  0  0  0  0
   -6.8492    4.3850  -13.4672 H   0  0  0  0  0  0  0  0  0  0  0  0
   -7.8661    4.5678  -11.7502 C   0  0  0  0  0  0  0  0  0  0  0  0
   -7.6469    5.6599  -10.9012 C   0  0  0  0  0  0  0  0  0  0  0  0
   -7.9445    5.5443   -9.5490 C   0  0  0  0  0  0  0  0  0  0  0  0
   -7.7589    6.5830   -8.7242 F   0  0  0  0  0  0  0  0  0  0  0  0
   -8.4572    4.3597   -9.0737 C   0  0  0  0  0  0  0  0  0  0  0  0
   -8.6443    3.2737   -9.9213 C   0  0  0  0  0  0  0  0  0  0  0  0
   -8.3486    3.3527  -11.2634 C   0  0  0  0  0  0  0  0  0  0  0  0
   -9.1480    2.1225   -9.1264 C   0  0  0  0  0  0  0  0  0  0  0  0
   -9.6639    2.7302   -7.8738 N   0  0  0  0  0  0  0  0  0  0  0  0
   -8.8776    3.9768   -7.7001 C   0  0  0  0  0  0  0  0  0  0  0  0
   -9.5185    2.1015   -7.0839 H   0  0  0  0  0  0  0  0  0  0  0  0
   -4.1947    5.2840  -18.3498 C   0  0  0  0  0  0  0  0  0  0  0  0
   -3.9511    6.6712  -20.3235 C   0  0  0  0  0  0  0  0  0  0  0  0
   -4.1828    6.5871  -18.9049 N   0  0  0  0  0  0  0  0  0  0  0  0
   -5.0877    7.0162  -18.7114 H   0  0  0  0  0  0  0  0  0  0  0  0
 35 36  1  0  0  0
 36 34  1  0  0  0
 34  1  1  0  0  0
  1  2  1  0  0  0
  2 11  1  0  0  0
 11 12  2  0  0  0
 12 13  1  0  0  0
 13 14  2  0  0  0
 14 16  1  0  0  0
 16 17  1  0  0  0
 16 18  1  0  0  0
 14 15  1  0  0  0
  2  3  2  0  0  0
  3  4  1  0  0  0
  4  5  2  0  0  0
  5 19  1  0  0  0
 19 20  2  0  0  0
 19 21  1  0  0  0
 21 23  1  0  0  0
 23 24  2  0  0  0
 24 25  1  0  0  0
 25 26  1  0  0  0
 25 27  2  0  0  0
 27 28  1  0  0  0
 28 29  2  0  0  0
 28 30  1  0  0  0
 30 31  1  0  0  0
 31 32  1  0  0  0
  5  6  1  0  0  0
  6  7  2  0  0  0
  7  8  1  0  0  0
  7  9  1  0  0  0
  9 10  2  0  0  0
 10  1  1  0  0  0
 15 11  1  0  0  0
 10  4  1  0  0  0
 29 23  1  0  0  0
 32 27  1  0  0  0
 36 37  1  0  0  0
 21 22  1  0  0  0
 31 33  1  0  0  0
M  END
> <minimizedAffinity>
-8.22253

> <minimizedRMSD>
1.87247

$$$$
P21226


 41 46  0  0  0  0  0  0  0  0999 V2000
   -4.4949    5.8802  -16.3136 N   0  0  0  0  0  0  0  0  0  0  0  0
   -3.5371    5.4868  -15.4046 C   0  0  0  0  0  0  0  0  0  0  0  0
   -4.1180    4.9668  -14.3322 N   0  0  0  0  0  0  0  0  0  0  0  0
   -5.4677    4.9338  -14.5854 C   0  0  0  0  0  0  0  0  0  0  0  0
   -6.5673    4.4664  -13.8411 C   0  0  0  0  0  0  0  0  0  0  0  0
   -7.8484    4.4621  -14.4278 C   0  0  0  0  0  0  0  0  0  0  0  0
   -8.0380    5.0113  -15.6782 C   0  0  0  0  0  0  0  0  0  0  0  0
   -9.2314    4.9993  -16.2735 F   0  0  0  0  0  0  0  0  0  0  0  0
   -7.0126    5.6425  -16.3345 C   0  0  0  0  0  0  0  0  0  0  0  0
   -5.7254    5.5111  -15.8186 C   0  0  0  0  0  0  0  0  0  0  0  0
   -2.1099    5.6034  -15.5501 C   0  0  0  0  0  0  0  0  0  0  0  0
   -1.4881    5.8669  -16.6814 N   0  0  0  0  0  0  0  0  0  0  0  0
   -0.1127    5.8922  -16.5389 N   0  0  0  0  0  0  0  0  0  0  0  0
    0.2735    5.6400  -15.3034 C   0  0  0  0  0  0  0  0  0  0  0  0
   -1.0408    5.3905  -14.2174 S   0  0  0  0  0  0  0  0  0  0  0  0
    1.7031    5.6258  -14.8127 C   0  0  0  0  0  0  0  0  0  0  0  0
    2.0660    4.3271  -14.0881 C   0  0  0  0  0  0  0  0  0  0  0  0
    2.6932    5.8563  -15.9589 C   0  0  0  0  0  0  0  0  0  0  0  0
   -6.4360    4.1541  -12.4047 C   0  0  0  0  0  0  0  0  0  0  0  0
   -5.3712    3.9426  -11.9756 O   0  0  0  0  0  0  0  0  0  0  0  0
   -7.8010    4.2687  -11.6873 N   0  0  0  0  0  0  0  0  0  0  0  0
   -8.5739    4.3784  -12.2871 H   0  0  0  0  0  0  0  0  0  0  0  0
   -8.1134    4.2423  -10.3369 C   0  0  0  0  0  0  0  0  0  0  0  0
   -7.9093    5.3667   -9.5314 C   0  0  0  0  0  0  0  0  0  0  0  0
   -8.2487    5.3312   -8.1812 C   0  0  0  0  0  0  0  0  0  0  0  0
   -7.9936    6.4049   -7.4245 F   0  0  0  0  0  0  0  0  0  0  0  0
   -8.7995    4.1892   -7.6348 C   0  0  0  0  0  0  0  0  0  0  0  0
   -9.0070    3.0816   -8.4568 C   0  0  0  0  0  0  0  0  0  0  0  0
   -8.6754    3.0846   -9.8040 C   0  0  0  0  0  0  0  0  0  0  0  0
   -9.6075    1.9765   -7.6694 C   0  0  0  0  0  0  0  0  0  0  0  0
   -9.5085    2.3910   -6.2525 N   0  0  0  0  0  0  0  0  0  0  0  0
   -9.1590    3.8406   -6.2158 C   0  0  0  0  0  0  0  0  0  0  0  0
   -8.0140    4.1333   -5.2254 C   0  0  0  0  0  0  0  0  0  0  0  0
   -8.2870    5.5046   -4.6029 C   0  0  0  0  0  0  0  0  0  0  0  0
   -9.6995    5.8884   -5.0123 C   0  0  0  0  0  0  0  0  0  0  0  0
  -10.3149    4.6096   -5.5590 C   0  0  0  0  0  0  0  0  0  0  0  0
   -8.7829    1.8486   -5.7838 H   0  0  0  0  0  0  0  0  0  0  0  0
   -4.3483    6.6991  -17.5034 C   0  0  0  0  0  0  0  0  0  0  0  0
   -4.9461    5.2096  -19.3909 C   0  0  0  0  0  0  0  0  0  0  0  0
   -3.9287    5.8897  -18.6246 N   0  0  0  0  0  0  0  0  0  0  0  0
   -3.4235    6.5004  -19.2667 H   0  0  0  0  0  0  0  0  0  0  0  0
 39 40  1  0  0  0
 40 38  1  0  0  0
 38  1  1  0  0  0
  1  2  1  0  0  0
  2 11  1  0  0  0
 11 12  2  0  0  0
 12 13  1  0  0  0
 13 14  2  0  0  0
 14 16  1  0  0  0
 16 17  1  0  0  0
 16 18  1  0  0  0
 14 15  1  0  0  0
  2  3  2  0  0  0
  3  4  1  0  0  0
  4  5  2  0  0  0
  5 19  1  0  0  0
 19 20  2  0  0  0
 19 21  1  0  0  0
 21 23  1  0  0  0
 23 24  2  0  0  0
 24 25  1  0  0  0
 25 26  1  0  0  0
 25 27  2  0  0  0
 27 28  1  0  0  0
 28 29  2  0  0  0
 28 30  1  0  0  0
 30 31  1  0  0  0
 31 32  1  0  0  0
 32 33  1  0  0  0
 33 34  1  0  0  0
 34 35  1  0  0  0
 35 36  1  0  0  0
  5  6  1  0  0  0
  6  7  2  0  0  0
  7  8  1  0  0  0
  7  9  1  0  0  0
  9 10  2  0  0  0
 10  1  1  0  0  0
 15 11  1  0  0  0
 10  4  1  0  0  0
 29 23  1  0  0  0
 36 32  1  0  0  0
 32 27  1  0  0  0
 40 41  1  0  0  0
 21 22  1  0  0  0
 31 37  1  0  0  0
M  END
> <minimizedAffinity>
-7.80956

> <minimizedRMSD>
1.80584

$$$$
P21227


 37 42  0  0  0  0  0  0  0  0999 V2000
   -1.3467    6.4020  -17.4599 C   0  0  0  0  0  0  0  0  0  0  0  0
   -2.1862    6.2654  -18.6686 N   0  0  0  0  0  0  0  0  0  0  0  0
   -3.0356    5.0665  -18.4743 C   0  0  0  0  0  0  0  0  0  0  0  0
   -4.1302    4.8656  -19.5423 C   0  0  0  0  0  0  0  0  0  0  0  0
   -5.2593    5.7843  -19.5042 N   0  0  0  0  0  0  0  0  0  0  0  0
   -5.8850    5.8553  -18.1950 C   0  0  0  0  0  0  0  0  0  0  0  0
   -6.8658    4.7821  -17.6821 C   0  0  0  0  0  0  0  0  0  0  0  0
   -8.1725    4.5737  -18.4336 C   0  0  0  0  0  0  0  0  0  0  0  0
   -9.3652    4.0996  -17.5839 C   0  0  0  0  0  0  0  0  0  0  0  0
   -9.4605    2.7447  -17.6666 F   0  0  0  0  0  0  0  0  0  0  0  0
   -9.3672    4.4656  -16.0962 C   0  0  0  0  0  0  0  0  0  0  0  0
   -7.9967    4.5261  -15.4181 C   0  0  0  0  0  0  0  0  0  0  0  0
   -7.0731    5.3536  -16.2857 C   0  0  0  0  0  0  0  0  0  0  0  0
   -5.7023    5.5409  -15.8123 N   0  0  0  0  0  0  0  0  0  0  0  0
   -4.9214    6.0031  -16.9884 C   0  0  0  0  0  0  0  0  0  0  0  0
   -3.6610    5.1321  -17.0834 C   0  0  0  0  0  0  0  0  0  0  0  0
   -2.3457    5.8476  -16.0464 S   0  0  0  0  0  0  0  0  0  0  0  0
   -1.5969    6.1471  -19.4926 H   0  0  0  0  0  0  0  0  0  0  0  0
   -5.9556    5.4728  -20.1814 H   0  0  0  0  0  0  0  0  0  0  0  0
   -5.3255    4.6607  -15.4607 H   0  0  0  0  0  0  0  0  0  0  0  0
   -8.1457    5.2077  -14.0487 C   0  0  0  0  0  0  0  0  0  0  0  0
   -8.1338    6.3707  -13.9138 O   0  0  0  0  0  0  0  0  0  0  0  0
   -8.3018    4.0717  -12.9955 N   0  0  0  0  0  0  0  0  0  0  0  0
   -8.3566    3.1641  -13.3731 H   0  0  0  0  0  0  0  0  0  0  0  0
   -8.3765    4.1308  -11.6081 C   0  0  0  0  0  0  0  0  0  0  0  0
   -8.0362    5.2996  -10.9087 C   0  0  0  0  0  0  0  0  0  0  0  0
   -8.0869    5.3357   -9.5117 C   0  0  0  0  0  0  0  0  0  0  0  0
   -8.4972    4.1975   -8.8423 C   0  0  0  0  0  0  0  0  0  0  0  0
   -8.8439    3.0455   -9.5356 C   0  0  0  0  0  0  0  0  0  0  0  0
   -8.7780    2.9875  -10.9168 C   0  0  0  0  0  0  0  0  0  0  0  0
   -9.2356    1.9803   -8.5716 C   0  0  0  0  0  0  0  0  0  0  0  0
   -9.2900    2.6346   -7.2365 N   0  0  0  0  0  0  0  0  0  0  0  0
   -8.6418    3.9555   -7.3798 C   0  0  0  0  0  0  0  0  0  0  0  0
   -8.7900    2.0710   -6.5489 H   0  0  0  0  0  0  0  0  0  0  0  0
    0.8610    5.6945  -16.2964 C   0  0  0  0  0  0  0  0  0  0  0  0
    0.0083    5.6466  -17.5737 C   0  0  0  0  0  0  0  0  0  0  0  0
    0.8426    6.1900  -18.7402 C   0  0  0  0  0  0  0  0  0  0  0  0
 35 36  1  0  0  0
 36 37  1  0  0  0
  1 36  1  0  0  0
  1  2  1  0  0  0
  2  3  1  0  0  0
  3  4  1  0  0  0
  4  5  1  0  0  0
  6  5  1  0  0  0
  6  7  1  0  0  0
  7  8  1  0  0  0
  8  9  1  0  0  0
  9 10  1  0  0  0
  9 11  1  0  0  0
 11 12  1  0  0  0
 12 21  1  0  0  0
 21 22  2  0  0  0
 21 23  1  0  0  0
 23 25  1  0  0  0
 25 26  2  0  0  0
 26 27  1  0  0  0
 27 28  2  0  0  0
 28 29  1  0  0  0
 29 30  2  0  0  0
 29 31  1  0  0  0
 31 32  1  0  0  0
 32 33  1  0  0  0
 12 13  1  0  0  0
 13 14  1  0  0  0
 15 14  1  0  0  0
 15 16  1  0  0  0
 16 17  1  0  0  0
 17  1  1  0  0  0
 16  3  1  0  0  0
 15  6  1  0  0  0
 13  7  1  0  0  0
 30 25  1  0  0  0
 33 28  1  0  0  0
  2 18  1  0  0  0
  5 19  1  0  0  0
 23 24  1  0  0  0
 32 34  1  0  0  0
 14 20  1  0  0  0
M  END
> <minimizedAffinity>
-9.71578

> <minimizedRMSD>
0.40989

$$$$
P21228


 37 42  0  0  0  0  0  0  0  0999 V2000
   -1.2437    5.6954  -14.7122 C   0  0  0  0  0  0  0  0  0  0  0  0
   -1.1026    5.7625  -16.0121 N   0  0  0  0  0  0  0  0  0  0  0  0
   -2.3196    5.6953  -16.6135 C   0  0  0  0  0  0  0  0  0  0  0  0
   -3.4438    5.6220  -15.7975 C   0  0  0  0  0  0  0  0  0  0  0  0
   -2.8739    5.6433  -14.1612 S   0  0  0  0  0  0  0  0  0  0  0  0
   -4.8554    5.4890  -16.0990 C   0  0  0  0  0  0  0  0  0  0  0  0
   -5.8101    5.2746  -15.2073 N   0  0  0  0  0  0  0  0  0  0  0  0
   -6.9603    4.9847  -15.9210 C   0  0  0  0  0  0  0  0  0  0  0  0
   -8.2811    4.7047  -15.5252 C   0  0  0  0  0  0  0  0  0  0  0  0
   -9.2283    4.3041  -16.4865 C   0  0  0  0  0  0  0  0  0  0  0  0
   -8.8739    4.2296  -17.8255 C   0  0  0  0  0  0  0  0  0  0  0  0
   -9.7927    3.8562  -18.7256 F   0  0  0  0  0  0  0  0  0  0  0  0
   -7.6089    4.6038  -18.2659 C   0  0  0  0  0  0  0  0  0  0  0  0
   -6.6869    4.9928  -17.2846 C   0  0  0  0  0  0  0  0  0  0  0  0
   -5.4321    5.5465  -17.3474 N   0  0  0  0  0  0  0  0  0  0  0  0
   -4.9155    6.2369  -18.5035 C   0  0  0  0  0  0  0  0  0  0  0  0
   -4.1160    5.3278  -19.3961 C   0  0  0  0  0  0  0  0  0  0  0  0
   -2.9620    4.6645  -18.6732 C   0  0  0  0  0  0  0  0  0  0  0  0
   -2.2040    5.6612  -17.9574 N   0  0  0  0  0  0  0  0  0  0  0  0
   -1.6214    6.2959  -18.4338 H   0  0  0  0  0  0  0  0  0  0  0  0
   -8.7451    5.0476  -14.1686 C   0  0  0  0  0  0  0  0  0  0  0  0
   -9.6126    5.8221  -14.0631 O   0  0  0  0  0  0  0  0  0  0  0  0
   -8.0226    4.2005  -13.0968 N   0  0  0  0  0  0  0  0  0  0  0  0
   -7.3676    3.5572  -13.4524 H   0  0  0  0  0  0  0  0  0  0  0  0
   -8.1468    4.1990  -11.7126 C   0  0  0  0  0  0  0  0  0  0  0  0
   -7.8687    5.3498  -10.9586 C   0  0  0  0  0  0  0  0  0  0  0  0
   -8.0415    5.3541   -9.5719 C   0  0  0  0  0  0  0  0  0  0  0  0
   -8.4939    4.1968   -8.9661 C   0  0  0  0  0  0  0  0  0  0  0  0
   -8.7641    3.0573   -9.7118 C   0  0  0  0  0  0  0  0  0  0  0  0
   -8.5937    3.0355  -11.0855 C   0  0  0  0  0  0  0  0  0  0  0  0
   -9.2039    1.9611   -8.8055 C   0  0  0  0  0  0  0  0  0  0  0  0
   -9.3631    2.5741   -7.4589 N   0  0  0  0  0  0  0  0  0  0  0  0
   -8.7586    3.9220   -7.5269 C   0  0  0  0  0  0  0  0  0  0  0  0
   -8.8837    2.0095   -6.7576 H   0  0  0  0  0  0  0  0  0  0  0  0
   -0.4122    5.0274  -12.4342 C   0  0  0  0  0  0  0  0  0  0  0  0
   -0.0712    5.6952  -13.7651 C   0  0  0  0  0  0  0  0  0  0  0  0
    1.1366    4.9760  -14.3889 C   0  0  0  0  0  0  0  0  0  0  0  0
 35 36  1  0  0  0
 36 37  1  0  0  0
 36  1  1  0  0  0
  1  2  2  0  0  0
  2  3  1  0  0  0
  3  4  2  0  0  0
  4  5  1  0  0  0
  4  6  1  0  0  0
  6  7  2  0  0  0
  7  8  1  0  0  0
  8  9  2  0  0  0
  9 21  1  0  0  0
 21 22  2  0  0  0
 21 23  1  0  0  0
 23 25  1  0  0  0
 25 26  2  0  0  0
 26 27  1  0  0  0
 27 28  2  0  0  0
 28 29  1  0  0  0
 29 30  2  0  0  0
 29 31  1  0  0  0
 31 32  1  0  0  0
 32 33  1  0  0  0
  9 10  1  0  0  0
 10 11  2  0  0  0
 11 12  1  0  0  0
 11 13  1  0  0  0
 13 14  2  0  0  0
 14 15  1  0  0  0
 15 16  1  0  0  0
 16 17  1  0  0  0
 17 18  1  0  0  0
 18 19  1  0  0  0
  5  1  1  0  0  0
 15  6  1  0  0  0
 19  3  1  0  0  0
 14  8  1  0  0  0
 30 25  1  0  0  0
 33 28  1  0  0  0
 23 24  1  0  0  0
 32 34  1  0  0  0
 19 20  1  0  0  0
M  END
> <minimizedAffinity>
-10.23340

> <minimizedRMSD>
1.48814

$$$$
P21229


 38 42  0  0  0  0  0  0  0  0999 V2000
   -4.8190    5.3413  -17.1030 C   0  0  0  0  0  0  0  0  0  0  0  0
   -5.7959    5.1298  -17.9543 N   0  0  0  0  0  0  0  0  0  0  0  0
   -6.9120    4.8571  -17.2016 C   0  0  0  0  0  0  0  0  0  0  0  0
   -8.1933    4.4902  -17.6386 C   0  0  0  0  0  0  0  0  0  0  0  0
   -9.1636    4.3068  -16.6546 C   0  0  0  0  0  0  0  0  0  0  0  0
  -10.4152    3.9908  -17.0199 F   0  0  0  0  0  0  0  0  0  0  0  0
   -8.8720    4.4130  -15.3034 C   0  0  0  0  0  0  0  0  0  0  0  0
   -7.5691    4.6896  -14.8333 C   0  0  0  0  0  0  0  0  0  0  0  0
   -6.6228    4.9372  -15.8459 C   0  0  0  0  0  0  0  0  0  0  0  0
   -5.2878    5.2748  -15.8140 N   0  0  0  0  0  0  0  0  0  0  0  0
   -4.7574    5.4409  -15.0014 H   0  0  0  0  0  0  0  0  0  0  0  0
   -1.1089    5.9186  -17.6817 C   0  0  0  0  0  0  0  0  0  0  0  0
   -1.6605    5.5568  -18.8205 N   0  0  0  0  0  0  0  0  0  0  0  0
   -3.0178    5.3529  -18.7050 N   0  0  0  0  0  0  0  0  0  0  0  0
   -3.4563    5.5593  -17.4808 C   0  0  0  0  0  0  0  0  0  0  0  0
   -2.2383    6.0725  -16.3868 S   0  0  0  0  0  0  0  0  0  0  0  0
    0.8861    5.5400  -16.2057 C   0  0  0  0  0  0  0  0  0  0  0  0
    0.3557    6.2008  -17.4795 C   0  0  0  0  0  0  0  0  0  0  0  0
    1.1833    5.7344  -18.6814 C   0  0  0  0  0  0  0  0  0  0  0  0
   -8.5969    4.2385  -19.0570 C   0  0  0  0  0  0  0  0  0  0  0  0
   -7.5737    3.6043  -19.8844 N   0  0  0  0  0  0  0  0  0  0  0  0
   -6.7633    4.2197  -19.9541 H   0  0  0  0  0  0  0  0  0  0  0  0
   -7.9498    3.4304  -20.8164 H   0  0  0  0  0  0  0  0  0  0  0  0
   -7.2570    4.7753  -13.3482 C   0  0  0  0  0  0  0  0  0  0  0  0
   -6.8046    6.1856  -13.0996 N   0  0  0  0  0  0  0  0  0  0  0  0
   -5.6054    6.2502  -12.7954 O   0  0  0  0  0  0  0  0  0  0  0  0
   -8.4302    4.3786  -12.5729 N   0  0  0  0  0  0  0  0  0  0  0  0
   -9.2690    4.1687  -13.0438 H   0  0  0  0  0  0  0  0  0  0  0  0
   -8.3895    4.2899  -11.1738 C   0  0  0  0  0  0  0  0  0  0  0  0
   -8.1246    5.3856  -10.3295 C   0  0  0  0  0  0  0  0  0  0  0  0
   -8.2263    5.2911   -8.9356 C   0  0  0  0  0  0  0  0  0  0  0  0
   -8.6157    4.0880   -8.3876 C   0  0  0  0  0  0  0  0  0  0  0  0
   -8.8840    2.9974   -9.1970 C   0  0  0  0  0  0  0  0  0  0  0  0
   -8.7879    3.0819  -10.5769 C   0  0  0  0  0  0  0  0  0  0  0  0
   -9.2556    1.8301   -8.3511 C   0  0  0  0  0  0  0  0  0  0  0  0
   -9.4181    2.3587   -6.9704 N   0  0  0  0  0  0  0  0  0  0  0  0
   -8.8459    3.7211   -6.9634 C   0  0  0  0  0  0  0  0  0  0  0  0
   -8.9201    1.7655   -6.3067 H   0  0  0  0  0  0  0  0  0  0  0  0
 17 18  1  0  0  0
 18 19  1  0  0  0
 18 12  1  0  0  0
 12 13  2  0  0  0
 13 14  1  0  0  0
 14 15  2  0  0  0
 15  1  1  0  0  0
  1  2  2  0  0  0
  2  3  1  0  0  0
  3  4  2  0  0  0
  4 20  1  0  0  0
 20 21  1  0  0  0
  4  5  1  0  0  0
  5  6  1  0  0  0
  5  7  2  0  0  0
  7  8  1  0  0  0
  8 24  1  0  0  0
 24 25  1  0  0  0
 25 26  2  0  0  0
 24 27  1  0  0  0
 27 29  1  0  0  0
 29 30  2  0  0  0
 30 31  1  0  0  0
 31 32  2  0  0  0
 32 33  1  0  0  0
 33 34  2  0  0  0
 33 35  1  0  0  0
 35 36  1  0  0  0
 36 37  1  0  0  0
  8  9  2  0  0  0
  9 10  1  0  0  0
 15 16  1  0  0  0
 16 12  1  0  0  0
 10  1  1  0  0  0
  9  3  1  0  0  0
 34 29  1  0  0  0
 37 32  1  0  0  0
 21 22  1  0  0  0
 21 23  1  0  0  0
 27 28  1  0  0  0
 36 38  1  0  0  0
 10 11  1  0  0  0
M  END
> <minimizedAffinity>
-7.53780

> <minimizedRMSD>
0.53597

$$$$
P21231


 40 45  0  0  0  0  0  0  0  0999 V2000
   -1.1460    5.9814  -15.7083 C   0  0  0  0  0  0  0  0  0  0  0  0
   -1.3754    6.8305  -16.6879 N   0  0  0  0  0  0  0  0  0  0  0  0
   -2.7329    6.8864  -16.9631 C   0  0  0  0  0  0  0  0  0  0  0  0
   -3.5159    6.0075  -16.2428 C   0  0  0  0  0  0  0  0  0  0  0  0
   -2.5704    5.3123  -15.0031 S   0  0  0  0  0  0  0  0  0  0  0  0
   -4.8932    5.6703  -16.4253 C   0  0  0  0  0  0  0  0  0  0  0  0
   -5.7408    5.6010  -15.4197 N   0  0  0  0  0  0  0  0  0  0  0  0
   -6.9290    5.1482  -15.9343 C   0  0  0  0  0  0  0  0  0  0  0  0
   -8.1769    4.9084  -15.3254 C   0  0  0  0  0  0  0  0  0  0  0  0
   -9.2148    4.3352  -16.0733 C   0  0  0  0  0  0  0  0  0  0  0  0
   -9.0239    4.0575  -17.4169 C   0  0  0  0  0  0  0  0  0  0  0  0
  -10.0352    3.5276  -18.1153 F   0  0  0  0  0  0  0  0  0  0  0  0
   -7.8275    4.3507  -18.0682 C   0  0  0  0  0  0  0  0  0  0  0  0
   -6.7922    4.9031  -17.2981 C   0  0  0  0  0  0  0  0  0  0  0  0
   -5.5193    5.3638  -17.6132 N   0  0  0  0  0  0  0  0  0  0  0  0
   -5.0950    5.5452  -18.9918 C   0  0  0  0  0  0  0  0  0  0  0  0
   -3.6320    5.7842  -19.3585 C   0  0  0  0  0  0  0  0  0  0  0  0
   -3.2256    7.1547  -19.3366 O   0  0  0  0  0  0  0  0  0  0  0  0
   -3.2217    7.7726  -18.0508 C   0  0  0  0  0  0  0  0  0  0  0  0
   -8.4350    5.3889  -13.9517 C   0  0  0  0  0  0  0  0  0  0  0  0
   -8.7428    6.5046  -13.7981 O   0  0  0  0  0  0  0  0  0  0  0  0
   -8.3023    4.2364  -12.9299 N   0  0  0  0  0  0  0  0  0  0  0  0
   -8.0984    3.3576  -13.3240 H   0  0  0  0  0  0  0  0  0  0  0  0
   -8.4240    4.2391  -11.5449 C   0  0  0  0  0  0  0  0  0  0  0  0
   -8.0504    5.3572  -10.7814 C   0  0  0  0  0  0  0  0  0  0  0  0
   -8.0446    5.3010   -9.3845 C   0  0  0  0  0  0  0  0  0  0  0  0
   -8.4352    4.1208   -8.7825 C   0  0  0  0  0  0  0  0  0  0  0  0
   -8.8820    3.0379   -9.5415 C   0  0  0  0  0  0  0  0  0  0  0  0
   -8.8746    3.0748  -10.9227 C   0  0  0  0  0  0  0  0  0  0  0  0
   -9.2021    1.8863   -8.6470 C   0  0  0  0  0  0  0  0  0  0  0  0
   -9.0849    2.4181   -7.2666 N   0  0  0  0  0  0  0  0  0  0  0  0
   -8.2323    3.6368   -7.3869 C   0  0  0  0  0  0  0  0  0  0  0  0
   -8.6429    1.7316   -6.6553 H   0  0  0  0  0  0  0  0  0  0  0  0
   -8.4155    4.5559   -6.1745 C   0  0  0  0  0  0  0  0  0  0  0  0
   -8.0238    3.8455   -4.9278 N   0  0  0  0  0  0  0  0  0  0  0  0
   -8.6116    3.0207   -4.8075 H   0  0  0  0  0  0  0  0  0  0  0  0
   -8.1445    4.4685   -4.1292 H   0  0  0  0  0  0  0  0  0  0  0  0
    0.2521    4.9504  -13.8602 C   0  0  0  0  0  0  0  0  0  0  0  0
    0.2319    5.5372  -15.2689 C   0  0  0  0  0  0  0  0  0  0  0  0
    1.2519    6.6746  -15.3784 C   0  0  0  0  0  0  0  0  0  0  0  0
 38 39  1  0  0  0
 39 40  1  0  0  0
 39  1  1  0  0  0
  1  2  2  0  0  0
  2  3  1  0  0  0
  3  4  2  0  0  0
  4  5  1  0  0  0
  4  6  1  0  0  0
  6  7  2  0  0  0
  7  8  1  0  0  0
  8  9  2  0  0  0
  9 20  1  0  0  0
 20 21  2  0  0  0
 20 22  1  0  0  0
 22 24  1  0  0  0
 24 25  2  0  0  0
 25 26  1  0  0  0
 26 27  2  0  0  0
 27 28  1  0  0  0
 28 29  2  0  0  0
 28 30  1  0  0  0
 30 31  1  0  0  0
 31 32  1  0  0  0
 32 34  1  0  0  0
 34 35  1  0  0  0
  9 10  1  0  0  0
 10 11  2  0  0  0
 11 12  1  0  0  0
 11 13  1  0  0  0
 13 14  2  0  0  0
 14 15  1  0  0  0
 15 16  1  0  0  0
 16 17  1  0  0  0
 17 18  1  0  0  0
 18 19  1  0  0  0
  5  1  1  0  0  0
 15  6  1  0  0  0
 19  3  1  0  0  0
 14  8  1  0  0  0
 29 24  1  0  0  0
 32 27  1  0  0  0
 22 23  1  0  0  0
 31 33  1  0  0  0
 35 36  1  0  0  0
 35 37  1  0  0  0
M  END
> <minimizedAffinity>
-9.12934

> <minimizedRMSD>
0.98587

$$$$
P21248


 38 42  0  0  0  0  0  0  0  0999 V2000
   -7.1758    4.5705  -15.1930 C   0  0  0  0  0  0  0  0  0  0  0  0
   -6.1687    4.9409  -16.0869 C   0  0  0  0  0  0  0  0  0  0  0  0
   -6.3805    4.9386  -17.4709 C   0  0  0  0  0  0  0  0  0  0  0  0
   -7.6539    4.5557  -17.9206 C   0  0  0  0  0  0  0  0  0  0  0  0
   -8.1990    4.5206  -19.1884 N   0  0  0  0  0  0  0  0  0  0  0  0
   -9.5172    4.1593  -19.1308 C   0  0  0  0  0  0  0  0  0  0  0  0
   -9.8443    3.9320  -17.8192 C   0  0  0  0  0  0  0  0  0  0  0  0
   -8.6792    4.1760  -17.0410 C   0  0  0  0  0  0  0  0  0  0  0  0
   -8.4357    4.1740  -15.6536 C   0  0  0  0  0  0  0  0  0  0  0  0
   -7.7086    4.7265  -20.0168 H   0  0  0  0  0  0  0  0  0  0  0  0
   -7.9710    4.0434  -12.8704 N   0  0  0  0  0  0  0  0  0  0  0  0
   -6.9163    4.7635  -13.7410 C   0  0  0  0  0  0  0  0  0  0  0  0
   -5.9900    5.4051  -13.4325 O   0  0  0  0  0  0  0  0  0  0  0  0
   -8.6179    3.4980  -13.3736 H   0  0  0  0  0  0  0  0  0  0  0  0
   -9.6600    1.7327   -6.1894 N   0  0  0  0  0  0  0  0  0  0  0  0
   -9.6788    2.5143   -7.3835 N   0  0  0  0  0  0  0  0  0  0  0  0
   -8.8744    3.7552   -7.3108 C   0  0  0  0  0  0  0  0  0  0  0  0
   -8.5584    4.0418   -8.7463 C   0  0  0  0  0  0  0  0  0  0  0  0
   -8.1689    5.2199   -9.3504 C   0  0  0  0  0  0  0  0  0  0  0  0
   -7.9741    5.2135  -10.7350 C   0  0  0  0  0  0  0  0  0  0  0  0
   -8.1553    4.0405  -11.4892 C   0  0  0  0  0  0  0  0  0  0  0  0
   -8.5346    2.8513  -10.8611 C   0  0  0  0  0  0  0  0  0  0  0  0
   -8.7379    2.8729   -9.4914 C   0  0  0  0  0  0  0  0  0  0  0  0
   -9.1703    1.7725   -8.5684 C   0  0  0  0  0  0  0  0  0  0  0  0
  -10.0176    2.2893   -5.4130 H   0  0  0  0  0  0  0  0  0  0  0  0
   -8.7030    1.4432   -5.9876 H   0  0  0  0  0  0  0  0  0  0  0  0
   -5.3410    5.3961  -18.2802 N   0  0  0  0  0  0  0  0  0  0  0  0
   -4.9451    5.0068  -19.7023 C   0  0  0  0  0  0  0  0  0  0  0  0
   -5.4645    4.2971  -20.4617 O   0  0  0  0  0  0  0  0  0  0  0  0
   -4.7689    6.0825  -17.8668 H   0  0  0  0  0  0  0  0  0  0  0  0
   -3.8182    5.7209  -19.9591 O   0  0  0  0  0  0  0  0  0  0  0  0
   -2.9241    5.1251  -20.9047 C   0  0  0  0  0  0  0  0  0  0  0  0
   -2.4281    6.2120  -21.8252 C   0  0  0  0  0  0  0  0  0  0  0  0
   -3.2443    7.3055  -22.1474 C   0  0  0  0  0  0  0  0  0  0  0  0
   -2.7759    8.3138  -22.9920 C   0  0  0  0  0  0  0  0  0  0  0  0
   -1.4871    8.2420  -23.5180 C   0  0  0  0  0  0  0  0  0  0  0  0
   -0.6642    7.1639  -23.1981 C   0  0  0  0  0  0  0  0  0  0  0  0
   -1.1311    6.1556  -22.3538 C   0  0  0  0  0  0  0  0  0  0  0  0
 15 16  1  0  0  0
 16 17  1  0  0  0
 17 18  1  0  0  0
 18 19  2  0  0  0
 19 20  1  0  0  0
 20 21  2  0  0  0
 21 11  1  0  0  0
 11 12  1  0  0  0
 12 13  2  0  0  0
 12  1  1  0  0  0
  1  2  2  0  0  0
  2  3  1  0  0  0
  3 27  1  0  0  0
 27 28  1  0  0  0
 28 29  2  0  0  0
 28 31  1  0  0  0
 31 32  1  0  0  0
 32 33  1  0  0  0
 33 34  2  0  0  0
 34 35  1  0  0  0
 35 36  2  0  0  0
 36 37  1  0  0  0
 37 38  2  0  0  0
  3  4  2  0  0  0
  4  5  1  0  0  0
  5  6  1  0  0  0
  6  7  2  0  0  0
  7  8  1  0  0  0
  8  9  2  0  0  0
 21 22  1  0  0  0
 22 23  2  0  0  0
 23 24  1  0  0  0
 24 16  1  0  0  0
 23 18  1  0  0  0
  9  1  1  0  0  0
 38 33  1  0  0  0
  8  4  1  0  0  0
 15 25  1  0  0  0
 15 26  1  0  0  0
 11 14  1  0  0  0
 27 30  1  0  0  0
  5 10  1  0  0  0
M  END
> <minimizedAffinity>
-9.23188

> <minimizedRMSD>
1.26536

$$$$
P21250


 26 30  0  0  0  0  0  0  0  0999 V2000
   -7.3313    6.4574  -12.9252 O   0  0  0  0  0  0  0  0  0  0  0  0
   -7.5969    5.3611  -13.2299 C   0  0  0  0  0  0  0  0  0  0  0  0
   -8.0958    4.1727  -12.3699 N   0  0  0  0  0  0  0  0  0  0  0  0
   -8.3240    3.3621  -12.8799 H   0  0  0  0  0  0  0  0  0  0  0  0
   -7.4793    4.9090  -14.6495 C   0  0  0  0  0  0  0  0  0  0  0  0
   -8.5823    4.4837  -15.3105 C   0  0  0  0  0  0  0  0  0  0  0  0
   -8.4873    4.2495  -16.7446 C   0  0  0  0  0  0  0  0  0  0  0  0
   -7.2419    4.4425  -17.4820 C   0  0  0  0  0  0  0  0  0  0  0  0
   -6.1438    4.8400  -16.8262 C   0  0  0  0  0  0  0  0  0  0  0  0
   -6.2336    5.0926  -15.3915 C   0  0  0  0  0  0  0  0  0  0  0  0
   -5.0446    5.5159  -14.9522 C   0  0  0  0  0  0  0  0  0  0  0  0
   -4.2511    5.4835  -16.1829 C   0  0  0  0  0  0  0  0  0  0  0  0
   -4.8681    5.1067  -17.2593 N   0  0  0  0  0  0  0  0  0  0  0  0
   -7.4587    4.2045  -18.8084 N   0  0  0  0  0  0  0  0  0  0  0  0
   -8.7293    3.9454  -18.8777 C   0  0  0  0  0  0  0  0  0  0  0  0
   -9.4603    3.9290  -17.6021 C   0  0  0  0  0  0  0  0  0  0  0  0
   -8.2743    4.0647  -10.9906 C   0  0  0  0  0  0  0  0  0  0  0  0
   -8.0486    5.1647  -10.1457 C   0  0  0  0  0  0  0  0  0  0  0  0
   -8.2366    5.0615   -8.7634 C   0  0  0  0  0  0  0  0  0  0  0  0
   -8.6743    3.8548   -8.2533 C   0  0  0  0  0  0  0  0  0  0  0  0
   -8.8983    2.7626   -9.0863 C   0  0  0  0  0  0  0  0  0  0  0  0
   -8.6935    2.8436  -10.4548 C   0  0  0  0  0  0  0  0  0  0  0  0
   -9.3484    1.6063   -8.2552 C   0  0  0  0  0  0  0  0  0  0  0  0
   -9.7386    2.1973   -6.9486 N   0  0  0  0  0  0  0  0  0  0  0  0
   -8.9813    3.4640   -6.8461 C   0  0  0  0  0  0  0  0  0  0  0  0
   -9.4886    1.5696   -6.1844 H   0  0  0  0  0  0  0  0  0  0  0  0
  1  2  2  0  0  0
  2  3  1  0  0  0
  3 17  1  0  0  0
 17 18  2  0  0  0
 18 19  1  0  0  0
 19 20  2  0  0  0
 20 21  1  0  0  0
 21 22  2  0  0  0
 21 23  1  0  0  0
 23 24  1  0  0  0
 24 25  1  0  0  0
  2  5  1  0  0  0
  5  6  2  0  0  0
  6  7  1  0  0  0
  7  8  1  0  0  0
  8  9  2  0  0  0
  9 10  1  0  0  0
 10 11  2  0  0  0
 11 12  1  0  0  0
 12 13  2  0  0  0
  8 14  1  0  0  0
 14 15  2  0  0  0
 15 16  1  0  0  0
 22 17  1  0  0  0
 10  5  1  0  0  0
 25 20  1  0  0  0
 16  7  2  0  0  0
 13  9  1  0  0  0
  3  4  1  0  0  0
 24 26  1  0  0  0
M  END
> <minimizedAffinity>
-9.04390

> <minimizedRMSD>
0.30220

$$$$
P21253


 38 40  0  0  0  0  0  0  0  0999 V2000
   -6.7005    4.8816  -13.3097 C   0  0  0  0  0  0  0  0  0  0  0  0
   -5.7647    3.9649  -12.7698 O   0  0  0  0  0  0  0  0  0  0  0  0
   -5.7734    4.0265  -11.8018 H   0  0  0  0  0  0  0  0  0  0  0  0
   -6.6588    4.7556  -14.8463 C   0  0  0  0  0  0  0  0  0  0  0  0
   -7.8246    4.4785  -15.6029 C   0  0  0  0  0  0  0  0  0  0  0  0
   -7.8126    4.5001  -17.0019 C   0  0  0  0  0  0  0  0  0  0  0  0
   -6.6393    4.9107  -17.6338 C   0  0  0  0  0  0  0  0  0  0  0  0
   -5.4564    5.1721  -16.9488 C   0  0  0  0  0  0  0  0  0  0  0  0
   -5.4564    5.0228  -15.5548 C   0  0  0  0  0  0  0  0  0  0  0  0
   -3.9398    5.1881  -14.7248 Cl  0  0  0  0  0  0  0  0  0  0  0  0
   -9.0378    4.1066  -17.8067 C   0  0  0  0  0  0  0  0  0  0  0  0
   -8.9732    4.4617  -19.2276 N   0  0  0  0  0  0  0  0  0  0  0  0
   -8.1218    3.5595  -19.9786 N   0  0  0  0  0  0  0  0  0  0  0  0
   -8.6048    5.4090  -19.3131 H   0  0  0  0  0  0  0  0  0  0  0  0
   -8.4813    2.6082  -19.9000 H   0  0  0  0  0  0  0  0  0  0  0  0
   -7.1735    3.5967  -19.6047 H   0  0  0  0  0  0  0  0  0  0  0  0
   -4.3001    5.7205  -17.7524 C   0  0  0  0  0  0  0  0  0  0  0  0
   -3.2206    4.7130  -18.1596 C   0  0  0  0  0  0  0  0  0  0  0  0
   -2.8856    4.6975  -19.5845 N   0  0  0  0  0  0  0  0  0  0  0  0
   -3.7051    4.4174  -20.1234 H   0  0  0  0  0  0  0  0  0  0  0  0
   -2.1279    4.0346  -19.7485 H   0  0  0  0  0  0  0  0  0  0  0  0
   -4.4663    7.4748  -11.3296 C   0  0  0  0  0  0  0  0  0  0  0  0
   -5.1891    6.4067  -11.9460 N   0  0  0  0  0  0  0  0  0  0  0  0
   -6.3760    6.4389  -12.9633 C   0  0  0  0  0  0  0  0  0  0  0  0
   -6.9880    7.3448  -13.3875 O   0  0  0  0  0  0  0  0  0  0  0  0
   -4.8913    5.5044  -11.6882 H   0  0  0  0  0  0  0  0  0  0  0  0
   -8.0134    4.4839  -12.7513 N   0  0  0  0  0  0  0  0  0  0  0  0
   -8.7631    4.2938  -13.3603 H   0  0  0  0  0  0  0  0  0  0  0  0
   -8.2026    4.3743  -11.3610 C   0  0  0  0  0  0  0  0  0  0  0  0
   -8.1136    5.4750  -10.4862 C   0  0  0  0  0  0  0  0  0  0  0  0
   -8.2541    5.3400   -9.0998 C   0  0  0  0  0  0  0  0  0  0  0  0
   -8.5571    4.0943   -8.5970 C   0  0  0  0  0  0  0  0  0  0  0  0
   -8.6911    3.0013   -9.4427 C   0  0  0  0  0  0  0  0  0  0  0  0
   -8.5073    3.1187  -10.8118 C   0  0  0  0  0  0  0  0  0  0  0  0
   -9.0470    1.8026   -8.6284 C   0  0  0  0  0  0  0  0  0  0  0  0
   -9.4917    2.3459   -7.3186 N   0  0  0  0  0  0  0  0  0  0  0  0
   -8.8350    3.6656   -7.1959 C   0  0  0  0  0  0  0  0  0  0  0  0
   -9.1997    1.7303   -6.5595 H   0  0  0  0  0  0  0  0  0  0  0  0
 22 23  1  0  0  0
 23 24  1  0  0  0
 24 25  2  0  0  0
 24  1  1  0  0  0
  1  2  1  0  0  0
  1 27  1  0  0  0
 27 29  1  0  0  0
 29 30  2  0  0  0
 30 31  1  0  0  0
 31 32  2  0  0  0
 32 33  1  0  0  0
 33 34  2  0  0  0
 33 35  1  0  0  0
 35 36  1  0  0  0
 36 37  1  0  0  0
  1  4  1  0  0  0
  4  5  2  0  0  0
  5  6  1  0  0  0
  6 11  1  0  0  0
 11 12  1  0  0  0
 12 13  1  0  0  0
  6  7  2  0  0  0
  7  8  1  0  0  0
  8 17  1  0  0  0
 17 18  1  0  0  0
 18 19  1  0  0  0
  8  9  2  0  0  0
  9 10  1  0  0  0
 34 29  1  0  0  0
  9  4  1  0  0  0
 37 32  1  0  0  0
 23 26  1  0  0  0
  2  3  1  0  0  0
 27 28  1  0  0  0
 36 38  1  0  0  0
 12 14  1  0  0  0
 13 15  1  0  0  0
 13 16  1  0  0  0
 19 20  1  0  0  0
 19 21  1  0  0  0
M  END
> <minimizedAffinity>
-8.23456

> <minimizedRMSD>
0.62117

$$$$
P21255


 26 29  0  0  0  0  0  0  0  0999 V2000
   -7.1600    5.1802  -13.1532 C   0  0  0  0  0  0  0  0  0  0  0  0
   -6.6640    6.1822  -12.8160 O   0  0  0  0  0  0  0  0  0  0  0  0
   -7.8316    4.0653  -12.3207 N   0  0  0  0  0  0  0  0  0  0  0  0
   -8.1092    3.2750  -12.8381 H   0  0  0  0  0  0  0  0  0  0  0  0
   -6.6481    4.4156  -19.7186 N   0  0  0  0  0  0  0  0  0  0  0  0
   -7.5535    4.2832  -18.6481 N   0  0  0  0  0  0  0  0  0  0  0  0
   -8.8695    3.9686  -18.7915 C   0  0  0  0  0  0  0  0  0  0  0  0
   -9.4345    3.9401  -17.5376 C   0  0  0  0  0  0  0  0  0  0  0  0
   -8.4080    4.2543  -16.5997 C   0  0  0  0  0  0  0  0  0  0  0  0
   -8.3733    4.4168  -15.2029 C   0  0  0  0  0  0  0  0  0  0  0  0
   -7.1826    4.8505  -14.6000 C   0  0  0  0  0  0  0  0  0  0  0  0
   -6.0312    5.0872  -15.3516 C   0  0  0  0  0  0  0  0  0  0  0  0
   -6.0368    4.8963  -16.7320 C   0  0  0  0  0  0  0  0  0  0  0  0
   -7.2415    4.4964  -17.3295 C   0  0  0  0  0  0  0  0  0  0  0  0
   -7.1245    4.2030  -20.5951 H   0  0  0  0  0  0  0  0  0  0  0  0
   -5.8707    3.7682  -19.5884 H   0  0  0  0  0  0  0  0  0  0  0  0
   -8.1081    3.9962  -10.9584 C   0  0  0  0  0  0  0  0  0  0  0  0
   -7.9941    5.1300  -10.1394 C   0  0  0  0  0  0  0  0  0  0  0  0
   -8.2536    5.0509   -8.7680 C   0  0  0  0  0  0  0  0  0  0  0  0
   -8.6271    3.8283   -8.2410 C   0  0  0  0  0  0  0  0  0  0  0  0
   -8.7440    2.7056   -9.0506 C   0  0  0  0  0  0  0  0  0  0  0  0
   -8.4927    2.7693  -10.4122 C   0  0  0  0  0  0  0  0  0  0  0  0
   -9.1123    1.5284   -8.2134 C   0  0  0  0  0  0  0  0  0  0  0  0
   -9.4381    2.0678   -6.8687 N   0  0  0  0  0  0  0  0  0  0  0  0
   -8.9370    3.4574   -6.8312 C   0  0  0  0  0  0  0  0  0  0  0  0
   -8.9811    1.5104   -6.1470 H   0  0  0  0  0  0  0  0  0  0  0  0
  5  6  1  0  0  0
  6  7  1  0  0  0
  7  8  2  0  0  0
  8  9  1  0  0  0
  9 10  2  0  0  0
 10 11  1  0  0  0
 11  1  1  0  0  0
  1  2  2  0  0  0
  1  3  1  0  0  0
  3 17  1  0  0  0
 17 18  2  0  0  0
 18 19  1  0  0  0
 19 20  2  0  0  0
 20 21  1  0  0  0
 21 22  2  0  0  0
 21 23  1  0  0  0
 23 24  1  0  0  0
 24 25  1  0  0  0
 11 12  2  0  0  0
 12 13  1  0  0  0
 13 14  2  0  0  0
 14  6  1  0  0  0
 14  9  1  0  0  0
 22 17  1  0  0  0
 25 20  1  0  0  0
  5 15  1  0  0  0
  5 16  1  0  0  0
  3  4  1  0  0  0
 24 26  1  0  0  0
M  END
> <minimizedAffinity>
-9.06992

> <minimizedRMSD>
0.15142

$$$$
P21265


 35 40  0  0  0  0  0  0  0  0999 V2000
   -8.0212    5.1937  -13.8380 C   0  0  0  0  0  0  0  0  0  0  0  0
   -4.3476    5.1826  -18.5902 C   0  0  0  0  0  0  0  0  0  0  0  0
   -5.5082    4.8030  -19.0272 N   0  0  0  0  0  0  0  0  0  0  0  0
   -6.2741    4.7527  -17.8975 C   0  0  0  0  0  0  0  0  0  0  0  0
   -7.5452    4.4140  -17.6977 C   0  0  0  0  0  0  0  0  0  0  0  0
   -8.0769    4.4665  -16.3536 C   0  0  0  0  0  0  0  0  0  0  0  0
   -7.3395    4.9262  -15.1802 C   0  0  0  0  0  0  0  0  0  0  0  0
   -6.0278    5.2174  -15.3949 C   0  0  0  0  0  0  0  0  0  0  0  0
   -5.4742    5.1351  -16.7417 C   0  0  0  0  0  0  0  0  0  0  0  0
   -4.2330    5.4142  -17.1439 C   0  0  0  0  0  0  0  0  0  0  0  0
   -9.3082    4.0191  -16.5487 C   0  0  0  0  0  0  0  0  0  0  0  0
   -9.5653    3.7334  -17.8702 N   0  0  0  0  0  0  0  0  0  0  0  0
   -8.5249    3.9737  -18.5486 N   0  0  0  0  0  0  0  0  0  0  0  0
   -9.3041    5.8227  -14.0598 N   0  0  0  0  0  0  0  0  0  0  0  0
   -9.6644    6.9251  -13.7354 C   0  0  0  0  0  0  0  0  0  0  0  0
   -8.8519    8.1295  -13.1241 N   0  0  0  0  0  0  0  0  0  0  0  0
   -7.9507    7.8972  -12.8031 H   0  0  0  0  0  0  0  0  0  0  0  0
   -9.2113    9.5119  -12.9583 C   0  0  0  0  0  0  0  0  0  0  0  0
  -10.7046    9.7141  -13.2869 C   0  0  0  0  0  0  0  0  0  0  0  0
  -10.9181   10.4284  -14.6132 C   0  0  0  0  0  0  0  0  0  0  0  0
  -10.9788   11.8785  -14.2014 C   0  0  0  0  0  0  0  0  0  0  0  0
  -11.6841   11.7983  -12.8660 C   0  0  0  0  0  0  0  0  0  0  0  0
  -11.3166   10.5434  -12.2764 O   0  0  0  0  0  0  0  0  0  0  0  0
   -8.1364    3.9603  -13.0786 N   0  0  0  0  0  0  0  0  0  0  0  0
   -8.1204    3.0909  -13.5401 H   0  0  0  0  0  0  0  0  0  0  0  0
   -8.2713    4.0174  -11.6748 C   0  0  0  0  0  0  0  0  0  0  0  0
   -8.0228    5.1722  -10.9000 C   0  0  0  0  0  0  0  0  0  0  0  0
   -8.1156    5.1745   -9.5008 C   0  0  0  0  0  0  0  0  0  0  0  0
   -8.4489    3.9970   -8.8698 C   0  0  0  0  0  0  0  0  0  0  0  0
   -8.6572    2.8370   -9.6030 C   0  0  0  0  0  0  0  0  0  0  0  0
   -8.5550    2.8272  -10.9878 C   0  0  0  0  0  0  0  0  0  0  0  0
   -8.9517    1.7187   -8.6594 C   0  0  0  0  0  0  0  0  0  0  0  0
   -9.2944    2.3790   -7.3707 N   0  0  0  0  0  0  0  0  0  0  0  0
   -8.6270    3.6985   -7.4196 C   0  0  0  0  0  0  0  0  0  0  0  0
   -8.9454    1.8310   -6.5844 H   0  0  0  0  0  0  0  0  0  0  0  0
  2  3  2  0  0  0
  3  4  1  0  0  0
  4  5  2  0  0  0
  5  6  1  0  0  0
  6  7  1  0  0  0
  7  1  1  0  0  0
  1 14  1  0  0  0
 14 15  2  0  0  0
 15 16  1  0  0  0
 16 18  1  0  0  0
 19 18  1  0  0  0
 19 20  1  0  0  0
 20 21  1  0  0  0
 21 22  1  0  0  0
 22 23  1  0  0  0
  1 24  1  0  0  0
 24 26  1  0  0  0
 26 27  2  0  0  0
 27 28  1  0  0  0
 28 29  2  0  0  0
 29 30  1  0  0  0
 30 31  2  0  0  0
 30 32  1  0  0  0
 32 33  1  0  0  0
 33 34  1  0  0  0
  7  8  2  0  0  0
  8  9  1  0  0  0
  9 10  2  0  0  0
  6 11  2  0  0  0
 11 12  1  0  0  0
 12 13  2  0  0  0
 10  2  1  0  0  0
  9  4  1  0  0  0
 13  5  1  0  0  0
 23 19  1  0  0  0
 31 26  1  0  0  0
 34 29  1  0  0  0
 16 17  1  0  0  0
 24 25  1  0  0  0
 33 35  1  0  0  0
M  END
> <minimizedAffinity>
-9.04288

> <minimizedRMSD>
2.40675

$$$$
P21277


 35 38  0  0  0  0  0  0  0  0999 V2000
   -7.6844    5.2793  -13.2913 C   0  0  0  0  0  0  0  0  0  0  0  0
   -6.4237    5.5985  -12.7240 O   0  0  0  0  0  0  0  0  0  0  0  0
   -5.8454    4.8207  -12.7627 H   0  0  0  0  0  0  0  0  0  0  0  0
   -6.2045    4.8881  -16.8749 C   0  0  0  0  0  0  0  0  0  0  0  0
   -6.3172    5.0966  -15.4784 C   0  0  0  0  0  0  0  0  0  0  0  0
   -7.5059    4.8652  -14.7639 C   0  0  0  0  0  0  0  0  0  0  0  0
   -8.5983    4.3237  -15.4694 C   0  0  0  0  0  0  0  0  0  0  0  0
   -8.5487    4.1520  -16.8625 C   0  0  0  0  0  0  0  0  0  0  0  0
   -9.5177    3.7771  -17.8308 C   0  0  0  0  0  0  0  0  0  0  0  0
   -8.9250    3.8814  -19.0626 C   0  0  0  0  0  0  0  0  0  0  0  0
   -7.6291    4.2807  -18.8803 N   0  0  0  0  0  0  0  0  0  0  0  0
   -7.3681    4.4581  -17.5368 C   0  0  0  0  0  0  0  0  0  0  0  0
   -6.9764    4.4214  -19.6039 H   0  0  0  0  0  0  0  0  0  0  0  0
   -4.9049    6.5944  -18.1722 C   0  0  0  0  0  0  0  0  0  0  0  0
   -4.9125    5.1909  -17.5861 C   0  0  0  0  0  0  0  0  0  0  0  0
   -8.6739    6.5609  -13.2410 C   0  0  0  0  0  0  0  0  0  0  0  0
   -9.7789    6.5312  -13.6246 O   0  0  0  0  0  0  0  0  0  0  0  0
   -7.8583    7.7251  -12.6057 N   0  0  0  0  0  0  0  0  0  0  0  0
   -6.9110    7.5193  -12.4341 H   0  0  0  0  0  0  0  0  0  0  0  0
   -8.2670    9.0613  -12.2262 C   0  0  0  0  0  0  0  0  0  0  0  0
   -8.9661    9.8642  -13.3196 C   0  0  0  0  0  0  0  0  0  0  0  0
   -9.6751   10.8732  -12.7456 F   0  0  0  0  0  0  0  0  0  0  0  0
   -8.0302   10.4723  -14.1009 F   0  0  0  0  0  0  0  0  0  0  0  0
   -8.2006    4.1536  -12.5102 N   0  0  0  0  0  0  0  0  0  0  0  0
   -8.4462    3.3414  -13.0095 H   0  0  0  0  0  0  0  0  0  0  0  0
   -8.3784    4.1204  -11.1237 C   0  0  0  0  0  0  0  0  0  0  0  0
   -8.1283    5.2057  -10.2604 C   0  0  0  0  0  0  0  0  0  0  0  0
   -8.2325    5.0992   -8.8667 C   0  0  0  0  0  0  0  0  0  0  0  0
   -8.5736    3.8788   -8.3274 C   0  0  0  0  0  0  0  0  0  0  0  0
   -8.7879    2.7834   -9.1469 C   0  0  0  0  0  0  0  0  0  0  0  0
   -8.6844    2.8843  -10.5294 C   0  0  0  0  0  0  0  0  0  0  0  0
   -9.0803    1.5893   -8.3031 C   0  0  0  0  0  0  0  0  0  0  0  0
   -9.2710    2.1009   -6.9211 N   0  0  0  0  0  0  0  0  0  0  0  0
   -8.7554    3.4843   -6.9027 C   0  0  0  0  0  0  0  0  0  0  0  0
   -8.7525    1.5242   -6.2586 H   0  0  0  0  0  0  0  0  0  0  0  0
 14 15  1  0  0  0
 15  4  1  0  0  0
  4  5  2  0  0  0
  5  6  1  0  0  0
  6  1  1  0  0  0
  1  2  1  0  0  0
  1 24  1  0  0  0
 24 26  1  0  0  0
 26 27  2  0  0  0
 27 28  1  0  0  0
 28 29  2  0  0  0
 29 30  1  0  0  0
 30 31  2  0  0  0
 30 32  1  0  0  0
 32 33  1  0  0  0
 33 34  1  0  0  0
  1 16  1  0  0  0
 16 17  2  0  0  0
 16 18  1  0  0  0
 18 20  1  0  0  0
 20 21  1  0  0  0
 21 22  1  0  0  0
 21 23  1  0  0  0
  6  7  2  0  0  0
  7  8  1  0  0  0
  8  9  1  0  0  0
  9 10  2  0  0  0
 10 11  1  0  0  0
 11 12  1  0  0  0
 12  4  1  0  0  0
 31 26  1  0  0  0
 12  8  2  0  0  0
 34 29  1  0  0  0
  2  3  1  0  0  0
 24 25  1  0  0  0
 33 35  1  0  0  0
 18 19  1  0  0  0
 11 13  1  0  0  0
M  END
> <minimizedAffinity>
-8.70353

> <minimizedRMSD>
0.39593

$$$$
P21278


 27 32  0  0  0  0  0  0  0  0999 V2000
   -3.8430    5.8259  -18.9270 O   0  0  0  0  0  0  0  0  0  0  0  0
   -4.8732    5.3436  -18.4741 C   0  0  0  0  0  0  0  0  0  0  0  0
   -4.9957    5.3653  -16.9878 C   0  0  0  0  0  0  0  0  0  0  0  0
   -6.1332    4.9991  -16.3892 C   0  0  0  0  0  0  0  0  0  0  0  0
   -6.4268    4.9675  -14.9246 C   0  0  0  0  0  0  0  0  0  0  0  0
   -7.8967    4.8332  -14.5327 C   0  0  0  0  0  0  0  0  0  0  0  0
   -8.9196    4.3293  -15.5585 C   0  0  0  0  0  0  0  0  0  0  0  0
   -8.4124    4.2194  -16.9465 C   0  0  0  0  0  0  0  0  0  0  0  0
   -7.1711    4.5703  -17.2358 C   0  0  0  0  0  0  0  0  0  0  0  0
   -6.9871    4.4653  -18.6718 C   0  0  0  0  0  0  0  0  0  0  0  0
   -5.8924    4.8094  -19.2526 N   0  0  0  0  0  0  0  0  0  0  0  0
   -8.2590    3.9313  -19.2069 C   0  0  0  0  0  0  0  0  0  0  0  0
   -9.0831    3.8176  -18.1507 C   0  0  0  0  0  0  0  0  0  0  0  0
   -8.3933    5.9183  -13.4970 N   0  0  0  0  0  0  0  0  0  0  0  0
   -8.2431    4.7311  -13.1590 C   0  0  0  0  0  0  0  0  0  0  0  0
   -8.2627    3.6889  -12.3423 N   0  0  0  0  0  0  0  0  0  0  0  0
   -8.2142    2.7961  -12.7543 H   0  0  0  0  0  0  0  0  0  0  0  0
   -8.3462    3.7422  -10.9451 C   0  0  0  0  0  0  0  0  0  0  0  0
   -8.1209    4.9240  -10.2129 C   0  0  0  0  0  0  0  0  0  0  0  0
   -8.2082    4.9413   -8.8154 C   0  0  0  0  0  0  0  0  0  0  0  0
   -8.5808    3.7787   -8.1663 C   0  0  0  0  0  0  0  0  0  0  0  0
   -8.8632    2.6254   -8.8815 C   0  0  0  0  0  0  0  0  0  0  0  0
   -8.7416    2.5875  -10.2586 C   0  0  0  0  0  0  0  0  0  0  0  0
   -9.2620    1.5368   -7.9464 C   0  0  0  0  0  0  0  0  0  0  0  0
   -9.3861    2.1740   -6.6120 N   0  0  0  0  0  0  0  0  0  0  0  0
   -8.7498    3.5045   -6.7107 C   0  0  0  0  0  0  0  0  0  0  0  0
   -8.9108    1.6093   -5.9080 H   0  0  0  0  0  0  0  0  0  0  0  0
  1  2  2  0  0  0
  2  3  1  0  0  0
  3  4  2  0  0  0
  4  5  1  0  0  0
  6  5  1  0  0  0
  6  7  1  0  0  0
  7  8  1  0  0  0
  8  9  2  0  0  0
  9 10  1  0  0  0
 10 11  2  0  0  0
 10 12  1  0  0  0
 12 13  2  0  0  0
  6 14  1  0  0  0
 14 15  2  0  0  0
 15 16  1  0  0  0
 16 18  1  0  0  0
 18 19  2  0  0  0
 19 20  1  0  0  0
 20 21  2  0  0  0
 21 22  1  0  0  0
 22 23  2  0  0  0
 22 24  1  0  0  0
 24 25  1  0  0  0
 25 26  1  0  0  0
 11  2  1  0  0  0
 23 18  1  0  0  0
  9  4  1  0  0  0
 26 21  1  0  0  0
 15  6  1  0  0  0
 13  8  1  0  0  0
 16 17  1  0  0  0
 25 27  1  0  0  0
M  END
> <minimizedAffinity>
-10.38192

> <minimizedRMSD>
0.28059

$$$$
P21279


 36 40  0  0  0  0  0  0  0  0999 V2000
   -5.4403    6.7071  -13.9889 C   0  0  0  0  0  0  0  0  0  0  0  0
   -5.4567    5.2900  -14.5676 C   0  0  0  0  0  0  0  0  0  0  0  0
   -4.4216    5.3213  -15.7599 C   0  0  0  0  0  0  0  0  0  0  0  0
   -3.2193    5.5447  -15.7124 O   0  0  0  0  0  0  0  0  0  0  0  0
   -5.1094    5.0467  -16.9301 N   0  0  0  0  0  0  0  0  0  0  0  0
   -6.4359    4.7627  -16.6716 C   0  0  0  0  0  0  0  0  0  0  0  0
   -6.7280    4.8857  -15.3057 C   0  0  0  0  0  0  0  0  0  0  0  0
   -8.0371    4.6746  -14.8810 C   0  0  0  0  0  0  0  0  0  0  0  0
   -9.0276    4.2756  -15.8040 C   0  0  0  0  0  0  0  0  0  0  0  0
   -8.7167    4.1556  -17.1754 C   0  0  0  0  0  0  0  0  0  0  0  0
   -9.4842    3.8850  -18.3387 C   0  0  0  0  0  0  0  0  0  0  0  0
   -8.6498    4.0222  -19.4202 C   0  0  0  0  0  0  0  0  0  0  0  0
   -7.3972    4.3400  -18.9690 N   0  0  0  0  0  0  0  0  0  0  0  0
   -7.4124    4.4294  -17.5980 C   0  0  0  0  0  0  0  0  0  0  0  0
   -4.7059    5.0532  -17.8281 H   0  0  0  0  0  0  0  0  0  0  0  0
   -6.6072    4.4826  -19.5389 H   0  0  0  0  0  0  0  0  0  0  0  0
   -8.5058    5.0214  -13.5177 C   0  0  0  0  0  0  0  0  0  0  0  0
   -9.1808    5.9655  -13.3939 O   0  0  0  0  0  0  0  0  0  0  0  0
   -8.0465    3.9740  -12.4769 N   0  0  0  0  0  0  0  0  0  0  0  0
   -7.5360    3.2192  -12.8494 H   0  0  0  0  0  0  0  0  0  0  0  0
   -8.2380    3.9248  -11.0962 C   0  0  0  0  0  0  0  0  0  0  0  0
   -8.0525    5.0642  -10.2978 C   0  0  0  0  0  0  0  0  0  0  0  0
   -8.2359    5.0074   -8.9119 C   0  0  0  0  0  0  0  0  0  0  0  0
   -8.6074    3.8012   -8.3471 C   0  0  0  0  0  0  0  0  0  0  0  0
   -8.7945    2.6718   -9.1328 C   0  0  0  0  0  0  0  0  0  0  0  0
   -8.6156    2.7135  -10.5085 C   0  0  0  0  0  0  0  0  0  0  0  0
   -9.1630    1.5182   -8.2615 C   0  0  0  0  0  0  0  0  0  0  0  0
   -9.3778    2.0787   -6.9028 N   0  0  0  0  0  0  0  0  0  0  0  0
   -8.8560    3.4608   -6.9174 C   0  0  0  0  0  0  0  0  0  0  0  0
   -8.8756    1.5222   -6.2111 H   0  0  0  0  0  0  0  0  0  0  0  0
   -4.9203    4.3042  -13.6723 O   0  0  0  0  0  0  0  0  0  0  0  0
   -4.6762    4.7144  -12.3320 C   0  0  0  0  0  0  0  0  0  0  0  0
   -4.5348    3.4761  -11.4568 C   0  0  0  0  0  0  0  0  0  0  0  0
   -4.6404    3.8250   -9.9801 C   0  0  0  0  0  0  0  0  0  0  0  0
   -5.2696    2.7563   -9.2812 O   0  0  0  0  0  0  0  0  0  0  0  0
   -6.1584    2.6127   -9.6424 H   0  0  0  0  0  0  0  0  0  0  0  0
  2  1  1  0  0  0
  2 31  1  0  0  0
 31 32  1  0  0  0
 32 33  1  0  0  0
 33 34  1  0  0  0
 34 35  1  0  0  0
  2  3  1  0  0  0
  3  4  2  0  0  0
  3  5  1  0  0  0
  5  6  1  0  0  0
  6  7  2  0  0  0
  7  8  1  0  0  0
  8 17  1  0  0  0
 17 18  2  0  0  0
 17 19  1  0  0  0
 19 21  1  0  0  0
 21 22  2  0  0  0
 22 23  1  0  0  0
 23 24  2  0  0  0
 24 25  1  0  0  0
 25 26  2  0  0  0
 25 27  1  0  0  0
 27 28  1  0  0  0
 28 29  1  0  0  0
  8  9  2  0  0  0
  9 10  1  0  0  0
 10 11  1  0  0  0
 11 12  2  0  0  0
 12 13  1  0  0  0
 13 14  1  0  0  0
  7  2  1  0  0  0
 26 21  1  0  0  0
 14 10  2  0  0  0
 14  6  1  0  0  0
 29 24  1  0  0  0
 35 36  1  0  0  0
  5 15  1  0  0  0
 19 20  1  0  0  0
 28 30  1  0  0  0
 13 16  1  0  0  0
M  END
> <minimizedAffinity>
-8.94581

> <minimizedRMSD>
1.02821

$$$$
P21282


 29 33  0  0  0  0  0  0  0  0999 V2000
   -8.0843    4.0945  -12.1911 N   0  0  0  0  0  0  0  0  0  0  0  0
   -7.2378    5.0861  -13.0170 C   0  0  0  0  0  0  0  0  0  0  0  0
   -6.6340    6.0277  -12.6820 O   0  0  0  0  0  0  0  0  0  0  0  0
   -8.5623    3.4181  -12.7232 H   0  0  0  0  0  0  0  0  0  0  0  0
   -7.2662    4.7523  -14.4641 C   0  0  0  0  0  0  0  0  0  0  0  0
   -6.1107    5.0264  -15.2104 C   0  0  0  0  0  0  0  0  0  0  0  0
   -6.1359    4.9174  -16.5962 C   0  0  0  0  0  0  0  0  0  0  0  0
   -7.3371    4.5258  -17.1620 C   0  0  0  0  0  0  0  0  0  0  0  0
   -8.4982    4.2229  -16.4774 C   0  0  0  0  0  0  0  0  0  0  0  0
   -9.4790    3.9431  -17.4798 C   0  0  0  0  0  0  0  0  0  0  0  0
   -8.8787    4.0891  -18.7222 C   0  0  0  0  0  0  0  0  0  0  0  0
   -7.5917    4.4403  -18.4899 N   0  0  0  0  0  0  0  0  0  0  0  0
   -6.6614    4.7955  -19.4025 N   0  0  0  0  0  0  0  0  0  0  0  0
   -5.4938    5.4070  -18.9879 C   0  0  0  0  0  0  0  0  0  0  0  0
   -4.8189    6.0595  -19.7890 O   0  0  0  0  0  0  0  0  0  0  0  0
   -5.0153    5.2259  -17.5313 C   0  0  0  0  0  0  0  0  0  0  0  0
   -8.4655    4.3256  -15.0751 C   0  0  0  0  0  0  0  0  0  0  0  0
   -6.8146    4.6194  -20.3590 H   0  0  0  0  0  0  0  0  0  0  0  0
   -8.1068    6.2230   -7.7084 C   0  0  0  0  0  0  0  0  0  0  0  0
   -8.3140    5.0353   -8.5944 C   0  0  0  0  0  0  0  0  0  0  0  0
   -8.0953    5.1156   -9.9796 C   0  0  0  0  0  0  0  0  0  0  0  0
   -8.2820    4.0007  -10.8155 C   0  0  0  0  0  0  0  0  0  0  0  0
   -8.6829    2.7779  -10.2780 C   0  0  0  0  0  0  0  0  0  0  0  0
   -8.9092    2.7072   -8.9148 C   0  0  0  0  0  0  0  0  0  0  0  0
   -8.7388    3.8156   -8.0867 C   0  0  0  0  0  0  0  0  0  0  0  0
   -9.0771    3.4169   -6.6859 C   0  0  0  0  0  0  0  0  0  0  0  0
   -9.7909    2.1248   -6.8046 N   0  0  0  0  0  0  0  0  0  0  0  0
   -9.3244    1.5384   -8.0861 C   0  0  0  0  0  0  0  0  0  0  0  0
  -10.7997    2.2741   -6.8259 H   0  0  0  0  0  0  0  0  0  0  0  0
 19 20  1  0  0  0
 20 21  2  0  0  0
 21 22  1  0  0  0
 22  1  1  0  0  0
  1  2  1  0  0  0
  2  3  2  0  0  0
  2  5  1  0  0  0
  5  6  2  0  0  0
  6  7  1  0  0  0
  7  8  2  0  0  0
  8  9  1  0  0  0
  9 10  1  0  0  0
 10 11  2  0  0  0
 11 12  1  0  0  0
 12 13  1  0  0  0
 13 14  1  0  0  0
 14 15  2  0  0  0
 14 16  1  0  0  0
  9 17  2  0  0  0
 22 23  2  0  0  0
 23 24  1  0  0  0
 24 25  2  0  0  0
 25 26  1  0  0  0
 26 27  1  0  0  0
 27 28  1  0  0  0
 25 20  1  0  0  0
 17  5  1  0  0  0
 28 24  1  0  0  0
 16  7  1  0  0  0
 12  8  1  0  0  0
  1  4  1  0  0  0
 13 18  1  0  0  0
 27 29  1  0  0  0
M  END
> <minimizedAffinity>
-10.28311

> <minimizedRMSD>
0.36341

$$$$
P21292


 26 29  0  0  0  0  0  0  0  0999 V2000
   -6.5930    4.8274  -12.2932 C   0  0  0  0  0  0  0  0  0  0  0  0
   -5.7727    5.5129  -11.8213 O   0  0  0  0  0  0  0  0  0  0  0  0
   -7.7042    3.9783  -11.6192 N   0  0  0  0  0  0  0  0  0  0  0  0
   -8.2288    3.4203  -12.2378 H   0  0  0  0  0  0  0  0  0  0  0  0
   -7.3838    4.6166  -17.8583 C   0  0  0  0  0  0  0  0  0  0  0  0
   -7.3521    4.6407  -16.5222 C   0  0  0  0  0  0  0  0  0  0  0  0
   -8.4324    4.4281  -15.5821 C   0  0  0  0  0  0  0  0  0  0  0  0
   -8.1539    4.4571  -14.2710 C   0  0  0  0  0  0  0  0  0  0  0  0
   -6.7979    4.7147  -13.7708 C   0  0  0  0  0  0  0  0  0  0  0  0
   -5.7699    4.9868  -14.6049 C   0  0  0  0  0  0  0  0  0  0  0  0
   -6.0259    4.9616  -16.0304 C   0  0  0  0  0  0  0  0  0  0  0  0
   -5.1874    5.1977  -17.0384 C   0  0  0  0  0  0  0  0  0  0  0  0
   -6.0000    5.0006  -18.2548 C   0  0  0  0  0  0  0  0  0  0  0  0
   -5.5519    5.1393  -19.3787 O   0  0  0  0  0  0  0  0  0  0  0  0
   -9.4112    3.1593  -18.2598 C   0  0  0  0  0  0  0  0  0  0  0  0
   -8.4824    4.2472  -18.7867 C   0  0  0  0  0  0  0  0  0  0  0  0
   -8.0780    3.8780  -10.2869 C   0  0  0  0  0  0  0  0  0  0  0  0
   -7.9585    4.9744   -9.4222 C   0  0  0  0  0  0  0  0  0  0  0  0
   -8.3716    4.8773   -8.0925 C   0  0  0  0  0  0  0  0  0  0  0  0
   -8.8930    3.6738   -7.6549 C   0  0  0  0  0  0  0  0  0  0  0  0
   -9.0154    2.5887   -8.5129 C   0  0  0  0  0  0  0  0  0  0  0  0
   -8.6229    2.6721   -9.8375 C   0  0  0  0  0  0  0  0  0  0  0  0
   -9.5504    1.4189   -7.7613 C   0  0  0  0  0  0  0  0  0  0  0  0
   -9.9329    1.9294   -6.4201 N   0  0  0  0  0  0  0  0  0  0  0  0
   -9.3631    3.2871   -6.2953 C   0  0  0  0  0  0  0  0  0  0  0  0
   -9.5539    1.3224   -5.6933 H   0  0  0  0  0  0  0  0  0  0  0  0
 15 16  1  0  0  0
 16  5  1  0  0  0
  5  6  2  0  0  0
  6  7  1  0  0  0
  7  8  2  0  0  0
  8  9  1  0  0  0
  9  1  1  0  0  0
  1  2  2  0  0  0
  1  3  1  0  0  0
  3 17  1  0  0  0
 17 18  2  0  0  0
 18 19  1  0  0  0
 19 20  2  0  0  0
 20 21  1  0  0  0
 21 22  2  0  0  0
 21 23  1  0  0  0
 23 24  1  0  0  0
 24 25  1  0  0  0
  9 10  2  0  0  0
 10 11  1  0  0  0
 11 12  2  0  0  0
 12 13  1  0  0  0
 13 14  2  0  0  0
 13  5  1  0  0  0
 11  6  1  0  0  0
 22 17  1  0  0  0
 25 20  1  0  0  0
  3  4  1  0  0  0
 24 26  1  0  0  0
M  END
> <minimizedAffinity>
-9.38738

> <minimizedRMSD>
0.61503

$$$$
P21295


 25 28  0  0  0  0  0  0  0  0999 V2000
   -6.2326    5.5853  -13.1652 O   0  0  0  0  0  0  0  0  0  0  0  0
   -7.0593    4.8238  -13.4855 C   0  0  0  0  0  0  0  0  0  0  0  0
   -8.0296    3.9775  -12.6278 N   0  0  0  0  0  0  0  0  0  0  0  0
   -8.5875    3.3467  -13.1379 H   0  0  0  0  0  0  0  0  0  0  0  0
   -7.2339    4.5818  -14.9453 C   0  0  0  0  0  0  0  0  0  0  0  0
   -6.1621    4.9293  -15.7983 C   0  0  0  0  0  0  0  0  0  0  0  0
   -6.3211    4.9289  -17.1867 C   0  0  0  0  0  0  0  0  0  0  0  0
   -7.5645    4.5922  -17.6929 C   0  0  0  0  0  0  0  0  0  0  0  0
   -8.6119    4.1941  -16.8505 C   0  0  0  0  0  0  0  0  0  0  0  0
   -8.4705    4.1850  -15.4708 C   0  0  0  0  0  0  0  0  0  0  0  0
   -9.7592    3.8907  -17.6816 C   0  0  0  0  0  0  0  0  0  0  0  0
   -9.3790    4.0892  -18.9534 C   0  0  0  0  0  0  0  0  0  0  0  0
   -7.9902    4.5989  -19.1055 N   0  0  0  0  0  0  0  0  0  0  0  0
   -7.2417    3.7392  -19.8130 O   0  0  0  0  0  0  0  0  0  0  0  0
   -8.2591    3.6872  -19.3618 H   0  0  0  0  0  0  0  0  0  0  0  0
   -8.2432    3.9626  -11.2466 C   0  0  0  0  0  0  0  0  0  0  0  0
   -8.0884    5.1299  -10.4809 C   0  0  0  0  0  0  0  0  0  0  0  0
   -8.2616    5.1105   -9.0920 C   0  0  0  0  0  0  0  0  0  0  0  0
   -8.5955    3.9128   -8.4877 C   0  0  0  0  0  0  0  0  0  0  0  0
   -8.7629    2.7576   -9.2392 C   0  0  0  0  0  0  0  0  0  0  0  0
   -8.5916    2.7624  -10.6183 C   0  0  0  0  0  0  0  0  0  0  0  0
   -9.0984    1.6220   -8.3313 C   0  0  0  0  0  0  0  0  0  0  0  0
   -9.2698    2.2058   -6.9751 N   0  0  0  0  0  0  0  0  0  0  0  0
   -8.8118    3.6086   -7.0453 C   0  0  0  0  0  0  0  0  0  0  0  0
   -8.7095    1.6882   -6.2979 H   0  0  0  0  0  0  0  0  0  0  0  0
  1  2  2  0  0  0
  2  3  1  0  0  0
  3 16  1  0  0  0
 16 17  2  0  0  0
 17 18  1  0  0  0
 18 19  2  0  0  0
 19 20  1  0  0  0
 20 21  2  0  0  0
 20 22  1  0  0  0
 22 23  1  0  0  0
 23 24  1  0  0  0
  2  5  1  0  0  0
  5  6  2  0  0  0
  6  7  1  0  0  0
  7  8  2  0  0  0
  8  9  1  0  0  0
  9 10  2  0  0  0
  9 11  1  0  0  0
 11 12  2  0  0  0
 12 13  1  0  0  0
 13 14  1  0  0  0
 21 16  1  0  0  0
 10  5  1  0  0  0
 24 19  1  0  0  0
 13  8  1  0  0  0
  3  4  1  0  0  0
 23 25  1  0  0  0
 13 15  1  0  0  0
M  CHG 1  13   1
M  CHG 1  14  -1
M  END
> <minimizedAffinity>
-9.80698

> <minimizedRMSD>
0.47638

$$$$
P21296


 35 38  0  0  0  0  0  0  0  0999 V2000
   -6.9414    5.1230  -13.3652 C   0  0  0  0  0  0  0  0  0  0  0  0
   -6.7569    6.5277  -13.2665 O   0  0  0  0  0  0  0  0  0  0  0  0
   -7.5290    6.9821  -13.6384 H   0  0  0  0  0  0  0  0  0  0  0  0
   -6.3027    5.0725  -17.2030 C   0  0  0  0  0  0  0  0  0  0  0  0
   -6.1265    5.2012  -15.8072 C   0  0  0  0  0  0  0  0  0  0  0  0
   -7.1303    4.8871  -14.8675 C   0  0  0  0  0  0  0  0  0  0  0  0
   -8.3823    4.4615  -15.3509 C   0  0  0  0  0  0  0  0  0  0  0  0
   -8.6116    4.3392  -16.7289 C   0  0  0  0  0  0  0  0  0  0  0  0
   -9.7589    4.0232  -17.5026 C   0  0  0  0  0  0  0  0  0  0  0  0
   -9.4024    4.1102  -18.8211 C   0  0  0  0  0  0  0  0  0  0  0  0
   -8.0878    4.4745  -18.8785 N   0  0  0  0  0  0  0  0  0  0  0  0
   -7.5773    4.6419  -17.6108 C   0  0  0  0  0  0  0  0  0  0  0  0
   -7.5763    4.5999  -19.7103 H   0  0  0  0  0  0  0  0  0  0  0  0
   -3.8058    5.4650  -17.7219 C   0  0  0  0  0  0  0  0  0  0  0  0
   -5.2439    5.4347  -18.2146 C   0  0  0  0  0  0  0  0  0  0  0  0
   -5.7122    4.2684  -12.7739 C   0  0  0  0  0  0  0  0  0  0  0  0
   -5.7190    3.1060  -12.6424 O   0  0  0  0  0  0  0  0  0  0  0  0
   -4.5866    5.3091  -12.4931 N   0  0  0  0  0  0  0  0  0  0  0  0
   -4.8024    6.2320  -12.7595 H   0  0  0  0  0  0  0  0  0  0  0  0
   -3.2782    5.1392  -11.9054 C   0  0  0  0  0  0  0  0  0  0  0  0
   -2.3496    4.2390  -12.7158 C   0  0  0  0  0  0  0  0  0  0  0  0
   -1.0810    4.7228  -12.6417 F   0  0  0  0  0  0  0  0  0  0  0  0
   -2.6968    4.2884  -14.0306 F   0  0  0  0  0  0  0  0  0  0  0  0
   -8.1685    4.8059  -12.6264 N   0  0  0  0  0  0  0  0  0  0  0  0
   -9.0016    4.6841  -13.1367 H   0  0  0  0  0  0  0  0  0  0  0  0
   -8.2177    4.6669  -11.2288 C   0  0  0  0  0  0  0  0  0  0  0  0
   -8.0561    5.7339  -10.3191 C   0  0  0  0  0  0  0  0  0  0  0  0
   -8.2109    5.5671   -8.9356 C   0  0  0  0  0  0  0  0  0  0  0  0
   -8.5565    4.3204   -8.4630 C   0  0  0  0  0  0  0  0  0  0  0  0
   -8.7404    3.2587   -9.3370 C   0  0  0  0  0  0  0  0  0  0  0  0
   -8.5913    3.4171  -10.7068 C   0  0  0  0  0  0  0  0  0  0  0  0
   -9.0596    2.0333   -8.5472 C   0  0  0  0  0  0  0  0  0  0  0  0
   -9.4403    2.5327   -7.1985 N   0  0  0  0  0  0  0  0  0  0  0  0
   -8.7727    3.8460   -7.0658 C   0  0  0  0  0  0  0  0  0  0  0  0
   -9.1146    1.8916   -6.4751 H   0  0  0  0  0  0  0  0  0  0  0  0
 14 15  1  0  0  0
 15  4  1  0  0  0
  4  5  2  0  0  0
  5  6  1  0  0  0
  6  1  1  0  0  0
  1  2  1  0  0  0
  1 24  1  0  0  0
 24 26  1  0  0  0
 26 27  2  0  0  0
 27 28  1  0  0  0
 28 29  2  0  0  0
 29 30  1  0  0  0
 30 31  2  0  0  0
 30 32  1  0  0  0
 32 33  1  0  0  0
 33 34  1  0  0  0
  1 16  1  0  0  0
 16 17  2  0  0  0
 16 18  1  0  0  0
 18 20  1  0  0  0
 20 21  1  0  0  0
 21 22  1  0  0  0
 21 23  1  0  0  0
  6  7  2  0  0  0
  7  8  1  0  0  0
  8  9  1  0  0  0
  9 10  2  0  0  0
 10 11  1  0  0  0
 11 12  1  0  0  0
 12  4  1  0  0  0
 31 26  1  0  0  0
 12  8  2  0  0  0
 34 29  1  0  0  0
  2  3  1  0  0  0
 24 25  1  0  0  0
 33 35  1  0  0  0
 18 19  1  0  0  0
 11 13  1  0  0  0
M  END
> <minimizedAffinity>
-8.00615

> <minimizedRMSD>
1.09327

$$$$
P21302


 32 37  0  0  0  0  0  0  0  0999 V2000
   -7.1622    4.8235  -14.8788 C   0  0  0  0  0  0  0  0  0  0  0  0
   -8.4642    4.4493  -15.4467 C   0  0  0  0  0  0  0  0  0  0  0  0
   -8.6058    4.2566  -16.7615 C   0  0  0  0  0  0  0  0  0  0  0  0
   -9.6988    3.9659  -17.6313 C   0  0  0  0  0  0  0  0  0  0  0  0
   -9.1627    3.9547  -18.8637 C   0  0  0  0  0  0  0  0  0  0  0  0
   -7.7978    4.1804  -18.9234 N   0  0  0  0  0  0  0  0  0  0  0  0
   -7.4647    4.4057  -17.6902 C   0  0  0  0  0  0  0  0  0  0  0  0
   -6.1859    4.7902  -17.1055 C   0  0  0  0  0  0  0  0  0  0  0  0
   -5.1200    5.0008  -17.8804 C   0  0  0  0  0  0  0  0  0  0  0  0
   -3.8864    5.3778  -17.3750 N   0  0  0  0  0  0  0  0  0  0  0  0
   -3.6717    5.4796  -16.0105 N   0  0  0  0  0  0  0  0  0  0  0  0
   -4.7019    5.3236  -15.2258 C   0  0  0  0  0  0  0  0  0  0  0  0
   -6.0810    4.9771  -15.6753 C   0  0  0  0  0  0  0  0  0  0  0  0
   -2.6874    5.2633  -18.1788 C   0  0  0  0  0  0  0  0  0  0  0  0
   -2.6300    6.2177  -19.3945 C   0  0  0  0  0  0  0  0  0  0  0  0
   -1.1761    6.4031  -19.1262 N   0  0  0  0  0  0  0  0  0  0  0  0
   -1.4772    6.0920  -17.6953 C   0  0  0  0  0  0  0  0  0  0  0  0
   -0.8283    7.3473  -19.2936 H   0  0  0  0  0  0  0  0  0  0  0  0
   -6.6322    6.2437  -13.1113 O   0  0  0  0  0  0  0  0  0  0  0  0
   -7.0880    5.2170  -13.4323 C   0  0  0  0  0  0  0  0  0  0  0  0
   -7.7331    4.0938  -12.5805 N   0  0  0  0  0  0  0  0  0  0  0  0
   -7.9756    3.2828  -13.0833 H   0  0  0  0  0  0  0  0  0  0  0  0
   -8.0260    4.0453  -11.2164 C   0  0  0  0  0  0  0  0  0  0  0  0
   -7.8821    5.1804  -10.4013 C   0  0  0  0  0  0  0  0  0  0  0  0
   -8.1764    5.1272   -9.0335 C   0  0  0  0  0  0  0  0  0  0  0  0
   -8.6240    3.9313   -8.5059 C   0  0  0  0  0  0  0  0  0  0  0  0
   -8.7728    2.8055   -9.3092 C   0  0  0  0  0  0  0  0  0  0  0  0
   -8.4774    2.8419  -10.6639 C   0  0  0  0  0  0  0  0  0  0  0  0
   -9.2362    1.6650   -8.4628 C   0  0  0  0  0  0  0  0  0  0  0  0
   -9.6986    2.2837   -7.1930 N   0  0  0  0  0  0  0  0  0  0  0  0
   -8.9903    3.5795   -7.1025 C   0  0  0  0  0  0  0  0  0  0  0  0
   -9.4582    1.6900   -6.3992 H   0  0  0  0  0  0  0  0  0  0  0  0
 19 20  2  0  0  0
 20 21  1  0  0  0
 21 23  1  0  0  0
 23 24  2  0  0  0
 24 25  1  0  0  0
 25 26  2  0  0  0
 26 27  1  0  0  0
 27 28  2  0  0  0
 27 29  1  0  0  0
 29 30  1  0  0  0
 30 31  1  0  0  0
 20  1  1  0  0  0
  1  2  1  0  0  0
  2  3  2  0  0  0
  3  4  1  0  0  0
  4  5  2  0  0  0
  5  6  1  0  0  0
  6  7  2  0  0  0
  7  8  1  0  0  0
  8  9  2  0  0  0
  9 10  1  0  0  0
 10 14  1  0  0  0
 14 15  1  0  0  0
 15 16  1  0  0  0
 16 17  1  0  0  0
 10 11  1  0  0  0
 11 12  2  0  0  0
 12 13  1  0  0  0
 28 23  1  0  0  0
 13  1  2  0  0  0
 31 26  1  0  0  0
  7  3  1  0  0  0
 13  8  1  0  0  0
 17 14  1  0  0  0
 21 22  1  0  0  0
 30 32  1  0  0  0
 16 18  1  0  0  0
M  END
> <minimizedAffinity>
-9.80757

> <minimizedRMSD>
0.15349

$$$$
P21303


 32 37  0  0  0  0  0  0  0  0999 V2000
   -7.2874    4.7185  -14.6257 C   0  0  0  0  0  0  0  0  0  0  0  0
   -8.5206    4.1945  -15.1276 C   0  0  0  0  0  0  0  0  0  0  0  0
   -8.6426    4.0950  -16.5153 C   0  0  0  0  0  0  0  0  0  0  0  0
   -9.5576    3.7757  -17.5808 C   0  0  0  0  0  0  0  0  0  0  0  0
   -8.9057    3.9934  -18.8175 C   0  0  0  0  0  0  0  0  0  0  0  0
   -7.6882    4.4112  -18.4795 N   0  0  0  0  0  0  0  0  0  0  0  0
   -6.5945    4.8133  -19.1230 C   0  0  0  0  0  0  0  0  0  0  0  0
   -5.6637    5.1521  -18.0970 C   0  0  0  0  0  0  0  0  0  0  0  0
   -6.3245    4.9470  -16.8249 C   0  0  0  0  0  0  0  0  0  0  0  0
   -6.1717    5.0860  -15.4428 C   0  0  0  0  0  0  0  0  0  0  0  0
   -7.5368    4.4767  -17.1916 C   0  0  0  0  0  0  0  0  0  0  0  0
   -4.2638    5.6448  -18.3436 C   0  0  0  0  0  0  0  0  0  0  0  0
   -4.1864    7.1774  -18.2659 C   0  0  0  0  0  0  0  0  0  0  0  0
   -2.7714    7.6665  -18.5660 C   0  0  0  0  0  0  0  0  0  0  0  0
   -1.7860    7.0501  -17.6779 N   0  0  0  0  0  0  0  0  0  0  0  0
   -1.8179    5.5896  -17.7849 C   0  0  0  0  0  0  0  0  0  0  0  0
   -3.1976    5.0373  -17.4256 C   0  0  0  0  0  0  0  0  0  0  0  0
   -1.9918    7.3179  -16.7154 H   0  0  0  0  0  0  0  0  0  0  0  0
   -6.4782    5.9373  -12.8774 O   0  0  0  0  0  0  0  0  0  0  0  0
   -7.1789    5.0550  -13.1840 C   0  0  0  0  0  0  0  0  0  0  0  0
   -8.0887    4.1537  -12.3223 N   0  0  0  0  0  0  0  0  0  0  0  0
   -8.6455    3.5222  -12.8326 H   0  0  0  0  0  0  0  0  0  0  0  0
   -8.2500    4.0883  -10.9411 C   0  0  0  0  0  0  0  0  0  0  0  0
   -8.0591    5.2243  -10.1380 C   0  0  0  0  0  0  0  0  0  0  0  0
   -8.2262    5.1588   -8.7516 C   0  0  0  0  0  0  0  0  0  0  0  0
   -8.5880    3.9474   -8.1930 C   0  0  0  0  0  0  0  0  0  0  0  0
   -8.7691    2.8197   -8.9845 C   0  0  0  0  0  0  0  0  0  0  0  0
   -8.6042    2.8692  -10.3598 C   0  0  0  0  0  0  0  0  0  0  0  0
   -9.1084    1.6568   -8.1157 C   0  0  0  0  0  0  0  0  0  0  0  0
   -9.3761    2.2209   -6.7684 N   0  0  0  0  0  0  0  0  0  0  0  0
   -8.8330    3.5949   -6.7656 C   0  0  0  0  0  0  0  0  0  0  0  0
   -8.9133    1.6589   -6.0540 H   0  0  0  0  0  0  0  0  0  0  0  0
 19 20  2  0  0  0
 20 21  1  0  0  0
 21 23  1  0  0  0
 23 24  2  0  0  0
 24 25  1  0  0  0
 25 26  2  0  0  0
 26 27  1  0  0  0
 27 28  2  0  0  0
 27 29  1  0  0  0
 29 30  1  0  0  0
 30 31  1  0  0  0
 20  1  1  0  0  0
  1  2  2  0  0  0
  2  3  1  0  0  0
  3  4  1  0  0  0
  4  5  2  0  0  0
  5  6  1  0  0  0
  6  7  1  0  0  0
  7  8  2  0  0  0
  8 12  1  0  0  0
 12 13  1  0  0  0
 13 14  1  0  0  0
 14 15  1  0  0  0
 15 16  1  0  0  0
 16 17  1  0  0  0
  8  9  1  0  0  0
  9 10  2  0  0  0
  9 11  1  0  0  0
 28 23  1  0  0  0
 10  1  1  0  0  0
 31 26  1  0  0  0
 11  3  2  0  0  0
 11  6  1  0  0  0
 17 12  1  0  0  0
 21 22  1  0  0  0
 30 32  1  0  0  0
 15 18  1  0  0  0
M  END
> <minimizedAffinity>
-10.05453

> <minimizedRMSD>
0.42050

$$$$
P21306


 31 36  0  0  0  0  0  0  0  0999 V2000
   -7.3765    4.6456  -14.6900 C   0  0  0  0  0  0  0  0  0  0  0  0
   -8.6126    4.1806  -15.2480 C   0  0  0  0  0  0  0  0  0  0  0  0
   -8.6775    4.1037  -16.6428 C   0  0  0  0  0  0  0  0  0  0  0  0
   -9.5180    3.8009  -17.7710 C   0  0  0  0  0  0  0  0  0  0  0  0
   -8.7687    4.0085  -18.9606 C   0  0  0  0  0  0  0  0  0  0  0  0
   -7.5823    4.4270  -18.5483 N   0  0  0  0  0  0  0  0  0  0  0  0
   -6.4451    4.7263  -19.1429 N   0  0  0  0  0  0  0  0  0  0  0  0
   -5.6261    4.9686  -18.0645 C   0  0  0  0  0  0  0  0  0  0  0  0
   -6.3155    4.8427  -16.8195 C   0  0  0  0  0  0  0  0  0  0  0  0
   -6.1973    4.9448  -15.4404 C   0  0  0  0  0  0  0  0  0  0  0  0
   -7.5310    4.4618  -17.2523 C   0  0  0  0  0  0  0  0  0  0  0  0
   -6.6043    5.8673  -12.9380 O   0  0  0  0  0  0  0  0  0  0  0  0
   -7.2948    4.9824  -13.2547 C   0  0  0  0  0  0  0  0  0  0  0  0
   -8.1020    3.9909  -12.3986 N   0  0  0  0  0  0  0  0  0  0  0  0
   -8.5518    3.2783  -12.9076 H   0  0  0  0  0  0  0  0  0  0  0  0
   -8.2999    3.9373  -11.0227 C   0  0  0  0  0  0  0  0  0  0  0  0
   -8.1161    5.0806  -10.2274 C   0  0  0  0  0  0  0  0  0  0  0  0
   -8.2649    5.0186   -8.8398 C   0  0  0  0  0  0  0  0  0  0  0  0
   -8.6140    3.8065   -8.2751 C   0  0  0  0  0  0  0  0  0  0  0  0
   -8.8011    2.6762   -9.0618 C   0  0  0  0  0  0  0  0  0  0  0  0
   -8.6409    2.7186  -10.4369 C   0  0  0  0  0  0  0  0  0  0  0  0
   -9.1313    1.5158   -8.1869 C   0  0  0  0  0  0  0  0  0  0  0  0
   -9.3884    2.0850   -6.8403 N   0  0  0  0  0  0  0  0  0  0  0  0
   -8.8333    3.4538   -6.8438 C   0  0  0  0  0  0  0  0  0  0  0  0
   -8.9275    1.5208   -6.1265 H   0  0  0  0  0  0  0  0  0  0  0  0
   -4.1757    5.2360  -18.2500 C   0  0  0  0  0  0  0  0  0  0  0  0
   -3.7204    6.6864  -18.1859 C   0  0  0  0  0  0  0  0  0  0  0  0
   -3.3464    7.3390  -16.8445 C   0  0  0  0  0  0  0  0  0  0  0  0
   -4.5854    8.1292  -16.8901 N   0  0  0  0  0  0  0  0  0  0  0  0
   -4.7388    7.8359  -18.3268 C   0  0  0  0  0  0  0  0  0  0  0  0
   -4.4533    9.1188  -16.6813 H   0  0  0  0  0  0  0  0  0  0  0  0
 12 13  2  0  0  0
 13 14  1  0  0  0
 14 16  1  0  0  0
 16 17  2  0  0  0
 17 18  1  0  0  0
 18 19  2  0  0  0
 19 20  1  0  0  0
 20 21  2  0  0  0
 20 22  1  0  0  0
 22 23  1  0  0  0
 23 24  1  0  0  0
 13  1  1  0  0  0
  1  2  2  0  0  0
  2  3  1  0  0  0
  3  4  1  0  0  0
  4  5  2  0  0  0
  5  6  1  0  0  0
  6  7  1  0  0  0
  7  8  2  0  0  0
  8 26  1  0  0  0
 26 27  1  0  0  0
 27 28  1  0  0  0
 28 29  1  0  0  0
 29 30  1  0  0  0
  8  9  1  0  0  0
  9 10  2  0  0  0
  9 11  1  0  0  0
 21 16  1  0  0  0
 10  1  1  0  0  0
 24 19  1  0  0  0
 11  3  2  0  0  0
 11  6  1  0  0  0
 30 27  1  0  0  0
 14 15  1  0  0  0
 23 25  1  0  0  0
 29 31  1  0  0  0
M  END
> <minimizedAffinity>
-9.26523

> <minimizedRMSD>
0.52832

$$$$
P21309


 33 38  0  0  0  0  0  0  0  0999 V2000
   -7.2011    4.7372  -14.4791 C   0  0  0  0  0  0  0  0  0  0  0  0
   -8.4776    4.3298  -15.0081 C   0  0  0  0  0  0  0  0  0  0  0  0
   -8.5750    4.2311  -16.3979 C   0  0  0  0  0  0  0  0  0  0  0  0
   -9.4670    3.9670  -17.4948 C   0  0  0  0  0  0  0  0  0  0  0  0
   -8.7454    4.1185  -18.7055 C   0  0  0  0  0  0  0  0  0  0  0  0
   -7.5225    4.4607  -18.3359 N   0  0  0  0  0  0  0  0  0  0  0  0
   -6.4055    4.7047  -18.9805 N   0  0  0  0  0  0  0  0  0  0  0  0
   -5.5547    5.0022  -17.9455 C   0  0  0  0  0  0  0  0  0  0  0  0
   -6.1903    4.8877  -16.6582 C   0  0  0  0  0  0  0  0  0  0  0  0
   -6.0365    5.0183  -15.2770 C   0  0  0  0  0  0  0  0  0  0  0  0
   -7.4280    4.5228  -17.0429 C   0  0  0  0  0  0  0  0  0  0  0  0
   -6.3874    5.8790  -12.6736 O   0  0  0  0  0  0  0  0  0  0  0  0
   -7.0983    5.0196  -13.0207 C   0  0  0  0  0  0  0  0  0  0  0  0
   -8.0533    4.1180  -12.2050 N   0  0  0  0  0  0  0  0  0  0  0  0
   -8.6089    3.5109  -12.7454 H   0  0  0  0  0  0  0  0  0  0  0  0
   -8.2559    4.0248  -10.8287 C   0  0  0  0  0  0  0  0  0  0  0  0
   -8.0727    5.1364   -9.9902 C   0  0  0  0  0  0  0  0  0  0  0  0
   -8.3108    5.0449   -8.6143 C   0  0  0  0  0  0  0  0  0  0  0  0
   -8.7393    3.8341   -8.1040 C   0  0  0  0  0  0  0  0  0  0  0  0
   -8.9088    2.7277   -8.9302 C   0  0  0  0  0  0  0  0  0  0  0  0
   -8.6717    2.8023  -10.2930 C   0  0  0  0  0  0  0  0  0  0  0  0
   -9.3365    1.5634   -8.0996 C   0  0  0  0  0  0  0  0  0  0  0  0
   -9.7881    2.1536   -6.8124 N   0  0  0  0  0  0  0  0  0  0  0  0
   -9.0801    3.4490   -6.7030 C   0  0  0  0  0  0  0  0  0  0  0  0
   -9.5388    1.5439   -6.0336 H   0  0  0  0  0  0  0  0  0  0  0  0
   -4.1365    5.3791  -18.2315 C   0  0  0  0  0  0  0  0  0  0  0  0
   -4.0038    6.6943  -19.0230 C   0  0  0  0  0  0  0  0  0  0  0  0
   -4.7824    7.8395  -18.3464 C   0  0  0  0  0  0  0  0  0  0  0  0
   -4.1832    9.1988  -18.6879 C   0  0  0  0  0  0  0  0  0  0  0  0
   -2.7988    9.3449  -18.2420 N   0  0  0  0  0  0  0  0  0  0  0  0
   -2.0522    8.0850  -18.1843 C   0  0  0  0  0  0  0  0  0  0  0  0
   -2.5226    7.0718  -19.2231 C   0  0  0  0  0  0  0  0  0  0  0  0
   -2.8047    9.7567  -17.3089 H   0  0  0  0  0  0  0  0  0  0  0  0
 12 13  2  0  0  0
 13 14  1  0  0  0
 14 16  1  0  0  0
 16 17  2  0  0  0
 17 18  1  0  0  0
 18 19  2  0  0  0
 19 20  1  0  0  0
 20 21  2  0  0  0
 20 22  1  0  0  0
 22 23  1  0  0  0
 23 24  1  0  0  0
 13  1  1  0  0  0
  1  2  2  0  0  0
  2  3  1  0  0  0
  3  4  1  0  0  0
  4  5  2  0  0  0
  5  6  1  0  0  0
  6  7  1  0  0  0
  7  8  2  0  0  0
  8 26  1  0  0  0
 26 27  1  0  0  0
 27 28  1  0  0  0
 28 29  1  0  0  0
 29 30  1  0  0  0
 30 31  1  0  0  0
 31 32  1  0  0  0
  8  9  1  0  0  0
  9 10  2  0  0  0
  9 11  1  0  0  0
 21 16  1  0  0  0
 10  1  1  0  0  0
 24 19  1  0  0  0
 11  3  2  0  0  0
 11  6  1  0  0  0
 32 27  1  0  0  0
 14 15  1  0  0  0
 23 25  1  0  0  0
 30 33  1  0  0  0
M  END
> <minimizedAffinity>
-9.34688

> <minimizedRMSD>
0.46485

$$$$
P21313


 35 38  0  0  0  0  0  0  0  0999 V2000
   -7.9437    4.5745  -15.2473 C   0  0  0  0  0  0  0  0  0  0  0  0
   -6.4806    5.0452  -15.3814 C   0  0  0  0  0  0  0  0  0  0  0  0
   -5.9661    5.2371  -13.9451 C   0  0  0  0  0  0  0  0  0  0  0  0
   -7.0235    4.5583  -13.0652 C   0  0  0  0  0  0  0  0  0  0  0  0
   -8.3306    4.8412  -13.7962 C   0  0  0  0  0  0  0  0  0  0  0  0
   -8.8803    6.4805  -13.4314 Cl  0  0  0  0  0  0  0  0  0  0  0  0
   -7.0657    5.0649  -11.6352 C   0  0  0  0  0  0  0  0  0  0  0  0
   -6.5378    6.0385  -11.2616 O   0  0  0  0  0  0  0  0  0  0  0  0
   -7.9944    4.0684  -10.8814 N   0  0  0  0  0  0  0  0  0  0  0  0
   -8.3789    3.3574  -11.4434 H   0  0  0  0  0  0  0  0  0  0  0  0
   -8.3657    4.0201   -9.5546 C   0  0  0  0  0  0  0  0  0  0  0  0
   -8.1932    5.1224   -8.7061 C   0  0  0  0  0  0  0  0  0  0  0  0
   -8.5933    5.0502   -7.3723 C   0  0  0  0  0  0  0  0  0  0  0  0
   -9.1717    3.8745   -6.9341 C   0  0  0  0  0  0  0  0  0  0  0  0
   -9.3370    2.7854   -7.7860 C   0  0  0  0  0  0  0  0  0  0  0  0
   -8.9343    2.8326   -9.1000 C   0  0  0  0  0  0  0  0  0  0  0  0
   -9.9430    1.6595   -7.0258 C   0  0  0  0  0  0  0  0  0  0  0  0
  -10.5301    2.2982   -5.8205 N   0  0  0  0  0  0  0  0  0  0  0  0
   -9.7000    3.5044   -5.5889 C   0  0  0  0  0  0  0  0  0  0  0  0
  -10.4801    1.6684   -5.0197 H   0  0  0  0  0  0  0  0  0  0  0  0
   -8.9646    4.9608  -16.3169 C   0  0  0  0  0  0  0  0  0  0  0  0
   -8.6427    4.2027  -18.6921 N   0  0  0  0  0  0  0  0  0  0  0  0
   -9.2014    3.9033  -17.3848 C   0  0  0  0  0  0  0  0  0  0  0  0
   -8.8530    3.4390  -19.3348 H   0  0  0  0  0  0  0  0  0  0  0  0
   -7.6317    4.3118  -18.6130 H   0  0  0  0  0  0  0  0  0  0  0  0
   -4.5176    4.7830  -13.6920 C   0  0  0  0  0  0  0  0  0  0  0  0
   -4.3290    3.3415  -13.5119 N   0  0  0  0  0  0  0  0  0  0  0  0
   -3.5043    3.0519  -14.0376 H   0  0  0  0  0  0  0  0  0  0  0  0
   -4.1469    2.9718  -12.1218 N   0  0  0  0  0  0  0  0  0  0  0  0
   -4.8206    3.4863  -11.5544 H   0  0  0  0  0  0  0  0  0  0  0  0
   -4.3426    1.5289  -11.8980 C   0  0  0  0  0  0  0  0  0  0  0  0
   -5.2089    1.3141  -10.6272 C   0  0  0  0  0  0  0  0  0  0  0  0
   -4.2761    0.2234  -10.2355 N   0  0  0  0  0  0  0  0  0  0  0  0
   -3.2240    0.9422  -11.0086 C   0  0  0  0  0  0  0  0  0  0  0  0
   -4.5193   -0.6973  -10.6010 H   0  0  0  0  0  0  0  0  0  0  0  0
 22 23  1  0  0  0
 23 21  1  0  0  0
  1 21  1  0  0  0
  1  2  1  0  0  0
  2  3  1  0  0  0
  3 26  1  0  0  0
 26 27  1  0  0  0
 27 29  1  0  0  0
 29 31  1  0  0  0
 31 32  1  0  0  0
 32 33  1  0  0  0
 33 34  1  0  0  0
  3  4  1  0  0  0
  4  7  1  0  0  0
  7  8  2  0  0  0
  7  9  1  0  0  0
  9 11  1  0  0  0
 11 12  2  0  0  0
 12 13  1  0  0  0
 13 14  2  0  0  0
 14 15  1  0  0  0
 15 16  2  0  0  0
 15 17  1  0  0  0
 17 18  1  0  0  0
 18 19  1  0  0  0
  4  5  1  0  0  0
  5  6  1  0  0  0
  5  1  1  0  0  0
 34 31  1  0  0  0
 16 11  1  0  0  0
 19 14  1  0  0  0
 22 24  1  0  0  0
 22 25  1  0  0  0
 27 28  1  0  0  0
 29 30  1  0  0  0
 33 35  1  0  0  0
  9 10  1  0  0  0
 18 20  1  0  0  0
M  END
> <minimizedAffinity>
-7.26402

> <minimizedRMSD>
2.11208

$$$$
P21315


 28 32  0  0  0  0  0  0  0  0999 V2000
   -5.8108    4.9002  -20.2284 N   0  0  0  0  0  0  0  0  0  0  0  0
   -6.1063    4.8088  -18.9141 C   0  0  0  0  0  0  0  0  0  0  0  0
   -5.2905    5.0814  -17.8804 N   0  0  0  0  0  0  0  0  0  0  0  0
   -6.0612    4.9129  -16.7259 C   0  0  0  0  0  0  0  0  0  0  0  0
   -5.9555    5.0690  -15.3468 C   0  0  0  0  0  0  0  0  0  0  0  0
   -7.1523    4.8059  -14.5898 C   0  0  0  0  0  0  0  0  0  0  0  0
   -8.4142    4.3887  -15.1530 C   0  0  0  0  0  0  0  0  0  0  0  0
   -8.4586    4.2589  -16.5418 C   0  0  0  0  0  0  0  0  0  0  0  0
   -9.3040    3.9934  -17.6773 C   0  0  0  0  0  0  0  0  0  0  0  0
   -8.5349    4.1363  -18.8627 C   0  0  0  0  0  0  0  0  0  0  0  0
   -7.3152    4.4572  -18.4319 N   0  0  0  0  0  0  0  0  0  0  0  0
   -7.2837    4.5288  -17.1382 C   0  0  0  0  0  0  0  0  0  0  0  0
   -4.9055    5.1631  -20.5122 H   0  0  0  0  0  0  0  0  0  0  0  0
   -6.5006    4.7039  -20.9028 H   0  0  0  0  0  0  0  0  0  0  0  0
   -7.1112    5.1301  -13.1404 C   0  0  0  0  0  0  0  0  0  0  0  0
   -6.6412    6.1477  -12.8133 O   0  0  0  0  0  0  0  0  0  0  0  0
   -7.7792    4.0190  -12.2996 N   0  0  0  0  0  0  0  0  0  0  0  0
   -8.0311    3.2136  -12.8067 H   0  0  0  0  0  0  0  0  0  0  0  0
   -8.0832    3.9713  -10.9402 C   0  0  0  0  0  0  0  0  0  0  0  0
   -7.9267    5.0972  -10.1162 C   0  0  0  0  0  0  0  0  0  0  0  0
   -8.2335    5.0361   -8.7521 C   0  0  0  0  0  0  0  0  0  0  0  0
   -8.7012    3.8407   -8.2399 C   0  0  0  0  0  0  0  0  0  0  0  0
   -8.8531    2.7229   -9.0541 C   0  0  0  0  0  0  0  0  0  0  0  0
   -8.5491    2.7675  -10.4042 C   0  0  0  0  0  0  0  0  0  0  0  0
   -9.3291    1.5780   -8.2234 C   0  0  0  0  0  0  0  0  0  0  0  0
   -9.8141    2.1924   -6.9605 N   0  0  0  0  0  0  0  0  0  0  0  0
   -9.0930    3.4800   -6.8456 C   0  0  0  0  0  0  0  0  0  0  0  0
   -9.5986    1.5908   -6.1655 H   0  0  0  0  0  0  0  0  0  0  0  0
  1  2  1  0  0  0
  2  3  2  0  0  0
  3  4  1  0  0  0
  4  5  1  0  0  0
  5  6  2  0  0  0
  6 15  1  0  0  0
 15 16  2  0  0  0
 15 17  1  0  0  0
 17 19  1  0  0  0
 19 20  2  0  0  0
 20 21  1  0  0  0
 21 22  2  0  0  0
 22 23  1  0  0  0
 23 24  2  0  0  0
 23 25  1  0  0  0
 25 26  1  0  0  0
 26 27  1  0  0  0
  6  7  1  0  0  0
  7  8  2  0  0  0
  8  9  1  0  0  0
  9 10  2  0  0  0
 10 11  1  0  0  0
 11 12  1  0  0  0
 11  2  1  0  0  0
 12  4  2  0  0  0
 24 19  1  0  0  0
 12  8  1  0  0  0
 27 22  1  0  0  0
  1 13  1  0  0  0
  1 14  1  0  0  0
 17 18  1  0  0  0
 26 28  1  0  0  0
M  END
> <minimizedAffinity>
-9.47137

> <minimizedRMSD>
0.29141

$$$$
P21317


 32 37  0  0  0  0  0  0  0  0999 V2000
   -7.2664    4.8229  -14.4327 C   0  0  0  0  0  0  0  0  0  0  0  0
   -8.5114    4.3910  -15.0216 C   0  0  0  0  0  0  0  0  0  0  0  0
   -8.5280    4.2536  -16.4099 C   0  0  0  0  0  0  0  0  0  0  0  0
   -9.3512    3.9737  -17.5567 C   0  0  0  0  0  0  0  0  0  0  0  0
   -8.5651    4.1227  -18.7294 C   0  0  0  0  0  0  0  0  0  0  0  0
   -7.3558    4.4603  -18.2806 N   0  0  0  0  0  0  0  0  0  0  0  0
   -6.1446    4.8211  -18.7534 C   0  0  0  0  0  0  0  0  0  0  0  0
   -5.3486    5.0969  -17.7008 N   0  0  0  0  0  0  0  0  0  0  0  0
   -6.1358    4.9317  -16.5557 C   0  0  0  0  0  0  0  0  0  0  0  0
   -6.0585    5.0947  -15.1739 C   0  0  0  0  0  0  0  0  0  0  0  0
   -7.3462    4.5343  -16.9872 C   0  0  0  0  0  0  0  0  0  0  0  0
   -6.7717    6.1713  -12.6544 O   0  0  0  0  0  0  0  0  0  0  0  0
   -7.2616    5.1623  -12.9811 C   0  0  0  0  0  0  0  0  0  0  0  0
   -8.0198    4.1000  -12.1499 N   0  0  0  0  0  0  0  0  0  0  0  0
   -8.4077    3.3643  -12.6768 H   0  0  0  0  0  0  0  0  0  0  0  0
   -8.2430    4.0150  -10.7762 C   0  0  0  0  0  0  0  0  0  0  0  0
   -8.0642    5.1296   -9.9427 C   0  0  0  0  0  0  0  0  0  0  0  0
   -8.3061    5.0421   -8.5673 C   0  0  0  0  0  0  0  0  0  0  0  0
   -8.7247    3.8300   -8.0492 C   0  0  0  0  0  0  0  0  0  0  0  0
   -8.9004    2.7242   -8.8706 C   0  0  0  0  0  0  0  0  0  0  0  0
   -8.6697    2.7978  -10.2363 C   0  0  0  0  0  0  0  0  0  0  0  0
   -9.3149    1.5539   -8.0442 C   0  0  0  0  0  0  0  0  0  0  0  0
   -9.5895    2.0870   -6.6851 N   0  0  0  0  0  0  0  0  0  0  0  0
   -9.0375    3.4572   -6.6404 C   0  0  0  0  0  0  0  0  0  0  0  0
   -9.1366    1.5036   -5.9816 H   0  0  0  0  0  0  0  0  0  0  0  0
   -5.8668    4.9055  -20.0801 N   0  0  0  0  0  0  0  0  0  0  0  0
   -6.4894    4.5061  -20.7298 H   0  0  0  0  0  0  0  0  0  0  0  0
   -4.6672    5.5744  -20.5604 C   0  0  0  0  0  0  0  0  0  0  0  0
   -4.5027    5.3952  -22.0953 C   0  0  0  0  0  0  0  0  0  0  0  0
   -3.8818    4.0580  -21.8094 N   0  0  0  0  0  0  0  0  0  0  0  0
   -3.3976    4.6895  -20.5259 C   0  0  0  0  0  0  0  0  0  0  0  0
   -3.1459    3.7757  -22.4568 H   0  0  0  0  0  0  0  0  0  0  0  0
 12 13  2  0  0  0
 13 14  1  0  0  0
 14 16  1  0  0  0
 16 17  2  0  0  0
 17 18  1  0  0  0
 18 19  2  0  0  0
 19 20  1  0  0  0
 20 21  2  0  0  0
 20 22  1  0  0  0
 22 23  1  0  0  0
 23 24  1  0  0  0
 13  1  1  0  0  0
  1  2  2  0  0  0
  2  3  1  0  0  0
  3  4  1  0  0  0
  4  5  2  0  0  0
  5  6  1  0  0  0
  6  7  1  0  0  0
  7 26  1  0  0  0
 26 28  1  0  0  0
 28 29  1  0  0  0
 29 30  1  0  0  0
 30 31  1  0  0  0
  7  8  2  0  0  0
  8  9  1  0  0  0
  9 10  2  0  0  0
  9 11  1  0  0  0
 21 16  1  0  0  0
 10  1  1  0  0  0
 24 19  1  0  0  0
 11  3  2  0  0  0
 11  6  1  0  0  0
 31 28  1  0  0  0
 14 15  1  0  0  0
 23 25  1  0  0  0
 26 27  1  0  0  0
 30 32  1  0  0  0
M  END
> <minimizedAffinity>
-9.80056

> <minimizedRMSD>
0.46425

$$$$
P21337


 31 34  0  0  0  0  0  0  0  0999 V2000
   -7.2216    5.4179  -14.0652 C   0  0  0  0  0  0  0  0  0  0  0  0
   -6.6744    6.4308  -13.8795 O   0  0  0  0  0  0  0  0  0  0  0  0
   -7.9535    4.4817  -13.0815 N   0  0  0  0  0  0  0  0  0  0  0  0
   -8.4048    3.7142  -13.5015 H   0  0  0  0  0  0  0  0  0  0  0  0
   -5.4720    5.1406  -19.9228 N   0  0  0  0  0  0  0  0  0  0  0  0
   -5.6639    5.1141  -18.5862 C   0  0  0  0  0  0  0  0  0  0  0  0
   -4.7144    5.5153  -17.6889 N   0  0  0  0  0  0  0  0  0  0  0  0
   -5.1220    5.5221  -16.4030 N   0  0  0  0  0  0  0  0  0  0  0  0
   -6.3971    5.0872  -16.4409 C   0  0  0  0  0  0  0  0  0  0  0  0
   -7.3734    4.9141  -15.4399 C   0  0  0  0  0  0  0  0  0  0  0  0
   -8.6134    4.4000  -15.8966 C   0  0  0  0  0  0  0  0  0  0  0  0
   -8.8665    4.1139  -17.2663 C   0  0  0  0  0  0  0  0  0  0  0  0
  -10.4543    3.6703  -17.7223 Cl  0  0  0  0  0  0  0  0  0  0  0  0
   -7.9361    4.2804  -18.2968 C   0  0  0  0  0  0  0  0  0  0  0  0
   -6.7356    4.7758  -17.8118 C   0  0  0  0  0  0  0  0  0  0  0  0
   -4.6030    5.4223  -20.2898 H   0  0  0  0  0  0  0  0  0  0  0  0
   -6.2011    4.8782  -20.5300 H   0  0  0  0  0  0  0  0  0  0  0  0
   -3.8051    5.7784  -17.9595 H   0  0  0  0  0  0  0  0  0  0  0  0
   -8.0792    4.5451  -11.7016 C   0  0  0  0  0  0  0  0  0  0  0  0
   -7.7252    5.6873  -10.9662 C   0  0  0  0  0  0  0  0  0  0  0  0
   -7.8520    5.7094   -9.5706 C   0  0  0  0  0  0  0  0  0  0  0  0
   -8.3402    4.5803   -8.9430 C   0  0  0  0  0  0  0  0  0  0  0  0
   -8.7039    3.4634   -9.6825 C   0  0  0  0  0  0  0  0  0  0  0  0
   -8.5837    3.4219  -11.0579 C   0  0  0  0  0  0  0  0  0  0  0  0
   -9.1171    2.3686   -8.7730 C   0  0  0  0  0  0  0  0  0  0  0  0
   -8.0705    1.4036   -8.7047 N   0  0  0  0  0  0  0  0  0  0  0  0
   -9.2041    2.9537   -7.4342 N   0  0  0  0  0  0  0  0  0  0  0  0
   -8.5189    4.2692   -7.4963 C   0  0  0  0  0  0  0  0  0  0  0  0
   -7.2134    1.8536   -8.3834 H   0  0  0  0  0  0  0  0  0  0  0  0
   -7.9175    1.0019   -9.6297 H   0  0  0  0  0  0  0  0  0  0  0  0
   -8.7418    2.3485   -6.7557 H   0  0  0  0  0  0  0  0  0  0  0  0
  5  6  1  0  0  0
  6  7  1  0  0  0
  7  8  1  0  0  0
  8  9  2  0  0  0
  9 10  1  0  0  0
 10  1  1  0  0  0
  1  2  2  0  0  0
  1  3  1  0  0  0
  3 19  1  0  0  0
 19 20  2  0  0  0
 20 21  1  0  0  0
 21 22  2  0  0  0
 22 23  1  0  0  0
 23 24  2  0  0  0
 23 25  1  0  0  0
 25 26  1  0  0  0
 25 27  1  0  0  0
 27 28  1  0  0  0
 10 11  2  0  0  0
 11 12  1  0  0  0
 12 13  1  0  0  0
 12 14  2  0  0  0
 14 15  1  0  0  0
 15  6  2  0  0  0
 15  9  1  0  0  0
 24 19  1  0  0  0
 28 22  1  0  0  0
  5 16  1  0  0  0
  5 17  1  0  0  0
  7 18  1  0  0  0
  3  4  1  0  0  0
 26 29  1  0  0  0
 26 30  1  0  0  0
 27 31  1  0  0  0
M  END
> <minimizedAffinity>
-9.43406

> <minimizedRMSD>
0.30369

$$$$
P21339


 29 32  0  0  0  0  0  0  0  0999 V2000
   -7.4598    4.9938  -14.2264 C   0  0  0  0  0  0  0  0  0  0  0  0
   -6.8063    5.9535  -14.0980 O   0  0  0  0  0  0  0  0  0  0  0  0
   -8.1524    4.1014  -13.1660 N   0  0  0  0  0  0  0  0  0  0  0  0
   -8.5880    3.2954  -13.5264 H   0  0  0  0  0  0  0  0  0  0  0  0
   -8.2591    4.2541  -11.7847 C   0  0  0  0  0  0  0  0  0  0  0  0
   -8.1341    5.5198  -11.1880 C   0  0  0  0  0  0  0  0  0  0  0  0
   -8.2205    5.6732   -9.8015 C   0  0  0  0  0  0  0  0  0  0  0  0
   -8.4282    4.5439   -9.0347 C   0  0  0  0  0  0  0  0  0  0  0  0
   -8.5506    3.2845   -9.6169 C   0  0  0  0  0  0  0  0  0  0  0  0
   -8.4794    3.1221  -10.9936 C   0  0  0  0  0  0  0  0  0  0  0  0
   -8.6407    2.2746   -8.5204 C   0  0  0  0  0  0  0  0  0  0  0  0
   -9.7230    1.3490   -8.6242 N   0  0  0  0  0  0  0  0  0  0  0  0
   -8.9709    3.0207   -7.3104 N   0  0  0  0  0  0  0  0  0  0  0  0
   -8.5159    4.4007   -7.5532 C   0  0  0  0  0  0  0  0  0  0  0  0
  -10.6075    1.8566   -8.6038 H   0  0  0  0  0  0  0  0  0  0  0  0
   -9.6877    0.6956   -7.8419 H   0  0  0  0  0  0  0  0  0  0  0  0
   -8.4871    2.6237   -6.5051 H   0  0  0  0  0  0  0  0  0  0  0  0
   -5.4281    5.2128  -18.1444 N   0  0  0  0  0  0  0  0  0  0  0  0
   -6.4627    4.7792  -18.9172 C   0  0  0  0  0  0  0  0  0  0  0  0
   -7.4400    4.4514  -18.0258 C   0  0  0  0  0  0  0  0  0  0  0  0
   -8.6681    3.9105  -18.3762 C   0  0  0  0  0  0  0  0  0  0  0  0
   -9.4562    3.6627  -17.2402 C   0  0  0  0  0  0  0  0  0  0  0  0
   -9.0333    3.9456  -15.9046 C   0  0  0  0  0  0  0  0  0  0  0  0
   -7.7813    4.5330  -15.5891 C   0  0  0  0  0  0  0  0  0  0  0  0
   -6.9538    4.7771  -16.7039 C   0  0  0  0  0  0  0  0  0  0  0  0
   -5.7133    5.2931  -16.8257 N   0  0  0  0  0  0  0  0  0  0  0  0
   -4.0410    7.1050  -18.8572 C   0  0  0  0  0  0  0  0  0  0  0  0
   -4.1177    5.5924  -18.6533 C   0  0  0  0  0  0  0  0  0  0  0  0
   -2.9689    5.1079  -17.7673 C   0  0  0  0  0  0  0  0  0  0  0  0
 27 28  1  0  0  0
 28 29  1  0  0  0
 28 18  1  0  0  0
 18 19  1  0  0  0
 19 20  2  0  0  0
 20 21  1  0  0  0
 21 22  2  0  0  0
 22 23  1  0  0  0
 23 24  2  0  0  0
 24  1  1  0  0  0
  1  2  2  0  0  0
  1  3  1  0  0  0
  3  5  1  0  0  0
  5  6  2  0  0  0
  6  7  1  0  0  0
  7  8  2  0  0  0
  8  9  1  0  0  0
  9 10  2  0  0  0
  9 11  1  0  0  0
 11 12  1  0  0  0
 11 13  1  0  0  0
 13 14  1  0  0  0
 24 25  1  0  0  0
 25 26  2  0  0  0
 26 18  1  0  0  0
 25 20  1  0  0  0
 10  5  1  0  0  0
 14  8  1  0  0  0
  3  4  1  0  0  0
 12 15  1  0  0  0
 12 16  1  0  0  0
 13 17  1  0  0  0
M  END
> <minimizedAffinity>
-9.20278

> <minimizedRMSD>
0.54275

$$$$
P21341


 25 28  0  0  0  0  0  0  0  0999 V2000
   -6.8679    6.4963  -13.3691 O   0  0  0  0  0  0  0  0  0  0  0  0
   -7.2414    5.4236  -13.6397 C   0  0  0  0  0  0  0  0  0  0  0  0
   -7.7938    4.2958  -12.7350 N   0  0  0  0  0  0  0  0  0  0  0  0
   -7.9721    3.4457  -13.1985 H   0  0  0  0  0  0  0  0  0  0  0  0
   -7.2529    5.0141  -15.0532 C   0  0  0  0  0  0  0  0  0  0  0  0
   -8.4179    4.5103  -15.6773 C   0  0  0  0  0  0  0  0  0  0  0  0
   -8.4897    4.2897  -17.0855 C   0  0  0  0  0  0  0  0  0  0  0  0
  -10.1540    3.8292  -17.8260 Br  0  0  0  0  0  0  0  0  0  0  0  0
   -7.4395    4.5032  -17.9933 C   0  0  0  0  0  0  0  0  0  0  0  0
   -6.3218    4.9848  -17.3368 C   0  0  0  0  0  0  0  0  0  0  0  0
   -5.1506    5.3209  -17.9509 C   0  0  0  0  0  0  0  0  0  0  0  0
   -4.3460    5.7364  -16.9356 N   0  0  0  0  0  0  0  0  0  0  0  0
   -4.9212    5.7123  -15.7193 N   0  0  0  0  0  0  0  0  0  0  0  0
   -6.1701    5.2515  -15.9252 C   0  0  0  0  0  0  0  0  0  0  0  0
   -3.4177    6.0310  -17.0792 H   0  0  0  0  0  0  0  0  0  0  0  0
   -8.0800    4.2879  -11.3714 C   0  0  0  0  0  0  0  0  0  0  0  0
   -7.8882    5.4346  -10.5840 C   0  0  0  0  0  0  0  0  0  0  0  0
   -8.1208    5.4062   -9.2049 C   0  0  0  0  0  0  0  0  0  0  0  0
   -8.5536    4.2222   -8.6377 C   0  0  0  0  0  0  0  0  0  0  0  0
   -8.7692    3.0939   -9.4182 C   0  0  0  0  0  0  0  0  0  0  0  0
   -8.5392    3.1055  -10.7858 C   0  0  0  0  0  0  0  0  0  0  0  0
   -9.2060    1.9653   -8.5474 C   0  0  0  0  0  0  0  0  0  0  0  0
   -9.4221    2.5461   -7.1958 N   0  0  0  0  0  0  0  0  0  0  0  0
   -8.8333    3.9003   -7.2100 C   0  0  0  0  0  0  0  0  0  0  0  0
   -8.9622    1.9713   -6.4897 H   0  0  0  0  0  0  0  0  0  0  0  0
  1  2  2  0  0  0
  2  3  1  0  0  0
  3 16  1  0  0  0
 16 17  2  0  0  0
 17 18  1  0  0  0
 18 19  2  0  0  0
 19 20  1  0  0  0
 20 21  2  0  0  0
 20 22  1  0  0  0
 22 23  1  0  0  0
 23 24  1  0  0  0
  2  5  1  0  0  0
  5  6  2  0  0  0
  6  7  1  0  0  0
  7  8  1  0  0  0
  7  9  2  0  0  0
  9 10  1  0  0  0
 10 11  2  0  0  0
 11 12  1  0  0  0
 12 13  1  0  0  0
 13 14  2  0  0  0
 21 16  1  0  0  0
 14  5  1  0  0  0
 24 19  1  0  0  0
 14 10  1  0  0  0
  3  4  1  0  0  0
 23 25  1  0  0  0
 12 15  1  0  0  0
M  END
> <minimizedAffinity>
-8.01852

> <minimizedRMSD>
0.08713

$$$$
P21343


 25 28  0  0  0  0  0  0  0  0999 V2000
   -7.0820    6.1792  -13.7413 O   0  0  0  0  0  0  0  0  0  0  0  0
   -7.5932    5.1474  -13.9379 C   0  0  0  0  0  0  0  0  0  0  0  0
   -8.2603    4.1541  -12.9546 N   0  0  0  0  0  0  0  0  0  0  0  0
   -8.6918    3.3788  -13.3812 H   0  0  0  0  0  0  0  0  0  0  0  0
   -7.7464    4.7032  -15.3349 C   0  0  0  0  0  0  0  0  0  0  0  0
   -8.9411    4.1197  -15.8217 C   0  0  0  0  0  0  0  0  0  0  0  0
   -9.1590    3.8534  -17.2034 C   0  0  0  0  0  0  0  0  0  0  0  0
  -10.3395    3.3308  -17.5581 F   0  0  0  0  0  0  0  0  0  0  0  0
   -8.2392    4.1228  -18.2259 C   0  0  0  0  0  0  0  0  0  0  0  0
   -7.0763    4.6742  -17.7105 C   0  0  0  0  0  0  0  0  0  0  0  0
   -5.9944    5.0471  -18.4545 C   0  0  0  0  0  0  0  0  0  0  0  0
   -5.0975    5.5091  -17.5415 N   0  0  0  0  0  0  0  0  0  0  0  0
   -5.5349    5.4930  -16.2684 N   0  0  0  0  0  0  0  0  0  0  0  0
   -6.7775    4.9733  -16.3268 C   0  0  0  0  0  0  0  0  0  0  0  0
   -4.2009    5.8295  -17.7918 H   0  0  0  0  0  0  0  0  0  0  0  0
   -8.3492    4.1792  -11.5644 C   0  0  0  0  0  0  0  0  0  0  0  0
   -8.0669    5.3496  -10.8420 C   0  0  0  0  0  0  0  0  0  0  0  0
   -8.1563    5.3718   -9.4465 C   0  0  0  0  0  0  0  0  0  0  0  0
   -8.5269    4.2102   -8.7959 C   0  0  0  0  0  0  0  0  0  0  0  0
   -8.8148    3.0533   -9.5074 C   0  0  0  0  0  0  0  0  0  0  0  0
   -8.7326    3.0167  -10.8913 C   0  0  0  0  0  0  0  0  0  0  0  0
   -9.2248    1.9780   -8.5613 C   0  0  0  0  0  0  0  0  0  0  0  0
   -9.0164    2.5230   -7.1924 N   0  0  0  0  0  0  0  0  0  0  0  0
   -8.7211    3.9632   -7.3410 C   0  0  0  0  0  0  0  0  0  0  0  0
   -8.2331    2.0495   -6.7423 H   0  0  0  0  0  0  0  0  0  0  0  0
  1  2  2  0  0  0
  2  3  1  0  0  0
  3 16  1  0  0  0
 16 17  2  0  0  0
 17 18  1  0  0  0
 18 19  2  0  0  0
 19 20  1  0  0  0
 20 21  2  0  0  0
 20 22  1  0  0  0
 22 23  1  0  0  0
 23 24  1  0  0  0
  2  5  1  0  0  0
  5  6  2  0  0  0
  6  7  1  0  0  0
  7  8  1  0  0  0
  7  9  2  0  0  0
  9 10  1  0  0  0
 10 11  2  0  0  0
 11 12  1  0  0  0
 12 13  1  0  0  0
 13 14  2  0  0  0
 21 16  1  0  0  0
 14  5  1  0  0  0
 24 19  1  0  0  0
 14 10  1  0  0  0
  3  4  1  0  0  0
 23 25  1  0  0  0
 12 15  1  0  0  0
M  END
> <minimizedAffinity>
-8.87915

> <minimizedRMSD>
0.30851

$$$$
P21344


 24 27  0  0  0  0  0  0  0  0999 V2000
   -7.6993    5.1990  -13.9325 C   0  0  0  0  0  0  0  0  0  0  0  0
   -7.2276    6.2498  -13.7398 O   0  0  0  0  0  0  0  0  0  0  0  0
   -8.3093    4.1770  -12.9437 N   0  0  0  0  0  0  0  0  0  0  0  0
   -8.7154    3.3861  -13.3666 H   0  0  0  0  0  0  0  0  0  0  0  0
   -5.3621    5.0523  -19.2962 O   0  0  0  0  0  0  0  0  0  0  0  0
   -5.6741    5.1553  -18.1228 C   0  0  0  0  0  0  0  0  0  0  0  0
   -4.8981    5.6686  -17.0912 N   0  0  0  0  0  0  0  0  0  0  0  0
   -5.5155    5.5956  -15.9839 N   0  0  0  0  0  0  0  0  0  0  0  0
   -6.7695    5.0211  -16.2310 C   0  0  0  0  0  0  0  0  0  0  0  0
   -6.9365    4.7285  -17.5635 C   0  0  0  0  0  0  0  0  0  0  0  0
   -8.0774    4.1656  -18.0989 C   0  0  0  0  0  0  0  0  0  0  0  0
   -9.1072    3.8611  -17.2085 C   0  0  0  0  0  0  0  0  0  0  0  0
   -8.9665    4.1361  -15.8336 C   0  0  0  0  0  0  0  0  0  0  0  0
   -7.7946    4.7354  -15.3399 C   0  0  0  0  0  0  0  0  0  0  0  0
   -8.3775    4.1939  -11.5502 C   0  0  0  0  0  0  0  0  0  0  0  0
   -8.0860    5.3594  -10.8234 C   0  0  0  0  0  0  0  0  0  0  0  0
   -8.1584    5.3716   -9.4260 C   0  0  0  0  0  0  0  0  0  0  0  0
   -8.5232    4.2066   -8.7775 C   0  0  0  0  0  0  0  0  0  0  0  0
   -8.8175    3.0543   -9.4923 C   0  0  0  0  0  0  0  0  0  0  0  0
   -8.7507    3.0273  -10.8778 C   0  0  0  0  0  0  0  0  0  0  0  0
   -9.2094    1.9689   -8.5493 C   0  0  0  0  0  0  0  0  0  0  0  0
   -9.0472    2.5232   -7.1786 N   0  0  0  0  0  0  0  0  0  0  0  0
   -8.7006    3.9519   -7.3215 C   0  0  0  0  0  0  0  0  0  0  0  0
   -8.3008    2.0301   -6.6886 H   0  0  0  0  0  0  0  0  0  0  0  0
  5  6  2  0  0  0
  6  7  1  0  0  0
  7  8  2  0  0  0
  8  9  1  0  0  0
  9 10  2  0  0  0
 10 11  1  0  0  0
 11 12  2  0  0  0
 12 13  1  0  0  0
 13 14  2  0  0  0
 14  1  1  0  0  0
  1  2  2  0  0  0
  1  3  1  0  0  0
  3 15  1  0  0  0
 15 16  2  0  0  0
 16 17  1  0  0  0
 17 18  2  0  0  0
 18 19  1  0  0  0
 19 20  2  0  0  0
 19 21  1  0  0  0
 21 22  1  0  0  0
 22 23  1  0  0  0
 10  6  1  0  0  0
 20 15  1  0  0  0
 14  9  1  0  0  0
 23 18  1  0  0  0
  3  4  1  0  0  0
 22 24  1  0  0  0
M  END
> <minimizedAffinity>
-8.71158

> <minimizedRMSD>
0.15673

$$$$
P21346


 37 41  0  0  0  0  0  0  0  0999 V2000
   -7.0137    4.8709  -13.4259 C   0  0  0  0  0  0  0  0  0  0  0  0
   -6.0970    3.8335  -13.1455 O   0  0  0  0  0  0  0  0  0  0  0  0
   -5.9281    3.8005  -12.1909 H   0  0  0  0  0  0  0  0  0  0  0  0
   -7.1993    4.8244  -14.9493 C   0  0  0  0  0  0  0  0  0  0  0  0
   -8.3886    4.3698  -15.5747 C   0  0  0  0  0  0  0  0  0  0  0  0
   -8.5124    4.2835  -16.9671 C   0  0  0  0  0  0  0  0  0  0  0  0
   -9.9838    3.7877  -17.6818 Cl  0  0  0  0  0  0  0  0  0  0  0  0
   -7.4716    4.6301  -17.8203 C   0  0  0  0  0  0  0  0  0  0  0  0
   -6.2731    5.0522  -17.2444 C   0  0  0  0  0  0  0  0  0  0  0  0
   -5.0168    5.4500  -17.7431 C   0  0  0  0  0  0  0  0  0  0  0  0
   -4.1573    5.7609  -16.7712 N   0  0  0  0  0  0  0  0  0  0  0  0
   -4.8427    5.4792  -15.6479 N   0  0  0  0  0  0  0  0  0  0  0  0
   -6.1572    5.1273  -15.8597 C   0  0  0  0  0  0  0  0  0  0  0  0
   -4.4388    5.5211  -14.7510 H   0  0  0  0  0  0  0  0  0  0  0  0
   -5.2482    6.3562  -12.6270 O   0  0  0  0  0  0  0  0  0  0  0  0
   -6.3595    6.2906  -12.9924 C   0  0  0  0  0  0  0  0  0  0  0  0
   -7.4444    7.4003  -13.1266 N   0  0  0  0  0  0  0  0  0  0  0  0
   -8.3362    7.0756  -13.3884 H   0  0  0  0  0  0  0  0  0  0  0  0
   -7.3548    8.8219  -12.9301 C   0  0  0  0  0  0  0  0  0  0  0  0
   -7.8747    9.2079  -11.5809 C   0  0  0  0  0  0  0  0  0  0  0  0
   -9.2421    9.1995  -11.2852 C   0  0  0  0  0  0  0  0  0  0  0  0
   -9.6725    9.5446  -10.0072 C   0  0  0  0  0  0  0  0  0  0  0  0
   -8.7189    9.8931   -9.0652 C   0  0  0  0  0  0  0  0  0  0  0  0
   -7.3897    9.8997   -9.3082 N   0  0  0  0  0  0  0  0  0  0  0  0
   -6.9996    9.5537  -10.5547 C   0  0  0  0  0  0  0  0  0  0  0  0
   -8.2844    4.5964  -12.7276 N   0  0  0  0  0  0  0  0  0  0  0  0
   -9.1165    4.4900  -13.2429 H   0  0  0  0  0  0  0  0  0  0  0  0
   -8.3060    4.4870  -11.3267 C   0  0  0  0  0  0  0  0  0  0  0  0
   -8.0826    5.5953  -10.4879 C   0  0  0  0  0  0  0  0  0  0  0  0
   -8.1804    5.4998   -9.0974 C   0  0  0  0  0  0  0  0  0  0  0  0
   -8.5303    4.2825   -8.5536 C   0  0  0  0  0  0  0  0  0  0  0  0
   -8.7482    3.1760   -9.3641 C   0  0  0  0  0  0  0  0  0  0  0  0
   -8.6309    3.2555  -10.7451 C   0  0  0  0  0  0  0  0  0  0  0  0
   -9.0993    2.0064   -8.5079 C   0  0  0  0  0  0  0  0  0  0  0  0
   -9.3363    2.5571   -7.1469 N   0  0  0  0  0  0  0  0  0  0  0  0
   -8.7554    3.9131   -7.1279 C   0  0  0  0  0  0  0  0  0  0  0  0
   -8.8819    1.9707   -6.4468 H   0  0  0  0  0  0  0  0  0  0  0  0
 15 16  2  0  0  0
 16 17  1  0  0  0
 17 19  1  0  0  0
 19 20  1  0  0  0
 20 21  2  0  0  0
 21 22  1  0  0  0
 22 23  2  0  0  0
 23 24  1  0  0  0
 24 25  2  0  0  0
 16  1  1  0  0  0
  1  2  1  0  0  0
  1 26  1  0  0  0
 26 28  1  0  0  0
 28 29  2  0  0  0
 29 30  1  0  0  0
 30 31  2  0  0  0
 31 32  1  0  0  0
 32 33  2  0  0  0
 32 34  1  0  0  0
 34 35  1  0  0  0
 35 36  1  0  0  0
  1  4  1  0  0  0
  4  5  2  0  0  0
  5  6  1  0  0  0
  6  7  1  0  0  0
  6  8  2  0  0  0
  8  9  1  0  0  0
  9 10  1  0  0  0
 10 11  2  0  0  0
 11 12  1  0  0  0
 12 13  1  0  0  0
 25 20  1  0  0  0
 33 28  1  0  0  0
 13  4  1  0  0  0
 36 31  1  0  0  0
 13  9  2  0  0  0
 17 18  1  0  0  0
  2  3  1  0  0  0
 26 27  1  0  0  0
 35 37  1  0  0  0
 12 14  1  0  0  0
M  END
> <minimizedAffinity>
-7.93991

> <minimizedRMSD>
0.20300

$$$$
P21349


 34 37  0  0  0  0  0  0  0  0999 V2000
   -7.3774    4.9588  -13.3439 C   0  0  0  0  0  0  0  0  0  0  0  0
   -6.1053    4.4403  -13.0006 O   0  0  0  0  0  0  0  0  0  0  0  0
   -5.9587    4.5476  -12.0477 H   0  0  0  0  0  0  0  0  0  0  0  0
   -7.5059    4.7406  -14.8577 C   0  0  0  0  0  0  0  0  0  0  0  0
   -8.6692    4.2565  -15.4948 C   0  0  0  0  0  0  0  0  0  0  0  0
   -8.7438    4.1297  -16.8884 C   0  0  0  0  0  0  0  0  0  0  0  0
  -10.1967    3.6321  -17.6320 Cl  0  0  0  0  0  0  0  0  0  0  0  0
   -7.6864    4.4690  -17.7263 C   0  0  0  0  0  0  0  0  0  0  0  0
   -6.5293    4.9715  -17.1346 C   0  0  0  0  0  0  0  0  0  0  0  0
   -5.2846    5.4364  -17.6054 C   0  0  0  0  0  0  0  0  0  0  0  0
   -4.4823    5.8413  -16.6184 N   0  0  0  0  0  0  0  0  0  0  0  0
   -5.2152    5.6136  -15.5125 N   0  0  0  0  0  0  0  0  0  0  0  0
   -6.4660    5.0943  -15.7536 C   0  0  0  0  0  0  0  0  0  0  0  0
   -4.8832    5.8033  -14.6053 H   0  0  0  0  0  0  0  0  0  0  0  0
   -9.0176    6.9083  -13.0252 N   0  0  0  0  0  0  0  0  0  0  0  0
   -7.4963    6.5603  -13.1076 C   0  0  0  0  0  0  0  0  0  0  0  0
   -6.5541    7.2583  -13.0679 O   0  0  0  0  0  0  0  0  0  0  0  0
   -9.6232    6.1440  -13.1605 H   0  0  0  0  0  0  0  0  0  0  0  0
   -9.6801    8.1704  -12.7827 C   0  0  0  0  0  0  0  0  0  0  0  0
   -9.5141   10.4606  -11.7806 C   0  0  0  0  0  0  0  0  0  0  0  0
   -9.1951    8.9773  -11.5718 C   0  0  0  0  0  0  0  0  0  0  0  0
   -9.8462    8.4967  -10.2731 C   0  0  0  0  0  0  0  0  0  0  0  0
   -8.3849    4.1894  -12.5892 N   0  0  0  0  0  0  0  0  0  0  0  0
   -9.0920    3.7214  -13.0895 H   0  0  0  0  0  0  0  0  0  0  0  0
   -8.3788    4.0956  -11.1818 C   0  0  0  0  0  0  0  0  0  0  0  0
   -8.0879    5.1810  -10.3254 C   0  0  0  0  0  0  0  0  0  0  0  0
   -8.2228    5.1012   -8.9353 C   0  0  0  0  0  0  0  0  0  0  0  0
   -8.6396    3.9091   -8.3922 C   0  0  0  0  0  0  0  0  0  0  0  0
   -8.9193    2.8214   -9.2042 C   0  0  0  0  0  0  0  0  0  0  0  0
   -8.8192    2.9029  -10.5878 C   0  0  0  0  0  0  0  0  0  0  0  0
   -9.3849    1.6894   -8.3535 C   0  0  0  0  0  0  0  0  0  0  0  0
   -9.1436    2.1035   -6.9456 N   0  0  0  0  0  0  0  0  0  0  0  0
   -8.9200    3.5625   -6.9723 C   0  0  0  0  0  0  0  0  0  0  0  0
   -8.3216    1.6275   -6.5739 H   0  0  0  0  0  0  0  0  0  0  0  0
 20 21  1  0  0  0
 21 22  1  0  0  0
 21 19  1  0  0  0
 19 15  1  0  0  0
 15 16  1  0  0  0
 16 17  2  0  0  0
 16  1  1  0  0  0
  1  2  1  0  0  0
  1 23  1  0  0  0
 23 25  1  0  0  0
 25 26  2  0  0  0
 26 27  1  0  0  0
 27 28  2  0  0  0
 28 29  1  0  0  0
 29 30  2  0  0  0
 29 31  1  0  0  0
 31 32  1  0  0  0
 32 33  1  0  0  0
  1  4  1  0  0  0
  4  5  2  0  0  0
  5  6  1  0  0  0
  6  7  1  0  0  0
  6  8  2  0  0  0
  8  9  1  0  0  0
  9 10  1  0  0  0
 10 11  2  0  0  0
 11 12  1  0  0  0
 12 13  1  0  0  0
 30 25  1  0  0  0
 13  4  1  0  0  0
 33 28  1  0  0  0
 13  9  2  0  0  0
 15 18  1  0  0  0
  2  3  1  0  0  0
 23 24  1  0  0  0
 32 34  1  0  0  0
 12 14  1  0  0  0
M  END
> <minimizedAffinity>
-8.28178

> <minimizedRMSD>
0.66425

$$$$
P21350


 27 30  0  0  0  0  0  0  0  0999 V2000
   -7.3246    4.8061  -13.6877 C   0  0  0  0  0  0  0  0  0  0  0  0
   -6.1722    4.0492  -13.3243 O   0  0  0  0  0  0  0  0  0  0  0  0
   -5.9890    4.1725  -12.3798 H   0  0  0  0  0  0  0  0  0  0  0  0
   -7.5958    4.5997  -15.1731 C   0  0  0  0  0  0  0  0  0  0  0  0
   -8.8205    4.1229  -15.7380 C   0  0  0  0  0  0  0  0  0  0  0  0
   -9.0736    3.9649  -17.1405 C   0  0  0  0  0  0  0  0  0  0  0  0
   -8.1399    4.2768  -18.1416 C   0  0  0  0  0  0  0  0  0  0  0  0
   -6.9673    4.7542  -17.5801 C   0  0  0  0  0  0  0  0  0  0  0  0
   -5.8753    5.1728  -18.2844 C   0  0  0  0  0  0  0  0  0  0  0  0
   -4.9687    5.5300  -17.3329 N   0  0  0  0  0  0  0  0  0  0  0  0
   -5.4041    5.3885  -16.0617 N   0  0  0  0  0  0  0  0  0  0  0  0
   -6.6599    4.9163  -16.1831 C   0  0  0  0  0  0  0  0  0  0  0  0
   -4.0693    5.8641  -17.5535 H   0  0  0  0  0  0  0  0  0  0  0  0
   -6.8469    7.3978  -13.3086 N   0  0  0  0  0  0  0  0  0  0  0  0
   -7.0719    6.2645  -13.4672 C   0  0  0  0  0  0  0  0  0  0  0  0
   -8.4546    4.2578  -12.9106 N   0  0  0  0  0  0  0  0  0  0  0  0
   -9.2392    3.8851  -13.3740 H   0  0  0  0  0  0  0  0  0  0  0  0
   -8.4038    4.2710  -11.4983 C   0  0  0  0  0  0  0  0  0  0  0  0
   -8.1685    5.4362  -10.7431 C   0  0  0  0  0  0  0  0  0  0  0  0
   -8.1964    5.4270   -9.3412 C   0  0  0  0  0  0  0  0  0  0  0  0
   -8.5098    4.2473   -8.6981 C   0  0  0  0  0  0  0  0  0  0  0  0
   -8.7809    3.0988   -9.4229 C   0  0  0  0  0  0  0  0  0  0  0  0
   -8.7327    3.0920  -10.8076 C   0  0  0  0  0  0  0  0  0  0  0  0
   -9.0950    1.9812   -8.4900 C   0  0  0  0  0  0  0  0  0  0  0  0
   -9.2258    2.6025   -7.1445 N   0  0  0  0  0  0  0  0  0  0  0  0
   -8.6441    3.9572   -7.2437 C   0  0  0  0  0  0  0  0  0  0  0  0
   -8.7181    2.0518   -6.4522 H   0  0  0  0  0  0  0  0  0  0  0  0
 14 15  3  0  0  0
 15  1  1  0  0  0
  1  2  1  0  0  0
  1 16  1  0  0  0
 16 18  1  0  0  0
 18 19  2  0  0  0
 19 20  1  0  0  0
 20 21  2  0  0  0
 21 22  1  0  0  0
 22 23  2  0  0  0
 22 24  1  0  0  0
 24 25  1  0  0  0
 25 26  1  0  0  0
  1  4  1  0  0  0
  4  5  2  0  0  0
  5  6  1  0  0  0
  6  7  2  0  0  0
  7  8  1  0  0  0
  8  9  2  0  0  0
  9 10  1  0  0  0
 10 11  1  0  0  0
 11 12  2  0  0  0
 23 18  1  0  0  0
 12  4  1  0  0  0
 26 21  1  0  0  0
 12  8  1  0  0  0
  2  3  1  0  0  0
 16 17  1  0  0  0
 25 27  1  0  0  0
 10 13  1  0  0  0
M  END
> <minimizedAffinity>
-8.14539

> <minimizedRMSD>
0.13280

$$$$
P21355


 26 29  0  0  0  0  0  0  0  0999 V2000
   -7.6273    5.4130  -13.6380 C   0  0  0  0  0  0  0  0  0  0  0  0
   -7.4040    6.5359  -13.4078 O   0  0  0  0  0  0  0  0  0  0  0  0
   -8.0740    4.2672  -12.7001 N   0  0  0  0  0  0  0  0  0  0  0  0
   -8.2724    3.4165  -13.1542 H   0  0  0  0  0  0  0  0  0  0  0  0
   -9.9526    3.6873  -17.7921 C   0  0  0  0  0  0  0  0  0  0  0  0
   -8.7006    4.1697  -17.1243 C   0  0  0  0  0  0  0  0  0  0  0  0
   -8.6839    4.4070  -15.7096 C   0  0  0  0  0  0  0  0  0  0  0  0
   -7.5629    4.9561  -15.0365 C   0  0  0  0  0  0  0  0  0  0  0  0
   -6.4425    5.2101  -15.8542 C   0  0  0  0  0  0  0  0  0  0  0  0
   -5.2202    5.7076  -15.5841 N   0  0  0  0  0  0  0  0  0  0  0  0
   -4.5869    5.7519  -16.7666 N   0  0  0  0  0  0  0  0  0  0  0  0
   -5.3222    5.3117  -17.8305 C   0  0  0  0  0  0  0  0  0  0  0  0
   -4.8010    5.3283  -19.2149 C   0  0  0  0  0  0  0  0  0  0  0  0
   -6.5111    4.9271  -17.2683 C   0  0  0  0  0  0  0  0  0  0  0  0
   -7.5900    4.4051  -17.9638 C   0  0  0  0  0  0  0  0  0  0  0  0
   -3.6624    6.0770  -16.8602 H   0  0  0  0  0  0  0  0  0  0  0  0
   -8.2414    4.2429  -11.3160 C   0  0  0  0  0  0  0  0  0  0  0  0
   -7.9588    5.3767  -10.5345 C   0  0  0  0  0  0  0  0  0  0  0  0
   -8.1195    5.3528   -9.1452 C   0  0  0  0  0  0  0  0  0  0  0  0
   -8.5820    4.1884   -8.5641 C   0  0  0  0  0  0  0  0  0  0  0  0
   -8.8653    3.0644   -9.3347 C   0  0  0  0  0  0  0  0  0  0  0  0
   -8.6970    3.0696  -10.7101 C   0  0  0  0  0  0  0  0  0  0  0  0
   -9.3134    1.9609   -8.4336 C   0  0  0  0  0  0  0  0  0  0  0  0
   -9.6429    2.6261   -7.1445 N   0  0  0  0  0  0  0  0  0  0  0  0
   -8.8515    3.8746   -7.1308 C   0  0  0  0  0  0  0  0  0  0  0  0
   -9.3821    2.0301   -6.3589 H   0  0  0  0  0  0  0  0  0  0  0  0
  5  6  1  0  0  0
  6  7  1  0  0  0
  7  8  2  0  0  0
  8  1  1  0  0  0
  1  2  2  0  0  0
  1  3  1  0  0  0
  3 17  1  0  0  0
 17 18  2  0  0  0
 18 19  1  0  0  0
 19 20  2  0  0  0
 20 21  1  0  0  0
 21 22  2  0  0  0
 21 23  1  0  0  0
 23 24  1  0  0  0
 24 25  1  0  0  0
  8  9  1  0  0  0
  9 10  2  0  0  0
 10 11  1  0  0  0
 11 12  1  0  0  0
 12 13  1  0  0  0
 12 14  2  0  0  0
 14 15  1  0  0  0
 15  6  2  0  0  0
 22 17  1  0  0  0
 14  9  1  0  0  0
 25 20  1  0  0  0
  3  4  1  0  0  0
 24 26  1  0  0  0
 11 16  1  0  0  0
M  END
> <minimizedAffinity>
-8.90382

> <minimizedRMSD>
0.23183

$$$$
P21357


 30 34  0  0  0  0  0  0  0  0999 V2000
   -7.5856    4.5681  -15.4677 C   0  0  0  0  0  0  0  0  0  0  0  0
   -8.8545    4.0346  -15.7531 C   0  0  0  0  0  0  0  0  0  0  0  0
   -9.2498    3.8273  -17.0762 C   0  0  0  0  0  0  0  0  0  0  0  0
  -10.4764    3.3750  -17.3389 F   0  0  0  0  0  0  0  0  0  0  0  0
   -8.4113    4.1036  -18.1363 C   0  0  0  0  0  0  0  0  0  0  0  0
   -7.1687    4.6265  -17.8407 C   0  0  0  0  0  0  0  0  0  0  0  0
   -6.7469    4.8889  -16.5362 C   0  0  0  0  0  0  0  0  0  0  0  0
   -5.4716    5.5102  -16.5084 N   0  0  0  0  0  0  0  0  0  0  0  0
   -5.1051    5.7535  -17.9340 C   0  0  0  0  0  0  0  0  0  0  0  0
   -5.2362    7.2613  -18.2302 C   0  0  0  0  0  0  0  0  0  0  0  0
   -4.9560    7.5993  -19.6981 C   0  0  0  0  0  0  0  0  0  0  0  0
   -3.9753    6.6451  -20.3712 C   0  0  0  0  0  0  0  0  0  0  0  0
   -2.9823    6.0796  -19.3685 C   0  0  0  0  0  0  0  0  0  0  0  0
   -3.6434    5.3369  -18.1985 C   0  0  0  0  0  0  0  0  0  0  0  0
   -6.1039    4.9607  -18.8127 C   0  0  0  0  0  0  0  0  0  0  0  0
   -4.9382    5.7347  -15.7120 H   0  0  0  0  0  0  0  0  0  0  0  0
   -6.5644    5.8212  -13.8342 O   0  0  0  0  0  0  0  0  0  0  0  0
   -7.2680    4.9135  -14.0494 C   0  0  0  0  0  0  0  0  0  0  0  0
   -8.0599    4.0017  -13.0745 N   0  0  0  0  0  0  0  0  0  0  0  0
   -8.5266    3.2478  -13.5024 H   0  0  0  0  0  0  0  0  0  0  0  0
   -8.2180    4.0769  -11.6899 C   0  0  0  0  0  0  0  0  0  0  0  0
   -7.9631    5.2631  -10.9839 C   0  0  0  0  0  0  0  0  0  0  0  0
   -8.1401    5.3248   -9.5958 C   0  0  0  0  0  0  0  0  0  0  0  0
   -8.5781    4.1896   -8.9391 C   0  0  0  0  0  0  0  0  0  0  0  0
   -8.8287    3.0118   -9.6347 C   0  0  0  0  0  0  0  0  0  0  0  0
   -8.6553    2.9364  -11.0074 C   0  0  0  0  0  0  0  0  0  0  0  0
   -9.2427    1.9519   -8.6666 C   0  0  0  0  0  0  0  0  0  0  0  0
   -9.5723    2.6799   -7.4126 N   0  0  0  0  0  0  0  0  0  0  0  0
   -8.8360    3.9596   -7.4876 C   0  0  0  0  0  0  0  0  0  0  0  0
   -9.2702    2.1429   -6.5997 H   0  0  0  0  0  0  0  0  0  0  0  0
 17 18  2  0  0  0
 18 19  1  0  0  0
 19 21  1  0  0  0
 21 22  2  0  0  0
 22 23  1  0  0  0
 23 24  2  0  0  0
 24 25  1  0  0  0
 25 26  2  0  0  0
 25 27  1  0  0  0
 27 28  1  0  0  0
 28 29  1  0  0  0
 18  1  1  0  0  0
  1  2  2  0  0  0
  2  3  1  0  0  0
  3  4  1  0  0  0
  3  5  2  0  0  0
  5  6  1  0  0  0
  6  7  2  0  0  0
  7  8  1  0  0  0
  8  9  1  0  0  0
  9 10  1  0  0  0
 10 11  1  0  0  0
 11 12  1  0  0  0
 12 13  1  0  0  0
 13 14  1  0  0  0
  9 15  1  0  0  0
 26 21  1  0  0  0
  7  1  1  0  0  0
 14  9  1  0  0  0
 29 24  1  0  0  0
 15  6  1  0  0  0
 19 20  1  0  0  0
 28 30  1  0  0  0
  8 16  1  0  0  0
M  END
> <minimizedAffinity>
-9.95017

> <minimizedRMSD>
0.42906

$$$$
P21358


 30 34  0  0  0  0  0  0  0  0999 V2000
   -7.5477    4.5290  -15.3644 C   0  0  0  0  0  0  0  0  0  0  0  0
   -8.8300    4.0226  -15.6570 C   0  0  0  0  0  0  0  0  0  0  0  0
   -9.2658    3.8545  -16.9799 C   0  0  0  0  0  0  0  0  0  0  0  0
   -8.4276    4.1637  -18.0364 C   0  0  0  0  0  0  0  0  0  0  0  0
   -7.1774    4.6730  -17.7382 C   0  0  0  0  0  0  0  0  0  0  0  0
   -6.7222    4.8718  -16.4340 C   0  0  0  0  0  0  0  0  0  0  0  0
   -5.4604    5.5096  -16.4104 N   0  0  0  0  0  0  0  0  0  0  0  0
   -5.0813    5.7523  -17.8251 C   0  0  0  0  0  0  0  0  0  0  0  0
   -3.6905    5.2138  -18.1419 C   0  0  0  0  0  0  0  0  0  0  0  0
   -3.3097    5.4606  -19.6082 C   0  0  0  0  0  0  0  0  0  0  0  0
   -3.8936    6.6722  -20.1950 N   0  0  0  0  0  0  0  0  0  0  0  0
   -4.1091    7.7017  -19.1832 C   0  0  0  0  0  0  0  0  0  0  0  0
   -5.0839    7.2794  -18.0792 C   0  0  0  0  0  0  0  0  0  0  0  0
   -6.1473    5.0792  -18.7198 C   0  0  0  0  0  0  0  0  0  0  0  0
   -4.9358    5.7465  -15.6117 H   0  0  0  0  0  0  0  0  0  0  0  0
   -4.7883    6.4356  -20.6238 H   0  0  0  0  0  0  0  0  0  0  0  0
   -6.3688    5.6257  -13.7150 O   0  0  0  0  0  0  0  0  0  0  0  0
   -7.1928    4.8270  -13.9375 C   0  0  0  0  0  0  0  0  0  0  0  0
   -8.0953    4.0159  -12.9683 N   0  0  0  0  0  0  0  0  0  0  0  0
   -8.6649    3.3409  -13.4032 H   0  0  0  0  0  0  0  0  0  0  0  0
   -8.2301    4.0883  -11.5831 C   0  0  0  0  0  0  0  0  0  0  0  0
   -7.9824    5.2794  -10.8845 C   0  0  0  0  0  0  0  0  0  0  0  0
   -8.1412    5.3415   -9.4953 C   0  0  0  0  0  0  0  0  0  0  0  0
   -8.5424    4.1991   -8.8277 C   0  0  0  0  0  0  0  0  0  0  0  0
   -8.7985    3.0217   -9.5169 C   0  0  0  0  0  0  0  0  0  0  0  0
   -8.6519    2.9470  -10.8936 C   0  0  0  0  0  0  0  0  0  0  0  0
   -9.2602    1.9767   -8.5595 C   0  0  0  0  0  0  0  0  0  0  0  0
   -9.0758    2.5506   -7.1993 N   0  0  0  0  0  0  0  0  0  0  0  0
   -8.8041    3.9927   -7.3763 C   0  0  0  0  0  0  0  0  0  0  0  0
   -8.2890    2.1000   -6.7320 H   0  0  0  0  0  0  0  0  0  0  0  0
 17 18  2  0  0  0
 18 19  1  0  0  0
 19 21  1  0  0  0
 21 22  2  0  0  0
 22 23  1  0  0  0
 23 24  2  0  0  0
 24 25  1  0  0  0
 25 26  2  0  0  0
 25 27  1  0  0  0
 27 28  1  0  0  0
 28 29  1  0  0  0
 18  1  1  0  0  0
  1  2  2  0  0  0
  2  3  1  0  0  0
  3  4  2  0  0  0
  4  5  1  0  0  0
  5  6  2  0  0  0
  6  7  1  0  0  0
  7  8  1  0  0  0
  8  9  1  0  0  0
  9 10  1  0  0  0
 10 11  1  0  0  0
 11 12  1  0  0  0
 12 13  1  0  0  0
  8 14  1  0  0  0
 26 21  1  0  0  0
  6  1  1  0  0  0
 13  8  1  0  0  0
 29 24  1  0  0  0
 14  5  1  0  0  0
 19 20  1  0  0  0
 28 30  1  0  0  0
  7 15  1  0  0  0
 11 16  1  0  0  0
M  END
> <minimizedAffinity>
-9.76057

> <minimizedRMSD>
0.29887

$$$$
P21362


 27 30  0  0  0  0  0  0  0  0999 V2000
   -8.2331    4.2147  -12.9659 N   0  0  0  0  0  0  0  0  0  0  0  0
   -7.1663    4.7773  -13.9361 C   0  0  0  0  0  0  0  0  0  0  0  0
   -6.1984    5.3912  -13.7213 O   0  0  0  0  0  0  0  0  0  0  0  0
   -8.9249    3.6584  -13.3916 H   0  0  0  0  0  0  0  0  0  0  0  0
   -7.5025    4.5050  -15.3465 C   0  0  0  0  0  0  0  0  0  0  0  0
   -8.7654    4.0193  -15.7616 C   0  0  0  0  0  0  0  0  0  0  0  0
   -9.1398    3.9252  -17.1332 C   0  0  0  0  0  0  0  0  0  0  0  0
  -10.3659    3.4665  -17.4125 F   0  0  0  0  0  0  0  0  0  0  0  0
   -8.3292    4.2960  -18.2146 C   0  0  0  0  0  0  0  0  0  0  0  0
   -7.0976    4.7512  -17.7715 C   0  0  0  0  0  0  0  0  0  0  0  0
   -6.0911    5.1884  -18.5833 C   0  0  0  0  0  0  0  0  0  0  0  0
   -5.0821    5.5108  -17.7296 N   0  0  0  0  0  0  0  0  0  0  0  0
   -5.3737    5.3364  -16.4278 N   0  0  0  0  0  0  0  0  0  0  0  0
   -6.6377    4.8678  -16.4054 C   0  0  0  0  0  0  0  0  0  0  0  0
   -4.2093    5.8447  -18.0393 H   0  0  0  0  0  0  0  0  0  0  0  0
   -8.2324    5.5643  -10.8300 C   0  0  0  0  0  0  0  0  0  0  0  0
   -8.2933    5.5332   -9.4178 C   0  0  0  0  0  0  0  0  0  0  0  0
   -8.5476    4.3401   -8.7731 C   0  0  0  0  0  0  0  0  0  0  0  0
   -8.7506    3.1808   -9.4983 C   0  0  0  0  0  0  0  0  0  0  0  0
   -8.6628    3.1745  -10.8828 C   0  0  0  0  0  0  0  0  0  0  0  0
   -8.3752    4.3691  -11.5733 C   0  0  0  0  0  0  0  0  0  0  0  0
   -9.0187    2.0529   -8.5587 C   0  0  0  0  0  0  0  0  0  0  0  0
   -9.1857    2.6742   -7.2192 N   0  0  0  0  0  0  0  0  0  0  0  0
   -8.6687    4.0514   -7.3165 C   0  0  0  0  0  0  0  0  0  0  0  0
   -8.6576    2.1500   -6.5215 H   0  0  0  0  0  0  0  0  0  0  0  0
   -8.1026    8.0123  -11.6628 N   0  0  0  0  0  0  0  0  0  0  0  0
   -8.1288    6.8842  -11.3828 C   0  0  0  0  0  0  0  0  0  0  0  0
 26 27  3  0  0  0
 27 16  1  0  0  0
 16 17  2  0  0  0
 17 18  1  0  0  0
 18 19  2  0  0  0
 19 20  1  0  0  0
 20 21  2  0  0  0
 21  1  1  0  0  0
  1  2  1  0  0  0
  2  3  2  0  0  0
  2  5  1  0  0  0
  5  6  2  0  0  0
  6  7  1  0  0  0
  7  8  1  0  0  0
  7  9  2  0  0  0
  9 10  1  0  0  0
 10 11  2  0  0  0
 11 12  1  0  0  0
 12 13  1  0  0  0
 13 14  2  0  0  0
 19 22  1  0  0  0
 22 23  1  0  0  0
 23 24  1  0  0  0
 21 16  1  0  0  0
 14  5  1  0  0  0
 24 18  1  0  0  0
 14 10  1  0  0  0
  1  4  1  0  0  0
 12 15  1  0  0  0
 23 25  1  0  0  0
M  END
> <minimizedAffinity>
-8.40758

> <minimizedRMSD>
0.44217

$$$$
P21364


 34 38  0  0  0  0  0  0  0  0999 V2000
   -3.4371    7.6980  -18.1410 C   0  0  0  0  0  0  0  0  0  0  0  0
   -2.8339    6.5742  -17.4222 N   0  0  0  0  0  0  0  0  0  0  0  0
   -3.6500    5.4010  -17.7427 N   0  0  0  0  0  0  0  0  0  0  0  0
   -5.0737    5.7601  -17.5783 C   0  0  0  0  0  0  0  0  0  0  0  0
   -5.9491    5.0097  -18.6250 C   0  0  0  0  0  0  0  0  0  0  0  0
   -7.1378    4.6344  -17.8083 C   0  0  0  0  0  0  0  0  0  0  0  0
   -8.3196    4.0498  -18.2217 C   0  0  0  0  0  0  0  0  0  0  0  0
   -9.2637    3.7545  -17.2469 C   0  0  0  0  0  0  0  0  0  0  0  0
  -10.4163    3.1839  -17.6128 F   0  0  0  0  0  0  0  0  0  0  0  0
   -9.0471    4.0455  -15.8946 C   0  0  0  0  0  0  0  0  0  0  0  0
   -7.8623    4.6696  -15.4991 C   0  0  0  0  0  0  0  0  0  0  0  0
   -6.9075    4.9525  -16.4704 C   0  0  0  0  0  0  0  0  0  0  0  0
   -5.6226    5.4961  -16.2528 N   0  0  0  0  0  0  0  0  0  0  0  0
   -5.2117    7.5499  -17.8920 S   0  0  0  0  0  0  0  0  0  0  0  0
   -2.8455    6.7496  -16.4175 H   0  0  0  0  0  0  0  0  0  0  0  0
   -3.4134    4.6349  -17.1122 H   0  0  0  0  0  0  0  0  0  0  0  0
   -5.1872    5.6626  -15.3857 H   0  0  0  0  0  0  0  0  0  0  0  0
   -7.6586    5.1479  -14.1051 C   0  0  0  0  0  0  0  0  0  0  0  0
   -7.0151    6.1106  -13.9465 O   0  0  0  0  0  0  0  0  0  0  0  0
   -8.3846    4.2468  -13.0788 N   0  0  0  0  0  0  0  0  0  0  0  0
   -8.9303    3.5289  -13.4740 H   0  0  0  0  0  0  0  0  0  0  0  0
   -8.3921    4.2856  -11.6858 C   0  0  0  0  0  0  0  0  0  0  0  0
   -8.0820    5.4644  -10.9881 C   0  0  0  0  0  0  0  0  0  0  0  0
   -8.0974    5.4956   -9.5891 C   0  0  0  0  0  0  0  0  0  0  0  0
   -8.4318    4.3375   -8.9119 C   0  0  0  0  0  0  0  0  0  0  0  0
   -8.7370    3.1706   -9.6004 C   0  0  0  0  0  0  0  0  0  0  0  0
   -8.7190    3.1230  -10.9852 C   0  0  0  0  0  0  0  0  0  0  0  0
   -9.0345    2.0822   -8.6268 C   0  0  0  0  0  0  0  0  0  0  0  0
   -9.1052    2.7356   -7.2936 N   0  0  0  0  0  0  0  0  0  0  0  0
   -8.5309    4.0879   -7.4463 C   0  0  0  0  0  0  0  0  0  0  0  0
   -8.5666    2.2009   -6.6121 H   0  0  0  0  0  0  0  0  0  0  0  0
   -3.9847   10.0558  -17.2396 C   0  0  0  0  0  0  0  0  0  0  0  0
   -2.9023    9.0753  -17.7138 C   0  0  0  0  0  0  0  0  0  0  0  0
   -1.8414    8.9312  -16.6137 C   0  0  0  0  0  0  0  0  0  0  0  0
 32 33  1  0  0  0
 33 34  1  0  0  0
  1 33  1  0  0  0
  1  2  1  0  0  0
  2  3  1  0  0  0
  3  4  1  0  0  0
  4  5  1  0  0  0
  5  6  1  0  0  0
  6  7  2  0  0  0
  7  8  1  0  0  0
  8  9  1  0  0  0
  8 10  2  0  0  0
 10 11  1  0  0  0
 11 18  1  0  0  0
 18 19  2  0  0  0
 18 20  1  0  0  0
 20 22  1  0  0  0
 22 23  2  0  0  0
 23 24  1  0  0  0
 24 25  2  0  0  0
 25 26  1  0  0  0
 26 27  2  0  0  0
 26 28  1  0  0  0
 28 29  1  0  0  0
 29 30  1  0  0  0
 11 12  2  0  0  0
 12 13  1  0  0  0
  4 14  1  0  0  0
 14  1  1  0  0  0
 13  4  1  0  0  0
 12  6  1  0  0  0
 27 22  1  0  0  0
 30 25  1  0  0  0
  2 15  1  0  0  0
  3 16  1  0  0  0
 20 21  1  0  0  0
 29 31  1  0  0  0
 13 17  1  0  0  0
M  END
> <minimizedAffinity>
-9.29661

> <minimizedRMSD>
0.60169

$$$$
P21366


 28 32  0  0  0  0  0  0  0  0999 V2000
   -7.5277    4.2279  -13.0220 N   0  0  0  0  0  0  0  0  0  0  0  0
   -7.1356    3.3835  -13.3420 H   0  0  0  0  0  0  0  0  0  0  0  0
   -8.2271    1.4087   -8.6397 N   0  0  0  0  0  0  0  0  0  0  0  0
   -9.1723    2.4700   -8.6884 C   0  0  0  0  0  0  0  0  0  0  0  0
   -9.1739    3.0611   -7.3498 N   0  0  0  0  0  0  0  0  0  0  0  0
   -8.4034    4.3265   -7.4409 C   0  0  0  0  0  0  0  0  0  0  0  0
   -8.2116    4.6012   -8.8931 C   0  0  0  0  0  0  0  0  0  0  0  0
   -7.6009    5.6530   -9.5400 C   0  0  0  0  0  0  0  0  0  0  0  0
   -7.4087    5.5518  -10.9266 C   0  0  0  0  0  0  0  0  0  0  0  0
   -7.8341    4.4232  -11.6623 C   0  0  0  0  0  0  0  0  0  0  0  0
   -8.4722    3.3910  -10.9793 C   0  0  0  0  0  0  0  0  0  0  0  0
   -8.6584    3.5057   -9.6132 C   0  0  0  0  0  0  0  0  0  0  0  0
   -8.5631    0.6830   -8.0065 H   0  0  0  0  0  0  0  0  0  0  0  0
   -7.3324    1.7653   -8.3040 H   0  0  0  0  0  0  0  0  0  0  0  0
   -8.7308    2.4270   -6.6850 H   0  0  0  0  0  0  0  0  0  0  0  0
   -7.8120    5.3174  -13.9311 C   0  0  0  0  0  0  0  0  0  0  0  0
   -9.2544    5.6468  -13.9601 N   0  0  0  0  0  0  0  0  0  0  0  0
   -9.7053    5.0466  -15.0184 C   0  0  0  0  0  0  0  0  0  0  0  0
   -8.7306    4.4168  -15.8804 C   0  0  0  0  0  0  0  0  0  0  0  0
   -8.8950    3.9495  -17.1844 C   0  0  0  0  0  0  0  0  0  0  0  0
   -7.8204    4.1316  -18.0490 C   0  0  0  0  0  0  0  0  0  0  0  0
   -6.6930    4.7503  -17.5169 C   0  0  0  0  0  0  0  0  0  0  0  0
   -6.5135    5.0968  -16.1933 C   0  0  0  0  0  0  0  0  0  0  0  0
   -7.5469    4.8840  -15.3344 C   0  0  0  0  0  0  0  0  0  0  0  0
   -5.3237    5.7917  -15.9817 N   0  0  0  0  0  0  0  0  0  0  0  0
   -4.7598    5.9235  -17.1134 N   0  0  0  0  0  0  0  0  0  0  0  0
   -5.5251    5.3398  -18.1175 C   0  0  0  0  0  0  0  0  0  0  0  0
   -5.3245    5.3546  -19.3173 O   0  0  0  0  0  0  0  0  0  0  0  0
  4  3  1  0  0  0
  4  5  1  0  0  0
  5  6  1  0  0  0
  6  7  1  0  0  0
  7  8  2  0  0  0
  8  9  1  0  0  0
  9 10  2  0  0  0
 10  1  1  0  0  0
 16  1  1  0  0  0
 16 17  1  0  0  0
 17 18  2  0  0  0
 18 19  1  0  0  0
 19 20  2  0  0  0
 20 21  1  0  0  0
 21 22  2  0  0  0
 22 23  1  0  0  0
 23 24  2  0  0  0
 23 25  1  0  0  0
 25 26  2  0  0  0
 26 27  1  0  0  0
 27 28  2  0  0  0
 10 11  1  0  0  0
 11 12  2  0  0  0
 12  4  1  0  0  0
 12  7  1  0  0  0
 24 16  1  0  0  0
 24 19  1  0  0  0
 27 22  1  0  0  0
  3 13  1  0  0  0
  3 14  1  0  0  0
  5 15  1  0  0  0
  1  2  1  0  0  0
M  END
> <minimizedAffinity>
-8.75520

> <minimizedRMSD>
0.52189

$$$$
P21368


 34 37  0  0  0  0  0  0  0  0999 V2000
   -7.1219    4.7835  -13.4715 C   0  0  0  0  0  0  0  0  0  0  0  0
   -6.0271    3.9322  -13.1332 O   0  0  0  0  0  0  0  0  0  0  0  0
   -5.9092    3.9242  -12.1704 H   0  0  0  0  0  0  0  0  0  0  0  0
   -7.2388    4.7399  -14.9984 C   0  0  0  0  0  0  0  0  0  0  0  0
   -8.4176    4.3621  -15.6738 C   0  0  0  0  0  0  0  0  0  0  0  0
   -8.4801    4.3078  -17.0664 C   0  0  0  0  0  0  0  0  0  0  0  0
  -10.0873    3.8479  -17.8978 Br  0  0  0  0  0  0  0  0  0  0  0  0
   -7.4018    4.6424  -17.8759 C   0  0  0  0  0  0  0  0  0  0  0  0
   -6.2275    5.0509  -17.2458 C   0  0  0  0  0  0  0  0  0  0  0  0
   -4.9562    5.4727  -17.6835 C   0  0  0  0  0  0  0  0  0  0  0  0
   -4.1350    5.7549  -16.6699 N   0  0  0  0  0  0  0  0  0  0  0  0
   -4.8812    5.4887  -15.5838 N   0  0  0  0  0  0  0  0  0  0  0  0
   -6.1654    5.0827  -15.8572 C   0  0  0  0  0  0  0  0  0  0  0  0
   -4.5355    5.5776  -14.6663 H   0  0  0  0  0  0  0  0  0  0  0  0
   -7.4682    7.2278  -13.3116 O   0  0  0  0  0  0  0  0  0  0  0  0
   -6.7937    6.3088  -13.0466 C   0  0  0  0  0  0  0  0  0  0  0  0
   -5.4161    6.2440  -12.3164 N   0  0  0  0  0  0  0  0  0  0  0  0
   -5.0097    5.3479  -12.2812 H   0  0  0  0  0  0  0  0  0  0  0  0
   -4.6397    7.2865  -11.6832 C   0  0  0  0  0  0  0  0  0  0  0  0
   -5.3174    7.9240  -10.4748 C   0  0  0  0  0  0  0  0  0  0  0  0
   -4.5317    8.9263   -9.9988 F   0  0  0  0  0  0  0  0  0  0  0  0
   -5.4193    7.0149   -9.4705 F   0  0  0  0  0  0  0  0  0  0  0  0
   -8.3272    4.2573  -12.8169 N   0  0  0  0  0  0  0  0  0  0  0  0
   -9.0832    3.9317  -13.3569 H   0  0  0  0  0  0  0  0  0  0  0  0
   -8.3921    4.2225  -11.4116 C   0  0  0  0  0  0  0  0  0  0  0  0
   -8.1989    5.3701  -10.6190 C   0  0  0  0  0  0  0  0  0  0  0  0
   -8.2697    5.3255   -9.2215 C   0  0  0  0  0  0  0  0  0  0  0  0
   -8.5916    4.1254   -8.6226 C   0  0  0  0  0  0  0  0  0  0  0  0
   -8.8260    2.9928   -9.3866 C   0  0  0  0  0  0  0  0  0  0  0  0
   -8.7190    3.0186  -10.7689 C   0  0  0  0  0  0  0  0  0  0  0  0
   -9.1805    1.8545   -8.4919 C   0  0  0  0  0  0  0  0  0  0  0  0
   -9.3569    2.4428   -7.1371 N   0  0  0  0  0  0  0  0  0  0  0  0
   -8.7770    3.8000   -7.1811 C   0  0  0  0  0  0  0  0  0  0  0  0
   -8.8709    1.8758   -6.4424 H   0  0  0  0  0  0  0  0  0  0  0  0
 15 16  2  0  0  0
 16 17  1  0  0  0
 17 19  1  0  0  0
 19 20  1  0  0  0
 20 21  1  0  0  0
 20 22  1  0  0  0
 16  1  1  0  0  0
  1  2  1  0  0  0
  1 23  1  0  0  0
 23 25  1  0  0  0
 25 26  2  0  0  0
 26 27  1  0  0  0
 27 28  2  0  0  0
 28 29  1  0  0  0
 29 30  2  0  0  0
 29 31  1  0  0  0
 31 32  1  0  0  0
 32 33  1  0  0  0
  1  4  1  0  0  0
  4  5  2  0  0  0
  5  6  1  0  0  0
  6  7  1  0  0  0
  6  8  2  0  0  0
  8  9  1  0  0  0
  9 10  1  0  0  0
 10 11  2  0  0  0
 11 12  1  0  0  0
 12 13  1  0  0  0
 30 25  1  0  0  0
 13  4  1  0  0  0
 33 28  1  0  0  0
 13  9  2  0  0  0
 17 18  1  0  0  0
  2  3  1  0  0  0
 23 24  1  0  0  0
 32 34  1  0  0  0
 12 14  1  0  0  0
M  END
> <minimizedAffinity>
-7.46794

> <minimizedRMSD>
0.12692

$$$$
P21369


 34 37  0  0  0  0  0  0  0  0999 V2000
   -7.2524    4.1320  -13.4891 C   0  0  0  0  0  0  0  0  0  0  0  0
   -6.4501    5.2342  -13.0659 O   0  0  0  0  0  0  0  0  0  0  0  0
   -6.3335    5.1986  -12.1036 H   0  0  0  0  0  0  0  0  0  0  0  0
   -7.3470    4.3214  -15.0082 C   0  0  0  0  0  0  0  0  0  0  0  0
   -8.5516    4.2094  -15.7458 C   0  0  0  0  0  0  0  0  0  0  0  0
   -8.6021    4.3336  -17.1397 C   0  0  0  0  0  0  0  0  0  0  0  0
  -10.1004    4.2239  -17.9802 Cl  0  0  0  0  0  0  0  0  0  0  0  0
   -7.4592    4.6027  -17.8825 C   0  0  0  0  0  0  0  0  0  0  0  0
   -6.2597    4.7955  -17.1932 C   0  0  0  0  0  0  0  0  0  0  0  0
   -4.9378    5.1190  -17.5611 C   0  0  0  0  0  0  0  0  0  0  0  0
   -4.1240    5.2225  -16.5088 N   0  0  0  0  0  0  0  0  0  0  0  0
   -4.9226    4.9205  -15.4695 N   0  0  0  0  0  0  0  0  0  0  0  0
   -6.2282    4.6561  -15.8103 C   0  0  0  0  0  0  0  0  0  0  0  0
   -4.5987    4.8912  -14.5403 H   0  0  0  0  0  0  0  0  0  0  0  0
   -6.9567    1.6783  -13.5168 O   0  0  0  0  0  0  0  0  0  0  0  0
   -6.5894    2.7081  -13.1010 C   0  0  0  0  0  0  0  0  0  0  0  0
   -5.4564    3.0393  -12.0847 N   0  0  0  0  0  0  0  0  0  0  0  0
   -5.2887    4.0004  -11.9527 H   0  0  0  0  0  0  0  0  0  0  0  0
   -4.6098    2.1630  -11.3026 C   0  0  0  0  0  0  0  0  0  0  0  0
   -5.3660    1.3655  -10.2438 C   0  0  0  0  0  0  0  0  0  0  0  0
   -5.6296    2.1860   -9.1883 F   0  0  0  0  0  0  0  0  0  0  0  0
   -4.5603    0.3810   -9.7639 F   0  0  0  0  0  0  0  0  0  0  0  0
   -8.5634    4.2734  -12.8204 N   0  0  0  0  0  0  0  0  0  0  0  0
   -9.4048    4.3610  -13.3242 H   0  0  0  0  0  0  0  0  0  0  0  0
   -8.5244    4.2740  -11.3944 C   0  0  0  0  0  0  0  0  0  0  0  0
   -8.1896    5.4467  -10.6844 C   0  0  0  0  0  0  0  0  0  0  0  0
   -8.1192    5.4622   -9.2866 C   0  0  0  0  0  0  0  0  0  0  0  0
   -8.4127    4.2985   -8.6047 C   0  0  0  0  0  0  0  0  0  0  0  0
   -8.7486    3.1349   -9.2853 C   0  0  0  0  0  0  0  0  0  0  0  0
   -8.7932    3.1000  -10.6711 C   0  0  0  0  0  0  0  0  0  0  0  0
   -9.0035    2.0464   -8.2936 C   0  0  0  0  0  0  0  0  0  0  0  0
   -9.1192    2.7337   -6.9808 N   0  0  0  0  0  0  0  0  0  0  0  0
   -8.4280    4.0311   -7.1375 C   0  0  0  0  0  0  0  0  0  0  0  0
   -8.6721    2.1799   -6.2502 H   0  0  0  0  0  0  0  0  0  0  0  0
 15 16  2  0  0  0
 16 17  1  0  0  0
 17 19  1  0  0  0
 19 20  1  0  0  0
 20 21  1  0  0  0
 20 22  1  0  0  0
 16  1  1  0  0  0
  1  2  1  0  0  0
  1 23  1  0  0  0
 23 25  1  0  0  0
 25 26  2  0  0  0
 26 27  1  0  0  0
 27 28  2  0  0  0
 28 29  1  0  0  0
 29 30  2  0  0  0
 29 31  1  0  0  0
 31 32  1  0  0  0
 32 33  1  0  0  0
  1  4  1  0  0  0
  4  5  2  0  0  0
  5  6  1  0  0  0
  6  7  1  0  0  0
  6  8  2  0  0  0
  8  9  1  0  0  0
  9 10  1  0  0  0
 10 11  2  0  0  0
 11 12  1  0  0  0
 12 13  1  0  0  0
 30 25  1  0  0  0
 13  4  1  0  0  0
 33 28  1  0  0  0
 13  9  2  0  0  0
 17 18  1  0  0  0
  2  3  1  0  0  0
 23 24  1  0  0  0
 32 34  1  0  0  0
 12 14  1  0  0  0
M  END
> <minimizedAffinity>
-8.61785

> <minimizedRMSD>
0.58439

$$$$
P21370


 31 34  0  0  0  0  0  0  0  0999 V2000
   -5.2629    5.5042  -17.3177 C   0  0  0  0  0  0  0  0  0  0  0  0
   -6.6035    4.9739  -17.0752 C   0  0  0  0  0  0  0  0  0  0  0  0
   -7.5178    4.3401  -17.9426 C   0  0  0  0  0  0  0  0  0  0  0  0
   -8.7295    3.8755  -17.4427 C   0  0  0  0  0  0  0  0  0  0  0  0
   -9.5716    3.2453  -18.2700 F   0  0  0  0  0  0  0  0  0  0  0  0
   -9.0957    4.0644  -16.1187 C   0  0  0  0  0  0  0  0  0  0  0  0
   -8.2429    4.7365  -15.2383 C   0  0  0  0  0  0  0  0  0  0  0  0
   -6.9831    5.1451  -15.7154 C   0  0  0  0  0  0  0  0  0  0  0  0
   -5.8732    5.7256  -15.1291 N   0  0  0  0  0  0  0  0  0  0  0  0
   -5.6842    6.0461  -13.7361 C   0  0  0  0  0  0  0  0  0  0  0  0
   -4.8072    5.9298  -16.1146 N   0  0  0  0  0  0  0  0  0  0  0  0
   -3.6810    6.3281  -15.7204 O   0  0  0  0  0  0  0  0  0  0  0  0
   -8.7173    5.1092  -13.8862 C   0  0  0  0  0  0  0  0  0  0  0  0
   -9.5120    5.9594  -13.7993 O   0  0  0  0  0  0  0  0  0  0  0  0
   -8.0166    4.2792  -12.7904 N   0  0  0  0  0  0  0  0  0  0  0  0
   -7.3201    3.6663  -13.1198 H   0  0  0  0  0  0  0  0  0  0  0  0
   -8.2088    4.2560  -11.4111 C   0  0  0  0  0  0  0  0  0  0  0  0
   -7.9387    5.3839  -10.6176 C   0  0  0  0  0  0  0  0  0  0  0  0
   -8.1232    5.3472   -9.2311 C   0  0  0  0  0  0  0  0  0  0  0  0
   -8.5852    4.1738   -8.6666 C   0  0  0  0  0  0  0  0  0  0  0  0
   -8.8448    3.0538   -9.4504 C   0  0  0  0  0  0  0  0  0  0  0  0
   -8.6622    3.0746  -10.8221 C   0  0  0  0  0  0  0  0  0  0  0  0
   -9.2823    1.9326   -8.5675 C   0  0  0  0  0  0  0  0  0  0  0  0
   -9.6389    2.5783   -7.2769 N   0  0  0  0  0  0  0  0  0  0  0  0
   -8.8752    3.8437   -7.2408 C   0  0  0  0  0  0  0  0  0  0  0  0
   -9.3739    1.9801   -6.4944 H   0  0  0  0  0  0  0  0  0  0  0  0
   -4.6637    5.4487  -18.5362 O   0  0  0  0  0  0  0  0  0  0  0  0
   -4.2637    6.6890  -19.1172 C   0  0  0  0  0  0  0  0  0  0  0  0
   -5.4494    7.4217  -19.7450 C   0  0  0  0  0  0  0  0  0  0  0  0
   -4.9710    9.1011  -18.1408 C   0  0  0  0  0  0  0  0  0  0  0  0
   -5.9836    8.4367  -18.8901 O   0  0  0  0  0  0  0  0  0  0  0  0
 30 31  1  0  0  0
 31 29  1  0  0  0
 29 28  1  0  0  0
 28 27  1  0  0  0
 27  1  1  0  0  0
  1  2  1  0  0  0
  2  3  2  0  0  0
  3  4  1  0  0  0
  4  5  1  0  0  0
  4  6  2  0  0  0
  6  7  1  0  0  0
  7 13  1  0  0  0
 13 14  2  0  0  0
 13 15  1  0  0  0
 15 17  1  0  0  0
 17 18  2  0  0  0
 18 19  1  0  0  0
 19 20  2  0  0  0
 20 21  1  0  0  0
 21 22  2  0  0  0
 21 23  1  0  0  0
 23 24  1  0  0  0
 24 25  1  0  0  0
  7  8  2  0  0  0
  8  9  1  0  0  0
  9 10  1  0  0  0
  9 11  1  0  0  0
 11 12  1  0  0  0
 11  1  2  0  0  0
  8  2  1  0  0  0
 22 17  1  0  0  0
 25 20  1  0  0  0
 15 16  1  0  0  0
 24 26  1  0  0  0
M  CHG 1  11   1
M  CHG 1  12  -1
M  END
> <minimizedAffinity>
-8.39484

> <minimizedRMSD>
0.97458

$$$$
P21371


 25 28  0  0  0  0  0  0  0  0999 V2000
   -7.8000    5.3151  -13.7436 C   0  0  0  0  0  0  0  0  0  0  0  0
   -7.6003    6.4448  -13.5276 O   0  0  0  0  0  0  0  0  0  0  0  0
   -8.1875    4.1653  -12.7860 N   0  0  0  0  0  0  0  0  0  0  0  0
   -8.3765    3.3064  -13.2285 H   0  0  0  0  0  0  0  0  0  0  0  0
   -5.1927    5.1396  -19.4264 C   0  0  0  0  0  0  0  0  0  0  0  0
   -5.6440    5.1613  -18.0156 C   0  0  0  0  0  0  0  0  0  0  0  0
   -6.8187    4.7847  -17.4110 C   0  0  0  0  0  0  0  0  0  0  0  0
   -7.9272    4.2333  -18.0520 C   0  0  0  0  0  0  0  0  0  0  0  0
   -8.9773    3.9627  -17.1520 C   0  0  0  0  0  0  0  0  0  0  0  0
   -8.9136    4.2506  -15.7556 C   0  0  0  0  0  0  0  0  0  0  0  0
   -7.7840    4.8451  -15.1399 C   0  0  0  0  0  0  0  0  0  0  0  0
   -6.6985    5.0927  -16.0033 C   0  0  0  0  0  0  0  0  0  0  0  0
   -5.4722    5.5989  -15.7795 N   0  0  0  0  0  0  0  0  0  0  0  0
   -4.8670    5.6115  -16.9794 N   0  0  0  0  0  0  0  0  0  0  0  0
   -3.4994    6.0699  -17.0546 C   0  0  0  0  0  0  0  0  0  0  0  0
   -8.3128    4.1466  -11.3994 C   0  0  0  0  0  0  0  0  0  0  0  0
   -8.0374    5.2879  -10.6277 C   0  0  0  0  0  0  0  0  0  0  0  0
   -8.1843    5.2663   -9.2369 C   0  0  0  0  0  0  0  0  0  0  0  0
   -8.6230    4.0965   -8.6471 C   0  0  0  0  0  0  0  0  0  0  0  0
   -8.8897    2.9634   -9.4100 C   0  0  0  0  0  0  0  0  0  0  0  0
   -8.7356    2.9664  -10.7852 C   0  0  0  0  0  0  0  0  0  0  0  0
   -9.3097    1.8547   -8.5036 C   0  0  0  0  0  0  0  0  0  0  0  0
   -9.6510    2.5198   -7.2182 N   0  0  0  0  0  0  0  0  0  0  0  0
   -8.8859    3.7854   -7.2121 C   0  0  0  0  0  0  0  0  0  0  0  0
   -9.3766    1.9337   -6.4298 H   0  0  0  0  0  0  0  0  0  0  0  0
  5  6  1  0  0  0
  6  7  2  0  0  0
  7  8  1  0  0  0
  8  9  2  0  0  0
  9 10  1  0  0  0
 10 11  2  0  0  0
 11  1  1  0  0  0
  1  2  2  0  0  0
  1  3  1  0  0  0
  3 16  1  0  0  0
 16 17  2  0  0  0
 17 18  1  0  0  0
 18 19  2  0  0  0
 19 20  1  0  0  0
 20 21  2  0  0  0
 20 22  1  0  0  0
 22 23  1  0  0  0
 23 24  1  0  0  0
 11 12  1  0  0  0
 12 13  2  0  0  0
 13 14  1  0  0  0
 14 15  1  0  0  0
 14  6  1  0  0  0
 12  7  1  0  0  0
 21 16  1  0  0  0
 24 19  1  0  0  0
  3  4  1  0  0  0
 23 25  1  0  0  0
M  END
> <minimizedAffinity>
-8.57144

> <minimizedRMSD>
0.16720

$$$$
P21372


 36 39  0  0  0  0  0  0  0  0999 V2000
   -7.7361    5.6915  -13.1917 C   0  0  0  0  0  0  0  0  0  0  0  0
   -9.1587    5.8488  -13.1471 O   0  0  0  0  0  0  0  0  0  0  0  0
   -9.5842    4.9976  -13.3351 H   0  0  0  0  0  0  0  0  0  0  0  0
   -4.8881    5.5738  -15.2330 N   0  0  0  0  0  0  0  0  0  0  0  0
   -4.1746    5.7537  -16.3704 N   0  0  0  0  0  0  0  0  0  0  0  0
   -4.9871    5.3304  -17.3265 C   0  0  0  0  0  0  0  0  0  0  0  0
   -6.2538    4.9977  -16.8262 C   0  0  0  0  0  0  0  0  0  0  0  0
   -7.3989    4.5254  -17.4657 C   0  0  0  0  0  0  0  0  0  0  0  0
   -8.5300    4.3213  -16.7097 C   0  0  0  0  0  0  0  0  0  0  0  0
   -9.9310    3.7935  -17.5281 Cl  0  0  0  0  0  0  0  0  0  0  0  0
   -8.5457    4.6270  -15.3519 C   0  0  0  0  0  0  0  0  0  0  0  0
   -7.4277    5.1927  -14.6461 C   0  0  0  0  0  0  0  0  0  0  0  0
   -6.2318    5.2747  -15.4421 C   0  0  0  0  0  0  0  0  0  0  0  0
   -3.9530    4.1536  -13.4191 C   0  0  0  0  0  0  0  0  0  0  0  0
   -4.0977    5.5629  -14.0073 C   0  0  0  0  0  0  0  0  0  0  0  0
   -2.7025    6.1455  -14.2465 C   0  0  0  0  0  0  0  0  0  0  0  0
   -7.0733    7.1341  -12.8727 C   0  0  0  0  0  0  0  0  0  0  0  0
   -7.5108    8.1238  -13.3210 O   0  0  0  0  0  0  0  0  0  0  0  0
   -5.8423    6.9043  -11.9421 N   0  0  0  0  0  0  0  0  0  0  0  0
   -5.6314    5.9595  -11.7629 H   0  0  0  0  0  0  0  0  0  0  0  0
   -4.9582    7.8569  -11.2982 C   0  0  0  0  0  0  0  0  0  0  0  0
   -5.4166    8.3426   -9.9257 C   0  0  0  0  0  0  0  0  0  0  0  0
   -5.2692    7.3592   -9.0048 F   0  0  0  0  0  0  0  0  0  0  0  0
   -6.7283    8.6821   -9.9438 F   0  0  0  0  0  0  0  0  0  0  0  0
   -7.3654    4.6375  -12.2265 N   0  0  0  0  0  0  0  0  0  0  0  0
   -6.6822    3.9830  -12.4985 H   0  0  0  0  0  0  0  0  0  0  0  0
   -7.9280    4.5089  -10.9394 C   0  0  0  0  0  0  0  0  0  0  0  0
   -7.8701    5.5308   -9.9651 C   0  0  0  0  0  0  0  0  0  0  0  0
   -8.1991    5.3140   -8.6233 C   0  0  0  0  0  0  0  0  0  0  0  0
   -8.6596    4.0707   -8.2633 C   0  0  0  0  0  0  0  0  0  0  0  0
   -8.7967    3.0646   -9.2098 C   0  0  0  0  0  0  0  0  0  0  0  0
   -8.4024    3.2511  -10.5294 C   0  0  0  0  0  0  0  0  0  0  0  0
   -9.3534    1.8522   -8.5364 C   0  0  0  0  0  0  0  0  0  0  0  0
   -9.8425    2.3314   -7.2130 N   0  0  0  0  0  0  0  0  0  0  0  0
   -9.0572    3.5466   -6.9261 C   0  0  0  0  0  0  0  0  0  0  0  0
   -9.6823    1.6245   -6.4953 H   0  0  0  0  0  0  0  0  0  0  0  0
 14 15  1  0  0  0
 15 16  1  0  0  0
 15  4  1  0  0  0
  4  5  1  0  0  0
  5  6  2  0  0  0
  6  7  1  0  0  0
  7  8  2  0  0  0
  8  9  1  0  0  0
  9 10  1  0  0  0
  9 11  2  0  0  0
 11 12  1  0  0  0
 12  1  1  0  0  0
  1  2  1  0  0  0
  1 25  1  0  0  0
 25 27  1  0  0  0
 27 28  2  0  0  0
 28 29  1  0  0  0
 29 30  2  0  0  0
 30 31  1  0  0  0
 31 32  2  0  0  0
 31 33  1  0  0  0
 33 34  1  0  0  0
 34 35  1  0  0  0
  1 17  1  0  0  0
 17 18  2  0  0  0
 17 19  1  0  0  0
 19 21  1  0  0  0
 21 22  1  0  0  0
 22 23  1  0  0  0
 22 24  1  0  0  0
 12 13  2  0  0  0
 13  4  1  0  0  0
 13  7  1  0  0  0
 32 27  1  0  0  0
 35 30  1  0  0  0
  2  3  1  0  0  0
 25 26  1  0  0  0
 34 36  1  0  0  0
 19 20  1  0  0  0
M  END
> <minimizedAffinity>
-6.87015

> <minimizedRMSD>
0.62571

$$$$
P21376


 26 29  0  0  0  0  0  0  0  0999 V2000
   -8.9268    4.9200  -14.2225 C   0  0  0  0  0  0  0  0  0  0  0  0
   -9.7355    5.7555  -14.1149 O   0  0  0  0  0  0  0  0  0  0  0  0
   -8.2100    4.0743  -13.1445 N   0  0  0  0  0  0  0  0  0  0  0  0
   -7.6168    3.3727  -13.4982 H   0  0  0  0  0  0  0  0  0  0  0  0
   -5.8078    5.1460  -17.8268 C   0  0  0  0  0  0  0  0  0  0  0  0
   -5.3506    5.5902  -16.6221 N   0  0  0  0  0  0  0  0  0  0  0  0
   -6.2127    5.4519  -15.6054 N   0  0  0  0  0  0  0  0  0  0  0  0
   -7.2996    4.8672  -16.1465 C   0  0  0  0  0  0  0  0  0  0  0  0
   -8.5401    4.5007  -15.5827 C   0  0  0  0  0  0  0  0  0  0  0  0
   -9.4365    3.8725  -16.4799 C   0  0  0  0  0  0  0  0  0  0  0  0
   -9.1335    3.6537  -17.8594 C   0  0  0  0  0  0  0  0  0  0  0  0
   -7.9192    4.0345  -18.4685 C   0  0  0  0  0  0  0  0  0  0  0  0
   -7.0467    4.6288  -17.5581 C   0  0  0  0  0  0  0  0  0  0  0  0
   -4.4551    5.9829  -16.5075 H   0  0  0  0  0  0  0  0  0  0  0  0
   -4.5986    5.3756  -20.0760 N   0  0  0  0  0  0  0  0  0  0  0  0
   -5.0393    5.2817  -19.0072 C   0  0  0  0  0  0  0  0  0  0  0  0
   -8.2671    4.1436  -11.7543 C   0  0  0  0  0  0  0  0  0  0  0  0
   -7.8971    5.3124  -11.0685 C   0  0  0  0  0  0  0  0  0  0  0  0
   -7.9448    5.3713   -9.6713 C   0  0  0  0  0  0  0  0  0  0  0  0
   -8.3712    4.2508   -8.9833 C   0  0  0  0  0  0  0  0  0  0  0  0
   -8.7415    3.0958   -9.6599 C   0  0  0  0  0  0  0  0  0  0  0  0
   -8.6939    3.0210  -11.0433 C   0  0  0  0  0  0  0  0  0  0  0  0
   -9.1282    2.0462   -8.6751 C   0  0  0  0  0  0  0  0  0  0  0  0
   -9.1767    2.7239   -7.3529 N   0  0  0  0  0  0  0  0  0  0  0  0
   -8.5084    4.0310   -7.5159 C   0  0  0  0  0  0  0  0  0  0  0  0
   -8.6877    2.1647   -6.6540 H   0  0  0  0  0  0  0  0  0  0  0  0
 15 16  3  0  0  0
 16  5  1  0  0  0
  5  6  1  0  0  0
  6  7  1  0  0  0
  7  8  2  0  0  0
  8  9  1  0  0  0
  9  1  1  0  0  0
  1  2  2  0  0  0
  1  3  1  0  0  0
  3 17  1  0  0  0
 17 18  2  0  0  0
 18 19  1  0  0  0
 19 20  2  0  0  0
 20 21  1  0  0  0
 21 22  2  0  0  0
 21 23  1  0  0  0
 23 24  1  0  0  0
 24 25  1  0  0  0
  9 10  2  0  0  0
 10 11  1  0  0  0
 11 12  2  0  0  0
 12 13  1  0  0  0
 13  5  2  0  0  0
 13  8  1  0  0  0
 22 17  1  0  0  0
 25 20  1  0  0  0
  6 14  1  0  0  0
  3  4  1  0  0  0
 24 26  1  0  0  0
M  END
> <minimizedAffinity>
-9.08819

> <minimizedRMSD>
0.75308

$$$$
P21377


 25 28  0  0  0  0  0  0  0  0999 V2000
   -7.2663    6.4766  -14.0674 O   0  0  0  0  0  0  0  0  0  0  0  0
   -7.7268    5.4127  -14.2136 C   0  0  0  0  0  0  0  0  0  0  0  0
   -8.2931    4.4110  -13.1735 N   0  0  0  0  0  0  0  0  0  0  0  0
   -8.6988    3.6012  -13.5594 H   0  0  0  0  0  0  0  0  0  0  0  0
   -7.8629    4.8399  -15.5845 C   0  0  0  0  0  0  0  0  0  0  0  0
   -9.0697    4.4389  -16.0263 C   0  0  0  0  0  0  0  0  0  0  0  0
   -9.3755    4.1857  -17.4266 C   0  0  0  0  0  0  0  0  0  0  0  0
   -8.4604    4.3916  -18.3861 C   0  0  0  0  0  0  0  0  0  0  0  0
   -7.1428    4.7595  -17.9864 C   0  0  0  0  0  0  0  0  0  0  0  0
   -6.7690    4.9458  -16.5731 C   0  0  0  0  0  0  0  0  0  0  0  0
   -5.5108    5.1579  -16.3482 N   0  0  0  0  0  0  0  0  0  0  0  0
   -4.8840    5.1770  -17.6924 N   0  0  0  0  0  0  0  0  0  0  0  0
   -4.3511    6.3841  -17.8799 O   0  0  0  0  0  0  0  0  0  0  0  0
   -5.9995    4.9753  -18.6304 C   0  0  0  0  0  0  0  0  0  0  0  0
   -5.6625    5.7708  -17.5901 H   0  0  0  0  0  0  0  0  0  0  0  0
   -8.3209    4.4712  -11.7799 C   0  0  0  0  0  0  0  0  0  0  0  0
   -8.0481    5.6720  -11.1041 C   0  0  0  0  0  0  0  0  0  0  0  0
   -8.0513    5.7271   -9.7060 C   0  0  0  0  0  0  0  0  0  0  0  0
   -8.3287    4.5689   -9.0045 C   0  0  0  0  0  0  0  0  0  0  0  0
   -8.6035    3.3808   -9.6687 C   0  0  0  0  0  0  0  0  0  0  0  0
   -8.6102    3.3147  -11.0548 C   0  0  0  0  0  0  0  0  0  0  0  0
   -8.8200    2.2950   -8.6680 C   0  0  0  0  0  0  0  0  0  0  0  0
   -8.8793    2.9653   -7.3434 N   0  0  0  0  0  0  0  0  0  0  0  0
   -8.3722    4.3382   -7.5326 C   0  0  0  0  0  0  0  0  0  0  0  0
   -8.2965    2.4659   -6.6716 H   0  0  0  0  0  0  0  0  0  0  0  0
  1  2  2  0  0  0
  2  3  1  0  0  0
  3 16  1  0  0  0
 16 17  2  0  0  0
 17 18  1  0  0  0
 18 19  2  0  0  0
 19 20  1  0  0  0
 20 21  2  0  0  0
 20 22  1  0  0  0
 22 23  1  0  0  0
 23 24  1  0  0  0
  2  5  1  0  0  0
  5  6  2  0  0  0
  6  7  1  0  0  0
  7  8  2  0  0  0
  8  9  1  0  0  0
  9 10  1  0  0  0
 10 11  2  0  0  0
 11 12  1  0  0  0
 12 13  1  0  0  0
 12 14  1  0  0  0
 21 16  1  0  0  0
 10  5  1  0  0  0
 24 19  1  0  0  0
 14  9  2  0  0  0
  3  4  1  0  0  0
 23 25  1  0  0  0
 12 15  1  0  0  0
M  CHG 1  12   1
M  CHG 1  13  -1
M  END
> <minimizedAffinity>
-8.00157

> <minimizedRMSD>
0.53653

$$$$
P21378


 26 29  0  0  0  0  0  0  0  0999 V2000
   -8.2696    4.1817  -12.9827 N   0  0  0  0  0  0  0  0  0  0  0  0
   -7.6531    5.2113  -13.9639 C   0  0  0  0  0  0  0  0  0  0  0  0
   -7.1898    6.2650  -13.7634 O   0  0  0  0  0  0  0  0  0  0  0  0
   -8.6661    3.3894  -13.4120 H   0  0  0  0  0  0  0  0  0  0  0  0
   -8.4535    4.7168   -6.5078 O   0  0  0  0  0  0  0  0  0  0  0  0
   -8.6905    3.9356   -7.4097 C   0  0  0  0  0  0  0  0  0  0  0  0
   -9.1568    2.6433   -7.3107 N   0  0  0  0  0  0  0  0  0  0  0  0
   -9.1608    1.9573   -8.5859 C   0  0  0  0  0  0  0  0  0  0  0  0
   -8.8084    3.0451   -9.5441 C   0  0  0  0  0  0  0  0  0  0  0  0
   -8.7248    3.0202  -10.9275 C   0  0  0  0  0  0  0  0  0  0  0  0
   -8.3536    4.1952  -11.5920 C   0  0  0  0  0  0  0  0  0  0  0  0
   -8.0649    5.3661  -10.8634 C   0  0  0  0  0  0  0  0  0  0  0  0
   -8.1394    5.3805   -9.4674 C   0  0  0  0  0  0  0  0  0  0  0  0
   -8.5166    4.2107   -8.8409 C   0  0  0  0  0  0  0  0  0  0  0  0
   -9.4542    2.2320   -6.4671 H   0  0  0  0  0  0  0  0  0  0  0  0
   -7.7741    4.6950  -15.3574 C   0  0  0  0  0  0  0  0  0  0  0  0
   -8.8886    4.0475  -15.7556 C   0  0  0  0  0  0  0  0  0  0  0  0
   -9.1713    3.7279  -17.1485 C   0  0  0  0  0  0  0  0  0  0  0  0
   -8.3217    4.0660  -18.1315 C   0  0  0  0  0  0  0  0  0  0  0  0
   -7.1055    4.7203  -17.7778 C   0  0  0  0  0  0  0  0  0  0  0  0
   -6.7780    5.0733  -16.3867 C   0  0  0  0  0  0  0  0  0  0  0  0
   -5.6541    5.6954  -16.2151 N   0  0  0  0  0  0  0  0  0  0  0  0
   -5.0454    5.7694  -17.5670 N   0  0  0  0  0  0  0  0  0  0  0  0
   -3.9380    5.0174  -17.5476 O   0  0  0  0  0  0  0  0  0  0  0  0
   -6.0439    5.1511  -18.4549 C   0  0  0  0  0  0  0  0  0  0  0  0
   -5.1566    6.5500  -18.1565 H   0  0  0  0  0  0  0  0  0  0  0  0
  5  6  2  0  0  0
  6  7  1  0  0  0
  7  8  1  0  0  0
  8  9  1  0  0  0
  9 10  2  0  0  0
 10 11  1  0  0  0
 11  1  1  0  0  0
  1  2  1  0  0  0
  2  3  2  0  0  0
  2 16  1  0  0  0
 16 17  2  0  0  0
 17 18  1  0  0  0
 18 19  2  0  0  0
 19 20  1  0  0  0
 20 21  1  0  0  0
 21 22  2  0  0  0
 22 23  1  0  0  0
 23 24  1  0  0  0
 23 25  1  0  0  0
 11 12  2  0  0  0
 12 13  1  0  0  0
 13 14  2  0  0  0
 14  6  1  0  0  0
 14  9  1  0  0  0
 21 16  1  0  0  0
 25 20  2  0  0  0
  7 15  1  0  0  0
  1  4  1  0  0  0
 23 26  1  0  0  0
M  CHG 1  23   1
M  CHG 1  24  -1
M  END
> <minimizedAffinity>
-8.80320

> <minimizedRMSD>
0.41727

$$$$
P21379


 29 32  0  0  0  0  0  0  0  0999 V2000
   -5.3465    5.2749  -18.1443 C   0  0  0  0  0  0  0  0  0  0  0  0
   -4.4764    5.6667  -17.1669 N   0  0  0  0  0  0  0  0  0  0  0  0
   -4.9888    5.6750  -15.9176 N   0  0  0  0  0  0  0  0  0  0  0  0
   -6.2440    5.2022  -16.0426 C   0  0  0  0  0  0  0  0  0  0  0  0
   -7.2887    4.9695  -15.1196 C   0  0  0  0  0  0  0  0  0  0  0  0
   -8.4803    4.4608  -15.6959 C   0  0  0  0  0  0  0  0  0  0  0  0
   -8.6141    4.2138  -17.0879 C   0  0  0  0  0  0  0  0  0  0  0  0
  -10.1382    3.7551  -17.6925 Cl  0  0  0  0  0  0  0  0  0  0  0  0
   -7.6119    4.4196  -18.0373 C   0  0  0  0  0  0  0  0  0  0  0  0
   -6.4667    4.9172  -17.4446 C   0  0  0  0  0  0  0  0  0  0  0  0
   -3.5456    5.9236  -17.3589 H   0  0  0  0  0  0  0  0  0  0  0  0
   -3.7077    4.8033  -19.8835 N   0  0  0  0  0  0  0  0  0  0  0  0
   -5.0595    5.2689  -19.5953 C   0  0  0  0  0  0  0  0  0  0  0  0
   -3.5518    4.8147  -20.8915 H   0  0  0  0  0  0  0  0  0  0  0  0
   -3.5936    3.8524  -19.5326 H   0  0  0  0  0  0  0  0  0  0  0  0
   -7.2800    5.4074  -13.7106 C   0  0  0  0  0  0  0  0  0  0  0  0
   -6.9403    6.4959  -13.4567 O   0  0  0  0  0  0  0  0  0  0  0  0
   -7.8520    4.2936  -12.7951 N   0  0  0  0  0  0  0  0  0  0  0  0
   -8.1370    3.4780  -13.2670 H   0  0  0  0  0  0  0  0  0  0  0  0
   -8.0282    4.2599  -11.4132 C   0  0  0  0  0  0  0  0  0  0  0  0
   -7.7315    5.3722  -10.6105 C   0  0  0  0  0  0  0  0  0  0  0  0
   -7.9736    5.3457   -9.2321 C   0  0  0  0  0  0  0  0  0  0  0  0
   -8.5133    4.1970   -8.6839 C   0  0  0  0  0  0  0  0  0  0  0  0
   -8.7951    3.0888   -9.4755 C   0  0  0  0  0  0  0  0  0  0  0  0
   -8.5657    3.1023  -10.8410 C   0  0  0  0  0  0  0  0  0  0  0  0
   -9.3107    1.9884   -8.6080 C   0  0  0  0  0  0  0  0  0  0  0  0
   -9.6739    2.6457   -7.3250 N   0  0  0  0  0  0  0  0  0  0  0  0
   -8.8690    3.8852   -7.2690 C   0  0  0  0  0  0  0  0  0  0  0  0
   -9.4472    2.0384   -6.5375 H   0  0  0  0  0  0  0  0  0  0  0  0
 12 13  1  0  0  0
 13  1  1  0  0  0
  1  2  1  0  0  0
  2  3  1  0  0  0
  3  4  2  0  0  0
  4  5  1  0  0  0
  5 16  1  0  0  0
 16 17  2  0  0  0
 16 18  1  0  0  0
 18 20  1  0  0  0
 20 21  2  0  0  0
 21 22  1  0  0  0
 22 23  2  0  0  0
 23 24  1  0  0  0
 24 25  2  0  0  0
 24 26  1  0  0  0
 26 27  1  0  0  0
 27 28  1  0  0  0
  5  6  2  0  0  0
  6  7  1  0  0  0
  7  8  1  0  0  0
  7  9  2  0  0  0
  9 10  1  0  0  0
 10  1  2  0  0  0
 10  4  1  0  0  0
 25 20  1  0  0  0
 28 23  1  0  0  0
 12 14  1  0  0  0
 12 15  1  0  0  0
  2 11  1  0  0  0
 18 19  1  0  0  0
 27 29  1  0  0  0
M  END
> <minimizedAffinity>
-8.39685

> <minimizedRMSD>
0.17623

$$$$
P21380


 28 31  0  0  0  0  0  0  0  0999 V2000
   -5.7443    5.7012  -17.8291 C   0  0  0  0  0  0  0  0  0  0  0  0
   -4.9575    6.1455  -16.8352 N   0  0  0  0  0  0  0  0  0  0  0  0
   -5.5817    5.7165  -15.7296 N   0  0  0  0  0  0  0  0  0  0  0  0
   -6.7661    5.0722  -15.9694 C   0  0  0  0  0  0  0  0  0  0  0  0
   -7.7633    4.6406  -15.0880 C   0  0  0  0  0  0  0  0  0  0  0  0
   -8.8942    4.0408  -15.6595 C   0  0  0  0  0  0  0  0  0  0  0  0
   -8.9960    3.8735  -17.0449 C   0  0  0  0  0  0  0  0  0  0  0  0
   -7.9875    4.3333  -17.9026 C   0  0  0  0  0  0  0  0  0  0  0  0
   -6.8636    4.9690  -17.3463 C   0  0  0  0  0  0  0  0  0  0  0  0
   -5.2203    5.8526  -14.8240 H   0  0  0  0  0  0  0  0  0  0  0  0
   -7.6231    4.9997  -13.6500 C   0  0  0  0  0  0  0  0  0  0  0  0
   -7.0592    5.9940  -13.4089 O   0  0  0  0  0  0  0  0  0  0  0  0
   -8.2455    3.9500  -12.7082 N   0  0  0  0  0  0  0  0  0  0  0  0
   -8.6026    3.1514  -13.1598 H   0  0  0  0  0  0  0  0  0  0  0  0
   -8.3845    3.9472  -11.3265 C   0  0  0  0  0  0  0  0  0  0  0  0
   -8.1091    5.1051  -10.5782 C   0  0  0  0  0  0  0  0  0  0  0  0
   -8.2335    5.1076   -9.1878 C   0  0  0  0  0  0  0  0  0  0  0  0
   -8.6238    3.9364   -8.5714 C   0  0  0  0  0  0  0  0  0  0  0  0
   -8.9027    2.7940   -9.3124 C   0  0  0  0  0  0  0  0  0  0  0  0
   -8.7961    2.7783  -10.6921 C   0  0  0  0  0  0  0  0  0  0  0  0
   -9.3446    1.7086   -8.3961 C   0  0  0  0  0  0  0  0  0  0  0  0
   -9.0831    2.2016   -7.0191 N   0  0  0  0  0  0  0  0  0  0  0  0
   -8.8559    3.6580   -7.1276 C   0  0  0  0  0  0  0  0  0  0  0  0
   -8.2572    1.7445   -6.6326 H   0  0  0  0  0  0  0  0  0  0  0  0
   -5.4731    6.1123  -19.2330 C   0  0  0  0  0  0  0  0  0  0  0  0
   -3.4697    4.9822  -19.9341 C   0  0  0  0  0  0  0  0  0  0  0  0
   -4.9239    5.0065  -20.0107 N   0  0  0  0  0  0  0  0  0  0  0  0
   -5.2914    4.1278  -19.6457 H   0  0  0  0  0  0  0  0  0  0  0  0
 26 27  1  0  0  0
 27 25  1  0  0  0
 25  1  1  0  0  0
  1  2  2  0  0  0
  2  3  1  0  0  0
  3  4  1  0  0  0
  4  5  2  0  0  0
  5 11  1  0  0  0
 11 12  2  0  0  0
 11 13  1  0  0  0
 13 15  1  0  0  0
 15 16  2  0  0  0
 16 17  1  0  0  0
 17 18  2  0  0  0
 18 19  1  0  0  0
 19 20  2  0  0  0
 19 21  1  0  0  0
 21 22  1  0  0  0
 22 23  1  0  0  0
  5  6  1  0  0  0
  6  7  2  0  0  0
  7  8  1  0  0  0
  8  9  2  0  0  0
  9  1  1  0  0  0
  9  4  1  0  0  0
 20 15  1  0  0  0
 23 18  1  0  0  0
 27 28  1  0  0  0
  3 10  1  0  0  0
 13 14  1  0  0  0
 22 24  1  0  0  0
M  END
> <minimizedAffinity>
-8.35445

> <minimizedRMSD>
0.30593

$$$$
P21382


 29 32  0  0  0  0  0  0  0  0999 V2000
   -5.2445    5.3100  -17.9865 C   0  0  0  0  0  0  0  0  0  0  0  0
   -4.4491    5.7480  -16.9637 N   0  0  0  0  0  0  0  0  0  0  0  0
   -5.0033    5.6627  -15.7405 N   0  0  0  0  0  0  0  0  0  0  0  0
   -6.2456    5.1887  -15.9457 C   0  0  0  0  0  0  0  0  0  0  0  0
   -7.3230    4.9394  -15.0695 C   0  0  0  0  0  0  0  0  0  0  0  0
   -8.4956    4.4519  -15.6908 C   0  0  0  0  0  0  0  0  0  0  0  0
   -8.5812    4.2523  -17.0979 C   0  0  0  0  0  0  0  0  0  0  0  0
  -10.2696    3.8910  -17.8401 Br  0  0  0  0  0  0  0  0  0  0  0  0
   -7.5333    4.4575  -18.0077 C   0  0  0  0  0  0  0  0  0  0  0  0
   -6.4035    4.9329  -17.3620 C   0  0  0  0  0  0  0  0  0  0  0  0
   -3.5411    6.0987  -17.1111 H   0  0  0  0  0  0  0  0  0  0  0  0
   -7.3314    5.3739  -13.6641 C   0  0  0  0  0  0  0  0  0  0  0  0
   -6.9615    6.4531  -13.4136 O   0  0  0  0  0  0  0  0  0  0  0  0
   -7.9538    4.2893  -12.7511 N   0  0  0  0  0  0  0  0  0  0  0  0
   -8.2563    3.4788  -13.2212 H   0  0  0  0  0  0  0  0  0  0  0  0
   -8.1553    4.2737  -11.3737 C   0  0  0  0  0  0  0  0  0  0  0  0
   -7.9233    5.4202  -10.5974 C   0  0  0  0  0  0  0  0  0  0  0  0
   -8.1233    5.4028   -9.2141 C   0  0  0  0  0  0  0  0  0  0  0  0
   -8.5507    4.2259   -8.6303 C   0  0  0  0  0  0  0  0  0  0  0  0
   -8.7920    3.0934   -9.3967 C   0  0  0  0  0  0  0  0  0  0  0  0
   -8.6044    3.0965  -10.7704 C   0  0  0  0  0  0  0  0  0  0  0  0
   -9.2765    1.9937   -8.5164 C   0  0  0  0  0  0  0  0  0  0  0  0
   -9.1531    2.4913   -7.1196 N   0  0  0  0  0  0  0  0  0  0  0  0
   -8.8519    3.9356   -7.2018 C   0  0  0  0  0  0  0  0  0  0  0  0
   -8.3978    2.0025   -6.6388 H   0  0  0  0  0  0  0  0  0  0  0  0
   -4.7904    5.3296  -19.3961 C   0  0  0  0  0  0  0  0  0  0  0  0
   -4.6936    6.7552  -21.3188 C   0  0  0  0  0  0  0  0  0  0  0  0
   -5.3661    6.4983  -20.0529 N   0  0  0  0  0  0  0  0  0  0  0  0
   -6.3571    6.3312  -20.2271 H   0  0  0  0  0  0  0  0  0  0  0  0
 27 28  1  0  0  0
 28 26  1  0  0  0
 26  1  1  0  0  0
  1  2  1  0  0  0
  2  3  1  0  0  0
  3  4  2  0  0  0
  4  5  1  0  0  0
  5 12  1  0  0  0
 12 13  2  0  0  0
 12 14  1  0  0  0
 14 16  1  0  0  0
 16 17  2  0  0  0
 17 18  1  0  0  0
 18 19  2  0  0  0
 19 20  1  0  0  0
 20 21  2  0  0  0
 20 22  1  0  0  0
 22 23  1  0  0  0
 23 24  1  0  0  0
  5  6  2  0  0  0
  6  7  1  0  0  0
  7  8  1  0  0  0
  7  9  2  0  0  0
  9 10  1  0  0  0
 10  1  2  0  0  0
 10  4  1  0  0  0
 21 16  1  0  0  0
 24 19  1  0  0  0
 28 29  1  0  0  0
  2 11  1  0  0  0
 14 15  1  0  0  0
 23 25  1  0  0  0
M  END
> <minimizedAffinity>
-8.30386

> <minimizedRMSD>
0.17070

$$$$
P21383


 34 37  0  0  0  0  0  0  0  0999 V2000
   -7.1528    5.2286  -13.5107 C   0  0  0  0  0  0  0  0  0  0  0  0
   -7.5812    6.5772  -13.4260 O   0  0  0  0  0  0  0  0  0  0  0  0
   -7.5956    6.8540  -12.4964 H   0  0  0  0  0  0  0  0  0  0  0  0
   -7.1667    4.8933  -15.0245 C   0  0  0  0  0  0  0  0  0  0  0  0
   -8.3472    4.3346  -15.5767 C   0  0  0  0  0  0  0  0  0  0  0  0
   -8.5444    4.1868  -16.9480 C   0  0  0  0  0  0  0  0  0  0  0  0
  -10.1005    3.7862  -17.5314 Cl  0  0  0  0  0  0  0  0  0  0  0  0
   -7.5493    4.4963  -17.8620 C   0  0  0  0  0  0  0  0  0  0  0  0
   -6.3430    5.0007  -17.3681 C   0  0  0  0  0  0  0  0  0  0  0  0
   -5.1476    5.4486  -17.9685 C   0  0  0  0  0  0  0  0  0  0  0  0
   -4.2617    5.8844  -17.0737 N   0  0  0  0  0  0  0  0  0  0  0  0
   -4.8986    5.7142  -15.9032 N   0  0  0  0  0  0  0  0  0  0  0  0
   -6.1681    5.1875  -15.9948 C   0  0  0  0  0  0  0  0  0  0  0  0
   -4.4869    5.9494  -15.0404 H   0  0  0  0  0  0  0  0  0  0  0  0
   -4.8833    5.8342  -12.7873 O   0  0  0  0  0  0  0  0  0  0  0  0
   -5.6716    4.9790  -12.9255 C   0  0  0  0  0  0  0  0  0  0  0  0
   -5.5375    3.4376  -12.7182 N   0  0  0  0  0  0  0  0  0  0  0  0
   -6.3317    2.9162  -12.9764 H   0  0  0  0  0  0  0  0  0  0  0  0
   -4.4418    2.6556  -12.2113 C   0  0  0  0  0  0  0  0  0  0  0  0
   -4.8188    1.7796  -11.0208 C   0  0  0  0  0  0  0  0  0  0  0  0
   -4.5360    2.4373   -9.6802 C   0  0  0  0  0  0  0  0  0  0  0  0
   -5.4378    3.4186   -9.4363 F   0  0  0  0  0  0  0  0  0  0  0  0
   -8.1448    4.4001  -12.8123 N   0  0  0  0  0  0  0  0  0  0  0  0
   -8.7071    3.7953  -13.3484 H   0  0  0  0  0  0  0  0  0  0  0  0
   -8.3342    4.4244  -11.4199 C   0  0  0  0  0  0  0  0  0  0  0  0
   -8.0856    5.5431  -10.5956 C   0  0  0  0  0  0  0  0  0  0  0  0
   -8.1913    5.4882   -9.1991 C   0  0  0  0  0  0  0  0  0  0  0  0
   -8.5392    4.2898   -8.6211 C   0  0  0  0  0  0  0  0  0  0  0  0
   -8.7533    3.1648   -9.4046 C   0  0  0  0  0  0  0  0  0  0  0  0
   -8.6435    3.2112  -10.7863 C   0  0  0  0  0  0  0  0  0  0  0  0
   -9.0436    2.0053   -8.5111 C   0  0  0  0  0  0  0  0  0  0  0  0
   -9.3897    2.6115   -7.1978 N   0  0  0  0  0  0  0  0  0  0  0  0
   -8.7220    3.9298   -7.1860 C   0  0  0  0  0  0  0  0  0  0  0  0
   -9.0447    2.0299   -6.4342 H   0  0  0  0  0  0  0  0  0  0  0  0
 15 16  2  0  0  0
 16 17  1  0  0  0
 17 19  1  0  0  0
 19 20  1  0  0  0
 20 21  1  0  0  0
 21 22  1  0  0  0
 16  1  1  0  0  0
  1  2  1  0  0  0
  1 23  1  0  0  0
 23 25  1  0  0  0
 25 26  2  0  0  0
 26 27  1  0  0  0
 27 28  2  0  0  0
 28 29  1  0  0  0
 29 30  2  0  0  0
 29 31  1  0  0  0
 31 32  1  0  0  0
 32 33  1  0  0  0
  1  4  1  0  0  0
  4  5  2  0  0  0
  5  6  1  0  0  0
  6  7  1  0  0  0
  6  8  2  0  0  0
  8  9  1  0  0  0
  9 10  1  0  0  0
 10 11  2  0  0  0
 11 12  1  0  0  0
 12 13  1  0  0  0
 30 25  1  0  0  0
 13  4  1  0  0  0
 33 28  1  0  0  0
 13  9  2  0  0  0
 17 18  1  0  0  0
  2  3  1  0  0  0
 23 24  1  0  0  0
 32 34  1  0  0  0
 12 14  1  0  0  0
M  END
> <minimizedAffinity>
-7.86748

> <minimizedRMSD>
1.58066

$$$$
P21385


 29 32  0  0  0  0  0  0  0  0999 V2000
   -8.8016    4.7673  -14.1601 C   0  0  0  0  0  0  0  0  0  0  0  0
   -9.6845    5.5263  -14.0924 O   0  0  0  0  0  0  0  0  0  0  0  0
   -8.0876    3.9662  -13.0569 N   0  0  0  0  0  0  0  0  0  0  0  0
   -7.4137    3.3266  -13.3826 H   0  0  0  0  0  0  0  0  0  0  0  0
   -8.2389    3.9987  -11.6794 C   0  0  0  0  0  0  0  0  0  0  0  0
   -7.9222    5.1861  -11.0125 C   0  0  0  0  0  0  0  0  0  0  0  0
   -8.0238    5.2728   -9.6319 C   0  0  0  0  0  0  0  0  0  0  0  0
   -7.5407    6.8834   -8.8196 Br  0  0  0  0  0  0  0  0  0  0  0  0
   -8.4828    4.1866   -8.9244 C   0  0  0  0  0  0  0  0  0  0  0  0
   -8.8140    3.0092   -9.5904 C   0  0  0  0  0  0  0  0  0  0  0  0
   -8.6717    2.8861  -10.9666 C   0  0  0  0  0  0  0  0  0  0  0  0
   -9.2801    2.0081   -8.5855 C   0  0  0  0  0  0  0  0  0  0  0  0
   -9.5410    2.7893   -7.3476 N   0  0  0  0  0  0  0  0  0  0  0  0
   -8.6998    3.9976   -7.4630 C   0  0  0  0  0  0  0  0  0  0  0  0
   -9.2792    2.2494   -6.5228 H   0  0  0  0  0  0  0  0  0  0  0  0
   -5.2304    5.5437  -17.1445 C   0  0  0  0  0  0  0  0  0  0  0  0
   -4.9611    5.7647  -15.8218 N   0  0  0  0  0  0  0  0  0  0  0  0
   -5.9502    5.4348  -14.9822 N   0  0  0  0  0  0  0  0  0  0  0  0
   -6.9310    4.9582  -15.7724 C   0  0  0  0  0  0  0  0  0  0  0  0
   -8.2344    4.5170  -15.4768 C   0  0  0  0  0  0  0  0  0  0  0  0
   -9.0117    4.0892  -16.5724 C   0  0  0  0  0  0  0  0  0  0  0  0
   -8.5130    4.1220  -17.9085 C   0  0  0  0  0  0  0  0  0  0  0  0
   -7.2225    4.5851  -18.2583 C   0  0  0  0  0  0  0  0  0  0  0  0
   -6.4826    4.9790  -17.1434 C   0  0  0  0  0  0  0  0  0  0  0  0
   -4.1048    6.1380  -15.5109 H   0  0  0  0  0  0  0  0  0  0  0  0
   -4.3037    5.9818  -18.2057 C   0  0  0  0  0  0  0  0  0  0  0  0
   -2.4013    4.5190  -18.6757 C   0  0  0  0  0  0  0  0  0  0  0  0
   -3.7626    4.8934  -18.9989 N   0  0  0  0  0  0  0  0  0  0  0  0
   -4.3568    4.0758  -18.8616 H   0  0  0  0  0  0  0  0  0  0  0  0
 27 28  1  0  0  0
 28 26  1  0  0  0
 26 16  1  0  0  0
 16 17  1  0  0  0
 17 18  1  0  0  0
 18 19  2  0  0  0
 19 20  1  0  0  0
 20  1  1  0  0  0
  1  2  2  0  0  0
  1  3  1  0  0  0
  3  5  1  0  0  0
  5  6  2  0  0  0
  6  7  1  0  0  0
  7  8  1  0  0  0
  7  9  2  0  0  0
  9 10  1  0  0  0
 10 11  2  0  0  0
 10 12  1  0  0  0
 12 13  1  0  0  0
 13 14  1  0  0  0
 20 21  2  0  0  0
 21 22  1  0  0  0
 22 23  2  0  0  0
 23 24  1  0  0  0
 24 16  2  0  0  0
 24 19  1  0  0  0
 11  5  1  0  0  0
 14  9  1  0  0  0
 28 29  1  0  0  0
 17 25  1  0  0  0
  3  4  1  0  0  0
 13 15  1  0  0  0
M  END
> <minimizedAffinity>
-8.96583

> <minimizedRMSD>
0.71675

$$$$
P21386


 31 35  0  0  0  0  0  0  0  0999 V2000
   -7.5397    4.7039  -15.3526 C   0  0  0  0  0  0  0  0  0  0  0  0
   -8.7876    4.2616  -15.8047 C   0  0  0  0  0  0  0  0  0  0  0  0
   -9.0038    4.0955  -17.1793 C   0  0  0  0  0  0  0  0  0  0  0  0
  -10.5502    3.6508  -17.7394 Cl  0  0  0  0  0  0  0  0  0  0  0  0
   -8.0083    4.3505  -18.1167 C   0  0  0  0  0  0  0  0  0  0  0  0
   -6.7853    4.7854  -17.6510 C   0  0  0  0  0  0  0  0  0  0  0  0
   -6.5451    4.9694  -16.2913 C   0  0  0  0  0  0  0  0  0  0  0  0
   -5.2029    5.3387  -16.0333 N   0  0  0  0  0  0  0  0  0  0  0  0
   -4.6692    5.7866  -17.3491 C   0  0  0  0  0  0  0  0  0  0  0  0
   -3.2145    5.2963  -17.4881 C   0  0  0  0  0  0  0  0  0  0  0  0
   -2.2331    6.3444  -16.9783 C   0  0  0  0  0  0  0  0  0  0  0  0
   -2.2959    7.5919  -17.7470 N   0  0  0  0  0  0  0  0  0  0  0  0
   -3.6232    7.8996  -18.2748 C   0  0  0  0  0  0  0  0  0  0  0  0
   -4.7521    7.3319  -17.4234 C   0  0  0  0  0  0  0  0  0  0  0  0
   -5.5645    5.1156  -18.4369 C   0  0  0  0  0  0  0  0  0  0  0  0
   -4.7266    5.3063  -15.1723 H   0  0  0  0  0  0  0  0  0  0  0  0
   -1.6482    7.5180  -18.5315 H   0  0  0  0  0  0  0  0  0  0  0  0
   -6.5858    5.9394  -13.6897 O   0  0  0  0  0  0  0  0  0  0  0  0
   -7.3312    5.0692  -13.9259 C   0  0  0  0  0  0  0  0  0  0  0  0
   -8.2368    4.2388  -12.9822 N   0  0  0  0  0  0  0  0  0  0  0  0
   -8.8374    3.6062  -13.4386 H   0  0  0  0  0  0  0  0  0  0  0  0
   -8.3396    4.2417  -11.5920 C   0  0  0  0  0  0  0  0  0  0  0  0
   -8.0809    5.4074  -10.8530 C   0  0  0  0  0  0  0  0  0  0  0  0
   -8.1793    5.4106   -9.4584 C   0  0  0  0  0  0  0  0  0  0  0  0
   -8.5343    4.2350   -8.8250 C   0  0  0  0  0  0  0  0  0  0  0  0
   -8.8023    3.0832   -9.5526 C   0  0  0  0  0  0  0  0  0  0  0  0
   -8.7153    3.0661  -10.9370 C   0  0  0  0  0  0  0  0  0  0  0  0
   -9.1942    1.9884   -8.6207 C   0  0  0  0  0  0  0  0  0  0  0  0
   -9.0024    2.5209   -7.2445 N   0  0  0  0  0  0  0  0  0  0  0  0
   -8.7273    3.9663   -7.3736 C   0  0  0  0  0  0  0  0  0  0  0  0
   -8.2151    2.0535   -6.7949 H   0  0  0  0  0  0  0  0  0  0  0  0
 18 19  2  0  0  0
 19 20  1  0  0  0
 20 22  1  0  0  0
 22 23  2  0  0  0
 23 24  1  0  0  0
 24 25  2  0  0  0
 25 26  1  0  0  0
 26 27  2  0  0  0
 26 28  1  0  0  0
 28 29  1  0  0  0
 29 30  1  0  0  0
 19  1  1  0  0  0
  1  2  2  0  0  0
  2  3  1  0  0  0
  3  4  1  0  0  0
  3  5  2  0  0  0
  5  6  1  0  0  0
  6  7  2  0  0  0
  7  8  1  0  0  0
  8  9  1  0  0  0
  9 10  1  0  0  0
 10 11  1  0  0  0
 11 12  1  0  0  0
 12 13  1  0  0  0
 13 14  1  0  0  0
  9 15  1  0  0  0
 27 22  1  0  0  0
  7  1  1  0  0  0
 14  9  1  0  0  0
 30 25  1  0  0  0
 15  6  1  0  0  0
 20 21  1  0  0  0
 29 31  1  0  0  0
  8 16  1  0  0  0
 12 17  1  0  0  0
M  END
> <minimizedAffinity>
-9.57491

> <minimizedRMSD>
0.51741

$$$$
P21387


 33 37  0  0  0  0  0  0  0  0999 V2000
   -5.4170    5.2447  -17.9605 C   0  0  0  0  0  0  0  0  0  0  0  0
   -4.5665    5.5890  -16.9755 N   0  0  0  0  0  0  0  0  0  0  0  0
   -5.3164    5.5119  -15.8665 N   0  0  0  0  0  0  0  0  0  0  0  0
   -6.5732    5.0206  -16.0807 C   0  0  0  0  0  0  0  0  0  0  0  0
   -7.6124    4.7388  -15.1929 C   0  0  0  0  0  0  0  0  0  0  0  0
   -8.7929    4.2258  -15.7409 C   0  0  0  0  0  0  0  0  0  0  0  0
   -8.9311    4.0512  -17.1203 C   0  0  0  0  0  0  0  0  0  0  0  0
   -7.8834    4.3640  -17.9907 C   0  0  0  0  0  0  0  0  0  0  0  0
   -6.6784    4.8446  -17.4516 C   0  0  0  0  0  0  0  0  0  0  0  0
   -4.9908    5.7845  -14.9784 H   0  0  0  0  0  0  0  0  0  0  0  0
   -7.4643    5.1164  -13.7675 C   0  0  0  0  0  0  0  0  0  0  0  0
   -6.8284    6.0675  -13.5316 O   0  0  0  0  0  0  0  0  0  0  0  0
   -8.2519    4.1804  -12.8261 N   0  0  0  0  0  0  0  0  0  0  0  0
   -8.7756    3.4827  -13.2823 H   0  0  0  0  0  0  0  0  0  0  0  0
   -8.3423    4.1623  -11.4383 C   0  0  0  0  0  0  0  0  0  0  0  0
   -8.0438    5.3038  -10.6746 C   0  0  0  0  0  0  0  0  0  0  0  0
   -8.1920    5.2946   -9.2838 C   0  0  0  0  0  0  0  0  0  0  0  0
   -8.6273    4.1287   -8.6848 C   0  0  0  0  0  0  0  0  0  0  0  0
   -8.8837    2.9870   -9.4377 C   0  0  0  0  0  0  0  0  0  0  0  0
   -8.7574    2.9862  -10.8149 C   0  0  0  0  0  0  0  0  0  0  0  0
   -9.2537    1.8721   -8.5187 C   0  0  0  0  0  0  0  0  0  0  0  0
   -9.6135    2.5376   -7.2396 N   0  0  0  0  0  0  0  0  0  0  0  0
   -8.8933    3.8295   -7.2478 C   0  0  0  0  0  0  0  0  0  0  0  0
   -9.3162    1.9692   -6.4465 H   0  0  0  0  0  0  0  0  0  0  0  0
   -4.9827    5.2348  -19.3933 C   0  0  0  0  0  0  0  0  0  0  0  0
   -4.8417    6.4295  -21.4599 C   0  0  0  0  0  0  0  0  0  0  0  0
   -4.9937    6.5790  -20.0074 N   0  0  0  0  0  0  0  0  0  0  0  0
   -3.9883    7.5175  -19.4294 C   0  0  0  0  0  0  0  0  0  0  0  0
   -4.1412    8.9587  -19.9461 C   0  0  0  0  0  0  0  0  0  0  0  0
   -3.2421    9.9135  -19.1594 C   0  0  0  0  0  0  0  0  0  0  0  0
   -2.0828    9.2893  -18.6133 O   0  0  0  0  0  0  0  0  0  0  0  0
   -1.5509    8.2816  -19.4621 C   0  0  0  0  0  0  0  0  0  0  0  0
   -2.5067    7.0953  -19.5672 C   0  0  0  0  0  0  0  0  0  0  0  0
 26 27  1  0  0  0
 27 25  1  0  0  0
 25  1  1  0  0  0
  1  2  2  0  0  0
  2  3  1  0  0  0
  3  4  1  0  0  0
  4  5  2  0  0  0
  5 11  1  0  0  0
 11 12  2  0  0  0
 11 13  1  0  0  0
 13 15  1  0  0  0
 15 16  2  0  0  0
 16 17  1  0  0  0
 17 18  2  0  0  0
 18 19  1  0  0  0
 19 20  2  0  0  0
 19 21  1  0  0  0
 21 22  1  0  0  0
 22 23  1  0  0  0
  5  6  1  0  0  0
  6  7  2  0  0  0
  7  8  1  0  0  0
  8  9  2  0  0  0
 27 28  1  0  0  0
 28 29  1  0  0  0
 29 30  1  0  0  0
 30 31  1  0  0  0
 31 32  1  0  0  0
 32 33  1  0  0  0
  9  1  1  0  0  0
 33 28  1  0  0  0
  9  4  1  0  0  0
 20 15  1  0  0  0
 23 18  1  0  0  0
  3 10  1  0  0  0
 13 14  1  0  0  0
 22 24  1  0  0  0
M  END
> <minimizedAffinity>
-8.19018

> <minimizedRMSD>
0.41825

$$$$
P21388


 30 33  0  0  0  0  0  0  0  0999 V2000
   -5.3974    5.2815  -17.9614 C   0  0  0  0  0  0  0  0  0  0  0  0
   -4.6284    5.7644  -16.9413 N   0  0  0  0  0  0  0  0  0  0  0  0
   -5.1802    5.6617  -15.7212 N   0  0  0  0  0  0  0  0  0  0  0  0
   -6.4147    5.1696  -15.9203 C   0  0  0  0  0  0  0  0  0  0  0  0
   -7.4949    4.9206  -15.0408 C   0  0  0  0  0  0  0  0  0  0  0  0
   -8.6444    4.3890  -15.6703 C   0  0  0  0  0  0  0  0  0  0  0  0
   -8.7039    4.1458  -17.0772 C   0  0  0  0  0  0  0  0  0  0  0  0
  -10.1911    3.6484  -17.7655 Cl  0  0  0  0  0  0  0  0  0  0  0  0
   -7.6582    4.3703  -17.9848 C   0  0  0  0  0  0  0  0  0  0  0  0
   -6.5515    4.8866  -17.3359 C   0  0  0  0  0  0  0  0  0  0  0  0
   -3.7380    6.1576  -17.0890 H   0  0  0  0  0  0  0  0  0  0  0  0
   -7.5057    5.3840  -13.6353 C   0  0  0  0  0  0  0  0  0  0  0  0
   -7.1590    6.4793  -13.4202 O   0  0  0  0  0  0  0  0  0  0  0  0
   -8.0763    4.3038  -12.6785 N   0  0  0  0  0  0  0  0  0  0  0  0
   -8.3684    3.4742  -13.1207 H   0  0  0  0  0  0  0  0  0  0  0  0
   -8.2431    4.3173  -11.2893 C   0  0  0  0  0  0  0  0  0  0  0  0
   -7.8963    5.4443  -10.5271 C   0  0  0  0  0  0  0  0  0  0  0  0
   -8.0188    5.4408   -9.1303 C   0  0  0  0  0  0  0  0  0  0  0  0
   -8.5003    4.3022   -8.5073 C   0  0  0  0  0  0  0  0  0  0  0  0
   -8.8629    3.1914   -9.2631 C   0  0  0  0  0  0  0  0  0  0  0  0
   -8.7467    3.1806  -10.6501 C   0  0  0  0  0  0  0  0  0  0  0  0
   -9.3060    2.0890   -8.3546 C   0  0  0  0  0  0  0  0  0  0  0  0
   -9.2564    2.6442   -6.9801 N   0  0  0  0  0  0  0  0  0  0  0  0
  -10.5202    2.5220   -6.2828 C   0  0  0  0  0  0  0  0  0  0  0  0
   -8.6226    3.9784   -7.0430 C   0  0  0  0  0  0  0  0  0  0  0  0
   -9.2283    5.0929   -6.1883 C   0  0  0  0  0  0  0  0  0  0  0  0
   -4.9316    5.2778  -19.3676 C   0  0  0  0  0  0  0  0  0  0  0  0
   -4.6639    6.6901  -21.2823 C   0  0  0  0  0  0  0  0  0  0  0  0
   -5.4096    6.4808  -20.0440 N   0  0  0  0  0  0  0  0  0  0  0  0
   -6.4006    6.3747  -20.2608 H   0  0  0  0  0  0  0  0  0  0  0  0
 28 29  1  0  0  0
 29 27  1  0  0  0
 27  1  1  0  0  0
  1  2  1  0  0  0
  2  3  1  0  0  0
  3  4  2  0  0  0
  4  5  1  0  0  0
  5 12  1  0  0  0
 12 13  2  0  0  0
 12 14  1  0  0  0
 14 16  1  0  0  0
 16 17  2  0  0  0
 17 18  1  0  0  0
 18 19  2  0  0  0
 19 20  1  0  0  0
 20 21  2  0  0  0
 20 22  1  0  0  0
 22 23  1  0  0  0
 23 24  1  0  0  0
 23 25  1  0  0  0
 25 26  1  0  0  0
  5  6  2  0  0  0
  6  7  1  0  0  0
  7  8  1  0  0  0
  7  9  2  0  0  0
  9 10  1  0  0  0
 10  1  2  0  0  0
 10  4  1  0  0  0
 21 16  1  0  0  0
 25 19  1  0  0  0
 29 30  1  0  0  0
  2 11  1  0  0  0
 14 15  1  0  0  0
M  END
> <minimizedAffinity>
-8.83269

> <minimizedRMSD>
0.19798

$$$$
P21389


 31 35  0  0  0  0  0  0  0  0999 V2000
   -8.9089    4.0164  -17.1950 C   0  0  0  0  0  0  0  0  0  0  0  0
   -7.8508    4.2984  -18.0559 C   0  0  0  0  0  0  0  0  0  0  0  0
   -6.6948    4.8049  -17.5082 C   0  0  0  0  0  0  0  0  0  0  0  0
   -6.5738    5.0362  -16.1429 C   0  0  0  0  0  0  0  0  0  0  0  0
   -7.6219    4.7305  -15.2727 C   0  0  0  0  0  0  0  0  0  0  0  0
   -8.8061    4.2004  -15.8018 C   0  0  0  0  0  0  0  0  0  0  0  0
   -5.2883    5.5075  -15.7981 N   0  0  0  0  0  0  0  0  0  0  0  0
   -4.6251    5.8602  -17.0785 C   0  0  0  0  0  0  0  0  0  0  0  0
   -4.5763    7.3974  -17.2258 C   0  0  0  0  0  0  0  0  0  0  0  0
   -3.6847    7.8623  -18.3789 C   0  0  0  0  0  0  0  0  0  0  0  0
   -2.2857    7.2615  -18.2947 C   0  0  0  0  0  0  0  0  0  0  0  0
   -2.3330    5.7418  -18.2045 C   0  0  0  0  0  0  0  0  0  0  0  0
   -3.1945    5.2908  -17.0292 C   0  0  0  0  0  0  0  0  0  0  0  0
   -5.4533    5.2047  -18.2238 C   0  0  0  0  0  0  0  0  0  0  0  0
   -4.9090    5.5861  -14.8930 H   0  0  0  0  0  0  0  0  0  0  0  0
   -7.5343    5.1720  -13.8548 C   0  0  0  0  0  0  0  0  0  0  0  0
   -6.9355    6.1523  -13.6341 O   0  0  0  0  0  0  0  0  0  0  0  0
   -8.2942    4.2231  -12.8962 N   0  0  0  0  0  0  0  0  0  0  0  0
   -8.7882    3.4969  -13.3410 H   0  0  0  0  0  0  0  0  0  0  0  0
   -8.3932    4.2297  -11.5025 C   0  0  0  0  0  0  0  0  0  0  0  0
   -8.1156    5.3953  -10.7682 C   0  0  0  0  0  0  0  0  0  0  0  0
   -8.1768    5.4003   -9.3702 C   0  0  0  0  0  0  0  0  0  0  0  0
   -8.5234    4.2280   -8.7256 C   0  0  0  0  0  0  0  0  0  0  0  0
   -8.8115    3.0762   -9.4457 C   0  0  0  0  0  0  0  0  0  0  0  0
   -8.7530    3.0566  -10.8336 C   0  0  0  0  0  0  0  0  0  0  0  0
   -9.1334    1.9697   -8.4987 C   0  0  0  0  0  0  0  0  0  0  0  0
   -9.1826    2.5817   -7.1440 N   0  0  0  0  0  0  0  0  0  0  0  0
   -8.6454    3.9511   -7.2671 C   0  0  0  0  0  0  0  0  0  0  0  0
   -8.6133    2.0395   -6.4942 H   0  0  0  0  0  0  0  0  0  0  0  0
  -11.0837    4.4412  -17.9813 O   0  0  0  0  0  0  0  0  0  0  0  0
  -10.1731    3.6421  -17.8338 C   0  0  0  0  0  0  0  0  0  0  0  0
 30 31  2  0  0  0
 31  1  1  0  0  0
  1  2  2  0  0  0
  2  3  1  0  0  0
  3  4  2  0  0  0
  4  5  1  0  0  0
  5 16  1  0  0  0
 16 17  2  0  0  0
 16 18  1  0  0  0
 18 20  1  0  0  0
 20 21  2  0  0  0
 21 22  1  0  0  0
 22 23  2  0  0  0
 23 24  1  0  0  0
 24 25  2  0  0  0
 24 26  1  0  0  0
 26 27  1  0  0  0
 27 28  1  0  0  0
  5  6  2  0  0  0
  4  7  1  0  0  0
  7  8  1  0  0  0
  8  9  1  0  0  0
  9 10  1  0  0  0
 10 11  1  0  0  0
 11 12  1  0  0  0
 12 13  1  0  0  0
  8 14  1  0  0  0
  6  1  1  0  0  0
 13  8  1  0  0  0
 14  3  1  0  0  0
 25 20  1  0  0  0
 28 23  1  0  0  0
 18 19  1  0  0  0
 27 29  1  0  0  0
  7 15  1  0  0  0
M  END
> <minimizedAffinity>
-10.04065

> <minimizedRMSD>
0.51463

$$$$
P21390


 30 34  0  0  0  0  0  0  0  0999 V2000
   -7.5473    4.7738  -15.2633 C   0  0  0  0  0  0  0  0  0  0  0  0
   -8.7584    4.2382  -15.7688 C   0  0  0  0  0  0  0  0  0  0  0  0
   -8.9901    3.9997  -17.1563 C   0  0  0  0  0  0  0  0  0  0  0  0
   -8.0437    4.2713  -18.1601 C   0  0  0  0  0  0  0  0  0  0  0  0
   -6.8551    4.7676  -17.6301 C   0  0  0  0  0  0  0  0  0  0  0  0
   -5.7686    5.1724  -18.3584 C   0  0  0  0  0  0  0  0  0  0  0  0
   -4.8373    5.4850  -17.4033 N   0  0  0  0  0  0  0  0  0  0  0  0
   -5.2921    5.4741  -16.1373 N   0  0  0  0  0  0  0  0  0  0  0  0
   -6.5553    5.0152  -16.2330 C   0  0  0  0  0  0  0  0  0  0  0  0
   -3.9034    5.7017  -17.6272 H   0  0  0  0  0  0  0  0  0  0  0  0
   -7.1470    6.3428  -13.6650 O   0  0  0  0  0  0  0  0  0  0  0  0
   -7.4325    5.2291  -13.8689 C   0  0  0  0  0  0  0  0  0  0  0  0
   -7.8293    4.1010  -12.8892 N   0  0  0  0  0  0  0  0  0  0  0  0
   -7.9514    3.2174  -13.3058 H   0  0  0  0  0  0  0  0  0  0  0  0
   -8.0421    4.1313  -11.5134 C   0  0  0  0  0  0  0  0  0  0  0  0
   -7.7362    5.2694  -10.7504 C   0  0  0  0  0  0  0  0  0  0  0  0
   -7.9615    5.2882   -9.3696 C   0  0  0  0  0  0  0  0  0  0  0  0
   -8.5010    4.1604   -8.7806 C   0  0  0  0  0  0  0  0  0  0  0  0
   -8.8033    3.0316   -9.5353 C   0  0  0  0  0  0  0  0  0  0  0  0
   -8.5778    2.9966  -10.9002 C   0  0  0  0  0  0  0  0  0  0  0  0
   -9.3286    1.9652   -8.6322 C   0  0  0  0  0  0  0  0  0  0  0  0
   -9.6618    2.6665   -7.3628 N   0  0  0  0  0  0  0  0  0  0  0  0
   -8.8284    3.8874   -7.3516 C   0  0  0  0  0  0  0  0  0  0  0  0
   -9.4393    2.0764   -6.5611 H   0  0  0  0  0  0  0  0  0  0  0  0
   -5.5606    5.3074  -19.6928 N   0  0  0  0  0  0  0  0  0  0  0  0
   -6.2181    4.8772  -20.2860 H   0  0  0  0  0  0  0  0  0  0  0  0
   -4.4868    6.0091  -20.3306 C   0  0  0  0  0  0  0  0  0  0  0  0
   -4.7781    6.4079  -21.7959 C   0  0  0  0  0  0  0  0  0  0  0  0
   -5.2112    7.7958  -21.3076 C   0  0  0  0  0  0  0  0  0  0  0  0
   -4.4340    7.5276  -20.0122 C   0  0  0  0  0  0  0  0  0  0  0  0
 11 12  2  0  0  0
 12 13  1  0  0  0
 13 15  1  0  0  0
 15 16  2  0  0  0
 16 17  1  0  0  0
 17 18  2  0  0  0
 18 19  1  0  0  0
 19 20  2  0  0  0
 19 21  1  0  0  0
 21 22  1  0  0  0
 22 23  1  0  0  0
 12  1  1  0  0  0
  1  2  2  0  0  0
  2  3  1  0  0  0
  3  4  2  0  0  0
  4  5  1  0  0  0
  5  6  2  0  0  0
  6 25  1  0  0  0
 25 27  1  0  0  0
 27 28  1  0  0  0
 28 29  1  0  0  0
 29 30  1  0  0  0
  6  7  1  0  0  0
  7  8  1  0  0  0
  8  9  2  0  0  0
 20 15  1  0  0  0
  9  1  1  0  0  0
 23 18  1  0  0  0
  9  5  1  0  0  0
 30 27  1  0  0  0
 13 14  1  0  0  0
 22 24  1  0  0  0
 25 26  1  0  0  0
  7 10  1  0  0  0
M  END
> <minimizedAffinity>
-8.71599

> <minimizedRMSD>
0.25874

$$$$
P21391


 30 34  0  0  0  0  0  0  0  0999 V2000
   -7.4802    4.6727  -15.3789 C   0  0  0  0  0  0  0  0  0  0  0  0
   -8.7131    4.1625  -15.8510 C   0  0  0  0  0  0  0  0  0  0  0  0
   -8.9876    3.9842  -17.2435 C   0  0  0  0  0  0  0  0  0  0  0  0
  -10.5576    3.4764  -17.7094 Cl  0  0  0  0  0  0  0  0  0  0  0  0
   -8.0917    4.2606  -18.2878 C   0  0  0  0  0  0  0  0  0  0  0  0
   -6.9007    4.7457  -17.7826 C   0  0  0  0  0  0  0  0  0  0  0  0
   -5.8458    5.1400  -18.5538 C   0  0  0  0  0  0  0  0  0  0  0  0
   -4.9208    5.5776  -17.6563 N   0  0  0  0  0  0  0  0  0  0  0  0
   -5.3019    5.4786  -16.3671 N   0  0  0  0  0  0  0  0  0  0  0  0
   -6.5483    4.9711  -16.3977 C   0  0  0  0  0  0  0  0  0  0  0  0
   -6.5379    5.9258  -13.7290 O   0  0  0  0  0  0  0  0  0  0  0  0
   -7.2718    5.0474  -13.9647 C   0  0  0  0  0  0  0  0  0  0  0  0
   -8.1857    4.2217  -13.0230 N   0  0  0  0  0  0  0  0  0  0  0  0
   -8.7741    3.5781  -13.4799 H   0  0  0  0  0  0  0  0  0  0  0  0
   -8.3101    4.2424  -11.6302 C   0  0  0  0  0  0  0  0  0  0  0  0
   -8.0869    5.4156  -10.8905 C   0  0  0  0  0  0  0  0  0  0  0  0
   -8.1909    5.4201   -9.4923 C   0  0  0  0  0  0  0  0  0  0  0  0
   -8.5373    4.2434   -8.8547 C   0  0  0  0  0  0  0  0  0  0  0  0
   -8.7773    3.0857   -9.5840 C   0  0  0  0  0  0  0  0  0  0  0  0
   -8.6626    3.0626  -10.9676 C   0  0  0  0  0  0  0  0  0  0  0  0
   -9.1047    1.9729   -8.6468 C   0  0  0  0  0  0  0  0  0  0  0  0
   -9.2888    2.6059   -7.3161 N   0  0  0  0  0  0  0  0  0  0  0  0
   -8.6997    3.9554   -7.4000 C   0  0  0  0  0  0  0  0  0  0  0  0
   -8.8129    2.0591   -6.5985 H   0  0  0  0  0  0  0  0  0  0  0  0
   -3.6284    6.1670  -17.9715 C   0  0  0  0  0  0  0  0  0  0  0  0
   -2.5058    5.5244  -17.1892 C   0  0  0  0  0  0  0  0  0  0  0  0
   -1.1280    5.5242  -17.8771 C   0  0  0  0  0  0  0  0  0  0  0  0
   -0.5098    5.8244  -16.5678 N   0  0  0  0  0  0  0  0  0  0  0  0
   -1.8074    6.3797  -16.1112 C   0  0  0  0  0  0  0  0  0  0  0  0
    0.2480    6.5061  -16.6076 H   0  0  0  0  0  0  0  0  0  0  0  0
 11 12  2  0  0  0
 12 13  1  0  0  0
 13 15  1  0  0  0
 15 16  2  0  0  0
 16 17  1  0  0  0
 17 18  2  0  0  0
 18 19  1  0  0  0
 19 20  2  0  0  0
 19 21  1  0  0  0
 21 22  1  0  0  0
 22 23  1  0  0  0
 12  1  1  0  0  0
  1  2  2  0  0  0
  2  3  1  0  0  0
  3  4  1  0  0  0
  3  5  2  0  0  0
  5  6  1  0  0  0
  6  7  2  0  0  0
  7  8  1  0  0  0
  8 25  1  0  0  0
 25 26  1  0  0  0
 26 27  1  0  0  0
 27 28  1  0  0  0
 28 29  1  0  0  0
  8  9  1  0  0  0
  9 10  2  0  0  0
 20 15  1  0  0  0
 10  1  1  0  0  0
 23 18  1  0  0  0
 10  6  1  0  0  0
 29 26  1  0  0  0
 13 14  1  0  0  0
 22 24  1  0  0  0
 28 30  1  0  0  0
M  END
> <minimizedAffinity>
-8.40074

> <minimizedRMSD>
0.89214

$$$$
P21399


 35 38  0  0  0  0  0  0  0  0999 V2000
   -7.1692    4.7015  -13.5720 C   0  0  0  0  0  0  0  0  0  0  0  0
   -5.3216    5.5873  -17.8210 N   0  0  0  0  0  0  0  0  0  0  0  0
   -4.4769    5.8155  -16.7716 C   0  0  0  0  0  0  0  0  0  0  0  0
   -5.0375    5.5116  -15.6218 N   0  0  0  0  0  0  0  0  0  0  0  0
   -6.3048    5.0722  -15.9377 C   0  0  0  0  0  0  0  0  0  0  0  0
   -7.3530    4.6574  -15.0843 C   0  0  0  0  0  0  0  0  0  0  0  0
   -8.5494    4.2347  -15.7159 C   0  0  0  0  0  0  0  0  0  0  0  0
   -8.6857    4.2576  -17.0994 C   0  0  0  0  0  0  0  0  0  0  0  0
  -10.2979    3.8709  -17.9620 Br  0  0  0  0  0  0  0  0  0  0  0  0
   -7.6703    4.6953  -17.9234 C   0  0  0  0  0  0  0  0  0  0  0  0
   -6.4933    5.0961  -17.3123 C   0  0  0  0  0  0  0  0  0  0  0  0
   -5.1877    4.7221  -20.0378 N   0  0  0  0  0  0  0  0  0  0  0  0
   -5.0439    5.9031  -19.2097 C   0  0  0  0  0  0  0  0  0  0  0  0
   -4.9892    4.9618  -21.0091 H   0  0  0  0  0  0  0  0  0  0  0  0
   -6.1415    4.3685  -19.9629 H   0  0  0  0  0  0  0  0  0  0  0  0
   -6.6689    6.1518  -13.1626 C   0  0  0  0  0  0  0  0  0  0  0  0
   -7.3026    7.1173  -13.3615 O   0  0  0  0  0  0  0  0  0  0  0  0
   -5.2435    5.9871  -12.5462 N   0  0  0  0  0  0  0  0  0  0  0  0
   -4.8942    5.0667  -12.5548 H   0  0  0  0  0  0  0  0  0  0  0  0
   -4.3542    6.9666  -11.9652 C   0  0  0  0  0  0  0  0  0  0  0  0
   -4.7798    7.4815  -10.5940 C   0  0  0  0  0  0  0  0  0  0  0  0
   -5.0877    6.4367   -9.7820 F   0  0  0  0  0  0  0  0  0  0  0  0
   -3.7241    8.1116  -10.0098 F   0  0  0  0  0  0  0  0  0  0  0  0
   -8.4234    4.3136  -12.8758 N   0  0  0  0  0  0  0  0  0  0  0  0
   -9.2436    4.1030  -13.3780 H   0  0  0  0  0  0  0  0  0  0  0  0
   -8.3919    4.2592  -11.4685 C   0  0  0  0  0  0  0  0  0  0  0  0
   -8.1894    5.4149  -10.6894 C   0  0  0  0  0  0  0  0  0  0  0  0
   -8.2350    5.3775   -9.2921 C   0  0  0  0  0  0  0  0  0  0  0  0
   -8.5384    4.1763   -8.6868 C   0  0  0  0  0  0  0  0  0  0  0  0
   -8.7396    3.0262   -9.4404 C   0  0  0  0  0  0  0  0  0  0  0  0
   -8.6510    3.0435  -10.8210 C   0  0  0  0  0  0  0  0  0  0  0  0
   -9.0697    1.8952   -8.5250 C   0  0  0  0  0  0  0  0  0  0  0  0
   -9.4397    2.5449   -7.2393 N   0  0  0  0  0  0  0  0  0  0  0  0
   -8.7571    3.8569   -7.2472 C   0  0  0  0  0  0  0  0  0  0  0  0
   -9.1205    1.9820   -6.4508 H   0  0  0  0  0  0  0  0  0  0  0  0
 12 13  1  0  0  0
 13  2  1  0  0  0
  2  3  1  0  0  0
  3  4  2  0  0  0
  4  5  1  0  0  0
  5  6  2  0  0  0
  6  1  1  0  0  0
  1 24  1  0  0  0
 24 26  1  0  0  0
 26 27  2  0  0  0
 27 28  1  0  0  0
 28 29  2  0  0  0
 29 30  1  0  0  0
 30 31  2  0  0  0
 30 32  1  0  0  0
 32 33  1  0  0  0
 33 34  1  0  0  0
  1 16  1  0  0  0
 16 17  2  0  0  0
 16 18  1  0  0  0
 18 20  1  0  0  0
 20 21  1  0  0  0
 21 22  1  0  0  0
 21 23  1  0  0  0
  6  7  1  0  0  0
  7  8  2  0  0  0
  8  9  1  0  0  0
  8 10  1  0  0  0
 10 11  2  0  0  0
 11  2  1  0  0  0
 11  5  1  0  0  0
 31 26  1  0  0  0
 34 29  1  0  0  0
 12 14  1  0  0  0
 12 15  1  0  0  0
 24 25  1  0  0  0
 33 35  1  0  0  0
 18 19  1  0  0  0
M  END
> <minimizedAffinity>
-7.12345

> <minimizedRMSD>
0.37108

$$$$
P21404


 32 35  0  0  0  0  0  0  0  0999 V2000
   -7.1668    4.4045  -13.3208 C   0  0  0  0  0  0  0  0  0  0  0  0
   -7.2326    4.6407  -14.8382 C   0  0  0  0  0  0  0  0  0  0  0  0
   -8.3752    4.2722  -15.5851 C   0  0  0  0  0  0  0  0  0  0  0  0
   -8.4119    4.3292  -16.9788 C   0  0  0  0  0  0  0  0  0  0  0  0
  -10.0160    3.9138  -17.8549 Br  0  0  0  0  0  0  0  0  0  0  0  0
   -7.3183    4.7381  -17.7300 C   0  0  0  0  0  0  0  0  0  0  0  0
   -6.1735    5.1296  -17.0383 C   0  0  0  0  0  0  0  0  0  0  0  0
   -4.9804    5.5881  -17.5469 N   0  0  0  0  0  0  0  0  0  0  0  0
   -4.2342    5.8293  -16.4987 C   0  0  0  0  0  0  0  0  0  0  0  0
   -4.8892    5.5412  -15.3382 N   0  0  0  0  0  0  0  0  0  0  0  0
   -6.1525    5.0808  -15.6433 C   0  0  0  0  0  0  0  0  0  0  0  0
   -4.5206    5.6449  -14.4312 H   0  0  0  0  0  0  0  0  0  0  0  0
   -5.2973    5.7783  -12.6109 O   0  0  0  0  0  0  0  0  0  0  0  0
   -5.7395    4.6990  -12.7131 C   0  0  0  0  0  0  0  0  0  0  0  0
   -5.0924    3.3101  -12.4186 N   0  0  0  0  0  0  0  0  0  0  0  0
   -5.6506    2.5357  -12.6591 H   0  0  0  0  0  0  0  0  0  0  0  0
   -3.8065    2.9762  -11.8500 C   0  0  0  0  0  0  0  0  0  0  0  0
   -2.7374    2.7489  -12.9160 C   0  0  0  0  0  0  0  0  0  0  0  0
   -2.9156    3.5931  -13.9657 F   0  0  0  0  0  0  0  0  0  0  0  0
   -2.8425    1.4882  -13.4137 F   0  0  0  0  0  0  0  0  0  0  0  0
   -8.2547    5.1320  -12.6106 N   0  0  0  0  0  0  0  0  0  0  0  0
   -8.8684    5.7467  -13.0739 H   0  0  0  0  0  0  0  0  0  0  0  0
   -8.3427    4.8765  -11.2242 C   0  0  0  0  0  0  0  0  0  0  0  0
   -8.1505    5.9273  -10.3037 C   0  0  0  0  0  0  0  0  0  0  0  0
   -8.2238    5.7069   -8.9263 C   0  0  0  0  0  0  0  0  0  0  0  0
   -8.5187    4.4293   -8.4901 C   0  0  0  0  0  0  0  0  0  0  0  0
   -8.6928    3.3813   -9.3896 C   0  0  0  0  0  0  0  0  0  0  0  0
   -8.5838    3.5785  -10.7547 C   0  0  0  0  0  0  0  0  0  0  0  0
   -9.0226    2.1341   -8.6364 C   0  0  0  0  0  0  0  0  0  0  0  0
   -9.3785    2.5988   -7.2695 N   0  0  0  0  0  0  0  0  0  0  0  0
   -8.7384    3.9203   -7.1059 C   0  0  0  0  0  0  0  0  0  0  0  0
   -9.0252    1.9454   -6.5704 H   0  0  0  0  0  0  0  0  0  0  0  0
 13 14  2  0  0  0
 14 15  1  0  0  0
 15 17  1  0  0  0
 17 18  1  0  0  0
 18 19  1  0  0  0
 18 20  1  0  0  0
 14  1  1  0  0  0
  1 21  1  0  0  0
 21 23  1  0  0  0
 23 24  2  0  0  0
 24 25  1  0  0  0
 25 26  2  0  0  0
 26 27  1  0  0  0
 27 28  2  0  0  0
 27 29  1  0  0  0
 29 30  1  0  0  0
 30 31  1  0  0  0
  1  2  1  0  0  0
  2  3  2  0  0  0
  3  4  1  0  0  0
  4  5  1  0  0  0
  4  6  2  0  0  0
  6  7  1  0  0  0
  7  8  1  0  0  0
  8  9  2  0  0  0
  9 10  1  0  0  0
 10 11  1  0  0  0
 28 23  1  0  0  0
 11  2  1  0  0  0
 31 26  1  0  0  0
 11  7  2  0  0  0
 15 16  1  0  0  0
 21 22  1  0  0  0
 30 32  1  0  0  0
 10 12  1  0  0  0
M  END
> <minimizedAffinity>
-7.71207

> <minimizedRMSD>
1.09802

$$$$
P21406


 37 41  0  0  0  0  0  0  0  0999 V2000
   -7.7532    5.5404  -12.9754 C   0  0  0  0  0  0  0  0  0  0  0  0
   -4.3119    6.8065  -15.1756 C   0  0  0  0  0  0  0  0  0  0  0  0
   -5.2440    6.5412  -14.2858 N   0  0  0  0  0  0  0  0  0  0  0  0
   -6.1942    5.8230  -14.9579 C   0  0  0  0  0  0  0  0  0  0  0  0
   -7.3890    5.2977  -14.4282 C   0  0  0  0  0  0  0  0  0  0  0  0
   -8.2518    4.6632  -15.3334 C   0  0  0  0  0  0  0  0  0  0  0  0
   -7.9035    4.5161  -16.6779 C   0  0  0  0  0  0  0  0  0  0  0  0
   -9.2141    3.7645  -17.8069 Br  0  0  0  0  0  0  0  0  0  0  0  0
   -6.6783    4.9795  -17.1951 C   0  0  0  0  0  0  0  0  0  0  0  0
   -5.8611    5.6779  -16.2995 C   0  0  0  0  0  0  0  0  0  0  0  0
   -4.6604    6.3598  -16.4451 N   0  0  0  0  0  0  0  0  0  0  0  0
   -3.9377    6.6208  -17.6064 C   0  0  0  0  0  0  0  0  0  0  0  0
   -4.1624    6.1470  -18.8299 C   0  0  0  0  0  0  0  0  0  0  0  0
   -5.1451    5.1812  -19.2086 C   0  0  0  0  0  0  0  0  0  0  0  0
   -6.2136    4.7100  -18.5518 C   0  0  0  0  0  0  0  0  0  0  0  0
   -2.6562    7.5026  -13.4227 C   0  0  0  0  0  0  0  0  0  0  0  0
   -3.0166    7.5025  -14.9017 C   0  0  0  0  0  0  0  0  0  0  0  0
   -8.6584    6.8319  -12.9108 C   0  0  0  0  0  0  0  0  0  0  0  0
   -9.7933    6.8375  -13.1974 O   0  0  0  0  0  0  0  0  0  0  0  0
   -7.7424    7.9828  -12.3894 N   0  0  0  0  0  0  0  0  0  0  0  0
   -6.7928    7.7420  -12.2916 H   0  0  0  0  0  0  0  0  0  0  0  0
   -8.0617    9.3432  -12.0274 C   0  0  0  0  0  0  0  0  0  0  0  0
   -9.1424    9.4590  -10.9571 C   0  0  0  0  0  0  0  0  0  0  0  0
   -9.0050   10.6500  -10.3155 F   0  0  0  0  0  0  0  0  0  0  0  0
   -8.9558    8.4963  -10.0151 F   0  0  0  0  0  0  0  0  0  0  0  0
   -8.4086    4.3627  -12.3799 N   0  0  0  0  0  0  0  0  0  0  0  0
   -8.8542    3.6981  -12.9534 H   0  0  0  0  0  0  0  0  0  0  0  0
   -8.3908    4.1983  -10.9820 C   0  0  0  0  0  0  0  0  0  0  0  0
   -8.1021    5.2365  -10.0705 C   0  0  0  0  0  0  0  0  0  0  0  0
   -8.2156    5.0703   -8.6844 C   0  0  0  0  0  0  0  0  0  0  0  0
   -8.6345    3.8490   -8.2077 C   0  0  0  0  0  0  0  0  0  0  0  0
   -8.9197    2.8124   -9.0811 C   0  0  0  0  0  0  0  0  0  0  0  0
   -8.8210    2.9717  -10.4557 C   0  0  0  0  0  0  0  0  0  0  0  0
   -9.2969    1.6032   -8.3001 C   0  0  0  0  0  0  0  0  0  0  0  0
   -9.4842    2.0625   -6.8986 N   0  0  0  0  0  0  0  0  0  0  0  0
   -8.8759    3.4051   -6.8073 C   0  0  0  0  0  0  0  0  0  0  0  0
   -9.0210    1.4220   -6.2539 H   0  0  0  0  0  0  0  0  0  0  0  0
 16 17  1  0  0  0
 17  2  1  0  0  0
  2  3  2  0  0  0
  3  4  1  0  0  0
  4  5  2  0  0  0
  5  1  1  0  0  0
  1 26  1  0  0  0
 26 28  1  0  0  0
 28 29  2  0  0  0
 29 30  1  0  0  0
 30 31  2  0  0  0
 31 32  1  0  0  0
 32 33  2  0  0  0
 32 34  1  0  0  0
 34 35  1  0  0  0
 35 36  1  0  0  0
  1 18  1  0  0  0
 18 19  2  0  0  0
 18 20  1  0  0  0
 20 22  1  0  0  0
 22 23  1  0  0  0
 23 24  1  0  0  0
 23 25  1  0  0  0
  5  6  1  0  0  0
  6  7  2  0  0  0
  7  8  1  0  0  0
  7  9  1  0  0  0
  9 10  2  0  0  0
 10 11  1  0  0  0
 11 12  1  0  0  0
 12 13  2  0  0  0
 13 14  1  0  0  0
 14 15  2  0  0  0
 11  2  1  0  0  0
 10  4  1  0  0  0
 33 28  1  0  0  0
 15  9  1  0  0  0
 36 31  1  0  0  0
 26 27  1  0  0  0
 35 37  1  0  0  0
 20 21  1  0  0  0
M  END
> <minimizedAffinity>
-7.65023

> <minimizedRMSD>
1.24880

$$$$
P21409


 36 40  0  0  0  0  0  0  0  0999 V2000
   -7.3925    5.4490  -12.6123 C   0  0  0  0  0  0  0  0  0  0  0  0
   -7.4272    5.4345  -14.1618 C   0  0  0  0  0  0  0  0  0  0  0  0
   -8.4311    4.4883  -14.8983 C   0  0  0  0  0  0  0  0  0  0  0  0
   -8.3560    4.6446  -16.4303 C   0  0  0  0  0  0  0  0  0  0  0  0
   -9.4796    3.4140  -17.3863 Br  0  0  0  0  0  0  0  0  0  0  0  0
   -6.9399    4.5855  -16.9687 C   0  0  0  0  0  0  0  0  0  0  0  0
   -6.7511    5.0153  -18.4065 C   0  0  0  0  0  0  0  0  0  0  0  0
   -5.3235    5.1043  -18.7738 N   0  0  0  0  0  0  0  0  0  0  0  0
   -4.5588    5.9751  -17.9054 C   0  0  0  0  0  0  0  0  0  0  0  0
   -4.6746    5.4209  -16.5789 N   0  0  0  0  0  0  0  0  0  0  0  0
   -4.0060    6.1496  -15.5191 C   0  0  0  0  0  0  0  0  0  0  0  0
   -4.9299    6.1283  -14.3717 N   0  0  0  0  0  0  0  0  0  0  0  0
   -6.0148    5.2093  -14.7252 C   0  0  0  0  0  0  0  0  0  0  0  0
   -6.0692    5.5072  -16.1884 C   0  0  0  0  0  0  0  0  0  0  0  0
   -5.2567    5.4593  -19.7277 H   0  0  0  0  0  0  0  0  0  0  0  0
   -5.3015    7.0629  -14.2017 H   0  0  0  0  0  0  0  0  0  0  0  0
   -6.5809    7.5903  -11.8077 O   0  0  0  0  0  0  0  0  0  0  0  0
   -7.4981    6.9741  -12.1866 C   0  0  0  0  0  0  0  0  0  0  0  0
   -8.9560    7.4187  -12.4799 N   0  0  0  0  0  0  0  0  0  0  0  0
   -9.5301    6.7195  -12.8680 H   0  0  0  0  0  0  0  0  0  0  0  0
   -9.6104    8.6984  -12.2749 C   0  0  0  0  0  0  0  0  0  0  0  0
  -10.9679    8.8469  -12.9599 C   0  0  0  0  0  0  0  0  0  0  0  0
  -11.2344    7.7449  -13.7060 F   0  0  0  0  0  0  0  0  0  0  0  0
  -11.9485    8.9332  -12.0238 F   0  0  0  0  0  0  0  0  0  0  0  0
   -8.4950    4.6289  -12.0577 N   0  0  0  0  0  0  0  0  0  0  0  0
   -9.2392    4.3131  -12.6197 H   0  0  0  0  0  0  0  0  0  0  0  0
   -8.4220    4.3224  -10.6726 C   0  0  0  0  0  0  0  0  0  0  0  0
   -8.1418    5.2874   -9.6805 C   0  0  0  0  0  0  0  0  0  0  0  0
   -8.2857    5.0162   -8.3162 C   0  0  0  0  0  0  0  0  0  0  0  0
   -8.7199    3.7642   -7.9498 C   0  0  0  0  0  0  0  0  0  0  0  0
   -8.9421    2.7807   -8.9047 C   0  0  0  0  0  0  0  0  0  0  0  0
   -8.8119    3.0399  -10.2577 C   0  0  0  0  0  0  0  0  0  0  0  0
   -9.3251    1.5201   -8.2092 C   0  0  0  0  0  0  0  0  0  0  0  0
   -9.7824    1.9585   -6.8652 N   0  0  0  0  0  0  0  0  0  0  0  0
   -9.0616    3.2234   -6.6031 C   0  0  0  0  0  0  0  0  0  0  0  0
   -9.5456    1.2594   -6.1613 H   0  0  0  0  0  0  0  0  0  0  0  0
 17 18  2  0  0  0
 18 19  1  0  0  0
 19 21  1  0  0  0
 21 22  1  0  0  0
 22 23  1  0  0  0
 22 24  1  0  0  0
 18  1  1  0  0  0
  1 25  1  0  0  0
 25 27  1  0  0  0
 27 28  2  0  0  0
 28 29  1  0  0  0
 29 30  2  0  0  0
 30 31  1  0  0  0
 31 32  2  0  0  0
 31 33  1  0  0  0
 33 34  1  0  0  0
 34 35  1  0  0  0
  1  2  1  0  0  0
  2  3  1  0  0  0
  3  4  1  0  0  0
  4  5  1  0  0  0
  4  6  1  0  0  0
  6  7  1  0  0  0
  7  8  1  0  0  0
  8  9  1  0  0  0
  9 10  1  0  0  0
 10 11  1  0  0  0
 11 12  1  0  0  0
 13 12  1  0  0  0
 13 14  1  0  0  0
 32 27  1  0  0  0
 13  2  1  0  0  0
 35 30  1  0  0  0
 14  6  1  0  0  0
 14 10  1  0  0  0
 19 20  1  0  0  0
 25 26  1  0  0  0
 34 36  1  0  0  0
  8 15  1  0  0  0
 12 16  1  0  0  0
M  END
> <minimizedAffinity>
-7.71172

> <minimizedRMSD>
0.67039

$$$$
P21414


 37 40  0  0  0  0  0  0  0  0999 V2000
   -6.8048    4.7593  -12.6480 C   0  0  0  0  0  0  0  0  0  0  0  0
   -3.9146    5.4658  -15.9178 C   0  0  0  0  0  0  0  0  0  0  0  0
   -4.7014    5.3400  -16.9591 N   0  0  0  0  0  0  0  0  0  0  0  0
   -5.9600    5.1929  -16.4354 C   0  0  0  0  0  0  0  0  0  0  0  0
   -5.9520    5.2966  -15.0636 C   0  0  0  0  0  0  0  0  0  0  0  0
   -4.6408    5.5224  -14.7578 N   0  0  0  0  0  0  0  0  0  0  0  0
   -7.1056    5.1422  -14.1446 C   0  0  0  0  0  0  0  0  0  0  0  0
   -7.6669    6.4670  -14.0530 O   0  0  0  0  0  0  0  0  0  0  0  0
   -8.2129    4.3279  -14.8656 C   0  0  0  0  0  0  0  0  0  0  0  0
   -8.3892    4.6527  -16.3675 C   0  0  0  0  0  0  0  0  0  0  0  0
   -9.4740    3.2980  -17.2324 Br  0  0  0  0  0  0  0  0  0  0  0  0
   -7.1449    4.8590  -17.2432 C   0  0  0  0  0  0  0  0  0  0  0  0
   -4.2795    5.6959  -13.8586 H   0  0  0  0  0  0  0  0  0  0  0  0
   -7.0361    7.0555  -13.6095 H   0  0  0  0  0  0  0  0  0  0  0  0
   -1.8438    5.8198  -17.0614 C   0  0  0  0  0  0  0  0  0  0  0  0
   -2.5703    5.5195  -15.8498 N   0  0  0  0  0  0  0  0  0  0  0  0
   -2.0980    5.3591  -15.0010 H   0  0  0  0  0  0  0  0  0  0  0  0
   -5.3857    4.1917  -12.2359 C   0  0  0  0  0  0  0  0  0  0  0  0
   -4.4914    4.9173  -12.0359 O   0  0  0  0  0  0  0  0  0  0  0  0
   -5.4869    2.6557  -12.0718 N   0  0  0  0  0  0  0  0  0  0  0  0
   -6.3829    2.2819  -12.2348 H   0  0  0  0  0  0  0  0  0  0  0  0
   -4.4789    1.6801  -11.7178 C   0  0  0  0  0  0  0  0  0  0  0  0
   -4.8361    0.8791  -10.4726 C   0  0  0  0  0  0  0  0  0  0  0  0
   -3.7593    0.8125   -9.6429 F   0  0  0  0  0  0  0  0  0  0  0  0
   -5.8089    1.5102   -9.7624 F   0  0  0  0  0  0  0  0  0  0  0  0
   -7.9910    4.0324  -12.0958 N   0  0  0  0  0  0  0  0  0  0  0  0
   -8.5689    3.5099  -12.6976 H   0  0  0  0  0  0  0  0  0  0  0  0
   -8.2819    4.0917  -10.7318 C   0  0  0  0  0  0  0  0  0  0  0  0
   -8.0311    5.2310   -9.9447 C   0  0  0  0  0  0  0  0  0  0  0  0
   -8.2323    5.2199   -8.5611 C   0  0  0  0  0  0  0  0  0  0  0  0
   -8.6840    4.0540   -7.9777 C   0  0  0  0  0  0  0  0  0  0  0  0
   -8.9656    2.9352   -8.7457 C   0  0  0  0  0  0  0  0  0  0  0  0
   -8.7922    2.9417  -10.1146 C   0  0  0  0  0  0  0  0  0  0  0  0
   -9.4962    1.8506   -7.8780 C   0  0  0  0  0  0  0  0  0  0  0  0
   -9.2871    2.3136   -6.4839 N   0  0  0  0  0  0  0  0  0  0  0  0
   -9.0062    3.7632   -6.5543 C   0  0  0  0  0  0  0  0  0  0  0  0
   -8.4972    1.8225   -6.0653 H   0  0  0  0  0  0  0  0  0  0  0  0
 15 16  1  0  0  0
 16  2  1  0  0  0
  2  3  2  0  0  0
  3  4  1  0  0  0
  4  5  2  0  0  0
  5  6  1  0  0  0
  5  7  1  0  0  0
  7  8  1  0  0  0
  7  1  1  0  0  0
  1 26  1  0  0  0
 26 28  1  0  0  0
 28 29  2  0  0  0
 29 30  1  0  0  0
 30 31  2  0  0  0
 31 32  1  0  0  0
 32 33  2  0  0  0
 32 34  1  0  0  0
 34 35  1  0  0  0
 35 36  1  0  0  0
  1 18  1  0  0  0
 18 19  2  0  0  0
 18 20  1  0  0  0
 20 22  1  0  0  0
 22 23  1  0  0  0
 23 24  1  0  0  0
 23 25  1  0  0  0
  7  9  1  0  0  0
  9 10  1  0  0  0
 10 11  1  0  0  0
 10 12  1  0  0  0
  6  2  1  0  0  0
 33 28  1  0  0  0
 12  4  1  0  0  0
 36 31  1  0  0  0
 16 17  1  0  0  0
  6 13  1  0  0  0
  8 14  1  0  0  0
 26 27  1  0  0  0
 35 37  1  0  0  0
 20 21  1  0  0  0
M  END
> <minimizedAffinity>
-7.69259

> <minimizedRMSD>
0.85100

$$$$
P21421


 35 38  0  0  0  0  0  0  0  0999 V2000
   -7.3750    5.3082  -13.2504 C   0  0  0  0  0  0  0  0  0  0  0  0
   -2.9420    6.6577  -16.2883 C   0  0  0  0  0  0  0  0  0  0  0  0
   -4.2999    6.0588  -16.2280 C   0  0  0  0  0  0  0  0  0  0  0  0
   -5.0144    5.8952  -15.1290 N   0  0  0  0  0  0  0  0  0  0  0  0
   -6.1898    5.3101  -15.5218 C   0  0  0  0  0  0  0  0  0  0  0  0
   -7.3146    4.9745  -14.7364 C   0  0  0  0  0  0  0  0  0  0  0  0
   -8.4262    4.4519  -15.4304 C   0  0  0  0  0  0  0  0  0  0  0  0
   -8.3883    4.2654  -16.8105 C   0  0  0  0  0  0  0  0  0  0  0  0
   -9.9160    3.7301  -17.7412 Br  0  0  0  0  0  0  0  0  0  0  0  0
   -7.2752    4.5741  -17.5783 C   0  0  0  0  0  0  0  0  0  0  0  0
   -6.1948    5.1170  -16.8978 C   0  0  0  0  0  0  0  0  0  0  0  0
   -4.9867    5.6077  -17.3325 N   0  0  0  0  0  0  0  0  0  0  0  0
   -4.6064    5.7412  -18.7274 C   0  0  0  0  0  0  0  0  0  0  0  0
   -3.6618    4.7381  -19.0728 O   0  0  0  0  0  0  0  0  0  0  0  0
   -2.8707    4.8347  -18.5198 H   0  0  0  0  0  0  0  0  0  0  0  0
   -7.9972    6.7542  -13.1184 C   0  0  0  0  0  0  0  0  0  0  0  0
   -9.1488    6.9505  -13.0335 O   0  0  0  0  0  0  0  0  0  0  0  0
   -6.7962    7.7536  -13.0964 N   0  0  0  0  0  0  0  0  0  0  0  0
   -5.9163    7.3449  -13.2637 H   0  0  0  0  0  0  0  0  0  0  0  0
   -6.7678    9.1805  -12.8703 C   0  0  0  0  0  0  0  0  0  0  0  0
   -6.0680    9.9880  -13.9585 C   0  0  0  0  0  0  0  0  0  0  0  0
   -5.0238   10.6818  -13.4403 F   0  0  0  0  0  0  0  0  0  0  0  0
   -5.5660    9.1798  -14.9259 F   0  0  0  0  0  0  0  0  0  0  0  0
   -8.1275    4.2597  -12.5215 N   0  0  0  0  0  0  0  0  0  0  0  0
   -8.6145    3.5849  -13.0476 H   0  0  0  0  0  0  0  0  0  0  0  0
   -8.1832    4.1773  -11.1236 C   0  0  0  0  0  0  0  0  0  0  0  0
   -7.8689    5.2354  -10.2479 C   0  0  0  0  0  0  0  0  0  0  0  0
   -8.0817    5.1549   -8.8625 C   0  0  0  0  0  0  0  0  0  0  0  0
   -8.6177    3.9953   -8.3493 C   0  0  0  0  0  0  0  0  0  0  0  0
   -8.9182    2.9306   -9.1844 C   0  0  0  0  0  0  0  0  0  0  0  0
   -8.7317    3.0129  -10.5568 C   0  0  0  0  0  0  0  0  0  0  0  0
   -9.4138    1.7934   -8.3565 C   0  0  0  0  0  0  0  0  0  0  0  0
   -9.7786    2.3984   -7.0473 N   0  0  0  0  0  0  0  0  0  0  0  0
   -8.9721    3.6346   -6.9469 C   0  0  0  0  0  0  0  0  0  0  0  0
   -9.5513    1.7611   -6.2840 H   0  0  0  0  0  0  0  0  0  0  0  0
  2  3  1  0  0  0
  3  4  2  0  0  0
  4  5  1  0  0  0
  5  6  2  0  0  0
  6  1  1  0  0  0
  1 24  1  0  0  0
 24 26  1  0  0  0
 26 27  2  0  0  0
 27 28  1  0  0  0
 28 29  2  0  0  0
 29 30  1  0  0  0
 30 31  2  0  0  0
 30 32  1  0  0  0
 32 33  1  0  0  0
 33 34  1  0  0  0
  1 16  1  0  0  0
 16 17  2  0  0  0
 16 18  1  0  0  0
 18 20  1  0  0  0
 20 21  1  0  0  0
 21 22  1  0  0  0
 21 23  1  0  0  0
  6  7  1  0  0  0
  7  8  2  0  0  0
  8  9  1  0  0  0
  8 10  1  0  0  0
 10 11  2  0  0  0
 11 12  1  0  0  0
 12 13  1  0  0  0
 13 14  1  0  0  0
 12  3  1  0  0  0
 11  5  1  0  0  0
 31 26  1  0  0  0
 34 29  1  0  0  0
 24 25  1  0  0  0
 33 35  1  0  0  0
 18 19  1  0  0  0
 14 15  1  0  0  0
M  END
> <minimizedAffinity>
-7.15461

> <minimizedRMSD>
0.74074

$$$$
P21422


 34 37  0  0  0  0  0  0  0  0999 V2000
   -7.1552    4.9032  -13.6210 C   0  0  0  0  0  0  0  0  0  0  0  0
   -5.1851    5.4982  -19.4409 N   0  0  0  0  0  0  0  0  0  0  0  0
   -5.3935    5.3698  -18.0367 N   0  0  0  0  0  0  0  0  0  0  0  0
   -4.5367    5.7685  -17.0527 C   0  0  0  0  0  0  0  0  0  0  0  0
   -5.0615    5.6167  -15.8539 N   0  0  0  0  0  0  0  0  0  0  0  0
   -6.3072    5.0663  -16.0675 C   0  0  0  0  0  0  0  0  0  0  0  0
   -7.3089    4.7111  -15.1309 C   0  0  0  0  0  0  0  0  0  0  0  0
   -8.5463    4.2909  -15.6831 C   0  0  0  0  0  0  0  0  0  0  0  0
   -8.7323    4.1778  -17.0603 C   0  0  0  0  0  0  0  0  0  0  0  0
  -10.4294    3.8617  -17.7758 Br  0  0  0  0  0  0  0  0  0  0  0  0
   -7.7201    4.4353  -17.9688 C   0  0  0  0  0  0  0  0  0  0  0  0
   -6.5332    4.9151  -17.4357 C   0  0  0  0  0  0  0  0  0  0  0  0
   -4.2476    5.8610  -19.6137 H   0  0  0  0  0  0  0  0  0  0  0  0
   -5.8754    6.1407  -19.8297 H   0  0  0  0  0  0  0  0  0  0  0  0
   -5.6891    4.5785  -13.1163 C   0  0  0  0  0  0  0  0  0  0  0  0
   -5.2903    3.4829  -13.0070 O   0  0  0  0  0  0  0  0  0  0  0  0
   -5.0123    5.9394  -12.7657 N   0  0  0  0  0  0  0  0  0  0  0  0
   -5.5896    6.7286  -12.8801 H   0  0  0  0  0  0  0  0  0  0  0  0
   -3.6759    6.2294  -12.3003 C   0  0  0  0  0  0  0  0  0  0  0  0
   -3.5500    6.2699  -10.7840 C   0  0  0  0  0  0  0  0  0  0  0  0
   -4.1813    7.3689  -10.2938 F   0  0  0  0  0  0  0  0  0  0  0  0
   -4.1669    5.1948  -10.2305 F   0  0  0  0  0  0  0  0  0  0  0  0
   -8.1294    4.0443  -12.9036 N   0  0  0  0  0  0  0  0  0  0  0  0
   -8.6896    3.4128  -13.4102 H   0  0  0  0  0  0  0  0  0  0  0  0
   -8.2587    4.1251  -11.5064 C   0  0  0  0  0  0  0  0  0  0  0  0
   -8.0938    5.3135  -10.7703 C   0  0  0  0  0  0  0  0  0  0  0  0
   -8.2366    5.3402   -9.3750 C   0  0  0  0  0  0  0  0  0  0  0  0
   -8.5880    4.1731   -8.7251 C   0  0  0  0  0  0  0  0  0  0  0  0
   -8.8332    3.0139   -9.4410 C   0  0  0  0  0  0  0  0  0  0  0  0
   -8.6912    2.9785  -10.8197 C   0  0  0  0  0  0  0  0  0  0  0  0
   -9.2712    1.9338   -8.5133 C   0  0  0  0  0  0  0  0  0  0  0  0
   -9.0959    2.4750   -7.1366 N   0  0  0  0  0  0  0  0  0  0  0  0
   -8.8114    3.9188   -7.2756 C   0  0  0  0  0  0  0  0  0  0  0  0
   -8.3174    2.0073   -6.6723 H   0  0  0  0  0  0  0  0  0  0  0  0
  2  3  1  0  0  0
  3  4  1  0  0  0
  4  5  2  0  0  0
  5  6  1  0  0  0
  6  7  2  0  0  0
  7  1  1  0  0  0
  1 23  1  0  0  0
 23 25  1  0  0  0
 25 26  2  0  0  0
 26 27  1  0  0  0
 27 28  2  0  0  0
 28 29  1  0  0  0
 29 30  2  0  0  0
 29 31  1  0  0  0
 31 32  1  0  0  0
 32 33  1  0  0  0
  1 15  1  0  0  0
 15 16  2  0  0  0
 15 17  1  0  0  0
 17 19  1  0  0  0
 19 20  1  0  0  0
 20 21  1  0  0  0
 20 22  1  0  0  0
  7  8  1  0  0  0
  8  9  2  0  0  0
  9 10  1  0  0  0
  9 11  1  0  0  0
 11 12  2  0  0  0
 12  3  1  0  0  0
 12  6  1  0  0  0
 30 25  1  0  0  0
 33 28  1  0  0  0
  2 13  1  0  0  0
  2 14  1  0  0  0
 23 24  1  0  0  0
 32 34  1  0  0  0
 17 18  1  0  0  0
M  END
> <minimizedAffinity>
-7.64926

> <minimizedRMSD>
0.92068

$$$$
P21428


 34 37  0  0  0  0  0  0  0  0999 V2000
   -7.0182    4.2124  -13.4941 C   0  0  0  0  0  0  0  0  0  0  0  0
   -6.1031    5.1898  -12.9562 O   0  0  0  0  0  0  0  0  0  0  0  0
   -6.0378    5.0770  -11.9950 H   0  0  0  0  0  0  0  0  0  0  0  0
   -7.0712    4.4485  -15.0056 C   0  0  0  0  0  0  0  0  0  0  0  0
   -8.2790    4.3705  -15.7394 C   0  0  0  0  0  0  0  0  0  0  0  0
   -8.3104    4.4944  -17.1359 C   0  0  0  0  0  0  0  0  0  0  0  0
   -9.9622    4.4967  -18.0579 Br  0  0  0  0  0  0  0  0  0  0  0  0
   -7.1449    4.6698  -17.8847 C   0  0  0  0  0  0  0  0  0  0  0  0
   -5.9395    4.7903  -17.1918 C   0  0  0  0  0  0  0  0  0  0  0  0
   -4.6747    5.0416  -17.6745 N   0  0  0  0  0  0  0  0  0  0  0  0
   -3.8995    5.0707  -16.6174 C   0  0  0  0  0  0  0  0  0  0  0  0
   -4.6096    4.8614  -15.4755 N   0  0  0  0  0  0  0  0  0  0  0  0
   -5.9327    4.6843  -15.8060 C   0  0  0  0  0  0  0  0  0  0  0  0
   -4.2378    4.8403  -14.5641 H   0  0  0  0  0  0  0  0  0  0  0  0
   -6.9919    1.7324  -13.5683 O   0  0  0  0  0  0  0  0  0  0  0  0
   -6.4692    2.7233  -13.2342 C   0  0  0  0  0  0  0  0  0  0  0  0
   -5.0852    2.9552  -12.5549 N   0  0  0  0  0  0  0  0  0  0  0  0
   -4.9018    3.8883  -12.3004 H   0  0  0  0  0  0  0  0  0  0  0  0
   -4.0372    2.0304  -12.2410 C   0  0  0  0  0  0  0  0  0  0  0  0
   -3.0888    1.9215  -13.4191 C   0  0  0  0  0  0  0  0  0  0  0  0
   -3.7399    1.4705  -14.5169 F   0  0  0  0  0  0  0  0  0  0  0  0
   -2.1139    1.0280  -13.1296 F   0  0  0  0  0  0  0  0  0  0  0  0
   -8.3073    4.4918  -12.8676 N   0  0  0  0  0  0  0  0  0  0  0  0
   -9.1095    4.6928  -13.4017 H   0  0  0  0  0  0  0  0  0  0  0  0
   -8.3443    4.4590  -11.4560 C   0  0  0  0  0  0  0  0  0  0  0  0
   -8.0244    5.6239  -10.7172 C   0  0  0  0  0  0  0  0  0  0  0  0
   -8.0066    5.6219   -9.3210 C   0  0  0  0  0  0  0  0  0  0  0  0
   -8.3494    4.4522   -8.6715 C   0  0  0  0  0  0  0  0  0  0  0  0
   -8.6561    3.2991   -9.3828 C   0  0  0  0  0  0  0  0  0  0  0  0
   -8.6299    3.2755  -10.7697 C   0  0  0  0  0  0  0  0  0  0  0  0
   -9.0324    2.2110   -8.4346 C   0  0  0  0  0  0  0  0  0  0  0  0
   -9.0579    2.8333   -7.0842 N   0  0  0  0  0  0  0  0  0  0  0  0
   -8.5195    4.2006   -7.2136 C   0  0  0  0  0  0  0  0  0  0  0  0
   -8.4809    2.2917   -6.4406 H   0  0  0  0  0  0  0  0  0  0  0  0
 15 16  2  0  0  0
 16 17  1  0  0  0
 17 19  1  0  0  0
 19 20  1  0  0  0
 20 21  1  0  0  0
 20 22  1  0  0  0
 16  1  1  0  0  0
  1  2  1  0  0  0
  1 23  1  0  0  0
 23 25  1  0  0  0
 25 26  2  0  0  0
 26 27  1  0  0  0
 27 28  2  0  0  0
 28 29  1  0  0  0
 29 30  2  0  0  0
 29 31  1  0  0  0
 31 32  1  0  0  0
 32 33  1  0  0  0
  1  4  1  0  0  0
  4  5  2  0  0  0
  5  6  1  0  0  0
  6  7  1  0  0  0
  6  8  2  0  0  0
  8  9  1  0  0  0
  9 10  1  0  0  0
 10 11  2  0  0  0
 11 12  1  0  0  0
 12 13  1  0  0  0
 30 25  1  0  0  0
 13  4  1  0  0  0
 33 28  1  0  0  0
 13  9  2  0  0  0
 17 18  1  0  0  0
  2  3  1  0  0  0
 23 24  1  0  0  0
 32 34  1  0  0  0
 12 14  1  0  0  0
M  END
> <minimizedAffinity>
-8.54650

> <minimizedRMSD>
0.87761

$$$$
P21430


 36 40  0  0  0  0  0  0  0  0999 V2000
   -7.5328    3.9026  -12.8883 C   0  0  0  0  0  0  0  0  0  0  0  0
   -8.9258    3.8849  -12.9335 O   0  0  0  0  0  0  0  0  0  0  0  0
   -9.2698    3.4579  -12.1334 H   0  0  0  0  0  0  0  0  0  0  0  0
   -7.0864    4.5940  -14.1899 C   0  0  0  0  0  0  0  0  0  0  0  0
   -7.8664    4.4146  -15.3597 C   0  0  0  0  0  0  0  0  0  0  0  0
   -7.3507    4.7410  -16.6164 C   0  0  0  0  0  0  0  0  0  0  0  0
   -8.0576    4.5377  -18.1686 S   0  0  0  0  0  0  0  0  0  0  0  0
   -6.5214    4.8654  -18.8677 C   0  0  0  0  0  0  0  0  0  0  0  0
   -5.6044    5.3682  -18.0752 N   0  0  0  0  0  0  0  0  0  0  0  0
   -6.0915    5.2821  -16.7986 C   0  0  0  0  0  0  0  0  0  0  0  0
   -5.3732    5.6620  -15.6168 C   0  0  0  0  0  0  0  0  0  0  0  0
   -4.1745    6.3127  -15.5353 N   0  0  0  0  0  0  0  0  0  0  0  0
   -3.9228    6.3494  -14.2491 C   0  0  0  0  0  0  0  0  0  0  0  0
   -4.9138    5.7504  -13.5207 N   0  0  0  0  0  0  0  0  0  0  0  0
   -5.8856    5.2994  -14.3847 C   0  0  0  0  0  0  0  0  0  0  0  0
   -4.9292    5.6573  -12.5408 H   0  0  0  0  0  0  0  0  0  0  0  0
   -7.1069    1.4728  -13.1943 O   0  0  0  0  0  0  0  0  0  0  0  0
   -6.6895    2.4989  -12.8196 C   0  0  0  0  0  0  0  0  0  0  0  0
   -5.2809    2.8766  -12.2796 N   0  0  0  0  0  0  0  0  0  0  0  0
   -5.1992    3.8014  -11.9521 H   0  0  0  0  0  0  0  0  0  0  0  0
   -4.0781    2.0940  -12.1808 C   0  0  0  0  0  0  0  0  0  0  0  0
   -3.4586    1.7722  -13.5361 C   0  0  0  0  0  0  0  0  0  0  0  0
   -3.4858    2.8578  -14.3475 F   0  0  0  0  0  0  0  0  0  0  0  0
   -2.1462    1.4632  -13.3598 F   0  0  0  0  0  0  0  0  0  0  0  0
   -7.2011    4.7669  -11.7442 N   0  0  0  0  0  0  0  0  0  0  0  0
   -6.6185    5.5507  -11.8692 H   0  0  0  0  0  0  0  0  0  0  0  0
   -7.7237    4.4661  -10.4622 C   0  0  0  0  0  0  0  0  0  0  0  0
   -7.7043    5.5160   -9.5178 C   0  0  0  0  0  0  0  0  0  0  0  0
   -8.1508    5.3380   -8.2047 C   0  0  0  0  0  0  0  0  0  0  0  0
   -8.6135    4.0908   -7.8358 C   0  0  0  0  0  0  0  0  0  0  0  0
   -8.6355    3.0445   -8.7438 C   0  0  0  0  0  0  0  0  0  0  0  0
   -8.1987    3.2112  -10.0512 C   0  0  0  0  0  0  0  0  0  0  0  0
   -9.2140    1.8307   -8.0980 C   0  0  0  0  0  0  0  0  0  0  0  0
   -9.4434    2.1889   -6.6732 N   0  0  0  0  0  0  0  0  0  0  0  0
   -9.1881    3.6384   -6.5389 C   0  0  0  0  0  0  0  0  0  0  0  0
   -8.8054    1.6650   -6.0743 H   0  0  0  0  0  0  0  0  0  0  0  0
 17 18  2  0  0  0
 18 19  1  0  0  0
 19 21  1  0  0  0
 21 22  1  0  0  0
 22 23  1  0  0  0
 22 24  1  0  0  0
 18  1  1  0  0  0
  1  2  1  0  0  0
  1 25  1  0  0  0
 25 27  1  0  0  0
 27 28  2  0  0  0
 28 29  1  0  0  0
 29 30  2  0  0  0
 30 31  1  0  0  0
 31 32  2  0  0  0
 31 33  1  0  0  0
 33 34  1  0  0  0
 34 35  1  0  0  0
  1  4  1  0  0  0
  4  5  2  0  0  0
  5  6  1  0  0  0
  6  7  1  0  0  0
  7  8  1  0  0  0
  8  9  2  0  0  0
  9 10  1  0  0  0
 10 11  1  0  0  0
 11 12  1  0  0  0
 12 13  2  0  0  0
 13 14  1  0  0  0
 14 15  1  0  0  0
 32 27  1  0  0  0
 15  4  1  0  0  0
 35 30  1  0  0  0
 10  6  2  0  0  0
 15 11  2  0  0  0
 19 20  1  0  0  0
  2  3  1  0  0  0
 25 26  1  0  0  0
 34 36  1  0  0  0
 14 16  1  0  0  0
M  END
> <minimizedAffinity>
-7.72451

> <minimizedRMSD>
0.74516

$$$$
P21436


 37 40  0  0  0  0  0  0  0  0999 V2000
   -7.2411    4.1620  -13.3680 C   0  0  0  0  0  0  0  0  0  0  0  0
   -6.4785    5.1880  -12.7126 O   0  0  0  0  0  0  0  0  0  0  0  0
   -6.4439    5.0068  -11.7603 H   0  0  0  0  0  0  0  0  0  0  0  0
   -7.2760    4.4778  -14.8680 C   0  0  0  0  0  0  0  0  0  0  0  0
   -8.4031    4.3685  -15.7020 C   0  0  0  0  0  0  0  0  0  0  0  0
   -8.2875    4.4880  -17.0965 C   0  0  0  0  0  0  0  0  0  0  0  0
   -9.8580    4.3705  -18.1536 Br  0  0  0  0  0  0  0  0  0  0  0  0
   -7.0503    4.6746  -17.7413 C   0  0  0  0  0  0  0  0  0  0  0  0
   -5.9312    4.7813  -16.9104 C   0  0  0  0  0  0  0  0  0  0  0  0
   -6.0517    4.7306  -15.5243 C   0  0  0  0  0  0  0  0  0  0  0  0
   -4.8403    4.9517  -14.9048 N   0  0  0  0  0  0  0  0  0  0  0  0
   -3.9820    5.0711  -15.8800 C   0  0  0  0  0  0  0  0  0  0  0  0
   -4.5735    4.8857  -17.1009 N   0  0  0  0  0  0  0  0  0  0  0  0
   -3.7485    4.7879  -18.2841 C   0  0  0  0  0  0  0  0  0  0  0  0
   -4.4260    4.6989  -19.4448 F   0  0  0  0  0  0  0  0  0  0  0  0
   -2.9460    3.6877  -18.2032 F   0  0  0  0  0  0  0  0  0  0  0  0
   -2.9211    5.8616  -18.3822 F   0  0  0  0  0  0  0  0  0  0  0  0
   -6.9574    1.7386  -13.7635 O   0  0  0  0  0  0  0  0  0  0  0  0
   -6.5271    2.7121  -13.2794 C   0  0  0  0  0  0  0  0  0  0  0  0
   -5.1855    2.9593  -12.5429 N   0  0  0  0  0  0  0  0  0  0  0  0
   -5.0879    3.8588  -12.1548 H   0  0  0  0  0  0  0  0  0  0  0  0
   -4.0655    2.0922  -12.3354 C   0  0  0  0  0  0  0  0  0  0  0  0
   -3.2121    2.0667  -13.5961 C   0  0  0  0  0  0  0  0  0  0  0  0
   -3.8479    1.4283  -14.6116 F   0  0  0  0  0  0  0  0  0  0  0  0
   -2.0667    1.3838  -13.3570 F   0  0  0  0  0  0  0  0  0  0  0  0
   -8.5650    4.0808  -12.7440 N   0  0  0  0  0  0  0  0  0  0  0  0
   -9.4079    3.9859  -13.2438 H   0  0  0  0  0  0  0  0  0  0  0  0
   -8.4793    4.1565  -11.3179 C   0  0  0  0  0  0  0  0  0  0  0  0
   -8.0736    5.3517  -10.6833 C   0  0  0  0  0  0  0  0  0  0  0  0
   -7.9878    5.4521   -9.2921 C   0  0  0  0  0  0  0  0  0  0  0  0
   -8.3400    4.3483   -8.5405 C   0  0  0  0  0  0  0  0  0  0  0  0
   -8.7300    3.1625   -9.1487 C   0  0  0  0  0  0  0  0  0  0  0  0
   -8.7893    3.0425  -10.5290 C   0  0  0  0  0  0  0  0  0  0  0  0
   -9.0626    2.1513   -8.1065 C   0  0  0  0  0  0  0  0  0  0  0  0
   -9.0153    2.8713   -6.8058 N   0  0  0  0  0  0  0  0  0  0  0  0
   -8.4212    4.2000   -7.0619 C   0  0  0  0  0  0  0  0  0  0  0  0
   -8.4402    2.3539   -6.1409 H   0  0  0  0  0  0  0  0  0  0  0  0
 18 19  2  0  0  0
 19 20  1  0  0  0
 20 22  1  0  0  0
 22 23  1  0  0  0
 23 24  1  0  0  0
 23 25  1  0  0  0
 19  1  1  0  0  0
  1  2  1  0  0  0
  1 26  1  0  0  0
 26 28  1  0  0  0
 28 29  2  0  0  0
 29 30  1  0  0  0
 30 31  2  0  0  0
 31 32  1  0  0  0
 32 33  2  0  0  0
 32 34  1  0  0  0
 34 35  1  0  0  0
 35 36  1  0  0  0
  1  4  1  0  0  0
  4  5  2  0  0  0
  5  6  1  0  0  0
  6  7  1  0  0  0
  6  8  2  0  0  0
  8  9  1  0  0  0
  9 10  2  0  0  0
 10 11  1  0  0  0
 11 12  2  0  0  0
 12 13  1  0  0  0
 13 14  1  0  0  0
 14 15  1  0  0  0
 14 16  1  0  0  0
 14 17  1  0  0  0
 33 28  1  0  0  0
 10  4  1  0  0  0
 36 31  1  0  0  0
 13  9  1  0  0  0
 20 21  1  0  0  0
  2  3  1  0  0  0
 26 27  1  0  0  0
 35 37  1  0  0  0
M  END
> <minimizedAffinity>
-8.86512

> <minimizedRMSD>
0.71074

$$$$
P21437


 38 42  0  0  0  0  0  0  0  0999 V2000
   -7.6318    3.6851  -12.5835 C   0  0  0  0  0  0  0  0  0  0  0  0
   -8.9643    3.2941  -12.3551 O   0  0  0  0  0  0  0  0  0  0  0  0
   -8.9988    2.6918  -11.5956 H   0  0  0  0  0  0  0  0  0  0  0  0
   -7.6699    4.6419  -13.8087 C   0  0  0  0  0  0  0  0  0  0  0  0
   -8.5573    4.0231  -14.9074 C   0  0  0  0  0  0  0  0  0  0  0  0
   -8.3449    4.5007  -16.3092 C   0  0  0  0  0  0  0  0  0  0  0  0
   -7.2053    5.1173  -16.6978 C   0  0  0  0  0  0  0  0  0  0  0  0
   -6.9651    5.3623  -18.0353 N   0  0  0  0  0  0  0  0  0  0  0  0
   -7.5866    4.4217  -18.9470 C   0  0  0  0  0  0  0  0  0  0  0  0
   -9.0967    4.4154  -18.7019 C   0  0  0  0  0  0  0  0  0  0  0  0
   -9.4457    4.1209  -17.2585 C   0  0  0  0  0  0  0  0  0  0  0  0
   -6.2020    5.4102  -15.7332 C   0  0  0  0  0  0  0  0  0  0  0  0
   -4.9947    5.9908  -15.9866 N   0  0  0  0  0  0  0  0  0  0  0  0
   -4.4413    6.0912  -14.7967 C   0  0  0  0  0  0  0  0  0  0  0  0
   -5.2628    5.6213  -13.7997 N   0  0  0  0  0  0  0  0  0  0  0  0
   -6.3972    5.1580  -14.3991 C   0  0  0  0  0  0  0  0  0  0  0  0
   -6.4145    6.1171  -18.3457 H   0  0  0  0  0  0  0  0  0  0  0  0
   -5.0689    5.6196  -12.8345 H   0  0  0  0  0  0  0  0  0  0  0  0
   -6.9258    1.4953  -13.4233 O   0  0  0  0  0  0  0  0  0  0  0  0
   -6.6335    2.4534  -12.8202 C   0  0  0  0  0  0  0  0  0  0  0  0
   -5.2836    2.8602  -12.1719 N   0  0  0  0  0  0  0  0  0  0  0  0
   -5.3128    3.6924  -11.6465 H   0  0  0  0  0  0  0  0  0  0  0  0
   -3.9968    2.2193  -12.2138 C   0  0  0  0  0  0  0  0  0  0  0  0
   -3.5416    1.8309  -13.6148 C   0  0  0  0  0  0  0  0  0  0  0  0
   -3.5190    2.9111  -14.4321 F   0  0  0  0  0  0  0  0  0  0  0  0
   -2.2585    1.3839  -13.5414 F   0  0  0  0  0  0  0  0  0  0  0  0
   -7.2120    4.4885  -11.4135 N   0  0  0  0  0  0  0  0  0  0  0  0
   -6.5466    5.2064  -11.5197 H   0  0  0  0  0  0  0  0  0  0  0  0
   -7.7703    4.2207  -10.1440 C   0  0  0  0  0  0  0  0  0  0  0  0
   -7.7749    5.2956   -9.2282 C   0  0  0  0  0  0  0  0  0  0  0  0
   -8.2962    5.1621   -7.9409 C   0  0  0  0  0  0  0  0  0  0  0  0
   -8.8182    3.9378   -7.5761 C   0  0  0  0  0  0  0  0  0  0  0  0
   -8.7970    2.8634   -8.4508 C   0  0  0  0  0  0  0  0  0  0  0  0
   -8.2519    2.9759   -9.7195 C   0  0  0  0  0  0  0  0  0  0  0  0
   -9.4312    1.6770   -7.8092 C   0  0  0  0  0  0  0  0  0  0  0  0
   -9.9524    2.1468   -6.4986 N   0  0  0  0  0  0  0  0  0  0  0  0
   -9.4639    3.5270   -6.2999 C   0  0  0  0  0  0  0  0  0  0  0  0
   -9.6094    1.5442   -5.7505 H   0  0  0  0  0  0  0  0  0  0  0  0
 19 20  2  0  0  0
 20 21  1  0  0  0
 21 23  1  0  0  0
 23 24  1  0  0  0
 24 25  1  0  0  0
 24 26  1  0  0  0
 20  1  1  0  0  0
  1  2  1  0  0  0
  1 27  1  0  0  0
 27 29  1  0  0  0
 29 30  2  0  0  0
 30 31  1  0  0  0
 31 32  2  0  0  0
 32 33  1  0  0  0
 33 34  2  0  0  0
 33 35  1  0  0  0
 35 36  1  0  0  0
 36 37  1  0  0  0
  1  4  1  0  0  0
  4  5  1  0  0  0
  5  6  1  0  0  0
  6  7  2  0  0  0
  7  8  1  0  0  0
  8  9  1  0  0  0
  9 10  1  0  0  0
 10 11  1  0  0  0
  7 12  1  0  0  0
 12 13  1  0  0  0
 13 14  2  0  0  0
 14 15  1  0  0  0
 15 16  1  0  0  0
 34 29  1  0  0  0
 16  4  1  0  0  0
 37 32  1  0  0  0
 11  6  1  0  0  0
 16 12  2  0  0  0
 21 22  1  0  0  0
  2  3  1  0  0  0
 27 28  1  0  0  0
 36 38  1  0  0  0
  8 17  1  0  0  0
 15 18  1  0  0  0
M  END
> <minimizedAffinity>
-8.26287

> <minimizedRMSD>
0.58621

$$$$
P21440


 38 41  0  0  0  0  0  0  0  0999 V2000
   -6.7458    4.0148  -13.0609 C   0  0  0  0  0  0  0  0  0  0  0  0
   -5.9082    4.8914  -12.2739 O   0  0  0  0  0  0  0  0  0  0  0  0
   -6.2335    5.8022  -12.3485 H   0  0  0  0  0  0  0  0  0  0  0  0
   -5.8489    4.8923  -18.8448 C   0  0  0  0  0  0  0  0  0  0  0  0
   -6.1123    4.8106  -17.3692 C   0  0  0  0  0  0  0  0  0  0  0  0
   -7.4072    4.6734  -16.8281 C   0  0  0  0  0  0  0  0  0  0  0  0
   -7.6121    4.4061  -15.4546 C   0  0  0  0  0  0  0  0  0  0  0  0
   -6.5630    4.4339  -14.5194 C   0  0  0  0  0  0  0  0  0  0  0  0
   -5.3291    4.8117  -15.0803 C   0  0  0  0  0  0  0  0  0  0  0  0
   -4.1162    5.0858  -14.4961 N   0  0  0  0  0  0  0  0  0  0  0  0
   -3.2243    5.4057  -15.4712 C   0  0  0  0  0  0  0  0  0  0  0  0
   -3.7717    5.3382  -16.6587 N   0  0  0  0  0  0  0  0  0  0  0  0
   -5.0833    4.9788  -16.4364 C   0  0  0  0  0  0  0  0  0  0  0  0
   -3.9245    5.0557  -13.5309 H   0  0  0  0  0  0  0  0  0  0  0  0
   -8.5974    5.0677  -17.6511 C   0  0  0  0  0  0  0  0  0  0  0  0
   -9.4430    4.0101  -18.2703 C   0  0  0  0  0  0  0  0  0  0  0  0
  -10.7877    4.6475  -18.4741 C   0  0  0  0  0  0  0  0  0  0  0  0
   -8.9276    3.6848  -19.4771 F   0  0  0  0  0  0  0  0  0  0  0  0
   -6.2234    2.4991  -12.9509 C   0  0  0  0  0  0  0  0  0  0  0  0
   -6.7532    1.5494  -13.3805 O   0  0  0  0  0  0  0  0  0  0  0  0
   -4.8398    2.6523  -12.2473 N   0  0  0  0  0  0  0  0  0  0  0  0
   -4.6496    3.5551  -11.9037 H   0  0  0  0  0  0  0  0  0  0  0  0
   -3.8030    1.6941  -12.0203 C   0  0  0  0  0  0  0  0  0  0  0  0
   -2.8484    1.7203  -13.1996 C   0  0  0  0  0  0  0  0  0  0  0  0
   -3.4998    1.4449  -14.3530 F   0  0  0  0  0  0  0  0  0  0  0  0
   -1.9038    0.7650  -13.0295 F   0  0  0  0  0  0  0  0  0  0  0  0
   -8.1178    4.2187  -12.5995 N   0  0  0  0  0  0  0  0  0  0  0  0
   -8.8658    4.3610  -13.2235 H   0  0  0  0  0  0  0  0  0  0  0  0
   -8.2992    4.1979  -11.1980 C   0  0  0  0  0  0  0  0  0  0  0  0
   -8.0956    5.3817  -10.4473 C   0  0  0  0  0  0  0  0  0  0  0  0
   -8.1923    5.3897   -9.0538 C   0  0  0  0  0  0  0  0  0  0  0  0
   -8.5382    4.2103   -8.4249 C   0  0  0  0  0  0  0  0  0  0  0  0
   -8.7240    3.0360   -9.1487 C   0  0  0  0  0  0  0  0  0  0  0  0
   -8.5832    3.0047  -10.5269 C   0  0  0  0  0  0  0  0  0  0  0  0
   -9.1037    1.9393   -8.2084 C   0  0  0  0  0  0  0  0  0  0  0  0
   -9.5059    2.6336   -6.9565 N   0  0  0  0  0  0  0  0  0  0  0  0
   -8.8232    3.9436   -6.9841 C   0  0  0  0  0  0  0  0  0  0  0  0
   -9.2099    2.0962   -6.1416 H   0  0  0  0  0  0  0  0  0  0  0  0
  4  5  1  0  0  0
  5  6  2  0  0  0
  6 15  1  0  0  0
 15 16  1  0  0  0
 16 17  1  0  0  0
 16 18  1  0  0  0
  6  7  1  0  0  0
  7  8  2  0  0  0
  8  1  1  0  0  0
  1  2  1  0  0  0
  1 27  1  0  0  0
 27 29  1  0  0  0
 29 30  2  0  0  0
 30 31  1  0  0  0
 31 32  2  0  0  0
 32 33  1  0  0  0
 33 34  2  0  0  0
 33 35  1  0  0  0
 35 36  1  0  0  0
 36 37  1  0  0  0
  1 19  1  0  0  0
 19 20  2  0  0  0
 19 21  1  0  0  0
 21 23  1  0  0  0
 23 24  1  0  0  0
 24 25  1  0  0  0
 24 26  1  0  0  0
  8  9  1  0  0  0
  9 10  1  0  0  0
 10 11  1  0  0  0
 11 12  2  0  0  0
 12 13  1  0  0  0
 13  5  1  0  0  0
 34 29  1  0  0  0
 13  9  2  0  0  0
 37 32  1  0  0  0
  2  3  1  0  0  0
 27 28  1  0  0  0
 36 38  1  0  0  0
 21 22  1  0  0  0
 10 14  1  0  0  0
M  END
> <minimizedAffinity>
-8.72086

> <minimizedRMSD>
0.75915

$$$$
P21441


 35 38  0  0  0  0  0  0  0  0999 V2000
   -7.6064    3.8217  -12.9974 C   0  0  0  0  0  0  0  0  0  0  0  0
   -8.9873    3.6481  -12.8392 O   0  0  0  0  0  0  0  0  0  0  0  0
   -9.4260    4.5130  -12.8567 H   0  0  0  0  0  0  0  0  0  0  0  0
   -8.3375    4.7789  -16.6382 C   0  0  0  0  0  0  0  0  0  0  0  0
   -8.4384    4.3606  -15.3164 C   0  0  0  0  0  0  0  0  0  0  0  0
   -7.4041    4.4886  -14.3598 C   0  0  0  0  0  0  0  0  0  0  0  0
   -6.2255    5.1188  -14.8131 C   0  0  0  0  0  0  0  0  0  0  0  0
   -5.0618    5.4276  -14.1376 N   0  0  0  0  0  0  0  0  0  0  0  0
   -4.2707    5.9850  -15.0272 C   0  0  0  0  0  0  0  0  0  0  0  0
   -4.8672    6.0643  -16.2496 N   0  0  0  0  0  0  0  0  0  0  0  0
   -4.2918    6.6284  -17.4454 C   0  0  0  0  0  0  0  0  0  0  0  0
   -6.1206    5.5170  -16.1459 C   0  0  0  0  0  0  0  0  0  0  0  0
   -7.1373    5.3368  -17.0862 C   0  0  0  0  0  0  0  0  0  0  0  0
   -9.2907    4.0554  -18.8417 C   0  0  0  0  0  0  0  0  0  0  0  0
   -9.5779    4.6122  -17.4825 C   0  0  0  0  0  0  0  0  0  0  0  0
   -6.6622    2.5052  -12.9998 C   0  0  0  0  0  0  0  0  0  0  0  0
   -7.0028    1.4446  -13.3627 O   0  0  0  0  0  0  0  0  0  0  0  0
   -5.2843    2.9928  -12.4606 N   0  0  0  0  0  0  0  0  0  0  0  0
   -5.2715    3.9254  -12.1452 H   0  0  0  0  0  0  0  0  0  0  0  0
   -4.0338    2.3052  -12.3492 C   0  0  0  0  0  0  0  0  0  0  0  0
   -3.5476    1.7221  -13.6631 C   0  0  0  0  0  0  0  0  0  0  0  0
   -3.6565    2.6176  -14.6760 F   0  0  0  0  0  0  0  0  0  0  0  0
   -2.2209    1.4412  -13.5478 F   0  0  0  0  0  0  0  0  0  0  0  0
   -7.2149    4.7029  -11.8960 N   0  0  0  0  0  0  0  0  0  0  0  0
   -6.5981    5.4525  -12.0603 H   0  0  0  0  0  0  0  0  0  0  0  0
   -7.7215    4.4777  -10.6003 C   0  0  0  0  0  0  0  0  0  0  0  0
   -7.6815    5.5607   -9.6978 C   0  0  0  0  0  0  0  0  0  0  0  0
   -8.1025    5.4329   -8.3689 C   0  0  0  0  0  0  0  0  0  0  0  0
   -8.5579    4.2011   -7.9410 C   0  0  0  0  0  0  0  0  0  0  0  0
   -8.5885    3.1192   -8.8039 C   0  0  0  0  0  0  0  0  0  0  0  0
   -8.1584    3.2329  -10.1167 C   0  0  0  0  0  0  0  0  0  0  0  0
   -9.1685    1.9338   -8.1117 C   0  0  0  0  0  0  0  0  0  0  0  0
   -9.3484    2.3361   -6.6906 N   0  0  0  0  0  0  0  0  0  0  0  0
   -9.1061    3.7939   -6.6185 C   0  0  0  0  0  0  0  0  0  0  0  0
   -8.6812    1.8405   -6.0994 H   0  0  0  0  0  0  0  0  0  0  0  0
 14 15  1  0  0  0
 15  4  1  0  0  0
  4  5  2  0  0  0
  5  6  1  0  0  0
  6  1  1  0  0  0
  1  2  1  0  0  0
  1 24  1  0  0  0
 24 26  1  0  0  0
 26 27  2  0  0  0
 27 28  1  0  0  0
 28 29  2  0  0  0
 29 30  1  0  0  0
 30 31  2  0  0  0
 30 32  1  0  0  0
 32 33  1  0  0  0
 33 34  1  0  0  0
  1 16  1  0  0  0
 16 17  2  0  0  0
 16 18  1  0  0  0
 18 20  1  0  0  0
 20 21  1  0  0  0
 21 22  1  0  0  0
 21 23  1  0  0  0
  6  7  2  0  0  0
  7  8  1  0  0  0
  8  9  2  0  0  0
  9 10  1  0  0  0
 10 11  1  0  0  0
 10 12  1  0  0  0
 12 13  2  0  0  0
 13  4  1  0  0  0
 31 26  1  0  0  0
 12  7  1  0  0  0
 34 29  1  0  0  0
  2  3  1  0  0  0
 24 25  1  0  0  0
 33 35  1  0  0  0
 18 19  1  0  0  0
M  END
> <minimizedAffinity>
-8.12596

> <minimizedRMSD>
0.50806

$$$$
P21450


 35 38  0  0  0  0  0  0  0  0999 V2000
   -7.1432    4.3934  -13.5399 C   0  0  0  0  0  0  0  0  0  0  0  0
   -6.3128    5.4607  -13.0543 O   0  0  0  0  0  0  0  0  0  0  0  0
   -6.7541    6.3103  -13.2105 H   0  0  0  0  0  0  0  0  0  0  0  0
   -2.6988    5.4774  -16.5612 C   0  0  0  0  0  0  0  0  0  0  0  0
   -4.1609    5.2258  -16.5189 C   0  0  0  0  0  0  0  0  0  0  0  0
   -4.8806    5.0863  -15.4229 N   0  0  0  0  0  0  0  0  0  0  0  0
   -6.1644    4.8192  -15.8491 C   0  0  0  0  0  0  0  0  0  0  0  0
   -7.2987    4.5610  -15.0529 C   0  0  0  0  0  0  0  0  0  0  0  0
   -8.5092    4.3521  -15.7551 C   0  0  0  0  0  0  0  0  0  0  0  0
   -8.5603    4.4198  -17.1545 C   0  0  0  0  0  0  0  0  0  0  0  0
  -10.1935    4.2573  -18.0853 Br  0  0  0  0  0  0  0  0  0  0  0  0
   -7.4221    4.6440  -17.9276 C   0  0  0  0  0  0  0  0  0  0  0  0
   -6.2382    4.8469  -17.2288 C   0  0  0  0  0  0  0  0  0  0  0  0
   -4.9504    5.0836  -17.6350 N   0  0  0  0  0  0  0  0  0  0  0  0
   -4.5473    5.1197  -19.0156 C   0  0  0  0  0  0  0  0  0  0  0  0
   -6.4864    2.9399  -13.3209 C   0  0  0  0  0  0  0  0  0  0  0  0
   -6.9758    1.9291  -13.6488 O   0  0  0  0  0  0  0  0  0  0  0  0
   -5.0867    3.2289  -12.7045 N   0  0  0  0  0  0  0  0  0  0  0  0
   -4.9373    4.1658  -12.4416 H   0  0  0  0  0  0  0  0  0  0  0  0
   -3.9815    2.3534  -12.4577 C   0  0  0  0  0  0  0  0  0  0  0  0
   -3.5328    1.6505  -13.7346 C   0  0  0  0  0  0  0  0  0  0  0  0
   -3.5583    2.5008  -14.7946 F   0  0  0  0  0  0  0  0  0  0  0  0
   -2.2352    1.2712  -13.5892 F   0  0  0  0  0  0  0  0  0  0  0  0
   -8.4237    4.5483  -12.8481 N   0  0  0  0  0  0  0  0  0  0  0  0
   -9.2720    4.6982  -13.3248 H   0  0  0  0  0  0  0  0  0  0  0  0
   -8.3419    4.4647  -11.4323 C   0  0  0  0  0  0  0  0  0  0  0  0
   -8.0165    5.6081  -10.6663 C   0  0  0  0  0  0  0  0  0  0  0  0
   -8.0326    5.5806   -9.2697 C   0  0  0  0  0  0  0  0  0  0  0  0
   -8.3879    4.3980   -8.6532 C   0  0  0  0  0  0  0  0  0  0  0  0
   -8.6424    3.2465   -9.3945 C   0  0  0  0  0  0  0  0  0  0  0  0
   -8.5980    3.2533  -10.7810 C   0  0  0  0  0  0  0  0  0  0  0  0
   -8.9830    2.1357   -8.4563 C   0  0  0  0  0  0  0  0  0  0  0  0
   -9.3127    2.8074   -7.1697 N   0  0  0  0  0  0  0  0  0  0  0  0
   -8.6070    4.1064   -7.2068 C   0  0  0  0  0  0  0  0  0  0  0  0
   -8.9867    2.2474   -6.3820 H   0  0  0  0  0  0  0  0  0  0  0  0
  4  5  1  0  0  0
  5  6  2  0  0  0
  6  7  1  0  0  0
  7  8  2  0  0  0
  8  1  1  0  0  0
  1  2  1  0  0  0
  1 24  1  0  0  0
 24 26  1  0  0  0
 26 27  2  0  0  0
 27 28  1  0  0  0
 28 29  2  0  0  0
 29 30  1  0  0  0
 30 31  2  0  0  0
 30 32  1  0  0  0
 32 33  1  0  0  0
 33 34  1  0  0  0
  1 16  1  0  0  0
 16 17  2  0  0  0
 16 18  1  0  0  0
 18 20  1  0  0  0
 20 21  1  0  0  0
 21 22  1  0  0  0
 21 23  1  0  0  0
  8  9  1  0  0  0
  9 10  2  0  0  0
 10 11  1  0  0  0
 10 12  1  0  0  0
 12 13  2  0  0  0
 13 14  1  0  0  0
 14 15  1  0  0  0
 14  5  1  0  0  0
 13  7  1  0  0  0
 31 26  1  0  0  0
 34 29  1  0  0  0
  2  3  1  0  0  0
 24 25  1  0  0  0
 33 35  1  0  0  0
 18 19  1  0  0  0
M  END
> <minimizedAffinity>
-8.65421

> <minimizedRMSD>
0.77583

$$$$
P21452


 35 38  0  0  0  0  0  0  0  0999 V2000
   -7.0412    4.2775  -13.5126 C   0  0  0  0  0  0  0  0  0  0  0  0
   -6.1070    5.2435  -12.9870 O   0  0  0  0  0  0  0  0  0  0  0  0
   -6.0437    5.1415  -12.0244 H   0  0  0  0  0  0  0  0  0  0  0  0
   -7.0702    4.5191  -15.0336 C   0  0  0  0  0  0  0  0  0  0  0  0
   -8.2619    4.4115  -15.7954 C   0  0  0  0  0  0  0  0  0  0  0  0
   -8.2734    4.5079  -17.1981 C   0  0  0  0  0  0  0  0  0  0  0  0
   -9.8983    4.4428  -18.1455 Br  0  0  0  0  0  0  0  0  0  0  0  0
   -7.1097    4.6613  -17.9451 C   0  0  0  0  0  0  0  0  0  0  0  0
   -5.9333    4.7613  -17.2184 C   0  0  0  0  0  0  0  0  0  0  0  0
   -5.8949    4.7317  -15.8042 C   0  0  0  0  0  0  0  0  0  0  0  0
   -4.5781    4.9322  -15.3621 N   0  0  0  0  0  0  0  0  0  0  0  0
   -3.8177    5.0146  -16.4816 C   0  0  0  0  0  0  0  0  0  0  0  0
   -4.6611    4.8947  -17.6487 N   0  0  0  0  0  0  0  0  0  0  0  0
   -4.1455    4.9864  -18.7856 O   0  0  0  0  0  0  0  0  0  0  0  0
   -4.2696    4.9993  -14.4296 H   0  0  0  0  0  0  0  0  0  0  0  0
   -7.0350    1.7971  -13.6231 O   0  0  0  0  0  0  0  0  0  0  0  0
   -6.5066    2.7778  -13.2677 C   0  0  0  0  0  0  0  0  0  0  0  0
   -5.1280    2.9857  -12.5691 N   0  0  0  0  0  0  0  0  0  0  0  0
   -4.9386    3.9130  -12.2980 H   0  0  0  0  0  0  0  0  0  0  0  0
   -4.0914    2.0450  -12.2574 C   0  0  0  0  0  0  0  0  0  0  0  0
   -3.1409    1.9516  -13.4387 C   0  0  0  0  0  0  0  0  0  0  0  0
   -3.7833    1.4708  -14.5309 F   0  0  0  0  0  0  0  0  0  0  0  0
   -2.1311    1.0992  -13.1535 F   0  0  0  0  0  0  0  0  0  0  0  0
   -8.3168    4.5689  -12.8577 N   0  0  0  0  0  0  0  0  0  0  0  0
   -9.1220    4.7943  -13.3773 H   0  0  0  0  0  0  0  0  0  0  0  0
   -8.3411    4.5121  -11.4445 C   0  0  0  0  0  0  0  0  0  0  0  0
   -8.0175    5.6628  -10.6866 C   0  0  0  0  0  0  0  0  0  0  0  0
   -7.9981    5.6390   -9.2885 C   0  0  0  0  0  0  0  0  0  0  0  0
   -8.3362    4.4601   -8.6528 C   0  0  0  0  0  0  0  0  0  0  0  0
   -8.6529    3.3205   -9.3802 C   0  0  0  0  0  0  0  0  0  0  0  0
   -8.6341    3.3206  -10.7700 C   0  0  0  0  0  0  0  0  0  0  0  0
   -9.0274    2.2197   -8.4439 C   0  0  0  0  0  0  0  0  0  0  0  0
   -9.0264    2.8178   -7.0822 N   0  0  0  0  0  0  0  0  0  0  0  0
   -8.4819    4.1833   -7.1963 C   0  0  0  0  0  0  0  0  0  0  0  0
   -8.4422    2.2613   -6.4582 H   0  0  0  0  0  0  0  0  0  0  0  0
 16 17  2  0  0  0
 17 18  1  0  0  0
 18 20  1  0  0  0
 20 21  1  0  0  0
 21 22  1  0  0  0
 21 23  1  0  0  0
 17  1  1  0  0  0
  1  2  1  0  0  0
  1 24  1  0  0  0
 24 26  1  0  0  0
 26 27  2  0  0  0
 27 28  1  0  0  0
 28 29  2  0  0  0
 29 30  1  0  0  0
 30 31  2  0  0  0
 30 32  1  0  0  0
 32 33  1  0  0  0
 33 34  1  0  0  0
  1  4  1  0  0  0
  4  5  2  0  0  0
  5  6  1  0  0  0
  6  7  1  0  0  0
  6  8  2  0  0  0
  8  9  1  0  0  0
  9 10  2  0  0  0
 10 11  1  0  0  0
 11 12  1  0  0  0
 12 13  2  0  0  0
 13 14  1  0  0  0
 31 26  1  0  0  0
 10  4  1  0  0  0
 34 29  1  0  0  0
 13  9  1  0  0  0
 18 19  1  0  0  0
  2  3  1  0  0  0
 24 25  1  0  0  0
 33 35  1  0  0  0
 11 15  1  0  0  0
M  CHG 1  13   1
M  CHG 1  14  -1
M  END
> <minimizedAffinity>
-8.70603

> <minimizedRMSD>
0.50688

$$$$
P21456


 38 42  0  0  0  0  0  0  0  0999 V2000
   -7.5487    3.7083  -12.7715 C   0  0  0  0  0  0  0  0  0  0  0  0
   -8.9398    3.6423  -12.7870 O   0  0  0  0  0  0  0  0  0  0  0  0
   -9.3058    4.5401  -12.8181 H   0  0  0  0  0  0  0  0  0  0  0  0
   -5.9353    5.1926  -18.0747 C   0  0  0  0  0  0  0  0  0  0  0  0
   -6.9682    4.7627  -18.8730 C   0  0  0  0  0  0  0  0  0  0  0  0
   -8.4287    4.5404  -17.9839 S   0  0  0  0  0  0  0  0  0  0  0  0
   -7.5996    4.6310  -16.4879 C   0  0  0  0  0  0  0  0  0  0  0  0
   -8.0412    4.3067  -15.2009 C   0  0  0  0  0  0  0  0  0  0  0  0
   -7.1587    4.3976  -14.0933 C   0  0  0  0  0  0  0  0  0  0  0  0
   -5.9206    5.0047  -14.3686 C   0  0  0  0  0  0  0  0  0  0  0  0
   -4.8548    5.3617  -13.5744 N   0  0  0  0  0  0  0  0  0  0  0  0
   -3.8719    5.8782  -14.3734 C   0  0  0  0  0  0  0  0  0  0  0  0
   -4.2208    5.8716  -15.6379 N   0  0  0  0  0  0  0  0  0  0  0  0
   -5.4767    5.3523  -15.6274 C   0  0  0  0  0  0  0  0  0  0  0  0
   -6.3243    5.0828  -16.7319 C   0  0  0  0  0  0  0  0  0  0  0  0
   -4.8077    5.2621  -12.5961 H   0  0  0  0  0  0  0  0  0  0  0  0
   -3.6806    5.9866  -19.0769 N   0  0  0  0  0  0  0  0  0  0  0  0
   -4.6789    5.6219  -18.6070 C   0  0  0  0  0  0  0  0  0  0  0  0
   -6.6449    2.3487  -12.7201 C   0  0  0  0  0  0  0  0  0  0  0  0
   -6.9679    1.3425  -13.2196 O   0  0  0  0  0  0  0  0  0  0  0  0
   -5.3226    2.7366  -12.0005 N   0  0  0  0  0  0  0  0  0  0  0  0
   -5.3226    3.6326  -11.5924 H   0  0  0  0  0  0  0  0  0  0  0  0
   -4.0969    1.9976  -11.8339 C   0  0  0  0  0  0  0  0  0  0  0  0
   -3.1719    2.1495  -13.0380 C   0  0  0  0  0  0  0  0  0  0  0  0
   -3.8892    2.2874  -14.1786 F   0  0  0  0  0  0  0  0  0  0  0  0
   -2.4279    1.0231  -13.1791 F   0  0  0  0  0  0  0  0  0  0  0  0
   -7.2192    4.6132  -11.6591 N   0  0  0  0  0  0  0  0  0  0  0  0
   -6.6446    5.3958  -11.8219 H   0  0  0  0  0  0  0  0  0  0  0  0
   -7.7186    4.3709  -10.3596 C   0  0  0  0  0  0  0  0  0  0  0  0
   -7.6324    5.4510   -9.4521 C   0  0  0  0  0  0  0  0  0  0  0  0
   -8.0701    5.3443   -8.1291 C   0  0  0  0  0  0  0  0  0  0  0  0
   -8.5930    4.1375   -7.7123 C   0  0  0  0  0  0  0  0  0  0  0  0
   -8.6791    3.0619   -8.5824 C   0  0  0  0  0  0  0  0  0  0  0  0
   -8.2541    3.1592   -9.9019 C   0  0  0  0  0  0  0  0  0  0  0  0
   -9.3040    1.9014   -7.8832 C   0  0  0  0  0  0  0  0  0  0  0  0
   -9.5252    2.3315   -6.4772 N   0  0  0  0  0  0  0  0  0  0  0  0
   -9.1781    3.7650   -6.3949 C   0  0  0  0  0  0  0  0  0  0  0  0
   -8.9293    1.7917   -5.8495 H   0  0  0  0  0  0  0  0  0  0  0  0
 17 18  3  0  0  0
 18  4  1  0  0  0
  4  5  2  0  0  0
  5  6  1  0  0  0
  6  7  1  0  0  0
  7  8  2  0  0  0
  8  9  1  0  0  0
  9  1  1  0  0  0
  1  2  1  0  0  0
  1 27  1  0  0  0
 27 29  1  0  0  0
 29 30  2  0  0  0
 30 31  1  0  0  0
 31 32  2  0  0  0
 32 33  1  0  0  0
 33 34  2  0  0  0
 33 35  1  0  0  0
 35 36  1  0  0  0
 36 37  1  0  0  0
  1 19  1  0  0  0
 19 20  2  0  0  0
 19 21  1  0  0  0
 21 23  1  0  0  0
 23 24  1  0  0  0
 24 25  1  0  0  0
 24 26  1  0  0  0
  9 10  2  0  0  0
 10 11  1  0  0  0
 11 12  1  0  0  0
 12 13  2  0  0  0
 13 14  1  0  0  0
 14 15  2  0  0  0
 15  4  1  0  0  0
 15  7  1  0  0  0
 34 29  1  0  0  0
 14 10  1  0  0  0
 37 32  1  0  0  0
  2  3  1  0  0  0
 27 28  1  0  0  0
 36 38  1  0  0  0
 21 22  1  0  0  0
 11 16  1  0  0  0
M  END
> <minimizedAffinity>
-8.06899

> <minimizedRMSD>
0.90232

$$$$
P21457


 46 51  0  0  0  0  0  0  0  0999 V2000
   -8.1066    3.9705  -12.7965 C   0  0  0  0  0  0  0  0  0  0  0  0
   -6.7108    5.0831  -16.7147 C   0  0  0  0  0  0  0  0  0  0  0  0
   -6.6346    6.0559  -15.5873 C   0  0  0  0  0  0  0  0  0  0  0  0
   -5.7736    7.1163  -15.4838 N   0  0  0  0  0  0  0  0  0  0  0  0
   -5.9157    7.5599  -14.2545 C   0  0  0  0  0  0  0  0  0  0  0  0
   -6.8402    6.8304  -13.5594 N   0  0  0  0  0  0  0  0  0  0  0  0
   -7.3011    5.8566  -14.4011 C   0  0  0  0  0  0  0  0  0  0  0  0
   -8.3308    4.8233  -14.1055 C   0  0  0  0  0  0  0  0  0  0  0  0
   -9.5320    5.5998  -13.9137 O   0  0  0  0  0  0  0  0  0  0  0  0
   -8.5160    3.8758  -15.3053 C   0  0  0  0  0  0  0  0  0  0  0  0
   -8.0568    4.3252  -16.6979 C   0  0  0  0  0  0  0  0  0  0  0  0
   -9.5575    4.9454  -17.7364 Br  0  0  0  0  0  0  0  0  0  0  0  0
   -7.1212    6.9787  -12.6276 H   0  0  0  0  0  0  0  0  0  0  0  0
   -9.4143    6.1962  -13.1578 H   0  0  0  0  0  0  0  0  0  0  0  0
   -4.0111    5.4740  -20.7289 O   0  0  0  0  0  0  0  0  0  0  0  0
   -4.8122    5.7709  -19.8615 C   0  0  0  0  0  0  0  0  0  0  0  0
   -5.2374    4.8491  -18.8019 C   0  0  0  0  0  0  0  0  0  0  0  0
   -6.0926    5.4818  -18.0020 C   0  0  0  0  0  0  0  0  0  0  0  0
   -6.1211    6.8173  -18.5878 C   0  0  0  0  0  0  0  0  0  0  0  0
   -5.4074    6.9820  -19.6500 N   0  0  0  0  0  0  0  0  0  0  0  0
   -6.9979    2.8641  -12.9399 C   0  0  0  0  0  0  0  0  0  0  0  0
   -7.2305    1.7822  -13.3106 O   0  0  0  0  0  0  0  0  0  0  0  0
   -5.6560    3.5167  -12.5321 N   0  0  0  0  0  0  0  0  0  0  0  0
   -5.7336    4.4321  -12.1780 H   0  0  0  0  0  0  0  0  0  0  0  0
   -4.3111    3.0028  -12.5862 C   0  0  0  0  0  0  0  0  0  0  0  0
   -3.7786    2.8236  -14.0014 C   0  0  0  0  0  0  0  0  0  0  0  0
   -4.5268    3.5131  -14.8968 F   0  0  0  0  0  0  0  0  0  0  0  0
   -3.8789    1.5131  -14.3456 F   0  0  0  0  0  0  0  0  0  0  0  0
   -7.8154    4.8966  -11.6583 N   0  0  0  0  0  0  0  0  0  0  0  0
   -7.4313    5.7888  -11.8187 H   0  0  0  0  0  0  0  0  0  0  0  0
   -8.1057    4.4576  -10.3474 C   0  0  0  0  0  0  0  0  0  0  0  0
   -8.6405    3.2102  -10.0144 C   0  0  0  0  0  0  0  0  0  0  0  0
   -8.9394    2.9477   -8.6882 C   0  0  0  0  0  0  0  0  0  0  0  0
   -8.6949    3.8792   -7.6809 C   0  0  0  0  0  0  0  0  0  0  0  0
   -8.0821    5.0967   -7.9538 C   0  0  0  0  0  0  0  0  0  0  0  0
   -7.8231    5.3732   -9.3103 C   0  0  0  0  0  0  0  0  0  0  0  0
   -9.2159    3.3230   -6.3915 C   0  0  0  0  0  0  0  0  0  0  0  0
  -10.0216    2.1375   -6.7589 N   0  0  0  0  0  0  0  0  0  0  0  0
   -9.5305    1.7142   -8.0900 C   0  0  0  0  0  0  0  0  0  0  0  0
  -11.0110    2.3809   -6.8061 H   0  0  0  0  0  0  0  0  0  0  0  0
   -7.6971    6.0527   -6.9056 C   0  0  0  0  0  0  0  0  0  0  0  0
   -8.3694    7.2673   -6.7424 C   0  0  0  0  0  0  0  0  0  0  0  0
   -7.9599    8.1386   -5.7438 C   0  0  0  0  0  0  0  0  0  0  0  0
   -6.9243    7.8970   -4.9132 N   0  0  0  0  0  0  0  0  0  0  0  0
   -6.2755    6.7288   -5.0888 C   0  0  0  0  0  0  0  0  0  0  0  0
   -6.6168    5.7937   -6.0536 C   0  0  0  0  0  0  0  0  0  0  0  0
 15 16  2  0  0  0
 16 17  1  0  0  0
 17 18  2  0  0  0
  2 18  1  0  0  0
  2  3  1  0  0  0
  3  4  1  0  0  0
  4  5  2  0  0  0
  5  6  1  0  0  0
  6  7  1  0  0  0
  7  8  1  0  0  0
  8  9  1  0  0  0
  8  1  1  0  0  0
  1 29  1  0  0  0
 29 31  1  0  0  0
 31 32  2  0  0  0
 32 33  1  0  0  0
 33 34  2  0  0  0
 34 35  1  0  0  0
 35 41  1  0  0  0
 41 42  2  0  0  0
 42 43  1  0  0  0
 43 44  2  0  0  0
 44 45  1  0  0  0
 45 46  2  0  0  0
 35 36  2  0  0  0
 34 37  1  0  0  0
 37 38  1  0  0  0
 38 39  1  0  0  0
  1 21  1  0  0  0
 21 22  2  0  0  0
 21 23  1  0  0  0
 23 25  1  0  0  0
 25 26  1  0  0  0
 26 27  1  0  0  0
 26 28  1  0  0  0
  8 10  1  0  0  0
 10 11  1  0  0  0
 11 12  1  0  0  0
 18 19  1  0  0  0
 19 20  2  0  0  0
 20 16  1  0  0  0
 11  2  1  0  0  0
  7  3  2  0  0  0
 36 31  1  0  0  0
 39 33  1  0  0  0
 46 41  1  0  0  0
  6 13  1  0  0  0
  9 14  1  0  0  0
 29 30  1  0  0  0
 38 40  1  0  0  0
 23 24  1  0  0  0
M  END
> <minimizedAffinity>
-8.97262

> <minimizedRMSD>
0.93529

$$$$
P21460


 37 40  0  0  0  0  0  0  0  0999 V2000
   -7.0660    4.3004  -13.4623 C   0  0  0  0  0  0  0  0  0  0  0  0
   -6.2663    5.3500  -12.9082 O   0  0  0  0  0  0  0  0  0  0  0  0
   -6.6835    6.2061  -13.0925 H   0  0  0  0  0  0  0  0  0  0  0  0
   -4.7460    4.9392  -17.5415 N   0  0  0  0  0  0  0  0  0  0  0  0
   -3.9673    4.9324  -16.4158 C   0  0  0  0  0  0  0  0  0  0  0  0
   -4.6861    4.7873  -15.3256 N   0  0  0  0  0  0  0  0  0  0  0  0
   -5.9894    4.6664  -15.7671 C   0  0  0  0  0  0  0  0  0  0  0  0
   -7.1525    4.4954  -14.9836 C   0  0  0  0  0  0  0  0  0  0  0  0
   -8.3690    4.4029  -15.7025 C   0  0  0  0  0  0  0  0  0  0  0  0
   -8.4022    4.4904  -17.0999 C   0  0  0  0  0  0  0  0  0  0  0  0
  -10.0426    4.4539  -18.0348 Br  0  0  0  0  0  0  0  0  0  0  0  0
   -7.2429    4.6477  -17.8601 C   0  0  0  0  0  0  0  0  0  0  0  0
   -6.0489    4.7492  -17.1524 C   0  0  0  0  0  0  0  0  0  0  0  0
   -4.2537    5.0461  -18.9049 C   0  0  0  0  0  0  0  0  0  0  0  0
   -4.8214    6.5302  -20.6916 C   0  0  0  0  0  0  0  0  0  0  0  0
   -4.3765    6.4533  -19.3058 N   0  0  0  0  0  0  0  0  0  0  0  0
   -5.0562    6.9193  -18.7048 H   0  0  0  0  0  0  0  0  0  0  0  0
   -6.4852    2.8075  -13.2282 C   0  0  0  0  0  0  0  0  0  0  0  0
   -7.0132    1.8348  -13.6069 O   0  0  0  0  0  0  0  0  0  0  0  0
   -5.1105    2.9997  -12.5286 N   0  0  0  0  0  0  0  0  0  0  0  0
   -4.9221    3.9204  -12.2354 H   0  0  0  0  0  0  0  0  0  0  0  0
   -4.0706    2.0518  -12.2406 C   0  0  0  0  0  0  0  0  0  0  0  0
   -3.0809    1.9148  -13.3948 C   0  0  0  0  0  0  0  0  0  0  0  0
   -3.6743    1.5051  -14.5405 F   0  0  0  0  0  0  0  0  0  0  0  0
   -2.5153    3.1201  -13.6624 F   0  0  0  0  0  0  0  0  0  0  0  0
   -8.3806    4.4712  -12.8304 N   0  0  0  0  0  0  0  0  0  0  0  0
   -9.2099    4.6183  -13.3401 H   0  0  0  0  0  0  0  0  0  0  0  0
   -8.3390    4.4031  -11.4078 C   0  0  0  0  0  0  0  0  0  0  0  0
   -8.0209    5.5556  -10.6501 C   0  0  0  0  0  0  0  0  0  0  0  0
   -8.0489    5.5438   -9.2536 C   0  0  0  0  0  0  0  0  0  0  0  0
   -8.4095    4.3682   -8.6273 C   0  0  0  0  0  0  0  0  0  0  0  0
   -8.6596    3.2092   -9.3583 C   0  0  0  0  0  0  0  0  0  0  0  0
   -8.6060    3.2006  -10.7444 C   0  0  0  0  0  0  0  0  0  0  0  0
   -9.0031    2.1076   -8.4108 C   0  0  0  0  0  0  0  0  0  0  0  0
   -9.3455    2.7928   -7.1346 N   0  0  0  0  0  0  0  0  0  0  0  0
   -8.6389    4.0915   -7.1797 C   0  0  0  0  0  0  0  0  0  0  0  0
   -9.0270    2.2414   -6.3377 H   0  0  0  0  0  0  0  0  0  0  0  0
 15 16  1  0  0  0
 16 14  1  0  0  0
 14  4  1  0  0  0
  4  5  1  0  0  0
  5  6  2  0  0  0
  6  7  1  0  0  0
  7  8  2  0  0  0
  8  1  1  0  0  0
  1  2  1  0  0  0
  1 26  1  0  0  0
 26 28  1  0  0  0
 28 29  2  0  0  0
 29 30  1  0  0  0
 30 31  2  0  0  0
 31 32  1  0  0  0
 32 33  2  0  0  0
 32 34  1  0  0  0
 34 35  1  0  0  0
 35 36  1  0  0  0
  1 18  1  0  0  0
 18 19  2  0  0  0
 18 20  1  0  0  0
 20 22  1  0  0  0
 22 23  1  0  0  0
 23 24  1  0  0  0
 23 25  1  0  0  0
  8  9  1  0  0  0
  9 10  2  0  0  0
 10 11  1  0  0  0
 10 12  1  0  0  0
 12 13  2  0  0  0
 13  4  1  0  0  0
 13  7  1  0  0  0
 33 28  1  0  0  0
 36 31  1  0  0  0
 16 17  1  0  0  0
  2  3  1  0  0  0
 26 27  1  0  0  0
 35 37  1  0  0  0
 20 21  1  0  0  0
M  END
> <minimizedAffinity>
-8.20928

> <minimizedRMSD>
0.98017

$$$$
P21467


 41 45  0  0  0  0  0  0  0  0999 V2000
   -7.4783    3.8615  -12.9943 C   0  0  0  0  0  0  0  0  0  0  0  0
   -8.8714    3.8580  -12.9759 O   0  0  0  0  0  0  0  0  0  0  0  0
   -9.1976    4.7702  -13.0246 H   0  0  0  0  0  0  0  0  0  0  0  0
   -2.7818    4.9465  -17.3050 O   0  0  0  0  0  0  0  0  0  0  0  0
   -3.8569    5.3738  -17.7138 C   0  0  0  0  0  0  0  0  0  0  0  0
   -3.9773    6.5259  -18.6722 C   0  0  0  0  0  0  0  0  0  0  0  0
   -5.3634    6.5420  -19.2927 C   0  0  0  0  0  0  0  0  0  0  0  0
   -6.4194    6.6444  -18.1930 C   0  0  0  0  0  0  0  0  0  0  0  0
   -6.2740    5.5910  -17.0875 C   0  0  0  0  0  0  0  0  0  0  0  0
   -5.0276    4.8101  -17.2946 N   0  0  0  0  0  0  0  0  0  0  0  0
   -5.9917    6.2641  -15.7490 C   0  0  0  0  0  0  0  0  0  0  0  0
   -5.2498    7.4039  -15.5704 N   0  0  0  0  0  0  0  0  0  0  0  0
   -5.1415    7.5406  -14.2669 C   0  0  0  0  0  0  0  0  0  0  0  0
   -5.7870    6.5395  -13.5922 N   0  0  0  0  0  0  0  0  0  0  0  0
   -6.3081    5.7042  -14.5321 C   0  0  0  0  0  0  0  0  0  0  0  0
   -7.0146    4.3969  -14.4035 C   0  0  0  0  0  0  0  0  0  0  0  0
   -8.1057    4.4197  -15.4943 C   0  0  0  0  0  0  0  0  0  0  0  0
   -7.4775    4.5643  -16.9034 C   0  0  0  0  0  0  0  0  0  0  0  0
   -8.9662    4.5386  -18.1713 Br  0  0  0  0  0  0  0  0  0  0  0  0
   -5.0465    3.8411  -17.1216 H   0  0  0  0  0  0  0  0  0  0  0  0
   -5.8602    6.4424  -12.6152 H   0  0  0  0  0  0  0  0  0  0  0  0
   -6.6238    2.5006  -12.9265 C   0  0  0  0  0  0  0  0  0  0  0  0
   -7.0016    1.4808  -13.3530 O   0  0  0  0  0  0  0  0  0  0  0  0
   -5.2532    2.8859  -12.3069 N   0  0  0  0  0  0  0  0  0  0  0  0
   -5.2060    3.8009  -11.9468 H   0  0  0  0  0  0  0  0  0  0  0  0
   -4.0396    2.1219  -12.1736 C   0  0  0  0  0  0  0  0  0  0  0  0
   -3.2626    2.1138  -13.4888 C   0  0  0  0  0  0  0  0  0  0  0  0
   -3.9450    1.4213  -14.4351 F   0  0  0  0  0  0  0  0  0  0  0  0
   -2.0738    1.4891  -13.3140 F   0  0  0  0  0  0  0  0  0  0  0  0
   -7.1234    4.7775  -11.8916 N   0  0  0  0  0  0  0  0  0  0  0  0
   -6.5434    5.5573  -12.0487 H   0  0  0  0  0  0  0  0  0  0  0  0
   -7.6435    4.5016  -10.5937 C   0  0  0  0  0  0  0  0  0  0  0  0
   -7.5504    5.5437   -9.6439 C   0  0  0  0  0  0  0  0  0  0  0  0
   -8.0278    5.3979   -8.3351 C   0  0  0  0  0  0  0  0  0  0  0  0
   -8.6072    4.1960   -7.9809 C   0  0  0  0  0  0  0  0  0  0  0  0
   -8.6984    3.1562   -8.8947 C   0  0  0  0  0  0  0  0  0  0  0  0
   -8.2335    3.2914  -10.1942 C   0  0  0  0  0  0  0  0  0  0  0  0
   -9.3315    1.9735   -8.2373 C   0  0  0  0  0  0  0  0  0  0  0  0
   -9.9367    2.5057   -6.9899 N   0  0  0  0  0  0  0  0  0  0  0  0
   -9.2116    3.7591   -6.6881 C   0  0  0  0  0  0  0  0  0  0  0  0
   -9.8226    1.8377   -6.2275 H   0  0  0  0  0  0  0  0  0  0  0  0
  4  5  2  0  0  0
  5  6  1  0  0  0
  6  7  1  0  0  0
  7  8  1  0  0  0
  9  8  1  0  0  0
  9 10  1  0  0  0
  9 11  1  0  0  0
 11 12  1  0  0  0
 12 13  2  0  0  0
 13 14  1  0  0  0
 14 15  1  0  0  0
 15 16  1  0  0  0
 16  1  1  0  0  0
  1  2  1  0  0  0
  1 30  1  0  0  0
 30 32  1  0  0  0
 32 33  2  0  0  0
 33 34  1  0  0  0
 34 35  2  0  0  0
 35 36  1  0  0  0
 36 37  2  0  0  0
 36 38  1  0  0  0
 38 39  1  0  0  0
 39 40  1  0  0  0
  1 22  1  0  0  0
 22 23  2  0  0  0
 22 24  1  0  0  0
 24 26  1  0  0  0
 26 27  1  0  0  0
 27 28  1  0  0  0
 27 29  1  0  0  0
 16 17  1  0  0  0
 17 18  1  0  0  0
 18 19  1  0  0  0
 10  5  1  0  0  0
 15 11  2  0  0  0
 37 32  1  0  0  0
 18  9  1  0  0  0
 40 35  1  0  0  0
 10 20  1  0  0  0
 14 21  1  0  0  0
  2  3  1  0  0  0
 30 31  1  0  0  0
 39 41  1  0  0  0
 24 25  1  0  0  0
M  END
> <minimizedAffinity>
-8.70593

> <minimizedRMSD>
0.56863

$$$$
P21471


 48 51  0  0  0  0  0  0  0  0999 V2000
   -5.8907    4.6756  -15.3602 C   0  0  0  0  0  0  0  0  0  0  0  0
   -5.8951    4.8408  -16.7488 C   0  0  0  0  0  0  0  0  0  0  0  0
   -7.0490    4.7570  -17.5302 C   0  0  0  0  0  0  0  0  0  0  0  0
   -8.2609    4.5232  -16.8730 C   0  0  0  0  0  0  0  0  0  0  0  0
   -9.9015    4.5127  -17.8321 Br  0  0  0  0  0  0  0  0  0  0  0  0
   -8.2945    4.3079  -15.4849 C   0  0  0  0  0  0  0  0  0  0  0  0
   -7.1174    4.3717  -14.7026 C   0  0  0  0  0  0  0  0  0  0  0  0
   -7.1450    3.9620  -13.2101 C   0  0  0  0  0  0  0  0  0  0  0  0
   -6.3893    4.9481  -12.5041 O   0  0  0  0  0  0  0  0  0  0  0  0
   -6.8248    5.8107  -12.5885 H   0  0  0  0  0  0  0  0  0  0  0  0
   -6.4699    2.5140  -13.1042 C   0  0  0  0  0  0  0  0  0  0  0  0
   -6.8997    1.5388  -13.5835 O   0  0  0  0  0  0  0  0  0  0  0  0
   -5.1387    2.7590  -12.3460 N   0  0  0  0  0  0  0  0  0  0  0  0
   -5.0401    3.6625  -11.9674 H   0  0  0  0  0  0  0  0  0  0  0  0
   -4.0298    1.8843  -12.1073 C   0  0  0  0  0  0  0  0  0  0  0  0
   -3.1222    1.8901  -13.3288 C   0  0  0  0  0  0  0  0  0  0  0  0
   -3.7898    1.4706  -14.4323 F   0  0  0  0  0  0  0  0  0  0  0  0
   -2.0927    1.0321  -13.1361 F   0  0  0  0  0  0  0  0  0  0  0  0
   -8.4865    3.9549  -12.6171 N   0  0  0  0  0  0  0  0  0  0  0  0
   -9.3150    3.9186  -13.1476 H   0  0  0  0  0  0  0  0  0  0  0  0
   -8.4655    4.0062  -11.1866 C   0  0  0  0  0  0  0  0  0  0  0  0
   -8.1502    5.2113  -10.5147 C   0  0  0  0  0  0  0  0  0  0  0  0
   -8.1413    5.2960   -9.1191 C   0  0  0  0  0  0  0  0  0  0  0  0
   -8.4934    4.1703   -8.4040 C   0  0  0  0  0  0  0  0  0  0  0  0
   -8.7788    2.9700   -9.0479 C   0  0  0  0  0  0  0  0  0  0  0  0
   -8.7451    2.8622  -10.4294 C   0  0  0  0  0  0  0  0  0  0  0  0
   -9.1292    1.9431   -8.0219 C   0  0  0  0  0  0  0  0  0  0  0  0
   -9.4319    2.7229   -6.7927 N   0  0  0  0  0  0  0  0  0  0  0  0
   -8.6938    3.9958   -6.9359 C   0  0  0  0  0  0  0  0  0  0  0  0
   -9.1147    2.2189   -5.9646 H   0  0  0  0  0  0  0  0  0  0  0  0
   -4.7207    4.9583  -14.6449 N   0  0  0  0  0  0  0  0  0  0  0  0
   -4.7863    5.1170  -13.6755 H   0  0  0  0  0  0  0  0  0  0  0  0
   -2.3178    5.2513  -14.3678 N   0  0  0  0  0  0  0  0  0  0  0  0
   -3.4288    5.0260  -15.2683 C   0  0  0  0  0  0  0  0  0  0  0  0
   -1.4489    5.2836  -14.9012 H   0  0  0  0  0  0  0  0  0  0  0  0
   -2.2715    4.4921  -13.6883 H   0  0  0  0  0  0  0  0  0  0  0  0
   -6.9411    4.9687  -18.9202 N   0  0  0  0  0  0  0  0  0  0  0  0
   -7.6761    5.4054  -19.4085 H   0  0  0  0  0  0  0  0  0  0  0  0
   -5.7821    4.5564  -19.6142 N   0  0  0  0  0  0  0  0  0  0  0  0
   -6.0408    3.8996  -20.3504 H   0  0  0  0  0  0  0  0  0  0  0  0
   -5.1346    5.7271  -20.2080 C   0  0  0  0  0  0  0  0  0  0  0  0
   -4.4381    5.3755  -21.5350 C   0  0  0  0  0  0  0  0  0  0  0  0
   -4.9726    6.2079  -22.7130 C   0  0  0  0  0  0  0  0  0  0  0  0
   -4.2616    7.5548  -22.8210 C   0  0  0  0  0  0  0  0  0  0  0  0
   -2.8054    7.4548  -22.9564 N   0  0  0  0  0  0  0  0  0  0  0  0
   -2.2699    6.1318  -22.6370 C   0  0  0  0  0  0  0  0  0  0  0  0
   -2.9137    5.5557  -21.3804 C   0  0  0  0  0  0  0  0  0  0  0  0
   -2.3771    8.1348  -22.3283 H   0  0  0  0  0  0  0  0  0  0  0  0
 33 34  1  0  0  0
 34 31  1  0  0  0
 31  1  1  0  0  0
  1  2  2  0  0  0
  2  3  1  0  0  0
  3 37  1  0  0  0
 37 39  1  0  0  0
 39 41  1  0  0  0
 41 42  1  0  0  0
 42 43  1  0  0  0
 43 44  1  0  0  0
 44 45  1  0  0  0
 45 46  1  0  0  0
 46 47  1  0  0  0
  3  4  2  0  0  0
  4  5  1  0  0  0
  4  6  1  0  0  0
  6  7  2  0  0  0
  7  8  1  0  0  0
  8  9  1  0  0  0
  8 19  1  0  0  0
 19 21  1  0  0  0
 21 22  2  0  0  0
 22 23  1  0  0  0
 23 24  2  0  0  0
 24 25  1  0  0  0
 25 26  2  0  0  0
 25 27  1  0  0  0
 27 28  1  0  0  0
 28 29  1  0  0  0
  8 11  1  0  0  0
 11 12  2  0  0  0
 11 13  1  0  0  0
 13 15  1  0  0  0
 15 16  1  0  0  0
 16 17  1  0  0  0
 16 18  1  0  0  0
  7  1  1  0  0  0
 26 21  1  0  0  0
 47 42  1  0  0  0
 29 24  1  0  0  0
 33 35  1  0  0  0
 33 36  1  0  0  0
 31 32  1  0  0  0
 37 38  1  0  0  0
 39 40  1  0  0  0
 45 48  1  0  0  0
  9 10  1  0  0  0
 19 20  1  0  0  0
 28 30  1  0  0  0
 13 14  1  0  0  0
M  END
> <minimizedAffinity>
-8.22615

> <minimizedRMSD>
1.00506

$$$$
P21474


 49 52  0  0  0  0  0  0  0  0999 V2000
   -5.8372    4.7378  -15.5416 C   0  0  0  0  0  0  0  0  0  0  0  0
   -5.8046    4.8262  -16.9363 C   0  0  0  0  0  0  0  0  0  0  0  0
   -6.9468    4.7071  -17.7389 C   0  0  0  0  0  0  0  0  0  0  0  0
   -8.1721    4.4818  -17.1039 C   0  0  0  0  0  0  0  0  0  0  0  0
   -9.7845    4.3490  -18.1013 Br  0  0  0  0  0  0  0  0  0  0  0  0
   -8.2331    4.3200  -15.7087 C   0  0  0  0  0  0  0  0  0  0  0  0
   -7.0728    4.4208  -14.9052 C   0  0  0  0  0  0  0  0  0  0  0  0
   -7.1103    4.0624  -13.4070 C   0  0  0  0  0  0  0  0  0  0  0  0
   -6.3409    5.0633  -12.7162 O   0  0  0  0  0  0  0  0  0  0  0  0
   -6.7637    5.9293  -12.8266 H   0  0  0  0  0  0  0  0  0  0  0  0
   -6.4382    2.6123  -13.2454 C   0  0  0  0  0  0  0  0  0  0  0  0
   -6.9073    1.6074  -13.6152 O   0  0  0  0  0  0  0  0  0  0  0  0
   -5.0984    2.8865  -12.5101 N   0  0  0  0  0  0  0  0  0  0  0  0
   -4.9631    3.8220  -12.2346 H   0  0  0  0  0  0  0  0  0  0  0  0
   -4.0298    2.0015  -12.1683 C   0  0  0  0  0  0  0  0  0  0  0  0
   -3.0693    1.8835  -13.3308 C   0  0  0  0  0  0  0  0  0  0  0  0
   -3.7195    1.4785  -14.4471 F   0  0  0  0  0  0  0  0  0  0  0  0
   -2.1502    0.9320  -13.0322 F   0  0  0  0  0  0  0  0  0  0  0  0
   -8.4615    4.0471  -12.8180 N   0  0  0  0  0  0  0  0  0  0  0  0
   -9.2826    3.9806  -13.3570 H   0  0  0  0  0  0  0  0  0  0  0  0
   -8.4685    4.1377  -11.3941 C   0  0  0  0  0  0  0  0  0  0  0  0
   -8.1100    5.3514  -10.7601 C   0  0  0  0  0  0  0  0  0  0  0  0
   -8.0278    5.4561   -9.3694 C   0  0  0  0  0  0  0  0  0  0  0  0
   -8.3548    4.3442   -8.6175 C   0  0  0  0  0  0  0  0  0  0  0  0
   -8.7170    3.1484   -9.2248 C   0  0  0  0  0  0  0  0  0  0  0  0
   -8.7543    3.0190  -10.6048 C   0  0  0  0  0  0  0  0  0  0  0  0
   -9.0521    2.1375   -8.1813 C   0  0  0  0  0  0  0  0  0  0  0  0
   -9.0289    2.8663   -6.8860 N   0  0  0  0  0  0  0  0  0  0  0  0
   -8.4401    4.1963   -7.1381 C   0  0  0  0  0  0  0  0  0  0  0  0
   -8.4613    2.3563   -6.2091 H   0  0  0  0  0  0  0  0  0  0  0  0
   -4.6426    4.8368  -14.7848 N   0  0  0  0  0  0  0  0  0  0  0  0
   -4.6756    4.8380  -13.8008 H   0  0  0  0  0  0  0  0  0  0  0  0
   -2.2361    5.2152  -14.6227 N   0  0  0  0  0  0  0  0  0  0  0  0
   -3.3748    4.9361  -15.4737 C   0  0  0  0  0  0  0  0  0  0  0  0
   -1.3911    5.2672  -15.1916 H   0  0  0  0  0  0  0  0  0  0  0  0
   -2.1363    4.4702  -13.9331 H   0  0  0  0  0  0  0  0  0  0  0  0
   -6.7839    4.8191  -19.1420 N   0  0  0  0  0  0  0  0  0  0  0  0
   -7.5459    4.9271  -19.7560 H   0  0  0  0  0  0  0  0  0  0  0  0
   -5.4440    4.7644  -19.5950 N   0  0  0  0  0  0  0  0  0  0  0  0
   -5.3327    3.9621  -20.2149 H   0  0  0  0  0  0  0  0  0  0  0  0
   -5.0946    5.9818  -20.3196 C   0  0  0  0  0  0  0  0  0  0  0  0
   -4.7568    5.6128  -21.7684 C   0  0  0  0  0  0  0  0  0  0  0  0
   -3.8665    6.6518  -22.4849 C   0  0  0  0  0  0  0  0  0  0  0  0
   -2.5518    6.9411  -21.7484 C   0  0  0  0  0  0  0  0  0  0  0  0
   -1.5888    5.7503  -21.7921 C   0  0  0  0  0  0  0  0  0  0  0  0
   -1.5462    5.0415  -23.0746 N   0  0  0  0  0  0  0  0  0  0  0  0
   -2.0940    5.8421  -24.1675 C   0  0  0  0  0  0  0  0  0  0  0  0
   -3.5659    6.1910  -23.9306 C   0  0  0  0  0  0  0  0  0  0  0  0
   -2.0895    4.1821  -22.9929 H   0  0  0  0  0  0  0  0  0  0  0  0
 33 34  1  0  0  0
 34 31  1  0  0  0
 31  1  1  0  0  0
  1  2  2  0  0  0
  2  3  1  0  0  0
  3 37  1  0  0  0
 37 39  1  0  0  0
 39 41  1  0  0  0
 41 42  1  0  0  0
 42 43  1  0  0  0
 43 44  1  0  0  0
 44 45  1  0  0  0
 45 46  1  0  0  0
 46 47  1  0  0  0
 47 48  1  0  0  0
  3  4  2  0  0  0
  4  5  1  0  0  0
  4  6  1  0  0  0
  6  7  2  0  0  0
  7  8  1  0  0  0
  8  9  1  0  0  0
  8 19  1  0  0  0
 19 21  1  0  0  0
 21 22  2  0  0  0
 22 23  1  0  0  0
 23 24  2  0  0  0
 24 25  1  0  0  0
 25 26  2  0  0  0
 25 27  1  0  0  0
 27 28  1  0  0  0
 28 29  1  0  0  0
  8 11  1  0  0  0
 11 12  2  0  0  0
 11 13  1  0  0  0
 13 15  1  0  0  0
 15 16  1  0  0  0
 16 17  1  0  0  0
 16 18  1  0  0  0
  7  1  1  0  0  0
 26 21  1  0  0  0
 48 43  1  0  0  0
 29 24  1  0  0  0
 33 35  1  0  0  0
 33 36  1  0  0  0
 31 32  1  0  0  0
 37 38  1  0  0  0
 39 40  1  0  0  0
 46 49  1  0  0  0
  9 10  1  0  0  0
 19 20  1  0  0  0
 28 30  1  0  0  0
 13 14  1  0  0  0
M  END
> <minimizedAffinity>
-8.17941

> <minimizedRMSD>
1.16803

$$$$
P21485


 46 49  0  0  0  0  0  0  0  0999 V2000
   -5.6484    4.7347  -15.4590 C   0  0  0  0  0  0  0  0  0  0  0  0
   -5.5439    4.9436  -16.8333 C   0  0  0  0  0  0  0  0  0  0  0  0
   -6.6415    4.8871  -17.6851 C   0  0  0  0  0  0  0  0  0  0  0  0
   -7.8795    4.5403  -17.1084 C   0  0  0  0  0  0  0  0  0  0  0  0
   -9.4343    4.3323  -18.1917 Br  0  0  0  0  0  0  0  0  0  0  0  0
   -8.0146    4.3220  -15.7248 C   0  0  0  0  0  0  0  0  0  0  0  0
   -6.9053    4.4351  -14.8703 C   0  0  0  0  0  0  0  0  0  0  0  0
   -6.9879    4.1734  -13.3450 C   0  0  0  0  0  0  0  0  0  0  0  0
   -6.1673    5.1532  -12.6924 O   0  0  0  0  0  0  0  0  0  0  0  0
   -6.5299    6.0382  -12.8542 H   0  0  0  0  0  0  0  0  0  0  0  0
   -6.4444    2.6720  -13.1194 C   0  0  0  0  0  0  0  0  0  0  0  0
   -6.9660    1.7121  -13.5367 O   0  0  0  0  0  0  0  0  0  0  0  0
   -5.1005    2.8370  -12.3605 N   0  0  0  0  0  0  0  0  0  0  0  0
   -4.9153    3.7506  -12.0438 H   0  0  0  0  0  0  0  0  0  0  0  0
   -4.0865    1.8763  -12.0462 C   0  0  0  0  0  0  0  0  0  0  0  0
   -3.0937    1.8181  -13.2008 C   0  0  0  0  0  0  0  0  0  0  0  0
   -3.7219    1.4747  -14.3588 F   0  0  0  0  0  0  0  0  0  0  0  0
   -2.1564    0.8721  -12.9638 F   0  0  0  0  0  0  0  0  0  0  0  0
   -8.3491    4.2814  -12.7966 N   0  0  0  0  0  0  0  0  0  0  0  0
   -9.1615    4.3455  -13.3490 H   0  0  0  0  0  0  0  0  0  0  0  0
   -8.3523    4.2821  -11.3681 C   0  0  0  0  0  0  0  0  0  0  0  0
   -8.0399    5.4572  -10.6465 C   0  0  0  0  0  0  0  0  0  0  0  0
   -8.0458    5.4875   -9.2484 C   0  0  0  0  0  0  0  0  0  0  0  0
   -8.4001    4.3323   -8.5815 C   0  0  0  0  0  0  0  0  0  0  0  0
   -8.6832    3.1600   -9.2763 C   0  0  0  0  0  0  0  0  0  0  0  0
   -8.6482    3.1125  -10.6605 C   0  0  0  0  0  0  0  0  0  0  0  0
   -9.0199    2.0853   -8.2972 C   0  0  0  0  0  0  0  0  0  0  0  0
   -9.3266    2.8073   -7.0332 N   0  0  0  0  0  0  0  0  0  0  0  0
   -8.5920    4.0891   -7.1226 C   0  0  0  0  0  0  0  0  0  0  0  0
   -9.0069    2.2686   -6.2283 H   0  0  0  0  0  0  0  0  0  0  0  0
   -4.4832    4.6728  -14.6534 N   0  0  0  0  0  0  0  0  0  0  0  0
   -4.5390    4.4104  -13.7062 H   0  0  0  0  0  0  0  0  0  0  0  0
   -2.1335    5.1512  -14.2958 N   0  0  0  0  0  0  0  0  0  0  0  0
   -3.2062    5.0052  -15.2580 C   0  0  0  0  0  0  0  0  0  0  0  0
   -1.2684    5.3835  -14.7837 H   0  0  0  0  0  0  0  0  0  0  0  0
   -2.0120    4.2758  -13.7866 H   0  0  0  0  0  0  0  0  0  0  0  0
   -6.5108    5.3035  -19.0031 N   0  0  0  0  0  0  0  0  0  0  0  0
   -7.2794    5.1706  -19.6038 H   0  0  0  0  0  0  0  0  0  0  0  0
   -5.3126    5.9249  -19.5602 C   0  0  0  0  0  0  0  0  0  0  0  0
   -4.7517    5.0888  -20.7093 C   0  0  0  0  0  0  0  0  0  0  0  0
   -3.2811    4.6426  -20.5636 C   0  0  0  0  0  0  0  0  0  0  0  0
   -2.8530    4.4708  -19.0954 C   0  0  0  0  0  0  0  0  0  0  0  0
   -1.7515    5.4354  -18.6799 C   0  0  0  0  0  0  0  0  0  0  0  0
   -2.0211    6.7236  -19.2233 O   0  0  0  0  0  0  0  0  0  0  0  0
   -1.8035    6.7588  -20.6321 C   0  0  0  0  0  0  0  0  0  0  0  0
   -2.2947    5.5073  -21.3584 C   0  0  0  0  0  0  0  0  0  0  0  0
 33 34  1  0  0  0
 34 31  1  0  0  0
 31  1  1  0  0  0
  1  2  2  0  0  0
  2  3  1  0  0  0
  3 37  1  0  0  0
 37 39  1  0  0  0
 39 40  1  0  0  0
 40 41  1  0  0  0
 41 42  1  0  0  0
 42 43  1  0  0  0
 43 44  1  0  0  0
 44 45  1  0  0  0
 45 46  1  0  0  0
  3  4  2  0  0  0
  4  5  1  0  0  0
  4  6  1  0  0  0
  6  7  2  0  0  0
  7  8  1  0  0  0
  8  9  1  0  0  0
  8 19  1  0  0  0
 19 21  1  0  0  0
 21 22  2  0  0  0
 22 23  1  0  0  0
 23 24  2  0  0  0
 24 25  1  0  0  0
 25 26  2  0  0  0
 25 27  1  0  0  0
 27 28  1  0  0  0
 28 29  1  0  0  0
  8 11  1  0  0  0
 11 12  2  0  0  0
 11 13  1  0  0  0
 13 15  1  0  0  0
 15 16  1  0  0  0
 16 17  1  0  0  0
 16 18  1  0  0  0
  7  1  1  0  0  0
 26 21  1  0  0  0
 46 41  1  0  0  0
 29 24  1  0  0  0
 33 35  1  0  0  0
 33 36  1  0  0  0
 31 32  1  0  0  0
 37 38  1  0  0  0
  9 10  1  0  0  0
 19 20  1  0  0  0
 28 30  1  0  0  0
 13 14  1  0  0  0
M  END
> <minimizedAffinity>
-8.10077

> <minimizedRMSD>
1.13578

$$$$
P21486


 47 50  0  0  0  0  0  0  0  0999 V2000
   -6.5253    4.9412  -17.2919 C   0  0  0  0  0  0  0  0  0  0  0  0
   -5.5080    4.9498  -16.3343 C   0  0  0  0  0  0  0  0  0  0  0  0
   -5.6961    4.7783  -14.9613 C   0  0  0  0  0  0  0  0  0  0  0  0
   -6.9653    4.3611  -14.4916 C   0  0  0  0  0  0  0  0  0  0  0  0
   -8.0130    4.2839  -15.4344 C   0  0  0  0  0  0  0  0  0  0  0  0
   -7.7978    4.5841  -16.8067 C   0  0  0  0  0  0  0  0  0  0  0  0
   -9.3128    4.4914  -17.9590 Br  0  0  0  0  0  0  0  0  0  0  0  0
   -7.1032    3.8872  -13.0300 C   0  0  0  0  0  0  0  0  0  0  0  0
   -6.5223    4.9358  -12.2555 O   0  0  0  0  0  0  0  0  0  0  0  0
   -7.0279    5.7531  -12.3870 H   0  0  0  0  0  0  0  0  0  0  0  0
   -6.3899    2.4415  -12.9363 C   0  0  0  0  0  0  0  0  0  0  0  0
   -6.8001    1.4833  -13.4674 O   0  0  0  0  0  0  0  0  0  0  0  0
   -5.1023    2.6524  -12.0992 N   0  0  0  0  0  0  0  0  0  0  0  0
   -5.0182    3.5438  -11.6897 H   0  0  0  0  0  0  0  0  0  0  0  0
   -4.0134    1.7599  -11.8242 C   0  0  0  0  0  0  0  0  0  0  0  0
   -3.0106    1.7311  -12.9698 C   0  0  0  0  0  0  0  0  0  0  0  0
   -3.6073    1.5176  -14.1649 F   0  0  0  0  0  0  0  0  0  0  0  0
   -2.3747    2.9277  -13.0520 F   0  0  0  0  0  0  0  0  0  0  0  0
   -8.4871    3.7780  -12.5242 N   0  0  0  0  0  0  0  0  0  0  0  0
   -9.2809    3.6701  -13.0965 H   0  0  0  0  0  0  0  0  0  0  0  0
   -8.5256    3.8499  -11.0826 C   0  0  0  0  0  0  0  0  0  0  0  0
   -8.1963    5.0552  -10.4145 C   0  0  0  0  0  0  0  0  0  0  0  0
   -8.1730    5.1460   -9.0201 C   0  0  0  0  0  0  0  0  0  0  0  0
   -8.5271    4.0285   -8.2936 C   0  0  0  0  0  0  0  0  0  0  0  0
   -8.8576    2.8382   -8.9273 C   0  0  0  0  0  0  0  0  0  0  0  0
   -8.8424    2.7233  -10.3122 C   0  0  0  0  0  0  0  0  0  0  0  0
   -9.2208    1.8171   -7.9028 C   0  0  0  0  0  0  0  0  0  0  0  0
   -9.2394    2.5286   -6.5969 N   0  0  0  0  0  0  0  0  0  0  0  0
   -8.6787    3.8752   -6.8211 C   0  0  0  0  0  0  0  0  0  0  0  0
   -8.6720    2.0233   -5.9163 H   0  0  0  0  0  0  0  0  0  0  0  0
   -6.2056    5.1518  -18.6555 N   0  0  0  0  0  0  0  0  0  0  0  0
   -6.6344    4.6110  -19.3576 H   0  0  0  0  0  0  0  0  0  0  0  0
   -5.2210    6.1931  -19.0102 C   0  0  0  0  0  0  0  0  0  0  0  0
   -5.8860    7.5631  -19.1477 C   0  0  0  0  0  0  0  0  0  0  0  0
   -2.6911    4.5405  -18.7369 C   0  0  0  0  0  0  0  0  0  0  0  0
   -3.1400    5.1261  -20.0501 C   0  0  0  0  0  0  0  0  0  0  0  0
   -2.2741    5.0275  -21.1439 C   0  0  0  0  0  0  0  0  0  0  0  0
   -2.6541    5.5787  -22.3543 C   0  0  0  0  0  0  0  0  0  0  0  0
   -3.8285    6.2069  -22.5562 N   0  0  0  0  0  0  0  0  0  0  0  0
   -4.6420    6.3131  -21.4795 C   0  0  0  0  0  0  0  0  0  0  0  0
   -4.3527    5.8339  -20.2026 C   0  0  0  0  0  0  0  0  0  0  0  0
   -4.5832    4.8913  -14.0987 N   0  0  0  0  0  0  0  0  0  0  0  0
   -4.3932    4.1808  -13.4442 H   0  0  0  0  0  0  0  0  0  0  0  0
   -3.7224    6.0522  -14.1776 C   0  0  0  0  0  0  0  0  0  0  0  0
   -4.2651    7.3532  -13.8295 N   0  0  0  0  0  0  0  0  0  0  0  0
   -4.9905    7.6093  -14.4993 H   0  0  0  0  0  0  0  0  0  0  0  0
   -3.5201    8.0495  -13.8523 H   0  0  0  0  0  0  0  0  0  0  0  0
 35 36  1  0  0  0
 36 37  2  0  0  0
 37 38  1  0  0  0
 38 39  2  0  0  0
 39 40  1  0  0  0
 40 41  2  0  0  0
 41 33  1  0  0  0
 33 34  1  0  0  0
 33 31  1  0  0  0
 31  1  1  0  0  0
  1  2  2  0  0  0
  2  3  1  0  0  0
  3 42  1  0  0  0
 42 44  1  0  0  0
 44 45  1  0  0  0
  3  4  2  0  0  0
  4  8  1  0  0  0
  8  9  1  0  0  0
  8 19  1  0  0  0
 19 21  1  0  0  0
 21 22  2  0  0  0
 22 23  1  0  0  0
 23 24  2  0  0  0
 24 25  1  0  0  0
 25 26  2  0  0  0
 25 27  1  0  0  0
 27 28  1  0  0  0
 28 29  1  0  0  0
  8 11  1  0  0  0
 11 12  2  0  0  0
 11 13  1  0  0  0
 13 15  1  0  0  0
 15 16  1  0  0  0
 16 17  1  0  0  0
 16 18  1  0  0  0
  4  5  1  0  0  0
  5  6  2  0  0  0
  6  7  1  0  0  0
 41 36  1  0  0  0
  6  1  1  0  0  0
 26 21  1  0  0  0
 29 24  1  0  0  0
 31 32  1  0  0  0
 42 43  1  0  0  0
 45 46  1  0  0  0
 45 47  1  0  0  0
  9 10  1  0  0  0
 19 20  1  0  0  0
 28 30  1  0  0  0
 13 14  1  0  0  0
M  END
> <minimizedAffinity>
-8.13121

> <minimizedRMSD>
0.70360

$$$$
P21492


 30 33  0  0  0  0  0  0  0  0999 V2000
   -8.2394    5.2745  -14.0432 C   0  0  0  0  0  0  0  0  0  0  0  0
   -7.2656    6.2237  -13.6893 O   0  0  0  0  0  0  0  0  0  0  0  0
   -9.4460    5.8855  -13.8734 F   0  0  0  0  0  0  0  0  0  0  0  0
   -7.3812    6.4742  -12.7593 H   0  0  0  0  0  0  0  0  0  0  0  0
   -8.0729    4.8698  -15.5003 C   0  0  0  0  0  0  0  0  0  0  0  0
   -9.2432    4.5897  -16.2352 C   0  0  0  0  0  0  0  0  0  0  0  0
   -9.2420    4.4058  -17.6249 C   0  0  0  0  0  0  0  0  0  0  0  0
   -8.0533    4.4934  -18.3370 C   0  0  0  0  0  0  0  0  0  0  0  0
   -6.8806    4.7403  -17.6462 C   0  0  0  0  0  0  0  0  0  0  0  0
   -6.8820    4.9042  -16.2434 C   0  0  0  0  0  0  0  0  0  0  0  0
   -5.4428    5.0813  -15.8167 C   0  0  0  0  0  0  0  0  0  0  0  0
   -4.7668    5.4284  -17.1762 C   0  0  0  0  0  0  0  0  0  0  0  0
   -3.3444    5.1109  -17.3132 N   0  0  0  0  0  0  0  0  0  0  0  0
   -2.9990    4.9942  -18.7493 C   0  0  0  0  0  0  0  0  0  0  0  0
   -3.9226    5.7683  -19.6926 C   0  0  0  0  0  0  0  0  0  0  0  0
   -5.3802    5.3173  -19.5407 C   0  0  0  0  0  0  0  0  0  0  0  0
   -5.6030    4.8297  -18.1935 N   0  0  0  0  0  0  0  0  0  0  0  0
   -3.1468    4.2273  -16.8433 H   0  0  0  0  0  0  0  0  0  0  0  0
   -8.1381    4.1885  -13.0857 N   0  0  0  0  0  0  0  0  0  0  0  0
   -7.9544    3.2774  -13.4105 H   0  0  0  0  0  0  0  0  0  0  0  0
   -8.7789    3.4477   -9.4637 C   0  0  0  0  0  0  0  0  0  0  0  0
   -8.4170    4.6611   -8.8714 C   0  0  0  0  0  0  0  0  0  0  0  0
   -7.9851    5.7228   -9.6537 C   0  0  0  0  0  0  0  0  0  0  0  0
   -7.9166    5.5896  -11.0432 C   0  0  0  0  0  0  0  0  0  0  0  0
   -8.2970    4.4073  -11.6969 C   0  0  0  0  0  0  0  0  0  0  0  0
   -8.7200    3.3431  -10.8759 C   0  0  0  0  0  0  0  0  0  0  0  0
   -8.3111    1.8693   -7.5819 N   0  0  0  0  0  0  0  0  0  0  0  0
   -9.2559    2.2753   -8.6289 C   0  0  0  0  0  0  0  0  0  0  0  0
   -8.6966    1.0798   -7.0637 H   0  0  0  0  0  0  0  0  0  0  0  0
   -8.1537    2.6500   -6.9446 H   0  0  0  0  0  0  0  0  0  0  0  0
 27 28  1  0  0  0
 28 21  1  0  0  0
 21 22  2  0  0  0
 22 23  1  0  0  0
 23 24  2  0  0  0
 24 25  1  0  0  0
 25 19  1  0  0  0
 19  1  1  0  0  0
  1  2  1  0  0  0
  1  3  1  0  0  0
  1  5  1  0  0  0
  5  6  2  0  0  0
  6  7  1  0  0  0
  7  8  2  0  0  0
  8  9  1  0  0  0
  9 10  2  0  0  0
 10 11  1  0  0  0
 12 11  1  0  0  0
 12 13  1  0  0  0
 13 14  1  0  0  0
 14 15  1  0  0  0
 15 16  1  0  0  0
 16 17  1  0  0  0
 25 26  2  0  0  0
 26 21  1  0  0  0
 10  5  1  0  0  0
 17 12  1  0  0  0
 17  9  1  0  0  0
 27 29  1  0  0  0
 27 30  1  0  0  0
 19 20  1  0  0  0
  2  4  1  0  0  0
 13 18  1  0  0  0
M  END
> <minimizedAffinity>
-7.99976

> <minimizedRMSD>
0.50845

$$$$
P21513


 29 32  0  0  0  0  0  0  0  0999 V2000
   -7.4559    5.0298  -14.8266 C   0  0  0  0  0  0  0  0  0  0  0  0
   -7.1624    6.1497  -14.7148 O   0  0  0  0  0  0  0  0  0  0  0  0
   -7.6316    3.9402  -13.7685 N   0  0  0  0  0  0  0  0  0  0  0  0
   -7.9624    3.0798  -14.1142 H   0  0  0  0  0  0  0  0  0  0  0  0
   -5.1675    6.3971  -16.6919 N   0  0  0  0  0  0  0  0  0  0  0  0
   -5.4990    5.0966  -17.2710 C   0  0  0  0  0  0  0  0  0  0  0  0
   -5.2077    5.0908  -18.8062 C   0  0  0  0  0  0  0  0  0  0  0  0
   -4.1484    5.3370  -19.3657 O   0  0  0  0  0  0  0  0  0  0  0  0
   -6.3921    4.7395  -19.4481 N   0  0  0  0  0  0  0  0  0  0  0  0
   -7.4024    4.4738  -18.5352 C   0  0  0  0  0  0  0  0  0  0  0  0
   -8.6784    4.0196  -18.8119 C   0  0  0  0  0  0  0  0  0  0  0  0
   -9.5449    3.8079  -17.7396 C   0  0  0  0  0  0  0  0  0  0  0  0
   -9.1249    4.0756  -16.4269 C   0  0  0  0  0  0  0  0  0  0  0  0
   -7.8235    4.5464  -16.1758 C   0  0  0  0  0  0  0  0  0  0  0  0
   -6.9554    4.7240  -17.2396 C   0  0  0  0  0  0  0  0  0  0  0  0
   -4.1621    6.5542  -16.7619 H   0  0  0  0  0  0  0  0  0  0  0  0
   -5.4467    6.4136  -15.7110 H   0  0  0  0  0  0  0  0  0  0  0  0
   -6.4992    4.6865  -20.4253 H   0  0  0  0  0  0  0  0  0  0  0  0
   -7.3910    3.9673  -12.3417 C   0  0  0  0  0  0  0  0  0  0  0  0
   -7.4180    5.4283  -11.8685 C   0  0  0  0  0  0  0  0  0  0  0  0
   -7.4515    5.5814  -10.3607 C   0  0  0  0  0  0  0  0  0  0  0  0
   -8.6002    4.7671   -9.7909 C   0  0  0  0  0  0  0  0  0  0  0  0
   -8.5006    3.2657  -10.1382 C   0  0  0  0  0  0  0  0  0  0  0  0
   -9.6512    2.4288   -9.5578 C   0  0  0  0  0  0  0  0  0  0  0  0
   -9.2476    2.1384   -8.1261 C   0  0  0  0  0  0  0  0  0  0  0  0
   -7.8888    2.6819   -8.0081 N   0  0  0  0  0  0  0  0  0  0  0  0
   -7.3429    2.6496   -9.3763 C   0  0  0  0  0  0  0  0  0  0  0  0
   -8.4336    3.0866  -11.6532 C   0  0  0  0  0  0  0  0  0  0  0  0
   -7.3252    2.1049   -7.3838 H   0  0  0  0  0  0  0  0  0  0  0  0
  6  5  1  0  0  0
  6  7  1  0  0  0
  7  8  2  0  0  0
  7  9  1  0  0  0
  9 10  1  0  0  0
 10 11  2  0  0  0
 11 12  1  0  0  0
 12 13  2  0  0  0
 13 14  1  0  0  0
 14  1  1  0  0  0
  1  2  2  0  0  0
  1  3  1  0  0  0
 19  3  1  0  0  0
 19 20  1  0  0  0
 20 21  1  0  0  0
 21 22  1  0  0  0
 23 22  1  0  0  0
 23 24  1  0  0  0
 24 25  1  0  0  0
 25 26  1  0  0  0
 26 27  1  0  0  0
 23 28  1  0  0  0
 14 15  2  0  0  0
 15  6  1  0  0  0
 15 10  1  0  0  0
 28 19  1  0  0  0
 27 23  1  0  0  0
  5 16  1  0  0  0
  5 17  1  0  0  0
  9 18  1  0  0  0
  3  4  1  0  0  0
 26 29  1  0  0  0
M  END
> <minimizedAffinity>
-7.62520

> <minimizedRMSD>
0.61896

$$$$
P21514


 29 32  0  0  0  0  0  0  0  0999 V2000
   -6.8064    6.2073  -14.7224 O   0  0  0  0  0  0  0  0  0  0  0  0
   -7.4728    5.2535  -14.7215 C   0  0  0  0  0  0  0  0  0  0  0  0
   -8.1863    4.5412  -13.5681 N   0  0  0  0  0  0  0  0  0  0  0  0
   -8.6315    3.6990  -13.8165 H   0  0  0  0  0  0  0  0  0  0  0  0
   -8.3121    4.9032  -12.1773 C   0  0  0  0  0  0  0  0  0  0  0  0
   -7.0948    5.6665  -11.6571 C   0  0  0  0  0  0  0  0  0  0  0  0
   -7.2714    6.1345  -10.2138 C   0  0  0  0  0  0  0  0  0  0  0  0
   -8.3479    5.3636   -9.4588 C   0  0  0  0  0  0  0  0  0  0  0  0
   -8.3656    3.8759   -9.8196 C   0  0  0  0  0  0  0  0  0  0  0  0
   -9.3751    3.0900   -8.9658 C   0  0  0  0  0  0  0  0  0  0  0  0
   -8.7099    1.7657   -8.6521 C   0  0  0  0  0  0  0  0  0  0  0  0
   -7.4357    1.8065   -9.3630 N   0  0  0  0  0  0  0  0  0  0  0  0
   -7.0511    3.2066   -9.4250 C   0  0  0  0  0  0  0  0  0  0  0  0
   -8.6272    3.6663  -11.3335 C   0  0  0  0  0  0  0  0  0  0  0  0
   -7.5433    1.4273  -10.3037 H   0  0  0  0  0  0  0  0  0  0  0  0
   -7.7962    4.6409  -16.0383 C   0  0  0  0  0  0  0  0  0  0  0  0
   -9.0946    4.1961  -16.3251 C   0  0  0  0  0  0  0  0  0  0  0  0
   -9.4739    3.8878  -17.6415 C   0  0  0  0  0  0  0  0  0  0  0  0
   -8.5697    4.0343  -18.6914 C   0  0  0  0  0  0  0  0  0  0  0  0
   -7.3024    4.5005  -18.4047 C   0  0  0  0  0  0  0  0  0  0  0  0
   -6.8970    4.7418  -17.0861 C   0  0  0  0  0  0  0  0  0  0  0  0
   -5.4614    5.1726  -17.0906 C   0  0  0  0  0  0  0  0  0  0  0  0
   -5.1932    5.3005  -18.6062 C   0  0  0  0  0  0  0  0  0  0  0  0
   -4.1227    5.9046  -18.9664 N   0  0  0  0  0  0  0  0  0  0  0  0
   -6.2614    4.7629  -19.3087 N   0  0  0  0  0  0  0  0  0  0  0  0
   -6.2854    4.5938  -20.2783 H   0  0  0  0  0  0  0  0  0  0  0  0
   -4.0195    6.2347  -20.3639 C   0  0  0  0  0  0  0  0  0  0  0  0
   -2.9096    5.6400  -20.8716 F   0  0  0  0  0  0  0  0  0  0  0  0
   -3.8326    7.5734  -20.4902 F   0  0  0  0  0  0  0  0  0  0  0  0
  1  2  2  0  0  0
  2  3  1  0  0  0
  5  3  1  0  0  0
  5  6  1  0  0  0
  6  7  1  0  0  0
  7  8  1  0  0  0
  9  8  1  0  0  0
  9 10  1  0  0  0
 10 11  1  0  0  0
 11 12  1  0  0  0
 12 13  1  0  0  0
  9 14  1  0  0  0
  2 16  1  0  0  0
 16 17  2  0  0  0
 17 18  1  0  0  0
 18 19  2  0  0  0
 19 20  1  0  0  0
 20 21  2  0  0  0
 21 22  1  0  0  0
 22 23  1  0  0  0
 23 24  2  0  0  0
 24 27  1  0  0  0
 27 28  1  0  0  0
 27 29  1  0  0  0
 23 25  1  0  0  0
 14  5  1  0  0  0
 21 16  1  0  0  0
 13  9  1  0  0  0
 25 20  1  0  0  0
  3  4  1  0  0  0
 12 15  1  0  0  0
 25 26  1  0  0  0
M  END
> <minimizedAffinity>
-8.15628

> <minimizedRMSD>
0.42981

$$$$
P21520


 28 31  0  0  0  0  0  0  0  0999 V2000
   -6.6229    5.6525  -14.8110 C   0  0  0  0  0  0  0  0  0  0  0  0
   -5.9864    6.6192  -14.6746 O   0  0  0  0  0  0  0  0  0  0  0  0
   -7.4875    4.8776  -13.8028 N   0  0  0  0  0  0  0  0  0  0  0  0
   -7.8697    4.0383  -14.1473 H   0  0  0  0  0  0  0  0  0  0  0  0
   -8.0959    4.3768  -18.0776 C   0  0  0  0  0  0  0  0  0  0  0  0
   -6.9995    4.4650  -18.9281 C   0  0  0  0  0  0  0  0  0  0  0  0
   -5.8124    4.8620  -18.3935 C   0  0  0  0  0  0  0  0  0  0  0  0
   -5.6452    5.1628  -17.0499 C   0  0  0  0  0  0  0  0  0  0  0  0
   -6.7256    5.0938  -16.1853 C   0  0  0  0  0  0  0  0  0  0  0  0
   -7.9641    4.6772  -16.7048 C   0  0  0  0  0  0  0  0  0  0  0  0
   -4.2099    5.5294  -16.8233 C   0  0  0  0  0  0  0  0  0  0  0  0
   -3.6077    5.3520  -18.2295 C   0  0  0  0  0  0  0  0  0  0  0  0
   -2.4395    5.4749  -18.5576 O   0  0  0  0  0  0  0  0  0  0  0  0
   -4.6329    5.0095  -19.0885 N   0  0  0  0  0  0  0  0  0  0  0  0
   -4.5345    4.8879  -20.0605 H   0  0  0  0  0  0  0  0  0  0  0  0
  -10.6054    4.2827  -17.9044 C   0  0  0  0  0  0  0  0  0  0  0  0
   -9.3774    3.9448  -18.6996 C   0  0  0  0  0  0  0  0  0  0  0  0
   -7.8312    5.1812  -12.4293 C   0  0  0  0  0  0  0  0  0  0  0  0
   -6.7373    5.9731  -11.7167 C   0  0  0  0  0  0  0  0  0  0  0  0
   -7.1288    6.3711  -10.2950 C   0  0  0  0  0  0  0  0  0  0  0  0
   -8.2400    5.5088   -9.7085 C   0  0  0  0  0  0  0  0  0  0  0  0
   -8.1297    4.0402  -10.1279 C   0  0  0  0  0  0  0  0  0  0  0  0
   -9.1895    3.1675   -9.4271 C   0  0  0  0  0  0  0  0  0  0  0  0
   -8.4642    1.9283   -8.9467 C   0  0  0  0  0  0  0  0  0  0  0  0
   -7.1503    2.0085   -9.5758 N   0  0  0  0  0  0  0  0  0  0  0  0
   -6.8254    3.4242   -9.6151 C   0  0  0  0  0  0  0  0  0  0  0  0
   -8.2182    3.9007  -11.6727 C   0  0  0  0  0  0  0  0  0  0  0  0
   -7.1829    1.6237  -10.5199 H   0  0  0  0  0  0  0  0  0  0  0  0
 16 17  1  0  0  0
 17  5  1  0  0  0
  5  6  2  0  0  0
  6  7  1  0  0  0
  7  8  2  0  0  0
  8  9  1  0  0  0
  9  1  1  0  0  0
  1  2  2  0  0  0
  1  3  1  0  0  0
 18  3  1  0  0  0
 18 19  1  0  0  0
 19 20  1  0  0  0
 20 21  1  0  0  0
 22 21  1  0  0  0
 22 23  1  0  0  0
 23 24  1  0  0  0
 24 25  1  0  0  0
 25 26  1  0  0  0
 22 27  1  0  0  0
  9 10  2  0  0  0
  8 11  1  0  0  0
 11 12  1  0  0  0
 12 13  2  0  0  0
 12 14  1  0  0  0
 10  5  1  0  0  0
 14  7  1  0  0  0
 27 18  1  0  0  0
 26 22  1  0  0  0
  3  4  1  0  0  0
 25 28  1  0  0  0
 14 15  1  0  0  0
M  END
> <minimizedAffinity>
-7.43504

> <minimizedRMSD>
0.47674

$$$$
P21523


 29 32  0  0  0  0  0  0  0  0999 V2000
   -7.4001    5.5029  -14.7033 C   0  0  0  0  0  0  0  0  0  0  0  0
   -6.8435    6.5238  -14.7374 O   0  0  0  0  0  0  0  0  0  0  0  0
   -7.9466    4.7071  -13.5101 N   0  0  0  0  0  0  0  0  0  0  0  0
   -8.3144    3.8228  -13.7384 H   0  0  0  0  0  0  0  0  0  0  0  0
   -5.5678    5.5907  -17.3180 C   0  0  0  0  0  0  0  0  0  0  0  0
   -4.5218    5.1071  -16.3187 C   0  0  0  0  0  0  0  0  0  0  0  0
   -5.2526    5.1303  -18.7873 C   0  0  0  0  0  0  0  0  0  0  0  0
   -4.1866    5.2078  -19.3842 O   0  0  0  0  0  0  0  0  0  0  0  0
   -6.4316    4.6350  -19.3282 N   0  0  0  0  0  0  0  0  0  0  0  0
   -7.4045    4.4953  -18.3502 C   0  0  0  0  0  0  0  0  0  0  0  0
   -8.6530    3.9282  -18.5221 C   0  0  0  0  0  0  0  0  0  0  0  0
   -9.4732    3.8150  -17.4054 C   0  0  0  0  0  0  0  0  0  0  0  0
   -9.0251    4.2649  -16.1535 C   0  0  0  0  0  0  0  0  0  0  0  0
   -7.7547    4.8591  -16.0005 C   0  0  0  0  0  0  0  0  0  0  0  0
   -6.9428    4.9800  -17.1220 C   0  0  0  0  0  0  0  0  0  0  0  0
   -6.5596    4.4129  -20.2787 H   0  0  0  0  0  0  0  0  0  0  0  0
   -4.5493    7.7660  -17.0582 C   0  0  0  0  0  0  0  0  0  0  0  0
   -5.7213    7.0195  -17.3496 O   0  0  0  0  0  0  0  0  0  0  0  0
   -8.0094    5.0437  -12.1082 C   0  0  0  0  0  0  0  0  0  0  0  0
   -6.6907    5.6104  -11.5870 C   0  0  0  0  0  0  0  0  0  0  0  0
   -6.7900    6.0707  -10.1341 C   0  0  0  0  0  0  0  0  0  0  0  0
   -7.9570    5.4420   -9.3810 C   0  0  0  0  0  0  0  0  0  0  0  0
   -8.1876    3.9789   -9.7710 C   0  0  0  0  0  0  0  0  0  0  0  0
   -9.2900    3.3280   -8.9163 C   0  0  0  0  0  0  0  0  0  0  0  0
   -8.7944    1.9354   -8.5858 C   0  0  0  0  0  0  0  0  0  0  0  0
   -7.5536    1.7929   -9.3404 N   0  0  0  0  0  0  0  0  0  0  0  0
   -6.9740    3.1235   -9.4097 C   0  0  0  0  0  0  0  0  0  0  0  0
   -8.4950    3.8453  -11.2863 C   0  0  0  0  0  0  0  0  0  0  0  0
   -7.7471    1.4410  -10.2781 H   0  0  0  0  0  0  0  0  0  0  0  0
 17 18  1  0  0  0
 18  5  1  0  0  0
  5  6  1  0  0  0
  5  7  1  0  0  0
  7  8  2  0  0  0
  7  9  1  0  0  0
  9 10  1  0  0  0
 10 11  2  0  0  0
 11 12  1  0  0  0
 12 13  2  0  0  0
 13 14  1  0  0  0
 14  1  1  0  0  0
  1  2  2  0  0  0
  1  3  1  0  0  0
 19  3  1  0  0  0
 19 20  1  0  0  0
 20 21  1  0  0  0
 21 22  1  0  0  0
 23 22  1  0  0  0
 23 24  1  0  0  0
 24 25  1  0  0  0
 25 26  1  0  0  0
 26 27  1  0  0  0
 23 28  1  0  0  0
 14 15  2  0  0  0
 15  5  1  0  0  0
 15 10  1  0  0  0
 28 19  1  0  0  0
 27 23  1  0  0  0
  9 16  1  0  0  0
  3  4  1  0  0  0
 26 29  1  0  0  0
M  END
> <minimizedAffinity>
-7.84976

> <minimizedRMSD>
0.34155

$$$$
P21533


 32 35  0  0  0  0  0  0  0  0999 V2000
   -4.5039    5.6774  -18.5703 C   0  0  0  0  0  0  0  0  0  0  0  0
   -3.6457    4.5870  -18.8727 O   0  0  0  0  0  0  0  0  0  0  0  0
   -4.8672    5.6809  -17.0560 C   0  0  0  0  0  0  0  0  0  0  0  0
   -6.2373    5.0649  -17.0704 C   0  0  0  0  0  0  0  0  0  0  0  0
   -6.6385    4.9096  -18.3948 C   0  0  0  0  0  0  0  0  0  0  0  0
   -7.9008    4.4643  -18.6998 C   0  0  0  0  0  0  0  0  0  0  0  0
   -8.7870    4.2355  -17.6559 C   0  0  0  0  0  0  0  0  0  0  0  0
  -10.5972    4.0558  -18.1198 Br  0  0  0  0  0  0  0  0  0  0  0  0
   -8.3937    4.3428  -16.3139 C   0  0  0  0  0  0  0  0  0  0  0  0
   -7.0877    4.7523  -16.0110 C   0  0  0  0  0  0  0  0  0  0  0  0
   -5.7289    5.4474  -19.3082 N   0  0  0  0  0  0  0  0  0  0  0  0
   -2.8061    4.6954  -18.3992 H   0  0  0  0  0  0  0  0  0  0  0  0
   -5.8884    5.6330  -20.2619 H   0  0  0  0  0  0  0  0  0  0  0  0
   -6.6425    5.0057  -14.6076 C   0  0  0  0  0  0  0  0  0  0  0  0
   -5.7829    5.7743  -14.4412 O   0  0  0  0  0  0  0  0  0  0  0  0
   -7.4069    4.1306  -13.5990 N   0  0  0  0  0  0  0  0  0  0  0  0
   -8.0454    3.4990  -14.0023 H   0  0  0  0  0  0  0  0  0  0  0  0
   -7.3402    4.0847  -12.1536 C   0  0  0  0  0  0  0  0  0  0  0  0
   -7.9677    2.7993  -11.6154 C   0  0  0  0  0  0  0  0  0  0  0  0
   -7.8965    2.7320  -10.0945 C   0  0  0  0  0  0  0  0  0  0  0  0
   -8.4742    3.9816   -9.4355 C   0  0  0  0  0  0  0  0  0  0  0  0
   -7.8784    5.3006   -9.9804 C   0  0  0  0  0  0  0  0  0  0  0  0
   -8.5789    6.5107   -9.3538 C   0  0  0  0  0  0  0  0  0  0  0  0
   -7.8454    6.7419   -8.0365 C   0  0  0  0  0  0  0  0  0  0  0  0
   -6.5879    5.9778   -8.0928 N   0  0  0  0  0  0  0  0  0  0  0  0
   -6.4435    5.5386   -9.4908 C   0  0  0  0  0  0  0  0  0  0  0  0
   -7.9873    5.3194  -11.5141 C   0  0  0  0  0  0  0  0  0  0  0  0
   -6.6352    5.1709   -7.4707 H   0  0  0  0  0  0  0  0  0  0  0  0
   -3.8309    6.9901  -19.0380 C   0  0  0  0  0  0  0  0  0  0  0  0
   -1.5537    7.6132  -19.5644 C   0  0  0  0  0  0  0  0  0  0  0  0
   -2.4553    7.1504  -18.5216 N   0  0  0  0  0  0  0  0  0  0  0  0
   -2.4623    7.8306  -17.7615 H   0  0  0  0  0  0  0  0  0  0  0  0
 30 31  1  0  0  0
 31 29  1  0  0  0
 29  1  1  0  0  0
  1  2  1  0  0  0
  1  3  1  0  0  0
  3  4  1  0  0  0
  4  5  2  0  0  0
  5  6  1  0  0  0
  6  7  2  0  0  0
  7  8  1  0  0  0
  7  9  1  0  0  0
  9 10  2  0  0  0
 10 14  1  0  0  0
 14 15  2  0  0  0
 14 16  1  0  0  0
 18 16  1  0  0  0
 18 19  1  0  0  0
 19 20  1  0  0  0
 20 21  1  0  0  0
 22 21  1  0  0  0
 22 23  1  0  0  0
 23 24  1  0  0  0
 24 25  1  0  0  0
 25 26  1  0  0  0
 22 27  1  0  0  0
  5 11  1  0  0  0
 11  1  1  0  0  0
 10  4  1  0  0  0
 27 18  1  0  0  0
 26 22  1  0  0  0
 31 32  1  0  0  0
  2 12  1  0  0  0
 16 17  1  0  0  0
 25 28  1  0  0  0
 11 13  1  0  0  0
M  END
> <minimizedAffinity>
-7.23769

> <minimizedRMSD>
0.50132

$$$$
P21534


 31 35  0  0  0  0  0  0  0  0999 V2000
   -2.0708    7.7489  -19.6897 C   0  0  0  0  0  0  0  0  0  0  0  0
   -3.4422    7.3291  -19.9701 N   0  0  0  0  0  0  0  0  0  0  0  0
   -4.3496    7.7644  -18.9012 C   0  0  0  0  0  0  0  0  0  0  0  0
   -5.6436    6.9547  -18.9014 C   0  0  0  0  0  0  0  0  0  0  0  0
   -5.3692    5.4645  -18.5760 C   0  0  0  0  0  0  0  0  0  0  0  0
   -3.9631    5.0657  -19.0422 C   0  0  0  0  0  0  0  0  0  0  0  0
   -3.5324    5.8886  -20.2540 C   0  0  0  0  0  0  0  0  0  0  0  0
   -5.5389    5.1865  -17.0491 C   0  0  0  0  0  0  0  0  0  0  0  0
   -6.9721    4.7752  -16.9965 C   0  0  0  0  0  0  0  0  0  0  0  0
   -7.3971    4.4677  -18.2873 C   0  0  0  0  0  0  0  0  0  0  0  0
   -8.6797    4.0142  -18.5352 C   0  0  0  0  0  0  0  0  0  0  0  0
   -9.5703    3.9173  -17.4703 C   0  0  0  0  0  0  0  0  0  0  0  0
   -9.1544    4.2391  -16.1707 C   0  0  0  0  0  0  0  0  0  0  0  0
   -7.8433    4.6750  -15.9234 C   0  0  0  0  0  0  0  0  0  0  0  0
   -6.3778    4.6107  -19.2595 N   0  0  0  0  0  0  0  0  0  0  0  0
   -6.3445    4.2354  -20.1690 H   0  0  0  0  0  0  0  0  0  0  0  0
   -7.4812    5.2204  -14.5866 C   0  0  0  0  0  0  0  0  0  0  0  0
   -6.8208    6.1788  -14.5450 O   0  0  0  0  0  0  0  0  0  0  0  0
   -8.1615    4.4303  -13.4588 N   0  0  0  0  0  0  0  0  0  0  0  0
   -8.6074    3.6013  -13.7474 H   0  0  0  0  0  0  0  0  0  0  0  0
   -8.2538    4.7047  -12.0454 C   0  0  0  0  0  0  0  0  0  0  0  0
   -6.9720    5.3026  -11.4738 C   0  0  0  0  0  0  0  0  0  0  0  0
   -7.1485    5.7390  -10.0195 C   0  0  0  0  0  0  0  0  0  0  0  0
   -8.3240    5.0588   -9.3215 C   0  0  0  0  0  0  0  0  0  0  0  0
   -8.4918    3.5911   -9.7344 C   0  0  0  0  0  0  0  0  0  0  0  0
   -7.3063    2.7343   -9.2729 C   0  0  0  0  0  0  0  0  0  0  0  0
   -7.9407    1.4545   -8.7257 C   0  0  0  0  0  0  0  0  0  0  0  0
   -9.3397    1.5150   -9.0962 N   0  0  0  0  0  0  0  0  0  0  0  0
   -9.6319    2.9193   -8.9695 C   0  0  0  0  0  0  0  0  0  0  0  0
   -8.6744    3.4519  -11.2710 C   0  0  0  0  0  0  0  0  0  0  0  0
   -9.9139    0.9598   -8.4617 H   0  0  0  0  0  0  0  0  0  0  0  0
  1  2  1  0  0  0
  2  3  1  0  0  0
  3  4  1  0  0  0
  4  5  1  0  0  0
  5  6  1  0  0  0
  6  7  1  0  0  0
  5  8  1  0  0  0
  8  9  1  0  0  0
  9 10  2  0  0  0
 10 11  1  0  0  0
 11 12  2  0  0  0
 12 13  1  0  0  0
 13 14  2  0  0  0
 14 17  1  0  0  0
 17 18  2  0  0  0
 17 19  1  0  0  0
 21 19  1  0  0  0
 21 22  1  0  0  0
 22 23  1  0  0  0
 23 24  1  0  0  0
 25 24  1  0  0  0
 25 26  1  0  0  0
 26 27  1  0  0  0
 27 28  1  0  0  0
 28 29  1  0  0  0
 25 30  1  0  0  0
 10 15  1  0  0  0
  7  2  1  0  0  0
 14  9  1  0  0  0
 30 21  1  0  0  0
 15  5  1  0  0  0
 29 25  1  0  0  0
 19 20  1  0  0  0
 28 31  1  0  0  0
 15 16  1  0  0  0
M  END
> <minimizedAffinity>
-8.00425

> <minimizedRMSD>
0.26968

$$$$
P21536


 29 32  0  0  0  0  0  0  0  0999 V2000
   -7.6577    5.0229  -14.6872 C   0  0  0  0  0  0  0  0  0  0  0  0
   -7.0809    6.0283  -14.5613 O   0  0  0  0  0  0  0  0  0  0  0  0
   -8.2544    4.0733  -13.6281 N   0  0  0  0  0  0  0  0  0  0  0  0
   -8.6316    3.2385  -13.9889 H   0  0  0  0  0  0  0  0  0  0  0  0
   -8.3502    4.2098  -12.1887 C   0  0  0  0  0  0  0  0  0  0  0  0
   -8.5779    2.8480  -11.5284 C   0  0  0  0  0  0  0  0  0  0  0  0
   -8.7281    2.9610  -10.0167 C   0  0  0  0  0  0  0  0  0  0  0  0
   -7.5829    3.7354   -9.3756 C   0  0  0  0  0  0  0  0  0  0  0  0
   -7.3107    5.1042  -10.0442 C   0  0  0  0  0  0  0  0  0  0  0  0
   -6.0817    5.7546   -9.4100 C   0  0  0  0  0  0  0  0  0  0  0  0
   -6.6104    6.4401   -8.1573 C   0  0  0  0  0  0  0  0  0  0  0  0
   -8.0582    6.6052   -8.3383 N   0  0  0  0  0  0  0  0  0  0  0  0
   -8.3626    6.1647   -9.7062 C   0  0  0  0  0  0  0  0  0  0  0  0
   -7.1452    4.9201  -11.5642 C   0  0  0  0  0  0  0  0  0  0  0  0
   -8.3187    7.5839   -8.2176 H   0  0  0  0  0  0  0  0  0  0  0  0
   -5.4651    5.3300  -18.7084 C   0  0  0  0  0  0  0  0  0  0  0  0
   -5.7198    5.2276  -17.1787 C   0  0  0  0  0  0  0  0  0  0  0  0
   -7.1266    4.7349  -17.1385 C   0  0  0  0  0  0  0  0  0  0  0  0
   -7.5285    4.4109  -18.4340 C   0  0  0  0  0  0  0  0  0  0  0  0
   -8.8008    3.9394  -18.7012 C   0  0  0  0  0  0  0  0  0  0  0  0
   -9.6960    3.8067  -17.6471 C   0  0  0  0  0  0  0  0  0  0  0  0
   -9.2890    4.0978  -16.3378 C   0  0  0  0  0  0  0  0  0  0  0  0
   -7.9939    4.5663  -16.0683 C   0  0  0  0  0  0  0  0  0  0  0  0
   -6.4967    4.5182  -19.3923 N   0  0  0  0  0  0  0  0  0  0  0  0
   -6.4698    4.1415  -20.3015 H   0  0  0  0  0  0  0  0  0  0  0  0
   -5.5051    6.7881  -19.2486 C   0  0  0  0  0  0  0  0  0  0  0  0
   -5.4582    9.1361  -18.7015 C   0  0  0  0  0  0  0  0  0  0  0  0
   -4.8754    7.8273  -18.4043 N   0  0  0  0  0  0  0  0  0  0  0  0
   -3.4237    7.8752  -18.5875 C   0  0  0  0  0  0  0  0  0  0  0  0
 27 28  1  0  0  0
 28 29  1  0  0  0
 28 26  1  0  0  0
 16 26  1  0  0  0
 16 17  1  0  0  0
 17 18  1  0  0  0
 18 19  2  0  0  0
 19 20  1  0  0  0
 20 21  2  0  0  0
 21 22  1  0  0  0
 22 23  2  0  0  0
 23  1  1  0  0  0
  1  2  2  0  0  0
  1  3  1  0  0  0
  5  3  1  0  0  0
  5  6  1  0  0  0
  6  7  1  0  0  0
  7  8  1  0  0  0
  9  8  1  0  0  0
  9 10  1  0  0  0
 10 11  1  0  0  0
 11 12  1  0  0  0
 12 13  1  0  0  0
  9 14  1  0  0  0
 19 24  1  0  0  0
 24 16  1  0  0  0
 23 18  1  0  0  0
 14  5  1  0  0  0
 13  9  1  0  0  0
  3  4  1  0  0  0
 12 15  1  0  0  0
 24 25  1  0  0  0
M  END
> <minimizedAffinity>
-7.76796

> <minimizedRMSD>
0.49651

$$$$
P21537


 25 28  0  0  0  0  0  0  0  0999 V2000
   -8.0802    4.2267  -13.3419 N   0  0  0  0  0  0  0  0  0  0  0  0
   -8.8497    5.0372  -14.4015 C   0  0  0  0  0  0  0  0  0  0  0  0
   -9.7447    5.7756  -14.2856 O   0  0  0  0  0  0  0  0  0  0  0  0
   -7.4056    3.6088  -13.7056 H   0  0  0  0  0  0  0  0  0  0  0  0
   -8.3297    4.7457  -15.7574 C   0  0  0  0  0  0  0  0  0  0  0  0
   -9.1768    4.2318  -16.7531 C   0  0  0  0  0  0  0  0  0  0  0  0
   -8.7411    4.0540  -18.0749 C   0  0  0  0  0  0  0  0  0  0  0  0
   -7.4309    4.3484  -18.4105 C   0  0  0  0  0  0  0  0  0  0  0  0
   -6.6127    4.8264  -17.4018 C   0  0  0  0  0  0  0  0  0  0  0  0
   -7.0252    5.0489  -16.0883 C   0  0  0  0  0  0  0  0  0  0  0  0
   -5.9245    5.5802  -15.2102 C   0  0  0  0  0  0  0  0  0  0  0  0
   -4.7341    5.6000  -16.1440 C   0  0  0  0  0  0  0  0  0  0  0  0
   -3.5901    5.9263  -15.8922 O   0  0  0  0  0  0  0  0  0  0  0  0
   -5.1992    5.1153  -17.5013 C   0  0  0  0  0  0  0  0  0  0  0  0
   -4.5092    4.9150  -18.4647 O   0  0  0  0  0  0  0  0  0  0  0  0
   -9.4284    1.9245   -6.7487 C   0  0  0  0  0  0  0  0  0  0  0  0
   -9.1408    2.6955   -7.9258 N   0  0  0  0  0  0  0  0  0  0  0  0
   -8.5390    3.9389   -7.9401 C   0  0  0  0  0  0  0  0  0  0  0  0
   -8.3391    4.2564   -9.2578 C   0  0  0  0  0  0  0  0  0  0  0  0
   -7.7043    5.3819   -9.7600 C   0  0  0  0  0  0  0  0  0  0  0  0
   -7.6443    5.3114  -11.1746 C   0  0  0  0  0  0  0  0  0  0  0  0
   -8.1829    4.2253  -11.9571 C   0  0  0  0  0  0  0  0  0  0  0  0
   -8.8411    3.1047  -11.4109 C   0  0  0  0  0  0  0  0  0  0  0  0
   -8.8704    3.1966  -10.0368 C   0  0  0  0  0  0  0  0  0  0  0  0
   -9.3940    2.2534   -9.1997 C   0  0  0  0  0  0  0  0  0  0  0  0
 16 17  1  0  0  0
 17 18  1  0  0  0
 18 19  2  0  0  0
 19 20  1  0  0  0
 20 21  2  0  0  0
 21 22  1  0  0  0
 22  1  1  0  0  0
  1  2  1  0  0  0
  2  3  2  0  0  0
  2  5  1  0  0  0
  5  6  2  0  0  0
  6  7  1  0  0  0
  7  8  2  0  0  0
  8  9  1  0  0  0
  9 10  2  0  0  0
 10 11  1  0  0  0
 11 12  1  0  0  0
 12 13  2  0  0  0
 12 14  1  0  0  0
 14 15  2  0  0  0
 22 23  2  0  0  0
 23 24  1  0  0  0
 24 25  2  0  0  0
 25 17  1  0  0  0
 24 19  1  0  0  0
 10  5  1  0  0  0
 14  9  1  0  0  0
  1  4  1  0  0  0
M  END
> <minimizedAffinity>
-9.22703

> <minimizedRMSD>
1.19663

$$$$
P21538


 32 34  0  0  0  0  0  0  0  0999 V2000
   -5.0330    5.4761  -18.9805 C   0  0  0  0  0  0  0  0  0  0  0  0
   -3.8663    4.8330  -19.4635 O   0  0  0  0  0  0  0  0  0  0  0  0
   -5.1463    5.2815  -17.4405 C   0  0  0  0  0  0  0  0  0  0  0  0
   -6.5541    4.8023  -17.2981 C   0  0  0  0  0  0  0  0  0  0  0  0
   -7.0860    4.5965  -18.5682 C   0  0  0  0  0  0  0  0  0  0  0  0
   -8.4029    4.2257  -18.7394 C   0  0  0  0  0  0  0  0  0  0  0  0
   -9.2025    4.1204  -17.6090 C   0  0  0  0  0  0  0  0  0  0  0  0
  -10.8982    4.0156  -17.8069 Cl  0  0  0  0  0  0  0  0  0  0  0  0
   -8.6698    4.2573  -16.3213 C   0  0  0  0  0  0  0  0  0  0  0  0
   -7.3228    4.6046  -16.1569 C   0  0  0  0  0  0  0  0  0  0  0  0
   -6.1368    4.7361  -19.6021 N   0  0  0  0  0  0  0  0  0  0  0  0
   -3.0814    5.2676  -19.0948 H   0  0  0  0  0  0  0  0  0  0  0  0
   -6.2005    4.4111  -20.5292 H   0  0  0  0  0  0  0  0  0  0  0  0
   -6.8028    4.9705  -14.8094 C   0  0  0  0  0  0  0  0  0  0  0  0
   -5.7096    4.6605  -14.5424 O   0  0  0  0  0  0  0  0  0  0  0  0
   -7.8256    5.8165  -14.0183 N   0  0  0  0  0  0  0  0  0  0  0  0
   -8.6653    6.0023  -14.4975 H   0  0  0  0  0  0  0  0  0  0  0  0
   -7.7530    6.3576  -12.7407 C   0  0  0  0  0  0  0  0  0  0  0  0
   -7.3175    7.6673  -12.5366 C   0  0  0  0  0  0  0  0  0  0  0  0
   -7.3453    8.2287  -11.2600 C   0  0  0  0  0  0  0  0  0  0  0  0
   -7.8059    7.4788  -10.1843 C   0  0  0  0  0  0  0  0  0  0  0  0
   -8.1963    6.1591  -10.3840 C   0  0  0  0  0  0  0  0  0  0  0  0
   -8.1890    5.5981  -11.6608 C   0  0  0  0  0  0  0  0  0  0  0  0
   -8.7412    5.4272   -9.3706 O   0  0  0  0  0  0  0  0  0  0  0  0
   -7.8674    4.5021   -8.6991 C   0  0  0  0  0  0  0  0  0  0  0  0
   -6.5103    4.4521   -9.3972 C   0  0  0  0  0  0  0  0  0  0  0  0
   -8.5688    3.1529   -8.8371 C   0  0  0  0  0  0  0  0  0  0  0  0
   -7.8193    4.8175   -7.1974 C   0  0  0  0  0  0  0  0  0  0  0  0
   -5.0478    6.9678  -19.4408 C   0  0  0  0  0  0  0  0  0  0  0  0
   -5.3576    8.9550  -18.0592 C   0  0  0  0  0  0  0  0  0  0  0  0
   -6.0156    7.9131  -18.8398 N   0  0  0  0  0  0  0  0  0  0  0  0
   -6.5526    8.3528  -19.5874 H   0  0  0  0  0  0  0  0  0  0  0  0
 30 31  1  0  0  0
 31 29  1  0  0  0
 29  1  1  0  0  0
  1  2  1  0  0  0
  1  3  1  0  0  0
  3  4  1  0  0  0
  4  5  2  0  0  0
  5  6  1  0  0  0
  6  7  2  0  0  0
  7  8  1  0  0  0
  7  9  1  0  0  0
  9 10  2  0  0  0
 10 14  1  0  0  0
 14 15  2  0  0  0
 14 16  1  0  0  0
 16 18  1  0  0  0
 18 19  2  0  0  0
 19 20  1  0  0  0
 20 21  2  0  0  0
 21 22  1  0  0  0
 22 24  1  0  0  0
 24 25  1  0  0  0
 25 26  1  0  0  0
 25 27  1  0  0  0
 25 28  1  0  0  0
 22 23  2  0  0  0
  5 11  1  0  0  0
 11  1  1  0  0  0
 10  4  1  0  0  0
 23 18  1  0  0  0
 31 32  1  0  0  0
  2 12  1  0  0  0
 16 17  1  0  0  0
 11 13  1  0  0  0
M  END
> <minimizedAffinity>
-7.24275

> <minimizedRMSD>
1.53533

$$$$
P21541


 35 38  0  0  0  0  0  0  0  0999 V2000
   -7.4877    5.1442  -14.6213 C   0  0  0  0  0  0  0  0  0  0  0  0
   -6.7599    6.0468  -14.5228 O   0  0  0  0  0  0  0  0  0  0  0  0
   -8.2989    4.4010  -13.5548 N   0  0  0  0  0  0  0  0  0  0  0  0
   -8.7874    3.6122  -13.8840 H   0  0  0  0  0  0  0  0  0  0  0  0
   -8.4632    4.6684  -12.1481 C   0  0  0  0  0  0  0  0  0  0  0  0
   -7.5350    5.7753  -11.6520 C   0  0  0  0  0  0  0  0  0  0  0  0
   -7.7858    6.0876  -10.1842 C   0  0  0  0  0  0  0  0  0  0  0  0
   -9.0429    6.6220  -10.0983 F   0  0  0  0  0  0  0  0  0  0  0  0
   -7.7114    4.8525   -9.2388 C   0  0  0  0  0  0  0  0  0  0  0  0
   -6.2471    4.3583   -9.1974 C   0  0  0  0  0  0  0  0  0  0  0  0
   -5.3465    5.1870   -8.2829 C   0  0  0  0  0  0  0  0  0  0  0  0
   -5.8703    5.2966   -6.8521 C   0  0  0  0  0  0  0  0  0  0  0  0
   -7.3080    4.8169   -6.6911 C   0  0  0  0  0  0  0  0  0  0  0  0
   -8.1779    5.3351   -7.8284 C   0  0  0  0  0  0  0  0  0  0  0  0
   -8.6984    3.7758   -9.8225 C   0  0  0  0  0  0  0  0  0  0  0  0
   -8.3799    3.4091  -11.2851 C   0  0  0  0  0  0  0  0  0  0  0  0
   -9.0809    2.5501   -8.9701 C   0  0  0  0  0  0  0  0  0  0  0  0
   -8.0918    1.5325   -8.7541 N   0  0  0  0  0  0  0  0  0  0  0  0
   -7.8594    1.0901   -9.6432 H   0  0  0  0  0  0  0  0  0  0  0  0
   -8.4602    0.8312   -8.1114 H   0  0  0  0  0  0  0  0  0  0  0  0
   -5.1215    5.5840  -18.3236 C   0  0  0  0  0  0  0  0  0  0  0  0
   -5.4224    5.2249  -16.8584 C   0  0  0  0  0  0  0  0  0  0  0  0
   -6.8333    4.8019  -16.9825 C   0  0  0  0  0  0  0  0  0  0  0  0
   -7.1329    4.5814  -18.3248 C   0  0  0  0  0  0  0  0  0  0  0  0
   -8.4007    4.1983  -18.7039 C   0  0  0  0  0  0  0  0  0  0  0  0
   -9.3702    4.0970  -17.7063 C   0  0  0  0  0  0  0  0  0  0  0  0
  -11.0143    3.9381  -18.1495 Cl  0  0  0  0  0  0  0  0  0  0  0  0
   -9.0611    4.2729  -16.3505 C   0  0  0  0  0  0  0  0  0  0  0  0
   -7.7749    4.6478  -15.9846 C   0  0  0  0  0  0  0  0  0  0  0  0
   -6.0054    4.7529  -19.1768 N   0  0  0  0  0  0  0  0  0  0  0  0
   -5.8533    4.4116  -20.0876 H   0  0  0  0  0  0  0  0  0  0  0  0
   -3.6329    5.3738  -18.6192 C   0  0  0  0  0  0  0  0  0  0  0  0
   -1.6722    5.8638  -17.2928 C   0  0  0  0  0  0  0  0  0  0  0  0
   -2.8862    5.0677  -17.3882 N   0  0  0  0  0  0  0  0  0  0  0  0
   -3.4786    5.2677  -16.5822 H   0  0  0  0  0  0  0  0  0  0  0  0
 33 34  1  0  0  0
 34 32  1  0  0  0
 21 32  1  0  0  0
 21 22  1  0  0  0
 22 23  1  0  0  0
 23 24  2  0  0  0
 24 25  1  0  0  0
 25 26  2  0  0  0
 26 27  1  0  0  0
 26 28  1  0  0  0
 28 29  2  0  0  0
 29  1  1  0  0  0
  1  2  2  0  0  0
  1  3  1  0  0  0
  5  3  1  0  0  0
  5  6  1  0  0  0
  6  7  1  0  0  0
  7  8  1  0  0  0
  7  9  1  0  0  0
  9 10  1  0  0  0
 10 11  1  0  0  0
 11 12  1  0  0  0
 12 13  1  0  0  0
 13 14  1  0  0  0
  9 15  1  0  0  0
 15 17  1  0  0  0
 17 18  1  0  0  0
 15 16  1  0  0  0
 24 30  1  0  0  0
 30 21  1  0  0  0
 29 23  1  0  0  0
 16  5  1  0  0  0
 14  9  1  0  0  0
 34 35  1  0  0  0
  3  4  1  0  0  0
 18 19  1  0  0  0
 18 20  1  0  0  0
 30 31  1  0  0  0
M  END
> <minimizedAffinity>
-8.73007

> <minimizedRMSD>
0.47037

$$$$
P21607


 36 39  0  0  0  0  0  0  0  0999 V2000
   -6.8965    5.6002  -14.1267 C   0  0  0  0  0  0  0  0  0  0  0  0
   -4.3079    5.5826  -17.9349 C   0  0  0  0  0  0  0  0  0  0  0  0
   -4.7764    5.6797  -16.6376 C   0  0  0  0  0  0  0  0  0  0  0  0
   -6.0965    5.1365  -16.5744 C   0  0  0  0  0  0  0  0  0  0  0  0
   -7.0602    4.9819  -15.5319 C   0  0  0  0  0  0  0  0  0  0  0  0
   -8.3104    4.4500  -15.9362 C   0  0  0  0  0  0  0  0  0  0  0  0
   -8.6025    4.1788  -17.2677 C   0  0  0  0  0  0  0  0  0  0  0  0
  -10.3826    4.0498  -17.8264 Br  0  0  0  0  0  0  0  0  0  0  0  0
   -7.6464    4.2419  -18.2556 C   0  0  0  0  0  0  0  0  0  0  0  0
   -6.4101    4.7557  -17.8854 C   0  0  0  0  0  0  0  0  0  0  0  0
   -5.3313    5.0502  -18.6795 N   0  0  0  0  0  0  0  0  0  0  0  0
   -5.3008    4.8439  -20.0585 O   0  0  0  0  0  0  0  0  0  0  0  0
   -6.1426    4.4574  -20.3463 H   0  0  0  0  0  0  0  0  0  0  0  0
   -2.0991    4.9758  -18.8332 C   0  0  0  0  0  0  0  0  0  0  0  0
   -3.0919    5.9574  -18.4228 N   0  0  0  0  0  0  0  0  0  0  0  0
   -2.8800    6.9158  -18.4996 H   0  0  0  0  0  0  0  0  0  0  0  0
   -5.5753    5.3539  -13.3722 C   0  0  0  0  0  0  0  0  0  0  0  0
   -4.9852    6.2578  -12.9250 O   0  0  0  0  0  0  0  0  0  0  0  0
   -5.3136    3.8345  -13.2630 N   0  0  0  0  0  0  0  0  0  0  0  0
   -5.9184    3.2725  -13.7994 H   0  0  0  0  0  0  0  0  0  0  0  0
   -4.3181    3.0988  -12.4960 C   0  0  0  0  0  0  0  0  0  0  0  0
   -4.8023    2.6832  -11.1091 C   0  0  0  0  0  0  0  0  0  0  0  0
   -5.2092    3.7771  -10.4218 F   0  0  0  0  0  0  0  0  0  0  0  0
   -5.8688    1.8501  -11.2237 F   0  0  0  0  0  0  0  0  0  0  0  0
   -8.1363    5.5674  -13.2352 C   0  0  0  0  0  0  0  0  0  0  0  0
   -9.2531    5.9373  -13.6123 O   0  0  0  0  0  0  0  0  0  0  0  0
   -8.0426    5.1808  -11.8186 C   0  0  0  0  0  0  0  0  0  0  0  0
   -7.8127    6.1925  -10.8689 C   0  0  0  0  0  0  0  0  0  0  0  0
   -7.9301    5.9121   -9.5049 C   0  0  0  0  0  0  0  0  0  0  0  0
   -8.2903    4.6281   -9.1302 C   0  0  0  0  0  0  0  0  0  0  0  0
   -8.4805    3.6247  -10.0786 C   0  0  0  0  0  0  0  0  0  0  0  0
   -8.3697    3.8793  -11.4344 C   0  0  0  0  0  0  0  0  0  0  0  0
   -8.7985    2.3468   -9.3748 C   0  0  0  0  0  0  0  0  0  0  0  0
   -9.2057    2.7476   -8.0088 N   0  0  0  0  0  0  0  0  0  0  0  0
   -8.5508    4.0537   -7.7715 C   0  0  0  0  0  0  0  0  0  0  0  0
   -8.8886    2.0599   -7.3255 H   0  0  0  0  0  0  0  0  0  0  0  0
 14 15  1  0  0  0
 15  2  1  0  0  0
  2  3  2  0  0  0
  3  4  1  0  0  0
  4  5  2  0  0  0
  5  1  1  0  0  0
  1 17  1  0  0  0
 17 18  2  0  0  0
 17 19  1  0  0  0
 19 21  1  0  0  0
 21 22  1  0  0  0
 22 23  1  0  0  0
 22 24  1  0  0  0
  1 25  1  0  0  0
 25 26  2  0  0  0
 25 27  1  0  0  0
 27 28  2  0  0  0
 28 29  1  0  0  0
 29 30  2  0  0  0
 30 31  1  0  0  0
 31 32  2  0  0  0
 31 33  1  0  0  0
 33 34  1  0  0  0
 34 35  1  0  0  0
  5  6  1  0  0  0
  6  7  2  0  0  0
  7  8  1  0  0  0
  7  9  1  0  0  0
  9 10  2  0  0  0
 10 11  1  0  0  0
 11 12  1  0  0  0
 11  2  1  0  0  0
 10  4  1  0  0  0
 32 27  1  0  0  0
 35 30  1  0  0  0
 15 16  1  0  0  0
 19 20  1  0  0  0
 34 36  1  0  0  0
 12 13  1  0  0  0
M  END
> <minimizedAffinity>
-8.56440

> <minimizedRMSD>
0.37577

$$$$
P21616


 40 44  0  0  0  0  0  0  0  0999 V2000
   -7.4994    3.7532  -12.5508 C   0  0  0  0  0  0  0  0  0  0  0  0
   -8.8714    3.6016  -12.3602 O   0  0  0  0  0  0  0  0  0  0  0  0
   -9.2852    4.4752  -12.2797 H   0  0  0  0  0  0  0  0  0  0  0  0
   -3.6646    7.1343  -18.1978 C   0  0  0  0  0  0  0  0  0  0  0  0
   -4.5396    5.9807  -17.6898 C   0  0  0  0  0  0  0  0  0  0  0  0
   -3.6801    4.7764  -17.7075 N   0  0  0  0  0  0  0  0  0  0  0  0
   -5.7647    5.8295  -18.6505 C   0  0  0  0  0  0  0  0  0  0  0  0
   -6.9619    5.2124  -18.0046 C   0  0  0  0  0  0  0  0  0  0  0  0
   -8.0748    4.6489  -18.5919 C   0  0  0  0  0  0  0  0  0  0  0  0
   -9.3244    4.3273  -17.4749 S   0  0  0  0  0  0  0  0  0  0  0  0
   -8.2480    4.5804  -16.1707 C   0  0  0  0  0  0  0  0  0  0  0  0
   -8.4485    4.2756  -14.8306 C   0  0  0  0  0  0  0  0  0  0  0  0
   -7.4060    4.4918  -13.8968 C   0  0  0  0  0  0  0  0  0  0  0  0
   -6.2665    5.1994  -14.3021 C   0  0  0  0  0  0  0  0  0  0  0  0
   -6.1040    5.5319  -15.6512 C   0  0  0  0  0  0  0  0  0  0  0  0
   -7.0582    5.1430  -16.5950 C   0  0  0  0  0  0  0  0  0  0  0  0
   -4.9152    6.2329  -16.1884 C   0  0  0  0  0  0  0  0  0  0  0  0
   -4.2620    6.9395  -15.4233 O   0  0  0  0  0  0  0  0  0  0  0  0
   -3.4065    4.5681  -18.6678 H   0  0  0  0  0  0  0  0  0  0  0  0
   -4.1954    3.9852  -17.3216 H   0  0  0  0  0  0  0  0  0  0  0  0
   -6.5410    2.4378  -12.7195 C   0  0  0  0  0  0  0  0  0  0  0  0
   -6.8997    1.4280  -13.1901 O   0  0  0  0  0  0  0  0  0  0  0  0
   -5.1288    2.8799  -12.2370 N   0  0  0  0  0  0  0  0  0  0  0  0
   -5.0678    3.8182  -11.9451 H   0  0  0  0  0  0  0  0  0  0  0  0
   -3.8949    2.1381  -12.1480 C   0  0  0  0  0  0  0  0  0  0  0  0
   -3.3827    1.7621  -13.5334 C   0  0  0  0  0  0  0  0  0  0  0  0
   -2.0361    1.5970  -13.5223 F   0  0  0  0  0  0  0  0  0  0  0  0
   -3.6270    2.7813  -14.4058 F   0  0  0  0  0  0  0  0  0  0  0  0
   -7.0323    4.5771  -11.4304 N   0  0  0  0  0  0  0  0  0  0  0  0
   -6.3411    5.2677  -11.5512 H   0  0  0  0  0  0  0  0  0  0  0  0
   -7.6267    4.3303  -10.1587 C   0  0  0  0  0  0  0  0  0  0  0  0
   -7.6212    5.3886   -9.2254 C   0  0  0  0  0  0  0  0  0  0  0  0
   -8.1542    5.2402   -7.9372 C   0  0  0  0  0  0  0  0  0  0  0  0
   -8.6835    4.0146   -7.5804 C   0  0  0  0  0  0  0  0  0  0  0  0
   -8.6820    2.9582   -8.4741 C   0  0  0  0  0  0  0  0  0  0  0  0
   -8.1462    3.0903   -9.7452 C   0  0  0  0  0  0  0  0  0  0  0  0
   -9.3590    1.7769   -7.8660 C   0  0  0  0  0  0  0  0  0  0  0  0
   -9.5760    2.1271   -6.4353 N   0  0  0  0  0  0  0  0  0  0  0  0
   -9.3455    3.5858   -6.3166 C   0  0  0  0  0  0  0  0  0  0  0  0
   -8.9187    1.6177   -5.8447 H   0  0  0  0  0  0  0  0  0  0  0  0
  5  4  1  0  0  0
  5  6  1  0  0  0
  5  7  1  0  0  0
  7  8  1  0  0  0
  8  9  2  0  0  0
  9 10  1  0  0  0
 10 11  1  0  0  0
 11 12  1  0  0  0
 12 13  2  0  0  0
 13  1  1  0  0  0
  1  2  1  0  0  0
  1 29  1  0  0  0
 29 31  1  0  0  0
 31 32  2  0  0  0
 32 33  1  0  0  0
 33 34  2  0  0  0
 34 35  1  0  0  0
 35 36  2  0  0  0
 35 37  1  0  0  0
 37 38  1  0  0  0
 38 39  1  0  0  0
  1 21  1  0  0  0
 21 22  2  0  0  0
 21 23  1  0  0  0
 23 25  1  0  0  0
 25 26  1  0  0  0
 26 27  1  0  0  0
 26 28  1  0  0  0
 13 14  1  0  0  0
 14 15  2  0  0  0
 15 16  1  0  0  0
 15 17  1  0  0  0
 17 18  2  0  0  0
 17  5  1  0  0  0
 16  8  1  0  0  0
 16 11  2  0  0  0
 36 31  1  0  0  0
 39 34  1  0  0  0
  6 19  1  0  0  0
  6 20  1  0  0  0
  2  3  1  0  0  0
 29 30  1  0  0  0
 38 40  1  0  0  0
 23 24  1  0  0  0
M  END
> <minimizedAffinity>
-9.17507

> <minimizedRMSD>
0.69669

$$$$
P21628


 36 39  0  0  0  0  0  0  0  0999 V2000
   -7.1647    4.0536  -13.4139 C   0  0  0  0  0  0  0  0  0  0  0  0
   -3.3424    5.7297  -19.7037 C   0  0  0  0  0  0  0  0  0  0  0  0
   -4.3172    5.3987  -18.6297 C   0  0  0  0  0  0  0  0  0  0  0  0
   -5.6042    5.3309  -18.8098 N   0  0  0  0  0  0  0  0  0  0  0  0
   -6.1559    5.0055  -17.5575 C   0  0  0  0  0  0  0  0  0  0  0  0
   -7.4617    4.6978  -17.2486 C   0  0  0  0  0  0  0  0  0  0  0  0
   -8.8391    4.5583  -18.5378 Br  0  0  0  0  0  0  0  0  0  0  0  0
   -7.7586    4.4063  -15.9166 C   0  0  0  0  0  0  0  0  0  0  0  0
   -6.7872    4.4626  -14.8635 C   0  0  0  0  0  0  0  0  0  0  0  0
   -5.4683    4.7529  -15.2113 C   0  0  0  0  0  0  0  0  0  0  0  0
   -5.1784    4.9713  -16.5494 C   0  0  0  0  0  0  0  0  0  0  0  0
   -3.8436    5.0816  -17.2057 C   0  0  0  0  0  0  0  0  0  0  0  0
   -3.0355    6.0231  -16.5554 O   0  0  0  0  0  0  0  0  0  0  0  0
   -3.5066    6.8691  -16.4982 H   0  0  0  0  0  0  0  0  0  0  0  0
   -6.5240    2.6329  -13.1487 C   0  0  0  0  0  0  0  0  0  0  0  0
   -7.0377    1.6159  -13.4040 O   0  0  0  0  0  0  0  0  0  0  0  0
   -5.1140    2.9302  -12.5666 N   0  0  0  0  0  0  0  0  0  0  0  0
   -4.9415    3.8788  -12.3677 H   0  0  0  0  0  0  0  0  0  0  0  0
   -4.0190    2.0432  -12.2710 C   0  0  0  0  0  0  0  0  0  0  0  0
   -3.0190    1.9635  -13.4191 C   0  0  0  0  0  0  0  0  0  0  0  0
   -3.5990    1.5487  -14.5677 F   0  0  0  0  0  0  0  0  0  0  0  0
   -2.4894    3.1885  -13.6861 F   0  0  0  0  0  0  0  0  0  0  0  0
   -8.6664    4.1083  -13.2946 C   0  0  0  0  0  0  0  0  0  0  0  0
   -9.3142    5.0983  -13.6588 O   0  0  0  0  0  0  0  0  0  0  0  0
   -6.6548    5.0496  -12.3794 N   0  0  0  0  0  0  0  0  0  0  0  0
   -5.9938    5.7411  -12.6118 H   0  0  0  0  0  0  0  0  0  0  0  0
   -7.1833    4.9322  -11.0508 C   0  0  0  0  0  0  0  0  0  0  0  0
   -7.0147    6.0189  -10.1670 C   0  0  0  0  0  0  0  0  0  0  0  0
   -7.4656    5.9699   -8.8355 C   0  0  0  0  0  0  0  0  0  0  0  0
   -8.0975    4.8233   -8.3900 C   0  0  0  0  0  0  0  0  0  0  0  0
   -8.2555    3.7387   -9.2329 C   0  0  0  0  0  0  0  0  0  0  0  0
   -7.7611    3.7577  -10.5275 C   0  0  0  0  0  0  0  0  0  0  0  0
   -8.9761    2.6401   -8.5202 C   0  0  0  0  0  0  0  0  0  0  0  0
   -9.4693    3.2521   -7.2573 N   0  0  0  0  0  0  0  0  0  0  0  0
   -8.6537    4.4712   -7.0506 C   0  0  0  0  0  0  0  0  0  0  0  0
   -9.3452    2.6059   -6.4779 H   0  0  0  0  0  0  0  0  0  0  0  0
  2  3  1  0  0  0
  3  4  2  0  0  0
  4  5  1  0  0  0
  5  6  2  0  0  0
  6  7  1  0  0  0
  6  8  1  0  0  0
  8  9  2  0  0  0
  9  1  1  0  0  0
  1 23  1  0  0  0
 23 24  2  0  0  0
  1 25  1  0  0  0
 25 27  1  0  0  0
 27 28  2  0  0  0
 28 29  1  0  0  0
 29 30  2  0  0  0
 30 31  1  0  0  0
 31 32  2  0  0  0
 31 33  1  0  0  0
 33 34  1  0  0  0
 34 35  1  0  0  0
  1 15  1  0  0  0
 15 16  2  0  0  0
 15 17  1  0  0  0
 17 19  1  0  0  0
 19 20  1  0  0  0
 20 21  1  0  0  0
 20 22  1  0  0  0
  9 10  1  0  0  0
 10 11  2  0  0  0
 11 12  1  0  0  0
 12 13  1  0  0  0
 12  3  1  0  0  0
 11  5  1  0  0  0
 32 27  1  0  0  0
 35 30  1  0  0  0
 25 26  1  0  0  0
 34 36  1  0  0  0
 17 18  1  0  0  0
 13 14  1  0  0  0
M  END
> <minimizedAffinity>
-7.77885

> <minimizedRMSD>
0.53998

$$$$
P21629


 37 40  0  0  0  0  0  0  0  0999 V2000
   -7.0301    4.2380  -13.1367 C   0  0  0  0  0  0  0  0  0  0  0  0
   -2.8383    5.6610  -19.1204 C   0  0  0  0  0  0  0  0  0  0  0  0
   -4.1679    5.3662  -18.5068 C   0  0  0  0  0  0  0  0  0  0  0  0
   -5.2025    5.2127  -19.3439 N   0  0  0  0  0  0  0  0  0  0  0  0
   -6.4157    4.9226  -18.8044 C   0  0  0  0  0  0  0  0  0  0  0  0
   -6.6980    4.8368  -17.4318 C   0  0  0  0  0  0  0  0  0  0  0  0
   -7.9666    4.5487  -16.8630 C   0  0  0  0  0  0  0  0  0  0  0  0
   -9.5159    4.3299  -17.9526 Br  0  0  0  0  0  0  0  0  0  0  0  0
   -8.1159    4.3940  -15.4756 C   0  0  0  0  0  0  0  0  0  0  0  0
   -7.0232    4.5892  -14.6194 C   0  0  0  0  0  0  0  0  0  0  0  0
   -5.8010    4.9615  -15.1844 C   0  0  0  0  0  0  0  0  0  0  0  0
   -4.7774    5.2668  -14.3110 O   0  0  0  0  0  0  0  0  0  0  0  0
   -5.5981    5.0221  -16.5754 C   0  0  0  0  0  0  0  0  0  0  0  0
   -4.3243    5.2212  -17.1392 C   0  0  0  0  0  0  0  0  0  0  0  0
   -3.2150    5.1854  -16.3306 O   0  0  0  0  0  0  0  0  0  0  0  0
   -4.9220    5.2236  -13.3862 H   0  0  0  0  0  0  0  0  0  0  0  0
   -3.3136    5.0875  -15.4040 H   0  0  0  0  0  0  0  0  0  0  0  0
   -6.4077    2.7899  -13.0122 C   0  0  0  0  0  0  0  0  0  0  0  0
   -6.9192    1.8154  -13.4106 O   0  0  0  0  0  0  0  0  0  0  0  0
   -5.0009    3.0032  -12.3715 N   0  0  0  0  0  0  0  0  0  0  0  0
   -4.8308    3.9159  -12.0439 H   0  0  0  0  0  0  0  0  0  0  0  0
   -3.9134    2.0831  -12.1822 C   0  0  0  0  0  0  0  0  0  0  0  0
   -3.3762    1.6507  -13.5409 C   0  0  0  0  0  0  0  0  0  0  0  0
   -2.0449    1.3999  -13.4689 F   0  0  0  0  0  0  0  0  0  0  0  0
   -3.5093    2.6747  -14.4432 F   0  0  0  0  0  0  0  0  0  0  0  0
   -8.3553    4.4119  -12.5421 N   0  0  0  0  0  0  0  0  0  0  0  0
   -9.1832    4.5365  -13.0602 H   0  0  0  0  0  0  0  0  0  0  0  0
   -8.2974    4.3783  -11.1256 C   0  0  0  0  0  0  0  0  0  0  0  0
   -7.9194    5.5201  -10.3860 C   0  0  0  0  0  0  0  0  0  0  0  0
   -7.9474    5.5129   -8.9870 C   0  0  0  0  0  0  0  0  0  0  0  0
   -8.3649    4.3574   -8.3534 C   0  0  0  0  0  0  0  0  0  0  0  0
   -8.6648    3.2090   -9.0792 C   0  0  0  0  0  0  0  0  0  0  0  0
   -8.6067    3.1916  -10.4588 C   0  0  0  0  0  0  0  0  0  0  0  0
   -9.0749    2.1252   -8.1418 C   0  0  0  0  0  0  0  0  0  0  0  0
   -9.4114    2.8333   -6.8750 N   0  0  0  0  0  0  0  0  0  0  0  0
   -8.6226    4.0882   -6.9080 C   0  0  0  0  0  0  0  0  0  0  0  0
   -9.1486    2.2670   -6.0684 H   0  0  0  0  0  0  0  0  0  0  0  0
  2  3  1  0  0  0
  3  4  2  0  0  0
  4  5  1  0  0  0
  5  6  2  0  0  0
  6  7  1  0  0  0
  7  8  1  0  0  0
  7  9  2  0  0  0
  9 10  1  0  0  0
 10  1  1  0  0  0
  1 26  1  0  0  0
 26 28  1  0  0  0
 28 29  2  0  0  0
 29 30  1  0  0  0
 30 31  2  0  0  0
 31 32  1  0  0  0
 32 33  2  0  0  0
 32 34  1  0  0  0
 34 35  1  0  0  0
 35 36  1  0  0  0
  1 18  1  0  0  0
 18 19  2  0  0  0
 18 20  1  0  0  0
 20 22  1  0  0  0
 22 23  1  0  0  0
 23 24  1  0  0  0
 23 25  1  0  0  0
 10 11  2  0  0  0
 11 12  1  0  0  0
 11 13  1  0  0  0
 13 14  2  0  0  0
 14 15  1  0  0  0
 14  3  1  0  0  0
 13  6  1  0  0  0
 33 28  1  0  0  0
 36 31  1  0  0  0
 26 27  1  0  0  0
 35 37  1  0  0  0
 20 21  1  0  0  0
 12 16  1  0  0  0
 15 17  1  0  0  0
M  END
> <minimizedAffinity>
-8.85681

> <minimizedRMSD>
0.42653

$$$$
P21630


 35 37  0  0  0  0  0  0  0  0999 V2000
   -7.6460    3.7716  -13.3648 C   0  0  0  0  0  0  0  0  0  0  0  0
   -6.2836    5.1069  -16.7595 C   0  0  0  0  0  0  0  0  0  0  0  0
   -7.4527    4.9746  -17.5299 C   0  0  0  0  0  0  0  0  0  0  0  0
   -8.6347    4.5081  -16.9697 C   0  0  0  0  0  0  0  0  0  0  0  0
  -10.1236    4.2338  -18.0939 Br  0  0  0  0  0  0  0  0  0  0  0  0
   -8.7061    4.1990  -15.6181 C   0  0  0  0  0  0  0  0  0  0  0  0
   -7.5703    4.3024  -14.8030 C   0  0  0  0  0  0  0  0  0  0  0  0
   -6.3767    4.7967  -15.3811 C   0  0  0  0  0  0  0  0  0  0  0  0
   -3.7103    4.9492  -16.7831 C   0  0  0  0  0  0  0  0  0  0  0  0
   -4.9692    5.5322  -17.4512 C   0  0  0  0  0  0  0  0  0  0  0  0
   -4.9633    5.1068  -18.9364 C   0  0  0  0  0  0  0  0  0  0  0  0
   -4.8873    7.0121  -17.4165 N   0  0  0  0  0  0  0  0  0  0  0  0
   -3.9510    7.4299  -18.4553 O   0  0  0  0  0  0  0  0  0  0  0  0
   -4.5529    7.3201  -16.5033 H   0  0  0  0  0  0  0  0  0  0  0  0
   -4.2748    7.1340  -19.3204 H   0  0  0  0  0  0  0  0  0  0  0  0
   -6.6237    2.5852  -13.1669 C   0  0  0  0  0  0  0  0  0  0  0  0
   -6.8586    1.4839  -13.4764 O   0  0  0  0  0  0  0  0  0  0  0  0
   -5.3210    3.2162  -12.6159 N   0  0  0  0  0  0  0  0  0  0  0  0
   -5.3993    4.1625  -12.3558 H   0  0  0  0  0  0  0  0  0  0  0  0
   -4.0129    2.6433  -12.4221 C   0  0  0  0  0  0  0  0  0  0  0  0
   -3.6015    1.8382  -13.6471 C   0  0  0  0  0  0  0  0  0  0  0  0
   -2.2974    1.4747  -13.5751 F   0  0  0  0  0  0  0  0  0  0  0  0
   -3.7031    2.6309  -14.7497 F   0  0  0  0  0  0  0  0  0  0  0  0
   -7.4177    4.8737  -12.3967 N   0  0  0  0  0  0  0  0  0  0  0  0
   -6.9699    5.7049  -12.6758 H   0  0  0  0  0  0  0  0  0  0  0  0
   -7.8588    4.7012  -11.0644 C   0  0  0  0  0  0  0  0  0  0  0  0
   -7.6354    5.7615  -10.1569 C   0  0  0  0  0  0  0  0  0  0  0  0
   -7.9304    5.6446   -8.7901 C   0  0  0  0  0  0  0  0  0  0  0  0
   -8.4576    4.4523   -8.3341 C   0  0  0  0  0  0  0  0  0  0  0  0
   -8.6703    3.3952   -9.2061 C   0  0  0  0  0  0  0  0  0  0  0  0
   -8.3630    3.4948  -10.5541 C   0  0  0  0  0  0  0  0  0  0  0  0
   -9.2156    2.2284   -8.4497 C   0  0  0  0  0  0  0  0  0  0  0  0
   -9.6495    2.7877   -7.1406 N   0  0  0  0  0  0  0  0  0  0  0  0
   -8.8609    4.0292   -6.9606 C   0  0  0  0  0  0  0  0  0  0  0  0
   -9.4525    2.1279   -6.3880 H   0  0  0  0  0  0  0  0  0  0  0  0
  9 10  1  0  0  0
 10 11  1  0  0  0
 10 12  1  0  0  0
 12 13  1  0  0  0
 10  2  1  0  0  0
  2  3  2  0  0  0
  3  4  1  0  0  0
  4  5  1  0  0  0
  4  6  2  0  0  0
  6  7  1  0  0  0
  7  1  1  0  0  0
  1 24  1  0  0  0
 24 26  1  0  0  0
 26 27  2  0  0  0
 27 28  1  0  0  0
 28 29  2  0  0  0
 29 30  1  0  0  0
 30 31  2  0  0  0
 30 32  1  0  0  0
 32 33  1  0  0  0
 33 34  1  0  0  0
  1 16  1  0  0  0
 16 17  2  0  0  0
 16 18  1  0  0  0
 18 20  1  0  0  0
 20 21  1  0  0  0
 21 22  1  0  0  0
 21 23  1  0  0  0
  7  8  2  0  0  0
  8  2  1  0  0  0
 31 26  1  0  0  0
 34 29  1  0  0  0
 12 14  1  0  0  0
 13 15  1  0  0  0
 24 25  1  0  0  0
 33 35  1  0  0  0
 18 19  1  0  0  0
M  END
> <minimizedAffinity>
-8.22785

> <minimizedRMSD>
0.28317

$$$$
P21635


 37 39  0  0  0  0  0  0  0  0999 V2000
   -7.0483    4.3405  -13.5901 C   0  0  0  0  0  0  0  0  0  0  0  0
   -6.1345    4.9160  -17.2651 C   0  0  0  0  0  0  0  0  0  0  0  0
   -7.3788    4.7907  -17.8793 C   0  0  0  0  0  0  0  0  0  0  0  0
   -8.5166    4.4810  -17.1346 C   0  0  0  0  0  0  0  0  0  0  0  0
  -10.1504    4.2989  -18.0633 Br  0  0  0  0  0  0  0  0  0  0  0  0
   -8.4500    4.3312  -15.7507 C   0  0  0  0  0  0  0  0  0  0  0  0
   -7.2228    4.4985  -15.0986 C   0  0  0  0  0  0  0  0  0  0  0  0
   -6.0824    4.7884  -15.8730 C   0  0  0  0  0  0  0  0  0  0  0  0
   -4.9776    5.2912  -17.9372 N   0  0  0  0  0  0  0  0  0  0  0  0
   -4.1028    5.0794  -17.5383 H   0  0  0  0  0  0  0  0  0  0  0  0
   -5.0220    5.9847  -19.2072 C   0  0  0  0  0  0  0  0  0  0  0  0
   -5.1203    5.0432  -20.2520 O   0  0  0  0  0  0  0  0  0  0  0  0
   -4.3491    4.4552  -20.2309 H   0  0  0  0  0  0  0  0  0  0  0  0
   -3.7234    6.8248  -19.3875 C   0  0  0  0  0  0  0  0  0  0  0  0
   -1.6306    5.5861  -19.4208 C   0  0  0  0  0  0  0  0  0  0  0  0
   -2.5241    6.4104  -18.6115 N   0  0  0  0  0  0  0  0  0  0  0  0
   -2.0218    7.2436  -18.3052 H   0  0  0  0  0  0  0  0  0  0  0  0
   -6.5350    2.9295  -13.2583 C   0  0  0  0  0  0  0  0  0  0  0  0
   -7.1115    1.9515  -13.5313 O   0  0  0  0  0  0  0  0  0  0  0  0
   -5.1418    3.1257  -12.5994 N   0  0  0  0  0  0  0  0  0  0  0  0
   -4.9074    4.0612  -12.4014 H   0  0  0  0  0  0  0  0  0  0  0  0
   -4.1366    2.1604  -12.2308 C   0  0  0  0  0  0  0  0  0  0  0  0
   -3.1324    1.9938  -13.3647 C   0  0  0  0  0  0  0  0  0  0  0  0
   -3.7108    1.5031  -14.4824 F   0  0  0  0  0  0  0  0  0  0  0  0
   -2.6276    3.2134  -13.7109 F   0  0  0  0  0  0  0  0  0  0  0  0
   -8.1929    4.8662  -12.7550 C   0  0  0  0  0  0  0  0  0  0  0  0
   -9.0054    5.6835  -13.1958 O   0  0  0  0  0  0  0  0  0  0  0  0
   -8.1815    4.6401  -11.2885 C   0  0  0  0  0  0  0  0  0  0  0  0
   -7.9076    5.7567  -10.4683 C   0  0  0  0  0  0  0  0  0  0  0  0
   -7.9727    5.6532   -9.0768 C   0  0  0  0  0  0  0  0  0  0  0  0
   -8.3408    4.4350   -8.5360 C   0  0  0  0  0  0  0  0  0  0  0  0
   -8.5896    3.3277   -9.3458 C   0  0  0  0  0  0  0  0  0  0  0  0
   -8.5117    3.4048  -10.7272 C   0  0  0  0  0  0  0  0  0  0  0  0
   -8.9659    2.1692   -8.4804 C   0  0  0  0  0  0  0  0  0  0  0  0
   -9.3185    2.7708   -7.1657 N   0  0  0  0  0  0  0  0  0  0  0  0
   -8.5928    4.0597   -7.1122 C   0  0  0  0  0  0  0  0  0  0  0  0
   -9.0200    2.1619   -6.4037 H   0  0  0  0  0  0  0  0  0  0  0  0
 15 16  1  0  0  0
 16 14  1  0  0  0
 14 11  1  0  0  0
 11 12  1  0  0  0
 11  9  1  0  0  0
  9  2  1  0  0  0
  2  3  2  0  0  0
  3  4  1  0  0  0
  4  5  1  0  0  0
  4  6  2  0  0  0
  6  7  1  0  0  0
  7  1  1  0  0  0
  1 18  1  0  0  0
 18 19  2  0  0  0
 18 20  1  0  0  0
 20 22  1  0  0  0
 22 23  1  0  0  0
 23 24  1  0  0  0
 23 25  1  0  0  0
  1 26  1  0  0  0
 26 27  2  0  0  0
 26 28  1  0  0  0
 28 29  2  0  0  0
 29 30  1  0  0  0
 30 31  2  0  0  0
 31 32  1  0  0  0
 32 33  2  0  0  0
 32 34  1  0  0  0
 34 35  1  0  0  0
 35 36  1  0  0  0
  7  8  2  0  0  0
  8  2  1  0  0  0
 33 28  1  0  0  0
 36 31  1  0  0  0
 16 17  1  0  0  0
 12 13  1  0  0  0
  9 10  1  0  0  0
 20 21  1  0  0  0
 35 37  1  0  0  0
M  END
> <minimizedAffinity>
-8.06661

> <minimizedRMSD>
0.42810

$$$$
P21636


 35 38  0  0  0  0  0  0  0  0999 V2000
   -7.6146    3.7585  -13.3393 C   0  0  0  0  0  0  0  0  0  0  0  0
   -4.8932    5.6041  -16.8971 C   0  0  0  0  0  0  0  0  0  0  0  0
   -4.3002    5.6062  -15.6513 C   0  0  0  0  0  0  0  0  0  0  0  0
   -2.9643    5.9688  -15.1400 C   0  0  0  0  0  0  0  0  0  0  0  0
   -5.1843    5.1482  -14.7097 O   0  0  0  0  0  0  0  0  0  0  0  0
   -6.3472    4.8367  -15.3501 C   0  0  0  0  0  0  0  0  0  0  0  0
   -7.4986    4.2937  -14.7586 C   0  0  0  0  0  0  0  0  0  0  0  0
   -8.5990    4.1941  -15.6374 C   0  0  0  0  0  0  0  0  0  0  0  0
   -8.5015    4.4955  -16.9947 C   0  0  0  0  0  0  0  0  0  0  0  0
  -10.0012    4.3222  -18.1129 Br  0  0  0  0  0  0  0  0  0  0  0  0
   -7.3120    4.9379  -17.5567 C   0  0  0  0  0  0  0  0  0  0  0  0
   -6.2218    5.1433  -16.7025 C   0  0  0  0  0  0  0  0  0  0  0  0
   -3.7418    5.0288  -18.9960 C   0  0  0  0  0  0  0  0  0  0  0  0
   -4.4063    5.9623  -18.1167 N   0  0  0  0  0  0  0  0  0  0  0  0
   -4.5113    6.8958  -18.4114 H   0  0  0  0  0  0  0  0  0  0  0  0
   -6.6074    2.5692  -13.1015 C   0  0  0  0  0  0  0  0  0  0  0  0
   -6.8915    1.4589  -13.3324 O   0  0  0  0  0  0  0  0  0  0  0  0
   -5.2652    3.1850  -12.6315 N   0  0  0  0  0  0  0  0  0  0  0  0
   -5.3013    4.1482  -12.4309 H   0  0  0  0  0  0  0  0  0  0  0  0
   -3.9734    2.5772  -12.4404 C   0  0  0  0  0  0  0  0  0  0  0  0
   -3.5463    1.7835  -13.6682 C   0  0  0  0  0  0  0  0  0  0  0  0
   -2.2304    1.4554  -13.5874 F   0  0  0  0  0  0  0  0  0  0  0  0
   -3.6613    2.5638  -14.7777 F   0  0  0  0  0  0  0  0  0  0  0  0
   -7.5091    4.8509  -12.3564 N   0  0  0  0  0  0  0  0  0  0  0  0
   -7.2247    5.7437  -12.6586 H   0  0  0  0  0  0  0  0  0  0  0  0
   -7.8030    4.6499  -11.0066 C   0  0  0  0  0  0  0  0  0  0  0  0
   -7.6067    5.7187  -10.1056 C   0  0  0  0  0  0  0  0  0  0  0  0
   -7.9158    5.6085   -8.7407 C   0  0  0  0  0  0  0  0  0  0  0  0
   -8.4506    4.4200   -8.2842 C   0  0  0  0  0  0  0  0  0  0  0  0
   -8.6649    3.3627   -9.1550 C   0  0  0  0  0  0  0  0  0  0  0  0
   -8.3644    3.4649  -10.5047 C   0  0  0  0  0  0  0  0  0  0  0  0
   -9.2249    2.2027   -8.3996 C   0  0  0  0  0  0  0  0  0  0  0  0
   -9.6781    2.7718   -7.1011 N   0  0  0  0  0  0  0  0  0  0  0  0
   -8.8907    4.0138   -6.9171 C   0  0  0  0  0  0  0  0  0  0  0  0
   -9.4939    2.1169   -6.3411 H   0  0  0  0  0  0  0  0  0  0  0  0
 13 14  1  0  0  0
 14  2  1  0  0  0
  2  3  2  0  0  0
  3  4  1  0  0  0
  3  5  1  0  0  0
  5  6  1  0  0  0
  6  7  2  0  0  0
  7  1  1  0  0  0
  1 24  1  0  0  0
 24 26  1  0  0  0
 26 27  2  0  0  0
 27 28  1  0  0  0
 28 29  2  0  0  0
 29 30  1  0  0  0
 30 31  2  0  0  0
 30 32  1  0  0  0
 32 33  1  0  0  0
 33 34  1  0  0  0
  1 16  1  0  0  0
 16 17  2  0  0  0
 16 18  1  0  0  0
 18 20  1  0  0  0
 20 21  1  0  0  0
 21 22  1  0  0  0
 21 23  1  0  0  0
  7  8  1  0  0  0
  8  9  2  0  0  0
  9 10  1  0  0  0
  9 11  1  0  0  0
 11 12  2  0  0  0
 12  2  1  0  0  0
 12  6  1  0  0  0
 31 26  1  0  0  0
 34 29  1  0  0  0
 14 15  1  0  0  0
 24 25  1  0  0  0
 33 35  1  0  0  0
 18 19  1  0  0  0
M  END
> <minimizedAffinity>
-8.36790

> <minimizedRMSD>
0.42057

$$$$
P21642


 35 37  0  0  0  0  0  0  0  0999 V2000
   -7.1035    4.2026  -13.4322 C   0  0  0  0  0  0  0  0  0  0  0  0
   -6.0727    4.9589  -17.0447 C   0  0  0  0  0  0  0  0  0  0  0  0
   -7.2917    4.8421  -17.7181 C   0  0  0  0  0  0  0  0  0  0  0  0
   -8.4545    4.5111  -17.0259 C   0  0  0  0  0  0  0  0  0  0  0  0
  -10.0550    4.3638  -18.0152 Br  0  0  0  0  0  0  0  0  0  0  0  0
   -8.4368    4.3232  -15.6427 C   0  0  0  0  0  0  0  0  0  0  0  0
   -7.2319    4.4388  -14.9367 C   0  0  0  0  0  0  0  0  0  0  0  0
   -6.0606    4.7239  -15.6590 C   0  0  0  0  0  0  0  0  0  0  0  0
   -4.8307    5.3970  -17.7784 C   0  0  0  0  0  0  0  0  0  0  0  0
   -3.7013    4.8337  -17.1439 O   0  0  0  0  0  0  0  0  0  0  0  0
   -4.5926    6.7319  -17.6621 F   0  0  0  0  0  0  0  0  0  0  0  0
   -2.8969    5.1107  -17.6099 H   0  0  0  0  0  0  0  0  0  0  0  0
   -4.5927    6.1764  -20.0540 C   0  0  0  0  0  0  0  0  0  0  0  0
   -4.7479    5.0277  -19.1701 N   0  0  0  0  0  0  0  0  0  0  0  0
   -3.9461    4.4099  -19.2957 H   0  0  0  0  0  0  0  0  0  0  0  0
   -6.4684    2.7829  -13.1957 C   0  0  0  0  0  0  0  0  0  0  0  0
   -6.9760    1.7757  -13.5065 O   0  0  0  0  0  0  0  0  0  0  0  0
   -5.0570    3.0582  -12.5917 N   0  0  0  0  0  0  0  0  0  0  0  0
   -4.8908    3.9960  -12.3424 H   0  0  0  0  0  0  0  0  0  0  0  0
   -3.9592    2.1643  -12.3400 C   0  0  0  0  0  0  0  0  0  0  0  0
   -3.3492    1.7738  -13.6826 C   0  0  0  0  0  0  0  0  0  0  0  0
   -2.0160    1.5595  -13.5672 F   0  0  0  0  0  0  0  0  0  0  0  0
   -3.4824    2.8134  -14.5603 F   0  0  0  0  0  0  0  0  0  0  0  0
   -8.3719    4.4655  -12.7481 N   0  0  0  0  0  0  0  0  0  0  0  0
   -9.2136    4.6395  -13.2283 H   0  0  0  0  0  0  0  0  0  0  0  0
   -8.2806    4.4473  -11.3406 C   0  0  0  0  0  0  0  0  0  0  0  0
   -7.9297    5.6091  -10.6209 C   0  0  0  0  0  0  0  0  0  0  0  0
   -7.9480    5.6233   -9.2209 C   0  0  0  0  0  0  0  0  0  0  0  0
   -8.3270    4.4671   -8.5645 C   0  0  0  0  0  0  0  0  0  0  0  0
   -8.6024    3.3004   -9.2694 C   0  0  0  0  0  0  0  0  0  0  0  0
   -8.5546    3.2643  -10.6503 C   0  0  0  0  0  0  0  0  0  0  0  0
   -8.9809    2.2223   -8.3105 C   0  0  0  0  0  0  0  0  0  0  0  0
   -9.3131    2.9398   -7.0477 N   0  0  0  0  0  0  0  0  0  0  0  0
   -8.5596    4.2142   -7.1118 C   0  0  0  0  0  0  0  0  0  0  0  0
   -9.0208    2.3924   -6.2383 H   0  0  0  0  0  0  0  0  0  0  0  0
 13 14  1  0  0  0
 14  9  1  0  0  0
  9 10  1  0  0  0
  9 11  1  0  0  0
  9  2  1  0  0  0
  2  3  2  0  0  0
  3  4  1  0  0  0
  4  5  1  0  0  0
  4  6  2  0  0  0
  6  7  1  0  0  0
  7  1  1  0  0  0
  1 24  1  0  0  0
 24 26  1  0  0  0
 26 27  2  0  0  0
 27 28  1  0  0  0
 28 29  2  0  0  0
 29 30  1  0  0  0
 30 31  2  0  0  0
 30 32  1  0  0  0
 32 33  1  0  0  0
 33 34  1  0  0  0
  1 16  1  0  0  0
 16 17  2  0  0  0
 16 18  1  0  0  0
 18 20  1  0  0  0
 20 21  1  0  0  0
 21 22  1  0  0  0
 21 23  1  0  0  0
  7  8  2  0  0  0
  8  2  1  0  0  0
 31 26  1  0  0  0
 34 29  1  0  0  0
 14 15  1  0  0  0
 10 12  1  0  0  0
 24 25  1  0  0  0
 33 35  1  0  0  0
 18 19  1  0  0  0
M  END
> <minimizedAffinity>
-8.19011

> <minimizedRMSD>
0.65866

$$$$
P21643


 35 37  0  0  0  0  0  0  0  0999 V2000
   -7.6693    3.7290  -13.3333 C   0  0  0  0  0  0  0  0  0  0  0  0
   -6.1977    5.0402  -16.6605 C   0  0  0  0  0  0  0  0  0  0  0  0
   -7.3166    4.9478  -17.4971 C   0  0  0  0  0  0  0  0  0  0  0  0
   -8.5347    4.5198  -16.9796 C   0  0  0  0  0  0  0  0  0  0  0  0
  -10.0479    4.4328  -18.1027 Br  0  0  0  0  0  0  0  0  0  0  0  0
   -8.6564    4.1737  -15.6352 C   0  0  0  0  0  0  0  0  0  0  0  0
   -7.5443    4.2090  -14.7849 C   0  0  0  0  0  0  0  0  0  0  0  0
   -6.3248    4.6658  -15.3126 C   0  0  0  0  0  0  0  0  0  0  0  0
   -4.8965    5.6431  -17.1445 C   0  0  0  0  0  0  0  0  0  0  0  0
   -4.7282    5.5717  -18.6100 N   0  0  0  0  0  0  0  0  0  0  0  0
   -3.6658    4.6083  -18.8222 O   0  0  0  0  0  0  0  0  0  0  0  0
   -3.5021    4.5118  -19.7734 H   0  0  0  0  0  0  0  0  0  0  0  0
   -5.5173    7.6635  -19.3577 C   0  0  0  0  0  0  0  0  0  0  0  0
   -4.3388    6.8245  -19.1738 N   0  0  0  0  0  0  0  0  0  0  0  0
   -3.6843    7.2910  -18.5458 H   0  0  0  0  0  0  0  0  0  0  0  0
   -6.6660    2.5779  -13.0736 C   0  0  0  0  0  0  0  0  0  0  0  0
   -6.9461    1.4705  -13.3228 O   0  0  0  0  0  0  0  0  0  0  0  0
   -5.3288    3.1892  -12.5740 N   0  0  0  0  0  0  0  0  0  0  0  0
   -5.3683    4.1498  -12.3618 H   0  0  0  0  0  0  0  0  0  0  0  0
   -4.0368    2.5776  -12.3701 C   0  0  0  0  0  0  0  0  0  0  0  0
   -3.5577    1.8840  -13.6383 C   0  0  0  0  0  0  0  0  0  0  0  0
   -2.2393    1.5776  -13.5426 F   0  0  0  0  0  0  0  0  0  0  0  0
   -3.6684    2.7477  -14.6867 F   0  0  0  0  0  0  0  0  0  0  0  0
   -7.6492    4.8677  -12.3203 C   0  0  0  0  0  0  0  0  0  0  0  0
   -7.3234    6.0174  -12.6280 O   0  0  0  0  0  0  0  0  0  0  0  0
   -7.9875    4.6051  -10.8872 C   0  0  0  0  0  0  0  0  0  0  0  0
   -7.8239    5.6747   -9.9755 C   0  0  0  0  0  0  0  0  0  0  0  0
   -8.1071    5.5199   -8.6169 C   0  0  0  0  0  0  0  0  0  0  0  0
   -8.5532    4.2868   -8.1855 C   0  0  0  0  0  0  0  0  0  0  0  0
   -8.7129    3.2303   -9.0736 C   0  0  0  0  0  0  0  0  0  0  0  0
   -8.4425    3.3656  -10.4271 C   0  0  0  0  0  0  0  0  0  0  0  0
   -9.2291    2.0381   -8.3424 C   0  0  0  0  0  0  0  0  0  0  0  0
   -9.2347    2.4049   -6.9011 N   0  0  0  0  0  0  0  0  0  0  0  0
   -8.9829    3.8601   -6.8241 C   0  0  0  0  0  0  0  0  0  0  0  0
   -8.5016    1.8959   -6.4073 H   0  0  0  0  0  0  0  0  0  0  0  0
 13 14  1  0  0  0
 14 10  1  0  0  0
 10 11  1  0  0  0
 10  9  1  0  0  0
  9  2  1  0  0  0
  2  3  2  0  0  0
  3  4  1  0  0  0
  4  5  1  0  0  0
  4  6  2  0  0  0
  6  7  1  0  0  0
  7  1  1  0  0  0
  1 16  1  0  0  0
 16 17  2  0  0  0
 16 18  1  0  0  0
 18 20  1  0  0  0
 20 21  1  0  0  0
 21 22  1  0  0  0
 21 23  1  0  0  0
  1 24  1  0  0  0
 24 25  2  0  0  0
 24 26  1  0  0  0
 26 27  2  0  0  0
 27 28  1  0  0  0
 28 29  2  0  0  0
 29 30  1  0  0  0
 30 31  2  0  0  0
 30 32  1  0  0  0
 32 33  1  0  0  0
 33 34  1  0  0  0
  7  8  2  0  0  0
  8  2  1  0  0  0
 31 26  1  0  0  0
 34 29  1  0  0  0
 14 15  1  0  0  0
 11 12  1  0  0  0
 18 19  1  0  0  0
 33 35  1  0  0  0
M  END
> <minimizedAffinity>
-8.12081

> <minimizedRMSD>
0.42705

$$$$
P21647


 41 44  0  0  0  0  0  0  0  0999 V2000
   -7.7723    3.7788  -13.4010 C   0  0  0  0  0  0  0  0  0  0  0  0
   -6.3638    5.0416  -16.7829 C   0  0  0  0  0  0  0  0  0  0  0  0
   -7.5181    4.9416  -17.5770 C   0  0  0  0  0  0  0  0  0  0  0  0
   -8.7290    4.5357  -17.0214 C   0  0  0  0  0  0  0  0  0  0  0  0
  -10.2617    4.3789  -18.1203 Br  0  0  0  0  0  0  0  0  0  0  0  0
   -8.8231    4.2391  -15.6644 C   0  0  0  0  0  0  0  0  0  0  0  0
   -7.6844    4.2551  -14.8489 C   0  0  0  0  0  0  0  0  0  0  0  0
   -6.4675    4.6340  -15.4365 C   0  0  0  0  0  0  0  0  0  0  0  0
   -5.1034    5.5463  -17.2841 N   0  0  0  0  0  0  0  0  0  0  0  0
   -3.0751    5.7607  -16.0885 C   0  0  0  0  0  0  0  0  0  0  0  0
   -4.3931    6.3183  -16.3313 N   0  0  0  0  0  0  0  0  0  0  0  0
   -4.2929    7.2709  -16.6818 H   0  0  0  0  0  0  0  0  0  0  0  0
   -5.1587    6.1048  -18.5727 N   0  0  0  0  0  0  0  0  0  0  0  0
   -4.7420    7.4872  -18.6994 O   0  0  0  0  0  0  0  0  0  0  0  0
   -5.1785    8.0204  -18.0167 H   0  0  0  0  0  0  0  0  0  0  0  0
   -4.4931    5.2836  -19.6160 C   0  0  0  0  0  0  0  0  0  0  0  0
   -2.9676    5.3758  -19.6511 C   0  0  0  0  0  0  0  0  0  0  0  0
   -2.1744    4.0653  -19.5237 C   0  0  0  0  0  0  0  0  0  0  0  0
   -2.0161    4.0308  -20.9830 N   0  0  0  0  0  0  0  0  0  0  0  0
   -2.3501    5.4581  -21.0651 C   0  0  0  0  0  0  0  0  0  0  0  0
   -2.6818    3.4211  -21.4580 H   0  0  0  0  0  0  0  0  0  0  0  0
   -6.7612    2.6267  -13.1532 C   0  0  0  0  0  0  0  0  0  0  0  0
   -7.0350    1.5245  -13.4275 O   0  0  0  0  0  0  0  0  0  0  0  0
   -5.4324    3.2308  -12.6296 N   0  0  0  0  0  0  0  0  0  0  0  0
   -5.4771    4.1866  -12.3978 H   0  0  0  0  0  0  0  0  0  0  0  0
   -4.1396    2.6189  -12.4267 C   0  0  0  0  0  0  0  0  0  0  0  0
   -3.6709    1.9262  -13.7005 C   0  0  0  0  0  0  0  0  0  0  0  0
   -2.3715    1.5541  -13.5912 F   0  0  0  0  0  0  0  0  0  0  0  0
   -3.7181    2.8136  -14.7341 F   0  0  0  0  0  0  0  0  0  0  0  0
   -7.8543    4.8215  -12.2944 C   0  0  0  0  0  0  0  0  0  0  0  0
   -7.9223    4.5071  -11.1052 O   0  0  0  0  0  0  0  0  0  0  0  0
   -7.6999    6.2733  -12.5469 C   0  0  0  0  0  0  0  0  0  0  0  0
   -6.3768    6.7563  -12.6680 C   0  0  0  0  0  0  0  0  0  0  0  0
   -6.1268    8.1070  -12.9077 C   0  0  0  0  0  0  0  0  0  0  0  0
   -7.2120    8.9582  -12.9861 C   0  0  0  0  0  0  0  0  0  0  0  0
   -8.5163    8.4913  -12.8247 C   0  0  0  0  0  0  0  0  0  0  0  0
   -8.7857    7.1495  -12.5972 C   0  0  0  0  0  0  0  0  0  0  0  0
   -9.4592    9.6375  -12.9707 C   0  0  0  0  0  0  0  0  0  0  0  0
   -8.6191   10.8616  -12.9174 N   0  0  0  0  0  0  0  0  0  0  0  0
   -7.2407   10.4254  -13.2536 C   0  0  0  0  0  0  0  0  0  0  0  0
   -8.6441   11.2684  -11.9824 H   0  0  0  0  0  0  0  0  0  0  0  0
 10 11  1  0  0  0
 11  9  1  0  0  0
  9  2  1  0  0  0
  2  3  2  0  0  0
  3  4  1  0  0  0
  4  5  1  0  0  0
  4  6  2  0  0  0
  6  7  1  0  0  0
  7  1  1  0  0  0
  1 22  1  0  0  0
 22 23  2  0  0  0
 22 24  1  0  0  0
 24 26  1  0  0  0
 26 27  1  0  0  0
 27 28  1  0  0  0
 27 29  1  0  0  0
  1 30  1  0  0  0
 30 31  2  0  0  0
 30 32  1  0  0  0
 32 33  2  0  0  0
 33 34  1  0  0  0
 34 35  2  0  0  0
 35 36  1  0  0  0
 36 37  2  0  0  0
 36 38  1  0  0  0
 38 39  1  0  0  0
 39 40  1  0  0  0
  7  8  2  0  0  0
  9 13  1  0  0  0
 13 14  1  0  0  0
 13 16  1  0  0  0
 16 17  1  0  0  0
 17 18  1  0  0  0
 18 19  1  0  0  0
 19 20  1  0  0  0
  8  2  1  0  0  0
 20 17  1  0  0  0
 37 32  1  0  0  0
 40 35  1  0  0  0
 11 12  1  0  0  0
 24 25  1  0  0  0
 39 41  1  0  0  0
 14 15  1  0  0  0
 19 21  1  0  0  0
M  END
> <minimizedAffinity>
-7.35395

> <minimizedRMSD>
1.22457

$$$$
P21655


 35 37  0  0  0  0  0  0  0  0999 V2000
   -7.0897    4.4586  -13.5203 C   0  0  0  0  0  0  0  0  0  0  0  0
   -6.0382    5.0211  -17.1588 C   0  0  0  0  0  0  0  0  0  0  0  0
   -7.2433    4.8368  -17.8434 C   0  0  0  0  0  0  0  0  0  0  0  0
   -8.4133    4.5279  -17.1452 C   0  0  0  0  0  0  0  0  0  0  0  0
  -10.0013    4.2893  -18.1452 Br  0  0  0  0  0  0  0  0  0  0  0  0
   -8.4109    4.4131  -15.7524 C   0  0  0  0  0  0  0  0  0  0  0  0
   -7.2188    4.6139  -15.0418 C   0  0  0  0  0  0  0  0  0  0  0  0
   -6.0471    4.9003  -15.7629 C   0  0  0  0  0  0  0  0  0  0  0  0
   -4.7274    5.3725  -17.8441 C   0  0  0  0  0  0  0  0  0  0  0  0
   -4.3273    6.7724  -17.5772 N   0  0  0  0  0  0  0  0  0  0  0  0
   -3.0879    6.7494  -16.8196 O   0  0  0  0  0  0  0  0  0  0  0  0
   -5.0539    7.2430  -17.0378 H   0  0  0  0  0  0  0  0  0  0  0  0
   -2.4009    6.3010  -17.3371 H   0  0  0  0  0  0  0  0  0  0  0  0
   -3.3736    5.0134  -19.9738 C   0  0  0  0  0  0  0  0  0  0  0  0
   -4.7631    5.1598  -19.3684 C   0  0  0  0  0  0  0  0  0  0  0  0
   -6.6040    2.9858  -13.2490 C   0  0  0  0  0  0  0  0  0  0  0  0
   -7.2224    2.0274  -13.5109 O   0  0  0  0  0  0  0  0  0  0  0  0
   -5.1541    3.1314  -12.6882 N   0  0  0  0  0  0  0  0  0  0  0  0
   -4.8843    4.0543  -12.4770 H   0  0  0  0  0  0  0  0  0  0  0  0
   -4.1495    2.1363  -12.4305 C   0  0  0  0  0  0  0  0  0  0  0  0
   -3.5119    1.7597  -13.7674 C   0  0  0  0  0  0  0  0  0  0  0  0
   -2.1849    1.5239  -13.6238 F   0  0  0  0  0  0  0  0  0  0  0  0
   -3.6028    2.8164  -14.6333 F   0  0  0  0  0  0  0  0  0  0  0  0
   -8.2658    4.9718  -12.7728 N   0  0  0  0  0  0  0  0  0  0  0  0
   -8.6168    6.3441  -13.1640 C   0  0  0  0  0  0  0  0  0  0  0  0
   -8.1407    4.8248  -11.3650 C   0  0  0  0  0  0  0  0  0  0  0  0
   -7.7332    5.8820  -10.5142 C   0  0  0  0  0  0  0  0  0  0  0  0
   -7.7945    5.7778   -9.1202 C   0  0  0  0  0  0  0  0  0  0  0  0
   -8.2438    4.5935   -8.5760 C   0  0  0  0  0  0  0  0  0  0  0  0
   -8.5759    3.5190   -9.3868 C   0  0  0  0  0  0  0  0  0  0  0  0
   -8.5264    3.6135  -10.7714 C   0  0  0  0  0  0  0  0  0  0  0  0
   -9.0483    2.3862   -8.5419 C   0  0  0  0  0  0  0  0  0  0  0  0
   -8.8651    2.8142   -7.1255 N   0  0  0  0  0  0  0  0  0  0  0  0
   -8.5329    4.2546   -7.1556 C   0  0  0  0  0  0  0  0  0  0  0  0
   -8.1054    2.2873   -6.6947 H   0  0  0  0  0  0  0  0  0  0  0  0
 14 15  1  0  0  0
  9 15  1  0  0  0
  9 10  1  0  0  0
 10 11  1  0  0  0
  9  2  1  0  0  0
  2  3  2  0  0  0
  3  4  1  0  0  0
  4  5  1  0  0  0
  4  6  2  0  0  0
  6  7  1  0  0  0
  7  1  1  0  0  0
  1 16  1  0  0  0
 16 17  2  0  0  0
 16 18  1  0  0  0
 18 20  1  0  0  0
 20 21  1  0  0  0
 21 22  1  0  0  0
 21 23  1  0  0  0
  1 24  1  0  0  0
 24 25  1  0  0  0
 24 26  1  0  0  0
 26 27  2  0  0  0
 27 28  1  0  0  0
 28 29  2  0  0  0
 29 30  1  0  0  0
 30 31  2  0  0  0
 30 32  1  0  0  0
 32 33  1  0  0  0
 33 34  1  0  0  0
  7  8  2  0  0  0
  8  2  1  0  0  0
 31 26  1  0  0  0
 34 29  1  0  0  0
 10 12  1  0  0  0
 11 13  1  0  0  0
 18 19  1  0  0  0
 33 35  1  0  0  0
M  END
> <minimizedAffinity>
-8.17794

> <minimizedRMSD>
0.71238

$$$$
P21657


 33 35  0  0  0  0  0  0  0  0999 V2000
   -7.0073    4.4526  -13.4558 C   0  0  0  0  0  0  0  0  0  0  0  0
   -6.0924    5.1885  -17.1092 C   0  0  0  0  0  0  0  0  0  0  0  0
   -7.2762    4.8523  -17.7711 C   0  0  0  0  0  0  0  0  0  0  0  0
   -8.3979    4.4496  -17.0510 C   0  0  0  0  0  0  0  0  0  0  0  0
   -9.9756    4.1036  -18.0263 Br  0  0  0  0  0  0  0  0  0  0  0  0
   -8.3547    4.3452  -15.6596 C   0  0  0  0  0  0  0  0  0  0  0  0
   -7.1663    4.6452  -14.9733 C   0  0  0  0  0  0  0  0  0  0  0  0
   -6.0446    5.0617  -15.7160 C   0  0  0  0  0  0  0  0  0  0  0  0
   -4.9147    5.6688  -17.9209 C   0  0  0  0  0  0  0  0  0  0  0  0
   -4.6338    7.0384  -17.6213 O   0  0  0  0  0  0  0  0  0  0  0  0
   -4.3987    7.1227  -16.6840 H   0  0  0  0  0  0  0  0  0  0  0  0
   -2.8919    4.5636  -18.9715 C   0  0  0  0  0  0  0  0  0  0  0  0
   -3.6796    4.7970  -17.6903 C   0  0  0  0  0  0  0  0  0  0  0  0
   -6.5322    2.9689  -13.2342 C   0  0  0  0  0  0  0  0  0  0  0  0
   -7.1393    2.0249  -13.5618 O   0  0  0  0  0  0  0  0  0  0  0  0
   -5.1074    3.0872  -12.6150 N   0  0  0  0  0  0  0  0  0  0  0  0
   -4.8462    3.9994  -12.3524 H   0  0  0  0  0  0  0  0  0  0  0  0
   -4.1120    2.0801  -12.3648 C   0  0  0  0  0  0  0  0  0  0  0  0
   -3.1329    2.0700  -13.5321 C   0  0  0  0  0  0  0  0  0  0  0  0
   -2.0646    1.2792  -13.2933 F   0  0  0  0  0  0  0  0  0  0  0  0
   -3.7388    1.5833  -14.6518 F   0  0  0  0  0  0  0  0  0  0  0  0
   -8.1741    4.9483  -12.6745 N   0  0  0  0  0  0  0  0  0  0  0  0
   -8.5497    6.3199  -13.0400 C   0  0  0  0  0  0  0  0  0  0  0  0
   -8.0608    4.7618  -11.2700 C   0  0  0  0  0  0  0  0  0  0  0  0
   -7.6508    5.7945  -10.3875 C   0  0  0  0  0  0  0  0  0  0  0  0
   -7.7438    5.6702   -8.9949 C   0  0  0  0  0  0  0  0  0  0  0  0
   -8.2371    4.4911   -8.4813 C   0  0  0  0  0  0  0  0  0  0  0  0
   -8.5538    3.4306   -9.3193 C   0  0  0  0  0  0  0  0  0  0  0  0
   -8.4730    3.5463  -10.7007 C   0  0  0  0  0  0  0  0  0  0  0  0
   -9.0046    2.2764   -8.4874 C   0  0  0  0  0  0  0  0  0  0  0  0
   -9.3512    2.8674   -7.1640 N   0  0  0  0  0  0  0  0  0  0  0  0
   -8.5610    4.1169   -7.0738 C   0  0  0  0  0  0  0  0  0  0  0  0
   -9.0971    2.2289   -6.4102 H   0  0  0  0  0  0  0  0  0  0  0  0
 12 13  1  0  0  0
 13  9  1  0  0  0
  9 10  1  0  0  0
  9  2  1  0  0  0
  2  3  2  0  0  0
  3  4  1  0  0  0
  4  5  1  0  0  0
  4  6  2  0  0  0
  6  7  1  0  0  0
  7  1  1  0  0  0
  1 14  1  0  0  0
 14 15  2  0  0  0
 14 16  1  0  0  0
 16 18  1  0  0  0
 18 19  1  0  0  0
 19 20  1  0  0  0
 19 21  1  0  0  0
  1 22  1  0  0  0
 22 23  1  0  0  0
 22 24  1  0  0  0
 24 25  2  0  0  0
 25 26  1  0  0  0
 26 27  2  0  0  0
 27 28  1  0  0  0
 28 29  2  0  0  0
 28 30  1  0  0  0
 30 31  1  0  0  0
 31 32  1  0  0  0
  7  8  2  0  0  0
  8  2  1  0  0  0
 29 24  1  0  0  0
 32 27  1  0  0  0
 10 11  1  0  0  0
 16 17  1  0  0  0
 31 33  1  0  0  0
M  END
> <minimizedAffinity>
-8.20302

> <minimizedRMSD>
0.63265

$$$$
P21659


 42 45  0  0  0  0  0  0  0  0999 V2000
   -6.2386    5.0660  -17.3154 C   0  0  0  0  0  0  0  0  0  0  0  0
   -7.4331    4.8059  -17.9895 C   0  0  0  0  0  0  0  0  0  0  0  0
   -8.5790    4.4571  -17.2773 C   0  0  0  0  0  0  0  0  0  0  0  0
  -10.2130    4.2636  -18.1900 Br  0  0  0  0  0  0  0  0  0  0  0  0
   -8.5414    4.3155  -15.8956 C   0  0  0  0  0  0  0  0  0  0  0  0
   -7.3474    4.5509  -15.2102 C   0  0  0  0  0  0  0  0  0  0  0  0
   -6.2092    4.9135  -15.9289 C   0  0  0  0  0  0  0  0  0  0  0  0
   -4.9667    5.5855  -17.9296 C   0  0  0  0  0  0  0  0  0  0  0  0
   -5.0527    6.2402  -19.2437 N   0  0  0  0  0  0  0  0  0  0  0  0
   -6.1018    7.2449  -19.1197 O   0  0  0  0  0  0  0  0  0  0  0  0
   -6.2034    7.7122  -19.9636 H   0  0  0  0  0  0  0  0  0  0  0  0
   -3.7787    6.9058  -19.4730 N   0  0  0  0  0  0  0  0  0  0  0  0
   -3.9396    7.9061  -19.5905 H   0  0  0  0  0  0  0  0  0  0  0  0
   -3.1353    6.3821  -20.6662 C   0  0  0  0  0  0  0  0  0  0  0  0
   -1.7321    7.0207  -20.8715 C   0  0  0  0  0  0  0  0  0  0  0  0
   -2.0463    7.1581  -22.3213 N   0  0  0  0  0  0  0  0  0  0  0  0
   -3.4957    7.1712  -21.9501 C   0  0  0  0  0  0  0  0  0  0  0  0
   -1.7625    6.3630  -22.8937 H   0  0  0  0  0  0  0  0  0  0  0  0
   -2.2118    4.2387  -20.0291 C   0  0  0  0  0  0  0  0  0  0  0  0
   -3.1334    4.9389  -20.9033 N   0  0  0  0  0  0  0  0  0  0  0  0
   -4.0744    4.5790  -20.7437 H   0  0  0  0  0  0  0  0  0  0  0  0
   -7.2071    4.4324  -13.7087 C   0  0  0  0  0  0  0  0  0  0  0  0
   -6.6772    3.0353  -13.3428 C   0  0  0  0  0  0  0  0  0  0  0  0
   -7.2793    2.0521  -13.5295 O   0  0  0  0  0  0  0  0  0  0  0  0
   -5.2279    3.2449  -12.8153 N   0  0  0  0  0  0  0  0  0  0  0  0
   -4.9732    4.1850  -12.6716 H   0  0  0  0  0  0  0  0  0  0  0  0
   -4.1974    2.2850  -12.5026 C   0  0  0  0  0  0  0  0  0  0  0  0
   -3.5574    1.7949  -13.7963 C   0  0  0  0  0  0  0  0  0  0  0  0
   -2.2350    1.5548  -13.6238 F   0  0  0  0  0  0  0  0  0  0  0  0
   -3.6333    2.7826  -14.7385 F   0  0  0  0  0  0  0  0  0  0  0  0
   -8.3872    4.9545  -12.9394 C   0  0  0  0  0  0  0  0  0  0  0  0
   -9.2635    5.6744  -13.4174 O   0  0  0  0  0  0  0  0  0  0  0  0
   -8.2680    4.8393  -11.4755 C   0  0  0  0  0  0  0  0  0  0  0  0
   -8.4281    3.6005  -10.8356 C   0  0  0  0  0  0  0  0  0  0  0  0
   -8.2158    3.5008   -9.4620 C   0  0  0  0  0  0  0  0  0  0  0  0
   -7.8454    4.6441   -8.7737 C   0  0  0  0  0  0  0  0  0  0  0  0
   -7.7031    5.8745   -9.4126 C   0  0  0  0  0  0  0  0  0  0  0  0
   -7.9157    5.9976  -10.7700 C   0  0  0  0  0  0  0  0  0  0  0  0
   -7.3655    6.9135   -8.3982 C   0  0  0  0  0  0  0  0  0  0  0  0
   -6.9604    6.1587   -7.1828 N   0  0  0  0  0  0  0  0  0  0  0  0
   -7.5955    4.8187   -7.3150 C   0  0  0  0  0  0  0  0  0  0  0  0
   -7.2951    6.6303   -6.3426 H   0  0  0  0  0  0  0  0  0  0  0  0
 19 20  1  0  0  0
 20 14  1  0  0  0
 14 12  1  0  0  0
 12  9  1  0  0  0
  9 10  1  0  0  0
  9  8  1  0  0  0
  8  1  1  0  0  0
  1  2  2  0  0  0
  2  3  1  0  0  0
  3  4  1  0  0  0
  3  5  2  0  0  0
  5  6  1  0  0  0
  6 22  1  0  0  0
 22 23  1  0  0  0
 23 24  2  0  0  0
 23 25  1  0  0  0
 25 27  1  0  0  0
 27 28  1  0  0  0
 28 29  1  0  0  0
 28 30  1  0  0  0
 22 31  1  0  0  0
 31 32  2  0  0  0
 31 33  1  0  0  0
 33 34  2  0  0  0
 34 35  1  0  0  0
 35 36  2  0  0  0
 36 37  1  0  0  0
 37 38  2  0  0  0
 37 39  1  0  0  0
 39 40  1  0  0  0
 40 41  1  0  0  0
  6  7  2  0  0  0
 14 15  1  0  0  0
 15 16  1  0  0  0
 16 17  1  0  0  0
 17 14  1  0  0  0
  7  1  1  0  0  0
 38 33  1  0  0  0
 41 36  1  0  0  0
 20 21  1  0  0  0
 12 13  1  0  0  0
 10 11  1  0  0  0
 25 26  1  0  0  0
 40 42  1  0  0  0
 16 18  1  0  0  0
M  END
> <minimizedAffinity>
-8.09081

> <minimizedRMSD>
0.49848

$$$$
P21660


 35 38  0  0  0  0  0  0  0  0999 V2000
   -7.0228    4.0413  -13.2013 C   0  0  0  0  0  0  0  0  0  0  0  0
   -3.6075    7.2321  -18.9687 C   0  0  0  0  0  0  0  0  0  0  0  0
   -4.3843    6.2644  -18.2234 N   0  0  0  0  0  0  0  0  0  0  0  0
   -5.2655    6.8194  -17.1995 C   0  0  0  0  0  0  0  0  0  0  0  0
   -5.8046    5.5385  -16.5629 C   0  0  0  0  0  0  0  0  0  0  0  0
   -6.9099    4.9221  -17.4906 C   0  0  0  0  0  0  0  0  0  0  0  0
   -8.2788    4.8572  -16.8192 C   0  0  0  0  0  0  0  0  0  0  0  0
   -9.6359    4.2179  -18.0427 Br  0  0  0  0  0  0  0  0  0  0  0  0
   -8.3445    4.1923  -15.4590 C   0  0  0  0  0  0  0  0  0  0  0  0
   -7.0059    4.3406  -14.7231 C   0  0  0  0  0  0  0  0  0  0  0  0
   -6.3230    5.6712  -15.1085 C   0  0  0  0  0  0  0  0  0  0  0  0
   -4.4999    4.7004  -16.5583 C   0  0  0  0  0  0  0  0  0  0  0  0
   -3.6015    5.2570  -17.5862 N   0  0  0  0  0  0  0  0  0  0  0  0
   -2.4824    5.8215  -16.8479 O   0  0  0  0  0  0  0  0  0  0  0  0
   -1.9767    5.1066  -16.4307 H   0  0  0  0  0  0  0  0  0  0  0  0
   -6.3366    2.6395  -13.0984 C   0  0  0  0  0  0  0  0  0  0  0  0
   -6.7977    1.6583  -13.5337 O   0  0  0  0  0  0  0  0  0  0  0  0
   -4.9610    2.8921  -12.4279 N   0  0  0  0  0  0  0  0  0  0  0  0
   -4.8368    3.8014  -12.0713 H   0  0  0  0  0  0  0  0  0  0  0  0
   -3.8370    2.0135  -12.2425 C   0  0  0  0  0  0  0  0  0  0  0  0
   -2.9669    2.0740  -13.4922 C   0  0  0  0  0  0  0  0  0  0  0  0
   -1.8323    1.3538  -13.3535 F   0  0  0  0  0  0  0  0  0  0  0  0
   -3.6293    1.5556  -14.5622 F   0  0  0  0  0  0  0  0  0  0  0  0
   -8.3732    4.0525  -12.6384 N   0  0  0  0  0  0  0  0  0  0  0  0
   -9.1971    4.0053  -13.1754 H   0  0  0  0  0  0  0  0  0  0  0  0
   -8.3478    4.1398  -11.2227 C   0  0  0  0  0  0  0  0  0  0  0  0
   -8.0016    5.3421  -10.5776 C   0  0  0  0  0  0  0  0  0  0  0  0
   -8.0393    5.4442   -9.1806 C   0  0  0  0  0  0  0  0  0  0  0  0
   -8.4217    4.3297   -8.4543 C   0  0  0  0  0  0  0  0  0  0  0  0
   -8.7017    3.1250   -9.0873 C   0  0  0  0  0  0  0  0  0  0  0  0
   -8.6532    3.0081  -10.4601 C   0  0  0  0  0  0  0  0  0  0  0  0
   -9.0596    2.0955   -8.0721 C   0  0  0  0  0  0  0  0  0  0  0  0
   -9.3790    2.8757   -6.8455 N   0  0  0  0  0  0  0  0  0  0  0  0
   -8.6389    4.1532   -6.9884 C   0  0  0  0  0  0  0  0  0  0  0  0
   -9.0689    2.3747   -6.0129 H   0  0  0  0  0  0  0  0  0  0  0  0
  2  3  1  0  0  0
  3  4  1  0  0  0
  5  4  1  0  0  0
  5  6  1  0  0  0
  6  7  1  0  0  0
  7  8  1  0  0  0
  7  9  1  0  0  0
 10  9  1  0  0  0
 10  1  1  0  0  0
  1 24  1  0  0  0
 24 26  1  0  0  0
 26 27  2  0  0  0
 27 28  1  0  0  0
 28 29  2  0  0  0
 29 30  1  0  0  0
 30 31  2  0  0  0
 30 32  1  0  0  0
 32 33  1  0  0  0
 33 34  1  0  0  0
  1 16  1  0  0  0
 16 17  2  0  0  0
 16 18  1  0  0  0
 18 20  1  0  0  0
 20 21  1  0  0  0
 21 22  1  0  0  0
 21 23  1  0  0  0
 10 11  1  0  0  0
  5 12  1  0  0  0
 12 13  1  0  0  0
 13 14  1  0  0  0
 13  3  1  0  0  0
 11  5  1  0  0  0
 31 26  1  0  0  0
 34 29  1  0  0  0
 24 25  1  0  0  0
 33 35  1  0  0  0
 18 19  1  0  0  0
 14 15  1  0  0  0
M  END
> <minimizedAffinity>
-8.52545

> <minimizedRMSD>
0.38183

$$$$
P21700


 40 43  0  0  0  0  0  0  0  0999 V2000
   -7.7131    3.8044  -13.7172 C   0  0  0  0  0  0  0  0  0  0  0  0
   -6.5018    5.0022  -17.2128 C   0  0  0  0  0  0  0  0  0  0  0  0
   -7.6910    4.8878  -17.9309 C   0  0  0  0  0  0  0  0  0  0  0  0
   -8.8570    4.4905  -17.2833 C   0  0  0  0  0  0  0  0  0  0  0  0
  -10.4768    4.4270  -18.2329 Br  0  0  0  0  0  0  0  0  0  0  0  0
   -8.8614    4.1788  -15.9289 C   0  0  0  0  0  0  0  0  0  0  0  0
   -7.6749    4.2066  -15.1918 C   0  0  0  0  0  0  0  0  0  0  0  0
   -6.5104    4.6494  -15.8429 C   0  0  0  0  0  0  0  0  0  0  0  0
   -5.2437    5.6079  -17.7979 C   0  0  0  0  0  0  0  0  0  0  0  0
   -5.0733    5.5777  -19.2797 N   0  0  0  0  0  0  0  0  0  0  0  0
   -3.6691    5.2408  -19.4750 O   0  0  0  0  0  0  0  0  0  0  0  0
   -3.4752    5.2011  -20.4245 H   0  0  0  0  0  0  0  0  0  0  0  0
   -5.3744    6.8927  -19.8664 N   0  0  0  0  0  0  0  0  0  0  0  0
   -6.3356    6.8957  -20.2076 H   0  0  0  0  0  0  0  0  0  0  0  0
   -5.4180    7.7326  -23.3911 C   0  0  0  0  0  0  0  0  0  0  0  0
   -5.1185    8.1919  -21.9766 C   0  0  0  0  0  0  0  0  0  0  0  0
   -3.8679    9.0071  -21.9359 N   0  0  0  0  0  0  0  0  0  0  0  0
   -3.5426    8.3813  -20.6373 C   0  0  0  0  0  0  0  0  0  0  0  0
   -4.4556    7.1818  -20.9940 C   0  0  0  0  0  0  0  0  0  0  0  0
   -4.0230   10.0142  -21.8910 H   0  0  0  0  0  0  0  0  0  0  0  0
   -6.5767    2.8357  -13.3299 C   0  0  0  0  0  0  0  0  0  0  0  0
   -6.7283    1.6785  -13.3763 O   0  0  0  0  0  0  0  0  0  0  0  0
   -5.3474    3.6699  -12.8912 N   0  0  0  0  0  0  0  0  0  0  0  0
   -5.4961    4.6429  -12.8691 H   0  0  0  0  0  0  0  0  0  0  0  0
   -4.0175    3.2521  -12.5090 C   0  0  0  0  0  0  0  0  0  0  0  0
   -3.2263    2.6627  -13.6706 C   0  0  0  0  0  0  0  0  0  0  0  0
   -3.3898    1.3269  -13.7773 F   0  0  0  0  0  0  0  0  0  0  0  0
   -3.6511    3.2066  -14.8437 F   0  0  0  0  0  0  0  0  0  0  0  0
   -7.9112    4.9991  -12.8017 C   0  0  0  0  0  0  0  0  0  0  0  0
   -7.9178    6.1589  -13.2256 O   0  0  0  0  0  0  0  0  0  0  0  0
   -8.0836    4.8009  -11.3340 C   0  0  0  0  0  0  0  0  0  0  0  0
   -7.8338    5.9240  -10.5147 C   0  0  0  0  0  0  0  0  0  0  0  0
   -7.9654    5.8501   -9.1301 C   0  0  0  0  0  0  0  0  0  0  0  0
   -8.3490    4.6436   -8.5803 C   0  0  0  0  0  0  0  0  0  0  0  0
   -8.5932    3.5316   -9.3759 C   0  0  0  0  0  0  0  0  0  0  0  0
   -8.4720    3.5865  -10.7568 C   0  0  0  0  0  0  0  0  0  0  0  0
   -9.0032    2.3862   -8.5135 C   0  0  0  0  0  0  0  0  0  0  0  0
   -8.9260    2.8670   -7.1078 N   0  0  0  0  0  0  0  0  0  0  0  0
   -8.6131    4.3093   -7.1540 C   0  0  0  0  0  0  0  0  0  0  0  0
   -8.1916    2.3663   -6.6074 H   0  0  0  0  0  0  0  0  0  0  0  0
 16 15  1  0  0  0
 16 17  1  0  0  0
 17 18  1  0  0  0
 18 19  1  0  0  0
 19 13  1  0  0  0
 13 10  1  0  0  0
 10 11  1  0  0  0
 10  9  1  0  0  0
  9  2  1  0  0  0
  2  3  2  0  0  0
  3  4  1  0  0  0
  4  5  1  0  0  0
  4  6  2  0  0  0
  6  7  1  0  0  0
  7  1  1  0  0  0
  1 21  1  0  0  0
 21 22  2  0  0  0
 21 23  1  0  0  0
 23 25  1  0  0  0
 25 26  1  0  0  0
 26 27  1  0  0  0
 26 28  1  0  0  0
  1 29  1  0  0  0
 29 30  2  0  0  0
 29 31  1  0  0  0
 31 32  2  0  0  0
 32 33  1  0  0  0
 33 34  2  0  0  0
 34 35  1  0  0  0
 35 36  2  0  0  0
 35 37  1  0  0  0
 37 38  1  0  0  0
 38 39  1  0  0  0
  7  8  2  0  0  0
 19 16  1  0  0  0
  8  2  1  0  0  0
 36 31  1  0  0  0
 39 34  1  0  0  0
 17 20  1  0  0  0
 13 14  1  0  0  0
 11 12  1  0  0  0
 23 24  1  0  0  0
 38 40  1  0  0  0
M  END
> <minimizedAffinity>
-8.14976

> <minimizedRMSD>
0.56280

$$$$
P21706


 44 47  0  0  0  0  0  0  0  0999 V2000
   -7.5812    3.8785  -13.2322 C   0  0  0  0  0  0  0  0  0  0  0  0
   -8.9571    3.7550  -13.0415 O   0  0  0  0  0  0  0  0  0  0  0  0
   -9.3790    4.6201  -13.1614 H   0  0  0  0  0  0  0  0  0  0  0  0
   -6.0712    5.3065  -16.5169 C   0  0  0  0  0  0  0  0  0  0  0  0
   -7.1429    5.0978  -17.4020 C   0  0  0  0  0  0  0  0  0  0  0  0
   -8.3450    4.5948  -16.9370 C   0  0  0  0  0  0  0  0  0  0  0  0
   -9.7968    4.4034  -18.1185 Br  0  0  0  0  0  0  0  0  0  0  0  0
   -8.4935    4.2618  -15.5981 C   0  0  0  0  0  0  0  0  0  0  0  0
   -7.4307    4.3898  -14.6817 C   0  0  0  0  0  0  0  0  0  0  0  0
   -6.2247    4.9162  -15.1691 C   0  0  0  0  0  0  0  0  0  0  0  0
   -4.8001    5.9118  -17.1146 C   0  0  0  0  0  0  0  0  0  0  0  0
   -3.2381    4.7091  -18.5095 C   0  0  0  0  0  0  0  0  0  0  0  0
   -3.7416    4.8858  -17.1478 N   0  0  0  0  0  0  0  0  0  0  0  0
   -2.9743    5.1762  -16.5417 H   0  0  0  0  0  0  0  0  0  0  0  0
   -4.2401    7.1244  -16.4483 N   0  0  0  0  0  0  0  0  0  0  0  0
   -3.3749    6.6968  -15.3637 O   0  0  0  0  0  0  0  0  0  0  0  0
   -2.6979    6.0938  -15.7086 H   0  0  0  0  0  0  0  0  0  0  0  0
   -5.2548    8.0179  -15.9773 N   0  0  0  0  0  0  0  0  0  0  0  0
   -5.7727    7.5811  -15.2148 H   0  0  0  0  0  0  0  0  0  0  0  0
   -4.6013    9.2420  -15.4970 C   0  0  0  0  0  0  0  0  0  0  0  0
   -5.2086   10.4590  -16.2270 C   0  0  0  0  0  0  0  0  0  0  0  0
   -5.3095   11.1521  -14.9164 N   0  0  0  0  0  0  0  0  0  0  0  0
   -5.3200    9.8172  -14.2573 C   0  0  0  0  0  0  0  0  0  0  0  0
   -6.1654   11.6922  -14.7894 H   0  0  0  0  0  0  0  0  0  0  0  0
   -6.6353    2.5523  -13.0846 C   0  0  0  0  0  0  0  0  0  0  0  0
   -6.9747    1.4823  -13.4150 O   0  0  0  0  0  0  0  0  0  0  0  0
   -5.2629    3.0538  -12.5485 N   0  0  0  0  0  0  0  0  0  0  0  0
   -5.2507    3.9962  -12.2641 H   0  0  0  0  0  0  0  0  0  0  0  0
   -4.0060    2.3618  -12.4006 C   0  0  0  0  0  0  0  0  0  0  0  0
   -3.5042    1.8142  -13.7293 C   0  0  0  0  0  0  0  0  0  0  0  0
   -2.1775    1.5354  -13.6632 F   0  0  0  0  0  0  0  0  0  0  0  0
   -3.6397    2.7631  -14.7001 F   0  0  0  0  0  0  0  0  0  0  0  0
   -7.1604    4.9075  -12.2563 N   0  0  0  0  0  0  0  0  0  0  0  0
   -6.6136    5.6801  -12.5271 H   0  0  0  0  0  0  0  0  0  0  0  0
   -7.5832    4.7297  -10.9027 C   0  0  0  0  0  0  0  0  0  0  0  0
   -7.3288    5.7812   -9.9946 C   0  0  0  0  0  0  0  0  0  0  0  0
   -7.6887    5.6930   -8.6402 C   0  0  0  0  0  0  0  0  0  0  0  0
   -8.3116    4.5411   -8.1977 C   0  0  0  0  0  0  0  0  0  0  0  0
   -8.5438    3.4875   -9.0666 C   0  0  0  0  0  0  0  0  0  0  0  0
   -8.1682    3.5542  -10.3979 C   0  0  0  0  0  0  0  0  0  0  0  0
   -9.2119    2.3699   -8.3354 C   0  0  0  0  0  0  0  0  0  0  0  0
   -9.6705    2.9696   -7.0530 N   0  0  0  0  0  0  0  0  0  0  0  0
   -8.8178    4.1645   -6.8452 C   0  0  0  0  0  0  0  0  0  0  0  0
   -9.5489    2.3076   -6.2866 H   0  0  0  0  0  0  0  0  0  0  0  0
 12 13  1  0  0  0
 11 13  1  0  0  0
 11  4  1  0  0  0
  4  5  2  0  0  0
  5  6  1  0  0  0
  6  7  1  0  0  0
  6  8  2  0  0  0
  8  9  1  0  0  0
  9  1  1  0  0  0
  1  2  1  0  0  0
  1 33  1  0  0  0
 33 35  1  0  0  0
 35 36  2  0  0  0
 36 37  1  0  0  0
 37 38  2  0  0  0
 38 39  1  0  0  0
 39 40  2  0  0  0
 39 41  1  0  0  0
 41 42  1  0  0  0
 42 43  1  0  0  0
  1 25  1  0  0  0
 25 26  2  0  0  0
 25 27  1  0  0  0
 27 29  1  0  0  0
 29 30  1  0  0  0
 30 31  1  0  0  0
 30 32  1  0  0  0
  9 10  2  0  0  0
 11 15  1  0  0  0
 15 16  1  0  0  0
 15 18  1  0  0  0
 18 20  1  0  0  0
 20 21  1  0  0  0
 21 22  1  0  0  0
 22 23  1  0  0  0
 10  4  1  0  0  0
 23 20  1  0  0  0
 40 35  1  0  0  0
 43 38  1  0  0  0
 13 14  1  0  0  0
  2  3  1  0  0  0
 33 34  1  0  0  0
 42 44  1  0  0  0
 27 28  1  0  0  0
 16 17  1  0  0  0
 18 19  1  0  0  0
 22 24  1  0  0  0
M  END
> <minimizedAffinity>
-7.40651

> <minimizedRMSD>
0.73787

$$$$
P21766


 31 33  0  0  0  0  0  0  0  0999 V2000
   -5.3946    5.4396  -18.8014 C   0  0  0  0  0  0  0  0  0  0  0  0
   -5.6715    6.8245  -19.0254 O   0  0  0  0  0  0  0  0  0  0  0  0
   -5.5635    5.1009  -17.2998 C   0  0  0  0  0  0  0  0  0  0  0  0
   -7.0008    4.7041  -17.2692 C   0  0  0  0  0  0  0  0  0  0  0  0
   -7.4529    4.5482  -18.5780 C   0  0  0  0  0  0  0  0  0  0  0  0
   -8.7770    4.2750  -18.8431 C   0  0  0  0  0  0  0  0  0  0  0  0
   -9.6474    4.1377  -17.7639 C   0  0  0  0  0  0  0  0  0  0  0  0
   -9.1745    4.2223  -16.4418 C   0  0  0  0  0  0  0  0  0  0  0  0
   -7.8434    4.5359  -16.1799 C   0  0  0  0  0  0  0  0  0  0  0  0
   -6.4243    4.7014  -19.5454 N   0  0  0  0  0  0  0  0  0  0  0  0
   -5.0182    7.3651  -18.5544 H   0  0  0  0  0  0  0  0  0  0  0  0
   -6.4060    4.3909  -20.4795 H   0  0  0  0  0  0  0  0  0  0  0  0
   -7.3906    4.9669  -14.8316 C   0  0  0  0  0  0  0  0  0  0  0  0
   -6.4395    5.6458  -14.8227 O   0  0  0  0  0  0  0  0  0  0  0  0
   -8.3125    4.5178  -13.6734 N   0  0  0  0  0  0  0  0  0  0  0  0
   -9.1030    4.0015  -13.9522 H   0  0  0  0  0  0  0  0  0  0  0  0
   -8.2057    4.7258  -12.2966 C   0  0  0  0  0  0  0  0  0  0  0  0
   -8.1508    6.0412  -11.8229 C   0  0  0  0  0  0  0  0  0  0  0  0
   -8.0747    6.3086  -10.4621 C   0  0  0  0  0  0  0  0  0  0  0  0
   -8.0371    5.2554   -9.5612 C   0  0  0  0  0  0  0  0  0  0  0  0
   -8.0791    3.9220  -10.0046 C   0  0  0  0  0  0  0  0  0  0  0  0
   -8.1710    3.6630  -11.3881 C   0  0  0  0  0  0  0  0  0  0  0  0
   -8.0419    2.8662   -8.9209 C   0  0  0  0  0  0  0  0  0  0  0  0
   -9.3366    2.5866   -8.1705 C   0  0  0  0  0  0  0  0  0  0  0  0
   -9.4857    1.1542   -7.8903 N   0  0  0  0  0  0  0  0  0  0  0  0
   -9.5120    0.6368   -8.7689 H   0  0  0  0  0  0  0  0  0  0  0  0
  -10.3529    0.9967   -7.3769 H   0  0  0  0  0  0  0  0  0  0  0  0
   -3.9563    5.1441  -19.3161 C   0  0  0  0  0  0  0  0  0  0  0  0
   -2.0123    3.6962  -19.3334 C   0  0  0  0  0  0  0  0  0  0  0  0
   -3.1204    4.2050  -18.5352 N   0  0  0  0  0  0  0  0  0  0  0  0
   -2.7473    4.6909  -17.7197 H   0  0  0  0  0  0  0  0  0  0  0  0
 29 30  1  0  0  0
 30 28  1  0  0  0
 28  1  1  0  0  0
  1  2  1  0  0  0
  1  3  1  0  0  0
  3  4  1  0  0  0
  4  5  2  0  0  0
  5  6  1  0  0  0
  6  7  2  0  0  0
  7  8  1  0  0  0
  8  9  2  0  0  0
  9 13  1  0  0  0
 13 14  2  0  0  0
 13 15  1  0  0  0
 15 17  1  0  0  0
 17 18  2  0  0  0
 18 19  1  0  0  0
 19 20  2  0  0  0
 20 21  1  0  0  0
 21 23  1  0  0  0
 23 24  1  0  0  0
 24 25  1  0  0  0
 21 22  2  0  0  0
  5 10  1  0  0  0
 10  1  1  0  0  0
  9  4  1  0  0  0
 22 17  1  0  0  0
 30 31  1  0  0  0
  2 11  1  0  0  0
 15 16  1  0  0  0
 25 26  1  0  0  0
 25 27  1  0  0  0
 10 12  1  0  0  0
M  END
> <minimizedAffinity>
-7.81614

> <minimizedRMSD>
1.03063

$$$$
P21768


 36 39  0  0  0  0  0  0  0  0999 V2000
   -6.5086    4.7925  -13.5252 C   0  0  0  0  0  0  0  0  0  0  0  0
   -7.3178    3.5825  -13.6799 N   0  0  0  0  0  0  0  0  0  0  0  0
   -7.0842    2.9203  -12.9401 H   0  0  0  0  0  0  0  0  0  0  0  0
   -7.1265    3.1593  -14.5880 H   0  0  0  0  0  0  0  0  0  0  0  0
   -8.7910    2.0446   -7.6676 N   0  0  0  0  0  0  0  0  0  0  0  0
   -7.9325    2.2269   -8.8151 C   0  0  0  0  0  0  0  0  0  0  0  0
   -6.9703    3.4289   -8.6636 C   0  0  0  0  0  0  0  0  0  0  0  0
   -7.3491    4.4108   -9.7716 C   0  0  0  0  0  0  0  0  0  0  0  0
   -7.2651    5.9038   -9.3680 C   0  0  0  0  0  0  0  0  0  0  0  0
   -6.1292    6.6634  -10.0605 C   0  0  0  0  0  0  0  0  0  0  0  0
   -6.2168    6.6007  -11.5939 C   0  0  0  0  0  0  0  0  0  0  0  0
   -6.8275    5.2807  -12.0898 C   0  0  0  0  0  0  0  0  0  0  0  0
   -6.5463    4.1616  -11.0530 C   0  0  0  0  0  0  0  0  0  0  0  0
   -8.7847    3.9642   -9.9892 C   0  0  0  0  0  0  0  0  0  0  0  0
   -8.8411    2.5170   -9.8858 N   0  0  0  0  0  0  0  0  0  0  0  0
   -8.2224    1.8314   -6.8481 H   0  0  0  0  0  0  0  0  0  0  0  0
   -9.4354    1.2739   -7.8441 H   0  0  0  0  0  0  0  0  0  0  0  0
   -8.5357    2.0766  -10.7537 H   0  0  0  0  0  0  0  0  0  0  0  0
   -6.9139    5.7414  -14.6712 C   0  0  0  0  0  0  0  0  0  0  0  0
   -6.6879    6.9488  -14.6272 O   0  0  0  0  0  0  0  0  0  0  0  0
   -7.4502    5.1891  -15.9492 C   0  0  0  0  0  0  0  0  0  0  0  0
   -8.7830    4.7595  -16.0416 C   0  0  0  0  0  0  0  0  0  0  0  0
   -9.3143    4.3040  -17.2632 C   0  0  0  0  0  0  0  0  0  0  0  0
   -8.5253    4.2809  -18.4133 C   0  0  0  0  0  0  0  0  0  0  0  0
   -7.2183    4.7059  -18.2972 C   0  0  0  0  0  0  0  0  0  0  0  0
   -6.6715    5.1531  -17.0944 C   0  0  0  0  0  0  0  0  0  0  0  0
   -5.2414    5.5354  -17.3233 C   0  0  0  0  0  0  0  0  0  0  0  0
   -5.0496    5.2257  -18.8127 C   0  0  0  0  0  0  0  0  0  0  0  0
   -4.0139    5.3462  -19.4502 O   0  0  0  0  0  0  0  0  0  0  0  0
   -6.2640    4.7719  -19.3020 N   0  0  0  0  0  0  0  0  0  0  0  0
   -6.4284    4.5279  -20.2415 H   0  0  0  0  0  0  0  0  0  0  0  0
   -5.0289    4.4172  -13.7718 C   0  0  0  0  0  0  0  0  0  0  0  0
   -4.0102    5.4155  -13.2989 C   0  0  0  0  0  0  0  0  0  0  0  0
   -3.3200    5.3265  -12.2973 O   0  0  0  0  0  0  0  0  0  0  0  0
   -3.8693    6.4618  -14.1335 O   0  0  0  0  0  0  0  0  0  0  0  0
   -4.4029    6.5240  -14.9012 H   0  0  0  0  0  0  0  0  0  0  0  0
  6  5  1  0  0  0
  6  7  1  0  0  0
  8  7  1  0  0  0
  8  9  1  0  0  0
  9 10  1  0  0  0
 10 11  1  0  0  0
 12 11  1  0  0  0
 12  1  1  0  0  0
  1  2  1  0  0  0
  1 32  1  0  0  0
 32 33  1  0  0  0
 33 34  2  0  0  0
 33 35  1  0  0  0
  1 19  1  0  0  0
 19 20  2  0  0  0
 19 21  1  0  0  0
 21 22  2  0  0  0
 22 23  1  0  0  0
 23 24  2  0  0  0
 24 25  1  0  0  0
 25 26  2  0  0  0
 26 27  1  0  0  0
 27 28  1  0  0  0
 28 29  2  0  0  0
 28 30  1  0  0  0
 12 13  1  0  0  0
  8 14  1  0  0  0
 14 15  1  0  0  0
 15  6  1  0  0  0
 13  8  1  0  0  0
 26 21  1  0  0  0
 30 25  1  0  0  0
  5 16  1  0  0  0
  5 17  1  0  0  0
  2  3  1  0  0  0
  2  4  1  0  0  0
 35 36  1  0  0  0
 30 31  1  0  0  0
 15 18  1  0  0  0
M  END
> <minimizedAffinity>
-6.40151

> <minimizedRMSD>
0.47773

$$$$
P21772


 32 34  0  0  0  0  0  0  0  0999 V2000
   -4.7314    5.6944  -18.7148 C   0  0  0  0  0  0  0  0  0  0  0  0
   -4.4799    7.0841  -18.9393 O   0  0  0  0  0  0  0  0  0  0  0  0
   -5.0394    5.4765  -17.2005 C   0  0  0  0  0  0  0  0  0  0  0  0
   -6.4232    4.9025  -17.2236 C   0  0  0  0  0  0  0  0  0  0  0  0
   -6.8178    4.7808  -18.5529 C   0  0  0  0  0  0  0  0  0  0  0  0
   -8.0656    4.3164  -18.8742 C   0  0  0  0  0  0  0  0  0  0  0  0
   -8.9300    3.9979  -17.8375 C   0  0  0  0  0  0  0  0  0  0  0  0
  -10.5200    3.5998  -18.2912 Cl  0  0  0  0  0  0  0  0  0  0  0  0
   -8.5560    4.1006  -16.4857 C   0  0  0  0  0  0  0  0  0  0  0  0
   -7.2742    4.5647  -16.1642 C   0  0  0  0  0  0  0  0  0  0  0  0
   -5.9240    5.3450  -19.4648 N   0  0  0  0  0  0  0  0  0  0  0  0
   -3.6862    7.3522  -18.4505 H   0  0  0  0  0  0  0  0  0  0  0  0
   -6.0734    5.4797  -20.4285 H   0  0  0  0  0  0  0  0  0  0  0  0
   -6.9064    4.9751  -14.7700 C   0  0  0  0  0  0  0  0  0  0  0  0
   -5.9076    5.5756  -14.6726 O   0  0  0  0  0  0  0  0  0  0  0  0
   -7.9641    4.6055  -13.6993 N   0  0  0  0  0  0  0  0  0  0  0  0
   -8.6886    4.0211  -14.0201 H   0  0  0  0  0  0  0  0  0  0  0  0
   -8.0567    4.9670  -12.3521 C   0  0  0  0  0  0  0  0  0  0  0  0
   -8.0663    6.3282  -12.0285 C   0  0  0  0  0  0  0  0  0  0  0  0
   -8.1435    6.7502  -10.7065 C   0  0  0  0  0  0  0  0  0  0  0  0
   -8.1848    5.8076   -9.6903 C   0  0  0  0  0  0  0  0  0  0  0  0
   -8.1703    4.4318   -9.9801 C   0  0  0  0  0  0  0  0  0  0  0  0
   -8.1286    4.0154  -11.3284 C   0  0  0  0  0  0  0  0  0  0  0  0
   -8.1599    3.5064   -8.7812 C   0  0  0  0  0  0  0  0  0  0  0  0
   -9.3834    2.6275   -8.5639 C   0  0  0  0  0  0  0  0  0  0  0  0
   -9.0078    1.3711   -7.9103 N   0  0  0  0  0  0  0  0  0  0  0  0
   -8.3478    0.8648   -8.5006 H   0  0  0  0  0  0  0  0  0  0  0  0
   -9.8410    0.8010   -7.7653 H   0  0  0  0  0  0  0  0  0  0  0  0
   -3.5029    4.8607  -19.1973 C   0  0  0  0  0  0  0  0  0  0  0  0
   -2.0809    5.1364  -21.1717 C   0  0  0  0  0  0  0  0  0  0  0  0
   -3.3396    4.6238  -20.6496 N   0  0  0  0  0  0  0  0  0  0  0  0
   -3.3777    3.6191  -20.8214 H   0  0  0  0  0  0  0  0  0  0  0  0
 30 31  1  0  0  0
 31 29  1  0  0  0
 29  1  1  0  0  0
  1  2  1  0  0  0
  1  3  1  0  0  0
  3  4  1  0  0  0
  4  5  2  0  0  0
  5  6  1  0  0  0
  6  7  2  0  0  0
  7  8  1  0  0  0
  7  9  1  0  0  0
  9 10  2  0  0  0
 10 14  1  0  0  0
 14 15  2  0  0  0
 14 16  1  0  0  0
 16 18  1  0  0  0
 18 19  2  0  0  0
 19 20  1  0  0  0
 20 21  2  0  0  0
 21 22  1  0  0  0
 22 24  1  0  0  0
 24 25  1  0  0  0
 25 26  1  0  0  0
 22 23  2  0  0  0
  5 11  1  0  0  0
 11  1  1  0  0  0
 10  4  1  0  0  0
 23 18  1  0  0  0
 31 32  1  0  0  0
  2 12  1  0  0  0
 16 17  1  0  0  0
 26 27  1  0  0  0
 26 28  1  0  0  0
 11 13  1  0  0  0
M  END
> <minimizedAffinity>
-7.91477

> <minimizedRMSD>
0.59471

$$$$
P21773


 31 34  0  0  0  0  0  0  0  0999 V2000
   -4.6633    5.6851  -17.6613 C   0  0  0  0  0  0  0  0  0  0  0  0
   -4.3633    5.3574  -19.1431 C   0  0  0  0  0  0  0  0  0  0  0  0
   -3.3132    5.5305  -19.7410 O   0  0  0  0  0  0  0  0  0  0  0  0
   -5.5194    4.8365  -19.7030 N   0  0  0  0  0  0  0  0  0  0  0  0
   -6.5098    4.6878  -18.7515 C   0  0  0  0  0  0  0  0  0  0  0  0
   -7.7898    4.2444  -18.9558 C   0  0  0  0  0  0  0  0  0  0  0  0
   -8.6312    4.2740  -17.8503 C   0  0  0  0  0  0  0  0  0  0  0  0
  -10.4690    4.1516  -18.1315 Br  0  0  0  0  0  0  0  0  0  0  0  0
   -8.1914    4.6316  -16.5700 C   0  0  0  0  0  0  0  0  0  0  0  0
   -6.8911    5.0957  -16.4069 C   0  0  0  0  0  0  0  0  0  0  0  0
   -6.0551    5.1286  -17.5115 C   0  0  0  0  0  0  0  0  0  0  0  0
   -5.6213    4.6032  -20.6540 H   0  0  0  0  0  0  0  0  0  0  0  0
   -6.5009    5.7495  -15.1414 C   0  0  0  0  0  0  0  0  0  0  0  0
   -5.9461    6.7699  -15.2029 O   0  0  0  0  0  0  0  0  0  0  0  0
   -6.9059    4.9098  -13.9239 N   0  0  0  0  0  0  0  0  0  0  0  0
   -7.4411    4.1107  -14.1341 H   0  0  0  0  0  0  0  0  0  0  0  0
   -6.6311    5.0995  -12.5244 C   0  0  0  0  0  0  0  0  0  0  0  0
   -6.5943    6.5901  -12.1613 C   0  0  0  0  0  0  0  0  0  0  0  0
   -6.6207    6.8347  -10.6535 C   0  0  0  0  0  0  0  0  0  0  0  0
   -6.1315    5.6140   -9.8889 C   0  0  0  0  0  0  0  0  0  0  0  0
   -7.0605    4.4061  -10.1390 C   0  0  0  0  0  0  0  0  0  0  0  0
   -8.1786    4.3974   -9.1031 C   0  0  0  0  0  0  0  0  0  0  0  0
   -8.6715    2.9774   -9.0989 C   0  0  0  0  0  0  0  0  0  0  0  0
   -7.4878    2.1668   -9.4163 N   0  0  0  0  0  0  0  0  0  0  0  0
   -6.3935    3.0748   -9.8133 C   0  0  0  0  0  0  0  0  0  0  0  0
   -7.5989    4.3642  -11.6008 C   0  0  0  0  0  0  0  0  0  0  0  0
   -7.7022    1.5297  -10.1835 H   0  0  0  0  0  0  0  0  0  0  0  0
   -3.6219    5.0659  -16.7236 C   0  0  0  0  0  0  0  0  0  0  0  0
   -2.6145    7.2607  -16.4775 C   0  0  0  0  0  0  0  0  0  0  0  0
   -2.9743    6.0193  -15.8123 N   0  0  0  0  0  0  0  0  0  0  0  0
   -3.6162    6.2307  -15.0483 H   0  0  0  0  0  0  0  0  0  0  0  0
 29 30  1  0  0  0
 30 28  1  0  0  0
  1 28  1  0  0  0
  1  2  1  0  0  0
  2  3  2  0  0  0
  2  4  1  0  0  0
  4  5  1  0  0  0
  5  6  2  0  0  0
  6  7  1  0  0  0
  7  8  1  0  0  0
  7  9  2  0  0  0
  9 10  1  0  0  0
 10 13  1  0  0  0
 13 14  2  0  0  0
 13 15  1  0  0  0
 17 15  1  0  0  0
 17 18  1  0  0  0
 18 19  1  0  0  0
 19 20  1  0  0  0
 21 20  1  0  0  0
 21 22  1  0  0  0
 22 23  1  0  0  0
 23 24  1  0  0  0
 24 25  1  0  0  0
 21 26  1  0  0  0
 10 11  2  0  0  0
 11  1  1  0  0  0
 11  5  1  0  0  0
 26 17  1  0  0  0
 25 21  1  0  0  0
 30 31  1  0  0  0
  4 12  1  0  0  0
 15 16  1  0  0  0
 24 27  1  0  0  0
M  END
> <minimizedAffinity>
-7.11937

> <minimizedRMSD>
0.77159

$$$$
P21775


 41 44  0  0  0  0  0  0  0  0999 V2000
   -7.4084    3.7623  -13.1747 C   0  0  0  0  0  0  0  0  0  0  0  0
   -8.7995    3.3298  -13.3987 N   0  0  0  0  0  0  0  0  0  0  0  0
   -8.8997    2.9884  -14.3547 H   0  0  0  0  0  0  0  0  0  0  0  0
   -9.4288    4.1190  -13.2519 H   0  0  0  0  0  0  0  0  0  0  0  0
   -7.3293    4.2766  -11.6788 C   0  0  0  0  0  0  0  0  0  0  0  0
   -7.7580    5.7325  -11.4538 C   0  0  0  0  0  0  0  0  0  0  0  0
   -7.5632    6.1115   -9.9834 C   0  0  0  0  0  0  0  0  0  0  0  0
   -8.3991    5.2368   -9.0572 C   0  0  0  0  0  0  0  0  0  0  0  0
   -8.1667    3.7317   -9.2433 C   0  0  0  0  0  0  0  0  0  0  0  0
   -9.2496    2.9093   -8.5261 C   0  0  0  0  0  0  0  0  0  0  0  0
   -8.6891    1.5817   -8.3497 N   0  0  0  0  0  0  0  0  0  0  0  0
   -7.3068    1.8182   -8.0389 C   0  0  0  0  0  0  0  0  0  0  0  0
   -6.6344    0.7943   -8.7846 N   0  0  0  0  0  0  0  0  0  0  0  0
   -6.9156    3.2190   -8.5289 C   0  0  0  0  0  0  0  0  0  0  0  0
   -8.1633    3.3625  -10.7362 C   0  0  0  0  0  0  0  0  0  0  0  0
   -8.7784    1.0351   -9.2062 H   0  0  0  0  0  0  0  0  0  0  0  0
   -6.8900    0.8674   -9.7694 H   0  0  0  0  0  0  0  0  0  0  0  0
   -6.9092   -0.1213   -8.4291 H   0  0  0  0  0  0  0  0  0  0  0  0
   -5.0129    3.0238  -12.8706 N   0  0  0  0  0  0  0  0  0  0  0  0
   -6.4209    2.5308  -13.3198 C   0  0  0  0  0  0  0  0  0  0  0  0
   -6.7851    1.4648  -13.6368 O   0  0  0  0  0  0  0  0  0  0  0  0
   -4.9787    3.9635  -12.5792 H   0  0  0  0  0  0  0  0  0  0  0  0
   -2.6123    3.2668  -13.1814 C   0  0  0  0  0  0  0  0  0  0  0  0
   -3.7517    2.3269  -12.8124 C   0  0  0  0  0  0  0  0  0  0  0  0
   -3.5376    1.7665  -11.4097 C   0  0  0  0  0  0  0  0  0  0  0  0
   -7.0285    4.7999  -14.2762 C   0  0  0  0  0  0  0  0  0  0  0  0
   -6.2603    5.7300  -14.0199 O   0  0  0  0  0  0  0  0  0  0  0  0
   -7.4269    4.6257  -15.7242 C   0  0  0  0  0  0  0  0  0  0  0  0
   -8.7632    4.5164  -16.1600 C   0  0  0  0  0  0  0  0  0  0  0  0
   -9.0946    4.3759  -17.5204 C   0  0  0  0  0  0  0  0  0  0  0  0
  -10.7272    4.3082  -18.0306 Cl  0  0  0  0  0  0  0  0  0  0  0  0
   -8.1177    4.3800  -18.4934 C   0  0  0  0  0  0  0  0  0  0  0  0
   -6.8247    4.5533  -18.0696 C   0  0  0  0  0  0  0  0  0  0  0  0
   -6.4590    4.6730  -16.7236 C   0  0  0  0  0  0  0  0  0  0  0  0
   -4.9655    4.8651  -16.6503 C   0  0  0  0  0  0  0  0  0  0  0  0
   -4.5910    6.0632  -16.1174 F   0  0  0  0  0  0  0  0  0  0  0  0
   -4.3331    3.8952  -15.9299 F   0  0  0  0  0  0  0  0  0  0  0  0
   -4.5614    4.8206  -18.1617 C   0  0  0  0  0  0  0  0  0  0  0  0
   -3.4493    4.9373  -18.6547 O   0  0  0  0  0  0  0  0  0  0  0  0
   -5.7252    4.6553  -18.8991 N   0  0  0  0  0  0  0  0  0  0  0  0
   -5.7622    4.6161  -19.8821 H   0  0  0  0  0  0  0  0  0  0  0  0
 23 24  1  0  0  0
 24 25  1  0  0  0
 24 19  1  0  0  0
 19 20  1  0  0  0
 20 21  2  0  0  0
 20  1  1  0  0  0
  1  2  1  0  0  0
  1 26  1  0  0  0
 26 27  2  0  0  0
 26 28  1  0  0  0
 28 29  2  0  0  0
 29 30  1  0  0  0
 30 31  1  0  0  0
 30 32  2  0  0  0
 32 33  1  0  0  0
 33 34  2  0  0  0
 34 35  1  0  0  0
 35 36  1  0  0  0
 35 37  1  0  0  0
 35 38  1  0  0  0
 38 39  2  0  0  0
 38 40  1  0  0  0
  1  5  1  0  0  0
  5  6  1  0  0  0
  6  7  1  0  0  0
  7  8  1  0  0  0
  9  8  1  0  0  0
  9 10  1  0  0  0
 10 11  1  0  0  0
 11 12  1  0  0  0
 12 13  1  0  0  0
 12 14  1  0  0  0
  9 15  1  0  0  0
 34 28  1  0  0  0
 15  5  1  0  0  0
 40 33  1  0  0  0
 14  9  1  0  0  0
 19 22  1  0  0  0
  2  3  1  0  0  0
  2  4  1  0  0  0
 40 41  1  0  0  0
 11 16  1  0  0  0
 13 17  1  0  0  0
 13 18  1  0  0  0
M  END
> <minimizedAffinity>
-9.11746

> <minimizedRMSD>
0.63655

$$$$
P21866


 33 36  0  0  0  0  0  0  0  0999 V2000
   -7.5549    3.9028  -13.6039 C   0  0  0  0  0  0  0  0  0  0  0  0
   -7.4638    4.3888  -15.0678 C   0  0  0  0  0  0  0  0  0  0  0  0
   -8.6523    4.2881  -15.8212 C   0  0  0  0  0  0  0  0  0  0  0  0
   -8.6724    4.4843  -17.1959 C   0  0  0  0  0  0  0  0  0  0  0  0
  -10.2867    4.3213  -18.1502 Br  0  0  0  0  0  0  0  0  0  0  0  0
   -7.5114    4.8055  -17.8705 C   0  0  0  0  0  0  0  0  0  0  0  0
   -6.3279    5.0082  -17.1603 C   0  0  0  0  0  0  0  0  0  0  0  0
   -5.1748    5.3714  -17.8674 C   0  0  0  0  0  0  0  0  0  0  0  0
   -5.2021    5.4477  -19.2078 F   0  0  0  0  0  0  0  0  0  0  0  0
   -3.9821    5.6525  -17.2199 C   0  0  0  0  0  0  0  0  0  0  0  0
   -3.9315    5.5675  -15.8373 C   0  0  0  0  0  0  0  0  0  0  0  0
   -5.0653    5.1707  -15.1153 C   0  0  0  0  0  0  0  0  0  0  0  0
   -6.2895    4.8486  -15.7420 C   0  0  0  0  0  0  0  0  0  0  0  0
   -6.8157    1.6088  -13.4793 O   0  0  0  0  0  0  0  0  0  0  0  0
   -6.5436    2.7249  -13.2777 C   0  0  0  0  0  0  0  0  0  0  0  0
   -5.2318    3.3578  -12.7619 N   0  0  0  0  0  0  0  0  0  0  0  0
   -5.2774    4.3281  -12.6016 H   0  0  0  0  0  0  0  0  0  0  0  0
   -3.9487    2.7569  -12.4765 C   0  0  0  0  0  0  0  0  0  0  0  0
   -3.5080    1.8186  -13.5989 C   0  0  0  0  0  0  0  0  0  0  0  0
   -3.3853    2.5286  -14.7568 F   0  0  0  0  0  0  0  0  0  0  0  0
   -2.2735    1.3120  -13.3498 F   0  0  0  0  0  0  0  0  0  0  0  0
   -7.4633    5.0294  -12.6555 N   0  0  0  0  0  0  0  0  0  0  0  0
   -7.0921    5.8942  -12.9445 H   0  0  0  0  0  0  0  0  0  0  0  0
   -7.9138    4.8536  -11.3284 C   0  0  0  0  0  0  0  0  0  0  0  0
   -7.5913    5.8745  -10.4074 C   0  0  0  0  0  0  0  0  0  0  0  0
   -7.8257    5.7348   -9.0342 C   0  0  0  0  0  0  0  0  0  0  0  0
   -8.3913    4.5584   -8.5848 C   0  0  0  0  0  0  0  0  0  0  0  0
   -8.7284    3.5458   -9.4715 C   0  0  0  0  0  0  0  0  0  0  0  0
   -8.4965    3.6739  -10.8329 C   0  0  0  0  0  0  0  0  0  0  0  0
   -9.2723    2.3814   -8.7067 C   0  0  0  0  0  0  0  0  0  0  0  0
   -9.5650    2.9175   -7.3504 N   0  0  0  0  0  0  0  0  0  0  0  0
   -8.7051    4.1104   -7.1969 C   0  0  0  0  0  0  0  0  0  0  0  0
   -9.3405    2.2233   -6.6376 H   0  0  0  0  0  0  0  0  0  0  0  0
 14 15  2  0  0  0
 15 16  1  0  0  0
 16 18  1  0  0  0
 18 19  1  0  0  0
 19 20  1  0  0  0
 19 21  1  0  0  0
 15  1  1  0  0  0
  1 22  1  0  0  0
 22 24  1  0  0  0
 24 25  2  0  0  0
 25 26  1  0  0  0
 26 27  2  0  0  0
 27 28  1  0  0  0
 28 29  2  0  0  0
 28 30  1  0  0  0
 30 31  1  0  0  0
 31 32  1  0  0  0
  1  2  1  0  0  0
  2  3  2  0  0  0
  3  4  1  0  0  0
  4  5  1  0  0  0
  4  6  2  0  0  0
  6  7  1  0  0  0
  7  8  2  0  0  0
  8  9  1  0  0  0
  8 10  1  0  0  0
 10 11  2  0  0  0
 11 12  1  0  0  0
 12 13  2  0  0  0
 29 24  1  0  0  0
 13  2  1  0  0  0
 32 27  1  0  0  0
 13  7  1  0  0  0
 16 17  1  0  0  0
 22 23  1  0  0  0
 31 33  1  0  0  0
M  END
> <minimizedAffinity>
-8.77978

> <minimizedRMSD>
0.36784

$$$$
P21867


 36 39  0  0  0  0  0  0  0  0999 V2000
   -7.2100    4.4598  -13.6053 C   0  0  0  0  0  0  0  0  0  0  0  0
   -6.5767    5.6025  -13.0532 O   0  0  0  0  0  0  0  0  0  0  0  0
   -7.0972    6.3937  -13.2630 H   0  0  0  0  0  0  0  0  0  0  0  0
   -4.9959    5.2227  -18.1264 C   0  0  0  0  0  0  0  0  0  0  0  0
   -3.7767    5.5390  -17.5198 C   0  0  0  0  0  0  0  0  0  0  0  0
   -3.6863    5.5766  -16.1470 C   0  0  0  0  0  0  0  0  0  0  0  0
   -4.8113    5.2800  -15.3817 C   0  0  0  0  0  0  0  0  0  0  0  0
   -6.0873    4.9871  -15.9317 C   0  0  0  0  0  0  0  0  0  0  0  0
   -7.2600    4.6691  -15.1466 C   0  0  0  0  0  0  0  0  0  0  0  0
   -8.4757    4.4296  -15.8227 C   0  0  0  0  0  0  0  0  0  0  0  0
   -8.5490    4.4901  -17.2096 C   0  0  0  0  0  0  0  0  0  0  0  0
  -10.1926    4.2240  -18.1017 Br  0  0  0  0  0  0  0  0  0  0  0  0
   -7.4152    4.7553  -17.9669 C   0  0  0  0  0  0  0  0  0  0  0  0
   -6.1699    4.9960  -17.3572 C   0  0  0  0  0  0  0  0  0  0  0  0
   -4.7841    4.9796  -20.6989 N   0  0  0  0  0  0  0  0  0  0  0  0
   -4.9442    5.0577  -19.5505 C   0  0  0  0  0  0  0  0  0  0  0  0
   -6.4385    3.0440  -13.3286 C   0  0  0  0  0  0  0  0  0  0  0  0
   -6.8879    1.9960  -13.5895 O   0  0  0  0  0  0  0  0  0  0  0  0
   -5.0505    3.4265  -12.7307 N   0  0  0  0  0  0  0  0  0  0  0  0
   -4.9375    4.3836  -12.5299 H   0  0  0  0  0  0  0  0  0  0  0  0
   -3.9025    2.6036  -12.4234 C   0  0  0  0  0  0  0  0  0  0  0  0
   -3.4662    1.7976  -13.6402 C   0  0  0  0  0  0  0  0  0  0  0  0
   -3.4129    2.6260  -14.7238 F   0  0  0  0  0  0  0  0  0  0  0  0
   -2.2053    1.3252  -13.4799 F   0  0  0  0  0  0  0  0  0  0  0  0
   -8.5558    4.4812  -12.9944 N   0  0  0  0  0  0  0  0  0  0  0  0
   -9.3762    4.5247  -13.5369 H   0  0  0  0  0  0  0  0  0  0  0  0
   -8.5904    4.4353  -11.5790 C   0  0  0  0  0  0  0  0  0  0  0  0
   -8.3315    5.6087  -10.8284 C   0  0  0  0  0  0  0  0  0  0  0  0
   -8.2353    5.5815   -9.4352 C   0  0  0  0  0  0  0  0  0  0  0  0
   -8.4550    4.3775   -8.7974 C   0  0  0  0  0  0  0  0  0  0  0  0
   -8.7231    3.2168   -9.5184 C   0  0  0  0  0  0  0  0  0  0  0  0
   -8.7701    3.2224  -10.9040 C   0  0  0  0  0  0  0  0  0  0  0  0
   -8.9359    2.0899   -8.5582 C   0  0  0  0  0  0  0  0  0  0  0  0
   -9.1672    2.7526   -7.2449 N   0  0  0  0  0  0  0  0  0  0  0  0
   -8.4938    4.0632   -7.3393 C   0  0  0  0  0  0  0  0  0  0  0  0
   -8.7635    2.1982   -6.4899 H   0  0  0  0  0  0  0  0  0  0  0  0
 15 16  3  0  0  0
 16  4  1  0  0  0
  4  5  2  0  0  0
  5  6  1  0  0  0
  6  7  2  0  0  0
  7  8  1  0  0  0
  8  9  2  0  0  0
  9  1  1  0  0  0
  1  2  1  0  0  0
  1 25  1  0  0  0
 25 27  1  0  0  0
 27 28  2  0  0  0
 28 29  1  0  0  0
 29 30  2  0  0  0
 30 31  1  0  0  0
 31 32  2  0  0  0
 31 33  1  0  0  0
 33 34  1  0  0  0
 34 35  1  0  0  0
  1 17  1  0  0  0
 17 18  2  0  0  0
 17 19  1  0  0  0
 19 21  1  0  0  0
 21 22  1  0  0  0
 22 23  1  0  0  0
 22 24  1  0  0  0
  9 10  1  0  0  0
 10 11  2  0  0  0
 11 12  1  0  0  0
 11 13  1  0  0  0
 13 14  2  0  0  0
 14  4  1  0  0  0
 14  8  1  0  0  0
 32 27  1  0  0  0
 35 30  1  0  0  0
  2  3  1  0  0  0
 25 26  1  0  0  0
 34 36  1  0  0  0
 19 20  1  0  0  0
M  END
> <minimizedAffinity>
-9.52600

> <minimizedRMSD>
0.31408

$$$$
P21870


 36 39  0  0  0  0  0  0  0  0999 V2000
   -7.4930    3.8700  -13.5833 C   0  0  0  0  0  0  0  0  0  0  0  0
   -5.2565    5.8084  -17.7794 C   0  0  0  0  0  0  0  0  0  0  0  0
   -4.0797    6.0887  -17.0733 C   0  0  0  0  0  0  0  0  0  0  0  0
   -4.0168    5.8721  -15.7074 C   0  0  0  0  0  0  0  0  0  0  0  0
   -5.1169    5.3418  -15.0323 C   0  0  0  0  0  0  0  0  0  0  0  0
   -6.3162    4.9990  -15.6862 C   0  0  0  0  0  0  0  0  0  0  0  0
   -7.4428    4.4092  -15.0294 C   0  0  0  0  0  0  0  0  0  0  0  0
   -8.6300    4.2522  -15.7724 C   0  0  0  0  0  0  0  0  0  0  0  0
   -8.6874    4.5266  -17.1252 C   0  0  0  0  0  0  0  0  0  0  0  0
  -10.2797    4.2751  -18.0978 Br  0  0  0  0  0  0  0  0  0  0  0  0
   -7.5735    5.0120  -17.7775 C   0  0  0  0  0  0  0  0  0  0  0  0
   -6.3806    5.2771  -17.0896 C   0  0  0  0  0  0  0  0  0  0  0  0
   -5.2535    6.0474  -19.2778 C   0  0  0  0  0  0  0  0  0  0  0  0
   -4.6715    5.0205  -21.3749 C   0  0  0  0  0  0  0  0  0  0  0  0
   -5.0944    4.8004  -20.0039 N   0  0  0  0  0  0  0  0  0  0  0  0
   -4.3934    4.2305  -19.5304 H   0  0  0  0  0  0  0  0  0  0  0  0
   -6.4835    2.6827  -13.2951 C   0  0  0  0  0  0  0  0  0  0  0  0
   -6.7692    1.5693  -13.4892 O   0  0  0  0  0  0  0  0  0  0  0  0
   -5.1607    3.3034  -12.7983 N   0  0  0  0  0  0  0  0  0  0  0  0
   -5.1453    4.2877  -12.7886 H   0  0  0  0  0  0  0  0  0  0  0  0
   -3.9419    2.6753  -12.3453 C   0  0  0  0  0  0  0  0  0  0  0  0
   -3.0171    2.2297  -13.4796 C   0  0  0  0  0  0  0  0  0  0  0  0
   -2.5550    3.3064  -14.1709 F   0  0  0  0  0  0  0  0  0  0  0  0
   -3.6241    1.4257  -14.3790 F   0  0  0  0  0  0  0  0  0  0  0  0
   -7.3976    4.9737  -12.6032 N   0  0  0  0  0  0  0  0  0  0  0  0
   -6.9989    5.8347  -12.8660 H   0  0  0  0  0  0  0  0  0  0  0  0
   -7.8796    4.7881  -11.2914 C   0  0  0  0  0  0  0  0  0  0  0  0
   -7.5884    5.8057  -10.3562 C   0  0  0  0  0  0  0  0  0  0  0  0
   -7.8567    5.6570   -8.9904 C   0  0  0  0  0  0  0  0  0  0  0  0
   -8.4250    4.4740   -8.5626 C   0  0  0  0  0  0  0  0  0  0  0  0
   -8.7308    3.4639   -9.4638 C   0  0  0  0  0  0  0  0  0  0  0  0
   -8.4627    3.6004  -10.8177 C   0  0  0  0  0  0  0  0  0  0  0  0
   -9.2873    2.2918   -8.7206 C   0  0  0  0  0  0  0  0  0  0  0  0
   -9.6176    2.8172   -7.3683 N   0  0  0  0  0  0  0  0  0  0  0  0
   -8.7702    4.0151   -7.1862 C   0  0  0  0  0  0  0  0  0  0  0  0
   -9.4059    2.1201   -6.6545 H   0  0  0  0  0  0  0  0  0  0  0  0
 14 15  1  0  0  0
 15 13  1  0  0  0
 13  2  1  0  0  0
  2  3  2  0  0  0
  3  4  1  0  0  0
  4  5  2  0  0  0
  5  6  1  0  0  0
  6  7  2  0  0  0
  7  1  1  0  0  0
  1 25  1  0  0  0
 25 27  1  0  0  0
 27 28  2  0  0  0
 28 29  1  0  0  0
 29 30  2  0  0  0
 30 31  1  0  0  0
 31 32  2  0  0  0
 31 33  1  0  0  0
 33 34  1  0  0  0
 34 35  1  0  0  0
  1 17  1  0  0  0
 17 18  2  0  0  0
 17 19  1  0  0  0
 19 21  1  0  0  0
 21 22  1  0  0  0
 22 23  1  0  0  0
 22 24  1  0  0  0
  7  8  1  0  0  0
  8  9  2  0  0  0
  9 10  1  0  0  0
  9 11  1  0  0  0
 11 12  2  0  0  0
 12  2  1  0  0  0
 12  6  1  0  0  0
 32 27  1  0  0  0
 35 30  1  0  0  0
 15 16  1  0  0  0
 25 26  1  0  0  0
 34 36  1  0  0  0
 19 20  1  0  0  0
M  END
> <minimizedAffinity>
-8.35256

> <minimizedRMSD>
0.32139

$$$$
P21871


 36 40  0  0  0  0  0  0  0  0999 V2000
   -7.5535    3.8178  -13.2690 C   0  0  0  0  0  0  0  0  0  0  0  0
   -5.0304    6.6057  -19.5355 O   0  0  0  0  0  0  0  0  0  0  0  0
   -5.6637    6.0743  -18.6462 C   0  0  0  0  0  0  0  0  0  0  0  0
   -6.9384    5.5449  -18.6715 N   0  0  0  0  0  0  0  0  0  0  0  0
   -7.2925    5.1046  -17.4016 C   0  0  0  0  0  0  0  0  0  0  0  0
   -8.4575    4.5582  -16.9305 C   0  0  0  0  0  0  0  0  0  0  0  0
   -9.9452    4.2654  -18.0421 Br  0  0  0  0  0  0  0  0  0  0  0  0
   -8.5159    4.2278  -15.5711 C   0  0  0  0  0  0  0  0  0  0  0  0
   -7.4127    4.4069  -14.6818 C   0  0  0  0  0  0  0  0  0  0  0  0
   -6.2375    5.0571  -15.1832 C   0  0  0  0  0  0  0  0  0  0  0  0
   -5.0416    5.4758  -14.5406 C   0  0  0  0  0  0  0  0  0  0  0  0
   -3.9779    6.0902  -15.2505 C   0  0  0  0  0  0  0  0  0  0  0  0
   -4.0622    6.3222  -16.6254 C   0  0  0  0  0  0  0  0  0  0  0  0
   -5.2261    5.9357  -17.2474 C   0  0  0  0  0  0  0  0  0  0  0  0
   -6.2518    5.3457  -16.5491 C   0  0  0  0  0  0  0  0  0  0  0  0
   -7.5114    5.4877  -19.4700 H   0  0  0  0  0  0  0  0  0  0  0  0
   -6.5700    2.5963  -13.0419 C   0  0  0  0  0  0  0  0  0  0  0  0
   -6.8785    1.5030  -13.3070 O   0  0  0  0  0  0  0  0  0  0  0  0
   -5.2219    3.1626  -12.5425 N   0  0  0  0  0  0  0  0  0  0  0  0
   -5.2361    4.1202  -12.3144 H   0  0  0  0  0  0  0  0  0  0  0  0
   -3.9427    2.5147  -12.3556 C   0  0  0  0  0  0  0  0  0  0  0  0
   -3.4585    1.8445  -13.6407 C   0  0  0  0  0  0  0  0  0  0  0  0
   -3.4582    2.7553  -14.6553 F   0  0  0  0  0  0  0  0  0  0  0  0
   -2.1704    1.4347  -13.5185 F   0  0  0  0  0  0  0  0  0  0  0  0
   -7.4145    4.8798  -12.2587 N   0  0  0  0  0  0  0  0  0  0  0  0
   -6.9703    5.7273  -12.4905 H   0  0  0  0  0  0  0  0  0  0  0  0
   -7.9193    4.6786  -10.9598 C   0  0  0  0  0  0  0  0  0  0  0  0
   -7.6928    5.7122  -10.0257 C   0  0  0  0  0  0  0  0  0  0  0  0
   -7.9744    5.5527   -8.6655 C   0  0  0  0  0  0  0  0  0  0  0  0
   -8.4762    4.3386   -8.2414 C   0  0  0  0  0  0  0  0  0  0  0  0
   -8.7320    3.3193   -9.1447 C   0  0  0  0  0  0  0  0  0  0  0  0
   -8.4649    3.4706  -10.4969 C   0  0  0  0  0  0  0  0  0  0  0  0
   -9.2898    2.1380   -8.4238 C   0  0  0  0  0  0  0  0  0  0  0  0
   -9.1640    2.4495   -6.9747 N   0  0  0  0  0  0  0  0  0  0  0  0
   -8.8350    3.8865   -6.8691 C   0  0  0  0  0  0  0  0  0  0  0  0
   -8.4206    1.8884   -6.5590 H   0  0  0  0  0  0  0  0  0  0  0  0
  2  3  2  0  0  0
  3  4  1  0  0  0
  4  5  1  0  0  0
  5  6  2  0  0  0
  6  7  1  0  0  0
  6  8  1  0  0  0
  8  9  2  0  0  0
  9  1  1  0  0  0
  1 25  1  0  0  0
 25 27  1  0  0  0
 27 28  2  0  0  0
 28 29  1  0  0  0
 29 30  2  0  0  0
 30 31  1  0  0  0
 31 32  2  0  0  0
 31 33  1  0  0  0
 33 34  1  0  0  0
 34 35  1  0  0  0
  1 17  1  0  0  0
 17 18  2  0  0  0
 17 19  1  0  0  0
 19 21  1  0  0  0
 21 22  1  0  0  0
 22 23  1  0  0  0
 22 24  1  0  0  0
  9 10  1  0  0  0
 10 11  2  0  0  0
 11 12  1  0  0  0
 12 13  2  0  0  0
 13 14  1  0  0  0
 14 15  2  0  0  0
 14  3  1  0  0  0
 15  5  1  0  0  0
 32 27  1  0  0  0
 15 10  1  0  0  0
 35 30  1  0  0  0
  4 16  1  0  0  0
 25 26  1  0  0  0
 34 36  1  0  0  0
 19 20  1  0  0  0
M  END
> <minimizedAffinity>
-8.87589

> <minimizedRMSD>
0.35209

$$$$
P21873


 43 48  0  0  0  0  0  0  0  0999 V2000
   -7.1932    4.2663  -13.3467 C   0  0  0  0  0  0  0  0  0  0  0  0
   -6.4786    5.3390  -12.7488 O   0  0  0  0  0  0  0  0  0  0  0  0
   -6.9229    6.1768  -12.9525 H   0  0  0  0  0  0  0  0  0  0  0  0
   -3.8011    8.1149  -19.3103 C   0  0  0  0  0  0  0  0  0  0  0  0
   -2.9014    7.9335  -18.1759 N   0  0  0  0  0  0  0  0  0  0  0  0
   -1.5849    7.4347  -18.6024 C   0  0  0  0  0  0  0  0  0  0  0  0
   -1.2542    5.9979  -18.1800 C   0  0  0  0  0  0  0  0  0  0  0  0
   -2.4763    5.0948  -18.3049 C   0  0  0  0  0  0  0  0  0  0  0  0
   -3.6115    5.5701  -17.3664 C   0  0  0  0  0  0  0  0  0  0  0  0
   -3.4591    4.8318  -15.9812 C   0  0  0  0  0  0  0  0  0  0  0  0
   -4.6168    5.0713  -14.9744 C   0  0  0  0  0  0  0  0  0  0  0  0
   -5.9807    4.8224  -15.5763 C   0  0  0  0  0  0  0  0  0  0  0  0
   -7.1865    4.5361  -14.8723 C   0  0  0  0  0  0  0  0  0  0  0  0
   -8.3803    4.4131  -15.6306 C   0  0  0  0  0  0  0  0  0  0  0  0
   -8.4093    4.4950  -17.0337 C   0  0  0  0  0  0  0  0  0  0  0  0
  -10.0225    4.3381  -17.9939 Br  0  0  0  0  0  0  0  0  0  0  0  0
   -7.2004    4.7076  -17.6829 C   0  0  0  0  0  0  0  0  0  0  0  0
   -6.8507    4.7651  -19.0091 N   0  0  0  0  0  0  0  0  0  0  0  0
   -5.5078    5.0460  -19.1445 C   0  0  0  0  0  0  0  0  0  0  0  0
   -4.9824    5.2032  -17.8862 C   0  0  0  0  0  0  0  0  0  0  0  0
   -6.0352    4.9111  -16.9777 C   0  0  0  0  0  0  0  0  0  0  0  0
   -3.4970    7.1122  -17.1071 C   0  0  0  0  0  0  0  0  0  0  0  0
   -7.4725    4.6251  -19.7594 H   0  0  0  0  0  0  0  0  0  0  0  0
   -6.5446    2.8088  -13.0755 C   0  0  0  0  0  0  0  0  0  0  0  0
   -7.0252    1.8080  -13.4404 O   0  0  0  0  0  0  0  0  0  0  0  0
   -5.1970    3.0721  -12.3542 N   0  0  0  0  0  0  0  0  0  0  0  0
   -5.0515    4.0065  -12.0804 H   0  0  0  0  0  0  0  0  0  0  0  0
   -4.1226    2.1705  -12.0194 C   0  0  0  0  0  0  0  0  0  0  0  0
   -3.1622    1.9769  -13.1883 C   0  0  0  0  0  0  0  0  0  0  0  0
   -3.8112    1.5481  -14.3002 F   0  0  0  0  0  0  0  0  0  0  0  0
   -2.2234    1.0404  -12.9080 F   0  0  0  0  0  0  0  0  0  0  0  0
   -8.5615    4.3120  -12.7754 N   0  0  0  0  0  0  0  0  0  0  0  0
   -9.3743    4.3656  -13.3282 H   0  0  0  0  0  0  0  0  0  0  0  0
   -8.5886    4.2709  -11.3491 C   0  0  0  0  0  0  0  0  0  0  0  0
   -8.3369    5.4439  -10.6027 C   0  0  0  0  0  0  0  0  0  0  0  0
   -8.3019    5.4296   -9.2057 C   0  0  0  0  0  0  0  0  0  0  0  0
   -8.5576    4.2341   -8.5653 C   0  0  0  0  0  0  0  0  0  0  0  0
   -8.8018    3.0684   -9.2852 C   0  0  0  0  0  0  0  0  0  0  0  0
   -8.8046    3.0630  -10.6699 C   0  0  0  0  0  0  0  0  0  0  0  0
   -9.0331    1.9460   -8.3267 C   0  0  0  0  0  0  0  0  0  0  0  0
   -9.3253    2.6164   -7.0293 N   0  0  0  0  0  0  0  0  0  0  0  0
   -8.6529    3.9312   -7.1082 C   0  0  0  0  0  0  0  0  0  0  0  0
   -8.9518    2.0703   -6.2530 H   0  0  0  0  0  0  0  0  0  0  0  0
  4  5  1  0  0  0
  5  6  1  0  0  0
  6  7  1  0  0  0
  7  8  1  0  0  0
  9  8  1  0  0  0
  9 10  1  0  0  0
 10 11  1  0  0  0
 11 12  1  0  0  0
 12 13  2  0  0  0
 13  1  1  0  0  0
  1  2  1  0  0  0
  1 32  1  0  0  0
 32 34  1  0  0  0
 34 35  2  0  0  0
 35 36  1  0  0  0
 36 37  2  0  0  0
 37 38  1  0  0  0
 38 39  2  0  0  0
 38 40  1  0  0  0
 40 41  1  0  0  0
 41 42  1  0  0  0
  1 24  1  0  0  0
 24 25  2  0  0  0
 24 26  1  0  0  0
 26 28  1  0  0  0
 28 29  1  0  0  0
 29 30  1  0  0  0
 29 31  1  0  0  0
 13 14  1  0  0  0
 14 15  2  0  0  0
 15 16  1  0  0  0
 15 17  1  0  0  0
 17 18  1  0  0  0
 18 19  1  0  0  0
 19 20  2  0  0  0
 20 21  1  0  0  0
  9 22  1  0  0  0
 22  5  1  0  0  0
 20  9  1  0  0  0
 21 12  1  0  0  0
 39 34  1  0  0  0
 21 17  2  0  0  0
 42 37  1  0  0  0
  2  3  1  0  0  0
 32 33  1  0  0  0
 41 43  1  0  0  0
 26 27  1  0  0  0
 18 23  1  0  0  0
M  END
> <minimizedAffinity>
-10.57206

> <minimizedRMSD>
0.57256

$$$$
P21874


 40 44  0  0  0  0  0  0  0  0999 V2000
   -7.6657    4.2168  -13.3724 C   0  0  0  0  0  0  0  0  0  0  0  0
   -9.0476    4.1540  -13.1039 O   0  0  0  0  0  0  0  0  0  0  0  0
   -9.1863    3.8647  -12.1884 H   0  0  0  0  0  0  0  0  0  0  0  0
   -7.5397    4.6887  -14.8604 C   0  0  0  0  0  0  0  0  0  0  0  0
   -8.6236    4.3529  -15.7131 C   0  0  0  0  0  0  0  0  0  0  0  0
   -8.5931    4.5234  -17.0890 C   0  0  0  0  0  0  0  0  0  0  0  0
  -10.1210    4.1296  -18.1081 Br  0  0  0  0  0  0  0  0  0  0  0  0
   -7.4604    5.0117  -17.6950 C   0  0  0  0  0  0  0  0  0  0  0  0
   -6.3769    5.4183  -16.9049 C   0  0  0  0  0  0  0  0  0  0  0  0
   -6.4217    5.3086  -15.4845 C   0  0  0  0  0  0  0  0  0  0  0  0
   -5.2480    5.8424  -14.7072 C   0  0  0  0  0  0  0  0  0  0  0  0
   -4.4756    6.9383  -15.4469 C   0  0  0  0  0  0  0  0  0  0  0  0
   -4.0050    6.5080  -16.8528 C   0  0  0  0  0  0  0  0  0  0  0  0
   -3.3984    7.7271  -17.5952 C   0  0  0  0  0  0  0  0  0  0  0  0
   -2.1143    8.2513  -16.9448 C   0  0  0  0  0  0  0  0  0  0  0  0
   -1.2340    7.2096  -16.4203 N   0  0  0  0  0  0  0  0  0  0  0  0
   -1.4919    5.9185  -17.0507 C   0  0  0  0  0  0  0  0  0  0  0  0
   -2.9138    5.4032  -16.7704 C   0  0  0  0  0  0  0  0  0  0  0  0
   -5.2304    6.0393  -17.6657 C   0  0  0  0  0  0  0  0  0  0  0  0
   -1.3858    7.1233  -15.4154 H   0  0  0  0  0  0  0  0  0  0  0  0
   -7.2266    1.7686  -13.3800 O   0  0  0  0  0  0  0  0  0  0  0  0
   -6.7763    2.8326  -13.2059 C   0  0  0  0  0  0  0  0  0  0  0  0
   -5.3254    3.2664  -12.8614 N   0  0  0  0  0  0  0  0  0  0  0  0
   -5.1803    4.2399  -12.8397 H   0  0  0  0  0  0  0  0  0  0  0  0
   -4.1514    2.4715  -12.5668 C   0  0  0  0  0  0  0  0  0  0  0  0
   -3.5099    1.8997  -13.8263 C   0  0  0  0  0  0  0  0  0  0  0  0
   -3.4849    2.8568  -14.7964 F   0  0  0  0  0  0  0  0  0  0  0  0
   -2.2116    1.5736  -13.6061 F   0  0  0  0  0  0  0  0  0  0  0  0
   -7.2133    5.2021  -12.3836 N   0  0  0  0  0  0  0  0  0  0  0  0
   -6.6288    5.9520  -12.6391 H   0  0  0  0  0  0  0  0  0  0  0  0
   -7.6550    5.0303  -11.0338 C   0  0  0  0  0  0  0  0  0  0  0  0
   -7.3581    6.0682  -10.1270 C   0  0  0  0  0  0  0  0  0  0  0  0
   -7.6619    5.9660   -8.7619 C   0  0  0  0  0  0  0  0  0  0  0  0
   -8.2601    4.8077   -8.3028 C   0  0  0  0  0  0  0  0  0  0  0  0
   -8.5543    3.7700   -9.1710 C   0  0  0  0  0  0  0  0  0  0  0  0
   -8.2591    3.8629  -10.5213 C   0  0  0  0  0  0  0  0  0  0  0  0
   -9.1482    2.6301   -8.4077 C   0  0  0  0  0  0  0  0  0  0  0  0
   -9.4949    3.1984   -7.0785 N   0  0  0  0  0  0  0  0  0  0  0  0
   -8.6566    4.4072   -6.9222 C   0  0  0  0  0  0  0  0  0  0  0  0
   -9.2882    2.5256   -6.3403 H   0  0  0  0  0  0  0  0  0  0  0  0
 21 22  2  0  0  0
 22 23  1  0  0  0
 23 25  1  0  0  0
 25 26  1  0  0  0
 26 27  1  0  0  0
 26 28  1  0  0  0
 22  1  1  0  0  0
  1  2  1  0  0  0
  1 29  1  0  0  0
 29 31  1  0  0  0
 31 32  2  0  0  0
 32 33  1  0  0  0
 33 34  2  0  0  0
 34 35  1  0  0  0
 35 36  2  0  0  0
 35 37  1  0  0  0
 37 38  1  0  0  0
 38 39  1  0  0  0
  1  4  1  0  0  0
  4  5  2  0  0  0
  5  6  1  0  0  0
  6  7  1  0  0  0
  6  8  2  0  0  0
  8  9  1  0  0  0
  9 10  2  0  0  0
 10 11  1  0  0  0
 11 12  1  0  0  0
 12 13  1  0  0  0
 13 14  1  0  0  0
 14 15  1  0  0  0
 15 16  1  0  0  0
 16 17  1  0  0  0
 17 18  1  0  0  0
 13 19  1  0  0  0
 36 31  1  0  0  0
 10  4  1  0  0  0
 18 13  1  0  0  0
 39 34  1  0  0  0
 19  9  1  0  0  0
 23 24  1  0  0  0
  2  3  1  0  0  0
 29 30  1  0  0  0
 38 40  1  0  0  0
 16 20  1  0  0  0
M  END
> <minimizedAffinity>
-8.84785

> <minimizedRMSD>
0.34662

$$$$
P21875


 38 41  0  0  0  0  0  0  0  0999 V2000
   -7.1485    4.3864  -13.5427 C   0  0  0  0  0  0  0  0  0  0  0  0
   -6.4710    5.4933  -12.9539 O   0  0  0  0  0  0  0  0  0  0  0  0
   -6.9544    6.3107  -13.1518 H   0  0  0  0  0  0  0  0  0  0  0  0
   -4.9627    5.1277  -18.1082 C   0  0  0  0  0  0  0  0  0  0  0  0
   -3.7151    5.3136  -17.4918 C   0  0  0  0  0  0  0  0  0  0  0  0
   -3.6007    5.2931  -16.1197 C   0  0  0  0  0  0  0  0  0  0  0  0
   -4.7308    5.0625  -15.3429 C   0  0  0  0  0  0  0  0  0  0  0  0
   -6.0262    4.8757  -15.8830 C   0  0  0  0  0  0  0  0  0  0  0  0
   -7.2001    4.6078  -15.0844 C   0  0  0  0  0  0  0  0  0  0  0  0
   -8.4333    4.4273  -15.7510 C   0  0  0  0  0  0  0  0  0  0  0  0
   -8.5208    4.5175  -17.1353 C   0  0  0  0  0  0  0  0  0  0  0  0
  -10.1723    4.2982  -18.0280 Br  0  0  0  0  0  0  0  0  0  0  0  0
   -7.3909    4.7732  -17.8994 C   0  0  0  0  0  0  0  0  0  0  0  0
   -6.1282    4.9384  -17.3101 C   0  0  0  0  0  0  0  0  0  0  0  0
   -4.9566    5.1150  -19.6282 C   0  0  0  0  0  0  0  0  0  0  0  0
   -4.8659    7.5610  -19.7551 C   0  0  0  0  0  0  0  0  0  0  0  0
   -5.4422    6.3362  -20.2663 N   0  0  0  0  0  0  0  0  0  0  0  0
   -5.2315    6.2786  -21.2626 H   0  0  0  0  0  0  0  0  0  0  0  0
   -6.4124    2.9542  -13.2672 C   0  0  0  0  0  0  0  0  0  0  0  0
   -6.8576    1.9167  -13.5733 O   0  0  0  0  0  0  0  0  0  0  0  0
   -5.0523    3.3097  -12.5925 N   0  0  0  0  0  0  0  0  0  0  0  0
   -4.9409    4.2611  -12.3652 H   0  0  0  0  0  0  0  0  0  0  0  0
   -3.9298    2.4697  -12.2471 C   0  0  0  0  0  0  0  0  0  0  0  0
   -3.2514    1.9375  -13.5013 C   0  0  0  0  0  0  0  0  0  0  0  0
   -2.5312    2.9421  -14.0783 F   0  0  0  0  0  0  0  0  0  0  0  0
   -2.3494    0.9734  -13.1917 F   0  0  0  0  0  0  0  0  0  0  0  0
   -8.5020    4.4405  -12.9456 N   0  0  0  0  0  0  0  0  0  0  0  0
   -9.3105    4.5081  -13.5034 H   0  0  0  0  0  0  0  0  0  0  0  0
   -8.5761    4.3905  -11.5355 C   0  0  0  0  0  0  0  0  0  0  0  0
   -8.3678    5.5690  -10.7785 C   0  0  0  0  0  0  0  0  0  0  0  0
   -8.3184    5.5440   -9.3827 C   0  0  0  0  0  0  0  0  0  0  0  0
   -8.5267    4.3345   -8.7511 C   0  0  0  0  0  0  0  0  0  0  0  0
   -8.7432    3.1681   -9.4796 C   0  0  0  0  0  0  0  0  0  0  0  0
   -8.7501    3.1740  -10.8657 C   0  0  0  0  0  0  0  0  0  0  0  0
   -8.9495    2.0336   -8.5272 C   0  0  0  0  0  0  0  0  0  0  0  0
   -9.2336    2.6866   -7.2191 N   0  0  0  0  0  0  0  0  0  0  0  0
   -8.5963    4.0168   -7.2949 C   0  0  0  0  0  0  0  0  0  0  0  0
   -8.8333    2.1426   -6.4548 H   0  0  0  0  0  0  0  0  0  0  0  0
 16 17  1  0  0  0
 17 15  1  0  0  0
 15  4  1  0  0  0
  4  5  2  0  0  0
  5  6  1  0  0  0
  6  7  2  0  0  0
  7  8  1  0  0  0
  8  9  2  0  0  0
  9  1  1  0  0  0
  1  2  1  0  0  0
  1 27  1  0  0  0
 27 29  1  0  0  0
 29 30  2  0  0  0
 30 31  1  0  0  0
 31 32  2  0  0  0
 32 33  1  0  0  0
 33 34  2  0  0  0
 33 35  1  0  0  0
 35 36  1  0  0  0
 36 37  1  0  0  0
  1 19  1  0  0  0
 19 20  2  0  0  0
 19 21  1  0  0  0
 21 23  1  0  0  0
 23 24  1  0  0  0
 24 25  1  0  0  0
 24 26  1  0  0  0
  9 10  1  0  0  0
 10 11  2  0  0  0
 11 12  1  0  0  0
 11 13  1  0  0  0
 13 14  2  0  0  0
 14  4  1  0  0  0
 14  8  1  0  0  0
 34 29  1  0  0  0
 37 32  1  0  0  0
 17 18  1  0  0  0
  2  3  1  0  0  0
 27 28  1  0  0  0
 36 38  1  0  0  0
 21 22  1  0  0  0
M  END
> <minimizedAffinity>
-9.34847

> <minimizedRMSD>
0.27603

$$$$
P21877


 43 47  0  0  0  0  0  0  0  0999 V2000
   -7.1432    4.4655  -13.6388 C   0  0  0  0  0  0  0  0  0  0  0  0
   -6.3481    5.5692  -13.2627 O   0  0  0  0  0  0  0  0  0  0  0  0
   -6.7868    6.3909  -13.5333 H   0  0  0  0  0  0  0  0  0  0  0  0
   -5.0226    5.1428  -18.2684 C   0  0  0  0  0  0  0  0  0  0  0  0
   -3.7647    5.2577  -17.6620 C   0  0  0  0  0  0  0  0  0  0  0  0
   -3.6209    5.0840  -16.2997 C   0  0  0  0  0  0  0  0  0  0  0  0
   -4.7369    4.8214  -15.5137 C   0  0  0  0  0  0  0  0  0  0  0  0
   -6.0520    4.7462  -16.0288 C   0  0  0  0  0  0  0  0  0  0  0  0
   -7.2331    4.5530  -15.2033 C   0  0  0  0  0  0  0  0  0  0  0  0
   -8.4835    4.4461  -15.8402 C   0  0  0  0  0  0  0  0  0  0  0  0
   -8.5801    4.5140  -17.2221 C   0  0  0  0  0  0  0  0  0  0  0  0
  -10.2549    4.3631  -18.0812 Br  0  0  0  0  0  0  0  0  0  0  0  0
   -7.4532    4.7340  -18.0034 C   0  0  0  0  0  0  0  0  0  0  0  0
   -6.1725    4.8790  -17.4460 C   0  0  0  0  0  0  0  0  0  0  0  0
   -5.1814    5.3279  -19.7799 C   0  0  0  0  0  0  0  0  0  0  0  0
   -3.3775    5.2257  -21.4064 C   0  0  0  0  0  0  0  0  0  0  0  0
   -4.1339    6.0738  -20.4966 N   0  0  0  0  0  0  0  0  0  0  0  0
   -4.5727    6.8218  -21.0336 H   0  0  0  0  0  0  0  0  0  0  0  0
   -6.5528    3.0102  -13.2593 C   0  0  0  0  0  0  0  0  0  0  0  0
   -7.0885    2.0093  -13.5310 O   0  0  0  0  0  0  0  0  0  0  0  0
   -5.1767    3.2634  -12.5963 N   0  0  0  0  0  0  0  0  0  0  0  0
   -4.9805    4.2083  -12.4014 H   0  0  0  0  0  0  0  0  0  0  0  0
   -4.1353    2.3397  -12.2179 C   0  0  0  0  0  0  0  0  0  0  0  0
   -3.3147    1.9401  -13.4370 C   0  0  0  0  0  0  0  0  0  0  0  0
   -2.5919    3.0173  -13.8599 F   0  0  0  0  0  0  0  0  0  0  0  0
   -2.4036    0.9864  -13.1234 F   0  0  0  0  0  0  0  0  0  0  0  0
   -8.4390    4.6519  -12.9625 N   0  0  0  0  0  0  0  0  0  0  0  0
   -9.0621    3.9191  -13.3018 H   0  0  0  0  0  0  0  0  0  0  0  0
   -8.4863    4.6111  -11.4660 C   0  0  0  0  0  0  0  0  0  0  0  0
   -8.1755    3.2220  -10.8437 C   0  0  0  0  0  0  0  0  0  0  0  0
   -8.5141    3.1944   -9.4007 C   0  0  0  0  0  0  0  0  0  0  0  0
   -8.5726    4.2716   -8.6224 C   0  0  0  0  0  0  0  0  0  0  0  0
   -8.8742    3.8724   -7.2245 C   0  0  0  0  0  0  0  0  0  0  0  0
   -9.2988    2.4669   -7.3159 N   0  0  0  0  0  0  0  0  0  0  0  0
   -8.8013    1.9633   -8.6191 C   0  0  0  0  0  0  0  0  0  0  0  0
   -8.3512    5.6681   -9.0696 C   0  0  0  0  0  0  0  0  0  0  0  0
   -8.0247    5.8393  -10.5939 C   0  0  0  0  0  0  0  0  0  0  0  0
   -8.6717    7.1702  -11.0903 C   0  0  0  0  0  0  0  0  0  0  0  0
   -7.5675    8.0866  -11.5903 C   0  0  0  0  0  0  0  0  0  0  0  0
   -6.3063    7.6544  -10.8698 C   0  0  0  0  0  0  0  0  0  0  0  0
   -6.5433    6.1854  -10.6301 C   0  0  0  0  0  0  0  0  0  0  0  0
   -5.6231    5.4085  -10.3967 O   0  0  0  0  0  0  0  0  0  0  0  0
  -10.3160    2.4025   -7.2778 H   0  0  0  0  0  0  0  0  0  0  0  0
 16 17  1  0  0  0
 17 15  1  0  0  0
 15  4  1  0  0  0
  4  5  2  0  0  0
  5  6  1  0  0  0
  6  7  2  0  0  0
  7  8  1  0  0  0
  8  9  2  0  0  0
  9  1  1  0  0  0
  1  2  1  0  0  0
  1 27  1  0  0  0
 29 27  1  0  0  0
 29 30  1  0  0  0
 30 31  1  0  0  0
 31 32  2  0  0  0
 32 33  1  0  0  0
 33 34  1  0  0  0
 34 35  1  0  0  0
 32 36  1  0  0  0
 37 36  1  0  0  0
 37 38  1  0  0  0
 38 39  1  0  0  0
 39 40  1  0  0  0
 40 41  1  0  0  0
 41 42  2  0  0  0
  1 19  1  0  0  0
 19 20  2  0  0  0
 19 21  1  0  0  0
 21 23  1  0  0  0
 23 24  1  0  0  0
 24 25  1  0  0  0
 24 26  1  0  0  0
  9 10  1  0  0  0
 10 11  2  0  0  0
 11 12  1  0  0  0
 11 13  1  0  0  0
 13 14  2  0  0  0
 14  4  1  0  0  0
 14  8  1  0  0  0
 37 29  1  0  0  0
 35 31  1  0  0  0
 41 37  1  0  0  0
 17 18  1  0  0  0
  2  3  1  0  0  0
 27 28  1  0  0  0
 34 43  1  0  0  0
 21 22  1  0  0  0
M  END
> <minimizedAffinity>
-9.27570

> <minimizedRMSD>
0.30725

$$$$
P21878


 38 41  0  0  0  0  0  0  0  0999 V2000
   -7.6062    4.1984  -13.3245 C   0  0  0  0  0  0  0  0  0  0  0  0
   -8.9997    4.1087  -13.0958 O   0  0  0  0  0  0  0  0  0  0  0  0
   -9.4081    4.9760  -13.2437 H   0  0  0  0  0  0  0  0  0  0  0  0
   -4.8493    5.2700  -17.4926 C   0  0  0  0  0  0  0  0  0  0  0  0
   -3.7440    5.6626  -16.7274 C   0  0  0  0  0  0  0  0  0  0  0  0
   -3.8573    5.7901  -15.3560 C   0  0  0  0  0  0  0  0  0  0  0  0
   -5.0599    5.4703  -14.7257 C   0  0  0  0  0  0  0  0  0  0  0  0
   -6.2083    5.0546  -15.4355 C   0  0  0  0  0  0  0  0  0  0  0  0
   -7.4315    4.6390  -14.8129 C   0  0  0  0  0  0  0  0  0  0  0  0
   -8.5492    4.4272  -15.6552 C   0  0  0  0  0  0  0  0  0  0  0  0
   -8.4770    4.5443  -17.0302 C   0  0  0  0  0  0  0  0  0  0  0  0
  -10.0366    4.2910  -18.0568 Br  0  0  0  0  0  0  0  0  0  0  0  0
   -7.2690    4.8318  -17.6337 C   0  0  0  0  0  0  0  0  0  0  0  0
   -6.1099    5.0576  -16.8667 C   0  0  0  0  0  0  0  0  0  0  0  0
   -4.6099    5.0309  -18.9686 C   0  0  0  0  0  0  0  0  0  0  0  0
   -4.4965    6.0424  -21.1401 C   0  0  0  0  0  0  0  0  0  0  0  0
   -4.6327    6.2946  -19.7119 N   0  0  0  0  0  0  0  0  0  0  0  0
   -5.5170    6.7721  -19.5372 H   0  0  0  0  0  0  0  0  0  0  0  0
   -6.7558    2.8113  -13.1173 C   0  0  0  0  0  0  0  0  0  0  0  0
   -7.2134    1.7762  -13.4009 O   0  0  0  0  0  0  0  0  0  0  0  0
   -5.3647    3.1682  -12.5401 N   0  0  0  0  0  0  0  0  0  0  0  0
   -5.2443    4.1184  -12.3122 H   0  0  0  0  0  0  0  0  0  0  0  0
   -4.2132    2.3328  -12.2812 C   0  0  0  0  0  0  0  0  0  0  0  0
   -3.1470    2.3842  -13.3690 C   0  0  0  0  0  0  0  0  0  0  0  0
   -3.6963    2.5078  -14.6011 F   0  0  0  0  0  0  0  0  0  0  0  0
   -2.4243    1.2348  -13.3900 F   0  0  0  0  0  0  0  0  0  0  0  0
   -7.1831    5.2106  -12.3548 N   0  0  0  0  0  0  0  0  0  0  0  0
   -6.5938    5.9514  -12.6254 H   0  0  0  0  0  0  0  0  0  0  0  0
   -7.6425    5.0999  -11.0121 C   0  0  0  0  0  0  0  0  0  0  0  0
   -7.3809    6.1944  -10.1613 C   0  0  0  0  0  0  0  0  0  0  0  0
   -7.7131    6.1718   -8.8011 C   0  0  0  0  0  0  0  0  0  0  0  0
   -8.2896    5.0284   -8.2831 C   0  0  0  0  0  0  0  0  0  0  0  0
   -8.5438    3.9322   -9.0939 C   0  0  0  0  0  0  0  0  0  0  0  0
   -8.2311    3.9525  -10.4454 C   0  0  0  0  0  0  0  0  0  0  0  0
   -9.1822    2.8417   -8.2890 C   0  0  0  0  0  0  0  0  0  0  0  0
   -9.1152    3.3185   -6.8934 N   0  0  0  0  0  0  0  0  0  0  0  0
  -10.2786    2.9811   -6.1015 C   0  0  0  0  0  0  0  0  0  0  0  0
   -8.7550    4.7401   -6.8925 C   0  0  0  0  0  0  0  0  0  0  0  0
 16 17  1  0  0  0
 17 15  1  0  0  0
 15  4  1  0  0  0
  4  5  2  0  0  0
  5  6  1  0  0  0
  6  7  2  0  0  0
  7  8  1  0  0  0
  8  9  2  0  0  0
  9  1  1  0  0  0
  1  2  1  0  0  0
  1 27  1  0  0  0
 27 29  1  0  0  0
 29 30  2  0  0  0
 30 31  1  0  0  0
 31 32  2  0  0  0
 32 33  1  0  0  0
 33 34  2  0  0  0
 33 35  1  0  0  0
 35 36  1  0  0  0
 36 37  1  0  0  0
 36 38  1  0  0  0
  1 19  1  0  0  0
 19 20  2  0  0  0
 19 21  1  0  0  0
 21 23  1  0  0  0
 23 24  1  0  0  0
 24 25  1  0  0  0
 24 26  1  0  0  0
  9 10  1  0  0  0
 10 11  2  0  0  0
 11 12  1  0  0  0
 11 13  1  0  0  0
 13 14  2  0  0  0
 14  4  1  0  0  0
 14  8  1  0  0  0
 34 29  1  0  0  0
 38 32  1  0  0  0
 17 18  1  0  0  0
  2  3  1  0  0  0
 27 28  1  0  0  0
 21 22  1  0  0  0
M  END
> <minimizedAffinity>
-8.69431

> <minimizedRMSD>
0.39358

$$$$
P21879


 39 42  0  0  0  0  0  0  0  0999 V2000
   -7.2853    4.3510  -13.6279 C   0  0  0  0  0  0  0  0  0  0  0  0
   -6.5872    5.4809  -13.1471 O   0  0  0  0  0  0  0  0  0  0  0  0
   -7.0435    6.2882  -13.4318 H   0  0  0  0  0  0  0  0  0  0  0  0
   -4.9620    5.1151  -18.1286 C   0  0  0  0  0  0  0  0  0  0  0  0
   -3.7218    5.2290  -17.4803 C   0  0  0  0  0  0  0  0  0  0  0  0
   -3.6338    5.0885  -16.1137 C   0  0  0  0  0  0  0  0  0  0  0  0
   -4.7872    4.8367  -15.3765 C   0  0  0  0  0  0  0  0  0  0  0  0
   -6.0828    4.7374  -15.9439 C   0  0  0  0  0  0  0  0  0  0  0  0
   -7.2936    4.5129  -15.1715 C   0  0  0  0  0  0  0  0  0  0  0  0
   -8.5164    4.4200  -15.8601 C   0  0  0  0  0  0  0  0  0  0  0  0
   -8.5639    4.5256  -17.2405 C   0  0  0  0  0  0  0  0  0  0  0  0
  -10.2161    4.4010  -18.1448 Br  0  0  0  0  0  0  0  0  0  0  0  0
   -7.4088    4.7580  -17.9750 C   0  0  0  0  0  0  0  0  0  0  0  0
   -6.1494    4.8760  -17.3655 C   0  0  0  0  0  0  0  0  0  0  0  0
   -4.9222    5.2553  -19.6413 C   0  0  0  0  0  0  0  0  0  0  0  0
   -4.6432    6.9334  -21.3334 C   0  0  0  0  0  0  0  0  0  0  0  0
   -5.2795    6.6208  -20.0600 N   0  0  0  0  0  0  0  0  0  0  0  0
   -6.2921    6.6887  -20.1625 H   0  0  0  0  0  0  0  0  0  0  0  0
   -6.6402    2.9187  -13.2309 C   0  0  0  0  0  0  0  0  0  0  0  0
   -7.1472    1.8975  -13.4855 O   0  0  0  0  0  0  0  0  0  0  0  0
   -5.2879    3.2228  -12.5378 N   0  0  0  0  0  0  0  0  0  0  0  0
   -5.1173    4.1774  -12.3676 H   0  0  0  0  0  0  0  0  0  0  0  0
   -4.2377    2.3337  -12.1013 C   0  0  0  0  0  0  0  0  0  0  0  0
   -3.2399    2.0377  -13.2163 C   0  0  0  0  0  0  0  0  0  0  0  0
   -3.8633    1.5711  -14.3263 F   0  0  0  0  0  0  0  0  0  0  0  0
   -2.3517    1.0848  -12.8439 F   0  0  0  0  0  0  0  0  0  0  0  0
   -8.6413    4.4188  -13.0165 N   0  0  0  0  0  0  0  0  0  0  0  0
   -9.4700    4.4571  -13.5467 H   0  0  0  0  0  0  0  0  0  0  0  0
   -8.6263    4.4231  -11.5817 C   0  0  0  0  0  0  0  0  0  0  0  0
   -8.7572    3.2243  -10.8659 C   0  0  0  0  0  0  0  0  0  0  0  0
   -8.6820    3.2575   -9.4789 C   0  0  0  0  0  0  0  0  0  0  0  0
   -8.4694    4.4453   -8.7888 C   0  0  0  0  0  0  0  0  0  0  0  0
   -8.3242    5.6425   -9.4597 C   0  0  0  0  0  0  0  0  0  0  0  0
   -8.4069    5.6170  -10.8497 C   0  0  0  0  0  0  0  0  0  0  0  0
   -8.2540    6.7773  -11.5113 F   0  0  0  0  0  0  0  0  0  0  0  0
   -8.4338    4.1762   -7.3256 C   0  0  0  0  0  0  0  0  0  0  0  0
   -8.7641    2.7485   -7.1561 N   0  0  0  0  0  0  0  0  0  0  0  0
   -8.7790    2.1286   -8.5074 C   0  0  0  0  0  0  0  0  0  0  0  0
   -9.6808    2.6529   -6.7192 H   0  0  0  0  0  0  0  0  0  0  0  0
 16 17  1  0  0  0
 17 15  1  0  0  0
 15  4  1  0  0  0
  4  5  2  0  0  0
  5  6  1  0  0  0
  6  7  2  0  0  0
  7  8  1  0  0  0
  8  9  2  0  0  0
  9  1  1  0  0  0
  1  2  1  0  0  0
  1 27  1  0  0  0
 27 29  1  0  0  0
 29 30  2  0  0  0
 30 31  1  0  0  0
 31 32  2  0  0  0
 32 33  1  0  0  0
 33 34  2  0  0  0
 34 35  1  0  0  0
 32 36  1  0  0  0
 36 37  1  0  0  0
 37 38  1  0  0  0
  1 19  1  0  0  0
 19 20  2  0  0  0
 19 21  1  0  0  0
 21 23  1  0  0  0
 23 24  1  0  0  0
 24 25  1  0  0  0
 24 26  1  0  0  0
  9 10  1  0  0  0
 10 11  2  0  0  0
 11 12  1  0  0  0
 11 13  1  0  0  0
 13 14  2  0  0  0
 14  4  1  0  0  0
 14  8  1  0  0  0
 34 29  1  0  0  0
 38 31  1  0  0  0
 17 18  1  0  0  0
  2  3  1  0  0  0
 27 28  1  0  0  0
 37 39  1  0  0  0
 21 22  1  0  0  0
M  END
> <minimizedAffinity>
-9.60950

> <minimizedRMSD>
0.44831

$$$$
P21880


 38 41  0  0  0  0  0  0  0  0999 V2000
   -7.4576    4.0305  -13.5212 C   0  0  0  0  0  0  0  0  0  0  0  0
   -8.8440    3.8598  -13.2890 O   0  0  0  0  0  0  0  0  0  0  0  0
   -9.3053    4.6966  -13.4562 H   0  0  0  0  0  0  0  0  0  0  0  0
   -4.9567    5.2177  -17.8962 C   0  0  0  0  0  0  0  0  0  0  0  0
   -3.7648    5.4490  -17.2035 C   0  0  0  0  0  0  0  0  0  0  0  0
   -3.7412    5.4281  -15.8143 C   0  0  0  0  0  0  0  0  0  0  0  0
   -4.8984    5.1350  -15.0867 C   0  0  0  0  0  0  0  0  0  0  0  0
   -6.1296    4.8595  -15.7108 C   0  0  0  0  0  0  0  0  0  0  0  0
   -7.3278    4.4851  -15.0123 C   0  0  0  0  0  0  0  0  0  0  0  0
   -8.5088    4.3747  -15.7881 C   0  0  0  0  0  0  0  0  0  0  0  0
   -8.5283    4.5440  -17.1557 C   0  0  0  0  0  0  0  0  0  0  0  0
  -10.1481    4.4400  -18.1015 Br  0  0  0  0  0  0  0  0  0  0  0  0
   -7.3594    4.8062  -17.8288 C   0  0  0  0  0  0  0  0  0  0  0  0
   -6.1452    4.9671  -17.1482 C   0  0  0  0  0  0  0  0  0  0  0  0
   -4.9949    5.1705  -19.4240 C   0  0  0  0  0  0  0  0  0  0  0  0
   -3.3715    6.0582  -20.9755 C   0  0  0  0  0  0  0  0  0  0  0  0
   -3.7124    4.9425  -20.1056 N   0  0  0  0  0  0  0  0  0  0  0  0
   -2.9791    4.8306  -19.4056 H   0  0  0  0  0  0  0  0  0  0  0  0
   -6.5252    2.6938  -13.2802 C   0  0  0  0  0  0  0  0  0  0  0  0
   -6.9460    1.6152  -13.4288 O   0  0  0  0  0  0  0  0  0  0  0  0
   -5.1276    3.1696  -12.8111 N   0  0  0  0  0  0  0  0  0  0  0  0
   -4.9925    4.1443  -12.8407 H   0  0  0  0  0  0  0  0  0  0  0  0
   -3.9885    2.4142  -12.3365 C   0  0  0  0  0  0  0  0  0  0  0  0
   -2.9831    2.0216  -13.4158 C   0  0  0  0  0  0  0  0  0  0  0  0
   -2.2742    3.1057  -13.8288 F   0  0  0  0  0  0  0  0  0  0  0  0
   -3.5735    1.5049  -14.5159 F   0  0  0  0  0  0  0  0  0  0  0  0
   -7.1097    5.0621  -12.5331 N   0  0  0  0  0  0  0  0  0  0  0  0
   -6.5662    5.8450  -12.7797 H   0  0  0  0  0  0  0  0  0  0  0  0
   -7.5938    4.8816  -11.1963 C   0  0  0  0  0  0  0  0  0  0  0  0
   -7.4490    5.9688  -10.3112 C   0  0  0  0  0  0  0  0  0  0  0  0
   -7.7988    5.8709   -8.9562 C   0  0  0  0  0  0  0  0  0  0  0  0
   -8.2860    4.6668   -8.4816 C   0  0  0  0  0  0  0  0  0  0  0  0
   -8.4400    3.5835   -9.3274 C   0  0  0  0  0  0  0  0  0  0  0  0
   -8.0971    3.6721  -10.6686 C   0  0  0  0  0  0  0  0  0  0  0  0
   -8.9570    2.4072   -8.5592 C   0  0  0  0  0  0  0  0  0  0  0  0
   -9.2601    2.9116   -7.1959 N   0  0  0  0  0  0  0  0  0  0  0  0
  -10.6222    2.9406   -6.9723 F   0  0  0  0  0  0  0  0  0  0  0  0
   -8.6805    4.2683   -7.0988 C   0  0  0  0  0  0  0  0  0  0  0  0
 16 17  1  0  0  0
 17 15  1  0  0  0
 15  4  1  0  0  0
  4  5  2  0  0  0
  5  6  1  0  0  0
  6  7  2  0  0  0
  7  8  1  0  0  0
  8  9  2  0  0  0
  9  1  1  0  0  0
  1  2  1  0  0  0
  1 27  1  0  0  0
 27 29  1  0  0  0
 29 30  2  0  0  0
 30 31  1  0  0  0
 31 32  2  0  0  0
 32 33  1  0  0  0
 33 34  2  0  0  0
 33 35  1  0  0  0
 35 36  1  0  0  0
 36 37  1  0  0  0
 36 38  1  0  0  0
  1 19  1  0  0  0
 19 20  2  0  0  0
 19 21  1  0  0  0
 21 23  1  0  0  0
 23 24  1  0  0  0
 24 25  1  0  0  0
 24 26  1  0  0  0
  9 10  1  0  0  0
 10 11  2  0  0  0
 11 12  1  0  0  0
 11 13  1  0  0  0
 13 14  2  0  0  0
 14  4  1  0  0  0
 14  8  1  0  0  0
 34 29  1  0  0  0
 38 32  1  0  0  0
 17 18  1  0  0  0
  2  3  1  0  0  0
 27 28  1  0  0  0
 21 22  1  0  0  0
M  END
> <minimizedAffinity>
-8.93219

> <minimizedRMSD>
0.50190

$$$$
P21882


 40 44  0  0  0  0  0  0  0  0999 V2000
   -7.1674    4.3502  -13.6394 C   0  0  0  0  0  0  0  0  0  0  0  0
   -6.4831    5.4821  -13.1117 O   0  0  0  0  0  0  0  0  0  0  0  0
   -6.4230    5.4028  -12.1468 H   0  0  0  0  0  0  0  0  0  0  0  0
   -7.2335    4.5327  -15.1909 C   0  0  0  0  0  0  0  0  0  0  0  0
   -8.4821    4.3427  -15.8229 C   0  0  0  0  0  0  0  0  0  0  0  0
   -8.6237    4.4822  -17.1986 C   0  0  0  0  0  0  0  0  0  0  0  0
  -10.2978    4.2236  -18.0291 Br  0  0  0  0  0  0  0  0  0  0  0  0
   -7.5439    4.8463  -17.9881 C   0  0  0  0  0  0  0  0  0  0  0  0
   -6.2659    5.0156  -17.4424 C   0  0  0  0  0  0  0  0  0  0  0  0
   -6.0996    4.8304  -16.0339 C   0  0  0  0  0  0  0  0  0  0  0  0
   -4.6905    4.7937  -15.4753 C   0  0  0  0  0  0  0  0  0  0  0  0
   -3.6007    5.4189  -16.3311 C   0  0  0  0  0  0  0  0  0  0  0  0
   -3.7539    5.0216  -17.7826 C   0  0  0  0  0  0  0  0  0  0  0  0
   -5.1182    5.4646  -18.3603 C   0  0  0  0  0  0  0  0  0  0  0  0
   -5.1452    5.0021  -19.8454 C   0  0  0  0  0  0  0  0  0  0  0  0
   -5.0292    6.2189  -20.6692 N   0  0  0  0  0  0  0  0  0  0  0  0
   -4.5307    7.2691  -19.8177 N   0  0  0  0  0  0  0  0  0  0  0  0
   -5.1880    6.9976  -18.5332 C   0  0  0  0  0  0  0  0  0  0  0  0
   -5.9432    6.4762  -21.0418 H   0  0  0  0  0  0  0  0  0  0  0  0
   -4.7936    8.1871  -20.1765 H   0  0  0  0  0  0  0  0  0  0  0  0
   -6.8620    1.8903  -13.5427 O   0  0  0  0  0  0  0  0  0  0  0  0
   -6.4279    2.9466  -13.2906 C   0  0  0  0  0  0  0  0  0  0  0  0
   -5.0815    3.3496  -12.6156 N   0  0  0  0  0  0  0  0  0  0  0  0
   -4.9790    4.3133  -12.4425 H   0  0  0  0  0  0  0  0  0  0  0  0
   -3.9602    2.5381  -12.2030 C   0  0  0  0  0  0  0  0  0  0  0  0
   -3.2761    1.9256  -13.4144 C   0  0  0  0  0  0  0  0  0  0  0  0
   -2.5158    2.8826  -14.0207 F   0  0  0  0  0  0  0  0  0  0  0  0
   -2.4079    0.9534  -13.0473 F   0  0  0  0  0  0  0  0  0  0  0  0
   -8.5164    4.4333  -13.0242 N   0  0  0  0  0  0  0  0  0  0  0  0
   -9.3272    4.4998  -13.5785 H   0  0  0  0  0  0  0  0  0  0  0  0
   -8.5926    4.4133  -11.6138 C   0  0  0  0  0  0  0  0  0  0  0  0
   -8.3440    5.5950  -10.8779 C   0  0  0  0  0  0  0  0  0  0  0  0
   -8.2750    5.5870   -9.4812 C   0  0  0  0  0  0  0  0  0  0  0  0
   -8.4857    4.3898   -8.8240 C   0  0  0  0  0  0  0  0  0  0  0  0
   -8.7631    3.2270   -9.5286 C   0  0  0  0  0  0  0  0  0  0  0  0
   -8.8066    3.2182  -10.9169 C   0  0  0  0  0  0  0  0  0  0  0  0
   -8.9880    2.1037   -8.5721 C   0  0  0  0  0  0  0  0  0  0  0  0
   -8.8557    2.6846   -7.2088 N   0  0  0  0  0  0  0  0  0  0  0  0
   -8.4936    4.1058   -7.3621 C   0  0  0  0  0  0  0  0  0  0  0  0
   -8.1267    2.1939   -6.6910 H   0  0  0  0  0  0  0  0  0  0  0  0
 21 22  2  0  0  0
 22 23  1  0  0  0
 23 25  1  0  0  0
 25 26  1  0  0  0
 26 27  1  0  0  0
 26 28  1  0  0  0
 22  1  1  0  0  0
  1  2  1  0  0  0
  1 29  1  0  0  0
 29 31  1  0  0  0
 31 32  2  0  0  0
 32 33  1  0  0  0
 33 34  2  0  0  0
 34 35  1  0  0  0
 35 36  2  0  0  0
 35 37  1  0  0  0
 37 38  1  0  0  0
 38 39  1  0  0  0
  1  4  1  0  0  0
  4  5  2  0  0  0
  5  6  1  0  0  0
  6  7  1  0  0  0
  6  8  2  0  0  0
  8  9  1  0  0  0
  9 10  2  0  0  0
 10 11  1  0  0  0
 11 12  1  0  0  0
 12 13  1  0  0  0
 13 14  1  0  0  0
 14 15  1  0  0  0
 15 16  1  0  0  0
 16 17  1  0  0  0
 17 18  1  0  0  0
 36 31  1  0  0  0
 10  4  1  0  0  0
 18 14  1  0  0  0
 39 34  1  0  0  0
 14  9  1  0  0  0
 23 24  1  0  0  0
  2  3  1  0  0  0
 29 30  1  0  0  0
 38 40  1  0  0  0
 16 19  1  0  0  0
 17 20  1  0  0  0
M  END
> <minimizedAffinity>
-10.35377

> <minimizedRMSD>
0.27082

$$$$
P21884


 38 41  0  0  0  0  0  0  0  0999 V2000
   -7.2499    4.4133  -13.6656 C   0  0  0  0  0  0  0  0  0  0  0  0
   -6.6093    5.5864  -13.1949 O   0  0  0  0  0  0  0  0  0  0  0  0
   -7.1301    6.3638  -13.4504 H   0  0  0  0  0  0  0  0  0  0  0  0
   -5.2160    5.1787  -18.3386 C   0  0  0  0  0  0  0  0  0  0  0  0
   -3.9532    5.3175  -17.7548 C   0  0  0  0  0  0  0  0  0  0  0  0
   -3.7860    5.2483  -16.3805 C   0  0  0  0  0  0  0  0  0  0  0  0
   -4.8803    5.0089  -15.5544 C   0  0  0  0  0  0  0  0  0  0  0  0
   -6.1893    4.8293  -16.0507 C   0  0  0  0  0  0  0  0  0  0  0  0
   -7.3455    4.5737  -15.2131 C   0  0  0  0  0  0  0  0  0  0  0  0
   -8.5984    4.4340  -15.8438 C   0  0  0  0  0  0  0  0  0  0  0  0
   -8.7148    4.4850  -17.2232 C   0  0  0  0  0  0  0  0  0  0  0  0
  -10.3864    4.3444  -18.0805 Br  0  0  0  0  0  0  0  0  0  0  0  0
   -7.6027    4.6887  -18.0179 C   0  0  0  0  0  0  0  0  0  0  0  0
   -6.3293    4.9036  -17.4766 C   0  0  0  0  0  0  0  0  0  0  0  0
   -5.3748    5.1734  -19.7381 N   0  0  0  0  0  0  0  0  0  0  0  0
   -6.0526    4.5776  -20.1316 H   0  0  0  0  0  0  0  0  0  0  0  0
   -3.6781    5.1760  -21.5140 C   0  0  0  0  0  0  0  0  0  0  0  0
   -4.5839    6.0073  -20.6279 C   0  0  0  0  0  0  0  0  0  0  0  0
   -6.4934    3.0232  -13.3137 C   0  0  0  0  0  0  0  0  0  0  0  0
   -6.9338    1.9702  -13.5657 O   0  0  0  0  0  0  0  0  0  0  0  0
   -5.1292    3.4188  -12.6889 N   0  0  0  0  0  0  0  0  0  0  0  0
   -5.0235    4.3801  -12.5044 H   0  0  0  0  0  0  0  0  0  0  0  0
   -3.9887    2.6052  -12.3338 C   0  0  0  0  0  0  0  0  0  0  0  0
   -3.3382    2.0098  -13.5795 C   0  0  0  0  0  0  0  0  0  0  0  0
   -2.6450    2.9897  -14.2277 F   0  0  0  0  0  0  0  0  0  0  0  0
   -2.4194    1.0693  -13.2469 F   0  0  0  0  0  0  0  0  0  0  0  0
   -8.5857    4.3977  -13.0102 N   0  0  0  0  0  0  0  0  0  0  0  0
   -9.4276    4.4032  -13.5206 H   0  0  0  0  0  0  0  0  0  0  0  0
   -8.5506    4.3742  -11.5830 C   0  0  0  0  0  0  0  0  0  0  0  0
   -8.2890    5.5522  -10.8490 C   0  0  0  0  0  0  0  0  0  0  0  0
   -8.2376    5.5501   -9.4510 C   0  0  0  0  0  0  0  0  0  0  0  0
   -8.4798    4.3607   -8.7948 C   0  0  0  0  0  0  0  0  0  0  0  0
   -8.7277    3.1877   -9.5002 C   0  0  0  0  0  0  0  0  0  0  0  0
   -8.7512    3.1717  -10.8859 C   0  0  0  0  0  0  0  0  0  0  0  0
   -8.9396    2.0735   -8.5261 C   0  0  0  0  0  0  0  0  0  0  0  0
   -9.2120    2.7539   -7.2301 N   0  0  0  0  0  0  0  0  0  0  0  0
   -8.5493    4.0717   -7.3331 C   0  0  0  0  0  0  0  0  0  0  0  0
   -8.8210    2.2172   -6.4559 H   0  0  0  0  0  0  0  0  0  0  0  0
 17 18  1  0  0  0
 18 15  1  0  0  0
 15  4  1  0  0  0
  4  5  2  0  0  0
  5  6  1  0  0  0
  6  7  2  0  0  0
  7  8  1  0  0  0
  8  9  2  0  0  0
  9  1  1  0  0  0
  1  2  1  0  0  0
  1 27  1  0  0  0
 27 29  1  0  0  0
 29 30  2  0  0  0
 30 31  1  0  0  0
 31 32  2  0  0  0
 32 33  1  0  0  0
 33 34  2  0  0  0
 33 35  1  0  0  0
 35 36  1  0  0  0
 36 37  1  0  0  0
  1 19  1  0  0  0
 19 20  2  0  0  0
 19 21  1  0  0  0
 21 23  1  0  0  0
 23 24  1  0  0  0
 24 25  1  0  0  0
 24 26  1  0  0  0
  9 10  1  0  0  0
 10 11  2  0  0  0
 11 12  1  0  0  0
 11 13  1  0  0  0
 13 14  2  0  0  0
 14  4  1  0  0  0
 14  8  1  0  0  0
 34 29  1  0  0  0
 37 32  1  0  0  0
 15 16  1  0  0  0
  2  3  1  0  0  0
 27 28  1  0  0  0
 36 38  1  0  0  0
 21 22  1  0  0  0
M  END
> <minimizedAffinity>
-9.42455

> <minimizedRMSD>
0.28998

$$$$
P21885


 39 42  0  0  0  0  0  0  0  0999 V2000
   -7.2498    4.4155  -13.8045 C   0  0  0  0  0  0  0  0  0  0  0  0
   -6.6178    5.6141  -13.3778 O   0  0  0  0  0  0  0  0  0  0  0  0
   -7.1411    6.3770  -13.6693 H   0  0  0  0  0  0  0  0  0  0  0  0
   -5.2354    5.1546  -18.4979 C   0  0  0  0  0  0  0  0  0  0  0  0
   -3.9659    5.2156  -17.9123 C   0  0  0  0  0  0  0  0  0  0  0  0
   -3.7972    5.0937  -16.5443 C   0  0  0  0  0  0  0  0  0  0  0  0
   -4.8984    4.8865  -15.7221 C   0  0  0  0  0  0  0  0  0  0  0  0
   -6.2130    4.7702  -16.2144 C   0  0  0  0  0  0  0  0  0  0  0  0
   -7.3610    4.5412  -15.3573 C   0  0  0  0  0  0  0  0  0  0  0  0
   -8.6218    4.4319  -15.9725 C   0  0  0  0  0  0  0  0  0  0  0  0
   -8.7521    4.4928  -17.3524 C   0  0  0  0  0  0  0  0  0  0  0  0
  -10.4496    4.3738  -18.1565 Br  0  0  0  0  0  0  0  0  0  0  0  0
   -7.6475    4.6895  -18.1664 C   0  0  0  0  0  0  0  0  0  0  0  0
   -6.3602    4.8760  -17.6415 C   0  0  0  0  0  0  0  0  0  0  0  0
   -5.3794    5.2472  -19.9045 N   0  0  0  0  0  0  0  0  0  0  0  0
   -6.0900    4.7352  -20.3540 H   0  0  0  0  0  0  0  0  0  0  0  0
   -4.4249    5.5945  -22.1422 C   0  0  0  0  0  0  0  0  0  0  0  0
   -4.4838    6.0961  -20.7018 C   0  0  0  0  0  0  0  0  0  0  0  0
   -5.0018    7.5358  -20.7025 C   0  0  0  0  0  0  0  0  0  0  0  0
   -6.4744    3.0517  -13.3808 C   0  0  0  0  0  0  0  0  0  0  0  0
   -6.9025    1.9793  -13.5593 O   0  0  0  0  0  0  0  0  0  0  0  0
   -5.1511    3.5068  -12.7110 N   0  0  0  0  0  0  0  0  0  0  0  0
   -5.0530    4.4814  -12.6120 H   0  0  0  0  0  0  0  0  0  0  0  0
   -4.0394    2.7327  -12.2090 C   0  0  0  0  0  0  0  0  0  0  0  0
   -3.1018    2.2439  -13.3108 C   0  0  0  0  0  0  0  0  0  0  0  0
   -2.5805    3.3065  -13.9844 F   0  0  0  0  0  0  0  0  0  0  0  0
   -3.7307    1.4835  -14.2327 F   0  0  0  0  0  0  0  0  0  0  0  0
   -8.5833    4.4172  -13.1278 N   0  0  0  0  0  0  0  0  0  0  0  0
   -9.4296    4.4233  -13.6307 H   0  0  0  0  0  0  0  0  0  0  0  0
   -8.5420    4.4092  -11.6993 C   0  0  0  0  0  0  0  0  0  0  0  0
   -8.2587    5.5918  -10.9811 C   0  0  0  0  0  0  0  0  0  0  0  0
   -8.1938    5.6050   -9.5821 C   0  0  0  0  0  0  0  0  0  0  0  0
   -8.4378    4.4256   -8.9076 C   0  0  0  0  0  0  0  0  0  0  0  0
   -8.7089    3.2486   -9.5966 C   0  0  0  0  0  0  0  0  0  0  0  0
   -8.7515    3.2192  -10.9825 C   0  0  0  0  0  0  0  0  0  0  0  0
   -8.9141    2.1446   -8.6089 C   0  0  0  0  0  0  0  0  0  0  0  0
   -9.1493    2.8383   -7.3117 N   0  0  0  0  0  0  0  0  0  0  0  0
   -8.4800    4.1502   -7.4420 C   0  0  0  0  0  0  0  0  0  0  0  0
   -8.7432    2.3051   -6.5429 H   0  0  0  0  0  0  0  0  0  0  0  0
 17 18  1  0  0  0
 18 19  1  0  0  0
 18 15  1  0  0  0
 15  4  1  0  0  0
  4  5  2  0  0  0
  5  6  1  0  0  0
  6  7  2  0  0  0
  7  8  1  0  0  0
  8  9  2  0  0  0
  9  1  1  0  0  0
  1  2  1  0  0  0
  1 28  1  0  0  0
 28 30  1  0  0  0
 30 31  2  0  0  0
 31 32  1  0  0  0
 32 33  2  0  0  0
 33 34  1  0  0  0
 34 35  2  0  0  0
 34 36  1  0  0  0
 36 37  1  0  0  0
 37 38  1  0  0  0
  1 20  1  0  0  0
 20 21  2  0  0  0
 20 22  1  0  0  0
 22 24  1  0  0  0
 24 25  1  0  0  0
 25 26  1  0  0  0
 25 27  1  0  0  0
  9 10  1  0  0  0
 10 11  2  0  0  0
 11 12  1  0  0  0
 11 13  1  0  0  0
 13 14  2  0  0  0
 14  4  1  0  0  0
 14  8  1  0  0  0
 35 30  1  0  0  0
 38 33  1  0  0  0
 15 16  1  0  0  0
  2  3  1  0  0  0
 28 29  1  0  0  0
 37 39  1  0  0  0
 22 23  1  0  0  0
M  END
> <minimizedAffinity>
-9.71113

> <minimizedRMSD>
0.40878

$$$$
P21886


 40 44  0  0  0  0  0  0  0  0999 V2000
   -7.1833    4.2910  -13.2774 C   0  0  0  0  0  0  0  0  0  0  0  0
   -6.4832    5.3557  -12.6296 O   0  0  0  0  0  0  0  0  0  0  0  0
   -6.9510    6.1913  -12.7840 H   0  0  0  0  0  0  0  0  0  0  0  0
   -3.7051    5.3812  -17.2807 C   0  0  0  0  0  0  0  0  0  0  0  0
   -3.5312    5.3665  -15.8877 C   0  0  0  0  0  0  0  0  0  0  0  0
   -4.6094    5.0946  -15.0081 C   0  0  0  0  0  0  0  0  0  0  0  0
   -5.9353    4.8703  -15.4803 C   0  0  0  0  0  0  0  0  0  0  0  0
   -7.1694    4.5772  -14.7969 C   0  0  0  0  0  0  0  0  0  0  0  0
   -8.3605    4.4217  -15.5732 C   0  0  0  0  0  0  0  0  0  0  0  0
   -8.3491    4.5028  -16.9765 C   0  0  0  0  0  0  0  0  0  0  0  0
   -9.9379    4.3550  -17.9824 Br  0  0  0  0  0  0  0  0  0  0  0  0
   -7.1465    4.7112  -17.6147 C   0  0  0  0  0  0  0  0  0  0  0  0
   -6.0257    4.9167  -16.8658 C   0  0  0  0  0  0  0  0  0  0  0  0
   -4.9880    5.1414  -17.7252 C   0  0  0  0  0  0  0  0  0  0  0  0
   -5.5797    5.0156  -19.0503 C   0  0  0  0  0  0  0  0  0  0  0  0
   -6.8457    4.7411  -18.9857 N   0  0  0  0  0  0  0  0  0  0  0  0
   -2.5654    5.6386  -18.2205 C   0  0  0  0  0  0  0  0  0  0  0  0
   -2.6655    7.0945  -20.1324 C   0  0  0  0  0  0  0  0  0  0  0  0
   -2.5731    7.0257  -18.6807 N   0  0  0  0  0  0  0  0  0  0  0  0
   -3.3738    7.5080  -18.2725 H   0  0  0  0  0  0  0  0  0  0  0  0
   -6.4804    2.8382  -13.0811 C   0  0  0  0  0  0  0  0  0  0  0  0
   -6.9103    1.8343  -13.4990 O   0  0  0  0  0  0  0  0  0  0  0  0
   -5.1411    3.1323  -12.3470 N   0  0  0  0  0  0  0  0  0  0  0  0
   -5.0426    4.0568  -12.0231 H   0  0  0  0  0  0  0  0  0  0  0  0
   -4.0187    2.2693  -12.0633 C   0  0  0  0  0  0  0  0  0  0  0  0
   -3.2501    1.9434  -13.3428 C   0  0  0  0  0  0  0  0  0  0  0  0
   -2.4842    3.0191  -13.6927 F   0  0  0  0  0  0  0  0  0  0  0  0
   -2.3734    0.9285  -13.1362 F   0  0  0  0  0  0  0  0  0  0  0  0
   -8.5505    4.3360  -12.7397 N   0  0  0  0  0  0  0  0  0  0  0  0
   -9.3534    4.3813  -13.3076 H   0  0  0  0  0  0  0  0  0  0  0  0
   -8.5997    4.3080  -11.3242 C   0  0  0  0  0  0  0  0  0  0  0  0
   -8.3212    5.4754  -10.5805 C   0  0  0  0  0  0  0  0  0  0  0  0
   -8.3064    5.4609   -9.1846 C   0  0  0  0  0  0  0  0  0  0  0  0
   -8.5801    4.2678   -8.5440 C   0  0  0  0  0  0  0  0  0  0  0  0
   -8.8434    3.1097   -9.2630 C   0  0  0  0  0  0  0  0  0  0  0  0
   -8.8440    3.1070  -10.6494 C   0  0  0  0  0  0  0  0  0  0  0  0
   -9.1131    1.9856   -8.3224 C   0  0  0  0  0  0  0  0  0  0  0  0
   -9.0173    2.5561   -6.9507 N   0  0  0  0  0  0  0  0  0  0  0  0
   -8.6822    3.9871   -7.0864 C   0  0  0  0  0  0  0  0  0  0  0  0
   -8.2873    2.0761   -6.4243 H   0  0  0  0  0  0  0  0  0  0  0  0
 18 19  1  0  0  0
 19 17  1  0  0  0
 17  4  1  0  0  0
  4  5  2  0  0  0
  5  6  1  0  0  0
  6  7  2  0  0  0
  7  8  1  0  0  0
  8  1  1  0  0  0
  1  2  1  0  0  0
  1 29  1  0  0  0
 29 31  1  0  0  0
 31 32  2  0  0  0
 32 33  1  0  0  0
 33 34  2  0  0  0
 34 35  1  0  0  0
 35 36  2  0  0  0
 35 37  1  0  0  0
 37 38  1  0  0  0
 38 39  1  0  0  0
  1 21  1  0  0  0
 21 22  2  0  0  0
 21 23  1  0  0  0
 23 25  1  0  0  0
 25 26  1  0  0  0
 26 27  1  0  0  0
 26 28  1  0  0  0
  8  9  2  0  0  0
  9 10  1  0  0  0
 10 11  1  0  0  0
 10 12  2  0  0  0
 12 13  1  0  0  0
 13 14  2  0  0  0
 14 15  1  0  0  0
 15 16  2  0  0  0
 14  4  1  0  0  0
 13  7  1  0  0  0
 36 31  1  0  0  0
 16 12  1  0  0  0
 39 34  1  0  0  0
 19 20  1  0  0  0
  2  3  1  0  0  0
 29 30  1  0  0  0
 38 40  1  0  0  0
 23 24  1  0  0  0
M  END
> <minimizedAffinity>
-8.97588

> <minimizedRMSD>
0.44906

$$$$
P21890


 39 43  0  0  0  0  0  0  0  0999 V2000
   -7.2319    4.3268  -13.5646 C   0  0  0  0  0  0  0  0  0  0  0  0
   -6.5354    5.3870  -12.9206 O   0  0  0  0  0  0  0  0  0  0  0  0
   -6.4797    5.2062  -11.9692 H   0  0  0  0  0  0  0  0  0  0  0  0
   -7.3094    4.6399  -15.0962 C   0  0  0  0  0  0  0  0  0  0  0  0
   -8.5064    4.3359  -15.7840 C   0  0  0  0  0  0  0  0  0  0  0  0
   -8.6215    4.4973  -17.1598 C   0  0  0  0  0  0  0  0  0  0  0  0
  -10.2494    4.1380  -18.0462 Br  0  0  0  0  0  0  0  0  0  0  0  0
   -7.5484    4.9504  -17.9073 C   0  0  0  0  0  0  0  0  0  0  0  0
   -6.3212    5.2611  -17.3058 C   0  0  0  0  0  0  0  0  0  0  0  0
   -6.2135    5.1561  -15.8823 C   0  0  0  0  0  0  0  0  0  0  0  0
   -4.9142    5.5772  -15.2202 C   0  0  0  0  0  0  0  0  0  0  0  0
   -3.9369    6.3469  -16.0954 C   0  0  0  0  0  0  0  0  0  0  0  0
   -3.8184    5.6830  -17.4473 C   0  0  0  0  0  0  0  0  0  0  0  0
   -5.1666    5.7107  -18.2074 C   0  0  0  0  0  0  0  0  0  0  0  0
   -4.9790    4.8773  -19.4885 C   0  0  0  0  0  0  0  0  0  0  0  0
   -4.2843    5.7725  -20.3658 O   0  0  0  0  0  0  0  0  0  0  0  0
   -4.9108    7.0240  -20.1278 C   0  0  0  0  0  0  0  0  0  0  0  0
   -5.4108    7.0764  -18.7533 N   0  0  0  0  0  0  0  0  0  0  0  0
   -6.4070    7.2954  -18.7414 H   0  0  0  0  0  0  0  0  0  0  0  0
   -6.9497    1.8685  -13.5116 O   0  0  0  0  0  0  0  0  0  0  0  0
   -6.4577    2.9153  -13.3377 C   0  0  0  0  0  0  0  0  0  0  0  0
   -5.0289    3.2883  -12.8448 N   0  0  0  0  0  0  0  0  0  0  0  0
   -4.8788    4.2513  -12.7062 H   0  0  0  0  0  0  0  0  0  0  0  0
   -3.8878    2.4505  -12.5577 C   0  0  0  0  0  0  0  0  0  0  0  0
   -3.3305    1.8404  -13.8328 C   0  0  0  0  0  0  0  0  0  0  0  0
   -3.4370    2.7527  -14.8419 F   0  0  0  0  0  0  0  0  0  0  0  0
   -2.0060    1.5816  -13.7082 F   0  0  0  0  0  0  0  0  0  0  0  0
   -8.5843    4.2274  -12.9488 N   0  0  0  0  0  0  0  0  0  0  0  0
   -9.3998    4.1435  -13.4940 H   0  0  0  0  0  0  0  0  0  0  0  0
   -8.6296    4.2605  -11.5318 C   0  0  0  0  0  0  0  0  0  0  0  0
   -8.3424    5.4631  -10.8491 C   0  0  0  0  0  0  0  0  0  0  0  0
   -8.2482    5.5064   -9.4561 C   0  0  0  0  0  0  0  0  0  0  0  0
   -8.4856    4.3405   -8.7525 C   0  0  0  0  0  0  0  0  0  0  0  0
   -8.8002    3.1582   -9.4083 C   0  0  0  0  0  0  0  0  0  0  0  0
   -8.8583    3.0942  -10.7916 C   0  0  0  0  0  0  0  0  0  0  0  0
   -9.0560    2.0801   -8.4109 C   0  0  0  0  0  0  0  0  0  0  0  0
   -8.8697    2.7005   -7.0723 N   0  0  0  0  0  0  0  0  0  0  0  0
   -8.5056    4.1159   -7.2811 C   0  0  0  0  0  0  0  0  0  0  0  0
   -8.1243    2.2208   -6.5676 H   0  0  0  0  0  0  0  0  0  0  0  0
 20 21  2  0  0  0
 21 22  1  0  0  0
 22 24  1  0  0  0
 24 25  1  0  0  0
 25 26  1  0  0  0
 25 27  1  0  0  0
 21  1  1  0  0  0
  1  2  1  0  0  0
  1 28  1  0  0  0
 28 30  1  0  0  0
 30 31  2  0  0  0
 31 32  1  0  0  0
 32 33  2  0  0  0
 33 34  1  0  0  0
 34 35  2  0  0  0
 34 36  1  0  0  0
 36 37  1  0  0  0
 37 38  1  0  0  0
  1  4  1  0  0  0
  4  5  2  0  0  0
  5  6  1  0  0  0
  6  7  1  0  0  0
  6  8  2  0  0  0
  8  9  1  0  0  0
  9 10  2  0  0  0
 10 11  1  0  0  0
 11 12  1  0  0  0
 12 13  1  0  0  0
 14 13  1  0  0  0
 14 15  1  0  0  0
 15 16  1  0  0  0
 16 17  1  0  0  0
 17 18  1  0  0  0
 35 30  1  0  0  0
 10  4  1  0  0  0
 18 14  1  0  0  0
 38 33  1  0  0  0
 14  9  1  0  0  0
 22 23  1  0  0  0
  2  3  1  0  0  0
 28 29  1  0  0  0
 37 39  1  0  0  0
 18 19  1  0  0  0
M  END
> <minimizedAffinity>
-9.96406

> <minimizedRMSD>
0.30979

$$$$
P21988


 37 42  0  0  0  0  0  0  0  0999 V2000
   -4.0581    6.5858  -21.6083 C   0  0  0  0  0  0  0  0  0  0  0  0
   -4.0871    5.0599  -21.4485 C   0  0  0  0  0  0  0  0  0  0  0  0
   -5.3274    4.6219  -20.6743 C   0  0  0  0  0  0  0  0  0  0  0  0
   -5.3981    5.2597  -19.2653 C   0  0  0  0  0  0  0  0  0  0  0  0
   -5.4758    6.7897  -19.4919 C   0  0  0  0  0  0  0  0  0  0  0  0
   -4.2675    7.3211  -20.2722 C   0  0  0  0  0  0  0  0  0  0  0  0
   -4.1571    4.9184  -18.4887 N   0  0  0  0  0  0  0  0  0  0  0  0
   -4.0935    5.4722  -17.1213 C   0  0  0  0  0  0  0  0  0  0  0  0
   -5.3242    5.1558  -16.3209 C   0  0  0  0  0  0  0  0  0  0  0  0
   -5.3727    5.2701  -14.9325 C   0  0  0  0  0  0  0  0  0  0  0  0
   -6.5582    4.9977  -14.2561 C   0  0  0  0  0  0  0  0  0  0  0  0
   -7.7134    4.6037  -14.9590 C   0  0  0  0  0  0  0  0  0  0  0  0
   -9.2103    4.4800  -14.1459 Cl  0  0  0  0  0  0  0  0  0  0  0  0
   -7.6510    4.4448  -16.3581 C   0  0  0  0  0  0  0  0  0  0  0  0
   -8.8246    3.9046  -17.5078 S   0  0  0  0  0  0  0  0  0  0  0  0
   -7.8158    4.2773  -18.8453 C   0  0  0  0  0  0  0  0  0  0  0  0
   -6.5841    4.7539  -18.4536 C   0  0  0  0  0  0  0  0  0  0  0  0
   -6.4820    4.7737  -17.0255 C   0  0  0  0  0  0  0  0  0  0  0  0
   -3.3535    5.2710  -19.0087 H   0  0  0  0  0  0  0  0  0  0  0  0
   -1.6813    6.1282  -22.3669 N   0  0  0  0  0  0  0  0  0  0  0  0
   -2.7991    7.0616  -22.3546 C   0  0  0  0  0  0  0  0  0  0  0  0
   -0.9026    6.5370  -22.8835 H   0  0  0  0  0  0  0  0  0  0  0  0
   -1.9689    5.2592  -22.8169 H   0  0  0  0  0  0  0  0  0  0  0  0
   -6.5774    5.2722  -12.7896 C   0  0  0  0  0  0  0  0  0  0  0  0
   -6.0995    6.2700  -12.4131 O   0  0  0  0  0  0  0  0  0  0  0  0
   -7.3068    4.1521  -12.0090 N   0  0  0  0  0  0  0  0  0  0  0  0
   -7.5539    3.3670  -12.5493 H   0  0  0  0  0  0  0  0  0  0  0  0
   -7.6700    4.0742  -10.6692 C   0  0  0  0  0  0  0  0  0  0  0  0
   -7.6001    5.1993   -9.8343 C   0  0  0  0  0  0  0  0  0  0  0  0
   -8.0148    5.1269   -8.5022 C   0  0  0  0  0  0  0  0  0  0  0  0
   -8.4733    3.9133   -8.0271 C   0  0  0  0  0  0  0  0  0  0  0  0
   -8.5491    2.7980   -8.8539 C   0  0  0  0  0  0  0  0  0  0  0  0
   -8.1696    2.8616  -10.1834 C   0  0  0  0  0  0  0  0  0  0  0  0
   -9.0890    1.6451   -8.0800 C   0  0  0  0  0  0  0  0  0  0  0  0
   -9.0899    2.0803   -6.6590 N   0  0  0  0  0  0  0  0  0  0  0  0
   -8.9679    3.5539   -6.6699 C   0  0  0  0  0  0  0  0  0  0  0  0
   -8.3012    1.6653   -6.1630 H   0  0  0  0  0  0  0  0  0  0  0  0
 20 21  1  0  0  0
  1 21  1  0  0  0
  1  2  1  0  0  0
  2  3  1  0  0  0
  4  3  1  0  0  0
  4  5  1  0  0  0
  5  6  1  0  0  0
  4  7  1  0  0  0
  7  8  1  0  0  0
  8  9  1  0  0  0
  9 10  2  0  0  0
 10 11  1  0  0  0
 11 24  1  0  0  0
 24 25  2  0  0  0
 24 26  1  0  0  0
 26 28  1  0  0  0
 28 29  2  0  0  0
 29 30  1  0  0  0
 30 31  2  0  0  0
 31 32  1  0  0  0
 32 33  2  0  0  0
 32 34  1  0  0  0
 34 35  1  0  0  0
 35 36  1  0  0  0
 11 12  2  0  0  0
 12 13  1  0  0  0
 12 14  1  0  0  0
 14 15  1  0  0  0
 15 16  1  0  0  0
 16 17  2  0  0  0
 17 18  1  0  0  0
  6  1  1  0  0  0
 18  9  1  0  0  0
 17  4  1  0  0  0
 33 28  1  0  0  0
 18 14  2  0  0  0
 36 31  1  0  0  0
 20 22  1  0  0  0
 20 23  1  0  0  0
  7 19  1  0  0  0
 26 27  1  0  0  0
 35 37  1  0  0  0
M  END
> <minimizedAffinity>
-9.23995

> <minimizedRMSD>
0.27849

$$$$
P21992


 38 43  0  0  0  0  0  0  0  0999 V2000
   -3.8749    6.2479  -21.2350 C   0  0  0  0  0  0  0  0  0  0  0  0
   -4.8968    5.2905  -21.8327 C   0  0  0  0  0  0  0  0  0  0  0  0
   -5.5061    4.3992  -20.7467 C   0  0  0  0  0  0  0  0  0  0  0  0
   -5.7470    5.0839  -19.3635 C   0  0  0  0  0  0  0  0  0  0  0  0
   -5.8424    6.6089  -19.5998 C   0  0  0  0  0  0  0  0  0  0  0  0
   -4.5836    7.2098  -20.2588 C   0  0  0  0  0  0  0  0  0  0  0  0
   -4.5727    4.8265  -18.4389 N   0  0  0  0  0  0  0  0  0  0  0  0
   -4.7266    5.4425  -17.1178 N   0  0  0  0  0  0  0  0  0  0  0  0
   -5.9159    5.0685  -16.4443 C   0  0  0  0  0  0  0  0  0  0  0  0
   -6.1290    5.2885  -15.0893 C   0  0  0  0  0  0  0  0  0  0  0  0
   -7.3209    4.8714  -14.4882 C   0  0  0  0  0  0  0  0  0  0  0  0
   -8.3313    4.2324  -15.2223 C   0  0  0  0  0  0  0  0  0  0  0  0
   -8.1447    4.1204  -16.6102 C   0  0  0  0  0  0  0  0  0  0  0  0
   -9.2029    3.5073  -17.8154 S   0  0  0  0  0  0  0  0  0  0  0  0
   -8.1428    3.9533  -19.0875 C   0  0  0  0  0  0  0  0  0  0  0  0
   -6.9690    4.5116  -18.6368 C   0  0  0  0  0  0  0  0  0  0  0  0
   -6.9762    4.5632  -17.2069 C   0  0  0  0  0  0  0  0  0  0  0  0
   -3.7300    5.2015  -18.8744 H   0  0  0  0  0  0  0  0  0  0  0  0
   -4.0635    6.0602  -16.7331 H   0  0  0  0  0  0  0  0  0  0  0  0
   -1.7156    6.4563  -22.4210 N   0  0  0  0  0  0  0  0  0  0  0  0
   -3.0766    6.9716  -22.3241 C   0  0  0  0  0  0  0  0  0  0  0  0
   -1.2133    6.9584  -23.1532 H   0  0  0  0  0  0  0  0  0  0  0  0
   -1.7437    5.4624  -22.6481 H   0  0  0  0  0  0  0  0  0  0  0  0
   -7.5216    5.2449  -13.0654 C   0  0  0  0  0  0  0  0  0  0  0  0
   -7.3164    6.3558  -12.7683 O   0  0  0  0  0  0  0  0  0  0  0  0
   -7.9854    4.0469  -12.2053 N   0  0  0  0  0  0  0  0  0  0  0  0
   -8.1615    3.2205  -12.7106 H   0  0  0  0  0  0  0  0  0  0  0  0
   -8.1951    3.9463  -10.8299 C   0  0  0  0  0  0  0  0  0  0  0  0
   -7.9490    5.0437   -9.9874 C   0  0  0  0  0  0  0  0  0  0  0  0
   -8.1519    4.9446   -8.6084 C   0  0  0  0  0  0  0  0  0  0  0  0
   -7.7619    6.4187   -7.4961 Br  0  0  0  0  0  0  0  0  0  0  0  0
   -8.6186    3.7542   -8.0891 C   0  0  0  0  0  0  0  0  0  0  0  0
   -8.8311    2.6558   -8.9205 C   0  0  0  0  0  0  0  0  0  0  0  0
   -8.6304    2.7327  -10.2911 C   0  0  0  0  0  0  0  0  0  0  0  0
   -9.2239    1.4855   -8.0806 C   0  0  0  0  0  0  0  0  0  0  0  0
   -9.6532    2.0707   -6.7868 N   0  0  0  0  0  0  0  0  0  0  0  0
   -8.9465    3.3689   -6.6857 C   0  0  0  0  0  0  0  0  0  0  0  0
   -9.3887    1.4597   -6.0140 H   0  0  0  0  0  0  0  0  0  0  0  0
 20 21  1  0  0  0
  1 21  1  0  0  0
  1  2  1  0  0  0
  2  3  1  0  0  0
  4  3  1  0  0  0
  4  5  1  0  0  0
  5  6  1  0  0  0
  4  7  1  0  0  0
  7  8  1  0  0  0
  8  9  1  0  0  0
  9 10  2  0  0  0
 10 11  1  0  0  0
 11 24  1  0  0  0
 24 25  2  0  0  0
 24 26  1  0  0  0
 26 28  1  0  0  0
 28 29  2  0  0  0
 29 30  1  0  0  0
 30 31  1  0  0  0
 30 32  2  0  0  0
 32 33  1  0  0  0
 33 34  2  0  0  0
 33 35  1  0  0  0
 35 36  1  0  0  0
 36 37  1  0  0  0
 11 12  2  0  0  0
 12 13  1  0  0  0
 13 14  1  0  0  0
 14 15  1  0  0  0
 15 16  2  0  0  0
 16 17  1  0  0  0
  6  1  1  0  0  0
 17  9  1  0  0  0
 16  4  1  0  0  0
 34 28  1  0  0  0
 17 13  2  0  0  0
 37 32  1  0  0  0
 20 22  1  0  0  0
 20 23  1  0  0  0
  7 18  1  0  0  0
  8 19  1  0  0  0
 26 27  1  0  0  0
 36 38  1  0  0  0
M  END
> <minimizedAffinity>
-10.22617

> <minimizedRMSD>
0.35802

$$$$
P21998


 39 44  0  0  0  0  0  0  0  0999 V2000
   -4.3693    6.4690  -21.8335 C   0  0  0  0  0  0  0  0  0  0  0  0
   -4.3573    4.9449  -21.6452 C   0  0  0  0  0  0  0  0  0  0  0  0
   -5.5692    4.4779  -20.8413 C   0  0  0  0  0  0  0  0  0  0  0  0
   -5.6591    5.1596  -19.4552 C   0  0  0  0  0  0  0  0  0  0  0  0
   -5.7745    6.6788  -19.7143 C   0  0  0  0  0  0  0  0  0  0  0  0
   -4.5842    7.2242  -20.5100 C   0  0  0  0  0  0  0  0  0  0  0  0
   -4.4016    4.8776  -18.6920 N   0  0  0  0  0  0  0  0  0  0  0  0
   -4.3326    5.4556  -17.3332 C   0  0  0  0  0  0  0  0  0  0  0  0
   -5.5331    5.0948  -16.4989 C   0  0  0  0  0  0  0  0  0  0  0  0
   -5.5607    5.1971  -15.1041 C   0  0  0  0  0  0  0  0  0  0  0  0
   -6.7270    4.8987  -14.3952 C   0  0  0  0  0  0  0  0  0  0  0  0
   -7.8879    4.5032  -15.0861 C   0  0  0  0  0  0  0  0  0  0  0  0
   -9.3795    4.3950  -14.2595 Cl  0  0  0  0  0  0  0  0  0  0  0  0
   -7.8444    4.3394  -16.4883 C   0  0  0  0  0  0  0  0  0  0  0  0
   -9.0323    3.7798  -17.6144 S   0  0  0  0  0  0  0  0  0  0  0  0
   -8.0499    4.1454  -18.9725 C   0  0  0  0  0  0  0  0  0  0  0  0
   -6.8184    4.6434  -18.6093 C   0  0  0  0  0  0  0  0  0  0  0  0
   -6.6931    4.6812  -17.1806 C   0  0  0  0  0  0  0  0  0  0  0  0
   -3.6185    5.2483  -19.2303 H   0  0  0  0  0  0  0  0  0  0  0  0
   -1.8617    6.5948  -21.9658 N   0  0  0  0  0  0  0  0  0  0  0  0
   -3.1224    6.9663  -22.5869 C   0  0  0  0  0  0  0  0  0  0  0  0
   -1.0883    6.9593  -22.5219 H   0  0  0  0  0  0  0  0  0  0  0  0
   -1.7944    5.5783  -21.9149 H   0  0  0  0  0  0  0  0  0  0  0  0
   -6.7167    5.1587  -12.9159 C   0  0  0  0  0  0  0  0  0  0  0  0
   -6.1523    6.1144  -12.5457 O   0  0  0  0  0  0  0  0  0  0  0  0
   -7.5102    4.0868  -12.1197 N   0  0  0  0  0  0  0  0  0  0  0  0
   -7.8323    3.3280  -12.6580 H   0  0  0  0  0  0  0  0  0  0  0  0
   -7.8409    4.0244  -10.7645 C   0  0  0  0  0  0  0  0  0  0  0  0
   -7.7913    5.1728   -9.9583 C   0  0  0  0  0  0  0  0  0  0  0  0
   -8.1391    5.1051   -8.6089 C   0  0  0  0  0  0  0  0  0  0  0  0
   -8.0697    6.2071   -7.8517 F   0  0  0  0  0  0  0  0  0  0  0  0
   -8.5218    3.8922   -8.0858 C   0  0  0  0  0  0  0  0  0  0  0  0
   -8.5823    2.7419   -8.8715 C   0  0  0  0  0  0  0  0  0  0  0  0
   -8.2614    2.7968  -10.2229 C   0  0  0  0  0  0  0  0  0  0  0  0
   -8.9691    1.5759   -8.0223 C   0  0  0  0  0  0  0  0  0  0  0  0
   -9.1877    2.1844   -6.7289 N   0  0  0  0  0  0  0  0  0  0  0  0
   -8.8752    3.5277   -6.7102 C   0  0  0  0  0  0  0  0  0  0  0  0
   -8.8709    4.2585   -5.7383 O   0  0  0  0  0  0  0  0  0  0  0  0
   -9.5237    1.6923   -5.9451 H   0  0  0  0  0  0  0  0  0  0  0  0
 20 21  1  0  0  0
  1 21  1  0  0  0
  1  2  1  0  0  0
  2  3  1  0  0  0
  4  3  1  0  0  0
  4  5  1  0  0  0
  5  6  1  0  0  0
  4  7  1  0  0  0
  7  8  1  0  0  0
  8  9  1  0  0  0
  9 10  2  0  0  0
 10 11  1  0  0  0
 11 24  1  0  0  0
 24 25  2  0  0  0
 24 26  1  0  0  0
 26 28  1  0  0  0
 28 29  2  0  0  0
 29 30  1  0  0  0
 30 31  1  0  0  0
 30 32  2  0  0  0
 32 33  1  0  0  0
 33 34  2  0  0  0
 33 35  1  0  0  0
 35 36  1  0  0  0
 36 37  1  0  0  0
 37 38  2  0  0  0
 11 12  2  0  0  0
 12 13  1  0  0  0
 12 14  1  0  0  0
 14 15  1  0  0  0
 15 16  1  0  0  0
 16 17  2  0  0  0
 17 18  1  0  0  0
  6  1  1  0  0  0
 18  9  1  0  0  0
 17  4  1  0  0  0
 34 28  1  0  0  0
 18 14  2  0  0  0
 37 32  1  0  0  0
 20 22  1  0  0  0
 20 23  1  0  0  0
  7 19  1  0  0  0
 26 27  1  0  0  0
 36 39  1  0  0  0
M  END
> <minimizedAffinity>
-9.54187

> <minimizedRMSD>
0.31572

$$$$
P22020


 37 42  0  0  0  0  0  0  0  0999 V2000
   -4.2921    6.6519  -21.2442 C   0  0  0  0  0  0  0  0  0  0  0  0
   -4.2672    5.1252  -21.1036 C   0  0  0  0  0  0  0  0  0  0  0  0
   -5.5063    4.6414  -20.3574 C   0  0  0  0  0  0  0  0  0  0  0  0
   -5.6240    5.2463  -18.9346 C   0  0  0  0  0  0  0  0  0  0  0  0
   -5.7321    6.7773  -19.1344 C   0  0  0  0  0  0  0  0  0  0  0  0
   -4.5275    7.3542  -19.8941 C   0  0  0  0  0  0  0  0  0  0  0  0
   -4.3906    4.9387  -18.1367 N   0  0  0  0  0  0  0  0  0  0  0  0
   -4.3839    5.4838  -16.7534 C   0  0  0  0  0  0  0  0  0  0  0  0
   -5.6201    5.1178  -15.9815 C   0  0  0  0  0  0  0  0  0  0  0  0
   -5.7465    5.2289  -14.5993 C   0  0  0  0  0  0  0  0  0  0  0  0
   -6.9330    4.8356  -13.9694 C   0  0  0  0  0  0  0  0  0  0  0  0
   -8.0065    4.2849  -14.6908 C   0  0  0  0  0  0  0  0  0  0  0  0
   -7.8835    4.2280  -16.0893 C   0  0  0  0  0  0  0  0  0  0  0  0
   -8.9930    3.6611  -17.2796 S   0  0  0  0  0  0  0  0  0  0  0  0
   -7.9452    4.0721  -18.5464 C   0  0  0  0  0  0  0  0  0  0  0  0
   -8.1969    3.8032  -19.8299 F   0  0  0  0  0  0  0  0  0  0  0  0
   -6.7878    4.6762  -18.1438 C   0  0  0  0  0  0  0  0  0  0  0  0
   -6.7329    4.6840  -16.7165 C   0  0  0  0  0  0  0  0  0  0  0  0
   -3.5881    5.3260  -18.6331 H   0  0  0  0  0  0  0  0  0  0  0  0
   -1.9447    6.2467  -22.1159 N   0  0  0  0  0  0  0  0  0  0  0  0
   -3.0538    7.1814  -21.9885 C   0  0  0  0  0  0  0  0  0  0  0  0
   -1.1798    6.6935  -22.6216 H   0  0  0  0  0  0  0  0  0  0  0  0
   -2.2537    5.4203  -22.6278 H   0  0  0  0  0  0  0  0  0  0  0  0
   -7.0540    5.1368  -12.5198 C   0  0  0  0  0  0  0  0  0  0  0  0
   -6.4747    6.0655  -12.1127 O   0  0  0  0  0  0  0  0  0  0  0  0
   -7.9505    4.1154  -11.7861 N   0  0  0  0  0  0  0  0  0  0  0  0
   -8.3921    3.4590  -12.3720 H   0  0  0  0  0  0  0  0  0  0  0  0
   -8.2364    3.9718  -10.4290 C   0  0  0  0  0  0  0  0  0  0  0  0
   -8.1260    5.0695   -9.5570 C   0  0  0  0  0  0  0  0  0  0  0  0
   -8.4063    4.9386   -8.1941 C   0  0  0  0  0  0  0  0  0  0  0  0
   -8.8022    3.7000   -7.7298 C   0  0  0  0  0  0  0  0  0  0  0  0
   -8.9003    2.6063   -8.5870 C   0  0  0  0  0  0  0  0  0  0  0  0
   -8.6252    2.7219   -9.9404 C   0  0  0  0  0  0  0  0  0  0  0  0
   -9.2902    1.4053   -7.7900 C   0  0  0  0  0  0  0  0  0  0  0  0
   -9.8146    1.9494   -6.5100 N   0  0  0  0  0  0  0  0  0  0  0  0
   -9.1688    3.2718   -6.3492 C   0  0  0  0  0  0  0  0  0  0  0  0
   -9.5679    1.3353   -5.7338 H   0  0  0  0  0  0  0  0  0  0  0  0
 20 21  1  0  0  0
  1 21  1  0  0  0
  1  2  1  0  0  0
  2  3  1  0  0  0
  4  3  1  0  0  0
  4  5  1  0  0  0
  5  6  1  0  0  0
  4  7  1  0  0  0
  7  8  1  0  0  0
  8  9  1  0  0  0
  9 10  2  0  0  0
 10 11  1  0  0  0
 11 24  1  0  0  0
 24 25  2  0  0  0
 24 26  1  0  0  0
 26 28  1  0  0  0
 28 29  2  0  0  0
 29 30  1  0  0  0
 30 31  2  0  0  0
 31 32  1  0  0  0
 32 33  2  0  0  0
 32 34  1  0  0  0
 34 35  1  0  0  0
 35 36  1  0  0  0
 11 12  2  0  0  0
 12 13  1  0  0  0
 13 14  1  0  0  0
 14 15  1  0  0  0
 15 16  1  0  0  0
 15 17  2  0  0  0
 17 18  1  0  0  0
  6  1  1  0  0  0
 18  9  1  0  0  0
 17  4  1  0  0  0
 33 28  1  0  0  0
 18 13  2  0  0  0
 36 31  1  0  0  0
 20 22  1  0  0  0
 20 23  1  0  0  0
  7 19  1  0  0  0
 26 27  1  0  0  0
 35 37  1  0  0  0
M  END
> <minimizedAffinity>
-10.27156

> <minimizedRMSD>
0.61940

$$$$
P22065


 37 41  0  0  0  0  0  0  0  0999 V2000
   -7.2863    4.7628  -13.6657 C   0  0  0  0  0  0  0  0  0  0  0  0
   -5.9891    4.2837  -13.3497 O   0  0  0  0  0  0  0  0  0  0  0  0
   -5.8361    4.3697  -12.3957 H   0  0  0  0  0  0  0  0  0  0  0  0
   -7.4727    4.6033  -15.1804 C   0  0  0  0  0  0  0  0  0  0  0  0
   -8.6967    4.1904  -15.7615 C   0  0  0  0  0  0  0  0  0  0  0  0
   -8.8647    4.0821  -17.1427 C   0  0  0  0  0  0  0  0  0  0  0  0
  -10.3963    3.7007  -17.7945 Cl  0  0  0  0  0  0  0  0  0  0  0  0
   -7.8364    4.3584  -18.0319 C   0  0  0  0  0  0  0  0  0  0  0  0
   -6.6045    4.7532  -17.5094 C   0  0  0  0  0  0  0  0  0  0  0  0
   -5.3793    5.0954  -18.0904 C   0  0  0  0  0  0  0  0  0  0  0  0
   -4.4917    5.3403  -17.0880 C   0  0  0  0  0  0  0  0  0  0  0  0
   -5.1051    5.2111  -15.8916 N   0  0  0  0  0  0  0  0  0  0  0  0
   -6.4357    4.8566  -16.1147 C   0  0  0  0  0  0  0  0  0  0  0  0
   -3.1202    5.6299  -17.5357 C   0  0  0  0  0  0  0  0  0  0  0  0
   -3.2270    5.2093  -19.0436 C   0  0  0  0  0  0  0  0  0  0  0  0
   -4.7494    5.2161  -19.4194 C   0  0  0  0  0  0  0  0  0  0  0  0
   -4.6845    5.3443  -15.0114 H   0  0  0  0  0  0  0  0  0  0  0  0
   -8.4503    6.9064  -13.3549 O   0  0  0  0  0  0  0  0  0  0  0  0
   -7.4406    6.3167  -13.2918 C   0  0  0  0  0  0  0  0  0  0  0  0
   -6.0277    6.7802  -12.8203 N   0  0  0  0  0  0  0  0  0  0  0  0
   -5.3492    6.0676  -12.7886 H   0  0  0  0  0  0  0  0  0  0  0  0
   -5.5555    8.0800  -12.4244 C   0  0  0  0  0  0  0  0  0  0  0  0
   -5.8835    8.3643  -10.9651 C   0  0  0  0  0  0  0  0  0  0  0  0
   -7.1462    9.1936  -10.8410 C   0  0  0  0  0  0  0  0  0  0  0  0
   -8.1918    8.3808  -10.5371 F   0  0  0  0  0  0  0  0  0  0  0  0
   -8.2698    3.9533  -12.9270 N   0  0  0  0  0  0  0  0  0  0  0  0
   -8.9396    3.4240  -13.4173 H   0  0  0  0  0  0  0  0  0  0  0  0
   -8.2517    3.9364  -11.5183 C   0  0  0  0  0  0  0  0  0  0  0  0
   -7.9764    5.0879  -10.7539 C   0  0  0  0  0  0  0  0  0  0  0  0
   -8.0730    5.0813   -9.3585 C   0  0  0  0  0  0  0  0  0  0  0  0
   -8.4721    3.9157   -8.7357 C   0  0  0  0  0  0  0  0  0  0  0  0
   -8.7547    2.7752   -9.4720 C   0  0  0  0  0  0  0  0  0  0  0  0
   -8.6422    2.7648  -10.8559 C   0  0  0  0  0  0  0  0  0  0  0  0
   -9.2140    1.6929   -8.5554 C   0  0  0  0  0  0  0  0  0  0  0  0
   -9.1893    2.2623   -7.1802 N   0  0  0  0  0  0  0  0  0  0  0  0
   -8.7310    3.6620   -7.2924 C   0  0  0  0  0  0  0  0  0  0  0  0
   -8.5463    1.7304   -6.5937 H   0  0  0  0  0  0  0  0  0  0  0  0
 18 19  2  0  0  0
 19 20  1  0  0  0
 20 22  1  0  0  0
 22 23  1  0  0  0
 23 24  1  0  0  0
 24 25  1  0  0  0
 19  1  1  0  0  0
  1  2  1  0  0  0
  1 26  1  0  0  0
 26 28  1  0  0  0
 28 29  2  0  0  0
 29 30  1  0  0  0
 30 31  2  0  0  0
 31 32  1  0  0  0
 32 33  2  0  0  0
 32 34  1  0  0  0
 34 35  1  0  0  0
 35 36  1  0  0  0
  1  4  1  0  0  0
  4  5  2  0  0  0
  5  6  1  0  0  0
  6  7  1  0  0  0
  6  8  2  0  0  0
  8  9  1  0  0  0
  9 10  1  0  0  0
 10 11  2  0  0  0
 11 12  1  0  0  0
 12 13  1  0  0  0
 11 14  1  0  0  0
 14 15  1  0  0  0
 15 16  1  0  0  0
 33 28  1  0  0  0
 13  4  1  0  0  0
 36 31  1  0  0  0
 13  9  2  0  0  0
 16 10  1  0  0  0
 20 21  1  0  0  0
  2  3  1  0  0  0
 26 27  1  0  0  0
 35 37  1  0  0  0
 12 17  1  0  0  0
M  END
> <minimizedAffinity>
-8.81982

> <minimizedRMSD>
1.19074

$$$$
P22066


 31 35  0  0  0  0  0  0  0  0999 V2000
   -5.6441    6.3340  -20.3451 N   0  0  0  0  0  0  0  0  0  0  0  0
   -4.8933    5.2408  -19.7463 C   0  0  0  0  0  0  0  0  0  0  0  0
   -3.3878    5.5954  -19.4597 C   0  0  0  0  0  0  0  0  0  0  0  0
   -3.2432    5.9206  -17.9303 C   0  0  0  0  0  0  0  0  0  0  0  0
   -4.5249    5.4106  -17.4192 C   0  0  0  0  0  0  0  0  0  0  0  0
   -5.0853    5.2819  -16.1948 N   0  0  0  0  0  0  0  0  0  0  0  0
   -6.3906    4.8315  -16.3680 C   0  0  0  0  0  0  0  0  0  0  0  0
   -7.4002    4.5905  -15.4212 C   0  0  0  0  0  0  0  0  0  0  0  0
   -8.6608    4.2120  -15.8982 C   0  0  0  0  0  0  0  0  0  0  0  0
   -8.8841    4.0964  -17.2689 C   0  0  0  0  0  0  0  0  0  0  0  0
  -10.4766    3.9042  -17.8572 Cl  0  0  0  0  0  0  0  0  0  0  0  0
   -7.8721    4.2845  -18.2057 C   0  0  0  0  0  0  0  0  0  0  0  0
   -6.6086    4.6671  -17.7463 C   0  0  0  0  0  0  0  0  0  0  0  0
   -5.4176    5.0359  -18.3801 C   0  0  0  0  0  0  0  0  0  0  0  0
   -5.3047    6.5008  -21.2924 H   0  0  0  0  0  0  0  0  0  0  0  0
   -5.5200    7.1780  -19.7860 H   0  0  0  0  0  0  0  0  0  0  0  0
   -4.6474    5.4729  -15.3340 H   0  0  0  0  0  0  0  0  0  0  0  0
   -7.1658    4.9021  -13.9865 C   0  0  0  0  0  0  0  0  0  0  0  0
   -6.4136    5.7590  -13.7295 O   0  0  0  0  0  0  0  0  0  0  0  0
   -8.0057    3.9932  -13.0581 N   0  0  0  0  0  0  0  0  0  0  0  0
   -8.5122    3.2871  -13.5209 H   0  0  0  0  0  0  0  0  0  0  0  0
   -8.1620    4.0113  -11.6738 C   0  0  0  0  0  0  0  0  0  0  0  0
   -7.9020    5.1719  -10.9286 C   0  0  0  0  0  0  0  0  0  0  0  0
   -8.0647    5.1830   -9.5393 C   0  0  0  0  0  0  0  0  0  0  0  0
   -8.4668    4.0158   -8.9172 C   0  0  0  0  0  0  0  0  0  0  0  0
   -8.7233    2.8655   -9.6510 C   0  0  0  0  0  0  0  0  0  0  0  0
   -8.5893    2.8463  -11.0307 C   0  0  0  0  0  0  0  0  0  0  0  0
   -9.1538    1.7752   -8.7313 C   0  0  0  0  0  0  0  0  0  0  0  0
   -8.9814    2.3015   -7.3501 N   0  0  0  0  0  0  0  0  0  0  0  0
   -8.7200    3.7522   -7.4741 C   0  0  0  0  0  0  0  0  0  0  0  0
   -8.1938    1.8405   -6.8946 H   0  0  0  0  0  0  0  0  0  0  0  0
  2  1  1  0  0  0
  2  3  1  0  0  0
  3  4  1  0  0  0
  4  5  1  0  0  0
  5  6  1  0  0  0
  6  7  1  0  0  0
  7  8  2  0  0  0
  8 18  1  0  0  0
 18 19  2  0  0  0
 18 20  1  0  0  0
 20 22  1  0  0  0
 22 23  2  0  0  0
 23 24  1  0  0  0
 24 25  2  0  0  0
 25 26  1  0  0  0
 26 27  2  0  0  0
 26 28  1  0  0  0
 28 29  1  0  0  0
 29 30  1  0  0  0
  8  9  1  0  0  0
  9 10  2  0  0  0
 10 11  1  0  0  0
 10 12  1  0  0  0
 12 13  2  0  0  0
 13 14  1  0  0  0
 14  2  1  0  0  0
 14  5  2  0  0  0
 13  7  1  0  0  0
 27 22  1  0  0  0
 30 25  1  0  0  0
  1 15  1  0  0  0
  1 16  1  0  0  0
  6 17  1  0  0  0
 20 21  1  0  0  0
 29 31  1  0  0  0
M  END
> <minimizedAffinity>
-10.36070

> <minimizedRMSD>
0.26363

$$$$
P22068


 32 36  0  0  0  0  0  0  0  0999 V2000
   -4.7980    5.4014  -19.6836 C   0  0  0  0  0  0  0  0  0  0  0  0
   -3.2804    5.6390  -19.3106 C   0  0  0  0  0  0  0  0  0  0  0  0
   -3.2082    5.8671  -17.7648 C   0  0  0  0  0  0  0  0  0  0  0  0
   -4.5210    5.3524  -17.3511 C   0  0  0  0  0  0  0  0  0  0  0  0
   -5.1453    5.2045  -16.1636 N   0  0  0  0  0  0  0  0  0  0  0  0
   -6.4551    4.8129  -16.4174 C   0  0  0  0  0  0  0  0  0  0  0  0
   -7.5308    4.6437  -15.5322 C   0  0  0  0  0  0  0  0  0  0  0  0
   -8.7688    4.2444  -16.0548 C   0  0  0  0  0  0  0  0  0  0  0  0
   -8.9099    4.0529  -17.4240 C   0  0  0  0  0  0  0  0  0  0  0  0
  -10.4424    3.7356  -18.1165 Cl  0  0  0  0  0  0  0  0  0  0  0  0
   -7.8485    4.2487  -18.3012 C   0  0  0  0  0  0  0  0  0  0  0  0
   -6.6005    4.6459  -17.8025 C   0  0  0  0  0  0  0  0  0  0  0  0
   -5.3807    5.0555  -18.3660 C   0  0  0  0  0  0  0  0  0  0  0  0
   -4.7446    5.3483  -15.2759 H   0  0  0  0  0  0  0  0  0  0  0  0
   -7.3704    5.0639  -14.1192 C   0  0  0  0  0  0  0  0  0  0  0  0
   -6.8553    6.0897  -13.9065 O   0  0  0  0  0  0  0  0  0  0  0  0
   -7.9453    4.0145  -13.1485 N   0  0  0  0  0  0  0  0  0  0  0  0
   -8.2627    3.1870  -13.5771 H   0  0  0  0  0  0  0  0  0  0  0  0
   -8.0887    4.0457  -11.7671 C   0  0  0  0  0  0  0  0  0  0  0  0
   -7.8649    5.2288  -11.0425 C   0  0  0  0  0  0  0  0  0  0  0  0
   -8.0239    5.2586   -9.6543 C   0  0  0  0  0  0  0  0  0  0  0  0
   -8.4059    4.0924   -9.0204 C   0  0  0  0  0  0  0  0  0  0  0  0
   -8.6124    2.9175   -9.7382 C   0  0  0  0  0  0  0  0  0  0  0  0
   -8.4637    2.8739  -11.1117 C   0  0  0  0  0  0  0  0  0  0  0  0
   -8.9516    1.8212   -8.7866 C   0  0  0  0  0  0  0  0  0  0  0  0
   -9.3508    2.5156   -7.5342 N   0  0  0  0  0  0  0  0  0  0  0  0
   -8.6494    3.8197   -7.5740 C   0  0  0  0  0  0  0  0  0  0  0  0
   -9.0596    1.9774   -6.7181 H   0  0  0  0  0  0  0  0  0  0  0  0
   -4.9199    4.3872  -20.8055 C   0  0  0  0  0  0  0  0  0  0  0  0
   -4.3582    5.7753  -22.6625 C   0  0  0  0  0  0  0  0  0  0  0  0
   -5.3860    4.9423  -22.0594 N   0  0  0  0  0  0  0  0  0  0  0  0
   -5.6181    4.1812  -22.6975 H   0  0  0  0  0  0  0  0  0  0  0  0
 30 31  1  0  0  0
 31 29  1  0  0  0
  1 29  1  0  0  0
  1  2  1  0  0  0
  2  3  1  0  0  0
  3  4  1  0  0  0
  4  5  1  0  0  0
  5  6  1  0  0  0
  6  7  2  0  0  0
  7 15  1  0  0  0
 15 16  2  0  0  0
 15 17  1  0  0  0
 17 19  1  0  0  0
 19 20  2  0  0  0
 20 21  1  0  0  0
 21 22  2  0  0  0
 22 23  1  0  0  0
 23 24  2  0  0  0
 23 25  1  0  0  0
 25 26  1  0  0  0
 26 27  1  0  0  0
  7  8  1  0  0  0
  8  9  2  0  0  0
  9 10  1  0  0  0
  9 11  1  0  0  0
 11 12  2  0  0  0
 12 13  1  0  0  0
 13  1  1  0  0  0
 13  4  2  0  0  0
 12  6  1  0  0  0
 24 19  1  0  0  0
 27 22  1  0  0  0
 31 32  1  0  0  0
  5 14  1  0  0  0
 17 18  1  0  0  0
 26 28  1  0  0  0
M  END
> <minimizedAffinity>
-9.76056

> <minimizedRMSD>
0.96692

$$$$
P22072


 32 36  0  0  0  0  0  0  0  0999 V2000
   -3.3909    5.7664  -18.2401 C   0  0  0  0  0  0  0  0  0  0  0  0
   -3.5714    5.2127  -19.7100 C   0  0  0  0  0  0  0  0  0  0  0  0
   -5.1130    5.0551  -19.9519 C   0  0  0  0  0  0  0  0  0  0  0  0
   -5.6191    4.9520  -18.5700 C   0  0  0  0  0  0  0  0  0  0  0  0
   -4.6845    5.3399  -17.6592 C   0  0  0  0  0  0  0  0  0  0  0  0
   -5.1900    5.2592  -16.4059 N   0  0  0  0  0  0  0  0  0  0  0  0
   -6.5034    4.8158  -16.5053 C   0  0  0  0  0  0  0  0  0  0  0  0
   -7.4758    4.6051  -15.5138 C   0  0  0  0  0  0  0  0  0  0  0  0
   -8.7497    4.1984  -15.9273 C   0  0  0  0  0  0  0  0  0  0  0  0
   -9.0190    4.0096  -17.2780 C   0  0  0  0  0  0  0  0  0  0  0  0
  -10.6267    3.7414  -17.7708 Cl  0  0  0  0  0  0  0  0  0  0  0  0
   -8.0514    4.1780  -18.2637 C   0  0  0  0  0  0  0  0  0  0  0  0
   -6.7787    4.6039  -17.8721 C   0  0  0  0  0  0  0  0  0  0  0  0
   -4.7124    5.4760  -15.5727 H   0  0  0  0  0  0  0  0  0  0  0  0
   -7.2406    4.9848  -14.0961 C   0  0  0  0  0  0  0  0  0  0  0  0
   -6.7030    5.9989  -13.8748 O   0  0  0  0  0  0  0  0  0  0  0  0
   -7.8736    3.9525  -13.1304 N   0  0  0  0  0  0  0  0  0  0  0  0
   -8.2016    3.1310  -13.5625 H   0  0  0  0  0  0  0  0  0  0  0  0
   -8.0546    3.9973  -11.7482 C   0  0  0  0  0  0  0  0  0  0  0  0
   -7.8102    5.1646  -11.0087 C   0  0  0  0  0  0  0  0  0  0  0  0
   -8.0315    5.1962   -9.6259 C   0  0  0  0  0  0  0  0  0  0  0  0
   -8.4888    4.0467   -9.0076 C   0  0  0  0  0  0  0  0  0  0  0  0
   -8.7193    2.8852   -9.7360 C   0  0  0  0  0  0  0  0  0  0  0  0
   -8.5159    2.8434  -11.1052 C   0  0  0  0  0  0  0  0  0  0  0  0
   -9.1465    1.7998   -8.8039 C   0  0  0  0  0  0  0  0  0  0  0  0
   -9.5189    2.4957   -7.5432 N   0  0  0  0  0  0  0  0  0  0  0  0
   -8.7836    3.7810   -7.5693 C   0  0  0  0  0  0  0  0  0  0  0  0
   -9.2393    1.9413   -6.7340 H   0  0  0  0  0  0  0  0  0  0  0  0
   -2.1540    5.1813  -17.5561 C   0  0  0  0  0  0  0  0  0  0  0  0
   -1.8175    6.9289  -15.8942 C   0  0  0  0  0  0  0  0  0  0  0  0
   -2.0272    5.5062  -16.1244 N   0  0  0  0  0  0  0  0  0  0  0  0
   -2.8815    5.2195  -15.6465 H   0  0  0  0  0  0  0  0  0  0  0  0
 30 31  1  0  0  0
 31 29  1  0  0  0
  1 29  1  0  0  0
  1  2  1  0  0  0
  2  3  1  0  0  0
  3  4  1  0  0  0
  4  5  2  0  0  0
  5  6  1  0  0  0
  6  7  1  0  0  0
  7  8  2  0  0  0
  8 15  1  0  0  0
 15 16  2  0  0  0
 15 17  1  0  0  0
 17 19  1  0  0  0
 19 20  2  0  0  0
 20 21  1  0  0  0
 21 22  2  0  0  0
 22 23  1  0  0  0
 23 24  2  0  0  0
 23 25  1  0  0  0
 25 26  1  0  0  0
 26 27  1  0  0  0
  8  9  1  0  0  0
  9 10  2  0  0  0
 10 11  1  0  0  0
 10 12  1  0  0  0
 12 13  2  0  0  0
  5  1  1  0  0  0
 13  7  1  0  0  0
 13  4  1  0  0  0
 24 19  1  0  0  0
 27 22  1  0  0  0
 31 32  1  0  0  0
  6 14  1  0  0  0
 17 18  1  0  0  0
 26 28  1  0  0  0
M  END
> <minimizedAffinity>
-9.32606

> <minimizedRMSD>
0.59844

$$$$
P22073


 34 39  0  0  0  0  0  0  0  0999 V2000
   -6.5065    5.8822  -13.8284 O   0  0  0  0  0  0  0  0  0  0  0  0
   -7.2552    5.0011  -14.0049 C   0  0  0  0  0  0  0  0  0  0  0  0
   -8.0709    4.1579  -12.9916 N   0  0  0  0  0  0  0  0  0  0  0  0
   -8.5787    3.4140  -13.3889 H   0  0  0  0  0  0  0  0  0  0  0  0
   -8.2027    4.2821  -11.6048 C   0  0  0  0  0  0  0  0  0  0  0  0
   -7.9604    5.5119  -10.9737 C   0  0  0  0  0  0  0  0  0  0  0  0
   -8.0221    5.6200   -9.5840 C   0  0  0  0  0  0  0  0  0  0  0  0
   -7.7272    6.7859   -8.9944 F   0  0  0  0  0  0  0  0  0  0  0  0
   -8.3042    4.5083   -8.8202 C   0  0  0  0  0  0  0  0  0  0  0  0
   -8.5647    3.2901   -9.4470 C   0  0  0  0  0  0  0  0  0  0  0  0
   -8.5391    3.1614  -10.8354 C   0  0  0  0  0  0  0  0  0  0  0  0
   -8.7523    2.2270   -8.4150 C   0  0  0  0  0  0  0  0  0  0  0  0
   -8.6562    2.9104   -7.0928 N   0  0  0  0  0  0  0  0  0  0  0  0
   -8.1784    4.3040   -7.3470 C   0  0  0  0  0  0  0  0  0  0  0  0
   -6.7255    4.5887   -6.9050 C   0  0  0  0  0  0  0  0  0  0  0  0
   -6.7909    4.7914   -5.4030 C   0  0  0  0  0  0  0  0  0  0  0  0
   -7.9949    5.7022   -5.2456 C   0  0  0  0  0  0  0  0  0  0  0  0
   -8.9062    5.2194   -6.3517 C   0  0  0  0  0  0  0  0  0  0  0  0
  -10.1030    5.4898   -6.3395 O   0  0  0  0  0  0  0  0  0  0  0  0
   -7.9942    2.4183   -6.4928 H   0  0  0  0  0  0  0  0  0  0  0  0
   -7.4995    4.6001  -15.4198 C   0  0  0  0  0  0  0  0  0  0  0  0
   -8.7586    4.1839  -15.8667 C   0  0  0  0  0  0  0  0  0  0  0  0
   -8.9948    4.0277  -17.2335 C   0  0  0  0  0  0  0  0  0  0  0  0
  -10.5698    3.7043  -17.7989 Cl  0  0  0  0  0  0  0  0  0  0  0  0
   -8.0130    4.2458  -18.1967 C   0  0  0  0  0  0  0  0  0  0  0  0
   -6.7474    4.6483  -17.7694 C   0  0  0  0  0  0  0  0  0  0  0  0
   -5.5632    4.9895  -18.4287 C   0  0  0  0  0  0  0  0  0  0  0  0
   -4.6284    5.2913  -17.4843 C   0  0  0  0  0  0  0  0  0  0  0  0
   -5.1819    5.2290  -16.2517 N   0  0  0  0  0  0  0  0  0  0  0  0
   -6.5035    4.8152  -16.3937 C   0  0  0  0  0  0  0  0  0  0  0  0
   -3.2971    5.6194  -18.0199 C   0  0  0  0  0  0  0  0  0  0  0  0
   -3.4773    5.1613  -19.5104 C   0  0  0  0  0  0  0  0  0  0  0  0
   -5.0173    5.1125  -19.7944 C   0  0  0  0  0  0  0  0  0  0  0  0
   -4.7295    5.4395  -15.4030 H   0  0  0  0  0  0  0  0  0  0  0  0
  1  2  2  0  0  0
  2  3  1  0  0  0
  3  5  1  0  0  0
  5  6  2  0  0  0
  6  7  1  0  0  0
  7  8  1  0  0  0
  7  9  2  0  0  0
  9 10  1  0  0  0
 10 11  2  0  0  0
 10 12  1  0  0  0
 12 13  1  0  0  0
 13 14  1  0  0  0
 14 15  1  0  0  0
 15 16  1  0  0  0
 16 17  1  0  0  0
 17 18  1  0  0  0
 18 19  2  0  0  0
  2 21  1  0  0  0
 21 22  2  0  0  0
 22 23  1  0  0  0
 23 24  1  0  0  0
 23 25  2  0  0  0
 25 26  1  0  0  0
 26 27  1  0  0  0
 27 28  2  0  0  0
 28 29  1  0  0  0
 29 30  1  0  0  0
 28 31  1  0  0  0
 31 32  1  0  0  0
 32 33  1  0  0  0
 11  5  1  0  0  0
 18 14  1  0  0  0
 30 21  1  0  0  0
 14  9  1  0  0  0
 30 26  2  0  0  0
 33 27  1  0  0  0
  3  4  1  0  0  0
 13 20  1  0  0  0
 29 34  1  0  0  0
M  END
> <minimizedAffinity>
-10.31631

> <minimizedRMSD>
0.51020

$$$$
P22074


 37 42  0  0  0  0  0  0  0  0999 V2000
   -6.9921    4.7906  -13.8831 C   0  0  0  0  0  0  0  0  0  0  0  0
   -6.1030    5.4972  -13.6046 O   0  0  0  0  0  0  0  0  0  0  0  0
   -7.9967    4.0348  -12.9765 N   0  0  0  0  0  0  0  0  0  0  0  0
   -8.6135    3.4352  -13.4554 H   0  0  0  0  0  0  0  0  0  0  0  0
   -8.1697    4.0658  -11.5890 C   0  0  0  0  0  0  0  0  0  0  0  0
   -8.4728    2.8500  -10.9555 C   0  0  0  0  0  0  0  0  0  0  0  0
   -8.6561    2.8276   -9.5759 C   0  0  0  0  0  0  0  0  0  0  0  0
   -8.5559    3.9816   -8.8069 C   0  0  0  0  0  0  0  0  0  0  0  0
   -8.2665    5.1753   -9.4195 C   0  0  0  0  0  0  0  0  0  0  0  0
   -8.0866    5.2146  -10.7980 C   0  0  0  0  0  0  0  0  0  0  0  0
   -7.8906    6.4882  -11.2617 O   0  0  0  0  0  0  0  0  0  0  0  0
   -7.8883    7.3604  -10.1022 C   0  0  0  0  0  0  0  0  0  0  0  0
   -6.5284    8.0632  -10.0649 C   0  0  0  0  0  0  0  0  0  0  0  0
   -9.0026    8.3918  -10.2992 C   0  0  0  0  0  0  0  0  0  0  0  0
   -8.1210    6.5207   -8.8301 C   0  0  0  0  0  0  0  0  0  0  0  0
   -8.8036    3.6418   -7.3790 C   0  0  0  0  0  0  0  0  0  0  0  0
   -9.3957    2.2851   -7.3960 N   0  0  0  0  0  0  0  0  0  0  0  0
   -8.9432    1.6719   -8.6739 C   0  0  0  0  0  0  0  0  0  0  0  0
  -10.4138    2.3398   -7.3674 H   0  0  0  0  0  0  0  0  0  0  0  0
   -4.8071    5.3113  -19.6774 C   0  0  0  0  0  0  0  0  0  0  0  0
   -3.2590    5.2471  -19.3868 C   0  0  0  0  0  0  0  0  0  0  0  0
   -3.0550    5.6201  -17.8760 C   0  0  0  0  0  0  0  0  0  0  0  0
   -4.3979    5.3134  -17.3538 C   0  0  0  0  0  0  0  0  0  0  0  0
   -4.9489    5.1867  -16.1247 N   0  0  0  0  0  0  0  0  0  0  0  0
   -6.2855    4.8352  -16.2885 C   0  0  0  0  0  0  0  0  0  0  0  0
   -7.2772    4.5711  -15.3275 C   0  0  0  0  0  0  0  0  0  0  0  0
   -8.5545    4.2281  -15.7899 C   0  0  0  0  0  0  0  0  0  0  0  0
   -8.8100    4.1600  -17.1582 C   0  0  0  0  0  0  0  0  0  0  0  0
  -10.4037    3.8672  -17.7099 Cl  0  0  0  0  0  0  0  0  0  0  0  0
   -7.8276    4.4259  -18.1107 C   0  0  0  0  0  0  0  0  0  0  0  0
   -6.5468    4.7724  -17.6682 C   0  0  0  0  0  0  0  0  0  0  0  0
   -5.3532    5.1192  -18.3084 C   0  0  0  0  0  0  0  0  0  0  0  0
   -4.4861    5.3197  -15.2660 H   0  0  0  0  0  0  0  0  0  0  0  0
   -5.2629    6.6256  -20.3438 C   0  0  0  0  0  0  0  0  0  0  0  0
   -4.6818    8.7488  -19.2886 C   0  0  0  0  0  0  0  0  0  0  0  0
   -5.6945    7.7205  -19.4558 N   0  0  0  0  0  0  0  0  0  0  0  0
   -6.5310    8.1494  -19.8517 H   0  0  0  0  0  0  0  0  0  0  0  0
 35 36  1  0  0  0
 36 34  1  0  0  0
 20 34  1  0  0  0
 20 21  1  0  0  0
 21 22  1  0  0  0
 22 23  1  0  0  0
 23 24  1  0  0  0
 24 25  1  0  0  0
 25 26  2  0  0  0
 26  1  1  0  0  0
  1  2  2  0  0  0
  1  3  1  0  0  0
  3  5  1  0  0  0
  5  6  2  0  0  0
  6  7  1  0  0  0
  7  8  2  0  0  0
  8  9  1  0  0  0
  9 10  2  0  0  0
 10 11  1  0  0  0
 11 12  1  0  0  0
 12 13  1  0  0  0
 12 14  1  0  0  0
 12 15  1  0  0  0
  8 16  1  0  0  0
 16 17  1  0  0  0
 17 18  1  0  0  0
 26 27  1  0  0  0
 27 28  2  0  0  0
 28 29  1  0  0  0
 28 30  1  0  0  0
 30 31  2  0  0  0
 31 32  1  0  0  0
 32 20  1  0  0  0
 32 23  2  0  0  0
 31 25  1  0  0  0
 10  5  1  0  0  0
 18  7  1  0  0  0
 15  9  1  0  0  0
 36 37  1  0  0  0
 24 33  1  0  0  0
  3  4  1  0  0  0
 17 19  1  0  0  0
M  END
> <minimizedAffinity>
-10.00080

> <minimizedRMSD>
0.46593

$$$$
P22076


 34 38  0  0  0  0  0  0  0  0999 V2000
   -4.5053    5.1447  -19.4203 C   0  0  0  0  0  0  0  0  0  0  0  0
   -3.0068    5.0109  -18.9255 C   0  0  0  0  0  0  0  0  0  0  0  0
   -2.9628    5.5671  -17.4653 C   0  0  0  0  0  0  0  0  0  0  0  0
   -4.3637    5.3417  -17.0759 C   0  0  0  0  0  0  0  0  0  0  0  0
   -5.0212    5.2965  -15.8985 N   0  0  0  0  0  0  0  0  0  0  0  0
   -6.3302    4.9102  -16.1561 C   0  0  0  0  0  0  0  0  0  0  0  0
   -7.3868    4.6756  -15.2575 C   0  0  0  0  0  0  0  0  0  0  0  0
   -8.6133    4.2755  -15.7923 C   0  0  0  0  0  0  0  0  0  0  0  0
   -8.7579    4.1367  -17.1707 C   0  0  0  0  0  0  0  0  0  0  0  0
  -10.3021    3.7857  -17.8050 Cl  0  0  0  0  0  0  0  0  0  0  0  0
   -7.7110    4.3706  -18.0655 C   0  0  0  0  0  0  0  0  0  0  0  0
   -6.4706    4.7676  -17.5513 C   0  0  0  0  0  0  0  0  0  0  0  0
   -5.2196    5.0818  -18.1089 C   0  0  0  0  0  0  0  0  0  0  0  0
   -4.6406    5.5011  -15.0139 H   0  0  0  0  0  0  0  0  0  0  0  0
   -7.2204    4.9911  -13.8111 C   0  0  0  0  0  0  0  0  0  0  0  0
   -6.5023    5.8703  -13.5318 O   0  0  0  0  0  0  0  0  0  0  0  0
   -8.1157    4.1031  -12.9130 N   0  0  0  0  0  0  0  0  0  0  0  0
   -8.6930    3.4727  -13.4015 H   0  0  0  0  0  0  0  0  0  0  0  0
   -8.2377    4.0509  -11.5240 C   0  0  0  0  0  0  0  0  0  0  0  0
   -7.9642    5.1797  -10.7345 C   0  0  0  0  0  0  0  0  0  0  0  0
   -8.0958    5.1270   -9.3397 C   0  0  0  0  0  0  0  0  0  0  0  0
   -8.5067    3.9372   -8.7604 C   0  0  0  0  0  0  0  0  0  0  0  0
   -8.7602    2.8155   -9.5399 C   0  0  0  0  0  0  0  0  0  0  0  0
   -8.6408    2.8554  -10.9217 C   0  0  0  0  0  0  0  0  0  0  0  0
   -9.1001    1.6637   -8.6554 C   0  0  0  0  0  0  0  0  0  0  0  0
   -9.2546    2.2259   -7.2894 N   0  0  0  0  0  0  0  0  0  0  0  0
   -8.7229    3.6036   -7.3228 C   0  0  0  0  0  0  0  0  0  0  0  0
   -8.7295    1.6646   -6.6188 H   0  0  0  0  0  0  0  0  0  0  0  0
   -7.7706    6.2616   -8.5303 C   0  0  0  0  0  0  0  0  0  0  0  0
   -7.4800    7.1514   -7.8429 N   0  0  0  0  0  0  0  0  0  0  0  0
   -4.6957    6.4837  -20.1639 C   0  0  0  0  0  0  0  0  0  0  0  0
   -4.6781    5.5942  -22.4272 C   0  0  0  0  0  0  0  0  0  0  0  0
   -5.4067    6.3845  -21.4434 N   0  0  0  0  0  0  0  0  0  0  0  0
   -6.3140    5.9480  -21.2803 H   0  0  0  0  0  0  0  0  0  0  0  0
 32 33  1  0  0  0
 33 31  1  0  0  0
  1 31  1  0  0  0
  1  2  1  0  0  0
  2  3  1  0  0  0
  3  4  1  0  0  0
  4  5  1  0  0  0
  5  6  1  0  0  0
  6  7  2  0  0  0
  7 15  1  0  0  0
 15 16  2  0  0  0
 15 17  1  0  0  0
 17 19  1  0  0  0
 19 20  2  0  0  0
 20 21  1  0  0  0
 21 29  1  0  0  0
 29 30  3  0  0  0
 21 22  2  0  0  0
 22 23  1  0  0  0
 23 24  2  0  0  0
 23 25  1  0  0  0
 25 26  1  0  0  0
 26 27  1  0  0  0
  7  8  1  0  0  0
  8  9  2  0  0  0
  9 10  1  0  0  0
  9 11  1  0  0  0
 11 12  2  0  0  0
 12 13  1  0  0  0
 13  1  1  0  0  0
 13  4  2  0  0  0
 12  6  1  0  0  0
 24 19  1  0  0  0
 27 22  1  0  0  0
 33 34  1  0  0  0
  5 14  1  0  0  0
 17 18  1  0  0  0
 26 28  1  0  0  0
M  END
> <minimizedAffinity>
-9.60343

> <minimizedRMSD>
0.31227

$$$$
P22077


 28 32  0  0  0  0  0  0  0  0999 V2000
   -6.5741    5.8667  -13.8627 O   0  0  0  0  0  0  0  0  0  0  0  0
   -7.2418    4.9356  -14.0925 C   0  0  0  0  0  0  0  0  0  0  0  0
   -7.9823    3.9724  -13.1356 N   0  0  0  0  0  0  0  0  0  0  0  0
   -8.4217    3.2100  -13.5771 H   0  0  0  0  0  0  0  0  0  0  0  0
   -7.4869    4.5939  -15.5180 C   0  0  0  0  0  0  0  0  0  0  0  0
   -8.7493    4.1969  -15.9731 C   0  0  0  0  0  0  0  0  0  0  0  0
   -8.9831    4.0500  -17.3391 C   0  0  0  0  0  0  0  0  0  0  0  0
  -10.5741    3.7636  -17.8949 Cl  0  0  0  0  0  0  0  0  0  0  0  0
   -7.9863    4.2584  -18.2918 C   0  0  0  0  0  0  0  0  0  0  0  0
   -6.7175    4.6549  -17.8542 C   0  0  0  0  0  0  0  0  0  0  0  0
   -5.5208    4.9930  -18.4959 C   0  0  0  0  0  0  0  0  0  0  0  0
   -4.5950    5.2864  -17.5387 C   0  0  0  0  0  0  0  0  0  0  0  0
   -5.1621    5.2181  -16.3135 N   0  0  0  0  0  0  0  0  0  0  0  0
   -6.4834    4.8149  -16.4763 C   0  0  0  0  0  0  0  0  0  0  0  0
   -3.2542    5.6087  -18.0537 C   0  0  0  0  0  0  0  0  0  0  0  0
   -3.4167    5.1559  -19.5472 C   0  0  0  0  0  0  0  0  0  0  0  0
   -4.9541    5.1177  -19.8532 C   0  0  0  0  0  0  0  0  0  0  0  0
   -4.7185    5.4184  -15.4577 H   0  0  0  0  0  0  0  0  0  0  0  0
   -8.1288    4.0079  -11.7495 C   0  0  0  0  0  0  0  0  0  0  0  0
   -7.8279    5.1648  -11.0110 C   0  0  0  0  0  0  0  0  0  0  0  0
   -7.9947    5.1963   -9.6212 C   0  0  0  0  0  0  0  0  0  0  0  0
   -8.4542    4.0540   -8.9947 C   0  0  0  0  0  0  0  0  0  0  0  0
   -8.7368    2.8992   -9.7230 C   0  0  0  0  0  0  0  0  0  0  0  0
   -8.5879    2.8595  -11.0986 C   0  0  0  0  0  0  0  0  0  0  0  0
   -9.1693    1.8238   -8.7773 C   0  0  0  0  0  0  0  0  0  0  0  0
   -9.5266    2.5518   -7.5417 N   0  0  0  0  0  0  0  0  0  0  0  0
   -9.3303    1.7955   -6.4117 F   0  0  0  0  0  0  0  0  0  0  0  0
   -8.7249    3.7897   -7.5478 C   0  0  0  0  0  0  0  0  0  0  0  0
  1  2  2  0  0  0
  2  3  1  0  0  0
  3 19  1  0  0  0
 19 20  2  0  0  0
 20 21  1  0  0  0
 21 22  2  0  0  0
 22 23  1  0  0  0
 23 24  2  0  0  0
 23 25  1  0  0  0
 25 26  1  0  0  0
 26 27  1  0  0  0
 26 28  1  0  0  0
  2  5  1  0  0  0
  5  6  2  0  0  0
  6  7  1  0  0  0
  7  8  1  0  0  0
  7  9  2  0  0  0
  9 10  1  0  0  0
 10 11  1  0  0  0
 11 12  2  0  0  0
 12 13  1  0  0  0
 13 14  1  0  0  0
 12 15  1  0  0  0
 15 16  1  0  0  0
 16 17  1  0  0  0
 24 19  1  0  0  0
 14  5  1  0  0  0
 28 22  1  0  0  0
 14 10  2  0  0  0
 17 11  1  0  0  0
  3  4  1  0  0  0
 13 18  1  0  0  0
M  END
> <minimizedAffinity>
-10.27578

> <minimizedRMSD>
0.43280

$$$$
P22078


 31 35  0  0  0  0  0  0  0  0999 V2000
   -6.4413    5.8700  -14.0510 O   0  0  0  0  0  0  0  0  0  0  0  0
   -7.1574    4.9663  -14.2448 C   0  0  0  0  0  0  0  0  0  0  0  0
   -7.9212    4.0612  -13.2501 N   0  0  0  0  0  0  0  0  0  0  0  0
   -8.4056    3.3108  -13.6641 H   0  0  0  0  0  0  0  0  0  0  0  0
   -7.4207    4.6037  -15.6605 C   0  0  0  0  0  0  0  0  0  0  0  0
   -8.6773    4.1938  -16.1145 C   0  0  0  0  0  0  0  0  0  0  0  0
   -8.8974    4.0214  -17.4789 C   0  0  0  0  0  0  0  0  0  0  0  0
  -10.4742    3.6835  -18.0319 Cl  0  0  0  0  0  0  0  0  0  0  0  0
   -7.9011    4.2297  -18.4326 C   0  0  0  0  0  0  0  0  0  0  0  0
   -6.6399    4.6452  -17.9956 C   0  0  0  0  0  0  0  0  0  0  0  0
   -5.4405    4.9868  -18.6306 C   0  0  0  0  0  0  0  0  0  0  0  0
   -4.5243    5.2958  -17.6689 C   0  0  0  0  0  0  0  0  0  0  0  0
   -5.0996    5.2322  -16.4496 N   0  0  0  0  0  0  0  0  0  0  0  0
   -6.4169    4.8191  -16.6200 C   0  0  0  0  0  0  0  0  0  0  0  0
   -3.1810    5.6217  -18.1719 C   0  0  0  0  0  0  0  0  0  0  0  0
   -3.3267    5.1534  -19.6617 C   0  0  0  0  0  0  0  0  0  0  0  0
   -4.8612    5.1013  -19.9830 C   0  0  0  0  0  0  0  0  0  0  0  0
   -4.6641    5.4411  -15.5917 H   0  0  0  0  0  0  0  0  0  0  0  0
   -8.0351    4.1348  -11.8663 C   0  0  0  0  0  0  0  0  0  0  0  0
   -7.5350    5.2603  -11.1878 C   0  0  0  0  0  0  0  0  0  0  0  0
   -7.6206    5.3635   -9.8028 C   0  0  0  0  0  0  0  0  0  0  0  0
   -8.2199    4.3287   -9.1219 C   0  0  0  0  0  0  0  0  0  0  0  0
   -8.7389    3.2149   -9.7862 C   0  0  0  0  0  0  0  0  0  0  0  0
   -8.6493    3.0945  -11.1630 C   0  0  0  0  0  0  0  0  0  0  0  0
   -9.3511    2.2966   -8.7723 C   0  0  0  0  0  0  0  0  0  0  0  0
   -9.4677    3.1561   -7.5619 N   0  0  0  0  0  0  0  0  0  0  0  0
   -8.4220    4.1738   -7.6558 C   0  0  0  0  0  0  0  0  0  0  0  0
   -9.4220    2.4047   -6.3105 C   0  0  0  0  0  0  0  0  0  0  0  0
  -10.4214    2.8855   -5.2639 C   0  0  0  0  0  0  0  0  0  0  0  0
  -11.5566    2.1576   -5.3268 F   0  0  0  0  0  0  0  0  0  0  0  0
  -10.7398    4.1905   -5.4789 F   0  0  0  0  0  0  0  0  0  0  0  0
  1  2  2  0  0  0
  2  3  1  0  0  0
  3 19  1  0  0  0
 19 20  2  0  0  0
 20 21  1  0  0  0
 21 22  2  0  0  0
 22 23  1  0  0  0
 23 24  2  0  0  0
 23 25  1  0  0  0
 25 26  1  0  0  0
 26 28  1  0  0  0
 28 29  1  0  0  0
 29 30  1  0  0  0
 29 31  1  0  0  0
 26 27  1  0  0  0
  2  5  1  0  0  0
  5  6  2  0  0  0
  6  7  1  0  0  0
  7  8  1  0  0  0
  7  9  2  0  0  0
  9 10  1  0  0  0
 10 11  1  0  0  0
 11 12  2  0  0  0
 12 13  1  0  0  0
 13 14  1  0  0  0
 12 15  1  0  0  0
 15 16  1  0  0  0
 16 17  1  0  0  0
 24 19  1  0  0  0
 14  5  1  0  0  0
 27 22  1  0  0  0
 14 10  2  0  0  0
 17 11  1  0  0  0
  3  4  1  0  0  0
 13 18  1  0  0  0
M  END
> <minimizedAffinity>
-9.92500

> <minimizedRMSD>
0.70596

$$$$
P22079


 34 39  0  0  0  0  0  0  0  0999 V2000
   -7.4950    4.5761  -15.5455 C   0  0  0  0  0  0  0  0  0  0  0  0
   -8.7769    4.1972  -15.9646 C   0  0  0  0  0  0  0  0  0  0  0  0
   -9.0502    4.0410  -17.3212 C   0  0  0  0  0  0  0  0  0  0  0  0
  -10.6511    3.7646  -17.8361 Cl  0  0  0  0  0  0  0  0  0  0  0  0
   -8.0824    4.2287  -18.3031 C   0  0  0  0  0  0  0  0  0  0  0  0
   -6.8006    4.6142  -17.9041 C   0  0  0  0  0  0  0  0  0  0  0  0
   -5.6330    4.9510  -18.5926 C   0  0  0  0  0  0  0  0  0  0  0  0
   -4.6685    5.2486  -17.6758 C   0  0  0  0  0  0  0  0  0  0  0  0
   -5.1888    5.1721  -16.4258 N   0  0  0  0  0  0  0  0  0  0  0  0
   -6.5185    4.7794  -16.5362 C   0  0  0  0  0  0  0  0  0  0  0  0
   -3.3474    5.6282  -18.2558 C   0  0  0  0  0  0  0  0  0  0  0  0
   -3.1266    7.1515  -18.1845 C   0  0  0  0  0  0  0  0  0  0  0  0
   -2.2626    7.5266  -16.9827 C   0  0  0  0  0  0  0  0  0  0  0  0
   -0.9327    6.9165  -17.0183 N   0  0  0  0  0  0  0  0  0  0  0  0
   -0.8792    5.6419  -17.7387 C   0  0  0  0  0  0  0  0  0  0  0  0
   -2.1811    4.8557  -17.6291 C   0  0  0  0  0  0  0  0  0  0  0  0
   -3.6029    5.1704  -19.7648 C   0  0  0  0  0  0  0  0  0  0  0  0
   -5.1514    5.0966  -19.9774 C   0  0  0  0  0  0  0  0  0  0  0  0
   -4.7094    5.3613  -15.5870 H   0  0  0  0  0  0  0  0  0  0  0  0
   -0.6284    6.7550  -16.0582 H   0  0  0  0  0  0  0  0  0  0  0  0
   -6.5433    5.8477  -13.9035 O   0  0  0  0  0  0  0  0  0  0  0  0
   -7.2193    4.9200  -14.1240 C   0  0  0  0  0  0  0  0  0  0  0  0
   -7.9626    3.9679  -13.1565 N   0  0  0  0  0  0  0  0  0  0  0  0
   -8.4101    3.2061  -13.5909 H   0  0  0  0  0  0  0  0  0  0  0  0
   -8.1019    4.0134  -11.7696 C   0  0  0  0  0  0  0  0  0  0  0  0
   -7.8738    5.1948  -11.0462 C   0  0  0  0  0  0  0  0  0  0  0  0
   -8.0417    5.2286   -9.6559 C   0  0  0  0  0  0  0  0  0  0  0  0
   -8.4318    4.0676   -9.0138 C   0  0  0  0  0  0  0  0  0  0  0  0
   -8.6465    2.8928   -9.7260 C   0  0  0  0  0  0  0  0  0  0  0  0
   -8.4945    2.8485  -11.1022 C   0  0  0  0  0  0  0  0  0  0  0  0
   -8.9975    1.8000   -8.7705 C   0  0  0  0  0  0  0  0  0  0  0  0
   -9.3517    2.4932   -7.5032 N   0  0  0  0  0  0  0  0  0  0  0  0
   -8.6636    3.8028   -7.5638 C   0  0  0  0  0  0  0  0  0  0  0  0
   -9.0257    1.9559   -6.6998 H   0  0  0  0  0  0  0  0  0  0  0  0
 21 22  2  0  0  0
 22 23  1  0  0  0
 23 25  1  0  0  0
 25 26  2  0  0  0
 26 27  1  0  0  0
 27 28  2  0  0  0
 28 29  1  0  0  0
 29 30  2  0  0  0
 29 31  1  0  0  0
 31 32  1  0  0  0
 32 33  1  0  0  0
 22  1  1  0  0  0
  1  2  2  0  0  0
  2  3  1  0  0  0
  3  4  1  0  0  0
  3  5  2  0  0  0
  5  6  1  0  0  0
  6  7  1  0  0  0
  7  8  2  0  0  0
  8  9  1  0  0  0
  9 10  1  0  0  0
  8 11  1  0  0  0
 11 12  1  0  0  0
 12 13  1  0  0  0
 13 14  1  0  0  0
 14 15  1  0  0  0
 15 16  1  0  0  0
 11 17  1  0  0  0
 17 18  1  0  0  0
 30 25  1  0  0  0
 10  1  1  0  0  0
 16 11  1  0  0  0
 33 28  1  0  0  0
 10  6  2  0  0  0
 18  7  1  0  0  0
 23 24  1  0  0  0
 32 34  1  0  0  0
  9 19  1  0  0  0
 14 20  1  0  0  0
M  END
> <minimizedAffinity>
-10.83566

> <minimizedRMSD>
0.63869

$$$$
P22080


 35 40  0  0  0  0  0  0  0  0999 V2000
   -2.6626    7.3924  -16.8600 C   0  0  0  0  0  0  0  0  0  0  0  0
   -1.6108    6.2975  -16.7670 C   0  0  0  0  0  0  0  0  0  0  0  0
   -2.2794    5.0718  -17.3825 C   0  0  0  0  0  0  0  0  0  0  0  0
   -3.4780    5.6296  -18.1393 C   0  0  0  0  0  0  0  0  0  0  0  0
   -3.6288    5.0805  -19.6079 C   0  0  0  0  0  0  0  0  0  0  0  0
   -5.1671    5.0293  -19.9135 C   0  0  0  0  0  0  0  0  0  0  0  0
   -5.7302    4.9081  -18.5513 C   0  0  0  0  0  0  0  0  0  0  0  0
   -4.8068    5.2448  -17.6009 C   0  0  0  0  0  0  0  0  0  0  0  0
   -5.3718    5.1635  -16.3744 N   0  0  0  0  0  0  0  0  0  0  0  0
   -6.6884    4.7440  -16.5306 C   0  0  0  0  0  0  0  0  0  0  0  0
   -7.6865    4.5344  -15.5617 C   0  0  0  0  0  0  0  0  0  0  0  0
   -8.9397    4.0989  -16.0094 C   0  0  0  0  0  0  0  0  0  0  0  0
   -9.1715    3.9029  -17.3686 C   0  0  0  0  0  0  0  0  0  0  0  0
  -10.3928    3.5353  -17.7784 F   0  0  0  0  0  0  0  0  0  0  0  0
   -8.1876    4.1248  -18.3290 C   0  0  0  0  0  0  0  0  0  0  0  0
   -6.9225    4.5563  -17.9049 C   0  0  0  0  0  0  0  0  0  0  0  0
   -3.3237    7.0817  -18.1159 N   0  0  0  0  0  0  0  0  0  0  0  0
   -4.9278    5.3663  -15.5194 H   0  0  0  0  0  0  0  0  0  0  0  0
   -4.2359    7.5361  -18.1584 H   0  0  0  0  0  0  0  0  0  0  0  0
   -7.4250    4.9182  -14.1447 C   0  0  0  0  0  0  0  0  0  0  0  0
   -6.7071    5.8219  -13.9571 O   0  0  0  0  0  0  0  0  0  0  0  0
   -8.2227    4.0472  -13.1459 N   0  0  0  0  0  0  0  0  0  0  0  0
   -8.8227    3.3872  -13.5625 H   0  0  0  0  0  0  0  0  0  0  0  0
   -8.2302    4.0446  -11.7499 C   0  0  0  0  0  0  0  0  0  0  0  0
   -7.8913    5.1963  -11.0197 C   0  0  0  0  0  0  0  0  0  0  0  0
   -7.9659    5.2086   -9.6213 C   0  0  0  0  0  0  0  0  0  0  0  0
   -8.3735    4.0551   -8.9778 C   0  0  0  0  0  0  0  0  0  0  0  0
   -8.6765    2.9029   -9.6958 C   0  0  0  0  0  0  0  0  0  0  0  0
   -8.6162    2.8804  -11.0797 C   0  0  0  0  0  0  0  0  0  0  0  0
   -9.0264    1.8116   -8.7381 C   0  0  0  0  0  0  0  0  0  0  0  0
   -9.3082    2.5051   -7.4529 N   0  0  0  0  0  0  0  0  0  0  0  0
   -8.5629    3.7826   -7.5231 C   0  0  0  0  0  0  0  0  0  0  0  0
   -8.9817    1.9444   -6.6659 H   0  0  0  0  0  0  0  0  0  0  0  0
   -1.0792    8.8952  -15.9609 C   0  0  0  0  0  0  0  0  0  0  0  0
   -2.1112    8.6933  -16.9150 O   0  0  0  0  0  0  0  0  0  0  0  0
 34 35  1  0  0  0
  1 35  1  0  0  0
  1  2  1  0  0  0
  2  3  1  0  0  0
  4  3  1  0  0  0
  4  5  1  0  0  0
  5  6  1  0  0  0
  6  7  1  0  0  0
  7  8  2  0  0  0
  8  9  1  0  0  0
  9 10  1  0  0  0
 10 11  2  0  0  0
 11 20  1  0  0  0
 20 21  2  0  0  0
 20 22  1  0  0  0
 22 24  1  0  0  0
 24 25  2  0  0  0
 25 26  1  0  0  0
 26 27  2  0  0  0
 27 28  1  0  0  0
 28 29  2  0  0  0
 28 30  1  0  0  0
 30 31  1  0  0  0
 31 32  1  0  0  0
 11 12  1  0  0  0
 12 13  2  0  0  0
 13 14  1  0  0  0
 13 15  1  0  0  0
 15 16  2  0  0  0
  4 17  1  0  0  0
 17  1  1  0  0  0
  8  4  1  0  0  0
 16 10  1  0  0  0
 16  7  1  0  0  0
 29 24  1  0  0  0
 32 27  1  0  0  0
  9 18  1  0  0  0
 22 23  1  0  0  0
 31 33  1  0  0  0
 17 19  1  0  0  0
M  END
> <minimizedAffinity>
-10.42200

> <minimizedRMSD>
0.54948

$$$$
P22081


 32 36  0  0  0  0  0  0  0  0999 V2000
   -4.8865    5.0865  -19.7408 C   0  0  0  0  0  0  0  0  0  0  0  0
   -3.3534    5.0870  -19.3658 C   0  0  0  0  0  0  0  0  0  0  0  0
   -3.2428    5.6028  -17.8892 C   0  0  0  0  0  0  0  0  0  0  0  0
   -4.6065    5.3182  -17.4119 C   0  0  0  0  0  0  0  0  0  0  0  0
   -5.2040    5.2700  -16.2015 N   0  0  0  0  0  0  0  0  0  0  0  0
   -6.5186    4.8552  -16.3897 C   0  0  0  0  0  0  0  0  0  0  0  0
   -7.5316    4.6182  -15.4426 C   0  0  0  0  0  0  0  0  0  0  0  0
   -8.7657    4.1561  -15.9116 C   0  0  0  0  0  0  0  0  0  0  0  0
   -8.9604    3.9629  -17.2755 C   0  0  0  0  0  0  0  0  0  0  0  0
  -10.1403    3.5097  -17.7077 F   0  0  0  0  0  0  0  0  0  0  0  0
   -7.9729    4.2327  -18.2208 C   0  0  0  0  0  0  0  0  0  0  0  0
   -6.7229    4.6786  -17.7713 C   0  0  0  0  0  0  0  0  0  0  0  0
   -5.5084    5.0142  -18.3893 C   0  0  0  0  0  0  0  0  0  0  0  0
   -4.7837    5.4896  -15.3387 H   0  0  0  0  0  0  0  0  0  0  0  0
   -7.2927    4.9504  -14.0113 C   0  0  0  0  0  0  0  0  0  0  0  0
   -6.5667    5.8344  -13.7718 O   0  0  0  0  0  0  0  0  0  0  0  0
   -8.0702    4.0071  -13.0641 N   0  0  0  0  0  0  0  0  0  0  0  0
   -8.5624    3.2838  -13.5156 H   0  0  0  0  0  0  0  0  0  0  0  0
   -8.1877    4.0142  -11.6743 C   0  0  0  0  0  0  0  0  0  0  0  0
   -7.9321    5.1736  -10.9237 C   0  0  0  0  0  0  0  0  0  0  0  0
   -8.0658    5.1716   -9.5298 C   0  0  0  0  0  0  0  0  0  0  0  0
   -8.4554    3.9982   -8.9115 C   0  0  0  0  0  0  0  0  0  0  0  0
   -8.6957    2.8443   -9.6501 C   0  0  0  0  0  0  0  0  0  0  0  0
   -8.5698    2.8336  -11.0296 C   0  0  0  0  0  0  0  0  0  0  0  0
   -9.0511    1.7340   -8.7166 C   0  0  0  0  0  0  0  0  0  0  0  0
   -9.3872    2.4037   -7.4317 N   0  0  0  0  0  0  0  0  0  0  0  0
   -8.6733    3.7005   -7.4657 C   0  0  0  0  0  0  0  0  0  0  0  0
   -9.0689    1.8417   -6.6423 H   0  0  0  0  0  0  0  0  0  0  0  0
   -5.3071    6.3534  -20.5041 C   0  0  0  0  0  0  0  0  0  0  0  0
   -4.9455    5.7576  -22.8330 C   0  0  0  0  0  0  0  0  0  0  0  0
   -4.5558    6.6386  -21.7379 N   0  0  0  0  0  0  0  0  0  0  0  0
   -4.7317    7.6046  -22.0143 H   0  0  0  0  0  0  0  0  0  0  0  0
 30 31  1  0  0  0
 31 29  1  0  0  0
  1 29  1  0  0  0
  1  2  1  0  0  0
  2  3  1  0  0  0
  3  4  1  0  0  0
  4  5  1  0  0  0
  5  6  1  0  0  0
  6  7  2  0  0  0
  7 15  1  0  0  0
 15 16  2  0  0  0
 15 17  1  0  0  0
 17 19  1  0  0  0
 19 20  2  0  0  0
 20 21  1  0  0  0
 21 22  2  0  0  0
 22 23  1  0  0  0
 23 24  2  0  0  0
 23 25  1  0  0  0
 25 26  1  0  0  0
 26 27  1  0  0  0
  7  8  1  0  0  0
  8  9  2  0  0  0
  9 10  1  0  0  0
  9 11  1  0  0  0
 11 12  2  0  0  0
 12 13  1  0  0  0
 13  1  1  0  0  0
 13  4  2  0  0  0
 12  6  1  0  0  0
 24 19  1  0  0  0
 27 22  1  0  0  0
 31 32  1  0  0  0
  5 14  1  0  0  0
 17 18  1  0  0  0
 26 28  1  0  0  0
M  END
> <minimizedAffinity>
-9.89485

> <minimizedRMSD>
0.42595

$$$$
P22082


 29 33  0  0  0  0  0  0  0  0999 V2000
   -4.2959    5.6693  -18.4767 C   0  0  0  0  0  0  0  0  0  0  0  0
   -3.0768    5.9369  -17.5007 C   0  0  0  0  0  0  0  0  0  0  0  0
   -3.6573    6.1243  -16.0775 C   0  0  0  0  0  0  0  0  0  0  0  0
   -4.9690    5.4875  -16.2469 C   0  0  0  0  0  0  0  0  0  0  0  0
   -5.9636    5.2270  -15.3798 N   0  0  0  0  0  0  0  0  0  0  0  0
   -7.0402    4.7373  -16.0987 C   0  0  0  0  0  0  0  0  0  0  0  0
   -8.3312    4.4276  -15.6351 C   0  0  0  0  0  0  0  0  0  0  0  0
   -9.2568    3.9203  -16.5521 C   0  0  0  0  0  0  0  0  0  0  0  0
   -8.9046    3.7759  -17.8938 C   0  0  0  0  0  0  0  0  0  0  0  0
   -7.6317    4.1598  -18.3555 C   0  0  0  0  0  0  0  0  0  0  0  0
   -6.6613    4.6431  -17.4528 C   0  0  0  0  0  0  0  0  0  0  0  0
   -5.3483    5.1837  -17.5277 C   0  0  0  0  0  0  0  0  0  0  0  0
   -5.9315    5.3611  -14.4050 H   0  0  0  0  0  0  0  0  0  0  0  0
   -8.7035    4.8239  -14.2472 C   0  0  0  0  0  0  0  0  0  0  0  0
   -9.3785    5.7693  -14.1237 O   0  0  0  0  0  0  0  0  0  0  0  0
   -8.1270    3.8612  -13.1880 N   0  0  0  0  0  0  0  0  0  0  0  0
   -7.6441    3.0858  -13.5553 H   0  0  0  0  0  0  0  0  0  0  0  0
   -8.1786    3.9105  -11.7949 C   0  0  0  0  0  0  0  0  0  0  0  0
   -7.8401    5.0874  -11.1031 C   0  0  0  0  0  0  0  0  0  0  0  0
   -7.9283    5.1547   -9.7084 C   0  0  0  0  0  0  0  0  0  0  0  0
   -8.3607    4.0322   -9.0295 C   0  0  0  0  0  0  0  0  0  0  0  0
   -8.6745    2.8589   -9.7094 C   0  0  0  0  0  0  0  0  0  0  0  0
   -8.5895    2.7782  -11.0897 C   0  0  0  0  0  0  0  0  0  0  0  0
   -9.0638    1.8145   -8.7161 C   0  0  0  0  0  0  0  0  0  0  0  0
   -9.3578    2.5652   -7.4662 N   0  0  0  0  0  0  0  0  0  0  0  0
   -8.5727    3.8163   -7.5686 C   0  0  0  0  0  0  0  0  0  0  0  0
   -9.0679    2.0272   -6.6496 H   0  0  0  0  0  0  0  0  0  0  0  0
   -4.6652    4.7840  -20.8138 C   0  0  0  0  0  0  0  0  0  0  0  0
   -3.7915    4.7825  -19.5947 C   0  0  0  0  0  0  0  0  0  0  0  0
 28 29  1  0  0  0
  1 29  1  0  0  0
  1  2  1  0  0  0
  2  3  1  0  0  0
  3  4  1  0  0  0
  4  5  1  0  0  0
  5  6  1  0  0  0
  6  7  2  0  0  0
  7 14  1  0  0  0
 14 15  2  0  0  0
 14 16  1  0  0  0
 16 18  1  0  0  0
 18 19  2  0  0  0
 19 20  1  0  0  0
 20 21  2  0  0  0
 21 22  1  0  0  0
 22 23  2  0  0  0
 22 24  1  0  0  0
 24 25  1  0  0  0
 25 26  1  0  0  0
  7  8  1  0  0  0
  8  9  2  0  0  0
  9 10  1  0  0  0
 10 11  2  0  0  0
 11 12  1  0  0  0
 12  1  1  0  0  0
 12  4  2  0  0  0
 11  6  1  0  0  0
 23 18  1  0  0  0
 26 21  1  0  0  0
  5 13  1  0  0  0
 16 17  1  0  0  0
 25 27  1  0  0  0
M  END
> <minimizedAffinity>
-10.58528

> <minimizedRMSD>
0.85262

$$$$
P22086


 31 35  0  0  0  0  0  0  0  0999 V2000
   -7.8405    4.6053  -15.3369 C   0  0  0  0  0  0  0  0  0  0  0  0
   -8.9598    4.0343  -15.9370 C   0  0  0  0  0  0  0  0  0  0  0  0
   -8.9719    3.8162  -17.3105 C   0  0  0  0  0  0  0  0  0  0  0  0
  -10.0627    3.2807  -17.8726 F   0  0  0  0  0  0  0  0  0  0  0  0
   -7.8933    4.1580  -18.1287 C   0  0  0  0  0  0  0  0  0  0  0  0
   -6.7253    4.6648  -17.5282 C   0  0  0  0  0  0  0  0  0  0  0  0
   -5.4263    5.0475  -18.0177 C   0  0  0  0  0  0  0  0  0  0  0  0
   -4.6383    5.2238  -16.8877 C   0  0  0  0  0  0  0  0  0  0  0  0
   -5.4834    5.3046  -15.8100 N   0  0  0  0  0  0  0  0  0  0  0  0
   -6.7302    4.8566  -16.1526 C   0  0  0  0  0  0  0  0  0  0  0  0
   -3.1750    5.2578  -16.6318 C   0  0  0  0  0  0  0  0  0  0  0  0
   -2.4953    6.5269  -17.0932 C   0  0  0  0  0  0  0  0  0  0  0  0
   -1.8807    6.3935  -18.4851 C   0  0  0  0  0  0  0  0  0  0  0  0
   -2.8804    6.3818  -19.6392 C   0  0  0  0  0  0  0  0  0  0  0  0
   -3.6066    5.0527  -19.8515 C   0  0  0  0  0  0  0  0  0  0  0  0
   -5.0832    5.0892  -19.4756 C   0  0  0  0  0  0  0  0  0  0  0  0
   -5.2294    5.6370  -14.9187 H   0  0  0  0  0  0  0  0  0  0  0  0
   -7.4365    6.1485  -13.7265 O   0  0  0  0  0  0  0  0  0  0  0  0
   -7.8029    5.0574  -13.9244 C   0  0  0  0  0  0  0  0  0  0  0  0
   -8.2648    3.9639  -12.9401 N   0  0  0  0  0  0  0  0  0  0  0  0
   -8.6016    3.1423  -13.3654 H   0  0  0  0  0  0  0  0  0  0  0  0
   -8.2832    3.9492  -11.5467 C   0  0  0  0  0  0  0  0  0  0  0  0
   -7.8857    5.0811  -10.8140 C   0  0  0  0  0  0  0  0  0  0  0  0
   -7.9423    5.0891   -9.4171 C   0  0  0  0  0  0  0  0  0  0  0  0
   -8.3918    3.9502   -8.7763 C   0  0  0  0  0  0  0  0  0  0  0  0
   -8.7645    2.8231   -9.4973 C   0  0  0  0  0  0  0  0  0  0  0  0
   -8.7196    2.8027  -10.8825 C   0  0  0  0  0  0  0  0  0  0  0  0
   -9.1630    1.7406   -8.5545 C   0  0  0  0  0  0  0  0  0  0  0  0
   -9.2152    2.3655   -7.2060 N   0  0  0  0  0  0  0  0  0  0  0  0
   -8.5670    3.6898   -7.3205 C   0  0  0  0  0  0  0  0  0  0  0  0
   -8.7142    1.7869   -6.5317 H   0  0  0  0  0  0  0  0  0  0  0  0
 18 19  2  0  0  0
 19 20  1  0  0  0
 20 22  1  0  0  0
 22 23  2  0  0  0
 23 24  1  0  0  0
 24 25  2  0  0  0
 25 26  1  0  0  0
 26 27  2  0  0  0
 26 28  1  0  0  0
 28 29  1  0  0  0
 29 30  1  0  0  0
 19  1  1  0  0  0
  1  2  2  0  0  0
  2  3  1  0  0  0
  3  4  1  0  0  0
  3  5  2  0  0  0
  5  6  1  0  0  0
  6  7  1  0  0  0
  7  8  2  0  0  0
  8  9  1  0  0  0
  9 10  1  0  0  0
  8 11  1  0  0  0
 11 12  1  0  0  0
 12 13  1  0  0  0
 13 14  1  0  0  0
 14 15  1  0  0  0
 15 16  1  0  0  0
 27 22  1  0  0  0
 10  1  1  0  0  0
 30 25  1  0  0  0
 10  6  2  0  0  0
 16  7  1  0  0  0
 20 21  1  0  0  0
 29 31  1  0  0  0
  9 17  1  0  0  0
M  END
> <minimizedAffinity>
-10.75463

> <minimizedRMSD>
0.18503

$$$$
P22087


 35 40  0  0  0  0  0  0  0  0999 V2000
   -4.9578    4.1427  -20.7075 C   0  0  0  0  0  0  0  0  0  0  0  0
   -4.9246    5.6283  -20.4018 C   0  0  0  0  0  0  0  0  0  0  0  0
   -4.0557    6.3369  -21.4682 C   0  0  0  0  0  0  0  0  0  0  0  0
   -3.6240    7.7511  -21.0770 C   0  0  0  0  0  0  0  0  0  0  0  0
   -4.5875    8.3819  -20.1831 N   0  0  0  0  0  0  0  0  0  0  0  0
   -4.7198    7.6259  -18.9198 C   0  0  0  0  0  0  0  0  0  0  0  0
   -4.5189    6.0537  -18.9836 C   0  0  0  0  0  0  0  0  0  0  0  0
   -3.0169    5.7029  -18.5851 C   0  0  0  0  0  0  0  0  0  0  0  0
   -2.9670    5.7648  -17.0181 C   0  0  0  0  0  0  0  0  0  0  0  0
   -4.3713    5.4413  -16.7171 C   0  0  0  0  0  0  0  0  0  0  0  0
   -5.0551    5.2196  -15.5773 N   0  0  0  0  0  0  0  0  0  0  0  0
   -6.3593    4.8972  -15.9210 C   0  0  0  0  0  0  0  0  0  0  0  0
   -7.4549    4.6127  -15.0821 C   0  0  0  0  0  0  0  0  0  0  0  0
   -8.6373    4.1843  -15.6890 C   0  0  0  0  0  0  0  0  0  0  0  0
   -8.7089    4.0979  -17.0781 C   0  0  0  0  0  0  0  0  0  0  0  0
  -10.1972    3.6621  -17.8035 Cl  0  0  0  0  0  0  0  0  0  0  0  0
   -7.6508    4.4881  -17.9098 C   0  0  0  0  0  0  0  0  0  0  0  0
   -6.4481    4.9122  -17.3277 C   0  0  0  0  0  0  0  0  0  0  0  0
   -5.2285    5.4565  -17.7869 C   0  0  0  0  0  0  0  0  0  0  0  0
   -5.4959    8.4184  -20.6456 H   0  0  0  0  0  0  0  0  0  0  0  0
   -4.6933    5.2765  -14.6635 H   0  0  0  0  0  0  0  0  0  0  0  0
   -7.3729    4.9655  -13.6330 C   0  0  0  0  0  0  0  0  0  0  0  0
   -6.9376    6.0193  -13.3742 O   0  0  0  0  0  0  0  0  0  0  0  0
   -7.9399    3.8612  -12.7107 N   0  0  0  0  0  0  0  0  0  0  0  0
   -8.1771    3.0229  -13.1692 H   0  0  0  0  0  0  0  0  0  0  0  0
   -8.1699    3.8595  -11.3353 C   0  0  0  0  0  0  0  0  0  0  0  0
   -7.9364    5.0150  -10.5705 C   0  0  0  0  0  0  0  0  0  0  0  0
   -8.1554    5.0220   -9.1895 C   0  0  0  0  0  0  0  0  0  0  0  0
   -8.5810    3.8525   -8.5905 C   0  0  0  0  0  0  0  0  0  0  0  0
   -8.8139    2.7076   -9.3417 C   0  0  0  0  0  0  0  0  0  0  0  0
   -8.6338    2.6959  -10.7178 C   0  0  0  0  0  0  0  0  0  0  0  0
   -9.2676    1.6113   -8.4397 C   0  0  0  0  0  0  0  0  0  0  0  0
   -9.1223    2.1245   -7.0501 N   0  0  0  0  0  0  0  0  0  0  0  0
   -8.8774    3.5791   -7.1575 C   0  0  0  0  0  0  0  0  0  0  0  0
   -8.3356    1.6688   -6.5876 H   0  0  0  0  0  0  0  0  0  0  0  0
  2  1  1  0  0  0
  2  3  1  0  0  0
  3  4  1  0  0  0
  4  5  1  0  0  0
  5  6  1  0  0  0
  7  6  1  0  0  0
  7  8  1  0  0  0
  8  9  1  0  0  0
  9 10  1  0  0  0
 10 11  1  0  0  0
 11 12  1  0  0  0
 12 13  2  0  0  0
 13 22  1  0  0  0
 22 23  2  0  0  0
 22 24  1  0  0  0
 24 26  1  0  0  0
 26 27  2  0  0  0
 27 28  1  0  0  0
 28 29  2  0  0  0
 29 30  1  0  0  0
 30 31  2  0  0  0
 30 32  1  0  0  0
 32 33  1  0  0  0
 33 34  1  0  0  0
 13 14  1  0  0  0
 14 15  2  0  0  0
 15 16  1  0  0  0
 15 17  1  0  0  0
 17 18  2  0  0  0
 18 19  1  0  0  0
  7  2  1  0  0  0
 19 10  2  0  0  0
 19  7  1  0  0  0
 18 12  1  0  0  0
 31 26  1  0  0  0
 34 29  1  0  0  0
  5 20  1  0  0  0
 11 21  1  0  0  0
 24 25  1  0  0  0
 33 35  1  0  0  0
M  END
> <minimizedAffinity>
-10.66868

> <minimizedRMSD>
0.42484

$$$$
P22088


 33 38  0  0  0  0  0  0  0  0999 V2000
   -7.4801    4.5782  -15.5366 C   0  0  0  0  0  0  0  0  0  0  0  0
   -8.7611    4.2273  -15.9812 C   0  0  0  0  0  0  0  0  0  0  0  0
   -9.0160    4.0912  -17.3442 C   0  0  0  0  0  0  0  0  0  0  0  0
  -10.6242    3.8870  -17.8842 Cl  0  0  0  0  0  0  0  0  0  0  0  0
   -8.0226    4.2559  -18.3069 C   0  0  0  0  0  0  0  0  0  0  0  0
   -6.7387    4.6141  -17.8828 C   0  0  0  0  0  0  0  0  0  0  0  0
   -5.5494    4.9382  -18.5438 C   0  0  0  0  0  0  0  0  0  0  0  0
   -4.6107    5.2532  -17.6047 C   0  0  0  0  0  0  0  0  0  0  0  0
   -5.1578    5.1672  -16.3681 N   0  0  0  0  0  0  0  0  0  0  0  0
   -6.4840    4.7735  -16.5090 C   0  0  0  0  0  0  0  0  0  0  0  0
   -3.2898    5.6736  -18.1545 C   0  0  0  0  0  0  0  0  0  0  0  0
   -3.1513    7.2017  -18.0943 C   0  0  0  0  0  0  0  0  0  0  0  0
   -1.8075    7.6792  -18.6405 C   0  0  0  0  0  0  0  0  0  0  0  0
   -0.7661    6.7119  -18.5274 O   0  0  0  0  0  0  0  0  0  0  0  0
   -0.8853    5.9081  -17.3609 C   0  0  0  0  0  0  0  0  0  0  0  0
   -2.0978    4.9885  -17.4724 C   0  0  0  0  0  0  0  0  0  0  0  0
   -3.4856    5.1752  -19.6587 C   0  0  0  0  0  0  0  0  0  0  0  0
   -5.0294    5.0856  -19.9167 C   0  0  0  0  0  0  0  0  0  0  0  0
   -4.6968    5.3515  -15.5179 H   0  0  0  0  0  0  0  0  0  0  0  0
   -6.4803    5.8018  -13.8909 O   0  0  0  0  0  0  0  0  0  0  0  0
   -7.2191    4.9233  -14.1118 C   0  0  0  0  0  0  0  0  0  0  0  0
   -8.0895    4.0788  -13.1505 N   0  0  0  0  0  0  0  0  0  0  0  0
   -8.6925    3.4397  -13.5945 H   0  0  0  0  0  0  0  0  0  0  0  0
   -8.1586    4.0757  -11.7572 C   0  0  0  0  0  0  0  0  0  0  0  0
   -7.8890    5.2359  -11.0129 C   0  0  0  0  0  0  0  0  0  0  0  0
   -8.0183    5.2404   -9.6187 C   0  0  0  0  0  0  0  0  0  0  0  0
   -8.4108    4.0713   -8.9940 C   0  0  0  0  0  0  0  0  0  0  0  0
   -8.6539    2.9139   -9.7262 C   0  0  0  0  0  0  0  0  0  0  0  0
   -8.5410    2.8986  -11.1067 C   0  0  0  0  0  0  0  0  0  0  0  0
   -8.9996    1.8067   -8.7852 C   0  0  0  0  0  0  0  0  0  0  0  0
   -9.3361    2.4819   -7.5036 N   0  0  0  0  0  0  0  0  0  0  0  0
   -8.6315    3.7834   -7.5466 C   0  0  0  0  0  0  0  0  0  0  0  0
   -9.0115    1.9266   -6.7120 H   0  0  0  0  0  0  0  0  0  0  0  0
 20 21  2  0  0  0
 21 22  1  0  0  0
 22 24  1  0  0  0
 24 25  2  0  0  0
 25 26  1  0  0  0
 26 27  2  0  0  0
 27 28  1  0  0  0
 28 29  2  0  0  0
 28 30  1  0  0  0
 30 31  1  0  0  0
 31 32  1  0  0  0
 21  1  1  0  0  0
  1  2  2  0  0  0
  2  3  1  0  0  0
  3  4  1  0  0  0
  3  5  2  0  0  0
  5  6  1  0  0  0
  6  7  1  0  0  0
  7  8  2  0  0  0
  8  9  1  0  0  0
  9 10  1  0  0  0
  8 11  1  0  0  0
 11 12  1  0  0  0
 12 13  1  0  0  0
 13 14  1  0  0  0
 14 15  1  0  0  0
 15 16  1  0  0  0
 11 17  1  0  0  0
 17 18  1  0  0  0
 29 24  1  0  0  0
 10  1  1  0  0  0
 16 11  1  0  0  0
 32 27  1  0  0  0
 10  6  2  0  0  0
 18  7  1  0  0  0
 22 23  1  0  0  0
 31 33  1  0  0  0
  9 19  1  0  0  0
M  END
> <minimizedAffinity>
-10.72880

> <minimizedRMSD>
0.62537

$$$$
P22109


 29 32  0  0  0  0  0  0  0  0999 V2000
   -7.3127    5.0486  -14.6639 C   0  0  0  0  0  0  0  0  0  0  0  0
   -6.8371    6.1125  -14.6258 O   0  0  0  0  0  0  0  0  0  0  0  0
   -7.7220    4.0956  -13.5228 N   0  0  0  0  0  0  0  0  0  0  0  0
   -8.0356    3.2103  -13.8178 H   0  0  0  0  0  0  0  0  0  0  0  0
   -5.4997    5.5388  -18.7826 C   0  0  0  0  0  0  0  0  0  0  0  0
   -5.4975    5.1883  -17.2730 C   0  0  0  0  0  0  0  0  0  0  0  0
   -6.8926    4.6785  -17.1273 C   0  0  0  0  0  0  0  0  0  0  0  0
   -7.3776    4.3790  -18.4045 C   0  0  0  0  0  0  0  0  0  0  0  0
   -8.6502    3.8916  -18.6074 C   0  0  0  0  0  0  0  0  0  0  0  0
   -9.4812    3.7582  -17.5067 C   0  0  0  0  0  0  0  0  0  0  0  0
   -9.0084    4.0559  -16.2193 C   0  0  0  0  0  0  0  0  0  0  0  0
   -7.6979    4.5134  -16.0082 C   0  0  0  0  0  0  0  0  0  0  0  0
   -6.4355    4.6065  -19.4393 N   0  0  0  0  0  0  0  0  0  0  0  0
   -6.4121    4.2400  -20.3528 H   0  0  0  0  0  0  0  0  0  0  0  0
   -4.1123    5.4551  -19.4425 C   0  0  0  0  0  0  0  0  0  0  0  0
   -4.5891    7.2996  -20.9561 C   0  0  0  0  0  0  0  0  0  0  0  0
   -3.6350    6.7365  -20.0065 N   0  0  0  0  0  0  0  0  0  0  0  0
   -3.4958    7.4008  -19.2451 H   0  0  0  0  0  0  0  0  0  0  0  0
   -7.7201    4.2901  -12.0941 C   0  0  0  0  0  0  0  0  0  0  0  0
   -6.3516    4.5206  -11.4733 C   0  0  0  0  0  0  0  0  0  0  0  0
   -6.6761    4.4388   -9.9852 C   0  0  0  0  0  0  0  0  0  0  0  0
   -7.6877    3.3938   -9.9132 N   0  0  0  0  0  0  0  0  0  0  0  0
   -8.2996    3.1566  -11.2274 C   0  0  0  0  0  0  0  0  0  0  0  0
   -8.4094    3.2475   -8.7437 C   0  0  0  0  0  0  0  0  0  0  0  0
   -9.0419    2.0437   -8.4456 C   0  0  0  0  0  0  0  0  0  0  0  0
   -9.7589    1.8868   -7.2629 C   0  0  0  0  0  0  0  0  0  0  0  0
   -9.8109    2.9367   -6.3675 C   0  0  0  0  0  0  0  0  0  0  0  0
   -9.1458    4.0979   -6.7104 C   0  0  0  0  0  0  0  0  0  0  0  0
   -8.4623    4.2795   -7.8661 N   0  0  0  0  0  0  0  0  0  0  0  0
 16 17  1  0  0  0
 17 15  1  0  0  0
  5 15  1  0  0  0
  5  6  1  0  0  0
  6  7  1  0  0  0
  7  8  2  0  0  0
  8  9  1  0  0  0
  9 10  2  0  0  0
 10 11  1  0  0  0
 11 12  2  0  0  0
 12  1  1  0  0  0
  1  2  2  0  0  0
  1  3  1  0  0  0
 19  3  1  0  0  0
 19 20  1  0  0  0
 20 21  1  0  0  0
 21 22  1  0  0  0
 22 24  1  0  0  0
 24 25  2  0  0  0
 25 26  1  0  0  0
 26 27  2  0  0  0
 27 28  1  0  0  0
 28 29  2  0  0  0
 22 23  1  0  0  0
  8 13  1  0  0  0
 13  5  1  0  0  0
 12  7  1  0  0  0
 23 19  1  0  0  0
 29 24  1  0  0  0
 17 18  1  0  0  0
  3  4  1  0  0  0
 13 14  1  0  0  0
M  END
> <minimizedAffinity>
-8.67836

> <minimizedRMSD>
0.52618

$$$$
P22111


 32 36  0  0  0  0  0  0  0  0999 V2000
   -7.4045    4.7785  -16.1304 C   0  0  0  0  0  0  0  0  0  0  0  0
   -8.6828    4.1969  -16.2752 C   0  0  0  0  0  0  0  0  0  0  0  0
   -9.1647    3.8022  -17.5345 C   0  0  0  0  0  0  0  0  0  0  0  0
   -8.3708    3.9533  -18.6660 C   0  0  0  0  0  0  0  0  0  0  0  0
   -7.1182    4.5141  -18.4983 C   0  0  0  0  0  0  0  0  0  0  0  0
   -6.6174    4.9603  -17.2664 C   0  0  0  0  0  0  0  0  0  0  0  0
   -5.2455    5.6015  -17.5008 C   0  0  0  0  0  0  0  0  0  0  0  0
   -4.1156    5.1743  -16.5583 C   0  0  0  0  0  0  0  0  0  0  0  0
   -2.8101    5.9411  -16.7798 C   0  0  0  0  0  0  0  0  0  0  0  0
   -3.0040    7.3859  -16.7443 N   0  0  0  0  0  0  0  0  0  0  0  0
   -3.9791    7.8140  -17.7403 C   0  0  0  0  0  0  0  0  0  0  0  0
   -5.3326    7.1381  -17.5155 C   0  0  0  0  0  0  0  0  0  0  0  0
   -4.9811    5.1579  -18.9769 C   0  0  0  0  0  0  0  0  0  0  0  0
   -3.9388    5.2413  -19.6104 O   0  0  0  0  0  0  0  0  0  0  0  0
   -6.1729    4.6854  -19.4937 N   0  0  0  0  0  0  0  0  0  0  0  0
   -2.1131    7.8455  -16.9325 H   0  0  0  0  0  0  0  0  0  0  0  0
   -6.3289    4.4954  -20.4471 H   0  0  0  0  0  0  0  0  0  0  0  0
   -6.5851    6.3925  -14.7548 O   0  0  0  0  0  0  0  0  0  0  0  0
   -7.0177    5.3130  -14.7966 C   0  0  0  0  0  0  0  0  0  0  0  0
   -7.3176    4.3153  -13.6661 N   0  0  0  0  0  0  0  0  0  0  0  0
   -7.6125    3.4261  -13.9687 H   0  0  0  0  0  0  0  0  0  0  0  0
   -7.2369    4.4704  -12.2297 C   0  0  0  0  0  0  0  0  0  0  0  0
   -7.8769    5.7771  -11.7643 C   0  0  0  0  0  0  0  0  0  0  0  0
   -8.0374    5.5532  -10.2711 C   0  0  0  0  0  0  0  0  0  0  0  0
   -8.3979    4.1511  -10.1907 N   0  0  0  0  0  0  0  0  0  0  0  0
   -7.9588    3.4062  -11.3718 C   0  0  0  0  0  0  0  0  0  0  0  0
   -8.6241    3.5887   -8.9571 C   0  0  0  0  0  0  0  0  0  0  0  0
   -9.1129    2.2927   -8.8311 C   0  0  0  0  0  0  0  0  0  0  0  0
   -9.3643    1.7457   -7.5758 C   0  0  0  0  0  0  0  0  0  0  0  0
   -9.1362    2.5156   -6.4517 C   0  0  0  0  0  0  0  0  0  0  0  0
   -8.6638    3.7985   -6.6423 C   0  0  0  0  0  0  0  0  0  0  0  0
   -8.4164    4.3489   -7.8536 N   0  0  0  0  0  0  0  0  0  0  0  0
 18 19  2  0  0  0
 19 20  1  0  0  0
 22 20  1  0  0  0
 22 23  1  0  0  0
 23 24  1  0  0  0
 24 25  1  0  0  0
 25 27  1  0  0  0
 27 28  2  0  0  0
 28 29  1  0  0  0
 29 30  2  0  0  0
 30 31  1  0  0  0
 31 32  2  0  0  0
 25 26  1  0  0  0
 19  1  1  0  0  0
  1  2  2  0  0  0
  2  3  1  0  0  0
  3  4  2  0  0  0
  4  5  1  0  0  0
  5  6  2  0  0  0
  6  7  1  0  0  0
  7  8  1  0  0  0
  8  9  1  0  0  0
  9 10  1  0  0  0
 10 11  1  0  0  0
 11 12  1  0  0  0
  7 13  1  0  0  0
 13 14  2  0  0  0
 13 15  1  0  0  0
 26 22  1  0  0  0
  6  1  1  0  0  0
 12  7  1  0  0  0
 32 27  1  0  0  0
 15  5  1  0  0  0
 20 21  1  0  0  0
 10 16  1  0  0  0
 15 17  1  0  0  0
M  END
> <minimizedAffinity>
-9.98478

> <minimizedRMSD>
0.28278

$$$$
P22112


 31 34  0  0  0  0  0  0  0  0999 V2000
   -4.8990    5.3224  -17.1396 C   0  0  0  0  0  0  0  0  0  0  0  0
   -4.5670    5.2610  -18.6563 C   0  0  0  0  0  0  0  0  0  0  0  0
   -3.4833    5.4562  -19.1865 O   0  0  0  0  0  0  0  0  0  0  0  0
   -5.7185    4.9244  -19.3311 N   0  0  0  0  0  0  0  0  0  0  0  0
   -6.7592    4.7018  -18.4524 C   0  0  0  0  0  0  0  0  0  0  0  0
   -8.0250    4.3287  -18.8267 C   0  0  0  0  0  0  0  0  0  0  0  0
   -8.9537    4.2175  -17.8128 C   0  0  0  0  0  0  0  0  0  0  0  0
  -10.7579    4.1297  -18.2738 Br  0  0  0  0  0  0  0  0  0  0  0  0
   -8.6079    4.3912  -16.4708 C   0  0  0  0  0  0  0  0  0  0  0  0
   -7.3036    4.7659  -16.1092 C   0  0  0  0  0  0  0  0  0  0  0  0
   -6.3666    4.9458  -17.1250 C   0  0  0  0  0  0  0  0  0  0  0  0
   -5.7902    4.8521  -20.3103 H   0  0  0  0  0  0  0  0  0  0  0  0
   -7.1550    5.2295  -14.7036 C   0  0  0  0  0  0  0  0  0  0  0  0
   -6.4633    6.1468  -14.5183 O   0  0  0  0  0  0  0  0  0  0  0  0
   -8.0517    4.4440  -13.7307 N   0  0  0  0  0  0  0  0  0  0  0  0
   -8.4856    3.6504  -14.1195 H   0  0  0  0  0  0  0  0  0  0  0  0
   -8.3604    4.6814  -12.3400 C   0  0  0  0  0  0  0  0  0  0  0  0
   -7.5834    5.8281  -11.7117 C   0  0  0  0  0  0  0  0  0  0  0  0
   -7.9156    5.6551  -10.2359 C   0  0  0  0  0  0  0  0  0  0  0  0
   -7.9512    4.2095  -10.0648 N   0  0  0  0  0  0  0  0  0  0  0  0
   -8.1324    3.5241  -11.3492 C   0  0  0  0  0  0  0  0  0  0  0  0
   -8.4667    3.7066   -8.8851 C   0  0  0  0  0  0  0  0  0  0  0  0
   -8.9924    2.4198   -8.8270 C   0  0  0  0  0  0  0  0  0  0  0  0
   -9.4994    1.9092   -7.6353 C   0  0  0  0  0  0  0  0  0  0  0  0
   -9.4458    2.6875   -6.4958 C   0  0  0  0  0  0  0  0  0  0  0  0
   -8.8926    3.9474   -6.6125 C   0  0  0  0  0  0  0  0  0  0  0  0
   -8.4161    4.4714   -7.7672 N   0  0  0  0  0  0  0  0  0  0  0  0
   -4.4615    6.7089  -16.6618 C   0  0  0  0  0  0  0  0  0  0  0  0
   -2.9530    5.5694  -15.1031 C   0  0  0  0  0  0  0  0  0  0  0  0
   -3.5984    6.8149  -15.4804 N   0  0  0  0  0  0  0  0  0  0  0  0
   -2.8732    7.5054  -15.6746 H   0  0  0  0  0  0  0  0  0  0  0  0
 29 30  1  0  0  0
 30 28  1  0  0  0
  1 28  1  0  0  0
  1  2  1  0  0  0
  2  3  2  0  0  0
  2  4  1  0  0  0
  4  5  1  0  0  0
  5  6  2  0  0  0
  6  7  1  0  0  0
  7  8  1  0  0  0
  7  9  2  0  0  0
  9 10  1  0  0  0
 10 13  1  0  0  0
 13 14  2  0  0  0
 13 15  1  0  0  0
 17 15  1  0  0  0
 17 18  1  0  0  0
 18 19  1  0  0  0
 19 20  1  0  0  0
 20 22  1  0  0  0
 22 23  2  0  0  0
 23 24  1  0  0  0
 24 25  2  0  0  0
 25 26  1  0  0  0
 26 27  2  0  0  0
 20 21  1  0  0  0
 10 11  2  0  0  0
 11  1  1  0  0  0
 11  5  1  0  0  0
 21 17  1  0  0  0
 27 22  1  0  0  0
 30 31  1  0  0  0
  4 12  1  0  0  0
 15 16  1  0  0  0
M  END
> <minimizedAffinity>
-8.13604

> <minimizedRMSD>
0.34331

$$$$
P22114


 36 40  0  0  0  0  0  0  0  0999 V2000
   -6.9834    5.2356  -14.7823 C   0  0  0  0  0  0  0  0  0  0  0  0
   -6.3572    6.2179  -14.7815 O   0  0  0  0  0  0  0  0  0  0  0  0
   -7.4928    4.3779  -13.6131 N   0  0  0  0  0  0  0  0  0  0  0  0
   -8.0728    3.6269  -13.8751 H   0  0  0  0  0  0  0  0  0  0  0  0
   -5.1503    5.6388  -18.8361 C   0  0  0  0  0  0  0  0  0  0  0  0
   -5.1898    5.3355  -17.3237 C   0  0  0  0  0  0  0  0  0  0  0  0
   -6.5901    4.8312  -17.2115 C   0  0  0  0  0  0  0  0  0  0  0  0
   -7.0366    4.4999  -18.4925 C   0  0  0  0  0  0  0  0  0  0  0  0
   -8.3166    4.0600  -18.7160 C   0  0  0  0  0  0  0  0  0  0  0  0
   -9.1836    4.0540  -17.6336 C   0  0  0  0  0  0  0  0  0  0  0  0
  -10.8514    3.9437  -17.9834 Cl  0  0  0  0  0  0  0  0  0  0  0  0
   -8.7501    4.3287  -16.3256 C   0  0  0  0  0  0  0  0  0  0  0  0
   -7.4249    4.7182  -16.1063 C   0  0  0  0  0  0  0  0  0  0  0  0
   -6.0507    4.6711  -19.4974 N   0  0  0  0  0  0  0  0  0  0  0  0
   -5.9843    4.2592  -20.3892 H   0  0  0  0  0  0  0  0  0  0  0  0
   -3.7361    5.5626  -19.4147 C   0  0  0  0  0  0  0  0  0  0  0  0
   -2.3550    6.1599  -21.3176 C   0  0  0  0  0  0  0  0  0  0  0  0
   -3.6980    6.1098  -20.7788 N   0  0  0  0  0  0  0  0  0  0  0  0
   -4.2716    5.5218  -21.3835 H   0  0  0  0  0  0  0  0  0  0  0  0
   -7.2586    4.4946  -12.1894 C   0  0  0  0  0  0  0  0  0  0  0  0
   -8.1101    3.6178  -11.2617 C   0  0  0  0  0  0  0  0  0  0  0  0
   -8.1840    4.3844  -10.0038 N   0  0  0  0  0  0  0  0  0  0  0  0
   -7.6590    5.7555  -10.1567 C   0  0  0  0  0  0  0  0  0  0  0  0
   -6.2455    5.8854   -9.5387 C   0  0  0  0  0  0  0  0  0  0  0  0
   -6.0524    7.2048   -8.7846 C   0  0  0  0  0  0  0  0  0  0  0  0
   -6.5697    8.3158   -9.5790 N   0  0  0  0  0  0  0  0  0  0  0  0
   -6.1683    9.6094   -9.0355 C   0  0  0  0  0  0  0  0  0  0  0  0
   -8.0267    8.2486   -9.7646 C   0  0  0  0  0  0  0  0  0  0  0  0
   -8.6130    6.8381   -9.6251 C   0  0  0  0  0  0  0  0  0  0  0  0
   -7.5902    5.8980  -11.6984 C   0  0  0  0  0  0  0  0  0  0  0  0
   -8.5490    3.6987   -8.8712 C   0  0  0  0  0  0  0  0  0  0  0  0
   -8.4309    4.2184   -7.5831 C   0  0  0  0  0  0  0  0  0  0  0  0
   -8.8462    3.4825   -6.4710 C   0  0  0  0  0  0  0  0  0  0  0  0
   -9.3527    2.2111   -6.6560 C   0  0  0  0  0  0  0  0  0  0  0  0
   -9.4148    1.7391   -7.9477 C   0  0  0  0  0  0  0  0  0  0  0  0
   -9.0520    2.4586   -9.0321 N   0  0  0  0  0  0  0  0  0  0  0  0
 17 18  1  0  0  0
 18 16  1  0  0  0
  5 16  1  0  0  0
  5  6  1  0  0  0
  6  7  1  0  0  0
  7  8  2  0  0  0
  8  9  1  0  0  0
  9 10  2  0  0  0
 10 11  1  0  0  0
 10 12  1  0  0  0
 12 13  2  0  0  0
 13  1  1  0  0  0
  1  2  2  0  0  0
  1  3  1  0  0  0
 20  3  1  0  0  0
 20 21  1  0  0  0
 21 22  1  0  0  0
 22 31  1  0  0  0
 31 32  2  0  0  0
 32 33  1  0  0  0
 33 34  2  0  0  0
 34 35  1  0  0  0
 35 36  2  0  0  0
 22 23  1  0  0  0
 23 24  1  0  0  0
 24 25  1  0  0  0
 25 26  1  0  0  0
 26 27  1  0  0  0
 26 28  1  0  0  0
 28 29  1  0  0  0
 23 30  1  0  0  0
  8 14  1  0  0  0
 14  5  1  0  0  0
 13  7  1  0  0  0
 30 20  1  0  0  0
 36 31  1  0  0  0
 29 23  1  0  0  0
 18 19  1  0  0  0
  3  4  1  0  0  0
 14 15  1  0  0  0
M  END
> <minimizedAffinity>
-9.26286

> <minimizedRMSD>
0.18249

$$$$
P22116


 37 41  0  0  0  0  0  0  0  0999 V2000
   -7.2713    5.0296  -14.3814 C   0  0  0  0  0  0  0  0  0  0  0  0
   -7.3280    6.1549  -14.0959 O   0  0  0  0  0  0  0  0  0  0  0  0
   -7.0853    3.7889  -13.5008 N   0  0  0  0  0  0  0  0  0  0  0  0
   -6.9927    2.9428  -13.9955 H   0  0  0  0  0  0  0  0  0  0  0  0
   -4.8757    5.9811  -18.1434 C   0  0  0  0  0  0  0  0  0  0  0  0
   -4.0671    4.8799  -18.5233 O   0  0  0  0  0  0  0  0  0  0  0  0
   -5.2944    5.8603  -16.6509 C   0  0  0  0  0  0  0  0  0  0  0  0
   -6.6063    5.1490  -16.7817 C   0  0  0  0  0  0  0  0  0  0  0  0
   -6.9676    5.1094  -18.1288 C   0  0  0  0  0  0  0  0  0  0  0  0
   -8.1740    4.5750  -18.5241 C   0  0  0  0  0  0  0  0  0  0  0  0
   -9.0449    4.1203  -17.5383 C   0  0  0  0  0  0  0  0  0  0  0  0
  -10.6489    3.7526  -17.9906 Cl  0  0  0  0  0  0  0  0  0  0  0  0
   -8.6977    4.1445  -16.1835 C   0  0  0  0  0  0  0  0  0  0  0  0
   -7.4675    4.6794  -15.8014 C   0  0  0  0  0  0  0  0  0  0  0  0
   -6.0851    5.8491  -18.9434 N   0  0  0  0  0  0  0  0  0  0  0  0
   -3.2350    4.9027  -18.0252 H   0  0  0  0  0  0  0  0  0  0  0  0
   -6.2498    6.1977  -19.8492 H   0  0  0  0  0  0  0  0  0  0  0  0
   -4.0232    7.2337  -18.4482 C   0  0  0  0  0  0  0  0  0  0  0  0
   -5.2543    9.2978  -18.2681 C   0  0  0  0  0  0  0  0  0  0  0  0
   -4.2169    8.4704  -17.6793 N   0  0  0  0  0  0  0  0  0  0  0  0
   -4.4847    8.2302  -16.7248 H   0  0  0  0  0  0  0  0  0  0  0  0
   -7.0233    3.6577  -12.0528 C   0  0  0  0  0  0  0  0  0  0  0  0
   -8.0412    4.5025  -11.2719 C   0  0  0  0  0  0  0  0  0  0  0  0
   -7.4911    4.6274   -9.9111 N   0  0  0  0  0  0  0  0  0  0  0  0
   -6.1231    4.0872   -9.8882 C   0  0  0  0  0  0  0  0  0  0  0  0
   -5.7007    3.9816  -11.3532 C   0  0  0  0  0  0  0  0  0  0  0  0
   -4.6195    2.9122  -11.5860 C   0  0  0  0  0  0  0  0  0  0  0  0
   -3.8565    3.3875  -12.8148 C   0  0  0  0  0  0  0  0  0  0  0  0
   -3.7331    4.8920  -12.6252 C   0  0  0  0  0  0  0  0  0  0  0  0
   -4.9385    5.2266  -11.7752 C   0  0  0  0  0  0  0  0  0  0  0  0
   -5.1768    6.3697  -11.4030 O   0  0  0  0  0  0  0  0  0  0  0  0
   -8.2457    4.0937   -8.8588 C   0  0  0  0  0  0  0  0  0  0  0  0
   -8.2721    4.7909   -7.6469 C   0  0  0  0  0  0  0  0  0  0  0  0
   -8.9657    4.2693   -6.5585 C   0  0  0  0  0  0  0  0  0  0  0  0
   -9.6098    3.0514   -6.6984 C   0  0  0  0  0  0  0  0  0  0  0  0
   -9.5311    2.4182   -7.9253 C   0  0  0  0  0  0  0  0  0  0  0  0
   -8.8779    2.9173   -8.9995 N   0  0  0  0  0  0  0  0  0  0  0  0
 19 20  1  0  0  0
 20 18  1  0  0  0
 18  5  1  0  0  0
  5  6  1  0  0  0
  5  7  1  0  0  0
  7  8  1  0  0  0
  8  9  2  0  0  0
  9 10  1  0  0  0
 10 11  2  0  0  0
 11 12  1  0  0  0
 11 13  1  0  0  0
 13 14  2  0  0  0
 14  1  1  0  0  0
  1  2  2  0  0  0
  1  3  1  0  0  0
 22  3  1  0  0  0
 22 23  1  0  0  0
 23 24  1  0  0  0
 24 32  1  0  0  0
 32 33  2  0  0  0
 33 34  1  0  0  0
 34 35  2  0  0  0
 35 36  1  0  0  0
 36 37  2  0  0  0
 24 25  1  0  0  0
 26 25  1  0  0  0
 26 27  1  0  0  0
 27 28  1  0  0  0
 28 29  1  0  0  0
 29 30  1  0  0  0
 30 31  2  0  0  0
  9 15  1  0  0  0
 15  5  1  0  0  0
 14  8  1  0  0  0
 26 22  1  0  0  0
 37 32  1  0  0  0
 30 26  1  0  0  0
 20 21  1  0  0  0
  6 16  1  0  0  0
  3  4  1  0  0  0
 15 17  1  0  0  0
M  END
> <minimizedAffinity>
-8.51713

> <minimizedRMSD>
0.74975

$$$$
P22117


 31 34  0  0  0  0  0  0  0  0999 V2000
   -7.1717    5.1477  -14.7209 C   0  0  0  0  0  0  0  0  0  0  0  0
   -6.6482    6.1863  -14.6554 O   0  0  0  0  0  0  0  0  0  0  0  0
   -7.6850    4.2183  -13.6086 N   0  0  0  0  0  0  0  0  0  0  0  0
   -8.0253    3.3493  -13.9220 H   0  0  0  0  0  0  0  0  0  0  0  0
   -5.0579    5.5465  -18.6871 C   0  0  0  0  0  0  0  0  0  0  0  0
   -5.2585    5.2981  -17.1740 C   0  0  0  0  0  0  0  0  0  0  0  0
   -6.6596    4.8070  -17.1505 C   0  0  0  0  0  0  0  0  0  0  0  0
   -7.0696    4.5357  -18.4564 C   0  0  0  0  0  0  0  0  0  0  0  0
   -8.3441    4.0909  -18.7216 C   0  0  0  0  0  0  0  0  0  0  0  0
   -9.2218    3.9950  -17.6491 C   0  0  0  0  0  0  0  0  0  0  0  0
  -10.8912    3.8688  -17.9635 Cl  0  0  0  0  0  0  0  0  0  0  0  0
   -8.8120    4.2105  -16.3288 C   0  0  0  0  0  0  0  0  0  0  0  0
   -7.5103    4.6314  -16.0712 C   0  0  0  0  0  0  0  0  0  0  0  0
   -6.0485    4.7236  -19.4159 N   0  0  0  0  0  0  0  0  0  0  0  0
   -6.0068    4.3893  -20.3409 H   0  0  0  0  0  0  0  0  0  0  0  0
   -3.6273    5.2027  -19.1375 C   0  0  0  0  0  0  0  0  0  0  0  0
   -1.5595    5.8871  -18.0653 C   0  0  0  0  0  0  0  0  0  0  0  0
   -2.6600    4.9325  -18.0632 N   0  0  0  0  0  0  0  0  0  0  0  0
   -3.1413    4.9871  -17.1656 H   0  0  0  0  0  0  0  0  0  0  0  0
   -7.7490    4.4121  -12.1824 C   0  0  0  0  0  0  0  0  0  0  0  0
   -6.4392    4.8773  -11.5656 C   0  0  0  0  0  0  0  0  0  0  0  0
   -6.7227    4.7051  -10.0813 C   0  0  0  0  0  0  0  0  0  0  0  0
   -7.5024    3.4736  -10.0224 N   0  0  0  0  0  0  0  0  0  0  0  0
   -8.1111    3.1834  -11.3313 C   0  0  0  0  0  0  0  0  0  0  0  0
   -8.2428    3.2490   -8.8694 C   0  0  0  0  0  0  0  0  0  0  0  0
   -8.7952    1.9959   -8.6223 C   0  0  0  0  0  0  0  0  0  0  0  0
   -9.6155    1.7860   -7.5187 C   0  0  0  0  0  0  0  0  0  0  0  0
   -9.8410    2.8294   -6.6356 C   0  0  0  0  0  0  0  0  0  0  0  0
  -10.8075    2.7040   -5.5064 C   0  0  0  0  0  0  0  0  0  0  0  0
   -9.1956    4.0270   -6.9021 C   0  0  0  0  0  0  0  0  0  0  0  0
   -8.4138    4.2585   -7.9831 N   0  0  0  0  0  0  0  0  0  0  0  0
 17 18  1  0  0  0
 18 16  1  0  0  0
  5 16  1  0  0  0
  5  6  1  0  0  0
  6  7  1  0  0  0
  7  8  2  0  0  0
  8  9  1  0  0  0
  9 10  2  0  0  0
 10 11  1  0  0  0
 10 12  1  0  0  0
 12 13  2  0  0  0
 13  1  1  0  0  0
  1  2  2  0  0  0
  1  3  1  0  0  0
 20  3  1  0  0  0
 20 21  1  0  0  0
 21 22  1  0  0  0
 22 23  1  0  0  0
 23 25  1  0  0  0
 25 26  2  0  0  0
 26 27  1  0  0  0
 27 28  2  0  0  0
 28 29  1  0  0  0
 28 30  1  0  0  0
 30 31  2  0  0  0
 23 24  1  0  0  0
  8 14  1  0  0  0
 14  5  1  0  0  0
 13  7  1  0  0  0
 24 20  1  0  0  0
 31 25  1  0  0  0
 18 19  1  0  0  0
  3  4  1  0  0  0
 14 15  1  0  0  0
M  END
> <minimizedAffinity>
-8.94858

> <minimizedRMSD>
0.59332

$$$$
P22118


 30 33  0  0  0  0  0  0  0  0999 V2000
   -4.8680    5.1431  -18.8334 C   0  0  0  0  0  0  0  0  0  0  0  0
   -5.2213    5.4142  -17.3522 C   0  0  0  0  0  0  0  0  0  0  0  0
   -6.5991    4.8315  -17.2638 C   0  0  0  0  0  0  0  0  0  0  0  0
   -7.0354    4.5027  -18.5476 C   0  0  0  0  0  0  0  0  0  0  0  0
   -8.3286    4.0917  -18.7672 C   0  0  0  0  0  0  0  0  0  0  0  0
   -9.1824    4.0098  -17.6731 C   0  0  0  0  0  0  0  0  0  0  0  0
  -10.8499    3.8053  -17.9928 Cl  0  0  0  0  0  0  0  0  0  0  0  0
   -8.7427    4.2666  -16.3644 C   0  0  0  0  0  0  0  0  0  0  0  0
   -7.4275    4.6940  -16.1539 C   0  0  0  0  0  0  0  0  0  0  0  0
   -6.1194    4.8589  -19.5409 N   0  0  0  0  0  0  0  0  0  0  0  0
   -6.2806    4.9084  -20.5108 H   0  0  0  0  0  0  0  0  0  0  0  0
   -6.9688    5.1862  -14.8229 C   0  0  0  0  0  0  0  0  0  0  0  0
   -6.2967    6.1369  -14.8063 O   0  0  0  0  0  0  0  0  0  0  0  0
   -7.4745    4.3041  -13.6712 N   0  0  0  0  0  0  0  0  0  0  0  0
   -7.9722    3.5030  -13.9537 H   0  0  0  0  0  0  0  0  0  0  0  0
   -7.3388    4.4587  -12.2415 C   0  0  0  0  0  0  0  0  0  0  0  0
   -7.9172    5.7893  -11.7667 C   0  0  0  0  0  0  0  0  0  0  0  0
   -8.0237    5.5825  -10.2651 C   0  0  0  0  0  0  0  0  0  0  0  0
   -8.4063    4.1875  -10.1548 N   0  0  0  0  0  0  0  0  0  0  0  0
   -8.0521    3.4238  -11.3488 C   0  0  0  0  0  0  0  0  0  0  0  0
   -8.6173    3.6422   -8.9123 C   0  0  0  0  0  0  0  0  0  0  0  0
   -9.1311    2.3583   -8.7609 C   0  0  0  0  0  0  0  0  0  0  0  0
   -9.3710    1.8337   -7.4939 C   0  0  0  0  0  0  0  0  0  0  0  0
   -9.1044    2.6130   -6.3849 C   0  0  0  0  0  0  0  0  0  0  0  0
   -8.6044    3.8812   -6.6008 C   0  0  0  0  0  0  0  0  0  0  0  0
   -8.3672    4.4097   -7.8233 N   0  0  0  0  0  0  0  0  0  0  0  0
   -4.0743    6.2719  -19.5264 C   0  0  0  0  0  0  0  0  0  0  0  0
   -5.4342    8.2227  -20.0263 C   0  0  0  0  0  0  0  0  0  0  0  0
   -4.3841    7.6687  -19.1839 N   0  0  0  0  0  0  0  0  0  0  0  0
   -4.6884    7.7084  -18.2112 H   0  0  0  0  0  0  0  0  0  0  0  0
 28 29  1  0  0  0
 29 27  1  0  0  0
  1 27  1  0  0  0
  1  2  1  0  0  0
  2  3  1  0  0  0
  3  4  2  0  0  0
  4  5  1  0  0  0
  5  6  2  0  0  0
  6  7  1  0  0  0
  6  8  1  0  0  0
  8  9  2  0  0  0
  9 12  1  0  0  0
 12 13  2  0  0  0
 12 14  1  0  0  0
 16 14  1  0  0  0
 16 17  1  0  0  0
 17 18  1  0  0  0
 18 19  1  0  0  0
 19 21  1  0  0  0
 21 22  2  0  0  0
 22 23  1  0  0  0
 23 24  2  0  0  0
 24 25  1  0  0  0
 25 26  2  0  0  0
 19 20  1  0  0  0
  4 10  1  0  0  0
 10  1  1  0  0  0
  9  3  1  0  0  0
 20 16  1  0  0  0
 26 21  1  0  0  0
 29 30  1  0  0  0
 14 15  1  0  0  0
 10 11  1  0  0  0
M  END
> <minimizedAffinity>
-8.63678

> <minimizedRMSD>
0.25862

$$$$
P22119


 33 36  0  0  0  0  0  0  0  0999 V2000
   -5.4501    5.7885  -18.8573 C   0  0  0  0  0  0  0  0  0  0  0  0
   -6.0696    7.0524  -19.1284 O   0  0  0  0  0  0  0  0  0  0  0  0
   -5.4904    5.5133  -17.3210 C   0  0  0  0  0  0  0  0  0  0  0  0
   -6.8295    4.8413  -17.1913 C   0  0  0  0  0  0  0  0  0  0  0  0
   -7.2367    4.4828  -18.4828 C   0  0  0  0  0  0  0  0  0  0  0  0
   -8.4610    3.9316  -18.7450 C   0  0  0  0  0  0  0  0  0  0  0  0
   -9.3379    3.8474  -17.6896 C   0  0  0  0  0  0  0  0  0  0  0  0
  -10.9838    3.6359  -18.0584 Cl  0  0  0  0  0  0  0  0  0  0  0  0
   -8.9450    4.1324  -16.3778 C   0  0  0  0  0  0  0  0  0  0  0  0
   -7.6576    4.6128  -16.0967 C   0  0  0  0  0  0  0  0  0  0  0  0
   -6.2938    4.7747  -19.4804 N   0  0  0  0  0  0  0  0  0  0  0  0
   -5.5418    7.7630  -18.7316 H   0  0  0  0  0  0  0  0  0  0  0  0
   -6.2197    4.3886  -20.3829 H   0  0  0  0  0  0  0  0  0  0  0  0
   -7.3685    5.1199  -14.7108 C   0  0  0  0  0  0  0  0  0  0  0  0
   -6.6357    6.0211  -14.6047 O   0  0  0  0  0  0  0  0  0  0  0  0
   -8.2104    4.3810  -13.6426 N   0  0  0  0  0  0  0  0  0  0  0  0
   -8.6978    3.5926  -13.9748 H   0  0  0  0  0  0  0  0  0  0  0  0
   -8.3982    4.6612  -12.2314 C   0  0  0  0  0  0  0  0  0  0  0  0
   -8.0628    3.5209  -11.2557 C   0  0  0  0  0  0  0  0  0  0  0  0
   -7.8761    4.2010   -9.9672 N   0  0  0  0  0  0  0  0  0  0  0  0
   -7.8677    5.6529  -10.1496 C   0  0  0  0  0  0  0  0  0  0  0  0
   -7.6455    5.8499  -11.6482 C   0  0  0  0  0  0  0  0  0  0  0  0
   -8.2093    7.0171  -12.0559 F   0  0  0  0  0  0  0  0  0  0  0  0
   -8.4324    3.7031   -8.7997 C   0  0  0  0  0  0  0  0  0  0  0  0
   -8.9741    2.4219   -8.7561 C   0  0  0  0  0  0  0  0  0  0  0  0
   -9.5319    1.9210   -7.5818 C   0  0  0  0  0  0  0  0  0  0  0  0
   -9.5050    2.6983   -6.4406 C   0  0  0  0  0  0  0  0  0  0  0  0
   -8.9262    3.9481   -6.5399 C   0  0  0  0  0  0  0  0  0  0  0  0
   -8.4035    4.4642   -7.6794 N   0  0  0  0  0  0  0  0  0  0  0  0
   -4.0775    5.7468  -19.5797 C   0  0  0  0  0  0  0  0  0  0  0  0
   -2.2094    4.2737  -19.1292 C   0  0  0  0  0  0  0  0  0  0  0  0
   -2.8722    5.5187  -18.7772 N   0  0  0  0  0  0  0  0  0  0  0  0
   -2.2240    6.2912  -18.9302 H   0  0  0  0  0  0  0  0  0  0  0  0
 31 32  1  0  0  0
 32 30  1  0  0  0
 30  1  1  0  0  0
  1  2  1  0  0  0
  1  3  1  0  0  0
  3  4  1  0  0  0
  4  5  2  0  0  0
  5  6  1  0  0  0
  6  7  2  0  0  0
  7  8  1  0  0  0
  7  9  1  0  0  0
  9 10  2  0  0  0
 10 14  1  0  0  0
 14 15  2  0  0  0
 14 16  1  0  0  0
 18 16  1  0  0  0
 18 19  1  0  0  0
 19 20  1  0  0  0
 20 24  1  0  0  0
 24 25  2  0  0  0
 25 26  1  0  0  0
 26 27  2  0  0  0
 27 28  1  0  0  0
 28 29  2  0  0  0
 20 21  1  0  0  0
 21 22  1  0  0  0
 22 23  1  0  0  0
  5 11  1  0  0  0
 11  1  1  0  0  0
 10  4  1  0  0  0
 22 18  1  0  0  0
 29 24  1  0  0  0
 32 33  1  0  0  0
  2 12  1  0  0  0
 16 17  1  0  0  0
 11 13  1  0  0  0
M  END
> <minimizedAffinity>
-9.06511

> <minimizedRMSD>
0.37075

$$$$
P22120


 32 35  0  0  0  0  0  0  0  0999 V2000
   -4.9278    5.5378  -18.5415 C   0  0  0  0  0  0  0  0  0  0  0  0
   -5.1418    6.8719  -18.9806 O   0  0  0  0  0  0  0  0  0  0  0  0
   -5.2226    5.4091  -17.0234 C   0  0  0  0  0  0  0  0  0  0  0  0
   -6.6246    4.8902  -17.0461 C   0  0  0  0  0  0  0  0  0  0  0  0
   -6.9613    4.5733  -18.3635 C   0  0  0  0  0  0  0  0  0  0  0  0
   -8.2236    4.1549  -18.7138 C   0  0  0  0  0  0  0  0  0  0  0  0
   -9.1798    4.1326  -17.7152 C   0  0  0  0  0  0  0  0  0  0  0  0
  -10.8236    4.0828  -18.1671 Cl  0  0  0  0  0  0  0  0  0  0  0  0
   -8.8498    4.3608  -16.3757 C   0  0  0  0  0  0  0  0  0  0  0  0
   -7.5497    4.7370  -16.0207 C   0  0  0  0  0  0  0  0  0  0  0  0
   -5.9209    4.7765  -19.2945 N   0  0  0  0  0  0  0  0  0  0  0  0
   -4.5197    7.4643  -18.5302 H   0  0  0  0  0  0  0  0  0  0  0  0
   -5.8752    4.4759  -20.2309 H   0  0  0  0  0  0  0  0  0  0  0  0
   -7.3130    5.2422  -14.6367 C   0  0  0  0  0  0  0  0  0  0  0  0
   -6.6720    6.2089  -14.5202 O   0  0  0  0  0  0  0  0  0  0  0  0
   -8.0727    4.4133  -13.5808 N   0  0  0  0  0  0  0  0  0  0  0  0
   -8.4816    3.5855  -13.9228 H   0  0  0  0  0  0  0  0  0  0  0  0
   -8.2815    4.6534  -12.1741 C   0  0  0  0  0  0  0  0  0  0  0  0
   -7.2985    5.6186  -11.5328 C   0  0  0  0  0  0  0  0  0  0  0  0
   -7.6248    5.4458  -10.0536 C   0  0  0  0  0  0  0  0  0  0  0  0
   -7.9149    4.0240   -9.9332 N   0  0  0  0  0  0  0  0  0  0  0  0
   -8.2211    3.4306  -11.2397 C   0  0  0  0  0  0  0  0  0  0  0  0
   -8.5054    3.5645   -8.7720 C   0  0  0  0  0  0  0  0  0  0  0  0
   -9.0279    2.2761   -8.7013 C   0  0  0  0  0  0  0  0  0  0  0  0
   -9.6108    1.8061   -7.5282 C   0  0  0  0  0  0  0  0  0  0  0  0
   -9.6389    2.6277   -6.4185 C   0  0  0  0  0  0  0  0  0  0  0  0
   -9.0866    3.8873   -6.5456 C   0  0  0  0  0  0  0  0  0  0  0  0
   -8.5354    4.3724   -7.6837 N   0  0  0  0  0  0  0  0  0  0  0  0
   -3.4882    5.1069  -18.9154 C   0  0  0  0  0  0  0  0  0  0  0  0
   -2.1812    5.8657  -20.8014 C   0  0  0  0  0  0  0  0  0  0  0  0
   -3.2376    4.9574  -20.3745 N   0  0  0  0  0  0  0  0  0  0  0  0
   -2.9555    3.9971  -20.5709 H   0  0  0  0  0  0  0  0  0  0  0  0
 30 31  1  0  0  0
 31 29  1  0  0  0
 29  1  1  0  0  0
  1  2  1  0  0  0
  1  3  1  0  0  0
  3  4  1  0  0  0
  4  5  2  0  0  0
  5  6  1  0  0  0
  6  7  2  0  0  0
  7  8  1  0  0  0
  7  9  1  0  0  0
  9 10  2  0  0  0
 10 14  1  0  0  0
 14 15  2  0  0  0
 14 16  1  0  0  0
 18 16  1  0  0  0
 18 19  1  0  0  0
 19 20  1  0  0  0
 20 21  1  0  0  0
 21 23  1  0  0  0
 23 24  2  0  0  0
 24 25  1  0  0  0
 25 26  2  0  0  0
 26 27  1  0  0  0
 27 28  2  0  0  0
 21 22  1  0  0  0
  5 11  1  0  0  0
 11  1  1  0  0  0
 10  4  1  0  0  0
 22 18  1  0  0  0
 28 23  1  0  0  0
 31 32  1  0  0  0
  2 12  1  0  0  0
 16 17  1  0  0  0
 11 13  1  0  0  0
M  END
> <minimizedAffinity>
-9.16364

> <minimizedRMSD>
0.28325

$$$$
P22121


 31 34  0  0  0  0  0  0  0  0999 V2000
   -6.9061    5.1283  -14.8127 C   0  0  0  0  0  0  0  0  0  0  0  0
   -6.2911    6.1161  -14.7543 O   0  0  0  0  0  0  0  0  0  0  0  0
   -7.3907    4.1879  -13.6959 N   0  0  0  0  0  0  0  0  0  0  0  0
   -7.9653    3.4486  -14.0000 H   0  0  0  0  0  0  0  0  0  0  0  0
   -4.8564    5.1683  -18.8468 C   0  0  0  0  0  0  0  0  0  0  0  0
   -5.2235    5.5011  -17.3859 C   0  0  0  0  0  0  0  0  0  0  0  0
   -6.5759    4.8776  -17.2740 C   0  0  0  0  0  0  0  0  0  0  0  0
   -7.0375    4.5653  -18.5492 C   0  0  0  0  0  0  0  0  0  0  0  0
   -8.3305    4.1396  -18.7506 C   0  0  0  0  0  0  0  0  0  0  0  0
   -9.1613    4.0318  -17.6417 C   0  0  0  0  0  0  0  0  0  0  0  0
  -10.8329    3.8075  -17.9144 Cl  0  0  0  0  0  0  0  0  0  0  0  0
   -8.6897    4.2512  -16.3402 C   0  0  0  0  0  0  0  0  0  0  0  0
   -7.3762    4.6909  -16.1527 C   0  0  0  0  0  0  0  0  0  0  0  0
   -6.0646    4.6965  -19.5551 N   0  0  0  0  0  0  0  0  0  0  0  0
   -6.1656    4.5145  -20.5173 H   0  0  0  0  0  0  0  0  0  0  0  0
   -4.0514    6.2235  -19.6251 C   0  0  0  0  0  0  0  0  0  0  0  0
   -5.4730    8.1424  -20.1162 C   0  0  0  0  0  0  0  0  0  0  0  0
   -4.3130    7.6463  -19.3997 N   0  0  0  0  0  0  0  0  0  0  0  0
   -4.4633    7.7927  -18.4015 H   0  0  0  0  0  0  0  0  0  0  0  0
   -7.1396    4.2130  -12.2722 C   0  0  0  0  0  0  0  0  0  0  0  0
   -7.3267    5.6194  -11.7094 C   0  0  0  0  0  0  0  0  0  0  0  0
   -7.4170    5.3794  -10.2110 C   0  0  0  0  0  0  0  0  0  0  0  0
   -8.0692    4.0877  -10.1119 N   0  0  0  0  0  0  0  0  0  0  0  0
   -8.0659    3.3611  -11.3783 C   0  0  0  0  0  0  0  0  0  0  0  0
   -8.5445    3.6422   -8.9102 C   0  0  0  0  0  0  0  0  0  0  0  0
   -9.0960    2.3708   -8.7607 C   0  0  0  0  0  0  0  0  0  0  0  0
   -9.6274    1.9590   -7.5383 C   0  0  0  0  0  0  0  0  0  0  0  0
   -9.5998    2.8420   -6.4820 C   0  0  0  0  0  0  0  0  0  0  0  0
  -10.1603    2.5337   -5.3077 F   0  0  0  0  0  0  0  0  0  0  0  0
   -9.0207    4.0775   -6.6756 C   0  0  0  0  0  0  0  0  0  0  0  0
   -8.5004    4.4954   -7.8549 N   0  0  0  0  0  0  0  0  0  0  0  0
 17 18  1  0  0  0
 18 16  1  0  0  0
  5 16  1  0  0  0
  5  6  1  0  0  0
  6  7  1  0  0  0
  7  8  2  0  0  0
  8  9  1  0  0  0
  9 10  2  0  0  0
 10 11  1  0  0  0
 10 12  1  0  0  0
 12 13  2  0  0  0
 13  1  1  0  0  0
  1  2  2  0  0  0
  1  3  1  0  0  0
 20  3  1  0  0  0
 20 21  1  0  0  0
 21 22  1  0  0  0
 22 23  1  0  0  0
 23 25  1  0  0  0
 25 26  2  0  0  0
 26 27  1  0  0  0
 27 28  2  0  0  0
 28 29  1  0  0  0
 28 30  1  0  0  0
 30 31  2  0  0  0
 23 24  1  0  0  0
  8 14  1  0  0  0
 14  5  1  0  0  0
 13  7  1  0  0  0
 24 20  1  0  0  0
 31 25  1  0  0  0
 18 19  1  0  0  0
  3  4  1  0  0  0
 14 15  1  0  0  0
M  END
> <minimizedAffinity>
-8.78390

> <minimizedRMSD>
0.32275

$$$$
P22122


 33 36  0  0  0  0  0  0  0  0999 V2000
   -6.9429    5.2037  -14.7302 C   0  0  0  0  0  0  0  0  0  0  0  0
   -6.2613    6.1486  -14.7274 O   0  0  0  0  0  0  0  0  0  0  0  0
   -7.4446    4.3329  -13.5655 N   0  0  0  0  0  0  0  0  0  0  0  0
   -7.9530    3.5348  -13.8370 H   0  0  0  0  0  0  0  0  0  0  0  0
   -5.0551    5.4726  -18.8417 C   0  0  0  0  0  0  0  0  0  0  0  0
   -5.2459    5.4163  -17.3038 C   0  0  0  0  0  0  0  0  0  0  0  0
   -6.6274    4.8746  -17.1841 C   0  0  0  0  0  0  0  0  0  0  0  0
   -7.0787    4.5225  -18.4520 C   0  0  0  0  0  0  0  0  0  0  0  0
   -8.3547    4.0570  -18.6441 C   0  0  0  0  0  0  0  0  0  0  0  0
   -9.1914    3.9912  -17.5389 C   0  0  0  0  0  0  0  0  0  0  0  0
  -10.8501    3.7245  -17.8354 Cl  0  0  0  0  0  0  0  0  0  0  0  0
   -8.7374    4.2743  -16.2408 C   0  0  0  0  0  0  0  0  0  0  0  0
   -7.4284    4.7238  -16.0558 C   0  0  0  0  0  0  0  0  0  0  0  0
   -6.1009    4.6319  -19.4594 N   0  0  0  0  0  0  0  0  0  0  0  0
   -6.1117    4.2403  -20.3626 H   0  0  0  0  0  0  0  0  0  0  0  0
   -5.1175    6.9081  -19.4337 C   0  0  0  0  0  0  0  0  0  0  0  0
   -2.7066    7.2723  -19.4950 C   0  0  0  0  0  0  0  0  0  0  0  0
   -4.0039    7.8173  -19.1283 N   0  0  0  0  0  0  0  0  0  0  0  0
   -4.1464    8.6885  -19.6393 H   0  0  0  0  0  0  0  0  0  0  0  0
   -7.2911    4.4958  -12.1376 C   0  0  0  0  0  0  0  0  0  0  0  0
   -7.8935    5.8074  -11.6462 C   0  0  0  0  0  0  0  0  0  0  0  0
   -7.9373    5.6206  -10.1336 C   0  0  0  0  0  0  0  0  0  0  0  0
   -8.0817    4.1844   -9.9577 N   0  0  0  0  0  0  0  0  0  0  0  0
   -7.9619    3.4588  -11.2184 C   0  0  0  0  0  0  0  0  0  0  0  0
   -8.6015    3.6900   -8.7894 C   0  0  0  0  0  0  0  0  0  0  0  0
   -9.1100    2.3999   -8.7004 C   0  0  0  0  0  0  0  0  0  0  0  0
   -9.7172    1.9462   -7.5300 C   0  0  0  0  0  0  0  0  0  0  0  0
   -9.7900    2.7930   -6.4339 C   0  0  0  0  0  0  0  0  0  0  0  0
   -9.2079    4.0410   -6.5699 C   0  0  0  0  0  0  0  0  0  0  0  0
   -8.6264    4.5003   -7.7049 N   0  0  0  0  0  0  0  0  0  0  0  0
  -10.5431    2.4461   -5.1925 C   0  0  0  0  0  0  0  0  0  0  0  0
  -11.8658    2.2331   -5.4418 F   0  0  0  0  0  0  0  0  0  0  0  0
  -10.5191    3.4562   -4.2719 F   0  0  0  0  0  0  0  0  0  0  0  0
 17 18  1  0  0  0
 18 16  1  0  0  0
  5 16  1  0  0  0
  5  6  1  0  0  0
  6  7  1  0  0  0
  7  8  2  0  0  0
  8  9  1  0  0  0
  9 10  2  0  0  0
 10 11  1  0  0  0
 10 12  1  0  0  0
 12 13  2  0  0  0
 13  1  1  0  0  0
  1  2  2  0  0  0
  1  3  1  0  0  0
 20  3  1  0  0  0
 20 21  1  0  0  0
 21 22  1  0  0  0
 22 23  1  0  0  0
 23 25  1  0  0  0
 25 26  2  0  0  0
 26 27  1  0  0  0
 27 28  2  0  0  0
 28 31  1  0  0  0
 31 32  1  0  0  0
 31 33  1  0  0  0
 28 29  1  0  0  0
 29 30  2  0  0  0
 23 24  1  0  0  0
  8 14  1  0  0  0
 14  5  1  0  0  0
 13  7  1  0  0  0
 24 20  1  0  0  0
 30 25  1  0  0  0
 18 19  1  0  0  0
  3  4  1  0  0  0
 14 15  1  0  0  0
M  END
> <minimizedAffinity>
-9.18451

> <minimizedRMSD>
0.30110

$$$$
P22126


 39 43  0  0  0  0  0  0  0  0999 V2000
   -5.1178    5.5469  -19.0233 C   0  0  0  0  0  0  0  0  0  0  0  0
   -6.2099    4.6859  -19.5359 N   0  0  0  0  0  0  0  0  0  0  0  0
   -7.1299    4.5906  -18.4773 C   0  0  0  0  0  0  0  0  0  0  0  0
   -8.3723    3.9891  -18.6069 C   0  0  0  0  0  0  0  0  0  0  0  0
   -9.1331    3.8040  -17.4687 C   0  0  0  0  0  0  0  0  0  0  0  0
  -10.3500    3.2605  -17.5718 F   0  0  0  0  0  0  0  0  0  0  0  0
   -8.6546    4.1710  -16.2139 C   0  0  0  0  0  0  0  0  0  0  0  0
   -7.3877    4.7702  -16.0809 C   0  0  0  0  0  0  0  0  0  0  0  0
   -6.6364    5.0222  -17.2395 C   0  0  0  0  0  0  0  0  0  0  0  0
   -5.2934    5.7263  -17.4448 C   0  0  0  0  0  0  0  0  0  0  0  0
   -4.1764    4.9859  -16.6604 C   0  0  0  0  0  0  0  0  0  0  0  0
   -2.8480    5.7415  -16.6377 C   0  0  0  0  0  0  0  0  0  0  0  0
   -3.0544    7.1793  -16.1717 C   0  0  0  0  0  0  0  0  0  0  0  0
   -4.0245    7.7847  -17.0838 N   0  0  0  0  0  0  0  0  0  0  0  0
   -5.3289    7.1312  -16.9679 N   0  0  0  0  0  0  0  0  0  0  0  0
   -6.2766    4.2703  -20.4259 H   0  0  0  0  0  0  0  0  0  0  0  0
   -3.6870    7.6892  -18.0416 H   0  0  0  0  0  0  0  0  0  0  0  0
   -6.0076    7.6505  -17.5246 H   0  0  0  0  0  0  0  0  0  0  0  0
   -6.9732    5.2433  -14.7211 C   0  0  0  0  0  0  0  0  0  0  0  0
   -6.7357    6.3774  -14.5915 O   0  0  0  0  0  0  0  0  0  0  0  0
   -7.0342    4.1098  -13.6781 N   0  0  0  0  0  0  0  0  0  0  0  0
   -7.1826    3.2119  -14.0535 H   0  0  0  0  0  0  0  0  0  0  0  0
   -6.9094    4.1507  -12.2432 C   0  0  0  0  0  0  0  0  0  0  0  0
   -5.7090    3.3881  -11.7037 C   0  0  0  0  0  0  0  0  0  0  0  0
   -5.9906    3.3623  -10.2074 C   0  0  0  0  0  0  0  0  0  0  0  0
   -7.4352    3.2837  -10.1282 N   0  0  0  0  0  0  0  0  0  0  0  0
   -8.0741    3.5778  -11.4136 C   0  0  0  0  0  0  0  0  0  0  0  0
   -8.1579    3.3474   -8.9647 C   0  0  0  0  0  0  0  0  0  0  0  0
   -8.0132    4.3971   -8.0562 C   0  0  0  0  0  0  0  0  0  0  0  0
   -8.7613    4.4195   -6.8778 C   0  0  0  0  0  0  0  0  0  0  0  0
   -9.6307    3.3766   -6.6119 C   0  0  0  0  0  0  0  0  0  0  0  0
   -9.7132    2.3641   -7.5443 C   0  0  0  0  0  0  0  0  0  0  0  0
   -9.0209    2.3494   -8.7033 N   0  0  0  0  0  0  0  0  0  0  0  0
   -1.7971    7.8429  -16.2654 O   0  0  0  0  0  0  0  0  0  0  0  0
   -1.6664    8.9002  -15.3262 C   0  0  0  0  0  0  0  0  0  0  0  0
   -4.9749    6.7922  -19.9442 C   0  0  0  0  0  0  0  0  0  0  0  0
   -5.4060    9.1271  -20.2456 C   0  0  0  0  0  0  0  0  0  0  0  0
   -5.9945    7.8574  -19.8365 N   0  0  0  0  0  0  0  0  0  0  0  0
   -6.7843    7.6363  -20.4430 H   0  0  0  0  0  0  0  0  0  0  0  0
 37 38  1  0  0  0
 38 36  1  0  0  0
  1 36  1  0  0  0
  1  2  1  0  0  0
  2  3  1  0  0  0
  3  4  2  0  0  0
  4  5  1  0  0  0
  5  6  1  0  0  0
  5  7  2  0  0  0
  7  8  1  0  0  0
  8 19  1  0  0  0
 19 20  2  0  0  0
 19 21  1  0  0  0
 23 21  1  0  0  0
 23 24  1  0  0  0
 24 25  1  0  0  0
 25 26  1  0  0  0
 26 28  1  0  0  0
 28 29  2  0  0  0
 29 30  1  0  0  0
 30 31  2  0  0  0
 31 32  1  0  0  0
 32 33  2  0  0  0
 26 27  1  0  0  0
  8  9  2  0  0  0
  9 10  1  0  0  0
 10 11  1  0  0  0
 11 12  1  0  0  0
 12 13  1  0  0  0
 13 34  1  0  0  0
 34 35  1  0  0  0
 13 14  1  0  0  0
 14 15  1  0  0  0
 10  1  1  0  0  0
  9  3  1  0  0  0
 15 10  1  0  0  0
 27 23  1  0  0  0
 33 28  1  0  0  0
 38 39  1  0  0  0
  2 16  1  0  0  0
 21 22  1  0  0  0
 14 17  1  0  0  0
 15 18  1  0  0  0
M  END
> <minimizedAffinity>
-9.06584

> <minimizedRMSD>
0.92112

$$$$
P22127


 29 32  0  0  0  0  0  0  0  0999 V2000
   -6.9652    5.0992  -14.8825 C   0  0  0  0  0  0  0  0  0  0  0  0
   -6.4196    6.1279  -14.8829 O   0  0  0  0  0  0  0  0  0  0  0  0
   -7.3600    4.1840  -13.7175 N   0  0  0  0  0  0  0  0  0  0  0  0
   -7.7503    3.3208  -13.9857 H   0  0  0  0  0  0  0  0  0  0  0  0
   -4.8293    4.7938  -18.7810 C   0  0  0  0  0  0  0  0  0  0  0  0
   -5.2172    5.3133  -17.3847 C   0  0  0  0  0  0  0  0  0  0  0  0
   -6.5824    4.7238  -17.2895 C   0  0  0  0  0  0  0  0  0  0  0  0
   -7.0117    4.3699  -18.5660 C   0  0  0  0  0  0  0  0  0  0  0  0
   -8.2648    3.8315  -18.7787 C   0  0  0  0  0  0  0  0  0  0  0  0
   -9.0891    3.6283  -17.6731 C   0  0  0  0  0  0  0  0  0  0  0  0
   -8.6568    3.9858  -16.3839 C   0  0  0  0  0  0  0  0  0  0  0  0
   -7.3930    4.5465  -16.1881 C   0  0  0  0  0  0  0  0  0  0  0  0
   -6.0815    4.7660  -19.5631 N   0  0  0  0  0  0  0  0  0  0  0  0
   -6.2306    4.9671  -20.5152 H   0  0  0  0  0  0  0  0  0  0  0  0
   -3.7057    5.6177  -19.4098 C   0  0  0  0  0  0  0  0  0  0  0  0
   -3.1247    4.3655  -21.4207 C   0  0  0  0  0  0  0  0  0  0  0  0
   -2.6899    4.8142  -20.1097 N   0  0  0  0  0  0  0  0  0  0  0  0
   -1.8489    5.3802  -20.2224 H   0  0  0  0  0  0  0  0  0  0  0  0
   -7.2531    4.3809  -12.2960 C   0  0  0  0  0  0  0  0  0  0  0  0
   -7.9701    5.6593  -11.8669 C   0  0  0  0  0  0  0  0  0  0  0  0
   -8.0972    5.4796  -10.3668 C   0  0  0  0  0  0  0  0  0  0  0  0
   -8.3197    4.0554  -10.2268 N   0  0  0  0  0  0  0  0  0  0  0  0
   -7.8792    3.3009  -11.3961 C   0  0  0  0  0  0  0  0  0  0  0  0
   -8.6132    3.5252   -9.0004 C   0  0  0  0  0  0  0  0  0  0  0  0
   -9.1133    2.2349   -8.8635 C   0  0  0  0  0  0  0  0  0  0  0  0
   -9.4659    1.7532   -7.6071 C   0  0  0  0  0  0  0  0  0  0  0  0
   -9.3056    2.5641   -6.4998 C   0  0  0  0  0  0  0  0  0  0  0  0
   -8.7884    3.8256   -6.7020 C   0  0  0  0  0  0  0  0  0  0  0  0
   -8.4540    4.3227   -7.9128 N   0  0  0  0  0  0  0  0  0  0  0  0
 16 17  1  0  0  0
 17 15  1  0  0  0
  5 15  1  0  0  0
  5  6  1  0  0  0
  6  7  1  0  0  0
  7  8  2  0  0  0
  8  9  1  0  0  0
  9 10  2  0  0  0
 10 11  1  0  0  0
 11 12  2  0  0  0
 12  1  1  0  0  0
  1  2  2  0  0  0
  1  3  1  0  0  0
 19  3  1  0  0  0
 19 20  1  0  0  0
 20 21  1  0  0  0
 21 22  1  0  0  0
 22 24  1  0  0  0
 24 25  2  0  0  0
 25 26  1  0  0  0
 26 27  2  0  0  0
 27 28  1  0  0  0
 28 29  2  0  0  0
 22 23  1  0  0  0
  8 13  1  0  0  0
 13  5  1  0  0  0
 12  7  1  0  0  0
 23 19  1  0  0  0
 29 24  1  0  0  0
 17 18  1  0  0  0
  3  4  1  0  0  0
 13 14  1  0  0  0
M  END
> <minimizedAffinity>
-8.72521

> <minimizedRMSD>
0.48571

$$$$
P22128


 30 33  0  0  0  0  0  0  0  0999 V2000
   -5.3425    5.3635  -17.3012 C   0  0  0  0  0  0  0  0  0  0  0  0
   -5.0829    5.1201  -18.8103 C   0  0  0  0  0  0  0  0  0  0  0  0
   -4.0346    5.2546  -19.4247 O   0  0  0  0  0  0  0  0  0  0  0  0
   -6.2767    4.7161  -19.3794 N   0  0  0  0  0  0  0  0  0  0  0  0
   -7.2456    4.5010  -18.4166 C   0  0  0  0  0  0  0  0  0  0  0  0
   -8.5066    3.9919  -18.6456 C   0  0  0  0  0  0  0  0  0  0  0  0
   -9.3255    3.7888  -17.5441 C   0  0  0  0  0  0  0  0  0  0  0  0
   -8.8607    4.0887  -16.2530 C   0  0  0  0  0  0  0  0  0  0  0  0
   -7.5687    4.6098  -16.0289 C   0  0  0  0  0  0  0  0  0  0  0  0
   -6.7632    4.8405  -17.1464 C   0  0  0  0  0  0  0  0  0  0  0  0
   -6.4186    4.5968  -20.3463 H   0  0  0  0  0  0  0  0  0  0  0  0
   -7.2121    5.0707  -14.6453 C   0  0  0  0  0  0  0  0  0  0  0  0
   -7.0686    6.2165  -14.4964 O   0  0  0  0  0  0  0  0  0  0  0  0
   -7.1965    3.9209  -13.6192 N   0  0  0  0  0  0  0  0  0  0  0  0
   -7.2670    3.0196  -14.0091 H   0  0  0  0  0  0  0  0  0  0  0  0
   -7.0952    3.9505  -12.1787 C   0  0  0  0  0  0  0  0  0  0  0  0
   -5.8750    3.2408  -11.6109 C   0  0  0  0  0  0  0  0  0  0  0  0
   -6.1845    3.2428  -10.1192 C   0  0  0  0  0  0  0  0  0  0  0  0
   -7.6253    3.0339  -10.0707 N   0  0  0  0  0  0  0  0  0  0  0  0
   -8.2520    3.3453  -11.3619 C   0  0  0  0  0  0  0  0  0  0  0  0
   -8.2753    3.2571   -8.8707 C   0  0  0  0  0  0  0  0  0  0  0  0
   -9.2015    2.3413   -8.3814 C   0  0  0  0  0  0  0  0  0  0  0  0
   -9.8481    2.5582   -7.1678 C   0  0  0  0  0  0  0  0  0  0  0  0
   -9.5339    3.6842   -6.4329 C   0  0  0  0  0  0  0  0  0  0  0  0
   -8.5903    4.5437   -6.9601 C   0  0  0  0  0  0  0  0  0  0  0  0
   -7.9687    4.3641   -8.1506 N   0  0  0  0  0  0  0  0  0  0  0  0
   -5.1525    6.8724  -17.0554 C   0  0  0  0  0  0  0  0  0  0  0  0
   -2.8355    6.8046  -16.3279 C   0  0  0  0  0  0  0  0  0  0  0  0
   -3.7847    7.3787  -17.2763 N   0  0  0  0  0  0  0  0  0  0  0  0
   -3.4922    7.1377  -18.2233 H   0  0  0  0  0  0  0  0  0  0  0  0
 28 29  1  0  0  0
 29 27  1  0  0  0
  1 27  1  0  0  0
  1  2  1  0  0  0
  2  3  2  0  0  0
  2  4  1  0  0  0
  4  5  1  0  0  0
  5  6  2  0  0  0
  6  7  1  0  0  0
  7  8  2  0  0  0
  8  9  1  0  0  0
  9 12  1  0  0  0
 12 13  2  0  0  0
 12 14  1  0  0  0
 16 14  1  0  0  0
 16 17  1  0  0  0
 17 18  1  0  0  0
 18 19  1  0  0  0
 19 21  1  0  0  0
 21 22  2  0  0  0
 22 23  1  0  0  0
 23 24  2  0  0  0
 24 25  1  0  0  0
 25 26  2  0  0  0
 19 20  1  0  0  0
  9 10  2  0  0  0
 10  1  1  0  0  0
 10  5  1  0  0  0
 20 16  1  0  0  0
 26 21  1  0  0  0
 29 30  1  0  0  0
  4 11  1  0  0  0
 14 15  1  0  0  0
M  END
> <minimizedAffinity>
-8.75504

> <minimizedRMSD>
0.92148

$$$$
P22129


 30 33  0  0  0  0  0  0  0  0999 V2000
   -5.1530    5.6732  -18.4013 C   0  0  0  0  0  0  0  0  0  0  0  0
   -5.4083    5.2178  -16.9583 C   0  0  0  0  0  0  0  0  0  0  0  0
   -6.8143    4.7677  -17.0714 C   0  0  0  0  0  0  0  0  0  0  0  0
   -7.1455    4.5977  -18.4131 C   0  0  0  0  0  0  0  0  0  0  0  0
   -8.3784    4.0912  -18.7656 C   0  0  0  0  0  0  0  0  0  0  0  0
   -9.2739    3.7994  -17.7366 C   0  0  0  0  0  0  0  0  0  0  0  0
  -10.4837    3.3204  -18.0412 F   0  0  0  0  0  0  0  0  0  0  0  0
   -8.9580    4.0009  -16.3872 C   0  0  0  0  0  0  0  0  0  0  0  0
   -7.7089    4.4984  -16.0496 C   0  0  0  0  0  0  0  0  0  0  0  0
   -6.0713    4.9189  -19.2989 N   0  0  0  0  0  0  0  0  0  0  0  0
   -5.9658    4.6992  -20.2528 H   0  0  0  0  0  0  0  0  0  0  0  0
   -7.3828    4.9648  -14.6864 C   0  0  0  0  0  0  0  0  0  0  0  0
   -6.9364    6.0338  -14.6038 O   0  0  0  0  0  0  0  0  0  0  0  0
   -7.6632    3.9238  -13.6074 N   0  0  0  0  0  0  0  0  0  0  0  0
   -7.9773    3.0541  -13.9455 H   0  0  0  0  0  0  0  0  0  0  0  0
   -7.5438    4.0054  -12.1791 C   0  0  0  0  0  0  0  0  0  0  0  0
   -6.1566    3.5810  -11.7105 C   0  0  0  0  0  0  0  0  0  0  0  0
   -6.3457    3.5376  -10.2060 C   0  0  0  0  0  0  0  0  0  0  0  0
   -7.7046    3.0329  -10.0455 N   0  0  0  0  0  0  0  0  0  0  0  0
   -8.4729    3.1690  -11.2953 C   0  0  0  0  0  0  0  0  0  0  0  0
   -8.3118    3.2550   -8.8202 C   0  0  0  0  0  0  0  0  0  0  0  0
   -9.2282    2.3434   -8.3065 C   0  0  0  0  0  0  0  0  0  0  0  0
   -9.8447    2.5742   -7.0823 C   0  0  0  0  0  0  0  0  0  0  0  0
   -9.5034    3.7002   -6.3590 C   0  0  0  0  0  0  0  0  0  0  0  0
   -8.5623    4.5482   -6.9059 C   0  0  0  0  0  0  0  0  0  0  0  0
   -7.9733    4.3592   -8.1083 N   0  0  0  0  0  0  0  0  0  0  0  0
   -3.6629    5.5336  -18.7533 C   0  0  0  0  0  0  0  0  0  0  0  0
   -1.6625    5.9091  -17.4242 C   0  0  0  0  0  0  0  0  0  0  0  0
   -2.8784    5.1328  -17.5756 N   0  0  0  0  0  0  0  0  0  0  0  0
   -3.4526    5.2593  -16.7421 H   0  0  0  0  0  0  0  0  0  0  0  0
 28 29  1  0  0  0
 29 27  1  0  0  0
  1 27  1  0  0  0
  1  2  1  0  0  0
  2  3  1  0  0  0
  3  4  2  0  0  0
  4  5  1  0  0  0
  5  6  2  0  0  0
  6  7  1  0  0  0
  6  8  1  0  0  0
  8  9  2  0  0  0
  9 12  1  0  0  0
 12 13  2  0  0  0
 12 14  1  0  0  0
 16 14  1  0  0  0
 16 17  1  0  0  0
 17 18  1  0  0  0
 18 19  1  0  0  0
 19 21  1  0  0  0
 21 22  2  0  0  0
 22 23  1  0  0  0
 23 24  2  0  0  0
 24 25  1  0  0  0
 25 26  2  0  0  0
 19 20  1  0  0  0
  4 10  1  0  0  0
 10  1  1  0  0  0
  9  3  1  0  0  0
 20 16  1  0  0  0
 26 21  1  0  0  0
 29 30  1  0  0  0
 14 15  1  0  0  0
 10 11  1  0  0  0
M  END
> <minimizedAffinity>
-8.84923

> <minimizedRMSD>
1.04604

$$$$
P22130


 31 34  0  0  0  0  0  0  0  0999 V2000
   -5.1164    5.8190  -18.2997 C   0  0  0  0  0  0  0  0  0  0  0  0
   -4.1745    4.8143  -18.6460 O   0  0  0  0  0  0  0  0  0  0  0  0
   -5.6193    5.6892  -16.8410 C   0  0  0  0  0  0  0  0  0  0  0  0
   -6.8996    4.9469  -17.0196 C   0  0  0  0  0  0  0  0  0  0  0  0
   -7.1441    4.8002  -18.3849 C   0  0  0  0  0  0  0  0  0  0  0  0
   -8.2542    4.1029  -18.8168 C   0  0  0  0  0  0  0  0  0  0  0  0
   -9.1436    3.6030  -17.8618 C   0  0  0  0  0  0  0  0  0  0  0  0
   -8.9334    3.8398  -16.4905 C   0  0  0  0  0  0  0  0  0  0  0  0
   -7.7939    4.5142  -16.0416 C   0  0  0  0  0  0  0  0  0  0  0  0
   -6.2638    5.5850  -19.1786 N   0  0  0  0  0  0  0  0  0  0  0  0
   -3.3813    4.9114  -18.0962 H   0  0  0  0  0  0  0  0  0  0  0  0
   -6.3950    5.8980  -20.1027 H   0  0  0  0  0  0  0  0  0  0  0  0
   -7.5876    4.9484  -14.6104 C   0  0  0  0  0  0  0  0  0  0  0  0
   -7.0648    5.9766  -14.4504 O   0  0  0  0  0  0  0  0  0  0  0  0
   -8.1523    3.9490  -13.5891 N   0  0  0  0  0  0  0  0  0  0  0  0
   -8.4811    3.1057  -13.9763 H   0  0  0  0  0  0  0  0  0  0  0  0
   -8.2798    4.0453  -12.1508 C   0  0  0  0  0  0  0  0  0  0  0  0
   -8.0661    5.4708  -11.6080 C   0  0  0  0  0  0  0  0  0  0  0  0
   -6.9253    5.3451  -10.6022 C   0  0  0  0  0  0  0  0  0  0  0  0
   -7.0100    3.9545  -10.1498 N   0  0  0  0  0  0  0  0  0  0  0  0
   -7.2808    3.1785  -11.3714 C   0  0  0  0  0  0  0  0  0  0  0  0
   -7.8516    3.7373   -9.0442 C   0  0  0  0  0  0  0  0  0  0  0  0
   -8.6997    2.6303   -8.9922 C   0  0  0  0  0  0  0  0  0  0  0  0
   -9.5043    2.3957   -7.8780 C   0  0  0  0  0  0  0  0  0  0  0  0
   -9.4142    3.2405   -6.7910 C   0  0  0  0  0  0  0  0  0  0  0  0
   -8.5375    4.3012   -6.8885 C   0  0  0  0  0  0  0  0  0  0  0  0
   -7.7833    4.5765   -7.9800 N   0  0  0  0  0  0  0  0  0  0  0  0
   -4.4013    7.1890  -18.4446 C   0  0  0  0  0  0  0  0  0  0  0  0
   -2.6119    8.5464  -17.4660 C   0  0  0  0  0  0  0  0  0  0  0  0
   -3.3843    7.3286  -17.3705 N   0  0  0  0  0  0  0  0  0  0  0  0
   -3.8623    7.3188  -16.4695 H   0  0  0  0  0  0  0  0  0  0  0  0
 29 30  1  0  0  0
 30 28  1  0  0  0
 28  1  1  0  0  0
  1  2  1  0  0  0
  1  3  1  0  0  0
  3  4  1  0  0  0
  4  5  2  0  0  0
  5  6  1  0  0  0
  6  7  2  0  0  0
  7  8  1  0  0  0
  8  9  2  0  0  0
  9 13  1  0  0  0
 13 14  2  0  0  0
 13 15  1  0  0  0
 17 15  1  0  0  0
 17 18  1  0  0  0
 18 19  1  0  0  0
 19 20  1  0  0  0
 20 22  1  0  0  0
 22 23  2  0  0  0
 23 24  1  0  0  0
 24 25  2  0  0  0
 25 26  1  0  0  0
 26 27  2  0  0  0
 20 21  1  0  0  0
  5 10  1  0  0  0
 10  1  1  0  0  0
  9  4  1  0  0  0
 21 17  1  0  0  0
 27 22  1  0  0  0
 30 31  1  0  0  0
  2 11  1  0  0  0
 15 16  1  0  0  0
 10 12  1  0  0  0
M  END
> <minimizedAffinity>
-8.12875

> <minimizedRMSD>
0.57609

$$$$
P22132


 31 35  0  0  0  0  0  0  0  0999 V2000
   -7.4952    4.7934  -16.1180 C   0  0  0  0  0  0  0  0  0  0  0  0
   -8.7539    4.1725  -16.2710 C   0  0  0  0  0  0  0  0  0  0  0  0
   -9.1993    3.7323  -17.5282 C   0  0  0  0  0  0  0  0  0  0  0  0
   -8.3918    3.8873  -18.6502 C   0  0  0  0  0  0  0  0  0  0  0  0
   -7.1602    4.4901  -18.4755 C   0  0  0  0  0  0  0  0  0  0  0  0
   -6.6933    4.9699  -17.2442 C   0  0  0  0  0  0  0  0  0  0  0  0
   -5.3243    5.5994  -17.4676 C   0  0  0  0  0  0  0  0  0  0  0  0
   -4.2028    5.2143  -16.5023 C   0  0  0  0  0  0  0  0  0  0  0  0
   -3.5713    6.5307  -16.0642 C   0  0  0  0  0  0  0  0  0  0  0  0
   -4.6292    7.5322  -16.2089 N   0  0  0  0  0  0  0  0  0  0  0  0
   -5.2902    7.1342  -17.4610 C   0  0  0  0  0  0  0  0  0  0  0  0
   -5.0338    5.1906  -18.9311 C   0  0  0  0  0  0  0  0  0  0  0  0
   -3.9854    5.3230  -19.5433 O   0  0  0  0  0  0  0  0  0  0  0  0
   -6.2035    4.6752  -19.4588 N   0  0  0  0  0  0  0  0  0  0  0  0
   -4.2378    8.4712  -16.2831 H   0  0  0  0  0  0  0  0  0  0  0  0
   -6.3385    4.4666  -20.4114 H   0  0  0  0  0  0  0  0  0  0  0  0
   -6.7800    6.4586  -14.7386 O   0  0  0  0  0  0  0  0  0  0  0  0
   -7.1304    5.3491  -14.7852 C   0  0  0  0  0  0  0  0  0  0  0  0
   -7.3236    4.3165  -13.6615 N   0  0  0  0  0  0  0  0  0  0  0  0
   -7.5580    3.4112  -13.9695 H   0  0  0  0  0  0  0  0  0  0  0  0
   -7.2169    4.4590  -12.2257 C   0  0  0  0  0  0  0  0  0  0  0  0
   -7.8103    5.7808  -11.7428 C   0  0  0  0  0  0  0  0  0  0  0  0
   -7.9730    5.5442  -10.2502 C   0  0  0  0  0  0  0  0  0  0  0  0
   -8.3809    4.1540  -10.1849 N   0  0  0  0  0  0  0  0  0  0  0  0
   -7.9680    3.4093  -11.3740 C   0  0  0  0  0  0  0  0  0  0  0  0
   -8.6201    3.5815   -8.9576 C   0  0  0  0  0  0  0  0  0  0  0  0
   -9.1106    2.2842   -8.8474 C   0  0  0  0  0  0  0  0  0  0  0  0
   -9.3720    1.7253   -7.5989 C   0  0  0  0  0  0  0  0  0  0  0  0
   -9.1523    2.4845   -6.4659 C   0  0  0  0  0  0  0  0  0  0  0  0
   -8.6790    3.7694   -6.6415 C   0  0  0  0  0  0  0  0  0  0  0  0
   -8.4218    4.3313   -7.8459 N   0  0  0  0  0  0  0  0  0  0  0  0
 17 18  2  0  0  0
 18 19  1  0  0  0
 21 19  1  0  0  0
 21 22  1  0  0  0
 22 23  1  0  0  0
 23 24  1  0  0  0
 24 26  1  0  0  0
 26 27  2  0  0  0
 27 28  1  0  0  0
 28 29  2  0  0  0
 29 30  1  0  0  0
 30 31  2  0  0  0
 24 25  1  0  0  0
 18  1  1  0  0  0
  1  2  2  0  0  0
  2  3  1  0  0  0
  3  4  2  0  0  0
  4  5  1  0  0  0
  5  6  2  0  0  0
  6  7  1  0  0  0
  7  8  1  0  0  0
  8  9  1  0  0  0
  9 10  1  0  0  0
 10 11  1  0  0  0
  7 12  1  0  0  0
 12 13  2  0  0  0
 12 14  1  0  0  0
 25 21  1  0  0  0
  6  1  1  0  0  0
 11  7  1  0  0  0
 31 26  1  0  0  0
 14  5  1  0  0  0
 19 20  1  0  0  0
 10 15  1  0  0  0
 14 16  1  0  0  0
M  END
> <minimizedAffinity>
-9.71862

> <minimizedRMSD>
0.32875

$$$$
P22134


 30 34  0  0  0  0  0  0  0  0999 V2000
   -9.2108    5.6890  -14.4367 O   0  0  0  0  0  0  0  0  0  0  0  0
   -8.4771    4.8456  -14.7612 C   0  0  0  0  0  0  0  0  0  0  0  0
   -7.5245    3.9796  -13.9258 N   0  0  0  0  0  0  0  0  0  0  0  0
   -7.0587    3.2745  -14.4309 H   0  0  0  0  0  0  0  0  0  0  0  0
   -8.4885    4.4365  -16.1839 C   0  0  0  0  0  0  0  0  0  0  0  0
   -9.7251    4.0322  -16.7167 C   0  0  0  0  0  0  0  0  0  0  0  0
   -9.8849    3.8328  -18.0942 C   0  0  0  0  0  0  0  0  0  0  0  0
   -8.8128    4.0287  -18.9559 C   0  0  0  0  0  0  0  0  0  0  0  0
   -7.6059    4.4453  -18.4220 C   0  0  0  0  0  0  0  0  0  0  0  0
   -7.4117    4.6225  -17.0421 C   0  0  0  0  0  0  0  0  0  0  0  0
   -5.9463    4.9193  -16.8352 C   0  0  0  0  0  0  0  0  0  0  0  0
   -5.4848    5.8521  -15.7252 C   0  0  0  0  0  0  0  0  0  0  0  0
   -4.0129    5.7007  -15.3245 C   0  0  0  0  0  0  0  0  0  0  0  0
   -2.9996    5.3757  -16.4171 C   0  0  0  0  0  0  0  0  0  0  0  0
   -3.1961    6.1201  -17.7317 C   0  0  0  0  0  0  0  0  0  0  0  0
   -4.1517    5.3922  -18.6738 C   0  0  0  0  0  0  0  0  0  0  0  0
   -5.6167    5.4616  -18.2577 C   0  0  0  0  0  0  0  0  0  0  0  0
   -6.4290    4.6618  -19.1859 N   0  0  0  0  0  0  0  0  0  0  0  0
   -6.2136    4.3568  -20.0969 H   0  0  0  0  0  0  0  0  0  0  0  0
   -7.1991    4.0307  -12.5163 C   0  0  0  0  0  0  0  0  0  0  0  0
   -7.1375    5.4691  -12.0008 C   0  0  0  0  0  0  0  0  0  0  0  0
   -7.2309    5.2976  -10.4959 C   0  0  0  0  0  0  0  0  0  0  0  0
   -8.1506    4.1875  -10.3521 N   0  0  0  0  0  0  0  0  0  0  0  0
   -8.2151    3.3665  -11.5605 C   0  0  0  0  0  0  0  0  0  0  0  0
   -8.5216    3.7763   -9.0968 C   0  0  0  0  0  0  0  0  0  0  0  0
   -9.0862    2.5241   -8.8785 C   0  0  0  0  0  0  0  0  0  0  0  0
   -9.4721    2.1311   -7.6000 C   0  0  0  0  0  0  0  0  0  0  0  0
   -9.3055    3.0122   -6.5492 C   0  0  0  0  0  0  0  0  0  0  0  0
   -8.7535    4.2451   -6.8316 C   0  0  0  0  0  0  0  0  0  0  0  0
   -8.3714    4.6449   -8.0661 N   0  0  0  0  0  0  0  0  0  0  0  0
  1  2  2  0  0  0
  2  3  1  0  0  0
 20  3  1  0  0  0
 20 21  1  0  0  0
 21 22  1  0  0  0
 22 23  1  0  0  0
 23 25  1  0  0  0
 25 26  2  0  0  0
 26 27  1  0  0  0
 27 28  2  0  0  0
 28 29  1  0  0  0
 29 30  2  0  0  0
 23 24  1  0  0  0
  2  5  1  0  0  0
  5  6  2  0  0  0
  6  7  1  0  0  0
  7  8  2  0  0  0
  8  9  1  0  0  0
  9 10  2  0  0  0
 10 11  1  0  0  0
 11 12  1  0  0  0
 12 13  1  0  0  0
 13 14  1  0  0  0
 14 15  1  0  0  0
 15 16  1  0  0  0
 17 16  1  0  0  0
 17 18  1  0  0  0
 24 20  1  0  0  0
 10  5  1  0  0  0
 17 11  1  0  0  0
 30 25  1  0  0  0
 18  9  1  0  0  0
  3  4  1  0  0  0
 18 19  1  0  0  0
M  END
> <minimizedAffinity>
-10.01623

> <minimizedRMSD>
0.89553

$$$$
P22135


 31 35  0  0  0  0  0  0  0  0999 V2000
   -7.4520    4.6293  -16.0891 C   0  0  0  0  0  0  0  0  0  0  0  0
   -8.7306    4.0523  -16.3109 C   0  0  0  0  0  0  0  0  0  0  0  0
   -9.2175    3.7813  -17.5969 C   0  0  0  0  0  0  0  0  0  0  0  0
   -8.4137    4.0216  -18.6976 C   0  0  0  0  0  0  0  0  0  0  0  0
   -7.1589    4.5570  -18.4684 C   0  0  0  0  0  0  0  0  0  0  0  0
   -6.6517    4.9049  -17.1996 C   0  0  0  0  0  0  0  0  0  0  0  0
   -5.2771    5.5609  -17.4131 C   0  0  0  0  0  0  0  0  0  0  0  0
   -4.1069    5.1789  -16.5029 C   0  0  0  0  0  0  0  0  0  0  0  0
   -2.8501    6.0072  -16.7372 C   0  0  0  0  0  0  0  0  0  0  0  0
   -3.1338    7.4007  -16.6404 O   0  0  0  0  0  0  0  0  0  0  0  0
   -4.0910    7.8161  -17.6053 C   0  0  0  0  0  0  0  0  0  0  0  0
   -5.4208    7.0993  -17.3930 C   0  0  0  0  0  0  0  0  0  0  0  0
   -5.0064    5.1608  -18.9012 C   0  0  0  0  0  0  0  0  0  0  0  0
   -3.9532    5.2283  -19.5164 O   0  0  0  0  0  0  0  0  0  0  0  0
   -6.2076    4.7635  -19.4515 N   0  0  0  0  0  0  0  0  0  0  0  0
   -6.3666    4.6431  -20.4156 H   0  0  0  0  0  0  0  0  0  0  0  0
   -5.9569    4.4440  -14.3482 O   0  0  0  0  0  0  0  0  0  0  0  0
   -7.0259    4.7792  -14.6559 C   0  0  0  0  0  0  0  0  0  0  0  0
   -8.1949    5.2928  -13.7985 N   0  0  0  0  0  0  0  0  0  0  0  0
   -8.9825    5.5881  -14.3100 H   0  0  0  0  0  0  0  0  0  0  0  0
   -8.3251    5.4123  -12.3663 C   0  0  0  0  0  0  0  0  0  0  0  0
   -7.2688    6.2755  -11.7002 C   0  0  0  0  0  0  0  0  0  0  0  0
   -7.5081    5.9714  -10.2208 C   0  0  0  0  0  0  0  0  0  0  0  0
   -7.8830    4.5673  -10.2113 N   0  0  0  0  0  0  0  0  0  0  0  0
   -8.2322    4.0970  -11.5544 C   0  0  0  0  0  0  0  0  0  0  0  0
   -8.3655    3.9945   -9.0555 C   0  0  0  0  0  0  0  0  0  0  0  0
   -8.8864    2.7041   -9.0570 C   0  0  0  0  0  0  0  0  0  0  0  0
   -9.3508    2.1202   -7.8795 C   0  0  0  0  0  0  0  0  0  0  0  0
   -9.2744    2.8347   -6.6993 C   0  0  0  0  0  0  0  0  0  0  0  0
   -8.7380    4.1062   -6.7624 C   0  0  0  0  0  0  0  0  0  0  0  0
   -8.2955    4.6994   -7.8986 N   0  0  0  0  0  0  0  0  0  0  0  0
 17 18  2  0  0  0
 18 19  1  0  0  0
 21 19  1  0  0  0
 21 22  1  0  0  0
 22 23  1  0  0  0
 23 24  1  0  0  0
 24 26  1  0  0  0
 26 27  2  0  0  0
 27 28  1  0  0  0
 28 29  2  0  0  0
 29 30  1  0  0  0
 30 31  2  0  0  0
 24 25  1  0  0  0
 18  1  1  0  0  0
  1  2  2  0  0  0
  2  3  1  0  0  0
  3  4  2  0  0  0
  4  5  1  0  0  0
  5  6  2  0  0  0
  6  7  1  0  0  0
  7  8  1  0  0  0
  8  9  1  0  0  0
  9 10  1  0  0  0
 10 11  1  0  0  0
 11 12  1  0  0  0
  7 13  1  0  0  0
 13 14  2  0  0  0
 13 15  1  0  0  0
 25 21  1  0  0  0
  6  1  1  0  0  0
 12  7  1  0  0  0
 31 26  1  0  0  0
 15  5  1  0  0  0
 19 20  1  0  0  0
 15 16  1  0  0  0
M  END
> <minimizedAffinity>
-9.78590

> <minimizedRMSD>
0.31946

$$$$
P22196


 38 42  0  0  0  0  0  0  0  0999 V2000
   -5.9091    6.7723  -14.0807 C   0  0  0  0  0  0  0  0  0  0  0  0
   -5.7055    5.5888  -15.0300 C   0  0  0  0  0  0  0  0  0  0  0  0
   -6.9592    5.1925  -15.7870 C   0  0  0  0  0  0  0  0  0  0  0  0
   -6.6465    4.9962  -17.1351 C   0  0  0  0  0  0  0  0  0  0  0  0
   -7.5675    4.5053  -18.0479 C   0  0  0  0  0  0  0  0  0  0  0  0
   -8.8392    4.2033  -17.5958 C   0  0  0  0  0  0  0  0  0  0  0  0
   -9.7517    3.7229  -18.4486 F   0  0  0  0  0  0  0  0  0  0  0  0
   -9.1889    4.3925  -16.2632 C   0  0  0  0  0  0  0  0  0  0  0  0
   -8.2540    4.9037  -15.3541 C   0  0  0  0  0  0  0  0  0  0  0  0
   -5.2902    5.2247  -17.4697 N   0  0  0  0  0  0  0  0  0  0  0  0
   -4.7256    5.9268  -16.2711 C   0  0  0  0  0  0  0  0  0  0  0  0
   -4.6641    7.4397  -16.6612 C   0  0  0  0  0  0  0  0  0  0  0  0
   -3.3531    7.8354  -17.3552 C   0  0  0  0  0  0  0  0  0  0  0  0
   -2.7876    6.7484  -18.1437 N   0  0  0  0  0  0  0  0  0  0  0  0
   -2.3760    5.6456  -17.2693 C   0  0  0  0  0  0  0  0  0  0  0  0
   -3.2890    5.4162  -16.0556 C   0  0  0  0  0  0  0  0  0  0  0  0
   -4.8234    4.9785  -18.3008 H   0  0  0  0  0  0  0  0  0  0  0  0
   -1.9757    7.0919  -18.6568 H   0  0  0  0  0  0  0  0  0  0  0  0
   -8.7446    5.2123  -13.9937 C   0  0  0  0  0  0  0  0  0  0  0  0
   -9.5373    6.0608  -13.8744 O   0  0  0  0  0  0  0  0  0  0  0  0
   -8.1237    4.2665  -12.9414 N   0  0  0  0  0  0  0  0  0  0  0  0
   -7.5257    3.5764  -13.3093 H   0  0  0  0  0  0  0  0  0  0  0  0
   -8.2725    4.2312  -11.5561 C   0  0  0  0  0  0  0  0  0  0  0  0
   -8.0560    5.3783  -10.7743 C   0  0  0  0  0  0  0  0  0  0  0  0
   -8.1729    5.3291   -9.3814 C   0  0  0  0  0  0  0  0  0  0  0  0
   -8.5337    4.1290   -8.7969 C   0  0  0  0  0  0  0  0  0  0  0  0
   -8.7670    2.9985   -9.5688 C   0  0  0  0  0  0  0  0  0  0  0  0
   -8.6239    3.0242  -10.9476 C   0  0  0  0  0  0  0  0  0  0  0  0
   -9.1511    1.8620   -8.6832 C   0  0  0  0  0  0  0  0  0  0  0  0
   -9.2994    2.4341   -7.3179 N   0  0  0  0  0  0  0  0  0  0  0  0
   -8.7358    3.7993   -7.3581 C   0  0  0  0  0  0  0  0  0  0  0  0
   -8.7900    1.8645   -6.6422 H   0  0  0  0  0  0  0  0  0  0  0  0
   -5.2717    4.3624  -14.3981 O   0  0  0  0  0  0  0  0  0  0  0  0
   -4.8268    4.3680  -13.0432 C   0  0  0  0  0  0  0  0  0  0  0  0
   -4.7929    2.9298  -12.5326 C   0  0  0  0  0  0  0  0  0  0  0  0
   -4.8630    2.8298  -11.0191 C   0  0  0  0  0  0  0  0  0  0  0  0
   -4.8143    4.1294  -10.4412 O   0  0  0  0  0  0  0  0  0  0  0  0
   -3.9831    4.5630  -10.6901 H   0  0  0  0  0  0  0  0  0  0  0  0
  2  1  1  0  0  0
  2 33  1  0  0  0
 33 34  1  0  0  0
 34 35  1  0  0  0
 35 36  1  0  0  0
 36 37  1  0  0  0
  2  3  1  0  0  0
  3  4  2  0  0  0
  4  5  1  0  0  0
  5  6  2  0  0  0
  6  7  1  0  0  0
  6  8  1  0  0  0
  8  9  2  0  0  0
  9 19  1  0  0  0
 19 20  2  0  0  0
 19 21  1  0  0  0
 21 23  1  0  0  0
 23 24  2  0  0  0
 24 25  1  0  0  0
 25 26  2  0  0  0
 26 27  1  0  0  0
 27 28  2  0  0  0
 27 29  1  0  0  0
 29 30  1  0  0  0
 30 31  1  0  0  0
  4 10  1  0  0  0
 10 11  1  0  0  0
 11 12  1  0  0  0
 12 13  1  0  0  0
 13 14  1  0  0  0
 14 15  1  0  0  0
 15 16  1  0  0  0
 11  2  1  0  0  0
  9  3  1  0  0  0
 28 23  1  0  0  0
 16 11  1  0  0  0
 31 26  1  0  0  0
 37 38  1  0  0  0
 21 22  1  0  0  0
 30 32  1  0  0  0
 10 17  1  0  0  0
 14 18  1  0  0  0
M  END
> <minimizedAffinity>
-8.86161

> <minimizedRMSD>
0.94478

$$$$
P22197


 36 39  0  0  0  0  0  0  0  0999 V2000
   -4.9581    5.1956  -17.6914 C   0  0  0  0  0  0  0  0  0  0  0  0
   -6.1090    5.1704  -18.6125 N   0  0  0  0  0  0  0  0  0  0  0  0
   -7.1637    4.8306  -17.7465 C   0  0  0  0  0  0  0  0  0  0  0  0
   -8.3566    4.2956  -18.1947 C   0  0  0  0  0  0  0  0  0  0  0  0
   -9.3203    4.0129  -17.2550 C   0  0  0  0  0  0  0  0  0  0  0  0
  -10.4823    3.4873  -17.6551 F   0  0  0  0  0  0  0  0  0  0  0  0
   -9.1135    4.3064  -15.9101 C   0  0  0  0  0  0  0  0  0  0  0  0
   -7.9189    4.9064  -15.4809 C   0  0  0  0  0  0  0  0  0  0  0  0
   -6.9172    5.1546  -16.4072 C   0  0  0  0  0  0  0  0  0  0  0  0
   -5.4912    5.6629  -16.2703 C   0  0  0  0  0  0  0  0  0  0  0  0
   -5.3942    7.1822  -16.1085 C   0  0  0  0  0  0  0  0  0  0  0  0
   -6.1329    5.3458  -19.5809 H   0  0  0  0  0  0  0  0  0  0  0  0
   -7.8828    5.3933  -14.0868 C   0  0  0  0  0  0  0  0  0  0  0  0
   -7.7174    6.5348  -13.9063 O   0  0  0  0  0  0  0  0  0  0  0  0
   -8.1828    4.2539  -13.0863 N   0  0  0  0  0  0  0  0  0  0  0  0
   -8.3580    3.3779  -13.4999 H   0  0  0  0  0  0  0  0  0  0  0  0
   -8.2457    4.2648  -11.6963 C   0  0  0  0  0  0  0  0  0  0  0  0
   -8.0050    5.4380  -10.9638 C   0  0  0  0  0  0  0  0  0  0  0  0
   -8.0882    5.4398   -9.5675 C   0  0  0  0  0  0  0  0  0  0  0  0
   -8.4345    4.2621   -8.9308 C   0  0  0  0  0  0  0  0  0  0  0  0
   -8.6877    3.1050   -9.6553 C   0  0  0  0  0  0  0  0  0  0  0  0
   -8.5883    3.0828  -11.0368 C   0  0  0  0  0  0  0  0  0  0  0  0
   -9.0363    1.9975   -8.7209 C   0  0  0  0  0  0  0  0  0  0  0  0
   -9.1601    2.6185   -7.3750 N   0  0  0  0  0  0  0  0  0  0  0  0
   -8.5986    3.9823   -7.4766 C   0  0  0  0  0  0  0  0  0  0  0  0
   -8.6375    2.0745   -6.6885 H   0  0  0  0  0  0  0  0  0  0  0  0
   -3.7803    5.9473  -18.3341 C   0  0  0  0  0  0  0  0  0  0  0  0
   -2.5630    4.3889  -19.7824 C   0  0  0  0  0  0  0  0  0  0  0  0
   -2.5501    5.1325  -18.5259 N   0  0  0  0  0  0  0  0  0  0  0  0
   -1.7417    5.7546  -18.5221 H   0  0  0  0  0  0  0  0  0  0  0  0
   -4.8062    4.8613  -15.2918 O   0  0  0  0  0  0  0  0  0  0  0  0
   -4.0178    5.5266  -14.3130 C   0  0  0  0  0  0  0  0  0  0  0  0
   -4.4209    5.0064  -12.9374 C   0  0  0  0  0  0  0  0  0  0  0  0
   -4.5614    6.1308  -11.9234 C   0  0  0  0  0  0  0  0  0  0  0  0
   -5.2805    7.2287  -12.4635 O   0  0  0  0  0  0  0  0  0  0  0  0
   -4.8040    7.5810  -13.2314 H   0  0  0  0  0  0  0  0  0  0  0  0
 28 29  1  0  0  0
 29 27  1  0  0  0
  1 27  1  0  0  0
  1  2  1  0  0  0
  2  3  1  0  0  0
  3  4  2  0  0  0
  4  5  1  0  0  0
  5  6  1  0  0  0
  5  7  2  0  0  0
  7  8  1  0  0  0
  8 13  1  0  0  0
 13 14  2  0  0  0
 13 15  1  0  0  0
 15 17  1  0  0  0
 17 18  2  0  0  0
 18 19  1  0  0  0
 19 20  2  0  0  0
 20 21  1  0  0  0
 21 22  2  0  0  0
 21 23  1  0  0  0
 23 24  1  0  0  0
 24 25  1  0  0  0
  8  9  2  0  0  0
  9 10  1  0  0  0
 10 11  1  0  0  0
 10 31  1  0  0  0
 31 32  1  0  0  0
 32 33  1  0  0  0
 33 34  1  0  0  0
 34 35  1  0  0  0
 10  1  1  0  0  0
  9  3  1  0  0  0
 22 17  1  0  0  0
 25 20  1  0  0  0
 29 30  1  0  0  0
  2 12  1  0  0  0
 15 16  1  0  0  0
 24 26  1  0  0  0
 35 36  1  0  0  0
M  END
> <minimizedAffinity>
-7.64654

> <minimizedRMSD>
0.76513

$$$$
P22198


 36 39  0  0  0  0  0  0  0  0999 V2000
   -4.7141    5.3299  -16.3516 C   0  0  0  0  0  0  0  0  0  0  0  0
   -5.4666    5.2401  -17.6327 N   0  0  0  0  0  0  0  0  0  0  0  0
   -6.7726    4.8943  -17.2292 C   0  0  0  0  0  0  0  0  0  0  0  0
   -7.7603    4.4389  -18.0875 C   0  0  0  0  0  0  0  0  0  0  0  0
   -9.0096    4.1483  -17.5588 C   0  0  0  0  0  0  0  0  0  0  0  0
   -9.9729    3.6705  -18.3563 F   0  0  0  0  0  0  0  0  0  0  0  0
   -9.2887    4.3554  -16.2116 C   0  0  0  0  0  0  0  0  0  0  0  0
   -8.3014    4.8757  -15.3693 C   0  0  0  0  0  0  0  0  0  0  0  0
   -7.0306    5.1384  -15.8793 C   0  0  0  0  0  0  0  0  0  0  0  0
   -5.7626    5.6039  -15.1917 C   0  0  0  0  0  0  0  0  0  0  0  0
   -5.8429    7.0826  -14.7914 C   0  0  0  0  0  0  0  0  0  0  0  0
   -5.1314    5.3875  -18.5466 H   0  0  0  0  0  0  0  0  0  0  0  0
   -8.7089    5.2466  -13.9991 C   0  0  0  0  0  0  0  0  0  0  0  0
   -9.4907    6.1033  -13.8722 O   0  0  0  0  0  0  0  0  0  0  0  0
   -8.0199    4.3562  -12.9431 N   0  0  0  0  0  0  0  0  0  0  0  0
   -7.3327    3.7490  -13.3011 H   0  0  0  0  0  0  0  0  0  0  0  0
   -8.2126    4.2721  -11.5646 C   0  0  0  0  0  0  0  0  0  0  0  0
   -8.0111    5.3954  -10.7426 C   0  0  0  0  0  0  0  0  0  0  0  0
   -8.1608    5.3096   -9.3545 C   0  0  0  0  0  0  0  0  0  0  0  0
   -8.5570    4.1003   -8.8183 C   0  0  0  0  0  0  0  0  0  0  0  0
   -8.7841    2.9927   -9.6311 C   0  0  0  0  0  0  0  0  0  0  0  0
   -8.5921    3.0510  -11.0025 C   0  0  0  0  0  0  0  0  0  0  0  0
   -9.2228    1.8486   -8.7752 C   0  0  0  0  0  0  0  0  0  0  0  0
   -9.5930    2.4650   -7.4710 N   0  0  0  0  0  0  0  0  0  0  0  0
   -8.8097    3.7176   -7.3984 C   0  0  0  0  0  0  0  0  0  0  0  0
   -9.3478    1.8445   -6.6995 H   0  0  0  0  0  0  0  0  0  0  0  0
   -3.5763    6.3613  -16.5611 C   0  0  0  0  0  0  0  0  0  0  0  0
   -1.2350    5.9743  -17.1226 C   0  0  0  0  0  0  0  0  0  0  0  0
   -2.2285    6.0309  -16.0577 N   0  0  0  0  0  0  0  0  0  0  0  0
   -1.8153    6.9992  -15.0397 C   0  0  0  0  0  0  0  0  0  0  0  0
   -5.5085    4.6336  -14.1590 O   0  0  0  0  0  0  0  0  0  0  0  0
   -4.4049    4.8708  -13.2976 C   0  0  0  0  0  0  0  0  0  0  0  0
   -3.7578    3.5291  -12.9755 C   0  0  0  0  0  0  0  0  0  0  0  0
   -4.7822    2.5127  -12.5001 C   0  0  0  0  0  0  0  0  0  0  0  0
   -5.0629    2.6727  -11.1178 O   0  0  0  0  0  0  0  0  0  0  0  0
   -4.2504    2.5388  -10.6052 H   0  0  0  0  0  0  0  0  0  0  0  0
 28 29  1  0  0  0
 29 30  1  0  0  0
 29 27  1  0  0  0
  1 27  1  0  0  0
  1  2  1  0  0  0
  2  3  1  0  0  0
  3  4  2  0  0  0
  4  5  1  0  0  0
  5  6  1  0  0  0
  5  7  2  0  0  0
  7  8  1  0  0  0
  8 13  1  0  0  0
 13 14  2  0  0  0
 13 15  1  0  0  0
 15 17  1  0  0  0
 17 18  2  0  0  0
 18 19  1  0  0  0
 19 20  2  0  0  0
 20 21  1  0  0  0
 21 22  2  0  0  0
 21 23  1  0  0  0
 23 24  1  0  0  0
 24 25  1  0  0  0
  8  9  2  0  0  0
  9 10  1  0  0  0
 10 11  1  0  0  0
 10 31  1  0  0  0
 31 32  1  0  0  0
 32 33  1  0  0  0
 33 34  1  0  0  0
 34 35  1  0  0  0
 10  1  1  0  0  0
  9  3  1  0  0  0
 22 17  1  0  0  0
 25 20  1  0  0  0
  2 12  1  0  0  0
 15 16  1  0  0  0
 24 26  1  0  0  0
 35 36  1  0  0  0
M  END
> <minimizedAffinity>
-7.77895

> <minimizedRMSD>
1.07296

$$$$
P22199


 36 40  0  0  0  0  0  0  0  0999 V2000
   -5.5543    6.9445  -14.3039 C   0  0  0  0  0  0  0  0  0  0  0  0
   -5.5465    5.5095  -14.8429 C   0  0  0  0  0  0  0  0  0  0  0  0
   -4.4366    5.5098  -16.0136 C   0  0  0  0  0  0  0  0  0  0  0  0
   -3.2421    5.7345  -15.8914 O   0  0  0  0  0  0  0  0  0  0  0  0
   -5.1521    5.2099  -17.1937 N   0  0  0  0  0  0  0  0  0  0  0  0
   -5.0506    5.1064  -18.6181 C   0  0  0  0  0  0  0  0  0  0  0  0
   -4.0646    5.3202  -19.2961 O   0  0  0  0  0  0  0  0  0  0  0  0
   -6.3722    4.7319  -19.0614 N   0  0  0  0  0  0  0  0  0  0  0  0
   -7.2243    4.6609  -17.9655 C   0  0  0  0  0  0  0  0  0  0  0  0
   -8.5425    4.4015  -17.7290 C   0  0  0  0  0  0  0  0  0  0  0  0
   -9.3821    4.0625  -18.7122 F   0  0  0  0  0  0  0  0  0  0  0  0
   -9.0036    4.5012  -16.3972 C   0  0  0  0  0  0  0  0  0  0  0  0
   -8.1355    4.8911  -15.3326 C   0  0  0  0  0  0  0  0  0  0  0  0
   -6.8038    5.1284  -15.5841 C   0  0  0  0  0  0  0  0  0  0  0  0
   -6.4569    4.9731  -16.8848 C   0  0  0  0  0  0  0  0  0  0  0  0
   -6.6300    4.5543  -19.9948 H   0  0  0  0  0  0  0  0  0  0  0  0
   -8.6938    5.1602  -14.0031 C   0  0  0  0  0  0  0  0  0  0  0  0
   -9.5956    5.8946  -13.9251 O   0  0  0  0  0  0  0  0  0  0  0  0
   -7.9248    4.4039  -12.9053 N   0  0  0  0  0  0  0  0  0  0  0  0
   -7.1434    3.8971  -13.2243 H   0  0  0  0  0  0  0  0  0  0  0  0
   -8.1540    4.3197  -11.5363 C   0  0  0  0  0  0  0  0  0  0  0  0
   -8.0062    5.4458  -10.7081 C   0  0  0  0  0  0  0  0  0  0  0  0
   -8.2027    5.3507   -9.3275 C   0  0  0  0  0  0  0  0  0  0  0  0
   -8.5836    4.1284   -8.8101 C   0  0  0  0  0  0  0  0  0  0  0  0
   -8.7437    3.0163   -9.6328 C   0  0  0  0  0  0  0  0  0  0  0  0
   -8.5125    3.0851  -10.9945 C   0  0  0  0  0  0  0  0  0  0  0  0
   -9.1594    1.8518   -8.7965 C   0  0  0  0  0  0  0  0  0  0  0  0
   -9.6168    2.4505   -7.5140 N   0  0  0  0  0  0  0  0  0  0  0  0
   -8.8875    3.7334   -7.4033 C   0  0  0  0  0  0  0  0  0  0  0  0
   -9.3857    1.8389   -6.7311 H   0  0  0  0  0  0  0  0  0  0  0  0
   -5.2524    4.4456  -13.9456 O   0  0  0  0  0  0  0  0  0  0  0  0
   -4.5440    4.8105  -12.7700 C   0  0  0  0  0  0  0  0  0  0  0  0
   -4.4540    3.6075  -11.8442 C   0  0  0  0  0  0  0  0  0  0  0  0
   -4.6080    4.0329  -10.3930 C   0  0  0  0  0  0  0  0  0  0  0  0
   -4.5116    5.4445  -10.2632 O   0  0  0  0  0  0  0  0  0  0  0  0
   -3.6408    5.7389  -10.5731 H   0  0  0  0  0  0  0  0  0  0  0  0
  2  1  1  0  0  0
  2 31  1  0  0  0
 31 32  1  0  0  0
 32 33  1  0  0  0
 33 34  1  0  0  0
 34 35  1  0  0  0
  2  3  1  0  0  0
  3  4  2  0  0  0
  3  5  1  0  0  0
  5  6  1  0  0  0
  6  7  2  0  0  0
  6  8  1  0  0  0
  8  9  1  0  0  0
  9 10  2  0  0  0
 10 11  1  0  0  0
 10 12  1  0  0  0
 12 13  2  0  0  0
 13 17  1  0  0  0
 17 18  2  0  0  0
 17 19  1  0  0  0
 19 21  1  0  0  0
 21 22  2  0  0  0
 22 23  1  0  0  0
 23 24  2  0  0  0
 24 25  1  0  0  0
 25 26  2  0  0  0
 25 27  1  0  0  0
 27 28  1  0  0  0
 28 29  1  0  0  0
 13 14  1  0  0  0
 14 15  2  0  0  0
 14  2  1  0  0  0
 15  5  1  0  0  0
 15  9  1  0  0  0
 26 21  1  0  0  0
 29 24  1  0  0  0
 35 36  1  0  0  0
  8 16  1  0  0  0
 19 20  1  0  0  0
 28 30  1  0  0  0
M  END
> <minimizedAffinity>
-8.87631

> <minimizedRMSD>
0.78137

$$$$
P22200


 37 40  0  0  0  0  0  0  0  0999 V2000
   -5.2367    5.1858  -17.2329 N   0  0  0  0  0  0  0  0  0  0  0  0
   -4.5919    5.3621  -16.0096 C   0  0  0  0  0  0  0  0  0  0  0  0
   -3.3882    5.5176  -15.8424 O   0  0  0  0  0  0  0  0  0  0  0  0
   -5.6964    5.4230  -14.9094 C   0  0  0  0  0  0  0  0  0  0  0  0
   -5.6557    6.8782  -14.4162 C   0  0  0  0  0  0  0  0  0  0  0  0
   -6.9348    5.0804  -15.7075 C   0  0  0  0  0  0  0  0  0  0  0  0
   -8.2384    4.8391  -15.2896 C   0  0  0  0  0  0  0  0  0  0  0  0
   -9.1862    4.4162  -16.2246 C   0  0  0  0  0  0  0  0  0  0  0  0
   -8.8281    4.2870  -17.5662 C   0  0  0  0  0  0  0  0  0  0  0  0
   -9.7544    3.8827  -18.4444 F   0  0  0  0  0  0  0  0  0  0  0  0
   -7.5409    4.5722  -18.0071 C   0  0  0  0  0  0  0  0  0  0  0  0
   -6.6028    4.9437  -17.0595 C   0  0  0  0  0  0  0  0  0  0  0  0
   -8.6898    5.1544  -13.9199 C   0  0  0  0  0  0  0  0  0  0  0  0
   -9.4433    6.0347  -13.7876 O   0  0  0  0  0  0  0  0  0  0  0  0
   -8.1039    4.1757  -12.8825 N   0  0  0  0  0  0  0  0  0  0  0  0
   -7.5391    3.4636  -13.2607 H   0  0  0  0  0  0  0  0  0  0  0  0
   -8.2438    4.1351  -11.4958 C   0  0  0  0  0  0  0  0  0  0  0  0
   -8.0415    5.2872  -10.7185 C   0  0  0  0  0  0  0  0  0  0  0  0
   -8.2040    5.2379   -9.3361 C   0  0  0  0  0  0  0  0  0  0  0  0
   -8.0037    6.3356   -8.5974 F   0  0  0  0  0  0  0  0  0  0  0  0
   -8.5968    4.0602   -8.7460 C   0  0  0  0  0  0  0  0  0  0  0  0
   -8.8051    2.9198   -9.5137 C   0  0  0  0  0  0  0  0  0  0  0  0
   -8.6114    2.9310  -10.8865 C   0  0  0  0  0  0  0  0  0  0  0  0
   -9.2345    1.8090   -8.6122 C   0  0  0  0  0  0  0  0  0  0  0  0
   -9.6281    2.4782   -7.3420 N   0  0  0  0  0  0  0  0  0  0  0  0
   -8.8723    3.7519   -7.3181 C   0  0  0  0  0  0  0  0  0  0  0  0
   -9.3770    1.8991   -6.5408 H   0  0  0  0  0  0  0  0  0  0  0  0
   -4.5693    5.3471  -18.4876 C   0  0  0  0  0  0  0  0  0  0  0  0
   -5.3709    7.3481  -19.5375 C   0  0  0  0  0  0  0  0  0  0  0  0
   -4.3640    6.7890  -18.6489 N   0  0  0  0  0  0  0  0  0  0  0  0
   -4.4312    7.2421  -17.7375 H   0  0  0  0  0  0  0  0  0  0  0  0
   -5.4974    4.3688  -13.9724 O   0  0  0  0  0  0  0  0  0  0  0  0
   -4.7265    4.6816  -12.8221 C   0  0  0  0  0  0  0  0  0  0  0  0
   -4.6522    3.4461  -11.9354 C   0  0  0  0  0  0  0  0  0  0  0  0
   -4.6466    3.8256  -10.4638 C   0  0  0  0  0  0  0  0  0  0  0  0
   -5.2590    2.8157   -9.6744 O   0  0  0  0  0  0  0  0  0  0  0  0
   -6.1813    2.7026   -9.9526 H   0  0  0  0  0  0  0  0  0  0  0  0
 29 30  1  0  0  0
 30 28  1  0  0  0
 28  1  1  0  0  0
  1  2  1  0  0  0
  2  3  2  0  0  0
  2  4  1  0  0  0
  4  5  1  0  0  0
  4 32  1  0  0  0
 32 33  1  0  0  0
 33 34  1  0  0  0
 34 35  1  0  0  0
 35 36  1  0  0  0
  4  6  1  0  0  0
  6  7  2  0  0  0
  7 13  1  0  0  0
 13 14  2  0  0  0
 13 15  1  0  0  0
 15 17  1  0  0  0
 17 18  2  0  0  0
 18 19  1  0  0  0
 19 20  1  0  0  0
 19 21  2  0  0  0
 21 22  1  0  0  0
 22 23  2  0  0  0
 22 24  1  0  0  0
 24 25  1  0  0  0
 25 26  1  0  0  0
  7  8  1  0  0  0
  8  9  2  0  0  0
  9 10  1  0  0  0
  9 11  1  0  0  0
 11 12  2  0  0  0
 12  1  1  0  0  0
 12  6  1  0  0  0
 23 17  1  0  0  0
 26 21  1  0  0  0
 30 31  1  0  0  0
 36 37  1  0  0  0
 15 16  1  0  0  0
 25 27  1  0  0  0
M  END
> <minimizedAffinity>
-8.43569

> <minimizedRMSD>
0.95056

$$$$
P22203


 38 42  0  0  0  0  0  0  0  0999 V2000
   -6.0481    7.1481  -14.5394 C   0  0  0  0  0  0  0  0  0  0  0  0
   -5.8184    5.7474  -15.1191 C   0  0  0  0  0  0  0  0  0  0  0  0
   -7.0427    5.2336  -15.8541 C   0  0  0  0  0  0  0  0  0  0  0  0
   -8.3035    4.9163  -15.3570 C   0  0  0  0  0  0  0  0  0  0  0  0
   -9.2431    4.3108  -16.1900 C   0  0  0  0  0  0  0  0  0  0  0  0
   -8.9349    4.0867  -17.5270 C   0  0  0  0  0  0  0  0  0  0  0  0
   -9.8534    3.5083  -18.3115 F   0  0  0  0  0  0  0  0  0  0  0  0
   -7.6938    4.4345  -18.0482 C   0  0  0  0  0  0  0  0  0  0  0  0
   -6.7362    4.9653  -17.1914 C   0  0  0  0  0  0  0  0  0  0  0  0
   -5.3945    5.1488  -17.4980 N   0  0  0  0  0  0  0  0  0  0  0  0
   -5.0070    5.9715  -18.6172 C   0  0  0  0  0  0  0  0  0  0  0  0
   -3.8862    6.8463  -18.1998 N   0  0  0  0  0  0  0  0  0  0  0  0
   -4.1251    7.0322  -16.7228 N   0  0  0  0  0  0  0  0  0  0  0  0
   -4.7422    5.7371  -16.3264 C   0  0  0  0  0  0  0  0  0  0  0  0
   -3.6433    4.9022  -16.0563 O   0  0  0  0  0  0  0  0  0  0  0  0
   -3.9174    7.7399  -18.6906 H   0  0  0  0  0  0  0  0  0  0  0  0
   -4.7601    7.8111  -16.5480 H   0  0  0  0  0  0  0  0  0  0  0  0
   -3.1634    5.2392  -15.2836 H   0  0  0  0  0  0  0  0  0  0  0  0
   -8.7123    5.2595  -13.9842 C   0  0  0  0  0  0  0  0  0  0  0  0
   -9.4168    6.1776  -13.8334 O   0  0  0  0  0  0  0  0  0  0  0  0
   -8.1584    4.2458  -12.9626 N   0  0  0  0  0  0  0  0  0  0  0  0
   -7.6388    3.5074  -13.3550 H   0  0  0  0  0  0  0  0  0  0  0  0
   -8.2736    4.2047  -11.5749 C   0  0  0  0  0  0  0  0  0  0  0  0
   -8.0451    5.3510  -10.7935 C   0  0  0  0  0  0  0  0  0  0  0  0
   -8.1465    5.3035   -9.3997 C   0  0  0  0  0  0  0  0  0  0  0  0
   -8.5349    4.1129   -8.8179 C   0  0  0  0  0  0  0  0  0  0  0  0
   -8.7849    2.9820   -9.5907 C   0  0  0  0  0  0  0  0  0  0  0  0
   -8.6269    2.9982  -10.9664 C   0  0  0  0  0  0  0  0  0  0  0  0
   -9.2185    1.8697   -8.6928 C   0  0  0  0  0  0  0  0  0  0  0  0
   -9.5688    2.5328   -7.4055 N   0  0  0  0  0  0  0  0  0  0  0  0
   -8.7698    3.7781   -7.3833 C   0  0  0  0  0  0  0  0  0  0  0  0
   -9.3225    1.9353   -6.6163 H   0  0  0  0  0  0  0  0  0  0  0  0
   -5.6508    4.7899  -14.0649 O   0  0  0  0  0  0  0  0  0  0  0  0
   -4.8439    5.1596  -12.9555 C   0  0  0  0  0  0  0  0  0  0  0  0
   -4.4873    3.8817  -12.1970 C   0  0  0  0  0  0  0  0  0  0  0  0
   -4.5963    4.0348  -10.6842 C   0  0  0  0  0  0  0  0  0  0  0  0
   -4.5537    5.3905  -10.2752 O   0  0  0  0  0  0  0  0  0  0  0  0
   -3.7053    5.7808  -10.5376 H   0  0  0  0  0  0  0  0  0  0  0  0
  2  1  1  0  0  0
  2 33  1  0  0  0
 33 34  1  0  0  0
 34 35  1  0  0  0
 35 36  1  0  0  0
 36 37  1  0  0  0
  2  3  1  0  0  0
  3  4  2  0  0  0
  4 19  1  0  0  0
 19 20  2  0  0  0
 19 21  1  0  0  0
 21 23  1  0  0  0
 23 24  2  0  0  0
 24 25  1  0  0  0
 25 26  2  0  0  0
 26 27  1  0  0  0
 27 28  2  0  0  0
 27 29  1  0  0  0
 29 30  1  0  0  0
 30 31  1  0  0  0
  4  5  1  0  0  0
  5  6  2  0  0  0
  6  7  1  0  0  0
  6  8  1  0  0  0
  8  9  2  0  0  0
  9 10  1  0  0  0
 10 11  1  0  0  0
 11 12  1  0  0  0
 12 13  1  0  0  0
 13 14  1  0  0  0
 14 15  1  0  0  0
 14  2  1  0  0  0
  9  3  1  0  0  0
 14 10  1  0  0  0
 28 23  1  0  0  0
 31 26  1  0  0  0
 37 38  1  0  0  0
 21 22  1  0  0  0
 30 32  1  0  0  0
 12 16  1  0  0  0
 13 17  1  0  0  0
 15 18  1  0  0  0
M  END
> <minimizedAffinity>
-8.39939

> <minimizedRMSD>
0.66701

$$$$
P22204


 37 40  0  0  0  0  0  0  0  0999 V2000
   -5.2633    5.1761  -17.2880 N   0  0  0  0  0  0  0  0  0  0  0  0
   -4.6029    5.3532  -16.0711 C   0  0  0  0  0  0  0  0  0  0  0  0
   -3.3951    5.5033  -15.9268 O   0  0  0  0  0  0  0  0  0  0  0  0
   -5.6956    5.4239  -14.9519 C   0  0  0  0  0  0  0  0  0  0  0  0
   -5.6342    6.8831  -14.4718 C   0  0  0  0  0  0  0  0  0  0  0  0
   -6.9434    5.0774  -15.7377 C   0  0  0  0  0  0  0  0  0  0  0  0
   -8.2481    4.8504  -15.3110 C   0  0  0  0  0  0  0  0  0  0  0  0
   -9.2086    4.4223  -16.2300 C   0  0  0  0  0  0  0  0  0  0  0  0
   -8.8603    4.2709  -17.5698 C   0  0  0  0  0  0  0  0  0  0  0  0
   -9.7920    3.8596  -18.4382 F   0  0  0  0  0  0  0  0  0  0  0  0
   -7.5743    4.5433  -18.0228 C   0  0  0  0  0  0  0  0  0  0  0  0
   -6.6258    4.9284  -17.0913 C   0  0  0  0  0  0  0  0  0  0  0  0
   -8.6916    5.1966  -13.9502 C   0  0  0  0  0  0  0  0  0  0  0  0
   -9.4434    6.0810  -13.8365 O   0  0  0  0  0  0  0  0  0  0  0  0
   -8.0438    4.2915  -12.8831 N   0  0  0  0  0  0  0  0  0  0  0  0
   -7.3757    3.6576  -13.2308 H   0  0  0  0  0  0  0  0  0  0  0  0
   -8.2500    4.2250  -11.5079 C   0  0  0  0  0  0  0  0  0  0  0  0
   -8.0889    5.3674  -10.7093 C   0  0  0  0  0  0  0  0  0  0  0  0
   -8.2426    5.3142   -9.3153 C   0  0  0  0  0  0  0  0  0  0  0  0
   -8.0535    6.5606   -8.5132 C   0  0  0  0  0  0  0  0  0  0  0  0
   -8.5824    4.0925   -8.7519 C   0  0  0  0  0  0  0  0  0  0  0  0
   -8.7771    2.9682   -9.5475 C   0  0  0  0  0  0  0  0  0  0  0  0
   -8.5994    3.0095  -10.9230 C   0  0  0  0  0  0  0  0  0  0  0  0
   -9.1688    1.8096   -8.6938 C   0  0  0  0  0  0  0  0  0  0  0  0
   -9.3015    2.3341   -7.3106 N   0  0  0  0  0  0  0  0  0  0  0  0
   -8.7930    3.7202   -7.3218 C   0  0  0  0  0  0  0  0  0  0  0  0
   -8.7523    1.7651   -6.6664 H   0  0  0  0  0  0  0  0  0  0  0  0
   -4.6169    5.3530  -18.5559 C   0  0  0  0  0  0  0  0  0  0  0  0
   -2.9818    6.8898  -19.4003 C   0  0  0  0  0  0  0  0  0  0  0  0
   -4.1970    6.7537  -18.6100 N   0  0  0  0  0  0  0  0  0  0  0  0
   -4.9384    7.3105  -19.0351 H   0  0  0  0  0  0  0  0  0  0  0  0
   -5.4775    4.3827  -14.0023 O   0  0  0  0  0  0  0  0  0  0  0  0
   -4.6985    4.7201  -12.8605 C   0  0  0  0  0  0  0  0  0  0  0  0
   -4.5299    3.4831  -11.9881 C   0  0  0  0  0  0  0  0  0  0  0  0
   -4.6999    3.8177  -10.5135 C   0  0  0  0  0  0  0  0  0  0  0  0
   -4.6292    5.2190  -10.2896 O   0  0  0  0  0  0  0  0  0  0  0  0
   -3.7609    5.5479  -10.5702 H   0  0  0  0  0  0  0  0  0  0  0  0
 29 30  1  0  0  0
 30 28  1  0  0  0
 28  1  1  0  0  0
  1  2  1  0  0  0
  2  3  2  0  0  0
  2  4  1  0  0  0
  4  5  1  0  0  0
  4 32  1  0  0  0
 32 33  1  0  0  0
 33 34  1  0  0  0
 34 35  1  0  0  0
 35 36  1  0  0  0
  4  6  1  0  0  0
  6  7  2  0  0  0
  7 13  1  0  0  0
 13 14  2  0  0  0
 13 15  1  0  0  0
 15 17  1  0  0  0
 17 18  2  0  0  0
 18 19  1  0  0  0
 19 20  1  0  0  0
 19 21  2  0  0  0
 21 22  1  0  0  0
 22 23  2  0  0  0
 22 24  1  0  0  0
 24 25  1  0  0  0
 25 26  1  0  0  0
  7  8  1  0  0  0
  8  9  2  0  0  0
  9 10  1  0  0  0
  9 11  1  0  0  0
 11 12  2  0  0  0
 12  1  1  0  0  0
 12  6  1  0  0  0
 23 17  1  0  0  0
 26 21  1  0  0  0
 30 31  1  0  0  0
 36 37  1  0  0  0
 15 16  1  0  0  0
 25 27  1  0  0  0
M  END
> <minimizedAffinity>
-8.13659

> <minimizedRMSD>
0.90504

$$$$
P22205


 39 43  0  0  0  0  0  0  0  0999 V2000
   -4.1046    5.2860  -13.7523 C   0  0  0  0  0  0  0  0  0  0  0  0
   -4.7251    4.8875  -14.9839 O   0  0  0  0  0  0  0  0  0  0  0  0
   -5.4690    5.8000  -15.8086 C   0  0  0  0  0  0  0  0  0  0  0  0
   -5.5788    7.2727  -15.4044 C   0  0  0  0  0  0  0  0  0  0  0  0
   -6.8383    5.1887  -16.0426 C   0  0  0  0  0  0  0  0  0  0  0  0
   -6.9795    4.9345  -17.4194 C   0  0  0  0  0  0  0  0  0  0  0  0
   -8.1188    4.3503  -17.9535 C   0  0  0  0  0  0  0  0  0  0  0  0
   -9.1337    3.9846  -17.0892 C   0  0  0  0  0  0  0  0  0  0  0  0
  -10.2412    3.4095  -17.5741 F   0  0  0  0  0  0  0  0  0  0  0  0
   -9.0392    4.2479  -15.7265 C   0  0  0  0  0  0  0  0  0  0  0  0
   -7.9018    4.8766  -15.1865 C   0  0  0  0  0  0  0  0  0  0  0  0
   -8.1059    5.3588  -13.7949 C   0  0  0  0  0  0  0  0  0  0  0  0
   -8.9906    6.1996  -13.6438 O   0  0  0  0  0  0  0  0  0  0  0  0
   -7.3840    4.7679  -12.7825 N   0  0  0  0  0  0  0  0  0  0  0  0
   -6.2070    5.4728  -12.6323 C   0  0  0  0  0  0  0  0  0  0  0  0
   -6.1232    6.6770  -12.3584 O   0  0  0  0  0  0  0  0  0  0  0  0
   -4.9571    4.6336  -12.6535 C   0  0  0  0  0  0  0  0  0  0  0  0
   -5.9191    5.4118  -18.2311 N   0  0  0  0  0  0  0  0  0  0  0  0
   -4.8707    5.7029  -17.2862 C   0  0  0  0  0  0  0  0  0  0  0  0
   -4.2508    6.8733  -17.7532 O   0  0  0  0  0  0  0  0  0  0  0  0
   -3.9482    4.7205  -17.4063 F   0  0  0  0  0  0  0  0  0  0  0  0
   -5.9030    5.5189  -19.2096 H   0  0  0  0  0  0  0  0  0  0  0  0
   -3.9183    6.7263  -18.6525 H   0  0  0  0  0  0  0  0  0  0  0  0
   -8.0612    4.6903  -11.5078 C   0  0  0  0  0  0  0  0  0  0  0  0
   -8.0735    5.7830  -10.6033 C   0  0  0  0  0  0  0  0  0  0  0  0
   -8.2969    5.5869   -9.2437 C   0  0  0  0  0  0  0  0  0  0  0  0
   -8.5577    4.3005   -8.8180 C   0  0  0  0  0  0  0  0  0  0  0  0
   -8.6937    3.2505   -9.7217 C   0  0  0  0  0  0  0  0  0  0  0  0
   -8.4448    3.4196  -11.0731 C   0  0  0  0  0  0  0  0  0  0  0  0
   -9.0968    2.0151   -8.9909 C   0  0  0  0  0  0  0  0  0  0  0  0
   -8.9467    2.3305   -7.5474 N   0  0  0  0  0  0  0  0  0  0  0  0
   -8.7326    3.7893   -7.4310 C   0  0  0  0  0  0  0  0  0  0  0  0
   -8.1459    1.8293   -7.1628 H   0  0  0  0  0  0  0  0  0  0  0  0
   -1.8712    5.3581  -14.9458 C   0  0  0  0  0  0  0  0  0  0  0  0
   -2.6525    4.7788  -13.7760 C   0  0  0  0  0  0  0  0  0  0  0  0
   -1.9905    5.1489  -12.6487 F   0  0  0  0  0  0  0  0  0  0  0  0
   -4.4147    4.6629  -11.2236 C   0  0  0  0  0  0  0  0  0  0  0  0
   -4.1064    5.9830  -10.7876 O   0  0  0  0  0  0  0  0  0  0  0  0
   -3.4176    6.3592  -11.3577 H   0  0  0  0  0  0  0  0  0  0  0  0
 35 34  1  0  0  0
 35 36  1  0  0  0
 35  1  1  0  0  0
  1  2  1  0  0  0
  2  3  1  0  0  0
  3  4  1  0  0  0
  3  5  1  0  0  0
  5  6  2  0  0  0
  6  7  1  0  0  0
  7  8  2  0  0  0
  8  9  1  0  0  0
  8 10  1  0  0  0
 10 11  2  0  0  0
 11 12  1  0  0  0
 12 13  2  0  0  0
 12 14  1  0  0  0
 14 24  1  0  0  0
 24 25  2  0  0  0
 25 26  1  0  0  0
 26 27  2  0  0  0
 27 28  1  0  0  0
 28 29  2  0  0  0
 28 30  1  0  0  0
 30 31  1  0  0  0
 31 32  1  0  0  0
 14 15  1  0  0  0
 15 16  2  0  0  0
 15 17  1  0  0  0
 17 37  1  0  0  0
 37 38  1  0  0  0
  6 18  1  0  0  0
 18 19  1  0  0  0
 19 20  1  0  0  0
 19 21  1  0  0  0
 17  1  1  0  0  0
 19  3  1  0  0  0
 11  5  1  0  0  0
 29 24  1  0  0  0
 32 27  1  0  0  0
 31 33  1  0  0  0
 38 39  1  0  0  0
 18 22  1  0  0  0
 20 23  1  0  0  0
M  END
> <minimizedAffinity>
-9.37028

> <minimizedRMSD>
0.42473

$$$$
P22207


 35 39  0  0  0  0  0  0  0  0999 V2000
   -5.1670    7.0759  -15.7244 C   0  0  0  0  0  0  0  0  0  0  0  0
   -5.3525    5.5927  -16.0850 C   0  0  0  0  0  0  0  0  0  0  0  0
   -4.9066    5.4227  -17.5400 C   0  0  0  0  0  0  0  0  0  0  0  0
   -3.8121    5.6057  -18.3947 C   0  0  0  0  0  0  0  0  0  0  0  0
   -4.1163    5.3393  -19.6821 N   0  0  0  0  0  0  0  0  0  0  0  0
   -5.4444    5.0270  -19.6502 N   0  0  0  0  0  0  0  0  0  0  0  0
   -5.9036    5.0300  -18.3827 C   0  0  0  0  0  0  0  0  0  0  0  0
   -7.1083    4.8091  -17.6783 C   0  0  0  0  0  0  0  0  0  0  0  0
   -8.3139    4.3242  -18.1317 C   0  0  0  0  0  0  0  0  0  0  0  0
   -9.3073    4.1468  -17.1884 C   0  0  0  0  0  0  0  0  0  0  0  0
  -10.4988    3.6868  -17.5837 F   0  0  0  0  0  0  0  0  0  0  0  0
   -9.1010    4.4485  -15.8400 C   0  0  0  0  0  0  0  0  0  0  0  0
   -7.8685    4.9575  -15.3946 C   0  0  0  0  0  0  0  0  0  0  0  0
   -6.8389    5.1440  -16.3151 C   0  0  0  0  0  0  0  0  0  0  0  0
   -5.9919    4.8270  -20.4436 H   0  0  0  0  0  0  0  0  0  0  0  0
   -7.7983    5.3953  -13.9836 C   0  0  0  0  0  0  0  0  0  0  0  0
   -7.6165    6.5284  -13.7702 O   0  0  0  0  0  0  0  0  0  0  0  0
   -8.0468    4.2193  -13.0104 N   0  0  0  0  0  0  0  0  0  0  0  0
   -8.0965    3.3340  -13.4380 H   0  0  0  0  0  0  0  0  0  0  0  0
   -8.2121    4.2089  -11.6248 C   0  0  0  0  0  0  0  0  0  0  0  0
   -8.0170    5.3708  -10.8585 C   0  0  0  0  0  0  0  0  0  0  0  0
   -8.1644    5.3486   -9.4664 C   0  0  0  0  0  0  0  0  0  0  0  0
   -8.5458    4.1625   -8.8692 C   0  0  0  0  0  0  0  0  0  0  0  0
   -8.7625    3.0147   -9.6257 C   0  0  0  0  0  0  0  0  0  0  0  0
   -8.5816    3.0132  -11.0001 C   0  0  0  0  0  0  0  0  0  0  0  0
   -9.1774    1.9051   -8.7130 C   0  0  0  0  0  0  0  0  0  0  0  0
   -9.5464    2.5763   -7.4365 N   0  0  0  0  0  0  0  0  0  0  0  0
   -8.7883    3.8464   -7.4308 C   0  0  0  0  0  0  0  0  0  0  0  0
   -9.2812    1.9982   -6.6391 H   0  0  0  0  0  0  0  0  0  0  0  0
   -4.7213    4.6268  -15.2307 O   0  0  0  0  0  0  0  0  0  0  0  0
   -4.2243    5.1057  -13.9790 C   0  0  0  0  0  0  0  0  0  0  0  0
   -4.4467    4.0615  -12.8880 C   0  0  0  0  0  0  0  0  0  0  0  0
   -4.4567    4.6900  -11.4987 C   0  0  0  0  0  0  0  0  0  0  0  0
   -4.6753    6.0918  -11.5605 O   0  0  0  0  0  0  0  0  0  0  0  0
   -3.9596    6.5086  -12.0655 H   0  0  0  0  0  0  0  0  0  0  0  0
  2  1  1  0  0  0
  2 30  1  0  0  0
 30 31  1  0  0  0
 31 32  1  0  0  0
 32 33  1  0  0  0
 33 34  1  0  0  0
  2  3  1  0  0  0
  3  4  1  0  0  0
  4  5  2  0  0  0
  5  6  1  0  0  0
  6  7  1  0  0  0
  7  8  1  0  0  0
  8  9  2  0  0  0
  9 10  1  0  0  0
 10 11  1  0  0  0
 10 12  2  0  0  0
 12 13  1  0  0  0
 13 16  1  0  0  0
 16 17  2  0  0  0
 16 18  1  0  0  0
 18 20  1  0  0  0
 20 21  2  0  0  0
 21 22  1  0  0  0
 22 23  2  0  0  0
 23 24  1  0  0  0
 24 25  2  0  0  0
 24 26  1  0  0  0
 26 27  1  0  0  0
 27 28  1  0  0  0
 13 14  2  0  0  0
 14  2  1  0  0  0
  7  3  2  0  0  0
 14  8  1  0  0  0
 25 20  1  0  0  0
 28 23  1  0  0  0
 34 35  1  0  0  0
  6 15  1  0  0  0
 18 19  1  0  0  0
 27 29  1  0  0  0
M  END
> <minimizedAffinity>
-8.85347

> <minimizedRMSD>
0.31731

$$$$
P22208


 37 41  0  0  0  0  0  0  0  0999 V2000
   -5.9174    6.8745  -14.0454 C   0  0  0  0  0  0  0  0  0  0  0  0
   -5.6637    5.6640  -14.9480 C   0  0  0  0  0  0  0  0  0  0  0  0
   -6.8873    5.2264  -15.7408 C   0  0  0  0  0  0  0  0  0  0  0  0
   -8.1426    4.7914  -15.3063 C   0  0  0  0  0  0  0  0  0  0  0  0
   -9.0358    4.2387  -16.2285 C   0  0  0  0  0  0  0  0  0  0  0  0
   -8.6808    4.1540  -17.5694 C   0  0  0  0  0  0  0  0  0  0  0  0
   -9.5519    3.6319  -18.4418 F   0  0  0  0  0  0  0  0  0  0  0  0
   -7.4692    4.6538  -18.0247 C   0  0  0  0  0  0  0  0  0  0  0  0
   -6.5836    5.2068  -17.1097 C   0  0  0  0  0  0  0  0  0  0  0  0
   -5.3922    5.8667  -17.4254 N   0  0  0  0  0  0  0  0  0  0  0  0
   -4.4681    5.2444  -18.3590 C   0  0  0  0  0  0  0  0  0  0  0  0
   -3.1130    5.2215  -17.7816 N   0  0  0  0  0  0  0  0  0  0  0  0
   -3.4248    5.1625  -16.3248 C   0  0  0  0  0  0  0  0  0  0  0  0
   -4.6890    6.0447  -16.1464 C   0  0  0  0  0  0  0  0  0  0  0  0
   -4.2940    7.4141  -16.1398 O   0  0  0  0  0  0  0  0  0  0  0  0
   -2.5905    6.0648  -18.0189 H   0  0  0  0  0  0  0  0  0  0  0  0
   -3.8186    7.6096  -15.3172 H   0  0  0  0  0  0  0  0  0  0  0  0
   -8.6647    5.0907  -13.9547 C   0  0  0  0  0  0  0  0  0  0  0  0
   -9.5016    5.8989  -13.8677 O   0  0  0  0  0  0  0  0  0  0  0  0
   -8.0280    4.1906  -12.8760 N   0  0  0  0  0  0  0  0  0  0  0  0
   -7.3859    3.5276  -13.2189 H   0  0  0  0  0  0  0  0  0  0  0  0
   -8.2135    4.1629  -11.4957 C   0  0  0  0  0  0  0  0  0  0  0  0
   -8.0211    5.3206  -10.7215 C   0  0  0  0  0  0  0  0  0  0  0  0
   -8.1752    5.2903   -9.3324 C   0  0  0  0  0  0  0  0  0  0  0  0
   -8.5555    4.0987   -8.7449 C   0  0  0  0  0  0  0  0  0  0  0  0
   -8.7696    2.9595   -9.5105 C   0  0  0  0  0  0  0  0  0  0  0  0
   -8.5834    2.9648  -10.8844 C   0  0  0  0  0  0  0  0  0  0  0  0
   -9.1846    1.8364   -8.6227 C   0  0  0  0  0  0  0  0  0  0  0  0
   -9.3786    2.4275   -7.2715 N   0  0  0  0  0  0  0  0  0  0  0  0
   -8.7988    3.7860   -7.3088 C   0  0  0  0  0  0  0  0  0  0  0  0
   -8.9015    1.8618   -6.5695 H   0  0  0  0  0  0  0  0  0  0  0  0
   -5.2349    4.4520  -14.2882 O   0  0  0  0  0  0  0  0  0  0  0  0
   -4.6057    4.5224  -13.0123 C   0  0  0  0  0  0  0  0  0  0  0  0
   -3.9960    3.1540  -12.7111 C   0  0  0  0  0  0  0  0  0  0  0  0
   -5.0041    2.1675  -12.1473 C   0  0  0  0  0  0  0  0  0  0  0  0
   -5.1662    2.3733  -10.7496 O   0  0  0  0  0  0  0  0  0  0  0  0
   -4.3157    2.2403  -10.3024 H   0  0  0  0  0  0  0  0  0  0  0  0
  2  1  1  0  0  0
  2 32  1  0  0  0
 32 33  1  0  0  0
 33 34  1  0  0  0
 34 35  1  0  0  0
 35 36  1  0  0  0
  2  3  1  0  0  0
  3  4  2  0  0  0
  4 18  1  0  0  0
 18 19  2  0  0  0
 18 20  1  0  0  0
 20 22  1  0  0  0
 22 23  2  0  0  0
 23 24  1  0  0  0
 24 25  2  0  0  0
 25 26  1  0  0  0
 26 27  2  0  0  0
 26 28  1  0  0  0
 28 29  1  0  0  0
 29 30  1  0  0  0
  4  5  1  0  0  0
  5  6  2  0  0  0
  6  7  1  0  0  0
  6  8  1  0  0  0
  8  9  2  0  0  0
  9 10  1  0  0  0
 10 11  1  0  0  0
 11 12  1  0  0  0
 12 13  1  0  0  0
 13 14  1  0  0  0
 14 15  1  0  0  0
 14  2  1  0  0  0
  9  3  1  0  0  0
 14 10  1  0  0  0
 27 22  1  0  0  0
 30 25  1  0  0  0
 36 37  1  0  0  0
 20 21  1  0  0  0
 29 31  1  0  0  0
 12 16  1  0  0  0
 15 17  1  0  0  0
M  END
> <minimizedAffinity>
-9.00160

> <minimizedRMSD>
1.09966

$$$$
P22209


 39 43  0  0  0  0  0  0  0  0999 V2000
   -3.0317    4.7792  -18.3291 C   0  0  0  0  0  0  0  0  0  0  0  0
   -4.4992    5.1288  -18.6198 C   0  0  0  0  0  0  0  0  0  0  0  0
   -4.5383    6.0436  -19.8511 C   0  0  0  0  0  0  0  0  0  0  0  0
   -4.0354    7.4652  -19.5933 C   0  0  0  0  0  0  0  0  0  0  0  0
   -4.4145    7.9890  -18.2889 N   0  0  0  0  0  0  0  0  0  0  0  0
   -5.5666    7.2872  -17.7386 C   0  0  0  0  0  0  0  0  0  0  0  0
   -5.2920    5.7768  -17.4546 C   0  0  0  0  0  0  0  0  0  0  0  0
   -4.6505    5.7039  -16.0448 C   0  0  0  0  0  0  0  0  0  0  0  0
   -3.4526    5.8028  -15.7952 O   0  0  0  0  0  0  0  0  0  0  0  0
   -5.7517    5.5550  -14.9512 C   0  0  0  0  0  0  0  0  0  0  0  0
   -5.9032    6.8922  -14.2245 C   0  0  0  0  0  0  0  0  0  0  0  0
   -6.9530    5.1653  -15.7919 C   0  0  0  0  0  0  0  0  0  0  0  0
   -8.2097    4.7580  -15.3369 C   0  0  0  0  0  0  0  0  0  0  0  0
   -9.1178    4.1909  -16.2271 C   0  0  0  0  0  0  0  0  0  0  0  0
   -8.7741    4.0795  -17.5716 C   0  0  0  0  0  0  0  0  0  0  0  0
   -9.6602    3.5399  -18.4187 F   0  0  0  0  0  0  0  0  0  0  0  0
   -7.5587    4.5661  -18.0581 C   0  0  0  0  0  0  0  0  0  0  0  0
   -6.6467    5.1242  -17.1656 C   0  0  0  0  0  0  0  0  0  0  0  0
   -4.6450    8.9781  -18.3844 H   0  0  0  0  0  0  0  0  0  0  0  0
   -8.6584    5.1057  -13.9757 C   0  0  0  0  0  0  0  0  0  0  0  0
   -9.3656    6.0270  -13.8663 O   0  0  0  0  0  0  0  0  0  0  0  0
   -8.0417    4.1877  -12.9045 N   0  0  0  0  0  0  0  0  0  0  0  0
   -7.4092    3.5175  -13.2508 H   0  0  0  0  0  0  0  0  0  0  0  0
   -8.2329    4.1511  -11.5255 C   0  0  0  0  0  0  0  0  0  0  0  0
   -8.0621    5.3124  -10.7486 C   0  0  0  0  0  0  0  0  0  0  0  0
   -8.2096    5.2793   -9.3594 C   0  0  0  0  0  0  0  0  0  0  0  0
   -8.5878    4.0861   -8.7789 C   0  0  0  0  0  0  0  0  0  0  0  0
   -8.7857    2.9420   -9.5485 C   0  0  0  0  0  0  0  0  0  0  0  0
   -8.5794    2.9445  -10.9182 C   0  0  0  0  0  0  0  0  0  0  0  0
   -9.2182    1.8292   -8.6515 C   0  0  0  0  0  0  0  0  0  0  0  0
   -9.6254    2.4957   -7.3834 N   0  0  0  0  0  0  0  0  0  0  0  0
   -8.8562    3.7586   -7.3485 C   0  0  0  0  0  0  0  0  0  0  0  0
   -9.3916    1.9115   -6.5806 H   0  0  0  0  0  0  0  0  0  0  0  0
   -5.6002    4.4674  -14.0549 O   0  0  0  0  0  0  0  0  0  0  0  0
   -4.3105    4.2636  -13.4925 C   0  0  0  0  0  0  0  0  0  0  0  0
   -4.4854    3.3631  -12.2686 C   0  0  0  0  0  0  0  0  0  0  0  0
   -4.5544    4.1439  -10.9582 C   0  0  0  0  0  0  0  0  0  0  0  0
   -4.6489    5.5411  -11.1661 O   0  0  0  0  0  0  0  0  0  0  0  0
   -3.8599    5.8520  -11.6370 H   0  0  0  0  0  0  0  0  0  0  0  0
  2  1  1  0  0  0
  2  3  1  0  0  0
  3  4  1  0  0  0
  4  5  1  0  0  0
  5  6  1  0  0  0
  7  6  1  0  0  0
  7  8  1  0  0  0
  8  9  2  0  0  0
  8 10  1  0  0  0
 10 11  1  0  0  0
 10 34  1  0  0  0
 34 35  1  0  0  0
 35 36  1  0  0  0
 36 37  1  0  0  0
 37 38  1  0  0  0
 10 12  1  0  0  0
 12 13  2  0  0  0
 13 20  1  0  0  0
 20 21  2  0  0  0
 20 22  1  0  0  0
 22 24  1  0  0  0
 24 25  2  0  0  0
 25 26  1  0  0  0
 26 27  2  0  0  0
 27 28  1  0  0  0
 28 29  2  0  0  0
 28 30  1  0  0  0
 30 31  1  0  0  0
 31 32  1  0  0  0
 13 14  1  0  0  0
 14 15  2  0  0  0
 15 16  1  0  0  0
 15 17  1  0  0  0
 17 18  2  0  0  0
  7  2  1  0  0  0
 18 12  1  0  0  0
 18  7  1  0  0  0
 29 24  1  0  0  0
 32 27  1  0  0  0
  5 19  1  0  0  0
 38 39  1  0  0  0
 22 23  1  0  0  0
 31 33  1  0  0  0
M  END
> <minimizedAffinity>
-9.73926

> <minimizedRMSD>
0.59779

$$$$
P22211


 37 41  0  0  0  0  0  0  0  0999 V2000
   -5.9292    7.1077  -14.4668 C   0  0  0  0  0  0  0  0  0  0  0  0
   -5.8007    5.6967  -15.0445 C   0  0  0  0  0  0  0  0  0  0  0  0
   -4.7487    5.7326  -16.2025 C   0  0  0  0  0  0  0  0  0  0  0  0
   -3.5321    5.8252  -16.0598 O   0  0  0  0  0  0  0  0  0  0  0  0
   -5.4681    5.7140  -17.5642 C   0  0  0  0  0  0  0  0  0  0  0  0
   -4.6960    5.0379  -18.6829 C   0  0  0  0  0  0  0  0  0  0  0  0
   -4.3896    6.1460  -19.6774 C   0  0  0  0  0  0  0  0  0  0  0  0
   -4.4532    7.3997  -18.9146 N   0  0  0  0  0  0  0  0  0  0  0  0
   -5.5960    7.1698  -18.0250 C   0  0  0  0  0  0  0  0  0  0  0  0
   -6.7950    5.1197  -17.1888 C   0  0  0  0  0  0  0  0  0  0  0  0
   -7.7217    4.5021  -18.0202 C   0  0  0  0  0  0  0  0  0  0  0  0
   -8.8937    4.0085  -17.4611 C   0  0  0  0  0  0  0  0  0  0  0  0
   -9.7816    3.3879  -18.2460 F   0  0  0  0  0  0  0  0  0  0  0  0
   -9.1784    4.1776  -16.1089 C   0  0  0  0  0  0  0  0  0  0  0  0
   -8.2582    4.8208  -15.2819 C   0  0  0  0  0  0  0  0  0  0  0  0
   -7.0367    5.2379  -15.8070 C   0  0  0  0  0  0  0  0  0  0  0  0
   -4.6183    8.1972  -19.5287 H   0  0  0  0  0  0  0  0  0  0  0  0
   -8.6565    5.1881  -13.9096 C   0  0  0  0  0  0  0  0  0  0  0  0
   -9.3561    6.1119  -13.7793 O   0  0  0  0  0  0  0  0  0  0  0  0
   -8.0345    4.2510  -12.8586 N   0  0  0  0  0  0  0  0  0  0  0  0
   -7.4102    3.5818  -13.2213 H   0  0  0  0  0  0  0  0  0  0  0  0
   -8.2109    4.1956  -11.4792 C   0  0  0  0  0  0  0  0  0  0  0  0
   -8.0334    5.3408  -10.6815 C   0  0  0  0  0  0  0  0  0  0  0  0
   -8.2013    5.2856   -9.2953 C   0  0  0  0  0  0  0  0  0  0  0  0
   -8.5926    4.0846   -8.7392 C   0  0  0  0  0  0  0  0  0  0  0  0
   -8.7831    2.9538   -9.5295 C   0  0  0  0  0  0  0  0  0  0  0  0
   -8.5716    2.9811  -10.8968 C   0  0  0  0  0  0  0  0  0  0  0  0
   -9.2121    1.8227   -8.6555 C   0  0  0  0  0  0  0  0  0  0  0  0
   -9.6441    2.4661   -7.3848 N   0  0  0  0  0  0  0  0  0  0  0  0
   -8.8841    3.7345   -7.3186 C   0  0  0  0  0  0  0  0  0  0  0  0
   -9.4188    1.8714   -6.5873 H   0  0  0  0  0  0  0  0  0  0  0  0
   -5.6198    4.7042  -14.0528 O   0  0  0  0  0  0  0  0  0  0  0  0
   -4.2901    4.3205  -13.7295 C   0  0  0  0  0  0  0  0  0  0  0  0
   -4.3823    3.0443  -12.8883 C   0  0  0  0  0  0  0  0  0  0  0  0
   -4.6061    3.3158  -11.4017 C   0  0  0  0  0  0  0  0  0  0  0  0
   -4.6623    4.6993  -11.1044 O   0  0  0  0  0  0  0  0  0  0  0  0
   -3.8182    5.1152  -11.3398 H   0  0  0  0  0  0  0  0  0  0  0  0
  2  1  1  0  0  0
  2 32  1  0  0  0
 32 33  1  0  0  0
 33 34  1  0  0  0
 34 35  1  0  0  0
 35 36  1  0  0  0
  2  3  1  0  0  0
  3  4  2  0  0  0
  3  5  1  0  0  0
  5  6  1  0  0  0
  6  7  1  0  0  0
  7  8  1  0  0  0
  8  9  1  0  0  0
  5 10  1  0  0  0
 10 11  2  0  0  0
 11 12  1  0  0  0
 12 13  1  0  0  0
 12 14  2  0  0  0
 14 15  1  0  0  0
 15 18  1  0  0  0
 18 19  2  0  0  0
 18 20  1  0  0  0
 20 22  1  0  0  0
 22 23  2  0  0  0
 23 24  1  0  0  0
 24 25  2  0  0  0
 25 26  1  0  0  0
 26 27  2  0  0  0
 26 28  1  0  0  0
 28 29  1  0  0  0
 29 30  1  0  0  0
 15 16  2  0  0  0
 16  2  1  0  0  0
  9  5  1  0  0  0
 16 10  1  0  0  0
 27 22  1  0  0  0
 30 25  1  0  0  0
 36 37  1  0  0  0
  8 17  1  0  0  0
 20 21  1  0  0  0
 29 31  1  0  0  0
M  END
> <minimizedAffinity>
-9.16274

> <minimizedRMSD>
0.70756

$$$$
P22214


 36 40  0  0  0  0  0  0  0  0999 V2000
   -4.8983    4.9432  -14.8680 N   0  0  0  0  0  0  0  0  0  0  0  0
   -3.5364    4.8940  -15.4181 C   0  0  0  0  0  0  0  0  0  0  0  0
   -3.6696    5.1994  -16.8884 C   0  0  0  0  0  0  0  0  0  0  0  0
   -2.7617    5.0562  -17.7084 O   0  0  0  0  0  0  0  0  0  0  0  0
   -5.0115    5.8279  -17.1950 C   0  0  0  0  0  0  0  0  0  0  0  0
   -4.8203    7.0662  -17.8506 O   0  0  0  0  0  0  0  0  0  0  0  0
   -5.7995    4.9941  -18.0822 N   0  0  0  0  0  0  0  0  0  0  0  0
   -7.0373    4.8766  -17.4113 C   0  0  0  0  0  0  0  0  0  0  0  0
   -8.1449    4.2781  -17.9919 C   0  0  0  0  0  0  0  0  0  0  0  0
   -9.2626    4.0704  -17.2062 C   0  0  0  0  0  0  0  0  0  0  0  0
  -10.3456    3.4945  -17.7387 F   0  0  0  0  0  0  0  0  0  0  0  0
   -9.2762    4.4404  -15.8660 C   0  0  0  0  0  0  0  0  0  0  0  0
   -8.1632    5.0718  -15.2947 C   0  0  0  0  0  0  0  0  0  0  0  0
   -7.0272    5.3023  -16.0720 C   0  0  0  0  0  0  0  0  0  0  0  0
   -5.6665    5.8864  -15.7373 C   0  0  0  0  0  0  0  0  0  0  0  0
   -5.6354    7.3441  -15.2492 C   0  0  0  0  0  0  0  0  0  0  0  0
   -4.4196    6.9129  -18.7206 H   0  0  0  0  0  0  0  0  0  0  0  0
   -5.5350    4.6031  -18.9462 H   0  0  0  0  0  0  0  0  0  0  0  0
   -8.3012    5.5183  -13.8915 C   0  0  0  0  0  0  0  0  0  0  0  0
   -8.4547    6.6561  -13.6810 O   0  0  0  0  0  0  0  0  0  0  0  0
   -8.1799    4.3252  -12.9142 N   0  0  0  0  0  0  0  0  0  0  0  0
   -7.9760    3.4618  -13.3411 H   0  0  0  0  0  0  0  0  0  0  0  0
   -8.3124    4.2739  -11.5267 C   0  0  0  0  0  0  0  0  0  0  0  0
   -8.0766    5.4067  -10.7306 C   0  0  0  0  0  0  0  0  0  0  0  0
   -8.1499    5.3310   -9.3348 C   0  0  0  0  0  0  0  0  0  0  0  0
   -8.4953    4.1212   -8.7602 C   0  0  0  0  0  0  0  0  0  0  0  0
   -8.7673    3.0088   -9.5451 C   0  0  0  0  0  0  0  0  0  0  0  0
   -8.6625    3.0596  -10.9278 C   0  0  0  0  0  0  0  0  0  0  0  0
   -9.1458    1.8619   -8.6695 C   0  0  0  0  0  0  0  0  0  0  0  0
   -9.1925    2.3951   -7.2812 N   0  0  0  0  0  0  0  0  0  0  0  0
   -8.6375    3.7632   -7.3210 C   0  0  0  0  0  0  0  0  0  0  0  0
   -8.6327    1.8086   -6.6624 H   0  0  0  0  0  0  0  0  0  0  0  0
   -4.8767    5.2743  -13.4357 C   0  0  0  0  0  0  0  0  0  0  0  0
   -4.5604    4.1066  -12.4885 C   0  0  0  0  0  0  0  0  0  0  0  0
   -4.9170    3.3915  -10.2385 C   0  0  0  0  0  0  0  0  0  0  0  0
   -4.7560    4.4955  -11.1219 O   0  0  0  0  0  0  0  0  0  0  0  0
 35 36  1  0  0  0
 36 34  1  0  0  0
 34 33  1  0  0  0
 33  1  1  0  0  0
  1  2  1  0  0  0
  2  3  1  0  0  0
  3  4  2  0  0  0
  3  5  1  0  0  0
  5  6  1  0  0  0
  5  7  1  0  0  0
  7  8  1  0  0  0
  8  9  2  0  0  0
  9 10  1  0  0  0
 10 11  1  0  0  0
 10 12  2  0  0  0
 12 13  1  0  0  0
 13 19  1  0  0  0
 19 20  2  0  0  0
 19 21  1  0  0  0
 21 23  1  0  0  0
 23 24  2  0  0  0
 24 25  1  0  0  0
 25 26  2  0  0  0
 26 27  1  0  0  0
 27 28  2  0  0  0
 27 29  1  0  0  0
 29 30  1  0  0  0
 30 31  1  0  0  0
 13 14  2  0  0  0
 14 15  1  0  0  0
 15 16  1  0  0  0
 15  1  1  0  0  0
 15  5  1  0  0  0
 14  8  1  0  0  0
 28 23  1  0  0  0
 31 26  1  0  0  0
  6 17  1  0  0  0
  7 18  1  0  0  0
 21 22  1  0  0  0
 30 32  1  0  0  0
M  END
> <minimizedAffinity>
-8.50595

> <minimizedRMSD>
0.53610

$$$$
P22215


 36 40  0  0  0  0  0  0  0  0999 V2000
   -4.6231    5.5353  -14.3492 N   0  0  0  0  0  0  0  0  0  0  0  0
   -3.2671    6.1450  -14.6624 C   0  0  0  0  0  0  0  0  0  0  0  0
   -3.3559    6.4841  -16.1743 C   0  0  0  0  0  0  0  0  0  0  0  0
   -2.5712    7.1728  -16.8101 O   0  0  0  0  0  0  0  0  0  0  0  0
   -4.5762    5.8028  -16.6528 C   0  0  0  0  0  0  0  0  0  0  0  0
   -4.0142    4.4993  -16.7882 O   0  0  0  0  0  0  0  0  0  0  0  0
   -5.3122    5.9605  -17.8799 N   0  0  0  0  0  0  0  0  0  0  0  0
   -6.5402    5.3265  -17.3939 C   0  0  0  0  0  0  0  0  0  0  0  0
   -7.5004    4.7779  -18.2247 C   0  0  0  0  0  0  0  0  0  0  0  0
   -8.6411    4.2553  -17.6279 C   0  0  0  0  0  0  0  0  0  0  0  0
   -9.5863    3.6852  -18.3868 F   0  0  0  0  0  0  0  0  0  0  0  0
   -8.8617    4.3646  -16.2519 C   0  0  0  0  0  0  0  0  0  0  0  0
   -7.9078    4.9643  -15.4208 C   0  0  0  0  0  0  0  0  0  0  0  0
   -6.7035    5.3897  -15.9799 C   0  0  0  0  0  0  0  0  0  0  0  0
   -5.4943    6.0901  -15.4119 C   0  0  0  0  0  0  0  0  0  0  0  0
   -5.7912    7.6063  -15.2421 C   0  0  0  0  0  0  0  0  0  0  0  0
   -3.4733    4.4623  -17.5926 H   0  0  0  0  0  0  0  0  0  0  0  0
   -5.0726    6.3581  -18.7481 H   0  0  0  0  0  0  0  0  0  0  0  0
   -8.3436    5.3783  -14.0644 C   0  0  0  0  0  0  0  0  0  0  0  0
   -8.8088    6.4446  -13.9641 O   0  0  0  0  0  0  0  0  0  0  0  0
   -8.0862    4.2936  -12.9952 N   0  0  0  0  0  0  0  0  0  0  0  0
   -7.7487    3.4388  -13.3483 H   0  0  0  0  0  0  0  0  0  0  0  0
   -8.2545    4.3282  -11.6080 C   0  0  0  0  0  0  0  0  0  0  0  0
   -8.0805    5.5259  -10.8932 C   0  0  0  0  0  0  0  0  0  0  0  0
   -8.1776    5.5555   -9.4968 C   0  0  0  0  0  0  0  0  0  0  0  0
   -8.4759    4.3794   -8.8353 C   0  0  0  0  0  0  0  0  0  0  0  0
   -8.6855    3.1999   -9.5378 C   0  0  0  0  0  0  0  0  0  0  0  0
   -8.5699    3.1539  -10.9220 C   0  0  0  0  0  0  0  0  0  0  0  0
   -8.9965    2.1027   -8.5728 C   0  0  0  0  0  0  0  0  0  0  0  0
   -9.1514    2.7545   -7.2462 N   0  0  0  0  0  0  0  0  0  0  0  0
   -8.6137    4.1204   -7.3734 C   0  0  0  0  0  0  0  0  0  0  0  0
   -8.6301    2.2371   -6.5385 H   0  0  0  0  0  0  0  0  0  0  0  0
   -5.0324    5.7939  -12.9753 C   0  0  0  0  0  0  0  0  0  0  0  0
   -4.5796    4.7040  -11.9934 C   0  0  0  0  0  0  0  0  0  0  0  0
   -4.4128    6.0778  -10.0531 C   0  0  0  0  0  0  0  0  0  0  0  0
   -3.7276    5.2387  -10.9741 O   0  0  0  0  0  0  0  0  0  0  0  0
 35 36  1  0  0  0
 36 34  1  0  0  0
 34 33  1  0  0  0
 33  1  1  0  0  0
  1  2  1  0  0  0
  2  3  1  0  0  0
  3  4  2  0  0  0
  3  5  1  0  0  0
  5  6  1  0  0  0
  5  7  1  0  0  0
  7  8  1  0  0  0
  8  9  2  0  0  0
  9 10  1  0  0  0
 10 11  1  0  0  0
 10 12  2  0  0  0
 12 13  1  0  0  0
 13 19  1  0  0  0
 19 20  2  0  0  0
 19 21  1  0  0  0
 21 23  1  0  0  0
 23 24  2  0  0  0
 24 25  1  0  0  0
 25 26  2  0  0  0
 26 27  1  0  0  0
 27 28  2  0  0  0
 27 29  1  0  0  0
 29 30  1  0  0  0
 30 31  1  0  0  0
 13 14  2  0  0  0
 14 15  1  0  0  0
 15 16  1  0  0  0
 15  1  1  0  0  0
 15  5  1  0  0  0
 14  8  1  0  0  0
 28 23  1  0  0  0
 31 26  1  0  0  0
  6 17  1  0  0  0
  7 18  1  0  0  0
 21 22  1  0  0  0
 30 32  1  0  0  0
M  END
> <minimizedAffinity>
-7.45386

> <minimizedRMSD>
0.56856

$$$$
P22216


 35 38  0  0  0  0  0  0  0  0999 V2000
   -5.7558    5.5799  -15.1120 C   0  0  0  0  0  0  0  0  0  0  0  0
   -5.7601    7.0536  -14.6675 C   0  0  0  0  0  0  0  0  0  0  0  0
   -4.6955    5.5604  -16.2748 C   0  0  0  0  0  0  0  0  0  0  0  0
   -3.5262    5.9185  -16.1725 O   0  0  0  0  0  0  0  0  0  0  0  0
   -5.3436    5.1575  -17.4484 N   0  0  0  0  0  0  0  0  0  0  0  0
   -6.7023    4.9046  -17.1912 C   0  0  0  0  0  0  0  0  0  0  0  0
   -7.6636    4.4719  -18.0904 C   0  0  0  0  0  0  0  0  0  0  0  0
   -8.9381    4.2162  -17.6072 C   0  0  0  0  0  0  0  0  0  0  0  0
   -9.8792    3.7749  -18.4491 F   0  0  0  0  0  0  0  0  0  0  0  0
   -9.2614    4.4146  -16.2675 C   0  0  0  0  0  0  0  0  0  0  0  0
   -8.2947    4.8951  -15.3792 C   0  0  0  0  0  0  0  0  0  0  0  0
   -7.0032    5.1362  -15.8437 C   0  0  0  0  0  0  0  0  0  0  0  0
   -4.8579    5.3531  -18.7961 C   0  0  0  0  0  0  0  0  0  0  0  0
   -3.5116    4.8336  -18.9589 N   0  0  0  0  0  0  0  0  0  0  0  0
   -2.8787    5.3257  -18.3283 H   0  0  0  0  0  0  0  0  0  0  0  0
   -3.2077    4.9729  -19.9226 H   0  0  0  0  0  0  0  0  0  0  0  0
   -8.7301    5.2473  -14.0105 C   0  0  0  0  0  0  0  0  0  0  0  0
   -9.5133    6.1034  -13.8911 O   0  0  0  0  0  0  0  0  0  0  0  0
   -8.0393    4.3681  -12.9472 N   0  0  0  0  0  0  0  0  0  0  0  0
   -7.3510    3.7590  -13.3000 H   0  0  0  0  0  0  0  0  0  0  0  0
   -8.2311    4.2958  -11.5683 C   0  0  0  0  0  0  0  0  0  0  0  0
   -8.0421    5.4212  -10.7481 C   0  0  0  0  0  0  0  0  0  0  0  0
   -8.1789    5.3284   -9.3584 C   0  0  0  0  0  0  0  0  0  0  0  0
   -8.5363    4.1079   -8.8160 C   0  0  0  0  0  0  0  0  0  0  0  0
   -8.7620    3.0039   -9.6275 C   0  0  0  0  0  0  0  0  0  0  0  0
   -8.5994    3.0731  -11.0031 C   0  0  0  0  0  0  0  0  0  0  0  0
   -9.1506    1.8373   -8.7836 C   0  0  0  0  0  0  0  0  0  0  0  0
   -9.2957    2.3594   -7.3981 N   0  0  0  0  0  0  0  0  0  0  0  0
   -8.7291    3.7235   -7.3893 C   0  0  0  0  0  0  0  0  0  0  0  0
   -8.7866    1.7644   -6.7444 H   0  0  0  0  0  0  0  0  0  0  0  0
   -5.4634    4.5829  -14.1331 O   0  0  0  0  0  0  0  0  0  0  0  0
   -4.6605    4.9916  -13.0324 C   0  0  0  0  0  0  0  0  0  0  0  0
   -4.3533    3.8150  -12.1086 C   0  0  0  0  0  0  0  0  0  0  0  0
   -4.9916    2.9150  -10.0004 C   0  0  0  0  0  0  0  0  0  0  0  0
   -4.7868    4.0917  -10.7739 O   0  0  0  0  0  0  0  0  0  0  0  0
 34 35  1  0  0  0
 35 33  1  0  0  0
 33 32  1  0  0  0
 32 31  1  0  0  0
 31  1  1  0  0  0
  1  2  1  0  0  0
  1  3  1  0  0  0
  3  4  2  0  0  0
  3  5  1  0  0  0
  5 13  1  0  0  0
 13 14  1  0  0  0
  5  6  1  0  0  0
  6  7  2  0  0  0
  7  8  1  0  0  0
  8  9  1  0  0  0
  8 10  2  0  0  0
 10 11  1  0  0  0
 11 17  1  0  0  0
 17 18  2  0  0  0
 17 19  1  0  0  0
 19 21  1  0  0  0
 21 22  2  0  0  0
 22 23  1  0  0  0
 23 24  2  0  0  0
 24 25  1  0  0  0
 25 26  2  0  0  0
 25 27  1  0  0  0
 27 28  1  0  0  0
 28 29  1  0  0  0
 11 12  2  0  0  0
 12  1  1  0  0  0
 12  6  1  0  0  0
 26 21  1  0  0  0
 29 24  1  0  0  0
 14 15  1  0  0  0
 14 16  1  0  0  0
 19 20  1  0  0  0
 28 30  1  0  0  0
M  END
> <minimizedAffinity>
-8.20513

> <minimizedRMSD>
0.91356

$$$$
P22219


 37 39  0  0  0  0  0  0  0  0999 V2000
   -8.0503    4.3674  -15.4741 C   0  0  0  0  0  0  0  0  0  0  0  0
   -5.6031    5.3650  -15.1555 C   0  0  0  0  0  0  0  0  0  0  0  0
   -5.4687    6.6748  -14.3564 C   0  0  0  0  0  0  0  0  0  0  0  0
   -4.5089    5.4124  -16.2573 C   0  0  0  0  0  0  0  0  0  0  0  0
   -3.3009    5.4608  -16.0707 O   0  0  0  0  0  0  0  0  0  0  0  0
   -5.1257    5.4311  -17.4853 N   0  0  0  0  0  0  0  0  0  0  0  0
   -6.4970    5.0882  -17.3886 C   0  0  0  0  0  0  0  0  0  0  0  0
   -6.9529    5.3637  -15.9713 C   0  0  0  0  0  0  0  0  0  0  0  0
   -5.5675    4.1840  -14.3582 O   0  0  0  0  0  0  0  0  0  0  0  0
   -4.6937    4.1925  -13.2267 C   0  0  0  0  0  0  0  0  0  0  0  0
   -4.6596    2.7945  -12.6081 C   0  0  0  0  0  0  0  0  0  0  0  0
   -2.8316    1.7048  -11.6235 C   0  0  0  0  0  0  0  0  0  0  0  0
   -3.3824    2.1920  -12.8428 O   0  0  0  0  0  0  0  0  0  0  0  0
   -4.4772    5.3860  -18.7749 C   0  0  0  0  0  0  0  0  0  0  0  0
   -3.6108    6.5627  -18.8859 N   0  0  0  0  0  0  0  0  0  0  0  0
   -2.2119    6.1467  -18.9237 N   0  0  0  0  0  0  0  0  0  0  0  0
   -3.7613    7.1709  -18.0810 H   0  0  0  0  0  0  0  0  0  0  0  0
   -2.0597    5.5383  -19.7282 H   0  0  0  0  0  0  0  0  0  0  0  0
   -1.9842    5.6414  -18.0675 H   0  0  0  0  0  0  0  0  0  0  0  0
   -8.6307    4.9118  -14.1356 C   0  0  0  0  0  0  0  0  0  0  0  0
   -9.3584    5.8303  -14.1146 O   0  0  0  0  0  0  0  0  0  0  0  0
   -8.0814    4.0293  -12.9697 N   0  0  0  0  0  0  0  0  0  0  0  0
   -7.5379    3.2598  -13.2557 H   0  0  0  0  0  0  0  0  0  0  0  0
   -8.2365    4.1550  -11.5850 C   0  0  0  0  0  0  0  0  0  0  0  0
   -7.9796    5.3732  -10.9348 C   0  0  0  0  0  0  0  0  0  0  0  0
   -8.0852    5.4853   -9.5420 C   0  0  0  0  0  0  0  0  0  0  0  0
   -8.4613    4.3696   -8.8163 C   0  0  0  0  0  0  0  0  0  0  0  0
   -8.7377    3.1680   -9.4526 C   0  0  0  0  0  0  0  0  0  0  0  0
   -8.6222    3.0398  -10.8325 C   0  0  0  0  0  0  0  0  0  0  0  0
   -9.1234    2.1466   -8.4332 C   0  0  0  0  0  0  0  0  0  0  0  0
   -9.1840    2.8596   -7.1289 N   0  0  0  0  0  0  0  0  0  0  0  0
   -8.6250    4.2067   -7.3439 C   0  0  0  0  0  0  0  0  0  0  0  0
   -8.6331    2.3596   -6.4311 H   0  0  0  0  0  0  0  0  0  0  0  0
   -9.2721    4.1049  -16.3908 C   0  0  0  0  0  0  0  0  0  0  0  0
   -9.4499    4.7576  -17.7551 C   0  0  0  0  0  0  0  0  0  0  0  0
   -8.8752    4.1450  -18.9782 C   0  0  0  0  0  0  0  0  0  0  0  0
  -10.7905    4.7906  -18.0030 F   0  0  0  0  0  0  0  0  0  0  0  0
 12 13  1  0  0  0
 13 11  1  0  0  0
 11 10  1  0  0  0
 10  9  1  0  0  0
  9  2  1  0  0  0
  2  3  1  0  0  0
  2  4  1  0  0  0
  4  5  2  0  0  0
  4  6  1  0  0  0
  6 14  1  0  0  0
 14 15  1  0  0  0
 15 16  1  0  0  0
  6  7  1  0  0  0
  8  7  1  0  0  0
  8  1  1  0  0  0
  1 34  1  0  0  0
 34 35  1  0  0  0
 35 36  1  0  0  0
 35 37  1  0  0  0
  1 20  1  0  0  0
 20 21  2  0  0  0
 20 22  1  0  0  0
 22 24  1  0  0  0
 24 25  2  0  0  0
 25 26  1  0  0  0
 26 27  2  0  0  0
 27 28  1  0  0  0
 28 29  2  0  0  0
 28 30  1  0  0  0
 30 31  1  0  0  0
 31 32  1  0  0  0
  8  2  1  0  0  0
 29 24  1  0  0  0
 32 27  1  0  0  0
 15 17  1  0  0  0
 16 18  1  0  0  0
 16 19  1  0  0  0
 22 23  1  0  0  0
 31 33  1  0  0  0
M  END
> <minimizedAffinity>
-6.65081

> <minimizedRMSD>
0.87638

$$$$
P22223


 33 37  0  0  0  0  0  0  0  0999 V2000
   -5.5322    5.5169  -15.3568 C   0  0  0  0  0  0  0  0  0  0  0  0
   -5.4561    7.0012  -14.9697 C   0  0  0  0  0  0  0  0  0  0  0  0
   -4.6955    5.3365  -16.6776 C   0  0  0  0  0  0  0  0  0  0  0  0
   -3.4769    5.4026  -16.7826 O   0  0  0  0  0  0  0  0  0  0  0  0
   -5.6248    5.1390  -17.6722 N   0  0  0  0  0  0  0  0  0  0  0  0
   -6.8816    4.9495  -17.2170 C   0  0  0  0  0  0  0  0  0  0  0  0
   -6.9197    5.1455  -15.8946 C   0  0  0  0  0  0  0  0  0  0  0  0
   -8.1547    5.0302  -15.1353 C   0  0  0  0  0  0  0  0  0  0  0  0
   -9.4208    4.7486  -15.8979 C   0  0  0  0  0  0  0  0  0  0  0  0
   -9.2731    4.1976  -17.3133 C   0  0  0  0  0  0  0  0  0  0  0  0
   -9.2716    2.8375  -17.2259 F   0  0  0  0  0  0  0  0  0  0  0  0
   -8.0341    4.6144  -18.0943 C   0  0  0  0  0  0  0  0  0  0  0  0
   -8.2832    6.1377  -14.0160 N   0  0  0  0  0  0  0  0  0  0  0  0
   -8.1860    4.9303  -13.7233 C   0  0  0  0  0  0  0  0  0  0  0  0
   -5.3323    4.7784  -18.9846 O   0  0  0  0  0  0  0  0  0  0  0  0
   -4.9578    5.9461  -19.6854 C   0  0  0  0  0  0  0  0  0  0  0  0
   -8.1808    3.8853  -12.9041 N   0  0  0  0  0  0  0  0  0  0  0  0
   -8.0571    2.9939  -13.3033 H   0  0  0  0  0  0  0  0  0  0  0  0
   -8.3386    3.9573  -11.5104 C   0  0  0  0  0  0  0  0  0  0  0  0
   -8.0878    5.1355  -10.7752 C   0  0  0  0  0  0  0  0  0  0  0  0
   -8.1617    5.1555   -9.3764 C   0  0  0  0  0  0  0  0  0  0  0  0
   -8.5366    3.9960   -8.7254 C   0  0  0  0  0  0  0  0  0  0  0  0
   -8.8412    2.8481   -9.4400 C   0  0  0  0  0  0  0  0  0  0  0  0
   -8.7237    2.8032  -10.8183 C   0  0  0  0  0  0  0  0  0  0  0  0
   -9.2421    1.7624   -8.5032 C   0  0  0  0  0  0  0  0  0  0  0  0
   -9.3071    2.3870   -7.1550 N   0  0  0  0  0  0  0  0  0  0  0  0
   -8.6665    3.7151   -7.2678 C   0  0  0  0  0  0  0  0  0  0  0  0
   -8.8064    1.8121   -6.4773 H   0  0  0  0  0  0  0  0  0  0  0  0
   -5.2710    4.6655  -14.2594 O   0  0  0  0  0  0  0  0  0  0  0  0
   -4.5727    5.2417  -13.1605 C   0  0  0  0  0  0  0  0  0  0  0  0
   -3.9136    4.1190  -12.3493 C   0  0  0  0  0  0  0  0  0  0  0  0
   -4.9949    2.0250  -12.0306 C   0  0  0  0  0  0  0  0  0  0  0  0
   -4.8846    3.3736  -11.6014 O   0  0  0  0  0  0  0  0  0  0  0  0
 32 33  1  0  0  0
 33 31  1  0  0  0
 31 30  1  0  0  0
 30 29  1  0  0  0
 29  1  1  0  0  0
  1  2  1  0  0  0
  1  3  1  0  0  0
  3  4  2  0  0  0
  3  5  1  0  0  0
  5 15  1  0  0  0
 15 16  1  0  0  0
  5  6  1  0  0  0
  6  7  2  0  0  0
  7  8  1  0  0  0
  8  9  1  0  0  0
  9 10  1  0  0  0
 10 11  1  0  0  0
 10 12  1  0  0  0
  8 13  1  0  0  0
 13 14  2  0  0  0
 14 17  1  0  0  0
 17 19  1  0  0  0
 19 20  2  0  0  0
 20 21  1  0  0  0
 21 22  2  0  0  0
 22 23  1  0  0  0
 23 24  2  0  0  0
 23 25  1  0  0  0
 25 26  1  0  0  0
 26 27  1  0  0  0
  7  1  1  0  0  0
 14  8  1  0  0  0
 24 19  1  0  0  0
 12  6  1  0  0  0
 27 22  1  0  0  0
 17 18  1  0  0  0
 26 28  1  0  0  0
M  END
> <minimizedAffinity>
-7.72799

> <minimizedRMSD>
0.83847

$$$$
P22225


 35 38  0  0  0  0  0  0  0  0999 V2000
   -5.7397    5.7272  -15.0673 C   0  0  0  0  0  0  0  0  0  0  0  0
   -5.9408    7.0382  -14.3010 C   0  0  0  0  0  0  0  0  0  0  0  0
   -6.9545    5.2578  -15.8363 C   0  0  0  0  0  0  0  0  0  0  0  0
   -6.5995    5.0005  -17.1642 C   0  0  0  0  0  0  0  0  0  0  0  0
   -7.5065    4.4709  -18.0695 C   0  0  0  0  0  0  0  0  0  0  0  0
   -8.7765    4.1491  -17.6146 C   0  0  0  0  0  0  0  0  0  0  0  0
   -9.6658    3.6041  -18.4533 F   0  0  0  0  0  0  0  0  0  0  0  0
   -9.1444    4.3650  -16.2902 C   0  0  0  0  0  0  0  0  0  0  0  0
   -8.2379    4.9426  -15.3981 C   0  0  0  0  0  0  0  0  0  0  0  0
   -5.2342    5.2030  -17.4548 N   0  0  0  0  0  0  0  0  0  0  0  0
   -4.7155    5.9323  -16.3150 C   0  0  0  0  0  0  0  0  0  0  0  0
   -4.6644    7.2924  -16.7315 O   0  0  0  0  0  0  0  0  0  0  0  0
   -4.7416    4.9126  -18.2562 H   0  0  0  0  0  0  0  0  0  0  0  0
   -4.0468    7.3801  -17.4744 H   0  0  0  0  0  0  0  0  0  0  0  0
   -8.7149    5.2572  -14.0361 C   0  0  0  0  0  0  0  0  0  0  0  0
   -9.5140    6.0999  -13.9139 O   0  0  0  0  0  0  0  0  0  0  0  0
   -8.0928    4.3073  -12.9883 N   0  0  0  0  0  0  0  0  0  0  0  0
   -7.4886    3.6240  -13.3588 H   0  0  0  0  0  0  0  0  0  0  0  0
   -8.2478    4.2603  -11.6034 C   0  0  0  0  0  0  0  0  0  0  0  0
   -8.0240    5.3965  -10.8075 C   0  0  0  0  0  0  0  0  0  0  0  0
   -8.1314    5.3301   -9.4143 C   0  0  0  0  0  0  0  0  0  0  0  0
   -8.5031    4.1270   -8.8432 C   0  0  0  0  0  0  0  0  0  0  0  0
   -8.7585    3.0110   -9.6288 C   0  0  0  0  0  0  0  0  0  0  0  0
   -8.6156    3.0512  -11.0078 C   0  0  0  0  0  0  0  0  0  0  0  0
   -9.1640    1.8712   -8.7573 C   0  0  0  0  0  0  0  0  0  0  0  0
   -9.2766    2.4219   -7.3792 N   0  0  0  0  0  0  0  0  0  0  0  0
   -8.6937    3.7793   -7.4074 C   0  0  0  0  0  0  0  0  0  0  0  0
   -8.7623    1.8334   -6.7238 H   0  0  0  0  0  0  0  0  0  0  0  0
   -3.3874    5.5448  -15.9938 O   0  0  0  0  0  0  0  0  0  0  0  0
   -2.4834    6.6284  -15.8134 C   0  0  0  0  0  0  0  0  0  0  0  0
   -5.5332    4.6307  -14.1595 O   0  0  0  0  0  0  0  0  0  0  0  0
   -4.7229    4.8573  -13.0128 C   0  0  0  0  0  0  0  0  0  0  0  0
   -4.5895    3.5457  -12.2213 C   0  0  0  0  0  0  0  0  0  0  0  0
   -5.0304    2.5291  -10.1188 C   0  0  0  0  0  0  0  0  0  0  0  0
   -4.8559    3.7476  -10.8254 O   0  0  0  0  0  0  0  0  0  0  0  0
 34 35  1  0  0  0
 35 33  1  0  0  0
 33 32  1  0  0  0
 32 31  1  0  0  0
 31  1  1  0  0  0
  1  2  1  0  0  0
  1  3  1  0  0  0
  3  4  2  0  0  0
  4  5  1  0  0  0
  5  6  2  0  0  0
  6  7  1  0  0  0
  6  8  1  0  0  0
  8  9  2  0  0  0
  9 15  1  0  0  0
 15 16  2  0  0  0
 15 17  1  0  0  0
 17 19  1  0  0  0
 19 20  2  0  0  0
 20 21  1  0  0  0
 21 22  2  0  0  0
 22 23  1  0  0  0
 23 24  2  0  0  0
 23 25  1  0  0  0
 25 26  1  0  0  0
 26 27  1  0  0  0
  4 10  1  0  0  0
 10 11  1  0  0  0
 11 12  1  0  0  0
 11 29  1  0  0  0
 29 30  1  0  0  0
 11  1  1  0  0  0
  9  3  1  0  0  0
 24 19  1  0  0  0
 27 22  1  0  0  0
 17 18  1  0  0  0
 26 28  1  0  0  0
 10 13  1  0  0  0
 12 14  1  0  0  0
M  END
> <minimizedAffinity>
-8.05983

> <minimizedRMSD>
1.05711

$$$$
P22226


 35 38  0  0  0  0  0  0  0  0999 V2000
   -5.7454    5.7860  -14.8683 C   0  0  0  0  0  0  0  0  0  0  0  0
   -5.9958    7.2051  -14.3488 C   0  0  0  0  0  0  0  0  0  0  0  0
   -6.8966    5.2644  -15.6946 C   0  0  0  0  0  0  0  0  0  0  0  0
   -8.1323    4.7771  -15.2773 C   0  0  0  0  0  0  0  0  0  0  0  0
   -8.9745    4.1692  -16.2023 C   0  0  0  0  0  0  0  0  0  0  0  0
   -8.5876    4.1138  -17.5384 C   0  0  0  0  0  0  0  0  0  0  0  0
   -9.4136    3.5328  -18.4186 F   0  0  0  0  0  0  0  0  0  0  0  0
   -7.3920    4.6866  -17.9808 C   0  0  0  0  0  0  0  0  0  0  0  0
   -6.5391    5.2653  -17.0510 C   0  0  0  0  0  0  0  0  0  0  0  0
   -5.3120    5.9308  -17.2724 N   0  0  0  0  0  0  0  0  0  0  0  0
   -4.5954    5.6744  -18.4975 C   0  0  0  0  0  0  0  0  0  0  0  0
   -4.6366    5.7702  -15.9874 C   0  0  0  0  0  0  0  0  0  0  0  0
   -3.6419    6.7441  -15.7905 O   0  0  0  0  0  0  0  0  0  0  0  0
   -3.9505    4.6024  -16.0126 F   0  0  0  0  0  0  0  0  0  0  0  0
   -2.9890    6.6886  -16.5057 H   0  0  0  0  0  0  0  0  0  0  0  0
   -8.6477    5.0878  -13.9320 C   0  0  0  0  0  0  0  0  0  0  0  0
   -9.3968    5.9769  -13.8367 O   0  0  0  0  0  0  0  0  0  0  0  0
   -8.0976    4.1272  -12.8627 N   0  0  0  0  0  0  0  0  0  0  0  0
   -7.5298    3.4029  -13.2125 H   0  0  0  0  0  0  0  0  0  0  0  0
   -8.2720    4.1155  -11.4819 C   0  0  0  0  0  0  0  0  0  0  0  0
   -8.0911    5.2895  -10.7270 C   0  0  0  0  0  0  0  0  0  0  0  0
   -8.2124    5.2911   -9.3273 C   0  0  0  0  0  0  0  0  0  0  0  0
   -7.9491    6.5480   -8.5592 C   0  0  0  0  0  0  0  0  0  0  0  0
   -8.6003    4.1035   -8.7265 C   0  0  0  0  0  0  0  0  0  0  0  0
   -8.8019    2.9451   -9.4798 C   0  0  0  0  0  0  0  0  0  0  0  0
   -8.6096    2.9218  -10.8505 C   0  0  0  0  0  0  0  0  0  0  0  0
   -9.2188    1.8368   -8.5699 C   0  0  0  0  0  0  0  0  0  0  0  0
   -9.6349    2.5137   -7.3137 N   0  0  0  0  0  0  0  0  0  0  0  0
   -8.8739    3.7821   -7.2919 C   0  0  0  0  0  0  0  0  0  0  0  0
   -9.4002    1.9408   -6.5031 H   0  0  0  0  0  0  0  0  0  0  0  0
   -5.5666    4.8540  -13.7957 O   0  0  0  0  0  0  0  0  0  0  0  0
   -4.6818    5.2573  -12.7550 C   0  0  0  0  0  0  0  0  0  0  0  0
   -4.5411    4.1105  -11.7519 C   0  0  0  0  0  0  0  0  0  0  0  0
   -4.4991    5.9995  -10.3160 C   0  0  0  0  0  0  0  0  0  0  0  0
   -4.6624    4.5916  -10.4087 O   0  0  0  0  0  0  0  0  0  0  0  0
 34 35  1  0  0  0
 35 33  1  0  0  0
 33 32  1  0  0  0
 32 31  1  0  0  0
 31  1  1  0  0  0
  1  2  1  0  0  0
  1  3  1  0  0  0
  3  4  2  0  0  0
  4 16  1  0  0  0
 16 17  2  0  0  0
 16 18  1  0  0  0
 18 20  1  0  0  0
 20 21  2  0  0  0
 21 22  1  0  0  0
 22 23  1  0  0  0
 22 24  2  0  0  0
 24 25  1  0  0  0
 25 26  2  0  0  0
 25 27  1  0  0  0
 27 28  1  0  0  0
 28 29  1  0  0  0
  4  5  1  0  0  0
  5  6  2  0  0  0
  6  7  1  0  0  0
  6  8  1  0  0  0
  8  9  2  0  0  0
  9 10  1  0  0  0
 10 11  1  0  0  0
 10 12  1  0  0  0
 12 13  1  0  0  0
 12 14  1  0  0  0
 12  1  1  0  0  0
  9  3  1  0  0  0
 26 20  1  0  0  0
 29 24  1  0  0  0
 18 19  1  0  0  0
 28 30  1  0  0  0
 13 15  1  0  0  0
M  END
> <minimizedAffinity>
-8.60157

> <minimizedRMSD>
0.62578

$$$$
P22229


 35 39  0  0  0  0  0  0  0  0999 V2000
   -5.5796    5.5646  -14.8288 C   0  0  0  0  0  0  0  0  0  0  0  0
   -5.6728    6.9884  -14.2772 C   0  0  0  0  0  0  0  0  0  0  0  0
   -4.4617    5.5728  -16.0176 C   0  0  0  0  0  0  0  0  0  0  0  0
   -3.2644    5.7774  -15.8869 O   0  0  0  0  0  0  0  0  0  0  0  0
   -5.1824    5.2940  -17.2118 N   0  0  0  0  0  0  0  0  0  0  0  0
   -5.0958    5.1372  -18.6447 C   0  0  0  0  0  0  0  0  0  0  0  0
   -4.1321    5.3379  -19.3583 O   0  0  0  0  0  0  0  0  0  0  0  0
   -6.4052    4.7112  -19.0540 N   0  0  0  0  0  0  0  0  0  0  0  0
   -7.2426    4.6469  -17.9484 C   0  0  0  0  0  0  0  0  0  0  0  0
   -8.5405    4.3171  -17.6881 C   0  0  0  0  0  0  0  0  0  0  0  0
   -9.3711    3.9079  -18.6503 F   0  0  0  0  0  0  0  0  0  0  0  0
   -8.9878    4.4068  -16.3516 C   0  0  0  0  0  0  0  0  0  0  0  0
   -8.1364    4.8653  -15.3064 C   0  0  0  0  0  0  0  0  0  0  0  0
   -6.8230    5.1666  -15.5842 C   0  0  0  0  0  0  0  0  0  0  0  0
   -6.4792    5.0239  -16.8869 C   0  0  0  0  0  0  0  0  0  0  0  0
   -6.6687    4.4972  -19.9781 H   0  0  0  0  0  0  0  0  0  0  0  0
   -8.6801    5.1276  -13.9660 C   0  0  0  0  0  0  0  0  0  0  0  0
   -9.4724    5.9756  -13.8537 O   0  0  0  0  0  0  0  0  0  0  0  0
   -8.0658    4.1899  -12.9118 N   0  0  0  0  0  0  0  0  0  0  0  0
   -7.4663    3.4985  -13.2747 H   0  0  0  0  0  0  0  0  0  0  0  0
   -8.2197    4.1599  -11.5292 C   0  0  0  0  0  0  0  0  0  0  0  0
   -8.0025    5.3097  -10.7493 C   0  0  0  0  0  0  0  0  0  0  0  0
   -8.1519    5.2730   -9.3604 C   0  0  0  0  0  0  0  0  0  0  0  0
   -8.5644    4.0871   -8.7858 C   0  0  0  0  0  0  0  0  0  0  0  0
   -8.7888    2.9505   -9.5585 C   0  0  0  0  0  0  0  0  0  0  0  0
   -8.5974    2.9588  -10.9279 C   0  0  0  0  0  0  0  0  0  0  0  0
   -9.2378    1.8399   -8.6682 C   0  0  0  0  0  0  0  0  0  0  0  0
   -9.6452    2.5112   -7.4042 N   0  0  0  0  0  0  0  0  0  0  0  0
   -8.8592    3.7641   -7.3596 C   0  0  0  0  0  0  0  0  0  0  0  0
   -9.4265    1.9229   -6.6002 H   0  0  0  0  0  0  0  0  0  0  0  0
   -5.5031    4.5895  -13.8115 O   0  0  0  0  0  0  0  0  0  0  0  0
   -4.5503    4.8126  -12.7791 C   0  0  0  0  0  0  0  0  0  0  0  0
   -4.1518    3.4551  -12.1858 C   0  0  0  0  0  0  0  0  0  0  0  0
   -4.9579    2.9549  -10.0004 C   0  0  0  0  0  0  0  0  0  0  0  0
   -3.9205    3.5409  -10.7737 O   0  0  0  0  0  0  0  0  0  0  0  0
 34 35  1  0  0  0
 35 33  1  0  0  0
 33 32  1  0  0  0
 32 31  1  0  0  0
 31  1  1  0  0  0
  1  2  1  0  0  0
  1  3  1  0  0  0
  3  4  2  0  0  0
  3  5  1  0  0  0
  5  6  1  0  0  0
  6  7  2  0  0  0
  6  8  1  0  0  0
  8  9  1  0  0  0
  9 10  2  0  0  0
 10 11  1  0  0  0
 10 12  1  0  0  0
 12 13  2  0  0  0
 13 17  1  0  0  0
 17 18  2  0  0  0
 17 19  1  0  0  0
 19 21  1  0  0  0
 21 22  2  0  0  0
 22 23  1  0  0  0
 23 24  2  0  0  0
 24 25  1  0  0  0
 25 26  2  0  0  0
 25 27  1  0  0  0
 27 28  1  0  0  0
 28 29  1  0  0  0
 13 14  1  0  0  0
 14 15  2  0  0  0
 14  1  1  0  0  0
 15  5  1  0  0  0
 15  9  1  0  0  0
 26 21  1  0  0  0
 29 24  1  0  0  0
  8 16  1  0  0  0
 19 20  1  0  0  0
 28 30  1  0  0  0
M  END
> <minimizedAffinity>
-9.21648

> <minimizedRMSD>
0.94661

$$$$
P22230


 32 35  0  0  0  0  0  0  0  0999 V2000
   -5.7430    5.5301  -15.1361 C   0  0  0  0  0  0  0  0  0  0  0  0
   -5.7931    6.9808  -14.6457 C   0  0  0  0  0  0  0  0  0  0  0  0
   -4.6761    5.4819  -16.3019 C   0  0  0  0  0  0  0  0  0  0  0  0
   -3.4734    5.6833  -16.1902 O   0  0  0  0  0  0  0  0  0  0  0  0
   -5.3639    5.2088  -17.4863 N   0  0  0  0  0  0  0  0  0  0  0  0
   -4.7814    5.2358  -18.8054 C   0  0  0  0  0  0  0  0  0  0  0  0
   -6.7095    4.9288  -17.2378 C   0  0  0  0  0  0  0  0  0  0  0  0
   -7.6603    4.4717  -18.1336 C   0  0  0  0  0  0  0  0  0  0  0  0
   -8.9131    4.1475  -17.6307 C   0  0  0  0  0  0  0  0  0  0  0  0
   -9.8479    3.6567  -18.4526 F   0  0  0  0  0  0  0  0  0  0  0  0
   -9.2265    4.3245  -16.2839 C   0  0  0  0  0  0  0  0  0  0  0  0
   -8.2737    4.8451  -15.4075 C   0  0  0  0  0  0  0  0  0  0  0  0
   -6.9969    5.1203  -15.8830 C   0  0  0  0  0  0  0  0  0  0  0  0
   -8.6929    5.2079  -14.0387 C   0  0  0  0  0  0  0  0  0  0  0  0
   -9.4066    6.1233  -13.9151 O   0  0  0  0  0  0  0  0  0  0  0  0
   -8.1465    4.2166  -12.9899 N   0  0  0  0  0  0  0  0  0  0  0  0
   -7.6156    3.4752  -13.3610 H   0  0  0  0  0  0  0  0  0  0  0  0
   -8.2822    4.1998  -11.6030 C   0  0  0  0  0  0  0  0  0  0  0  0
   -8.0403    5.3508  -10.8337 C   0  0  0  0  0  0  0  0  0  0  0  0
   -8.1318    5.3146   -9.4382 C   0  0  0  0  0  0  0  0  0  0  0  0
   -8.5020    4.1253   -8.8384 C   0  0  0  0  0  0  0  0  0  0  0  0
   -8.7713    2.9944   -9.5981 C   0  0  0  0  0  0  0  0  0  0  0  0
   -8.6494    3.0060  -10.9789 C   0  0  0  0  0  0  0  0  0  0  0  0
   -9.1587    1.8713   -8.6977 C   0  0  0  0  0  0  0  0  0  0  0  0
   -9.2810    2.4584   -7.3364 N   0  0  0  0  0  0  0  0  0  0  0  0
   -8.6757    3.8053   -7.3936 C   0  0  0  0  0  0  0  0  0  0  0  0
   -8.7849    1.8794   -6.6588 H   0  0  0  0  0  0  0  0  0  0  0  0
   -5.6499    4.6115  -14.0624 O   0  0  0  0  0  0  0  0  0  0  0  0
   -4.7068    4.9159  -13.0409 C   0  0  0  0  0  0  0  0  0  0  0  0
   -4.4693    3.6552  -12.1974 C   0  0  0  0  0  0  0  0  0  0  0  0
   -5.0355    2.6294  -10.1274 C   0  0  0  0  0  0  0  0  0  0  0  0
   -4.8519    3.8505  -10.8292 O   0  0  0  0  0  0  0  0  0  0  0  0
 31 32  1  0  0  0
 32 30  1  0  0  0
 30 29  1  0  0  0
 29 28  1  0  0  0
 28  1  1  0  0  0
  1  2  1  0  0  0
  1  3  1  0  0  0
  3  4  2  0  0  0
  3  5  1  0  0  0
  5  6  1  0  0  0
  5  7  1  0  0  0
  7  8  2  0  0  0
  8  9  1  0  0  0
  9 10  1  0  0  0
  9 11  2  0  0  0
 11 12  1  0  0  0
 12 14  1  0  0  0
 14 15  2  0  0  0
 14 16  1  0  0  0
 16 18  1  0  0  0
 18 19  2  0  0  0
 19 20  1  0  0  0
 20 21  2  0  0  0
 21 22  1  0  0  0
 22 23  2  0  0  0
 22 24  1  0  0  0
 24 25  1  0  0  0
 25 26  1  0  0  0
 12 13  2  0  0  0
 13  1  1  0  0  0
 13  7  1  0  0  0
 23 18  1  0  0  0
 26 21  1  0  0  0
 16 17  1  0  0  0
 25 27  1  0  0  0
M  END
> <minimizedAffinity>
-8.51256

> <minimizedRMSD>
0.90616

$$$$
P22231


 33 36  0  0  0  0  0  0  0  0999 V2000
   -5.3508    6.5338  -14.5543 C   0  0  0  0  0  0  0  0  0  0  0  0
   -5.9899    7.8346  -14.0420 C   0  0  0  0  0  0  0  0  0  0  0  0
   -4.4795    6.9120  -15.8182 C   0  0  0  0  0  0  0  0  0  0  0  0
   -3.3789    7.4423  -15.8385 O   0  0  0  0  0  0  0  0  0  0  0  0
   -5.2175    6.5698  -16.9395 N   0  0  0  0  0  0  0  0  0  0  0  0
   -6.3439    5.8400  -16.5936 C   0  0  0  0  0  0  0  0  0  0  0  0
   -7.2081    5.2658  -17.4971 C   0  0  0  0  0  0  0  0  0  0  0  0
   -8.2370    4.5149  -16.9683 C   0  0  0  0  0  0  0  0  0  0  0  0
   -9.1262    3.9389  -17.7875 F   0  0  0  0  0  0  0  0  0  0  0  0
   -8.3501    4.3094  -15.5870 C   0  0  0  0  0  0  0  0  0  0  0  0
   -7.4136    4.8231  -14.6548 C   0  0  0  0  0  0  0  0  0  0  0  0
   -6.4473    5.6845  -15.1932 C   0  0  0  0  0  0  0  0  0  0  0  0
   -4.9737    6.8132  -17.8618 H   0  0  0  0  0  0  0  0  0  0  0  0
   -4.7958    5.8002  -13.4986 O   0  0  0  0  0  0  0  0  0  0  0  0
   -4.4356    6.5347  -12.3361 C   0  0  0  0  0  0  0  0  0  0  0  0
   -3.8388    5.5933  -11.2834 C   0  0  0  0  0  0  0  0  0  0  0  0
   -4.6865    4.2315   -9.5181 C   0  0  0  0  0  0  0  0  0  0  0  0
   -4.6368    5.5283  -10.0931 O   0  0  0  0  0  0  0  0  0  0  0  0
   -7.4842    4.2664  -13.2220 C   0  0  0  0  0  0  0  0  0  0  0  0
   -6.3710    3.3559  -12.8254 C   0  0  0  0  0  0  0  0  0  0  0  0
   -5.5492    2.5661  -12.5879 N   0  0  0  0  0  0  0  0  0  0  0  0
   -7.7813    5.3043  -12.2250 N   0  0  0  0  0  0  0  0  0  0  0  0
   -7.7297    6.2577  -12.4650 H   0  0  0  0  0  0  0  0  0  0  0  0
   -8.1419    4.9121  -10.9168 C   0  0  0  0  0  0  0  0  0  0  0  0
   -8.0142    5.8772   -9.8939 C   0  0  0  0  0  0  0  0  0  0  0  0
   -8.2366    5.5634   -8.5451 C   0  0  0  0  0  0  0  0  0  0  0  0
   -8.6216    4.2755   -8.2268 C   0  0  0  0  0  0  0  0  0  0  0  0
   -8.7795    3.3177   -9.2173 C   0  0  0  0  0  0  0  0  0  0  0  0
   -8.5390    3.6130  -10.5504 C   0  0  0  0  0  0  0  0  0  0  0  0
   -9.2006    2.0242   -8.5971 C   0  0  0  0  0  0  0  0  0  0  0  0
   -9.6190    2.3850   -7.2145 N   0  0  0  0  0  0  0  0  0  0  0  0
   -8.9222    3.6532   -6.9050 C   0  0  0  0  0  0  0  0  0  0  0  0
   -9.3410    1.6564   -6.5570 H   0  0  0  0  0  0  0  0  0  0  0  0
 17 18  1  0  0  0
 18 16  1  0  0  0
 16 15  1  0  0  0
 15 14  1  0  0  0
 14  1  1  0  0  0
  1  2  1  0  0  0
  1  3  1  0  0  0
  3  4  2  0  0  0
  3  5  1  0  0  0
  5  6  1  0  0  0
  6  7  2  0  0  0
  7  8  1  0  0  0
  8  9  1  0  0  0
  8 10  2  0  0  0
 10 11  1  0  0  0
 11 19  1  0  0  0
 19 20  1  0  0  0
 20 21  3  0  0  0
 19 22  1  0  0  0
 22 24  1  0  0  0
 24 25  2  0  0  0
 25 26  1  0  0  0
 26 27  2  0  0  0
 27 28  1  0  0  0
 28 29  2  0  0  0
 28 30  1  0  0  0
 30 31  1  0  0  0
 31 32  1  0  0  0
 11 12  2  0  0  0
 12  1  1  0  0  0
 12  6  1  0  0  0
 29 24  1  0  0  0
 32 27  1  0  0  0
  5 13  1  0  0  0
 22 23  1  0  0  0
 31 33  1  0  0  0
M  END
> <minimizedAffinity>
-6.09777

> <minimizedRMSD>
1.03545

$$$$
P22233


 33 36  0  0  0  0  0  0  0  0999 V2000
   -8.2083    4.4721  -17.2603 C   0  0  0  0  0  0  0  0  0  0  0  0
   -8.6451    4.6405  -15.9344 C   0  0  0  0  0  0  0  0  0  0  0  0
   -7.7588    5.0924  -14.9583 C   0  0  0  0  0  0  0  0  0  0  0  0
   -6.4384    5.3343  -15.3194 C   0  0  0  0  0  0  0  0  0  0  0  0
   -6.0206    5.1220  -16.6347 C   0  0  0  0  0  0  0  0  0  0  0  0
   -6.8838    4.7142  -17.6173 C   0  0  0  0  0  0  0  0  0  0  0  0
   -4.6526    5.3387  -16.7647 N   0  0  0  0  0  0  0  0  0  0  0  0
   -3.9420    5.2845  -18.0158 C   0  0  0  0  0  0  0  0  0  0  0  0
   -4.0818    5.6368  -15.5312 C   0  0  0  0  0  0  0  0  0  0  0  0
   -2.8915    5.8221  -15.3178 O   0  0  0  0  0  0  0  0  0  0  0  0
   -5.2532    5.7572  -14.4903 C   0  0  0  0  0  0  0  0  0  0  0  0
   -5.2949    7.2498  -14.1290 C   0  0  0  0  0  0  0  0  0  0  0  0
   -8.3078    5.4025  -13.6198 C   0  0  0  0  0  0  0  0  0  0  0  0
   -9.1101    6.2466  -13.5394 O   0  0  0  0  0  0  0  0  0  0  0  0
   -7.7272    4.4653  -12.5358 N   0  0  0  0  0  0  0  0  0  0  0  0
   -6.9970    3.8813  -12.8440 H   0  0  0  0  0  0  0  0  0  0  0  0
   -8.0696    4.3126  -11.1919 C   0  0  0  0  0  0  0  0  0  0  0  0
   -7.9248    5.3808  -10.2884 C   0  0  0  0  0  0  0  0  0  0  0  0
   -8.2121    5.2212   -8.9289 C   0  0  0  0  0  0  0  0  0  0  0  0
   -8.6742    3.9920   -8.5028 C   0  0  0  0  0  0  0  0  0  0  0  0
   -8.8514    2.9398   -9.3981 C   0  0  0  0  0  0  0  0  0  0  0  0
   -8.5459    3.0764  -10.7444 C   0  0  0  0  0  0  0  0  0  0  0  0
   -9.3611    1.7526   -8.6457 C   0  0  0  0  0  0  0  0  0  0  0  0
   -9.8313    2.2959   -7.3422 N   0  0  0  0  0  0  0  0  0  0  0  0
   -9.0448    3.5305   -7.1325 C   0  0  0  0  0  0  0  0  0  0  0  0
   -9.6559    1.6278   -6.5917 H   0  0  0  0  0  0  0  0  0  0  0  0
  -10.4913    4.3961  -17.8381 C   0  0  0  0  0  0  0  0  0  0  0  0
   -9.1430    3.9457  -18.3010 C   0  0  0  0  0  0  0  0  0  0  0  0
   -5.1158    4.7861  -13.4614 O   0  0  0  0  0  0  0  0  0  0  0  0
   -4.4339    5.2068  -12.2914 C   0  0  0  0  0  0  0  0  0  0  0  0
   -3.8989    4.0007  -11.5269 C   0  0  0  0  0  0  0  0  0  0  0  0
   -4.7320    3.7248  -10.3998 O   0  0  0  0  0  0  0  0  0  0  0  0
   -4.9432    2.3312  -10.2027 C   0  0  0  0  0  0  0  0  0  0  0  0
 27 28  1  0  0  0
 28  1  1  0  0  0
  1  2  2  0  0  0
  2  3  1  0  0  0
  3 13  1  0  0  0
 13 14  2  0  0  0
 13 15  1  0  0  0
 15 17  1  0  0  0
 17 18  2  0  0  0
 18 19  1  0  0  0
 19 20  2  0  0  0
 20 21  1  0  0  0
 21 22  2  0  0  0
 21 23  1  0  0  0
 23 24  1  0  0  0
 24 25  1  0  0  0
  3  4  2  0  0  0
  4  5  1  0  0  0
  5  6  2  0  0  0
  5  7  1  0  0  0
  7  8  1  0  0  0
  7  9  1  0  0  0
  9 10  2  0  0  0
  9 11  1  0  0  0
 11 12  1  0  0  0
 11 29  1  0  0  0
 29 30  1  0  0  0
 30 31  1  0  0  0
 31 32  1  0  0  0
 32 33  1  0  0  0
  6  1  1  0  0  0
 22 17  1  0  0  0
 11  4  1  0  0  0
 25 20  1  0  0  0
 15 16  1  0  0  0
 24 26  1  0  0  0
M  END
> <minimizedAffinity>
-7.87497

> <minimizedRMSD>
1.14771

$$$$
P22235


 37 41  0  0  0  0  0  0  0  0999 V2000
   -5.4811    5.2763  -14.6955 C   0  0  0  0  0  0  0  0  0  0  0  0
   -5.6249    6.6291  -13.9890 C   0  0  0  0  0  0  0  0  0  0  0  0
   -4.3925    5.3849  -15.8680 C   0  0  0  0  0  0  0  0  0  0  0  0
   -3.2629    6.1595  -15.4785 O   0  0  0  0  0  0  0  0  0  0  0  0
   -5.1342    6.0571  -17.0177 C   0  0  0  0  0  0  0  0  0  0  0  0
   -4.8883    5.7236  -18.4811 C   0  0  0  0  0  0  0  0  0  0  0  0
   -3.7156    4.9948  -18.7185 O   0  0  0  0  0  0  0  0  0  0  0  0
   -6.0318    4.9866  -19.0030 N   0  0  0  0  0  0  0  0  0  0  0  0
   -6.9405    4.6795  -17.9221 C   0  0  0  0  0  0  0  0  0  0  0  0
   -8.4745    4.6265  -17.9689 C   0  0  0  0  0  0  0  0  0  0  0  0
   -8.8959    3.4803  -18.5689 F   0  0  0  0  0  0  0  0  0  0  0  0
   -9.0812    4.6715  -16.5310 C   0  0  0  0  0  0  0  0  0  0  0  0
   -8.1232    4.4014  -15.3160 C   0  0  0  0  0  0  0  0  0  0  0  0
   -6.6553    4.7972  -15.5575 C   0  0  0  0  0  0  0  0  0  0  0  0
   -6.5607    5.6234  -16.8159 C   0  0  0  0  0  0  0  0  0  0  0  0
   -3.5530    7.0501  -15.2265 H   0  0  0  0  0  0  0  0  0  0  0  0
   -3.7773    4.1313  -18.2809 H   0  0  0  0  0  0  0  0  0  0  0  0
   -5.7100    4.1196  -19.4334 H   0  0  0  0  0  0  0  0  0  0  0  0
   -8.7726    4.9194  -14.0409 C   0  0  0  0  0  0  0  0  0  0  0  0
   -9.4806    5.8498  -14.0011 O   0  0  0  0  0  0  0  0  0  0  0  0
   -8.2105    4.0256  -12.8894 N   0  0  0  0  0  0  0  0  0  0  0  0
   -7.6893    3.2461  -13.1892 H   0  0  0  0  0  0  0  0  0  0  0  0
   -8.3267    4.1524  -11.5129 C   0  0  0  0  0  0  0  0  0  0  0  0
   -8.0344    5.3433  -10.8383 C   0  0  0  0  0  0  0  0  0  0  0  0
   -8.0965    5.3930   -9.4410 C   0  0  0  0  0  0  0  0  0  0  0  0
   -8.4675    4.2480   -8.7546 C   0  0  0  0  0  0  0  0  0  0  0  0
   -8.7725    3.0747   -9.4296 C   0  0  0  0  0  0  0  0  0  0  0  0
   -8.6980    3.0039  -10.8061 C   0  0  0  0  0  0  0  0  0  0  0  0
   -9.1230    2.0062   -8.4539 C   0  0  0  0  0  0  0  0  0  0  0  0
   -9.2318    2.6853   -7.1367 N   0  0  0  0  0  0  0  0  0  0  0  0
   -8.5986    4.0136   -7.2885 C   0  0  0  0  0  0  0  0  0  0  0  0
   -8.7461    2.1442   -6.4213 H   0  0  0  0  0  0  0  0  0  0  0  0
   -5.0039    4.2347  -13.8286 O   0  0  0  0  0  0  0  0  0  0  0  0
   -4.6962    4.5973  -12.4858 C   0  0  0  0  0  0  0  0  0  0  0  0
   -4.2456    3.3718  -11.6986 C   0  0  0  0  0  0  0  0  0  0  0  0
   -5.2459    1.7781  -10.2786 C   0  0  0  0  0  0  0  0  0  0  0  0
   -5.1250    3.1612  -10.5970 O   0  0  0  0  0  0  0  0  0  0  0  0
 36 37  1  0  0  0
 37 35  1  0  0  0
 35 34  1  0  0  0
 34 33  1  0  0  0
 33  1  1  0  0  0
  1  2  1  0  0  0
  1  3  1  0  0  0
  3  4  1  0  0  0
  3  5  1  0  0  0
  5  6  1  0  0  0
  6  7  1  0  0  0
  6  8  1  0  0  0
  9  8  1  0  0  0
  9 10  1  0  0  0
 10 11  1  0  0  0
 10 12  1  0  0  0
 12 13  1  0  0  0
 13 19  1  0  0  0
 19 20  2  0  0  0
 19 21  1  0  0  0
 21 23  1  0  0  0
 23 24  2  0  0  0
 24 25  1  0  0  0
 25 26  2  0  0  0
 26 27  1  0  0  0
 27 28  2  0  0  0
 27 29  1  0  0  0
 29 30  1  0  0  0
 30 31  1  0  0  0
 14 13  1  0  0  0
 14 15  1  0  0  0
 14  1  1  0  0  0
 15  5  1  0  0  0
 15  9  1  0  0  0
 28 23  1  0  0  0
 31 26  1  0  0  0
  4 16  1  0  0  0
  7 17  1  0  0  0
  8 18  1  0  0  0
 21 22  1  0  0  0
 30 32  1  0  0  0
M  END
> <minimizedAffinity>
-9.11516

> <minimizedRMSD>
0.93600

$$$$
P22237


 34 37  0  0  0  0  0  0  0  0999 V2000
   -5.2933    5.5687  -16.5384 C   0  0  0  0  0  0  0  0  0  0  0  0
   -5.1163    7.0756  -16.2853 C   0  0  0  0  0  0  0  0  0  0  0  0
   -4.8712    5.3890  -18.0417 C   0  0  0  0  0  0  0  0  0  0  0  0
   -3.7515    5.5330  -18.5119 O   0  0  0  0  0  0  0  0  0  0  0  0
   -6.0162    5.0741  -18.7655 N   0  0  0  0  0  0  0  0  0  0  0  0
   -7.0937    4.8520  -17.9229 C   0  0  0  0  0  0  0  0  0  0  0  0
   -8.3312    4.3663  -18.2876 C   0  0  0  0  0  0  0  0  0  0  0  0
   -9.2304    4.0969  -17.2642 C   0  0  0  0  0  0  0  0  0  0  0  0
  -10.4364    3.5984  -17.5631 F   0  0  0  0  0  0  0  0  0  0  0  0
   -8.9062    4.3226  -15.9221 C   0  0  0  0  0  0  0  0  0  0  0  0
   -7.6489    4.8348  -15.5797 C   0  0  0  0  0  0  0  0  0  0  0  0
   -6.7396    5.1118  -16.5973 C   0  0  0  0  0  0  0  0  0  0  0  0
   -6.0560    5.0166  -19.7475 H   0  0  0  0  0  0  0  0  0  0  0  0
   -7.3337    5.1702  -14.1727 C   0  0  0  0  0  0  0  0  0  0  0  0
   -6.4982    5.9665  -14.0005 O   0  0  0  0  0  0  0  0  0  0  0  0
   -8.2023    4.3926  -13.1561 N   0  0  0  0  0  0  0  0  0  0  0  0
   -8.7918    3.7116  -13.5536 H   0  0  0  0  0  0  0  0  0  0  0  0
   -8.2872    4.5001  -11.7548 C   0  0  0  0  0  0  0  0  0  0  0  0
   -8.4901    3.2790  -11.0828 C   0  0  0  0  0  0  0  0  0  0  0  0
   -8.5505    3.2661   -9.7003 C   0  0  0  0  0  0  0  0  0  0  0  0
   -8.3638    4.4266   -8.9665 C   0  0  0  0  0  0  0  0  0  0  0  0
   -8.1818    5.6449   -9.5930 C   0  0  0  0  0  0  0  0  0  0  0  0
   -8.1901    5.7064  -11.0022 C   0  0  0  0  0  0  0  0  0  0  0  0
   -8.4745    4.1079   -7.5131 C   0  0  0  0  0  0  0  0  0  0  0  0
   -9.1470    2.7936   -7.4625 N   0  0  0  0  0  0  0  0  0  0  0  0
   -8.8175    2.1368   -8.7579 C   0  0  0  0  0  0  0  0  0  0  0  0
  -10.1557    2.9113   -7.3675 H   0  0  0  0  0  0  0  0  0  0  0  0
   -8.4062    7.3392  -11.7445 S   0  0  0  0  0  0  0  0  0  0  0  0
   -6.8957    8.1890  -11.2522 C   0  0  0  0  0  0  0  0  0  0  0  0
   -4.5921    4.6378  -15.7183 O   0  0  0  0  0  0  0  0  0  0  0  0
   -3.3838    5.0750  -15.1136 C   0  0  0  0  0  0  0  0  0  0  0  0
   -3.1552    4.3102  -13.8087 C   0  0  0  0  0  0  0  0  0  0  0  0
   -3.2086    6.5003  -12.9067 C   0  0  0  0  0  0  0  0  0  0  0  0
   -3.4758    5.1213  -12.6753 O   0  0  0  0  0  0  0  0  0  0  0  0
 33 34  1  0  0  0
 34 32  1  0  0  0
 32 31  1  0  0  0
 31 30  1  0  0  0
 30  1  1  0  0  0
  1  2  1  0  0  0
  1  3  1  0  0  0
  3  4  2  0  0  0
  3  5  1  0  0  0
  5  6  1  0  0  0
  6  7  2  0  0  0
  7  8  1  0  0  0
  8  9  1  0  0  0
  8 10  2  0  0  0
 10 11  1  0  0  0
 11 14  1  0  0  0
 14 15  2  0  0  0
 14 16  1  0  0  0
 16 18  1  0  0  0
 18 19  2  0  0  0
 19 20  1  0  0  0
 20 21  2  0  0  0
 21 22  1  0  0  0
 22 23  2  0  0  0
 23 28  1  0  0  0
 28 29  1  0  0  0
 21 24  1  0  0  0
 24 25  1  0  0  0
 25 26  1  0  0  0
 11 12  2  0  0  0
 12  1  1  0  0  0
 12  6  1  0  0  0
 23 18  1  0  0  0
 26 20  1  0  0  0
  5 13  1  0  0  0
 16 17  1  0  0  0
 25 27  1  0  0  0
M  END
> <minimizedAffinity>
-7.61428

> <minimizedRMSD>
0.89714

$$$$
P22238


 37 40  0  0  0  0  0  0  0  0999 V2000
   -8.7025    5.1599  -14.0023 C   0  0  0  0  0  0  0  0  0  0  0  0
   -9.4750    6.0223  -13.8505 O   0  0  0  0  0  0  0  0  0  0  0  0
   -8.0770    4.1831  -12.9797 N   0  0  0  0  0  0  0  0  0  0  0  0
   -7.5018    3.4875  -13.3727 H   0  0  0  0  0  0  0  0  0  0  0  0
   -5.7225    5.5417  -15.0727 C   0  0  0  0  0  0  0  0  0  0  0  0
   -5.6966    7.0175  -14.6480 C   0  0  0  0  0  0  0  0  0  0  0  0
   -4.6436    5.4353  -16.2148 C   0  0  0  0  0  0  0  0  0  0  0  0
   -3.4332    5.5720  -16.1042 O   0  0  0  0  0  0  0  0  0  0  0  0
   -5.3169    5.1889  -17.4056 N   0  0  0  0  0  0  0  0  0  0  0  0
   -6.6648    4.9630  -17.1804 C   0  0  0  0  0  0  0  0  0  0  0  0
   -7.5884    4.5532  -18.1190 C   0  0  0  0  0  0  0  0  0  0  0  0
   -8.8713    4.2851  -17.6660 C   0  0  0  0  0  0  0  0  0  0  0  0
   -9.8096    3.8905  -18.5362 F   0  0  0  0  0  0  0  0  0  0  0  0
   -9.2113    4.4222  -16.3166 C   0  0  0  0  0  0  0  0  0  0  0  0
   -8.2645    4.8717  -15.3880 C   0  0  0  0  0  0  0  0  0  0  0  0
   -6.9756    5.1474  -15.8296 C   0  0  0  0  0  0  0  0  0  0  0  0
   -4.8913    5.1766  -18.2932 H   0  0  0  0  0  0  0  0  0  0  0  0
   -5.4992    4.5426  -14.0800 O   0  0  0  0  0  0  0  0  0  0  0  0
   -4.6698    4.9002  -12.9838 C   0  0  0  0  0  0  0  0  0  0  0  0
   -4.5147    3.7192  -12.0274 C   0  0  0  0  0  0  0  0  0  0  0  0
   -2.9769    2.1383  -11.1460 C   0  0  0  0  0  0  0  0  0  0  0  0
   -3.1693    3.2355  -12.0308 O   0  0  0  0  0  0  0  0  0  0  0  0
   -8.1954    4.1271  -11.5891 C   0  0  0  0  0  0  0  0  0  0  0  0
   -7.8646    5.2375  -10.7963 C   0  0  0  0  0  0  0  0  0  0  0  0
   -7.9470    5.1785   -9.4002 C   0  0  0  0  0  0  0  0  0  0  0  0
   -8.3944    4.0085   -8.8140 C   0  0  0  0  0  0  0  0  0  0  0  0
   -8.7544    2.9140   -9.5989 C   0  0  0  0  0  0  0  0  0  0  0  0
   -8.6480    2.9506  -10.9837 C   0  0  0  0  0  0  0  0  0  0  0  0
   -9.1803    1.7930   -8.7018 C   0  0  0  0  0  0  0  0  0  0  0  0
   -9.3862    2.4266   -7.3578 N   0  0  0  0  0  0  0  0  0  0  0  0
   -8.4797    3.6108   -7.3699 C   0  0  0  0  0  0  0  0  0  0  0  0
   -9.1292    1.7817   -6.6104 H   0  0  0  0  0  0  0  0  0  0  0  0
   -8.9552    4.6582   -6.3741 C   0  0  0  0  0  0  0  0  0  0  0  0
   -8.4959    4.3889   -4.9670 C   0  0  0  0  0  0  0  0  0  0  0  0
   -9.0201    4.9190   -3.9929 O   0  0  0  0  0  0  0  0  0  0  0  0
   -7.5243    3.4732   -4.8176 O   0  0  0  0  0  0  0  0  0  0  0  0
   -7.1337    3.0773   -5.5717 H   0  0  0  0  0  0  0  0  0  0  0  0
 21 22  1  0  0  0
 22 20  1  0  0  0
 20 19  1  0  0  0
 19 18  1  0  0  0
 18  5  1  0  0  0
  5  6  1  0  0  0
  5  7  1  0  0  0
  7  8  2  0  0  0
  7  9  1  0  0  0
  9 10  1  0  0  0
 10 11  2  0  0  0
 11 12  1  0  0  0
 12 13  1  0  0  0
 12 14  2  0  0  0
 14 15  1  0  0  0
 15  1  1  0  0  0
  1  2  2  0  0  0
  1  3  1  0  0  0
  3 23  1  0  0  0
 23 24  2  0  0  0
 24 25  1  0  0  0
 25 26  2  0  0  0
 26 27  1  0  0  0
 27 28  2  0  0  0
 27 29  1  0  0  0
 29 30  1  0  0  0
 30 31  1  0  0  0
 31 33  1  0  0  0
 33 34  1  0  0  0
 34 35  2  0  0  0
 34 36  1  0  0  0
 15 16  2  0  0  0
 16  5  1  0  0  0
 16 10  1  0  0  0
 28 23  1  0  0  0
 31 26  1  0  0  0
  9 17  1  0  0  0
  3  4  1  0  0  0
 30 32  1  0  0  0
 36 37  1  0  0  0
M  END
> <minimizedAffinity>
-8.57771

> <minimizedRMSD>
1.00512

$$$$
P22239


 39 43  0  0  0  0  0  0  0  0999 V2000
   -5.4088    5.8624  -15.7434 C   0  0  0  0  0  0  0  0  0  0  0  0
   -5.3960    7.4275  -15.7681 C   0  0  0  0  0  0  0  0  0  0  0  0
   -5.1496    8.2242  -14.4845 C   0  0  0  0  0  0  0  0  0  0  0  0
   -4.8338    9.5019  -14.8778 F   0  0  0  0  0  0  0  0  0  0  0  0
   -6.3498    8.3444  -13.5535 C   0  0  0  0  0  0  0  0  0  0  0  0
   -6.7914    7.0585  -13.1072 N   0  0  0  0  0  0  0  0  0  0  0  0
   -8.1064    6.6754  -12.9984 C   0  0  0  0  0  0  0  0  0  0  0  0
   -9.0519    7.4439  -13.1313 O   0  0  0  0  0  0  0  0  0  0  0  0
   -8.2450    5.3182  -12.7910 N   0  0  0  0  0  0  0  0  0  0  0  0
   -7.5948    4.5323  -13.7293 C   0  0  0  0  0  0  0  0  0  0  0  0
   -6.7622    3.6790  -13.4460 O   0  0  0  0  0  0  0  0  0  0  0  0
   -7.8075    4.8086  -15.1845 C   0  0  0  0  0  0  0  0  0  0  0  0
   -8.9838    4.2802  -15.7369 C   0  0  0  0  0  0  0  0  0  0  0  0
   -9.1298    4.1633  -17.1209 C   0  0  0  0  0  0  0  0  0  0  0  0
  -10.2510    3.6304  -17.6252 F   0  0  0  0  0  0  0  0  0  0  0  0
   -8.1070    4.5322  -17.9827 C   0  0  0  0  0  0  0  0  0  0  0  0
   -6.9451    5.0711  -17.4438 C   0  0  0  0  0  0  0  0  0  0  0  0
   -6.7962    5.2727  -16.0497 C   0  0  0  0  0  0  0  0  0  0  0  0
   -5.6827    5.3746  -18.2043 C   0  0  0  0  0  0  0  0  0  0  0  0
   -5.3254    4.4317  -19.1078 F   0  0  0  0  0  0  0  0  0  0  0  0
   -5.7624    6.5408  -18.9057 F   0  0  0  0  0  0  0  0  0  0  0  0
   -4.6567    5.5001  -17.0658 C   0  0  0  0  0  0  0  0  0  0  0  0
   -3.4339    5.4373  -17.1763 O   0  0  0  0  0  0  0  0  0  0  0  0
   -6.1025    6.4000  -12.8599 H   0  0  0  0  0  0  0  0  0  0  0  0
   -8.3184    4.8867  -11.4074 C   0  0  0  0  0  0  0  0  0  0  0  0
   -8.1098    5.8259  -10.3643 C   0  0  0  0  0  0  0  0  0  0  0  0
   -8.1118    5.4548   -9.0179 C   0  0  0  0  0  0  0  0  0  0  0  0
   -8.3776    4.1396   -8.7064 C   0  0  0  0  0  0  0  0  0  0  0  0
   -8.6336    3.2068   -9.7015 C   0  0  0  0  0  0  0  0  0  0  0  0
   -8.5983    3.5541  -11.0508 C   0  0  0  0  0  0  0  0  0  0  0  0
   -8.9306    1.8880   -9.0643 C   0  0  0  0  0  0  0  0  0  0  0  0
   -8.9550    2.1251   -7.5962 N   0  0  0  0  0  0  0  0  0  0  0  0
   -8.4679    3.4955   -7.3661 C   0  0  0  0  0  0  0  0  0  0  0  0
   -8.3479    1.4550   -7.1242 H   0  0  0  0  0  0  0  0  0  0  0  0
   -5.0440    5.3724  -14.4956 O   0  0  0  0  0  0  0  0  0  0  0  0
   -3.7637    4.8199  -14.2548 C   0  0  0  0  0  0  0  0  0  0  0  0
   -3.3412    5.3363  -12.8719 C   0  0  0  0  0  0  0  0  0  0  0  0
   -4.5851    4.8161  -10.9248 C   0  0  0  0  0  0  0  0  0  0  0  0
   -4.5308    5.6012  -12.1063 O   0  0  0  0  0  0  0  0  0  0  0  0
 38 39  1  0  0  0
 39 37  1  0  0  0
 37 36  1  0  0  0
 36 35  1  0  0  0
  1 35  1  0  0  0
  1  2  1  0  0  0
  2  3  1  0  0  0
  3  4  1  0  0  0
  3  5  1  0  0  0
  5  6  1  0  0  0
  6  7  1  0  0  0
  7  8  2  0  0  0
  7  9  1  0  0  0
  9 25  1  0  0  0
 25 26  2  0  0  0
 26 27  1  0  0  0
 27 28  2  0  0  0
 28 29  1  0  0  0
 29 30  2  0  0  0
 29 31  1  0  0  0
 31 32  1  0  0  0
 32 33  1  0  0  0
  9 10  1  0  0  0
 10 11  2  0  0  0
 10 12  1  0  0  0
 12 13  2  0  0  0
 13 14  1  0  0  0
 14 15  1  0  0  0
 14 16  2  0  0  0
 16 17  1  0  0  0
 17 18  2  0  0  0
 17 19  1  0  0  0
 19 20  1  0  0  0
 19 21  1  0  0  0
 19 22  1  0  0  0
 22 23  2  0  0  0
 18  1  1  0  0  0
 22  1  1  0  0  0
 30 25  1  0  0  0
 18 12  1  0  0  0
 33 28  1  0  0  0
  6 24  1  0  0  0
 32 34  1  0  0  0
M  END
> <minimizedAffinity>
-8.98369

> <minimizedRMSD>
0.33480

$$$$
P22240


 33 36  0  0  0  0  0  0  0  0999 V2000
   -5.7357    5.5497  -15.0570 C   0  0  0  0  0  0  0  0  0  0  0  0
   -5.8257    6.9650  -14.4834 C   0  0  0  0  0  0  0  0  0  0  0  0
   -4.6609    5.5969  -16.2018 C   0  0  0  0  0  0  0  0  0  0  0  0
   -3.4496    5.6784  -16.0536 O   0  0  0  0  0  0  0  0  0  0  0  0
   -5.3414    5.5618  -17.4547 N   0  0  0  0  0  0  0  0  0  0  0  0
   -6.6219    5.0023  -17.2123 C   0  0  0  0  0  0  0  0  0  0  0  0
   -7.5373    4.5338  -18.1381 C   0  0  0  0  0  0  0  0  0  0  0  0
   -8.7846    4.1294  -17.6697 C   0  0  0  0  0  0  0  0  0  0  0  0
   -9.6863    3.6379  -18.5275 F   0  0  0  0  0  0  0  0  0  0  0  0
   -9.1399    4.2533  -16.3265 C   0  0  0  0  0  0  0  0  0  0  0  0
   -8.2277    4.7842  -15.4164 C   0  0  0  0  0  0  0  0  0  0  0  0
   -6.9543    5.1314  -15.8569 C   0  0  0  0  0  0  0  0  0  0  0  0
   -8.6837    5.1298  -14.0565 C   0  0  0  0  0  0  0  0  0  0  0  0
   -9.3965    6.0471  -13.9485 O   0  0  0  0  0  0  0  0  0  0  0  0
   -8.1423    4.1544  -12.9933 N   0  0  0  0  0  0  0  0  0  0  0  0
   -7.6110    3.4072  -13.3520 H   0  0  0  0  0  0  0  0  0  0  0  0
   -8.2823    4.1578  -11.6069 C   0  0  0  0  0  0  0  0  0  0  0  0
   -8.0420    5.3213  -10.8552 C   0  0  0  0  0  0  0  0  0  0  0  0
   -8.1303    5.3060   -9.4592 C   0  0  0  0  0  0  0  0  0  0  0  0
   -8.5003    4.1262   -8.8417 C   0  0  0  0  0  0  0  0  0  0  0  0
   -8.7702    2.9840   -9.5846 C   0  0  0  0  0  0  0  0  0  0  0  0
   -8.6460    2.9731  -10.9651 C   0  0  0  0  0  0  0  0  0  0  0  0
   -9.1613    1.8760   -8.6672 C   0  0  0  0  0  0  0  0  0  0  0  0
   -9.2939    2.4880   -7.3183 N   0  0  0  0  0  0  0  0  0  0  0  0
   -8.6746    3.8273   -7.3923 C   0  0  0  0  0  0  0  0  0  0  0  0
   -8.8116    1.9163   -6.6247 H   0  0  0  0  0  0  0  0  0  0  0  0
   -4.5900    5.2403  -18.4974 C   0  0  0  0  0  0  0  0  0  0  0  0
   -3.9989    5.0290  -19.4703 N   0  0  0  0  0  0  0  0  0  0  0  0
   -5.6240    4.5722  -14.0383 O   0  0  0  0  0  0  0  0  0  0  0  0
   -4.7296    4.8643  -12.9679 C   0  0  0  0  0  0  0  0  0  0  0  0
   -4.4822    3.5826  -12.1628 C   0  0  0  0  0  0  0  0  0  0  0  0
   -5.0513    2.5090  -10.1178 C   0  0  0  0  0  0  0  0  0  0  0  0
   -4.8756    3.7448  -10.7943 O   0  0  0  0  0  0  0  0  0  0  0  0
 32 33  1  0  0  0
 33 31  1  0  0  0
 31 30  1  0  0  0
 30 29  1  0  0  0
 29  1  1  0  0  0
  1  2  1  0  0  0
  1  3  1  0  0  0
  3  4  2  0  0  0
  3  5  1  0  0  0
  5 27  1  0  0  0
 27 28  3  0  0  0
  5  6  1  0  0  0
  6  7  2  0  0  0
  7  8  1  0  0  0
  8  9  1  0  0  0
  8 10  2  0  0  0
 10 11  1  0  0  0
 11 13  1  0  0  0
 13 14  2  0  0  0
 13 15  1  0  0  0
 15 17  1  0  0  0
 17 18  2  0  0  0
 18 19  1  0  0  0
 19 20  2  0  0  0
 20 21  1  0  0  0
 21 22  2  0  0  0
 21 23  1  0  0  0
 23 24  1  0  0  0
 24 25  1  0  0  0
 11 12  2  0  0  0
 12  1  1  0  0  0
 12  6  1  0  0  0
 22 17  1  0  0  0
 25 20  1  0  0  0
 15 16  1  0  0  0
 24 26  1  0  0  0
M  END
> <minimizedAffinity>
-8.48480

> <minimizedRMSD>
0.89081

$$$$
P22245


 36 40  0  0  0  0  0  0  0  0999 V2000
   -5.6826    5.6351  -14.8902 C   0  0  0  0  0  0  0  0  0  0  0  0
   -5.6835    7.0023  -14.2089 C   0  0  0  0  0  0  0  0  0  0  0  0
   -4.6130    5.6291  -16.1138 C   0  0  0  0  0  0  0  0  0  0  0  0
   -3.4005    5.5024  -15.9958 O   0  0  0  0  0  0  0  0  0  0  0  0
   -5.3380    5.8900  -17.4211 C   0  0  0  0  0  0  0  0  0  0  0  0
   -5.2825    7.3724  -17.7891 C   0  0  0  0  0  0  0  0  0  0  0  0
   -5.2126    5.0764  -18.6990 C   0  0  0  0  0  0  0  0  0  0  0  0
   -4.2134    4.9335  -19.3823 O   0  0  0  0  0  0  0  0  0  0  0  0
   -6.5035    4.5920  -19.0025 N   0  0  0  0  0  0  0  0  0  0  0  0
   -7.3775    4.7383  -17.9303 C   0  0  0  0  0  0  0  0  0  0  0  0
   -8.5950    4.1830  -17.5936 C   0  0  0  0  0  0  0  0  0  0  0  0
   -9.3312    3.4989  -18.4768 F   0  0  0  0  0  0  0  0  0  0  0  0
   -9.0405    4.3018  -16.2609 C   0  0  0  0  0  0  0  0  0  0  0  0
   -8.2125    4.8961  -15.2798 C   0  0  0  0  0  0  0  0  0  0  0  0
   -6.9737    5.3988  -15.6545 C   0  0  0  0  0  0  0  0  0  0  0  0
   -6.6917    5.4511  -16.9932 C   0  0  0  0  0  0  0  0  0  0  0  0
   -6.7549    4.1980  -19.8690 H   0  0  0  0  0  0  0  0  0  0  0  0
   -8.6973    5.1561  -13.9111 C   0  0  0  0  0  0  0  0  0  0  0  0
   -9.4521    6.0378  -13.7840 O   0  0  0  0  0  0  0  0  0  0  0  0
   -8.1246    4.1727  -12.8709 N   0  0  0  0  0  0  0  0  0  0  0  0
   -7.5564    3.4613  -13.2455 H   0  0  0  0  0  0  0  0  0  0  0  0
   -8.2803    4.1266  -11.4859 C   0  0  0  0  0  0  0  0  0  0  0  0
   -8.0477    5.2710  -10.6995 C   0  0  0  0  0  0  0  0  0  0  0  0
   -8.1717    5.2295   -9.3075 C   0  0  0  0  0  0  0  0  0  0  0  0
   -8.5745    4.0427   -8.7300 C   0  0  0  0  0  0  0  0  0  0  0  0
   -8.8212    2.9118   -9.5051 C   0  0  0  0  0  0  0  0  0  0  0  0
   -8.6568    2.9262  -10.8812 C   0  0  0  0  0  0  0  0  0  0  0  0
   -9.2516    1.7993   -8.6053 C   0  0  0  0  0  0  0  0  0  0  0  0
   -9.6264    2.4664   -7.3284 N   0  0  0  0  0  0  0  0  0  0  0  0
   -8.8304    3.7128   -7.2973 C   0  0  0  0  0  0  0  0  0  0  0  0
   -9.3935    1.8727   -6.5324 H   0  0  0  0  0  0  0  0  0  0  0  0
   -5.6140    4.5765  -13.9561 O   0  0  0  0  0  0  0  0  0  0  0  0
   -4.7009    4.7462  -12.8752 C   0  0  0  0  0  0  0  0  0  0  0  0
   -4.1570    3.3751  -12.4581 C   0  0  0  0  0  0  0  0  0  0  0  0
   -4.9386    3.0157  -10.2406 C   0  0  0  0  0  0  0  0  0  0  0  0
   -5.0915    2.6899  -11.6138 O   0  0  0  0  0  0  0  0  0  0  0  0
 35 36  1  0  0  0
 36 34  1  0  0  0
 34 33  1  0  0  0
 33 32  1  0  0  0
 32  1  1  0  0  0
  1  2  1  0  0  0
  1  3  1  0  0  0
  3  4  2  0  0  0
  3  5  1  0  0  0
  5  6  1  0  0  0
  5  7  1  0  0  0
  7  8  2  0  0  0
  7  9  1  0  0  0
  9 10  1  0  0  0
 10 11  2  0  0  0
 11 12  1  0  0  0
 11 13  1  0  0  0
 13 14  2  0  0  0
 14 18  1  0  0  0
 18 19  2  0  0  0
 18 20  1  0  0  0
 20 22  1  0  0  0
 22 23  2  0  0  0
 23 24  1  0  0  0
 24 25  2  0  0  0
 25 26  1  0  0  0
 26 27  2  0  0  0
 26 28  1  0  0  0
 28 29  1  0  0  0
 29 30  1  0  0  0
 14 15  1  0  0  0
 15 16  2  0  0  0
 15  1  1  0  0  0
 16  5  1  0  0  0
 16 10  1  0  0  0
 27 22  1  0  0  0
 30 25  1  0  0  0
  9 17  1  0  0  0
 20 21  1  0  0  0
 29 31  1  0  0  0
M  END
> <minimizedAffinity>
-9.50845

> <minimizedRMSD>
0.90498

$$$$
P22246


 36 39  0  0  0  0  0  0  0  0999 V2000
   -5.4014    5.3119  -17.5159 N   0  0  0  0  0  0  0  0  0  0  0  0
   -4.6418    5.3805  -16.3428 C   0  0  0  0  0  0  0  0  0  0  0  0
   -3.4328    5.5507  -16.2496 O   0  0  0  0  0  0  0  0  0  0  0  0
   -5.6623    5.3160  -15.1363 C   0  0  0  0  0  0  0  0  0  0  0  0
   -5.6758    6.7323  -14.5437 C   0  0  0  0  0  0  0  0  0  0  0  0
   -6.9450    4.9795  -15.8660 C   0  0  0  0  0  0  0  0  0  0  0  0
   -8.2132    4.6861  -15.3835 C   0  0  0  0  0  0  0  0  0  0  0  0
   -9.1982    4.2318  -16.2632 C   0  0  0  0  0  0  0  0  0  0  0  0
   -8.9418    4.1866  -17.6238 C   0  0  0  0  0  0  0  0  0  0  0  0
   -9.8935    3.7960  -18.4785 F   0  0  0  0  0  0  0  0  0  0  0  0
   -7.7338    4.6276  -18.1253 C   0  0  0  0  0  0  0  0  0  0  0  0
   -6.7258    4.9602  -17.2368 C   0  0  0  0  0  0  0  0  0  0  0  0
   -8.6368    5.0701  -14.0275 C   0  0  0  0  0  0  0  0  0  0  0  0
   -9.3768    5.9655  -13.9284 O   0  0  0  0  0  0  0  0  0  0  0  0
   -8.0761    4.1165  -12.9587 N   0  0  0  0  0  0  0  0  0  0  0  0
   -7.5200    3.3844  -13.3107 H   0  0  0  0  0  0  0  0  0  0  0  0
   -8.2264    4.1201  -11.5790 C   0  0  0  0  0  0  0  0  0  0  0  0
   -8.0221    5.2949  -10.8383 C   0  0  0  0  0  0  0  0  0  0  0  0
   -8.1717    5.2807   -9.4569 C   0  0  0  0  0  0  0  0  0  0  0  0
   -7.9551    6.3938   -8.7455 F   0  0  0  0  0  0  0  0  0  0  0  0
   -8.5522    4.1160   -8.8342 C   0  0  0  0  0  0  0  0  0  0  0  0
   -8.7663    2.9591   -9.5712 C   0  0  0  0  0  0  0  0  0  0  0  0
   -8.5947    2.9347  -10.9440 C   0  0  0  0  0  0  0  0  0  0  0  0
   -9.1279    1.8518   -8.6454 C   0  0  0  0  0  0  0  0  0  0  0  0
   -9.3873    2.4950   -7.3309 N   0  0  0  0  0  0  0  0  0  0  0  0
   -8.7820    3.8440   -7.3931 C   0  0  0  0  0  0  0  0  0  0  0  0
   -8.9585    1.9511   -6.5822 H   0  0  0  0  0  0  0  0  0  0  0  0
   -4.9503    5.7532  -18.8070 C   0  0  0  0  0  0  0  0  0  0  0  0
   -2.9662    5.7020  -20.1649 C   0  0  0  0  0  0  0  0  0  0  0  0
   -3.8823    4.9567  -19.3468 N   0  0  0  0  0  0  0  0  0  0  0  0
   -3.3619    4.5468  -18.5711 H   0  0  0  0  0  0  0  0  0  0  0  0
   -5.5607    4.3132  -14.1480 O   0  0  0  0  0  0  0  0  0  0  0  0
   -4.6155    4.5223  -13.1075 C   0  0  0  0  0  0  0  0  0  0  0  0
   -4.5614    3.2532  -12.2450 C   0  0  0  0  0  0  0  0  0  0  0  0
   -4.8760    3.5238  -10.8722 O   0  0  0  0  0  0  0  0  0  0  0  0
   -5.0226    2.3487  -10.0886 C   0  0  0  0  0  0  0  0  0  0  0  0
 29 30  1  0  0  0
 30 28  1  0  0  0
 28  1  1  0  0  0
  1  2  1  0  0  0
  2  3  2  0  0  0
  2  4  1  0  0  0
  4  5  1  0  0  0
  4 32  1  0  0  0
 32 33  1  0  0  0
 33 34  1  0  0  0
 34 35  1  0  0  0
 35 36  1  0  0  0
  4  6  1  0  0  0
  6  7  2  0  0  0
  7 13  1  0  0  0
 13 14  2  0  0  0
 13 15  1  0  0  0
 15 17  1  0  0  0
 17 18  2  0  0  0
 18 19  1  0  0  0
 19 20  1  0  0  0
 19 21  2  0  0  0
 21 22  1  0  0  0
 22 23  2  0  0  0
 22 24  1  0  0  0
 24 25  1  0  0  0
 25 26  1  0  0  0
  7  8  1  0  0  0
  8  9  2  0  0  0
  9 10  1  0  0  0
  9 11  1  0  0  0
 11 12  2  0  0  0
 12  1  1  0  0  0
 12  6  1  0  0  0
 23 17  1  0  0  0
 26 21  1  0  0  0
 30 31  1  0  0  0
 15 16  1  0  0  0
 25 27  1  0  0  0
M  END
> <minimizedAffinity>
-8.45074

> <minimizedRMSD>
1.24045

$$$$
P22247


 37 41  0  0  0  0  0  0  0  0999 V2000
   -5.8439    5.7612  -15.0826 C   0  0  0  0  0  0  0  0  0  0  0  0
   -6.0706    7.1287  -14.4410 C   0  0  0  0  0  0  0  0  0  0  0  0
   -4.7662    5.9215  -16.1882 C   0  0  0  0  0  0  0  0  0  0  0  0
   -3.5738    6.1310  -15.9819 O   0  0  0  0  0  0  0  0  0  0  0  0
   -5.3929    5.8210  -17.5910 C   0  0  0  0  0  0  0  0  0  0  0  0
   -5.5793    7.2514  -18.1300 C   0  0  0  0  0  0  0  0  0  0  0  0
   -5.3741    7.3285  -19.6398 C   0  0  0  0  0  0  0  0  0  0  0  0
   -4.0700    6.8653  -20.1097 N   0  0  0  0  0  0  0  0  0  0  0  0
   -3.4410    5.9124  -19.2004 C   0  0  0  0  0  0  0  0  0  0  0  0
   -4.4645    5.0214  -18.5012 C   0  0  0  0  0  0  0  0  0  0  0  0
   -6.7274    5.1695  -17.2625 C   0  0  0  0  0  0  0  0  0  0  0  0
   -7.6277    4.5478  -18.1216 C   0  0  0  0  0  0  0  0  0  0  0  0
   -8.8216    4.0394  -17.6035 C   0  0  0  0  0  0  0  0  0  0  0  0
   -9.6978    3.4370  -18.4176 F   0  0  0  0  0  0  0  0  0  0  0  0
   -9.1512    4.1746  -16.2582 C   0  0  0  0  0  0  0  0  0  0  0  0
   -8.2572    4.8065  -15.3969 C   0  0  0  0  0  0  0  0  0  0  0  0
   -7.0287    5.2633  -15.8878 C   0  0  0  0  0  0  0  0  0  0  0  0
   -3.4551    7.6729  -20.2102 H   0  0  0  0  0  0  0  0  0  0  0  0
   -8.7117    5.1427  -14.0318 C   0  0  0  0  0  0  0  0  0  0  0  0
   -9.4685    6.0253  -13.9229 O   0  0  0  0  0  0  0  0  0  0  0  0
   -8.1258    4.1905  -12.9687 N   0  0  0  0  0  0  0  0  0  0  0  0
   -7.5585    3.4707  -13.3281 H   0  0  0  0  0  0  0  0  0  0  0  0
   -8.2690    4.1834  -11.5820 C   0  0  0  0  0  0  0  0  0  0  0  0
   -8.0159    5.3400  -10.8253 C   0  0  0  0  0  0  0  0  0  0  0  0
   -8.1220    5.3253   -9.4304 C   0  0  0  0  0  0  0  0  0  0  0  0
   -8.5040    4.1474   -8.8157 C   0  0  0  0  0  0  0  0  0  0  0  0
   -8.7762    3.0079   -9.5611 C   0  0  0  0  0  0  0  0  0  0  0  0
   -8.6481    3.0006  -10.9428 C   0  0  0  0  0  0  0  0  0  0  0  0
   -9.1719    1.8993   -8.6466 C   0  0  0  0  0  0  0  0  0  0  0  0
   -9.2544    2.4916   -7.2836 N   0  0  0  0  0  0  0  0  0  0  0  0
   -8.6783    3.8499   -7.3671 C   0  0  0  0  0  0  0  0  0  0  0  0
   -8.7221    1.9255   -6.6228 H   0  0  0  0  0  0  0  0  0  0  0  0
   -5.6009    4.7185  -14.1576 O   0  0  0  0  0  0  0  0  0  0  0  0
   -4.8161    5.0278  -13.0107 C   0  0  0  0  0  0  0  0  0  0  0  0
   -4.4532    3.7078  -12.3285 C   0  0  0  0  0  0  0  0  0  0  0  0
   -5.4126    1.6179  -11.8155 C   0  0  0  0  0  0  0  0  0  0  0  0
   -5.3723    2.6928  -12.7476 O   0  0  0  0  0  0  0  0  0  0  0  0
 36 37  1  0  0  0
 37 35  1  0  0  0
 35 34  1  0  0  0
 34 33  1  0  0  0
 33  1  1  0  0  0
  1  2  1  0  0  0
  1  3  1  0  0  0
  3  4  2  0  0  0
  3  5  1  0  0  0
  5  6  1  0  0  0
  6  7  1  0  0  0
  7  8  1  0  0  0
  8  9  1  0  0  0
  9 10  1  0  0  0
  5 11  1  0  0  0
 11 12  2  0  0  0
 12 13  1  0  0  0
 13 14  1  0  0  0
 13 15  2  0  0  0
 15 16  1  0  0  0
 16 19  1  0  0  0
 19 20  2  0  0  0
 19 21  1  0  0  0
 21 23  1  0  0  0
 23 24  2  0  0  0
 24 25  1  0  0  0
 25 26  2  0  0  0
 26 27  1  0  0  0
 27 28  2  0  0  0
 27 29  1  0  0  0
 29 30  1  0  0  0
 30 31  1  0  0  0
 16 17  2  0  0  0
 17  1  1  0  0  0
 10  5  1  0  0  0
 17 11  1  0  0  0
 28 23  1  0  0  0
 31 26  1  0  0  0
  8 18  1  0  0  0
 21 22  1  0  0  0
 30 32  1  0  0  0
M  END
> <minimizedAffinity>
-9.78094

> <minimizedRMSD>
0.88155

$$$$
P22249


 42 45  0  0  0  0  0  0  0  0999 V2000
   -7.7590    5.3651  -13.5180 C   0  0  0  0  0  0  0  0  0  0  0  0
   -6.5459    5.7392  -12.9118 O   0  0  0  0  0  0  0  0  0  0  0  0
   -5.9288    4.9912  -12.9347 H   0  0  0  0  0  0  0  0  0  0  0  0
   -5.0791    5.3730  -17.6190 N   0  0  0  0  0  0  0  0  0  0  0  0
   -4.1560    5.5577  -16.5927 C   0  0  0  0  0  0  0  0  0  0  0  0
   -2.9559    5.7640  -16.7214 O   0  0  0  0  0  0  0  0  0  0  0  0
   -4.9571    5.5838  -15.2567 C   0  0  0  0  0  0  0  0  0  0  0  0
   -4.8266    7.0463  -14.7947 C   0  0  0  0  0  0  0  0  0  0  0  0
   -6.3636    5.2191  -15.7208 C   0  0  0  0  0  0  0  0  0  0  0  0
   -6.3391    5.0442  -17.1171 C   0  0  0  0  0  0  0  0  0  0  0  0
   -7.4276    4.5834  -17.8310 C   0  0  0  0  0  0  0  0  0  0  0  0
   -8.5683    4.2722  -17.1123 C   0  0  0  0  0  0  0  0  0  0  0  0
   -9.6372    3.7813  -17.7530 F   0  0  0  0  0  0  0  0  0  0  0  0
   -8.6368    4.4860  -15.7317 C   0  0  0  0  0  0  0  0  0  0  0  0
   -7.5450    4.9994  -14.9933 C   0  0  0  0  0  0  0  0  0  0  0  0
   -3.8011    4.9025  -19.6654 C   0  0  0  0  0  0  0  0  0  0  0  0
   -4.8134    5.7721  -18.9754 C   0  0  0  0  0  0  0  0  0  0  0  0
   -4.5950    4.5456  -14.3677 O   0  0  0  0  0  0  0  0  0  0  0  0
   -3.3874    4.6679  -13.6320 C   0  0  0  0  0  0  0  0  0  0  0  0
   -3.4648    3.6719  -12.4702 C   0  0  0  0  0  0  0  0  0  0  0  0
   -4.8375    3.4731  -12.1054 O   0  0  0  0  0  0  0  0  0  0  0  0
   -4.9572    2.9761  -10.7741 C   0  0  0  0  0  0  0  0  0  0  0  0
   -8.8264    6.6052  -13.4973 C   0  0  0  0  0  0  0  0  0  0  0  0
   -9.9223    6.5331  -13.9059 O   0  0  0  0  0  0  0  0  0  0  0  0
   -8.0777    7.7937  -12.8175 N   0  0  0  0  0  0  0  0  0  0  0  0
   -7.1745    7.5789  -12.4901 H   0  0  0  0  0  0  0  0  0  0  0  0
   -8.4949    9.1577  -12.5907 C   0  0  0  0  0  0  0  0  0  0  0  0
   -9.6666    9.2815  -11.6229 C   0  0  0  0  0  0  0  0  0  0  0  0
   -9.5778   10.4686  -10.9684 F   0  0  0  0  0  0  0  0  0  0  0  0
   -9.5673    8.3128  -10.6733 F   0  0  0  0  0  0  0  0  0  0  0  0
   -8.2855    4.2508  -12.7502 N   0  0  0  0  0  0  0  0  0  0  0  0
   -8.6380    3.4825  -13.2548 H   0  0  0  0  0  0  0  0  0  0  0  0
   -8.3340    4.1769  -11.3598 C   0  0  0  0  0  0  0  0  0  0  0  0
   -8.0835    5.2678  -10.4973 C   0  0  0  0  0  0  0  0  0  0  0  0
   -8.2112    5.1861   -9.1056 C   0  0  0  0  0  0  0  0  0  0  0  0
   -8.6206    3.9901   -8.5701 C   0  0  0  0  0  0  0  0  0  0  0  0
   -8.8669    2.8969   -9.3901 C   0  0  0  0  0  0  0  0  0  0  0  0
   -8.7354    2.9726  -10.7690 C   0  0  0  0  0  0  0  0  0  0  0  0
   -9.2395    1.7379   -8.5305 C   0  0  0  0  0  0  0  0  0  0  0  0
   -9.6422    2.3424   -7.2318 N   0  0  0  0  0  0  0  0  0  0  0  0
   -8.8776    3.6076   -7.1523 C   0  0  0  0  0  0  0  0  0  0  0  0
   -9.3982    1.7255   -6.4570 H   0  0  0  0  0  0  0  0  0  0  0  0
 16 17  1  0  0  0
 17  4  1  0  0  0
  4  5  1  0  0  0
  5  6  2  0  0  0
  5  7  1  0  0  0
  7  8  1  0  0  0
  7 18  1  0  0  0
 18 19  1  0  0  0
 19 20  1  0  0  0
 20 21  1  0  0  0
 21 22  1  0  0  0
  7  9  1  0  0  0
  9 10  2  0  0  0
 10 11  1  0  0  0
 11 12  2  0  0  0
 12 13  1  0  0  0
 12 14  1  0  0  0
 14 15  2  0  0  0
 15  1  1  0  0  0
  1  2  1  0  0  0
  1 31  1  0  0  0
 31 33  1  0  0  0
 33 34  2  0  0  0
 34 35  1  0  0  0
 35 36  2  0  0  0
 36 37  1  0  0  0
 37 38  2  0  0  0
 37 39  1  0  0  0
 39 40  1  0  0  0
 40 41  1  0  0  0
  1 23  1  0  0  0
 23 24  2  0  0  0
 23 25  1  0  0  0
 25 27  1  0  0  0
 27 28  1  0  0  0
 28 29  1  0  0  0
 28 30  1  0  0  0
 10  4  1  0  0  0
 38 33  1  0  0  0
 15  9  1  0  0  0
 41 36  1  0  0  0
  2  3  1  0  0  0
 31 32  1  0  0  0
 40 42  1  0  0  0
 25 26  1  0  0  0
M  END
> <minimizedAffinity>
-7.93055

> <minimizedRMSD>
0.48924

$$$$
P22250


 35 38  0  0  0  0  0  0  0  0999 V2000
   -5.3862    5.2111  -17.4933 N   0  0  0  0  0  0  0  0  0  0  0  0
   -4.7033    5.4558  -16.2937 C   0  0  0  0  0  0  0  0  0  0  0  0
   -3.5278    5.7741  -16.1678 O   0  0  0  0  0  0  0  0  0  0  0  0
   -5.7518    5.3783  -15.1159 C   0  0  0  0  0  0  0  0  0  0  0  0
   -5.7880    6.7808  -14.4948 C   0  0  0  0  0  0  0  0  0  0  0  0
   -7.0123    5.0298  -15.8769 C   0  0  0  0  0  0  0  0  0  0  0  0
   -8.3025    4.7931  -15.4121 C   0  0  0  0  0  0  0  0  0  0  0  0
   -9.2788    4.3487  -16.3040 C   0  0  0  0  0  0  0  0  0  0  0  0
   -8.9655    4.1983  -17.6530 C   0  0  0  0  0  0  0  0  0  0  0  0
   -9.9174    3.7742  -18.4927 F   0  0  0  0  0  0  0  0  0  0  0  0
   -7.6977    4.4925  -18.1435 C   0  0  0  0  0  0  0  0  0  0  0  0
   -6.7299    4.8956  -17.2385 C   0  0  0  0  0  0  0  0  0  0  0  0
   -8.7146    5.1562  -14.0422 C   0  0  0  0  0  0  0  0  0  0  0  0
   -9.4011    6.0906  -13.9121 O   0  0  0  0  0  0  0  0  0  0  0  0
   -8.1745    4.1601  -12.9978 N   0  0  0  0  0  0  0  0  0  0  0  0
   -7.6707    3.4021  -13.3732 H   0  0  0  0  0  0  0  0  0  0  0  0
   -8.2830    4.1573  -11.6077 C   0  0  0  0  0  0  0  0  0  0  0  0
   -8.0206    5.3177  -10.8567 C   0  0  0  0  0  0  0  0  0  0  0  0
   -8.1099    5.3078   -9.4609 C   0  0  0  0  0  0  0  0  0  0  0  0
   -8.5180    4.1405   -8.8462 C   0  0  0  0  0  0  0  0  0  0  0  0
   -8.8008    2.9968   -9.5885 C   0  0  0  0  0  0  0  0  0  0  0  0
   -8.6598    2.9761  -10.9658 C   0  0  0  0  0  0  0  0  0  0  0  0
   -9.2443    1.9151   -8.6588 C   0  0  0  0  0  0  0  0  0  0  0  0
   -9.5724    2.6175   -7.3874 N   0  0  0  0  0  0  0  0  0  0  0  0
   -8.7471    3.8456   -7.4017 C   0  0  0  0  0  0  0  0  0  0  0  0
   -9.3340    2.0351   -6.5846 H   0  0  0  0  0  0  0  0  0  0  0  0
   -4.9370    5.7416  -18.7578 C   0  0  0  0  0  0  0  0  0  0  0  0
   -3.0457    5.8591  -20.2159 C   0  0  0  0  0  0  0  0  0  0  0  0
   -3.7709    5.0311  -19.2588 N   0  0  0  0  0  0  0  0  0  0  0  0
   -3.1556    4.8019  -18.4782 H   0  0  0  0  0  0  0  0  0  0  0  0
   -5.6582    4.3708  -14.1276 O   0  0  0  0  0  0  0  0  0  0  0  0
   -4.6762    4.5646  -13.1149 C   0  0  0  0  0  0  0  0  0  0  0  0
   -4.5988    3.2948  -12.2552 C   0  0  0  0  0  0  0  0  0  0  0  0
   -4.9117    3.5647  -10.8816 O   0  0  0  0  0  0  0  0  0  0  0  0
   -5.0940    2.3868  -10.1104 C   0  0  0  0  0  0  0  0  0  0  0  0
 28 29  1  0  0  0
 29 27  1  0  0  0
 27  1  1  0  0  0
  1  2  1  0  0  0
  2  3  2  0  0  0
  2  4  1  0  0  0
  4  5  1  0  0  0
  4 31  1  0  0  0
 31 32  1  0  0  0
 32 33  1  0  0  0
 33 34  1  0  0  0
 34 35  1  0  0  0
  4  6  1  0  0  0
  6  7  2  0  0  0
  7 13  1  0  0  0
 13 14  2  0  0  0
 13 15  1  0  0  0
 15 17  1  0  0  0
 17 18  2  0  0  0
 18 19  1  0  0  0
 19 20  2  0  0  0
 20 21  1  0  0  0
 21 22  2  0  0  0
 21 23  1  0  0  0
 23 24  1  0  0  0
 24 25  1  0  0  0
  7  8  1  0  0  0
  8  9  2  0  0  0
  9 10  1  0  0  0
  9 11  1  0  0  0
 11 12  2  0  0  0
 12  1  1  0  0  0
 12  6  1  0  0  0
 22 17  1  0  0  0
 25 20  1  0  0  0
 29 30  1  0  0  0
 15 16  1  0  0  0
 24 26  1  0  0  0
M  END
> <minimizedAffinity>
-8.28437

> <minimizedRMSD>
0.94773

$$$$
P22251


 36 39  0  0  0  0  0  0  0  0999 V2000
   -5.4716    5.1887  -17.5249 N   0  0  0  0  0  0  0  0  0  0  0  0
   -4.7588    5.4523  -16.3545 C   0  0  0  0  0  0  0  0  0  0  0  0
   -3.5525    5.6514  -16.2786 O   0  0  0  0  0  0  0  0  0  0  0  0
   -5.7968    5.5122  -15.1734 C   0  0  0  0  0  0  0  0  0  0  0  0
   -5.8427    6.9708  -14.7054 C   0  0  0  0  0  0  0  0  0  0  0  0
   -7.0643    5.0828  -15.8857 C   0  0  0  0  0  0  0  0  0  0  0  0
   -8.3293    4.8122  -15.3732 C   0  0  0  0  0  0  0  0  0  0  0  0
   -9.3033    4.2728  -16.2115 C   0  0  0  0  0  0  0  0  0  0  0  0
   -9.0189    4.0736  -17.5615 C   0  0  0  0  0  0  0  0  0  0  0  0
   -9.9677    3.5561  -18.3512 F   0  0  0  0  0  0  0  0  0  0  0  0
   -7.7813    4.4043  -18.1039 C   0  0  0  0  0  0  0  0  0  0  0  0
   -6.8079    4.8846  -17.2456 C   0  0  0  0  0  0  0  0  0  0  0  0
   -8.7047    5.2143  -14.0050 C   0  0  0  0  0  0  0  0  0  0  0  0
   -9.3307    6.1913  -13.8828 O   0  0  0  0  0  0  0  0  0  0  0  0
   -8.1545    4.2401  -12.9436 N   0  0  0  0  0  0  0  0  0  0  0  0
   -7.5846    3.5210  -13.3003 H   0  0  0  0  0  0  0  0  0  0  0  0
   -8.3328    4.2120  -11.5613 C   0  0  0  0  0  0  0  0  0  0  0  0
   -8.1052    5.3632  -10.7903 C   0  0  0  0  0  0  0  0  0  0  0  0
   -8.1720    5.3100   -9.3960 C   0  0  0  0  0  0  0  0  0  0  0  0
   -7.7268    6.8435   -8.3891 Br  0  0  0  0  0  0  0  0  0  0  0  0
   -8.5296    4.1220   -8.7896 C   0  0  0  0  0  0  0  0  0  0  0  0
   -8.7907    2.9921   -9.5578 C   0  0  0  0  0  0  0  0  0  0  0  0
   -8.6764    3.0107  -10.9407 C   0  0  0  0  0  0  0  0  0  0  0  0
   -9.1324    1.8495   -8.6625 C   0  0  0  0  0  0  0  0  0  0  0  0
   -9.2686    2.4252   -7.3005 N   0  0  0  0  0  0  0  0  0  0  0  0
   -8.6771    3.7791   -7.3471 C   0  0  0  0  0  0  0  0  0  0  0  0
   -8.7699    1.8474   -6.6238 H   0  0  0  0  0  0  0  0  0  0  0  0
   -4.8940    5.2903  -18.8339 C   0  0  0  0  0  0  0  0  0  0  0  0
   -3.1910    6.7174  -19.7329 C   0  0  0  0  0  0  0  0  0  0  0  0
   -4.4318    6.6695  -18.9733 N   0  0  0  0  0  0  0  0  0  0  0  0
   -5.1440    7.2146  -19.4591 H   0  0  0  0  0  0  0  0  0  0  0  0
   -5.6644    4.6076  -14.0930 O   0  0  0  0  0  0  0  0  0  0  0  0
   -4.7183    4.9537  -13.0867 C   0  0  0  0  0  0  0  0  0  0  0  0
   -4.4869    3.7332  -12.1863 C   0  0  0  0  0  0  0  0  0  0  0  0
   -4.8800    3.9952  -10.8327 O   0  0  0  0  0  0  0  0  0  0  0  0
   -5.0494    2.8128  -10.0656 C   0  0  0  0  0  0  0  0  0  0  0  0
 29 30  1  0  0  0
 30 28  1  0  0  0
 28  1  1  0  0  0
  1  2  1  0  0  0
  2  3  2  0  0  0
  2  4  1  0  0  0
  4  5  1  0  0  0
  4 32  1  0  0  0
 32 33  1  0  0  0
 33 34  1  0  0  0
 34 35  1  0  0  0
 35 36  1  0  0  0
  4  6  1  0  0  0
  6  7  2  0  0  0
  7 13  1  0  0  0
 13 14  2  0  0  0
 13 15  1  0  0  0
 15 17  1  0  0  0
 17 18  2  0  0  0
 18 19  1  0  0  0
 19 20  1  0  0  0
 19 21  2  0  0  0
 21 22  1  0  0  0
 22 23  2  0  0  0
 22 24  1  0  0  0
 24 25  1  0  0  0
 25 26  1  0  0  0
  7  8  1  0  0  0
  8  9  2  0  0  0
  9 10  1  0  0  0
  9 11  1  0  0  0
 11 12  2  0  0  0
 12  1  1  0  0  0
 12  6  1  0  0  0
 23 17  1  0  0  0
 26 21  1  0  0  0
 30 31  1  0  0  0
 15 16  1  0  0  0
 25 27  1  0  0  0
M  END
> <minimizedAffinity>
-8.04278

> <minimizedRMSD>
0.90066

$$$$
P22253


 37 40  0  0  0  0  0  0  0  0999 V2000
   -5.0946    5.1158  -17.6370 N   0  0  0  0  0  0  0  0  0  0  0  0
   -4.4052    5.2602  -16.4297 C   0  0  0  0  0  0  0  0  0  0  0  0
   -3.1941    5.4044  -16.3088 O   0  0  0  0  0  0  0  0  0  0  0  0
   -5.4472    5.2352  -15.2660 C   0  0  0  0  0  0  0  0  0  0  0  0
   -5.1517    4.0447  -14.3466 C   0  0  0  0  0  0  0  0  0  0  0  0
   -6.7345    5.0039  -16.0288 C   0  0  0  0  0  0  0  0  0  0  0  0
   -8.0396    4.9038  -15.5505 C   0  0  0  0  0  0  0  0  0  0  0  0
   -9.0538    4.5662  -16.4399 C   0  0  0  0  0  0  0  0  0  0  0  0
   -8.7636    4.3981  -17.7948 C   0  0  0  0  0  0  0  0  0  0  0  0
   -9.7675    4.0697  -18.6191 F   0  0  0  0  0  0  0  0  0  0  0  0
   -7.4752    4.5855  -18.3021 C   0  0  0  0  0  0  0  0  0  0  0  0
   -6.4644    4.8832  -17.4016 C   0  0  0  0  0  0  0  0  0  0  0  0
   -8.3998    5.3619  -14.1882 C   0  0  0  0  0  0  0  0  0  0  0  0
   -8.7908    6.4558  -14.0737 O   0  0  0  0  0  0  0  0  0  0  0  0
   -8.1374    4.2757  -13.1219 N   0  0  0  0  0  0  0  0  0  0  0  0
   -7.8779    3.3975  -13.4833 H   0  0  0  0  0  0  0  0  0  0  0  0
   -8.2086    4.3368  -11.7274 C   0  0  0  0  0  0  0  0  0  0  0  0
   -7.8666    5.5180  -11.0473 C   0  0  0  0  0  0  0  0  0  0  0  0
   -7.9066    5.5740   -9.6538 C   0  0  0  0  0  0  0  0  0  0  0  0
   -7.5663    6.7081   -9.0279 F   0  0  0  0  0  0  0  0  0  0  0  0
   -8.3005    4.4541   -8.9604 C   0  0  0  0  0  0  0  0  0  0  0  0
   -8.6430    3.2731   -9.6151 C   0  0  0  0  0  0  0  0  0  0  0  0
   -8.5927    3.2010  -11.0036 C   0  0  0  0  0  0  0  0  0  0  0  0
   -8.9964    2.2286   -8.6074 C   0  0  0  0  0  0  0  0  0  0  0  0
   -8.8949    2.9477   -7.3570 N   0  0  0  0  0  0  0  0  0  0  0  0
   -8.4442    4.2400   -7.5182 C   0  0  0  0  0  0  0  0  0  0  0  0
   -8.2109    5.0456   -6.6389 O   0  0  0  0  0  0  0  0  0  0  0  0
   -9.1235    2.5558   -6.4834 H   0  0  0  0  0  0  0  0  0  0  0  0
   -4.4279    5.0487  -18.9196 C   0  0  0  0  0  0  0  0  0  0  0  0
   -4.9198    7.1474  -20.0208 C   0  0  0  0  0  0  0  0  0  0  0  0
   -3.9232    6.3693  -19.3010 N   0  0  0  0  0  0  0  0  0  0  0  0
   -3.6565    6.8761  -18.4570 H   0  0  0  0  0  0  0  0  0  0  0  0
   -5.5930    6.4454  -14.5519 O   0  0  0  0  0  0  0  0  0  0  0  0
   -4.4707    6.8667  -13.7789 C   0  0  0  0  0  0  0  0  0  0  0  0
   -4.9364    7.1393  -12.3483 C   0  0  0  0  0  0  0  0  0  0  0  0
   -4.4594    6.0939  -11.4919 O   0  0  0  0  0  0  0  0  0  0  0  0
   -4.2856    6.5541  -10.1570 C   0  0  0  0  0  0  0  0  0  0  0  0
 30 31  1  0  0  0
 31 29  1  0  0  0
 29  1  1  0  0  0
  1  2  1  0  0  0
  2  3  2  0  0  0
  2  4  1  0  0  0
  4  5  1  0  0  0
  4 33  1  0  0  0
 33 34  1  0  0  0
 34 35  1  0  0  0
 35 36  1  0  0  0
 36 37  1  0  0  0
  4  6  1  0  0  0
  6  7  2  0  0  0
  7 13  1  0  0  0
 13 14  2  0  0  0
 13 15  1  0  0  0
 15 17  1  0  0  0
 17 18  2  0  0  0
 18 19  1  0  0  0
 19 20  1  0  0  0
 19 21  2  0  0  0
 21 22  1  0  0  0
 22 23  2  0  0  0
 22 24  1  0  0  0
 24 25  1  0  0  0
 25 26  1  0  0  0
 26 27  2  0  0  0
  7  8  1  0  0  0
  8  9  2  0  0  0
  9 10  1  0  0  0
  9 11  1  0  0  0
 11 12  2  0  0  0
 12  1  1  0  0  0
 12  6  1  0  0  0
 23 17  1  0  0  0
 26 21  1  0  0  0
 31 32  1  0  0  0
 15 16  1  0  0  0
 25 28  1  0  0  0
M  END
> <minimizedAffinity>
-7.28444

> <minimizedRMSD>
0.61268

$$$$
P22255


 35 38  0  0  0  0  0  0  0  0999 V2000
   -5.6947    5.3179  -17.5603 N   0  0  0  0  0  0  0  0  0  0  0  0
   -4.9186    5.6188  -16.4324 C   0  0  0  0  0  0  0  0  0  0  0  0
   -3.7766    6.0628  -16.4300 O   0  0  0  0  0  0  0  0  0  0  0  0
   -5.8033    5.3589  -15.1638 C   0  0  0  0  0  0  0  0  0  0  0  0
   -5.2387    4.1899  -14.3546 C   0  0  0  0  0  0  0  0  0  0  0  0
   -7.1224    4.9665  -15.8049 C   0  0  0  0  0  0  0  0  0  0  0  0
   -8.3764    4.7521  -15.2403 C   0  0  0  0  0  0  0  0  0  0  0  0
   -9.4313    4.3301  -16.0524 C   0  0  0  0  0  0  0  0  0  0  0  0
   -9.2282    4.1750  -17.4231 C   0  0  0  0  0  0  0  0  0  0  0  0
  -10.2531    3.7804  -18.1881 F   0  0  0  0  0  0  0  0  0  0  0  0
   -8.0065    4.4752  -18.0166 C   0  0  0  0  0  0  0  0  0  0  0  0
   -6.9722    4.8820  -17.1919 C   0  0  0  0  0  0  0  0  0  0  0  0
   -8.6915    5.1875  -13.8643 C   0  0  0  0  0  0  0  0  0  0  0  0
   -9.1633    6.2442  -13.7170 O   0  0  0  0  0  0  0  0  0  0  0  0
   -8.3510    4.0932  -12.8348 N   0  0  0  0  0  0  0  0  0  0  0  0
   -8.0258    3.2490  -13.2231 H   0  0  0  0  0  0  0  0  0  0  0  0
   -8.4283    4.1035  -11.4453 C   0  0  0  0  0  0  0  0  0  0  0  0
   -8.2110    5.2906  -10.7242 C   0  0  0  0  0  0  0  0  0  0  0  0
   -8.2661    5.3044   -9.3274 C   0  0  0  0  0  0  0  0  0  0  0  0
   -8.5742    4.1247   -8.6776 C   0  0  0  0  0  0  0  0  0  0  0  0
   -8.8044    2.9534   -9.3908 C   0  0  0  0  0  0  0  0  0  0  0  0
   -8.7139    2.9157  -10.7729 C   0  0  0  0  0  0  0  0  0  0  0  0
   -9.0968    1.8458   -8.4377 C   0  0  0  0  0  0  0  0  0  0  0  0
   -9.2822    2.4933   -7.1123 N   0  0  0  0  0  0  0  0  0  0  0  0
   -8.7024    3.8475   -7.2189 C   0  0  0  0  0  0  0  0  0  0  0  0
   -8.7995    1.9598   -6.3893 H   0  0  0  0  0  0  0  0  0  0  0  0
   -5.3623    5.8305  -18.8596 C   0  0  0  0  0  0  0  0  0  0  0  0
   -3.2828    5.6843  -19.9935 C   0  0  0  0  0  0  0  0  0  0  0  0
   -4.4333    4.9294  -19.5157 N   0  0  0  0  0  0  0  0  0  0  0  0
   -4.1228    4.2190  -18.8529 H   0  0  0  0  0  0  0  0  0  0  0  0
   -6.0367    6.5009  -14.3644 O   0  0  0  0  0  0  0  0  0  0  0  0
   -4.9688    6.9234  -13.5173 C   0  0  0  0  0  0  0  0  0  0  0  0
   -5.5283    7.1606  -12.1145 C   0  0  0  0  0  0  0  0  0  0  0  0
   -4.9042    6.2553  -11.1964 O   0  0  0  0  0  0  0  0  0  0  0  0
   -4.8039    6.8197   -9.8956 C   0  0  0  0  0  0  0  0  0  0  0  0
 28 29  1  0  0  0
 29 27  1  0  0  0
 27  1  1  0  0  0
  1  2  1  0  0  0
  2  3  2  0  0  0
  2  4  1  0  0  0
  4  5  1  0  0  0
  4 31  1  0  0  0
 31 32  1  0  0  0
 32 33  1  0  0  0
 33 34  1  0  0  0
 34 35  1  0  0  0
  4  6  1  0  0  0
  6  7  2  0  0  0
  7 13  1  0  0  0
 13 14  2  0  0  0
 13 15  1  0  0  0
 15 17  1  0  0  0
 17 18  2  0  0  0
 18 19  1  0  0  0
 19 20  2  0  0  0
 20 21  1  0  0  0
 21 22  2  0  0  0
 21 23  1  0  0  0
 23 24  1  0  0  0
 24 25  1  0  0  0
  7  8  1  0  0  0
  8  9  2  0  0  0
  9 10  1  0  0  0
  9 11  1  0  0  0
 11 12  2  0  0  0
 12  1  1  0  0  0
 12  6  1  0  0  0
 22 17  1  0  0  0
 25 20  1  0  0  0
 29 30  1  0  0  0
 15 16  1  0  0  0
 24 26  1  0  0  0
M  END
> <minimizedAffinity>
-7.47752

> <minimizedRMSD>
0.58952

$$$$
P22256


 35 38  0  0  0  0  0  0  0  0999 V2000
   -5.4486    5.4666  -17.4848 N   0  0  0  0  0  0  0  0  0  0  0  0
   -4.8081    5.7819  -16.2741 C   0  0  0  0  0  0  0  0  0  0  0  0
   -3.7086    6.3058  -16.1434 O   0  0  0  0  0  0  0  0  0  0  0  0
   -5.7851    5.4118  -15.1054 C   0  0  0  0  0  0  0  0  0  0  0  0
   -5.2310    4.2162  -14.3261 C   0  0  0  0  0  0  0  0  0  0  0  0
   -7.0186    5.0027  -15.8883 C   0  0  0  0  0  0  0  0  0  0  0  0
   -8.3143    4.7416  -15.4611 C   0  0  0  0  0  0  0  0  0  0  0  0
   -9.2797    4.3063  -16.3690 C   0  0  0  0  0  0  0  0  0  0  0  0
   -8.9448    4.1981  -17.7146 C   0  0  0  0  0  0  0  0  0  0  0  0
   -9.8811    3.7883  -18.5782 F   0  0  0  0  0  0  0  0  0  0  0  0
   -7.6816    4.5556  -18.1796 C   0  0  0  0  0  0  0  0  0  0  0  0
   -6.7385    4.9700  -17.2526 C   0  0  0  0  0  0  0  0  0  0  0  0
   -8.7550    5.1150  -14.1112 C   0  0  0  0  0  0  0  0  0  0  0  0
   -9.4465    6.0429  -13.9803 O   0  0  0  0  0  0  0  0  0  0  0  0
   -8.1984    4.1343  -13.0710 N   0  0  0  0  0  0  0  0  0  0  0  0
   -7.6922    3.3783  -13.4471 H   0  0  0  0  0  0  0  0  0  0  0  0
   -8.2916    4.1391  -11.6903 C   0  0  0  0  0  0  0  0  0  0  0  0
   -8.0993    5.3309  -10.9663 C   0  0  0  0  0  0  0  0  0  0  0  0
   -8.2229    5.3549   -9.5778 C   0  0  0  0  0  0  0  0  0  0  0  0
   -8.5885    4.1816   -8.9556 C   0  0  0  0  0  0  0  0  0  0  0  0
   -8.7858    3.0018   -9.6811 C   0  0  0  0  0  0  0  0  0  0  0  0
   -8.6039    2.9480  -11.0448 C   0  0  0  0  0  0  0  0  0  0  0  0
   -9.2420    1.9314   -8.7478 C   0  0  0  0  0  0  0  0  0  0  0  0
   -9.7429    2.7093   -7.5925 N   0  0  0  0  0  0  0  0  0  0  0  0
   -9.7172    1.9299   -6.3831 C   0  0  0  0  0  0  0  0  0  0  0  0
   -8.8923    3.9103   -7.5189 C   0  0  0  0  0  0  0  0  0  0  0  0
   -5.0697    6.1271  -18.7021 C   0  0  0  0  0  0  0  0  0  0  0  0
   -3.2139    4.9950  -19.6368 C   0  0  0  0  0  0  0  0  0  0  0  0
   -4.6639    5.1487  -19.6965 N   0  0  0  0  0  0  0  0  0  0  0  0
   -5.1123    4.2537  -19.5005 H   0  0  0  0  0  0  0  0  0  0  0  0
   -6.1490    6.4757  -14.2501 O   0  0  0  0  0  0  0  0  0  0  0  0
   -5.0864    7.1801  -13.6088 C   0  0  0  0  0  0  0  0  0  0  0  0
   -5.4021    7.2868  -12.1159 C   0  0  0  0  0  0  0  0  0  0  0  0
   -4.7259    6.2387  -11.4109 O   0  0  0  0  0  0  0  0  0  0  0  0
   -4.6056    6.5356  -10.0256 C   0  0  0  0  0  0  0  0  0  0  0  0
 28 29  1  0  0  0
 29 27  1  0  0  0
 27  1  1  0  0  0
  1  2  1  0  0  0
  2  3  2  0  0  0
  2  4  1  0  0  0
  4  5  1  0  0  0
  4 31  1  0  0  0
 31 32  1  0  0  0
 32 33  1  0  0  0
 33 34  1  0  0  0
 34 35  1  0  0  0
  4  6  1  0  0  0
  6  7  2  0  0  0
  7 13  1  0  0  0
 13 14  2  0  0  0
 13 15  1  0  0  0
 15 17  1  0  0  0
 17 18  2  0  0  0
 18 19  1  0  0  0
 19 20  2  0  0  0
 20 21  1  0  0  0
 21 22  2  0  0  0
 21 23  1  0  0  0
 23 24  1  0  0  0
 24 25  1  0  0  0
 24 26  1  0  0  0
  7  8  1  0  0  0
  8  9  2  0  0  0
  9 10  1  0  0  0
  9 11  1  0  0  0
 11 12  2  0  0  0
 12  1  1  0  0  0
 12  6  1  0  0  0
 22 17  1  0  0  0
 26 20  1  0  0  0
 29 30  1  0  0  0
 15 16  1  0  0  0
M  END
> <minimizedAffinity>
-7.87405

> <minimizedRMSD>
0.66663

$$$$
P22257


 36 39  0  0  0  0  0  0  0  0999 V2000
   -5.2930    5.3946  -17.2843 N   0  0  0  0  0  0  0  0  0  0  0  0
   -4.7420    5.8107  -16.0721 C   0  0  0  0  0  0  0  0  0  0  0  0
   -3.5788    6.1427  -15.8804 O   0  0  0  0  0  0  0  0  0  0  0  0
   -5.8632    5.7197  -14.9861 C   0  0  0  0  0  0  0  0  0  0  0  0
   -5.4464    4.6911  -13.9290 C   0  0  0  0  0  0  0  0  0  0  0  0
   -7.0308    5.1992  -15.8016 C   0  0  0  0  0  0  0  0  0  0  0  0
   -8.3270    4.8763  -15.4079 C   0  0  0  0  0  0  0  0  0  0  0  0
   -9.2087    4.3222  -16.3348 C   0  0  0  0  0  0  0  0  0  0  0  0
   -8.7953    4.1454  -17.6540 C   0  0  0  0  0  0  0  0  0  0  0  0
   -9.6640    3.6281  -18.5326 F   0  0  0  0  0  0  0  0  0  0  0  0
   -7.5138    4.5008  -18.0747 C   0  0  0  0  0  0  0  0  0  0  0  0
   -6.6366    5.0138  -17.1310 C   0  0  0  0  0  0  0  0  0  0  0  0
   -8.8321    5.2025  -14.0609 C   0  0  0  0  0  0  0  0  0  0  0  0
   -9.5623    6.1038  -13.9413 O   0  0  0  0  0  0  0  0  0  0  0  0
   -8.2533    4.2364  -13.0051 N   0  0  0  0  0  0  0  0  0  0  0  0
   -7.7115    3.5011  -13.3725 H   0  0  0  0  0  0  0  0  0  0  0  0
   -8.3734    4.2356  -11.6108 C   0  0  0  0  0  0  0  0  0  0  0  0
   -8.6400    3.0108  -10.9859 C   0  0  0  0  0  0  0  0  0  0  0  0
   -8.7577    2.9804   -9.6031 C   0  0  0  0  0  0  0  0  0  0  0  0
   -8.5756    4.1224   -8.8324 C   0  0  0  0  0  0  0  0  0  0  0  0
   -8.2868    5.3353   -9.4235 C   0  0  0  0  0  0  0  0  0  0  0  0
   -8.2039    5.3862  -10.8161 C   0  0  0  0  0  0  0  0  0  0  0  0
   -7.9142    6.5763  -11.3567 F   0  0  0  0  0  0  0  0  0  0  0  0
   -8.7275    3.7801   -7.3906 C   0  0  0  0  0  0  0  0  0  0  0  0
   -9.2714    2.4089   -7.3590 N   0  0  0  0  0  0  0  0  0  0  0  0
   -9.0378    1.8226   -8.7044 C   0  0  0  0  0  0  0  0  0  0  0  0
  -10.2705    2.4321   -7.1549 H   0  0  0  0  0  0  0  0  0  0  0  0
   -4.4584    5.1082  -18.4108 C   0  0  0  0  0  0  0  0  0  0  0  0
   -4.8916    6.7603  -20.0708 C   0  0  0  0  0  0  0  0  0  0  0  0
   -3.9667    6.3173  -19.0412 N   0  0  0  0  0  0  0  0  0  0  0  0
   -3.8711    7.0491  -18.3371 H   0  0  0  0  0  0  0  0  0  0  0  0
   -6.2526    6.9625  -14.4384 O   0  0  0  0  0  0  0  0  0  0  0  0
   -5.1943    7.8276  -14.0261 C   0  0  0  0  0  0  0  0  0  0  0  0
   -5.4366    8.2695  -12.5834 C   0  0  0  0  0  0  0  0  0  0  0  0
   -4.8554    7.3166  -11.6858 O   0  0  0  0  0  0  0  0  0  0  0  0
   -4.9755    7.7436  -10.3349 C   0  0  0  0  0  0  0  0  0  0  0  0
 29 30  1  0  0  0
 30 28  1  0  0  0
 28  1  1  0  0  0
  1  2  1  0  0  0
  2  3  2  0  0  0
  2  4  1  0  0  0
  4  5  1  0  0  0
  4 32  1  0  0  0
 32 33  1  0  0  0
 33 34  1  0  0  0
 34 35  1  0  0  0
 35 36  1  0  0  0
  4  6  1  0  0  0
  6  7  2  0  0  0
  7 13  1  0  0  0
 13 14  2  0  0  0
 13 15  1  0  0  0
 15 17  1  0  0  0
 17 18  2  0  0  0
 18 19  1  0  0  0
 19 20  2  0  0  0
 20 21  1  0  0  0
 21 22  2  0  0  0
 22 23  1  0  0  0
 20 24  1  0  0  0
 24 25  1  0  0  0
 25 26  1  0  0  0
  7  8  1  0  0  0
  8  9  2  0  0  0
  9 10  1  0  0  0
  9 11  1  0  0  0
 11 12  2  0  0  0
 12  1  1  0  0  0
 12  6  1  0  0  0
 22 17  1  0  0  0
 26 19  1  0  0  0
 30 31  1  0  0  0
 15 16  1  0  0  0
 25 27  1  0  0  0
M  END
> <minimizedAffinity>
-7.63713

> <minimizedRMSD>
0.55196

$$$$
P22258


 40 44  0  0  0  0  0  0  0  0999 V2000
   -5.0148    5.2779  -16.8638 N   0  0  0  0  0  0  0  0  0  0  0  0
   -4.5308    5.6475  -15.6007 C   0  0  0  0  0  0  0  0  0  0  0  0
   -3.4435    6.1486  -15.3424 O   0  0  0  0  0  0  0  0  0  0  0  0
   -5.6542    5.3471  -14.5590 C   0  0  0  0  0  0  0  0  0  0  0  0
   -5.2697    4.1318  -13.7098 C   0  0  0  0  0  0  0  0  0  0  0  0
   -6.8157    4.9920  -15.4678 C   0  0  0  0  0  0  0  0  0  0  0  0
   -8.1548    4.7550  -15.1619 C   0  0  0  0  0  0  0  0  0  0  0  0
   -9.0297    4.3923  -16.1859 C   0  0  0  0  0  0  0  0  0  0  0  0
   -8.5639    4.3162  -17.4998 C   0  0  0  0  0  0  0  0  0  0  0  0
   -9.4283    3.9829  -18.4675 F   0  0  0  0  0  0  0  0  0  0  0  0
   -7.2399    4.6047  -17.8289 C   0  0  0  0  0  0  0  0  0  0  0  0
   -6.3746    4.9327  -16.7977 C   0  0  0  0  0  0  0  0  0  0  0  0
   -8.7229    5.0642  -13.8299 C   0  0  0  0  0  0  0  0  0  0  0  0
   -9.4753    5.9528  -13.7493 O   0  0  0  0  0  0  0  0  0  0  0  0
   -8.1759    4.1137  -12.7424 N   0  0  0  0  0  0  0  0  0  0  0  0
   -7.6038    3.3871  -13.0800 H   0  0  0  0  0  0  0  0  0  0  0  0
   -8.3609    4.1171  -11.3580 C   0  0  0  0  0  0  0  0  0  0  0  0
   -8.2433    5.3056  -10.6242 C   0  0  0  0  0  0  0  0  0  0  0  0
   -8.3881    5.2968   -9.2365 C   0  0  0  0  0  0  0  0  0  0  0  0
   -8.2453    6.4404   -8.5539 F   0  0  0  0  0  0  0  0  0  0  0  0
   -8.6802    4.1196   -8.5786 C   0  0  0  0  0  0  0  0  0  0  0  0
   -8.8088    2.9447   -9.3137 C   0  0  0  0  0  0  0  0  0  0  0  0
   -8.6427    2.9190  -10.6966 C   0  0  0  0  0  0  0  0  0  0  0  0
   -9.0949    1.8088   -8.3922 C   0  0  0  0  0  0  0  0  0  0  0  0
   -9.0275    2.3685   -7.0265 N   0  0  0  0  0  0  0  0  0  0  0  0
   -8.8236    3.8297   -7.1182 C   0  0  0  0  0  0  0  0  0  0  0  0
   -9.9488    4.5378   -6.3532 C   0  0  0  0  0  0  0  0  0  0  0  0
   -9.5636    4.4568   -4.8731 C   0  0  0  0  0  0  0  0  0  0  0  0
   -8.0563    4.2175   -4.8434 C   0  0  0  0  0  0  0  0  0  0  0  0
   -7.6099    4.3043   -6.2973 C   0  0  0  0  0  0  0  0  0  0  0  0
   -8.2493    1.9452   -6.5209 H   0  0  0  0  0  0  0  0  0  0  0  0
   -4.2857    5.5733  -18.0657 C   0  0  0  0  0  0  0  0  0  0  0  0
   -2.5354    4.5212  -19.3273 C   0  0  0  0  0  0  0  0  0  0  0  0
   -3.0367    4.8354  -18.0065 N   0  0  0  0  0  0  0  0  0  0  0  0
   -2.3430    5.3993  -17.5155 H   0  0  0  0  0  0  0  0  0  0  0  0
   -6.0329    6.4579  -13.7726 O   0  0  0  0  0  0  0  0  0  0  0  0
   -5.4046    6.5697  -12.4948 C   0  0  0  0  0  0  0  0  0  0  0  0
   -5.8528    7.8769  -11.8455 C   0  0  0  0  0  0  0  0  0  0  0  0
   -5.7087    7.7692  -10.4245 O   0  0  0  0  0  0  0  0  0  0  0  0
   -6.2925    8.8812   -9.7582 C   0  0  0  0  0  0  0  0  0  0  0  0
 33 34  1  0  0  0
 34 32  1  0  0  0
 32  1  1  0  0  0
  1  2  1  0  0  0
  2  3  2  0  0  0
  2  4  1  0  0  0
  4  5  1  0  0  0
  4 36  1  0  0  0
 36 37  1  0  0  0
 37 38  1  0  0  0
 38 39  1  0  0  0
 39 40  1  0  0  0
  4  6  1  0  0  0
  6  7  2  0  0  0
  7 13  1  0  0  0
 13 14  2  0  0  0
 13 15  1  0  0  0
 15 17  1  0  0  0
 17 18  2  0  0  0
 18 19  1  0  0  0
 19 20  1  0  0  0
 19 21  2  0  0  0
 21 22  1  0  0  0
 22 23  2  0  0  0
 22 24  1  0  0  0
 24 25  1  0  0  0
 25 26  1  0  0  0
 26 27  1  0  0  0
 27 28  1  0  0  0
 28 29  1  0  0  0
 29 30  1  0  0  0
  7  8  1  0  0  0
  8  9  2  0  0  0
  9 10  1  0  0  0
  9 11  1  0  0  0
 11 12  2  0  0  0
 12  1  1  0  0  0
 12  6  1  0  0  0
 23 17  1  0  0  0
 30 26  1  0  0  0
 26 21  1  0  0  0
 34 35  1  0  0  0
 15 16  1  0  0  0
 25 31  1  0  0  0
M  END
> <minimizedAffinity>
-8.48890

> <minimizedRMSD>
0.77232

$$$$
P22259


 37 40  0  0  0  0  0  0  0  0999 V2000
   -5.2427    5.4866  -17.0910 N   0  0  0  0  0  0  0  0  0  0  0  0
   -4.6206    5.5912  -15.8450 C   0  0  0  0  0  0  0  0  0  0  0  0
   -3.4795    5.9806  -15.6305 O   0  0  0  0  0  0  0  0  0  0  0  0
   -5.6804    5.2096  -14.7682 C   0  0  0  0  0  0  0  0  0  0  0  0
   -5.2323    3.9664  -14.0016 C   0  0  0  0  0  0  0  0  0  0  0  0
   -6.8890    4.9019  -15.6345 C   0  0  0  0  0  0  0  0  0  0  0  0
   -8.2110    4.6407  -15.2923 C   0  0  0  0  0  0  0  0  0  0  0  0
   -9.1301    4.2882  -16.2817 C   0  0  0  0  0  0  0  0  0  0  0  0
   -8.7277    4.2766  -17.6142 C   0  0  0  0  0  0  0  0  0  0  0  0
   -9.6128    3.9428  -18.5623 F   0  0  0  0  0  0  0  0  0  0  0  0
   -7.4506    4.6849  -17.9847 C   0  0  0  0  0  0  0  0  0  0  0  0
   -6.5473    4.9960  -16.9803 C   0  0  0  0  0  0  0  0  0  0  0  0
   -8.7182    4.9987  -13.9580 C   0  0  0  0  0  0  0  0  0  0  0  0
   -9.4236    5.9220  -13.8718 O   0  0  0  0  0  0  0  0  0  0  0  0
   -8.1147    4.1008  -12.8675 N   0  0  0  0  0  0  0  0  0  0  0  0
   -7.4804    3.4232  -13.1959 H   0  0  0  0  0  0  0  0  0  0  0  0
   -8.3176    4.0891  -11.4962 C   0  0  0  0  0  0  0  0  0  0  0  0
   -8.1892    5.2844  -10.7655 C   0  0  0  0  0  0  0  0  0  0  0  0
   -8.3379    5.2931   -9.3760 C   0  0  0  0  0  0  0  0  0  0  0  0
   -8.7003    4.1117   -8.7585 C   0  0  0  0  0  0  0  0  0  0  0  0
   -8.8219    2.9296   -9.4898 C   0  0  0  0  0  0  0  0  0  0  0  0
   -8.6008    2.8886  -10.8539 C   0  0  0  0  0  0  0  0  0  0  0  0
   -9.1348    1.8163   -8.5499 C   0  0  0  0  0  0  0  0  0  0  0  0
   -9.6291    2.4907   -7.3239 N   0  0  0  0  0  0  0  0  0  0  0  0
   -8.9781    3.8184   -7.3210 C   0  0  0  0  0  0  0  0  0  0  0  0
   -9.3647    1.9611   -6.4932 H   0  0  0  0  0  0  0  0  0  0  0  0
   -8.0661    6.4783   -8.6237 C   0  0  0  0  0  0  0  0  0  0  0  0
   -7.7911    7.4235   -8.0084 N   0  0  0  0  0  0  0  0  0  0  0  0
   -4.7337    6.2037  -18.2137 C   0  0  0  0  0  0  0  0  0  0  0  0
   -3.3904    4.9713  -19.7057 C   0  0  0  0  0  0  0  0  0  0  0  0
   -3.3972    5.7605  -18.4994 N   0  0  0  0  0  0  0  0  0  0  0  0
   -2.7908    6.5714  -18.6222 H   0  0  0  0  0  0  0  0  0  0  0  0
   -6.0220    6.2753  -13.9069 O   0  0  0  0  0  0  0  0  0  0  0  0
   -4.9517    6.8740  -13.1777 C   0  0  0  0  0  0  0  0  0  0  0  0
   -5.3529    6.9368  -11.7071 C   0  0  0  0  0  0  0  0  0  0  0  0
   -4.7541    5.8361  -11.0129 O   0  0  0  0  0  0  0  0  0  0  0  0
   -4.4941    6.1628   -9.6538 C   0  0  0  0  0  0  0  0  0  0  0  0
 30 31  1  0  0  0
 31 29  1  0  0  0
 29  1  1  0  0  0
  1  2  1  0  0  0
  2  3  2  0  0  0
  2  4  1  0  0  0
  4  5  1  0  0  0
  4 33  1  0  0  0
 33 34  1  0  0  0
 34 35  1  0  0  0
 35 36  1  0  0  0
 36 37  1  0  0  0
  4  6  1  0  0  0
  6  7  2  0  0  0
  7 13  1  0  0  0
 13 14  2  0  0  0
 13 15  1  0  0  0
 15 17  1  0  0  0
 17 18  2  0  0  0
 18 19  1  0  0  0
 19 27  1  0  0  0
 27 28  3  0  0  0
 19 20  2  0  0  0
 20 21  1  0  0  0
 21 22  2  0  0  0
 21 23  1  0  0  0
 23 24  1  0  0  0
 24 25  1  0  0  0
  7  8  1  0  0  0
  8  9  2  0  0  0
  9 10  1  0  0  0
  9 11  1  0  0  0
 11 12  2  0  0  0
 12  1  1  0  0  0
 12  6  1  0  0  0
 22 17  1  0  0  0
 25 20  1  0  0  0
 31 32  1  0  0  0
 15 16  1  0  0  0
 24 26  1  0  0  0
M  END
> <minimizedAffinity>
-7.54220

> <minimizedRMSD>
0.85504

$$$$
P22260


 39 44  0  0  0  0  0  0  0  0999 V2000
   -6.0338    6.0642  -15.4073 C   0  0  0  0  0  0  0  0  0  0  0  0
   -5.0338    5.0403  -14.8636 C   0  0  0  0  0  0  0  0  0  0  0  0
   -7.2097    5.3398  -16.0706 C   0  0  0  0  0  0  0  0  0  0  0  0
   -8.3748    4.8199  -15.5025 C   0  0  0  0  0  0  0  0  0  0  0  0
   -9.2882    4.1343  -16.3082 C   0  0  0  0  0  0  0  0  0  0  0  0
   -9.0463    4.0081  -17.6748 C   0  0  0  0  0  0  0  0  0  0  0  0
   -9.9444    3.3611  -18.4293 F   0  0  0  0  0  0  0  0  0  0  0  0
   -7.9282    4.5866  -18.2752 C   0  0  0  0  0  0  0  0  0  0  0  0
   -7.0205    5.2693  -17.4745 C   0  0  0  0  0  0  0  0  0  0  0  0
   -5.7787    6.0430  -17.8812 C   0  0  0  0  0  0  0  0  0  0  0  0
   -4.6026    5.1387  -18.2113 C   0  0  0  0  0  0  0  0  0  0  0  0
   -4.7380    4.9257  -19.6477 N   0  0  0  0  0  0  0  0  0  0  0  0
   -5.1008    6.2071  -20.1866 N   0  0  0  0  0  0  0  0  0  0  0  0
   -5.8074    6.9442  -19.1205 C   0  0  0  0  0  0  0  0  0  0  0  0
   -5.0811    8.3011  -18.8548 C   0  0  0  0  0  0  0  0  0  0  0  0
   -4.0237    8.2691  -17.8016 N   0  0  0  0  0  0  0  0  0  0  0  0
   -4.3138    7.5946  -16.7387 C   0  0  0  0  0  0  0  0  0  0  0  0
   -5.6331    6.9040  -16.6243 C   0  0  0  0  0  0  0  0  0  0  0  0
   -5.4661    4.2378  -19.8401 H   0  0  0  0  0  0  0  0  0  0  0  0
   -5.7134    6.0864  -20.9932 H   0  0  0  0  0  0  0  0  0  0  0  0
   -8.8107    5.1708  -14.1336 C   0  0  0  0  0  0  0  0  0  0  0  0
   -9.5698    6.0485  -14.0056 O   0  0  0  0  0  0  0  0  0  0  0  0
   -8.1870    4.2271  -13.0850 N   0  0  0  0  0  0  0  0  0  0  0  0
   -7.6257    3.5096  -13.4583 H   0  0  0  0  0  0  0  0  0  0  0  0
   -8.2885    4.2248  -11.6966 C   0  0  0  0  0  0  0  0  0  0  0  0
   -8.0684    5.4065  -10.9665 C   0  0  0  0  0  0  0  0  0  0  0  0
   -8.1574    5.4198   -9.5720 C   0  0  0  0  0  0  0  0  0  0  0  0
   -8.5141    4.2476   -8.9366 C   0  0  0  0  0  0  0  0  0  0  0  0
   -8.7464    3.0784   -9.6581 C   0  0  0  0  0  0  0  0  0  0  0  0
   -8.6101    3.0381  -11.0360 C   0  0  0  0  0  0  0  0  0  0  0  0
   -9.1154    1.9907   -8.7040 C   0  0  0  0  0  0  0  0  0  0  0  0
   -9.4649    2.6950   -7.4392 N   0  0  0  0  0  0  0  0  0  0  0  0
   -8.7140    3.9684   -7.4851 C   0  0  0  0  0  0  0  0  0  0  0  0
   -9.1810    2.1412   -6.6311 H   0  0  0  0  0  0  0  0  0  0  0  0
   -6.5165    6.8795  -14.3545 O   0  0  0  0  0  0  0  0  0  0  0  0
   -5.6125    7.8207  -13.7821 C   0  0  0  0  0  0  0  0  0  0  0  0
   -5.7498    7.7659  -12.2642 C   0  0  0  0  0  0  0  0  0  0  0  0
   -4.6452    6.9137  -10.3665 C   0  0  0  0  0  0  0  0  0  0  0  0
   -4.8770    6.7509  -11.7587 O   0  0  0  0  0  0  0  0  0  0  0  0
 38 39  1  0  0  0
 39 37  1  0  0  0
 37 36  1  0  0  0
 36 35  1  0  0  0
 35  1  1  0  0  0
  1  2  1  0  0  0
  1  3  1  0  0  0
  3  4  2  0  0  0
  4 21  1  0  0  0
 21 22  2  0  0  0
 21 23  1  0  0  0
 23 25  1  0  0  0
 25 26  2  0  0  0
 26 27  1  0  0  0
 27 28  2  0  0  0
 28 29  1  0  0  0
 29 30  2  0  0  0
 29 31  1  0  0  0
 31 32  1  0  0  0
 32 33  1  0  0  0
  4  5  1  0  0  0
  5  6  2  0  0  0
  6  7  1  0  0  0
  6  8  1  0  0  0
  8  9  2  0  0  0
  9 10  1  0  0  0
 10 11  1  0  0  0
 11 12  1  0  0  0
 12 13  1  0  0  0
 13 14  1  0  0  0
 14 15  1  0  0  0
 15 16  1  0  0  0
 16 17  2  0  0  0
 18 17  1  0  0  0
 18  1  1  0  0  0
  9  3  1  0  0  0
 14 10  1  0  0  0
 30 25  1  0  0  0
 18 10  1  0  0  0
 33 28  1  0  0  0
 23 24  1  0  0  0
 32 34  1  0  0  0
 12 19  1  0  0  0
 13 20  1  0  0  0
M  END
> <minimizedAffinity>
-9.02910

> <minimizedRMSD>
0.72758

$$$$
P22262


 35 38  0  0  0  0  0  0  0  0999 V2000
   -5.2015    5.4909  -17.1151 N   0  0  0  0  0  0  0  0  0  0  0  0
   -4.6891    5.8776  -15.8666 C   0  0  0  0  0  0  0  0  0  0  0  0
   -3.5311    6.2108  -15.6413 O   0  0  0  0  0  0  0  0  0  0  0  0
   -5.8556    5.7606  -14.8396 C   0  0  0  0  0  0  0  0  0  0  0  0
   -5.4856    4.7214  -13.7765 C   0  0  0  0  0  0  0  0  0  0  0  0
   -6.9855    5.2423  -15.7122 C   0  0  0  0  0  0  0  0  0  0  0  0
   -8.2898    4.8926  -15.3776 C   0  0  0  0  0  0  0  0  0  0  0  0
   -9.1171    4.3262  -16.3481 C   0  0  0  0  0  0  0  0  0  0  0  0
   -8.6403    4.1589  -17.6496 C   0  0  0  0  0  0  0  0  0  0  0  0
   -9.4581    3.6300  -18.5693 F   0  0  0  0  0  0  0  0  0  0  0  0
   -7.3475    4.5335  -18.0080 C   0  0  0  0  0  0  0  0  0  0  0  0
   -6.5323    5.0664  -17.0230 C   0  0  0  0  0  0  0  0  0  0  0  0
   -8.8348    5.1783  -14.0355 C   0  0  0  0  0  0  0  0  0  0  0  0
   -9.5423    6.0957  -13.9014 O   0  0  0  0  0  0  0  0  0  0  0  0
   -8.2726    4.1882  -12.9945 N   0  0  0  0  0  0  0  0  0  0  0  0
   -7.7512    3.4439  -13.3732 H   0  0  0  0  0  0  0  0  0  0  0  0
   -8.3825    4.1759  -11.6061 C   0  0  0  0  0  0  0  0  0  0  0  0
   -8.2022    5.3516  -10.8583 C   0  0  0  0  0  0  0  0  0  0  0  0
   -8.2810    5.3349   -9.4626 C   0  0  0  0  0  0  0  0  0  0  0  0
   -8.5750    4.1361   -8.8415 C   0  0  0  0  0  0  0  0  0  0  0  0
   -8.7642    2.9735   -9.5804 C   0  0  0  0  0  0  0  0  0  0  0  0
   -8.6525    2.9673  -10.9615 C   0  0  0  0  0  0  0  0  0  0  0  0
   -9.0459    1.8412   -8.6525 C   0  0  0  0  0  0  0  0  0  0  0  0
   -9.2840    2.4625   -7.3232 N   0  0  0  0  0  0  0  0  0  0  0  0
   -8.7330    3.8310   -7.3913 C   0  0  0  0  0  0  0  0  0  0  0  0
   -8.8098    1.9282   -6.5952 H   0  0  0  0  0  0  0  0  0  0  0  0
   -4.3353    5.1402  -18.1502 N   0  0  0  0  0  0  0  0  0  0  0  0
   -3.5113    4.6937  -17.7476 H   0  0  0  0  0  0  0  0  0  0  0  0
   -4.9083    6.5788  -20.0232 C   0  0  0  0  0  0  0  0  0  0  0  0
   -3.9039    6.2835  -18.9412 C   0  0  0  0  0  0  0  0  0  0  0  0
   -6.2604    7.0122  -14.3191 O   0  0  0  0  0  0  0  0  0  0  0  0
   -5.8539    7.3077  -12.9827 C   0  0  0  0  0  0  0  0  0  0  0  0
   -6.4771    8.6320  -12.5420 C   0  0  0  0  0  0  0  0  0  0  0  0
   -7.9021    8.5059  -12.5124 O   0  0  0  0  0  0  0  0  0  0  0  0
   -8.5362    9.7762  -12.5899 C   0  0  0  0  0  0  0  0  0  0  0  0
 29 30  1  0  0  0
 30 27  1  0  0  0
 27  1  1  0  0  0
  1  2  1  0  0  0
  2  3  2  0  0  0
  2  4  1  0  0  0
  4  5  1  0  0  0
  4 31  1  0  0  0
 31 32  1  0  0  0
 32 33  1  0  0  0
 33 34  1  0  0  0
 34 35  1  0  0  0
  4  6  1  0  0  0
  6  7  2  0  0  0
  7 13  1  0  0  0
 13 14  2  0  0  0
 13 15  1  0  0  0
 15 17  1  0  0  0
 17 18  2  0  0  0
 18 19  1  0  0  0
 19 20  2  0  0  0
 20 21  1  0  0  0
 21 22  2  0  0  0
 21 23  1  0  0  0
 23 24  1  0  0  0
 24 25  1  0  0  0
  7  8  1  0  0  0
  8  9  2  0  0  0
  9 10  1  0  0  0
  9 11  1  0  0  0
 11 12  2  0  0  0
 12  1  1  0  0  0
 12  6  1  0  0  0
 22 17  1  0  0  0
 25 20  1  0  0  0
 27 28  1  0  0  0
 15 16  1  0  0  0
 24 26  1  0  0  0
M  END
> <minimizedAffinity>
-7.76533

> <minimizedRMSD>
1.30775

$$$$
P22264


 37 41  0  0  0  0  0  0  0  0999 V2000
   -5.8034    5.3807  -14.9427 C   0  0  0  0  0  0  0  0  0  0  0  0
   -5.5122    4.2776  -13.9265 C   0  0  0  0  0  0  0  0  0  0  0  0
   -4.6693    5.4767  -16.0006 C   0  0  0  0  0  0  0  0  0  0  0  0
   -3.4687    5.5205  -15.7475 O   0  0  0  0  0  0  0  0  0  0  0  0
   -5.2602    5.6150  -17.4072 C   0  0  0  0  0  0  0  0  0  0  0  0
   -5.3332    7.1357  -17.6554 C   0  0  0  0  0  0  0  0  0  0  0  0
   -5.6279    7.4598  -19.1062 C   0  0  0  0  0  0  0  0  0  0  0  0
   -4.6645    6.7620  -20.0490 C   0  0  0  0  0  0  0  0  0  0  0  0
   -4.7103    5.3298  -19.8124 N   0  0  0  0  0  0  0  0  0  0  0  0
   -4.3380    4.9714  -18.4514 C   0  0  0  0  0  0  0  0  0  0  0  0
   -6.6502    5.0327  -17.1928 C   0  0  0  0  0  0  0  0  0  0  0  0
   -7.5723    4.5990  -18.1398 C   0  0  0  0  0  0  0  0  0  0  0  0
   -8.8463    4.2144  -17.7136 C   0  0  0  0  0  0  0  0  0  0  0  0
   -9.7537    3.8014  -18.6085 F   0  0  0  0  0  0  0  0  0  0  0  0
   -9.2285    4.3022  -16.3752 C   0  0  0  0  0  0  0  0  0  0  0  0
   -8.3043    4.7371  -15.4266 C   0  0  0  0  0  0  0  0  0  0  0  0
   -6.9961    5.0329  -15.8215 C   0  0  0  0  0  0  0  0  0  0  0  0
   -4.0666    4.8720  -20.4578 H   0  0  0  0  0  0  0  0  0  0  0  0
   -8.7871    5.0850  -14.0718 C   0  0  0  0  0  0  0  0  0  0  0  0
   -9.4575    6.0329  -13.9573 O   0  0  0  0  0  0  0  0  0  0  0  0
   -8.2710    4.0915  -13.0115 N   0  0  0  0  0  0  0  0  0  0  0  0
   -7.7786    3.3201  -13.3745 H   0  0  0  0  0  0  0  0  0  0  0  0
   -8.3880    4.1078  -11.6231 C   0  0  0  0  0  0  0  0  0  0  0  0
   -8.1886    5.2999  -10.9044 C   0  0  0  0  0  0  0  0  0  0  0  0
   -8.2655    5.3227   -9.5087 C   0  0  0  0  0  0  0  0  0  0  0  0
   -8.5667    4.1436   -8.8554 C   0  0  0  0  0  0  0  0  0  0  0  0
   -8.7753    2.9652   -9.5637 C   0  0  0  0  0  0  0  0  0  0  0  0
   -8.6765    2.9224  -10.9463 C   0  0  0  0  0  0  0  0  0  0  0  0
   -9.0529    1.8589   -8.6034 C   0  0  0  0  0  0  0  0  0  0  0  0
   -9.2583    2.5112   -7.2843 N   0  0  0  0  0  0  0  0  0  0  0  0
   -8.7079    3.8770   -7.3959 C   0  0  0  0  0  0  0  0  0  0  0  0
   -8.7675    1.9929   -6.5556 H   0  0  0  0  0  0  0  0  0  0  0  0
   -6.0744    6.6412  -14.3554 O   0  0  0  0  0  0  0  0  0  0  0  0
   -5.5558    6.8601  -13.0433 C   0  0  0  0  0  0  0  0  0  0  0  0
   -6.1445    8.1524  -12.4782 C   0  0  0  0  0  0  0  0  0  0  0  0
   -8.3573    8.8812  -12.1223 C   0  0  0  0  0  0  0  0  0  0  0  0
   -7.4215    8.3971  -13.0772 O   0  0  0  0  0  0  0  0  0  0  0  0
 36 37  1  0  0  0
 37 35  1  0  0  0
 35 34  1  0  0  0
 34 33  1  0  0  0
 33  1  1  0  0  0
  1  2  1  0  0  0
  1  3  1  0  0  0
  3  4  2  0  0  0
  3  5  1  0  0  0
  5  6  1  0  0  0
  6  7  1  0  0  0
  7  8  1  0  0  0
  8  9  1  0  0  0
  9 10  1  0  0  0
  5 11  1  0  0  0
 11 12  2  0  0  0
 12 13  1  0  0  0
 13 14  1  0  0  0
 13 15  2  0  0  0
 15 16  1  0  0  0
 16 19  1  0  0  0
 19 20  2  0  0  0
 19 21  1  0  0  0
 21 23  1  0  0  0
 23 24  2  0  0  0
 24 25  1  0  0  0
 25 26  2  0  0  0
 26 27  1  0  0  0
 27 28  2  0  0  0
 27 29  1  0  0  0
 29 30  1  0  0  0
 30 31  1  0  0  0
 16 17  2  0  0  0
 17  1  1  0  0  0
 10  5  1  0  0  0
 17 11  1  0  0  0
 28 23  1  0  0  0
 31 26  1  0  0  0
  9 18  1  0  0  0
 21 22  1  0  0  0
 30 32  1  0  0  0
M  END
> <minimizedAffinity>
-9.43561

> <minimizedRMSD>
1.12797

$$$$
P22267


 34 37  0  0  0  0  0  0  0  0999 V2000
   -5.9468    5.5670  -15.5349 C   0  0  0  0  0  0  0  0  0  0  0  0
   -5.3571    4.5696  -14.5338 C   0  0  0  0  0  0  0  0  0  0  0  0
   -5.1213    5.5587  -16.8818 C   0  0  0  0  0  0  0  0  0  0  0  0
   -3.9578    5.9156  -17.0284 O   0  0  0  0  0  0  0  0  0  0  0  0
   -5.9910    5.0898  -17.8938 N   0  0  0  0  0  0  0  0  0  0  0  0
   -5.6306    4.9352  -19.2363 N   0  0  0  0  0  0  0  0  0  0  0  0
   -7.2586    4.7988  -17.3945 C   0  0  0  0  0  0  0  0  0  0  0  0
   -8.3568    4.3189  -18.0866 C   0  0  0  0  0  0  0  0  0  0  0  0
   -9.5273    4.1124  -17.3680 C   0  0  0  0  0  0  0  0  0  0  0  0
  -10.6126    3.6472  -17.9965 F   0  0  0  0  0  0  0  0  0  0  0  0
   -9.6108    4.3977  -16.0049 C   0  0  0  0  0  0  0  0  0  0  0  0
   -8.4978    4.9079  -15.3342 C   0  0  0  0  0  0  0  0  0  0  0  0
   -7.3049    5.0845  -16.0254 C   0  0  0  0  0  0  0  0  0  0  0  0
   -4.6563    5.2102  -19.3606 H   0  0  0  0  0  0  0  0  0  0  0  0
   -6.2268    5.5236  -19.8183 H   0  0  0  0  0  0  0  0  0  0  0  0
   -8.6623    5.3721  -13.9442 C   0  0  0  0  0  0  0  0  0  0  0  0
   -8.9823    6.4780  -13.7584 O   0  0  0  0  0  0  0  0  0  0  0  0
   -8.3271    4.2471  -12.9449 N   0  0  0  0  0  0  0  0  0  0  0  0
   -8.0066    3.4122  -13.3566 H   0  0  0  0  0  0  0  0  0  0  0  0
   -8.4038    4.2197  -11.5556 C   0  0  0  0  0  0  0  0  0  0  0  0
   -8.1568    5.3835  -10.8070 C   0  0  0  0  0  0  0  0  0  0  0  0
   -8.2122    5.3656   -9.4114 C   0  0  0  0  0  0  0  0  0  0  0  0
   -8.5552    4.1796   -8.7932 C   0  0  0  0  0  0  0  0  0  0  0  0
   -8.8105    3.0272   -9.5328 C   0  0  0  0  0  0  0  0  0  0  0  0
   -8.7142    3.0194  -10.9142 C   0  0  0  0  0  0  0  0  0  0  0  0
   -9.1650    1.9205   -8.5930 C   0  0  0  0  0  0  0  0  0  0  0  0
   -9.4732    2.5983   -7.3033 N   0  0  0  0  0  0  0  0  0  0  0  0
   -8.7210    3.8708   -7.3427 C   0  0  0  0  0  0  0  0  0  0  0  0
   -9.1665    2.0261   -6.5166 H   0  0  0  0  0  0  0  0  0  0  0  0
   -6.1369    6.8574  -14.9755 O   0  0  0  0  0  0  0  0  0  0  0  0
   -5.4563    7.1503  -13.7527 C   0  0  0  0  0  0  0  0  0  0  0  0
   -5.9642    8.4758  -13.1684 C   0  0  0  0  0  0  0  0  0  0  0  0
   -7.7266    9.0471  -11.7065 C   0  0  0  0  0  0  0  0  0  0  0  0
   -6.5497    8.2630  -11.8793 O   0  0  0  0  0  0  0  0  0  0  0  0
 33 34  1  0  0  0
 34 32  1  0  0  0
 32 31  1  0  0  0
 31 30  1  0  0  0
 30  1  1  0  0  0
  1  2  1  0  0  0
  1  3  1  0  0  0
  3  4  2  0  0  0
  3  5  1  0  0  0
  5  6  1  0  0  0
  5  7  1  0  0  0
  7  8  2  0  0  0
  8  9  1  0  0  0
  9 10  1  0  0  0
  9 11  2  0  0  0
 11 12  1  0  0  0
 12 16  1  0  0  0
 16 17  2  0  0  0
 16 18  1  0  0  0
 18 20  1  0  0  0
 20 21  2  0  0  0
 21 22  1  0  0  0
 22 23  2  0  0  0
 23 24  1  0  0  0
 24 25  2  0  0  0
 24 26  1  0  0  0
 26 27  1  0  0  0
 27 28  1  0  0  0
 12 13  2  0  0  0
 13  1  1  0  0  0
 13  7  1  0  0  0
 25 20  1  0  0  0
 28 23  1  0  0  0
  6 14  1  0  0  0
  6 15  1  0  0  0
 18 19  1  0  0  0
 27 29  1  0  0  0
M  END
> <minimizedAffinity>
-7.73813

> <minimizedRMSD>
0.97547

$$$$
P22269


 36 40  0  0  0  0  0  0  0  0999 V2000
   -5.9542    5.8469  -15.2502 C   0  0  0  0  0  0  0  0  0  0  0  0
   -5.3961    4.9031  -14.1841 C   0  0  0  0  0  0  0  0  0  0  0  0
   -4.9805    5.9620  -16.4545 C   0  0  0  0  0  0  0  0  0  0  0  0
   -3.7875    6.2443  -16.3730 O   0  0  0  0  0  0  0  0  0  0  0  0
   -5.7257    5.7480  -17.7795 C   0  0  0  0  0  0  0  0  0  0  0  0
   -4.8983    4.9680  -18.7908 C   0  0  0  0  0  0  0  0  0  0  0  0
   -4.3424    6.0291  -19.7203 C   0  0  0  0  0  0  0  0  0  0  0  0
   -5.4274    7.0021  -19.8012 N   0  0  0  0  0  0  0  0  0  0  0  0
   -5.9349    7.1259  -18.4293 C   0  0  0  0  0  0  0  0  0  0  0  0
   -7.0095    5.1074  -17.3079 C   0  0  0  0  0  0  0  0  0  0  0  0
   -7.9802    4.4742  -18.0762 C   0  0  0  0  0  0  0  0  0  0  0  0
   -9.1286    3.9969  -17.4478 C   0  0  0  0  0  0  0  0  0  0  0  0
  -10.0661    3.3752  -18.1743 F   0  0  0  0  0  0  0  0  0  0  0  0
   -9.3495    4.1929  -16.0853 C   0  0  0  0  0  0  0  0  0  0  0  0
   -8.3851    4.8495  -15.3196 C   0  0  0  0  0  0  0  0  0  0  0  0
   -7.1866    5.2528  -15.9166 C   0  0  0  0  0  0  0  0  0  0  0  0
   -6.1617    6.6683  -20.4256 H   0  0  0  0  0  0  0  0  0  0  0  0
   -8.7273    5.2584  -13.9383 C   0  0  0  0  0  0  0  0  0  0  0  0
   -9.2203    6.3040  -13.7827 O   0  0  0  0  0  0  0  0  0  0  0  0
   -8.2602    4.2102  -12.9082 N   0  0  0  0  0  0  0  0  0  0  0  0
   -7.7999    3.4300  -13.2939 H   0  0  0  0  0  0  0  0  0  0  0  0
   -8.3833    4.1874  -11.5211 C   0  0  0  0  0  0  0  0  0  0  0  0
   -8.1596    5.3512  -10.7646 C   0  0  0  0  0  0  0  0  0  0  0  0
   -8.2216    5.3268   -9.3683 C   0  0  0  0  0  0  0  0  0  0  0  0
   -8.5423    4.1326   -8.7531 C   0  0  0  0  0  0  0  0  0  0  0  0
   -8.7845    2.9849   -9.5000 C   0  0  0  0  0  0  0  0  0  0  0  0
   -8.6931    2.9860  -10.8833 C   0  0  0  0  0  0  0  0  0  0  0  0
   -9.0802    1.8523   -8.5768 C   0  0  0  0  0  0  0  0  0  0  0  0
   -9.2581    2.4630   -7.2333 N   0  0  0  0  0  0  0  0  0  0  0  0
   -8.6704    3.8157   -7.3024 C   0  0  0  0  0  0  0  0  0  0  0  0
   -8.7767    1.9061   -6.5272 H   0  0  0  0  0  0  0  0  0  0  0  0
   -6.3110    7.1375  -14.7865 O   0  0  0  0  0  0  0  0  0  0  0  0
   -5.8615    7.5056  -13.4814 C   0  0  0  0  0  0  0  0  0  0  0  0
   -6.5332    8.8102  -13.0465 C   0  0  0  0  0  0  0  0  0  0  0  0
   -8.6179    9.3678  -12.1007 C   0  0  0  0  0  0  0  0  0  0  0  0
   -7.4553    8.5556  -11.9825 O   0  0  0  0  0  0  0  0  0  0  0  0
 35 36  1  0  0  0
 36 34  1  0  0  0
 34 33  1  0  0  0
 33 32  1  0  0  0
 32  1  1  0  0  0
  1  2  1  0  0  0
  1  3  1  0  0  0
  3  4  2  0  0  0
  3  5  1  0  0  0
  5  6  1  0  0  0
  6  7  1  0  0  0
  7  8  1  0  0  0
  8  9  1  0  0  0
  5 10  1  0  0  0
 10 11  2  0  0  0
 11 12  1  0  0  0
 12 13  1  0  0  0
 12 14  2  0  0  0
 14 15  1  0  0  0
 15 18  1  0  0  0
 18 19  2  0  0  0
 18 20  1  0  0  0
 20 22  1  0  0  0
 22 23  2  0  0  0
 23 24  1  0  0  0
 24 25  2  0  0  0
 25 26  1  0  0  0
 26 27  2  0  0  0
 26 28  1  0  0  0
 28 29  1  0  0  0
 29 30  1  0  0  0
 15 16  2  0  0  0
 16  1  1  0  0  0
  9  5  1  0  0  0
 16 10  1  0  0  0
 27 22  1  0  0  0
 30 25  1  0  0  0
  8 17  1  0  0  0
 20 21  1  0  0  0
 29 31  1  0  0  0
M  END
> <minimizedAffinity>
-8.63744

> <minimizedRMSD>
1.19869

$$$$
P22279


 29 32  0  0  0  0  0  0  0  0999 V2000
   -6.6284    4.8197  -17.3128 C   0  0  0  0  0  0  0  0  0  0  0  0
   -8.0256    4.5988  -17.1979 C   0  0  0  0  0  0  0  0  0  0  0  0
   -8.7746    4.5090  -18.3112 F   0  0  0  0  0  0  0  0  0  0  0  0
   -8.6873    4.5775  -15.9789 C   0  0  0  0  0  0  0  0  0  0  0  0
   -7.9469    4.7514  -14.8142 C   0  0  0  0  0  0  0  0  0  0  0  0
   -6.5485    4.8458  -14.8638 C   0  0  0  0  0  0  0  0  0  0  0  0
   -5.5086    4.9891  -13.9195 C   0  0  0  0  0  0  0  0  0  0  0  0
   -4.3125    5.1063  -14.4937 N   0  0  0  0  0  0  0  0  0  0  0  0
   -4.6069    5.1338  -15.7997 N   0  0  0  0  0  0  0  0  0  0  0  0
   -5.9219    4.8908  -16.1015 C   0  0  0  0  0  0  0  0  0  0  0  0
   -3.9299    5.3150  -16.4911 H   0  0  0  0  0  0  0  0  0  0  0  0
   -8.5959    5.0051  -13.5255 C   0  0  0  0  0  0  0  0  0  0  0  0
   -9.2604    5.9552  -13.4223 O   0  0  0  0  0  0  0  0  0  0  0  0
   -8.1785    3.9652  -12.4793 N   0  0  0  0  0  0  0  0  0  0  0  0
   -7.6683    3.2029  -12.8368 H   0  0  0  0  0  0  0  0  0  0  0  0
   -8.4021    3.9234  -11.1125 C   0  0  0  0  0  0  0  0  0  0  0  0
   -8.2136    5.0572  -10.3050 C   0  0  0  0  0  0  0  0  0  0  0  0
   -8.3911    5.0861   -8.9608 N   0  0  0  0  0  0  0  0  0  0  0  0
   -8.7871    3.9165   -8.4389 C   0  0  0  0  0  0  0  0  0  0  0  0
   -9.0026    2.7530   -9.1609 C   0  0  0  0  0  0  0  0  0  0  0  0
   -8.7952    2.7310  -10.5218 C   0  0  0  0  0  0  0  0  0  0  0  0
   -9.4203    1.6769   -8.2283 C   0  0  0  0  0  0  0  0  0  0  0  0
   -9.8962    2.3797   -7.0108 N   0  0  0  0  0  0  0  0  0  0  0  0
   -9.1307    3.6544   -6.9977 C   0  0  0  0  0  0  0  0  0  0  0  0
   -9.6964    1.8299   -6.1752 H   0  0  0  0  0  0  0  0  0  0  0  0
   -6.0732    5.1016  -18.6849 C   0  0  0  0  0  0  0  0  0  0  0  0
   -4.0030    6.6087  -19.0536 C   0  0  0  0  0  0  0  0  0  0  0  0
   -5.5121    6.4979  -19.0046 C   0  0  0  0  0  0  0  0  0  0  0  0
   -5.9821    7.4126  -18.1051 F   0  0  0  0  0  0  0  0  0  0  0  0
 28 27  1  0  0  0
 28 29  1  0  0  0
 28 26  1  0  0  0
 26  1  1  0  0  0
  1  2  2  0  0  0
  2  3  1  0  0  0
  2  4  1  0  0  0
  4  5  2  0  0  0
  5 12  1  0  0  0
 12 13  2  0  0  0
 12 14  1  0  0  0
 14 16  1  0  0  0
 16 17  2  0  0  0
 17 18  1  0  0  0
 18 19  2  0  0  0
 19 20  1  0  0  0
 20 21  2  0  0  0
 20 22  1  0  0  0
 22 23  1  0  0  0
 23 24  1  0  0  0
  5  6  1  0  0  0
  6  7  1  0  0  0
  7  8  2  0  0  0
  8  9  1  0  0  0
  9 10  1  0  0  0
 10  1  1  0  0  0
 21 16  1  0  0  0
 10  6  2  0  0  0
 24 19  1  0  0  0
 14 15  1  0  0  0
 23 25  1  0  0  0
  9 11  1  0  0  0
M  END
> <minimizedAffinity>
-8.25251

> <minimizedRMSD>
0.75690

$$$$
P22280


 27 30  0  0  0  0  0  0  0  0999 V2000
   -8.4094    4.2438  -13.2125 N   0  0  0  0  0  0  0  0  0  0  0  0
   -7.4020    4.8215  -14.2347 C   0  0  0  0  0  0  0  0  0  0  0  0
   -6.4011    5.3968  -14.0673 O   0  0  0  0  0  0  0  0  0  0  0  0
   -9.1488    3.7285  -13.6086 H   0  0  0  0  0  0  0  0  0  0  0  0
   -7.8137    4.5916  -15.6436 C   0  0  0  0  0  0  0  0  0  0  0  0
   -9.1348    4.2737  -15.9870 C   0  0  0  0  0  0  0  0  0  0  0  0
   -9.5052    4.1815  -17.3267 C   0  0  0  0  0  0  0  0  0  0  0  0
  -10.7778    3.9001  -17.6316 F   0  0  0  0  0  0  0  0  0  0  0  0
   -8.6042    4.3941  -18.3662 C   0  0  0  0  0  0  0  0  0  0  0  0
   -7.2957    4.7127  -18.0026 C   0  0  0  0  0  0  0  0  0  0  0  0
   -6.1867    4.9751  -18.7626 N   0  0  0  0  0  0  0  0  0  0  0  0
   -5.0888    5.2707  -18.0383 N   0  0  0  0  0  0  0  0  0  0  0  0
   -5.5159    5.1807  -16.7746 C   0  0  0  0  0  0  0  0  0  0  0  0
   -6.8811    4.8230  -16.6785 C   0  0  0  0  0  0  0  0  0  0  0  0
   -6.1910    4.9500  -19.7468 H   0  0  0  0  0  0  0  0  0  0  0  0
   -8.2695    5.4940  -11.0135 C   0  0  0  0  0  0  0  0  0  0  0  0
   -8.2558    5.4981   -9.6443 N   0  0  0  0  0  0  0  0  0  0  0  0
   -8.4435    4.3108   -9.0624 C   0  0  0  0  0  0  0  0  0  0  0  0
   -8.6571    3.1327   -9.7444 C   0  0  0  0  0  0  0  0  0  0  0  0
   -8.6536    3.1267  -11.1269 C   0  0  0  0  0  0  0  0  0  0  0  0
   -8.4406    4.3353  -11.8058 C   0  0  0  0  0  0  0  0  0  0  0  0
   -8.8172    2.0301   -8.7573 C   0  0  0  0  0  0  0  0  0  0  0  0
   -9.1292    2.6998   -7.4673 N   0  0  0  0  0  0  0  0  0  0  0  0
   -8.5250    4.0489   -7.5840 C   0  0  0  0  0  0  0  0  0  0  0  0
   -8.7165    2.1876   -6.6877 H   0  0  0  0  0  0  0  0  0  0  0  0
   -8.3014    7.8861  -12.0186 N   0  0  0  0  0  0  0  0  0  0  0  0
   -8.2777    6.8358  -11.5168 C   0  0  0  0  0  0  0  0  0  0  0  0
 26 27  3  0  0  0
 27 16  1  0  0  0
 16 17  2  0  0  0
 17 18  1  0  0  0
 18 19  2  0  0  0
 19 20  1  0  0  0
 20 21  2  0  0  0
 21  1  1  0  0  0
  1  2  1  0  0  0
  2  3  2  0  0  0
  2  5  1  0  0  0
  5  6  2  0  0  0
  6  7  1  0  0  0
  7  8  1  0  0  0
  7  9  2  0  0  0
  9 10  1  0  0  0
 10 11  1  0  0  0
 11 12  1  0  0  0
 12 13  2  0  0  0
 13 14  1  0  0  0
 19 22  1  0  0  0
 22 23  1  0  0  0
 23 24  1  0  0  0
 21 16  1  0  0  0
 14  5  1  0  0  0
 24 18  1  0  0  0
 14 10  2  0  0  0
  1  4  1  0  0  0
 11 15  1  0  0  0
 23 25  1  0  0  0
M  END
> <minimizedAffinity>
-8.37680

> <minimizedRMSD>
0.84207

$$$$
P22281


 32 35  0  0  0  0  0  0  0  0999 V2000
   -4.4782    5.2018  -18.3724 C   0  0  0  0  0  0  0  0  0  0  0  0
   -5.2887    5.1632  -17.1829 N   0  0  0  0  0  0  0  0  0  0  0  0
   -6.6382    4.8951  -17.1248 C   0  0  0  0  0  0  0  0  0  0  0  0
   -7.5737    4.5560  -18.1058 C   0  0  0  0  0  0  0  0  0  0  0  0
   -8.8860    4.3517  -17.6935 C   0  0  0  0  0  0  0  0  0  0  0  0
   -9.8069    4.0384  -18.6109 F   0  0  0  0  0  0  0  0  0  0  0  0
   -9.2770    4.4883  -16.3710 C   0  0  0  0  0  0  0  0  0  0  0  0
   -8.3396    4.8603  -15.4066 C   0  0  0  0  0  0  0  0  0  0  0  0
   -6.9814    5.0510  -15.7564 C   0  0  0  0  0  0  0  0  0  0  0  0
   -5.7990    5.4113  -14.9771 C   0  0  0  0  0  0  0  0  0  0  0  0
   -4.7621    5.4599  -15.8475 N   0  0  0  0  0  0  0  0  0  0  0  0
   -3.5350    5.6836  -15.6860 O   0  0  0  0  0  0  0  0  0  0  0  0
   -8.7923    5.1891  -14.0393 C   0  0  0  0  0  0  0  0  0  0  0  0
   -9.5005    6.1055  -13.8977 O   0  0  0  0  0  0  0  0  0  0  0  0
   -8.1622    4.2422  -12.9978 N   0  0  0  0  0  0  0  0  0  0  0  0
   -7.5316    3.5831  -13.3683 H   0  0  0  0  0  0  0  0  0  0  0  0
   -8.3399    4.1676  -11.6180 C   0  0  0  0  0  0  0  0  0  0  0  0
   -8.2183    5.2985  -10.7966 C   0  0  0  0  0  0  0  0  0  0  0  0
   -8.3507    5.2942   -9.4445 N   0  0  0  0  0  0  0  0  0  0  0  0
   -8.6356    4.0888   -8.9228 C   0  0  0  0  0  0  0  0  0  0  0  0
   -8.7893    2.9209   -9.6516 C   0  0  0  0  0  0  0  0  0  0  0  0
   -8.6234    2.9406  -11.0229 C   0  0  0  0  0  0  0  0  0  0  0  0
   -9.1067    1.7996   -8.7234 C   0  0  0  0  0  0  0  0  0  0  0  0
   -9.5360    2.4492   -7.4554 N   0  0  0  0  0  0  0  0  0  0  0  0
   -8.8789    3.7818   -7.4699 C   0  0  0  0  0  0  0  0  0  0  0  0
   -9.2266    1.9048   -6.6502 H   0  0  0  0  0  0  0  0  0  0  0  0
   -5.8132    5.5828  -13.6340 O   0  0  0  0  0  0  0  0  0  0  0  0
   -5.6283    6.9232  -13.1906 C   0  0  0  0  0  0  0  0  0  0  0  0
   -5.0095    6.8778  -11.7934 C   0  0  0  0  0  0  0  0  0  0  0  0
   -4.5440    5.4826  -11.3971 C   0  0  0  0  0  0  0  0  0  0  0  0
   -5.0757    5.1508  -10.1190 O   0  0  0  0  0  0  0  0  0  0  0  0
   -4.7653    5.7941   -9.4628 H   0  0  0  0  0  0  0  0  0  0  0  0
  1  2  1  0  0  0
  2  3  1  0  0  0
  3  4  2  0  0  0
  4  5  1  0  0  0
  5  6  1  0  0  0
  5  7  2  0  0  0
  7  8  1  0  0  0
  8 13  1  0  0  0
 13 14  2  0  0  0
 13 15  1  0  0  0
 15 17  1  0  0  0
 17 18  2  0  0  0
 18 19  1  0  0  0
 19 20  2  0  0  0
 20 21  1  0  0  0
 21 22  2  0  0  0
 21 23  1  0  0  0
 23 24  1  0  0  0
 24 25  1  0  0  0
  8  9  2  0  0  0
  9 10  1  0  0  0
 10 27  1  0  0  0
 27 28  1  0  0  0
 28 29  1  0  0  0
 29 30  1  0  0  0
 30 31  1  0  0  0
 10 11  2  0  0  0
 11 12  1  0  0  0
 11  2  1  0  0  0
  9  3  1  0  0  0
 22 17  1  0  0  0
 25 20  1  0  0  0
 15 16  1  0  0  0
 24 26  1  0  0  0
 31 32  1  0  0  0
M  CHG 1  11   1
M  CHG 1  12  -1
M  END
> <minimizedAffinity>
-7.70671

> <minimizedRMSD>
0.90883

$$$$
P22282


 30 33  0  0  0  0  0  0  0  0999 V2000
   -5.3899    5.3036  -13.5421 C   0  0  0  0  0  0  0  0  0  0  0  0
   -5.6562    5.2706  -14.9820 C   0  0  0  0  0  0  0  0  0  0  0  0
   -6.8558    4.9846  -15.7534 C   0  0  0  0  0  0  0  0  0  0  0  0
   -8.2051    4.7806  -15.3747 C   0  0  0  0  0  0  0  0  0  0  0  0
   -9.1627    4.3891  -16.3037 C   0  0  0  0  0  0  0  0  0  0  0  0
   -8.7961    4.2425  -17.6342 C   0  0  0  0  0  0  0  0  0  0  0  0
   -9.7433    3.8577  -18.5014 F   0  0  0  0  0  0  0  0  0  0  0  0
   -7.5006    4.5236  -18.0950 C   0  0  0  0  0  0  0  0  0  0  0  0
   -6.5441    4.9057  -17.1403 C   0  0  0  0  0  0  0  0  0  0  0  0
   -5.2038    5.2602  -17.2140 N   0  0  0  0  0  0  0  0  0  0  0  0
   -4.6729    5.5133  -15.8562 N   0  0  0  0  0  0  0  0  0  0  0  0
   -3.5107    5.9382  -15.6451 O   0  0  0  0  0  0  0  0  0  0  0  0
   -8.5994    5.1996  -14.0182 C   0  0  0  0  0  0  0  0  0  0  0  0
   -8.9257    6.3081  -13.8658 O   0  0  0  0  0  0  0  0  0  0  0  0
   -8.4043    4.0685  -12.9961 N   0  0  0  0  0  0  0  0  0  0  0  0
   -8.1956    3.1901  -13.3885 H   0  0  0  0  0  0  0  0  0  0  0  0
   -8.4744    4.0837  -11.6063 C   0  0  0  0  0  0  0  0  0  0  0  0
   -8.2126    5.2472  -10.8667 C   0  0  0  0  0  0  0  0  0  0  0  0
   -8.1881    5.3144   -9.5090 N   0  0  0  0  0  0  0  0  0  0  0  0
   -8.4959    4.1605   -8.8937 C   0  0  0  0  0  0  0  0  0  0  0  0
   -8.7935    2.9745   -9.5379 C   0  0  0  0  0  0  0  0  0  0  0  0
   -8.7533    2.9096  -10.9173 C   0  0  0  0  0  0  0  0  0  0  0  0
   -9.0838    1.9181   -8.5339 C   0  0  0  0  0  0  0  0  0  0  0  0
   -9.2000    2.6111   -7.2242 N   0  0  0  0  0  0  0  0  0  0  0  0
   -8.5735    3.9424   -7.4086 C   0  0  0  0  0  0  0  0  0  0  0  0
   -8.7093    2.0857   -6.5006 H   0  0  0  0  0  0  0  0  0  0  0  0
   -4.4046    5.1389  -18.3625 O   0  0  0  0  0  0  0  0  0  0  0  0
   -4.2464    6.3752  -19.0714 C   0  0  0  0  0  0  0  0  0  0  0  0
   -2.8185    6.9116  -18.9766 C   0  0  0  0  0  0  0  0  0  0  0  0
   -5.2897    7.4546  -18.7968 C   0  0  0  0  0  0  0  0  0  0  0  0
  1  2  1  0  0  0
  2  3  1  0  0  0
  3  4  2  0  0  0
  4 13  1  0  0  0
 13 14  2  0  0  0
 13 15  1  0  0  0
 15 17  1  0  0  0
 17 18  2  0  0  0
 18 19  1  0  0  0
 19 20  2  0  0  0
 20 21  1  0  0  0
 21 22  2  0  0  0
 21 23  1  0  0  0
 23 24  1  0  0  0
 24 25  1  0  0  0
  4  5  1  0  0  0
  5  6  2  0  0  0
  6  7  1  0  0  0
  6  8  1  0  0  0
  8  9  2  0  0  0
  9 10  1  0  0  0
 10 27  1  0  0  0
 27 28  1  0  0  0
 28 29  1  0  0  0
 28 30  1  0  0  0
 10 11  1  0  0  0
 11 12  1  0  0  0
 11  2  2  0  0  0
  9  3  1  0  0  0
 22 17  1  0  0  0
 25 20  1  0  0  0
 15 16  1  0  0  0
 24 26  1  0  0  0
M  CHG 1  11   1
M  CHG 1  12  -1
M  END
> <minimizedAffinity>
-8.51883

> <minimizedRMSD>
0.61392

$$$$
P22284


 29 33  0  0  0  0  0  0  0  0999 V2000
   -7.0819    4.7351  -17.8488 C   0  0  0  0  0  0  0  0  0  0  0  0
   -8.2283    4.2571  -18.4432 C   0  0  0  0  0  0  0  0  0  0  0  0
   -9.5748    4.1979  -17.3915 S   0  0  0  0  0  0  0  0  0  0  0  0
   -8.6333    4.7084  -16.0659 C   0  0  0  0  0  0  0  0  0  0  0  0
   -8.9853    4.9140  -14.7265 C   0  0  0  0  0  0  0  0  0  0  0  0
   -7.9897    5.3981  -13.8381 C   0  0  0  0  0  0  0  0  0  0  0  0
   -6.6757    5.6432  -14.2679 C   0  0  0  0  0  0  0  0  0  0  0  0
   -5.4425    6.0820  -13.7494 C   0  0  0  0  0  0  0  0  0  0  0  0
   -4.4729    6.1006  -14.6750 N   0  0  0  0  0  0  0  0  0  0  0  0
   -5.0920    5.6797  -15.7966 N   0  0  0  0  0  0  0  0  0  0  0  0
   -6.3930    5.4082  -15.5894 C   0  0  0  0  0  0  0  0  0  0  0  0
   -7.3350    4.9638  -16.4769 C   0  0  0  0  0  0  0  0  0  0  0  0
   -4.6431    5.5823  -16.6674 H   0  0  0  0  0  0  0  0  0  0  0  0
   -8.3315    5.6789  -12.4379 C   0  0  0  0  0  0  0  0  0  0  0  0
   -8.5321    6.7785  -12.1109 O   0  0  0  0  0  0  0  0  0  0  0  0
   -8.3383    4.3776  -11.6182 N   0  0  0  0  0  0  0  0  0  0  0  0
   -8.2113    3.5569  -12.1469 H   0  0  0  0  0  0  0  0  0  0  0  0
   -8.4940    4.1724  -10.2580 C   0  0  0  0  0  0  0  0  0  0  0  0
   -8.2161    5.1801   -9.3242 C   0  0  0  0  0  0  0  0  0  0  0  0
   -8.3492    5.0393   -7.9828 N   0  0  0  0  0  0  0  0  0  0  0  0
   -8.7750    3.8261   -7.5983 C   0  0  0  0  0  0  0  0  0  0  0  0
   -9.0755    2.7763   -8.4515 C   0  0  0  0  0  0  0  0  0  0  0  0
   -8.9327    2.9308   -9.8115 C   0  0  0  0  0  0  0  0  0  0  0  0
   -9.4889    1.5984   -7.6471 C   0  0  0  0  0  0  0  0  0  0  0  0
   -9.8686    2.1502   -6.3218 N   0  0  0  0  0  0  0  0  0  0  0  0
   -9.0568    3.3882   -6.1871 C   0  0  0  0  0  0  0  0  0  0  0  0
   -9.6438    1.4891   -5.5783 H   0  0  0  0  0  0  0  0  0  0  0  0
   -4.7484    5.0849  -18.8858 N   0  0  0  0  0  0  0  0  0  0  0  0
   -5.8442    4.9481  -18.5265 C   0  0  0  0  0  0  0  0  0  0  0  0
 28 29  3  0  0  0
 29  1  1  0  0  0
  1  2  2  0  0  0
  2  3  1  0  0  0
  3  4  1  0  0  0
  4  5  2  0  0  0
  5  6  1  0  0  0
  6 14  1  0  0  0
 14 15  2  0  0  0
 14 16  1  0  0  0
 16 18  1  0  0  0
 18 19  2  0  0  0
 19 20  1  0  0  0
 20 21  2  0  0  0
 21 22  1  0  0  0
 22 23  2  0  0  0
 22 24  1  0  0  0
 24 25  1  0  0  0
 25 26  1  0  0  0
  6  7  2  0  0  0
  7  8  1  0  0  0
  8  9  2  0  0  0
  9 10  1  0  0  0
 10 11  1  0  0  0
 11 12  2  0  0  0
 12  1  1  0  0  0
 12  4  1  0  0  0
 23 18  1  0  0  0
 11  7  1  0  0  0
 26 21  1  0  0  0
 16 17  1  0  0  0
 25 27  1  0  0  0
 10 13  1  0  0  0
M  END
> <minimizedAffinity>
-7.94342

> <minimizedRMSD>
0.71840

$$$$
P22286


 32 36  0  0  0  0  0  0  0  0999 V2000
   -8.7784    4.9964  -14.0311 C   0  0  0  0  0  0  0  0  0  0  0  0
   -9.5590    5.8657  -14.0154 O   0  0  0  0  0  0  0  0  0  0  0  0
   -8.1543    4.1882  -12.8697 N   0  0  0  0  0  0  0  0  0  0  0  0
   -7.5707    3.4467  -13.1504 H   0  0  0  0  0  0  0  0  0  0  0  0
   -8.2838    4.3389  -11.4904 C   0  0  0  0  0  0  0  0  0  0  0  0
   -8.0518    5.6178  -10.9600 C   0  0  0  0  0  0  0  0  0  0  0  0
   -8.1919    5.8565   -9.6042 C   0  0  0  0  0  0  0  0  0  0  0  0
   -8.0265    7.0956   -9.1301 F   0  0  0  0  0  0  0  0  0  0  0  0
   -8.6034    4.8361   -8.7828 C   0  0  0  0  0  0  0  0  0  0  0  0
   -8.8297    3.5553   -9.2931 C   0  0  0  0  0  0  0  0  0  0  0  0
   -8.6377    3.2755  -10.6484 C   0  0  0  0  0  0  0  0  0  0  0  0
   -9.3992    2.6987   -8.1982 C   0  0  0  0  0  0  0  0  0  0  0  0
   -9.3439    3.5234   -6.9415 N   0  0  0  0  0  0  0  0  0  0  0  0
   -8.1682    3.1988   -6.1182 C   0  0  0  0  0  0  0  0  0  0  0  0
   -7.9038    4.4096   -5.2503 C   0  0  0  0  0  0  0  0  0  0  0  0
   -8.0257    5.4172   -6.3426 C   0  0  0  0  0  0  0  0  0  0  0  0
   -7.4023    6.4693   -6.3477 O   0  0  0  0  0  0  0  0  0  0  0  0
   -9.0391    4.9301   -7.3667 C   0  0  0  0  0  0  0  0  0  0  0  0
   -5.0007    5.2823  -16.6984 N   0  0  0  0  0  0  0  0  0  0  0  0
   -4.6432    5.5084  -15.4034 N   0  0  0  0  0  0  0  0  0  0  0  0
   -5.7620    5.2994  -14.7184 C   0  0  0  0  0  0  0  0  0  0  0  0
   -6.8400    4.9255  -15.5425 C   0  0  0  0  0  0  0  0  0  0  0  0
   -8.2068    4.6576  -15.3405 C   0  0  0  0  0  0  0  0  0  0  0  0
   -9.0266    4.3635  -16.4255 C   0  0  0  0  0  0  0  0  0  0  0  0
   -8.4832    4.3449  -17.7027 C   0  0  0  0  0  0  0  0  0  0  0  0
   -9.2933    4.0515  -18.7288 F   0  0  0  0  0  0  0  0  0  0  0  0
   -7.1366    4.6446  -17.9523 C   0  0  0  0  0  0  0  0  0  0  0  0
   -6.3258    4.9290  -16.8409 C   0  0  0  0  0  0  0  0  0  0  0  0
   -4.0211    5.5370  -17.7642 C   0  0  0  0  0  0  0  0  0  0  0  0
   -1.6035    5.6602  -17.5589 C   0  0  0  0  0  0  0  0  0  0  0  0
   -2.8736    6.2788  -17.2005 N   0  0  0  0  0  0  0  0  0  0  0  0
   -2.8890    7.2337  -17.5588 H   0  0  0  0  0  0  0  0  0  0  0  0
 30 31  1  0  0  0
 31 29  1  0  0  0
 29 19  1  0  0  0
 19 20  1  0  0  0
 20 21  2  0  0  0
 21 22  1  0  0  0
 22 23  2  0  0  0
 23  1  1  0  0  0
  1  2  2  0  0  0
  1  3  1  0  0  0
  3  5  1  0  0  0
  5  6  2  0  0  0
  6  7  1  0  0  0
  7  8  1  0  0  0
  7  9  2  0  0  0
  9 10  1  0  0  0
 10 11  2  0  0  0
 10 12  1  0  0  0
 12 13  1  0  0  0
 13 14  1  0  0  0
 14 15  1  0  0  0
 15 16  1  0  0  0
 16 17  2  0  0  0
 18 16  1  0  0  0
 23 24  1  0  0  0
 24 25  2  0  0  0
 25 26  1  0  0  0
 25 27  1  0  0  0
 27 28  2  0  0  0
 28 19  1  0  0  0
 28 22  1  0  0  0
 11  5  1  0  0  0
 18 13  1  0  0  0
 18  9  1  0  0  0
 31 32  1  0  0  0
  3  4  1  0  0  0
M  END
> <minimizedAffinity>
-8.11494

> <minimizedRMSD>
0.50269

$$$$
P22288


 28 31  0  0  0  0  0  0  0  0999 V2000
   -5.2732    5.1858  -17.9082 N   0  0  0  0  0  0  0  0  0  0  0  0
   -4.5760    5.7949  -16.9174 N   0  0  0  0  0  0  0  0  0  0  0  0
   -5.4121    5.7603  -15.8793 C   0  0  0  0  0  0  0  0  0  0  0  0
   -6.6365    5.1284  -16.1856 C   0  0  0  0  0  0  0  0  0  0  0  0
   -7.8142    4.8064  -15.4872 C   0  0  0  0  0  0  0  0  0  0  0  0
   -8.8449    4.1405  -16.1550 C   0  0  0  0  0  0  0  0  0  0  0  0
   -8.7155    3.8311  -17.5009 C   0  0  0  0  0  0  0  0  0  0  0  0
   -9.7297    3.2181  -18.1224 F   0  0  0  0  0  0  0  0  0  0  0  0
   -7.5681    4.1424  -18.2247 C   0  0  0  0  0  0  0  0  0  0  0  0
   -6.5309    4.7806  -17.5312 C   0  0  0  0  0  0  0  0  0  0  0  0
   -7.9693    5.2493  -14.0850 C   0  0  0  0  0  0  0  0  0  0  0  0
   -7.9680    6.3961  -13.8700 O   0  0  0  0  0  0  0  0  0  0  0  0
   -8.0902    4.0501  -13.1200 N   0  0  0  0  0  0  0  0  0  0  0  0
   -7.9866    3.1677  -13.5442 H   0  0  0  0  0  0  0  0  0  0  0  0
   -8.3219    4.0135  -11.7474 C   0  0  0  0  0  0  0  0  0  0  0  0
   -8.0637    5.1124  -10.9152 C   0  0  0  0  0  0  0  0  0  0  0  0
   -8.2421    5.1202   -9.5680 N   0  0  0  0  0  0  0  0  0  0  0  0
   -8.6989    3.9612   -9.0613 C   0  0  0  0  0  0  0  0  0  0  0  0
   -8.9794    2.8274   -9.8006 C   0  0  0  0  0  0  0  0  0  0  0  0
   -8.7960    2.8384  -11.1702 C   0  0  0  0  0  0  0  0  0  0  0  0
   -9.4117    1.7281   -8.8976 C   0  0  0  0  0  0  0  0  0  0  0  0
   -9.5754    2.3284   -7.5516 N   0  0  0  0  0  0  0  0  0  0  0  0
   -8.9649    3.6788   -7.6102 C   0  0  0  0  0  0  0  0  0  0  0  0
   -9.1005    1.7578   -6.8521 H   0  0  0  0  0  0  0  0  0  0  0  0
   -4.6234    4.9376  -19.1898 C   0  0  0  0  0  0  0  0  0  0  0  0
   -4.7999    7.1006  -20.3071 C   0  0  0  0  0  0  0  0  0  0  0  0
   -5.2290    5.7166  -20.2621 N   0  0  0  0  0  0  0  0  0  0  0  0
   -4.9885    5.2781  -21.1511 H   0  0  0  0  0  0  0  0  0  0  0  0
 26 27  1  0  0  0
 27 25  1  0  0  0
 25  1  1  0  0  0
  1  2  1  0  0  0
  2  3  2  0  0  0
  3  4  1  0  0  0
  4  5  2  0  0  0
  5 11  1  0  0  0
 11 12  2  0  0  0
 11 13  1  0  0  0
 13 15  1  0  0  0
 15 16  2  0  0  0
 16 17  1  0  0  0
 17 18  2  0  0  0
 18 19  1  0  0  0
 19 20  2  0  0  0
 19 21  1  0  0  0
 21 22  1  0  0  0
 22 23  1  0  0  0
  5  6  1  0  0  0
  6  7  2  0  0  0
  7  8  1  0  0  0
  7  9  1  0  0  0
  9 10  2  0  0  0
 10  1  1  0  0  0
 10  4  1  0  0  0
 20 15  1  0  0  0
 23 18  1  0  0  0
 27 28  1  0  0  0
 13 14  1  0  0  0
 22 24  1  0  0  0
M  END
> <minimizedAffinity>
-8.21862

> <minimizedRMSD>
0.38781

$$$$
P22290


 33 37  0  0  0  0  0  0  0  0999 V2000
   -8.7583    4.9153  -14.0144 C   0  0  0  0  0  0  0  0  0  0  0  0
   -9.6222    5.7003  -13.9745 O   0  0  0  0  0  0  0  0  0  0  0  0
   -8.1387    4.0482  -12.8929 N   0  0  0  0  0  0  0  0  0  0  0  0
   -7.4640    3.3996  -13.1986 H   0  0  0  0  0  0  0  0  0  0  0  0
   -8.3808    4.0358  -11.5175 C   0  0  0  0  0  0  0  0  0  0  0  0
   -8.2617    5.2113  -10.7601 C   0  0  0  0  0  0  0  0  0  0  0  0
   -8.4545    5.1859   -9.3788 C   0  0  0  0  0  0  0  0  0  0  0  0
   -8.3282    6.3190   -8.6760 F   0  0  0  0  0  0  0  0  0  0  0  0
   -8.7548    3.9963   -8.7492 C   0  0  0  0  0  0  0  0  0  0  0  0
   -8.8921    2.8354   -9.5086 C   0  0  0  0  0  0  0  0  0  0  0  0
   -8.7195    2.8344  -10.8896 C   0  0  0  0  0  0  0  0  0  0  0  0
   -9.2208    1.6942   -8.6080 C   0  0  0  0  0  0  0  0  0  0  0  0
   -8.9811    2.1894   -7.2324 N   0  0  0  0  0  0  0  0  0  0  0  0
   -8.9064    3.6767   -7.2961 C   0  0  0  0  0  0  0  0  0  0  0  0
   -7.7852    4.2557   -6.4123 C   0  0  0  0  0  0  0  0  0  0  0  0
   -8.2799    4.0590   -4.9848 C   0  0  0  0  0  0  0  0  0  0  0  0
   -9.7983    4.1907   -5.0739 C   0  0  0  0  0  0  0  0  0  0  0  0
  -10.1364    4.2410   -6.5691 C   0  0  0  0  0  0  0  0  0  0  0  0
   -8.1036    1.8120   -6.8747 H   0  0  0  0  0  0  0  0  0  0  0  0
   -5.0755    5.7885  -16.7696 N   0  0  0  0  0  0  0  0  0  0  0  0
   -4.7983    6.2520  -15.5211 N   0  0  0  0  0  0  0  0  0  0  0  0
   -5.8751    5.9148  -14.8139 C   0  0  0  0  0  0  0  0  0  0  0  0
   -6.8422    5.2276  -15.5779 C   0  0  0  0  0  0  0  0  0  0  0  0
   -8.1174    4.6790  -15.3306 C   0  0  0  0  0  0  0  0  0  0  0  0
   -8.7978    4.0406  -16.3697 C   0  0  0  0  0  0  0  0  0  0  0  0
   -8.2358    3.9918  -17.6391 C   0  0  0  0  0  0  0  0  0  0  0  0
   -8.9321    3.4006  -18.6193 F   0  0  0  0  0  0  0  0  0  0  0  0
   -6.9881    4.5531  -17.9255 C   0  0  0  0  0  0  0  0  0  0  0  0
   -6.2979    5.1559  -16.8615 C   0  0  0  0  0  0  0  0  0  0  0  0
   -4.1379    6.0670  -17.8654 C   0  0  0  0  0  0  0  0  0  0  0  0
   -2.8023    4.5983  -19.2712 C   0  0  0  0  0  0  0  0  0  0  0  0
   -3.0920    5.0235  -17.9127 N   0  0  0  0  0  0  0  0  0  0  0  0
   -2.2385    5.3948  -17.4956 H   0  0  0  0  0  0  0  0  0  0  0  0
 31 32  1  0  0  0
 32 30  1  0  0  0
 30 20  1  0  0  0
 20 21  1  0  0  0
 21 22  2  0  0  0
 22 23  1  0  0  0
 23 24  2  0  0  0
 24  1  1  0  0  0
  1  2  2  0  0  0
  1  3  1  0  0  0
  3  5  1  0  0  0
  5  6  2  0  0  0
  6  7  1  0  0  0
  7  8  1  0  0  0
  7  9  2  0  0  0
  9 10  1  0  0  0
 10 11  2  0  0  0
 10 12  1  0  0  0
 12 13  1  0  0  0
 13 14  1  0  0  0
 14 15  1  0  0  0
 15 16  1  0  0  0
 16 17  1  0  0  0
 17 18  1  0  0  0
 24 25  1  0  0  0
 25 26  2  0  0  0
 26 27  1  0  0  0
 26 28  1  0  0  0
 28 29  2  0  0  0
 29 20  1  0  0  0
 29 23  1  0  0  0
 11  5  1  0  0  0
 18 14  1  0  0  0
 14  9  1  0  0  0
 32 33  1  0  0  0
  3  4  1  0  0  0
 13 19  1  0  0  0
M  END
> <minimizedAffinity>
-9.20759

> <minimizedRMSD>
0.87657

$$$$
P22292


 31 34  0  0  0  0  0  0  0  0999 V2000
   -7.8064    5.2075  -14.2134 C   0  0  0  0  0  0  0  0  0  0  0  0
   -7.6048    6.3402  -14.0255 O   0  0  0  0  0  0  0  0  0  0  0  0
   -8.1371    4.0752  -13.2243 N   0  0  0  0  0  0  0  0  0  0  0  0
   -8.3413    3.2082  -13.6437 H   0  0  0  0  0  0  0  0  0  0  0  0
   -5.3962    5.0348  -18.1955 N   0  0  0  0  0  0  0  0  0  0  0  0
   -4.5849    5.5323  -17.2316 N   0  0  0  0  0  0  0  0  0  0  0  0
   -5.3273    5.4565  -16.1286 C   0  0  0  0  0  0  0  0  0  0  0  0
   -6.6163    4.9356  -16.3719 C   0  0  0  0  0  0  0  0  0  0  0  0
   -7.7777    4.7184  -15.6085 C   0  0  0  0  0  0  0  0  0  0  0  0
   -8.9119    4.1676  -16.2160 C   0  0  0  0  0  0  0  0  0  0  0  0
   -8.8834    3.8448  -17.5641 C   0  0  0  0  0  0  0  0  0  0  0  0
   -9.9904    3.3372  -18.1226 F   0  0  0  0  0  0  0  0  0  0  0  0
   -7.7530    4.0634  -18.3533 C   0  0  0  0  0  0  0  0  0  0  0  0
   -6.6277    4.6265  -17.7295 C   0  0  0  0  0  0  0  0  0  0  0  0
   -4.9775    5.1600  -19.5864 C   0  0  0  0  0  0  0  0  0  0  0  0
   -2.8168    5.6736  -20.5285 C   0  0  0  0  0  0  0  0  0  0  0  0
   -3.5880    4.7442  -19.7091 N   0  0  0  0  0  0  0  0  0  0  0  0
   -3.1726    4.7007  -18.7786 H   0  0  0  0  0  0  0  0  0  0  0  0
   -8.1943    4.0774  -11.8376 C   0  0  0  0  0  0  0  0  0  0  0  0
   -7.8134    5.2006  -11.0845 C   0  0  0  0  0  0  0  0  0  0  0  0
   -7.8829    5.2844   -9.7334 N   0  0  0  0  0  0  0  0  0  0  0  0
   -8.3808    4.1850   -9.1459 C   0  0  0  0  0  0  0  0  0  0  0  0
   -8.7708    3.0250   -9.8093 C   0  0  0  0  0  0  0  0  0  0  0  0
   -8.6678    2.9480  -11.1799 C   0  0  0  0  0  0  0  0  0  0  0  0
   -9.3053    2.0471   -8.8179 C   0  0  0  0  0  0  0  0  0  0  0  0
   -9.6580    2.9032   -7.6753 N   0  0  0  0  0  0  0  0  0  0  0  0
   -8.6992    4.0255   -7.6804 C   0  0  0  0  0  0  0  0  0  0  0  0
   -9.7481    2.1870   -6.4058 C   0  0  0  0  0  0  0  0  0  0  0  0
  -10.5228    2.9276   -5.3073 C   0  0  0  0  0  0  0  0  0  0  0  0
  -11.3407    3.8836   -5.8228 F   0  0  0  0  0  0  0  0  0  0  0  0
   -9.6639    3.5815   -4.4751 F   0  0  0  0  0  0  0  0  0  0  0  0
 16 17  1  0  0  0
 17 15  1  0  0  0
 15  5  1  0  0  0
  5  6  1  0  0  0
  6  7  2  0  0  0
  7  8  1  0  0  0
  8  9  2  0  0  0
  9  1  1  0  0  0
  1  2  2  0  0  0
  1  3  1  0  0  0
  3 19  1  0  0  0
 19 20  2  0  0  0
 20 21  1  0  0  0
 21 22  2  0  0  0
 22 23  1  0  0  0
 23 24  2  0  0  0
 23 25  1  0  0  0
 25 26  1  0  0  0
 26 28  1  0  0  0
 28 29  1  0  0  0
 29 30  1  0  0  0
 29 31  1  0  0  0
 26 27  1  0  0  0
  9 10  1  0  0  0
 10 11  2  0  0  0
 11 12  1  0  0  0
 11 13  1  0  0  0
 13 14  2  0  0  0
 14  5  1  0  0  0
 14  8  1  0  0  0
 24 19  1  0  0  0
 27 22  1  0  0  0
 17 18  1  0  0  0
  3  4  1  0  0  0
M  END
> <minimizedAffinity>
-8.64389

> <minimizedRMSD>
0.55720

$$$$
P22293


 31 35  0  0  0  0  0  0  0  0999 V2000
   -7.6984    4.5573  -15.6743 C   0  0  0  0  0  0  0  0  0  0  0  0
   -8.8370    3.8634  -16.1073 C   0  0  0  0  0  0  0  0  0  0  0  0
   -9.0166    3.5647  -17.4574 C   0  0  0  0  0  0  0  0  0  0  0  0
  -10.1281    2.9308  -17.8453 F   0  0  0  0  0  0  0  0  0  0  0  0
   -8.1024    3.9682  -18.4102 C   0  0  0  0  0  0  0  0  0  0  0  0
   -6.9901    4.6649  -17.9826 C   0  0  0  0  0  0  0  0  0  0  0  0
   -6.7723    4.9497  -16.6365 C   0  0  0  0  0  0  0  0  0  0  0  0
   -5.5112    5.7506  -16.5133 C   0  0  0  0  0  0  0  0  0  0  0  0
   -4.9821    5.7996  -17.9911 C   0  0  0  0  0  0  0  0  0  0  0  0
   -4.6433    7.2436  -18.4226 C   0  0  0  0  0  0  0  0  0  0  0  0
   -3.5818    7.3003  -19.5297 C   0  0  0  0  0  0  0  0  0  0  0  0
   -3.6151    6.1303  -20.4049 N   0  0  0  0  0  0  0  0  0  0  0  0
   -3.2682    4.9173  -19.6572 C   0  0  0  0  0  0  0  0  0  0  0  0
   -3.7467    4.9174  -18.2007 C   0  0  0  0  0  0  0  0  0  0  0  0
   -6.0969    5.3233  -18.8347 N   0  0  0  0  0  0  0  0  0  0  0  0
   -2.9455    6.2597  -21.1634 H   0  0  0  0  0  0  0  0  0  0  0  0
   -6.1928    5.4454  -19.8069 H   0  0  0  0  0  0  0  0  0  0  0  0
   -7.2102    6.1095  -14.0654 O   0  0  0  0  0  0  0  0  0  0  0  0
   -7.6065    5.0275  -14.2574 C   0  0  0  0  0  0  0  0  0  0  0  0
   -8.1727    3.9758  -13.2706 N   0  0  0  0  0  0  0  0  0  0  0  0
   -8.5151    3.1556  -13.6940 H   0  0  0  0  0  0  0  0  0  0  0  0
   -8.2762    4.0023  -11.8814 C   0  0  0  0  0  0  0  0  0  0  0  0
   -8.0552    5.1681  -11.1356 C   0  0  0  0  0  0  0  0  0  0  0  0
   -8.1954    5.2602   -9.7864 N   0  0  0  0  0  0  0  0  0  0  0  0
   -8.5675    4.1162   -9.1854 C   0  0  0  0  0  0  0  0  0  0  0  0
   -8.8007    2.9179   -9.8335 C   0  0  0  0  0  0  0  0  0  0  0  0
   -8.6634    2.8450  -11.2070 C   0  0  0  0  0  0  0  0  0  0  0  0
   -9.2166    1.8836   -8.8485 C   0  0  0  0  0  0  0  0  0  0  0  0
   -9.0344    2.4830   -7.5018 N   0  0  0  0  0  0  0  0  0  0  0  0
   -8.8344    3.9386   -7.7182 C   0  0  0  0  0  0  0  0  0  0  0  0
   -8.2184    2.0787   -7.0424 H   0  0  0  0  0  0  0  0  0  0  0  0
 18 19  2  0  0  0
 19 20  1  0  0  0
 20 22  1  0  0  0
 22 23  2  0  0  0
 23 24  1  0  0  0
 24 25  2  0  0  0
 25 26  1  0  0  0
 26 27  2  0  0  0
 26 28  1  0  0  0
 28 29  1  0  0  0
 29 30  1  0  0  0
 19  1  1  0  0  0
  1  2  2  0  0  0
  2  3  1  0  0  0
  3  4  1  0  0  0
  3  5  2  0  0  0
  5  6  1  0  0  0
  6  7  2  0  0  0
  7  8  1  0  0  0
  8  9  1  0  0  0
  9 10  1  0  0  0
 10 11  1  0  0  0
 11 12  1  0  0  0
 12 13  1  0  0  0
 13 14  1  0  0  0
  9 15  1  0  0  0
 27 22  1  0  0  0
  7  1  1  0  0  0
 14  9  1  0  0  0
 30 25  1  0  0  0
 15  6  1  0  0  0
 20 21  1  0  0  0
 29 31  1  0  0  0
 12 16  1  0  0  0
 15 17  1  0  0  0
M  END
> <minimizedAffinity>
-9.81748

> <minimizedRMSD>
0.44009

$$$$
P22299


 28 31  0  0  0  0  0  0  0  0999 V2000
   -4.9717    5.3042  -17.6436 N   0  0  0  0  0  0  0  0  0  0  0  0
   -5.5048    5.3513  -16.3848 C   0  0  0  0  0  0  0  0  0  0  0  0
   -6.7663    4.8288  -16.5170 C   0  0  0  0  0  0  0  0  0  0  0  0
   -7.7170    4.5964  -15.5200 C   0  0  0  0  0  0  0  0  0  0  0  0
   -8.8869    4.0092  -16.0464 C   0  0  0  0  0  0  0  0  0  0  0  0
   -9.0674    3.7122  -17.4237 C   0  0  0  0  0  0  0  0  0  0  0  0
  -10.2361    3.1740  -17.7955 F   0  0  0  0  0  0  0  0  0  0  0  0
   -8.1144    3.9563  -18.4154 C   0  0  0  0  0  0  0  0  0  0  0  0
   -6.9346    4.5198  -17.9203 C   0  0  0  0  0  0  0  0  0  0  0  0
   -5.8250    4.8580  -18.5843 N   0  0  0  0  0  0  0  0  0  0  0  0
   -3.1605    4.7686  -19.1217 N   0  0  0  0  0  0  0  0  0  0  0  0
   -3.6093    5.6570  -18.0371 C   0  0  0  0  0  0  0  0  0  0  0  0
   -2.2096    5.0177  -19.3938 H   0  0  0  0  0  0  0  0  0  0  0  0
   -3.7817    4.8712  -19.9243 H   0  0  0  0  0  0  0  0  0  0  0  0
   -7.6219    5.0290  -14.1112 C   0  0  0  0  0  0  0  0  0  0  0  0
   -7.1848    6.0877  -13.8838 O   0  0  0  0  0  0  0  0  0  0  0  0
   -8.2434    3.9750  -13.1624 N   0  0  0  0  0  0  0  0  0  0  0  0
   -8.6127    3.1814  -13.6131 H   0  0  0  0  0  0  0  0  0  0  0  0
   -8.3650    3.9669  -11.7732 C   0  0  0  0  0  0  0  0  0  0  0  0
   -8.1393    5.1091  -10.9921 C   0  0  0  0  0  0  0  0  0  0  0  0
   -8.3091    5.1696   -9.6435 N   0  0  0  0  0  0  0  0  0  0  0  0
   -8.7070    4.0147   -9.0798 C   0  0  0  0  0  0  0  0  0  0  0  0
   -8.9339    2.8334   -9.7640 C   0  0  0  0  0  0  0  0  0  0  0  0
   -8.7695    2.7948  -11.1353 C   0  0  0  0  0  0  0  0  0  0  0  0
   -9.3135    1.7653   -8.7976 C   0  0  0  0  0  0  0  0  0  0  0  0
   -9.6810    2.4698   -7.5443 N   0  0  0  0  0  0  0  0  0  0  0  0
   -8.9983    3.7874   -7.6204 C   0  0  0  0  0  0  0  0  0  0  0  0
   -9.3566    1.9458   -6.7316 H   0  0  0  0  0  0  0  0  0  0  0  0
 11 12  1  0  0  0
 12  1  1  0  0  0
  1  2  1  0  0  0
  2  3  2  0  0  0
  3  4  1  0  0  0
  4 15  1  0  0  0
 15 16  2  0  0  0
 15 17  1  0  0  0
 17 19  1  0  0  0
 19 20  2  0  0  0
 20 21  1  0  0  0
 21 22  2  0  0  0
 22 23  1  0  0  0
 23 24  2  0  0  0
 23 25  1  0  0  0
 25 26  1  0  0  0
 26 27  1  0  0  0
  4  5  2  0  0  0
  5  6  1  0  0  0
  6  7  1  0  0  0
  6  8  2  0  0  0
  8  9  1  0  0  0
  9 10  2  0  0  0
 10  1  1  0  0  0
  9  3  1  0  0  0
 24 19  1  0  0  0
 27 22  1  0  0  0
 11 13  1  0  0  0
 11 14  1  0  0  0
 17 18  1  0  0  0
 26 28  1  0  0  0
M  END
> <minimizedAffinity>
-8.60673

> <minimizedRMSD>
0.36560

$$$$
P22301


 27 31  0  0  0  0  0  0  0  0999 V2000
   -8.8381    6.1192  -13.9097 O   0  0  0  0  0  0  0  0  0  0  0  0
   -8.4346    5.0268  -14.0258 C   0  0  0  0  0  0  0  0  0  0  0  0
   -8.2452    3.8989  -12.9600 N   0  0  0  0  0  0  0  0  0  0  0  0
   -7.9565    3.0312  -13.3246 H   0  0  0  0  0  0  0  0  0  0  0  0
   -8.0309    4.4005  -15.3649 C   0  0  0  0  0  0  0  0  0  0  0  0
   -9.3048    4.1716  -16.2107 C   0  0  0  0  0  0  0  0  0  0  0  0
   -9.0396    3.6163  -17.6149 C   0  0  0  0  0  0  0  0  0  0  0  0
  -10.1942    3.6272  -18.3248 F   0  0  0  0  0  0  0  0  0  0  0  0
   -7.9558    4.3659  -18.3977 C   0  0  0  0  0  0  0  0  0  0  0  0
   -6.7542    4.5016  -17.5027 C   0  0  0  0  0  0  0  0  0  0  0  0
   -5.4186    5.0334  -17.9544 C   0  0  0  0  0  0  0  0  0  0  0  0
   -4.9550    5.6769  -19.2196 C   0  0  0  0  0  0  0  0  0  0  0  0
   -3.6535    6.2258  -18.8178 O   0  0  0  0  0  0  0  0  0  0  0  0
   -3.6132    6.2864  -17.3503 C   0  0  0  0  0  0  0  0  0  0  0  0
   -5.0580    6.1156  -16.9613 C   0  0  0  0  0  0  0  0  0  0  0  0
   -5.6534    5.6050  -15.6571 C   0  0  0  0  0  0  0  0  0  0  0  0
   -7.0649    5.2517  -16.1886 C   0  0  0  0  0  0  0  0  0  0  0  0
   -8.4186    3.9227  -11.5793 C   0  0  0  0  0  0  0  0  0  0  0  0
   -8.2017    5.0608  -10.7940 C   0  0  0  0  0  0  0  0  0  0  0  0
   -8.3612    5.1049   -9.4429 N   0  0  0  0  0  0  0  0  0  0  0  0
   -8.7462    3.9404   -8.8864 C   0  0  0  0  0  0  0  0  0  0  0  0
   -8.9823    2.7672   -9.5797 C   0  0  0  0  0  0  0  0  0  0  0  0
   -8.8195    2.7428  -10.9495 C   0  0  0  0  0  0  0  0  0  0  0  0
   -9.3555    1.6858   -8.6257 C   0  0  0  0  0  0  0  0  0  0  0  0
   -9.6908    2.3746   -7.3535 N   0  0  0  0  0  0  0  0  0  0  0  0
   -8.9949    3.6856   -7.4234 C   0  0  0  0  0  0  0  0  0  0  0  0
   -9.3561    1.8344   -6.5557 H   0  0  0  0  0  0  0  0  0  0  0  0
  1  2  2  0  0  0
  2  3  1  0  0  0
  3 18  1  0  0  0
 18 19  2  0  0  0
 19 20  1  0  0  0
 20 21  2  0  0  0
 21 22  1  0  0  0
 22 23  2  0  0  0
 22 24  1  0  0  0
 24 25  1  0  0  0
 25 26  1  0  0  0
  5  2  1  0  0  0
  5  6  1  0  0  0
  6  7  1  0  0  0
  7  8  1  0  0  0
  7  9  1  0  0  0
 10  9  1  0  0  0
 10 11  1  0  0  0
 11 12  1  0  0  0
 12 13  1  0  0  0
 13 14  1  0  0  0
 15 14  1  0  0  0
 15 16  1  0  0  0
 17 16  1  0  0  0
 23 18  1  0  0  0
 17  5  1  0  0  0
 26 21  1  0  0  0
 17 10  1  0  0  0
 15 11  1  0  0  0
  3  4  1  0  0  0
 25 27  1  0  0  0
M  END
> <minimizedAffinity>
-9.02122

> <minimizedRMSD>
0.61409

$$$$
P22302


 27 31  0  0  0  0  0  0  0  0999 V2000
   -7.6331    6.6471  -13.9993 O   0  0  0  0  0  0  0  0  0  0  0  0
   -7.7994    5.4970  -14.1430 C   0  0  0  0  0  0  0  0  0  0  0  0
   -8.0506    4.3692  -13.0867 N   0  0  0  0  0  0  0  0  0  0  0  0
   -8.0845    3.4575  -13.4567 H   0  0  0  0  0  0  0  0  0  0  0  0
   -7.7696    4.7968  -15.5117 C   0  0  0  0  0  0  0  0  0  0  0  0
   -9.2054    4.7366  -16.0686 C   0  0  0  0  0  0  0  0  0  0  0  0
   -9.3190    4.1758  -17.4896 C   0  0  0  0  0  0  0  0  0  0  0  0
  -10.5653    4.3945  -17.9725 F   0  0  0  0  0  0  0  0  0  0  0  0
   -8.2886    4.7125  -18.4817 C   0  0  0  0  0  0  0  0  0  0  0  0
   -6.9283    4.6547  -17.8368 C   0  0  0  0  0  0  0  0  0  0  0  0
   -5.6818    4.9811  -18.6156 C   0  0  0  0  0  0  0  0  0  0  0  0
   -5.5608    6.3172  -19.2979 C   0  0  0  0  0  0  0  0  0  0  0  0
   -4.1606    6.6257  -19.2593 O   0  0  0  0  0  0  0  0  0  0  0  0
   -3.5730    5.9644  -18.1266 C   0  0  0  0  0  0  0  0  0  0  0  0
   -4.6219    5.0511  -17.5280 C   0  0  0  0  0  0  0  0  0  0  0  0
   -5.3475    5.5357  -16.2482 C   0  0  0  0  0  0  0  0  0  0  0  0
   -6.8564    5.4774  -16.5507 C   0  0  0  0  0  0  0  0  0  0  0  0
   -8.2343    4.4468  -11.7049 C   0  0  0  0  0  0  0  0  0  0  0  0
   -8.0005    5.6047  -10.9557 C   0  0  0  0  0  0  0  0  0  0  0  0
   -8.1362    5.6894   -9.6020 N   0  0  0  0  0  0  0  0  0  0  0  0
   -8.5041    4.5419   -8.9999 C   0  0  0  0  0  0  0  0  0  0  0  0
   -8.7565    3.3506   -9.6521 C   0  0  0  0  0  0  0  0  0  0  0  0
   -8.6332    3.2928  -11.0270 C   0  0  0  0  0  0  0  0  0  0  0  0
   -9.0812    2.2913   -8.6545 C   0  0  0  0  0  0  0  0  0  0  0  0
   -9.3678    3.0100   -7.3850 N   0  0  0  0  0  0  0  0  0  0  0  0
   -8.6870    4.3241   -7.5213 C   0  0  0  0  0  0  0  0  0  0  0  0
   -8.9935    2.4937   -6.5889 H   0  0  0  0  0  0  0  0  0  0  0  0
  1  2  2  0  0  0
  2  3  1  0  0  0
  3 18  1  0  0  0
 18 19  2  0  0  0
 19 20  1  0  0  0
 20 21  2  0  0  0
 21 22  1  0  0  0
 22 23  2  0  0  0
 22 24  1  0  0  0
 24 25  1  0  0  0
 25 26  1  0  0  0
  5  2  1  0  0  0
  5  6  1  0  0  0
  6  7  1  0  0  0
  7  8  1  0  0  0
  7  9  1  0  0  0
 10  9  1  0  0  0
 10 11  1  0  0  0
 11 12  1  0  0  0
 12 13  1  0  0  0
 13 14  1  0  0  0
 15 14  1  0  0  0
 15 16  1  0  0  0
 17 16  1  0  0  0
 23 18  1  0  0  0
 17  5  1  0  0  0
 26 21  1  0  0  0
 17 10  1  0  0  0
 15 11  1  0  0  0
  3  4  1  0  0  0
 25 27  1  0  0  0
M  END
> <minimizedAffinity>
-8.06821

> <minimizedRMSD>
0.25873

$$$$
P22303


 28 32  0  0  0  0  0  0  0  0999 V2000
   -6.0307    3.9960  -13.7093 O   0  0  0  0  0  0  0  0  0  0  0  0
   -7.0126    4.6174  -13.8219 C   0  0  0  0  0  0  0  0  0  0  0  0
   -8.0728    5.0301  -12.7577 N   0  0  0  0  0  0  0  0  0  0  0  0
   -8.7814    5.6268  -13.0912 H   0  0  0  0  0  0  0  0  0  0  0  0
   -7.5380    5.0996  -15.1910 C   0  0  0  0  0  0  0  0  0  0  0  0
   -8.4660    3.9845  -15.6913 C   0  0  0  0  0  0  0  0  0  0  0  0
   -8.8573    4.0682  -17.1516 C   0  0  0  0  0  0  0  0  0  0  0  0
   -9.5633    2.9479  -17.4653 F   0  0  0  0  0  0  0  0  0  0  0  0
   -7.6298    4.1160  -18.0245 C   0  0  0  0  0  0  0  0  0  0  0  0
   -6.7605    5.3152  -17.7068 C   0  0  0  0  0  0  0  0  0  0  0  0
   -6.4809    5.5741  -16.1979 C   0  0  0  0  0  0  0  0  0  0  0  0
   -4.9752    5.2944  -16.0351 C   0  0  0  0  0  0  0  0  0  0  0  0
   -4.5846    5.8070  -17.3493 N   0  0  0  0  0  0  0  0  0  0  0  0
   -3.2914    5.5538  -17.8451 N   0  0  0  0  0  0  0  0  0  0  0  0
   -3.5215    5.7544  -19.3094 C   0  0  0  0  0  0  0  0  0  0  0  0
   -5.0442    5.6465  -19.5155 C   0  0  0  0  0  0  0  0  0  0  0  0
   -5.4234    5.1142  -18.2263 N   0  0  0  0  0  0  0  0  0  0  0  0
   -2.9875    4.6024  -17.6378 H   0  0  0  0  0  0  0  0  0  0  0  0
   -8.1806    4.6925  -11.4133 C   0  0  0  0  0  0  0  0  0  0  0  0
   -8.1483    5.6841  -10.4281 C   0  0  0  0  0  0  0  0  0  0  0  0
   -8.3514    5.4663   -9.1058 N   0  0  0  0  0  0  0  0  0  0  0  0
   -8.6908    4.2008   -8.7992 C   0  0  0  0  0  0  0  0  0  0  0  0
   -8.8105    3.1649   -9.7107 C   0  0  0  0  0  0  0  0  0  0  0  0
   -8.4853    3.3827  -11.0386 C   0  0  0  0  0  0  0  0  0  0  0  0
   -9.3611    1.9621   -9.0186 C   0  0  0  0  0  0  0  0  0  0  0  0
   -9.8278    2.4395   -7.6883 N   0  0  0  0  0  0  0  0  0  0  0  0
   -9.0791    3.6921   -7.4378 C   0  0  0  0  0  0  0  0  0  0  0  0
   -9.6195    1.7486   -6.9675 H   0  0  0  0  0  0  0  0  0  0  0  0
  1  2  2  0  0  0
  2  3  1  0  0  0
  3 19  1  0  0  0
 19 20  2  0  0  0
 20 21  1  0  0  0
 21 22  2  0  0  0
 22 23  1  0  0  0
 23 24  2  0  0  0
 23 25  1  0  0  0
 25 26  1  0  0  0
 26 27  1  0  0  0
  5  2  1  0  0  0
  5  6  1  0  0  0
  6  7  1  0  0  0
  7  8  1  0  0  0
  7  9  1  0  0  0
 10  9  1  0  0  0
 10 11  1  0  0  0
 11 12  1  0  0  0
 12 13  1  0  0  0
 13 14  1  0  0  0
 14 15  1  0  0  0
 15 16  1  0  0  0
 16 17  1  0  0  0
 24 19  1  0  0  0
 11  5  1  0  0  0
 17 13  1  0  0  0
 27 22  1  0  0  0
 17 10  1  0  0  0
  3  4  1  0  0  0
 26 28  1  0  0  0
 14 18  1  0  0  0
M  END
> <minimizedAffinity>
-8.49121

> <minimizedRMSD>
0.32473

$$$$
P22305


 31 34  0  0  0  0  0  0  0  0999 V2000
   -7.3306    5.8548  -14.0201 C   0  0  0  0  0  0  0  0  0  0  0  0
   -6.8230    6.9040  -13.9863 O   0  0  0  0  0  0  0  0  0  0  0  0
   -8.0321    5.0486  -12.9104 N   0  0  0  0  0  0  0  0  0  0  0  0
   -8.4518    4.2107  -13.2123 H   0  0  0  0  0  0  0  0  0  0  0  0
   -5.2604    5.1064  -18.1667 N   0  0  0  0  0  0  0  0  0  0  0  0
   -4.4109    5.7956  -17.3588 N   0  0  0  0  0  0  0  0  0  0  0  0
   -5.0388    5.8529  -16.1873 C   0  0  0  0  0  0  0  0  0  0  0  0
   -6.3234    5.2789  -16.2266 C   0  0  0  0  0  0  0  0  0  0  0  0
   -7.4028    5.1611  -15.3279 C   0  0  0  0  0  0  0  0  0  0  0  0
   -8.5844    4.5395  -15.7456 C   0  0  0  0  0  0  0  0  0  0  0  0
   -8.6905    4.0740  -17.0465 C   0  0  0  0  0  0  0  0  0  0  0  0
   -9.8485    3.5266  -17.4363 F   0  0  0  0  0  0  0  0  0  0  0  0
   -7.6452    4.1882  -17.9652 C   0  0  0  0  0  0  0  0  0  0  0  0
   -6.4540    4.7921  -17.5283 C   0  0  0  0  0  0  0  0  0  0  0  0
   -5.0372    5.0824  -19.6249 C   0  0  0  0  0  0  0  0  0  0  0  0
   -2.6535    4.3371  -19.7849 C   0  0  0  0  0  0  0  0  0  0  0  0
   -3.6697    5.3097  -20.1175 N   0  0  0  0  0  0  0  0  0  0  0  0
   -3.7192    5.3594  -21.1351 H   0  0  0  0  0  0  0  0  0  0  0  0
   -8.1691    5.3114  -11.5527 C   0  0  0  0  0  0  0  0  0  0  0  0
   -8.1176    6.6148  -11.0369 C   0  0  0  0  0  0  0  0  0  0  0  0
   -8.2483    6.9373   -9.7228 N   0  0  0  0  0  0  0  0  0  0  0  0
   -8.4387    5.8878   -8.9125 C   0  0  0  0  0  0  0  0  0  0  0  0
   -8.4988    4.5766   -9.3320 C   0  0  0  0  0  0  0  0  0  0  0  0
   -8.3652    4.2581  -10.6722 C   0  0  0  0  0  0  0  0  0  0  0  0
   -8.6700    3.7000   -8.1485 C   0  0  0  0  0  0  0  0  0  0  0  0
   -8.9320    4.5613   -6.9942 N   0  0  0  0  0  0  0  0  0  0  0  0
   -8.5992    5.9332   -7.4203 C   0  0  0  0  0  0  0  0  0  0  0  0
   -8.3467    4.2841   -6.2062 H   0  0  0  0  0  0  0  0  0  0  0  0
   -9.8608    2.8983   -8.2644 N   0  0  0  0  0  0  0  0  0  0  0  0
   -9.4223    1.5468   -8.5364 C   0  0  0  0  0  0  0  0  0  0  0  0
  -10.4426    3.2404   -9.0292 H   0  0  0  0  0  0  0  0  0  0  0  0
 16 17  1  0  0  0
 17 15  1  0  0  0
 15  5  1  0  0  0
  5  6  1  0  0  0
  6  7  2  0  0  0
  7  8  1  0  0  0
  8  9  2  0  0  0
  9  1  1  0  0  0
  1  2  2  0  0  0
  1  3  1  0  0  0
  3 19  1  0  0  0
 19 20  2  0  0  0
 20 21  1  0  0  0
 21 22  2  0  0  0
 22 23  1  0  0  0
 23 24  2  0  0  0
 23 25  1  0  0  0
 25 29  1  0  0  0
 29 30  1  0  0  0
 25 26  1  0  0  0
 26 27  1  0  0  0
  9 10  1  0  0  0
 10 11  2  0  0  0
 11 12  1  0  0  0
 11 13  1  0  0  0
 13 14  2  0  0  0
 14  5  1  0  0  0
 14  8  1  0  0  0
 24 19  1  0  0  0
 27 22  1  0  0  0
 17 18  1  0  0  0
  3  4  1  0  0  0
 29 31  1  0  0  0
 26 28  1  0  0  0
M  END
> <minimizedAffinity>
-7.20609

> <minimizedRMSD>
0.59031

$$$$
P22306


 29 32  0  0  0  0  0  0  0  0999 V2000
   -7.2609    4.6758  -13.9830 C   0  0  0  0  0  0  0  0  0  0  0  0
   -6.1076    4.0002  -13.5493 O   0  0  0  0  0  0  0  0  0  0  0  0
   -7.0606    5.9872  -13.7016 F   0  0  0  0  0  0  0  0  0  0  0  0
   -5.3394    4.3181  -14.0490 H   0  0  0  0  0  0  0  0  0  0  0  0
   -5.5021    4.9316  -19.8910 N   0  0  0  0  0  0  0  0  0  0  0  0
   -5.6722    5.0038  -18.5084 N   0  0  0  0  0  0  0  0  0  0  0  0
   -4.7395    5.5561  -17.7214 N   0  0  0  0  0  0  0  0  0  0  0  0
   -5.2242    5.3862  -16.4895 C   0  0  0  0  0  0  0  0  0  0  0  0
   -6.5161    4.8089  -16.4734 C   0  0  0  0  0  0  0  0  0  0  0  0
   -7.4649    4.4596  -15.4759 C   0  0  0  0  0  0  0  0  0  0  0  0
   -8.6940    3.9439  -15.9557 C   0  0  0  0  0  0  0  0  0  0  0  0
   -8.9434    3.7420  -17.3075 C   0  0  0  0  0  0  0  0  0  0  0  0
  -10.1250    3.2408  -17.6852 F   0  0  0  0  0  0  0  0  0  0  0  0
   -8.0016    4.0479  -18.2737 C   0  0  0  0  0  0  0  0  0  0  0  0
   -6.7927    4.5914  -17.8248 C   0  0  0  0  0  0  0  0  0  0  0  0
   -4.5850    5.3017  -20.1405 H   0  0  0  0  0  0  0  0  0  0  0  0
   -6.2274    5.4810  -20.3519 H   0  0  0  0  0  0  0  0  0  0  0  0
   -8.3871    4.1847  -13.2247 N   0  0  0  0  0  0  0  0  0  0  0  0
   -9.1618    3.8439  -13.7276 H   0  0  0  0  0  0  0  0  0  0  0  0
   -8.4580    4.1578  -11.8339 C   0  0  0  0  0  0  0  0  0  0  0  0
   -8.2851    5.2695  -10.9880 C   0  0  0  0  0  0  0  0  0  0  0  0
   -8.3676    5.2570   -9.6295 N   0  0  0  0  0  0  0  0  0  0  0  0
   -8.7044    4.0680   -9.1025 C   0  0  0  0  0  0  0  0  0  0  0  0
   -8.9578    2.9258   -9.8339 C   0  0  0  0  0  0  0  0  0  0  0  0
   -8.8388    2.9604  -11.2102 C   0  0  0  0  0  0  0  0  0  0  0  0
   -9.3203    1.8111   -8.9142 C   0  0  0  0  0  0  0  0  0  0  0  0
   -9.6120    2.4514   -7.6056 N   0  0  0  0  0  0  0  0  0  0  0  0
   -8.9073    3.7577   -7.6439 C   0  0  0  0  0  0  0  0  0  0  0  0
   -9.2590    1.8772   -6.8401 H   0  0  0  0  0  0  0  0  0  0  0  0
  5  6  1  0  0  0
  6  7  1  0  0  0
  7  8  2  0  0  0
  8  9  1  0  0  0
  9 10  2  0  0  0
 10  1  1  0  0  0
  1  2  1  0  0  0
  1  3  1  0  0  0
  1 18  1  0  0  0
 18 20  1  0  0  0
 20 21  2  0  0  0
 21 22  1  0  0  0
 22 23  2  0  0  0
 23 24  1  0  0  0
 24 25  2  0  0  0
 24 26  1  0  0  0
 26 27  1  0  0  0
 27 28  1  0  0  0
 10 11  1  0  0  0
 11 12  2  0  0  0
 12 13  1  0  0  0
 12 14  1  0  0  0
 14 15  2  0  0  0
 15  6  1  0  0  0
 15  9  1  0  0  0
 25 20  1  0  0  0
 28 23  1  0  0  0
  5 16  1  0  0  0
  5 17  1  0  0  0
  2  4  1  0  0  0
 18 19  1  0  0  0
 27 29  1  0  0  0
M  END
> <minimizedAffinity>
-9.05387

> <minimizedRMSD>
0.45598

$$$$
P22308


 29 32  0  0  0  0  0  0  0  0999 V2000
   -5.6824    4.9998  -18.0097 N   0  0  0  0  0  0  0  0  0  0  0  0
   -4.9075    5.5144  -17.0376 N   0  0  0  0  0  0  0  0  0  0  0  0
   -5.6735    5.4730  -15.9488 C   0  0  0  0  0  0  0  0  0  0  0  0
   -6.9373    4.9030  -16.1941 C   0  0  0  0  0  0  0  0  0  0  0  0
   -8.0943    4.6291  -15.4424 C   0  0  0  0  0  0  0  0  0  0  0  0
   -9.1829    4.0118  -16.0672 C   0  0  0  0  0  0  0  0  0  0  0  0
   -9.1268    3.6994  -17.4186 C   0  0  0  0  0  0  0  0  0  0  0  0
  -10.1925    3.1286  -17.9933 F   0  0  0  0  0  0  0  0  0  0  0  0
   -8.0073    3.9827  -18.1955 C   0  0  0  0  0  0  0  0  0  0  0  0
   -6.9145    4.5818  -17.5489 C   0  0  0  0  0  0  0  0  0  0  0  0
   -8.1846    5.1060  -14.0432 C   0  0  0  0  0  0  0  0  0  0  0  0
   -8.2025    6.2580  -13.8591 O   0  0  0  0  0  0  0  0  0  0  0  0
   -8.2333    3.9320  -13.0426 N   0  0  0  0  0  0  0  0  0  0  0  0
   -8.1265    3.0409  -13.4473 H   0  0  0  0  0  0  0  0  0  0  0  0
   -8.4038    3.9280  -11.6605 C   0  0  0  0  0  0  0  0  0  0  0  0
   -8.1766    5.0669  -10.8730 C   0  0  0  0  0  0  0  0  0  0  0  0
   -8.3318    5.1193   -9.5229 N   0  0  0  0  0  0  0  0  0  0  0  0
   -8.7219    3.9593   -8.9663 C   0  0  0  0  0  0  0  0  0  0  0  0
   -8.9677    2.7866   -9.6598 C   0  0  0  0  0  0  0  0  0  0  0  0
   -8.8081    2.7534  -11.0312 C   0  0  0  0  0  0  0  0  0  0  0  0
   -9.3416    1.7130   -8.6984 C   0  0  0  0  0  0  0  0  0  0  0  0
   -9.6872    2.4116   -7.4337 N   0  0  0  0  0  0  0  0  0  0  0  0
   -8.9708    3.7109   -7.5029 C   0  0  0  0  0  0  0  0  0  0  0  0
   -9.3720    1.8711   -6.6282 H   0  0  0  0  0  0  0  0  0  0  0  0
   -5.3294    4.9434  -19.3755 N   0  0  0  0  0  0  0  0  0  0  0  0
   -5.2020    3.9644  -19.6317 H   0  0  0  0  0  0  0  0  0  0  0  0
   -2.9118    4.7220  -19.8738 C   0  0  0  0  0  0  0  0  0  0  0  0
   -4.1039    5.6682  -19.7144 C   0  0  0  0  0  0  0  0  0  0  0  0
   -4.3529    6.4263  -21.0204 C   0  0  0  0  0  0  0  0  0  0  0  0
 27 28  1  0  0  0
 28 29  1  0  0  0
 28 25  1  0  0  0
 25  1  1  0  0  0
  1  2  1  0  0  0
  2  3  2  0  0  0
  3  4  1  0  0  0
  4  5  2  0  0  0
  5 11  1  0  0  0
 11 12  2  0  0  0
 11 13  1  0  0  0
 13 15  1  0  0  0
 15 16  2  0  0  0
 16 17  1  0  0  0
 17 18  2  0  0  0
 18 19  1  0  0  0
 19 20  2  0  0  0
 19 21  1  0  0  0
 21 22  1  0  0  0
 22 23  1  0  0  0
  5  6  1  0  0  0
  6  7  2  0  0  0
  7  8  1  0  0  0
  7  9  1  0  0  0
  9 10  2  0  0  0
 10  1  1  0  0  0
 10  4  1  0  0  0
 20 15  1  0  0  0
 23 18  1  0  0  0
 25 26  1  0  0  0
 13 14  1  0  0  0
 22 24  1  0  0  0
M  END
> <minimizedAffinity>
-8.85178

> <minimizedRMSD>
0.44952

$$$$
P22310


 28 31  0  0  0  0  0  0  0  0999 V2000
   -5.4380    5.0492  -18.1631 N   0  0  0  0  0  0  0  0  0  0  0  0
   -4.5926    5.5605  -17.2302 N   0  0  0  0  0  0  0  0  0  0  0  0
   -5.2885    5.4749  -16.0942 C   0  0  0  0  0  0  0  0  0  0  0  0
   -6.5797    4.9302  -16.2758 C   0  0  0  0  0  0  0  0  0  0  0  0
   -7.6964    4.6568  -15.4553 C   0  0  0  0  0  0  0  0  0  0  0  0
   -8.8498    4.1152  -16.0358 C   0  0  0  0  0  0  0  0  0  0  0  0
   -8.8883    3.8543  -17.3967 C   0  0  0  0  0  0  0  0  0  0  0  0
  -10.0125    3.3541  -17.9231 F   0  0  0  0  0  0  0  0  0  0  0  0
   -7.8044    4.1149  -18.2316 C   0  0  0  0  0  0  0  0  0  0  0  0
   -6.6522    4.6553  -17.6431 C   0  0  0  0  0  0  0  0  0  0  0  0
   -3.6160    4.7895  -19.7172 N   0  0  0  0  0  0  0  0  0  0  0  0
   -5.0562    5.0644  -19.5811 C   0  0  0  0  0  0  0  0  0  0  0  0
   -3.3593    4.8019  -20.7043 H   0  0  0  0  0  0  0  0  0  0  0  0
   -3.4061    3.8726  -19.3228 H   0  0  0  0  0  0  0  0  0  0  0  0
   -7.6853    5.0700  -14.0275 C   0  0  0  0  0  0  0  0  0  0  0  0
   -7.2981    6.1428  -13.7767 O   0  0  0  0  0  0  0  0  0  0  0  0
   -8.2727    3.9751  -13.1056 N   0  0  0  0  0  0  0  0  0  0  0  0
   -8.6009    3.1740  -13.5744 H   0  0  0  0  0  0  0  0  0  0  0  0
   -8.4129    3.9385  -11.7191 C   0  0  0  0  0  0  0  0  0  0  0  0
   -8.2264    5.0750  -10.9196 C   0  0  0  0  0  0  0  0  0  0  0  0
   -8.3642    5.1004   -9.5676 N   0  0  0  0  0  0  0  0  0  0  0  0
   -8.6951    3.9184   -9.0190 C   0  0  0  0  0  0  0  0  0  0  0  0
   -8.8951    2.7453   -9.7220 C   0  0  0  0  0  0  0  0  0  0  0  0
   -8.7629    2.7405  -11.0985 C   0  0  0  0  0  0  0  0  0  0  0  0
   -9.2627    1.6510   -8.7839 C   0  0  0  0  0  0  0  0  0  0  0  0
   -9.1057    2.1955   -7.4112 N   0  0  0  0  0  0  0  0  0  0  0  0
   -8.9364    3.6630   -7.5591 C   0  0  0  0  0  0  0  0  0  0  0  0
   -8.2849    1.7892   -6.9622 H   0  0  0  0  0  0  0  0  0  0  0  0
 11 12  1  0  0  0
 12  1  1  0  0  0
  1  2  1  0  0  0
  2  3  2  0  0  0
  3  4  1  0  0  0
  4  5  2  0  0  0
  5 15  1  0  0  0
 15 16  2  0  0  0
 15 17  1  0  0  0
 17 19  1  0  0  0
 19 20  2  0  0  0
 20 21  1  0  0  0
 21 22  2  0  0  0
 22 23  1  0  0  0
 23 24  2  0  0  0
 23 25  1  0  0  0
 25 26  1  0  0  0
 26 27  1  0  0  0
  5  6  1  0  0  0
  6  7  2  0  0  0
  7  8  1  0  0  0
  7  9  1  0  0  0
  9 10  2  0  0  0
 10  1  1  0  0  0
 10  4  1  0  0  0
 24 19  1  0  0  0
 27 22  1  0  0  0
 11 13  1  0  0  0
 11 14  1  0  0  0
 17 18  1  0  0  0
 26 28  1  0  0  0
M  END
> <minimizedAffinity>
-8.61213

> <minimizedRMSD>
0.39221

$$$$
P22311


 27 30  0  0  0  0  0  0  0  0999 V2000
   -7.3405    4.8488  -14.1957 C   0  0  0  0  0  0  0  0  0  0  0  0
   -6.5055    5.6261  -13.9497 O   0  0  0  0  0  0  0  0  0  0  0  0
   -8.2543    4.0300  -13.2572 N   0  0  0  0  0  0  0  0  0  0  0  0
   -8.8337    3.3772  -13.7126 H   0  0  0  0  0  0  0  0  0  0  0  0
   -5.4942    4.7884  -19.9458 N   0  0  0  0  0  0  0  0  0  0  0  0
   -5.7192    4.9476  -18.5883 N   0  0  0  0  0  0  0  0  0  0  0  0
   -4.8030    5.5257  -17.8034 N   0  0  0  0  0  0  0  0  0  0  0  0
   -5.3206    5.4186  -16.5791 C   0  0  0  0  0  0  0  0  0  0  0  0
   -6.6062    4.8366  -16.5803 C   0  0  0  0  0  0  0  0  0  0  0  0
   -7.5817    4.5118  -15.6183 C   0  0  0  0  0  0  0  0  0  0  0  0
   -8.7922    3.9499  -16.0376 C   0  0  0  0  0  0  0  0  0  0  0  0
   -9.0245    3.7210  -17.3870 C   0  0  0  0  0  0  0  0  0  0  0  0
  -10.2043    3.2070  -17.7559 F   0  0  0  0  0  0  0  0  0  0  0  0
   -8.0737    4.0137  -18.3614 C   0  0  0  0  0  0  0  0  0  0  0  0
   -6.8609    4.5682  -17.9235 C   0  0  0  0  0  0  0  0  0  0  0  0
   -4.5713    5.1524  -20.1825 H   0  0  0  0  0  0  0  0  0  0  0  0
   -6.2054    5.2978  -20.4703 H   0  0  0  0  0  0  0  0  0  0  0  0
   -8.3919    4.0651  -11.8725 C   0  0  0  0  0  0  0  0  0  0  0  0
   -8.2066    5.2412  -11.1319 C   0  0  0  0  0  0  0  0  0  0  0  0
   -8.3025    5.3254   -9.7791 N   0  0  0  0  0  0  0  0  0  0  0  0
   -8.5917    4.1627   -9.1690 C   0  0  0  0  0  0  0  0  0  0  0  0
   -8.7948    2.9567   -9.8131 C   0  0  0  0  0  0  0  0  0  0  0  0
   -8.7019    2.8908  -11.1903 C   0  0  0  0  0  0  0  0  0  0  0  0
   -9.1072    1.8972   -8.8179 C   0  0  0  0  0  0  0  0  0  0  0  0
   -8.9117    2.5029   -7.4759 N   0  0  0  0  0  0  0  0  0  0  0  0
   -8.7652    3.9644   -7.6911 C   0  0  0  0  0  0  0  0  0  0  0  0
   -8.0716    2.1252   -7.0377 H   0  0  0  0  0  0  0  0  0  0  0  0
  5  6  1  0  0  0
  6  7  1  0  0  0
  7  8  2  0  0  0
  8  9  1  0  0  0
  9 10  2  0  0  0
 10  1  1  0  0  0
  1  2  2  0  0  0
  1  3  1  0  0  0
  3 18  1  0  0  0
 18 19  2  0  0  0
 19 20  1  0  0  0
 20 21  2  0  0  0
 21 22  1  0  0  0
 22 23  2  0  0  0
 22 24  1  0  0  0
 24 25  1  0  0  0
 25 26  1  0  0  0
 10 11  1  0  0  0
 11 12  2  0  0  0
 12 13  1  0  0  0
 12 14  1  0  0  0
 14 15  2  0  0  0
 15  6  1  0  0  0
 15  9  1  0  0  0
 23 18  1  0  0  0
 26 21  1  0  0  0
  5 16  1  0  0  0
  5 17  1  0  0  0
  3  4  1  0  0  0
 25 27  1  0  0  0
M  END
> <minimizedAffinity>
-9.16467

> <minimizedRMSD>
0.55403

$$$$
P22312


 32 36  0  0  0  0  0  0  0  0999 V2000
   -7.8509    4.6057  -15.6858 C   0  0  0  0  0  0  0  0  0  0  0  0
   -8.9828    3.9490  -16.1823 C   0  0  0  0  0  0  0  0  0  0  0  0
   -9.0638    3.6149  -17.5329 C   0  0  0  0  0  0  0  0  0  0  0  0
  -10.1576    2.9841  -17.9776 F   0  0  0  0  0  0  0  0  0  0  0  0
   -8.0390    3.9246  -18.4144 C   0  0  0  0  0  0  0  0  0  0  0  0
   -6.9304    4.5950  -17.9247 C   0  0  0  0  0  0  0  0  0  0  0  0
   -6.8268    4.9347  -16.5756 C   0  0  0  0  0  0  0  0  0  0  0  0
   -5.5194    5.6386  -16.3477 C   0  0  0  0  0  0  0  0  0  0  0  0
   -5.7355    6.9502  -15.8171 O   0  0  0  0  0  0  0  0  0  0  0  0
   -4.9106    5.7235  -17.8402 C   0  0  0  0  0  0  0  0  0  0  0  0
   -3.4977    5.0985  -17.8983 C   0  0  0  0  0  0  0  0  0  0  0  0
   -2.3415    6.4047  -17.4429 S   0  0  0  0  0  0  0  0  0  0  0  0
   -3.5553    7.6948  -17.7099 C   0  0  0  0  0  0  0  0  0  0  0  0
   -4.7677    7.1271  -18.2986 N   0  0  0  0  0  0  0  0  0  0  0  0
   -5.7857    4.8865  -18.6756 N   0  0  0  0  0  0  0  0  0  0  0  0
   -6.3129    7.4500  -16.4152 H   0  0  0  0  0  0  0  0  0  0  0  0
   -4.6977    7.1499  -19.3159 H   0  0  0  0  0  0  0  0  0  0  0  0
   -5.6001    4.5863  -19.5946 H   0  0  0  0  0  0  0  0  0  0  0  0
   -7.5759    6.1793  -14.0661 O   0  0  0  0  0  0  0  0  0  0  0  0
   -7.8258    5.0561  -14.2659 C   0  0  0  0  0  0  0  0  0  0  0  0
   -8.2405    3.9327  -13.2883 N   0  0  0  0  0  0  0  0  0  0  0  0
   -8.4728    3.0777  -13.7176 H   0  0  0  0  0  0  0  0  0  0  0  0
   -8.3391    3.9332  -11.8974 C   0  0  0  0  0  0  0  0  0  0  0  0
   -8.0073    5.0591  -11.1284 C   0  0  0  0  0  0  0  0  0  0  0  0
   -8.1236    5.1360   -9.7761 N   0  0  0  0  0  0  0  0  0  0  0  0
   -8.5824    4.0141   -9.1945 C   0  0  0  0  0  0  0  0  0  0  0  0
   -8.9219    2.8522   -9.8661 C   0  0  0  0  0  0  0  0  0  0  0  0
   -8.8076    2.7963  -11.2424 C   0  0  0  0  0  0  0  0  0  0  0  0
   -9.3426    1.8180   -8.8803 C   0  0  0  0  0  0  0  0  0  0  0  0
   -9.6114    2.5511   -7.6182 N   0  0  0  0  0  0  0  0  0  0  0  0
   -8.8292    3.8095   -7.7238 C   0  0  0  0  0  0  0  0  0  0  0  0
   -9.3024    2.0045   -6.8144 H   0  0  0  0  0  0  0  0  0  0  0  0
 19 20  2  0  0  0
 20 21  1  0  0  0
 21 23  1  0  0  0
 23 24  2  0  0  0
 24 25  1  0  0  0
 25 26  2  0  0  0
 26 27  1  0  0  0
 27 28  2  0  0  0
 27 29  1  0  0  0
 29 30  1  0  0  0
 30 31  1  0  0  0
 20  1  1  0  0  0
  1  2  2  0  0  0
  2  3  1  0  0  0
  3  4  1  0  0  0
  3  5  2  0  0  0
  5  6  1  0  0  0
  6  7  2  0  0  0
  7  8  1  0  0  0
  8  9  1  0  0  0
  8 10  1  0  0  0
 10 11  1  0  0  0
 11 12  1  0  0  0
 12 13  1  0  0  0
 13 14  1  0  0  0
 10 15  1  0  0  0
 28 23  1  0  0  0
  7  1  1  0  0  0
 14 10  1  0  0  0
 31 26  1  0  0  0
 15  6  1  0  0  0
 21 22  1  0  0  0
 30 32  1  0  0  0
  9 16  1  0  0  0
 14 17  1  0  0  0
 15 18  1  0  0  0
M  END
> <minimizedAffinity>
-9.19034

> <minimizedRMSD>
0.48320

$$$$
P22314


 28 31  0  0  0  0  0  0  0  0999 V2000
   -5.5401    5.2507  -16.6170 C   0  0  0  0  0  0  0  0  0  0  0  0
   -5.0150    5.3580  -17.8403 N   0  0  0  0  0  0  0  0  0  0  0  0
   -5.9854    4.8698  -18.6359 N   0  0  0  0  0  0  0  0  0  0  0  0
   -7.1072    4.4729  -17.9558 C   0  0  0  0  0  0  0  0  0  0  0  0
   -8.2953    3.9095  -18.4235 C   0  0  0  0  0  0  0  0  0  0  0  0
   -9.2693    3.6264  -17.4796 C   0  0  0  0  0  0  0  0  0  0  0  0
  -10.4319    3.1016  -17.8815 F   0  0  0  0  0  0  0  0  0  0  0  0
   -9.0852    3.9017  -16.1340 C   0  0  0  0  0  0  0  0  0  0  0  0
   -7.8841    4.4678  -15.6736 C   0  0  0  0  0  0  0  0  0  0  0  0
   -6.8628    4.7462  -16.6091 C   0  0  0  0  0  0  0  0  0  0  0  0
   -5.8974    4.8042  -19.6143 H   0  0  0  0  0  0  0  0  0  0  0  0
   -7.8215    4.9387  -14.2643 C   0  0  0  0  0  0  0  0  0  0  0  0
   -7.5532    6.0598  -14.0724 O   0  0  0  0  0  0  0  0  0  0  0  0
   -8.2402    3.8209  -13.2722 N   0  0  0  0  0  0  0  0  0  0  0  0
   -8.4904    2.9675  -13.6944 H   0  0  0  0  0  0  0  0  0  0  0  0
   -8.3196    3.8290  -11.8790 C   0  0  0  0  0  0  0  0  0  0  0  0
   -8.0451    4.9696  -11.1125 C   0  0  0  0  0  0  0  0  0  0  0  0
   -8.1692    5.0410   -9.7586 N   0  0  0  0  0  0  0  0  0  0  0  0
   -8.5743    3.9001   -9.1725 C   0  0  0  0  0  0  0  0  0  0  0  0
   -8.8573    2.7237   -9.8394 C   0  0  0  0  0  0  0  0  0  0  0  0
   -8.7416    2.6750  -11.2171 C   0  0  0  0  0  0  0  0  0  0  0  0
   -9.2924    1.6844   -8.8670 C   0  0  0  0  0  0  0  0  0  0  0  0
   -9.0669    2.2498   -7.5115 N   0  0  0  0  0  0  0  0  0  0  0  0
   -8.8232    3.7023   -7.7043 C   0  0  0  0  0  0  0  0  0  0  0  0
   -8.2567    1.8100   -7.0751 H   0  0  0  0  0  0  0  0  0  0  0  0
   -4.7923    5.5357  -15.5308 O   0  0  0  0  0  0  0  0  0  0  0  0
   -4.9120    7.9608  -15.3793 C   0  0  0  0  0  0  0  0  0  0  0  0
   -4.0317    6.7393  -15.5921 C   0  0  0  0  0  0  0  0  0  0  0  0
 27 28  1  0  0  0
 28 26  1  0  0  0
 26  1  1  0  0  0
  1  2  2  0  0  0
  2  3  1  0  0  0
  3  4  1  0  0  0
  4  5  2  0  0  0
  5  6  1  0  0  0
  6  7  1  0  0  0
  6  8  2  0  0  0
  8  9  1  0  0  0
  9 12  1  0  0  0
 12 13  2  0  0  0
 12 14  1  0  0  0
 14 16  1  0  0  0
 16 17  2  0  0  0
 17 18  1  0  0  0
 18 19  2  0  0  0
 19 20  1  0  0  0
 20 21  2  0  0  0
 20 22  1  0  0  0
 22 23  1  0  0  0
 23 24  1  0  0  0
  9 10  2  0  0  0
 10  1  1  0  0  0
 10  4  1  0  0  0
 21 16  1  0  0  0
 24 19  1  0  0  0
  3 11  1  0  0  0
 14 15  1  0  0  0
 23 25  1  0  0  0
M  END
> <minimizedAffinity>
-8.19227

> <minimizedRMSD>
0.53636

$$$$
P22315


 34 38  0  0  0  0  0  0  0  0999 V2000
   -5.3286    6.2435  -19.0804 C   0  0  0  0  0  0  0  0  0  0  0  0
   -4.4425    5.1722  -19.6312 N   0  0  0  0  0  0  0  0  0  0  0  0
   -3.4348    4.9815  -18.5889 C   0  0  0  0  0  0  0  0  0  0  0  0
   -4.1506    5.1785  -17.2628 C   0  0  0  0  0  0  0  0  0  0  0  0
   -5.4773    5.9017  -17.5816 C   0  0  0  0  0  0  0  0  0  0  0  0
   -5.6298    6.9903  -16.5921 N   0  0  0  0  0  0  0  0  0  0  0  0
   -6.2469    6.3916  -15.3944 C   0  0  0  0  0  0  0  0  0  0  0  0
   -7.1463    5.3488  -15.9711 C   0  0  0  0  0  0  0  0  0  0  0  0
   -8.2795    4.7621  -15.4139 C   0  0  0  0  0  0  0  0  0  0  0  0
   -9.0597    3.9360  -16.2211 C   0  0  0  0  0  0  0  0  0  0  0  0
   -8.6782    3.6980  -17.5418 C   0  0  0  0  0  0  0  0  0  0  0  0
   -9.4861    2.9535  -18.3097 F   0  0  0  0  0  0  0  0  0  0  0  0
   -7.5037    4.2341  -18.0808 C   0  0  0  0  0  0  0  0  0  0  0  0
   -6.7217    5.0596  -17.2801 C   0  0  0  0  0  0  0  0  0  0  0  0
   -4.0094    5.4724  -20.5045 H   0  0  0  0  0  0  0  0  0  0  0  0
   -6.2304    7.7245  -16.9672 H   0  0  0  0  0  0  0  0  0  0  0  0
   -4.4547    7.9709  -21.1140 C   0  0  0  0  0  0  0  0  0  0  0  0
   -4.7249    7.9308  -19.3578 S   0  0  0  0  0  0  0  0  0  0  0  0
   -3.4276    8.1119  -18.7267 O   0  0  0  0  0  0  0  0  0  0  0  0
   -5.7997    8.8771  -19.0871 O   0  0  0  0  0  0  0  0  0  0  0  0
   -8.7186    5.1108  -14.0368 C   0  0  0  0  0  0  0  0  0  0  0  0
   -9.3126    6.1027  -13.8825 O   0  0  0  0  0  0  0  0  0  0  0  0
   -8.2987    4.0270  -13.0196 N   0  0  0  0  0  0  0  0  0  0  0  0
   -7.8642    3.2369  -13.4150 H   0  0  0  0  0  0  0  0  0  0  0  0
   -8.4346    3.9856  -11.6337 C   0  0  0  0  0  0  0  0  0  0  0  0
   -8.1863    5.1059  -10.8260 C   0  0  0  0  0  0  0  0  0  0  0  0
   -8.2973    5.1247   -9.4712 N   0  0  0  0  0  0  0  0  0  0  0  0
   -8.6858    3.9567   -8.9315 C   0  0  0  0  0  0  0  0  0  0  0  0
   -8.9593    2.8021   -9.6452 C   0  0  0  0  0  0  0  0  0  0  0  0
   -8.8245    2.7964  -11.0206 C   0  0  0  0  0  0  0  0  0  0  0  0
   -9.3497    1.7196   -8.6995 C   0  0  0  0  0  0  0  0  0  0  0  0
   -9.6593    2.3995   -7.4163 N   0  0  0  0  0  0  0  0  0  0  0  0
   -8.9194    3.6854   -7.4698 C   0  0  0  0  0  0  0  0  0  0  0  0
   -9.3416    1.8364   -6.6273 H   0  0  0  0  0  0  0  0  0  0  0  0
 17 18  1  0  0  0
 18 19  2  0  0  0
 18 20  2  0  0  0
  1 18  1  0  0  0
  1  2  1  0  0  0
  2  3  1  0  0  0
  3  4  1  0  0  0
  5  4  1  0  0  0
  5  6  1  0  0  0
  6  7  1  0  0  0
  7  8  1  0  0  0
  8  9  2  0  0  0
  9 21  1  0  0  0
 21 22  2  0  0  0
 21 23  1  0  0  0
 23 25  1  0  0  0
 25 26  2  0  0  0
 26 27  1  0  0  0
 27 28  2  0  0  0
 28 29  1  0  0  0
 29 30  2  0  0  0
 29 31  1  0  0  0
 31 32  1  0  0  0
 32 33  1  0  0  0
  9 10  1  0  0  0
 10 11  2  0  0  0
 11 12  1  0  0  0
 11 13  1  0  0  0
 13 14  2  0  0  0
  5  1  1  0  0  0
 14  8  1  0  0  0
 14  5  1  0  0  0
 30 25  1  0  0  0
 33 28  1  0  0  0
  2 15  1  0  0  0
  6 16  1  0  0  0
 23 24  1  0  0  0
 32 34  1  0  0  0
M  END
> <minimizedAffinity>
-9.66638

> <minimizedRMSD>
0.55917

$$$$
P22316


 47 53  0  0  0  0  0  0  0  0999 V2000
   -8.0515    4.6751  -15.4019 C   0  0  0  0  0  0  0  0  0  0  0  0
   -9.0867    4.1138  -16.1512 C   0  0  0  0  0  0  0  0  0  0  0  0
   -8.9043    3.8612  -17.5026 C   0  0  0  0  0  0  0  0  0  0  0  0
   -9.9248    3.3405  -18.1954 F   0  0  0  0  0  0  0  0  0  0  0  0
   -7.7075    4.1509  -18.1602 C   0  0  0  0  0  0  0  0  0  0  0  0
   -6.6668    4.6935  -17.3924 C   0  0  0  0  0  0  0  0  0  0  0  0
   -6.8191    4.9481  -16.0262 C   0  0  0  0  0  0  0  0  0  0  0  0
   -5.5746    5.4662  -15.6163 C   0  0  0  0  0  0  0  0  0  0  0  0
   -4.6961    5.5366  -16.6138 N   0  0  0  0  0  0  0  0  0  0  0  0
   -5.3899    5.1077  -17.6931 N   0  0  0  0  0  0  0  0  0  0  0  0
   -8.4582    6.2567  -13.8271 O   0  0  0  0  0  0  0  0  0  0  0  0
   -8.2743    5.1180  -14.0066 C   0  0  0  0  0  0  0  0  0  0  0  0
   -8.2870    3.9334  -13.0156 N   0  0  0  0  0  0  0  0  0  0  0  0
   -8.1762    3.0476  -13.4307 H   0  0  0  0  0  0  0  0  0  0  0  0
   -8.4298    3.9143  -11.6290 C   0  0  0  0  0  0  0  0  0  0  0  0
   -8.1880    5.0479  -10.8377 C   0  0  0  0  0  0  0  0  0  0  0  0
   -8.3290    5.0946   -9.4860 N   0  0  0  0  0  0  0  0  0  0  0  0
   -8.7207    3.9356   -8.9292 C   0  0  0  0  0  0  0  0  0  0  0  0
   -8.9720    2.7649   -9.6240 C   0  0  0  0  0  0  0  0  0  0  0  0
   -8.8283    2.7377  -10.9983 C   0  0  0  0  0  0  0  0  0  0  0  0
   -9.3438    1.6911   -8.6611 C   0  0  0  0  0  0  0  0  0  0  0  0
   -9.6834    2.3872   -7.3950 N   0  0  0  0  0  0  0  0  0  0  0  0
   -8.9745    3.6905   -7.4660 C   0  0  0  0  0  0  0  0  0  0  0  0
   -9.3604    1.8475   -6.5921 H   0  0  0  0  0  0  0  0  0  0  0  0
   -4.7482    5.2273  -18.9990 C   0  0  0  0  0  0  0  0  0  0  0  0
   -5.0980    6.5907  -19.6224 C   0  0  0  0  0  0  0  0  0  0  0  0
   -4.4022    6.9639  -20.9094 C   0  0  0  0  0  0  0  0  0  0  0  0
   -4.9438    7.9507  -21.7433 C   0  0  0  0  0  0  0  0  0  0  0  0
   -4.2819    8.3580  -22.9057 C   0  0  0  0  0  0  0  0  0  0  0  0
   -3.0407    7.8086  -23.2580 C   0  0  0  0  0  0  0  0  0  0  0  0
   -2.4971    6.8395  -22.4102 C   0  0  0  0  0  0  0  0  0  0  0  0
   -1.3243    6.1819  -22.6678 O   0  0  0  0  0  0  0  0  0  0  0  0
   -3.1543    6.4351  -21.2434 C   0  0  0  0  0  0  0  0  0  0  0  0
   -0.8250    6.3961  -23.4312 H   0  0  0  0  0  0  0  0  0  0  0  0
   -2.3606    8.2794  -24.5199 C   0  0  0  0  0  0  0  0  0  0  0  0
   -2.8670    7.5560  -25.6768 N   0  0  0  0  0  0  0  0  0  0  0  0
   -3.6788    7.8619  -26.1423 H   0  0  0  0  0  0  0  0  0  0  0  0
   -2.2069    6.4616  -26.0997 C   0  0  0  0  0  0  0  0  0  0  0  0
   -0.9647    6.1168  -25.8479 N   0  0  0  0  0  0  0  0  0  0  0  0
   -0.7938    4.8981  -26.4648 C   0  0  0  0  0  0  0  0  0  0  0  0
    0.3332    4.0647  -26.5066 C   0  0  0  0  0  0  0  0  0  0  0  0
    0.2397    2.8457  -27.1905 C   0  0  0  0  0  0  0  0  0  0  0  0
   -0.9493    2.4664  -27.8198 C   0  0  0  0  0  0  0  0  0  0  0  0
   -2.0826    3.2874  -27.7924 C   0  0  0  0  0  0  0  0  0  0  0  0
   -1.9616    4.4946  -27.1021 C   0  0  0  0  0  0  0  0  0  0  0  0
   -2.8431    5.5163  -26.8594 N   0  0  0  0  0  0  0  0  0  0  0  0
   -3.7738    5.5625  -27.1769 H   0  0  0  0  0  0  0  0  0  0  0  0
 11 12  2  0  0  0
 12 13  1  0  0  0
 13 15  1  0  0  0
 15 16  2  0  0  0
 16 17  1  0  0  0
 17 18  2  0  0  0
 18 19  1  0  0  0
 19 20  2  0  0  0
 19 21  1  0  0  0
 21 22  1  0  0  0
 22 23  1  0  0  0
 12  1  1  0  0  0
  1  2  2  0  0  0
  2  3  1  0  0  0
  3  4  1  0  0  0
  3  5  2  0  0  0
  5  6  1  0  0  0
  6  7  2  0  0  0
  7  8  1  0  0  0
  8  9  2  0  0  0
  9 10  1  0  0  0
 10 25  1  0  0  0
 25 26  1  0  0  0
 26 27  1  0  0  0
 27 28  2  0  0  0
 28 29  1  0  0  0
 29 30  2  0  0  0
 30 35  1  0  0  0
 35 36  1  0  0  0
 36 38  1  0  0  0
 38 39  2  0  0  0
 39 40  1  0  0  0
 40 41  2  0  0  0
 41 42  1  0  0  0
 42 43  2  0  0  0
 43 44  1  0  0  0
 44 45  2  0  0  0
 45 46  1  0  0  0
 30 31  1  0  0  0
 31 32  1  0  0  0
 31 33  2  0  0  0
 20 15  1  0  0  0
  7  1  1  0  0  0
 33 27  1  0  0  0
 23 18  1  0  0  0
 10  6  1  0  0  0
 46 38  1  0  0  0
 45 40  1  0  0  0
 13 14  1  0  0  0
 22 24  1  0  0  0
 36 37  1  0  0  0
 46 47  1  0  0  0
 32 34  1  0  0  0
M  END
> <minimizedAffinity>
-8.76120

> <minimizedRMSD>
0.50698

$$$$
P22317


 35 39  0  0  0  0  0  0  0  0999 V2000
   -8.3422    4.6995  -15.3166 C   0  0  0  0  0  0  0  0  0  0  0  0
   -9.3935    4.2123  -16.0904 C   0  0  0  0  0  0  0  0  0  0  0  0
   -9.1741    3.9096  -17.4259 C   0  0  0  0  0  0  0  0  0  0  0  0
  -10.2144    3.4435  -18.1300 F   0  0  0  0  0  0  0  0  0  0  0  0
   -7.9224    4.0937  -18.0369 C   0  0  0  0  0  0  0  0  0  0  0  0
   -7.7675    3.6874  -19.3366 O   0  0  0  0  0  0  0  0  0  0  0  0
   -6.8755    4.6262  -17.2623 C   0  0  0  0  0  0  0  0  0  0  0  0
   -7.0767    4.9047  -15.9045 C   0  0  0  0  0  0  0  0  0  0  0  0
   -5.8296    5.3542  -15.4333 C   0  0  0  0  0  0  0  0  0  0  0  0
   -4.9127    5.4199  -16.3907 N   0  0  0  0  0  0  0  0  0  0  0  0
   -5.5640    5.0154  -17.5217 N   0  0  0  0  0  0  0  0  0  0  0  0
   -4.8549    5.1366  -18.7362 C   0  0  0  0  0  0  0  0  0  0  0  0
   -5.3292    4.6456  -19.7507 O   0  0  0  0  0  0  0  0  0  0  0  0
   -8.4981    3.3392  -19.8088 H   0  0  0  0  0  0  0  0  0  0  0  0
   -3.5977    5.9154  -18.8586 C   0  0  0  0  0  0  0  0  0  0  0  0
   -3.6350    7.3151  -18.8765 C   0  0  0  0  0  0  0  0  0  0  0  0
   -2.4438    8.0037  -19.0344 C   0  0  0  0  0  0  0  0  0  0  0  0
   -1.2487    7.3977  -19.1937 N   0  0  0  0  0  0  0  0  0  0  0  0
   -1.2455    6.0454  -19.1841 C   0  0  0  0  0  0  0  0  0  0  0  0
   -2.3803    5.2709  -19.0211 C   0  0  0  0  0  0  0  0  0  0  0  0
   -2.2613    3.9384  -19.0050 F   0  0  0  0  0  0  0  0  0  0  0  0
   -8.7444    6.2451  -13.7037 O   0  0  0  0  0  0  0  0  0  0  0  0
   -8.5427    5.1140  -13.9094 C   0  0  0  0  0  0  0  0  0  0  0  0
   -8.3553    3.9367  -12.9292 N   0  0  0  0  0  0  0  0  0  0  0  0
   -8.1184    3.0806  -13.3538 H   0  0  0  0  0  0  0  0  0  0  0  0
   -8.4669    3.8881  -11.5411 C   0  0  0  0  0  0  0  0  0  0  0  0
   -8.2328    5.0126  -10.7398 C   0  0  0  0  0  0  0  0  0  0  0  0
   -8.3306    5.0324   -9.3851 N   0  0  0  0  0  0  0  0  0  0  0  0
   -8.6821    3.8600   -8.8323 C   0  0  0  0  0  0  0  0  0  0  0  0
   -8.9215    2.6969   -9.5359 C   0  0  0  0  0  0  0  0  0  0  0  0
   -8.8093    2.6917  -10.9153 C   0  0  0  0  0  0  0  0  0  0  0  0
   -9.3123    1.6108   -8.5982 C   0  0  0  0  0  0  0  0  0  0  0  0
   -9.2156    2.1685   -7.2240 N   0  0  0  0  0  0  0  0  0  0  0  0
   -8.9009    3.6108   -7.3691 C   0  0  0  0  0  0  0  0  0  0  0  0
   -8.4743    1.6976   -6.7052 H   0  0  0  0  0  0  0  0  0  0  0  0
 22 23  2  0  0  0
 23 24  1  0  0  0
 24 26  1  0  0  0
 26 27  2  0  0  0
 27 28  1  0  0  0
 28 29  2  0  0  0
 29 30  1  0  0  0
 30 31  2  0  0  0
 30 32  1  0  0  0
 32 33  1  0  0  0
 33 34  1  0  0  0
 23  1  1  0  0  0
  1  2  2  0  0  0
  2  3  1  0  0  0
  3  4  1  0  0  0
  3  5  2  0  0  0
  5  6  1  0  0  0
  5  7  1  0  0  0
  7  8  2  0  0  0
  8  9  1  0  0  0
  9 10  2  0  0  0
 10 11  1  0  0  0
 11 12  1  0  0  0
 12 13  2  0  0  0
 12 15  1  0  0  0
 15 16  2  0  0  0
 16 17  1  0  0  0
 17 18  2  0  0  0
 18 19  1  0  0  0
 19 20  2  0  0  0
 20 21  1  0  0  0
 31 26  1  0  0  0
  8  1  1  0  0  0
 20 15  1  0  0  0
 34 29  1  0  0  0
 11  7  1  0  0  0
 24 25  1  0  0  0
 33 35  1  0  0  0
  6 14  1  0  0  0
M  END
> <minimizedAffinity>
-10.14249

> <minimizedRMSD>
0.97376

$$$$
P22318


 31 35  0  0  0  0  0  0  0  0999 V2000
   -4.9662    5.5498  -18.7613 C   0  0  0  0  0  0  0  0  0  0  0  0
   -5.3986    5.2248  -17.4046 N   0  0  0  0  0  0  0  0  0  0  0  0
   -4.8694    5.9905  -16.3255 N   0  0  0  0  0  0  0  0  0  0  0  0
   -5.7553    5.6919  -15.1480 C   0  0  0  0  0  0  0  0  0  0  0  0
   -5.0056    4.6919  -14.2820 C   0  0  0  0  0  0  0  0  0  0  0  0
   -3.9709    5.5531  -13.5814 C   0  0  0  0  0  0  0  0  0  0  0  0
   -4.4927    6.8916  -13.5172 O   0  0  0  0  0  0  0  0  0  0  0  0
   -5.7657    6.8972  -14.2010 C   0  0  0  0  0  0  0  0  0  0  0  0
   -7.0191    5.1558  -15.7685 C   0  0  0  0  0  0  0  0  0  0  0  0
   -8.2842    4.8727  -15.2536 C   0  0  0  0  0  0  0  0  0  0  0  0
   -9.2572    4.3133  -16.0891 C   0  0  0  0  0  0  0  0  0  0  0  0
   -8.9518    3.9963  -17.4031 C   0  0  0  0  0  0  0  0  0  0  0  0
   -9.9096    3.4303  -18.1532 F   0  0  0  0  0  0  0  0  0  0  0  0
   -7.6811    4.2327  -17.9212 C   0  0  0  0  0  0  0  0  0  0  0  0
   -7.3441    3.6045  -19.4725 Cl  0  0  0  0  0  0  0  0  0  0  0  0
   -6.7229    4.8557  -17.1197 C   0  0  0  0  0  0  0  0  0  0  0  0
   -4.8957    6.9856  -16.5480 H   0  0  0  0  0  0  0  0  0  0  0  0
   -8.7264    5.1970  -13.8806 C   0  0  0  0  0  0  0  0  0  0  0  0
   -9.4254    6.1157  -13.7215 O   0  0  0  0  0  0  0  0  0  0  0  0
   -8.2237    4.1365  -12.8777 N   0  0  0  0  0  0  0  0  0  0  0  0
   -7.6968    3.4076  -13.2781 H   0  0  0  0  0  0  0  0  0  0  0  0
   -8.3941    4.0433  -11.5005 C   0  0  0  0  0  0  0  0  0  0  0  0
   -8.2396    5.1411  -10.6442 C   0  0  0  0  0  0  0  0  0  0  0  0
   -8.3997    5.0931   -9.2961 N   0  0  0  0  0  0  0  0  0  0  0  0
   -8.7412    3.8834   -8.8171 C   0  0  0  0  0  0  0  0  0  0  0  0
   -8.9289    2.7494   -9.5842 C   0  0  0  0  0  0  0  0  0  0  0  0
   -8.7522    2.8126  -10.9524 C   0  0  0  0  0  0  0  0  0  0  0  0
   -9.3347    1.6109   -8.7182 C   0  0  0  0  0  0  0  0  0  0  0  0
   -9.2015    2.0787   -7.3152 N   0  0  0  0  0  0  0  0  0  0  0  0
   -9.0048    3.5488   -7.3772 C   0  0  0  0  0  0  0  0  0  0  0  0
   -8.3983    1.6342   -6.8705 H   0  0  0  0  0  0  0  0  0  0  0  0
  1  2  1  0  0  0
  2  3  1  0  0  0
  3  4  1  0  0  0
  4  5  1  0  0  0
  5  6  1  0  0  0
  6  7  1  0  0  0
  7  8  1  0  0  0
  4  9  1  0  0  0
  9 10  2  0  0  0
 10 18  1  0  0  0
 18 19  2  0  0  0
 18 20  1  0  0  0
 20 22  1  0  0  0
 22 23  2  0  0  0
 23 24  1  0  0  0
 24 25  2  0  0  0
 25 26  1  0  0  0
 26 27  2  0  0  0
 26 28  1  0  0  0
 28 29  1  0  0  0
 29 30  1  0  0  0
 10 11  1  0  0  0
 11 12  2  0  0  0
 12 13  1  0  0  0
 12 14  1  0  0  0
 14 15  1  0  0  0
 14 16  2  0  0  0
 16  2  1  0  0  0
  8  4  1  0  0  0
 16  9  1  0  0  0
 27 22  1  0  0  0
 30 25  1  0  0  0
  3 17  1  0  0  0
 20 21  1  0  0  0
 29 31  1  0  0  0
M  END
> <minimizedAffinity>
-8.60234

> <minimizedRMSD>
0.86194

$$$$
P22323


 27 30  0  0  0  0  0  0  0  0999 V2000
   -7.5886    5.0785  -14.1761 C   0  0  0  0  0  0  0  0  0  0  0  0
   -7.3402    6.1980  -13.9554 O   0  0  0  0  0  0  0  0  0  0  0  0
   -7.9421    3.9187  -13.2103 N   0  0  0  0  0  0  0  0  0  0  0  0
   -8.0362    3.0382  -13.6405 H   0  0  0  0  0  0  0  0  0  0  0  0
   -4.9726    5.2501  -17.7933 N   0  0  0  0  0  0  0  0  0  0  0  0
   -5.4818    5.3463  -16.5215 C   0  0  0  0  0  0  0  0  0  0  0  0
   -6.7598    4.8425  -16.6026 C   0  0  0  0  0  0  0  0  0  0  0  0
   -7.6977    4.6333  -15.5814 C   0  0  0  0  0  0  0  0  0  0  0  0
   -8.8835    4.0260  -16.0626 C   0  0  0  0  0  0  0  0  0  0  0  0
   -9.0849    3.6671  -17.4199 C   0  0  0  0  0  0  0  0  0  0  0  0
  -10.2484    3.0844  -17.7433 F   0  0  0  0  0  0  0  0  0  0  0  0
   -8.1510    3.8895  -18.4362 C   0  0  0  0  0  0  0  0  0  0  0  0
   -6.9628    4.4866  -17.9910 C   0  0  0  0  0  0  0  0  0  0  0  0
   -5.8739    4.8123  -18.6955 N   0  0  0  0  0  0  0  0  0  0  0  0
   -3.6040    5.4468  -18.2820 C   0  0  0  0  0  0  0  0  0  0  0  0
   -1.9527    6.5976  -17.0846 C   0  0  0  0  0  0  0  0  0  0  0  0
   -2.6472    5.3642  -17.2260 O   0  0  0  0  0  0  0  0  0  0  0  0
   -8.1485    3.9198  -11.8309 C   0  0  0  0  0  0  0  0  0  0  0  0
   -7.8667    5.0265  -11.0194 C   0  0  0  0  0  0  0  0  0  0  0  0
   -8.0953    5.0800   -9.6779 N   0  0  0  0  0  0  0  0  0  0  0  0
   -8.6131    3.9539   -9.1532 C   0  0  0  0  0  0  0  0  0  0  0  0
   -8.9160    2.8107   -9.8702 C   0  0  0  0  0  0  0  0  0  0  0  0
   -8.6927    2.7813  -11.2338 C   0  0  0  0  0  0  0  0  0  0  0  0
   -9.4177    1.7582   -8.9428 C   0  0  0  0  0  0  0  0  0  0  0  0
   -9.7384    2.4566   -7.6728 N   0  0  0  0  0  0  0  0  0  0  0  0
   -8.9506    3.7159   -7.7056 C   0  0  0  0  0  0  0  0  0  0  0  0
   -9.4656    1.8856   -6.8728 H   0  0  0  0  0  0  0  0  0  0  0  0
 16 17  1  0  0  0
 17 15  1  0  0  0
 15  5  1  0  0  0
  5  6  1  0  0  0
  6  7  2  0  0  0
  7  8  1  0  0  0
  8  1  1  0  0  0
  1  2  2  0  0  0
  1  3  1  0  0  0
  3 18  1  0  0  0
 18 19  2  0  0  0
 19 20  1  0  0  0
 20 21  2  0  0  0
 21 22  1  0  0  0
 22 23  2  0  0  0
 22 24  1  0  0  0
 24 25  1  0  0  0
 25 26  1  0  0  0
  8  9  2  0  0  0
  9 10  1  0  0  0
 10 11  1  0  0  0
 10 12  2  0  0  0
 12 13  1  0  0  0
 13 14  2  0  0  0
 14  5  1  0  0  0
 13  7  1  0  0  0
 23 18  1  0  0  0
 26 21  1  0  0  0
  3  4  1  0  0  0
 25 27  1  0  0  0
M  END
> <minimizedAffinity>
-8.17915

> <minimizedRMSD>
0.53053

$$$$
P22325


 28 31  0  0  0  0  0  0  0  0999 V2000
   -7.2100    5.9515  -13.6065 O   0  0  0  0  0  0  0  0  0  0  0  0
   -7.4442    4.6054  -13.9145 C   0  0  0  0  0  0  0  0  0  0  0  0
   -6.3203    3.8969  -13.4707 O   0  0  0  0  0  0  0  0  0  0  0  0
   -7.8503    6.6001  -13.8239 H   0  0  0  0  0  0  0  0  0  0  0  0
   -6.2774    2.9678  -13.5839 H   0  0  0  0  0  0  0  0  0  0  0  0
   -7.6072    4.4912  -15.4319 C   0  0  0  0  0  0  0  0  0  0  0  0
   -8.7910    3.9768  -16.0191 C   0  0  0  0  0  0  0  0  0  0  0  0
   -8.9299    3.7685  -17.3871 C   0  0  0  0  0  0  0  0  0  0  0  0
  -10.0686    3.2392  -17.8510 F   0  0  0  0  0  0  0  0  0  0  0  0
   -7.9162    4.0770  -18.2750 C   0  0  0  0  0  0  0  0  0  0  0  0
   -6.7617    4.6282  -17.7237 C   0  0  0  0  0  0  0  0  0  0  0  0
   -5.5999    5.0387  -18.3238 N   0  0  0  0  0  0  0  0  0  0  0  0
   -4.6961    5.5488  -17.4638 N   0  0  0  0  0  0  0  0  0  0  0  0
   -5.2906    5.4129  -16.2745 C   0  0  0  0  0  0  0  0  0  0  0  0
   -6.5869    4.8457  -16.3578 C   0  0  0  0  0  0  0  0  0  0  0  0
   -5.4404    4.9676  -19.2927 H   0  0  0  0  0  0  0  0  0  0  0  0
   -8.5991    4.0862  -13.2091 N   0  0  0  0  0  0  0  0  0  0  0  0
   -9.3847    3.7606  -13.7051 H   0  0  0  0  0  0  0  0  0  0  0  0
   -8.5769    4.0558  -11.7987 C   0  0  0  0  0  0  0  0  0  0  0  0
   -8.3318    5.1933  -11.0081 C   0  0  0  0  0  0  0  0  0  0  0  0
   -8.3503    5.2305   -9.6485 N   0  0  0  0  0  0  0  0  0  0  0  0
   -8.6636    4.0583   -9.0682 C   0  0  0  0  0  0  0  0  0  0  0  0
   -8.9300    2.8826   -9.7444 C   0  0  0  0  0  0  0  0  0  0  0  0
   -8.8712    2.8631  -11.1235 C   0  0  0  0  0  0  0  0  0  0  0  0
   -9.2589    1.8059   -8.7686 C   0  0  0  0  0  0  0  0  0  0  0  0
   -9.5597    2.5095   -7.4935 N   0  0  0  0  0  0  0  0  0  0  0  0
   -8.8486    3.8104   -7.5951 C   0  0  0  0  0  0  0  0  0  0  0  0
   -9.2140    1.9731   -6.6978 H   0  0  0  0  0  0  0  0  0  0  0  0
  1  2  1  0  0  0
  2  3  1  0  0  0
  2 17  1  0  0  0
 17 19  1  0  0  0
 19 20  2  0  0  0
 20 21  1  0  0  0
 21 22  2  0  0  0
 22 23  1  0  0  0
 23 24  2  0  0  0
 23 25  1  0  0  0
 25 26  1  0  0  0
 26 27  1  0  0  0
  2  6  1  0  0  0
  6  7  2  0  0  0
  7  8  1  0  0  0
  8  9  1  0  0  0
  8 10  2  0  0  0
 10 11  1  0  0  0
 11 12  1  0  0  0
 12 13  1  0  0  0
 13 14  2  0  0  0
 14 15  1  0  0  0
 24 19  1  0  0  0
 15  6  1  0  0  0
 27 22  1  0  0  0
 15 11  2  0  0  0
  1  4  1  0  0  0
  3  5  1  0  0  0
 17 18  1  0  0  0
 26 28  1  0  0  0
 12 16  1  0  0  0
M  END
> <minimizedAffinity>
-8.44642

> <minimizedRMSD>
0.29287

$$$$
P22327


 28 31  0  0  0  0  0  0  0  0999 V2000
   -4.4868    6.0227  -14.7806 C   0  0  0  0  0  0  0  0  0  0  0  0
   -5.1468    5.5019  -16.0024 C   0  0  0  0  0  0  0  0  0  0  0  0
   -4.5371    5.6970  -17.1765 N   0  0  0  0  0  0  0  0  0  0  0  0
   -5.4101    5.2306  -18.0876 N   0  0  0  0  0  0  0  0  0  0  0  0
   -6.5873    4.7815  -17.5396 C   0  0  0  0  0  0  0  0  0  0  0  0
   -7.7723    4.3208  -18.1298 C   0  0  0  0  0  0  0  0  0  0  0  0
   -8.7862    3.9024  -17.2824 C   0  0  0  0  0  0  0  0  0  0  0  0
   -9.9428    3.4737  -17.8019 F   0  0  0  0  0  0  0  0  0  0  0  0
   -8.6252    3.8929  -15.9088 C   0  0  0  0  0  0  0  0  0  0  0  0
   -7.4393    4.3537  -15.3108 C   0  0  0  0  0  0  0  0  0  0  0  0
   -6.4076    4.8469  -16.1507 C   0  0  0  0  0  0  0  0  0  0  0  0
   -5.0230    5.2113  -19.4904 C   0  0  0  0  0  0  0  0  0  0  0  0
   -5.4615    6.4039  -20.1308 O   0  0  0  0  0  0  0  0  0  0  0  0
   -6.4275    6.4675  -20.0694 H   0  0  0  0  0  0  0  0  0  0  0  0
   -7.2817    4.2924  -13.8337 C   0  0  0  0  0  0  0  0  0  0  0  0
   -6.2832    3.8339  -13.2962 O   0  0  0  0  0  0  0  0  0  0  0  0
   -8.3717    4.8489  -12.9435 C   0  0  0  0  0  0  0  0  0  0  0  0
   -9.1818    5.6437  -13.4091 O   0  0  0  0  0  0  0  0  0  0  0  0
   -8.3893    4.5085  -11.5156 C   0  0  0  0  0  0  0  0  0  0  0  0
   -8.1861    5.5361  -10.5909 C   0  0  0  0  0  0  0  0  0  0  0  0
   -8.3170    5.3905   -9.2485 N   0  0  0  0  0  0  0  0  0  0  0  0
   -8.6843    4.1561   -8.8537 C   0  0  0  0  0  0  0  0  0  0  0  0
   -8.8972    3.0762   -9.6990 C   0  0  0  0  0  0  0  0  0  0  0  0
   -8.7388    3.2336  -11.0655 C   0  0  0  0  0  0  0  0  0  0  0  0
   -9.3178    1.8968   -8.8865 C   0  0  0  0  0  0  0  0  0  0  0  0
   -9.7204    2.4422   -7.5669 N   0  0  0  0  0  0  0  0  0  0  0  0
   -9.0124    3.7401   -7.4440 C   0  0  0  0  0  0  0  0  0  0  0  0
   -9.4383    1.8096   -6.8182 H   0  0  0  0  0  0  0  0  0  0  0  0
  1  2  1  0  0  0
  2  3  2  0  0  0
  3  4  1  0  0  0
  4 12  1  0  0  0
 12 13  1  0  0  0
  4  5  1  0  0  0
  5  6  2  0  0  0
  6  7  1  0  0  0
  7  8  1  0  0  0
  7  9  2  0  0  0
  9 10  1  0  0  0
 10 15  1  0  0  0
 15 16  2  0  0  0
 15 17  1  0  0  0
 17 18  2  0  0  0
 17 19  1  0  0  0
 19 20  2  0  0  0
 20 21  1  0  0  0
 21 22  2  0  0  0
 22 23  1  0  0  0
 23 24  2  0  0  0
 23 25  1  0  0  0
 25 26  1  0  0  0
 26 27  1  0  0  0
 10 11  2  0  0  0
 11  2  1  0  0  0
 11  5  1  0  0  0
 24 19  1  0  0  0
 27 22  1  0  0  0
 13 14  1  0  0  0
 26 28  1  0  0  0
M  END
> <minimizedAffinity>
-8.68182

> <minimizedRMSD>
0.43508

$$$$
P22328


 31 34  0  0  0  0  0  0  0  0999 V2000
   -7.2984    4.4034  -13.9396 C   0  0  0  0  0  0  0  0  0  0  0  0
   -6.2821    3.9742  -13.4113 O   0  0  0  0  0  0  0  0  0  0  0  0
   -5.0322    6.8646  -14.6751 C   0  0  0  0  0  0  0  0  0  0  0  0
   -5.5734    6.3464  -15.9524 C   0  0  0  0  0  0  0  0  0  0  0  0
   -5.1005    6.8712  -17.0896 N   0  0  0  0  0  0  0  0  0  0  0  0
   -5.7942    6.2394  -18.0581 N   0  0  0  0  0  0  0  0  0  0  0  0
   -6.7855    5.4229  -17.5725 C   0  0  0  0  0  0  0  0  0  0  0  0
   -7.8032    4.7141  -18.2245 C   0  0  0  0  0  0  0  0  0  0  0  0
   -8.6386    3.9328  -17.4459 C   0  0  0  0  0  0  0  0  0  0  0  0
   -9.6340    3.2559  -18.0305 F   0  0  0  0  0  0  0  0  0  0  0  0
   -8.4634    3.8270  -16.0772 C   0  0  0  0  0  0  0  0  0  0  0  0
   -7.4479    4.5386  -15.4142 C   0  0  0  0  0  0  0  0  0  0  0  0
   -6.6052    5.3852  -16.1828 C   0  0  0  0  0  0  0  0  0  0  0  0
   -5.4657    6.5568  -19.4427 C   0  0  0  0  0  0  0  0  0  0  0  0
   -5.0675    5.3997  -20.1607 O   0  0  0  0  0  0  0  0  0  0  0  0
   -4.2751    5.0207  -19.7493 H   0  0  0  0  0  0  0  0  0  0  0  0
   -8.3968    4.9198  -13.0354 C   0  0  0  0  0  0  0  0  0  0  0  0
   -9.2459    5.6784  -13.4971 O   0  0  0  0  0  0  0  0  0  0  0  0
   -8.3748    4.6166  -11.6012 C   0  0  0  0  0  0  0  0  0  0  0  0
   -8.3474    5.7031  -10.7231 C   0  0  0  0  0  0  0  0  0  0  0  0
   -8.4126    5.5993   -9.3738 N   0  0  0  0  0  0  0  0  0  0  0  0
   -8.5631    4.3408   -8.9227 C   0  0  0  0  0  0  0  0  0  0  0  0
   -8.6045    3.2048   -9.7164 C   0  0  0  0  0  0  0  0  0  0  0  0
   -8.4635    3.3163  -11.0934 C   0  0  0  0  0  0  0  0  0  0  0  0
   -8.4514    2.1839  -11.9146 N   0  0  0  0  0  0  0  0  0  0  0  0
   -8.8373    2.0124   -8.8496 C   0  0  0  0  0  0  0  0  0  0  0  0
   -9.1043    2.5191   -7.4814 N   0  0  0  0  0  0  0  0  0  0  0  0
   -8.7400    3.9519   -7.4825 C   0  0  0  0  0  0  0  0  0  0  0  0
   -8.5160    1.2860  -11.5159 H   0  0  0  0  0  0  0  0  0  0  0  0
   -8.3782    2.2847  -12.8911 H   0  0  0  0  0  0  0  0  0  0  0  0
   -8.5372    2.0124   -6.8017 H   0  0  0  0  0  0  0  0  0  0  0  0
  3  4  1  0  0  0
  4  5  2  0  0  0
  5  6  1  0  0  0
  6 14  1  0  0  0
 14 15  1  0  0  0
  6  7  1  0  0  0
  7  8  2  0  0  0
  8  9  1  0  0  0
  9 10  1  0  0  0
  9 11  2  0  0  0
 11 12  1  0  0  0
 12  1  1  0  0  0
  1  2  2  0  0  0
  1 17  1  0  0  0
 17 18  2  0  0  0
 17 19  1  0  0  0
 19 20  2  0  0  0
 20 21  1  0  0  0
 21 22  2  0  0  0
 22 23  1  0  0  0
 23 24  2  0  0  0
 24 25  1  0  0  0
 23 26  1  0  0  0
 26 27  1  0  0  0
 27 28  1  0  0  0
 12 13  2  0  0  0
 13  4  1  0  0  0
 13  7  1  0  0  0
 24 19  1  0  0  0
 28 22  1  0  0  0
 15 16  1  0  0  0
 25 29  1  0  0  0
 25 30  1  0  0  0
 27 31  1  0  0  0
M  END
> <minimizedAffinity>
-8.83980

> <minimizedRMSD>
0.62078

$$$$
P22331


 26 29  0  0  0  0  0  0  0  0999 V2000
   -7.0972    5.9756  -14.0842 O   0  0  0  0  0  0  0  0  0  0  0  0
   -7.5628    4.9257  -14.2956 C   0  0  0  0  0  0  0  0  0  0  0  0
   -8.1094    3.8561  -13.3200 N   0  0  0  0  0  0  0  0  0  0  0  0
   -8.3825    3.0113  -13.7455 H   0  0  0  0  0  0  0  0  0  0  0  0
   -7.7306    4.5116  -15.7106 C   0  0  0  0  0  0  0  0  0  0  0  0
   -8.9267    3.9080  -16.1183 C   0  0  0  0  0  0  0  0  0  0  0  0
   -9.1556    3.6313  -17.4588 C   0  0  0  0  0  0  0  0  0  0  0  0
  -10.3165    3.0663  -17.8109 F   0  0  0  0  0  0  0  0  0  0  0  0
   -8.2227    3.9280  -18.4447 C   0  0  0  0  0  0  0  0  0  0  0  0
   -7.0228    4.4969  -18.0226 C   0  0  0  0  0  0  0  0  0  0  0  0
   -5.8944    4.8561  -18.7175 N   0  0  0  0  0  0  0  0  0  0  0  0
   -4.8839    5.3502  -17.8249 N   0  0  0  0  0  0  0  0  0  0  0  0
   -3.7493    5.6436  -18.2656 O   0  0  0  0  0  0  0  0  0  0  0  0
   -5.3856    5.3659  -16.5794 C   0  0  0  0  0  0  0  0  0  0  0  0
   -6.7311    4.8085  -16.6679 C   0  0  0  0  0  0  0  0  0  0  0  0
   -5.7922    4.7846  -19.6940 H   0  0  0  0  0  0  0  0  0  0  0  0
   -8.2781    3.8942  -11.9353 C   0  0  0  0  0  0  0  0  0  0  0  0
   -7.9717    5.0280  -11.1686 C   0  0  0  0  0  0  0  0  0  0  0  0
   -8.1270    5.1167   -9.8194 N   0  0  0  0  0  0  0  0  0  0  0  0
   -8.5977    3.9986   -9.2388 C   0  0  0  0  0  0  0  0  0  0  0  0
   -8.9186    2.8308   -9.9082 C   0  0  0  0  0  0  0  0  0  0  0  0
   -8.7658    2.7640  -11.2802 C   0  0  0  0  0  0  0  0  0  0  0  0
   -9.3568    1.8005   -8.9253 C   0  0  0  0  0  0  0  0  0  0  0  0
   -9.6410    2.5375   -7.6686 N   0  0  0  0  0  0  0  0  0  0  0  0
   -8.8626    3.7987   -7.7705 C   0  0  0  0  0  0  0  0  0  0  0  0
   -9.3382    1.9949   -6.8597 H   0  0  0  0  0  0  0  0  0  0  0  0
  1  2  2  0  0  0
  2  3  1  0  0  0
  3 17  1  0  0  0
 17 18  2  0  0  0
 18 19  1  0  0  0
 19 20  2  0  0  0
 20 21  1  0  0  0
 21 22  2  0  0  0
 21 23  1  0  0  0
 23 24  1  0  0  0
 24 25  1  0  0  0
  2  5  1  0  0  0
  5  6  2  0  0  0
  6  7  1  0  0  0
  7  8  1  0  0  0
  7  9  2  0  0  0
  9 10  1  0  0  0
 10 11  1  0  0  0
 11 12  1  0  0  0
 12 13  1  0  0  0
 12 14  2  0  0  0
 14 15  1  0  0  0
 22 17  1  0  0  0
 15  5  1  0  0  0
 25 20  1  0  0  0
 15 10  2  0  0  0
  3  4  1  0  0  0
 24 26  1  0  0  0
 11 16  1  0  0  0
M  CHG 1  12   1
M  CHG 1  13  -1
M  END
> <minimizedAffinity>
-8.91796

> <minimizedRMSD>
0.41044

$$$$
P22333


 34 38  0  0  0  0  0  0  0  0999 V2000
   -3.7615    7.1151  -19.7866 C   0  0  0  0  0  0  0  0  0  0  0  0
   -3.3188    5.7130  -19.7888 N   0  0  0  0  0  0  0  0  0  0  0  0
   -3.6702    5.1805  -18.4589 N   0  0  0  0  0  0  0  0  0  0  0  0
   -5.0940    5.4653  -18.2303 C   0  0  0  0  0  0  0  0  0  0  0  0
   -5.4223    5.3006  -16.7125 C   0  0  0  0  0  0  0  0  0  0  0  0
   -6.8027    4.7311  -16.7569 C   0  0  0  0  0  0  0  0  0  0  0  0
   -7.1192    4.4354  -18.0822 C   0  0  0  0  0  0  0  0  0  0  0  0
   -8.3403    3.8957  -18.4301 C   0  0  0  0  0  0  0  0  0  0  0  0
   -9.2508    3.6550  -17.4166 C   0  0  0  0  0  0  0  0  0  0  0  0
  -10.4560    3.1633  -17.7220 F   0  0  0  0  0  0  0  0  0  0  0  0
   -8.9436    3.9181  -16.0813 C   0  0  0  0  0  0  0  0  0  0  0  0
   -7.7033    4.4607  -15.7347 C   0  0  0  0  0  0  0  0  0  0  0  0
   -6.0646    4.6749  -18.9885 N   0  0  0  0  0  0  0  0  0  0  0  0
   -5.3047    7.1925  -18.8263 S   0  0  0  0  0  0  0  0  0  0  0  0
   -2.3114    5.6586  -19.9387 H   0  0  0  0  0  0  0  0  0  0  0  0
   -3.1048    5.6346  -17.7416 H   0  0  0  0  0  0  0  0  0  0  0  0
   -5.9967    4.3763  -19.9242 H   0  0  0  0  0  0  0  0  0  0  0  0
   -7.4206    4.8334  -14.3204 C   0  0  0  0  0  0  0  0  0  0  0  0
   -6.6307    5.6698  -14.1197 O   0  0  0  0  0  0  0  0  0  0  0  0
   -8.3331    4.0584  -13.3383 N   0  0  0  0  0  0  0  0  0  0  0  0
   -8.9758    3.4482  -13.7671 H   0  0  0  0  0  0  0  0  0  0  0  0
   -8.3926    4.0842  -11.9450 C   0  0  0  0  0  0  0  0  0  0  0  0
   -8.1817    5.2557  -11.2053 C   0  0  0  0  0  0  0  0  0  0  0  0
   -8.2591    5.3387   -9.8498 N   0  0  0  0  0  0  0  0  0  0  0  0
   -8.5544    4.1795   -9.2351 C   0  0  0  0  0  0  0  0  0  0  0  0
   -8.7721    2.9748   -9.8759 C   0  0  0  0  0  0  0  0  0  0  0  0
   -8.6992    2.9112  -11.2555 C   0  0  0  0  0  0  0  0  0  0  0  0
   -9.0931    1.9207   -8.8762 C   0  0  0  0  0  0  0  0  0  0  0  0
   -8.8887    2.5278   -7.5360 N   0  0  0  0  0  0  0  0  0  0  0  0
   -8.7347    3.9880   -7.7567 C   0  0  0  0  0  0  0  0  0  0  0  0
   -8.0491    2.1464   -7.1002 H   0  0  0  0  0  0  0  0  0  0  0  0
   -4.7861    6.9262  -22.1689 C   0  0  0  0  0  0  0  0  0  0  0  0
   -3.9039    7.7270  -21.2021 C   0  0  0  0  0  0  0  0  0  0  0  0
   -2.5247    7.9376  -21.8409 C   0  0  0  0  0  0  0  0  0  0  0  0
 32 33  1  0  0  0
 33 34  1  0  0  0
  1 33  1  0  0  0
  1  2  1  0  0  0
  2  3  1  0  0  0
  3  4  1  0  0  0
  4  5  1  0  0  0
  5  6  1  0  0  0
  6  7  2  0  0  0
  7  8  1  0  0  0
  8  9  2  0  0  0
  9 10  1  0  0  0
  9 11  1  0  0  0
 11 12  2  0  0  0
 12 18  1  0  0  0
 18 19  2  0  0  0
 18 20  1  0  0  0
 20 22  1  0  0  0
 22 23  2  0  0  0
 23 24  1  0  0  0
 24 25  2  0  0  0
 25 26  1  0  0  0
 26 27  2  0  0  0
 26 28  1  0  0  0
 28 29  1  0  0  0
 29 30  1  0  0  0
  7 13  1  0  0  0
  4 14  1  0  0  0
 14  1  1  0  0  0
 13  4  1  0  0  0
 12  6  1  0  0  0
 27 22  1  0  0  0
 30 25  1  0  0  0
  2 15  1  0  0  0
  3 16  1  0  0  0
 20 21  1  0  0  0
 29 31  1  0  0  0
 13 17  1  0  0  0
M  END
> <minimizedAffinity>
-9.86656

> <minimizedRMSD>
0.52083

$$$$
P22334


 34 37  0  0  0  0  0  0  0  0999 V2000
   -7.3964    4.8639  -13.5560 C   0  0  0  0  0  0  0  0  0  0  0  0
   -7.6126    6.2481  -13.3585 O   0  0  0  0  0  0  0  0  0  0  0  0
   -7.6329    6.4397  -12.4078 H   0  0  0  0  0  0  0  0  0  0  0  0
   -7.3828    4.6760  -15.0932 C   0  0  0  0  0  0  0  0  0  0  0  0
   -8.5249    4.1796  -15.7818 C   0  0  0  0  0  0  0  0  0  0  0  0
   -8.5725    3.9964  -17.1620 C   0  0  0  0  0  0  0  0  0  0  0  0
   -9.6921    3.5184  -17.7181 F   0  0  0  0  0  0  0  0  0  0  0  0
   -7.4982    4.3017  -17.9724 C   0  0  0  0  0  0  0  0  0  0  0  0
   -6.3800    4.8244  -17.3299 C   0  0  0  0  0  0  0  0  0  0  0  0
   -5.1815    5.2298  -17.8576 N   0  0  0  0  0  0  0  0  0  0  0  0
   -4.3468    5.7654  -16.9479 N   0  0  0  0  0  0  0  0  0  0  0  0
   -5.0207    5.6327  -15.8028 C   0  0  0  0  0  0  0  0  0  0  0  0
   -6.2963    5.0306  -15.9502 C   0  0  0  0  0  0  0  0  0  0  0  0
   -4.9532    5.1379  -18.8109 H   0  0  0  0  0  0  0  0  0  0  0  0
   -5.7375    3.2396  -12.8363 O   0  0  0  0  0  0  0  0  0  0  0  0
   -6.0467    4.3623  -12.8661 C   0  0  0  0  0  0  0  0  0  0  0  0
   -5.2870    5.6231  -12.3944 N   0  0  0  0  0  0  0  0  0  0  0  0
   -5.7347    6.4754  -12.6002 H   0  0  0  0  0  0  0  0  0  0  0  0
   -4.0302    5.7534  -11.7026 C   0  0  0  0  0  0  0  0  0  0  0  0
   -2.8539    5.4489  -12.6266 C   0  0  0  0  0  0  0  0  0  0  0  0
   -2.7099    4.1234  -12.8438 F   0  0  0  0  0  0  0  0  0  0  0  0
   -1.7021    5.8571  -12.0387 F   0  0  0  0  0  0  0  0  0  0  0  0
   -8.5429    4.1563  -12.9353 N   0  0  0  0  0  0  0  0  0  0  0  0
   -9.2557    3.7468  -13.4770 H   0  0  0  0  0  0  0  0  0  0  0  0
   -8.5552    4.1022  -11.5097 C   0  0  0  0  0  0  0  0  0  0  0  0
   -8.3688    5.2174  -10.6752 C   0  0  0  0  0  0  0  0  0  0  0  0
   -8.4079    5.1994   -9.3169 N   0  0  0  0  0  0  0  0  0  0  0  0
   -8.6542    3.9894   -8.7814 C   0  0  0  0  0  0  0  0  0  0  0  0
   -8.8536    2.8309   -9.5001 C   0  0  0  0  0  0  0  0  0  0  0  0
   -8.8129    2.8742  -10.8788 C   0  0  0  0  0  0  0  0  0  0  0  0
   -9.1251    1.6925   -8.5838 C   0  0  0  0  0  0  0  0  0  0  0  0
   -8.9793    2.2180   -7.2012 N   0  0  0  0  0  0  0  0  0  0  0  0
   -8.8210    3.6888   -7.3202 C   0  0  0  0  0  0  0  0  0  0  0  0
   -8.1575    1.8107   -6.7549 H   0  0  0  0  0  0  0  0  0  0  0  0
 15 16  2  0  0  0
 16 17  1  0  0  0
 17 19  1  0  0  0
 19 20  1  0  0  0
 20 21  1  0  0  0
 20 22  1  0  0  0
 16  1  1  0  0  0
  1  2  1  0  0  0
  1 23  1  0  0  0
 23 25  1  0  0  0
 25 26  2  0  0  0
 26 27  1  0  0  0
 27 28  2  0  0  0
 28 29  1  0  0  0
 29 30  2  0  0  0
 29 31  1  0  0  0
 31 32  1  0  0  0
 32 33  1  0  0  0
  1  4  1  0  0  0
  4  5  2  0  0  0
  5  6  1  0  0  0
  6  7  1  0  0  0
  6  8  2  0  0  0
  8  9  1  0  0  0
  9 10  1  0  0  0
 10 11  1  0  0  0
 11 12  2  0  0  0
 12 13  1  0  0  0
 30 25  1  0  0  0
 13  4  1  0  0  0
 33 28  1  0  0  0
 13  9  2  0  0  0
 17 18  1  0  0  0
  2  3  1  0  0  0
 23 24  1  0  0  0
 32 34  1  0  0  0
 10 14  1  0  0  0
M  END
> <minimizedAffinity>
-7.60479

> <minimizedRMSD>
0.82888

$$$$
P22335


 36 39  0  0  0  0  0  0  0  0999 V2000
   -7.1704    4.6866  -13.5651 C   0  0  0  0  0  0  0  0  0  0  0  0
   -6.2017    3.7349  -13.1506 O   0  0  0  0  0  0  0  0  0  0  0  0
   -6.4867    2.8466  -13.4164 H   0  0  0  0  0  0  0  0  0  0  0  0
   -4.9694    5.1832  -19.5316 C   0  0  0  0  0  0  0  0  0  0  0  0
   -5.3586    5.1292  -18.1027 C   0  0  0  0  0  0  0  0  0  0  0  0
   -6.5288    4.7547  -17.4773 C   0  0  0  0  0  0  0  0  0  0  0  0
   -7.6813    4.3023  -18.1058 C   0  0  0  0  0  0  0  0  0  0  0  0
   -8.6534    3.9665  -17.1531 C   0  0  0  0  0  0  0  0  0  0  0  0
   -9.8216    3.4755  -17.5942 F   0  0  0  0  0  0  0  0  0  0  0  0
   -8.4829    4.1009  -15.7362 C   0  0  0  0  0  0  0  0  0  0  0  0
   -7.3092    4.5938  -15.0796 C   0  0  0  0  0  0  0  0  0  0  0  0
   -6.3482    4.8852  -16.0598 C   0  0  0  0  0  0  0  0  0  0  0  0
   -5.0587    5.3121  -15.8587 C   0  0  0  0  0  0  0  0  0  0  0  0
   -4.4947    5.4643  -17.0940 N   0  0  0  0  0  0  0  0  0  0  0  0
   -3.2064    5.9357  -17.2869 O   0  0  0  0  0  0  0  0  0  0  0  0
   -2.7912    6.1030  -16.4264 H   0  0  0  0  0  0  0  0  0  0  0  0
   -6.7525    6.1886  -13.1508 C   0  0  0  0  0  0  0  0  0  0  0  0
   -7.3898    7.1336  -13.4188 O   0  0  0  0  0  0  0  0  0  0  0  0
   -5.4070    6.0661  -12.3779 N   0  0  0  0  0  0  0  0  0  0  0  0
   -5.0295    5.1573  -12.3487 H   0  0  0  0  0  0  0  0  0  0  0  0
   -4.6210    7.0708  -11.6957 C   0  0  0  0  0  0  0  0  0  0  0  0
   -5.1050    7.3872  -10.2832 C   0  0  0  0  0  0  0  0  0  0  0  0
   -5.2440    6.2413   -9.5736 F   0  0  0  0  0  0  0  0  0  0  0  0
   -6.3134    7.9985  -10.3156 F   0  0  0  0  0  0  0  0  0  0  0  0
   -8.4773    4.3888  -12.9460 N   0  0  0  0  0  0  0  0  0  0  0  0
   -9.2933    4.3088  -13.4909 H   0  0  0  0  0  0  0  0  0  0  0  0
   -8.5145    4.2234  -11.5475 C   0  0  0  0  0  0  0  0  0  0  0  0
   -8.3014    5.2895  -10.6513 C   0  0  0  0  0  0  0  0  0  0  0  0
   -8.3970    5.2120   -9.3005 N   0  0  0  0  0  0  0  0  0  0  0  0
   -8.7205    3.9930   -8.8389 C   0  0  0  0  0  0  0  0  0  0  0  0
   -8.9226    2.8718   -9.6246 C   0  0  0  0  0  0  0  0  0  0  0  0
   -8.7912    2.9674  -10.9985 C   0  0  0  0  0  0  0  0  0  0  0  0
   -9.2962    1.7226   -8.7520 C   0  0  0  0  0  0  0  0  0  0  0  0
   -9.6812    2.3190   -7.4461 N   0  0  0  0  0  0  0  0  0  0  0  0
   -8.9928    3.6335   -7.4034 C   0  0  0  0  0  0  0  0  0  0  0  0
   -9.3701    1.7266   -6.6762 H   0  0  0  0  0  0  0  0  0  0  0  0
  4  5  1  0  0  0
  5  6  2  0  0  0
  6  7  1  0  0  0
  7  8  2  0  0  0
  8  9  1  0  0  0
  8 10  1  0  0  0
 10 11  2  0  0  0
 11  1  1  0  0  0
  1  2  1  0  0  0
  1 25  1  0  0  0
 25 27  1  0  0  0
 27 28  2  0  0  0
 28 29  1  0  0  0
 29 30  2  0  0  0
 30 31  1  0  0  0
 31 32  2  0  0  0
 31 33  1  0  0  0
 33 34  1  0  0  0
 34 35  1  0  0  0
  1 17  1  0  0  0
 17 18  2  0  0  0
 17 19  1  0  0  0
 19 21  1  0  0  0
 21 22  1  0  0  0
 22 23  1  0  0  0
 22 24  1  0  0  0
 11 12  1  0  0  0
 12 13  2  0  0  0
 13 14  1  0  0  0
 14 15  1  0  0  0
 14  5  1  0  0  0
 12  6  1  0  0  0
 32 27  1  0  0  0
 35 30  1  0  0  0
  2  3  1  0  0  0
 25 26  1  0  0  0
 34 36  1  0  0  0
 19 20  1  0  0  0
 15 16  1  0  0  0
M  END
> <minimizedAffinity>
-8.12896

> <minimizedRMSD>
0.32853

$$$$
P22336


 29 32  0  0  0  0  0  0  0  0999 V2000
   -8.2727    4.1784  -13.3230 N   0  0  0  0  0  0  0  0  0  0  0  0
   -7.5532    5.0996  -14.3277 C   0  0  0  0  0  0  0  0  0  0  0  0
   -7.0076    6.1168  -14.1637 O   0  0  0  0  0  0  0  0  0  0  0  0
   -8.7254    3.4027  -13.7262 H   0  0  0  0  0  0  0  0  0  0  0  0
   -7.8283    1.2473   -8.8564 N   0  0  0  0  0  0  0  0  0  0  0  0
   -8.9212    2.1620   -8.8204 C   0  0  0  0  0  0  0  0  0  0  0  0
   -8.7701    2.7945   -7.5137 N   0  0  0  0  0  0  0  0  0  0  0  0
   -8.6906    4.2577   -7.7555 C   0  0  0  0  0  0  0  0  0  0  0  0
   -8.5744    4.4398   -9.2412 C   0  0  0  0  0  0  0  0  0  0  0  0
   -8.3305    5.5926   -9.8876 N   0  0  0  0  0  0  0  0  0  0  0  0
   -8.2284    5.4678  -11.2380 C   0  0  0  0  0  0  0  0  0  0  0  0
   -8.3863    4.2644  -11.9405 C   0  0  0  0  0  0  0  0  0  0  0  0
   -8.6665    3.1076  -11.2254 C   0  0  0  0  0  0  0  0  0  0  0  0
   -8.7405    3.2122   -9.8500 C   0  0  0  0  0  0  0  0  0  0  0  0
   -7.9624    0.5292   -8.1445 H   0  0  0  0  0  0  0  0  0  0  0  0
   -6.9590    1.7488   -8.6739 H   0  0  0  0  0  0  0  0  0  0  0  0
   -7.9174    2.4661   -7.0604 H   0  0  0  0  0  0  0  0  0  0  0  0
   -7.6852    4.6055  -15.7151 C   0  0  0  0  0  0  0  0  0  0  0  0
   -8.8626    4.0005  -16.1638 C   0  0  0  0  0  0  0  0  0  0  0  0
   -9.0221    3.6975  -17.5205 C   0  0  0  0  0  0  0  0  0  0  0  0
  -10.1611    3.1169  -17.9151 F   0  0  0  0  0  0  0  0  0  0  0  0
   -8.0405    4.0020  -18.4586 C   0  0  0  0  0  0  0  0  0  0  0  0
   -6.8804    4.6002  -17.9984 C   0  0  0  0  0  0  0  0  0  0  0  0
   -6.7055    4.8629  -16.6522 C   0  0  0  0  0  0  0  0  0  0  0  0
   -5.3477    5.3512  -16.5331 C   0  0  0  0  0  0  0  0  0  0  0  0
   -4.6990    5.3967  -17.6583 N   0  0  0  0  0  0  0  0  0  0  0  0
   -5.7092    5.0518  -18.7568 N   0  0  0  0  0  0  0  0  0  0  0  0
   -5.9881    6.2213  -19.3625 O   0  0  0  0  0  0  0  0  0  0  0  0
   -5.4395    5.7222  -19.4254 H   0  0  0  0  0  0  0  0  0  0  0  0
  6  5  1  0  0  0
  6  7  1  0  0  0
  7  8  1  0  0  0
  8  9  1  0  0  0
  9 10  2  0  0  0
 10 11  1  0  0  0
 11 12  2  0  0  0
 12  1  1  0  0  0
  1  2  1  0  0  0
  2  3  2  0  0  0
  2 18  1  0  0  0
 18 19  2  0  0  0
 19 20  1  0  0  0
 20 21  1  0  0  0
 20 22  2  0  0  0
 22 23  1  0  0  0
 23 24  2  0  0  0
 24 25  1  0  0  0
 25 26  2  0  0  0
 26 27  1  0  0  0
 27 28  1  0  0  0
 12 13  1  0  0  0
 13 14  2  0  0  0
 14  6  1  0  0  0
 14  9  1  0  0  0
 24 18  1  0  0  0
 27 23  1  0  0  0
  5 15  1  0  0  0
  5 16  1  0  0  0
  7 17  1  0  0  0
  1  4  1  0  0  0
 27 29  1  0  0  0
M  CHG 1  27   1
M  CHG 1  28  -1
M  END
> <minimizedAffinity>
-9.70145

> <minimizedRMSD>
0.34266

$$$$
P22338


 31 34  0  0  0  0  0  0  0  0999 V2000
   -5.2286    5.1599  -17.2312 N   0  0  0  0  0  0  0  0  0  0  0  0
   -6.5516    4.7737  -17.1217 C   0  0  0  0  0  0  0  0  0  0  0  0
   -7.4682    4.2769  -18.0579 C   0  0  0  0  0  0  0  0  0  0  0  0
   -8.7311    3.9179  -17.5907 C   0  0  0  0  0  0  0  0  0  0  0  0
   -9.6298    3.3964  -18.4346 F   0  0  0  0  0  0  0  0  0  0  0  0
   -9.1023    4.0925  -16.2684 C   0  0  0  0  0  0  0  0  0  0  0  0
   -8.2002    4.6421  -15.3555 C   0  0  0  0  0  0  0  0  0  0  0  0
   -6.8739    4.9495  -15.7469 C   0  0  0  0  0  0  0  0  0  0  0  0
   -5.6927    5.3866  -15.0030 C   0  0  0  0  0  0  0  0  0  0  0  0
   -5.4756    5.6562  -13.5719 C   0  0  0  0  0  0  0  0  0  0  0  0
   -4.6771    5.4538  -15.8831 N   0  0  0  0  0  0  0  0  0  0  0  0
   -3.4511    5.6667  -15.6944 O   0  0  0  0  0  0  0  0  0  0  0  0
   -8.6649    4.9993  -13.9996 C   0  0  0  0  0  0  0  0  0  0  0  0
   -9.2455    6.0025  -13.8709 O   0  0  0  0  0  0  0  0  0  0  0  0
   -8.2836    3.9252  -12.9617 N   0  0  0  0  0  0  0  0  0  0  0  0
   -7.8541    3.1230  -13.3376 H   0  0  0  0  0  0  0  0  0  0  0  0
   -8.4477    3.9047  -11.5793 C   0  0  0  0  0  0  0  0  0  0  0  0
   -8.2239    5.0404  -10.7854 C   0  0  0  0  0  0  0  0  0  0  0  0
   -8.3600    5.0788   -9.4334 N   0  0  0  0  0  0  0  0  0  0  0  0
   -8.7412    3.9133   -8.8818 C   0  0  0  0  0  0  0  0  0  0  0  0
   -8.9837    2.7438   -9.5822 C   0  0  0  0  0  0  0  0  0  0  0  0
   -8.8328    2.7213  -10.9551 C   0  0  0  0  0  0  0  0  0  0  0  0
   -9.3650    1.6644   -8.6292 C   0  0  0  0  0  0  0  0  0  0  0  0
   -9.6978    2.3516   -7.3561 N   0  0  0  0  0  0  0  0  0  0  0  0
   -8.9919    3.6566   -7.4197 C   0  0  0  0  0  0  0  0  0  0  0  0
   -9.3695    1.8062   -6.5592 H   0  0  0  0  0  0  0  0  0  0  0  0
   -4.5201    5.1474  -18.4534 O   0  0  0  0  0  0  0  0  0  0  0  0
   -4.6004    6.4192  -19.1054 C   0  0  0  0  0  0  0  0  0  0  0  0
   -4.3478    6.2504  -20.5931 C   0  0  0  0  0  0  0  0  0  0  0  0
   -4.9456    7.0699  -22.7136 C   0  0  0  0  0  0  0  0  0  0  0  0
   -5.0109    7.2970  -21.3102 O   0  0  0  0  0  0  0  0  0  0  0  0
 30 31  1  0  0  0
 31 29  1  0  0  0
 29 28  1  0  0  0
 28 27  1  0  0  0
 27  1  1  0  0  0
  1  2  1  0  0  0
  2  3  2  0  0  0
  3  4  1  0  0  0
  4  5  1  0  0  0
  4  6  2  0  0  0
  6  7  1  0  0  0
  7 13  1  0  0  0
 13 14  2  0  0  0
 13 15  1  0  0  0
 15 17  1  0  0  0
 17 18  2  0  0  0
 18 19  1  0  0  0
 19 20  2  0  0  0
 20 21  1  0  0  0
 21 22  2  0  0  0
 21 23  1  0  0  0
 23 24  1  0  0  0
 24 25  1  0  0  0
  7  8  2  0  0  0
  8  9  1  0  0  0
  9 10  1  0  0  0
  9 11  2  0  0  0
 11 12  1  0  0  0
 11  1  1  0  0  0
  8  2  1  0  0  0
 22 17  1  0  0  0
 25 20  1  0  0  0
 15 16  1  0  0  0
 24 26  1  0  0  0
M  CHG 1  11   1
M  CHG 1  12  -1
M  END
> <minimizedAffinity>
-8.26798

> <minimizedRMSD>
0.70859

$$$$
P22339


 30 33  0  0  0  0  0  0  0  0999 V2000
   -8.2097    4.1387  -13.3858 N   0  0  0  0  0  0  0  0  0  0  0  0
   -7.6867    5.1350  -14.4306 C   0  0  0  0  0  0  0  0  0  0  0  0
   -7.2769    6.2174  -14.3027 O   0  0  0  0  0  0  0  0  0  0  0  0
   -8.4312    3.2476  -13.7410 H   0  0  0  0  0  0  0  0  0  0  0  0
   -8.6105    6.4384   -9.6224 C   0  0  0  0  0  0  0  0  0  0  0  0
   -7.5670    5.4488   -9.8425 N   0  0  0  0  0  0  0  0  0  0  0  0
   -7.3664    5.2062  -11.2917 C   0  0  0  0  0  0  0  0  0  0  0  0
   -8.4299    4.2959  -11.9658 C   0  0  0  0  0  0  0  0  0  0  0  0
   -8.5305    2.9482  -11.2431 C   0  0  0  0  0  0  0  0  0  0  0  0
   -8.8042    3.2349   -9.7772 C   0  0  0  0  0  0  0  0  0  0  0  0
   -8.7102    2.0771   -8.8016 C   0  0  0  0  0  0  0  0  0  0  0  0
   -9.8589    1.2287   -8.7512 N   0  0  0  0  0  0  0  0  0  0  0  0
   -8.6802    2.7057   -7.4833 N   0  0  0  0  0  0  0  0  0  0  0  0
   -8.2098    4.0982   -7.6917 C   0  0  0  0  0  0  0  0  0  0  0  0
   -7.7650    4.1636   -9.1604 C   0  0  0  0  0  0  0  0  0  0  0  0
  -10.6738    1.7759   -8.4738 H   0  0  0  0  0  0  0  0  0  0  0  0
   -9.7021    0.4841   -8.0720 H   0  0  0  0  0  0  0  0  0  0  0  0
   -8.0383    2.2051   -6.8687 H   0  0  0  0  0  0  0  0  0  0  0  0
   -7.7895    4.5913  -15.8032 C   0  0  0  0  0  0  0  0  0  0  0  0
   -8.9670    3.9535  -16.2113 C   0  0  0  0  0  0  0  0  0  0  0  0
   -9.1457    3.6055  -17.5417 C   0  0  0  0  0  0  0  0  0  0  0  0
  -10.3009    3.0360  -17.9063 F   0  0  0  0  0  0  0  0  0  0  0  0
   -8.1768    3.8534  -18.5103 C   0  0  0  0  0  0  0  0  0  0  0  0
   -7.0009    4.4705  -18.0837 C   0  0  0  0  0  0  0  0  0  0  0  0
   -5.8744    4.8678  -18.7625 N   0  0  0  0  0  0  0  0  0  0  0  0
   -4.9376    5.4984  -17.8688 N   0  0  0  0  0  0  0  0  0  0  0  0
   -3.8768    5.9950  -18.3100 O   0  0  0  0  0  0  0  0  0  0  0  0
   -5.4596    5.4952  -16.6347 C   0  0  0  0  0  0  0  0  0  0  0  0
   -6.7641    4.8560  -16.7391 C   0  0  0  0  0  0  0  0  0  0  0  0
   -5.7278    4.7392  -19.7275 H   0  0  0  0  0  0  0  0  0  0  0  0
  5  6  1  0  0  0
  6  7  1  0  0  0
  7  8  1  0  0  0
  8  1  1  0  0  0
  1  2  1  0  0  0
  2  3  2  0  0  0
  2 19  1  0  0  0
 19 20  2  0  0  0
 20 21  1  0  0  0
 21 22  1  0  0  0
 21 23  2  0  0  0
 23 24  1  0  0  0
 24 25  1  0  0  0
 25 26  1  0  0  0
 26 27  1  0  0  0
 26 28  2  0  0  0
 28 29  1  0  0  0
  8  9  1  0  0  0
 10  9  1  0  0  0
 10 11  1  0  0  0
 11 12  1  0  0  0
 11 13  1  0  0  0
 13 14  1  0  0  0
 15 14  1  0  0  0
 15  6  1  0  0  0
 29 19  1  0  0  0
 15 10  1  0  0  0
 29 24  2  0  0  0
  1  4  1  0  0  0
 25 30  1  0  0  0
 12 16  1  0  0  0
 12 17  1  0  0  0
 13 18  1  0  0  0
M  CHG 1  26   1
M  CHG 1  27  -1
M  END
> <minimizedAffinity>
-9.21156

> <minimizedRMSD>
0.48701

$$$$
P22340


 26 29  0  0  0  0  0  0  0  0999 V2000
   -8.5417    5.1579  -13.9401 C   0  0  0  0  0  0  0  0  0  0  0  0
   -8.9348    6.2411  -13.7553 O   0  0  0  0  0  0  0  0  0  0  0  0
   -8.3227    3.9898  -12.9523 N   0  0  0  0  0  0  0  0  0  0  0  0
   -8.0509    3.1413  -13.3712 H   0  0  0  0  0  0  0  0  0  0  0  0
   -4.7866    5.1107  -18.9833 C   0  0  0  0  0  0  0  0  0  0  0  0
   -5.5399    5.1666  -17.7013 C   0  0  0  0  0  0  0  0  0  0  0  0
   -6.8072    4.7323  -17.3735 C   0  0  0  0  0  0  0  0  0  0  0  0
   -7.7143    4.0974  -18.2175 C   0  0  0  0  0  0  0  0  0  0  0  0
   -8.9027    3.7824  -17.5319 C   0  0  0  0  0  0  0  0  0  0  0  0
   -9.8783    3.1631  -18.2139 F   0  0  0  0  0  0  0  0  0  0  0  0
   -9.1575    4.0815  -16.1589 C   0  0  0  0  0  0  0  0  0  0  0  0
   -8.2323    4.7445  -15.3210 C   0  0  0  0  0  0  0  0  0  0  0  0
   -7.0503    5.0442  -16.0019 C   0  0  0  0  0  0  0  0  0  0  0  0
   -5.9231    5.6531  -15.5134 C   0  0  0  0  0  0  0  0  0  0  0  0
   -5.0082    5.7109  -16.5418 N   0  0  0  0  0  0  0  0  0  0  0  0
   -3.6741    6.2563  -16.4046 C   0  0  0  0  0  0  0  0  0  0  0  0
   -8.4472    3.9420  -11.5665 C   0  0  0  0  0  0  0  0  0  0  0  0
   -8.2197    5.0653  -10.7589 C   0  0  0  0  0  0  0  0  0  0  0  0
   -8.3319    5.0782   -9.4047 N   0  0  0  0  0  0  0  0  0  0  0  0
   -8.6831    3.8978   -8.8656 C   0  0  0  0  0  0  0  0  0  0  0  0
   -8.9258    2.7387   -9.5787 C   0  0  0  0  0  0  0  0  0  0  0  0
   -8.8154    2.7452  -10.9561 C   0  0  0  0  0  0  0  0  0  0  0  0
   -9.3069    1.6430   -8.6488 C   0  0  0  0  0  0  0  0  0  0  0  0
   -9.1098    2.1655   -7.2726 N   0  0  0  0  0  0  0  0  0  0  0  0
   -8.9068    3.6302   -7.4055 C   0  0  0  0  0  0  0  0  0  0  0  0
   -8.2909    1.7332   -6.8451 H   0  0  0  0  0  0  0  0  0  0  0  0
  5  6  1  0  0  0
  6  7  2  0  0  0
  7  8  1  0  0  0
  8  9  2  0  0  0
  9 10  1  0  0  0
  9 11  1  0  0  0
 11 12  2  0  0  0
 12  1  1  0  0  0
  1  2  2  0  0  0
  1  3  1  0  0  0
  3 17  1  0  0  0
 17 18  2  0  0  0
 18 19  1  0  0  0
 19 20  2  0  0  0
 20 21  1  0  0  0
 21 22  2  0  0  0
 21 23  1  0  0  0
 23 24  1  0  0  0
 24 25  1  0  0  0
 12 13  1  0  0  0
 13 14  2  0  0  0
 14 15  1  0  0  0
 15 16  1  0  0  0
 15  6  1  0  0  0
 13  7  1  0  0  0
 22 17  1  0  0  0
 25 20  1  0  0  0
  3  4  1  0  0  0
 24 26  1  0  0  0
M  END
> <minimizedAffinity>
-9.02140

> <minimizedRMSD>
0.65631

$$$$
P22341


 28 31  0  0  0  0  0  0  0  0999 V2000
   -5.3077    5.1856  -17.2606 N   0  0  0  0  0  0  0  0  0  0  0  0
   -6.6274    4.8018  -17.1547 C   0  0  0  0  0  0  0  0  0  0  0  0
   -7.5290    4.3020  -18.1007 C   0  0  0  0  0  0  0  0  0  0  0  0
   -8.8020    3.9670  -17.6553 C   0  0  0  0  0  0  0  0  0  0  0  0
   -9.6935    3.4718  -18.5220 F   0  0  0  0  0  0  0  0  0  0  0  0
   -9.1853    4.1415  -16.3361 C   0  0  0  0  0  0  0  0  0  0  0  0
   -8.2874    4.6694  -15.3985 C   0  0  0  0  0  0  0  0  0  0  0  0
   -6.9579    4.9942  -15.7825 C   0  0  0  0  0  0  0  0  0  0  0  0
   -5.7782    5.4845  -15.0556 C   0  0  0  0  0  0  0  0  0  0  0  0
   -5.5552    5.8152  -13.6391 C   0  0  0  0  0  0  0  0  0  0  0  0
   -4.7784    5.5907  -15.9539 N   0  0  0  0  0  0  0  0  0  0  0  0
   -3.5876    5.9805  -15.8285 O   0  0  0  0  0  0  0  0  0  0  0  0
   -8.7812    4.9836  -14.0348 C   0  0  0  0  0  0  0  0  0  0  0  0
   -9.4946    5.8987  -13.9079 O   0  0  0  0  0  0  0  0  0  0  0  0
   -8.2576    3.9694  -12.9925 N   0  0  0  0  0  0  0  0  0  0  0  0
   -7.7216    3.2333  -13.3668 H   0  0  0  0  0  0  0  0  0  0  0  0
   -8.4209    3.9274  -11.6087 C   0  0  0  0  0  0  0  0  0  0  0  0
   -8.2343    5.0572  -10.7997 C   0  0  0  0  0  0  0  0  0  0  0  0
   -8.3761    5.0726   -9.4481 N   0  0  0  0  0  0  0  0  0  0  0  0
   -8.7215    3.8893   -8.9106 C   0  0  0  0  0  0  0  0  0  0  0  0
   -8.9292    2.7241   -9.6241 C   0  0  0  0  0  0  0  0  0  0  0  0
   -8.7835    2.7275  -10.9993 C   0  0  0  0  0  0  0  0  0  0  0  0
   -9.3175    1.6263   -8.6984 C   0  0  0  0  0  0  0  0  0  0  0  0
   -9.1782    2.1611   -7.3200 N   0  0  0  0  0  0  0  0  0  0  0  0
   -8.9708    3.6246   -7.4538 C   0  0  0  0  0  0  0  0  0  0  0  0
   -8.3775    1.7329   -6.8553 H   0  0  0  0  0  0  0  0  0  0  0  0
   -4.5990    6.2548  -19.1715 C   0  0  0  0  0  0  0  0  0  0  0  0
   -4.5321    5.0482  -18.4239 O   0  0  0  0  0  0  0  0  0  0  0  0
 27 28  1  0  0  0
 28  1  1  0  0  0
  1  2  1  0  0  0
  2  3  2  0  0  0
  3  4  1  0  0  0
  4  5  1  0  0  0
  4  6  2  0  0  0
  6  7  1  0  0  0
  7 13  1  0  0  0
 13 14  2  0  0  0
 13 15  1  0  0  0
 15 17  1  0  0  0
 17 18  2  0  0  0
 18 19  1  0  0  0
 19 20  2  0  0  0
 20 21  1  0  0  0
 21 22  2  0  0  0
 21 23  1  0  0  0
 23 24  1  0  0  0
 24 25  1  0  0  0
  7  8  2  0  0  0
  8  9  1  0  0  0
  9 10  1  0  0  0
  9 11  2  0  0  0
 11 12  1  0  0  0
 11  1  1  0  0  0
  8  2  1  0  0  0
 22 17  1  0  0  0
 25 20  1  0  0  0
 15 16  1  0  0  0
 24 26  1  0  0  0
M  CHG 1  11   1
M  CHG 1  12  -1
M  END
> <minimizedAffinity>
-8.76450

> <minimizedRMSD>
0.94315

$$$$
P22342


 27 30  0  0  0  0  0  0  0  0999 V2000
   -8.3120    4.1786  -13.4820 N   0  0  0  0  0  0  0  0  0  0  0  0
   -7.6799    5.1407  -14.5210 C   0  0  0  0  0  0  0  0  0  0  0  0
   -7.0517    6.1143  -14.3675 O   0  0  0  0  0  0  0  0  0  0  0  0
   -8.7341    3.3765  -13.8663 H   0  0  0  0  0  0  0  0  0  0  0  0
   -7.9671    4.7329  -15.9242 C   0  0  0  0  0  0  0  0  0  0  0  0
   -9.2660    4.3648  -16.2993 C   0  0  0  0  0  0  0  0  0  0  0  0
   -9.5798    4.1305  -17.6327 C   0  0  0  0  0  0  0  0  0  0  0  0
  -10.8382    3.8132  -17.9583 F   0  0  0  0  0  0  0  0  0  0  0  0
   -8.6379    4.2402  -18.6471 C   0  0  0  0  0  0  0  0  0  0  0  0
   -7.3477    4.5931  -18.2638 C   0  0  0  0  0  0  0  0  0  0  0  0
   -6.2090    4.7829  -19.0052 N   0  0  0  0  0  0  0  0  0  0  0  0
   -5.1064    5.1401  -18.1611 N   0  0  0  0  0  0  0  0  0  0  0  0
   -3.9795    5.3469  -18.6664 O   0  0  0  0  0  0  0  0  0  0  0  0
   -5.5427    5.1977  -16.8917 C   0  0  0  0  0  0  0  0  0  0  0  0
   -6.9621    4.8492  -16.9210 C   0  0  0  0  0  0  0  0  0  0  0  0
   -6.1561    4.6869  -19.9836 H   0  0  0  0  0  0  0  0  0  0  0  0
   -8.2146    5.1581   -7.0790 O   0  0  0  0  0  0  0  0  0  0  0  0
   -8.5005    4.3266   -7.9214 C   0  0  0  0  0  0  0  0  0  0  0  0
   -8.8839    3.0177   -7.6774 N   0  0  0  0  0  0  0  0  0  0  0  0
   -8.8613    2.2215   -8.8853 C   0  0  0  0  0  0  0  0  0  0  0  0
   -8.6701    3.2372   -9.9561 C   0  0  0  0  0  0  0  0  0  0  0  0
   -8.6408    3.1169  -11.3353 C   0  0  0  0  0  0  0  0  0  0  0  0
   -8.3798    4.2651  -12.0879 C   0  0  0  0  0  0  0  0  0  0  0  0
   -8.1724    5.4764  -11.4047 C   0  0  0  0  0  0  0  0  0  0  0  0
   -8.2022    5.6245  -10.0534 N   0  0  0  0  0  0  0  0  0  0  0  0
   -8.4544    4.4819   -9.3905 C   0  0  0  0  0  0  0  0  0  0  0  0
   -9.1399    2.6722   -6.7918 H   0  0  0  0  0  0  0  0  0  0  0  0
 17 18  2  0  0  0
 18 19  1  0  0  0
 19 20  1  0  0  0
 20 21  1  0  0  0
 21 22  2  0  0  0
 22 23  1  0  0  0
 23  1  1  0  0  0
  1  2  1  0  0  0
  2  3  2  0  0  0
  2  5  1  0  0  0
  5  6  2  0  0  0
  6  7  1  0  0  0
  7  8  1  0  0  0
  7  9  2  0  0  0
  9 10  1  0  0  0
 10 11  1  0  0  0
 11 12  1  0  0  0
 12 13  1  0  0  0
 12 14  2  0  0  0
 14 15  1  0  0  0
 23 24  2  0  0  0
 24 25  1  0  0  0
 25 26  2  0  0  0
 26 18  1  0  0  0
 26 21  1  0  0  0
 15  5  1  0  0  0
 15 10  2  0  0  0
 19 27  1  0  0  0
  1  4  1  0  0  0
 11 16  1  0  0  0
M  CHG 1  12   1
M  CHG 1  13  -1
M  END
> <minimizedAffinity>
-8.72755

> <minimizedRMSD>
0.61617

$$$$
P22343


 27 30  0  0  0  0  0  0  0  0999 V2000
   -8.4732    4.4151  -13.3158 N   0  0  0  0  0  0  0  0  0  0  0  0
   -7.5841    5.2106  -14.3052 C   0  0  0  0  0  0  0  0  0  0  0  0
   -6.8043    6.0589  -14.1089 O   0  0  0  0  0  0  0  0  0  0  0  0
   -9.1115    3.7973  -13.7403 H   0  0  0  0  0  0  0  0  0  0  0  0
   -7.8337    4.8400  -15.7203 C   0  0  0  0  0  0  0  0  0  0  0  0
   -9.1199    4.5166  -16.1653 C   0  0  0  0  0  0  0  0  0  0  0  0
   -9.3669    4.3165  -17.5167 C   0  0  0  0  0  0  0  0  0  0  0  0
  -10.6120    4.0303  -17.9122 F   0  0  0  0  0  0  0  0  0  0  0  0
   -8.3662    4.4146  -18.4750 C   0  0  0  0  0  0  0  0  0  0  0  0
   -7.0875    4.7257  -18.0138 C   0  0  0  0  0  0  0  0  0  0  0  0
   -5.9099    4.9039  -18.6887 N   0  0  0  0  0  0  0  0  0  0  0  0
   -4.8668    5.2090  -17.8889 N   0  0  0  0  0  0  0  0  0  0  0  0
   -5.4114    5.2391  -16.6669 C   0  0  0  0  0  0  0  0  0  0  0  0
   -6.7942    4.9411  -16.6702 C   0  0  0  0  0  0  0  0  0  0  0  0
   -5.8315    4.8176  -19.6663 H   0  0  0  0  0  0  0  0  0  0  0  0
   -8.2019    4.2317   -7.7522 C   0  0  0  0  0  0  0  0  0  0  0  0
   -8.8905    2.9333   -7.5084 N   0  0  0  0  0  0  0  0  0  0  0  0
   -8.7494    2.2184   -8.8104 C   0  0  0  0  0  0  0  0  0  0  0  0
   -8.6773    3.2986   -9.8408 C   0  0  0  0  0  0  0  0  0  0  0  0
   -8.7237    3.2449  -11.2205 C   0  0  0  0  0  0  0  0  0  0  0  0
   -8.5161    4.4321  -11.9224 C   0  0  0  0  0  0  0  0  0  0  0  0
   -8.3127    5.6128  -11.1929 C   0  0  0  0  0  0  0  0  0  0  0  0
   -8.2613    5.6893   -9.8386 N   0  0  0  0  0  0  0  0  0  0  0  0
   -8.4328    4.5119   -9.2153 C   0  0  0  0  0  0  0  0  0  0  0  0
   -9.8730    3.0789   -7.2764 H   0  0  0  0  0  0  0  0  0  0  0  0
   -9.6700    4.8644   -5.8118 C   0  0  0  0  0  0  0  0  0  0  0  0
   -8.6046    5.3411   -6.7920 C   0  0  0  0  0  0  0  0  0  0  0  0
 26 27  1  0  0  0
 16 27  1  0  0  0
 16 17  1  0  0  0
 17 18  1  0  0  0
 18 19  1  0  0  0
 19 20  2  0  0  0
 20 21  1  0  0  0
 21  1  1  0  0  0
  1  2  1  0  0  0
  2  3  2  0  0  0
  2  5  1  0  0  0
  5  6  2  0  0  0
  6  7  1  0  0  0
  7  8  1  0  0  0
  7  9  2  0  0  0
  9 10  1  0  0  0
 10 11  1  0  0  0
 11 12  1  0  0  0
 12 13  2  0  0  0
 13 14  1  0  0  0
 21 22  2  0  0  0
 22 23  1  0  0  0
 23 24  2  0  0  0
 24 16  1  0  0  0
 24 19  1  0  0  0
 14  5  1  0  0  0
 14 10  2  0  0  0
 17 25  1  0  0  0
  1  4  1  0  0  0
 11 15  1  0  0  0
M  END
> <minimizedAffinity>
-8.04959

> <minimizedRMSD>
0.60200

$$$$
P22344


 26 29  0  0  0  0  0  0  0  0999 V2000
   -7.5910    6.2265  -14.0328 O   0  0  0  0  0  0  0  0  0  0  0  0
   -7.7821    5.0921  -14.2352 C   0  0  0  0  0  0  0  0  0  0  0  0
   -8.0586    3.9287  -13.2491 N   0  0  0  0  0  0  0  0  0  0  0  0
   -8.1117    3.0385  -13.6664 H   0  0  0  0  0  0  0  0  0  0  0  0
   -7.8306    4.6403  -15.6484 C   0  0  0  0  0  0  0  0  0  0  0  0
   -8.8650    3.8097  -16.0869 C   0  0  0  0  0  0  0  0  0  0  0  0
   -8.9910    3.4929  -17.4446 C   0  0  0  0  0  0  0  0  0  0  0  0
  -10.0290    2.7467  -17.8335 F   0  0  0  0  0  0  0  0  0  0  0  0
   -8.1016    3.9721  -18.3971 C   0  0  0  0  0  0  0  0  0  0  0  0
   -7.0985    4.8139  -17.9581 C   0  0  0  0  0  0  0  0  0  0  0  0
   -6.9860    5.1532  -16.6180 C   0  0  0  0  0  0  0  0  0  0  0  0
   -5.9970    6.2113  -16.5890 C   0  0  0  0  0  0  0  0  0  0  0  0
   -5.5676    6.5753  -17.7627 N   0  0  0  0  0  0  0  0  0  0  0  0
   -6.1532    5.5821  -18.7734 N   0  0  0  0  0  0  0  0  0  0  0  0
   -5.1196    4.8183  -19.1575 O   0  0  0  0  0  0  0  0  0  0  0  0
   -6.3951    4.6601  -18.5271 H   0  0  0  0  0  0  0  0  0  0  0  0
   -8.2448    3.9377  -11.8639 C   0  0  0  0  0  0  0  0  0  0  0  0
   -7.9453    5.0449  -11.0588 C   0  0  0  0  0  0  0  0  0  0  0  0
   -8.1173    5.0903   -9.7086 N   0  0  0  0  0  0  0  0  0  0  0  0
   -8.6068    3.9593   -9.1671 C   0  0  0  0  0  0  0  0  0  0  0  0
   -8.9311    2.8170   -9.8761 C   0  0  0  0  0  0  0  0  0  0  0  0
   -8.7510    2.7914  -11.2468 C   0  0  0  0  0  0  0  0  0  0  0  0
   -9.4094    1.7647   -8.9343 C   0  0  0  0  0  0  0  0  0  0  0  0
   -9.6913    2.4660   -7.6564 N   0  0  0  0  0  0  0  0  0  0  0  0
   -8.8892    3.7147   -7.7084 C   0  0  0  0  0  0  0  0  0  0  0  0
   -9.4065    1.8913   -6.8633 H   0  0  0  0  0  0  0  0  0  0  0  0
  1  2  2  0  0  0
  2  3  1  0  0  0
  3 17  1  0  0  0
 17 18  2  0  0  0
 18 19  1  0  0  0
 19 20  2  0  0  0
 20 21  1  0  0  0
 21 22  2  0  0  0
 21 23  1  0  0  0
 23 24  1  0  0  0
 24 25  1  0  0  0
  2  5  1  0  0  0
  5  6  2  0  0  0
  6  7  1  0  0  0
  7  8  1  0  0  0
  7  9  2  0  0  0
  9 10  1  0  0  0
 10 11  2  0  0  0
 11 12  1  0  0  0
 12 13  2  0  0  0
 13 14  1  0  0  0
 14 15  1  0  0  0
 22 17  1  0  0  0
 11  5  1  0  0  0
 25 20  1  0  0  0
 14 10  1  0  0  0
  3  4  1  0  0  0
 24 26  1  0  0  0
 14 16  1  0  0  0
M  CHG 1  14   1
M  CHG 1  15  -1
M  END
> <minimizedAffinity>
-8.96606

> <minimizedRMSD>
0.31287

$$$$
P22345


 28 31  0  0  0  0  0  0  0  0999 V2000
   -5.1026    5.2970  -17.4091 N   0  0  0  0  0  0  0  0  0  0  0  0
   -5.7301    5.3534  -16.1922 C   0  0  0  0  0  0  0  0  0  0  0  0
   -6.9786    4.8273  -16.4049 C   0  0  0  0  0  0  0  0  0  0  0  0
   -7.9994    4.6298  -15.4705 C   0  0  0  0  0  0  0  0  0  0  0  0
   -9.1456    4.0477  -16.0514 C   0  0  0  0  0  0  0  0  0  0  0  0
   -9.2306    3.7071  -17.4279 C   0  0  0  0  0  0  0  0  0  0  0  0
  -10.3821    3.1719  -17.8597 F   0  0  0  0  0  0  0  0  0  0  0  0
   -8.2016    3.9114  -18.3589 C   0  0  0  0  0  0  0  0  0  0  0  0
   -7.0497    4.4922  -17.8068 C   0  0  0  0  0  0  0  0  0  0  0  0
   -5.9031    4.8495  -18.4011 N   0  0  0  0  0  0  0  0  0  0  0  0
   -7.9634    5.0891  -14.0699 C   0  0  0  0  0  0  0  0  0  0  0  0
   -7.8169    6.2286  -13.8620 O   0  0  0  0  0  0  0  0  0  0  0  0
   -8.1941    3.9133  -13.0917 N   0  0  0  0  0  0  0  0  0  0  0  0
   -8.2123    3.0238  -13.5134 H   0  0  0  0  0  0  0  0  0  0  0  0
   -8.3804    3.9080  -11.7110 C   0  0  0  0  0  0  0  0  0  0  0  0
   -8.1842    5.0509  -10.9235 C   0  0  0  0  0  0  0  0  0  0  0  0
   -8.3353    5.0942   -9.5731 N   0  0  0  0  0  0  0  0  0  0  0  0
   -8.6875    3.9228   -9.0150 C   0  0  0  0  0  0  0  0  0  0  0  0
   -8.9062    2.7467   -9.7075 C   0  0  0  0  0  0  0  0  0  0  0  0
   -8.7636    2.7245  -11.0822 C   0  0  0  0  0  0  0  0  0  0  0  0
   -9.2882    1.6661   -8.7597 C   0  0  0  0  0  0  0  0  0  0  0  0
   -9.0913    2.2125   -7.3923 N   0  0  0  0  0  0  0  0  0  0  0  0
   -8.9164    3.6786   -7.5513 C   0  0  0  0  0  0  0  0  0  0  0  0
   -8.2615    1.8021   -6.9639 H   0  0  0  0  0  0  0  0  0  0  0  0
   -3.7551    5.7529  -17.7787 C   0  0  0  0  0  0  0  0  0  0  0  0
   -1.5181    6.0921  -16.9873 C   0  0  0  0  0  0  0  0  0  0  0  0
   -2.7976    5.4549  -16.7077 N   0  0  0  0  0  0  0  0  0  0  0  0
   -3.1625    5.8054  -15.8221 H   0  0  0  0  0  0  0  0  0  0  0  0
 26 27  1  0  0  0
 27 25  1  0  0  0
 25  1  1  0  0  0
  1  2  1  0  0  0
  2  3  2  0  0  0
  3  4  1  0  0  0
  4 11  1  0  0  0
 11 12  2  0  0  0
 11 13  1  0  0  0
 13 15  1  0  0  0
 15 16  2  0  0  0
 16 17  1  0  0  0
 17 18  2  0  0  0
 18 19  1  0  0  0
 19 20  2  0  0  0
 19 21  1  0  0  0
 21 22  1  0  0  0
 22 23  1  0  0  0
  4  5  2  0  0  0
  5  6  1  0  0  0
  6  7  1  0  0  0
  6  8  2  0  0  0
  8  9  1  0  0  0
  9 10  2  0  0  0
 10  1  1  0  0  0
  9  3  1  0  0  0
 20 15  1  0  0  0
 23 18  1  0  0  0
 27 28  1  0  0  0
 13 14  1  0  0  0
 22 24  1  0  0  0
M  END
> <minimizedAffinity>
-8.16855

> <minimizedRMSD>
0.57591

$$$$
P22347


 34 37  0  0  0  0  0  0  0  0999 V2000
   -4.6619    5.6583  -15.2080 N   0  0  0  0  0  0  0  0  0  0  0  0
   -5.8356    5.4813  -14.5381 C   0  0  0  0  0  0  0  0  0  0  0  0
   -6.7379    5.1349  -15.5122 C   0  0  0  0  0  0  0  0  0  0  0  0
   -8.0724    4.7760  -15.3443 C   0  0  0  0  0  0  0  0  0  0  0  0
   -8.6780    4.3675  -16.5498 C   0  0  0  0  0  0  0  0  0  0  0  0
   -7.9841    4.3328  -17.7918 C   0  0  0  0  0  0  0  0  0  0  0  0
   -8.6758    3.9192  -18.8683 F   0  0  0  0  0  0  0  0  0  0  0  0
   -6.6283    4.6931  -17.9433 C   0  0  0  0  0  0  0  0  0  0  0  0
   -6.0232    5.1302  -16.7562 C   0  0  0  0  0  0  0  0  0  0  0  0
   -4.7996    5.6195  -16.5364 N   0  0  0  0  0  0  0  0  0  0  0  0
   -8.7842    4.8891  -14.0674 C   0  0  0  0  0  0  0  0  0  0  0  0
   -9.7638    5.5190  -14.0256 O   0  0  0  0  0  0  0  0  0  0  0  0
   -8.0442    4.1205  -12.9583 N   0  0  0  0  0  0  0  0  0  0  0  0
   -7.2693    3.5971  -13.2662 H   0  0  0  0  0  0  0  0  0  0  0  0
   -8.2914    4.0450  -11.5937 C   0  0  0  0  0  0  0  0  0  0  0  0
   -8.1498    5.1579  -10.7507 C   0  0  0  0  0  0  0  0  0  0  0  0
   -8.3762    5.1453   -9.4123 N   0  0  0  0  0  0  0  0  0  0  0  0
   -8.7662    3.9525   -8.9321 C   0  0  0  0  0  0  0  0  0  0  0  0
   -8.9352    2.8044   -9.6884 C   0  0  0  0  0  0  0  0  0  0  0  0
   -8.6855    2.8295  -11.0442 C   0  0  0  0  0  0  0  0  0  0  0  0
   -9.3597    1.6883   -8.8018 C   0  0  0  0  0  0  0  0  0  0  0  0
   -9.8213    2.3305   -7.5462 N   0  0  0  0  0  0  0  0  0  0  0  0
   -9.1272    3.6427   -7.5048 C   0  0  0  0  0  0  0  0  0  0  0  0
   -9.5639    1.7636   -6.7384 H   0  0  0  0  0  0  0  0  0  0  0  0
   -5.9518    4.5651  -19.1426 N   0  0  0  0  0  0  0  0  0  0  0  0
   -5.1075    5.5986  -19.9400 C   0  0  0  0  0  0  0  0  0  0  0  0
   -4.7921    6.6892  -19.6681 O   0  0  0  0  0  0  0  0  0  0  0  0
   -6.0151    3.6752  -19.5589 H   0  0  0  0  0  0  0  0  0  0  0  0
   -3.3431    5.9560  -14.6495 C   0  0  0  0  0  0  0  0  0  0  0  0
   -2.3210    5.3891  -15.5432 N   0  0  0  0  0  0  0  0  0  0  0  0
   -1.9439    4.5421  -15.1181 H   0  0  0  0  0  0  0  0  0  0  0  0
   -1.2273    6.3259  -15.7800 C   0  0  0  0  0  0  0  0  0  0  0  0
    1.0720    5.4669  -16.5979 C   0  0  0  0  0  0  0  0  0  0  0  0
   -0.3166    5.9665  -16.9580 C   0  0  0  0  0  0  0  0  0  0  0  0
 33 34  1  0  0  0
 34 32  1  0  0  0
 32 30  1  0  0  0
 30 29  1  0  0  0
 29  1  1  0  0  0
  1  2  1  0  0  0
  2  3  2  0  0  0
  3  4  1  0  0  0
  4 11  1  0  0  0
 11 12  2  0  0  0
 11 13  1  0  0  0
 13 15  1  0  0  0
 15 16  2  0  0  0
 16 17  1  0  0  0
 17 18  2  0  0  0
 18 19  1  0  0  0
 19 20  2  0  0  0
 19 21  1  0  0  0
 21 22  1  0  0  0
 22 23  1  0  0  0
  4  5  2  0  0  0
  5  6  1  0  0  0
  6  7  1  0  0  0
  6  8  2  0  0  0
  8 25  1  0  0  0
 25 26  1  0  0  0
 26 27  2  0  0  0
  8  9  1  0  0  0
  9 10  2  0  0  0
 10  1  1  0  0  0
  9  3  1  0  0  0
 20 15  1  0  0  0
 23 18  1  0  0  0
 30 31  1  0  0  0
 13 14  1  0  0  0
 22 24  1  0  0  0
 25 28  1  0  0  0
M  END
> <minimizedAffinity>
-7.75857

> <minimizedRMSD>
1.20039

$$$$
P22348


 33 36  0  0  0  0  0  0  0  0999 V2000
   -7.5298    4.8341  -13.9108 C   0  0  0  0  0  0  0  0  0  0  0  0
   -8.3599    5.9807  -13.7725 O   0  0  0  0  0  0  0  0  0  0  0  0
   -8.3849    6.2513  -12.8413 H   0  0  0  0  0  0  0  0  0  0  0  0
   -7.5805    4.5211  -15.4063 C   0  0  0  0  0  0  0  0  0  0  0  0
   -8.7729    3.9638  -15.9713 C   0  0  0  0  0  0  0  0  0  0  0  0
   -9.0097    3.7029  -17.3500 C   0  0  0  0  0  0  0  0  0  0  0  0
  -10.1931    3.1756  -17.6915 F   0  0  0  0  0  0  0  0  0  0  0  0
   -8.0931    3.9742  -18.3620 C   0  0  0  0  0  0  0  0  0  0  0  0
   -6.9021    4.5303  -17.8867 C   0  0  0  0  0  0  0  0  0  0  0  0
   -5.8302    4.9148  -18.5951 N   0  0  0  0  0  0  0  0  0  0  0  0
   -4.9692    5.3439  -17.6852 N   0  0  0  0  0  0  0  0  0  0  0  0
   -3.7067    5.7688  -18.0297 F   0  0  0  0  0  0  0  0  0  0  0  0
   -5.4333    5.3594  -16.4051 C   0  0  0  0  0  0  0  0  0  0  0  0
   -6.6793    4.7871  -16.4618 C   0  0  0  0  0  0  0  0  0  0  0  0
   -5.3160    3.7496  -13.2308 N   0  0  0  0  0  0  0  0  0  0  0  0
   -6.0393    5.1225  -13.3979 C   0  0  0  0  0  0  0  0  0  0  0  0
   -5.6641    6.2113  -13.1741 O   0  0  0  0  0  0  0  0  0  0  0  0
   -5.8769    2.9625  -13.4181 H   0  0  0  0  0  0  0  0  0  0  0  0
   -3.7169    3.8417  -11.3927 C   0  0  0  0  0  0  0  0  0  0  0  0
   -3.9567    3.4462  -12.8460 C   0  0  0  0  0  0  0  0  0  0  0  0
   -2.9413    4.1117  -13.7658 C   0  0  0  0  0  0  0  0  0  0  0  0
   -8.1081    3.7359  -13.1153 N   0  0  0  0  0  0  0  0  0  0  0  0
   -8.3029    2.8815  -13.5638 H   0  0  0  0  0  0  0  0  0  0  0  0
   -8.3933    3.8558  -11.7454 C   0  0  0  0  0  0  0  0  0  0  0  0
   -8.1913    5.0045  -10.9522 C   0  0  0  0  0  0  0  0  0  0  0  0
   -8.3692    5.0981   -9.6043 N   0  0  0  0  0  0  0  0  0  0  0  0
   -8.7555    3.9573   -9.0173 C   0  0  0  0  0  0  0  0  0  0  0  0
   -8.9727    2.7680   -9.6822 C   0  0  0  0  0  0  0  0  0  0  0  0
   -8.7893    2.7038  -11.0533 C   0  0  0  0  0  0  0  0  0  0  0  0
   -9.3236    1.7110   -8.6951 C   0  0  0  0  0  0  0  0  0  0  0  0
   -9.6700    2.4242   -7.4402 N   0  0  0  0  0  0  0  0  0  0  0  0
   -9.0070    3.7477   -7.5486 C   0  0  0  0  0  0  0  0  0  0  0  0
   -9.3189    1.9136   -6.6300 H   0  0  0  0  0  0  0  0  0  0  0  0
 19 20  1  0  0  0
 20 21  1  0  0  0
 20 15  1  0  0  0
 15 16  1  0  0  0
 16 17  2  0  0  0
 16  1  1  0  0  0
  1  2  1  0  0  0
  1 22  1  0  0  0
 22 24  1  0  0  0
 24 25  2  0  0  0
 25 26  1  0  0  0
 26 27  2  0  0  0
 27 28  1  0  0  0
 28 29  2  0  0  0
 28 30  1  0  0  0
 30 31  1  0  0  0
 31 32  1  0  0  0
  1  4  1  0  0  0
  4  5  2  0  0  0
  5  6  1  0  0  0
  6  7  1  0  0  0
  6  8  2  0  0  0
  8  9  1  0  0  0
  9 10  2  0  0  0
 10 11  1  0  0  0
 11 12  1  0  0  0
 11 13  1  0  0  0
 13 14  2  0  0  0
 29 24  1  0  0  0
 14  4  1  0  0  0
 32 27  1  0  0  0
 14  9  1  0  0  0
 15 18  1  0  0  0
  2  3  1  0  0  0
 22 23  1  0  0  0
 31 33  1  0  0  0
M  END
> <minimizedAffinity>
-8.88281

> <minimizedRMSD>
0.38789

$$$$
P22352


 28 31  0  0  0  0  0  0  0  0999 V2000
   -4.9245    5.3029  -17.7650 N   0  0  0  0  0  0  0  0  0  0  0  0
   -5.4567    5.4101  -16.5053 C   0  0  0  0  0  0  0  0  0  0  0  0
   -6.7179    4.8776  -16.6099 C   0  0  0  0  0  0  0  0  0  0  0  0
   -7.6392    4.6246  -15.5911 C   0  0  0  0  0  0  0  0  0  0  0  0
   -8.7943    3.9788  -16.0822 C   0  0  0  0  0  0  0  0  0  0  0  0
   -8.9914    3.6530  -17.4517 C   0  0  0  0  0  0  0  0  0  0  0  0
  -10.1356    3.0454  -17.7910 F   0  0  0  0  0  0  0  0  0  0  0  0
   -8.0711    3.9226  -18.4666 C   0  0  0  0  0  0  0  0  0  0  0  0
   -6.9019    4.5308  -18.0006 C   0  0  0  0  0  0  0  0  0  0  0  0
   -5.8030    4.8539  -18.6836 N   0  0  0  0  0  0  0  0  0  0  0  0
   -7.5063    5.0381  -14.1810 C   0  0  0  0  0  0  0  0  0  0  0  0
   -7.1311    6.1184  -13.9466 O   0  0  0  0  0  0  0  0  0  0  0  0
   -7.9791    3.9122  -13.2300 N   0  0  0  0  0  0  0  0  0  0  0  0
   -8.1761    3.0549  -13.6721 H   0  0  0  0  0  0  0  0  0  0  0  0
   -8.1714    3.9145  -11.8498 C   0  0  0  0  0  0  0  0  0  0  0  0
   -7.8654    5.0207  -11.0452 C   0  0  0  0  0  0  0  0  0  0  0  0
   -8.0704    5.0790   -9.7012 N   0  0  0  0  0  0  0  0  0  0  0  0
   -8.5900    3.9586   -9.1673 C   0  0  0  0  0  0  0  0  0  0  0  0
   -8.9102    2.8150   -9.8770 C   0  0  0  0  0  0  0  0  0  0  0  0
   -8.7088    2.7795  -11.2432 C   0  0  0  0  0  0  0  0  0  0  0  0
   -9.4104    1.7715   -8.9391 C   0  0  0  0  0  0  0  0  0  0  0  0
   -9.7295    2.4841   -7.6771 N   0  0  0  0  0  0  0  0  0  0  0  0
   -8.9248    3.7325   -7.7172 C   0  0  0  0  0  0  0  0  0  0  0  0
   -9.4685    1.9167   -6.8707 H   0  0  0  0  0  0  0  0  0  0  0  0
   -3.5056    5.2740  -18.1242 C   0  0  0  0  0  0  0  0  0  0  0  0
   -1.4030    6.3472  -18.2626 C   0  0  0  0  0  0  0  0  0  0  0  0
   -2.8327    6.5810  -18.0105 N   0  0  0  0  0  0  0  0  0  0  0  0
   -3.3156    7.5557  -18.9990 C   0  0  0  0  0  0  0  0  0  0  0  0
 26 27  1  0  0  0
 27 28  1  0  0  0
 27 25  1  0  0  0
 25  1  1  0  0  0
  1  2  1  0  0  0
  2  3  2  0  0  0
  3  4  1  0  0  0
  4 11  1  0  0  0
 11 12  2  0  0  0
 11 13  1  0  0  0
 13 15  1  0  0  0
 15 16  2  0  0  0
 16 17  1  0  0  0
 17 18  2  0  0  0
 18 19  1  0  0  0
 19 20  2  0  0  0
 19 21  1  0  0  0
 21 22  1  0  0  0
 22 23  1  0  0  0
  4  5  2  0  0  0
  5  6  1  0  0  0
  6  7  1  0  0  0
  6  8  2  0  0  0
  8  9  1  0  0  0
  9 10  2  0  0  0
 10  1  1  0  0  0
  9  3  1  0  0  0
 20 15  1  0  0  0
 23 18  1  0  0  0
 13 14  1  0  0  0
 22 24  1  0  0  0
M  END
> <minimizedAffinity>
-8.31523

> <minimizedRMSD>
0.52180

$$$$
P22355


 28 31  0  0  0  0  0  0  0  0999 V2000
   -5.6526    5.0920  -18.2729 N   0  0  0  0  0  0  0  0  0  0  0  0
   -4.9207    5.7686  -17.3674 N   0  0  0  0  0  0  0  0  0  0  0  0
   -5.6153    5.6743  -16.2375 C   0  0  0  0  0  0  0  0  0  0  0  0
   -6.8257    4.9767  -16.4008 C   0  0  0  0  0  0  0  0  0  0  0  0
   -7.9064    4.6171  -15.5739 C   0  0  0  0  0  0  0  0  0  0  0  0
   -8.9869    3.9263  -16.1265 C   0  0  0  0  0  0  0  0  0  0  0  0
   -8.9964    3.6192  -17.4799 C   0  0  0  0  0  0  0  0  0  0  0  0
  -10.0641    2.9842  -17.9791 F   0  0  0  0  0  0  0  0  0  0  0  0
   -7.9402    3.9576  -18.3260 C   0  0  0  0  0  0  0  0  0  0  0  0
   -6.8489    4.6311  -17.7514 C   0  0  0  0  0  0  0  0  0  0  0  0
   -7.9252    5.0802  -14.1679 C   0  0  0  0  0  0  0  0  0  0  0  0
   -7.6230    6.1876  -13.9583 O   0  0  0  0  0  0  0  0  0  0  0  0
   -8.3878    3.9687  -13.2007 N   0  0  0  0  0  0  0  0  0  0  0  0
   -8.6612    3.1298  -13.6374 H   0  0  0  0  0  0  0  0  0  0  0  0
   -8.4811    3.9600  -11.8104 C   0  0  0  0  0  0  0  0  0  0  0  0
   -8.2002    5.0963  -11.0360 C   0  0  0  0  0  0  0  0  0  0  0  0
   -8.2867    5.1513   -9.6804 N   0  0  0  0  0  0  0  0  0  0  0  0
   -8.6703    3.9999   -9.1028 C   0  0  0  0  0  0  0  0  0  0  0  0
   -8.9607    2.8282   -9.7809 C   0  0  0  0  0  0  0  0  0  0  0  0
   -8.8643    2.7898  -11.1588 C   0  0  0  0  0  0  0  0  0  0  0  0
   -9.3195    1.7676   -8.7990 C   0  0  0  0  0  0  0  0  0  0  0  0
   -9.6113    2.4793   -7.5296 N   0  0  0  0  0  0  0  0  0  0  0  0
   -8.8797    3.7678   -7.6306 C   0  0  0  0  0  0  0  0  0  0  0  0
   -9.2770    1.9394   -6.7314 H   0  0  0  0  0  0  0  0  0  0  0  0
   -5.2568    4.8929  -19.6178 N   0  0  0  0  0  0  0  0  0  0  0  0
   -5.2278    3.8895  -19.7983 H   0  0  0  0  0  0  0  0  0  0  0  0
   -2.7680    4.5192  -19.7401 C   0  0  0  0  0  0  0  0  0  0  0  0
   -3.9496    5.4554  -19.9420 C   0  0  0  0  0  0  0  0  0  0  0  0
 27 28  1  0  0  0
 28 25  1  0  0  0
 25  1  1  0  0  0
  1  2  1  0  0  0
  2  3  2  0  0  0
  3  4  1  0  0  0
  4  5  2  0  0  0
  5 11  1  0  0  0
 11 12  2  0  0  0
 11 13  1  0  0  0
 13 15  1  0  0  0
 15 16  2  0  0  0
 16 17  1  0  0  0
 17 18  2  0  0  0
 18 19  1  0  0  0
 19 20  2  0  0  0
 19 21  1  0  0  0
 21 22  1  0  0  0
 22 23  1  0  0  0
  5  6  1  0  0  0
  6  7  2  0  0  0
  7  8  1  0  0  0
  7  9  1  0  0  0
  9 10  2  0  0  0
 10  1  1  0  0  0
 10  4  1  0  0  0
 20 15  1  0  0  0
 23 18  1  0  0  0
 25 26  1  0  0  0
 13 14  1  0  0  0
 22 24  1  0  0  0
M  END
> <minimizedAffinity>
-8.68569

> <minimizedRMSD>
0.50605

$$$$
P22359


 28 32  0  0  0  0  0  0  0  0999 V2000
   -5.7155    4.2545  -13.7149 O   0  0  0  0  0  0  0  0  0  0  0  0
   -6.8310    4.4783  -13.9680 C   0  0  0  0  0  0  0  0  0  0  0  0
   -8.0598    4.6167  -13.0413 N   0  0  0  0  0  0  0  0  0  0  0  0
   -8.8903    4.8871  -13.4955 H   0  0  0  0  0  0  0  0  0  0  0  0
   -7.2400    4.5636  -15.3891 C   0  0  0  0  0  0  0  0  0  0  0  0
   -8.4874    4.0133  -15.8059 C   0  0  0  0  0  0  0  0  0  0  0  0
   -8.8706    3.8062  -17.1703 C   0  0  0  0  0  0  0  0  0  0  0  0
  -10.0433    3.2027  -17.4041 F   0  0  0  0  0  0  0  0  0  0  0  0
   -8.0912    4.1425  -18.2815 C   0  0  0  0  0  0  0  0  0  0  0  0
   -6.8818    4.6633  -17.8623 C   0  0  0  0  0  0  0  0  0  0  0  0
   -6.4393    4.8622  -16.4976 C   0  0  0  0  0  0  0  0  0  0  0  0
   -5.1216    5.3006  -16.5376 C   0  0  0  0  0  0  0  0  0  0  0  0
   -4.7857    5.3244  -17.8677 N   0  0  0  0  0  0  0  0  0  0  0  0
   -3.7016    5.5824  -18.6868 C   0  0  0  0  0  0  0  0  0  0  0  0
   -4.0520    5.4565  -19.9435 N   0  0  0  0  0  0  0  0  0  0  0  0
   -5.3945    5.0749  -19.9106 N   0  0  0  0  0  0  0  0  0  0  0  0
   -5.8352    4.9901  -18.6510 C   0  0  0  0  0  0  0  0  0  0  0  0
   -5.9430    4.8929  -20.7076 H   0  0  0  0  0  0  0  0  0  0  0  0
   -8.1830    4.4217  -11.6726 C   0  0  0  0  0  0  0  0  0  0  0  0
   -8.1550    5.4804  -10.7648 C   0  0  0  0  0  0  0  0  0  0  0  0
   -8.3733    5.3513   -9.4310 N   0  0  0  0  0  0  0  0  0  0  0  0
   -8.7363    4.1134   -9.0392 C   0  0  0  0  0  0  0  0  0  0  0  0
   -8.8645    3.0238   -9.8773 C   0  0  0  0  0  0  0  0  0  0  0  0
   -8.5260    3.1498  -11.2106 C   0  0  0  0  0  0  0  0  0  0  0  0
   -9.4447    1.8724   -9.1349 C   0  0  0  0  0  0  0  0  0  0  0  0
   -9.5621    2.2957   -7.7160 N   0  0  0  0  0  0  0  0  0  0  0  0
   -9.0916    3.6984   -7.6398 C   0  0  0  0  0  0  0  0  0  0  0  0
   -8.9834    1.6998   -7.1241 H   0  0  0  0  0  0  0  0  0  0  0  0
  1  2  2  0  0  0
  2  3  1  0  0  0
  3 19  1  0  0  0
 19 20  2  0  0  0
 20 21  1  0  0  0
 21 22  2  0  0  0
 22 23  1  0  0  0
 23 24  2  0  0  0
 23 25  1  0  0  0
 25 26  1  0  0  0
 26 27  1  0  0  0
  2  5  1  0  0  0
  5  6  2  0  0  0
  6  7  1  0  0  0
  7  8  1  0  0  0
  7  9  2  0  0  0
  9 10  1  0  0  0
 10 11  1  0  0  0
 11 12  2  0  0  0
 12 13  1  0  0  0
 13 14  1  0  0  0
 14 15  2  0  0  0
 15 16  1  0  0  0
 16 17  1  0  0  0
 24 19  1  0  0  0
 11  5  1  0  0  0
 17 13  1  0  0  0
 27 22  1  0  0  0
 17 10  2  0  0  0
  3  4  1  0  0  0
 26 28  1  0  0  0
 16 18  1  0  0  0
M  END
> <minimizedAffinity>
-9.50031

> <minimizedRMSD>
0.44179

$$$$
P22360


 31 35  0  0  0  0  0  0  0  0999 V2000
   -7.7461    4.5567  -15.6784 C   0  0  0  0  0  0  0  0  0  0  0  0
   -8.8867    3.9901  -16.2588 C   0  0  0  0  0  0  0  0  0  0  0  0
   -8.9177    3.7179  -17.6193 C   0  0  0  0  0  0  0  0  0  0  0  0
  -10.0301    3.1891  -18.1434 F   0  0  0  0  0  0  0  0  0  0  0  0
   -7.8448    4.0137  -18.4548 C   0  0  0  0  0  0  0  0  0  0  0  0
   -6.7089    4.5850  -17.8607 C   0  0  0  0  0  0  0  0  0  0  0  0
   -6.6305    4.8341  -16.4927 C   0  0  0  0  0  0  0  0  0  0  0  0
   -5.3339    5.3577  -16.3091 C   0  0  0  0  0  0  0  0  0  0  0  0
   -4.6437    5.4376  -17.4475 N   0  0  0  0  0  0  0  0  0  0  0  0
   -5.5256    5.0562  -18.3873 N   0  0  0  0  0  0  0  0  0  0  0  0
   -7.5028    6.1419  -14.0757 O   0  0  0  0  0  0  0  0  0  0  0  0
   -7.7498    5.0176  -14.2697 C   0  0  0  0  0  0  0  0  0  0  0  0
   -8.1834    3.9045  -13.2905 N   0  0  0  0  0  0  0  0  0  0  0  0
   -8.4086    3.0459  -13.7161 H   0  0  0  0  0  0  0  0  0  0  0  0
   -8.3075    3.9179  -11.9033 C   0  0  0  0  0  0  0  0  0  0  0  0
   -7.9860    5.0480  -11.1357 C   0  0  0  0  0  0  0  0  0  0  0  0
   -8.1164    5.1298   -9.7850 N   0  0  0  0  0  0  0  0  0  0  0  0
   -8.5816    4.0102   -9.2049 C   0  0  0  0  0  0  0  0  0  0  0  0
   -8.9123    2.8455   -9.8765 C   0  0  0  0  0  0  0  0  0  0  0  0
   -8.7794    2.7823  -11.2502 C   0  0  0  0  0  0  0  0  0  0  0  0
   -9.3452    1.8158   -8.8925 C   0  0  0  0  0  0  0  0  0  0  0  0
   -9.6355    2.5554   -7.6393 N   0  0  0  0  0  0  0  0  0  0  0  0
   -8.8476    3.8107   -7.7370 C   0  0  0  0  0  0  0  0  0  0  0  0
   -9.3433    2.0118   -6.8272 H   0  0  0  0  0  0  0  0  0  0  0  0
   -5.2652    5.1200  -19.7660 N   0  0  0  0  0  0  0  0  0  0  0  0
   -6.1357    5.3300  -20.2543 H   0  0  0  0  0  0  0  0  0  0  0  0
   -4.2792    6.1471  -20.1010 C   0  0  0  0  0  0  0  0  0  0  0  0
   -2.9685    5.5280  -20.6431 C   0  0  0  0  0  0  0  0  0  0  0  0
   -3.0138    6.5354  -21.7355 N   0  0  0  0  0  0  0  0  0  0  0  0
   -4.4886    6.5898  -21.5713 C   0  0  0  0  0  0  0  0  0  0  0  0
   -2.7028    6.1882  -22.6428 H   0  0  0  0  0  0  0  0  0  0  0  0
 11 12  2  0  0  0
 12 13  1  0  0  0
 13 15  1  0  0  0
 15 16  2  0  0  0
 16 17  1  0  0  0
 17 18  2  0  0  0
 18 19  1  0  0  0
 19 20  2  0  0  0
 19 21  1  0  0  0
 21 22  1  0  0  0
 22 23  1  0  0  0
 12  1  1  0  0  0
  1  2  2  0  0  0
  2  3  1  0  0  0
  3  4  1  0  0  0
  3  5  2  0  0  0
  5  6  1  0  0  0
  6  7  2  0  0  0
  7  8  1  0  0  0
  8  9  2  0  0  0
  9 10  1  0  0  0
 10 25  1  0  0  0
 25 27  1  0  0  0
 27 28  1  0  0  0
 28 29  1  0  0  0
 29 30  1  0  0  0
 20 15  1  0  0  0
  7  1  1  0  0  0
 30 27  1  0  0  0
 23 18  1  0  0  0
 10  6  1  0  0  0
 13 14  1  0  0  0
 22 24  1  0  0  0
 25 26  1  0  0  0
 29 31  1  0  0  0
M  END
> <minimizedAffinity>
-9.17832

> <minimizedRMSD>
0.78726

$$$$
P22363


 34 36  0  0  0  0  0  0  0  0999 V2000
   -7.9889    4.8460  -14.8087 C   0  0  0  0  0  0  0  0  0  0  0  0
   -8.7968    4.0961  -15.6675 C   0  0  0  0  0  0  0  0  0  0  0  0
   -8.4458    3.9681  -17.0184 C   0  0  0  0  0  0  0  0  0  0  0  0
   -9.5027    3.1641  -18.0976 Cl  0  0  0  0  0  0  0  0  0  0  0  0
   -7.3000    4.5633  -17.5391 C   0  0  0  0  0  0  0  0  0  0  0  0
   -6.5146    5.3123  -16.6868 C   0  0  0  0  0  0  0  0  0  0  0  0
   -6.8386    5.4321  -15.3343 C   0  0  0  0  0  0  0  0  0  0  0  0
   -5.8396    6.3217  -14.6703 C   0  0  0  0  0  0  0  0  0  0  0  0
   -4.9844    6.8202  -15.8322 C   0  0  0  0  0  0  0  0  0  0  0  0
   -4.1289    7.6856  -15.7039 O   0  0  0  0  0  0  0  0  0  0  0  0
   -5.3967    6.1225  -16.9991 N   0  0  0  0  0  0  0  0  0  0  0  0
   -7.9784    4.2787  -12.3425 N   0  0  0  0  0  0  0  0  0  0  0  0
   -8.4825    5.2297  -13.4549 C   0  0  0  0  0  0  0  0  0  0  0  0
   -9.2228    6.1321  -13.4018 O   0  0  0  0  0  0  0  0  0  0  0  0
   -7.4097    3.5397  -12.6583 H   0  0  0  0  0  0  0  0  0  0  0  0
   -8.0206    6.7584   -8.0612 C   0  0  0  0  0  0  0  0  0  0  0  0
   -8.2501    5.5009   -8.8440 C   0  0  0  0  0  0  0  0  0  0  0  0
   -8.6853    4.3426   -8.2079 C   0  0  0  0  0  0  0  0  0  0  0  0
   -8.8837    3.1542   -8.9256 C   0  0  0  0  0  0  0  0  0  0  0  0
   -8.6539    3.1489  -10.3149 C   0  0  0  0  0  0  0  0  0  0  0  0
   -8.1993    4.2986  -10.9625 C   0  0  0  0  0  0  0  0  0  0  0  0
   -7.9891    5.4643  -10.2215 C   0  0  0  0  0  0  0  0  0  0  0  0
   -9.3708    1.8986   -8.2441 C   0  0  0  0  0  0  0  0  0  0  0  0
   -9.0616    1.8497   -6.8181 N   0  0  0  0  0  0  0  0  0  0  0  0
   -8.0498    1.8599   -6.6891 H   0  0  0  0  0  0  0  0  0  0  0  0
   -9.4470    0.9954   -6.4157 H   0  0  0  0  0  0  0  0  0  0  0  0
   -5.2769    6.6619  -18.3031 N   0  0  0  0  0  0  0  0  0  0  0  0
   -5.3266    7.6760  -18.2047 H   0  0  0  0  0  0  0  0  0  0  0  0
   -4.0842    6.3754  -19.1332 C   0  0  0  0  0  0  0  0  0  0  0  0
   -4.5672    6.3011  -20.6019 C   0  0  0  0  0  0  0  0  0  0  0  0
   -3.3668    5.0608  -18.7948 C   0  0  0  0  0  0  0  0  0  0  0  0
   -3.0813    7.5569  -19.0874 C   0  0  0  0  0  0  0  0  0  0  0  0
   -3.6637    8.7316  -18.5032 O   0  0  0  0  0  0  0  0  0  0  0  0
   -4.4212    9.0170  -19.0376 H   0  0  0  0  0  0  0  0  0  0  0  0
 16 17  1  0  0  0
 17 18  2  0  0  0
 18 19  1  0  0  0
 19 23  1  0  0  0
 23 24  1  0  0  0
 19 20  2  0  0  0
 20 21  1  0  0  0
 21 12  1  0  0  0
 12 13  1  0  0  0
 13 14  2  0  0  0
 13  1  1  0  0  0
  1  2  2  0  0  0
  2  3  1  0  0  0
  3  4  1  0  0  0
  3  5  2  0  0  0
  5  6  1  0  0  0
  6  7  2  0  0  0
  7  8  1  0  0  0
  8  9  1  0  0  0
  9 10  2  0  0  0
  9 11  1  0  0  0
 11 27  1  0  0  0
 27 29  1  0  0  0
 29 30  1  0  0  0
 29 31  1  0  0  0
 29 32  1  0  0  0
 32 33  1  0  0  0
 21 22  2  0  0  0
 22 17  1  0  0  0
  7  1  1  0  0  0
 11  6  1  0  0  0
 24 25  1  0  0  0
 24 26  1  0  0  0
 12 15  1  0  0  0
 27 28  1  0  0  0
 33 34  1  0  0  0
M  END
> <minimizedAffinity>
-7.36378

> <minimizedRMSD>
1.16610

$$$$
P22365


 29 31  0  0  0  0  0  0  0  0999 V2000
   -7.8270    3.8332  -13.6137 N   0  0  0  0  0  0  0  0  0  0  0  0
   -8.6007    4.7217  -14.6135 C   0  0  0  0  0  0  0  0  0  0  0  0
   -9.2871    5.6489  -14.4287 O   0  0  0  0  0  0  0  0  0  0  0  0
   -7.3752    3.0568  -14.0164 H   0  0  0  0  0  0  0  0  0  0  0  0
   -8.3691    4.3442  -16.0291 C   0  0  0  0  0  0  0  0  0  0  0  0
   -9.3668    3.8030  -16.8394 C   0  0  0  0  0  0  0  0  0  0  0  0
   -9.1579    3.6658  -18.2258 C   0  0  0  0  0  0  0  0  0  0  0  0
   -7.9495    4.0590  -18.8169 C   0  0  0  0  0  0  0  0  0  0  0  0
   -6.9667    4.5822  -17.9977 C   0  0  0  0  0  0  0  0  0  0  0  0
   -7.1738    4.7210  -16.6258 C   0  0  0  0  0  0  0  0  0  0  0  0
   -5.9710    5.3418  -15.9887 C   0  0  0  0  0  0  0  0  0  0  0  0
   -5.0474    5.5736  -17.1733 C   0  0  0  0  0  0  0  0  0  0  0  0
   -3.9515    6.1104  -17.1032 O   0  0  0  0  0  0  0  0  0  0  0  0
   -5.6945    5.0834  -18.3155 N   0  0  0  0  0  0  0  0  0  0  0  0
   -5.1017    5.0956  -19.6197 C   0  0  0  0  0  0  0  0  0  0  0  0
   -5.2168    6.4387  -20.1478 N   0  0  0  0  0  0  0  0  0  0  0  0
   -6.2010    6.7026  -20.1939 H   0  0  0  0  0  0  0  0  0  0  0  0
   -4.8116    6.4721  -21.0832 H   0  0  0  0  0  0  0  0  0  0  0  0
   -5.5341    5.9294   -9.7710 C   0  0  0  0  0  0  0  0  0  0  0  0
   -6.5569    4.9864  -10.3265 C   0  0  0  0  0  0  0  0  0  0  0  0
   -7.3398    4.2163   -9.4629 C   0  0  0  0  0  0  0  0  0  0  0  0
   -8.3025    3.3264   -9.9566 C   0  0  0  0  0  0  0  0  0  0  0  0
   -8.4412    3.1900  -11.3545 C   0  0  0  0  0  0  0  0  0  0  0  0
   -7.6641    3.9525  -12.2300 C   0  0  0  0  0  0  0  0  0  0  0  0
   -6.7194    4.8402  -11.7089 C   0  0  0  0  0  0  0  0  0  0  0  0
   -9.2062    2.5343   -9.0358 C   0  0  0  0  0  0  0  0  0  0  0  0
   -8.8173    2.5688   -7.6210 N   0  0  0  0  0  0  0  0  0  0  0  0
   -7.8960    2.1451   -7.5112 H   0  0  0  0  0  0  0  0  0  0  0  0
   -9.4988    2.0488   -7.0683 H   0  0  0  0  0  0  0  0  0  0  0  0
 19 20  1  0  0  0
 20 21  2  0  0  0
 21 22  1  0  0  0
 22 26  1  0  0  0
 26 27  1  0  0  0
 22 23  2  0  0  0
 23 24  1  0  0  0
 24  1  1  0  0  0
  1  2  1  0  0  0
  2  3  2  0  0  0
  2  5  1  0  0  0
  5  6  2  0  0  0
  6  7  1  0  0  0
  7  8  2  0  0  0
  8  9  1  0  0  0
  9 10  2  0  0  0
 10 11  1  0  0  0
 11 12  1  0  0  0
 12 13  2  0  0  0
 12 14  1  0  0  0
 14 15  1  0  0  0
 15 16  1  0  0  0
 24 25  2  0  0  0
 25 20  1  0  0  0
 10  5  1  0  0  0
 14  9  1  0  0  0
 27 28  1  0  0  0
 27 29  1  0  0  0
  1  4  1  0  0  0
 16 17  1  0  0  0
 16 18  1  0  0  0
M  END
> <minimizedAffinity>
-8.39917

> <minimizedRMSD>
1.04868

$$$$
P22367


 28 30  0  0  0  0  0  0  0  0999 V2000
   -8.1016    4.2917  -13.0451 N   0  0  0  0  0  0  0  0  0  0  0  0
   -7.1162    5.1106  -13.9271 C   0  0  0  0  0  0  0  0  0  0  0  0
   -6.3763    5.9700  -13.6393 O   0  0  0  0  0  0  0  0  0  0  0  0
   -8.6782    3.6673  -13.5420 H   0  0  0  0  0  0  0  0  0  0  0  0
   -7.2469    4.7701  -15.3773 C   0  0  0  0  0  0  0  0  0  0  0  0
   -8.5150    4.4643  -15.9009 C   0  0  0  0  0  0  0  0  0  0  0  0
   -8.7016    4.3157  -17.2893 C   0  0  0  0  0  0  0  0  0  0  0  0
   -7.6330    4.4043  -18.1737 C   0  0  0  0  0  0  0  0  0  0  0  0
   -6.4161    4.7455  -17.6445 C   0  0  0  0  0  0  0  0  0  0  0  0
   -6.2020    4.9490  -16.2801 C   0  0  0  0  0  0  0  0  0  0  0  0
   -4.7866    5.4251  -16.0973 C   0  0  0  0  0  0  0  0  0  0  0  0
   -4.2851    5.5459  -17.5538 C   0  0  0  0  0  0  0  0  0  0  0  0
   -3.2318    6.0232  -17.9427 O   0  0  0  0  0  0  0  0  0  0  0  0
   -5.2831    5.0508  -18.3734 N   0  0  0  0  0  0  0  0  0  0  0  0
   -5.1974    4.9318  -19.3469 H   0  0  0  0  0  0  0  0  0  0  0  0
  -10.0143    4.2179  -17.8333 C   0  0  0  0  0  0  0  0  0  0  0  0
  -11.0892    4.1771  -18.2581 N   0  0  0  0  0  0  0  0  0  0  0  0
   -8.1096    6.6643   -8.6888 C   0  0  0  0  0  0  0  0  0  0  0  0
   -8.3379    5.4261   -9.5042 C   0  0  0  0  0  0  0  0  0  0  0  0
   -8.6884    4.2269   -8.8830 C   0  0  0  0  0  0  0  0  0  0  0  0
   -8.8958    3.0632   -9.6342 C   0  0  0  0  0  0  0  0  0  0  0  0
   -8.6973    3.1147  -11.0291 C   0  0  0  0  0  0  0  0  0  0  0  0
   -8.3017    4.2984  -11.6608 C   0  0  0  0  0  0  0  0  0  0  0  0
   -8.1299    5.4499  -10.8947 C   0  0  0  0  0  0  0  0  0  0  0  0
   -9.2378    1.7411   -8.9859 C   0  0  0  0  0  0  0  0  0  0  0  0
   -9.5718    1.8208   -7.5693 N   0  0  0  0  0  0  0  0  0  0  0  0
   -8.7636    2.1606   -7.0480 H   0  0  0  0  0  0  0  0  0  0  0  0
   -9.8316    0.8952   -7.2285 H   0  0  0  0  0  0  0  0  0  0  0  0
 18 19  1  0  0  0
 19 20  2  0  0  0
 20 21  1  0  0  0
 21 25  1  0  0  0
 25 26  1  0  0  0
 21 22  2  0  0  0
 22 23  1  0  0  0
 23  1  1  0  0  0
  1  2  1  0  0  0
  2  3  2  0  0  0
  2  5  1  0  0  0
  5  6  2  0  0  0
  6  7  1  0  0  0
  7 16  1  0  0  0
 16 17  3  0  0  0
  7  8  2  0  0  0
  8  9  1  0  0  0
  9 10  2  0  0  0
 10 11  1  0  0  0
 11 12  1  0  0  0
 12 13  2  0  0  0
 12 14  1  0  0  0
 23 24  2  0  0  0
 24 19  1  0  0  0
 10  5  1  0  0  0
 14  9  1  0  0  0
 26 27  1  0  0  0
 26 28  1  0  0  0
  1  4  1  0  0  0
 14 15  1  0  0  0
M  END
> <minimizedAffinity>
-8.08100

> <minimizedRMSD>
0.50733

$$$$
P22368


 27 29  0  0  0  0  0  0  0  0999 V2000
   -8.0861    4.2657  -13.0334 N   0  0  0  0  0  0  0  0  0  0  0  0
   -7.1595    5.1164  -13.9422 C   0  0  0  0  0  0  0  0  0  0  0  0
   -6.4634    6.0193  -13.6813 O   0  0  0  0  0  0  0  0  0  0  0  0
   -8.6346    3.6017  -13.5103 H   0  0  0  0  0  0  0  0  0  0  0  0
   -7.2864    4.7454  -15.3798 C   0  0  0  0  0  0  0  0  0  0  0  0
   -8.5224    4.3446  -15.8975 C   0  0  0  0  0  0  0  0  0  0  0  0
   -8.6883    4.1919  -17.2851 C   0  0  0  0  0  0  0  0  0  0  0  0
  -10.3904    3.8856  -17.9983 Br  0  0  0  0  0  0  0  0  0  0  0  0
   -7.6448    4.3719  -18.1806 C   0  0  0  0  0  0  0  0  0  0  0  0
   -6.4495    4.7675  -17.6465 C   0  0  0  0  0  0  0  0  0  0  0  0
   -6.2529    4.9671  -16.2793 C   0  0  0  0  0  0  0  0  0  0  0  0
   -4.8446    5.4343  -16.0611 C   0  0  0  0  0  0  0  0  0  0  0  0
   -4.2810    5.4375  -17.4908 C   0  0  0  0  0  0  0  0  0  0  0  0
   -3.1481    5.7239  -17.8364 O   0  0  0  0  0  0  0  0  0  0  0  0
   -5.2970    5.0568  -18.3485 N   0  0  0  0  0  0  0  0  0  0  0  0
   -5.2099    4.9999  -19.3275 H   0  0  0  0  0  0  0  0  0  0  0  0
   -8.1141    6.7512   -8.7470 C   0  0  0  0  0  0  0  0  0  0  0  0
   -8.3157    5.4849   -9.5243 C   0  0  0  0  0  0  0  0  0  0  0  0
   -8.6892    4.3107   -8.8741 C   0  0  0  0  0  0  0  0  0  0  0  0
   -8.8584    3.1165   -9.5867 C   0  0  0  0  0  0  0  0  0  0  0  0
   -8.6677    3.1250  -10.9836 C   0  0  0  0  0  0  0  0  0  0  0  0
   -8.2688    4.2890  -11.6460 C   0  0  0  0  0  0  0  0  0  0  0  0
   -8.0821    5.4595  -10.9095 C   0  0  0  0  0  0  0  0  0  0  0  0
   -9.2378    1.8262   -8.9005 C   0  0  0  0  0  0  0  0  0  0  0  0
   -9.0190    1.8230   -7.4543 N   0  0  0  0  0  0  0  0  0  0  0  0
   -8.0247    1.9421   -7.2606 H   0  0  0  0  0  0  0  0  0  0  0  0
   -9.3375    0.9360   -7.0642 H   0  0  0  0  0  0  0  0  0  0  0  0
 17 18  1  0  0  0
 18 19  2  0  0  0
 19 20  1  0  0  0
 20 24  1  0  0  0
 24 25  1  0  0  0
 20 21  2  0  0  0
 21 22  1  0  0  0
 22  1  1  0  0  0
  1  2  1  0  0  0
  2  3  2  0  0  0
  2  5  1  0  0  0
  5  6  2  0  0  0
  6  7  1  0  0  0
  7  8  1  0  0  0
  7  9  2  0  0  0
  9 10  1  0  0  0
 10 11  2  0  0  0
 11 12  1  0  0  0
 12 13  1  0  0  0
 13 14  2  0  0  0
 13 15  1  0  0  0
 22 23  2  0  0  0
 23 18  1  0  0  0
 11  5  1  0  0  0
 15 10  1  0  0  0
 25 26  1  0  0  0
 25 27  1  0  0  0
  1  4  1  0  0  0
 15 16  1  0  0  0
M  END
> <minimizedAffinity>
-7.70015

> <minimizedRMSD>
0.23086

$$$$
P22373


 29 31  0  0  0  0  0  0  0  0999 V2000
   -8.2840    4.0553  -13.2088 N   0  0  0  0  0  0  0  0  0  0  0  0
   -8.9032    4.9232  -14.3286 C   0  0  0  0  0  0  0  0  0  0  0  0
   -9.6694    5.8033  -14.2685 O   0  0  0  0  0  0  0  0  0  0  0  0
   -7.7144    3.3177  -13.5264 H   0  0  0  0  0  0  0  0  0  0  0  0
   -8.3906    4.5546  -15.6731 C   0  0  0  0  0  0  0  0  0  0  0  0
   -9.1894    3.9567  -16.6468 C   0  0  0  0  0  0  0  0  0  0  0  0
   -8.7215    3.7962  -17.9655 C   0  0  0  0  0  0  0  0  0  0  0  0
   -7.4319    4.1997  -18.3218 C   0  0  0  0  0  0  0  0  0  0  0  0
   -6.6193    4.7110  -17.3338 C   0  0  0  0  0  0  0  0  0  0  0  0
   -7.1043    4.9083  -16.0309 C   0  0  0  0  0  0  0  0  0  0  0  0
   -6.0067    5.4704  -15.1790 C   0  0  0  0  0  0  0  0  0  0  0  0
   -4.8291    5.4304  -16.1704 C   0  0  0  0  0  0  0  0  0  0  0  0
   -3.5783    5.5596  -15.8474 N   0  0  0  0  0  0  0  0  0  0  0  0
   -3.3279    5.7697  -14.5341 N   0  0  0  0  0  0  0  0  0  0  0  0
   -5.3058    5.1751  -17.4439 N   0  0  0  0  0  0  0  0  0  0  0  0
   -2.4008    5.8763  -14.2206 H   0  0  0  0  0  0  0  0  0  0  0  0
   -4.0729    5.8158  -13.8921 H   0  0  0  0  0  0  0  0  0  0  0  0
   -4.8059    5.2991  -18.2830 H   0  0  0  0  0  0  0  0  0  0  0  0
   -7.8778    6.6950   -9.0405 C   0  0  0  0  0  0  0  0  0  0  0  0
   -8.2147    5.4166   -9.7475 C   0  0  0  0  0  0  0  0  0  0  0  0
   -8.5503    4.2739   -9.0246 C   0  0  0  0  0  0  0  0  0  0  0  0
   -8.8673    3.0770   -9.6816 C   0  0  0  0  0  0  0  0  0  0  0  0
   -8.7720    3.0221  -11.0855 C   0  0  0  0  0  0  0  0  0  0  0  0
   -8.4012    4.1474  -11.8195 C   0  0  0  0  0  0  0  0  0  0  0  0
   -8.1319    5.3413  -11.1472 C   0  0  0  0  0  0  0  0  0  0  0  0
   -9.2307    1.8269   -8.9193 C   0  0  0  0  0  0  0  0  0  0  0  0
   -8.9738    1.8998   -7.4857 N   0  0  0  0  0  0  0  0  0  0  0  0
   -7.9744    2.0261   -7.3254 H   0  0  0  0  0  0  0  0  0  0  0  0
   -9.2830    1.0358   -7.0405 H   0  0  0  0  0  0  0  0  0  0  0  0
 19 20  1  0  0  0
 20 21  2  0  0  0
 21 22  1  0  0  0
 22 26  1  0  0  0
 26 27  1  0  0  0
 22 23  2  0  0  0
 23 24  1  0  0  0
 24  1  1  0  0  0
  1  2  1  0  0  0
  2  3  2  0  0  0
  2  5  1  0  0  0
  5  6  2  0  0  0
  6  7  1  0  0  0
  7  8  2  0  0  0
  8  9  1  0  0  0
  9 10  2  0  0  0
 10 11  1  0  0  0
 11 12  1  0  0  0
 12 13  2  0  0  0
 13 14  1  0  0  0
 12 15  1  0  0  0
 24 25  2  0  0  0
 25 20  1  0  0  0
 10  5  1  0  0  0
 15  9  1  0  0  0
 27 28  1  0  0  0
 27 29  1  0  0  0
  1  4  1  0  0  0
 14 16  1  0  0  0
 14 17  1  0  0  0
 15 18  1  0  0  0
M  END
> <minimizedAffinity>
-8.50661

> <minimizedRMSD>
0.85084

$$$$
P22382


 34 36  0  0  0  0  0  0  0  0999 V2000
   -8.1551    4.8340  -15.2766 C   0  0  0  0  0  0  0  0  0  0  0  0
   -8.9741    4.3418  -16.2889 C   0  0  0  0  0  0  0  0  0  0  0  0
   -8.5180    4.3884  -17.6185 C   0  0  0  0  0  0  0  0  0  0  0  0
   -9.5822    3.9197  -18.8808 Cl  0  0  0  0  0  0  0  0  0  0  0  0
   -7.2724    4.9314  -17.9548 C   0  0  0  0  0  0  0  0  0  0  0  0
   -6.4893    5.4193  -16.9283 C   0  0  0  0  0  0  0  0  0  0  0  0
   -6.8968    5.3264  -15.6029 C   0  0  0  0  0  0  0  0  0  0  0  0
   -5.8796    5.9773  -14.7141 C   0  0  0  0  0  0  0  0  0  0  0  0
   -4.9707    6.6728  -15.7077 C   0  0  0  0  0  0  0  0  0  0  0  0
   -4.1464    7.5310  -15.4238 O   0  0  0  0  0  0  0  0  0  0  0  0
   -5.3173    6.1921  -16.9869 N   0  0  0  0  0  0  0  0  0  0  0  0
   -7.9874    4.4735  -12.7795 N   0  0  0  0  0  0  0  0  0  0  0  0
   -8.6818    5.1961  -13.9495 C   0  0  0  0  0  0  0  0  0  0  0  0
   -9.4968    6.0322  -13.9462 O   0  0  0  0  0  0  0  0  0  0  0  0
   -7.2711    3.8527  -13.0455 H   0  0  0  0  0  0  0  0  0  0  0  0
   -8.2355    7.3305   -8.8041 C   0  0  0  0  0  0  0  0  0  0  0  0
   -8.2865    5.9713   -9.4324 C   0  0  0  0  0  0  0  0  0  0  0  0
   -8.6031    4.8475   -8.6755 C   0  0  0  0  0  0  0  0  0  0  0  0
   -8.7139    3.5663   -9.2493 C   0  0  0  0  0  0  0  0  0  0  0  0
   -8.4889    3.4272  -10.6339 C   0  0  0  0  0  0  0  0  0  0  0  0
   -8.2079    4.5554  -11.4071 C   0  0  0  0  0  0  0  0  0  0  0  0
   -8.1116    5.8147  -10.8020 C   0  0  0  0  0  0  0  0  0  0  0  0
   -9.1323    2.3618   -8.4099 C   0  0  0  0  0  0  0  0  0  0  0  0
   -9.7717    2.7325   -7.1253 N   0  0  0  0  0  0  0  0  0  0  0  0
  -10.3826    1.5814   -6.4683 C   0  0  0  0  0  0  0  0  0  0  0  0
   -8.8044    3.3207   -6.2077 C   0  0  0  0  0  0  0  0  0  0  0  0
   -4.9697    6.8934  -18.1430 N   0  0  0  0  0  0  0  0  0  0  0  0
   -4.8337    7.8726  -17.8917 H   0  0  0  0  0  0  0  0  0  0  0  0
   -3.7395    6.4139  -18.8109 C   0  0  0  0  0  0  0  0  0  0  0  0
   -3.6338    4.8929  -18.6535 C   0  0  0  0  0  0  0  0  0  0  0  0
   -3.9353    6.8344  -20.2810 C   0  0  0  0  0  0  0  0  0  0  0  0
   -2.4125    7.0482  -18.3100 C   0  0  0  0  0  0  0  0  0  0  0  0
   -1.3216    6.6851  -19.1635 O   0  0  0  0  0  0  0  0  0  0  0  0
   -1.2176    5.7206  -19.1627 H   0  0  0  0  0  0  0  0  0  0  0  0
 16 17  1  0  0  0
 17 18  2  0  0  0
 18 19  1  0  0  0
 19 23  1  0  0  0
 23 24  1  0  0  0
 24 25  1  0  0  0
 24 26  1  0  0  0
 19 20  2  0  0  0
 20 21  1  0  0  0
 21 12  1  0  0  0
 12 13  1  0  0  0
 13 14  2  0  0  0
 13  1  1  0  0  0
  1  2  2  0  0  0
  2  3  1  0  0  0
  3  4  1  0  0  0
  3  5  2  0  0  0
  5  6  1  0  0  0
  6  7  2  0  0  0
  7  8  1  0  0  0
  8  9  1  0  0  0
  9 10  2  0  0  0
  9 11  1  0  0  0
 11 27  1  0  0  0
 27 29  1  0  0  0
 29 30  1  0  0  0
 29 31  1  0  0  0
 29 32  1  0  0  0
 32 33  1  0  0  0
 21 22  2  0  0  0
 22 17  1  0  0  0
  7  1  1  0  0  0
 11  6  1  0  0  0
 12 15  1  0  0  0
 27 28  1  0  0  0
 33 34  1  0  0  0
M  END
> <minimizedAffinity>
-7.82362

> <minimizedRMSD>
0.71271

$$$$
P22393


 38 42  0  0  0  0  0  0  0  0999 V2000
   -7.4335    4.4339  -15.6697 C   0  0  0  0  0  0  0  0  0  0  0  0
   -8.6875    3.9521  -16.0418 C   0  0  0  0  0  0  0  0  0  0  0  0
   -9.0073    3.8185  -17.3994 C   0  0  0  0  0  0  0  0  0  0  0  0
  -10.6053    3.4007  -17.8277 Cl  0  0  0  0  0  0  0  0  0  0  0  0
   -8.0861    4.0949  -18.4059 C   0  0  0  0  0  0  0  0  0  0  0  0
   -6.8705    4.6145  -18.0262 C   0  0  0  0  0  0  0  0  0  0  0  0
   -6.5485    4.7882  -16.6756 C   0  0  0  0  0  0  0  0  0  0  0  0
   -5.1983    5.4180  -16.5877 C   0  0  0  0  0  0  0  0  0  0  0  0
   -5.1045    5.9716  -18.0215 C   0  0  0  0  0  0  0  0  0  0  0  0
   -5.8114    5.0000  -18.8949 N   0  0  0  0  0  0  0  0  0  0  0  0
   -5.6059    4.7067  -19.8120 H   0  0  0  0  0  0  0  0  0  0  0  0
   -8.2710    4.3175  -13.3160 N   0  0  0  0  0  0  0  0  0  0  0  0
   -7.0996    4.6971  -14.2473 C   0  0  0  0  0  0  0  0  0  0  0  0
   -6.0483    5.1388  -13.9991 O   0  0  0  0  0  0  0  0  0  0  0  0
   -9.0909    4.0323  -13.7803 H   0  0  0  0  0  0  0  0  0  0  0  0
   -8.1983    6.7821   -9.0130 C   0  0  0  0  0  0  0  0  0  0  0  0
   -8.3116    5.5068   -9.7867 C   0  0  0  0  0  0  0  0  0  0  0  0
   -8.2184    5.5019  -11.1874 C   0  0  0  0  0  0  0  0  0  0  0  0
   -8.3566    4.3130  -11.9273 C   0  0  0  0  0  0  0  0  0  0  0  0
   -8.5965    3.1014  -11.2826 C   0  0  0  0  0  0  0  0  0  0  0  0
   -8.7233    3.1172   -9.9061 C   0  0  0  0  0  0  0  0  0  0  0  0
   -8.5864    4.2970   -9.1675 C   0  0  0  0  0  0  0  0  0  0  0  0
   -8.7922    3.9815   -7.7151 C   0  0  0  0  0  0  0  0  0  0  0  0
   -9.4408    2.6502   -7.7210 N   0  0  0  0  0  0  0  0  0  0  0  0
   -9.0993    1.8517   -6.5873 N   0  0  0  0  0  0  0  0  0  0  0  0
   -9.0178    1.9819   -8.9769 C   0  0  0  0  0  0  0  0  0  0  0  0
   -9.3972    2.3263   -5.7350 H   0  0  0  0  0  0  0  0  0  0  0  0
   -8.0894    1.7106   -6.5626 H   0  0  0  0  0  0  0  0  0  0  0  0
   -3.7136    6.3439  -18.5006 C   0  0  0  0  0  0  0  0  0  0  0  0
   -3.5215    7.1900  -19.3702 O   0  0  0  0  0  0  0  0  0  0  0  0
   -2.6990    5.7477  -17.8307 O   0  0  0  0  0  0  0  0  0  0  0  0
   -1.4704    6.4777  -17.8746 C   0  0  0  0  0  0  0  0  0  0  0  0
   -0.5805    5.9374  -16.7998 C   0  0  0  0  0  0  0  0  0  0  0  0
    0.7367    5.5873  -17.1057 C   0  0  0  0  0  0  0  0  0  0  0  0
    1.5871    5.1350  -16.0959 C   0  0  0  0  0  0  0  0  0  0  0  0
    1.1280    5.0133  -14.7855 C   0  0  0  0  0  0  0  0  0  0  0  0
   -0.1837    5.3615  -14.4749 C   0  0  0  0  0  0  0  0  0  0  0  0
   -1.0335    5.8307  -15.4764 C   0  0  0  0  0  0  0  0  0  0  0  0
 16 17  1  0  0  0
 17 18  2  0  0  0
 18 19  1  0  0  0
 19 12  1  0  0  0
 12 13  1  0  0  0
 13 14  2  0  0  0
 13  1  1  0  0  0
  1  2  2  0  0  0
  2  3  1  0  0  0
  3  4  1  0  0  0
  3  5  2  0  0  0
  5  6  1  0  0  0
  6  7  2  0  0  0
  7  8  1  0  0  0
  8  9  1  0  0  0
  9 29  1  0  0  0
 29 30  2  0  0  0
 29 31  1  0  0  0
 31 32  1  0  0  0
 32 33  1  0  0  0
 33 34  2  0  0  0
 34 35  1  0  0  0
 35 36  2  0  0  0
 36 37  1  0  0  0
 37 38  2  0  0  0
  9 10  1  0  0  0
 19 20  2  0  0  0
 20 21  1  0  0  0
 21 22  2  0  0  0
 22 23  1  0  0  0
 23 24  1  0  0  0
 24 25  1  0  0  0
 24 26  1  0  0  0
 22 17  1  0  0  0
  7  1  1  0  0  0
 38 33  1  0  0  0
 26 21  1  0  0  0
 10  6  1  0  0  0
 12 15  1  0  0  0
 10 11  1  0  0  0
 25 27  1  0  0  0
 25 28  1  0  0  0
M  END
> <minimizedAffinity>
-9.34549

> <minimizedRMSD>
1.46664

$$$$
P22398


 29 32  0  0  0  0  0  0  0  0999 V2000
   -6.6992    5.0996  -14.4316 C   0  0  0  0  0  0  0  0  0  0  0  0
   -6.1443    6.1024  -14.2232 O   0  0  0  0  0  0  0  0  0  0  0  0
   -7.2452    4.0411  -13.4585 N   0  0  0  0  0  0  0  0  0  0  0  0
   -7.7480    3.3099  -13.8847 H   0  0  0  0  0  0  0  0  0  0  0  0
   -7.1399    3.9446  -12.0149 C   0  0  0  0  0  0  0  0  0  0  0  0
   -5.8381    3.2294  -11.6581 C   0  0  0  0  0  0  0  0  0  0  0  0
   -5.6651    2.9618  -10.1686 C   0  0  0  0  0  0  0  0  0  0  0  0
   -5.1947    4.2081   -9.4188 C   0  0  0  0  0  0  0  0  0  0  0  0
   -6.9099    2.2808   -9.5867 C   0  0  0  0  0  0  0  0  0  0  0  0
   -8.2620    2.9463   -9.9288 C   0  0  0  0  0  0  0  0  0  0  0  0
   -8.5067    4.1709   -9.0691 C   0  0  0  0  0  0  0  0  0  0  0  0
   -8.9156    3.6181   -7.7168 C   0  0  0  0  0  0  0  0  0  0  0  0
   -9.6439    2.3961   -8.0263 N   0  0  0  0  0  0  0  0  0  0  0  0
   -9.4672    2.1128   -9.4588 C   0  0  0  0  0  0  0  0  0  0  0  0
   -8.3608    3.2203  -11.4393 C   0  0  0  0  0  0  0  0  0  0  0  0
  -10.6344    2.5210   -7.8177 H   0  0  0  0  0  0  0  0  0  0  0  0
   -8.5964    3.9557  -17.5004 C   0  0  0  0  0  0  0  0  0  0  0  0
   -7.6978    4.2432  -18.5298 C   0  0  0  0  0  0  0  0  0  0  0  0
   -6.4678    4.7405  -18.1711 C   0  0  0  0  0  0  0  0  0  0  0  0
   -6.1034    4.9839  -16.8506 C   0  0  0  0  0  0  0  0  0  0  0  0
   -6.9977    4.7337  -15.8310 C   0  0  0  0  0  0  0  0  0  0  0  0
   -8.2448    4.2006  -16.1567 C   0  0  0  0  0  0  0  0  0  0  0  0
   -4.6885    5.4655  -16.8089 C   0  0  0  0  0  0  0  0  0  0  0  0
   -4.2849    5.3905  -18.2865 C   0  0  0  0  0  0  0  0  0  0  0  0
   -3.1725    5.5937  -18.7444 O   0  0  0  0  0  0  0  0  0  0  0  0
   -5.4095    5.0300  -19.0134 N   0  0  0  0  0  0  0  0  0  0  0  0
   -5.4493    4.9861  -19.9961 H   0  0  0  0  0  0  0  0  0  0  0  0
  -10.8411    4.3658  -18.5325 C   0  0  0  0  0  0  0  0  0  0  0  0
   -9.9481    3.3969  -17.8043 C   0  0  0  0  0  0  0  0  0  0  0  0
 28 29  1  0  0  0
 29 17  1  0  0  0
 17 18  2  0  0  0
 18 19  1  0  0  0
 19 20  2  0  0  0
 20 21  1  0  0  0
 21  1  1  0  0  0
  1  2  2  0  0  0
  1  3  1  0  0  0
  5  3  1  0  0  0
  5  6  1  0  0  0
  6  7  1  0  0  0
  7  8  1  0  0  0
  7  9  1  0  0  0
 10  9  1  0  0  0
 10 11  1  0  0  0
 11 12  1  0  0  0
 12 13  1  0  0  0
 13 14  1  0  0  0
 10 15  1  0  0  0
 21 22  2  0  0  0
 20 23  1  0  0  0
 23 24  1  0  0  0
 24 25  2  0  0  0
 24 26  1  0  0  0
 22 17  1  0  0  0
 26 19  1  0  0  0
 15  5  1  0  0  0
 14 10  1  0  0  0
  3  4  1  0  0  0
 13 16  1  0  0  0
 26 27  1  0  0  0
M  END
> <minimizedAffinity>
-8.33414

> <minimizedRMSD>
1.16755

$$$$
P22399


 37 41  0  0  0  0  0  0  0  0999 V2000
   -5.9799    7.4681  -10.2142 C   0  0  0  0  0  0  0  0  0  0  0  0
   -6.3240    6.0852   -9.6285 C   0  0  0  0  0  0  0  0  0  0  0  0
   -7.8186    5.6765   -9.7943 C   0  0  0  0  0  0  0  0  0  0  0  0
   -8.6874    6.8397   -9.2219 C   0  0  0  0  0  0  0  0  0  0  0  0
   -7.9064    8.1231   -8.9137 C   0  0  0  0  0  0  0  0  0  0  0  0
   -7.0151    8.4694  -10.0062 N   0  0  0  0  0  0  0  0  0  0  0  0
   -8.1563    5.5102  -11.3187 C   0  0  0  0  0  0  0  0  0  0  0  0
   -7.7089    4.1583  -11.8980 C   0  0  0  0  0  0  0  0  0  0  0  0
   -8.4535    2.9897  -11.2417 C   0  0  0  0  0  0  0  0  0  0  0  0
   -8.9236    3.3356   -9.8324 C   0  0  0  0  0  0  0  0  0  0  0  0
   -9.1083    2.1889   -8.8450 C   0  0  0  0  0  0  0  0  0  0  0  0
   -8.0552    1.2223   -8.8951 N   0  0  0  0  0  0  0  0  0  0  0  0
   -8.9212    2.7655   -7.5216 N   0  0  0  0  0  0  0  0  0  0  0  0
   -8.5876    4.1914   -7.6930 C   0  0  0  0  0  0  0  0  0  0  0  0
   -7.9954    4.2881   -9.0943 C   0  0  0  0  0  0  0  0  0  0  0  0
   -6.5696    9.3625   -9.7954 H   0  0  0  0  0  0  0  0  0  0  0  0
   -7.1664    1.6766   -8.6854 H   0  0  0  0  0  0  0  0  0  0  0  0
   -8.0152    0.8112   -9.8277 H   0  0  0  0  0  0  0  0  0  0  0  0
   -8.1604    2.2869   -7.0393 H   0  0  0  0  0  0  0  0  0  0  0  0
   -7.8681    4.1072  -13.3364 N   0  0  0  0  0  0  0  0  0  0  0  0
   -7.4824    5.1260  -14.4205 C   0  0  0  0  0  0  0  0  0  0  0  0
   -7.0455    6.2012  -14.3248 O   0  0  0  0  0  0  0  0  0  0  0  0
   -8.2927    3.2860  -13.6750 H   0  0  0  0  0  0  0  0  0  0  0  0
   -7.7653    4.6039  -15.7872 C   0  0  0  0  0  0  0  0  0  0  0  0
   -8.9817    3.9873  -16.1100 C   0  0  0  0  0  0  0  0  0  0  0  0
   -9.2376    3.5760  -17.4251 C   0  0  0  0  0  0  0  0  0  0  0  0
  -10.4075    2.9904  -17.7055 F   0  0  0  0  0  0  0  0  0  0  0  0
   -8.3183    3.7717  -18.4458 C   0  0  0  0  0  0  0  0  0  0  0  0
   -7.1342    4.3825  -18.1041 C   0  0  0  0  0  0  0  0  0  0  0  0
   -6.8439    4.7944  -16.8054 C   0  0  0  0  0  0  0  0  0  0  0  0
   -5.4753    5.4089  -16.7806 C   0  0  0  0  0  0  0  0  0  0  0  0
   -5.0365    5.2908  -18.2447 C   0  0  0  0  0  0  0  0  0  0  0  0
   -3.9736    5.6692  -18.7103 O   0  0  0  0  0  0  0  0  0  0  0  0
   -6.0755    4.6898  -18.9431 N   0  0  0  0  0  0  0  0  0  0  0  0
   -6.0616    4.5059  -19.9101 H   0  0  0  0  0  0  0  0  0  0  0  0
   -3.6109    7.5442  -10.2804 C   0  0  0  0  0  0  0  0  0  0  0  0
   -4.7894    7.9651   -9.6057 O   0  0  0  0  0  0  0  0  0  0  0  0
 36 37  1  0  0  0
  1 37  1  0  0  0
  1  2  1  0  0  0
  3  2  1  0  0  0
  3  4  1  0  0  0
  4  5  1  0  0  0
  5  6  1  0  0  0
  3  7  1  0  0  0
  7  8  1  0  0  0
  8 20  1  0  0  0
 20 21  1  0  0  0
 21 22  2  0  0  0
 21 24  1  0  0  0
 24 25  2  0  0  0
 25 26  1  0  0  0
 26 27  1  0  0  0
 26 28  2  0  0  0
 28 29  1  0  0  0
 29 30  2  0  0  0
 30 31  1  0  0  0
 31 32  1  0  0  0
 32 33  2  0  0  0
 32 34  1  0  0  0
  8  9  1  0  0  0
 10  9  1  0  0  0
 10 11  1  0  0  0
 11 12  1  0  0  0
 11 13  1  0  0  0
 13 14  1  0  0  0
 15 14  1  0  0  0
  6  1  1  0  0  0
 30 24  1  0  0  0
 15 10  1  0  0  0
 15  3  1  0  0  0
 34 29  1  0  0  0
  6 16  1  0  0  0
 20 23  1  0  0  0
 34 35  1  0  0  0
 12 17  1  0  0  0
 12 18  1  0  0  0
 13 19  1  0  0  0
M  END
> <minimizedAffinity>
-9.40448

> <minimizedRMSD>
0.49203

$$$$
P22400


 29 32  0  0  0  0  0  0  0  0999 V2000
   -7.5418    3.7809  -13.4073 N   0  0  0  0  0  0  0  0  0  0  0  0
   -6.8091    4.6457  -14.4511 C   0  0  0  0  0  0  0  0  0  0  0  0
   -5.9617    5.4349  -14.3176 O   0  0  0  0  0  0  0  0  0  0  0  0
   -8.1739    3.1271  -13.7844 H   0  0  0  0  0  0  0  0  0  0  0  0
   -7.3403    4.4297  -15.8312 C   0  0  0  0  0  0  0  0  0  0  0  0
   -8.6353    3.9570  -16.0845 C   0  0  0  0  0  0  0  0  0  0  0  0
   -9.0760    3.7668  -17.4031 C   0  0  0  0  0  0  0  0  0  0  0  0
  -10.3044    3.2792  -17.6124 F   0  0  0  0  0  0  0  0  0  0  0  0
   -8.2750    4.0667  -18.4957 C   0  0  0  0  0  0  0  0  0  0  0  0
   -7.0218    4.5620  -18.2234 C   0  0  0  0  0  0  0  0  0  0  0  0
   -6.5499    4.7500  -16.9251 C   0  0  0  0  0  0  0  0  0  0  0  0
   -5.1483    5.2812  -16.9863 C   0  0  0  0  0  0  0  0  0  0  0  0
   -4.8749    5.3082  -18.4918 C   0  0  0  0  0  0  0  0  0  0  0  0
   -3.8210    5.6200  -19.0221 O   0  0  0  0  0  0  0  0  0  0  0  0
   -6.0411    4.9160  -19.1361 N   0  0  0  0  0  0  0  0  0  0  0  0
   -6.1560    4.8924  -20.1136 H   0  0  0  0  0  0  0  0  0  0  0  0
   -5.8267    4.4402   -9.3752 C   0  0  0  0  0  0  0  0  0  0  0  0
   -7.1336    5.1241   -9.8064 C   0  0  0  0  0  0  0  0  0  0  0  0
   -7.2022    5.1735  -11.3496 C   0  0  0  0  0  0  0  0  0  0  0  0
   -7.4512    3.7731  -11.9499 C   0  0  0  0  0  0  0  0  0  0  0  0
   -8.6888    3.0826  -11.3790 C   0  0  0  0  0  0  0  0  0  0  0  0
   -8.9547    3.2605   -9.8916 C   0  0  0  0  0  0  0  0  0  0  0  0
   -8.4902    2.1419   -8.9846 C   0  0  0  0  0  0  0  0  0  0  0  0
   -8.7206    2.7231   -7.6615 N   0  0  0  0  0  0  0  0  0  0  0  0
   -8.3781    4.1418   -7.7305 C   0  0  0  0  0  0  0  0  0  0  0  0
   -8.4295    4.5265   -9.2143 C   0  0  0  0  0  0  0  0  0  0  0  0
   -8.1320    2.2574   -6.9708 H   0  0  0  0  0  0  0  0  0  0  0  0
   -8.1903    6.1715  -11.8125 C   0  0  0  0  0  0  0  0  0  0  0  0
   -8.9347    6.9753  -12.1980 N   0  0  0  0  0  0  0  0  0  0  0  0
 18 17  1  0  0  0
 18 19  1  0  0  0
 19 28  1  0  0  0
 28 29  3  0  0  0
 19 20  1  0  0  0
 20  1  1  0  0  0
  1  2  1  0  0  0
  2  3  2  0  0  0
  2  5  1  0  0  0
  5  6  2  0  0  0
  6  7  1  0  0  0
  7  8  1  0  0  0
  7  9  2  0  0  0
  9 10  1  0  0  0
 10 11  2  0  0  0
 11 12  1  0  0  0
 12 13  1  0  0  0
 13 14  2  0  0  0
 13 15  1  0  0  0
 20 21  1  0  0  0
 22 21  1  0  0  0
 22 23  1  0  0  0
 23 24  1  0  0  0
 24 25  1  0  0  0
 26 25  1  0  0  0
 26 18  1  0  0  0
 11  5  1  0  0  0
 26 22  1  0  0  0
 15 10  1  0  0  0
  1  4  1  0  0  0
 15 16  1  0  0  0
 24 27  1  0  0  0
M  END
> <minimizedAffinity>
-8.49264

> <minimizedRMSD>
0.47441

$$$$
P22405


 27 31  0  0  0  0  0  0  0  0999 V2000
   -8.1497    4.1868  -13.1779 N   0  0  0  0  0  0  0  0  0  0  0  0
   -7.8433    5.2906  -14.2000 C   0  0  0  0  0  0  0  0  0  0  0  0
   -7.6753    6.4332  -14.0499 O   0  0  0  0  0  0  0  0  0  0  0  0
   -8.1726    3.2756  -13.5500 H   0  0  0  0  0  0  0  0  0  0  0  0
   -7.8072    4.7572  -15.5798 C   0  0  0  0  0  0  0  0  0  0  0  0
   -8.9431    4.1691  -16.1593 C   0  0  0  0  0  0  0  0  0  0  0  0
   -8.9622    3.8191  -17.5251 C   0  0  0  0  0  0  0  0  0  0  0  0
   -7.8475    4.0414  -18.3358 C   0  0  0  0  0  0  0  0  0  0  0  0
   -6.7455    4.6059  -17.7317 C   0  0  0  0  0  0  0  0  0  0  0  0
   -6.6979    4.9671  -16.3731 C   0  0  0  0  0  0  0  0  0  0  0  0
   -5.3518    5.5701  -16.0320 C   0  0  0  0  0  0  0  0  0  0  0  0
   -4.6754    5.5034  -17.3618 C   0  0  0  0  0  0  0  0  0  0  0  0
   -3.4909    5.8106  -17.9777 C   0  0  0  0  0  0  0  0  0  0  0  0
   -3.6541    5.4256  -19.3434 C   0  0  0  0  0  0  0  0  0  0  0  0
   -4.9301    4.9049  -19.5012 C   0  0  0  0  0  0  0  0  0  0  0  0
   -5.5220    4.9510  -18.2848 N   0  0  0  0  0  0  0  0  0  0  0  0
   -8.5956    6.3177   -9.2770 C   0  0  0  0  0  0  0  0  0  0  0  0
   -7.5815    5.1991   -9.5021 C   0  0  0  0  0  0  0  0  0  0  0  0
   -7.2947    5.0231  -11.0114 C   0  0  0  0  0  0  0  0  0  0  0  0
   -8.4095    4.2671  -11.7605 C   0  0  0  0  0  0  0  0  0  0  0  0
   -8.6651    2.8893  -11.1344 C   0  0  0  0  0  0  0  0  0  0  0  0
   -9.0373    3.1036   -9.6792 C   0  0  0  0  0  0  0  0  0  0  0  0
   -9.2363    1.8864   -8.8026 C   0  0  0  0  0  0  0  0  0  0  0  0
   -9.1963    2.4425   -7.4327 N   0  0  0  0  0  0  0  0  0  0  0  0
   -8.5170    3.7525   -7.4963 C   0  0  0  0  0  0  0  0  0  0  0  0
   -7.9569    3.8381   -8.9078 C   0  0  0  0  0  0  0  0  0  0  0  0
   -8.6798    1.8134   -6.8179 H   0  0  0  0  0  0  0  0  0  0  0  0
 18 17  1  0  0  0
 18 19  1  0  0  0
 19 20  1  0  0  0
 20  1  1  0  0  0
  1  2  1  0  0  0
  2  3  2  0  0  0
  2  5  1  0  0  0
  5  6  2  0  0  0
  6  7  1  0  0  0
  7  8  2  0  0  0
  8  9  1  0  0  0
  9 10  2  0  0  0
 10 11  1  0  0  0
 11 12  1  0  0  0
 12 13  2  0  0  0
 13 14  1  0  0  0
 14 15  2  0  0  0
 15 16  1  0  0  0
 20 21  1  0  0  0
 22 21  1  0  0  0
 22 23  1  0  0  0
 23 24  1  0  0  0
 24 25  1  0  0  0
 26 25  1  0  0  0
 26 18  1  0  0  0
 10  5  1  0  0  0
 16 12  1  0  0  0
 26 22  1  0  0  0
 16  9  1  0  0  0
  1  4  1  0  0  0
 24 27  1  0  0  0
M  END
> <minimizedAffinity>
-8.56200

> <minimizedRMSD>
0.37702

$$$$
P22408


 30 33  0  0  0  0  0  0  0  0999 V2000
   -7.7913    7.4722   -9.6113 C   0  0  0  0  0  0  0  0  0  0  0  0
   -7.9601    6.1331  -10.2398 C   0  0  0  0  0  0  0  0  0  0  0  0
   -8.0456    5.9700  -11.6313 C   0  0  0  0  0  0  0  0  0  0  0  0
   -8.2489    4.7024  -12.2094 C   0  0  0  0  0  0  0  0  0  0  0  0
   -8.3520    3.5678  -11.3947 C   0  0  0  0  0  0  0  0  0  0  0  0
   -8.2430    3.7251  -10.0164 C   0  0  0  0  0  0  0  0  0  0  0  0
   -8.0552    4.9909   -9.4657 C   0  0  0  0  0  0  0  0  0  0  0  0
   -7.9854    4.8368   -8.0029 C   0  0  0  0  0  0  0  0  0  0  0  0
   -7.7387    5.7089   -7.1930 O   0  0  0  0  0  0  0  0  0  0  0  0
   -8.2321    3.5171   -7.7356 N   0  0  0  0  0  0  0  0  0  0  0  0
   -8.2628    2.7167   -8.9121 C   0  0  0  0  0  0  0  0  0  0  0  0
   -9.5009    2.0390   -8.7515 N   0  0  0  0  0  0  0  0  0  0  0  0
   -8.3729    3.1607   -6.8288 H   0  0  0  0  0  0  0  0  0  0  0  0
  -10.2400    2.7189   -8.5731 H   0  0  0  0  0  0  0  0  0  0  0  0
   -9.4356    1.3934   -7.9645 H   0  0  0  0  0  0  0  0  0  0  0  0
   -8.3856    4.5713  -13.5945 N   0  0  0  0  0  0  0  0  0  0  0  0
   -7.5496    5.1767  -14.7495 C   0  0  0  0  0  0  0  0  0  0  0  0
   -6.6650    5.9402  -14.7249 O   0  0  0  0  0  0  0  0  0  0  0  0
   -9.1350    4.0015  -13.8827 H   0  0  0  0  0  0  0  0  0  0  0  0
   -8.0352    4.7409  -16.0841 C   0  0  0  0  0  0  0  0  0  0  0  0
   -9.3858    4.4198  -16.2844 C   0  0  0  0  0  0  0  0  0  0  0  0
   -9.8854    4.2020  -17.5833 C   0  0  0  0  0  0  0  0  0  0  0  0
   -9.0463    4.2902  -18.6965 C   0  0  0  0  0  0  0  0  0  0  0  0
   -7.7190    4.5821  -18.4675 C   0  0  0  0  0  0  0  0  0  0  0  0
   -7.2044    4.8096  -17.1931 C   0  0  0  0  0  0  0  0  0  0  0  0
   -5.7414    5.1249  -17.3047 C   0  0  0  0  0  0  0  0  0  0  0  0
   -5.5008    5.0260  -18.8174 C   0  0  0  0  0  0  0  0  0  0  0  0
   -4.4397    5.1896  -19.3976 O   0  0  0  0  0  0  0  0  0  0  0  0
   -6.7173    4.7227  -19.4137 N   0  0  0  0  0  0  0  0  0  0  0  0
   -6.8507    4.6208  -20.3838 H   0  0  0  0  0  0  0  0  0  0  0  0
  1  2  1  0  0  0
  2  3  2  0  0  0
  3  4  1  0  0  0
  4 16  1  0  0  0
 16 17  1  0  0  0
 17 18  2  0  0  0
 17 20  1  0  0  0
 20 21  2  0  0  0
 21 22  1  0  0  0
 22 23  2  0  0  0
 23 24  1  0  0  0
 24 25  2  0  0  0
 25 26  1  0  0  0
 26 27  1  0  0  0
 27 28  2  0  0  0
 27 29  1  0  0  0
  4  5  2  0  0  0
  5  6  1  0  0  0
  6  7  2  0  0  0
  7  8  1  0  0  0
  8  9  2  0  0  0
  8 10  1  0  0  0
 10 11  1  0  0  0
 11 12  1  0  0  0
  7  2  1  0  0  0
 25 20  1  0  0  0
 11  6  1  0  0  0
 29 24  1  0  0  0
 16 19  1  0  0  0
 29 30  1  0  0  0
 10 13  1  0  0  0
 12 14  1  0  0  0
 12 15  1  0  0  0
M  END
> <minimizedAffinity>
-9.60390

> <minimizedRMSD>
1.11614

$$$$
P22410


 27 30  0  0  0  0  0  0  0  0999 V2000
   -7.7138    3.4736  -13.3778 N   0  0  0  0  0  0  0  0  0  0  0  0
   -7.8740    4.7773  -14.1742 C   0  0  0  0  0  0  0  0  0  0  0  0
   -7.7995    5.8871  -13.8288 O   0  0  0  0  0  0  0  0  0  0  0  0
   -7.9015    2.6532  -13.8885 H   0  0  0  0  0  0  0  0  0  0  0  0
   -4.3891    3.1336  -10.3056 C   0  0  0  0  0  0  0  0  0  0  0  0
   -5.7514    3.8115  -10.1282 C   0  0  0  0  0  0  0  0  0  0  0  0
   -6.3229    4.2731  -11.4797 C   0  0  0  0  0  0  0  0  0  0  0  0
   -7.3333    3.2555  -12.0036 C   0  0  0  0  0  0  0  0  0  0  0  0
   -8.5588    3.1943  -11.0807 C   0  0  0  0  0  0  0  0  0  0  0  0
   -8.1902    3.2517   -9.5781 C   0  0  0  0  0  0  0  0  0  0  0  0
   -8.4366    4.6045   -8.9335 C   0  0  0  0  0  0  0  0  0  0  0  0
   -8.5240    4.3082   -7.4466 C   0  0  0  0  0  0  0  0  0  0  0  0
   -9.1477    2.9952   -7.3751 N   0  0  0  0  0  0  0  0  0  0  0  0
   -9.1997    2.4536   -8.7436 C   0  0  0  0  0  0  0  0  0  0  0  0
   -6.7100    2.8579   -9.3795 C   0  0  0  0  0  0  0  0  0  0  0  0
  -10.0917    3.0784   -6.9975 H   0  0  0  0  0  0  0  0  0  0  0  0
   -8.0836    4.5084  -15.6168 C   0  0  0  0  0  0  0  0  0  0  0  0
   -9.2806    3.9778  -16.1159 C   0  0  0  0  0  0  0  0  0  0  0  0
   -9.4596    3.8045  -17.5005 C   0  0  0  0  0  0  0  0  0  0  0  0
   -8.4488    4.1505  -18.3985 C   0  0  0  0  0  0  0  0  0  0  0  0
   -7.2800    4.6609  -17.8768 C   0  0  0  0  0  0  0  0  0  0  0  0
   -7.0819    4.8366  -16.5140 C   0  0  0  0  0  0  0  0  0  0  0  0
   -5.6977    5.3600  -16.2743 C   0  0  0  0  0  0  0  0  0  0  0  0
   -5.1201    5.3992  -17.6910 C   0  0  0  0  0  0  0  0  0  0  0  0
   -3.9722    5.6820  -17.9970 O   0  0  0  0  0  0  0  0  0  0  0  0
   -6.1418    5.0448  -18.5674 N   0  0  0  0  0  0  0  0  0  0  0  0
   -6.0657    5.0643  -19.5488 H   0  0  0  0  0  0  0  0  0  0  0  0
  6  5  1  0  0  0
  6  7  1  0  0  0
  7  8  1  0  0  0
  8  1  1  0  0  0
  1  2  1  0  0  0
  2  3  2  0  0  0
  2 17  1  0  0  0
 17 18  2  0  0  0
 18 19  1  0  0  0
 19 20  2  0  0  0
 20 21  1  0  0  0
 21 22  2  0  0  0
 22 23  1  0  0  0
 23 24  1  0  0  0
 24 25  2  0  0  0
 24 26  1  0  0  0
  8  9  1  0  0  0
 10  9  1  0  0  0
 10 11  1  0  0  0
 11 12  1  0  0  0
 12 13  1  0  0  0
 13 14  1  0  0  0
 10 15  1  0  0  0
 15  6  1  0  0  0
 22 17  1  0  0  0
 14 10  1  0  0  0
 26 21  1  0  0  0
  1  4  1  0  0  0
 26 27  1  0  0  0
 13 16  1  0  0  0
M  END
> <minimizedAffinity>
-8.51510

> <minimizedRMSD>
1.07263

$$$$
P22412


 33 36  0  0  0  0  0  0  0  0999 V2000
   -4.5679    5.6429  -18.1154 C   0  0  0  0  0  0  0  0  0  0  0  0
   -4.5975    7.0651  -18.2411 O   0  0  0  0  0  0  0  0  0  0  0  0
   -4.9388    5.2302  -16.6692 C   0  0  0  0  0  0  0  0  0  0  0  0
   -6.3935    4.9149  -16.8232 C   0  0  0  0  0  0  0  0  0  0  0  0
   -6.6970    4.8744  -18.1782 C   0  0  0  0  0  0  0  0  0  0  0  0
   -7.9490    4.5220  -18.6173 C   0  0  0  0  0  0  0  0  0  0  0  0
   -8.9299    4.2644  -17.6751 C   0  0  0  0  0  0  0  0  0  0  0  0
  -10.4995    3.9429  -18.2679 Cl  0  0  0  0  0  0  0  0  0  0  0  0
   -8.6507    4.2975  -16.3025 C   0  0  0  0  0  0  0  0  0  0  0  0
   -7.3572    4.6167  -15.8628 C   0  0  0  0  0  0  0  0  0  0  0  0
   -5.6291    5.2268  -19.0308 N   0  0  0  0  0  0  0  0  0  0  0  0
   -3.9205    7.4546  -17.6659 H   0  0  0  0  0  0  0  0  0  0  0  0
   -5.6045    5.1988  -20.0146 H   0  0  0  0  0  0  0  0  0  0  0  0
   -6.9737    4.5599  -14.4198 C   0  0  0  0  0  0  0  0  0  0  0  0
   -5.8512    4.3691  -14.1687 O   0  0  0  0  0  0  0  0  0  0  0  0
   -8.1810    4.8006  -13.4874 N   0  0  0  0  0  0  0  0  0  0  0  0
   -9.0230    5.0150  -13.9503 H   0  0  0  0  0  0  0  0  0  0  0  0
   -8.2766    4.7621  -12.0338 C   0  0  0  0  0  0  0  0  0  0  0  0
   -7.3601    5.8207  -11.4191 C   0  0  0  0  0  0  0  0  0  0  0  0
   -7.2557    5.7621   -9.8965 C   0  0  0  0  0  0  0  0  0  0  0  0
   -8.4713    6.4068   -9.2310 C   0  0  0  0  0  0  0  0  0  0  0  0
   -6.9189    4.3342   -9.4264 C   0  0  0  0  0  0  0  0  0  0  0  0
   -7.8541    3.2395   -9.9818 C   0  0  0  0  0  0  0  0  0  0  0  0
   -9.2030    3.3244   -9.2562 C   0  0  0  0  0  0  0  0  0  0  0  0
   -9.4531    1.9559   -8.6499 C   0  0  0  0  0  0  0  0  0  0  0  0
   -8.1132    1.4904   -8.4070 N   0  0  0  0  0  0  0  0  0  0  0  0
   -7.3900    1.8148   -9.6305 C   0  0  0  0  0  0  0  0  0  0  0  0
   -7.9531    3.3555  -11.5202 C   0  0  0  0  0  0  0  0  0  0  0  0
   -8.1054    0.4844   -8.2389 H   0  0  0  0  0  0  0  0  0  0  0  0
   -3.1834    5.1357  -18.5884 C   0  0  0  0  0  0  0  0  0  0  0  0
   -0.8323    5.6206  -18.3608 C   0  0  0  0  0  0  0  0  0  0  0  0
   -2.1104    5.5649  -17.6766 N   0  0  0  0  0  0  0  0  0  0  0  0
   -2.3337    6.4912  -17.3126 H   0  0  0  0  0  0  0  0  0  0  0  0
 31 32  1  0  0  0
 32 30  1  0  0  0
 30  1  1  0  0  0
  1  2  1  0  0  0
  1  3  1  0  0  0
  3  4  1  0  0  0
  4  5  2  0  0  0
  5  6  1  0  0  0
  6  7  2  0  0  0
  7  8  1  0  0  0
  7  9  1  0  0  0
  9 10  2  0  0  0
 10 14  1  0  0  0
 14 15  2  0  0  0
 14 16  1  0  0  0
 18 16  1  0  0  0
 18 19  1  0  0  0
 19 20  1  0  0  0
 20 21  1  0  0  0
 20 22  1  0  0  0
 23 22  1  0  0  0
 23 24  1  0  0  0
 24 25  1  0  0  0
 25 26  1  0  0  0
 26 27  1  0  0  0
 23 28  1  0  0  0
  5 11  1  0  0  0
 11  1  1  0  0  0
 10  4  1  0  0  0
 28 18  1  0  0  0
 27 23  1  0  0  0
 32 33  1  0  0  0
  2 12  1  0  0  0
 16 17  1  0  0  0
 26 29  1  0  0  0
 11 13  1  0  0  0
M  END
> <minimizedAffinity>
-7.56246

> <minimizedRMSD>
0.74906

$$$$
P22419


 35 38  0  0  0  0  0  0  0  0999 V2000
   -7.3332    5.5008  -13.7944 C   0  0  0  0  0  0  0  0  0  0  0  0
   -7.7847    6.8527  -13.8561 O   0  0  0  0  0  0  0  0  0  0  0  0
   -7.7100    7.2590  -12.9785 H   0  0  0  0  0  0  0  0  0  0  0  0
   -7.5247    5.0315  -15.2564 C   0  0  0  0  0  0  0  0  0  0  0  0
   -8.5757    4.1206  -15.5610 C   0  0  0  0  0  0  0  0  0  0  0  0
   -8.8893    3.6981  -16.8677 C   0  0  0  0  0  0  0  0  0  0  0  0
   -8.1732    4.1805  -17.9483 C   0  0  0  0  0  0  0  0  0  0  0  0
   -7.1729    5.0831  -17.6727 C   0  0  0  0  0  0  0  0  0  0  0  0
   -6.8360    5.5132  -16.3748 C   0  0  0  0  0  0  0  0  0  0  0  0
   -5.7456    6.5398  -16.5232 C   0  0  0  0  0  0  0  0  0  0  0  0
   -5.5462    6.6428  -18.0352 C   0  0  0  0  0  0  0  0  0  0  0  0
   -4.7831    7.4039  -18.6091 O   0  0  0  0  0  0  0  0  0  0  0  0
   -6.4076    5.7387  -18.6242 N   0  0  0  0  0  0  0  0  0  0  0  0
   -6.4700    5.5802  -19.5938 H   0  0  0  0  0  0  0  0  0  0  0  0
   -8.2987    4.8275  -12.9051 N   0  0  0  0  0  0  0  0  0  0  0  0
   -9.1648    5.3656  -12.9330 H   0  0  0  0  0  0  0  0  0  0  0  0
   -8.1829    6.7961   -8.2990 C   0  0  0  0  0  0  0  0  0  0  0  0
   -7.7124    5.6579   -9.2057 C   0  0  0  0  0  0  0  0  0  0  0  0
   -8.3282    5.8333  -10.5986 C   0  0  0  0  0  0  0  0  0  0  0  0
   -7.9290    4.6645  -11.4926 C   0  0  0  0  0  0  0  0  0  0  0  0
   -8.5889    3.4027  -10.9371 C   0  0  0  0  0  0  0  0  0  0  0  0
   -7.9906    3.0615   -9.5669 C   0  0  0  0  0  0  0  0  0  0  0  0
   -8.7632    1.9876   -8.7779 C   0  0  0  0  0  0  0  0  0  0  0  0
   -9.9945    1.5311   -9.3602 N   0  0  0  0  0  0  0  0  0  0  0  0
   -9.1528    2.5994   -7.5263 N   0  0  0  0  0  0  0  0  0  0  0  0
   -9.0713    4.0381   -7.6902 C   0  0  0  0  0  0  0  0  0  0  0  0
   -7.8753    4.2481   -8.5920 C   0  0  0  0  0  0  0  0  0  0  0  0
  -10.6479    2.3114   -9.4288 H   0  0  0  0  0  0  0  0  0  0  0  0
  -10.3977    0.8005   -8.7736 H   0  0  0  0  0  0  0  0  0  0  0  0
   -8.5227    2.2989   -6.7825 H   0  0  0  0  0  0  0  0  0  0  0  0
   -5.8802    5.5903  -13.2801 C   0  0  0  0  0  0  0  0  0  0  0  0
   -5.0059    4.4029  -13.5498 C   0  0  0  0  0  0  0  0  0  0  0  0
   -3.9738    4.4253  -14.2046 O   0  0  0  0  0  0  0  0  0  0  0  0
   -5.3979    3.2874  -12.9188 O   0  0  0  0  0  0  0  0  0  0  0  0
   -6.1915    3.2852  -12.4206 H   0  0  0  0  0  0  0  0  0  0  0  0
 18 17  1  0  0  0
 18 19  1  0  0  0
 19 20  1  0  0  0
 20 15  1  0  0  0
 15  1  1  0  0  0
  1  2  1  0  0  0
  1 31  1  0  0  0
 31 32  1  0  0  0
 32 33  2  0  0  0
 32 34  1  0  0  0
  1  4  1  0  0  0
  4  5  2  0  0  0
  5  6  1  0  0  0
  6  7  2  0  0  0
  7  8  1  0  0  0
  8  9  2  0  0  0
  9 10  1  0  0  0
 10 11  1  0  0  0
 11 12  2  0  0  0
 11 13  1  0  0  0
 20 21  1  0  0  0
 22 21  1  0  0  0
 22 23  1  0  0  0
 23 24  1  0  0  0
 23 25  1  0  0  0
 25 26  1  0  0  0
 27 26  1  0  0  0
 27 18  1  0  0  0
  9  4  1  0  0  0
 27 22  1  0  0  0
 13  8  1  0  0  0
 15 16  1  0  0  0
  2  3  1  0  0  0
 34 35  1  0  0  0
 13 14  1  0  0  0
 24 28  1  0  0  0
 24 29  1  0  0  0
 25 30  1  0  0  0
M  END
> <minimizedAffinity>
-7.62253

> <minimizedRMSD>
0.44809

$$$$
P22429


 30 33  0  0  0  0  0  0  0  0999 V2000
   -5.1730    5.1471  -18.0439 N   0  0  0  0  0  0  0  0  0  0  0  0
   -4.3287    5.6438  -17.0520 C   0  0  0  0  0  0  0  0  0  0  0  0
   -3.2280    6.1555  -17.2019 O   0  0  0  0  0  0  0  0  0  0  0  0
   -5.0438    5.4889  -15.7157 C   0  0  0  0  0  0  0  0  0  0  0  0
   -6.3916    4.9755  -16.1107 C   0  0  0  0  0  0  0  0  0  0  0  0
   -7.5203    4.7691  -15.3200 C   0  0  0  0  0  0  0  0  0  0  0  0
   -8.6880    4.3417  -15.9506 C   0  0  0  0  0  0  0  0  0  0  0  0
   -8.6962    4.1386  -17.3399 C   0  0  0  0  0  0  0  0  0  0  0  0
  -10.1819    3.7382  -18.0963 Cl  0  0  0  0  0  0  0  0  0  0  0  0
   -7.5581    4.3328  -18.1273 C   0  0  0  0  0  0  0  0  0  0  0  0
   -6.4120    4.7665  -17.4955 C   0  0  0  0  0  0  0  0  0  0  0  0
   -7.5431    5.2191  -13.8994 C   0  0  0  0  0  0  0  0  0  0  0  0
   -7.1499    6.2995  -13.6864 O   0  0  0  0  0  0  0  0  0  0  0  0
   -8.1607    4.1676  -12.9418 N   0  0  0  0  0  0  0  0  0  0  0  0
   -8.4876    3.3503  -13.3827 H   0  0  0  0  0  0  0  0  0  0  0  0
   -8.3289    4.1915  -11.5526 C   0  0  0  0  0  0  0  0  0  0  0  0
   -8.1352    5.3722  -10.8398 C   0  0  0  0  0  0  0  0  0  0  0  0
   -8.2984    5.4223   -9.4441 C   0  0  0  0  0  0  0  0  0  0  0  0
   -8.0734    6.7380   -8.7461 C   0  0  0  0  0  0  0  0  0  0  0  0
   -8.6725    4.2548   -8.7357 C   0  0  0  0  0  0  0  0  0  0  0  0
   -8.8600    4.2332   -7.3331 C   0  0  0  0  0  0  0  0  0  0  0  0
   -9.2558    3.0767   -6.6660 C   0  0  0  0  0  0  0  0  0  0  0  0
   -9.4642    1.9130   -7.3867 C   0  0  0  0  0  0  0  0  0  0  0  0
   -9.2711    1.9004   -8.7683 C   0  0  0  0  0  0  0  0  0  0  0  0
   -8.8804    3.0564   -9.4629 C   0  0  0  0  0  0  0  0  0  0  0  0
   -8.7031    3.0380  -10.8641 C   0  0  0  0  0  0  0  0  0  0  0  0
   -4.8410    5.2206  -19.4411 C   0  0  0  0  0  0  0  0  0  0  0  0
   -2.6995    5.4959  -20.5693 C   0  0  0  0  0  0  0  0  0  0  0  0
   -3.5137    4.6889  -19.6745 N   0  0  0  0  0  0  0  0  0  0  0  0
   -3.0332    4.6219  -18.7773 H   0  0  0  0  0  0  0  0  0  0  0  0
 28 29  1  0  0  0
 29 27  1  0  0  0
 27  1  1  0  0  0
  1  2  1  0  0  0
  2  3  2  0  0  0
  2  4  1  0  0  0
  4  5  1  0  0  0
  5  6  2  0  0  0
  6 12  1  0  0  0
 12 13  2  0  0  0
 12 14  1  0  0  0
 14 16  1  0  0  0
 16 17  2  0  0  0
 17 18  1  0  0  0
 18 19  1  0  0  0
 18 20  2  0  0  0
 20 21  1  0  0  0
 21 22  2  0  0  0
 22 23  1  0  0  0
 23 24  2  0  0  0
 24 25  1  0  0  0
 25 26  2  0  0  0
  6  7  1  0  0  0
  7  8  2  0  0  0
  8  9  1  0  0  0
  8 10  1  0  0  0
 10 11  2  0  0  0
 11  1  1  0  0  0
 11  5  1  0  0  0
 26 16  1  0  0  0
 25 20  1  0  0  0
 29 30  1  0  0  0
 14 15  1  0  0  0
M  END
> <minimizedAffinity>
-8.88871

> <minimizedRMSD>
0.47333

$$$$
P22430


 33 36  0  0  0  0  0  0  0  0999 V2000
   -7.5317    5.4738  -13.7430 C   0  0  0  0  0  0  0  0  0  0  0  0
   -7.4762    6.6312  -13.6111 O   0  0  0  0  0  0  0  0  0  0  0  0
   -7.6689    4.3559  -12.6952 N   0  0  0  0  0  0  0  0  0  0  0  0
   -7.6157    3.4423  -13.0582 H   0  0  0  0  0  0  0  0  0  0  0  0
   -7.8556    4.4253  -11.3200 C   0  0  0  0  0  0  0  0  0  0  0  0
   -7.3785    5.5778  -10.5953 C   0  0  0  0  0  0  0  0  0  0  0  0
   -7.5301    5.7862   -9.1975 C   0  0  0  0  0  0  0  0  0  0  0  0
   -7.0505    7.0270   -8.5281 C   0  0  0  0  0  0  0  0  0  0  0  0
   -8.2194    4.7085   -8.6475 C   0  0  0  0  0  0  0  0  0  0  0  0
   -8.6050    4.5615   -7.3398 C   0  0  0  0  0  0  0  0  0  0  0  0
   -9.3064    3.3706   -7.2539 N   0  0  0  0  0  0  0  0  0  0  0  0
   -9.9794    2.9467   -6.0481 C   0  0  0  0  0  0  0  0  0  0  0  0
   -9.3019    2.7278   -8.4736 C   0  0  0  0  0  0  0  0  0  0  0  0
   -9.8122    1.4890   -8.6520 N   0  0  0  0  0  0  0  0  0  0  0  0
   -8.6863    3.5711   -9.3637 C   0  0  0  0  0  0  0  0  0  0  0  0
   -8.5376    3.3485  -10.7252 C   0  0  0  0  0  0  0  0  0  0  0  0
  -10.2265    1.0138   -7.8959 H   0  0  0  0  0  0  0  0  0  0  0  0
   -9.7696    1.0620   -9.5381 H   0  0  0  0  0  0  0  0  0  0  0  0
   -5.2375    5.2636  -17.8687 N   0  0  0  0  0  0  0  0  0  0  0  0
   -4.3447    5.7409  -16.9125 C   0  0  0  0  0  0  0  0  0  0  0  0
   -3.1737    6.0341  -17.1054 O   0  0  0  0  0  0  0  0  0  0  0  0
   -5.0918    5.8180  -15.5850 C   0  0  0  0  0  0  0  0  0  0  0  0
   -6.4191    5.2135  -15.9268 C   0  0  0  0  0  0  0  0  0  0  0  0
   -7.5083    4.9315  -15.1148 C   0  0  0  0  0  0  0  0  0  0  0  0
   -8.6191    4.2610  -15.6515 C   0  0  0  0  0  0  0  0  0  0  0  0
   -8.6523    3.9968  -17.0163 C   0  0  0  0  0  0  0  0  0  0  0  0
   -9.9469    3.1868  -17.7874 Cl  0  0  0  0  0  0  0  0  0  0  0  0
   -7.6237    4.4264  -17.8329 C   0  0  0  0  0  0  0  0  0  0  0  0
   -6.4690    4.9366  -17.2801 C   0  0  0  0  0  0  0  0  0  0  0  0
   -4.7446    4.9380  -19.1735 C   0  0  0  0  0  0  0  0  0  0  0  0
   -3.2500    6.0784  -20.7024 C   0  0  0  0  0  0  0  0  0  0  0  0
   -4.4688    6.1050  -19.9265 N   0  0  0  0  0  0  0  0  0  0  0  0
   -5.2463    6.2536  -20.5698 H   0  0  0  0  0  0  0  0  0  0  0  0
 31 32  1  0  0  0
 32 30  1  0  0  0
 30 19  1  0  0  0
 19 20  1  0  0  0
 20 21  2  0  0  0
 20 22  1  0  0  0
 22 23  1  0  0  0
 23 24  2  0  0  0
 24  1  1  0  0  0
  1  2  2  0  0  0
  1  3  1  0  0  0
  3  5  1  0  0  0
  5  6  1  0  0  0
  6  7  2  0  0  0
  7  8  1  0  0  0
  7  9  1  0  0  0
  9 10  2  0  0  0
 10 11  1  0  0  0
 11 12  1  0  0  0
 11 13  1  0  0  0
 13 14  1  0  0  0
 13 15  2  0  0  0
 15 16  1  0  0  0
 24 25  1  0  0  0
 25 26  2  0  0  0
 26 27  1  0  0  0
 26 28  1  0  0  0
 28 29  2  0  0  0
 29 19  1  0  0  0
 29 23  1  0  0  0
 16  5  2  0  0  0
 15  9  1  0  0  0
 32 33  1  0  0  0
  3  4  1  0  0  0
 14 17  1  0  0  0
 14 18  1  0  0  0
M  END
> <minimizedAffinity>
-8.44695

> <minimizedRMSD>
0.94846

$$$$
P22431


 35 38  0  0  0  0  0  0  0  0999 V2000
   -7.3608    5.6379  -14.0073 C   0  0  0  0  0  0  0  0  0  0  0  0
   -7.1249    6.7752  -13.9767 O   0  0  0  0  0  0  0  0  0  0  0  0
   -7.8383    4.6966  -12.9066 N   0  0  0  0  0  0  0  0  0  0  0  0
   -7.8928    3.7494  -13.1697 H   0  0  0  0  0  0  0  0  0  0  0  0
   -8.2207    4.9656  -11.5519 C   0  0  0  0  0  0  0  0  0  0  0  0
   -7.3313    6.0448  -10.9450 C   0  0  0  0  0  0  0  0  0  0  0  0
   -7.7429    6.4056   -9.5141 C   0  0  0  0  0  0  0  0  0  0  0  0
   -8.9525    7.3464   -9.5940 C   0  0  0  0  0  0  0  0  0  0  0  0
   -7.8538    5.1242   -8.5913 C   0  0  0  0  0  0  0  0  0  0  0  0
   -8.4576    5.5386   -7.2133 C   0  0  0  0  0  0  0  0  0  0  0  0
   -7.6739    5.0510   -6.0011 C   0  0  0  0  0  0  0  0  0  0  0  0
   -6.2644    5.6223   -6.0453 C   0  0  0  0  0  0  0  0  0  0  0  0
   -5.5545    5.3677   -7.3717 C   0  0  0  0  0  0  0  0  0  0  0  0
   -6.3904    4.6165   -8.4096 C   0  0  0  0  0  0  0  0  0  0  0  0
   -8.7439    4.0011   -9.2904 C   0  0  0  0  0  0  0  0  0  0  0  0
   -8.2559    3.6985  -10.7185 C   0  0  0  0  0  0  0  0  0  0  0  0
   -8.9419    2.6353   -8.5743 C   0  0  0  0  0  0  0  0  0  0  0  0
   -9.9895    1.8119   -9.1571 N   0  0  0  0  0  0  0  0  0  0  0  0
  -10.8848    2.2940   -9.0774 H   0  0  0  0  0  0  0  0  0  0  0  0
  -10.0374    0.9216   -8.6616 H   0  0  0  0  0  0  0  0  0  0  0  0
   -5.0955    5.3465  -18.1093 N   0  0  0  0  0  0  0  0  0  0  0  0
   -4.2045    5.8606  -17.1463 C   0  0  0  0  0  0  0  0  0  0  0  0
   -3.0387    6.1842  -17.3253 O   0  0  0  0  0  0  0  0  0  0  0  0
   -4.9389    5.9262  -15.8191 C   0  0  0  0  0  0  0  0  0  0  0  0
   -6.2340    5.2590  -16.1444 C   0  0  0  0  0  0  0  0  0  0  0  0
   -7.2975    4.9687  -15.3069 C   0  0  0  0  0  0  0  0  0  0  0  0
   -8.4079    4.2697  -15.7868 C   0  0  0  0  0  0  0  0  0  0  0  0
   -8.4868    4.0128  -17.1463 C   0  0  0  0  0  0  0  0  0  0  0  0
   -9.8739    3.2776  -17.8353 Cl  0  0  0  0  0  0  0  0  0  0  0  0
   -7.4754    4.4434  -17.9986 C   0  0  0  0  0  0  0  0  0  0  0  0
   -6.3027    4.9677  -17.4927 C   0  0  0  0  0  0  0  0  0  0  0  0
   -4.5071    4.9240  -19.3491 C   0  0  0  0  0  0  0  0  0  0  0  0
   -4.4782    6.6262  -21.0878 C   0  0  0  0  0  0  0  0  0  0  0  0
   -3.7486    5.8935  -20.0749 N   0  0  0  0  0  0  0  0  0  0  0  0
   -3.3781    6.5678  -19.4052 H   0  0  0  0  0  0  0  0  0  0  0  0
 33 34  1  0  0  0
 34 32  1  0  0  0
 32 21  1  0  0  0
 21 22  1  0  0  0
 22 23  2  0  0  0
 22 24  1  0  0  0
 24 25  1  0  0  0
 25 26  2  0  0  0
 26  1  1  0  0  0
  1  2  2  0  0  0
  1  3  1  0  0  0
  5  3  1  0  0  0
  5  6  1  0  0  0
  6  7  1  0  0  0
  7  8  1  0  0  0
  7  9  1  0  0  0
  9 10  1  0  0  0
 10 11  1  0  0  0
 11 12  1  0  0  0
 12 13  1  0  0  0
 13 14  1  0  0  0
  9 15  1  0  0  0
 15 17  1  0  0  0
 17 18  1  0  0  0
 15 16  1  0  0  0
 26 27  1  0  0  0
 27 28  2  0  0  0
 28 29  1  0  0  0
 28 30  1  0  0  0
 30 31  2  0  0  0
 31 21  1  0  0  0
 31 25  1  0  0  0
 16  5  1  0  0  0
 14  9  1  0  0  0
 34 35  1  0  0  0
  3  4  1  0  0  0
 18 19  1  0  0  0
 18 20  1  0  0  0
M  END
> <minimizedAffinity>
-7.90522

> <minimizedRMSD>
0.88726

$$$$
P22433


 36 39  0  0  0  0  0  0  0  0999 V2000
   -7.4851    5.3706  -13.8934 C   0  0  0  0  0  0  0  0  0  0  0  0
   -7.2360    6.5001  -13.7300 O   0  0  0  0  0  0  0  0  0  0  0  0
   -7.9196    4.2835  -12.8827 N   0  0  0  0  0  0  0  0  0  0  0  0
   -8.1466    3.4140  -13.2848 H   0  0  0  0  0  0  0  0  0  0  0  0
   -8.0424    4.3346  -11.4901 C   0  0  0  0  0  0  0  0  0  0  0  0
   -7.5435    5.4812  -10.7713 C   0  0  0  0  0  0  0  0  0  0  0  0
   -7.6160    5.6671   -9.3603 C   0  0  0  0  0  0  0  0  0  0  0  0
   -7.1070    6.9058   -8.7061 C   0  0  0  0  0  0  0  0  0  0  0  0
   -8.2467    4.5693   -8.7790 C   0  0  0  0  0  0  0  0  0  0  0  0
   -8.5132    4.3866   -7.4465 C   0  0  0  0  0  0  0  0  0  0  0  0
   -9.1818    3.1794   -7.3211 N   0  0  0  0  0  0  0  0  0  0  0  0
   -9.2537    2.5569   -8.5522 C   0  0  0  0  0  0  0  0  0  0  0  0
   -9.7197    1.2998   -8.7077 N   0  0  0  0  0  0  0  0  0  0  0  0
   -8.7381    3.4328   -9.4783 C   0  0  0  0  0  0  0  0  0  0  0  0
   -8.6704    3.2398  -10.8573 C   0  0  0  0  0  0  0  0  0  0  0  0
  -10.0594    0.8010   -7.9298 H   0  0  0  0  0  0  0  0  0  0  0  0
   -9.7199    0.8815   -9.5989 H   0  0  0  0  0  0  0  0  0  0  0  0
   -9.6790    2.6756   -6.0499 C   0  0  0  0  0  0  0  0  0  0  0  0
  -10.8131    3.5157   -5.5026 C   0  0  0  0  0  0  0  0  0  0  0  0
  -11.6648    2.7493   -4.7737 F   0  0  0  0  0  0  0  0  0  0  0  0
  -10.3277    4.4485   -4.6323 F   0  0  0  0  0  0  0  0  0  0  0  0
   -5.2402    5.1744  -18.0748 N   0  0  0  0  0  0  0  0  0  0  0  0
   -4.3389    5.6734  -17.1300 C   0  0  0  0  0  0  0  0  0  0  0  0
   -3.1780    6.0102  -17.3096 O   0  0  0  0  0  0  0  0  0  0  0  0
   -5.0637    5.7144  -15.7864 C   0  0  0  0  0  0  0  0  0  0  0  0
   -6.3984    5.1215  -16.1163 C   0  0  0  0  0  0  0  0  0  0  0  0
   -7.4793    4.8688  -15.2856 C   0  0  0  0  0  0  0  0  0  0  0  0
   -8.6245    4.2958  -15.8384 C   0  0  0  0  0  0  0  0  0  0  0  0
   -8.6723    4.0275  -17.2129 C   0  0  0  0  0  0  0  0  0  0  0  0
  -10.1284    3.4457  -17.8984 Cl  0  0  0  0  0  0  0  0  0  0  0  0
   -7.5869    4.2841  -18.0495 C   0  0  0  0  0  0  0  0  0  0  0  0
   -6.4556    4.8267  -17.4782 C   0  0  0  0  0  0  0  0  0  0  0  0
   -4.9002    5.0181  -19.4578 C   0  0  0  0  0  0  0  0  0  0  0  0
   -3.9031    6.4869  -21.0505 C   0  0  0  0  0  0  0  0  0  0  0  0
   -4.9818    6.3273  -20.0904 N   0  0  0  0  0  0  0  0  0  0  0  0
   -5.8770    6.4142  -20.5714 H   0  0  0  0  0  0  0  0  0  0  0  0
 34 35  1  0  0  0
 35 33  1  0  0  0
 33 22  1  0  0  0
 22 23  1  0  0  0
 23 24  2  0  0  0
 23 25  1  0  0  0
 25 26  1  0  0  0
 26 27  2  0  0  0
 27  1  1  0  0  0
  1  2  2  0  0  0
  1  3  1  0  0  0
  3  5  1  0  0  0
  5  6  1  0  0  0
  6  7  2  0  0  0
  7  8  1  0  0  0
  7  9  1  0  0  0
  9 10  2  0  0  0
 10 11  1  0  0  0
 11 18  1  0  0  0
 18 19  1  0  0  0
 19 20  1  0  0  0
 19 21  1  0  0  0
 11 12  1  0  0  0
 12 13  1  0  0  0
 12 14  2  0  0  0
 14 15  1  0  0  0
 27 28  1  0  0  0
 28 29  2  0  0  0
 29 30  1  0  0  0
 29 31  1  0  0  0
 31 32  2  0  0  0
 32 22  1  0  0  0
 32 26  1  0  0  0
 15  5  2  0  0  0
 14  9  1  0  0  0
 35 36  1  0  0  0
  3  4  1  0  0  0
 13 16  1  0  0  0
 13 17  1  0  0  0
M  END
> <minimizedAffinity>
-9.09514

> <minimizedRMSD>
0.31641

$$$$
P22439


 31 35  0  0  0  0  0  0  0  0999 V2000
   -8.1145    4.6035  -13.3264 N   0  0  0  0  0  0  0  0  0  0  0  0
   -7.0990    4.9518  -14.4362 C   0  0  0  0  0  0  0  0  0  0  0  0
   -6.1040    5.5595  -14.3871 O   0  0  0  0  0  0  0  0  0  0  0  0
   -8.8446    4.0063  -13.6084 H   0  0  0  0  0  0  0  0  0  0  0  0
   -7.5460    4.5041  -15.7988 C   0  0  0  0  0  0  0  0  0  0  0  0
   -8.8424    4.0013  -16.0134 C   0  0  0  0  0  0  0  0  0  0  0  0
   -9.3231    3.7781  -17.3133 C   0  0  0  0  0  0  0  0  0  0  0  0
   -8.5311    4.0840  -18.4187 C   0  0  0  0  0  0  0  0  0  0  0  0
   -7.2700    4.6126  -18.2133 C   0  0  0  0  0  0  0  0  0  0  0  0
   -6.7860    4.8204  -16.9248 C   0  0  0  0  0  0  0  0  0  0  0  0
   -5.4079    5.3928  -17.0131 C   0  0  0  0  0  0  0  0  0  0  0  0
   -5.2496    5.6972  -18.5355 C   0  0  0  0  0  0  0  0  0  0  0  0
   -5.2642    7.2275  -18.7581 C   0  0  0  0  0  0  0  0  0  0  0  0
   -5.1395    7.6327  -20.2284 C   0  0  0  0  0  0  0  0  0  0  0  0
   -4.2872    6.6751  -21.0552 C   0  0  0  0  0  0  0  0  0  0  0  0
   -3.2845    5.9153  -20.2019 C   0  0  0  0  0  0  0  0  0  0  0  0
   -3.9511    5.0832  -19.0989 C   0  0  0  0  0  0  0  0  0  0  0  0
   -6.4389    5.1406  -19.2089 N   0  0  0  0  0  0  0  0  0  0  0  0
   -6.6150    5.1405  -20.1775 H   0  0  0  0  0  0  0  0  0  0  0  0
   -6.7933    7.8784  -10.2894 C   0  0  0  0  0  0  0  0  0  0  0  0
   -8.1043    7.1448  -10.5087 C   0  0  0  0  0  0  0  0  0  0  0  0
   -8.1619    6.5490  -11.9069 C   0  0  0  0  0  0  0  0  0  0  0  0
   -8.1676    5.0120  -11.9387 C   0  0  0  0  0  0  0  0  0  0  0  0
   -7.1217    4.4568  -10.9553 C   0  0  0  0  0  0  0  0  0  0  0  0
   -7.5336    4.8047   -9.4869 C   0  0  0  0  0  0  0  0  0  0  0  0
   -6.4187    4.9466   -8.4518 C   0  0  0  0  0  0  0  0  0  0  0  0
   -7.1721    4.7988   -7.1205 C   0  0  0  0  0  0  0  0  0  0  0  0
   -8.3074    3.9025   -7.3825 N   0  0  0  0  0  0  0  0  0  0  0  0
   -8.3037    3.6306   -8.8327 C   0  0  0  0  0  0  0  0  0  0  0  0
   -8.3795    6.0918   -9.4502 C   0  0  0  0  0  0  0  0  0  0  0  0
   -9.1814    4.3530   -7.1111 H   0  0  0  0  0  0  0  0  0  0  0  0
 21 20  1  0  0  0
 21 22  1  0  0  0
 22 23  1  0  0  0
 23  1  1  0  0  0
  1  2  1  0  0  0
  2  3  2  0  0  0
  2  5  1  0  0  0
  5  6  2  0  0  0
  6  7  1  0  0  0
  7  8  2  0  0  0
  8  9  1  0  0  0
  9 10  2  0  0  0
 10 11  1  0  0  0
 11 12  1  0  0  0
 12 13  1  0  0  0
 13 14  1  0  0  0
 14 15  1  0  0  0
 15 16  1  0  0  0
 16 17  1  0  0  0
 12 18  1  0  0  0
 23 24  1  0  0  0
 25 24  1  0  0  0
 25 26  1  0  0  0
 26 27  1  0  0  0
 27 28  1  0  0  0
 28 29  1  0  0  0
 25 30  1  0  0  0
 30 21  1  0  0  0
 10  5  1  0  0  0
 17 12  1  0  0  0
 29 25  1  0  0  0
 18  9  1  0  0  0
  1  4  1  0  0  0
 18 19  1  0  0  0
 28 31  1  0  0  0
M  END
> <minimizedAffinity>
-9.31201

> <minimizedRMSD>
0.60617

$$$$
P22442


 33 37  0  0  0  0  0  0  0  0999 V2000
   -7.6637    5.0046  -15.4093 C   0  0  0  0  0  0  0  0  0  0  0  0
   -8.8239    4.4576  -15.9651 C   0  0  0  0  0  0  0  0  0  0  0  0
   -8.8451    4.0456  -17.2782 C   0  0  0  0  0  0  0  0  0  0  0  0
   -9.9933    3.5832  -17.7906 F   0  0  0  0  0  0  0  0  0  0  0  0
   -7.7107    4.1256  -18.0714 C   0  0  0  0  0  0  0  0  0  0  0  0
   -7.7541    3.3673  -19.5903 Cl  0  0  0  0  0  0  0  0  0  0  0  0
   -6.5568    4.7242  -17.5412 C   0  0  0  0  0  0  0  0  0  0  0  0
   -6.4922    5.1417  -16.1997 C   0  0  0  0  0  0  0  0  0  0  0  0
   -5.1360    5.5751  -16.0291 C   0  0  0  0  0  0  0  0  0  0  0  0
   -4.4644    5.5332  -17.1871 N   0  0  0  0  0  0  0  0  0  0  0  0
   -5.3360    5.0430  -18.0800 N   0  0  0  0  0  0  0  0  0  0  0  0
   -4.9164    5.0191  -19.4620 C   0  0  0  0  0  0  0  0  0  0  0  0
   -4.3514    6.0240  -14.8314 C   0  0  0  0  0  0  0  0  0  0  0  0
   -4.6230    7.4447  -14.3852 C   0  0  0  0  0  0  0  0  0  0  0  0
   -4.4043    7.3901  -12.8899 C   0  0  0  0  0  0  0  0  0  0  0  0
   -4.6753    6.0538  -12.4621 O   0  0  0  0  0  0  0  0  0  0  0  0
   -4.4784    5.1768  -13.5753 C   0  0  0  0  0  0  0  0  0  0  0  0
   -8.0786    4.5053  -12.9870 N   0  0  0  0  0  0  0  0  0  0  0  0
   -7.7704    5.5814  -14.0534 C   0  0  0  0  0  0  0  0  0  0  0  0
   -7.6328    6.7332  -13.9461 O   0  0  0  0  0  0  0  0  0  0  0  0
   -8.2244    3.6000  -13.3452 H   0  0  0  0  0  0  0  0  0  0  0  0
   -7.9985    5.7520  -10.7520 C   0  0  0  0  0  0  0  0  0  0  0  0
   -8.0199    5.5824   -9.3505 C   0  0  0  0  0  0  0  0  0  0  0  0
   -8.3506    4.3568   -8.8071 C   0  0  0  0  0  0  0  0  0  0  0  0
   -8.6310    3.2729   -9.6139 C   0  0  0  0  0  0  0  0  0  0  0  0
   -8.5290    3.3742  -10.9861 C   0  0  0  0  0  0  0  0  0  0  0  0
   -8.1848    4.6097  -11.5832 C   0  0  0  0  0  0  0  0  0  0  0  0
   -8.9904    2.1035   -8.7589 C   0  0  0  0  0  0  0  0  0  0  0  0
   -9.2306    2.6741   -7.4117 N   0  0  0  0  0  0  0  0  0  0  0  0
   -8.4772    3.9439   -7.3830 C   0  0  0  0  0  0  0  0  0  0  0  0
   -8.8888    2.0400   -6.6896 H   0  0  0  0  0  0  0  0  0  0  0  0
   -9.0545    8.3572  -10.3753 C   0  0  0  0  0  0  0  0  0  0  0  0
   -7.8143    7.4439  -11.3327 S   0  0  0  0  0  0  0  0  0  0  0  0
 32 33  1  0  0  0
 33 22  1  0  0  0
 22 23  2  0  0  0
 23 24  1  0  0  0
 24 25  2  0  0  0
 25 26  1  0  0  0
 26 27  2  0  0  0
 27 18  1  0  0  0
 18 19  1  0  0  0
 19 20  2  0  0  0
 19  1  1  0  0  0
  1  2  2  0  0  0
  2  3  1  0  0  0
  3  4  1  0  0  0
  3  5  2  0  0  0
  5  6  1  0  0  0
  5  7  1  0  0  0
  7  8  2  0  0  0
  8  9  1  0  0  0
 13  9  1  0  0  0
 13 14  1  0  0  0
 14 15  1  0  0  0
 15 16  1  0  0  0
 16 17  1  0  0  0
  9 10  2  0  0  0
 10 11  1  0  0  0
 11 12  1  0  0  0
 25 28  1  0  0  0
 28 29  1  0  0  0
 29 30  1  0  0  0
 27 22  1  0  0  0
  8  1  1  0  0  0
 17 13  1  0  0  0
 30 24  1  0  0  0
 11  7  1  0  0  0
 18 21  1  0  0  0
 29 31  1  0  0  0
M  END
> <minimizedAffinity>
-7.92422

> <minimizedRMSD>
0.53218

$$$$
P22445


 27 30  0  0  0  0  0  0  0  0999 V2000
   -8.2750    4.2653  -13.2600 N   0  0  0  0  0  0  0  0  0  0  0  0
   -7.1715    4.6509  -14.2803 C   0  0  0  0  0  0  0  0  0  0  0  0
   -6.1028    5.0948  -14.1094 O   0  0  0  0  0  0  0  0  0  0  0  0
   -9.0683    3.8354  -13.6538 H   0  0  0  0  0  0  0  0  0  0  0  0
   -7.5958    4.4389  -15.6910 C   0  0  0  0  0  0  0  0  0  0  0  0
   -8.9493    4.3166  -16.0436 C   0  0  0  0  0  0  0  0  0  0  0  0
   -9.3326    4.2849  -17.3792 C   0  0  0  0  0  0  0  0  0  0  0  0
  -10.6294    4.1941  -17.6940 F   0  0  0  0  0  0  0  0  0  0  0  0
   -8.4110    4.3720  -18.4098 C   0  0  0  0  0  0  0  0  0  0  0  0
   -7.0714    4.5035  -18.0466 C   0  0  0  0  0  0  0  0  0  0  0  0
   -5.9492    4.6676  -18.8139 N   0  0  0  0  0  0  0  0  0  0  0  0
   -4.8098    4.7713  -18.0986 N   0  0  0  0  0  0  0  0  0  0  0  0
   -5.2361    4.6943  -16.8326 C   0  0  0  0  0  0  0  0  0  0  0  0
   -6.6387    4.5331  -16.7265 C   0  0  0  0  0  0  0  0  0  0  0  0
   -5.9717    4.7065  -19.7974 H   0  0  0  0  0  0  0  0  0  0  0  0
   -8.2015    5.6518  -11.1576 C   0  0  0  0  0  0  0  0  0  0  0  0
   -8.1773    5.6424   -9.7469 C   0  0  0  0  0  0  0  0  0  0  0  0
   -8.3081    4.4410   -9.0743 C   0  0  0  0  0  0  0  0  0  0  0  0
   -8.5044    3.2589   -9.7668 C   0  0  0  0  0  0  0  0  0  0  0  0
   -8.5200    3.2369  -11.1498 C   0  0  0  0  0  0  0  0  0  0  0  0
   -8.3264    4.4297  -11.8665 C   0  0  0  0  0  0  0  0  0  0  0  0
   -8.6296    2.1263   -8.8042 C   0  0  0  0  0  0  0  0  0  0  0  0
   -8.7176    2.7526   -7.4674 N   0  0  0  0  0  0  0  0  0  0  0  0
   -8.2630    4.1506   -7.6132 C   0  0  0  0  0  0  0  0  0  0  0  0
   -8.1179    2.2565   -6.8082 H   0  0  0  0  0  0  0  0  0  0  0  0
   -6.5635    7.7555  -11.7768 C   0  0  0  0  0  0  0  0  0  0  0  0
   -8.3075    7.2818  -11.9044 S   0  0  0  0  0  0  0  0  0  0  0  0
 26 27  1  0  0  0
 27 16  1  0  0  0
 16 17  2  0  0  0
 17 18  1  0  0  0
 18 19  2  0  0  0
 19 20  1  0  0  0
 20 21  2  0  0  0
 21  1  1  0  0  0
  1  2  1  0  0  0
  2  3  2  0  0  0
  2  5  1  0  0  0
  5  6  2  0  0  0
  6  7  1  0  0  0
  7  8  1  0  0  0
  7  9  2  0  0  0
  9 10  1  0  0  0
 10 11  1  0  0  0
 11 12  1  0  0  0
 12 13  2  0  0  0
 13 14  1  0  0  0
 19 22  1  0  0  0
 22 23  1  0  0  0
 23 24  1  0  0  0
 21 16  1  0  0  0
 14  5  1  0  0  0
 24 18  1  0  0  0
 14 10  2  0  0  0
  1  4  1  0  0  0
 11 15  1  0  0  0
 23 25  1  0  0  0
M  END
> <minimizedAffinity>
-8.16431

> <minimizedRMSD>
0.43657

$$$$
P22448


 28 31  0  0  0  0  0  0  0  0999 V2000
   -6.3502    5.6211  -14.4512 C   0  0  0  0  0  0  0  0  0  0  0  0
   -5.4992    6.3672  -14.1582 O   0  0  0  0  0  0  0  0  0  0  0  0
   -7.5136    5.0387  -13.6038 N   0  0  0  0  0  0  0  0  0  0  0  0
   -8.1513    4.4821  -14.1066 H   0  0  0  0  0  0  0  0  0  0  0  0
   -7.6945    4.5035  -17.8285 C   0  0  0  0  0  0  0  0  0  0  0  0
   -7.5881    4.6857  -16.4407 C   0  0  0  0  0  0  0  0  0  0  0  0
   -6.4185    5.2194  -15.8793 C   0  0  0  0  0  0  0  0  0  0  0  0
   -5.3470    5.5336  -16.7378 C   0  0  0  0  0  0  0  0  0  0  0  0
   -4.0461    6.0694  -16.6139 C   0  0  0  0  0  0  0  0  0  0  0  0
   -3.3998    6.1519  -17.7825 N   0  0  0  0  0  0  0  0  0  0  0  0
   -4.3071    5.7149  -18.6702 N   0  0  0  0  0  0  0  0  0  0  0  0
   -5.4800    5.3126  -18.1005 C   0  0  0  0  0  0  0  0  0  0  0  0
   -6.6228    4.7905  -18.6761 C   0  0  0  0  0  0  0  0  0  0  0  0
   -4.1419    5.6871  -19.6403 H   0  0  0  0  0  0  0  0  0  0  0  0
  -10.1951    4.3145  -17.7484 C   0  0  0  0  0  0  0  0  0  0  0  0
   -8.9318    4.0087  -18.5053 C   0  0  0  0  0  0  0  0  0  0  0  0
   -7.8063    5.1776  -12.2280 C   0  0  0  0  0  0  0  0  0  0  0  0
   -8.0009    3.9445  -11.5674 C   0  0  0  0  0  0  0  0  0  0  0  0
   -8.2263    3.9170  -10.1991 C   0  0  0  0  0  0  0  0  0  0  0  0
   -8.2735    5.0838   -9.4609 C   0  0  0  0  0  0  0  0  0  0  0  0
   -8.1212    6.3089  -10.0749 C   0  0  0  0  0  0  0  0  0  0  0  0
   -7.9111    6.3740  -11.4705 C   0  0  0  0  0  0  0  0  0  0  0  0
   -8.4839    4.7557   -8.0225 C   0  0  0  0  0  0  0  0  0  0  0  0
   -8.8570    3.3278   -7.9913 N   0  0  0  0  0  0  0  0  0  0  0  0
   -8.4085    2.7544   -9.2803 C   0  0  0  0  0  0  0  0  0  0  0  0
   -9.8674    3.2286   -7.8929 H   0  0  0  0  0  0  0  0  0  0  0  0
   -7.8789    8.0580  -12.0615 S   0  0  0  0  0  0  0  0  0  0  0  0
   -9.5259    8.1799  -12.7829 C   0  0  0  0  0  0  0  0  0  0  0  0
 15 16  1  0  0  0
 16  5  1  0  0  0
  5  6  2  0  0  0
  6  7  1  0  0  0
  7  1  1  0  0  0
  1  2  2  0  0  0
  1  3  1  0  0  0
  3 17  1  0  0  0
 17 18  2  0  0  0
 18 19  1  0  0  0
 19 20  2  0  0  0
 20 21  1  0  0  0
 21 22  2  0  0  0
 22 27  1  0  0  0
 27 28  1  0  0  0
 20 23  1  0  0  0
 23 24  1  0  0  0
 24 25  1  0  0  0
  7  8  2  0  0  0
  8  9  1  0  0  0
  9 10  2  0  0  0
 10 11  1  0  0  0
 11 12  1  0  0  0
 12 13  2  0  0  0
 13  5  1  0  0  0
 22 17  1  0  0  0
 12  8  1  0  0  0
 25 19  1  0  0  0
  3  4  1  0  0  0
 24 26  1  0  0  0
 11 14  1  0  0  0
M  END
> <minimizedAffinity>
-7.25559

> <minimizedRMSD>
0.66244

$$$$
P22464


 32 34  0  0  0  0  0  0  0  0999 V2000
   -7.8273    4.3232  -12.4983 N   0  0  0  0  0  0  0  0  0  0  0  0
   -6.5654    4.7433  -13.3136 C   0  0  0  0  0  0  0  0  0  0  0  0
   -5.5148    5.1086  -12.9498 O   0  0  0  0  0  0  0  0  0  0  0  0
   -8.5724    3.9773  -13.0409 H   0  0  0  0  0  0  0  0  0  0  0  0
   -7.9531    5.4786  -10.2549 C   0  0  0  0  0  0  0  0  0  0  0  0
   -8.2446    5.3494   -8.8800 C   0  0  0  0  0  0  0  0  0  0  0  0
   -8.6998    4.1450   -8.3926 C   0  0  0  0  0  0  0  0  0  0  0  0
   -8.8878    3.0687   -9.2395 C   0  0  0  0  0  0  0  0  0  0  0  0
   -8.5784    3.1548  -10.5869 C   0  0  0  0  0  0  0  0  0  0  0  0
   -8.0737    4.3582  -11.1126 C   0  0  0  0  0  0  0  0  0  0  0  0
   -9.4286    1.9280   -8.4437 C   0  0  0  0  0  0  0  0  0  0  0  0
   -9.9102    2.5357   -7.1730 N   0  0  0  0  0  0  0  0  0  0  0  0
   -9.1086    3.7671   -7.0100 C   0  0  0  0  0  0  0  0  0  0  0  0
   -9.7547    1.9005   -6.3902 H   0  0  0  0  0  0  0  0  0  0  0  0
   -6.0517    7.4735  -10.3456 C   0  0  0  0  0  0  0  0  0  0  0  0
   -7.7603    7.1569  -10.8339 S   0  0  0  0  0  0  0  0  0  0  0  0
   -6.8704    4.7381  -14.7859 C   0  0  0  0  0  0  0  0  0  0  0  0
   -8.1767    4.3910  -15.1558 C   0  0  0  0  0  0  0  0  0  0  0  0
   -8.5787    4.3824  -16.4898 C   0  0  0  0  0  0  0  0  0  0  0  0
   -7.6258    4.6003  -17.4759 C   0  0  0  0  0  0  0  0  0  0  0  0
   -6.3425    4.9748  -17.1239 C   0  0  0  0  0  0  0  0  0  0  0  0
   -5.9568    5.1316  -15.7798 C   0  0  0  0  0  0  0  0  0  0  0  0
   -9.9217    4.1119  -16.7900 N   0  0  0  0  0  0  0  0  0  0  0  0
  -10.4110    4.2942  -18.3542 S   0  0  0  0  0  0  0  0  0  0  0  0
  -10.5512    3.8229  -16.0904 H   0  0  0  0  0  0  0  0  0  0  0  0
   -9.3582    4.6984  -19.1143 H   0  0  0  0  0  0  0  0  0  0  0  0
   -4.5997    5.7043  -15.4360 C   0  0  0  0  0  0  0  0  0  0  0  0
   -3.7543    6.0631  -16.6024 N   0  0  0  0  0  0  0  0  0  0  0  0
   -3.7867    7.5001  -16.8667 N   0  0  0  0  0  0  0  0  0  0  0  0
   -4.0972    5.5672  -17.4251 H   0  0  0  0  0  0  0  0  0  0  0  0
   -3.4451    8.0042  -16.0484 H   0  0  0  0  0  0  0  0  0  0  0  0
   -4.7446    7.7874  -17.0676 H   0  0  0  0  0  0  0  0  0  0  0  0
 15 16  1  0  0  0
 16  5  1  0  0  0
  5  6  2  0  0  0
  6  7  1  0  0  0
  7  8  2  0  0  0
  8  9  1  0  0  0
  9 10  2  0  0  0
 10  1  1  0  0  0
  1  2  1  0  0  0
  2  3  2  0  0  0
  2 17  1  0  0  0
 17 18  2  0  0  0
 18 19  1  0  0  0
 19 23  1  0  0  0
 23 24  1  0  0  0
 19 20  2  0  0  0
 20 21  1  0  0  0
 21 22  2  0  0  0
 22 27  1  0  0  0
 27 28  1  0  0  0
 28 29  1  0  0  0
  8 11  1  0  0  0
 11 12  1  0  0  0
 12 13  1  0  0  0
 10  5  1  0  0  0
 22 17  1  0  0  0
 13  7  1  0  0  0
  1  4  1  0  0  0
 23 25  1  0  0  0
 24 26  1  0  0  0
 28 30  1  0  0  0
 29 31  1  0  0  0
 29 32  1  0  0  0
 12 14  1  0  0  0
M  END
> <minimizedAffinity>
-6.82476

> <minimizedRMSD>
0.64858

$$$$
P22476


 28 31  0  0  0  0  0  0  0  0999 V2000
   -8.3509    4.4249  -13.3505 N   0  0  0  0  0  0  0  0  0  0  0  0
   -7.2642    4.7415  -14.4150 C   0  0  0  0  0  0  0  0  0  0  0  0
   -6.2115    5.2384  -14.2990 O   0  0  0  0  0  0  0  0  0  0  0  0
   -9.1934    4.0689  -13.7146 H   0  0  0  0  0  0  0  0  0  0  0  0
   -7.6852    4.4489  -15.8124 C   0  0  0  0  0  0  0  0  0  0  0  0
   -8.9597    3.9747  -16.1434 C   0  0  0  0  0  0  0  0  0  0  0  0
   -9.3440    3.8697  -17.4918 C   0  0  0  0  0  0  0  0  0  0  0  0
  -10.5685    3.4085  -17.7799 F   0  0  0  0  0  0  0  0  0  0  0  0
   -8.5044    4.2658  -18.5325 C   0  0  0  0  0  0  0  0  0  0  0  0
   -7.2546    4.7488  -18.1945 C   0  0  0  0  0  0  0  0  0  0  0  0
   -6.8558    4.8007  -16.8702 C   0  0  0  0  0  0  0  0  0  0  0  0
   -5.4477    5.1503  -16.9325 C   0  0  0  0  0  0  0  0  0  0  0  0
   -4.9752    5.2566  -18.1399 N   0  0  0  0  0  0  0  0  0  0  0  0
   -6.1544    5.1609  -19.0760 N   0  0  0  0  0  0  0  0  0  0  0  0
   -6.3280    6.4150  -19.5239 O   0  0  0  0  0  0  0  0  0  0  0  0
   -6.9324    5.7529  -19.1916 H   0  0  0  0  0  0  0  0  0  0  0  0
   -8.0549    5.7841  -11.2734 C   0  0  0  0  0  0  0  0  0  0  0  0
   -8.0063    5.8144   -9.8657 C   0  0  0  0  0  0  0  0  0  0  0  0
   -8.2443    4.6521   -9.1564 C   0  0  0  0  0  0  0  0  0  0  0  0
   -8.5704    3.4760   -9.8106 C   0  0  0  0  0  0  0  0  0  0  0  0
   -8.6284    3.4160  -11.1977 C   0  0  0  0  0  0  0  0  0  0  0  0
   -8.3264    4.5645  -11.9498 C   0  0  0  0  0  0  0  0  0  0  0  0
   -8.8443    2.4094   -8.8029 C   0  0  0  0  0  0  0  0  0  0  0  0
   -8.5424    3.0033   -7.4712 N   0  0  0  0  0  0  0  0  0  0  0  0
   -8.2759    4.4409   -7.6831 C   0  0  0  0  0  0  0  0  0  0  0  0
   -7.7225    2.5522   -7.0653 H   0  0  0  0  0  0  0  0  0  0  0  0
   -6.2879    7.8052  -11.8451 C   0  0  0  0  0  0  0  0  0  0  0  0
   -8.0360    7.3929  -12.0793 S   0  0  0  0  0  0  0  0  0  0  0  0
 27 28  1  0  0  0
 28 17  1  0  0  0
 17 18  2  0  0  0
 18 19  1  0  0  0
 19 20  2  0  0  0
 20 21  1  0  0  0
 21 22  2  0  0  0
 22  1  1  0  0  0
  1  2  1  0  0  0
  2  3  2  0  0  0
  2  5  1  0  0  0
  5  6  2  0  0  0
  6  7  1  0  0  0
  7  8  1  0  0  0
  7  9  2  0  0  0
  9 10  1  0  0  0
 10 11  2  0  0  0
 11 12  1  0  0  0
 12 13  2  0  0  0
 13 14  1  0  0  0
 14 15  1  0  0  0
 20 23  1  0  0  0
 23 24  1  0  0  0
 24 25  1  0  0  0
 22 17  1  0  0  0
 11  5  1  0  0  0
 25 19  1  0  0  0
 14 10  1  0  0  0
  1  4  1  0  0  0
 14 16  1  0  0  0
 24 26  1  0  0  0
M  CHG 1  14   1
M  CHG 1  15  -1
M  END
> <minimizedAffinity>
-9.25723

> <minimizedRMSD>
0.58594

$$$$
P22483


 31 35  0  0  0  0  0  0  0  0999 V2000
   -7.1652    5.0600  -13.4787 C   0  0  0  0  0  0  0  0  0  0  0  0
   -6.1786    5.6274  -13.2272 O   0  0  0  0  0  0  0  0  0  0  0  0
   -8.2776    4.5334  -12.5536 N   0  0  0  0  0  0  0  0  0  0  0  0
   -9.0552    4.1508  -13.0207 H   0  0  0  0  0  0  0  0  0  0  0  0
   -8.3637    4.5101  -11.1556 C   0  0  0  0  0  0  0  0  0  0  0  0
   -8.7085    3.2675  -10.5915 C   0  0  0  0  0  0  0  0  0  0  0  0
   -8.7923    3.1210   -9.2060 C   0  0  0  0  0  0  0  0  0  0  0  0
   -8.5443    4.1701   -8.3380 C   0  0  0  0  0  0  0  0  0  0  0  0
   -8.2173    5.3890   -8.8674 C   0  0  0  0  0  0  0  0  0  0  0  0
   -7.9809    6.6149   -8.1955 C   0  0  0  0  0  0  0  0  0  0  0  0
   -7.8003    7.5636   -8.8954 C   0  0  0  0  0  0  0  0  0  0  0  0
   -7.8247    7.3691  -10.5718 S   0  0  0  0  0  0  0  0  0  0  0  0
   -8.1334    5.5813  -10.2805 C   0  0  0  0  0  0  0  0  0  0  0  0
   -8.7345    3.7250   -6.9342 C   0  0  0  0  0  0  0  0  0  0  0  0
   -9.1233    2.3039   -6.9940 N   0  0  0  0  0  0  0  0  0  0  0  0
   -9.1320    1.9017   -8.4174 C   0  0  0  0  0  0  0  0  0  0  0  0
  -10.0527    2.1804   -6.5921 H   0  0  0  0  0  0  0  0  0  0  0  0
   -5.4041    5.2908  -17.7519 N   0  0  0  0  0  0  0  0  0  0  0  0
   -4.4267    5.6136  -16.8681 N   0  0  0  0  0  0  0  0  0  0  0  0
   -5.0176    5.4499  -15.6883 C   0  0  0  0  0  0  0  0  0  0  0  0
   -6.3551    5.0086  -15.8026 C   0  0  0  0  0  0  0  0  0  0  0  0
   -7.3955    4.7233  -14.8996 C   0  0  0  0  0  0  0  0  0  0  0  0
   -8.6230    4.2727  -15.3919 C   0  0  0  0  0  0  0  0  0  0  0  0
   -8.8143    4.1604  -16.7656 C   0  0  0  0  0  0  0  0  0  0  0  0
  -10.0039    3.7508  -17.2198 F   0  0  0  0  0  0  0  0  0  0  0  0
   -7.8196    4.4846  -17.6887 C   0  0  0  0  0  0  0  0  0  0  0  0
   -6.5864    4.9019  -17.1686 C   0  0  0  0  0  0  0  0  0  0  0  0
   -5.1261    5.3151  -19.1835 C   0  0  0  0  0  0  0  0  0  0  0  0
   -2.9663    5.8026  -20.1468 C   0  0  0  0  0  0  0  0  0  0  0  0
   -3.7622    4.7986  -19.4488 N   0  0  0  0  0  0  0  0  0  0  0  0
   -3.3115    4.5684  -18.5632 H   0  0  0  0  0  0  0  0  0  0  0  0
 29 30  1  0  0  0
 30 28  1  0  0  0
 28 18  1  0  0  0
 18 19  1  0  0  0
 19 20  2  0  0  0
 20 21  1  0  0  0
 21 22  2  0  0  0
 22  1  1  0  0  0
  1  2  2  0  0  0
  1  3  1  0  0  0
  3  5  1  0  0  0
  5  6  2  0  0  0
  6  7  1  0  0  0
  7  8  2  0  0  0
  8  9  1  0  0  0
  9 10  1  0  0  0
 10 11  3  0  0  0
 11 12  1  0  0  0
 12 13  1  0  0  0
  8 14  1  0  0  0
 14 15  1  0  0  0
 15 16  1  0  0  0
 22 23  1  0  0  0
 23 24  2  0  0  0
 24 25  1  0  0  0
 24 26  1  0  0  0
 26 27  2  0  0  0
 27 18  1  0  0  0
 27 21  1  0  0  0
 13  5  1  0  0  0
 16  7  1  0  0  0
 13  9  2  0  0  0
 30 31  1  0  0  0
  3  4  1  0  0  0
 15 17  1  0  0  0
M  END
> <minimizedAffinity>
-8.56840

> <minimizedRMSD>
0.65935

$$$$
P22486


 31 34  0  0  0  0  0  0  0  0999 V2000
   -8.2174    4.3415  -12.5936 N   0  0  0  0  0  0  0  0  0  0  0  0
   -7.0466    4.7887  -13.4967 C   0  0  0  0  0  0  0  0  0  0  0  0
   -6.0320    5.2971  -13.2241 O   0  0  0  0  0  0  0  0  0  0  0  0
   -9.0049    4.0023  -13.0774 H   0  0  0  0  0  0  0  0  0  0  0  0
   -7.3736    4.5974  -14.9121 C   0  0  0  0  0  0  0  0  0  0  0  0
   -8.6707    4.3020  -15.3792 C   0  0  0  0  0  0  0  0  0  0  0  0
   -8.9757    4.1805  -16.7525 C   0  0  0  0  0  0  0  0  0  0  0  0
  -10.2488    3.9006  -17.0807 F   0  0  0  0  0  0  0  0  0  0  0  0
   -8.0395    4.3551  -17.7954 C   0  0  0  0  0  0  0  0  0  0  0  0
   -6.7535    4.7180  -17.3460 C   0  0  0  0  0  0  0  0  0  0  0  0
   -5.6344    5.0112  -18.0432 N   0  0  0  0  0  0  0  0  0  0  0  0
   -4.6918    5.2280  -17.1138 N   0  0  0  0  0  0  0  0  0  0  0  0
   -5.1368    5.1189  -15.8367 C   0  0  0  0  0  0  0  0  0  0  0  0
   -6.4657    4.8111  -15.9466 C   0  0  0  0  0  0  0  0  0  0  0  0
   -3.7587    5.4472  -17.3387 H   0  0  0  0  0  0  0  0  0  0  0  0
   -8.4663    4.0920  -19.1908 C   0  0  0  0  0  0  0  0  0  0  0  0
   -7.4298    3.4935  -20.0203 N   0  0  0  0  0  0  0  0  0  0  0  0
   -6.6398    4.1346  -20.0925 H   0  0  0  0  0  0  0  0  0  0  0  0
   -7.8038    3.3086  -20.9511 H   0  0  0  0  0  0  0  0  0  0  0  0
   -8.2674    5.5054  -10.3897 C   0  0  0  0  0  0  0  0  0  0  0  0
   -8.3400    5.3487   -8.9964 C   0  0  0  0  0  0  0  0  0  0  0  0
   -8.5923    4.0915   -8.4686 C   0  0  0  0  0  0  0  0  0  0  0  0
   -8.7362    2.9769   -9.2824 C   0  0  0  0  0  0  0  0  0  0  0  0
   -8.6053    3.0782  -10.6483 C   0  0  0  0  0  0  0  0  0  0  0  0
   -8.3404    4.3399  -11.2053 C   0  0  0  0  0  0  0  0  0  0  0  0
   -9.0141    1.7810   -8.4372 C   0  0  0  0  0  0  0  0  0  0  0  0
   -9.4343    2.3410   -7.1274 N   0  0  0  0  0  0  0  0  0  0  0  0
   -8.7955    3.6759   -7.0496 C   0  0  0  0  0  0  0  0  0  0  0  0
   -9.1121    1.7457   -6.3644 H   0  0  0  0  0  0  0  0  0  0  0  0
   -9.1679    8.1845   -9.9341 C   0  0  0  0  0  0  0  0  0  0  0  0
   -8.2778    7.1586  -11.1228 S   0  0  0  0  0  0  0  0  0  0  0  0
 30 31  1  0  0  0
 31 20  1  0  0  0
 20 21  2  0  0  0
 21 22  1  0  0  0
 22 23  2  0  0  0
 23 24  1  0  0  0
 24 25  2  0  0  0
 25  1  1  0  0  0
  1  2  1  0  0  0
  2  3  2  0  0  0
  2  5  1  0  0  0
  5  6  2  0  0  0
  6  7  1  0  0  0
  7  8  1  0  0  0
  7  9  2  0  0  0
  9 16  1  0  0  0
 16 17  1  0  0  0
  9 10  1  0  0  0
 10 11  2  0  0  0
 11 12  1  0  0  0
 12 13  1  0  0  0
 13 14  2  0  0  0
 23 26  1  0  0  0
 26 27  1  0  0  0
 27 28  1  0  0  0
 25 20  1  0  0  0
 14  5  1  0  0  0
 28 22  1  0  0  0
 14 10  1  0  0  0
  1  4  1  0  0  0
 17 18  1  0  0  0
 17 19  1  0  0  0
 12 15  1  0  0  0
 27 29  1  0  0  0
M  END
> <minimizedAffinity>
-7.55916

> <minimizedRMSD>
0.40677

$$$$
P22487


 30 34  0  0  0  0  0  0  0  0999 V2000
   -8.2576    4.1970  -12.9475 N   0  0  0  0  0  0  0  0  0  0  0  0
   -7.1678    4.7430  -13.9019 C   0  0  0  0  0  0  0  0  0  0  0  0
   -6.1686    5.3025  -13.6692 O   0  0  0  0  0  0  0  0  0  0  0  0
   -8.9768    3.6908  -13.3899 H   0  0  0  0  0  0  0  0  0  0  0  0
   -7.5037    4.5130  -15.3234 C   0  0  0  0  0  0  0  0  0  0  0  0
   -8.7966    4.2204  -15.8213 C   0  0  0  0  0  0  0  0  0  0  0  0
   -9.1181    4.1507  -17.2209 C   0  0  0  0  0  0  0  0  0  0  0  0
  -10.3973    3.9069  -17.5439 F   0  0  0  0  0  0  0  0  0  0  0  0
   -8.2112    4.3661  -18.2764 C   0  0  0  0  0  0  0  0  0  0  0  0
   -6.9559    4.6652  -17.7712 C   0  0  0  0  0  0  0  0  0  0  0  0
   -6.6034    4.7277  -16.3714 C   0  0  0  0  0  0  0  0  0  0  0  0
   -5.2577    5.0380  -16.2713 C   0  0  0  0  0  0  0  0  0  0  0  0
   -4.8375    5.2020  -17.5519 N   0  0  0  0  0  0  0  0  0  0  0  0
   -3.6781    5.5277  -18.2131 C   0  0  0  0  0  0  0  0  0  0  0  0
   -3.8997    5.5541  -19.4988 N   0  0  0  0  0  0  0  0  0  0  0  0
   -5.2664    5.2448  -19.6442 N   0  0  0  0  0  0  0  0  0  0  0  0
   -5.8319    5.0102  -18.4507 C   0  0  0  0  0  0  0  0  0  0  0  0
   -5.7420    5.2061  -20.5053 H   0  0  0  0  0  0  0  0  0  0  0  0
   -8.2773    5.5140  -10.8063 C   0  0  0  0  0  0  0  0  0  0  0  0
   -8.3086    5.4386   -9.4011 C   0  0  0  0  0  0  0  0  0  0  0  0
   -8.5357    4.2190   -8.7832 C   0  0  0  0  0  0  0  0  0  0  0  0
   -8.7165    3.0648   -9.5212 C   0  0  0  0  0  0  0  0  0  0  0  0
   -8.6470    3.0887  -10.9010 C   0  0  0  0  0  0  0  0  0  0  0  0
   -8.3871    4.3062  -11.5555 C   0  0  0  0  0  0  0  0  0  0  0  0
   -8.9401    1.9117   -8.6057 C   0  0  0  0  0  0  0  0  0  0  0  0
   -9.0271    2.4807   -7.2352 N   0  0  0  0  0  0  0  0  0  0  0  0
   -8.6581    3.9100   -7.3320 C   0  0  0  0  0  0  0  0  0  0  0  0
   -8.3816    1.9943   -6.6130 H   0  0  0  0  0  0  0  0  0  0  0  0
   -9.0622    8.2382  -10.4059 C   0  0  0  0  0  0  0  0  0  0  0  0
   -8.2874    7.1331  -11.6116 S   0  0  0  0  0  0  0  0  0  0  0  0
 29 30  1  0  0  0
 30 19  1  0  0  0
 19 20  2  0  0  0
 20 21  1  0  0  0
 21 22  2  0  0  0
 22 23  1  0  0  0
 23 24  2  0  0  0
 24  1  1  0  0  0
  1  2  1  0  0  0
  2  3  2  0  0  0
  2  5  1  0  0  0
  5  6  2  0  0  0
  6  7  1  0  0  0
  7  8  1  0  0  0
  7  9  2  0  0  0
  9 10  1  0  0  0
 10 11  1  0  0  0
 11 12  2  0  0  0
 12 13  1  0  0  0
 13 14  1  0  0  0
 14 15  2  0  0  0
 15 16  1  0  0  0
 16 17  1  0  0  0
 22 25  1  0  0  0
 25 26  1  0  0  0
 26 27  1  0  0  0
 24 19  1  0  0  0
 11  5  1  0  0  0
 17 13  1  0  0  0
 27 21  1  0  0  0
 17 10  2  0  0  0
  1  4  1  0  0  0
 16 18  1  0  0  0
 26 28  1  0  0  0
M  END
> <minimizedAffinity>
-9.80031

> <minimizedRMSD>
0.27308

$$$$
P22488


 31 35  0  0  0  0  0  0  0  0999 V2000
   -8.0100    5.0370  -12.4465 N   0  0  0  0  0  0  0  0  0  0  0  0
   -6.9816    4.5682  -13.5161 C   0  0  0  0  0  0  0  0  0  0  0  0
   -6.1355    3.7700  -13.4505 O   0  0  0  0  0  0  0  0  0  0  0  0
   -8.6812    5.6789  -12.7732 H   0  0  0  0  0  0  0  0  0  0  0  0
   -7.3847    5.3331  -14.7843 C   0  0  0  0  0  0  0  0  0  0  0  0
   -8.7512    4.8068  -15.2915 C   0  0  0  0  0  0  0  0  0  0  0  0
   -8.7809    4.0784  -16.6367 C   0  0  0  0  0  0  0  0  0  0  0  0
  -10.0192    4.2105  -17.1869 F   0  0  0  0  0  0  0  0  0  0  0  0
   -7.7476    4.5083  -17.6684 C   0  0  0  0  0  0  0  0  0  0  0  0
   -6.3779    4.5584  -17.0169 C   0  0  0  0  0  0  0  0  0  0  0  0
   -6.3501    5.5390  -15.8829 C   0  0  0  0  0  0  0  0  0  0  0  0
   -4.8753    5.5985  -15.5536 C   0  0  0  0  0  0  0  0  0  0  0  0
   -4.2798    5.6999  -16.9066 N   0  0  0  0  0  0  0  0  0  0  0  0
   -3.8580    7.2002  -17.4975 S   0  0  0  0  0  0  0  0  0  0  0  0
   -3.4971    6.8313  -19.2373 C   0  0  0  0  0  0  0  0  0  0  0  0
   -4.0798    5.6075  -19.7547 N   0  0  0  0  0  0  0  0  0  0  0  0
   -5.3730    5.3601  -19.1344 C   0  0  0  0  0  0  0  0  0  0  0  0
   -5.1682    4.8947  -17.7771 N   0  0  0  0  0  0  0  0  0  0  0  0
   -3.4554    4.8265  -19.5533 H   0  0  0  0  0  0  0  0  0  0  0  0
   -8.1984    5.7710  -10.1788 C   0  0  0  0  0  0  0  0  0  0  0  0
   -8.3931    5.4874   -8.8257 C   0  0  0  0  0  0  0  0  0  0  0  0
   -8.6420    4.1747   -8.4552 C   0  0  0  0  0  0  0  0  0  0  0  0
   -8.6381    3.1420   -9.3854 C   0  0  0  0  0  0  0  0  0  0  0  0
   -8.3250    3.3713  -10.7158 C   0  0  0  0  0  0  0  0  0  0  0  0
   -8.1346    4.6971  -11.1073 C   0  0  0  0  0  0  0  0  0  0  0  0
   -9.0770    1.8802   -8.7219 C   0  0  0  0  0  0  0  0  0  0  0  0
   -9.2466    2.1968   -7.2784 N   0  0  0  0  0  0  0  0  0  0  0  0
   -8.9876    3.6396   -7.1085 C   0  0  0  0  0  0  0  0  0  0  0  0
   -8.5838    1.6560   -6.7228 H   0  0  0  0  0  0  0  0  0  0  0  0
   -9.3189    8.3735  -10.0535 C   0  0  0  0  0  0  0  0  0  0  0  0
   -7.9712    7.4489  -10.8249 S   0  0  0  0  0  0  0  0  0  0  0  0
 30 31  1  0  0  0
 31 20  1  0  0  0
 20 21  2  0  0  0
 21 22  1  0  0  0
 22 23  2  0  0  0
 23 24  1  0  0  0
 24 25  2  0  0  0
 25  1  1  0  0  0
  1  2  1  0  0  0
  2  3  2  0  0  0
  5  2  1  0  0  0
  5  6  1  0  0  0
  6  7  1  0  0  0
  7  8  1  0  0  0
  7  9  1  0  0  0
 10  9  1  0  0  0
 10 11  1  0  0  0
 11 12  1  0  0  0
 12 13  1  0  0  0
 13 14  1  0  0  0
 14 15  1  0  0  0
 15 16  1  0  0  0
 16 17  1  0  0  0
 17 18  1  0  0  0
 23 26  1  0  0  0
 26 27  1  0  0  0
 27 28  1  0  0  0
 25 20  1  0  0  0
 11  5  1  0  0  0
 18 13  1  0  0  0
 28 22  1  0  0  0
 18 10  1  0  0  0
  1  4  1  0  0  0
 16 19  1  0  0  0
 27 29  1  0  0  0
M  END
> <minimizedAffinity>
-8.41512

> <minimizedRMSD>
0.36926

$$$$
P22490


 33 37  0  0  0  0  0  0  0  0999 V2000
   -7.5174    4.4391  -15.4618 C   0  0  0  0  0  0  0  0  0  0  0  0
   -8.8054    4.1141  -15.9119 C   0  0  0  0  0  0  0  0  0  0  0  0
   -9.1017    4.1513  -17.2716 C   0  0  0  0  0  0  0  0  0  0  0  0
  -10.3469    3.8602  -17.6728 F   0  0  0  0  0  0  0  0  0  0  0  0
   -8.1739    4.5830  -18.2185 C   0  0  0  0  0  0  0  0  0  0  0  0
   -6.8989    4.9223  -17.7490 C   0  0  0  0  0  0  0  0  0  0  0  0
   -6.5375    4.7795  -16.4139 C   0  0  0  0  0  0  0  0  0  0  0  0
   -5.1646    5.1073  -16.3817 C   0  0  0  0  0  0  0  0  0  0  0  0
   -4.7106    5.5044  -17.5675 N   0  0  0  0  0  0  0  0  0  0  0  0
   -5.8199    5.5641  -18.3161 N   0  0  0  0  0  0  0  0  0  0  0  0
   -8.3104    4.2846  -13.0618 N   0  0  0  0  0  0  0  0  0  0  0  0
   -7.1855    4.6920  -14.0353 C   0  0  0  0  0  0  0  0  0  0  0  0
   -6.1676    5.2273  -13.8343 O   0  0  0  0  0  0  0  0  0  0  0  0
   -9.1121    3.9091  -13.4925 H   0  0  0  0  0  0  0  0  0  0  0  0
   -8.2693    5.5837  -10.9331 C   0  0  0  0  0  0  0  0  0  0  0  0
   -8.2745    5.5275   -9.5294 C   0  0  0  0  0  0  0  0  0  0  0  0
   -8.4808    4.3100   -8.9035 C   0  0  0  0  0  0  0  0  0  0  0  0
   -8.6375    3.1381   -9.6305 C   0  0  0  0  0  0  0  0  0  0  0  0
   -8.5855    3.1424  -11.0082 C   0  0  0  0  0  0  0  0  0  0  0  0
   -8.3770    4.3618  -11.6676 C   0  0  0  0  0  0  0  0  0  0  0  0
   -8.8254    2.0012   -8.6844 C   0  0  0  0  0  0  0  0  0  0  0  0
   -9.2105    2.6434   -7.4012 N   0  0  0  0  0  0  0  0  0  0  0  0
   -8.6112    3.9974   -7.4499 C   0  0  0  0  0  0  0  0  0  0  0  0
   -8.8388    2.1158   -6.6113 H   0  0  0  0  0  0  0  0  0  0  0  0
   -9.0501    8.3143  -10.5539 C   0  0  0  0  0  0  0  0  0  0  0  0
   -8.3210    7.1904  -11.7695 S   0  0  0  0  0  0  0  0  0  0  0  0
   -5.9236    6.5527  -19.3102 N   0  0  0  0  0  0  0  0  0  0  0  0
   -6.2223    7.4300  -18.8842 H   0  0  0  0  0  0  0  0  0  0  0  0
   -4.6297    6.7461  -19.9593 C   0  0  0  0  0  0  0  0  0  0  0  0
   -4.1899    8.2302  -19.8754 C   0  0  0  0  0  0  0  0  0  0  0  0
   -5.0121    8.5022  -21.0830 N   0  0  0  0  0  0  0  0  0  0  0  0
   -4.8791    7.0710  -21.4527 C   0  0  0  0  0  0  0  0  0  0  0  0
   -4.5858    9.1499  -21.7458 H   0  0  0  0  0  0  0  0  0  0  0  0
 25 26  1  0  0  0
 26 15  1  0  0  0
 15 16  2  0  0  0
 16 17  1  0  0  0
 17 18  2  0  0  0
 18 19  1  0  0  0
 19 20  2  0  0  0
 20 11  1  0  0  0
 11 12  1  0  0  0
 12 13  2  0  0  0
 12  1  1  0  0  0
  1  2  2  0  0  0
  2  3  1  0  0  0
  3  4  1  0  0  0
  3  5  2  0  0  0
  5  6  1  0  0  0
  6  7  2  0  0  0
  7  8  1  0  0  0
  8  9  2  0  0  0
  9 10  1  0  0  0
 10 27  1  0  0  0
 27 29  1  0  0  0
 29 30  1  0  0  0
 30 31  1  0  0  0
 31 32  1  0  0  0
 18 21  1  0  0  0
 21 22  1  0  0  0
 22 23  1  0  0  0
 20 15  1  0  0  0
  7  1  1  0  0  0
 32 29  1  0  0  0
 23 17  1  0  0  0
 10  6  1  0  0  0
 11 14  1  0  0  0
 27 28  1  0  0  0
 31 33  1  0  0  0
 22 24  1  0  0  0
M  END
> <minimizedAffinity>
-8.72890

> <minimizedRMSD>
0.80097

$$$$
P22491


 32 36  0  0  0  0  0  0  0  0999 V2000
   -8.1809    4.2386  -12.6508 N   0  0  0  0  0  0  0  0  0  0  0  0
   -7.0158    4.7351  -13.5412 C   0  0  0  0  0  0  0  0  0  0  0  0
   -6.0292    5.2929  -13.2561 O   0  0  0  0  0  0  0  0  0  0  0  0
   -8.9441    3.8599  -13.1441 H   0  0  0  0  0  0  0  0  0  0  0  0
   -7.2730    4.5395  -14.9979 C   0  0  0  0  0  0  0  0  0  0  0  0
   -8.5476    4.2676  -15.5042 C   0  0  0  0  0  0  0  0  0  0  0  0
   -8.7690    4.2873  -16.8856 C   0  0  0  0  0  0  0  0  0  0  0  0
  -10.0085    4.0699  -17.3448 F   0  0  0  0  0  0  0  0  0  0  0  0
   -7.7565    4.6082  -17.7874 C   0  0  0  0  0  0  0  0  0  0  0  0
   -6.5037    4.9130  -17.2836 C   0  0  0  0  0  0  0  0  0  0  0  0
   -6.2598    4.8335  -15.9086 C   0  0  0  0  0  0  0  0  0  0  0  0
   -4.8340    5.1981  -15.6365 C   0  0  0  0  0  0  0  0  0  0  0  0
   -4.1732    5.2127  -16.9681 N   0  0  0  0  0  0  0  0  0  0  0  0
   -5.2817    5.4791  -17.9443 C   0  0  0  0  0  0  0  0  0  0  0  0
   -4.8808    5.0224  -19.3392 C   0  0  0  0  0  0  0  0  0  0  0  0
   -4.4470    6.2781  -20.0997 C   0  0  0  0  0  0  0  0  0  0  0  0
   -4.3417    7.3547  -19.1060 N   0  0  0  0  0  0  0  0  0  0  0  0
   -5.4201    6.9963  -18.1661 C   0  0  0  0  0  0  0  0  0  0  0  0
   -3.7335    4.3128  -17.1608 H   0  0  0  0  0  0  0  0  0  0  0  0
   -4.5046    8.2686  -19.5286 H   0  0  0  0  0  0  0  0  0  0  0  0
   -8.2766    5.4068  -10.4318 C   0  0  0  0  0  0  0  0  0  0  0  0
   -8.3786    5.2550   -9.0362 C   0  0  0  0  0  0  0  0  0  0  0  0
   -8.6313    4.0022   -8.5046 C   0  0  0  0  0  0  0  0  0  0  0  0
   -8.7404    2.8837   -9.3161 C   0  0  0  0  0  0  0  0  0  0  0  0
   -8.5832    2.9810  -10.6846 C   0  0  0  0  0  0  0  0  0  0  0  0
   -8.3262    4.2405  -11.2547 C   0  0  0  0  0  0  0  0  0  0  0  0
   -9.0188    1.6910   -8.4634 C   0  0  0  0  0  0  0  0  0  0  0  0
   -9.4814    2.2542   -7.1676 N   0  0  0  0  0  0  0  0  0  0  0  0
   -8.8669    3.5992   -7.0869 C   0  0  0  0  0  0  0  0  0  0  0  0
   -9.1681    1.6707   -6.3919 H   0  0  0  0  0  0  0  0  0  0  0  0
   -9.1126    8.0958   -9.9062 C   0  0  0  0  0  0  0  0  0  0  0  0
   -8.2880    7.0687  -11.1476 S   0  0  0  0  0  0  0  0  0  0  0  0
 31 32  1  0  0  0
 32 21  1  0  0  0
 21 22  2  0  0  0
 22 23  1  0  0  0
 23 24  2  0  0  0
 24 25  1  0  0  0
 25 26  2  0  0  0
 26  1  1  0  0  0
  1  2  1  0  0  0
  2  3  2  0  0  0
  2  5  1  0  0  0
  5  6  2  0  0  0
  6  7  1  0  0  0
  7  8  1  0  0  0
  7  9  2  0  0  0
  9 10  1  0  0  0
 10 11  2  0  0  0
 11 12  1  0  0  0
 12 13  1  0  0  0
 13 14  1  0  0  0
 14 15  1  0  0  0
 15 16  1  0  0  0
 16 17  1  0  0  0
 17 18  1  0  0  0
 24 27  1  0  0  0
 27 28  1  0  0  0
 28 29  1  0  0  0
 26 21  1  0  0  0
 11  5  1  0  0  0
 18 14  1  0  0  0
 29 23  1  0  0  0
 14 10  1  0  0  0
  1  4  1  0  0  0
 13 19  1  0  0  0
 17 20  1  0  0  0
 28 30  1  0  0  0
M  END
> <minimizedAffinity>
-9.48235

> <minimizedRMSD>
0.40802

$$$$
P22511


 27 30  0  0  0  0  0  0  0  0999 V2000
   -7.4388    5.3128  -13.3424 C   0  0  0  0  0  0  0  0  0  0  0  0
   -7.3876    6.4750  -12.9555 O   0  0  0  0  0  0  0  0  0  0  0  0
   -9.8423    3.9444  -17.5955 C   0  0  0  0  0  0  0  0  0  0  0  0
   -8.6244    4.3370  -16.8343 C   0  0  0  0  0  0  0  0  0  0  0  0
   -8.6453    4.5921  -15.4594 C   0  0  0  0  0  0  0  0  0  0  0  0
   -7.4867    5.0106  -14.7934 C   0  0  0  0  0  0  0  0  0  0  0  0
   -6.3193    5.1433  -15.5576 C   0  0  0  0  0  0  0  0  0  0  0  0
   -5.0529    5.5048  -15.1774 N   0  0  0  0  0  0  0  0  0  0  0  0
   -4.2025    5.4810  -16.2502 C   0  0  0  0  0  0  0  0  0  0  0  0
   -2.7813    5.8266  -16.0694 C   0  0  0  0  0  0  0  0  0  0  0  0
   -4.9344    5.1186  -17.3675 C   0  0  0  0  0  0  0  0  0  0  0  0
   -4.4702    5.0023  -18.7754 C   0  0  0  0  0  0  0  0  0  0  0  0
   -6.2646    4.8714  -16.9186 C   0  0  0  0  0  0  0  0  0  0  0  0
   -7.4329    4.4478  -17.5601 C   0  0  0  0  0  0  0  0  0  0  0  0
   -4.7911    5.7479  -14.2601 H   0  0  0  0  0  0  0  0  0  0  0  0
   -7.3190    4.1805  -12.3579 C   0  0  0  0  0  0  0  0  0  0  0  0
   -6.6797    3.2031  -12.7226 O   0  0  0  0  0  0  0  0  0  0  0  0
   -7.8262    4.2062  -10.9749 C   0  0  0  0  0  0  0  0  0  0  0  0
   -7.8409    5.3518  -10.1625 C   0  0  0  0  0  0  0  0  0  0  0  0
   -8.2937    5.2678   -8.8381 C   0  0  0  0  0  0  0  0  0  0  0  0
   -8.7388    4.0427   -8.3650 C   0  0  0  0  0  0  0  0  0  0  0  0
   -8.7409    2.9154   -9.1749 C   0  0  0  0  0  0  0  0  0  0  0  0
   -8.2876    2.9772  -10.4723 C   0  0  0  0  0  0  0  0  0  0  0  0
   -9.2458    1.7404   -8.4106 C   0  0  0  0  0  0  0  0  0  0  0  0
   -9.8863    2.3262   -7.2055 N   0  0  0  0  0  0  0  0  0  0  0  0
   -9.2452    3.6498   -7.0167 C   0  0  0  0  0  0  0  0  0  0  0  0
   -9.7241    1.7327   -6.3920 H   0  0  0  0  0  0  0  0  0  0  0  0
  3  4  1  0  0  0
  4  5  2  0  0  0
  5  6  1  0  0  0
  6  1  1  0  0  0
  1  2  2  0  0  0
  1 16  1  0  0  0
 16 17  2  0  0  0
 16 18  1  0  0  0
 18 19  2  0  0  0
 19 20  1  0  0  0
 20 21  2  0  0  0
 21 22  1  0  0  0
 22 23  2  0  0  0
 22 24  1  0  0  0
 24 25  1  0  0  0
 25 26  1  0  0  0
  6  7  2  0  0  0
  7  8  1  0  0  0
  8  9  1  0  0  0
  9 10  1  0  0  0
  9 11  2  0  0  0
 11 12  1  0  0  0
 11 13  1  0  0  0
 13 14  2  0  0  0
 14  4  1  0  0  0
 23 18  1  0  0  0
 13  7  1  0  0  0
 26 21  1  0  0  0
 25 27  1  0  0  0
  8 15  1  0  0  0
M  END
> <minimizedAffinity>
-8.99983

> <minimizedRMSD>
0.67482

$$$$
P22516


 28 31  0  0  0  0  0  0  0  0999 V2000
   -2.9515    5.8926  -16.7817 C   0  0  0  0  0  0  0  0  0  0  0  0
   -4.3880    5.5234  -16.6969 C   0  0  0  0  0  0  0  0  0  0  0  0
   -5.0189    5.4894  -15.4794 N   0  0  0  0  0  0  0  0  0  0  0  0
   -6.3325    5.1056  -15.6131 C   0  0  0  0  0  0  0  0  0  0  0  0
   -7.3230    4.9156  -14.6336 C   0  0  0  0  0  0  0  0  0  0  0  0
   -8.5851    4.4930  -15.0683 C   0  0  0  0  0  0  0  0  0  0  0  0
   -8.8391    4.2622  -16.4197 C   0  0  0  0  0  0  0  0  0  0  0  0
   -7.8312    4.4421  -17.3728 C   0  0  0  0  0  0  0  0  0  0  0  0
   -6.5496    4.8750  -16.9682 C   0  0  0  0  0  0  0  0  0  0  0  0
   -5.3172    5.1486  -17.6610 C   0  0  0  0  0  0  0  0  0  0  0  0
   -4.5877    5.7106  -14.6224 H   0  0  0  0  0  0  0  0  0  0  0  0
   -5.1469    5.0326  -19.1440 C   0  0  0  0  0  0  0  0  0  0  0  0
   -3.8951    4.4685  -19.5371 O   0  0  0  0  0  0  0  0  0  0  0  0
   -3.1731    5.0419  -19.2356 H   0  0  0  0  0  0  0  0  0  0  0  0
   -6.9925    5.1587  -13.2065 C   0  0  0  0  0  0  0  0  0  0  0  0
   -6.5896    6.2623  -12.8512 O   0  0  0  0  0  0  0  0  0  0  0  0
   -7.0190    4.0193  -12.2195 C   0  0  0  0  0  0  0  0  0  0  0  0
   -6.4467    2.9902  -12.5450 O   0  0  0  0  0  0  0  0  0  0  0  0
   -7.6216    4.0810  -10.8728 C   0  0  0  0  0  0  0  0  0  0  0  0
   -7.7248    5.2522  -10.1054 C   0  0  0  0  0  0  0  0  0  0  0  0
   -8.2459    5.1988   -8.8043 C   0  0  0  0  0  0  0  0  0  0  0  0
   -8.6575    3.9739   -8.3006 C   0  0  0  0  0  0  0  0  0  0  0  0
   -8.5913    2.8252   -9.0710 C   0  0  0  0  0  0  0  0  0  0  0  0
   -8.0819    2.8592  -10.3508 C   0  0  0  0  0  0  0  0  0  0  0  0
   -9.1348    1.6642   -8.3180 C   0  0  0  0  0  0  0  0  0  0  0  0
   -9.3695    2.1537   -6.9351 N   0  0  0  0  0  0  0  0  0  0  0  0
   -9.2229    3.6282   -6.9659 C   0  0  0  0  0  0  0  0  0  0  0  0
   -8.6842    1.7469   -6.2986 H   0  0  0  0  0  0  0  0  0  0  0  0
  1  2  1  0  0  0
  2  3  1  0  0  0
  3  4  1  0  0  0
  4  5  2  0  0  0
  5 15  1  0  0  0
 15 16  2  0  0  0
 15 17  1  0  0  0
 17 18  2  0  0  0
 17 19  1  0  0  0
 19 20  2  0  0  0
 20 21  1  0  0  0
 21 22  2  0  0  0
 22 23  1  0  0  0
 23 24  2  0  0  0
 23 25  1  0  0  0
 25 26  1  0  0  0
 26 27  1  0  0  0
  5  6  1  0  0  0
  6  7  2  0  0  0
  7  8  1  0  0  0
  8  9  2  0  0  0
  9 10  1  0  0  0
 10 12  1  0  0  0
 12 13  1  0  0  0
 10  2  2  0  0  0
  9  4  1  0  0  0
 24 19  1  0  0  0
 27 22  1  0  0  0
  3 11  1  0  0  0
 26 28  1  0  0  0
 13 14  1  0  0  0
M  END
> <minimizedAffinity>
-8.31517

> <minimizedRMSD>
0.79137

$$$$
P22528


 31 34  0  0  0  0  0  0  0  0999 V2000
   -5.6925    5.3043  -15.2065 C   0  0  0  0  0  0  0  0  0  0  0  0
   -5.6561    6.7825  -14.7867 C   0  0  0  0  0  0  0  0  0  0  0  0
   -6.9738    4.8799  -15.9261 C   0  0  0  0  0  0  0  0  0  0  0  0
   -8.2687    4.6365  -15.4592 C   0  0  0  0  0  0  0  0  0  0  0  0
   -9.2660    4.2065  -16.3582 C   0  0  0  0  0  0  0  0  0  0  0  0
   -8.9890    4.0474  -17.7165 C   0  0  0  0  0  0  0  0  0  0  0  0
   -7.7262    4.3624  -18.2034 C   0  0  0  0  0  0  0  0  0  0  0  0
   -6.7412    4.7902  -17.3171 C   0  0  0  0  0  0  0  0  0  0  0  0
   -5.3791    5.3310  -17.6617 C   0  0  0  0  0  0  0  0  0  0  0  0
   -4.6770    4.7649  -18.8783 C   0  0  0  0  0  0  0  0  0  0  0  0
   -4.6448    5.0364  -16.3500 C   0  0  0  0  0  0  0  0  0  0  0  0
   -3.3192    5.7909  -16.2115 C   0  0  0  0  0  0  0  0  0  0  0  0
   -8.7409    5.0207  -14.1044 C   0  0  0  0  0  0  0  0  0  0  0  0
   -9.5965    5.8095  -14.0150 O   0  0  0  0  0  0  0  0  0  0  0  0
   -8.0004    4.2182  -13.0111 N   0  0  0  0  0  0  0  0  0  0  0  0
   -7.2557    3.6644  -13.3396 H   0  0  0  0  0  0  0  0  0  0  0  0
   -8.2149    4.1508  -11.6367 C   0  0  0  0  0  0  0  0  0  0  0  0
   -8.1401    5.3014  -10.8352 C   0  0  0  0  0  0  0  0  0  0  0  0
   -8.3455    5.2271   -9.4541 C   0  0  0  0  0  0  0  0  0  0  0  0
   -8.6241    3.9918   -8.8985 C   0  0  0  0  0  0  0  0  0  0  0  0
   -8.7121    2.8550   -9.6900 C   0  0  0  0  0  0  0  0  0  0  0  0
   -8.5138    2.9139  -11.0612 C   0  0  0  0  0  0  0  0  0  0  0  0
   -9.0308    1.6759   -8.8374 C   0  0  0  0  0  0  0  0  0  0  0  0
   -9.0828    2.1677   -7.4345 N   0  0  0  0  0  0  0  0  0  0  0  0
   -8.8760    3.6330   -7.4760 C   0  0  0  0  0  0  0  0  0  0  0  0
   -8.3474    1.7266   -6.8821 H   0  0  0  0  0  0  0  0  0  0  0  0
   -5.2307    4.4139  -14.1880 O   0  0  0  0  0  0  0  0  0  0  0  0
   -4.7091    4.9669  -12.9834 C   0  0  0  0  0  0  0  0  0  0  0  0
   -4.5596    3.8670  -11.9233 C   0  0  0  0  0  0  0  0  0  0  0  0
   -5.0832    1.6376  -11.2471 C   0  0  0  0  0  0  0  0  0  0  0  0
   -5.1796    2.6235  -12.2689 O   0  0  0  0  0  0  0  0  0  0  0  0
 30 31  1  0  0  0
 31 29  1  0  0  0
 29 28  1  0  0  0
 28 27  1  0  0  0
 27  1  1  0  0  0
  1  2  1  0  0  0
  1  3  1  0  0  0
  3  4  2  0  0  0
  4 13  1  0  0  0
 13 14  2  0  0  0
 13 15  1  0  0  0
 15 17  1  0  0  0
 17 18  2  0  0  0
 18 19  1  0  0  0
 19 20  2  0  0  0
 20 21  1  0  0  0
 21 22  2  0  0  0
 21 23  1  0  0  0
 23 24  1  0  0  0
 24 25  1  0  0  0
  4  5  1  0  0  0
  5  6  2  0  0  0
  6  7  1  0  0  0
  7  8  2  0  0  0
  8  9  1  0  0  0
  9 10  1  0  0  0
  9 11  1  0  0  0
 11 12  1  0  0  0
 11  1  1  0  0  0
  8  3  1  0  0  0
 22 17  1  0  0  0
 25 20  1  0  0  0
 15 16  1  0  0  0
 24 26  1  0  0  0
M  END
> <minimizedAffinity>
-9.42358

> <minimizedRMSD>
1.10888

$$$$
P22532


 36 39  0  0  0  0  0  0  0  0999 V2000
   -7.3736    4.8153  -13.3423 C   0  0  0  0  0  0  0  0  0  0  0  0
   -7.8934    6.1144  -13.2281 O   0  0  0  0  0  0  0  0  0  0  0  0
   -8.7765    6.1457  -13.6282 H   0  0  0  0  0  0  0  0  0  0  0  0
   -2.7615    5.7701  -16.4533 C   0  0  0  0  0  0  0  0  0  0  0  0
   -4.1962    5.3976  -16.5304 C   0  0  0  0  0  0  0  0  0  0  0  0
   -4.9632    5.2732  -15.3991 N   0  0  0  0  0  0  0  0  0  0  0  0
   -6.2543    4.8859  -15.7071 C   0  0  0  0  0  0  0  0  0  0  0  0
   -7.3713    4.6274  -14.8621 C   0  0  0  0  0  0  0  0  0  0  0  0
   -8.5846    4.3904  -15.5490 C   0  0  0  0  0  0  0  0  0  0  0  0
   -8.6561    4.3607  -16.9370 C   0  0  0  0  0  0  0  0  0  0  0  0
  -10.1799    4.2031  -17.6953 Cl  0  0  0  0  0  0  0  0  0  0  0  0
   -7.5316    4.5509  -17.7274 C   0  0  0  0  0  0  0  0  0  0  0  0
   -6.3083    4.8361  -17.1030 C   0  0  0  0  0  0  0  0  0  0  0  0
   -5.0081    5.1372  -17.6178 C   0  0  0  0  0  0  0  0  0  0  0  0
   -4.6258    5.1813  -19.0556 C   0  0  0  0  0  0  0  0  0  0  0  0
   -4.6361    5.4387  -14.4854 H   0  0  0  0  0  0  0  0  0  0  0  0
   -5.8878    4.5587  -12.7249 C   0  0  0  0  0  0  0  0  0  0  0  0
   -5.1846    5.4384  -12.3959 O   0  0  0  0  0  0  0  0  0  0  0  0
   -5.6554    3.0142  -12.6993 N   0  0  0  0  0  0  0  0  0  0  0  0
   -6.3774    2.4818  -13.1049 H   0  0  0  0  0  0  0  0  0  0  0  0
   -4.5591    2.2447  -12.1801 C   0  0  0  0  0  0  0  0  0  0  0  0
   -3.2748    2.4387  -12.9670 C   0  0  0  0  0  0  0  0  0  0  0  0
   -2.4691    1.1551  -12.9956 C   0  0  0  0  0  0  0  0  0  0  0  0
   -1.1653    1.4577  -13.2389 F   0  0  0  0  0  0  0  0  0  0  0  0
   -8.3603    3.9810  -12.6411 N   0  0  0  0  0  0  0  0  0  0  0  0
   -8.9820    3.4182  -13.1568 H   0  0  0  0  0  0  0  0  0  0  0  0
   -8.4191    3.9844  -11.2337 C   0  0  0  0  0  0  0  0  0  0  0  0
   -8.2245    5.1494  -10.4531 C   0  0  0  0  0  0  0  0  0  0  0  0
   -8.3558    5.1445   -9.0605 C   0  0  0  0  0  0  0  0  0  0  0  0
   -8.6692    3.9545   -8.4425 C   0  0  0  0  0  0  0  0  0  0  0  0
   -8.8367    2.7937   -9.1818 C   0  0  0  0  0  0  0  0  0  0  0  0
   -8.7426    2.7949  -10.5671 C   0  0  0  0  0  0  0  0  0  0  0  0
   -9.0572    1.6508   -8.2519 C   0  0  0  0  0  0  0  0  0  0  0  0
   -9.2916    2.2481   -6.9108 N   0  0  0  0  0  0  0  0  0  0  0  0
   -8.8675    3.6636   -6.9962 C   0  0  0  0  0  0  0  0  0  0  0  0
   -8.7406    1.7578   -6.2063 H   0  0  0  0  0  0  0  0  0  0  0  0
  4  5  1  0  0  0
  5  6  1  0  0  0
  6  7  1  0  0  0
  7  8  2  0  0  0
  8  1  1  0  0  0
  1  2  1  0  0  0
  1 25  1  0  0  0
 25 27  1  0  0  0
 27 28  2  0  0  0
 28 29  1  0  0  0
 29 30  2  0  0  0
 30 31  1  0  0  0
 31 32  2  0  0  0
 31 33  1  0  0  0
 33 34  1  0  0  0
 34 35  1  0  0  0
  1 17  1  0  0  0
 17 18  2  0  0  0
 17 19  1  0  0  0
 19 21  1  0  0  0
 21 22  1  0  0  0
 22 23  1  0  0  0
 23 24  1  0  0  0
  8  9  1  0  0  0
  9 10  2  0  0  0
 10 11  1  0  0  0
 10 12  1  0  0  0
 12 13  2  0  0  0
 13 14  1  0  0  0
 14 15  1  0  0  0
 14  5  2  0  0  0
 13  7  1  0  0  0
 32 27  1  0  0  0
 35 30  1  0  0  0
  6 16  1  0  0  0
  2  3  1  0  0  0
 25 26  1  0  0  0
 34 36  1  0  0  0
 19 20  1  0  0  0
M  END
> <minimizedAffinity>
-9.40131

> <minimizedRMSD>
0.38928

$$$$
P22554


 39 41  0  0  0  0  0  0  0  0999 V2000
   -7.5960    5.0923  -13.2209 C   0  0  0  0  0  0  0  0  0  0  0  0
   -8.8444    6.0477  -13.4477 C   0  0  0  0  0  0  0  0  0  0  0  0
   -9.7995    5.7023  -14.0304 O   0  0  0  0  0  0  0  0  0  0  0  0
   -8.5317    7.3961  -12.7311 N   0  0  0  0  0  0  0  0  0  0  0  0
   -7.6776    7.4147  -12.2418 H   0  0  0  0  0  0  0  0  0  0  0  0
   -9.2938    8.6264  -12.6683 C   0  0  0  0  0  0  0  0  0  0  0  0
   -8.4336    9.8645  -12.4513 C   0  0  0  0  0  0  0  0  0  0  0  0
   -7.7913    9.7754  -11.2574 F   0  0  0  0  0  0  0  0  0  0  0  0
   -7.4670    9.9409  -13.4025 F   0  0  0  0  0  0  0  0  0  0  0  0
   -8.0091    3.8538  -12.5189 N   0  0  0  0  0  0  0  0  0  0  0  0
   -8.1538    3.0245  -13.0293 H   0  0  0  0  0  0  0  0  0  0  0  0
   -8.1947    3.8617  -11.1236 C   0  0  0  0  0  0  0  0  0  0  0  0
   -7.8425    4.9374  -10.2832 C   0  0  0  0  0  0  0  0  0  0  0  0
   -8.0922    4.9303   -8.9059 C   0  0  0  0  0  0  0  0  0  0  0  0
   -8.6142    3.7873   -8.3495 C   0  0  0  0  0  0  0  0  0  0  0  0
   -8.8613    2.6724   -9.1333 C   0  0  0  0  0  0  0  0  0  0  0  0
   -8.6687    2.6949  -10.5088 C   0  0  0  0  0  0  0  0  0  0  0  0
   -9.3751    1.5760   -8.2683 C   0  0  0  0  0  0  0  0  0  0  0  0
   -9.2474    2.0524   -6.8649 N   0  0  0  0  0  0  0  0  0  0  0  0
   -9.0094    3.5096   -6.9429 C   0  0  0  0  0  0  0  0  0  0  0  0
   -8.4631    1.5903   -6.4048 H   0  0  0  0  0  0  0  0  0  0  0  0
   -6.8781    4.7835  -14.5969 C   0  0  0  0  0  0  0  0  0  0  0  0
   -5.5305    5.5896  -14.5793 C   0  0  0  0  0  0  0  0  0  0  0  0
   -4.9874    6.2438  -15.8527 C   0  0  0  0  0  0  0  0  0  0  0  0
   -3.8100    5.5083  -16.4855 C   0  0  0  0  0  0  0  0  0  0  0  0
   -2.6847    5.4103  -15.4513 C   0  0  0  0  0  0  0  0  0  0  0  0
   -3.2134    5.2896  -14.0170 C   0  0  0  0  0  0  0  0  0  0  0  0
   -2.3144    4.4094  -13.1608 C   0  0  0  0  0  0  0  0  0  0  0  0
   -4.5308    4.7338  -13.9935 O   0  0  0  0  0  0  0  0  0  0  0  0
   -3.4237    6.1883  -17.8119 C   0  0  0  0  0  0  0  0  0  0  0  0
   -3.7613    5.4088  -19.0082 N   0  0  0  0  0  0  0  0  0  0  0  0
   -3.0256    5.9424  -20.1426 N   0  0  0  0  0  0  0  0  0  0  0  0
   -4.7631    5.4750  -19.1884 H   0  0  0  0  0  0  0  0  0  0  0  0
   -2.0242    5.8752  -19.9604 H   0  0  0  0  0  0  0  0  0  0  0  0
   -3.2806    6.9198  -20.2839 H   0  0  0  0  0  0  0  0  0  0  0  0
   -7.8505    5.0263  -15.7651 C   0  0  0  0  0  0  0  0  0  0  0  0
   -7.2007    4.4840  -18.2765 C   0  0  0  0  0  0  0  0  0  0  0  0
   -7.8754    4.1030  -16.9869 C   0  0  0  0  0  0  0  0  0  0  0  0
   -9.5807    3.7912  -17.3994 Cl  0  0  0  0  0  0  0  0  0  0  0  0
 38 37  1  0  0  0
 38 39  1  0  0  0
 38 36  1  0  0  0
 22 36  1  0  0  0
 22 23  1  0  0  0
 23 24  1  0  0  0
 24 25  1  0  0  0
 25 30  1  0  0  0
 30 31  1  0  0  0
 31 32  1  0  0  0
 25 26  1  0  0  0
 26 27  1  0  0  0
 27 28  1  0  0  0
 27 29  1  0  0  0
 22  1  1  0  0  0
  1 10  1  0  0  0
 10 12  1  0  0  0
 12 13  2  0  0  0
 13 14  1  0  0  0
 14 15  2  0  0  0
 15 16  1  0  0  0
 16 17  2  0  0  0
 16 18  1  0  0  0
 18 19  1  0  0  0
 19 20  1  0  0  0
  1  2  1  0  0  0
  2  3  2  0  0  0
  2  4  1  0  0  0
  4  6  1  0  0  0
  6  7  1  0  0  0
  7  8  1  0  0  0
  7  9  1  0  0  0
 29 23  1  0  0  0
 17 12  1  0  0  0
 20 15  1  0  0  0
 31 33  1  0  0  0
 32 34  1  0  0  0
 32 35  1  0  0  0
 10 11  1  0  0  0
 19 21  1  0  0  0
  4  5  1  0  0  0
M  END
> <minimizedAffinity>
-7.19121

> <minimizedRMSD>
1.37323

$$$$
P22555


 39 41  0  0  0  0  0  0  0  0999 V2000
   -7.8230    5.0580  -13.4354 C   0  0  0  0  0  0  0  0  0  0  0  0
   -8.4265    6.5004  -13.4822 C   0  0  0  0  0  0  0  0  0  0  0  0
   -9.5777    6.6939  -13.5354 O   0  0  0  0  0  0  0  0  0  0  0  0
   -7.2413    7.5007  -13.3831 N   0  0  0  0  0  0  0  0  0  0  0  0
   -6.3486    7.0883  -13.4300 H   0  0  0  0  0  0  0  0  0  0  0  0
   -7.2370    8.9409  -13.2331 C   0  0  0  0  0  0  0  0  0  0  0  0
   -6.2289    9.6744  -14.1061 C   0  0  0  0  0  0  0  0  0  0  0  0
   -5.8494    8.8864  -15.1448 F   0  0  0  0  0  0  0  0  0  0  0  0
   -6.7831   10.7910  -14.6422 F   0  0  0  0  0  0  0  0  0  0  0  0
   -8.6674    4.1404  -12.6144 N   0  0  0  0  0  0  0  0  0  0  0  0
   -9.3133    3.5347  -13.0448 H   0  0  0  0  0  0  0  0  0  0  0  0
   -8.5236    4.1564  -11.2142 C   0  0  0  0  0  0  0  0  0  0  0  0
   -8.1356    5.3096  -10.5058 C   0  0  0  0  0  0  0  0  0  0  0  0
   -8.0766    5.3379   -9.1061 C   0  0  0  0  0  0  0  0  0  0  0  0
   -8.4016    4.1923   -8.4101 C   0  0  0  0  0  0  0  0  0  0  0  0
   -8.7709    3.0394   -9.0807 C   0  0  0  0  0  0  0  0  0  0  0  0
   -8.8499    3.0117  -10.4692 C   0  0  0  0  0  0  0  0  0  0  0  0
   -9.0598    1.9629   -8.0900 C   0  0  0  0  0  0  0  0  0  0  0  0
   -8.7908    2.5396   -6.7447 N   0  0  0  0  0  0  0  0  0  0  0  0
   -8.4856    3.9718   -6.9411 C   0  0  0  0  0  0  0  0  0  0  0  0
   -7.9954    2.0680   -6.3141 H   0  0  0  0  0  0  0  0  0  0  0  0
   -7.6493    4.4870  -14.8783 C   0  0  0  0  0  0  0  0  0  0  0  0
   -6.1848    4.5059  -15.3801 C   0  0  0  0  0  0  0  0  0  0  0  0
   -5.6999    5.6353  -16.2859 C   0  0  0  0  0  0  0  0  0  0  0  0
   -4.5352    5.0211  -17.0898 C   0  0  0  0  0  0  0  0  0  0  0  0
   -3.5041    4.4048  -16.1253 C   0  0  0  0  0  0  0  0  0  0  0  0
   -3.8713    4.6062  -14.6490 C   0  0  0  0  0  0  0  0  0  0  0  0
   -2.9923    3.7669  -13.7325 C   0  0  0  0  0  0  0  0  0  0  0  0
   -5.2408    4.3026  -14.3179 O   0  0  0  0  0  0  0  0  0  0  0  0
   -3.9485    6.0000  -18.0988 C   0  0  0  0  0  0  0  0  0  0  0  0
   -4.2844    5.5935  -19.4766 N   0  0  0  0  0  0  0  0  0  0  0  0
   -3.1247    4.9238  -20.0172 N   0  0  0  0  0  0  0  0  0  0  0  0
   -4.5079    6.4146  -20.0389 H   0  0  0  0  0  0  0  0  0  0  0  0
   -2.9092    4.1048  -19.4487 H   0  0  0  0  0  0  0  0  0  0  0  0
   -2.3290    5.5620  -20.0093 H   0  0  0  0  0  0  0  0  0  0  0  0
   -8.6869    5.0410  -15.8900 C   0  0  0  0  0  0  0  0  0  0  0  0
   -8.0844    4.4802  -18.4125 C   0  0  0  0  0  0  0  0  0  0  0  0
   -8.9587    4.2653  -17.1973 C   0  0  0  0  0  0  0  0  0  0  0  0
  -10.6054    4.6351  -17.7687 Cl  0  0  0  0  0  0  0  0  0  0  0  0
 38 37  1  0  0  0
 38 39  1  0  0  0
 38 36  1  0  0  0
 22 36  1  0  0  0
 22 23  1  0  0  0
 23 24  1  0  0  0
 24 25  1  0  0  0
 25 30  1  0  0  0
 30 31  1  0  0  0
 31 32  1  0  0  0
 25 26  1  0  0  0
 26 27  1  0  0  0
 27 28  1  0  0  0
 27 29  1  0  0  0
 22  1  1  0  0  0
  1 10  1  0  0  0
 10 12  1  0  0  0
 12 13  2  0  0  0
 13 14  1  0  0  0
 14 15  2  0  0  0
 15 16  1  0  0  0
 16 17  2  0  0  0
 16 18  1  0  0  0
 18 19  1  0  0  0
 19 20  1  0  0  0
  1  2  1  0  0  0
  2  3  2  0  0  0
  2  4  1  0  0  0
  4  6  1  0  0  0
  6  7  1  0  0  0
  7  8  1  0  0  0
  7  9  1  0  0  0
 29 23  1  0  0  0
 17 12  1  0  0  0
 20 15  1  0  0  0
 31 33  1  0  0  0
 32 34  1  0  0  0
 32 35  1  0  0  0
 10 11  1  0  0  0
 19 21  1  0  0  0
  4  5  1  0  0  0
M  END
> <minimizedAffinity>
-6.91173

> <minimizedRMSD>
1.22670

$$$$
P22558


 36 40  0  0  0  0  0  0  0  0999 V2000
   -6.9118    4.8458  -12.3835 C   0  0  0  0  0  0  0  0  0  0  0  0
   -3.8677    7.7764  -15.5935 C   0  0  0  0  0  0  0  0  0  0  0  0
   -4.0012    6.2662  -15.4945 C   0  0  0  0  0  0  0  0  0  0  0  0
   -2.6179    5.6363  -15.4012 C   0  0  0  0  0  0  0  0  0  0  0  0
   -4.7468    5.9269  -14.2679 O   0  0  0  0  0  0  0  0  0  0  0  0
   -5.9034    5.3141  -14.6915 C   0  0  0  0  0  0  0  0  0  0  0  0
   -6.9300    4.8173  -13.9043 C   0  0  0  0  0  0  0  0  0  0  0  0
   -8.0811    4.3485  -14.5960 C   0  0  0  0  0  0  0  0  0  0  0  0
   -8.1385    4.3000  -16.0016 C   0  0  0  0  0  0  0  0  0  0  0  0
   -9.6036    3.8494  -16.7503 Cl  0  0  0  0  0  0  0  0  0  0  0  0
   -7.0399    4.7114  -16.7728 C   0  0  0  0  0  0  0  0  0  0  0  0
   -6.8449    4.7124  -18.1618 C   0  0  0  0  0  0  0  0  0  0  0  0
   -5.6828    5.2937  -18.6846 C   0  0  0  0  0  0  0  0  0  0  0  0
   -4.6794    5.8217  -17.9336 N   0  0  0  0  0  0  0  0  0  0  0  0
   -4.8717    5.7427  -16.6059 C   0  0  0  0  0  0  0  0  0  0  0  0
   -5.9873    5.2267  -16.0458 C   0  0  0  0  0  0  0  0  0  0  0  0
   -5.5553    4.3818  -11.7181 C   0  0  0  0  0  0  0  0  0  0  0  0
   -4.8697    5.1368  -11.1423 O   0  0  0  0  0  0  0  0  0  0  0  0
   -5.4298    2.8400  -11.8975 N   0  0  0  0  0  0  0  0  0  0  0  0
   -6.1840    2.4169  -12.3678 H   0  0  0  0  0  0  0  0  0  0  0  0
   -4.3864    1.9300  -11.4858 C   0  0  0  0  0  0  0  0  0  0  0  0
   -4.6289    1.3132  -10.1099 C   0  0  0  0  0  0  0  0  0  0  0  0
   -3.4997    0.6674   -9.7037 F   0  0  0  0  0  0  0  0  0  0  0  0
   -5.5869    0.3525  -10.1965 F   0  0  0  0  0  0  0  0  0  0  0  0
   -8.0590    4.0593  -11.8707 N   0  0  0  0  0  0  0  0  0  0  0  0
   -8.6581    3.6029  -12.5047 H   0  0  0  0  0  0  0  0  0  0  0  0
   -8.2997    3.9584  -10.4989 C   0  0  0  0  0  0  0  0  0  0  0  0
   -8.1715    5.0519   -9.6173 C   0  0  0  0  0  0  0  0  0  0  0  0
   -8.4375    4.9312   -8.2486 C   0  0  0  0  0  0  0  0  0  0  0  0
   -8.8731    3.7111   -7.7770 C   0  0  0  0  0  0  0  0  0  0  0  0
   -9.0246    2.6280   -8.6338 C   0  0  0  0  0  0  0  0  0  0  0  0
   -8.7499    2.7341   -9.9858 C   0  0  0  0  0  0  0  0  0  0  0  0
   -9.5019    1.4529   -7.8488 C   0  0  0  0  0  0  0  0  0  0  0  0
  -10.0205    2.0307   -6.5820 N   0  0  0  0  0  0  0  0  0  0  0  0
   -9.2767    3.2983   -6.4013 C   0  0  0  0  0  0  0  0  0  0  0  0
   -9.8442    1.3981   -5.8015 H   0  0  0  0  0  0  0  0  0  0  0  0
  2  3  1  0  0  0
  3  4  1  0  0  0
  3  5  1  0  0  0
  5  6  1  0  0  0
  6  7  2  0  0  0
  7  1  1  0  0  0
  1 25  1  0  0  0
 25 27  1  0  0  0
 27 28  2  0  0  0
 28 29  1  0  0  0
 29 30  2  0  0  0
 30 31  1  0  0  0
 31 32  2  0  0  0
 31 33  1  0  0  0
 33 34  1  0  0  0
 34 35  1  0  0  0
  1 17  1  0  0  0
 17 18  2  0  0  0
 17 19  1  0  0  0
 19 21  1  0  0  0
 21 22  1  0  0  0
 22 23  1  0  0  0
 22 24  1  0  0  0
  7  8  1  0  0  0
  8  9  2  0  0  0
  9 10  1  0  0  0
  9 11  1  0  0  0
 11 12  2  0  0  0
 12 13  1  0  0  0
 13 14  2  0  0  0
 14 15  1  0  0  0
 15 16  2  0  0  0
 15  3  1  0  0  0
 16  6  1  0  0  0
 32 27  1  0  0  0
 16 11  1  0  0  0
 35 30  1  0  0  0
 25 26  1  0  0  0
 34 36  1  0  0  0
 19 20  1  0  0  0
M  END
> <minimizedAffinity>
-9.26604

> <minimizedRMSD>
1.09909

$$$$
P22587


 36 40  0  0  0  0  0  0  0  0999 V2000
   -7.4737    5.1376  -12.9719 C   0  0  0  0  0  0  0  0  0  0  0  0
   -2.9953    5.8755  -15.6576 C   0  0  0  0  0  0  0  0  0  0  0  0
   -4.4153    6.3777  -15.8739 C   0  0  0  0  0  0  0  0  0  0  0  0
   -4.4203    7.9019  -16.0194 C   0  0  0  0  0  0  0  0  0  0  0  0
   -5.2266    6.0211  -14.6997 O   0  0  0  0  0  0  0  0  0  0  0  0
   -6.3534    5.4147  -15.2122 C   0  0  0  0  0  0  0  0  0  0  0  0
   -7.4666    5.0067  -14.4881 C   0  0  0  0  0  0  0  0  0  0  0  0
   -8.5486    4.4885  -15.2308 C   0  0  0  0  0  0  0  0  0  0  0  0
   -8.4517    4.2901  -16.6185 C   0  0  0  0  0  0  0  0  0  0  0  0
   -9.8453    3.7821  -17.4568 Cl  0  0  0  0  0  0  0  0  0  0  0  0
   -7.2655    4.5946  -17.3115 C   0  0  0  0  0  0  0  0  0  0  0  0
   -6.9149    4.3839  -18.6553 C   0  0  0  0  0  0  0  0  0  0  0  0
   -5.6869    4.8629  -19.1643 C   0  0  0  0  0  0  0  0  0  0  0  0
   -4.7865    5.5554  -18.3498 C   0  0  0  0  0  0  0  0  0  0  0  0
   -5.1113    5.7108  -17.0163 C   0  0  0  0  0  0  0  0  0  0  0  0
   -6.2893    5.2145  -16.5533 C   0  0  0  0  0  0  0  0  0  0  0  0
   -7.8309    6.6252  -12.5826 C   0  0  0  0  0  0  0  0  0  0  0  0
   -8.9139    7.0619  -12.6750 O   0  0  0  0  0  0  0  0  0  0  0  0
   -6.5018    7.3056  -12.1249 N   0  0  0  0  0  0  0  0  0  0  0  0
   -5.6996    6.7409  -12.2073 H   0  0  0  0  0  0  0  0  0  0  0  0
   -6.2587    8.6299  -11.5998 C   0  0  0  0  0  0  0  0  0  0  0  0
   -5.8194    9.6352  -12.6591 C   0  0  0  0  0  0  0  0  0  0  0  0
   -6.5534    9.5053  -13.7916 F   0  0  0  0  0  0  0  0  0  0  0  0
   -4.5240    9.4097  -13.0033 F   0  0  0  0  0  0  0  0  0  0  0  0
   -8.3832    4.1272  -12.3661 N   0  0  0  0  0  0  0  0  0  0  0  0
   -8.9654    3.5706  -12.9323 H   0  0  0  0  0  0  0  0  0  0  0  0
   -8.3923    3.9850  -10.9667 C   0  0  0  0  0  0  0  0  0  0  0  0
   -8.1446    5.0712  -10.1067 C   0  0  0  0  0  0  0  0  0  0  0  0
   -8.2247    4.9468   -8.7161 C   0  0  0  0  0  0  0  0  0  0  0  0
   -8.6075    3.7299   -8.1912 C   0  0  0  0  0  0  0  0  0  0  0  0
   -8.8789    2.6521   -9.0191 C   0  0  0  0  0  0  0  0  0  0  0  0
   -8.7657    2.7565  -10.3983 C   0  0  0  0  0  0  0  0  0  0  0  0
   -9.3143    1.4894   -8.1947 C   0  0  0  0  0  0  0  0  0  0  0  0
   -9.4257    1.9865   -6.7985 N   0  0  0  0  0  0  0  0  0  0  0  0
   -8.8606    3.3512   -6.7741 C   0  0  0  0  0  0  0  0  0  0  0  0
   -8.9009    1.3797   -6.1686 H   0  0  0  0  0  0  0  0  0  0  0  0
  2  3  1  0  0  0
  3  4  1  0  0  0
  3  5  1  0  0  0
  5  6  1  0  0  0
  6  7  2  0  0  0
  7  1  1  0  0  0
  1 25  1  0  0  0
 25 27  1  0  0  0
 27 28  2  0  0  0
 28 29  1  0  0  0
 29 30  2  0  0  0
 30 31  1  0  0  0
 31 32  2  0  0  0
 31 33  1  0  0  0
 33 34  1  0  0  0
 34 35  1  0  0  0
  1 17  1  0  0  0
 17 18  2  0  0  0
 17 19  1  0  0  0
 19 21  1  0  0  0
 21 22  1  0  0  0
 22 23  1  0  0  0
 22 24  1  0  0  0
  7  8  1  0  0  0
  8  9  2  0  0  0
  9 10  1  0  0  0
  9 11  1  0  0  0
 11 12  2  0  0  0
 12 13  1  0  0  0
 13 14  2  0  0  0
 14 15  1  0  0  0
 15 16  2  0  0  0
 15  3  1  0  0  0
 16  6  1  0  0  0
 32 27  1  0  0  0
 16 11  1  0  0  0
 35 30  1  0  0  0
 25 26  1  0  0  0
 34 36  1  0  0  0
 19 20  1  0  0  0
M  END
> <minimizedAffinity>
-8.64868

> <minimizedRMSD>
1.18230

$$$$
P22593


 37 40  0  0  0  0  0  0  0  0999 V2000
   -7.0760    5.0066  -13.3895 C   0  0  0  0  0  0  0  0  0  0  0  0
   -2.6628    6.2936  -15.5101 C   0  0  0  0  0  0  0  0  0  0  0  0
   -3.9249    5.8611  -16.1856 C   0  0  0  0  0  0  0  0  0  0  0  0
   -4.9311    5.5188  -15.3460 N   0  0  0  0  0  0  0  0  0  0  0  0
   -6.1117    5.1129  -15.8119 C   0  0  0  0  0  0  0  0  0  0  0  0
   -7.1507    4.7999  -14.9135 C   0  0  0  0  0  0  0  0  0  0  0  0
   -8.3867    4.3627  -15.4277 C   0  0  0  0  0  0  0  0  0  0  0  0
   -8.5752    4.2532  -16.7918 C   0  0  0  0  0  0  0  0  0  0  0  0
  -10.1043    3.8630  -17.4141 Cl  0  0  0  0  0  0  0  0  0  0  0  0
   -7.5585    4.5613  -17.6770 C   0  0  0  0  0  0  0  0  0  0  0  0
   -6.3089    4.9965  -17.2126 C   0  0  0  0  0  0  0  0  0  0  0  0
   -5.2386    5.3361  -18.0949 C   0  0  0  0  0  0  0  0  0  0  0  0
   -4.0307    5.8190  -17.5692 C   0  0  0  0  0  0  0  0  0  0  0  0
   -2.8796    6.2171  -18.4565 C   0  0  0  0  0  0  0  0  0  0  0  0
   -5.3751    5.2229  -19.5898 C   0  0  0  0  0  0  0  0  0  0  0  0
   -5.9011    6.4413  -20.0809 O   0  0  0  0  0  0  0  0  0  0  0  0
   -6.7649    6.6086  -19.6725 H   0  0  0  0  0  0  0  0  0  0  0  0
   -5.6474    5.1499  -12.7492 C   0  0  0  0  0  0  0  0  0  0  0  0
   -5.2696    6.1740  -12.3230 O   0  0  0  0  0  0  0  0  0  0  0  0
   -4.9535    3.7567  -12.7897 N   0  0  0  0  0  0  0  0  0  0  0  0
   -5.5151    3.0262  -13.1364 H   0  0  0  0  0  0  0  0  0  0  0  0
   -3.6207    3.3623  -12.4016 C   0  0  0  0  0  0  0  0  0  0  0  0
   -3.4972    1.9107  -11.9489 C   0  0  0  0  0  0  0  0  0  0  0  0
   -4.6754    1.4293  -11.4903 F   0  0  0  0  0  0  0  0  0  0  0  0
   -3.1074    1.1245  -12.9838 F   0  0  0  0  0  0  0  0  0  0  0  0
   -7.9069    3.9741  -12.7165 N   0  0  0  0  0  0  0  0  0  0  0  0
   -8.3004    3.2569  -13.2642 H   0  0  0  0  0  0  0  0  0  0  0  0
   -8.1545    3.9755  -11.3426 C   0  0  0  0  0  0  0  0  0  0  0  0
   -8.0858    5.1339  -10.5415 C   0  0  0  0  0  0  0  0  0  0  0  0
   -8.3441    5.1008   -9.1637 C   0  0  0  0  0  0  0  0  0  0  0  0
   -8.7277    3.9029   -8.5992 C   0  0  0  0  0  0  0  0  0  0  0  0
   -8.8576    2.7610   -9.3778 C   0  0  0  0  0  0  0  0  0  0  0  0
   -8.5803    2.7817  -10.7367 C   0  0  0  0  0  0  0  0  0  0  0  0
   -9.3007    1.6305   -8.5079 C   0  0  0  0  0  0  0  0  0  0  0  0
   -9.7827    2.2742   -7.2558 N   0  0  0  0  0  0  0  0  0  0  0  0
   -9.0625    3.5662   -7.1855 C   0  0  0  0  0  0  0  0  0  0  0  0
   -9.5594    1.6951   -6.4463 H   0  0  0  0  0  0  0  0  0  0  0  0
  2  3  1  0  0  0
  3  4  2  0  0  0
  4  5  1  0  0  0
  5  6  2  0  0  0
  6  1  1  0  0  0
  1 26  1  0  0  0
 26 28  1  0  0  0
 28 29  2  0  0  0
 29 30  1  0  0  0
 30 31  2  0  0  0
 31 32  1  0  0  0
 32 33  2  0  0  0
 32 34  1  0  0  0
 34 35  1  0  0  0
 35 36  1  0  0  0
  1 18  1  0  0  0
 18 19  2  0  0  0
 18 20  1  0  0  0
 20 22  1  0  0  0
 22 23  1  0  0  0
 23 24  1  0  0  0
 23 25  1  0  0  0
  6  7  1  0  0  0
  7  8  2  0  0  0
  8  9  1  0  0  0
  8 10  1  0  0  0
 10 11  2  0  0  0
 11 12  1  0  0  0
 12 15  1  0  0  0
 15 16  1  0  0  0
 12 13  2  0  0  0
 13 14  1  0  0  0
 13  3  1  0  0  0
 11  5  1  0  0  0
 33 28  1  0  0  0
 36 31  1  0  0  0
 26 27  1  0  0  0
 35 37  1  0  0  0
 20 21  1  0  0  0
 16 17  1  0  0  0
M  END
> <minimizedAffinity>
-9.10442

> <minimizedRMSD>
0.99457

$$$$
P22599


 42 45  0  0  0  0  0  0  0  0999 V2000
   -6.9371    5.2184  -12.9868 C   0  0  0  0  0  0  0  0  0  0  0  0
   -6.9747    4.9228  -14.5020 C   0  0  0  0  0  0  0  0  0  0  0  0
   -8.1342    4.3744  -15.0590 C   0  0  0  0  0  0  0  0  0  0  0  0
   -8.2582    4.2119  -16.4353 C   0  0  0  0  0  0  0  0  0  0  0  0
   -9.7719    3.7112  -17.0261 Cl  0  0  0  0  0  0  0  0  0  0  0  0
   -7.2401    4.5635  -17.3171 C   0  0  0  0  0  0  0  0  0  0  0  0
   -6.0782    5.1584  -16.8248 C   0  0  0  0  0  0  0  0  0  0  0  0
   -5.9770    5.3308  -15.4149 C   0  0  0  0  0  0  0  0  0  0  0  0
   -4.9255    6.0100  -14.8735 O   0  0  0  0  0  0  0  0  0  0  0  0
   -3.6893    5.9147  -15.5704 C   0  0  0  0  0  0  0  0  0  0  0  0
   -2.8467    7.0922  -15.0974 C   0  0  0  0  0  0  0  0  0  0  0  0
   -3.8420    5.9408  -17.0553 C   0  0  0  0  0  0  0  0  0  0  0  0
   -4.9747    5.6445  -17.7080 C   0  0  0  0  0  0  0  0  0  0  0  0
   -5.1376    5.7321  -19.0876 N   0  0  0  0  0  0  0  0  0  0  0  0
   -6.0552    5.5973  -19.4180 H   0  0  0  0  0  0  0  0  0  0  0  0
   -4.1129    6.0017  -20.1276 C   0  0  0  0  0  0  0  0  0  0  0  0
   -3.0965    4.8479  -20.1987 C   0  0  0  0  0  0  0  0  0  0  0  0
   -3.4029    7.3440  -19.8756 C   0  0  0  0  0  0  0  0  0  0  0  0
   -4.8151    6.1345  -21.5146 C   0  0  0  0  0  0  0  0  0  0  0  0
   -5.5866    4.9982  -21.8734 O   0  0  0  0  0  0  0  0  0  0  0  0
   -5.0072    4.2237  -21.9455 H   0  0  0  0  0  0  0  0  0  0  0  0
   -5.6208    4.8097  -12.2086 C   0  0  0  0  0  0  0  0  0  0  0  0
   -4.9452    5.6204  -11.7009 O   0  0  0  0  0  0  0  0  0  0  0  0
   -5.4767    3.2620  -12.2521 N   0  0  0  0  0  0  0  0  0  0  0  0
   -6.1407    2.8018  -12.8146 H   0  0  0  0  0  0  0  0  0  0  0  0
   -4.5255    2.3887  -11.6002 C   0  0  0  0  0  0  0  0  0  0  0  0
   -4.9785    1.7489  -10.2947 C   0  0  0  0  0  0  0  0  0  0  0  0
   -5.3775    2.6982   -9.4138 F   0  0  0  0  0  0  0  0  0  0  0  0
   -3.9203    1.1104   -9.7267 F   0  0  0  0  0  0  0  0  0  0  0  0
   -8.1663    4.6876  -12.3273 N   0  0  0  0  0  0  0  0  0  0  0  0
   -8.9293    4.4284  -12.8930 H   0  0  0  0  0  0  0  0  0  0  0  0
   -8.1561    7.0577  -10.3578 C   0  0  0  0  0  0  0  0  0  0  0  0
   -8.2307    5.6006   -9.9894 C   0  0  0  0  0  0  0  0  0  0  0  0
   -8.3151    5.3231   -8.6052 C   0  0  0  0  0  0  0  0  0  0  0  0
   -8.5660    4.0339   -8.1844 C   0  0  0  0  0  0  0  0  0  0  0  0
   -8.6983    3.0051   -9.0997 C   0  0  0  0  0  0  0  0  0  0  0  0
   -8.5469    3.2362  -10.4569 C   0  0  0  0  0  0  0  0  0  0  0  0
   -8.2826    4.5415  -10.9351 C   0  0  0  0  0  0  0  0  0  0  0  0
   -9.0225    1.7446   -8.3667 C   0  0  0  0  0  0  0  0  0  0  0  0
   -9.4574    2.1918   -7.0152 N   0  0  0  0  0  0  0  0  0  0  0  0
   -8.7921    3.4981   -6.8113 C   0  0  0  0  0  0  0  0  0  0  0  0
   -9.1609    1.5236   -6.3039 H   0  0  0  0  0  0  0  0  0  0  0  0
 32 33  1  0  0  0
 33 34  2  0  0  0
 34 35  1  0  0  0
 35 36  2  0  0  0
 36 37  1  0  0  0
 37 38  2  0  0  0
 38 30  1  0  0  0
  1 30  1  0  0  0
  1 22  1  0  0  0
 22 23  2  0  0  0
 22 24  1  0  0  0
 24 26  1  0  0  0
 26 27  1  0  0  0
 27 28  1  0  0  0
 27 29  1  0  0  0
  1  2  1  0  0  0
  2  3  2  0  0  0
  3  4  1  0  0  0
  4  5  1  0  0  0
  4  6  2  0  0  0
  6  7  1  0  0  0
  7  8  2  0  0  0
  8  9  1  0  0  0
  9 10  1  0  0  0
 10 11  1  0  0  0
 10 12  1  0  0  0
 12 13  2  0  0  0
 13 14  1  0  0  0
 14 16  1  0  0  0
 16 17  1  0  0  0
 16 18  1  0  0  0
 16 19  1  0  0  0
 19 20  1  0  0  0
 36 39  1  0  0  0
 39 40  1  0  0  0
 40 41  1  0  0  0
 38 33  1  0  0  0
  8  2  1  0  0  0
 41 35  1  0  0  0
 13  7  1  0  0  0
 30 31  1  0  0  0
 24 25  1  0  0  0
 14 15  1  0  0  0
 20 21  1  0  0  0
 40 42  1  0  0  0
M  END
> <minimizedAffinity>
-8.71386

> <minimizedRMSD>
0.88086

$$$$
P22615


 38 42  0  0  0  0  0  0  0  0999 V2000
   -7.2953    5.1334  -13.8942 C   0  0  0  0  0  0  0  0  0  0  0  0
   -5.0441    5.5340  -16.6648 C   0  0  0  0  0  0  0  0  0  0  0  0
   -4.7193    5.5975  -17.9623 N   0  0  0  0  0  0  0  0  0  0  0  0
   -5.7721    5.0999  -18.5897 N   0  0  0  0  0  0  0  0  0  0  0  0
   -6.7935    4.7465  -17.7723 C   0  0  0  0  0  0  0  0  0  0  0  0
   -8.0182    4.2223  -18.1540 C   0  0  0  0  0  0  0  0  0  0  0  0
   -8.9458    4.0534  -17.1577 C   0  0  0  0  0  0  0  0  0  0  0  0
  -10.5409    3.6877  -17.6209 Cl  0  0  0  0  0  0  0  0  0  0  0  0
   -8.6294    4.3210  -15.8343 C   0  0  0  0  0  0  0  0  0  0  0  0
   -7.3461    4.8098  -15.4087 C   0  0  0  0  0  0  0  0  0  0  0  0
   -6.3953    5.0471  -16.4633 C   0  0  0  0  0  0  0  0  0  0  0  0
   -5.8103    4.9951  -19.5678 H   0  0  0  0  0  0  0  0  0  0  0  0
   -2.5761    5.4666  -15.9992 C   0  0  0  0  0  0  0  0  0  0  0  0
   -3.9881    5.9609  -15.7001 C   0  0  0  0  0  0  0  0  0  0  0  0
   -5.9246    5.5157  -13.2575 C   0  0  0  0  0  0  0  0  0  0  0  0
   -5.5833    6.6342  -13.1973 O   0  0  0  0  0  0  0  0  0  0  0  0
   -5.2491    4.2250  -12.7100 N   0  0  0  0  0  0  0  0  0  0  0  0
   -5.7004    3.3862  -12.9588 H   0  0  0  0  0  0  0  0  0  0  0  0
   -4.0551    4.0562  -11.8873 C   0  0  0  0  0  0  0  0  0  0  0  0
   -4.4648    3.8172  -10.4291 C   0  0  0  0  0  0  0  0  0  0  0  0
   -4.7336    2.3412  -10.1232 C   0  0  0  0  0  0  0  0  0  0  0  0
   -4.9049    1.5725  -11.3119 O   0  0  0  0  0  0  0  0  0  0  0  0
   -3.7208    1.5497  -12.1220 C   0  0  0  0  0  0  0  0  0  0  0  0
   -3.1072    2.9342  -12.3227 C   0  0  0  0  0  0  0  0  0  0  0  0
   -2.7173    3.1081  -13.6094 F   0  0  0  0  0  0  0  0  0  0  0  0
   -1.9645    3.0209  -11.5788 F   0  0  0  0  0  0  0  0  0  0  0  0
   -8.0009    4.0709  -13.1302 N   0  0  0  0  0  0  0  0  0  0  0  0
   -8.3555    3.2980  -13.6263 H   0  0  0  0  0  0  0  0  0  0  0  0
   -8.1876    4.1103  -11.7483 C   0  0  0  0  0  0  0  0  0  0  0  0
   -8.1710    5.3041  -10.9968 C   0  0  0  0  0  0  0  0  0  0  0  0
   -8.3128    5.3042   -9.6017 C   0  0  0  0  0  0  0  0  0  0  0  0
   -8.5258    4.0985   -8.9665 C   0  0  0  0  0  0  0  0  0  0  0  0
   -8.6171    2.9195   -9.6935 C   0  0  0  0  0  0  0  0  0  0  0  0
   -8.4549    2.9097  -11.0709 C   0  0  0  0  0  0  0  0  0  0  0  0
   -8.8697    1.7853   -8.7544 C   0  0  0  0  0  0  0  0  0  0  0  0
   -9.2688    2.4285   -7.4732 N   0  0  0  0  0  0  0  0  0  0  0  0
   -8.6843    3.7863   -7.5172 C   0  0  0  0  0  0  0  0  0  0  0  0
   -8.8972    1.9054   -6.6803 H   0  0  0  0  0  0  0  0  0  0  0  0
 13 14  1  0  0  0
 14  2  1  0  0  0
  2  3  2  0  0  0
  3  4  1  0  0  0
  4  5  1  0  0  0
  5  6  2  0  0  0
  6  7  1  0  0  0
  7  8  1  0  0  0
  7  9  2  0  0  0
  9 10  1  0  0  0
 10  1  1  0  0  0
  1 27  1  0  0  0
 27 29  1  0  0  0
 29 30  2  0  0  0
 30 31  1  0  0  0
 31 32  2  0  0  0
 32 33  1  0  0  0
 33 34  2  0  0  0
 33 35  1  0  0  0
 35 36  1  0  0  0
 36 37  1  0  0  0
  1 15  1  0  0  0
 15 16  2  0  0  0
 15 17  1  0  0  0
 19 17  1  0  0  0
 19 20  1  0  0  0
 20 21  1  0  0  0
 21 22  1  0  0  0
 22 23  1  0  0  0
 23 24  1  0  0  0
 24 25  1  0  0  0
 24 26  1  0  0  0
 10 11  2  0  0  0
 11  2  1  0  0  0
 11  5  1  0  0  0
 34 29  1  0  0  0
 24 19  1  0  0  0
 37 32  1  0  0  0
  4 12  1  0  0  0
 27 28  1  0  0  0
 36 38  1  0  0  0
 17 18  1  0  0  0
M  END
> <minimizedAffinity>
-9.16398

> <minimizedRMSD>
0.28308

$$$$
P22624


 35 38  0  0  0  0  0  0  0  0999 V2000
   -7.4061    5.0404  -13.5979 C   0  0  0  0  0  0  0  0  0  0  0  0
   -4.7224    5.7264  -17.1339 C   0  0  0  0  0  0  0  0  0  0  0  0
   -5.5188    5.2484  -18.0642 N   0  0  0  0  0  0  0  0  0  0  0  0
   -6.6574    4.8507  -17.4082 C   0  0  0  0  0  0  0  0  0  0  0  0
   -7.8498    4.3650  -17.9411 C   0  0  0  0  0  0  0  0  0  0  0  0
   -8.8985    4.1555  -17.0534 C   0  0  0  0  0  0  0  0  0  0  0  0
  -10.4529    3.8364  -17.6740 Cl  0  0  0  0  0  0  0  0  0  0  0  0
   -8.7612    4.3359  -15.6754 C   0  0  0  0  0  0  0  0  0  0  0  0
   -7.5553    4.7721  -15.0947 C   0  0  0  0  0  0  0  0  0  0  0  0
   -6.5415    5.0463  -16.0346 C   0  0  0  0  0  0  0  0  0  0  0  0
   -5.2876    5.5903  -15.8912 N   0  0  0  0  0  0  0  0  0  0  0  0
   -4.8650    5.8409  -15.0380 H   0  0  0  0  0  0  0  0  0  0  0  0
   -3.4502    7.4442  -18.4218 C   0  0  0  0  0  0  0  0  0  0  0  0
   -3.3906    6.3766  -17.3285 C   0  0  0  0  0  0  0  0  0  0  0  0
   -2.3257    5.3397  -17.6521 C   0  0  0  0  0  0  0  0  0  0  0  0
   -7.5621    6.5936  -13.3750 C   0  0  0  0  0  0  0  0  0  0  0  0
   -6.6403    7.3145  -13.3610 O   0  0  0  0  0  0  0  0  0  0  0  0
   -9.0800    6.9005  -13.2745 N   0  0  0  0  0  0  0  0  0  0  0  0
   -9.6671    6.1185  -13.3885 H   0  0  0  0  0  0  0  0  0  0  0  0
   -9.7727    8.1493  -13.0405 C   0  0  0  0  0  0  0  0  0  0  0  0
   -9.3413    8.8489  -11.7571 C   0  0  0  0  0  0  0  0  0  0  0  0
   -9.5048    8.0169  -10.6990 F   0  0  0  0  0  0  0  0  0  0  0  0
  -10.1376    9.9268  -11.5390 F   0  0  0  0  0  0  0  0  0  0  0  0
   -8.3669    4.2148  -12.8206 N   0  0  0  0  0  0  0  0  0  0  0  0
   -9.0996    3.7480  -13.2837 H   0  0  0  0  0  0  0  0  0  0  0  0
   -8.2318    4.0979  -11.4186 C   0  0  0  0  0  0  0  0  0  0  0  0
   -7.8429    5.1650  -10.5847 C   0  0  0  0  0  0  0  0  0  0  0  0
   -7.9977    5.1215   -9.1927 C   0  0  0  0  0  0  0  0  0  0  0  0
   -8.5064    3.9738   -8.6303 C   0  0  0  0  0  0  0  0  0  0  0  0
   -8.7946    2.8702   -9.4189 C   0  0  0  0  0  0  0  0  0  0  0  0
   -8.6920    2.9230  -10.8008 C   0  0  0  0  0  0  0  0  0  0  0  0
   -9.2168    1.7491   -8.5309 C   0  0  0  0  0  0  0  0  0  0  0  0
   -9.6231    2.4017   -7.2603 N   0  0  0  0  0  0  0  0  0  0  0  0
   -8.8580    3.6703   -7.2127 C   0  0  0  0  0  0  0  0  0  0  0  0
   -9.3862    1.8111   -6.4632 H   0  0  0  0  0  0  0  0  0  0  0  0
 13 14  1  0  0  0
 14 15  1  0  0  0
 14  2  1  0  0  0
  2  3  2  0  0  0
  3  4  1  0  0  0
  4  5  2  0  0  0
  5  6  1  0  0  0
  6  7  1  0  0  0
  6  8  2  0  0  0
  8  9  1  0  0  0
  9  1  1  0  0  0
  1 24  1  0  0  0
 24 26  1  0  0  0
 26 27  2  0  0  0
 27 28  1  0  0  0
 28 29  2  0  0  0
 29 30  1  0  0  0
 30 31  2  0  0  0
 30 32  1  0  0  0
 32 33  1  0  0  0
 33 34  1  0  0  0
  1 16  1  0  0  0
 16 17  2  0  0  0
 16 18  1  0  0  0
 18 20  1  0  0  0
 20 21  1  0  0  0
 21 22  1  0  0  0
 21 23  1  0  0  0
  9 10  2  0  0  0
 10 11  1  0  0  0
 11  2  1  0  0  0
 10  4  1  0  0  0
 31 26  1  0  0  0
 34 29  1  0  0  0
 24 25  1  0  0  0
 33 35  1  0  0  0
 18 19  1  0  0  0
 11 12  1  0  0  0
M  END
> <minimizedAffinity>
-7.77922

> <minimizedRMSD>
0.45436

$$$$
P22626


 36 39  0  0  0  0  0  0  0  0999 V2000
   -6.9683    4.9536  -13.3355 C   0  0  0  0  0  0  0  0  0  0  0  0
   -4.1896    5.7789  -17.0422 C   0  0  0  0  0  0  0  0  0  0  0  0
   -4.7038    5.6412  -15.7649 C   0  0  0  0  0  0  0  0  0  0  0  0
   -6.0458    5.1713  -15.8370 C   0  0  0  0  0  0  0  0  0  0  0  0
   -7.0520    4.8457  -14.8781 C   0  0  0  0  0  0  0  0  0  0  0  0
   -8.3117    4.4638  -15.4110 C   0  0  0  0  0  0  0  0  0  0  0  0
   -8.5502    4.3769  -16.7747 C   0  0  0  0  0  0  0  0  0  0  0  0
  -10.1341    4.1034  -17.3392 Cl  0  0  0  0  0  0  0  0  0  0  0  0
   -7.5599    4.6417  -17.6997 C   0  0  0  0  0  0  0  0  0  0  0  0
   -6.3192    5.0544  -17.2096 C   0  0  0  0  0  0  0  0  0  0  0  0
   -5.1891    5.4265  -17.9157 N   0  0  0  0  0  0  0  0  0  0  0  0
   -5.1239    5.4491  -19.3644 C   0  0  0  0  0  0  0  0  0  0  0  0
   -2.8067    6.2047  -17.4434 C   0  0  0  0  0  0  0  0  0  0  0  0
   -2.6142    7.7246  -17.3863 C   0  0  0  0  0  0  0  0  0  0  0  0
   -2.6815    8.2823  -19.6973 C   0  0  0  0  0  0  0  0  0  0  0  0
   -3.3120    8.4169  -18.4286 O   0  0  0  0  0  0  0  0  0  0  0  0
   -5.5590    5.0136  -12.7296 C   0  0  0  0  0  0  0  0  0  0  0  0
   -5.1132    6.0420  -12.3921 O   0  0  0  0  0  0  0  0  0  0  0  0
   -4.9913    3.5731  -12.5839 N   0  0  0  0  0  0  0  0  0  0  0  0
   -5.5265    2.8727  -13.0223 H   0  0  0  0  0  0  0  0  0  0  0  0
   -3.8018    3.0942  -11.9072 C   0  0  0  0  0  0  0  0  0  0  0  0
   -2.5507    2.9267  -12.7583 C   0  0  0  0  0  0  0  0  0  0  0  0
   -2.4804    1.6705  -13.2611 F   0  0  0  0  0  0  0  0  0  0  0  0
   -2.5486    3.7831  -13.8075 F   0  0  0  0  0  0  0  0  0  0  0  0
   -7.8588    3.9600  -12.5853 C   0  0  0  0  0  0  0  0  0  0  0  0
   -8.3418    2.9772  -13.1406 O   0  0  0  0  0  0  0  0  0  0  0  0
   -8.1332    4.0884  -11.1234 C   0  0  0  0  0  0  0  0  0  0  0  0
   -7.9891    5.2880  -10.4034 C   0  0  0  0  0  0  0  0  0  0  0  0
   -8.2172    5.3182   -9.0203 C   0  0  0  0  0  0  0  0  0  0  0  0
   -8.6169    4.1526   -8.3889 C   0  0  0  0  0  0  0  0  0  0  0  0
   -8.7806    2.9709   -9.0992 C   0  0  0  0  0  0  0  0  0  0  0  0
   -8.5343    2.9173  -10.4548 C   0  0  0  0  0  0  0  0  0  0  0  0
   -9.2220    1.8869   -8.1742 C   0  0  0  0  0  0  0  0  0  0  0  0
   -9.6704    2.6006   -6.9500 N   0  0  0  0  0  0  0  0  0  0  0  0
   -8.9419    3.8898   -6.9556 C   0  0  0  0  0  0  0  0  0  0  0  0
   -9.4351    2.0617   -6.1166 H   0  0  0  0  0  0  0  0  0  0  0  0
 15 16  1  0  0  0
 16 14  1  0  0  0
 14 13  1  0  0  0
 13  2  1  0  0  0
  2  3  2  0  0  0
  3  4  1  0  0  0
  4  5  2  0  0  0
  5  1  1  0  0  0
  1 17  1  0  0  0
 17 18  2  0  0  0
 17 19  1  0  0  0
 19 21  1  0  0  0
 21 22  1  0  0  0
 22 23  1  0  0  0
 22 24  1  0  0  0
  1 25  1  0  0  0
 25 26  2  0  0  0
 25 27  1  0  0  0
 27 28  2  0  0  0
 28 29  1  0  0  0
 29 30  2  0  0  0
 30 31  1  0  0  0
 31 32  2  0  0  0
 31 33  1  0  0  0
 33 34  1  0  0  0
 34 35  1  0  0  0
  5  6  1  0  0  0
  6  7  2  0  0  0
  7  8  1  0  0  0
  7  9  1  0  0  0
  9 10  2  0  0  0
 10 11  1  0  0  0
 11 12  1  0  0  0
 11  2  1  0  0  0
 10  4  1  0  0  0
 32 27  1  0  0  0
 35 30  1  0  0  0
 19 20  1  0  0  0
 34 36  1  0  0  0
M  END
> <minimizedAffinity>
-7.47549

> <minimizedRMSD>
0.62386

$$$$
P22654


 40 42  0  0  0  0  0  0  0  0999 V2000
   -7.8181    5.2989  -13.9373 C   0  0  0  0  0  0  0  0  0  0  0  0
   -9.0560    5.9948  -13.7145 O   0  0  0  0  0  0  0  0  0  0  0  0
   -9.7979    5.4251  -13.9711 H   0  0  0  0  0  0  0  0  0  0  0  0
   -6.5933    6.2322  -13.5166 C   0  0  0  0  0  0  0  0  0  0  0  0
   -6.6128    7.3927  -13.6748 O   0  0  0  0  0  0  0  0  0  0  0  0
   -5.5136    5.3219  -12.8657 N   0  0  0  0  0  0  0  0  0  0  0  0
   -5.6995    4.3568  -12.9219 H   0  0  0  0  0  0  0  0  0  0  0  0
   -4.2842    5.6619  -12.1930 C   0  0  0  0  0  0  0  0  0  0  0  0
   -4.3836    5.6152  -10.6722 C   0  0  0  0  0  0  0  0  0  0  0  0
   -3.1388    5.7524  -10.1388 F   0  0  0  0  0  0  0  0  0  0  0  0
   -5.1132    6.6617  -10.2098 F   0  0  0  0  0  0  0  0  0  0  0  0
   -7.8873    4.0739  -13.0908 N   0  0  0  0  0  0  0  0  0  0  0  0
   -7.7230    3.1979  -13.5091 H   0  0  0  0  0  0  0  0  0  0  0  0
   -8.1818    4.1255  -11.7019 C   0  0  0  0  0  0  0  0  0  0  0  0
   -8.0865    5.2830  -10.9024 C   0  0  0  0  0  0  0  0  0  0  0  0
   -8.2670    5.2503   -9.5118 C   0  0  0  0  0  0  0  0  0  0  0  0
   -8.5585    4.0430   -8.9135 C   0  0  0  0  0  0  0  0  0  0  0  0
   -8.6741    2.8912   -9.6719 C   0  0  0  0  0  0  0  0  0  0  0  0
   -8.4702    2.9116  -11.0485 C   0  0  0  0  0  0  0  0  0  0  0  0
   -9.0322    1.7475   -8.7835 C   0  0  0  0  0  0  0  0  0  0  0  0
   -9.1434    2.2985   -7.4069 N   0  0  0  0  0  0  0  0  0  0  0  0
   -8.8008    3.7332   -7.4782 C   0  0  0  0  0  0  0  0  0  0  0  0
   -8.4956    1.8156   -6.7844 H   0  0  0  0  0  0  0  0  0  0  0  0
   -7.8010    5.0207  -15.5029 C   0  0  0  0  0  0  0  0  0  0  0  0
   -6.4602    5.0044  -16.2953 C   0  0  0  0  0  0  0  0  0  0  0  0
   -6.3773    5.9567  -17.5008 C   0  0  0  0  0  0  0  0  0  0  0  0
   -5.0337    6.6391  -17.4420 C   0  0  0  0  0  0  0  0  0  0  0  0
   -4.2754    5.6995  -16.5335 C   0  0  0  0  0  0  0  0  0  0  0  0
   -3.1024    6.3402  -15.8314 C   0  0  0  0  0  0  0  0  0  0  0  0
   -5.2539    5.2563  -15.5790 O   0  0  0  0  0  0  0  0  0  0  0  0
   -4.3928    6.8005  -18.8264 C   0  0  0  0  0  0  0  0  0  0  0  0
   -5.4060    7.1520  -19.8324 N   0  0  0  0  0  0  0  0  0  0  0  0
   -5.3346    6.2807  -20.9746 N   0  0  0  0  0  0  0  0  0  0  0  0
   -5.2514    8.1129  -20.1377 H   0  0  0  0  0  0  0  0  0  0  0  0
   -5.4884    5.3172  -20.6773 H   0  0  0  0  0  0  0  0  0  0  0  0
   -4.4139    6.3605  -21.4061 H   0  0  0  0  0  0  0  0  0  0  0  0
   -8.6817    3.7768  -15.8380 C   0  0  0  0  0  0  0  0  0  0  0  0
   -8.3028    3.4463  -18.4428 C   0  0  0  0  0  0  0  0  0  0  0  0
   -9.1995    3.4329  -17.2439 C   0  0  0  0  0  0  0  0  0  0  0  0
  -10.5934    4.4197  -17.6720 Cl  0  0  0  0  0  0  0  0  0  0  0  0
 39 38  1  0  0  0
 39 40  1  0  0  0
 39 37  1  0  0  0
 24 37  1  0  0  0
 24 25  1  0  0  0
 25 26  1  0  0  0
 26 27  1  0  0  0
 27 31  1  0  0  0
 31 32  1  0  0  0
 32 33  1  0  0  0
 27 28  1  0  0  0
 28 29  1  0  0  0
 28 30  1  0  0  0
 24  1  1  0  0  0
  1  2  1  0  0  0
  1 12  1  0  0  0
 12 14  1  0  0  0
 14 15  2  0  0  0
 15 16  1  0  0  0
 16 17  2  0  0  0
 17 18  1  0  0  0
 18 19  2  0  0  0
 18 20  1  0  0  0
 20 21  1  0  0  0
 21 22  1  0  0  0
  1  4  1  0  0  0
  4  5  2  0  0  0
  4  6  1  0  0  0
  6  8  1  0  0  0
  8  9  1  0  0  0
  9 10  1  0  0  0
  9 11  1  0  0  0
 30 25  1  0  0  0
 19 14  1  0  0  0
 22 17  1  0  0  0
 32 34  1  0  0  0
 33 35  1  0  0  0
 33 36  1  0  0  0
  2  3  1  0  0  0
 12 13  1  0  0  0
 21 23  1  0  0  0
  6  7  1  0  0  0
M  END
> <minimizedAffinity>
-6.48349

> <minimizedRMSD>
0.21727

$$$$
P22656


 40 44  0  0  0  0  0  0  0  0999 V2000
   -6.8239    5.5699  -13.4934 C   0  0  0  0  0  0  0  0  0  0  0  0
   -4.4270    6.0769  -17.0302 C   0  0  0  0  0  0  0  0  0  0  0  0
   -4.8821    5.9180  -15.7992 N   0  0  0  0  0  0  0  0  0  0  0  0
   -6.0831    5.2839  -15.9111 C   0  0  0  0  0  0  0  0  0  0  0  0
   -6.9894    4.9572  -14.8849 C   0  0  0  0  0  0  0  0  0  0  0  0
   -8.1688    4.2930  -15.3101 C   0  0  0  0  0  0  0  0  0  0  0  0
   -8.4432    4.0594  -16.6601 C   0  0  0  0  0  0  0  0  0  0  0  0
  -10.0026    3.5471  -17.1396 Cl  0  0  0  0  0  0  0  0  0  0  0  0
   -7.5473    4.3999  -17.6607 C   0  0  0  0  0  0  0  0  0  0  0  0
   -6.3820    5.0392  -17.2444 C   0  0  0  0  0  0  0  0  0  0  0  0
   -5.3755    5.6695  -17.9464 N   0  0  0  0  0  0  0  0  0  0  0  0
   -5.5787    5.9943  -19.3733 C   0  0  0  0  0  0  0  0  0  0  0  0
   -4.6840    5.2792  -20.3866 C   0  0  0  0  0  0  0  0  0  0  0  0
   -4.7509    6.5174  -21.2217 N   0  0  0  0  0  0  0  0  0  0  0  0
   -5.0053    7.2795  -19.9668 C   0  0  0  0  0  0  0  0  0  0  0  0
   -5.5190    6.5359  -21.8927 H   0  0  0  0  0  0  0  0  0  0  0  0
   -3.0694    6.6151  -17.3138 C   0  0  0  0  0  0  0  0  0  0  0  0
   -1.3708    5.9907  -18.8956 C   0  0  0  0  0  0  0  0  0  0  0  0
   -2.1702    5.5597  -17.7575 N   0  0  0  0  0  0  0  0  0  0  0  0
   -1.5473    5.3090  -16.9897 H   0  0  0  0  0  0  0  0  0  0  0  0
   -5.5630    5.2530  -12.6727 C   0  0  0  0  0  0  0  0  0  0  0  0
   -4.9658    6.1206  -12.1670 O   0  0  0  0  0  0  0  0  0  0  0  0
   -5.3674    3.7222  -12.5910 N   0  0  0  0  0  0  0  0  0  0  0  0
   -5.9608    3.1990  -13.1770 H   0  0  0  0  0  0  0  0  0  0  0  0
   -4.4530    2.9318  -11.7925 C   0  0  0  0  0  0  0  0  0  0  0  0
   -3.1459    2.5784  -12.4956 C   0  0  0  0  0  0  0  0  0  0  0  0
   -2.1208    2.6676  -11.6030 F   0  0  0  0  0  0  0  0  0  0  0  0
   -3.1695    1.2821  -12.9047 F   0  0  0  0  0  0  0  0  0  0  0  0
   -8.0905    5.6573  -12.6731 C   0  0  0  0  0  0  0  0  0  0  0  0
   -9.0835    6.2514  -13.0984 O   0  0  0  0  0  0  0  0  0  0  0  0
   -8.1198    5.1522  -11.2859 C   0  0  0  0  0  0  0  0  0  0  0  0
   -7.9678    6.1093  -10.2681 C   0  0  0  0  0  0  0  0  0  0  0  0
   -8.1241    5.7449   -8.9334 C   0  0  0  0  0  0  0  0  0  0  0  0
   -8.4425    4.4287   -8.6492 C   0  0  0  0  0  0  0  0  0  0  0  0
   -8.5673    3.4735   -9.6545 C   0  0  0  0  0  0  0  0  0  0  0  0
   -8.4089    3.8136  -10.9926 C   0  0  0  0  0  0  0  0  0  0  0  0
   -8.9275    2.1620   -9.0368 C   0  0  0  0  0  0  0  0  0  0  0  0
   -9.1162    2.4130   -7.5858 N   0  0  0  0  0  0  0  0  0  0  0  0
   -8.7640    3.8217   -7.3272 C   0  0  0  0  0  0  0  0  0  0  0  0
   -8.5089    1.7977   -7.0445 H   0  0  0  0  0  0  0  0  0  0  0  0
 18 19  1  0  0  0
 19 17  1  0  0  0
 17  2  1  0  0  0
  2  3  2  0  0  0
  3  4  1  0  0  0
  4  5  2  0  0  0
  5  1  1  0  0  0
  1 21  1  0  0  0
 21 22  2  0  0  0
 21 23  1  0  0  0
 23 25  1  0  0  0
 25 26  1  0  0  0
 26 27  1  0  0  0
 26 28  1  0  0  0
  1 29  1  0  0  0
 29 30  2  0  0  0
 29 31  1  0  0  0
 31 32  2  0  0  0
 32 33  1  0  0  0
 33 34  2  0  0  0
 34 35  1  0  0  0
 35 36  2  0  0  0
 35 37  1  0  0  0
 37 38  1  0  0  0
 38 39  1  0  0  0
  5  6  1  0  0  0
  6  7  2  0  0  0
  7  8  1  0  0  0
  7  9  1  0  0  0
  9 10  2  0  0  0
 10 11  1  0  0  0
 11 12  1  0  0  0
 12 13  1  0  0  0
 13 14  1  0  0  0
 14 15  1  0  0  0
 11  2  1  0  0  0
 15 12  1  0  0  0
 10  4  1  0  0  0
 36 31  1  0  0  0
 39 34  1  0  0  0
 19 20  1  0  0  0
 23 24  1  0  0  0
 38 40  1  0  0  0
 14 16  1  0  0  0
M  END
> <minimizedAffinity>
-7.96313

> <minimizedRMSD>
0.54900

$$$$
P22681


 31 35  0  0  0  0  0  0  0  0999 V2000
   -7.6961    4.1398  -15.2239 C   0  0  0  0  0  0  0  0  0  0  0  0
   -8.9266    4.0551  -15.8793 C   0  0  0  0  0  0  0  0  0  0  0  0
   -9.0379    4.4445  -17.2080 C   0  0  0  0  0  0  0  0  0  0  0  0
  -10.2134    4.2947  -17.8370 F   0  0  0  0  0  0  0  0  0  0  0  0
   -7.9526    4.9974  -17.8792 C   0  0  0  0  0  0  0  0  0  0  0  0
   -6.7467    5.1428  -17.1975 C   0  0  0  0  0  0  0  0  0  0  0  0
   -6.6066    4.6891  -15.8831 C   0  0  0  0  0  0  0  0  0  0  0  0
   -5.2011    4.9141  -15.4098 C   0  0  0  0  0  0  0  0  0  0  0  0
   -4.4803    3.7117  -14.8133 C   0  0  0  0  0  0  0  0  0  0  0  0
   -4.5332    5.4278  -16.7130 C   0  0  0  0  0  0  0  0  0  0  0  0
   -3.8783    6.6471  -16.4449 O   0  0  0  0  0  0  0  0  0  0  0  0
   -3.6192    4.5176  -17.3236 O   0  0  0  0  0  0  0  0  0  0  0  0
   -3.6968    4.7816  -18.7287 C   0  0  0  0  0  0  0  0  0  0  0  0
   -5.1592    5.1103  -18.9761 C   0  0  0  0  0  0  0  0  0  0  0  0
   -5.5666    5.7375  -17.7175 N   0  0  0  0  0  0  0  0  0  0  0  0
   -3.1823    6.5021  -15.7849 H   0  0  0  0  0  0  0  0  0  0  0  0
   -8.0065    4.6634  -12.8270 N   0  0  0  0  0  0  0  0  0  0  0  0
   -7.5877    3.5933  -13.8573 C   0  0  0  0  0  0  0  0  0  0  0  0
   -7.2534    2.4865  -13.7044 O   0  0  0  0  0  0  0  0  0  0  0  0
   -8.1736    5.5568  -13.2055 H   0  0  0  0  0  0  0  0  0  0  0  0
   -7.9559    6.8895   -8.4269 C   0  0  0  0  0  0  0  0  0  0  0  0
   -8.1853    5.6731   -9.2680 C   0  0  0  0  0  0  0  0  0  0  0  0
   -8.0220    5.7231  -10.6630 C   0  0  0  0  0  0  0  0  0  0  0  0
   -8.1860    4.5712  -11.4516 C   0  0  0  0  0  0  0  0  0  0  0  0
   -8.5437    3.3596  -10.8663 C   0  0  0  0  0  0  0  0  0  0  0  0
   -8.7305    3.3237   -9.4976 C   0  0  0  0  0  0  0  0  0  0  0  0
   -8.5275    4.4478   -8.7055 C   0  0  0  0  0  0  0  0  0  0  0  0
   -8.7749    4.0806   -7.2808 C   0  0  0  0  0  0  0  0  0  0  0  0
   -9.0636    2.6316   -7.2485 N   0  0  0  0  0  0  0  0  0  0  0  0
   -9.1883    2.1798   -8.6610 C   0  0  0  0  0  0  0  0  0  0  0  0
   -9.9354    2.4594   -6.7477 H   0  0  0  0  0  0  0  0  0  0  0  0
 21 22  1  0  0  0
 22 23  2  0  0  0
 23 24  1  0  0  0
 24 17  1  0  0  0
 17 18  1  0  0  0
 18 19  2  0  0  0
 18  1  1  0  0  0
  1  2  2  0  0  0
  2  3  1  0  0  0
  3  4  1  0  0  0
  3  5  2  0  0  0
  5  6  1  0  0  0
  6  7  2  0  0  0
  7  8  1  0  0  0
  8  9  1  0  0  0
  8 10  1  0  0  0
 10 11  1  0  0  0
 10 12  1  0  0  0
 12 13  1  0  0  0
 13 14  1  0  0  0
 14 15  1  0  0  0
 24 25  2  0  0  0
 25 26  1  0  0  0
 26 27  2  0  0  0
 27 28  1  0  0  0
 28 29  1  0  0  0
 29 30  1  0  0  0
 27 22  1  0  0  0
  7  1  1  0  0  0
 15 10  1  0  0  0
 30 26  1  0  0  0
 15  6  1  0  0  0
 17 20  1  0  0  0
 11 16  1  0  0  0
 29 31  1  0  0  0
M  END
> <minimizedAffinity>
-9.24548

> <minimizedRMSD>
0.40218

$$$$
P22705


 40 44  0  0  0  0  0  0  0  0999 V2000
   -5.7702    5.4538  -15.9903 C   0  0  0  0  0  0  0  0  0  0  0  0
   -5.1918    4.8604  -14.7008 C   0  0  0  0  0  0  0  0  0  0  0  0
   -7.1817    5.0018  -16.3008 C   0  0  0  0  0  0  0  0  0  0  0  0
   -7.2582    4.7039  -17.6708 C   0  0  0  0  0  0  0  0  0  0  0  0
   -8.4528    4.3669  -18.2774 C   0  0  0  0  0  0  0  0  0  0  0  0
   -9.5659    4.1967  -17.4658 C   0  0  0  0  0  0  0  0  0  0  0  0
  -10.7205    3.7924  -18.0118 F   0  0  0  0  0  0  0  0  0  0  0  0
   -9.5101    4.4369  -16.0901 C   0  0  0  0  0  0  0  0  0  0  0  0
   -8.3176    4.8783  -15.5011 C   0  0  0  0  0  0  0  0  0  0  0  0
   -6.0262    4.8843  -18.3752 N   0  0  0  0  0  0  0  0  0  0  0  0
   -5.0684    4.8108  -17.2571 C   0  0  0  0  0  0  0  0  0  0  0  0
   -5.8637    5.0195  -19.3367 H   0  0  0  0  0  0  0  0  0  0  0  0
   -8.3316    5.3155  -14.0803 C   0  0  0  0  0  0  0  0  0  0  0  0
   -8.3063    6.4995  -13.9004 O   0  0  0  0  0  0  0  0  0  0  0  0
   -8.3396    4.2220  -13.1451 N   0  0  0  0  0  0  0  0  0  0  0  0
   -8.2844    3.3304  -13.5589 H   0  0  0  0  0  0  0  0  0  0  0  0
   -8.4123    4.2099  -11.7489 C   0  0  0  0  0  0  0  0  0  0  0  0
   -8.0603    5.3440  -10.9952 C   0  0  0  0  0  0  0  0  0  0  0  0
   -8.1216    5.3314   -9.5979 C   0  0  0  0  0  0  0  0  0  0  0  0
   -8.5316    4.1698   -8.9709 C   0  0  0  0  0  0  0  0  0  0  0  0
   -8.8880    3.0425   -9.7086 C   0  0  0  0  0  0  0  0  0  0  0  0
   -8.8382    3.0452  -11.0981 C   0  0  0  0  0  0  0  0  0  0  0  0
   -9.3417    1.9585   -8.7747 C   0  0  0  0  0  0  0  0  0  0  0  0
   -9.0133    2.4607   -7.4095 N   0  0  0  0  0  0  0  0  0  0  0  0
  -10.0231    2.1771   -6.4079 N   0  0  0  0  0  0  0  0  0  0  0  0
   -8.7098    3.9020   -7.5096 C   0  0  0  0  0  0  0  0  0  0  0  0
  -10.1978    1.1726   -6.3762 H   0  0  0  0  0  0  0  0  0  0  0  0
  -10.8862    2.6649   -6.6476 H   0  0  0  0  0  0  0  0  0  0  0  0
   -5.1749    7.5889  -15.0124 C   0  0  0  0  0  0  0  0  0  0  0  0
   -5.7975    6.8886  -16.0745 O   0  0  0  0  0  0  0  0  0  0  0  0
   -3.7476    5.3893  -17.5586 N   0  0  0  0  0  0  0  0  0  0  0  0
   -3.2482    4.7906  -18.5791 C   0  0  0  0  0  0  0  0  0  0  0  0
   -2.0249    5.0414  -19.0897 O   0  0  0  0  0  0  0  0  0  0  0  0
   -1.1678    5.9016  -18.3323 C   0  0  0  0  0  0  0  0  0  0  0  0
    0.1514    5.9222  -19.0605 C   0  0  0  0  0  0  0  0  0  0  0  0
    0.2414    6.4687  -20.3489 C   0  0  0  0  0  0  0  0  0  0  0  0
    1.4492    6.4392  -21.0471 C   0  0  0  0  0  0  0  0  0  0  0  0
    2.5753    5.8570  -20.4681 C   0  0  0  0  0  0  0  0  0  0  0  0
    2.4958    5.3045  -19.1910 C   0  0  0  0  0  0  0  0  0  0  0  0
    1.2892    5.3342  -18.4904 C   0  0  0  0  0  0  0  0  0  0  0  0
 29 30  1  0  0  0
 30  1  1  0  0  0
  1  2  1  0  0  0
  1  3  1  0  0  0
  3  4  2  0  0  0
  4  5  1  0  0  0
  5  6  2  0  0  0
  6  7  1  0  0  0
  6  8  1  0  0  0
  8  9  2  0  0  0
  9 13  1  0  0  0
 13 14  2  0  0  0
 13 15  1  0  0  0
 15 17  1  0  0  0
 17 18  2  0  0  0
 18 19  1  0  0  0
 19 20  2  0  0  0
 20 21  1  0  0  0
 21 22  2  0  0  0
 21 23  1  0  0  0
 23 24  1  0  0  0
 24 25  1  0  0  0
 24 26  1  0  0  0
  4 10  1  0  0  0
 11 10  1  0  0  0
 11 31  1  0  0  0
 31 32  2  0  0  0
 32 33  1  0  0  0
 33 34  1  0  0  0
 34 35  1  0  0  0
 35 36  2  0  0  0
 36 37  1  0  0  0
 37 38  2  0  0  0
 38 39  1  0  0  0
 39 40  2  0  0  0
 11  1  1  0  0  0
 40 35  1  0  0  0
  9  3  1  0  0  0
 22 17  1  0  0  0
 26 20  1  0  0  0
 15 16  1  0  0  0
 25 27  1  0  0  0
 25 28  1  0  0  0
 10 12  1  0  0  0
M  END
> <minimizedAffinity>
-8.27161

> <minimizedRMSD>
0.73123

$$$$
P22707


 31 34  0  0  0  0  0  0  0  0999 V2000
   -5.3253    5.3909  -15.3159 C   0  0  0  0  0  0  0  0  0  0  0  0
   -5.5066    6.6729  -14.4891 C   0  0  0  0  0  0  0  0  0  0  0  0
   -4.5728    5.8420  -16.6184 C   0  0  0  0  0  0  0  0  0  0  0  0
   -3.4215    6.2537  -16.6781 O   0  0  0  0  0  0  0  0  0  0  0  0
   -5.4946    5.6920  -17.6738 N   0  0  0  0  0  0  0  0  0  0  0  0
   -5.2364    6.0328  -18.9894 N   0  0  0  0  0  0  0  0  0  0  0  0
   -6.7125    5.1645  -17.2470 C   0  0  0  0  0  0  0  0  0  0  0  0
   -7.8286    4.8716  -18.0178 C   0  0  0  0  0  0  0  0  0  0  0  0
   -8.9339    4.3396  -17.3704 C   0  0  0  0  0  0  0  0  0  0  0  0
  -10.0409    4.0472  -18.0687 F   0  0  0  0  0  0  0  0  0  0  0  0
   -8.8980    4.0713  -16.0051 C   0  0  0  0  0  0  0  0  0  0  0  0
   -7.7361    4.3048  -15.2621 C   0  0  0  0  0  0  0  0  0  0  0  0
   -6.6561    4.9205  -15.8704 C   0  0  0  0  0  0  0  0  0  0  0  0
   -4.2866    6.3964  -19.0663 H   0  0  0  0  0  0  0  0  0  0  0  0
   -5.8993    6.7465  -19.2921 H   0  0  0  0  0  0  0  0  0  0  0  0
   -7.6636    3.7172  -13.9107 C   0  0  0  0  0  0  0  0  0  0  0  0
   -7.3428    2.6014  -13.8001 O   0  0  0  0  0  0  0  0  0  0  0  0
   -8.1442    4.7283  -12.8518 N   0  0  0  0  0  0  0  0  0  0  0  0
   -8.4317    5.5979  -13.2130 H   0  0  0  0  0  0  0  0  0  0  0  0
   -8.2379    4.6128  -11.4721 C   0  0  0  0  0  0  0  0  0  0  0  0
   -8.0078    5.7394  -10.6663 C   0  0  0  0  0  0  0  0  0  0  0  0
   -8.0958    5.6411   -9.2741 C   0  0  0  0  0  0  0  0  0  0  0  0
   -8.4629    4.4239   -8.7247 C   0  0  0  0  0  0  0  0  0  0  0  0
   -8.7261    3.3246   -9.5297 C   0  0  0  0  0  0  0  0  0  0  0  0
   -8.5895    3.3901  -10.9027 C   0  0  0  0  0  0  0  0  0  0  0  0
   -9.1924    2.1809   -8.6996 C   0  0  0  0  0  0  0  0  0  0  0  0
   -9.0749    2.6266   -7.2828 N   0  0  0  0  0  0  0  0  0  0  0  0
   -8.6909    4.0540   -7.3012 C   0  0  0  0  0  0  0  0  0  0  0  0
   -8.3605    2.0791   -6.8029 H   0  0  0  0  0  0  0  0  0  0  0  0
   -3.9017    3.4893  -15.0500 C   0  0  0  0  0  0  0  0  0  0  0  0
   -4.7686    4.4312  -14.4436 O   0  0  0  0  0  0  0  0  0  0  0  0
 30 31  1  0  0  0
 31  1  1  0  0  0
  1  2  1  0  0  0
  1  3  1  0  0  0
  3  4  2  0  0  0
  3  5  1  0  0  0
  5  6  1  0  0  0
  5  7  1  0  0  0
  7  8  2  0  0  0
  8  9  1  0  0  0
  9 10  1  0  0  0
  9 11  2  0  0  0
 11 12  1  0  0  0
 12 16  1  0  0  0
 16 17  2  0  0  0
 16 18  1  0  0  0
 18 20  1  0  0  0
 20 21  2  0  0  0
 21 22  1  0  0  0
 22 23  2  0  0  0
 23 24  1  0  0  0
 24 25  2  0  0  0
 24 26  1  0  0  0
 26 27  1  0  0  0
 27 28  1  0  0  0
 12 13  2  0  0  0
 13  1  1  0  0  0
 13  7  1  0  0  0
 25 20  1  0  0  0
 28 23  1  0  0  0
  6 14  1  0  0  0
  6 15  1  0  0  0
 18 19  1  0  0  0
 27 29  1  0  0  0
M  END
> <minimizedAffinity>
-8.25418

> <minimizedRMSD>
0.29557

$$$$
P22715


 41 45  0  0  0  0  0  0  0  0999 V2000
   -7.2174    4.4048  -13.5984 C   0  0  0  0  0  0  0  0  0  0  0  0
   -6.3205    5.4106  -13.1272 O   0  0  0  0  0  0  0  0  0  0  0  0
   -6.6784    6.2872  -13.3375 H   0  0  0  0  0  0  0  0  0  0  0  0
   -4.9308    4.9586  -15.8897 C   0  0  0  0  0  0  0  0  0  0  0  0
   -4.2032    3.7919  -15.2362 C   0  0  0  0  0  0  0  0  0  0  0  0
   -4.4406    5.0387  -17.3629 C   0  0  0  0  0  0  0  0  0  0  0  0
   -3.2773    5.1268  -17.7253 O   0  0  0  0  0  0  0  0  0  0  0  0
   -5.5544    4.9896  -18.1795 N   0  0  0  0  0  0  0  0  0  0  0  0
   -6.7119    4.7911  -17.4430 C   0  0  0  0  0  0  0  0  0  0  0  0
   -7.9731    4.6237  -17.9675 C   0  0  0  0  0  0  0  0  0  0  0  0
   -8.9908    4.3816  -17.0613 C   0  0  0  0  0  0  0  0  0  0  0  0
  -10.2308    4.1681  -17.5241 F   0  0  0  0  0  0  0  0  0  0  0  0
   -8.7435    4.3382  -15.6777 C   0  0  0  0  0  0  0  0  0  0  0  0
   -7.4480    4.5246  -15.1291 C   0  0  0  0  0  0  0  0  0  0  0  0
   -6.4252    4.7380  -16.0658 C   0  0  0  0  0  0  0  0  0  0  0  0
   -5.5290    5.0836  -19.1592 H   0  0  0  0  0  0  0  0  0  0  0  0
   -3.5206    6.4230  -14.5993 C   0  0  0  0  0  0  0  0  0  0  0  0
   -4.8131    6.1667  -15.1371 O   0  0  0  0  0  0  0  0  0  0  0  0
   -6.6546    2.9052  -13.2657 C   0  0  0  0  0  0  0  0  0  0  0  0
   -7.0296    1.9272  -13.7915 O   0  0  0  0  0  0  0  0  0  0  0  0
   -5.5228    3.1154  -12.2088 N   0  0  0  0  0  0  0  0  0  0  0  0
   -5.4497    4.0330  -11.8596 H   0  0  0  0  0  0  0  0  0  0  0  0
   -4.5679    2.1830  -11.6620 C   0  0  0  0  0  0  0  0  0  0  0  0
   -3.2217    2.2676  -12.3976 C   0  0  0  0  0  0  0  0  0  0  0  0
   -2.4224    3.5139  -11.9796 C   0  0  0  0  0  0  0  0  0  0  0  0
   -1.0630    3.5271  -12.6670 C   0  0  0  0  0  0  0  0  0  0  0  0
   -0.3229    2.3485  -12.3578 O   0  0  0  0  0  0  0  0  0  0  0  0
   -0.9940    1.1612  -12.7810 C   0  0  0  0  0  0  0  0  0  0  0  0
   -2.3586    1.0339  -12.1194 C   0  0  0  0  0  0  0  0  0  0  0  0
   -8.4796    4.7142  -12.9047 N   0  0  0  0  0  0  0  0  0  0  0  0
   -9.2952    4.9721  -13.3922 H   0  0  0  0  0  0  0  0  0  0  0  0
   -8.4457    4.6175  -11.4961 C   0  0  0  0  0  0  0  0  0  0  0  0
   -8.0661    5.7326  -10.7151 C   0  0  0  0  0  0  0  0  0  0  0  0
   -8.0202    5.6629   -9.3197 C   0  0  0  0  0  0  0  0  0  0  0  0
   -8.3614    4.4663   -8.7206 C   0  0  0  0  0  0  0  0  0  0  0  0
   -8.6946    3.3500   -9.4815 C   0  0  0  0  0  0  0  0  0  0  0  0
   -8.7354    3.4043  -10.8637 C   0  0  0  0  0  0  0  0  0  0  0  0
   -8.9735    2.2024   -8.5694 C   0  0  0  0  0  0  0  0  0  0  0  0
   -9.1908    2.8241   -7.2339 N   0  0  0  0  0  0  0  0  0  0  0  0
   -8.4658    4.1128   -7.2755 C   0  0  0  0  0  0  0  0  0  0  0  0
   -8.8147    2.2271   -6.4973 H   0  0  0  0  0  0  0  0  0  0  0  0
 17 18  1  0  0  0
 18  4  1  0  0  0
  4  5  1  0  0  0
  4  6  1  0  0  0
  6  7  2  0  0  0
  6  8  1  0  0  0
  8  9  1  0  0  0
  9 10  2  0  0  0
 10 11  1  0  0  0
 11 12  1  0  0  0
 11 13  2  0  0  0
 13 14  1  0  0  0
 14  1  1  0  0  0
  1  2  1  0  0  0
  1 30  1  0  0  0
 30 32  1  0  0  0
 32 33  2  0  0  0
 33 34  1  0  0  0
 34 35  2  0  0  0
 35 36  1  0  0  0
 36 37  2  0  0  0
 36 38  1  0  0  0
 38 39  1  0  0  0
 39 40  1  0  0  0
  1 19  1  0  0  0
 19 20  2  0  0  0
 19 21  1  0  0  0
 21 23  1  0  0  0
 23 24  1  0  0  0
 24 25  1  0  0  0
 25 26  1  0  0  0
 26 27  1  0  0  0
 27 28  1  0  0  0
 28 29  1  0  0  0
 14 15  2  0  0  0
 15  4  1  0  0  0
 15  9  1  0  0  0
 37 32  1  0  0  0
 29 24  1  0  0  0
 40 35  1  0  0  0
  8 16  1  0  0  0
  2  3  1  0  0  0
 30 31  1  0  0  0
 39 41  1  0  0  0
 21 22  1  0  0  0
M  END
> <minimizedAffinity>
-8.76217

> <minimizedRMSD>
0.41450

$$$$
P22730


 44 48  0  0  0  0  0  0  0  0999 V2000
   -7.2717    4.6989  -14.0824 C   0  0  0  0  0  0  0  0  0  0  0  0
   -6.3276    5.7183  -13.8526 O   0  0  0  0  0  0  0  0  0  0  0  0
   -6.7110    6.5751  -14.0971 H   0  0  0  0  0  0  0  0  0  0  0  0
   -5.2993    5.3364  -16.7727 C   0  0  0  0  0  0  0  0  0  0  0  0
   -4.3860    4.4988  -15.8914 C   0  0  0  0  0  0  0  0  0  0  0  0
   -4.9976    4.9725  -18.2820 C   0  0  0  0  0  0  0  0  0  0  0  0
   -3.9127    4.9573  -18.8473 O   0  0  0  0  0  0  0  0  0  0  0  0
   -6.2184    4.7721  -18.9012 N   0  0  0  0  0  0  0  0  0  0  0  0
   -7.2500    4.7198  -17.9764 C   0  0  0  0  0  0  0  0  0  0  0  0
   -8.5470    4.3905  -18.2985 C   0  0  0  0  0  0  0  0  0  0  0  0
   -9.4169    4.2071  -17.2448 C   0  0  0  0  0  0  0  0  0  0  0  0
  -10.6779    3.8390  -17.5039 F   0  0  0  0  0  0  0  0  0  0  0  0
   -8.9899    4.3480  -15.9183 C   0  0  0  0  0  0  0  0  0  0  0  0
   -7.6602    4.7177  -15.5759 C   0  0  0  0  0  0  0  0  0  0  0  0
   -6.7860    4.9433  -16.6608 C   0  0  0  0  0  0  0  0  0  0  0  0
   -6.3391    4.6785  -19.8737 H   0  0  0  0  0  0  0  0  0  0  0  0
   -5.4551    7.6879  -17.7346 C   0  0  0  0  0  0  0  0  0  0  0  0
   -5.1522    6.8179  -16.5967 N   0  0  0  0  0  0  0  0  0  0  0  0
   -4.0061    7.3158  -15.9677 C   0  0  0  0  0  0  0  0  0  0  0  0
   -2.8254    7.5843  -16.6648 C   0  0  0  0  0  0  0  0  0  0  0  0
   -1.7257    8.1121  -15.9909 C   0  0  0  0  0  0  0  0  0  0  0  0
   -1.8289    8.3790  -14.6352 C   0  0  0  0  0  0  0  0  0  0  0  0
   -3.0366    8.1142  -14.0176 C   0  0  0  0  0  0  0  0  0  0  0  0
   -4.1160    7.6080  -14.6533 N   0  0  0  0  0  0  0  0  0  0  0  0
   -6.7246    3.2099  -13.7018 C   0  0  0  0  0  0  0  0  0  0  0  0
   -7.2731    2.2181  -13.9900 O   0  0  0  0  0  0  0  0  0  0  0  0
   -5.3847    3.4364  -12.9441 N   0  0  0  0  0  0  0  0  0  0  0  0
   -5.0944    4.3756  -12.8914 H   0  0  0  0  0  0  0  0  0  0  0  0
   -4.4979    2.4925  -12.3058 C   0  0  0  0  0  0  0  0  0  0  0  0
   -3.3604    2.0609  -13.2249 C   0  0  0  0  0  0  0  0  0  0  0  0
   -2.5801    3.1363  -13.5277 F   0  0  0  0  0  0  0  0  0  0  0  0
   -3.8273    1.5939  -14.4120 F   0  0  0  0  0  0  0  0  0  0  0  0
   -8.4314    5.1006  -13.2549 N   0  0  0  0  0  0  0  0  0  0  0  0
   -9.2486    5.4423  -13.6846 H   0  0  0  0  0  0  0  0  0  0  0  0
   -8.3649    4.9937  -11.8551 C   0  0  0  0  0  0  0  0  0  0  0  0
   -8.0091    6.1190  -11.0783 C   0  0  0  0  0  0  0  0  0  0  0  0
   -7.9212    6.0509   -9.6815 C   0  0  0  0  0  0  0  0  0  0  0  0
   -8.2090    4.8479   -9.0668 C   0  0  0  0  0  0  0  0  0  0  0  0
   -8.5487    3.7279   -9.8149 C   0  0  0  0  0  0  0  0  0  0  0  0
   -8.6247    3.7821  -11.1997 C   0  0  0  0  0  0  0  0  0  0  0  0
   -8.8049    2.5810   -8.8907 C   0  0  0  0  0  0  0  0  0  0  0  0
   -8.9465    3.1957   -7.5423 N   0  0  0  0  0  0  0  0  0  0  0  0
   -8.2481    4.4952   -7.6176 C   0  0  0  0  0  0  0  0  0  0  0  0
   -8.5159    2.6015   -6.8339 H   0  0  0  0  0  0  0  0  0  0  0  0
 17 18  1  0  0  0
 18 19  1  0  0  0
 19 20  2  0  0  0
 20 21  1  0  0  0
 21 22  2  0  0  0
 22 23  1  0  0  0
 23 24  2  0  0  0
 18  4  1  0  0  0
  4  5  1  0  0  0
  4  6  1  0  0  0
  6  7  2  0  0  0
  6  8  1  0  0  0
  8  9  1  0  0  0
  9 10  2  0  0  0
 10 11  1  0  0  0
 11 12  1  0  0  0
 11 13  2  0  0  0
 13 14  1  0  0  0
 14  1  1  0  0  0
  1  2  1  0  0  0
  1 33  1  0  0  0
 33 35  1  0  0  0
 35 36  2  0  0  0
 36 37  1  0  0  0
 37 38  2  0  0  0
 38 39  1  0  0  0
 39 40  2  0  0  0
 39 41  1  0  0  0
 41 42  1  0  0  0
 42 43  1  0  0  0
  1 25  1  0  0  0
 25 26  2  0  0  0
 25 27  1  0  0  0
 27 29  1  0  0  0
 29 30  1  0  0  0
 30 31  1  0  0  0
 30 32  1  0  0  0
 14 15  2  0  0  0
 24 19  1  0  0  0
 15  4  1  0  0  0
 15  9  1  0  0  0
 40 35  1  0  0  0
 43 38  1  0  0  0
  8 16  1  0  0  0
  2  3  1  0  0  0
 33 34  1  0  0  0
 42 44  1  0  0  0
 27 28  1  0  0  0
M  END
> <minimizedAffinity>
-8.73149

> <minimizedRMSD>
0.45567

$$$$
P22731


 29 32  0  0  0  0  0  0  0  0999 V2000
   -5.0030    4.6631  -15.0806 C   0  0  0  0  0  0  0  0  0  0  0  0
   -4.4388    3.3135  -14.6310 C   0  0  0  0  0  0  0  0  0  0  0  0
   -4.1663    5.2013  -16.2511 C   0  0  0  0  0  0  0  0  0  0  0  0
   -2.9847    5.4931  -16.2411 O   0  0  0  0  0  0  0  0  0  0  0  0
   -5.0818    5.3543  -17.4602 C   0  0  0  0  0  0  0  0  0  0  0  0
   -4.7697    5.7886  -18.5440 O   0  0  0  0  0  0  0  0  0  0  0  0
   -6.4159    4.9237  -17.0426 C   0  0  0  0  0  0  0  0  0  0  0  0
   -7.5691    4.8977  -17.8117 C   0  0  0  0  0  0  0  0  0  0  0  0
   -8.7445    4.5113  -17.1792 C   0  0  0  0  0  0  0  0  0  0  0  0
   -9.8993    4.4886  -17.8599 F   0  0  0  0  0  0  0  0  0  0  0  0
   -8.7498    4.1394  -15.8343 C   0  0  0  0  0  0  0  0  0  0  0  0
   -7.5598    4.1050  -15.0991 C   0  0  0  0  0  0  0  0  0  0  0  0
   -6.3802    4.5348  -15.6956 C   0  0  0  0  0  0  0  0  0  0  0  0
   -7.5961    3.5096  -13.7429 C   0  0  0  0  0  0  0  0  0  0  0  0
   -7.4366    2.3601  -13.6317 O   0  0  0  0  0  0  0  0  0  0  0  0
   -7.8682    4.5879  -12.6770 N   0  0  0  0  0  0  0  0  0  0  0  0
   -7.8901    5.5103  -13.0202 H   0  0  0  0  0  0  0  0  0  0  0  0
   -8.0879    4.4706  -11.3090 C   0  0  0  0  0  0  0  0  0  0  0  0
   -7.8368    5.5870  -10.4924 C   0  0  0  0  0  0  0  0  0  0  0  0
   -8.0235    5.5139   -9.1084 C   0  0  0  0  0  0  0  0  0  0  0  0
   -8.5009    4.3294   -8.5762 C   0  0  0  0  0  0  0  0  0  0  0  0
   -8.7746    3.2341   -9.3887 C   0  0  0  0  0  0  0  0  0  0  0  0
   -8.5558    3.2784  -10.7543 C   0  0  0  0  0  0  0  0  0  0  0  0
   -9.2912    2.1106   -8.5513 C   0  0  0  0  0  0  0  0  0  0  0  0
   -9.5986    2.7219   -7.2281 N   0  0  0  0  0  0  0  0  0  0  0  0
   -8.8034    3.9651   -7.1618 C   0  0  0  0  0  0  0  0  0  0  0  0
   -9.3311    2.0890   -6.4742 H   0  0  0  0  0  0  0  0  0  0  0  0
   -4.3817    5.4137  -12.8743 C   0  0  0  0  0  0  0  0  0  0  0  0
   -5.1397    5.6487  -14.0559 O   0  0  0  0  0  0  0  0  0  0  0  0
 28 29  1  0  0  0
 29  1  1  0  0  0
  1  2  1  0  0  0
  1  3  1  0  0  0
  3  4  2  0  0  0
  3  5  1  0  0  0
  5  6  2  0  0  0
  5  7  1  0  0  0
  7  8  2  0  0  0
  8  9  1  0  0  0
  9 10  1  0  0  0
  9 11  2  0  0  0
 11 12  1  0  0  0
 12 14  1  0  0  0
 14 15  2  0  0  0
 14 16  1  0  0  0
 16 18  1  0  0  0
 18 19  2  0  0  0
 19 20  1  0  0  0
 20 21  2  0  0  0
 21 22  1  0  0  0
 22 23  2  0  0  0
 22 24  1  0  0  0
 24 25  1  0  0  0
 25 26  1  0  0  0
 12 13  2  0  0  0
 13  1  1  0  0  0
 13  7  1  0  0  0
 23 18  1  0  0  0
 26 21  1  0  0  0
 16 17  1  0  0  0
 25 27  1  0  0  0
M  END
> <minimizedAffinity>
-8.36714

> <minimizedRMSD>
0.57530

$$$$
P22746


 33 36  0  0  0  0  0  0  0  0999 V2000
   -5.8862    5.0858  -17.9051 N   0  0  0  0  0  0  0  0  0  0  0  0
   -5.0885    5.2902  -16.7775 C   0  0  0  0  0  0  0  0  0  0  0  0
   -3.8714    5.4319  -16.7762 O   0  0  0  0  0  0  0  0  0  0  0  0
   -6.0361    5.3415  -15.5315 C   0  0  0  0  0  0  0  0  0  0  0  0
   -5.5834    4.2449  -14.5625 C   0  0  0  0  0  0  0  0  0  0  0  0
   -7.3739    4.9890  -16.1575 C   0  0  0  0  0  0  0  0  0  0  0  0
   -8.6174    4.7682  -15.5672 C   0  0  0  0  0  0  0  0  0  0  0  0
   -9.6591    4.2875  -16.3629 C   0  0  0  0  0  0  0  0  0  0  0  0
   -9.4737    4.1179  -17.7361 C   0  0  0  0  0  0  0  0  0  0  0  0
  -10.4926    3.6701  -18.4822 F   0  0  0  0  0  0  0  0  0  0  0  0
   -8.2604    4.4122  -18.3496 C   0  0  0  0  0  0  0  0  0  0  0  0
   -7.2130    4.8194  -17.5414 C   0  0  0  0  0  0  0  0  0  0  0  0
   -8.9141    5.1848  -14.1734 C   0  0  0  0  0  0  0  0  0  0  0  0
   -9.5201    6.1706  -14.0251 O   0  0  0  0  0  0  0  0  0  0  0  0
   -8.3530    4.1865  -13.1331 N   0  0  0  0  0  0  0  0  0  0  0  0
   -7.9377    3.3809  -13.5173 H   0  0  0  0  0  0  0  0  0  0  0  0
   -8.3398    4.2428  -11.7290 C   0  0  0  0  0  0  0  0  0  0  0  0
   -8.7691    3.1100  -11.0292 C   0  0  0  0  0  0  0  0  0  0  0  0
   -8.7748    3.1389   -9.6389 C   0  0  0  0  0  0  0  0  0  0  0  0
   -8.3502    4.2552   -8.9316 C   0  0  0  0  0  0  0  0  0  0  0  0
   -7.9105    5.3792   -9.5944 C   0  0  0  0  0  0  0  0  0  0  0  0
   -7.9187    5.3648  -10.9905 C   0  0  0  0  0  0  0  0  0  0  0  0
   -7.4984    6.4794  -11.5910 F   0  0  0  0  0  0  0  0  0  0  0  0
   -8.4585    3.9983   -7.4695 C   0  0  0  0  0  0  0  0  0  0  0  0
   -9.1781    2.7176   -7.3339 N   0  0  0  0  0  0  0  0  0  0  0  0
   -9.1664    2.0719   -8.6731 C   0  0  0  0  0  0  0  0  0  0  0  0
  -10.1384    2.8848   -7.0335 H   0  0  0  0  0  0  0  0  0  0  0  0
   -6.1168    6.5452  -14.7952 O   0  0  0  0  0  0  0  0  0  0  0  0
   -5.4250    7.6567  -15.3339 C   0  0  0  0  0  0  0  0  0  0  0  0
   -5.3225    4.9021  -19.2098 C   0  0  0  0  0  0  0  0  0  0  0  0
   -4.4801    6.1022  -21.1003 C   0  0  0  0  0  0  0  0  0  0  0  0
   -5.1561    6.2117  -19.8187 N   0  0  0  0  0  0  0  0  0  0  0  0
   -6.0738    6.6340  -19.9597 H   0  0  0  0  0  0  0  0  0  0  0  0
 31 32  1  0  0  0
 32 30  1  0  0  0
 30  1  1  0  0  0
  1  2  1  0  0  0
  2  3  2  0  0  0
  2  4  1  0  0  0
  4  5  1  0  0  0
  4 28  1  0  0  0
 28 29  1  0  0  0
  4  6  1  0  0  0
  6  7  2  0  0  0
  7 13  1  0  0  0
 13 14  2  0  0  0
 13 15  1  0  0  0
 15 17  1  0  0  0
 17 18  2  0  0  0
 18 19  1  0  0  0
 19 20  2  0  0  0
 20 21  1  0  0  0
 21 22  2  0  0  0
 22 23  1  0  0  0
 20 24  1  0  0  0
 24 25  1  0  0  0
 25 26  1  0  0  0
  7  8  1  0  0  0
  8  9  2  0  0  0
  9 10  1  0  0  0
  9 11  1  0  0  0
 11 12  2  0  0  0
 12  1  1  0  0  0
 12  6  1  0  0  0
 22 17  1  0  0  0
 26 19  1  0  0  0
 32 33  1  0  0  0
 15 16  1  0  0  0
 25 27  1  0  0  0
M  END
> <minimizedAffinity>
-8.44128

> <minimizedRMSD>
0.74599

$$$$
P22753


 34 38  0  0  0  0  0  0  0  0999 V2000
   -5.3214    5.2114  -15.6889 C   0  0  0  0  0  0  0  0  0  0  0  0
   -4.6032    4.1782  -14.8116 C   0  0  0  0  0  0  0  0  0  0  0  0
   -6.7031    4.7848  -16.1227 C   0  0  0  0  0  0  0  0  0  0  0  0
   -7.7971    4.3778  -15.3656 C   0  0  0  0  0  0  0  0  0  0  0  0
   -9.0363    4.2004  -15.9897 C   0  0  0  0  0  0  0  0  0  0  0  0
   -9.1502    4.3494  -17.3671 C   0  0  0  0  0  0  0  0  0  0  0  0
  -10.3268    4.1125  -17.9641 F   0  0  0  0  0  0  0  0  0  0  0  0
   -8.0407    4.6586  -18.1420 C   0  0  0  0  0  0  0  0  0  0  0  0
   -6.8194    4.8711  -17.5156 C   0  0  0  0  0  0  0  0  0  0  0  0
   -5.5977    5.0557  -18.1719 N   0  0  0  0  0  0  0  0  0  0  0  0
   -5.5106    6.1202  -19.1552 C   0  0  0  0  0  0  0  0  0  0  0  0
   -4.3179    6.9608  -18.9026 N   0  0  0  0  0  0  0  0  0  0  0  0
   -4.0764    6.7609  -17.4014 N   0  0  0  0  0  0  0  0  0  0  0  0
   -4.6246    5.4091  -17.1347 C   0  0  0  0  0  0  0  0  0  0  0  0
   -3.5891    4.4710  -17.3268 O   0  0  0  0  0  0  0  0  0  0  0  0
   -4.5058    7.9400  -19.1177 H   0  0  0  0  0  0  0  0  0  0  0  0
   -4.5700    7.4677  -16.8562 H   0  0  0  0  0  0  0  0  0  0  0  0
   -2.8869    4.6268  -16.6761 H   0  0  0  0  0  0  0  0  0  0  0  0
   -7.6572    3.8261  -14.0008 C   0  0  0  0  0  0  0  0  0  0  0  0
   -7.3812    2.6970  -13.9051 O   0  0  0  0  0  0  0  0  0  0  0  0
   -7.9882    4.8685  -12.9166 N   0  0  0  0  0  0  0  0  0  0  0  0
   -8.1148    5.7856  -13.2515 H   0  0  0  0  0  0  0  0  0  0  0  0
   -8.1375    4.7250  -11.5387 C   0  0  0  0  0  0  0  0  0  0  0  0
   -7.9060    5.8163  -10.6887 C   0  0  0  0  0  0  0  0  0  0  0  0
   -8.0289    5.6715   -9.2996 C   0  0  0  0  0  0  0  0  0  0  0  0
   -8.4234    4.4430   -8.7923 C   0  0  0  0  0  0  0  0  0  0  0  0
   -8.7007    3.3797   -9.6373 C   0  0  0  0  0  0  0  0  0  0  0  0
   -8.5399    3.4943  -11.0079 C   0  0  0  0  0  0  0  0  0  0  0  0
   -9.1950    2.2154   -8.8488 C   0  0  0  0  0  0  0  0  0  0  0  0
   -9.0923    2.6132   -7.4167 N   0  0  0  0  0  0  0  0  0  0  0  0
   -8.6490    4.0222   -7.3813 C   0  0  0  0  0  0  0  0  0  0  0  0
   -8.4129    2.0217   -6.9382 H   0  0  0  0  0  0  0  0  0  0  0  0
   -4.9214    6.6223  -13.7542 C   0  0  0  0  0  0  0  0  0  0  0  0
   -5.5615    6.4780  -15.0176 O   0  0  0  0  0  0  0  0  0  0  0  0
 33 34  1  0  0  0
 34  1  1  0  0  0
  1  2  1  0  0  0
  1  3  1  0  0  0
  3  4  2  0  0  0
  4 19  1  0  0  0
 19 20  2  0  0  0
 19 21  1  0  0  0
 21 23  1  0  0  0
 23 24  2  0  0  0
 24 25  1  0  0  0
 25 26  2  0  0  0
 26 27  1  0  0  0
 27 28  2  0  0  0
 27 29  1  0  0  0
 29 30  1  0  0  0
 30 31  1  0  0  0
  4  5  1  0  0  0
  5  6  2  0  0  0
  6  7  1  0  0  0
  6  8  1  0  0  0
  8  9  2  0  0  0
  9 10  1  0  0  0
 10 11  1  0  0  0
 11 12  1  0  0  0
 12 13  1  0  0  0
 13 14  1  0  0  0
 14 15  1  0  0  0
 14  1  1  0  0  0
  9  3  1  0  0  0
 14 10  1  0  0  0
 28 23  1  0  0  0
 31 26  1  0  0  0
 21 22  1  0  0  0
 30 32  1  0  0  0
 12 16  1  0  0  0
 13 17  1  0  0  0
 15 18  1  0  0  0
M  END
> <minimizedAffinity>
-8.81292

> <minimizedRMSD>
0.20103

$$$$
P22755


 32 35  0  0  0  0  0  0  0  0999 V2000
   -5.0404    5.9651  -16.2176 C   0  0  0  0  0  0  0  0  0  0  0  0
   -5.4065    5.3008  -17.5052 N   0  0  0  0  0  0  0  0  0  0  0  0
   -6.7672    4.9599  -17.2801 C   0  0  0  0  0  0  0  0  0  0  0  0
   -7.6711    4.5821  -18.2630 C   0  0  0  0  0  0  0  0  0  0  0  0
   -8.9667    4.2504  -17.8731 C   0  0  0  0  0  0  0  0  0  0  0  0
   -9.8697    3.8801  -18.7943 F   0  0  0  0  0  0  0  0  0  0  0  0
   -9.3604    4.3249  -16.5378 C   0  0  0  0  0  0  0  0  0  0  0  0
   -8.4502    4.7417  -15.5701 C   0  0  0  0  0  0  0  0  0  0  0  0
   -7.1283    4.9876  -15.9264 C   0  0  0  0  0  0  0  0  0  0  0  0
   -5.9197    5.3133  -15.0799 C   0  0  0  0  0  0  0  0  0  0  0  0
   -6.0523    6.3290  -13.9413 C   0  0  0  0  0  0  0  0  0  0  0  0
   -4.8500    5.1410  -18.3015 H   0  0  0  0  0  0  0  0  0  0  0  0
   -8.9089    5.1044  -14.2201 C   0  0  0  0  0  0  0  0  0  0  0  0
   -9.5251    6.0875  -14.1053 O   0  0  0  0  0  0  0  0  0  0  0  0
   -8.3840    4.1273  -13.1566 N   0  0  0  0  0  0  0  0  0  0  0  0
   -7.9506    3.3201  -13.5169 H   0  0  0  0  0  0  0  0  0  0  0  0
   -8.4214    4.1973  -11.7682 C   0  0  0  0  0  0  0  0  0  0  0  0
   -8.1168    5.3975  -11.1017 C   0  0  0  0  0  0  0  0  0  0  0  0
   -8.0947    5.4571   -9.7054 C   0  0  0  0  0  0  0  0  0  0  0  0
   -8.4207    4.3136   -9.0027 C   0  0  0  0  0  0  0  0  0  0  0  0
   -8.7198    3.1256   -9.6625 C   0  0  0  0  0  0  0  0  0  0  0  0
   -8.7003    3.0419  -11.0430 C   0  0  0  0  0  0  0  0  0  0  0  0
   -9.0255    2.0708   -8.6528 C   0  0  0  0  0  0  0  0  0  0  0  0
   -9.2652    2.8125   -7.3856 N   0  0  0  0  0  0  0  0  0  0  0  0
   -8.5380    4.0919   -7.5326 C   0  0  0  0  0  0  0  0  0  0  0  0
   -8.9031    2.2861   -6.5905 H   0  0  0  0  0  0  0  0  0  0  0  0
   -5.2464    4.1221  -14.6305 O   0  0  0  0  0  0  0  0  0  0  0  0
   -4.9511    4.0012  -13.2516 C   0  0  0  0  0  0  0  0  0  0  0  0
   -3.5208    5.8797  -15.9467 C   0  0  0  0  0  0  0  0  0  0  0  0
   -1.9834    6.6109  -17.7033 C   0  0  0  0  0  0  0  0  0  0  0  0
   -2.7091    5.4947  -17.1227 N   0  0  0  0  0  0  0  0  0  0  0  0
   -2.0361    4.7845  -16.8343 H   0  0  0  0  0  0  0  0  0  0  0  0
 30 31  1  0  0  0
 31 29  1  0  0  0
  1 29  1  0  0  0
  1  2  1  0  0  0
  2  3  1  0  0  0
  3  4  2  0  0  0
  4  5  1  0  0  0
  5  6  1  0  0  0
  5  7  2  0  0  0
  7  8  1  0  0  0
  8 13  1  0  0  0
 13 14  2  0  0  0
 13 15  1  0  0  0
 15 17  1  0  0  0
 17 18  2  0  0  0
 18 19  1  0  0  0
 19 20  2  0  0  0
 20 21  1  0  0  0
 21 22  2  0  0  0
 21 23  1  0  0  0
 23 24  1  0  0  0
 24 25  1  0  0  0
  8  9  2  0  0  0
  9 10  1  0  0  0
 10 11  1  0  0  0
 10 27  1  0  0  0
 27 28  1  0  0  0
 10  1  1  0  0  0
  9  3  1  0  0  0
 22 17  1  0  0  0
 25 20  1  0  0  0
 31 32  1  0  0  0
  2 12  1  0  0  0
 15 16  1  0  0  0
 24 26  1  0  0  0
M  END
> <minimizedAffinity>
-8.05148

> <minimizedRMSD>
0.64070

$$$$
P22763


 36 39  0  0  0  0  0  0  0  0999 V2000
   -7.3031    4.4027  -14.1365 C   0  0  0  0  0  0  0  0  0  0  0  0
   -6.9031    5.6913  -13.7423 O   0  0  0  0  0  0  0  0  0  0  0  0
   -6.7383    5.7005  -12.7865 H   0  0  0  0  0  0  0  0  0  0  0  0
   -7.5444    4.4605  -15.6446 C   0  0  0  0  0  0  0  0  0  0  0  0
   -8.8393    4.3728  -16.2285 C   0  0  0  0  0  0  0  0  0  0  0  0
   -9.0544    4.4542  -17.6105 C   0  0  0  0  0  0  0  0  0  0  0  0
  -10.6498    4.4116  -18.2526 Cl  0  0  0  0  0  0  0  0  0  0  0  0
   -8.0036    4.6120  -18.5034 C   0  0  0  0  0  0  0  0  0  0  0  0
   -6.7407    4.7574  -17.9426 C   0  0  0  0  0  0  0  0  0  0  0  0
   -5.5262    4.9672  -18.5367 N   0  0  0  0  0  0  0  0  0  0  0  0
   -4.5222    5.1804  -17.6726 N   0  0  0  0  0  0  0  0  0  0  0  0
   -5.1007    4.9761  -16.4856 C   0  0  0  0  0  0  0  0  0  0  0  0
   -6.4930    4.7079  -16.5747 C   0  0  0  0  0  0  0  0  0  0  0  0
   -5.3999    4.9623  -19.5131 H   0  0  0  0  0  0  0  0  0  0  0  0
   -4.6055    2.3069  -12.4086 C   0  0  0  0  0  0  0  0  0  0  0  0
   -5.1796    3.6834  -12.6511 C   0  0  0  0  0  0  0  0  0  0  0  0
   -4.8243    4.6376  -12.0861 O   0  0  0  0  0  0  0  0  0  0  0  0
   -6.3180    3.4928  -13.6738 N   0  0  0  0  0  0  0  0  0  0  0  0
   -6.3695    2.5932  -14.0702 H   0  0  0  0  0  0  0  0  0  0  0  0
   -8.5199    4.0689  -13.3895 N   0  0  0  0  0  0  0  0  0  0  0  0
   -9.3006    3.6797  -13.8459 H   0  0  0  0  0  0  0  0  0  0  0  0
   -8.5455    4.3206  -11.9907 C   0  0  0  0  0  0  0  0  0  0  0  0
   -8.2697    5.5972  -11.4629 C   0  0  0  0  0  0  0  0  0  0  0  0
   -8.1537    5.8173  -10.0846 C   0  0  0  0  0  0  0  0  0  0  0  0
   -8.3351    4.7476   -9.2302 C   0  0  0  0  0  0  0  0  0  0  0  0
   -8.6644    3.4912   -9.7294 C   0  0  0  0  0  0  0  0  0  0  0  0
   -8.7698    3.2608  -11.0939 C   0  0  0  0  0  0  0  0  0  0  0  0
   -8.7908    2.5171   -8.6055 C   0  0  0  0  0  0  0  0  0  0  0  0
   -8.7075    3.3359   -7.3546 N   0  0  0  0  0  0  0  0  0  0  0  0
   -8.0886    4.6322   -7.7612 C   0  0  0  0  0  0  0  0  0  0  0  0
   -8.1262    2.8665   -6.6603 H   0  0  0  0  0  0  0  0  0  0  0  0
   -8.4796    5.7815   -6.8461 C   0  0  0  0  0  0  0  0  0  0  0  0
   -9.4472    5.4561   -5.7470 C   0  0  0  0  0  0  0  0  0  0  0  0
  -10.5294    6.0182   -5.6320 O   0  0  0  0  0  0  0  0  0  0  0  0
   -8.9992    4.5696   -4.8363 O   0  0  0  0  0  0  0  0  0  0  0  0
   -8.1662    4.1571   -4.9543 H   0  0  0  0  0  0  0  0  0  0  0  0
 15 16  1  0  0  0
 16 17  2  0  0  0
 16 18  1  0  0  0
 18  1  1  0  0  0
  1  2  1  0  0  0
  1 20  1  0  0  0
 20 22  1  0  0  0
 22 23  2  0  0  0
 23 24  1  0  0  0
 24 25  2  0  0  0
 25 26  1  0  0  0
 26 27  2  0  0  0
 26 28  1  0  0  0
 28 29  1  0  0  0
 29 30  1  0  0  0
 30 32  1  0  0  0
 32 33  1  0  0  0
 33 34  2  0  0  0
 33 35  1  0  0  0
  1  4  1  0  0  0
  4  5  2  0  0  0
  5  6  1  0  0  0
  6  7  1  0  0  0
  6  8  2  0  0  0
  8  9  1  0  0  0
  9 10  1  0  0  0
 10 11  1  0  0  0
 11 12  2  0  0  0
 12 13  1  0  0  0
 27 22  1  0  0  0
 13  4  1  0  0  0
 30 25  1  0  0  0
 13  9  2  0  0  0
 18 19  1  0  0  0
  2  3  1  0  0  0
 20 21  1  0  0  0
 29 31  1  0  0  0
 35 36  1  0  0  0
 10 14  1  0  0  0
M  END
> <minimizedAffinity>
-8.45415

> <minimizedRMSD>
0.97703

$$$$
P22786


 39 42  0  0  0  0  0  0  0  0999 V2000
   -7.4909    5.2610  -13.5521 C   0  0  0  0  0  0  0  0  0  0  0  0
   -6.1461    5.3745  -13.1112 O   0  0  0  0  0  0  0  0  0  0  0  0
   -6.1326    5.5648  -12.1601 H   0  0  0  0  0  0  0  0  0  0  0  0
   -7.4568    4.9612  -15.0558 C   0  0  0  0  0  0  0  0  0  0  0  0
   -8.6751    4.7057  -15.7330 C   0  0  0  0  0  0  0  0  0  0  0  0
   -8.7355    4.5502  -17.1154 C   0  0  0  0  0  0  0  0  0  0  0  0
  -10.2570    4.3850  -17.8744 Cl  0  0  0  0  0  0  0  0  0  0  0  0
   -7.5995    4.6127  -17.9088 C   0  0  0  0  0  0  0  0  0  0  0  0
   -6.3966    4.8478  -17.2524 C   0  0  0  0  0  0  0  0  0  0  0  0
   -5.1276    4.9644  -17.7532 N   0  0  0  0  0  0  0  0  0  0  0  0
   -4.1965    5.2224  -16.8183 N   0  0  0  0  0  0  0  0  0  0  0  0
   -4.9022    5.2389  -15.6836 C   0  0  0  0  0  0  0  0  0  0  0  0
   -6.2921    5.0181  -15.8748 C   0  0  0  0  0  0  0  0  0  0  0  0
   -4.9163    4.8683  -18.7100 H   0  0  0  0  0  0  0  0  0  0  0  0
   -8.3280    6.6288  -13.3299 C   0  0  0  0  0  0  0  0  0  0  0  0
   -9.4920    6.7116  -13.4299 O   0  0  0  0  0  0  0  0  0  0  0  0
   -7.2674    7.7073  -12.9453 N   0  0  0  0  0  0  0  0  0  0  0  0
   -6.3478    7.3677  -12.8551 H   0  0  0  0  0  0  0  0  0  0  0  0
   -7.4165    9.1241  -12.7001 C   0  0  0  0  0  0  0  0  0  0  0  0
   -8.4775    9.4500  -11.6533 C   0  0  0  0  0  0  0  0  0  0  0  0
   -8.3058    8.6387  -10.5748 F   0  0  0  0  0  0  0  0  0  0  0  0
   -8.2864   10.7203  -11.2106 F   0  0  0  0  0  0  0  0  0  0  0  0
   -8.0571    4.1525  -12.7796 N   0  0  0  0  0  0  0  0  0  0  0  0
   -8.2772    3.3262  -13.2676 H   0  0  0  0  0  0  0  0  0  0  0  0
   -8.6991    3.6440   -7.1425 C   0  0  0  0  0  0  0  0  0  0  0  0
   -9.3203    2.2930   -7.1726 N   0  0  0  0  0  0  0  0  0  0  0  0
   -9.0161    1.7288   -8.5101 C   0  0  0  0  0  0  0  0  0  0  0  0
   -8.7678    2.9135   -9.3836 C   0  0  0  0  0  0  0  0  0  0  0  0
   -8.6244    2.9611  -10.7677 C   0  0  0  0  0  0  0  0  0  0  0  0
   -8.3106    4.1742  -11.4005 C   0  0  0  0  0  0  0  0  0  0  0  0
   -8.1141    5.2956  -10.5691 C   0  0  0  0  0  0  0  0  0  0  0  0
   -8.2848    5.2492   -9.1749 C   0  0  0  0  0  0  0  0  0  0  0  0
   -8.6061    4.0441   -8.5885 C   0  0  0  0  0  0  0  0  0  0  0  0
  -10.3291    2.3644   -7.0398 H   0  0  0  0  0  0  0  0  0  0  0  0
   -9.4658    4.5583   -6.1994 C   0  0  0  0  0  0  0  0  0  0  0  0
   -9.0175    6.9368   -5.9753 O   0  0  0  0  0  0  0  0  0  0  0  0
   -8.6616    5.7765   -5.8587 C   0  0  0  0  0  0  0  0  0  0  0  0
   -7.4448    5.5068   -5.3405 O   0  0  0  0  0  0  0  0  0  0  0  0
   -7.1619    4.6185   -5.2467 H   0  0  0  0  0  0  0  0  0  0  0  0
 36 37  2  0  0  0
 37 38  1  0  0  0
 37 35  1  0  0  0
 25 35  1  0  0  0
 25 26  1  0  0  0
 26 27  1  0  0  0
 27 28  1  0  0  0
 28 29  2  0  0  0
 29 30  1  0  0  0
 30 23  1  0  0  0
 23  1  1  0  0  0
  1  2  1  0  0  0
  1 15  1  0  0  0
 15 16  2  0  0  0
 15 17  1  0  0  0
 17 19  1  0  0  0
 19 20  1  0  0  0
 20 21  1  0  0  0
 20 22  1  0  0  0
  1  4  1  0  0  0
  4  5  2  0  0  0
  5  6  1  0  0  0
  6  7  1  0  0  0
  6  8  2  0  0  0
  8  9  1  0  0  0
  9 10  1  0  0  0
 10 11  1  0  0  0
 11 12  2  0  0  0
 12 13  1  0  0  0
 30 31  2  0  0  0
 31 32  1  0  0  0
 32 33  2  0  0  0
 33 25  1  0  0  0
 33 28  1  0  0  0
 13  4  1  0  0  0
 13  9  2  0  0  0
 38 39  1  0  0  0
 26 34  1  0  0  0
 23 24  1  0  0  0
  2  3  1  0  0  0
 17 18  1  0  0  0
 10 14  1  0  0  0
M  END
> <minimizedAffinity>
-7.80949

> <minimizedRMSD>
0.43010

$$$$
P22790


 46 50  0  0  0  0  0  0  0  0999 V2000
   -7.4678    5.1551  -13.4873 C   0  0  0  0  0  0  0  0  0  0  0  0
   -6.1265    5.1864  -13.0308 O   0  0  0  0  0  0  0  0  0  0  0  0
   -6.1132    5.3718  -12.0788 H   0  0  0  0  0  0  0  0  0  0  0  0
   -7.4784    4.8626  -14.9866 C   0  0  0  0  0  0  0  0  0  0  0  0
   -8.7024    4.6369  -15.6930 C   0  0  0  0  0  0  0  0  0  0  0  0
   -8.8287    4.5266  -17.1155 C   0  0  0  0  0  0  0  0  0  0  0  0
  -10.4089    4.3724  -17.7855 Cl  0  0  0  0  0  0  0  0  0  0  0  0
   -7.7539    4.6127  -18.0089 C   0  0  0  0  0  0  0  0  0  0  0  0
   -6.5292    4.8277  -17.3717 C   0  0  0  0  0  0  0  0  0  0  0  0
   -5.3146    4.9928  -17.9229 N   0  0  0  0  0  0  0  0  0  0  0  0
   -4.4876    5.1662  -16.8876 N   0  0  0  0  0  0  0  0  0  0  0  0
   -5.1030    5.1770  -15.6722 C   0  0  0  0  0  0  0  0  0  0  0  0
   -6.4294    4.9416  -15.9252 C   0  0  0  0  0  0  0  0  0  0  0  0
   -3.5152    5.2769  -16.9942 H   0  0  0  0  0  0  0  0  0  0  0  0
   -7.0427    7.6018  -13.0345 N   0  0  0  0  0  0  0  0  0  0  0  0
   -8.1938    6.5860  -13.2988 C   0  0  0  0  0  0  0  0  0  0  0  0
   -9.3461    6.7582  -13.4084 O   0  0  0  0  0  0  0  0  0  0  0  0
   -6.1552    7.1953  -12.9067 H   0  0  0  0  0  0  0  0  0  0  0  0
   -7.0663    9.0442  -12.9466 C   0  0  0  0  0  0  0  0  0  0  0  0
   -5.8407    9.8409  -11.9103 S   0  0  0  0  0  0  0  0  0  0  0  0
   -5.8342   11.2617  -12.2101 O   0  0  0  0  0  0  0  0  0  0  0  0
   -4.6130    9.0670  -12.0004 O   0  0  0  0  0  0  0  0  0  0  0  0
   -7.9709    9.3301   -6.2589 C   0  0  0  0  0  0  0  0  0  0  0  0
   -7.4428    9.4381   -7.6588 C   0  0  0  0  0  0  0  0  0  0  0  0
   -7.8056   10.5332   -8.4533 C   0  0  0  0  0  0  0  0  0  0  0  0
   -7.3185   10.6536   -9.7536 C   0  0  0  0  0  0  0  0  0  0  0  0
   -6.4875    9.6562  -10.2698 C   0  0  0  0  0  0  0  0  0  0  0  0
   -6.1318    8.5490   -9.4979 C   0  0  0  0  0  0  0  0  0  0  0  0
   -6.6169    8.4409   -8.1942 C   0  0  0  0  0  0  0  0  0  0  0  0
   -8.0914    4.1004  -12.6944 N   0  0  0  0  0  0  0  0  0  0  0  0
   -8.4071    3.2997  -13.1724 H   0  0  0  0  0  0  0  0  0  0  0  0
   -8.2762    4.1384  -11.3046 C   0  0  0  0  0  0  0  0  0  0  0  0
   -8.0448    5.2672  -10.4907 C   0  0  0  0  0  0  0  0  0  0  0  0
   -8.2357    5.2472   -9.0957 C   0  0  0  0  0  0  0  0  0  0  0  0
   -8.6102    4.0646   -8.4898 C   0  0  0  0  0  0  0  0  0  0  0  0
   -8.7669    2.9235   -9.2667 C   0  0  0  0  0  0  0  0  0  0  0  0
   -8.5982    2.9404  -10.6498 C   0  0  0  0  0  0  0  0  0  0  0  0
   -9.1517    1.7906   -8.3809 C   0  0  0  0  0  0  0  0  0  0  0  0
   -9.7175    2.4346   -7.1637 N   0  0  0  0  0  0  0  0  0  0  0  0
   -9.0765    3.7905   -7.0852 C   0  0  0  0  0  0  0  0  0  0  0  0
   -9.4919    1.8861   -6.3338 H   0  0  0  0  0  0  0  0  0  0  0  0
   -8.1079    3.7719   -5.9062 C   0  0  0  0  0  0  0  0  0  0  0  0
   -7.2149    4.9653   -5.8209 C   0  0  0  0  0  0  0  0  0  0  0  0
   -7.5014    6.0628   -5.3724 O   0  0  0  0  0  0  0  0  0  0  0  0
   -5.9365    4.7276   -6.2100 O   0  0  0  0  0  0  0  0  0  0  0  0
   -5.7004    3.8897   -6.5566 H   0  0  0  0  0  0  0  0  0  0  0  0
 23 24  1  0  0  0
 24 25  2  0  0  0
 25 26  1  0  0  0
 26 27  2  0  0  0
 27 20  1  0  0  0
 20 21  2  0  0  0
 20 22  2  0  0  0
 20 19  1  0  0  0
 19 15  1  0  0  0
 15 16  1  0  0  0
 16 17  2  0  0  0
 16  1  1  0  0  0
  1  2  1  0  0  0
  1 30  1  0  0  0
 30 32  1  0  0  0
 32 33  2  0  0  0
 33 34  1  0  0  0
 34 35  2  0  0  0
 35 36  1  0  0  0
 36 37  2  0  0  0
 36 38  1  0  0  0
 38 39  1  0  0  0
 39 40  1  0  0  0
 40 42  1  0  0  0
 42 43  1  0  0  0
 43 44  2  0  0  0
 43 45  1  0  0  0
  1  4  1  0  0  0
  4  5  2  0  0  0
  5  6  1  0  0  0
  6  7  1  0  0  0
  6  8  2  0  0  0
  8  9  1  0  0  0
  9 10  2  0  0  0
 10 11  1  0  0  0
 11 12  1  0  0  0
 12 13  2  0  0  0
 27 28  1  0  0  0
 28 29  2  0  0  0
 29 24  1  0  0  0
 37 32  1  0  0  0
 13  4  1  0  0  0
 40 35  1  0  0  0
 13  9  1  0  0  0
 15 18  1  0  0  0
  2  3  1  0  0  0
 30 31  1  0  0  0
 39 41  1  0  0  0
 45 46  1  0  0  0
 11 14  1  0  0  0
M  END
> <minimizedAffinity>
-7.70268

> <minimizedRMSD>
0.41739

$$$$
P22792


 42 46  0  0  0  0  0  0  0  0999 V2000
   -6.9089    4.6217  -13.7326 C   0  0  0  0  0  0  0  0  0  0  0  0
   -6.0347    3.5373  -13.4459 O   0  0  0  0  0  0  0  0  0  0  0  0
   -5.8714    3.4976  -12.4906 H   0  0  0  0  0  0  0  0  0  0  0  0
   -7.1301    4.6348  -15.2504 C   0  0  0  0  0  0  0  0  0  0  0  0
   -8.4275    4.5350  -15.8151 C   0  0  0  0  0  0  0  0  0  0  0  0
   -8.6408    4.6046  -17.1920 C   0  0  0  0  0  0  0  0  0  0  0  0
  -10.2316    4.4801  -17.8167 Cl  0  0  0  0  0  0  0  0  0  0  0  0
   -7.5972    4.8146  -18.0845 C   0  0  0  0  0  0  0  0  0  0  0  0
   -6.3268    4.9424  -17.5345 C   0  0  0  0  0  0  0  0  0  0  0  0
   -5.1182    5.1602  -18.1358 N   0  0  0  0  0  0  0  0  0  0  0  0
   -4.0827    5.2236  -17.2807 N   0  0  0  0  0  0  0  0  0  0  0  0
   -4.6618    5.0233  -16.0923 C   0  0  0  0  0  0  0  0  0  0  0  0
   -6.0676    4.8502  -16.1722 C   0  0  0  0  0  0  0  0  0  0  0  0
   -5.0154    5.2616  -19.1096 H   0  0  0  0  0  0  0  0  0  0  0  0
   -6.2533    6.0516  -13.3665 C   0  0  0  0  0  0  0  0  0  0  0  0
   -6.6862    7.0805  -13.7229 O   0  0  0  0  0  0  0  0  0  0  0  0
   -4.9796    5.7282  -12.5215 N   0  0  0  0  0  0  0  0  0  0  0  0
   -4.8706    4.7783  -12.2867 H   0  0  0  0  0  0  0  0  0  0  0  0
   -3.9405    6.5933  -12.0309 C   0  0  0  0  0  0  0  0  0  0  0  0
   -3.7513    6.4787  -10.5144 C   0  0  0  0  0  0  0  0  0  0  0  0
   -4.9774    7.0222   -9.7624 C   0  0  0  0  0  0  0  0  0  0  0  0
   -4.5996    7.4775   -8.3615 C   0  0  0  0  0  0  0  0  0  0  0  0
   -3.6187    8.5155   -8.3503 O   0  0  0  0  0  0  0  0  0  0  0  0
   -2.7777    8.5739   -9.5007 C   0  0  0  0  0  0  0  0  0  0  0  0
   -2.4673    7.1930  -10.0592 C   0  0  0  0  0  0  0  0  0  0  0  0
   -8.1554    4.3426  -13.0022 N   0  0  0  0  0  0  0  0  0  0  0  0
   -8.9491    4.0515  -13.5067 H   0  0  0  0  0  0  0  0  0  0  0  0
   -8.7300    4.5671   -7.3497 C   0  0  0  0  0  0  0  0  0  0  0  0
   -8.5770    3.1308   -7.0879 N   0  0  0  0  0  0  0  0  0  0  0  0
   -8.6720    2.4155   -8.3806 C   0  0  0  0  0  0  0  0  0  0  0  0
   -8.4733    3.4683   -9.4239 C   0  0  0  0  0  0  0  0  0  0  0  0
   -8.3563    3.3306  -10.8033 C   0  0  0  0  0  0  0  0  0  0  0  0
   -8.2475    4.4787  -11.6086 C   0  0  0  0  0  0  0  0  0  0  0  0
   -8.2740    5.7343  -10.9755 C   0  0  0  0  0  0  0  0  0  0  0  0
   -8.3843    5.8655   -9.5861 C   0  0  0  0  0  0  0  0  0  0  0  0
   -8.4845    4.7216   -8.8203 C   0  0  0  0  0  0  0  0  0  0  0  0
   -9.3166    2.8127   -6.4615 H   0  0  0  0  0  0  0  0  0  0  0  0
   -7.9421    5.4725   -6.4067 C   0  0  0  0  0  0  0  0  0  0  0  0
   -6.5242    4.7031   -4.5883 O   0  0  0  0  0  0  0  0  0  0  0  0
   -6.7147    4.8751   -5.7877 C   0  0  0  0  0  0  0  0  0  0  0  0
   -5.7294    4.6058   -6.6627 O   0  0  0  0  0  0  0  0  0  0  0  0
   -5.8692    4.7353   -7.5801 H   0  0  0  0  0  0  0  0  0  0  0  0
 39 40  2  0  0  0
 40 41  1  0  0  0
 40 38  1  0  0  0
 28 38  1  0  0  0
 28 29  1  0  0  0
 29 30  1  0  0  0
 30 31  1  0  0  0
 31 32  2  0  0  0
 32 33  1  0  0  0
 33 26  1  0  0  0
 26  1  1  0  0  0
  1  2  1  0  0  0
  1 15  1  0  0  0
 15 16  2  0  0  0
 15 17  1  0  0  0
 17 19  1  0  0  0
 19 20  1  0  0  0
 20 21  1  0  0  0
 21 22  1  0  0  0
 22 23  1  0  0  0
 23 24  1  0  0  0
 24 25  1  0  0  0
  1  4  1  0  0  0
  4  5  2  0  0  0
  5  6  1  0  0  0
  6  7  1  0  0  0
  6  8  2  0  0  0
  8  9  1  0  0  0
  9 10  1  0  0  0
 10 11  1  0  0  0
 11 12  2  0  0  0
 12 13  1  0  0  0
 33 34  2  0  0  0
 34 35  1  0  0  0
 35 36  2  0  0  0
 36 28  1  0  0  0
 36 31  1  0  0  0
 25 20  1  0  0  0
 13  4  1  0  0  0
 13  9  2  0  0  0
 41 42  1  0  0  0
 29 37  1  0  0  0
 26 27  1  0  0  0
  2  3  1  0  0  0
 17 18  1  0  0  0
 10 14  1  0  0  0
M  END
> <minimizedAffinity>
-7.30398

> <minimizedRMSD>
0.75566

$$$$
P22799


 38 42  0  0  0  0  0  0  0  0999 V2000
   -8.2718    4.2164  -10.7544 C   0  0  0  0  0  0  0  0  0  0  0  0
   -8.6404    2.9585  -10.2631 C   0  0  0  0  0  0  0  0  0  0  0  0
   -8.9059    2.8068   -8.9018 C   0  0  0  0  0  0  0  0  0  0  0  0
   -8.8080    3.8632   -7.9918 C   0  0  0  0  0  0  0  0  0  0  0  0
   -8.4606    5.1041   -8.4734 C   0  0  0  0  0  0  0  0  0  0  0  0
   -8.1944    5.2692   -9.8375 C   0  0  0  0  0  0  0  0  0  0  0  0
   -7.8041    6.5495  -10.1354 O   0  0  0  0  0  0  0  0  0  0  0  0
   -8.0492    7.3388   -8.9484 C   0  0  0  0  0  0  0  0  0  0  0  0
   -6.8387    8.2513   -8.7434 C   0  0  0  0  0  0  0  0  0  0  0  0
   -9.3018    8.1880   -9.1955 C   0  0  0  0  0  0  0  0  0  0  0  0
   -8.2295    6.3793   -7.7585 C   0  0  0  0  0  0  0  0  0  0  0  0
   -9.0395    3.3240   -6.6066 C   0  0  0  0  0  0  0  0  0  0  0  0
   -9.6937    2.0050   -6.8347 N   0  0  0  0  0  0  0  0  0  0  0  0
   -9.2662    1.5536   -8.1759 C   0  0  0  0  0  0  0  0  0  0  0  0
  -10.7084    2.1042   -6.8027 H   0  0  0  0  0  0  0  0  0  0  0  0
   -8.4338    5.3171  -13.1920 C   0  0  0  0  0  0  0  0  0  0  0  0
   -9.0776    6.2858  -13.0877 O   0  0  0  0  0  0  0  0  0  0  0  0
   -7.9699    4.3011  -12.1214 N   0  0  0  0  0  0  0  0  0  0  0  0
   -7.3642    3.5998  -12.4539 H   0  0  0  0  0  0  0  0  0  0  0  0
   -4.6451    5.1615  -15.9065 N   0  0  0  0  0  0  0  0  0  0  0  0
   -4.2353    5.3986  -14.6349 N   0  0  0  0  0  0  0  0  0  0  0  0
   -5.3728    5.3835  -13.9370 C   0  0  0  0  0  0  0  0  0  0  0  0
   -6.5051    5.1082  -14.7336 C   0  0  0  0  0  0  0  0  0  0  0  0
   -7.8914    4.9914  -14.5255 C   0  0  0  0  0  0  0  0  0  0  0  0
   -8.7333    4.7056  -15.6058 C   0  0  0  0  0  0  0  0  0  0  0  0
   -8.1916    4.5835  -16.8840 C   0  0  0  0  0  0  0  0  0  0  0  0
   -9.2334    4.3777  -18.2309 Cl  0  0  0  0  0  0  0  0  0  0  0  0
   -6.8215    4.7081  -17.1251 C   0  0  0  0  0  0  0  0  0  0  0  0
   -6.0009    4.9623  -16.0207 C   0  0  0  0  0  0  0  0  0  0  0  0
   -3.6735    5.0933  -16.9944 C   0  0  0  0  0  0  0  0  0  0  0  0
   -2.3369    7.0489  -17.4778 C   0  0  0  0  0  0  0  0  0  0  0  0
   -3.6236    6.3969  -17.6677 N   0  0  0  0  0  0  0  0  0  0  0  0
   -3.7812    6.2601  -18.6661 H   0  0  0  0  0  0  0  0  0  0  0  0
   -9.9088    4.1498   -5.6649 C   0  0  0  0  0  0  0  0  0  0  0  0
   -9.0935    4.7454   -4.5520 C   0  0  0  0  0  0  0  0  0  0  0  0
   -8.2705    4.1937   -3.8397 O   0  0  0  0  0  0  0  0  0  0  0  0
   -9.3955    6.0454   -4.3509 O   0  0  0  0  0  0  0  0  0  0  0  0
  -10.0274    6.4696   -4.8975 H   0  0  0  0  0  0  0  0  0  0  0  0
 31 32  1  0  0  0
 32 30  1  0  0  0
 30 20  1  0  0  0
 20 21  1  0  0  0
 21 22  2  0  0  0
 22 23  1  0  0  0
 23 24  2  0  0  0
 24 16  1  0  0  0
 16 17  2  0  0  0
 16 18  1  0  0  0
 18  1  1  0  0  0
  1  2  2  0  0  0
  2  3  1  0  0  0
  3  4  2  0  0  0
  4  5  1  0  0  0
  5  6  2  0  0  0
  6  7  1  0  0  0
  7  8  1  0  0  0
  8  9  1  0  0  0
  8 10  1  0  0  0
  8 11  1  0  0  0
  4 12  1  0  0  0
 12 34  1  0  0  0
 34 35  1  0  0  0
 35 36  2  0  0  0
 35 37  1  0  0  0
 12 13  1  0  0  0
 13 14  1  0  0  0
 24 25  1  0  0  0
 25 26  2  0  0  0
 26 27  1  0  0  0
 26 28  1  0  0  0
 28 29  2  0  0  0
 29 20  1  0  0  0
 29 23  1  0  0  0
  6  1  1  0  0  0
 14  3  1  0  0  0
 11  5  1  0  0  0
 32 33  1  0  0  0
 18 19  1  0  0  0
 37 38  1  0  0  0
 13 15  1  0  0  0
M  END
> <minimizedAffinity>
-8.50639

> <minimizedRMSD>
1.05018

$$$$
P22806


 35 38  0  0  0  0  0  0  0  0999 V2000
   -7.3471    4.9922  -12.9048 C   0  0  0  0  0  0  0  0  0  0  0  0
   -6.8631    4.9091  -17.2948 C   0  0  0  0  0  0  0  0  0  0  0  0
   -8.1175    4.7022  -16.6987 C   0  0  0  0  0  0  0  0  0  0  0  0
   -9.5272    4.4191  -17.6606 Cl  0  0  0  0  0  0  0  0  0  0  0  0
   -8.2816    4.7312  -15.3039 C   0  0  0  0  0  0  0  0  0  0  0  0
   -7.1921    4.9112  -14.4172 C   0  0  0  0  0  0  0  0  0  0  0  0
   -5.9263    5.1087  -15.0215 C   0  0  0  0  0  0  0  0  0  0  0  0
   -4.5991    5.3373  -14.5725 C   0  0  0  0  0  0  0  0  0  0  0  0
   -3.7215    5.4821  -15.5688 N   0  0  0  0  0  0  0  0  0  0  0  0
   -4.4900    5.3728  -16.6631 N   0  0  0  0  0  0  0  0  0  0  0  0
   -5.8122    5.1231  -16.3966 C   0  0  0  0  0  0  0  0  0  0  0  0
   -4.1360    5.4638  -17.5773 H   0  0  0  0  0  0  0  0  0  0  0  0
   -6.0276    6.0387  -19.3219 N   0  0  0  0  0  0  0  0  0  0  0  0
   -6.5627    4.7869  -18.7533 C   0  0  0  0  0  0  0  0  0  0  0  0
   -5.8384    5.9073  -20.3156 H   0  0  0  0  0  0  0  0  0  0  0  0
   -5.1632    6.2882  -18.8414 H   0  0  0  0  0  0  0  0  0  0  0  0
   -7.3029    6.4510  -12.5169 N   0  0  0  0  0  0  0  0  0  0  0  0
   -8.2077    7.1229  -13.0299 O   0  0  0  0  0  0  0  0  0  0  0  0
   -8.5079    4.2478  -12.3782 N   0  0  0  0  0  0  0  0  0  0  0  0
   -9.2081    3.8720  -12.9595 H   0  0  0  0  0  0  0  0  0  0  0  0
   -8.5318    4.1183  -10.9633 C   0  0  0  0  0  0  0  0  0  0  0  0
   -8.3132    5.2307  -10.1233 C   0  0  0  0  0  0  0  0  0  0  0  0
   -8.2931    5.1186   -8.7294 C   0  0  0  0  0  0  0  0  0  0  0  0
   -8.5302    3.8803   -8.1681 C   0  0  0  0  0  0  0  0  0  0  0  0
   -8.7774    2.7764   -8.9727 C   0  0  0  0  0  0  0  0  0  0  0  0
   -8.7837    2.8752  -10.3626 C   0  0  0  0  0  0  0  0  0  0  0  0
   -9.0197    1.5863   -8.1071 C   0  0  0  0  0  0  0  0  0  0  0  0
   -8.6456    1.9968   -6.7185 N   0  0  0  0  0  0  0  0  0  0  0  0
   -8.5327    3.4842   -6.7241 C   0  0  0  0  0  0  0  0  0  0  0  0
   -7.7531    1.5780   -6.4570 H   0  0  0  0  0  0  0  0  0  0  0  0
   -9.6764    4.0790   -5.9111 C   0  0  0  0  0  0  0  0  0  0  0  0
   -9.3931    3.9258   -4.4451 C   0  0  0  0  0  0  0  0  0  0  0  0
  -10.2325    4.1225   -3.5750 O   0  0  0  0  0  0  0  0  0  0  0  0
   -8.1317    3.5632   -4.1426 O   0  0  0  0  0  0  0  0  0  0  0  0
   -7.5087    3.4188   -4.8275 H   0  0  0  0  0  0  0  0  0  0  0  0
 13 14  1  0  0  0
 14  2  1  0  0  0
  2  3  2  0  0  0
  3  4  1  0  0  0
  3  5  1  0  0  0
  5  6  2  0  0  0
  6  1  1  0  0  0
  1 17  1  0  0  0
 17 18  2  0  0  0
  1 19  1  0  0  0
 19 21  1  0  0  0
 21 22  2  0  0  0
 22 23  1  0  0  0
 23 24  2  0  0  0
 24 25  1  0  0  0
 25 26  2  0  0  0
 25 27  1  0  0  0
 27 28  1  0  0  0
 28 29  1  0  0  0
 29 31  1  0  0  0
 31 32  1  0  0  0
 32 33  2  0  0  0
 32 34  1  0  0  0
  6  7  1  0  0  0
  7  8  1  0  0  0
  8  9  2  0  0  0
  9 10  1  0  0  0
 10 11  1  0  0  0
 11  2  1  0  0  0
 26 21  1  0  0  0
 11  7  2  0  0  0
 29 24  1  0  0  0
 13 15  1  0  0  0
 13 16  1  0  0  0
 19 20  1  0  0  0
 28 30  1  0  0  0
 34 35  1  0  0  0
 10 12  1  0  0  0
M  END
> <minimizedAffinity>
-7.58385

> <minimizedRMSD>
0.60990

$$$$
P22811


 28 31  0  0  0  0  0  0  0  0999 V2000
   -5.4134    5.2721  -18.0067 N   0  0  0  0  0  0  0  0  0  0  0  0
   -4.2773    5.3220  -17.1930 C   0  0  0  0  0  0  0  0  0  0  0  0
   -3.1311    5.5829  -17.5314 O   0  0  0  0  0  0  0  0  0  0  0  0
   -4.7278    5.0281  -15.7601 C   0  0  0  0  0  0  0  0  0  0  0  0
   -6.2051    4.8535  -15.9134 C   0  0  0  0  0  0  0  0  0  0  0  0
   -7.1792    4.6365  -14.9566 C   0  0  0  0  0  0  0  0  0  0  0  0
   -8.5077    4.4817  -15.3690 C   0  0  0  0  0  0  0  0  0  0  0  0
   -8.8515    4.5733  -16.7231 C   0  0  0  0  0  0  0  0  0  0  0  0
   -7.8742    4.8577  -17.6756 C   0  0  0  0  0  0  0  0  0  0  0  0
   -6.5590    4.9805  -17.2532 C   0  0  0  0  0  0  0  0  0  0  0  0
   -5.3591    4.6591  -20.2721 N   0  0  0  0  0  0  0  0  0  0  0  0
   -5.4325    5.7645  -19.3498 C   0  0  0  0  0  0  0  0  0  0  0  0
   -5.3729    5.0130  -21.2286 H   0  0  0  0  0  0  0  0  0  0  0  0
   -6.1575    4.0413  -20.1266 H   0  0  0  0  0  0  0  0  0  0  0  0
   -6.8827    4.7945  -13.5174 C   0  0  0  0  0  0  0  0  0  0  0  0
   -6.0012    5.4985  -13.2194 O   0  0  0  0  0  0  0  0  0  0  0  0
   -7.8997    4.0426  -12.6405 N   0  0  0  0  0  0  0  0  0  0  0  0
   -8.5064    3.4445  -13.1339 H   0  0  0  0  0  0  0  0  0  0  0  0
   -8.0999    4.0700  -11.2763 C   0  0  0  0  0  0  0  0  0  0  0  0
   -7.9208    5.2464  -10.5410 C   0  0  0  0  0  0  0  0  0  0  0  0
   -8.1889    5.2485   -9.1714 C   0  0  0  0  0  0  0  0  0  0  0  0
   -8.6109    4.0649   -8.6097 C   0  0  0  0  0  0  0  0  0  0  0  0
   -8.7312    2.9430   -9.4105 C   0  0  0  0  0  0  0  0  0  0  0  0
   -8.5088    2.9081  -10.7353 N   0  0  0  0  0  0  0  0  0  0  0  0
   -9.1428    1.7853   -8.5455 C   0  0  0  0  0  0  0  0  0  0  0  0
   -9.6527    2.3996   -7.2827 N   0  0  0  0  0  0  0  0  0  0  0  0
   -8.9795    3.7188   -7.2097 C   0  0  0  0  0  0  0  0  0  0  0  0
   -9.4061    1.8243   -6.4773 H   0  0  0  0  0  0  0  0  0  0  0  0
 11 12  1  0  0  0
 12  1  1  0  0  0
  1  2  1  0  0  0
  2  3  2  0  0  0
  2  4  1  0  0  0
  4  5  1  0  0  0
  5  6  2  0  0  0
  6 15  1  0  0  0
 15 16  2  0  0  0
 15 17  1  0  0  0
 17 19  1  0  0  0
 19 20  2  0  0  0
 20 21  1  0  0  0
 21 22  2  0  0  0
 22 23  1  0  0  0
 23 24  2  0  0  0
 23 25  1  0  0  0
 25 26  1  0  0  0
 26 27  1  0  0  0
  6  7  1  0  0  0
  7  8  2  0  0  0
  8  9  1  0  0  0
  9 10  2  0  0  0
 10  1  1  0  0  0
 10  5  1  0  0  0
 24 19  1  0  0  0
 27 22  1  0  0  0
 11 13  1  0  0  0
 11 14  1  0  0  0
 17 18  1  0  0  0
 26 28  1  0  0  0
M  END
> <minimizedAffinity>
-8.18731

> <minimizedRMSD>
0.41658

$$$$
P22812


 27 30  0  0  0  0  0  0  0  0999 V2000
   -7.6269    5.3463  -14.0322 C   0  0  0  0  0  0  0  0  0  0  0  0
   -7.1959    6.4165  -13.8515 O   0  0  0  0  0  0  0  0  0  0  0  0
   -8.1584    4.2997  -13.0306 N   0  0  0  0  0  0  0  0  0  0  0  0
   -8.5426    3.4926  -13.4432 H   0  0  0  0  0  0  0  0  0  0  0  0
   -5.7442    4.7813  -19.8136 N   0  0  0  0  0  0  0  0  0  0  0  0
   -5.8393    4.9199  -18.4299 N   0  0  0  0  0  0  0  0  0  0  0  0
   -4.7422    5.1720  -17.5809 C   0  0  0  0  0  0  0  0  0  0  0  0
   -3.5625    5.2996  -17.8793 O   0  0  0  0  0  0  0  0  0  0  0  0
   -5.3135    5.2688  -16.1573 C   0  0  0  0  0  0  0  0  0  0  0  0
   -6.7722    4.9827  -16.3569 C   0  0  0  0  0  0  0  0  0  0  0  0
   -7.8038    4.9087  -15.4366 C   0  0  0  0  0  0  0  0  0  0  0  0
   -9.0892    4.5955  -15.8977 C   0  0  0  0  0  0  0  0  0  0  0  0
   -9.3328    4.3743  -17.2615 C   0  0  0  0  0  0  0  0  0  0  0  0
   -8.2936    4.4725  -18.1858 C   0  0  0  0  0  0  0  0  0  0  0  0
   -7.0274    4.7716  -17.7117 C   0  0  0  0  0  0  0  0  0  0  0  0
   -4.7789    4.9350  -20.1052 H   0  0  0  0  0  0  0  0  0  0  0  0
   -6.3493    5.4664  -20.2664 H   0  0  0  0  0  0  0  0  0  0  0  0
   -8.1831    4.3105  -11.6491 C   0  0  0  0  0  0  0  0  0  0  0  0
   -8.0054    5.4967  -10.9297 C   0  0  0  0  0  0  0  0  0  0  0  0
   -8.1357    5.4849   -9.5392 C   0  0  0  0  0  0  0  0  0  0  0  0
   -8.4284    4.2801   -8.9408 C   0  0  0  0  0  0  0  0  0  0  0  0
   -8.5484    3.1481   -9.7267 C   0  0  0  0  0  0  0  0  0  0  0  0
   -8.4501    3.1238  -11.0687 N   0  0  0  0  0  0  0  0  0  0  0  0
   -8.8218    1.9738   -8.8263 C   0  0  0  0  0  0  0  0  0  0  0  0
   -9.2525    2.5669   -7.5236 N   0  0  0  0  0  0  0  0  0  0  0  0
   -8.6581    3.9246   -7.5136 C   0  0  0  0  0  0  0  0  0  0  0  0
   -8.8996    2.0139   -6.7425 H   0  0  0  0  0  0  0  0  0  0  0  0
  5  6  1  0  0  0
  6  7  1  0  0  0
  7  8  2  0  0  0
  7  9  1  0  0  0
  9 10  1  0  0  0
 10 11  2  0  0  0
 11  1  1  0  0  0
  1  2  2  0  0  0
  1  3  1  0  0  0
  3 18  1  0  0  0
 18 19  2  0  0  0
 19 20  1  0  0  0
 20 21  2  0  0  0
 21 22  1  0  0  0
 22 23  2  0  0  0
 22 24  1  0  0  0
 24 25  1  0  0  0
 25 26  1  0  0  0
 11 12  1  0  0  0
 12 13  2  0  0  0
 13 14  1  0  0  0
 14 15  2  0  0  0
 15  6  1  0  0  0
 15 10  1  0  0  0
 23 18  1  0  0  0
 26 21  1  0  0  0
  5 16  1  0  0  0
  5 17  1  0  0  0
  3  4  1  0  0  0
 25 27  1  0  0  0
M  END
> <minimizedAffinity>
-8.63095

> <minimizedRMSD>
0.40091

$$$$
P22813


 28 31  0  0  0  0  0  0  0  0999 V2000
   -5.5010    6.7896  -18.8871 C   0  0  0  0  0  0  0  0  0  0  0  0
   -5.5024    5.9438  -17.6210 C   0  0  0  0  0  0  0  0  0  0  0  0
   -5.3574    6.7844  -16.3419 C   0  0  0  0  0  0  0  0  0  0  0  0
   -4.5856    7.7231  -16.1900 O   0  0  0  0  0  0  0  0  0  0  0  0
   -6.2683    6.2706  -15.2461 C   0  0  0  0  0  0  0  0  0  0  0  0
   -7.2379    5.4288  -16.0183 C   0  0  0  0  0  0  0  0  0  0  0  0
   -8.4440    4.9109  -15.5584 C   0  0  0  0  0  0  0  0  0  0  0  0
   -9.2819    4.2747  -16.4728 C   0  0  0  0  0  0  0  0  0  0  0  0
   -8.9081    4.1577  -17.8205 C   0  0  0  0  0  0  0  0  0  0  0  0
   -7.6747    4.6408  -18.2668 C   0  0  0  0  0  0  0  0  0  0  0  0
   -6.8342    5.2666  -17.3581 C   0  0  0  0  0  0  0  0  0  0  0  0
   -8.8846    5.1798  -14.1649 C   0  0  0  0  0  0  0  0  0  0  0  0
   -9.6782    6.0202  -14.0042 O   0  0  0  0  0  0  0  0  0  0  0  0
   -8.1559    4.2855  -13.1431 N   0  0  0  0  0  0  0  0  0  0  0  0
   -7.5813    3.5911  -13.5393 H   0  0  0  0  0  0  0  0  0  0  0  0
   -8.1775    4.2992  -11.7597 C   0  0  0  0  0  0  0  0  0  0  0  0
   -7.9879    5.4946  -11.0560 C   0  0  0  0  0  0  0  0  0  0  0  0
   -8.0661    5.4992   -9.6629 C   0  0  0  0  0  0  0  0  0  0  0  0
   -8.3600    4.3058   -9.0456 C   0  0  0  0  0  0  0  0  0  0  0  0
   -8.5046    3.1647   -9.8158 C   0  0  0  0  0  0  0  0  0  0  0  0
   -8.4076    3.1146  -11.1588 N   0  0  0  0  0  0  0  0  0  0  0  0
   -8.8363    2.0198   -8.8974 C   0  0  0  0  0  0  0  0  0  0  0  0
   -9.2589    2.6520   -7.6102 N   0  0  0  0  0  0  0  0  0  0  0  0
   -8.5995    3.9793   -7.6130 C   0  0  0  0  0  0  0  0  0  0  0  0
   -8.9449    2.0953   -6.8152 H   0  0  0  0  0  0  0  0  0  0  0  0
   -4.3330    4.9582  -17.6179 C   0  0  0  0  0  0  0  0  0  0  0  0
   -3.0756    5.5973  -17.4040 O   0  0  0  0  0  0  0  0  0  0  0  0
   -2.9061    6.2261  -18.1228 H   0  0  0  0  0  0  0  0  0  0  0  0
  2  1  1  0  0  0
  2 26  1  0  0  0
 26 27  1  0  0  0
  2  3  1  0  0  0
  3  4  2  0  0  0
  3  5  1  0  0  0
  5  6  1  0  0  0
  6  7  2  0  0  0
  7 12  1  0  0  0
 12 13  2  0  0  0
 12 14  1  0  0  0
 14 16  1  0  0  0
 16 17  2  0  0  0
 17 18  1  0  0  0
 18 19  2  0  0  0
 19 20  1  0  0  0
 20 21  2  0  0  0
 20 22  1  0  0  0
 22 23  1  0  0  0
 23 24  1  0  0  0
  7  8  1  0  0  0
  8  9  2  0  0  0
  9 10  1  0  0  0
 10 11  2  0  0  0
 11  2  1  0  0  0
 11  6  1  0  0  0
 21 16  1  0  0  0
 24 19  1  0  0  0
 27 28  1  0  0  0
 14 15  1  0  0  0
 23 25  1  0  0  0
M  END
> <minimizedAffinity>
-8.44862

> <minimizedRMSD>
0.77013

$$$$
P22818


 29 33  0  0  0  0  0  0  0  0999 V2000
   -9.3180    3.4563  -18.7144 C   0  0  0  0  0  0  0  0  0  0  0  0
   -8.4450    3.9952  -17.6234 C   0  0  0  0  0  0  0  0  0  0  0  0
   -8.8888    4.1166  -16.2955 C   0  0  0  0  0  0  0  0  0  0  0  0
   -8.0813    4.7331  -15.3291 C   0  0  0  0  0  0  0  0  0  0  0  0
   -6.8237    5.1919  -15.6961 C   0  0  0  0  0  0  0  0  0  0  0  0
   -6.3586    5.0130  -16.9929 C   0  0  0  0  0  0  0  0  0  0  0  0
   -7.1570    4.4168  -17.9556 C   0  0  0  0  0  0  0  0  0  0  0  0
   -5.0514    5.4927  -17.1896 N   0  0  0  0  0  0  0  0  0  0  0  0
   -4.8936    6.2245  -18.4492 C   0  0  0  0  0  0  0  0  0  0  0  0
   -3.6214    7.0763  -18.3904 C   0  0  0  0  0  0  0  0  0  0  0  0
   -3.5814    8.0736  -17.2872 N   0  0  0  0  0  0  0  0  0  0  0  0
   -4.5514    7.7341  -16.2157 C   0  0  0  0  0  0  0  0  0  0  0  0
   -4.7048    6.2148  -15.9393 C   0  0  0  0  0  0  0  0  0  0  0  0
   -5.7923    5.8999  -14.8842 C   0  0  0  0  0  0  0  0  0  0  0  0
   -3.8105    8.9938  -17.6631 H   0  0  0  0  0  0  0  0  0  0  0  0
   -8.6221    5.0352  -13.9818 C   0  0  0  0  0  0  0  0  0  0  0  0
   -9.4650    5.8390  -13.8982 O   0  0  0  0  0  0  0  0  0  0  0  0
   -7.9606    4.1629  -12.8951 N   0  0  0  0  0  0  0  0  0  0  0  0
   -7.3186    3.4982  -13.2346 H   0  0  0  0  0  0  0  0  0  0  0  0
   -8.1224    4.1625  -11.5216 C   0  0  0  0  0  0  0  0  0  0  0  0
   -7.9726    5.3462  -10.7898 C   0  0  0  0  0  0  0  0  0  0  0  0
   -8.1642    5.3346   -9.4085 C   0  0  0  0  0  0  0  0  0  0  0  0
   -8.5024    4.1332   -8.8295 C   0  0  0  0  0  0  0  0  0  0  0  0
   -8.6107    3.0036   -9.6231 C   0  0  0  0  0  0  0  0  0  0  0  0
   -8.4345    2.9758  -10.9594 N   0  0  0  0  0  0  0  0  0  0  0  0
   -8.9559    1.8372   -8.7330 C   0  0  0  0  0  0  0  0  0  0  0  0
   -9.4118    2.4436   -7.4451 N   0  0  0  0  0  0  0  0  0  0  0  0
   -8.7905    3.7838   -7.4124 C   0  0  0  0  0  0  0  0  0  0  0  0
   -9.0966    1.8830   -6.6535 H   0  0  0  0  0  0  0  0  0  0  0  0
  1  2  1  0  0  0
  2  3  2  0  0  0
  3  4  1  0  0  0
  4 16  1  0  0  0
 16 17  2  0  0  0
 16 18  1  0  0  0
 18 20  1  0  0  0
 20 21  2  0  0  0
 21 22  1  0  0  0
 22 23  2  0  0  0
 23 24  1  0  0  0
 24 25  2  0  0  0
 24 26  1  0  0  0
 26 27  1  0  0  0
 27 28  1  0  0  0
  4  5  2  0  0  0
  5  6  1  0  0  0
  6  7  2  0  0  0
  6  8  1  0  0  0
  8  9  1  0  0  0
  9 10  1  0  0  0
 10 11  1  0  0  0
 11 12  1  0  0  0
 13 12  1  0  0  0
 13 14  1  0  0  0
  7  2  1  0  0  0
 13  8  1  0  0  0
 25 20  1  0  0  0
 14  5  1  0  0  0
 28 23  1  0  0  0
 18 19  1  0  0  0
 27 29  1  0  0  0
 11 15  1  0  0  0
M  END
> <minimizedAffinity>
-9.33727

> <minimizedRMSD>
0.98062

$$$$
P22819


 25 28  0  0  0  0  0  0  0  0999 V2000
   -7.5799    4.9637  -14.6977 C   0  0  0  0  0  0  0  0  0  0  0  0
   -7.0134    5.9811  -14.6123 O   0  0  0  0  0  0  0  0  0  0  0  0
   -8.1435    4.0381  -13.6008 N   0  0  0  0  0  0  0  0  0  0  0  0
   -8.5164    3.1885  -13.9301 H   0  0  0  0  0  0  0  0  0  0  0  0
   -4.1217    5.6772  -19.0017 O   0  0  0  0  0  0  0  0  0  0  0  0
   -5.1672    5.2580  -18.5293 C   0  0  0  0  0  0  0  0  0  0  0  0
   -5.5712    5.2921  -17.0502 C   0  0  0  0  0  0  0  0  0  0  0  0
   -6.9354    4.6742  -17.0795 C   0  0  0  0  0  0  0  0  0  0  0  0
   -7.2554    4.3289  -18.3889 C   0  0  0  0  0  0  0  0  0  0  0  0
   -8.4544    3.7442  -18.7349 C   0  0  0  0  0  0  0  0  0  0  0  0
   -9.3643    3.4866  -17.7079 C   0  0  0  0  0  0  0  0  0  0  0  0
   -9.0601    3.8279  -16.3764 C   0  0  0  0  0  0  0  0  0  0  0  0
   -7.8390    4.4357  -16.0580 C   0  0  0  0  0  0  0  0  0  0  0  0
   -6.2149    4.6792  -19.2355 N   0  0  0  0  0  0  0  0  0  0  0  0
   -6.2179    4.5365  -20.2096 H   0  0  0  0  0  0  0  0  0  0  0  0
   -8.2106    4.2067  -12.2294 C   0  0  0  0  0  0  0  0  0  0  0  0
   -8.1177    5.4824  -11.6610 C   0  0  0  0  0  0  0  0  0  0  0  0
   -8.1796    5.6284  -10.2750 C   0  0  0  0  0  0  0  0  0  0  0  0
   -8.3317    4.4841   -9.5265 C   0  0  0  0  0  0  0  0  0  0  0  0
   -8.4018    3.2588  -10.1672 C   0  0  0  0  0  0  0  0  0  0  0  0
   -8.3540    3.0791  -11.5025 N   0  0  0  0  0  0  0  0  0  0  0  0
   -8.5215    2.1858   -9.1157 C   0  0  0  0  0  0  0  0  0  0  0  0
   -8.8948    2.9027   -7.8582 N   0  0  0  0  0  0  0  0  0  0  0  0
   -8.4231    4.2892   -8.0543 C   0  0  0  0  0  0  0  0  0  0  0  0
   -8.4345    2.4778   -7.0532 H   0  0  0  0  0  0  0  0  0  0  0  0
  5  6  2  0  0  0
  6  7  1  0  0  0
  7  8  1  0  0  0
  8  9  2  0  0  0
  9 10  1  0  0  0
 10 11  2  0  0  0
 11 12  1  0  0  0
 12 13  2  0  0  0
 13  1  1  0  0  0
  1  2  2  0  0  0
  1  3  1  0  0  0
  3 16  1  0  0  0
 16 17  2  0  0  0
 17 18  1  0  0  0
 18 19  2  0  0  0
 19 20  1  0  0  0
 20 21  2  0  0  0
 20 22  1  0  0  0
 22 23  1  0  0  0
 23 24  1  0  0  0
  9 14  1  0  0  0
 14  6  1  0  0  0
 13  8  1  0  0  0
 21 16  1  0  0  0
 24 19  1  0  0  0
  3  4  1  0  0  0
 23 25  1  0  0  0
 14 15  1  0  0  0
M  END
> <minimizedAffinity>
-9.10000

> <minimizedRMSD>
0.98583

$$$$
P22820


 31 35  0  0  0  0  0  0  0  0999 V2000
   -8.1501    4.4005  -15.5083 C   0  0  0  0  0  0  0  0  0  0  0  0
   -9.0317    4.2757  -16.7340 C   0  0  0  0  0  0  0  0  0  0  0  0
   -8.0634    4.2489  -17.9205 C   0  0  0  0  0  0  0  0  0  0  0  0
   -6.6940    4.5520  -17.3074 C   0  0  0  0  0  0  0  0  0  0  0  0
   -5.7379    5.1941  -18.2595 C   0  0  0  0  0  0  0  0  0  0  0  0
   -5.5414    4.7160  -19.3740 O   0  0  0  0  0  0  0  0  0  0  0  0
   -5.0299    6.2624  -17.6919 N   0  0  0  0  0  0  0  0  0  0  0  0
   -4.3971    7.1959  -18.6270 C   0  0  0  0  0  0  0  0  0  0  0  0
   -3.3391    8.0838  -17.9672 C   0  0  0  0  0  0  0  0  0  0  0  0
   -2.3302    7.3459  -17.2068 N   0  0  0  0  0  0  0  0  0  0  0  0
   -2.6942    5.9427  -17.0331 C   0  0  0  0  0  0  0  0  0  0  0  0
   -4.0970    5.8658  -16.6554 N   0  0  0  0  0  0  0  0  0  0  0  0
   -4.4659    5.4325  -15.4035 C   0  0  0  0  0  0  0  0  0  0  0  0
   -3.6284    5.0583  -14.5742 O   0  0  0  0  0  0  0  0  0  0  0  0
   -5.9138    5.4553  -14.9881 C   0  0  0  0  0  0  0  0  0  0  0  0
   -7.0118    5.2892  -16.0226 C   0  0  0  0  0  0  0  0  0  0  0  0
   -2.2305    7.7765  -16.2876 H   0  0  0  0  0  0  0  0  0  0  0  0
   -9.6030    5.7600  -14.1952 O   0  0  0  0  0  0  0  0  0  0  0  0
   -8.8284    4.8849  -14.2321 C   0  0  0  0  0  0  0  0  0  0  0  0
   -8.1897    4.0543  -13.0810 N   0  0  0  0  0  0  0  0  0  0  0  0
   -7.6155    3.3117  -13.3779 H   0  0  0  0  0  0  0  0  0  0  0  0
   -8.2972    4.1893  -11.7158 C   0  0  0  0  0  0  0  0  0  0  0  0
   -8.0876    5.4060  -11.0682 C   0  0  0  0  0  0  0  0  0  0  0  0
   -8.1181    5.4424   -9.6732 C   0  0  0  0  0  0  0  0  0  0  0  0
   -8.3727    4.2604   -9.0076 C   0  0  0  0  0  0  0  0  0  0  0  0
   -8.5718    3.1033   -9.7349 C   0  0  0  0  0  0  0  0  0  0  0  0
   -8.5291    3.0257  -11.0745 N   0  0  0  0  0  0  0  0  0  0  0  0
   -8.8024    1.9596   -8.7879 C   0  0  0  0  0  0  0  0  0  0  0  0
   -8.9670    2.5784   -7.4394 N   0  0  0  0  0  0  0  0  0  0  0  0
   -8.4705    3.9646   -7.5541 C   0  0  0  0  0  0  0  0  0  0  0  0
   -8.4226    2.0648   -6.7465 H   0  0  0  0  0  0  0  0  0  0  0  0
 18 19  2  0  0  0
 19 20  1  0  0  0
 20 22  1  0  0  0
 22 23  2  0  0  0
 23 24  1  0  0  0
 24 25  2  0  0  0
 25 26  1  0  0  0
 26 27  2  0  0  0
 26 28  1  0  0  0
 28 29  1  0  0  0
 29 30  1  0  0  0
  1 19  1  0  0  0
  1  2  1  0  0  0
  2  3  1  0  0  0
  4  3  1  0  0  0
  4  5  1  0  0  0
  5  6  2  0  0  0
  5  7  1  0  0  0
  7  8  1  0  0  0
  8  9  1  0  0  0
  9 10  1  0  0  0
 10 11  1  0  0  0
 11 12  1  0  0  0
 12 13  1  0  0  0
 13 14  2  0  0  0
 13 15  1  0  0  0
 16 15  1  0  0  0
 27 22  1  0  0  0
 16  1  1  0  0  0
 30 25  1  0  0  0
 16  4  1  0  0  0
 12  7  1  0  0  0
 20 21  1  0  0  0
 29 31  1  0  0  0
 10 17  1  0  0  0
M  END
> <minimizedAffinity>
-9.60048

> <minimizedRMSD>
1.10190

$$$$
P22823


 27 30  0  0  0  0  0  0  0  0999 V2000
   -8.1458    4.0391  -13.3468 N   0  0  0  0  0  0  0  0  0  0  0  0
   -8.8024    4.9102  -14.4326 C   0  0  0  0  0  0  0  0  0  0  0  0
   -9.5646    5.7879  -14.3394 O   0  0  0  0  0  0  0  0  0  0  0  0
   -7.5882    3.3038  -13.6899 H   0  0  0  0  0  0  0  0  0  0  0  0
   -8.3994    4.5052  -15.7961 C   0  0  0  0  0  0  0  0  0  0  0  0
   -9.3076    3.8843  -16.6600 C   0  0  0  0  0  0  0  0  0  0  0  0
   -8.9856    3.6787  -18.0145 C   0  0  0  0  0  0  0  0  0  0  0  0
   -7.7480    4.0795  -18.5189 C   0  0  0  0  0  0  0  0  0  0  0  0
   -6.8583    4.6495  -17.6337 C   0  0  0  0  0  0  0  0  0  0  0  0
   -7.1615    4.8672  -16.2920 C   0  0  0  0  0  0  0  0  0  0  0  0
   -5.9699    5.4474  -15.5957 C   0  0  0  0  0  0  0  0  0  0  0  0
   -6.1677    6.6875  -15.0730 F   0  0  0  0  0  0  0  0  0  0  0  0
   -4.9277    5.4809  -16.7342 C   0  0  0  0  0  0  0  0  0  0  0  0
   -3.7564    5.8156  -16.6407 O   0  0  0  0  0  0  0  0  0  0  0  0
   -5.5588    5.0524  -17.8991 N   0  0  0  0  0  0  0  0  0  0  0  0
   -5.1393    5.0376  -18.7896 H   0  0  0  0  0  0  0  0  0  0  0  0
   -8.0563    6.7437   -9.2121 C   0  0  0  0  0  0  0  0  0  0  0  0
   -8.1883    5.4395   -9.9291 C   0  0  0  0  0  0  0  0  0  0  0  0
   -8.0972    5.3598  -11.3237 C   0  0  0  0  0  0  0  0  0  0  0  0
   -8.2115    4.1207  -11.9680 C   0  0  0  0  0  0  0  0  0  0  0  0
   -8.3843    2.9562  -11.3128 N   0  0  0  0  0  0  0  0  0  0  0  0
   -8.4647    3.0637   -9.9717 C   0  0  0  0  0  0  0  0  0  0  0  0
   -8.3899    4.2500   -9.2569 C   0  0  0  0  0  0  0  0  0  0  0  0
   -8.5446    3.9630   -7.8026 C   0  0  0  0  0  0  0  0  0  0  0  0
   -9.0579    2.5805   -7.7123 N   0  0  0  0  0  0  0  0  0  0  0  0
   -8.6427    1.9327   -8.9920 C   0  0  0  0  0  0  0  0  0  0  0  0
  -10.0740    2.5800   -7.6228 H   0  0  0  0  0  0  0  0  0  0  0  0
 17 18  1  0  0  0
 18 19  2  0  0  0
 19 20  1  0  0  0
 20  1  1  0  0  0
  1  2  1  0  0  0
  2  3  2  0  0  0
  2  5  1  0  0  0
  5  6  2  0  0  0
  6  7  1  0  0  0
  7  8  2  0  0  0
  8  9  1  0  0  0
  9 10  2  0  0  0
 10 11  1  0  0  0
 11 12  1  0  0  0
 11 13  1  0  0  0
 13 14  2  0  0  0
 13 15  1  0  0  0
 20 21  2  0  0  0
 21 22  1  0  0  0
 22 23  2  0  0  0
 23 24  1  0  0  0
 24 25  1  0  0  0
 25 26  1  0  0  0
 23 18  1  0  0  0
 10  5  1  0  0  0
 26 22  1  0  0  0
 15  9  1  0  0  0
  1  4  1  0  0  0
 15 16  1  0  0  0
 25 27  1  0  0  0
M  END
> <minimizedAffinity>
-9.20064

> <minimizedRMSD>
0.77092

$$$$
P22825


 28 31  0  0  0  0  0  0  0  0999 V2000
   -6.6169    4.8785  -12.4848 C   0  0  0  0  0  0  0  0  0  0  0  0
   -5.6810    5.4864  -12.1446 O   0  0  0  0  0  0  0  0  0  0  0  0
   -7.7599    4.2551  -11.6569 N   0  0  0  0  0  0  0  0  0  0  0  0
   -8.4007    3.7191  -12.1778 H   0  0  0  0  0  0  0  0  0  0  0  0
   -7.6506    4.6200  -16.6437 C   0  0  0  0  0  0  0  0  0  0  0  0
   -8.5633    4.2937  -15.6416 C   0  0  0  0  0  0  0  0  0  0  0  0
   -8.2005    4.3558  -14.3052 C   0  0  0  0  0  0  0  0  0  0  0  0
   -6.8939    4.7023  -13.9289 C   0  0  0  0  0  0  0  0  0  0  0  0
   -5.9753    5.0018  -14.9167 C   0  0  0  0  0  0  0  0  0  0  0  0
   -6.3638    4.9565  -16.2521 C   0  0  0  0  0  0  0  0  0  0  0  0
   -5.2944    5.3147  -17.0626 N   0  0  0  0  0  0  0  0  0  0  0  0
   -4.1571    5.5697  -16.3107 C   0  0  0  0  0  0  0  0  0  0  0  0
   -3.0605    5.8766  -16.7521 O   0  0  0  0  0  0  0  0  0  0  0  0
   -4.5366    5.4056  -14.8325 C   0  0  0  0  0  0  0  0  0  0  0  0
   -5.3379    5.3792  -18.0440 H   0  0  0  0  0  0  0  0  0  0  0  0
   -8.9682    3.6295  -18.5805 C   0  0  0  0  0  0  0  0  0  0  0  0
   -8.0658    4.7310  -18.0695 C   0  0  0  0  0  0  0  0  0  0  0  0
   -8.0308    4.3262  -10.3059 C   0  0  0  0  0  0  0  0  0  0  0  0
   -8.3860    3.0919   -9.8705 N   0  0  0  0  0  0  0  0  0  0  0  0
   -8.7689    2.9936   -8.5935 C   0  0  0  0  0  0  0  0  0  0  0  0
   -8.8476    4.0520   -7.7205 C   0  0  0  0  0  0  0  0  0  0  0  0
   -8.4927    5.3072   -8.1587 C   0  0  0  0  0  0  0  0  0  0  0  0
   -8.0839    5.4720   -9.4963 C   0  0  0  0  0  0  0  0  0  0  0  0
   -7.7862    6.8697   -9.9388 C   0  0  0  0  0  0  0  0  0  0  0  0
   -9.3251    3.5709   -6.3976 C   0  0  0  0  0  0  0  0  0  0  0  0
   -9.8604    2.2110   -6.6334 N   0  0  0  0  0  0  0  0  0  0  0  0
   -9.1762    1.7401   -7.8743 C   0  0  0  0  0  0  0  0  0  0  0  0
  -10.8707    2.2415   -6.7699 H   0  0  0  0  0  0  0  0  0  0  0  0
 16 17  1  0  0  0
 17  5  1  0  0  0
  5  6  2  0  0  0
  6  7  1  0  0  0
  7  8  2  0  0  0
  8  1  1  0  0  0
  1  2  2  0  0  0
  1  3  1  0  0  0
  3 18  1  0  0  0
 18 19  2  0  0  0
 19 20  1  0  0  0
 20 21  2  0  0  0
 21 22  1  0  0  0
 22 23  2  0  0  0
 23 24  1  0  0  0
 21 25  1  0  0  0
 25 26  1  0  0  0
 26 27  1  0  0  0
  8  9  1  0  0  0
  9 10  2  0  0  0
 10 11  1  0  0  0
 11 12  1  0  0  0
 12 13  2  0  0  0
 12 14  1  0  0  0
 10  5  1  0  0  0
 23 18  1  0  0  0
 14  9  1  0  0  0
 27 20  1  0  0  0
  3  4  1  0  0  0
 26 28  1  0  0  0
 11 15  1  0  0  0
M  END
> <minimizedAffinity>
-7.75262

> <minimizedRMSD>
0.78334

$$$$
P22827


 30 33  0  0  0  0  0  0  0  0999 V2000
   -7.9922    4.1788  -13.4134 N   0  0  0  0  0  0  0  0  0  0  0  0
   -7.3824    5.1046  -14.4992 C   0  0  0  0  0  0  0  0  0  0  0  0
   -6.8278    6.1296  -14.3974 O   0  0  0  0  0  0  0  0  0  0  0  0
   -8.3425    3.3229  -13.7511 H   0  0  0  0  0  0  0  0  0  0  0  0
   -8.2869    6.9405  -11.9734 C   0  0  0  0  0  0  0  0  0  0  0  0
   -8.2461    5.5832  -11.3425 C   0  0  0  0  0  0  0  0  0  0  0  0
   -8.3712    5.5484   -9.9350 C   0  0  0  0  0  0  0  0  0  0  0  0
   -8.4165    4.3317   -9.2971 C   0  0  0  0  0  0  0  0  0  0  0  0
   -8.3200    3.1868  -10.0515 C   0  0  0  0  0  0  0  0  0  0  0  0
   -8.1842    3.1623  -11.3924 N   0  0  0  0  0  0  0  0  0  0  0  0
   -8.1254    4.3619  -12.0343 C   0  0  0  0  0  0  0  0  0  0  0  0
   -8.3904    2.0017   -9.1211 C   0  0  0  0  0  0  0  0  0  0  0  0
   -8.8775    2.5458   -7.8163 N   0  0  0  0  0  0  0  0  0  0  0  0
   -8.5525    3.9861   -7.8571 C   0  0  0  0  0  0  0  0  0  0  0  0
   -8.3992    2.0923   -7.0378 H   0  0  0  0  0  0  0  0  0  0  0  0
   -7.6372    4.6048  -15.8868 C   0  0  0  0  0  0  0  0  0  0  0  0
   -8.7883    3.8211  -16.0813 C   0  0  0  0  0  0  0  0  0  0  0  0
   -9.2057    3.4680  -17.3628 C   0  0  0  0  0  0  0  0  0  0  0  0
   -8.4761    3.8846  -18.4640 C   0  0  0  0  0  0  0  0  0  0  0  0
   -7.3352    4.6619  -18.2876 C   0  0  0  0  0  0  0  0  0  0  0  0
   -6.8905    5.0411  -17.0047 C   0  0  0  0  0  0  0  0  0  0  0  0
   -5.7092    5.9785  -16.9739 C   0  0  0  0  0  0  0  0  0  0  0  0
   -4.4759    5.4817  -16.3904 C   0  0  0  0  0  0  0  0  0  0  0  0
   -3.3105    5.2857  -16.8659 N   0  0  0  0  0  0  0  0  0  0  0  0
   -3.4241    5.0400  -15.1861 S   0  0  0  0  0  0  0  0  0  0  0  0
   -2.4834    6.4272  -14.6738 C   0  0  0  0  0  0  0  0  0  0  0  0
   -3.2722    7.5217  -13.9592 C   0  0  0  0  0  0  0  0  0  0  0  0
   -4.3225    7.0232  -13.0829 N   0  0  0  0  0  0  0  0  0  0  0  0
   -5.0117    6.5124  -13.6347 H   0  0  0  0  0  0  0  0  0  0  0  0
   -4.7757    7.8079  -12.6147 H   0  0  0  0  0  0  0  0  0  0  0  0
  5  6  1  0  0  0
  6  7  2  0  0  0
  7  8  1  0  0  0
  8  9  2  0  0  0
  9 10  1  0  0  0
 10 11  2  0  0  0
 11  1  1  0  0  0
  1  2  1  0  0  0
  2  3  2  0  0  0
  2 16  1  0  0  0
 16 17  2  0  0  0
 17 18  1  0  0  0
 18 19  2  0  0  0
 19 20  1  0  0  0
 20 21  2  0  0  0
 21 22  1  0  0  0
 22 23  1  0  0  0
 23 24  2  0  0  0
 24 25  1  0  0  0
 25 26  1  0  0  0
 26 27  1  0  0  0
 27 28  1  0  0  0
  9 12  1  0  0  0
 12 13  1  0  0  0
 13 14  1  0  0  0
 11  6  1  0  0  0
 21 16  1  0  0  0
 25 23  1  0  0  0
 14  8  1  0  0  0
  1  4  1  0  0  0
 28 29  1  0  0  0
 28 30  1  0  0  0
 13 15  1  0  0  0
M  END
> <minimizedAffinity>
-7.10601

> <minimizedRMSD>
0.69833

$$$$
P22834


 31 34  0  0  0  0  0  0  0  0999 V2000
   -6.2560    4.4363  -14.2030 N   0  0  0  0  0  0  0  0  0  0  0  0
   -7.4851    4.6812  -14.5650 C   0  0  0  0  0  0  0  0  0  0  0  0
   -7.8359    4.4581  -16.0130 C   0  0  0  0  0  0  0  0  0  0  0  0
   -9.0182    3.7794  -16.3699 C   0  0  0  0  0  0  0  0  0  0  0  0
   -9.3147    3.4436  -17.7031 C   0  0  0  0  0  0  0  0  0  0  0  0
   -8.4240    3.7610  -18.7192 C   0  0  0  0  0  0  0  0  0  0  0  0
   -7.2665    4.4147  -18.3607 C   0  0  0  0  0  0  0  0  0  0  0  0
   -6.9573    4.7714  -17.0439 C   0  0  0  0  0  0  0  0  0  0  0  0
   -5.5939    5.4057  -17.0325 C   0  0  0  0  0  0  0  0  0  0  0  0
   -5.1426    5.2412  -18.4885 C   0  0  0  0  0  0  0  0  0  0  0  0
   -4.0371    5.4876  -18.9439 O   0  0  0  0  0  0  0  0  0  0  0  0
   -6.2174    4.7381  -19.2054 N   0  0  0  0  0  0  0  0  0  0  0  0
   -6.2330    4.6258  -20.1833 H   0  0  0  0  0  0  0  0  0  0  0  0
   -4.9080    3.6302  -10.7698 C   0  0  0  0  0  0  0  0  0  0  0  0
   -4.7094    3.5354  -12.2660 C   0  0  0  0  0  0  0  0  0  0  0  0
   -3.7999    2.9919  -12.7623 O   0  0  0  0  0  0  0  0  0  0  0  0
   -5.9104    4.2912  -12.9130 N   0  0  0  0  0  0  0  0  0  0  0  0
   -6.5128    4.7336  -12.2722 H   0  0  0  0  0  0  0  0  0  0  0  0
   -8.5705    5.2428  -13.6479 C   0  0  0  0  0  0  0  0  0  0  0  0
   -9.4976    5.8948  -14.1251 O   0  0  0  0  0  0  0  0  0  0  0  0
   -8.3808    5.2950  -12.1886 C   0  0  0  0  0  0  0  0  0  0  0  0
   -8.1518    6.5574  -11.6333 C   0  0  0  0  0  0  0  0  0  0  0  0
   -8.0247    6.6682  -10.2554 C   0  0  0  0  0  0  0  0  0  0  0  0
   -8.1652    5.5171   -9.5097 C   0  0  0  0  0  0  0  0  0  0  0  0
   -8.3942    4.2975  -10.1388 C   0  0  0  0  0  0  0  0  0  0  0  0
   -8.4756    4.1331  -11.4789 N   0  0  0  0  0  0  0  0  0  0  0  0
   -8.7086    3.2928   -9.0477 C   0  0  0  0  0  0  0  0  0  0  0  0
   -8.0981    1.9353   -9.2006 C   0  0  0  0  0  0  0  0  0  0  0  0
   -8.2603    3.9330   -7.7837 N   0  0  0  0  0  0  0  0  0  0  0  0
   -8.2011    5.3676   -8.0270 C   0  0  0  0  0  0  0  0  0  0  0  0
   -7.3380    3.5841   -7.5229 H   0  0  0  0  0  0  0  0  0  0  0  0
 14 15  1  0  0  0
 15 16  2  0  0  0
 15 17  1  0  0  0
 17  1  1  0  0  0
  1  2  2  0  0  0
  2 19  1  0  0  0
 19 20  2  0  0  0
 19 21  1  0  0  0
 21 22  2  0  0  0
 22 23  1  0  0  0
 23 24  2  0  0  0
 24 25  1  0  0  0
 25 26  2  0  0  0
 25 27  1  0  0  0
 27 28  1  0  0  0
 27 29  1  0  0  0
 29 30  1  0  0  0
  2  3  1  0  0  0
  3  4  2  0  0  0
  4  5  1  0  0  0
  5  6  2  0  0  0
  6  7  1  0  0  0
  7  8  2  0  0  0
  8  9  1  0  0  0
  9 10  1  0  0  0
 10 11  2  0  0  0
 10 12  1  0  0  0
 26 21  1  0  0  0
  8  3  1  0  0  0
 30 24  1  0  0  0
 12  7  1  0  0  0
 17 18  1  0  0  0
 29 31  1  0  0  0
 12 13  1  0  0  0
M  END
> <minimizedAffinity>
-9.39471

> <minimizedRMSD>
1.11642

$$$$
P22835


 28 31  0  0  0  0  0  0  0  0999 V2000
   -3.7346    5.0963  -15.1005 C   0  0  0  0  0  0  0  0  0  0  0  0
   -4.7482    5.9116  -15.8911 C   0  0  0  0  0  0  0  0  0  0  0  0
   -4.1682    6.1457  -17.2927 C   0  0  0  0  0  0  0  0  0  0  0  0
   -3.1417    6.7553  -17.5621 O   0  0  0  0  0  0  0  0  0  0  0  0
   -5.0022    5.5236  -18.2131 N   0  0  0  0  0  0  0  0  0  0  0  0
   -6.1591    5.0433  -17.5866 C   0  0  0  0  0  0  0  0  0  0  0  0
   -7.2857    4.4980  -18.1760 C   0  0  0  0  0  0  0  0  0  0  0  0
   -8.3387    4.1170  -17.3515 C   0  0  0  0  0  0  0  0  0  0  0  0
   -8.2522    4.2908  -15.9623 C   0  0  0  0  0  0  0  0  0  0  0  0
   -7.1209    4.8719  -15.3620 C   0  0  0  0  0  0  0  0  0  0  0  0
   -6.0604    5.2282  -16.1987 C   0  0  0  0  0  0  0  0  0  0  0  0
   -4.8126    5.6133  -19.6331 C   0  0  0  0  0  0  0  0  0  0  0  0
   -3.5808    4.9932  -19.9820 O   0  0  0  0  0  0  0  0  0  0  0  0
   -2.8520    5.4428  -19.5265 H   0  0  0  0  0  0  0  0  0  0  0  0
   -7.0973    5.1936  -13.9050 C   0  0  0  0  0  0  0  0  0  0  0  0
   -6.1046    5.6749  -13.3668 O   0  0  0  0  0  0  0  0  0  0  0  0
   -8.3517    5.1215  -13.0750 C   0  0  0  0  0  0  0  0  0  0  0  0
   -9.4022    5.5237  -13.5682 O   0  0  0  0  0  0  0  0  0  0  0  0
   -8.2255    4.8561  -11.6283 C   0  0  0  0  0  0  0  0  0  0  0  0
   -8.1410    5.9744  -10.7859 C   0  0  0  0  0  0  0  0  0  0  0  0
   -8.2156    5.7913   -9.4091 C   0  0  0  0  0  0  0  0  0  0  0  0
   -8.3923    4.5019   -8.9556 C   0  0  0  0  0  0  0  0  0  0  0  0
   -8.4289    3.4476   -9.8593 C   0  0  0  0  0  0  0  0  0  0  0  0
   -8.3559    3.5746  -11.2011 N   0  0  0  0  0  0  0  0  0  0  0  0
   -8.6195    2.1727   -9.0738 C   0  0  0  0  0  0  0  0  0  0  0  0
   -9.0903    2.6085   -7.7240 N   0  0  0  0  0  0  0  0  0  0  0  0
   -8.5940    3.9898   -7.5717 C   0  0  0  0  0  0  0  0  0  0  0  0
   -8.7024    2.0064   -6.9978 H   0  0  0  0  0  0  0  0  0  0  0  0
  2  1  1  0  0  0
  2  3  1  0  0  0
  3  4  2  0  0  0
  3  5  1  0  0  0
  5 12  1  0  0  0
 12 13  1  0  0  0
  5  6  1  0  0  0
  6  7  2  0  0  0
  7  8  1  0  0  0
  8  9  2  0  0  0
  9 10  1  0  0  0
 10 15  1  0  0  0
 15 16  2  0  0  0
 15 17  1  0  0  0
 17 18  2  0  0  0
 17 19  1  0  0  0
 19 20  2  0  0  0
 20 21  1  0  0  0
 21 22  2  0  0  0
 22 23  1  0  0  0
 23 24  2  0  0  0
 23 25  1  0  0  0
 25 26  1  0  0  0
 26 27  1  0  0  0
 10 11  2  0  0  0
 11  2  1  0  0  0
 11  6  1  0  0  0
 24 19  1  0  0  0
 27 22  1  0  0  0
 13 14  1  0  0  0
 26 28  1  0  0  0
M  END
> <minimizedAffinity>
-8.32705

> <minimizedRMSD>
0.21671

$$$$
P22839


 29 32  0  0  0  0  0  0  0  0999 V2000
   -7.3373    5.1266  -14.2990 C   0  0  0  0  0  0  0  0  0  0  0  0
   -6.6536    6.3506  -14.3627 O   0  0  0  0  0  0  0  0  0  0  0  0
   -6.4189    4.2098  -13.7701 O   0  0  0  0  0  0  0  0  0  0  0  0
   -7.0876    7.1131  -14.6917 H   0  0  0  0  0  0  0  0  0  0  0  0
   -6.6705    3.3166  -13.6404 H   0  0  0  0  0  0  0  0  0  0  0  0
   -7.6848    4.7241  -15.7252 C   0  0  0  0  0  0  0  0  0  0  0  0
   -8.9112    4.1091  -16.0670 C   0  0  0  0  0  0  0  0  0  0  0  0
   -9.2125    3.6918  -17.3788 C   0  0  0  0  0  0  0  0  0  0  0  0
   -8.2989    3.8846  -18.4074 C   0  0  0  0  0  0  0  0  0  0  0  0
   -7.1135    4.5020  -18.0832 C   0  0  0  0  0  0  0  0  0  0  0  0
   -6.7979    4.9188  -16.7869 C   0  0  0  0  0  0  0  0  0  0  0  0
   -5.4245    5.5319  -16.8041 C   0  0  0  0  0  0  0  0  0  0  0  0
   -5.0039    5.3641  -18.2711 C   0  0  0  0  0  0  0  0  0  0  0  0
   -3.9329    5.6836  -18.7651 O   0  0  0  0  0  0  0  0  0  0  0  0
   -6.0665    4.7826  -18.9462 N   0  0  0  0  0  0  0  0  0  0  0  0
   -6.0757    4.5938  -19.9124 H   0  0  0  0  0  0  0  0  0  0  0  0
   -8.5053    5.2296  -13.4612 N   0  0  0  0  0  0  0  0  0  0  0  0
   -9.3964    5.3370  -13.8659 H   0  0  0  0  0  0  0  0  0  0  0  0
   -8.3912    7.7219  -11.7556 C   0  0  0  0  0  0  0  0  0  0  0  0
   -8.2780    6.3130  -11.2524 C   0  0  0  0  0  0  0  0  0  0  0  0
   -8.1493    6.1305   -9.8665 C   0  0  0  0  0  0  0  0  0  0  0  0
   -8.2202    4.8499   -9.3698 C   0  0  0  0  0  0  0  0  0  0  0  0
   -8.3599    3.7988  -10.2472 C   0  0  0  0  0  0  0  0  0  0  0  0
   -8.3975    3.9181  -11.5900 N   0  0  0  0  0  0  0  0  0  0  0  0
   -8.3680    5.1767  -12.0804 C   0  0  0  0  0  0  0  0  0  0  0  0
   -8.5014    2.5253   -9.4583 C   0  0  0  0  0  0  0  0  0  0  0  0
   -8.5153    2.9192   -8.0175 N   0  0  0  0  0  0  0  0  0  0  0  0
   -8.2293    4.3644   -7.9671 C   0  0  0  0  0  0  0  0  0  0  0  0
   -7.8008    2.4020   -7.5053 H   0  0  0  0  0  0  0  0  0  0  0  0
 19 20  1  0  0  0
 20 21  2  0  0  0
 21 22  1  0  0  0
 22 23  2  0  0  0
 23 24  1  0  0  0
 24 25  2  0  0  0
 25 17  1  0  0  0
 17  1  1  0  0  0
  1  2  1  0  0  0
  1  3  1  0  0  0
  1  6  1  0  0  0
  6  7  2  0  0  0
  7  8  1  0  0  0
  8  9  2  0  0  0
  9 10  1  0  0  0
 10 11  2  0  0  0
 11 12  1  0  0  0
 12 13  1  0  0  0
 13 14  2  0  0  0
 13 15  1  0  0  0
 23 26  1  0  0  0
 26 27  1  0  0  0
 27 28  1  0  0  0
 25 20  1  0  0  0
 11  6  1  0  0  0
 28 22  1  0  0  0
 15 10  1  0  0  0
 17 18  1  0  0  0
  2  4  1  0  0  0
  3  5  1  0  0  0
 15 16  1  0  0  0
 27 29  1  0  0  0
M  END
> <minimizedAffinity>
-8.63149

> <minimizedRMSD>
0.80192

$$$$
P22840


 29 32  0  0  0  0  0  0  0  0999 V2000
   -5.3146    5.1839  -18.3357 N   0  0  0  0  0  0  0  0  0  0  0  0
   -4.3223    5.4784  -17.3842 C   0  0  0  0  0  0  0  0  0  0  0  0
   -3.1407    5.7128  -17.6019 O   0  0  0  0  0  0  0  0  0  0  0  0
   -5.0267    5.5002  -16.0156 C   0  0  0  0  0  0  0  0  0  0  0  0
   -6.4141    5.0232  -16.3402 C   0  0  0  0  0  0  0  0  0  0  0  0
   -7.5046    4.7764  -15.5145 C   0  0  0  0  0  0  0  0  0  0  0  0
   -8.6777    4.2654  -16.0931 C   0  0  0  0  0  0  0  0  0  0  0  0
   -8.7550    4.0383  -17.4768 C   0  0  0  0  0  0  0  0  0  0  0  0
   -7.6762    4.3499  -18.3048 C   0  0  0  0  0  0  0  0  0  0  0  0
   -6.5213    4.8354  -17.7196 C   0  0  0  0  0  0  0  0  0  0  0  0
   -7.5211    5.2360  -14.0992 C   0  0  0  0  0  0  0  0  0  0  0  0
   -7.3058    6.3673  -13.9017 O   0  0  0  0  0  0  0  0  0  0  0  0
   -7.9320    4.1097  -13.1249 N   0  0  0  0  0  0  0  0  0  0  0  0
   -8.1308    3.2461  -13.5537 H   0  0  0  0  0  0  0  0  0  0  0  0
   -8.0661    4.1168  -11.7475 C   0  0  0  0  0  0  0  0  0  0  0  0
   -8.0399    5.3241  -11.0400 C   0  0  0  0  0  0  0  0  0  0  0  0
   -8.2506    5.3225   -9.6604 C   0  0  0  0  0  0  0  0  0  0  0  0
   -8.4658    4.1053   -9.0555 C   0  0  0  0  0  0  0  0  0  0  0  0
   -8.4465    2.9544   -9.8242 C   0  0  0  0  0  0  0  0  0  0  0  0
   -8.2691    2.9181  -11.1610 N   0  0  0  0  0  0  0  0  0  0  0  0
   -8.6373    1.7749   -8.9053 C   0  0  0  0  0  0  0  0  0  0  0  0
   -9.1568    2.3474   -7.6263 N   0  0  0  0  0  0  0  0  0  0  0  0
   -8.7136    3.7574   -7.6301 C   0  0  0  0  0  0  0  0  0  0  0  0
   -8.7653    1.8507   -6.8261 H   0  0  0  0  0  0  0  0  0  0  0  0
   -5.2216    5.4402  -19.7082 N   0  0  0  0  0  0  0  0  0  0  0  0
   -4.6104    4.7346  -20.1193 H   0  0  0  0  0  0  0  0  0  0  0  0
   -5.5469    7.9098  -19.4981 C   0  0  0  0  0  0  0  0  0  0  0  0
   -4.6936    6.7618  -20.0684 C   0  0  0  0  0  0  0  0  0  0  0  0
   -4.6634    6.9440  -21.5891 C   0  0  0  0  0  0  0  0  0  0  0  0
 27 28  1  0  0  0
 28 29  1  0  0  0
 28 25  1  0  0  0
 25  1  1  0  0  0
  1  2  1  0  0  0
  2  3  2  0  0  0
  2  4  1  0  0  0
  4  5  1  0  0  0
  5  6  2  0  0  0
  6 11  1  0  0  0
 11 12  2  0  0  0
 11 13  1  0  0  0
 13 15  1  0  0  0
 15 16  2  0  0  0
 16 17  1  0  0  0
 17 18  2  0  0  0
 18 19  1  0  0  0
 19 20  2  0  0  0
 19 21  1  0  0  0
 21 22  1  0  0  0
 22 23  1  0  0  0
  6  7  1  0  0  0
  7  8  2  0  0  0
  8  9  1  0  0  0
  9 10  2  0  0  0
 10  1  1  0  0  0
 10  5  1  0  0  0
 20 15  1  0  0  0
 23 18  1  0  0  0
 25 26  1  0  0  0
 13 14  1  0  0  0
 22 24  1  0  0  0
M  END
> <minimizedAffinity>
-8.54134

> <minimizedRMSD>
0.27949

$$$$
P22841


 30 33  0  0  0  0  0  0  0  0999 V2000
   -8.1508    3.9846  -13.4393 N   0  0  0  0  0  0  0  0  0  0  0  0
   -8.7825    4.8656  -14.5343 C   0  0  0  0  0  0  0  0  0  0  0  0
   -9.5208    5.7660  -14.4493 O   0  0  0  0  0  0  0  0  0  0  0  0
   -7.6135    3.2313  -13.7755 H   0  0  0  0  0  0  0  0  0  0  0  0
   -8.1274    6.7498   -9.3603 C   0  0  0  0  0  0  0  0  0  0  0  0
   -8.1905    5.4248  -10.0419 C   0  0  0  0  0  0  0  0  0  0  0  0
   -8.1269    5.3289  -11.4361 C   0  0  0  0  0  0  0  0  0  0  0  0
   -8.2157    4.0794  -12.0610 C   0  0  0  0  0  0  0  0  0  0  0  0
   -8.3588    2.9215  -11.3862 N   0  0  0  0  0  0  0  0  0  0  0  0
   -8.4276    3.0473  -10.0450 C   0  0  0  0  0  0  0  0  0  0  0  0
   -8.3709    4.2449   -9.3491 C   0  0  0  0  0  0  0  0  0  0  0  0
   -8.5127    3.9804   -7.8891 C   0  0  0  0  0  0  0  0  0  0  0  0
   -8.9919    2.5885   -7.7715 N   0  0  0  0  0  0  0  0  0  0  0  0
   -8.5695    1.9300   -9.0434 C   0  0  0  0  0  0  0  0  0  0  0  0
  -10.0070    2.5651   -7.6748 H   0  0  0  0  0  0  0  0  0  0  0  0
   -8.3968    4.4406  -15.8976 C   0  0  0  0  0  0  0  0  0  0  0  0
   -9.3210    3.8371  -16.7547 C   0  0  0  0  0  0  0  0  0  0  0  0
   -9.0031    3.6406  -18.1092 C   0  0  0  0  0  0  0  0  0  0  0  0
   -7.7653    4.0488  -18.6198 C   0  0  0  0  0  0  0  0  0  0  0  0
   -6.8523    4.6195  -17.7495 C   0  0  0  0  0  0  0  0  0  0  0  0
   -7.1571    4.8040  -16.4025 C   0  0  0  0  0  0  0  0  0  0  0  0
   -5.9818    5.4029  -15.6937 C   0  0  0  0  0  0  0  0  0  0  0  0
   -4.9232    5.4953  -16.7932 C   0  0  0  0  0  0  0  0  0  0  0  0
   -3.7742    5.8751  -16.6179 O   0  0  0  0  0  0  0  0  0  0  0  0
   -5.5522    5.0908  -17.9906 N   0  0  0  0  0  0  0  0  0  0  0  0
   -4.9035    5.0282  -19.2271 N   0  0  0  0  0  0  0  0  0  0  0  0
   -5.4397    4.4075  -19.8334 H   0  0  0  0  0  0  0  0  0  0  0  0
   -4.7468    6.3185  -19.9204 C   0  0  0  0  0  0  0  0  0  0  0  0
   -5.5225    7.4977  -19.3313 C   0  0  0  0  0  0  0  0  0  0  0  0
   -3.2647    6.6611  -20.0696 C   0  0  0  0  0  0  0  0  0  0  0  0
  5  6  1  0  0  0
  6  7  2  0  0  0
  7  8  1  0  0  0
  8  1  1  0  0  0
  1  2  1  0  0  0
  2  3  2  0  0  0
  2 16  1  0  0  0
 16 17  2  0  0  0
 17 18  1  0  0  0
 18 19  2  0  0  0
 19 20  1  0  0  0
 20 21  2  0  0  0
 21 22  1  0  0  0
 22 23  1  0  0  0
 23 24  2  0  0  0
 23 25  1  0  0  0
 25 26  1  0  0  0
 26 28  1  0  0  0
 28 29  1  0  0  0
 28 30  1  0  0  0
  8  9  2  0  0  0
  9 10  1  0  0  0
 10 11  2  0  0  0
 11 12  1  0  0  0
 12 13  1  0  0  0
 13 14  1  0  0  0
 11  6  1  0  0  0
 21 16  1  0  0  0
 14 10  1  0  0  0
 25 20  1  0  0  0
  1  4  1  0  0  0
 26 27  1  0  0  0
 13 15  1  0  0  0
M  END
> <minimizedAffinity>
-9.41987

> <minimizedRMSD>
0.80329

$$$$
P22843


 31 34  0  0  0  0  0  0  0  0999 V2000
   -7.9913    4.2480  -13.1715 N   0  0  0  0  0  0  0  0  0  0  0  0
   -7.4846    5.2799  -14.1999 C   0  0  0  0  0  0  0  0  0  0  0  0
   -7.0374    6.3469  -14.0439 O   0  0  0  0  0  0  0  0  0  0  0  0
   -8.2539    3.3797  -13.5542 H   0  0  0  0  0  0  0  0  0  0  0  0
   -7.5953    4.7987  -15.6026 C   0  0  0  0  0  0  0  0  0  0  0  0
   -8.8142    4.3403  -16.1174 C   0  0  0  0  0  0  0  0  0  0  0  0
   -8.9485    4.1140  -17.4987 C   0  0  0  0  0  0  0  0  0  0  0  0
  -10.4815    3.7228  -18.1618 Cl  0  0  0  0  0  0  0  0  0  0  0  0
   -7.8891    4.3108  -18.3785 C   0  0  0  0  0  0  0  0  0  0  0  0
   -6.7002    4.7638  -17.8515 C   0  0  0  0  0  0  0  0  0  0  0  0
   -6.5383    4.9953  -16.4857 C   0  0  0  0  0  0  0  0  0  0  0  0
   -5.1443    5.4951  -16.2313 C   0  0  0  0  0  0  0  0  0  0  0  0
   -4.5230    5.5355  -17.6334 C   0  0  0  0  0  0  0  0  0  0  0  0
   -3.3797    5.8910  -17.8868 O   0  0  0  0  0  0  0  0  0  0  0  0
   -5.5239    5.0978  -18.5244 N   0  0  0  0  0  0  0  0  0  0  0  0
   -5.4398    5.2675  -19.9034 N   0  0  0  0  0  0  0  0  0  0  0  0
   -4.4819    5.5075  -20.1586 H   0  0  0  0  0  0  0  0  0  0  0  0
   -6.0669    6.0183  -20.1924 H   0  0  0  0  0  0  0  0  0  0  0  0
   -7.9464    1.2679   -8.6305 N   0  0  0  0  0  0  0  0  0  0  0  0
   -8.9553    2.2534   -8.8209 C   0  0  0  0  0  0  0  0  0  0  0  0
   -9.0623    2.8812   -7.5017 N   0  0  0  0  0  0  0  0  0  0  0  0
   -8.5211    4.2411   -7.6310 C   0  0  0  0  0  0  0  0  0  0  0  0
   -8.3680    4.4980   -9.0883 C   0  0  0  0  0  0  0  0  0  0  0  0
   -8.0428    5.6496   -9.7628 C   0  0  0  0  0  0  0  0  0  0  0  0
   -7.9313    5.5676  -11.1505 C   0  0  0  0  0  0  0  0  0  0  0  0
   -8.1371    4.3437  -11.7985 C   0  0  0  0  0  0  0  0  0  0  0  0
   -8.4659    3.2090  -11.1488 N   0  0  0  0  0  0  0  0  0  0  0  0
   -8.5818    3.3344   -9.8054 C   0  0  0  0  0  0  0  0  0  0  0  0
   -8.2706    0.5754   -7.9554 H   0  0  0  0  0  0  0  0  0  0  0  0
   -7.0980    1.7129   -8.2804 H   0  0  0  0  0  0  0  0  0  0  0  0
   -8.5222    2.3525   -6.8167 H   0  0  0  0  0  0  0  0  0  0  0  0
 20 19  1  0  0  0
 20 21  1  0  0  0
 21 22  1  0  0  0
 22 23  1  0  0  0
 23 24  2  0  0  0
 24 25  1  0  0  0
 25 26  2  0  0  0
 26  1  1  0  0  0
  1  2  1  0  0  0
  2  3  2  0  0  0
  2  5  1  0  0  0
  5  6  2  0  0  0
  6  7  1  0  0  0
  7  8  1  0  0  0
  7  9  2  0  0  0
  9 10  1  0  0  0
 10 11  2  0  0  0
 11 12  1  0  0  0
 12 13  1  0  0  0
 13 14  2  0  0  0
 13 15  1  0  0  0
 15 16  1  0  0  0
 26 27  1  0  0  0
 27 28  2  0  0  0
 28 20  1  0  0  0
 28 23  1  0  0  0
 11  5  1  0  0  0
 15 10  1  0  0  0
 19 29  1  0  0  0
 19 30  1  0  0  0
 21 31  1  0  0  0
  1  4  1  0  0  0
 16 17  1  0  0  0
 16 18  1  0  0  0
M  END
> <minimizedAffinity>
-9.88681

> <minimizedRMSD>
0.27870

$$$$
P22845


 29 32  0  0  0  0  0  0  0  0999 V2000
   -7.2069    4.9478  -13.9296 C   0  0  0  0  0  0  0  0  0  0  0  0
   -7.2404    6.3869  -13.9381 O   0  0  0  0  0  0  0  0  0  0  0  0
   -7.1640    6.7175  -13.0294 H   0  0  0  0  0  0  0  0  0  0  0  0
   -7.3394    4.6604  -15.4357 C   0  0  0  0  0  0  0  0  0  0  0  0
   -8.5746    4.2133  -15.9686 C   0  0  0  0  0  0  0  0  0  0  0  0
   -8.7982    4.0937  -17.3533 C   0  0  0  0  0  0  0  0  0  0  0  0
  -10.3606    3.6993  -17.9398 Cl  0  0  0  0  0  0  0  0  0  0  0  0
   -7.8048    4.3881  -18.2703 C   0  0  0  0  0  0  0  0  0  0  0  0
   -6.6144    4.8415  -17.7623 C   0  0  0  0  0  0  0  0  0  0  0  0
   -6.3607    4.9852  -16.3905 C   0  0  0  0  0  0  0  0  0  0  0  0
   -4.9627    5.5403  -16.2500 C   0  0  0  0  0  0  0  0  0  0  0  0
   -4.4880    5.6748  -17.7011 C   0  0  0  0  0  0  0  0  0  0  0  0
   -3.4014    6.0808  -18.0805 O   0  0  0  0  0  0  0  0  0  0  0  0
   -5.5237    5.2497  -18.5116 N   0  0  0  0  0  0  0  0  0  0  0  0
   -5.4903    5.2386  -19.4955 H   0  0  0  0  0  0  0  0  0  0  0  0
   -4.8819    4.1961  -12.8823 N   0  0  0  0  0  0  0  0  0  0  0  0
   -5.9158    4.4645  -13.3455 C   0  0  0  0  0  0  0  0  0  0  0  0
   -8.3814    4.5005  -13.1814 N   0  0  0  0  0  0  0  0  0  0  0  0
   -9.1807    4.1703  -13.6518 H   0  0  0  0  0  0  0  0  0  0  0  0
   -8.3461    4.5512  -11.7871 C   0  0  0  0  0  0  0  0  0  0  0  0
   -8.2228    5.7513  -11.0726 C   0  0  0  0  0  0  0  0  0  0  0  0
   -8.1894    5.7410   -9.6778 C   0  0  0  0  0  0  0  0  0  0  0  0
   -8.3429    4.5271   -9.0511 C   0  0  0  0  0  0  0  0  0  0  0  0
   -8.4992    3.3915   -9.8186 C   0  0  0  0  0  0  0  0  0  0  0  0
   -8.4822    3.3634  -11.1694 N   0  0  0  0  0  0  0  0  0  0  0  0
   -8.7096    2.2160   -8.9021 C   0  0  0  0  0  0  0  0  0  0  0  0
   -8.7839    2.7696   -7.5162 N   0  0  0  0  0  0  0  0  0  0  0  0
   -8.4084    4.1916   -7.6060 C   0  0  0  0  0  0  0  0  0  0  0  0
   -8.1362    2.2732   -6.9044 H   0  0  0  0  0  0  0  0  0  0  0  0
 16 17  3  0  0  0
 17  1  1  0  0  0
  1  2  1  0  0  0
  1 18  1  0  0  0
 18 20  1  0  0  0
 20 21  2  0  0  0
 21 22  1  0  0  0
 22 23  2  0  0  0
 23 24  1  0  0  0
 24 25  2  0  0  0
 24 26  1  0  0  0
 26 27  1  0  0  0
 27 28  1  0  0  0
  1  4  1  0  0  0
  4  5  2  0  0  0
  5  6  1  0  0  0
  6  7  1  0  0  0
  6  8  2  0  0  0
  8  9  1  0  0  0
  9 10  2  0  0  0
 10 11  1  0  0  0
 11 12  1  0  0  0
 12 13  2  0  0  0
 12 14  1  0  0  0
 25 20  1  0  0  0
 10  4  1  0  0  0
 28 23  1  0  0  0
 14  9  1  0  0  0
  2  3  1  0  0  0
 18 19  1  0  0  0
 27 29  1  0  0  0
 14 15  1  0  0  0
M  END
> <minimizedAffinity>
-8.26701

> <minimizedRMSD>
0.31683

$$$$
P22846


 25 28  0  0  0  0  0  0  0  0999 V2000
   -8.8240    4.9330  -14.4755 C   0  0  0  0  0  0  0  0  0  0  0  0
   -9.5611    5.8343  -14.3871 O   0  0  0  0  0  0  0  0  0  0  0  0
   -8.0981    4.1241  -13.3817 N   0  0  0  0  0  0  0  0  0  0  0  0
   -7.4623    3.4525  -13.7195 H   0  0  0  0  0  0  0  0  0  0  0  0
   -3.9383    6.0391  -16.7833 O   0  0  0  0  0  0  0  0  0  0  0  0
   -5.0820    5.6328  -16.8585 C   0  0  0  0  0  0  0  0  0  0  0  0
   -6.1161    5.5702  -15.7577 C   0  0  0  0  0  0  0  0  0  0  0  0
   -7.2678    4.8640  -16.4195 C   0  0  0  0  0  0  0  0  0  0  0  0
   -8.4753    4.4771  -15.8459 C   0  0  0  0  0  0  0  0  0  0  0  0
   -9.4045    3.7867  -16.6347 C   0  0  0  0  0  0  0  0  0  0  0  0
   -9.1324    3.5133  -17.9887 C   0  0  0  0  0  0  0  0  0  0  0  0
   -7.9311    3.9216  -18.5720 C   0  0  0  0  0  0  0  0  0  0  0  0
   -7.0208    4.5828  -17.7703 C   0  0  0  0  0  0  0  0  0  0  0  0
   -5.6920    5.0873  -18.1357 C   0  0  0  0  0  0  0  0  0  0  0  0
   -5.1412    5.1106  -19.2117 O   0  0  0  0  0  0  0  0  0  0  0  0
   -8.1946    4.1882  -12.0024 C   0  0  0  0  0  0  0  0  0  0  0  0
   -8.0702    5.4120  -11.3344 C   0  0  0  0  0  0  0  0  0  0  0  0
   -8.1570    5.4537   -9.9424 C   0  0  0  0  0  0  0  0  0  0  0  0
   -8.3674    4.2621   -9.2872 C   0  0  0  0  0  0  0  0  0  0  0  0
   -8.4687    3.0933  -10.0219 C   0  0  0  0  0  0  0  0  0  0  0  0
   -8.3954    3.0146  -11.3669 N   0  0  0  0  0  0  0  0  0  0  0  0
   -8.6562    1.9492   -9.0576 C   0  0  0  0  0  0  0  0  0  0  0  0
   -9.0284    2.5834   -7.7562 N   0  0  0  0  0  0  0  0  0  0  0  0
   -8.4991    3.9601   -7.8360 C   0  0  0  0  0  0  0  0  0  0  0  0
   -8.6028    2.0803   -6.9777 H   0  0  0  0  0  0  0  0  0  0  0  0
  5  6  2  0  0  0
  6  7  1  0  0  0
  7  8  1  0  0  0
  8  9  2  0  0  0
  9  1  1  0  0  0
  1  2  2  0  0  0
  1  3  1  0  0  0
  3 16  1  0  0  0
 16 17  2  0  0  0
 17 18  1  0  0  0
 18 19  2  0  0  0
 19 20  1  0  0  0
 20 21  2  0  0  0
 20 22  1  0  0  0
 22 23  1  0  0  0
 23 24  1  0  0  0
  9 10  1  0  0  0
 10 11  2  0  0  0
 11 12  1  0  0  0
 12 13  2  0  0  0
 13 14  1  0  0  0
 14 15  2  0  0  0
 14  6  1  0  0  0
 13  8  1  0  0  0
 21 16  1  0  0  0
 24 19  1  0  0  0
  3  4  1  0  0  0
 23 25  1  0  0  0
M  END
> <minimizedAffinity>
-9.33869

> <minimizedRMSD>
0.87490

$$$$
P22848


 28 31  0  0  0  0  0  0  0  0999 V2000
   -7.8701    4.2735  -17.9385 C   0  0  0  0  0  0  0  0  0  0  0  0
   -9.0238    4.1864  -17.1559 C   0  0  0  0  0  0  0  0  0  0  0  0
  -10.5368    3.7552  -17.8610 Cl  0  0  0  0  0  0  0  0  0  0  0  0
   -8.9992    4.5210  -15.7905 C   0  0  0  0  0  0  0  0  0  0  0  0
   -7.8221    4.9982  -15.2031 C   0  0  0  0  0  0  0  0  0  0  0  0
   -6.6984    5.1560  -15.9993 C   0  0  0  0  0  0  0  0  0  0  0  0
   -6.7353    4.7929  -17.3448 C   0  0  0  0  0  0  0  0  0  0  0  0
   -5.4856    5.0112  -17.9171 N   0  0  0  0  0  0  0  0  0  0  0  0
   -4.5776    5.4938  -16.9856 C   0  0  0  0  0  0  0  0  0  0  0  0
   -3.4033    5.7439  -17.2012 O   0  0  0  0  0  0  0  0  0  0  0  0
   -5.3223    5.6468  -15.6538 C   0  0  0  0  0  0  0  0  0  0  0  0
   -5.2726    4.8441  -18.8636 H   0  0  0  0  0  0  0  0  0  0  0  0
   -7.8208    5.4532  -13.7948 C   0  0  0  0  0  0  0  0  0  0  0  0
   -7.5563    6.5701  -13.5840 O   0  0  0  0  0  0  0  0  0  0  0  0
   -8.2297    4.3229  -12.8285 N   0  0  0  0  0  0  0  0  0  0  0  0
   -8.4782    3.4766  -13.2659 H   0  0  0  0  0  0  0  0  0  0  0  0
   -8.3041    4.3044  -11.4483 C   0  0  0  0  0  0  0  0  0  0  0  0
   -8.1322    5.4764  -10.7069 C   0  0  0  0  0  0  0  0  0  0  0  0
   -8.2143    5.4272   -9.3156 C   0  0  0  0  0  0  0  0  0  0  0  0
   -8.4673    4.2030   -8.7370 C   0  0  0  0  0  0  0  0  0  0  0  0
   -8.6259    3.0932   -9.5448 C   0  0  0  0  0  0  0  0  0  0  0  0
   -8.5476    3.0999  -10.8913 N   0  0  0  0  0  0  0  0  0  0  0  0
   -8.8518    1.8896   -8.6710 C   0  0  0  0  0  0  0  0  0  0  0  0
   -8.9995    2.4038   -7.2780 N   0  0  0  0  0  0  0  0  0  0  0  0
   -8.5962    3.8226   -7.3062 C   0  0  0  0  0  0  0  0  0  0  0  0
   -8.3969    1.8794   -6.6437 H   0  0  0  0  0  0  0  0  0  0  0  0
   -7.6890    3.1543  -20.2521 N   0  0  0  0  0  0  0  0  0  0  0  0
   -7.8259    3.7179  -19.2468 C   0  0  0  0  0  0  0  0  0  0  0  0
 27 28  3  0  0  0
 28  1  1  0  0  0
  1  2  2  0  0  0
  2  3  1  0  0  0
  2  4  1  0  0  0
  4  5  2  0  0  0
  5 13  1  0  0  0
 13 14  2  0  0  0
 13 15  1  0  0  0
 15 17  1  0  0  0
 17 18  2  0  0  0
 18 19  1  0  0  0
 19 20  2  0  0  0
 20 21  1  0  0  0
 21 22  2  0  0  0
 21 23  1  0  0  0
 23 24  1  0  0  0
 24 25  1  0  0  0
  5  6  1  0  0  0
  6  7  2  0  0  0
  7  8  1  0  0  0
  8  9  1  0  0  0
  9 10  2  0  0  0
  9 11  1  0  0  0
  7  1  1  0  0  0
 22 17  1  0  0  0
 11  6  1  0  0  0
 25 20  1  0  0  0
 15 16  1  0  0  0
 24 26  1  0  0  0
  8 12  1  0  0  0
M  END
> <minimizedAffinity>
-7.89485

> <minimizedRMSD>
0.37834

$$$$
P22849


 26 29  0  0  0  0  0  0  0  0999 V2000
   -8.7649    4.8444  -14.4088 C   0  0  0  0  0  0  0  0  0  0  0  0
   -9.5416    5.7112  -14.3260 O   0  0  0  0  0  0  0  0  0  0  0  0
   -8.0965    3.9962  -13.3136 N   0  0  0  0  0  0  0  0  0  0  0  0
   -7.5267    3.2663  -13.6481 H   0  0  0  0  0  0  0  0  0  0  0  0
   -4.8454    5.0377  -19.0592 C   0  0  0  0  0  0  0  0  0  0  0  0
   -5.7393    5.6892  -18.0766 N   0  0  0  0  0  0  0  0  0  0  0  0
   -6.1515    6.9336  -18.5043 O   0  0  0  0  0  0  0  0  0  0  0  0
   -5.0810    5.8132  -16.7259 C   0  0  0  0  0  0  0  0  0  0  0  0
   -3.8696    5.9265  -16.6000 O   0  0  0  0  0  0  0  0  0  0  0  0
   -6.0899    5.6728  -15.6123 C   0  0  0  0  0  0  0  0  0  0  0  0
   -7.1967    4.9584  -16.3228 C   0  0  0  0  0  0  0  0  0  0  0  0
   -8.3629    4.4383  -15.7803 C   0  0  0  0  0  0  0  0  0  0  0  0
   -9.2217    3.7281  -16.6208 C   0  0  0  0  0  0  0  0  0  0  0  0
   -8.9261    3.5788  -17.9861 C   0  0  0  0  0  0  0  0  0  0  0  0
   -7.7919    4.1778  -18.5393 C   0  0  0  0  0  0  0  0  0  0  0  0
   -6.9368    4.8797  -17.7011 C   0  0  0  0  0  0  0  0  0  0  0  0
   -8.1652    4.0914  -11.9375 C   0  0  0  0  0  0  0  0  0  0  0  0
   -8.0262    5.3384  -11.3138 C   0  0  0  0  0  0  0  0  0  0  0  0
   -8.1284    5.4340   -9.9279 C   0  0  0  0  0  0  0  0  0  0  0  0
   -8.3690    4.2701   -9.2369 C   0  0  0  0  0  0  0  0  0  0  0  0
   -8.4655    3.0742   -9.9302 C   0  0  0  0  0  0  0  0  0  0  0  0
   -8.3767    2.9419  -11.2685 N   0  0  0  0  0  0  0  0  0  0  0  0
   -8.6816    1.9712   -8.9279 C   0  0  0  0  0  0  0  0  0  0  0  0
   -9.1058    2.6590   -7.6713 N   0  0  0  0  0  0  0  0  0  0  0  0
   -8.5584    4.0272   -7.7817 C   0  0  0  0  0  0  0  0  0  0  0  0
   -8.7211    2.1837   -6.8549 H   0  0  0  0  0  0  0  0  0  0  0  0
  6  5  1  0  0  0
  6  7  1  0  0  0
  6  8  1  0  0  0
  8  9  2  0  0  0
  8 10  1  0  0  0
 10 11  1  0  0  0
 11 12  2  0  0  0
 12  1  1  0  0  0
  1  2  2  0  0  0
  1  3  1  0  0  0
  3 17  1  0  0  0
 17 18  2  0  0  0
 18 19  1  0  0  0
 19 20  2  0  0  0
 20 21  1  0  0  0
 21 22  2  0  0  0
 21 23  1  0  0  0
 23 24  1  0  0  0
 24 25  1  0  0  0
 12 13  1  0  0  0
 13 14  2  0  0  0
 14 15  1  0  0  0
 15 16  2  0  0  0
 16  6  1  0  0  0
 16 11  1  0  0  0
 22 17  1  0  0  0
 25 20  1  0  0  0
  3  4  1  0  0  0
 24 26  1  0  0  0
M  CHG 1   6   1
M  CHG 1   7  -1
M  END
> <minimizedAffinity>
-9.71387

> <minimizedRMSD>
0.83659

$$$$
P22850


 26 29  0  0  0  0  0  0  0  0999 V2000
   -7.4000    5.2275  -14.1698 C   0  0  0  0  0  0  0  0  0  0  0  0
   -6.9352    6.2802  -13.9701 O   0  0  0  0  0  0  0  0  0  0  0  0
   -8.0331    4.2119  -13.1952 N   0  0  0  0  0  0  0  0  0  0  0  0
   -8.4266    3.4184  -13.6250 H   0  0  0  0  0  0  0  0  0  0  0  0
   -3.3629    5.7402  -18.0327 O   0  0  0  0  0  0  0  0  0  0  0  0
   -4.4959    5.4537  -17.6868 C   0  0  0  0  0  0  0  0  0  0  0  0
   -5.0713    5.4993  -16.2625 C   0  0  0  0  0  0  0  0  0  0  0  0
   -6.4686    4.9982  -16.4746 C   0  0  0  0  0  0  0  0  0  0  0  0
   -6.6538    4.7437  -17.8319 C   0  0  0  0  0  0  0  0  0  0  0  0
   -7.8384    4.3027  -18.3607 C   0  0  0  0  0  0  0  0  0  0  0  0
   -8.8881    4.1268  -17.4698 C   0  0  0  0  0  0  0  0  0  0  0  0
  -10.5930    3.7951  -18.1848 Br  0  0  0  0  0  0  0  0  0  0  0  0
   -8.7329    4.3351  -16.0883 C   0  0  0  0  0  0  0  0  0  0  0  0
   -7.5071    4.7862  -15.5824 C   0  0  0  0  0  0  0  0  0  0  0  0
   -5.5006    5.0277  -18.5361 N   0  0  0  0  0  0  0  0  0  0  0  0
   -5.4063    4.9389  -19.5121 H   0  0  0  0  0  0  0  0  0  0  0  0
   -8.1379    4.2350  -11.8153 C   0  0  0  0  0  0  0  0  0  0  0  0
   -8.0622    5.4449  -11.1165 C   0  0  0  0  0  0  0  0  0  0  0  0
   -8.2098    5.4527   -9.7291 C   0  0  0  0  0  0  0  0  0  0  0  0
   -8.4222    4.2423   -9.1096 C   0  0  0  0  0  0  0  0  0  0  0  0
   -8.4613    3.0880   -9.8729 C   0  0  0  0  0  0  0  0  0  0  0  0
   -8.3368    3.0425  -11.2152 N   0  0  0  0  0  0  0  0  0  0  0  0
   -8.6524    1.9175   -8.9419 C   0  0  0  0  0  0  0  0  0  0  0  0
   -9.1044    2.5107   -7.6467 N   0  0  0  0  0  0  0  0  0  0  0  0
   -8.6165    3.9052   -7.6733 C   0  0  0  0  0  0  0  0  0  0  0  0
   -8.6989    2.0041   -6.8597 H   0  0  0  0  0  0  0  0  0  0  0  0
  5  6  2  0  0  0
  6  7  1  0  0  0
  7  8  1  0  0  0
  8  9  2  0  0  0
  9 10  1  0  0  0
 10 11  2  0  0  0
 11 12  1  0  0  0
 11 13  1  0  0  0
 13 14  2  0  0  0
 14  1  1  0  0  0
  1  2  2  0  0  0
  1  3  1  0  0  0
  3 17  1  0  0  0
 17 18  2  0  0  0
 18 19  1  0  0  0
 19 20  2  0  0  0
 20 21  1  0  0  0
 21 22  2  0  0  0
 21 23  1  0  0  0
 23 24  1  0  0  0
 24 25  1  0  0  0
  9 15  1  0  0  0
 15  6  1  0  0  0
 14  8  1  0  0  0
 22 17  1  0  0  0
 25 20  1  0  0  0
  3  4  1  0  0  0
 24 26  1  0  0  0
 15 16  1  0  0  0
M  END
> <minimizedAffinity>
-8.33936

> <minimizedRMSD>
0.23883

$$$$
P22851


 28 31  0  0  0  0  0  0  0  0999 V2000
   -5.3089    6.7156  -16.6229 N   0  0  0  0  0  0  0  0  0  0  0  0
   -5.4456    5.3178  -17.0367 C   0  0  0  0  0  0  0  0  0  0  0  0
   -5.1117    5.2093  -18.5630 C   0  0  0  0  0  0  0  0  0  0  0  0
   -4.0725    5.5398  -19.1134 O   0  0  0  0  0  0  0  0  0  0  0  0
   -6.2325    4.7110  -19.2017 N   0  0  0  0  0  0  0  0  0  0  0  0
   -7.2296    4.4096  -18.2899 C   0  0  0  0  0  0  0  0  0  0  0  0
   -8.4375    3.8165  -18.5935 C   0  0  0  0  0  0  0  0  0  0  0  0
   -9.2954    3.5376  -17.5367 C   0  0  0  0  0  0  0  0  0  0  0  0
   -8.9333    3.8795  -16.2236 C   0  0  0  0  0  0  0  0  0  0  0  0
   -7.7113    4.5144  -15.9425 C   0  0  0  0  0  0  0  0  0  0  0  0
   -6.8442    4.7701  -16.9929 C   0  0  0  0  0  0  0  0  0  0  0  0
   -4.3298    6.9946  -16.6860 H   0  0  0  0  0  0  0  0  0  0  0  0
   -5.6303    6.8182  -15.6603 H   0  0  0  0  0  0  0  0  0  0  0  0
   -6.3109    4.5871  -20.1752 H   0  0  0  0  0  0  0  0  0  0  0  0
   -7.5020    5.0293  -14.5655 C   0  0  0  0  0  0  0  0  0  0  0  0
   -6.9863    6.0691  -14.4429 O   0  0  0  0  0  0  0  0  0  0  0  0
   -8.1240    4.0899  -13.5097 N   0  0  0  0  0  0  0  0  0  0  0  0
   -8.5706    3.2938  -13.8785 H   0  0  0  0  0  0  0  0  0  0  0  0
   -8.1559    4.1847  -12.1299 C   0  0  0  0  0  0  0  0  0  0  0  0
   -8.0912    5.4314  -11.4977 C   0  0  0  0  0  0  0  0  0  0  0  0
   -8.1922    5.5093  -10.1082 C   0  0  0  0  0  0  0  0  0  0  0  0
   -8.3569    4.3293   -9.4198 C   0  0  0  0  0  0  0  0  0  0  0  0
   -8.3882    3.1354  -10.1194 C   0  0  0  0  0  0  0  0  0  0  0  0
   -8.2957    3.0205  -11.4600 N   0  0  0  0  0  0  0  0  0  0  0  0
   -8.5454    2.0130   -9.1253 C   0  0  0  0  0  0  0  0  0  0  0  0
   -8.9740    2.6676   -7.8512 N   0  0  0  0  0  0  0  0  0  0  0  0
   -8.5075    4.0654   -7.9635 C   0  0  0  0  0  0  0  0  0  0  0  0
   -8.5417    2.2087   -7.0494 H   0  0  0  0  0  0  0  0  0  0  0  0
  2  1  1  0  0  0
  2  3  1  0  0  0
  3  4  2  0  0  0
  3  5  1  0  0  0
  5  6  1  0  0  0
  6  7  2  0  0  0
  7  8  1  0  0  0
  8  9  2  0  0  0
  9 10  1  0  0  0
 10 15  1  0  0  0
 15 16  2  0  0  0
 15 17  1  0  0  0
 17 19  1  0  0  0
 19 20  2  0  0  0
 20 21  1  0  0  0
 21 22  2  0  0  0
 22 23  1  0  0  0
 23 24  2  0  0  0
 23 25  1  0  0  0
 25 26  1  0  0  0
 26 27  1  0  0  0
 10 11  2  0  0  0
 11  2  1  0  0  0
 11  6  1  0  0  0
 24 19  1  0  0  0
 27 22  1  0  0  0
  1 12  1  0  0  0
  1 13  1  0  0  0
  5 14  1  0  0  0
 17 18  1  0  0  0
 26 28  1  0  0  0
M  END
> <minimizedAffinity>
-9.02417

> <minimizedRMSD>
0.74860

$$$$
P22853


 27 30  0  0  0  0  0  0  0  0999 V2000
   -8.5930    5.1362  -13.7880 C   0  0  0  0  0  0  0  0  0  0  0  0
   -9.3940    5.9827  -13.7222 O   0  0  0  0  0  0  0  0  0  0  0  0
   -7.9170    4.3125  -12.6761 N   0  0  0  0  0  0  0  0  0  0  0  0
   -7.2095    3.7028  -12.9873 H   0  0  0  0  0  0  0  0  0  0  0  0
   -8.2960    4.2030  -17.4700 C   0  0  0  0  0  0  0  0  0  0  0  0
   -8.8248    4.3227  -16.1610 C   0  0  0  0  0  0  0  0  0  0  0  0
   -8.0368    4.8334  -15.1255 C   0  0  0  0  0  0  0  0  0  0  0  0
   -6.7231    5.1781  -15.3981 C   0  0  0  0  0  0  0  0  0  0  0  0
   -6.2037    5.0552  -16.6826 C   0  0  0  0  0  0  0  0  0  0  0  0
   -6.9714    4.5897  -17.7315 C   0  0  0  0  0  0  0  0  0  0  0  0
   -4.8663    5.4597  -16.6747 N   0  0  0  0  0  0  0  0  0  0  0  0
   -3.9677    5.3612  -17.7855 C   0  0  0  0  0  0  0  0  0  0  0  0
   -4.4508    5.8111  -15.3902 C   0  0  0  0  0  0  0  0  0  0  0  0
   -3.3322    6.1626  -15.0463 O   0  0  0  0  0  0  0  0  0  0  0  0
   -5.6627    5.6877  -14.4716 C   0  0  0  0  0  0  0  0  0  0  0  0
  -10.6136    3.8865  -18.4319 C   0  0  0  0  0  0  0  0  0  0  0  0
   -9.1303    3.6223  -18.5823 C   0  0  0  0  0  0  0  0  0  0  0  0
   -8.1419    4.2895  -11.3114 C   0  0  0  0  0  0  0  0  0  0  0  0
   -7.9788    5.4534  -10.5495 C   0  0  0  0  0  0  0  0  0  0  0  0
   -8.1552    5.4082   -9.1675 C   0  0  0  0  0  0  0  0  0  0  0  0
   -8.5081    4.1979   -8.6183 C   0  0  0  0  0  0  0  0  0  0  0  0
   -8.6541    3.0946   -9.4425 C   0  0  0  0  0  0  0  0  0  0  0  0
   -8.4765    3.0956  -10.7800 N   0  0  0  0  0  0  0  0  0  0  0  0
   -9.0390    1.9170   -8.5835 C   0  0  0  0  0  0  0  0  0  0  0  0
   -9.4434    2.4984   -7.2670 N   0  0  0  0  0  0  0  0  0  0  0  0
   -8.7733    3.8129   -7.2061 C   0  0  0  0  0  0  0  0  0  0  0  0
   -9.1317    1.9015   -6.5009 H   0  0  0  0  0  0  0  0  0  0  0  0
 16 17  1  0  0  0
 17  5  1  0  0  0
  5  6  2  0  0  0
  6  7  1  0  0  0
  7  1  1  0  0  0
  1  2  2  0  0  0
  1  3  1  0  0  0
  3 18  1  0  0  0
 18 19  2  0  0  0
 19 20  1  0  0  0
 20 21  2  0  0  0
 21 22  1  0  0  0
 22 23  2  0  0  0
 22 24  1  0  0  0
 24 25  1  0  0  0
 25 26  1  0  0  0
  7  8  2  0  0  0
  8  9  1  0  0  0
  9 10  2  0  0  0
  9 11  1  0  0  0
 11 12  1  0  0  0
 11 13  1  0  0  0
 13 14  2  0  0  0
 13 15  1  0  0  0
 10  5  1  0  0  0
 23 18  1  0  0  0
 15  8  1  0  0  0
 26 21  1  0  0  0
  3  4  1  0  0  0
 25 27  1  0  0  0
M  END
> <minimizedAffinity>
-8.98872

> <minimizedRMSD>
0.83494

$$$$
P22855


 28 31  0  0  0  0  0  0  0  0999 V2000
   -8.2967    4.3588  -13.5214 N   0  0  0  0  0  0  0  0  0  0  0  0
   -7.3720    4.9467  -14.6116 C   0  0  0  0  0  0  0  0  0  0  0  0
   -6.5134    5.7336  -14.5317 O   0  0  0  0  0  0  0  0  0  0  0  0
   -9.0013    3.7593  -13.8581 H   0  0  0  0  0  0  0  0  0  0  0  0
   -7.7171    4.4830  -15.9898 C   0  0  0  0  0  0  0  0  0  0  0  0
   -8.9772    3.9529  -16.2976 C   0  0  0  0  0  0  0  0  0  0  0  0
   -9.3298    3.6793  -17.6307 C   0  0  0  0  0  0  0  0  0  0  0  0
  -10.5556    3.2108  -17.9014 F   0  0  0  0  0  0  0  0  0  0  0  0
   -8.4588    3.9182  -18.6849 C   0  0  0  0  0  0  0  0  0  0  0  0
   -7.2266    4.4333  -18.3600 C   0  0  0  0  0  0  0  0  0  0  0  0
   -6.8443    4.7188  -17.0479 C   0  0  0  0  0  0  0  0  0  0  0  0
   -5.4447    5.2673  -17.0622 C   0  0  0  0  0  0  0  0  0  0  0  0
   -5.0808    5.2050  -18.5531 C   0  0  0  0  0  0  0  0  0  0  0  0
   -4.0110    5.5083  -19.0576 O   0  0  0  0  0  0  0  0  0  0  0  0
   -6.1971    4.7407  -19.2349 N   0  0  0  0  0  0  0  0  0  0  0  0
   -6.2505    4.6425  -20.2130 H   0  0  0  0  0  0  0  0  0  0  0  0
   -8.2800    5.7806  -11.4732 C   0  0  0  0  0  0  0  0  0  0  0  0
   -8.2784    5.8110  -10.0672 C   0  0  0  0  0  0  0  0  0  0  0  0
   -8.3301    4.6182   -9.3912 C   0  0  0  0  0  0  0  0  0  0  0  0
   -8.3518    3.4428  -10.1116 C   0  0  0  0  0  0  0  0  0  0  0  0
   -8.3457    3.3623  -11.4596 N   0  0  0  0  0  0  0  0  0  0  0  0
   -8.2954    4.5393  -12.1370 C   0  0  0  0  0  0  0  0  0  0  0  0
   -8.3983    2.3009   -9.1284 C   0  0  0  0  0  0  0  0  0  0  0  0
   -8.7929    2.9157   -7.8259 N   0  0  0  0  0  0  0  0  0  0  0  0
   -8.4042    4.3340   -7.9335 C   0  0  0  0  0  0  0  0  0  0  0  0
   -8.2987    2.4671   -7.0545 H   0  0  0  0  0  0  0  0  0  0  0  0
   -8.6412    8.0328  -12.6856 N   0  0  0  0  0  0  0  0  0  0  0  0
   -8.4172    7.0534  -12.1011 C   0  0  0  0  0  0  0  0  0  0  0  0
 27 28  3  0  0  0
 28 17  1  0  0  0
 17 18  2  0  0  0
 18 19  1  0  0  0
 19 20  2  0  0  0
 20 21  1  0  0  0
 21 22  2  0  0  0
 22  1  1  0  0  0
  1  2  1  0  0  0
  2  3  2  0  0  0
  2  5  1  0  0  0
  5  6  2  0  0  0
  6  7  1  0  0  0
  7  8  1  0  0  0
  7  9  2  0  0  0
  9 10  1  0  0  0
 10 11  2  0  0  0
 11 12  1  0  0  0
 12 13  1  0  0  0
 13 14  2  0  0  0
 13 15  1  0  0  0
 20 23  1  0  0  0
 23 24  1  0  0  0
 24 25  1  0  0  0
 22 17  1  0  0  0
 11  5  1  0  0  0
 25 19  1  0  0  0
 15 10  1  0  0  0
  1  4  1  0  0  0
 15 16  1  0  0  0
 24 26  1  0  0  0
M  END
> <minimizedAffinity>
-9.08694

> <minimizedRMSD>
0.94770

$$$$
P22857


 26 29  0  0  0  0  0  0  0  0999 V2000
   -7.6245    5.0023  -14.4622 C   0  0  0  0  0  0  0  0  0  0  0  0
   -7.0636    6.0202  -14.3425 O   0  0  0  0  0  0  0  0  0  0  0  0
   -8.2645    4.0811  -13.4008 N   0  0  0  0  0  0  0  0  0  0  0  0
   -8.7501    3.3067  -13.7664 H   0  0  0  0  0  0  0  0  0  0  0  0
   -3.9269    5.7127  -18.5727 O   0  0  0  0  0  0  0  0  0  0  0  0
   -5.0266    5.3642  -18.1734 C   0  0  0  0  0  0  0  0  0  0  0  0
   -5.5207    5.4140  -16.7227 C   0  0  0  0  0  0  0  0  0  0  0  0
   -6.8785    4.7890  -16.8294 C   0  0  0  0  0  0  0  0  0  0  0  0
   -7.1374    4.4842  -18.1654 C   0  0  0  0  0  0  0  0  0  0  0  0
   -8.3088    3.9002  -18.5847 C   0  0  0  0  0  0  0  0  0  0  0  0
   -9.2410    3.6055  -17.6004 C   0  0  0  0  0  0  0  0  0  0  0  0
  -10.4149    3.0751  -17.9638 F   0  0  0  0  0  0  0  0  0  0  0  0
   -9.0036    3.8859  -16.2454 C   0  0  0  0  0  0  0  0  0  0  0  0
   -7.8143    4.5015  -15.8486 C   0  0  0  0  0  0  0  0  0  0  0  0
   -6.0576    4.8532  -18.9512 N   0  0  0  0  0  0  0  0  0  0  0  0
   -6.0254    4.7648  -19.9312 H   0  0  0  0  0  0  0  0  0  0  0  0
   -8.2667    4.1670  -12.0177 C   0  0  0  0  0  0  0  0  0  0  0  0
   -8.0989    5.4054  -11.3866 C   0  0  0  0  0  0  0  0  0  0  0  0
   -8.1460    5.4874   -9.9945 C   0  0  0  0  0  0  0  0  0  0  0  0
   -8.3535    4.3180   -9.3006 C   0  0  0  0  0  0  0  0  0  0  0  0
   -8.4748    3.1281   -9.9986 C   0  0  0  0  0  0  0  0  0  0  0  0
   -8.4533    3.0120  -11.3429 N   0  0  0  0  0  0  0  0  0  0  0  0
   -8.6173    2.0145   -8.9912 C   0  0  0  0  0  0  0  0  0  0  0  0
   -9.0068    2.6893   -7.7146 N   0  0  0  0  0  0  0  0  0  0  0  0
   -8.4698    4.0613   -7.8392 C   0  0  0  0  0  0  0  0  0  0  0  0
   -8.5927    2.2118   -6.9140 H   0  0  0  0  0  0  0  0  0  0  0  0
  5  6  2  0  0  0
  6  7  1  0  0  0
  7  8  1  0  0  0
  8  9  2  0  0  0
  9 10  1  0  0  0
 10 11  2  0  0  0
 11 12  1  0  0  0
 11 13  1  0  0  0
 13 14  2  0  0  0
 14  1  1  0  0  0
  1  2  2  0  0  0
  1  3  1  0  0  0
  3 17  1  0  0  0
 17 18  2  0  0  0
 18 19  1  0  0  0
 19 20  2  0  0  0
 20 21  1  0  0  0
 21 22  2  0  0  0
 21 23  1  0  0  0
 23 24  1  0  0  0
 24 25  1  0  0  0
  9 15  1  0  0  0
 15  6  1  0  0  0
 14  8  1  0  0  0
 22 17  1  0  0  0
 25 20  1  0  0  0
  3  4  1  0  0  0
 24 26  1  0  0  0
 15 16  1  0  0  0
M  END
> <minimizedAffinity>
-9.25468

> <minimizedRMSD>
0.48665

$$$$
P22859


 30 34  0  0  0  0  0  0  0  0999 V2000
   -2.0710    7.6911  -19.4159 C   0  0  0  0  0  0  0  0  0  0  0  0
   -3.0396    7.3177  -18.3847 N   0  0  0  0  0  0  0  0  0  0  0  0
   -2.8955    5.8947  -18.0417 C   0  0  0  0  0  0  0  0  0  0  0  0
   -3.8569    5.4962  -16.9226 C   0  0  0  0  0  0  0  0  0  0  0  0
   -5.3118    5.7975  -17.2857 C   0  0  0  0  0  0  0  0  0  0  0  0
   -5.4361    7.2522  -17.7715 C   0  0  0  0  0  0  0  0  0  0  0  0
   -4.4056    7.5963  -18.8474 C   0  0  0  0  0  0  0  0  0  0  0  0
   -6.2055    5.5419  -16.0343 C   0  0  0  0  0  0  0  0  0  0  0  0
   -7.3664    4.8231  -16.6273 C   0  0  0  0  0  0  0  0  0  0  0  0
   -7.0893    4.5079  -17.9510 C   0  0  0  0  0  0  0  0  0  0  0  0
   -8.0017    3.8059  -18.7172 C   0  0  0  0  0  0  0  0  0  0  0  0
   -9.2097    3.4133  -18.1318 C   0  0  0  0  0  0  0  0  0  0  0  0
   -9.4844    3.7188  -16.7893 C   0  0  0  0  0  0  0  0  0  0  0  0
   -8.5595    4.4413  -16.0328 C   0  0  0  0  0  0  0  0  0  0  0  0
   -5.7804    4.8617  -18.3384 N   0  0  0  0  0  0  0  0  0  0  0  0
   -5.2859    4.5553  -19.1326 H   0  0  0  0  0  0  0  0  0  0  0  0
   -8.8678    4.9010  -14.6589 C   0  0  0  0  0  0  0  0  0  0  0  0
   -9.5416    5.8470  -14.5405 O   0  0  0  0  0  0  0  0  0  0  0  0
   -8.1865    4.0202  -13.5941 N   0  0  0  0  0  0  0  0  0  0  0  0
   -7.7278    3.2248  -13.9494 H   0  0  0  0  0  0  0  0  0  0  0  0
   -8.1141    4.1648  -12.2208 C   0  0  0  0  0  0  0  0  0  0  0  0
   -7.7004    5.3793  -11.6593 C   0  0  0  0  0  0  0  0  0  0  0  0
   -7.6354    5.5161  -10.2736 C   0  0  0  0  0  0  0  0  0  0  0  0
   -8.0081    4.4294   -9.5174 C   0  0  0  0  0  0  0  0  0  0  0  0
   -8.3910    3.2591  -10.1514 C   0  0  0  0  0  0  0  0  0  0  0  0
   -8.4514    3.0843  -11.4867 N   0  0  0  0  0  0  0  0  0  0  0  0
   -8.7359    2.2441   -9.0921 C   0  0  0  0  0  0  0  0  0  0  0  0
   -8.8830    3.0273   -7.8267 N   0  0  0  0  0  0  0  0  0  0  0  0
   -8.0891    4.2543   -8.0427 C   0  0  0  0  0  0  0  0  0  0  0  0
   -8.5186    2.4993   -7.0338 H   0  0  0  0  0  0  0  0  0  0  0  0
  1  2  1  0  0  0
  2  3  1  0  0  0
  3  4  1  0  0  0
  4  5  1  0  0  0
  5  6  1  0  0  0
  6  7  1  0  0  0
  5  8  1  0  0  0
  8  9  1  0  0  0
  9 10  2  0  0  0
 10 11  1  0  0  0
 11 12  2  0  0  0
 12 13  1  0  0  0
 13 14  2  0  0  0
 14 17  1  0  0  0
 17 18  2  0  0  0
 17 19  1  0  0  0
 19 21  1  0  0  0
 21 22  2  0  0  0
 22 23  1  0  0  0
 23 24  2  0  0  0
 24 25  1  0  0  0
 25 26  2  0  0  0
 25 27  1  0  0  0
 27 28  1  0  0  0
 28 29  1  0  0  0
 10 15  1  0  0  0
  7  2  1  0  0  0
 14  9  1  0  0  0
 26 21  1  0  0  0
 15  5  1  0  0  0
 29 24  1  0  0  0
 19 20  1  0  0  0
 28 30  1  0  0  0
 15 16  1  0  0  0
M  END
> <minimizedAffinity>
-9.70456

> <minimizedRMSD>
1.04232

$$$$
P22860


 29 32  0  0  0  0  0  0  0  0999 V2000
   -5.3161    5.1544  -17.6153 N   0  0  0  0  0  0  0  0  0  0  0  0
   -4.6412    5.5882  -16.4720 C   0  0  0  0  0  0  0  0  0  0  0  0
   -3.5006    6.0272  -16.4188 O   0  0  0  0  0  0  0  0  0  0  0  0
   -5.5776    5.4523  -15.2785 C   0  0  0  0  0  0  0  0  0  0  0  0
   -6.8340    4.9514  -15.9118 C   0  0  0  0  0  0  0  0  0  0  0  0
   -8.0706    4.7083  -15.3327 C   0  0  0  0  0  0  0  0  0  0  0  0
   -9.1054    4.2484  -16.1458 C   0  0  0  0  0  0  0  0  0  0  0  0
   -8.8924    4.0960  -17.5240 C   0  0  0  0  0  0  0  0  0  0  0  0
  -10.2131    3.7173  -18.5500 Cl  0  0  0  0  0  0  0  0  0  0  0  0
   -7.6528    4.3583  -18.1067 C   0  0  0  0  0  0  0  0  0  0  0  0
   -6.6321    4.7827  -17.2814 C   0  0  0  0  0  0  0  0  0  0  0  0
   -8.3419    5.1739  -13.9525 C   0  0  0  0  0  0  0  0  0  0  0  0
   -8.6812    6.2835  -13.8272 O   0  0  0  0  0  0  0  0  0  0  0  0
   -8.1498    4.0639  -12.9027 N   0  0  0  0  0  0  0  0  0  0  0  0
   -7.9274    3.1797  -13.2740 H   0  0  0  0  0  0  0  0  0  0  0  0
   -8.2387    4.1067  -11.5228 C   0  0  0  0  0  0  0  0  0  0  0  0
   -8.0190    5.3084  -10.8387 C   0  0  0  0  0  0  0  0  0  0  0  0
   -8.1097    5.3397   -9.4477 C   0  0  0  0  0  0  0  0  0  0  0  0
   -8.4191    4.1609   -8.8088 C   0  0  0  0  0  0  0  0  0  0  0  0
   -8.6152    3.0160   -9.5599 C   0  0  0  0  0  0  0  0  0  0  0  0
   -8.5330    2.9455  -10.9049 N   0  0  0  0  0  0  0  0  0  0  0  0
   -8.8768    1.8715   -8.6187 C   0  0  0  0  0  0  0  0  0  0  0  0
   -9.1011    2.4848   -7.2750 N   0  0  0  0  0  0  0  0  0  0  0  0
   -8.5709    3.8591   -7.3608 C   0  0  0  0  0  0  0  0  0  0  0  0
   -8.6038    1.9574   -6.5573 H   0  0  0  0  0  0  0  0  0  0  0  0
   -4.9282    5.4873  -18.9707 C   0  0  0  0  0  0  0  0  0  0  0  0
   -2.7793    5.5634  -20.0276 C   0  0  0  0  0  0  0  0  0  0  0  0
   -3.7705    4.7035  -19.3994 N   0  0  0  0  0  0  0  0  0  0  0  0
   -3.3539    4.2481  -18.5873 H   0  0  0  0  0  0  0  0  0  0  0  0
 27 28  1  0  0  0
 28 26  1  0  0  0
 26  1  1  0  0  0
  1  2  1  0  0  0
  2  3  2  0  0  0
  2  4  1  0  0  0
  4  5  1  0  0  0
  5  6  2  0  0  0
  6 12  1  0  0  0
 12 13  2  0  0  0
 12 14  1  0  0  0
 14 16  1  0  0  0
 16 17  2  0  0  0
 17 18  1  0  0  0
 18 19  2  0  0  0
 19 20  1  0  0  0
 20 21  2  0  0  0
 20 22  1  0  0  0
 22 23  1  0  0  0
 23 24  1  0  0  0
  6  7  1  0  0  0
  7  8  2  0  0  0
  8  9  1  0  0  0
  8 10  1  0  0  0
 10 11  2  0  0  0
 11  1  1  0  0  0
 11  5  1  0  0  0
 21 16  1  0  0  0
 24 19  1  0  0  0
 28 29  1  0  0  0
 14 15  1  0  0  0
 23 25  1  0  0  0
M  END
> <minimizedAffinity>
-8.51112

> <minimizedRMSD>
0.54958

$$$$
P22861


 31 35  0  0  0  0  0  0  0  0999 V2000
   -7.7767    4.6179  -15.6706 C   0  0  0  0  0  0  0  0  0  0  0  0
   -9.0050    4.1289  -16.1232 C   0  0  0  0  0  0  0  0  0  0  0  0
   -9.2214    3.9241  -17.4970 C   0  0  0  0  0  0  0  0  0  0  0  0
  -10.7941    3.5781  -18.0839 Cl  0  0  0  0  0  0  0  0  0  0  0  0
   -8.2165    4.1306  -18.4337 C   0  0  0  0  0  0  0  0  0  0  0  0
   -7.0164    4.6146  -17.9766 C   0  0  0  0  0  0  0  0  0  0  0  0
   -6.7890    4.8576  -16.6116 C   0  0  0  0  0  0  0  0  0  0  0  0
   -5.4019    5.4184  -16.4492 C   0  0  0  0  0  0  0  0  0  0  0  0
   -4.9222    5.4630  -17.9196 C   0  0  0  0  0  0  0  0  0  0  0  0
   -3.7772    5.9800  -18.2091 N   0  0  0  0  0  0  0  0  0  0  0  0
   -5.8929    4.9235  -18.7324 N   0  0  0  0  0  0  0  0  0  0  0  0
   -5.8044    4.7786  -19.7022 H   0  0  0  0  0  0  0  0  0  0  0  0
   -3.4364    6.0011  -19.6337 C   0  0  0  0  0  0  0  0  0  0  0  0
   -2.5461    4.8163  -20.0625 C   0  0  0  0  0  0  0  0  0  0  0  0
   -1.3558    5.6497  -19.8286 N   0  0  0  0  0  0  0  0  0  0  0  0
   -2.1848    6.8627  -19.9252 C   0  0  0  0  0  0  0  0  0  0  0  0
   -0.6444    5.5727  -20.5555 H   0  0  0  0  0  0  0  0  0  0  0  0
   -7.1030    6.1337  -14.1247 O   0  0  0  0  0  0  0  0  0  0  0  0
   -7.6200    5.0971  -14.2741 C   0  0  0  0  0  0  0  0  0  0  0  0
   -8.2421    4.1313  -13.2431 N   0  0  0  0  0  0  0  0  0  0  0  0
   -8.6893    3.3454  -13.6324 H   0  0  0  0  0  0  0  0  0  0  0  0
   -8.2737    4.1903  -11.8590 C   0  0  0  0  0  0  0  0  0  0  0  0
   -8.1047    5.4158  -11.2044 C   0  0  0  0  0  0  0  0  0  0  0  0
   -8.1575    5.4729   -9.8118 C   0  0  0  0  0  0  0  0  0  0  0  0
   -8.3798    4.2941   -9.1386 C   0  0  0  0  0  0  0  0  0  0  0  0
   -8.5284    3.1224   -9.8592 C   0  0  0  0  0  0  0  0  0  0  0  0
   -8.4785    3.0259  -11.2063 N   0  0  0  0  0  0  0  0  0  0  0  0
   -8.7051    1.9899   -8.8819 C   0  0  0  0  0  0  0  0  0  0  0  0
   -8.9372    2.6261   -7.5537 N   0  0  0  0  0  0  0  0  0  0  0  0
   -8.4768    4.0201   -7.6799 C   0  0  0  0  0  0  0  0  0  0  0  0
   -8.4041    2.1416   -6.8315 H   0  0  0  0  0  0  0  0  0  0  0  0
 18 19  2  0  0  0
 19 20  1  0  0  0
 20 22  1  0  0  0
 22 23  2  0  0  0
 23 24  1  0  0  0
 24 25  2  0  0  0
 25 26  1  0  0  0
 26 27  2  0  0  0
 26 28  1  0  0  0
 28 29  1  0  0  0
 29 30  1  0  0  0
 19  1  1  0  0  0
  1  2  2  0  0  0
  2  3  1  0  0  0
  3  4  1  0  0  0
  3  5  2  0  0  0
  5  6  1  0  0  0
  6  7  2  0  0  0
  7  8  1  0  0  0
  8  9  1  0  0  0
  9 10  2  0  0  0
 10 13  1  0  0  0
 13 14  1  0  0  0
 14 15  1  0  0  0
 15 16  1  0  0  0
  9 11  1  0  0  0
 27 22  1  0  0  0
  7  1  1  0  0  0
 16 13  1  0  0  0
 30 25  1  0  0  0
 11  6  1  0  0  0
 20 21  1  0  0  0
 29 31  1  0  0  0
 15 17  1  0  0  0
 11 12  1  0  0  0
M  END
> <minimizedAffinity>
-9.27446

> <minimizedRMSD>
0.57453

$$$$
P22865


 30 33  0  0  0  0  0  0  0  0999 V2000
   -5.3470    5.1715  -17.6280 N   0  0  0  0  0  0  0  0  0  0  0  0
   -4.5591    5.5888  -16.5539 C   0  0  0  0  0  0  0  0  0  0  0  0
   -3.3846    5.9262  -16.5949 O   0  0  0  0  0  0  0  0  0  0  0  0
   -5.4411    5.5850  -15.3083 C   0  0  0  0  0  0  0  0  0  0  0  0
   -6.7401    5.0506  -15.8311 C   0  0  0  0  0  0  0  0  0  0  0  0
   -7.9293    4.8061  -15.1562 C   0  0  0  0  0  0  0  0  0  0  0  0
   -9.0000    4.2655  -15.8701 C   0  0  0  0  0  0  0  0  0  0  0  0
   -8.8688    4.0331  -17.2498 C   0  0  0  0  0  0  0  0  0  0  0  0
  -10.2237    3.5022  -18.1621 Cl  0  0  0  0  0  0  0  0  0  0  0  0
   -7.6841    4.3109  -17.9315 C   0  0  0  0  0  0  0  0  0  0  0  0
   -6.6285    4.8122  -17.2006 C   0  0  0  0  0  0  0  0  0  0  0  0
   -8.1012    5.3165  -13.7747 C   0  0  0  0  0  0  0  0  0  0  0  0
   -8.1394    6.4761  -13.6456 O   0  0  0  0  0  0  0  0  0  0  0  0
   -8.1314    4.1922  -12.7209 N   0  0  0  0  0  0  0  0  0  0  0  0
   -8.0085    3.2849  -13.0828 H   0  0  0  0  0  0  0  0  0  0  0  0
   -8.3032    4.2502  -11.3478 C   0  0  0  0  0  0  0  0  0  0  0  0
   -8.0314    5.4323  -10.6508 C   0  0  0  0  0  0  0  0  0  0  0  0
   -8.1043    5.4491   -9.2572 C   0  0  0  0  0  0  0  0  0  0  0  0
   -8.4542    4.2776   -8.6206 C   0  0  0  0  0  0  0  0  0  0  0  0
   -8.7290    3.1575   -9.3895 C   0  0  0  0  0  0  0  0  0  0  0  0
   -8.6711    3.1045  -10.7402 N   0  0  0  0  0  0  0  0  0  0  0  0
   -9.0151    1.9948   -8.4702 C   0  0  0  0  0  0  0  0  0  0  0  0
   -9.0519    2.5563   -7.0867 N   0  0  0  0  0  0  0  0  0  0  0  0
  -10.3591    2.4130   -6.4785 C   0  0  0  0  0  0  0  0  0  0  0  0
   -8.4790    3.9200   -7.1642 C   0  0  0  0  0  0  0  0  0  0  0  0
   -9.0738    4.9816   -6.2397 C   0  0  0  0  0  0  0  0  0  0  0  0
   -4.8620    5.0818  -18.9748 C   0  0  0  0  0  0  0  0  0  0  0  0
   -3.4480    6.4217  -20.3523 C   0  0  0  0  0  0  0  0  0  0  0  0
   -4.5489    6.4395  -19.4066 N   0  0  0  0  0  0  0  0  0  0  0  0
   -5.3697    6.8493  -19.8523 H   0  0  0  0  0  0  0  0  0  0  0  0
 28 29  1  0  0  0
 29 27  1  0  0  0
 27  1  1  0  0  0
  1  2  1  0  0  0
  2  3  2  0  0  0
  2  4  1  0  0  0
  4  5  1  0  0  0
  5  6  2  0  0  0
  6 12  1  0  0  0
 12 13  2  0  0  0
 12 14  1  0  0  0
 14 16  1  0  0  0
 16 17  2  0  0  0
 17 18  1  0  0  0
 18 19  2  0  0  0
 19 20  1  0  0  0
 20 21  2  0  0  0
 20 22  1  0  0  0
 22 23  1  0  0  0
 23 24  1  0  0  0
 23 25  1  0  0  0
 25 26  1  0  0  0
  6  7  1  0  0  0
  7  8  2  0  0  0
  8  9  1  0  0  0
  8 10  1  0  0  0
 10 11  2  0  0  0
 11  1  1  0  0  0
 11  5  1  0  0  0
 21 16  1  0  0  0
 25 19  1  0  0  0
 29 30  1  0  0  0
 14 15  1  0  0  0
M  END
> <minimizedAffinity>
-8.59346

> <minimizedRMSD>
0.38892

$$$$
P22867


 30 33  0  0  0  0  0  0  0  0999 V2000
   -5.2563    5.7579  -17.3660 N   0  0  0  0  0  0  0  0  0  0  0  0
   -4.2098    6.0191  -16.4866 C   0  0  0  0  0  0  0  0  0  0  0  0
   -3.1011    6.4569  -16.7580 O   0  0  0  0  0  0  0  0  0  0  0  0
   -4.7260    5.6988  -15.0654 C   0  0  0  0  0  0  0  0  0  0  0  0
   -6.1194    5.2081  -15.3221 C   0  0  0  0  0  0  0  0  0  0  0  0
   -7.1395    4.7784  -14.4820 C   0  0  0  0  0  0  0  0  0  0  0  0
   -8.3435    4.3041  -15.0506 C   0  0  0  0  0  0  0  0  0  0  0  0
   -8.5294    4.3766  -16.4315 C   0  0  0  0  0  0  0  0  0  0  0  0
   -9.9173    3.8987  -17.3132 Cl  0  0  0  0  0  0  0  0  0  0  0  0
   -7.5723    4.9673  -17.2145 C   0  0  0  0  0  0  0  0  0  0  0  0
   -6.3612    5.2878  -16.6758 C   0  0  0  0  0  0  0  0  0  0  0  0
   -7.0498    5.0619  -13.0286 C   0  0  0  0  0  0  0  0  0  0  0  0
   -6.4881    6.0350  -12.7146 O   0  0  0  0  0  0  0  0  0  0  0  0
   -7.8057    4.0282  -12.1772 N   0  0  0  0  0  0  0  0  0  0  0  0
   -8.1328    3.2444  -12.6751 H   0  0  0  0  0  0  0  0  0  0  0  0
   -8.1001    4.0198  -10.8292 C   0  0  0  0  0  0  0  0  0  0  0  0
   -7.9622    5.1751  -10.0615 C   0  0  0  0  0  0  0  0  0  0  0  0
   -8.2638    5.1080   -8.7093 C   0  0  0  0  0  0  0  0  0  0  0  0
   -8.1415    6.1941   -7.9348 F   0  0  0  0  0  0  0  0  0  0  0  0
   -8.6748    3.9172   -8.1741 C   0  0  0  0  0  0  0  0  0  0  0  0
   -8.7758    2.8272   -9.0102 C   0  0  0  0  0  0  0  0  0  0  0  0
   -8.5147    2.8396  -10.3304 N   0  0  0  0  0  0  0  0  0  0  0  0
   -9.1270    1.6260   -8.1785 C   0  0  0  0  0  0  0  0  0  0  0  0
   -9.5650    2.1682   -6.8571 N   0  0  0  0  0  0  0  0  0  0  0  0
   -9.0117    3.5386   -6.7819 C   0  0  0  0  0  0  0  0  0  0  0  0
   -9.1976    1.5944   -6.0980 H   0  0  0  0  0  0  0  0  0  0  0  0
   -5.2753    5.9972  -18.7845 C   0  0  0  0  0  0  0  0  0  0  0  0
   -6.3698    4.0946  -19.9648 C   0  0  0  0  0  0  0  0  0  0  0  0
   -5.1527    4.7807  -19.5482 N   0  0  0  0  0  0  0  0  0  0  0  0
   -4.6305    5.0079  -20.3945 H   0  0  0  0  0  0  0  0  0  0  0  0
 28 29  1  0  0  0
 29 27  1  0  0  0
 27  1  1  0  0  0
  1  2  1  0  0  0
  2  3  2  0  0  0
  2  4  1  0  0  0
  4  5  1  0  0  0
  5  6  2  0  0  0
  6 12  1  0  0  0
 12 13  2  0  0  0
 12 14  1  0  0  0
 14 16  1  0  0  0
 16 17  2  0  0  0
 17 18  1  0  0  0
 18 19  1  0  0  0
 18 20  2  0  0  0
 20 21  1  0  0  0
 21 22  2  0  0  0
 21 23  1  0  0  0
 23 24  1  0  0  0
 24 25  1  0  0  0
  6  7  1  0  0  0
  7  8  2  0  0  0
  8  9  1  0  0  0
  8 10  1  0  0  0
 10 11  2  0  0  0
 11  1  1  0  0  0
 11  5  1  0  0  0
 22 16  1  0  0  0
 25 20  1  0  0  0
 29 30  1  0  0  0
 14 15  1  0  0  0
 24 26  1  0  0  0
M  END
> <minimizedAffinity>
-6.30422

> <minimizedRMSD>
0.40804

$$$$
P22868


 30 33  0  0  0  0  0  0  0  0999 V2000
   -5.0729    5.3708  -17.0498 N   0  0  0  0  0  0  0  0  0  0  0  0
   -4.5840    5.6710  -15.7780 C   0  0  0  0  0  0  0  0  0  0  0  0
   -3.4980    6.1566  -15.4958 O   0  0  0  0  0  0  0  0  0  0  0  0
   -5.6870    5.3388  -14.7756 C   0  0  0  0  0  0  0  0  0  0  0  0
   -6.8166    4.9027  -15.6599 C   0  0  0  0  0  0  0  0  0  0  0  0
   -8.1320    4.5961  -15.3294 C   0  0  0  0  0  0  0  0  0  0  0  0
   -9.0059    4.2082  -16.3493 C   0  0  0  0  0  0  0  0  0  0  0  0
   -8.5469    4.1670  -17.6775 C   0  0  0  0  0  0  0  0  0  0  0  0
   -9.6506    3.7822  -18.9413 Cl  0  0  0  0  0  0  0  0  0  0  0  0
   -7.2356    4.5187  -18.0118 C   0  0  0  0  0  0  0  0  0  0  0  0
   -6.3890    4.8918  -16.9865 C   0  0  0  0  0  0  0  0  0  0  0  0
   -8.6346    4.9402  -13.9775 C   0  0  0  0  0  0  0  0  0  0  0  0
   -9.4296    5.7925  -13.9212 O   0  0  0  0  0  0  0  0  0  0  0  0
   -8.0205    4.0714  -12.8626 N   0  0  0  0  0  0  0  0  0  0  0  0
   -7.4184    3.3597  -13.1793 H   0  0  0  0  0  0  0  0  0  0  0  0
   -8.1780    4.1288  -11.4816 C   0  0  0  0  0  0  0  0  0  0  0  0
   -8.4962    2.9483  -10.8936 N   0  0  0  0  0  0  0  0  0  0  0  0
   -8.6543    2.9933   -9.5522 C   0  0  0  0  0  0  0  0  0  0  0  0
   -8.5121    4.1265   -8.7682 C   0  0  0  0  0  0  0  0  0  0  0  0
   -8.1728    5.3174   -9.3637 C   0  0  0  0  0  0  0  0  0  0  0  0
   -8.0166    5.3177  -10.7469 C   0  0  0  0  0  0  0  0  0  0  0  0
   -7.7450    6.4943  -11.3238 F   0  0  0  0  0  0  0  0  0  0  0  0
   -8.7811    3.7982   -7.3424 C   0  0  0  0  0  0  0  0  0  0  0  0
   -9.4378    2.4765   -7.3572 N   0  0  0  0  0  0  0  0  0  0  0  0
   -9.0148    1.8460   -8.6431 C   0  0  0  0  0  0  0  0  0  0  0  0
  -10.4520    2.5802   -7.3259 H   0  0  0  0  0  0  0  0  0  0  0  0
   -4.3882    5.7397  -18.2543 C   0  0  0  0  0  0  0  0  0  0  0  0
   -2.0765    5.7098  -18.9174 C   0  0  0  0  0  0  0  0  0  0  0  0
   -3.1838    4.9440  -18.3780 N   0  0  0  0  0  0  0  0  0  0  0  0
   -2.9238    4.5953  -17.4554 H   0  0  0  0  0  0  0  0  0  0  0  0
 28 29  1  0  0  0
 29 27  1  0  0  0
 27  1  1  0  0  0
  1  2  1  0  0  0
  2  3  2  0  0  0
  2  4  1  0  0  0
  4  5  1  0  0  0
  5  6  2  0  0  0
  6 12  1  0  0  0
 12 13  2  0  0  0
 12 14  1  0  0  0
 14 16  1  0  0  0
 16 17  2  0  0  0
 17 18  1  0  0  0
 18 19  2  0  0  0
 19 20  1  0  0  0
 20 21  2  0  0  0
 21 22  1  0  0  0
 19 23  1  0  0  0
 23 24  1  0  0  0
 24 25  1  0  0  0
  6  7  1  0  0  0
  7  8  2  0  0  0
  8  9  1  0  0  0
  8 10  1  0  0  0
 10 11  2  0  0  0
 11  1  1  0  0  0
 11  5  1  0  0  0
 21 16  1  0  0  0
 25 18  1  0  0  0
 29 30  1  0  0  0
 14 15  1  0  0  0
 24 26  1  0  0  0
M  END
> <minimizedAffinity>
-8.72087

> <minimizedRMSD>
0.87900

$$$$
P22872


 29 32  0  0  0  0  0  0  0  0999 V2000
   -5.6442    5.2908  -17.7757 N   0  0  0  0  0  0  0  0  0  0  0  0
   -5.0654    5.8600  -16.6386 C   0  0  0  0  0  0  0  0  0  0  0  0
   -3.9622    6.3769  -16.5404 O   0  0  0  0  0  0  0  0  0  0  0  0
   -6.0686    5.7159  -15.5006 C   0  0  0  0  0  0  0  0  0  0  0  0
   -7.1917    4.9624  -16.1455 C   0  0  0  0  0  0  0  0  0  0  0  0
   -8.3830    4.5215  -15.5866 C   0  0  0  0  0  0  0  0  0  0  0  0
   -9.2688    3.8034  -16.3887 C   0  0  0  0  0  0  0  0  0  0  0  0
   -8.9566    3.5797  -17.7358 C   0  0  0  0  0  0  0  0  0  0  0  0
   -9.8390    2.9292  -18.5069 F   0  0  0  0  0  0  0  0  0  0  0  0
   -7.7715    4.0456  -18.3060 C   0  0  0  0  0  0  0  0  0  0  0  0
   -6.8949    4.7314  -17.4880 C   0  0  0  0  0  0  0  0  0  0  0  0
   -8.7493    4.9663  -14.2229 C   0  0  0  0  0  0  0  0  0  0  0  0
   -9.4214    5.9161  -14.1370 O   0  0  0  0  0  0  0  0  0  0  0  0
   -8.0974    4.1028  -13.1285 N   0  0  0  0  0  0  0  0  0  0  0  0
   -7.5069    3.3899  -13.4635 H   0  0  0  0  0  0  0  0  0  0  0  0
   -8.2058    4.1650  -11.7522 C   0  0  0  0  0  0  0  0  0  0  0  0
   -8.0442    5.3858  -11.0854 C   0  0  0  0  0  0  0  0  0  0  0  0
   -8.1262    5.4301   -9.6948 C   0  0  0  0  0  0  0  0  0  0  0  0
   -8.3804    4.2462   -9.0419 C   0  0  0  0  0  0  0  0  0  0  0  0
   -8.5243    3.0814   -9.7772 C   0  0  0  0  0  0  0  0  0  0  0  0
   -8.4429    2.9973  -11.1207 N   0  0  0  0  0  0  0  0  0  0  0  0
   -8.7853    1.9497   -8.8153 C   0  0  0  0  0  0  0  0  0  0  0  0
   -9.1357    2.6039   -7.5175 N   0  0  0  0  0  0  0  0  0  0  0  0
   -8.5318    3.9495   -7.5918 C   0  0  0  0  0  0  0  0  0  0  0  0
   -8.7459    2.0788   -6.7347 H   0  0  0  0  0  0  0  0  0  0  0  0
   -4.9925    5.2983  -19.0478 C   0  0  0  0  0  0  0  0  0  0  0  0
   -4.2634    6.8686  -20.7042 C   0  0  0  0  0  0  0  0  0  0  0  0
   -5.2427    6.5943  -19.6663 N   0  0  0  0  0  0  0  0  0  0  0  0
   -6.1756    6.5935  -20.0786 H   0  0  0  0  0  0  0  0  0  0  0  0
 27 28  1  0  0  0
 28 26  1  0  0  0
 26  1  1  0  0  0
  1  2  1  0  0  0
  2  3  2  0  0  0
  2  4  1  0  0  0
  4  5  1  0  0  0
  5  6  2  0  0  0
  6 12  1  0  0  0
 12 13  2  0  0  0
 12 14  1  0  0  0
 14 16  1  0  0  0
 16 17  2  0  0  0
 17 18  1  0  0  0
 18 19  2  0  0  0
 19 20  1  0  0  0
 20 21  2  0  0  0
 20 22  1  0  0  0
 22 23  1  0  0  0
 23 24  1  0  0  0
  6  7  1  0  0  0
  7  8  2  0  0  0
  8  9  1  0  0  0
  8 10  1  0  0  0
 10 11  2  0  0  0
 11  1  1  0  0  0
 11  5  1  0  0  0
 21 16  1  0  0  0
 24 19  1  0  0  0
 28 29  1  0  0  0
 14 15  1  0  0  0
 23 25  1  0  0  0
M  END
> <minimizedAffinity>
-8.99570

> <minimizedRMSD>
0.66471

$$$$
P22873


 27 30  0  0  0  0  0  0  0  0999 V2000
   -7.5001    5.0702  -14.3678 C   0  0  0  0  0  0  0  0  0  0  0  0
   -6.8995    6.0602  -14.2164 O   0  0  0  0  0  0  0  0  0  0  0  0
   -8.2063    4.1622  -13.3408 N   0  0  0  0  0  0  0  0  0  0  0  0
   -8.7150    3.4156  -13.7321 H   0  0  0  0  0  0  0  0  0  0  0  0
   -2.8942    6.5319  -17.5365 C   0  0  0  0  0  0  0  0  0  0  0  0
   -3.8177    5.9798  -18.5181 N   0  0  0  0  0  0  0  0  0  0  0  0
   -4.8973    5.4451  -18.0640 C   0  0  0  0  0  0  0  0  0  0  0  0
   -5.3345    5.3679  -16.5811 C   0  0  0  0  0  0  0  0  0  0  0  0
   -6.7351    4.8373  -16.7220 C   0  0  0  0  0  0  0  0  0  0  0  0
   -6.9947    4.6106  -18.0838 C   0  0  0  0  0  0  0  0  0  0  0  0
   -8.2135    4.1448  -18.5121 C   0  0  0  0  0  0  0  0  0  0  0  0
   -9.2019    3.9494  -17.5513 C   0  0  0  0  0  0  0  0  0  0  0  0
  -10.7894    3.5851  -18.0831 Cl  0  0  0  0  0  0  0  0  0  0  0  0
   -8.9572    4.1542  -16.1830 C   0  0  0  0  0  0  0  0  0  0  0  0
   -7.7076    4.6130  -15.7614 C   0  0  0  0  0  0  0  0  0  0  0  0
   -5.8716    4.8850  -18.8547 N   0  0  0  0  0  0  0  0  0  0  0  0
   -5.7869    4.7056  -19.8191 H   0  0  0  0  0  0  0  0  0  0  0  0
   -8.2415    4.2257  -11.9591 C   0  0  0  0  0  0  0  0  0  0  0  0
   -8.0943    5.4516  -11.2992 C   0  0  0  0  0  0  0  0  0  0  0  0
   -8.1545    5.5007   -9.9065 C   0  0  0  0  0  0  0  0  0  0  0  0
   -8.3585    4.3133   -9.2424 C   0  0  0  0  0  0  0  0  0  0  0  0
   -8.4719    3.1405   -9.9694 C   0  0  0  0  0  0  0  0  0  0  0  0
   -8.4275    3.0549  -11.3147 N   0  0  0  0  0  0  0  0  0  0  0  0
   -8.6410    2.0018   -8.9960 C   0  0  0  0  0  0  0  0  0  0  0  0
   -9.0033    2.6430   -7.6953 N   0  0  0  0  0  0  0  0  0  0  0  0
   -8.4772    4.0205   -7.7885 C   0  0  0  0  0  0  0  0  0  0  0  0
   -8.5699    2.1455   -6.9174 H   0  0  0  0  0  0  0  0  0  0  0  0
  5  6  1  0  0  0
  6  7  2  0  0  0
  7  8  1  0  0  0
  8  9  1  0  0  0
  9 10  2  0  0  0
 10 11  1  0  0  0
 11 12  2  0  0  0
 12 13  1  0  0  0
 12 14  1  0  0  0
 14 15  2  0  0  0
 15  1  1  0  0  0
  1  2  2  0  0  0
  1  3  1  0  0  0
  3 18  1  0  0  0
 18 19  2  0  0  0
 19 20  1  0  0  0
 20 21  2  0  0  0
 21 22  1  0  0  0
 22 23  2  0  0  0
 22 24  1  0  0  0
 24 25  1  0  0  0
 25 26  1  0  0  0
 10 16  1  0  0  0
 16  7  1  0  0  0
 15  9  1  0  0  0
 23 18  1  0  0  0
 26 21  1  0  0  0
  3  4  1  0  0  0
 25 27  1  0  0  0
 16 17  1  0  0  0
M  END
> <minimizedAffinity>
-9.04878

> <minimizedRMSD>
0.64310

$$$$
P22874


 29 32  0  0  0  0  0  0  0  0999 V2000
   -4.5327    6.0249  -16.7789 C   0  0  0  0  0  0  0  0  0  0  0  0
   -5.3048    5.7779  -15.4639 C   0  0  0  0  0  0  0  0  0  0  0  0
   -6.5769    5.1950  -15.9654 C   0  0  0  0  0  0  0  0  0  0  0  0
   -6.4641    4.9296  -17.3260 C   0  0  0  0  0  0  0  0  0  0  0  0
   -7.5015    4.3287  -18.0125 C   0  0  0  0  0  0  0  0  0  0  0  0
   -8.6627    4.0059  -17.3046 C   0  0  0  0  0  0  0  0  0  0  0  0
  -10.0036    3.3374  -18.1433 Cl  0  0  0  0  0  0  0  0  0  0  0  0
   -8.7852    4.2720  -15.9329 C   0  0  0  0  0  0  0  0  0  0  0  0
   -7.7336    4.8907  -15.2615 C   0  0  0  0  0  0  0  0  0  0  0  0
   -5.1888    5.2419  -17.8508 N   0  0  0  0  0  0  0  0  0  0  0  0
   -4.8205    4.9947  -18.7297 H   0  0  0  0  0  0  0  0  0  0  0  0
   -7.8905    5.3831  -13.8759 C   0  0  0  0  0  0  0  0  0  0  0  0
   -7.7645    6.5296  -13.6972 O   0  0  0  0  0  0  0  0  0  0  0  0
   -8.1816    4.2439  -12.8818 N   0  0  0  0  0  0  0  0  0  0  0  0
   -8.3192    3.3612  -13.2955 H   0  0  0  0  0  0  0  0  0  0  0  0
   -8.2812    4.2584  -11.5025 C   0  0  0  0  0  0  0  0  0  0  0  0
   -8.1113    5.4553  -10.7966 C   0  0  0  0  0  0  0  0  0  0  0  0
   -8.1868    5.4544   -9.4050 C   0  0  0  0  0  0  0  0  0  0  0  0
   -8.4448    4.2517   -8.7879 C   0  0  0  0  0  0  0  0  0  0  0  0
   -8.6076    3.1163   -9.5596 C   0  0  0  0  0  0  0  0  0  0  0  0
   -8.5198    3.0733  -10.9054 N   0  0  0  0  0  0  0  0  0  0  0  0
   -8.8603    1.9482   -8.6465 C   0  0  0  0  0  0  0  0  0  0  0  0
   -9.0073    2.5113   -7.2717 N   0  0  0  0  0  0  0  0  0  0  0  0
   -8.5835    3.9219   -7.3461 C   0  0  0  0  0  0  0  0  0  0  0  0
   -8.4154    2.0001   -6.6169 H   0  0  0  0  0  0  0  0  0  0  0  0
   -4.4877    7.5354  -17.1278 C   0  0  0  0  0  0  0  0  0  0  0  0
   -2.7818    7.8742  -18.8178 C   0  0  0  0  0  0  0  0  0  0  0  0
   -4.2144    7.8219  -18.5468 N   0  0  0  0  0  0  0  0  0  0  0  0
   -4.6330    7.0886  -19.1191 H   0  0  0  0  0  0  0  0  0  0  0  0
 27 28  1  0  0  0
 28 26  1  0  0  0
  1 26  1  0  0  0
  1  2  1  0  0  0
  2  3  1  0  0  0
  3  4  2  0  0  0
  4  5  1  0  0  0
  5  6  2  0  0  0
  6  7  1  0  0  0
  6  8  1  0  0  0
  8  9  2  0  0  0
  9 12  1  0  0  0
 12 13  2  0  0  0
 12 14  1  0  0  0
 14 16  1  0  0  0
 16 17  2  0  0  0
 17 18  1  0  0  0
 18 19  2  0  0  0
 19 20  1  0  0  0
 20 21  2  0  0  0
 20 22  1  0  0  0
 22 23  1  0  0  0
 23 24  1  0  0  0
  4 10  1  0  0  0
 10  1  1  0  0  0
  9  3  1  0  0  0
 21 16  1  0  0  0
 24 19  1  0  0  0
 28 29  1  0  0  0
 14 15  1  0  0  0
 23 25  1  0  0  0
 10 11  1  0  0  0
M  END
> <minimizedAffinity>
-7.80453

> <minimizedRMSD>
0.49911

$$$$
P22875


 30 33  0  0  0  0  0  0  0  0999 V2000
   -5.4948    5.1645  -17.6619 N   0  0  0  0  0  0  0  0  0  0  0  0
   -4.7832    5.6669  -16.5663 C   0  0  0  0  0  0  0  0  0  0  0  0
   -3.6986    6.2311  -16.5709 O   0  0  0  0  0  0  0  0  0  0  0  0
   -5.6489    5.4621  -15.3244 C   0  0  0  0  0  0  0  0  0  0  0  0
   -6.9353    4.9596  -15.9020 C   0  0  0  0  0  0  0  0  0  0  0  0
   -8.1633    4.7542  -15.2850 C   0  0  0  0  0  0  0  0  0  0  0  0
   -9.2404    4.3207  -16.0618 C   0  0  0  0  0  0  0  0  0  0  0  0
   -9.0636    4.1238  -17.4389 C   0  0  0  0  0  0  0  0  0  0  0  0
  -10.4159    3.7446  -18.4235 Cl  0  0  0  0  0  0  0  0  0  0  0  0
   -7.8316    4.3338  -18.0580 C   0  0  0  0  0  0  0  0  0  0  0  0
   -6.7822    4.7665  -17.2742 C   0  0  0  0  0  0  0  0  0  0  0  0
   -8.3844    5.2416  -13.9044 C   0  0  0  0  0  0  0  0  0  0  0  0
   -8.6935    6.3603  -13.7813 O   0  0  0  0  0  0  0  0  0  0  0  0
   -8.2190    4.1297  -12.8516 N   0  0  0  0  0  0  0  0  0  0  0  0
   -8.0215    3.2388  -13.2209 H   0  0  0  0  0  0  0  0  0  0  0  0
   -8.3027    4.1788  -11.4720 C   0  0  0  0  0  0  0  0  0  0  0  0
   -8.0969    5.3837  -10.7896 C   0  0  0  0  0  0  0  0  0  0  0  0
   -8.1762    5.4229   -9.3925 C   0  0  0  0  0  0  0  0  0  0  0  0
   -7.9306    6.6897   -8.6383 C   0  0  0  0  0  0  0  0  0  0  0  0
   -8.4466    4.2270   -8.7543 C   0  0  0  0  0  0  0  0  0  0  0  0
   -8.6386    3.0813   -9.5073 C   0  0  0  0  0  0  0  0  0  0  0  0
   -8.5712    3.0131  -10.8530 N   0  0  0  0  0  0  0  0  0  0  0  0
   -8.8781    1.9245   -8.5764 C   0  0  0  0  0  0  0  0  0  0  0  0
   -8.9944    2.5012   -7.2067 N   0  0  0  0  0  0  0  0  0  0  0  0
   -8.5608    3.9072   -7.3049 C   0  0  0  0  0  0  0  0  0  0  0  0
   -8.3942    1.9920   -6.5580 H   0  0  0  0  0  0  0  0  0  0  0  0
   -5.0942    5.4075  -19.0196 C   0  0  0  0  0  0  0  0  0  0  0  0
   -2.9107    5.5518  -19.9821 C   0  0  0  0  0  0  0  0  0  0  0  0
   -3.8589    4.6898  -19.2942 N   0  0  0  0  0  0  0  0  0  0  0  0
   -3.4501    4.3765  -18.4138 H   0  0  0  0  0  0  0  0  0  0  0  0
 28 29  1  0  0  0
 29 27  1  0  0  0
 27  1  1  0  0  0
  1  2  1  0  0  0
  2  3  2  0  0  0
  2  4  1  0  0  0
  4  5  1  0  0  0
  5  6  2  0  0  0
  6 12  1  0  0  0
 12 13  2  0  0  0
 12 14  1  0  0  0
 14 16  1  0  0  0
 16 17  2  0  0  0
 17 18  1  0  0  0
 18 19  1  0  0  0
 18 20  2  0  0  0
 20 21  1  0  0  0
 21 22  2  0  0  0
 21 23  1  0  0  0
 23 24  1  0  0  0
 24 25  1  0  0  0
  6  7  1  0  0  0
  7  8  2  0  0  0
  8  9  1  0  0  0
  8 10  1  0  0  0
 10 11  2  0  0  0
 11  1  1  0  0  0
 11  5  1  0  0  0
 22 16  1  0  0  0
 25 20  1  0  0  0
 29 30  1  0  0  0
 14 15  1  0  0  0
 24 26  1  0  0  0
M  END
> <minimizedAffinity>
-8.60831

> <minimizedRMSD>
0.58469

$$$$
P22876


 26 29  0  0  0  0  0  0  0  0999 V2000
   -7.5512    4.9917  -14.6636 C   0  0  0  0  0  0  0  0  0  0  0  0
   -6.9512    5.9888  -14.5674 O   0  0  0  0  0  0  0  0  0  0  0  0
   -8.1457    4.0733  -13.5761 N   0  0  0  0  0  0  0  0  0  0  0  0
   -8.5465    3.2401  -13.9144 H   0  0  0  0  0  0  0  0  0  0  0  0
   -2.8923    5.7762  -18.0828 C   0  0  0  0  0  0  0  0  0  0  0  0
   -3.9324    5.3106  -18.9873 N   0  0  0  0  0  0  0  0  0  0  0  0
   -5.1136    5.1311  -18.5028 C   0  0  0  0  0  0  0  0  0  0  0  0
   -5.5456    5.3111  -17.0272 C   0  0  0  0  0  0  0  0  0  0  0  0
   -6.9266    4.7107  -17.0563 C   0  0  0  0  0  0  0  0  0  0  0  0
   -7.2318    4.3413  -18.3761 C   0  0  0  0  0  0  0  0  0  0  0  0
   -8.4459    3.7700  -18.6963 C   0  0  0  0  0  0  0  0  0  0  0  0
   -9.3465    3.5043  -17.6607 C   0  0  0  0  0  0  0  0  0  0  0  0
   -9.0372    3.8503  -16.3331 C   0  0  0  0  0  0  0  0  0  0  0  0
   -7.8223    4.4749  -16.0267 C   0  0  0  0  0  0  0  0  0  0  0  0
   -6.2001    4.7078  -19.2385 N   0  0  0  0  0  0  0  0  0  0  0  0
   -6.2409    4.6703  -20.2214 H   0  0  0  0  0  0  0  0  0  0  0  0
   -8.2075    4.2294  -12.2041 C   0  0  0  0  0  0  0  0  0  0  0  0
   -8.1155    5.4998  -11.6246 C   0  0  0  0  0  0  0  0  0  0  0  0
   -8.1796    5.6331  -10.2374 C   0  0  0  0  0  0  0  0  0  0  0  0
   -8.3342    4.4821   -9.4993 C   0  0  0  0  0  0  0  0  0  0  0  0
   -8.4051    3.2629  -10.1512 C   0  0  0  0  0  0  0  0  0  0  0  0
   -8.3551    3.0954  -11.4877 N   0  0  0  0  0  0  0  0  0  0  0  0
   -8.5297    2.1802   -9.1102 C   0  0  0  0  0  0  0  0  0  0  0  0
   -8.9034    2.8861   -7.8466 N   0  0  0  0  0  0  0  0  0  0  0  0
   -8.4291    4.2737   -8.0293 C   0  0  0  0  0  0  0  0  0  0  0  0
   -8.4448    2.4531   -7.0450 H   0  0  0  0  0  0  0  0  0  0  0  0
  5  6  1  0  0  0
  6  7  2  0  0  0
  7  8  1  0  0  0
  8  9  1  0  0  0
  9 10  2  0  0  0
 10 11  1  0  0  0
 11 12  2  0  0  0
 12 13  1  0  0  0
 13 14  2  0  0  0
 14  1  1  0  0  0
  1  2  2  0  0  0
  1  3  1  0  0  0
  3 17  1  0  0  0
 17 18  2  0  0  0
 18 19  1  0  0  0
 19 20  2  0  0  0
 20 21  1  0  0  0
 21 22  2  0  0  0
 21 23  1  0  0  0
 23 24  1  0  0  0
 24 25  1  0  0  0
 10 15  1  0  0  0
 15  7  1  0  0  0
 14  9  1  0  0  0
 22 17  1  0  0  0
 25 20  1  0  0  0
  3  4  1  0  0  0
 24 26  1  0  0  0
 15 16  1  0  0  0
M  END
> <minimizedAffinity>
-9.29013

> <minimizedRMSD>
1.04712

$$$$
P22877


 28 31  0  0  0  0  0  0  0  0999 V2000
   -5.5242    5.1841  -17.7988 N   0  0  0  0  0  0  0  0  0  0  0  0
   -5.0477    5.8985  -16.6888 C   0  0  0  0  0  0  0  0  0  0  0  0
   -4.0858    6.6496  -16.6014 O   0  0  0  0  0  0  0  0  0  0  0  0
   -5.9896    5.6023  -15.5220 C   0  0  0  0  0  0  0  0  0  0  0  0
   -7.1211    4.8988  -16.1928 C   0  0  0  0  0  0  0  0  0  0  0  0
   -8.3686    4.5544  -15.7092 C   0  0  0  0  0  0  0  0  0  0  0  0
   -9.2871    3.9664  -16.5844 C   0  0  0  0  0  0  0  0  0  0  0  0
   -8.9544    3.7312  -17.9244 C   0  0  0  0  0  0  0  0  0  0  0  0
   -7.6969    4.0803  -18.4046 C   0  0  0  0  0  0  0  0  0  0  0  0
   -6.7978    4.6601  -17.5221 C   0  0  0  0  0  0  0  0  0  0  0  0
   -8.7859    4.9626  -14.3504 C   0  0  0  0  0  0  0  0  0  0  0  0
   -9.6031    5.7892  -14.2514 O   0  0  0  0  0  0  0  0  0  0  0  0
   -8.0780    4.1247  -13.2707 N   0  0  0  0  0  0  0  0  0  0  0  0
   -7.4737    3.4299  -13.6189 H   0  0  0  0  0  0  0  0  0  0  0  0
   -8.1522    4.1883  -11.8962 C   0  0  0  0  0  0  0  0  0  0  0  0
   -8.0394    5.4119  -11.2277 C   0  0  0  0  0  0  0  0  0  0  0  0
   -8.1533    5.4486   -9.8394 C   0  0  0  0  0  0  0  0  0  0  0  0
   -8.3794    4.2539   -9.1952 C   0  0  0  0  0  0  0  0  0  0  0  0
   -8.4519    3.0854   -9.9344 C   0  0  0  0  0  0  0  0  0  0  0  0
   -8.3487    3.0100  -11.2733 N   0  0  0  0  0  0  0  0  0  0  0  0
   -8.6636    1.9377   -8.9843 C   0  0  0  0  0  0  0  0  0  0  0  0
   -9.1035    2.5673   -7.7028 N   0  0  0  0  0  0  0  0  0  0  0  0
   -8.5727    3.9464   -7.7528 C   0  0  0  0  0  0  0  0  0  0  0  0
   -8.7174    2.0632   -6.9045 H   0  0  0  0  0  0  0  0  0  0  0  0
   -5.1232    5.3360  -19.1732 C   0  0  0  0  0  0  0  0  0  0  0  0
   -2.8851    4.3809  -19.4007 C   0  0  0  0  0  0  0  0  0  0  0  0
   -3.7125    5.5725  -19.3652 N   0  0  0  0  0  0  0  0  0  0  0  0
   -3.5929    6.0662  -20.2497 H   0  0  0  0  0  0  0  0  0  0  0  0
 26 27  1  0  0  0
 27 25  1  0  0  0
 25  1  1  0  0  0
  1  2  1  0  0  0
  2  3  2  0  0  0
  2  4  1  0  0  0
  4  5  1  0  0  0
  5  6  2  0  0  0
  6 11  1  0  0  0
 11 12  2  0  0  0
 11 13  1  0  0  0
 13 15  1  0  0  0
 15 16  2  0  0  0
 16 17  1  0  0  0
 17 18  2  0  0  0
 18 19  1  0  0  0
 19 20  2  0  0  0
 19 21  1  0  0  0
 21 22  1  0  0  0
 22 23  1  0  0  0
  6  7  1  0  0  0
  7  8  2  0  0  0
  8  9  1  0  0  0
  9 10  2  0  0  0
 10  1  1  0  0  0
 10  5  1  0  0  0
 20 15  1  0  0  0
 23 18  1  0  0  0
 27 28  1  0  0  0
 13 14  1  0  0  0
 22 24  1  0  0  0
M  END
> <minimizedAffinity>
-8.80768

> <minimizedRMSD>
0.83003

$$$$
P22882


 28 31  0  0  0  0  0  0  0  0999 V2000
   -5.3713    5.2006  -19.7791 N   0  0  0  0  0  0  0  0  0  0  0  0
   -5.4388    5.0914  -18.3934 N   0  0  0  0  0  0  0  0  0  0  0  0
   -4.4396    5.5542  -17.5134 C   0  0  0  0  0  0  0  0  0  0  0  0
   -3.3075    5.9337  -17.7815 O   0  0  0  0  0  0  0  0  0  0  0  0
   -5.0515    5.5095  -16.1016 C   0  0  0  0  0  0  0  0  0  0  0  0
   -6.4396    4.9923  -16.3464 C   0  0  0  0  0  0  0  0  0  0  0  0
   -7.4951    4.7789  -15.4688 C   0  0  0  0  0  0  0  0  0  0  0  0
   -8.7184    4.3397  -15.9913 C   0  0  0  0  0  0  0  0  0  0  0  0
   -8.8540    4.1382  -17.3732 C   0  0  0  0  0  0  0  0  0  0  0  0
  -10.5412    3.8402  -18.1418 Br  0  0  0  0  0  0  0  0  0  0  0  0
   -7.7902    4.3121  -18.2451 C   0  0  0  0  0  0  0  0  0  0  0  0
   -6.6041    4.7564  -17.7106 C   0  0  0  0  0  0  0  0  0  0  0  0
   -4.4226    5.4546  -20.0544 H   0  0  0  0  0  0  0  0  0  0  0  0
   -6.0214    5.9201  -20.0956 H   0  0  0  0  0  0  0  0  0  0  0  0
   -7.4089    5.2211  -14.0543 C   0  0  0  0  0  0  0  0  0  0  0  0
   -7.0185    6.3028  -13.8521 O   0  0  0  0  0  0  0  0  0  0  0  0
   -7.9020    4.1361  -13.0743 N   0  0  0  0  0  0  0  0  0  0  0  0
   -8.1096    3.2684  -13.4907 H   0  0  0  0  0  0  0  0  0  0  0  0
   -8.0999    4.1838  -11.7057 C   0  0  0  0  0  0  0  0  0  0  0  0
   -8.0229    5.3962  -11.0134 C   0  0  0  0  0  0  0  0  0  0  0  0
   -8.2131    5.4150   -9.6312 C   0  0  0  0  0  0  0  0  0  0  0  0
   -8.4642    4.2130   -9.0079 C   0  0  0  0  0  0  0  0  0  0  0  0
   -8.5305    3.0608   -9.7666 C   0  0  0  0  0  0  0  0  0  0  0  0
   -8.3583    3.0035  -11.1043 N   0  0  0  0  0  0  0  0  0  0  0  0
   -8.7615    1.8921   -8.8481 C   0  0  0  0  0  0  0  0  0  0  0  0
   -8.9687    2.4577   -7.4820 N   0  0  0  0  0  0  0  0  0  0  0  0
   -8.6676    3.8997   -7.5698 C   0  0  0  0  0  0  0  0  0  0  0  0
   -8.3407    2.0073   -6.8161 H   0  0  0  0  0  0  0  0  0  0  0  0
  1  2  1  0  0  0
  2  3  1  0  0  0
  3  4  2  0  0  0
  3  5  1  0  0  0
  5  6  1  0  0  0
  6  7  2  0  0  0
  7 15  1  0  0  0
 15 16  2  0  0  0
 15 17  1  0  0  0
 17 19  1  0  0  0
 19 20  2  0  0  0
 20 21  1  0  0  0
 21 22  2  0  0  0
 22 23  1  0  0  0
 23 24  2  0  0  0
 23 25  1  0  0  0
 25 26  1  0  0  0
 26 27  1  0  0  0
  7  8  1  0  0  0
  8  9  2  0  0  0
  9 10  1  0  0  0
  9 11  1  0  0  0
 11 12  2  0  0  0
 12  2  1  0  0  0
 12  6  1  0  0  0
 24 19  1  0  0  0
 27 22  1  0  0  0
  1 13  1  0  0  0
  1 14  1  0  0  0
 17 18  1  0  0  0
 26 28  1  0  0  0
M  END
> <minimizedAffinity>
-9.04607

> <minimizedRMSD>
0.15859

$$$$
P22895


 35 39  0  0  0  0  0  0  0  0999 V2000
   -6.0633    5.9587  -15.8616 C   0  0  0  0  0  0  0  0  0  0  0  0
   -5.0242    5.0329  -15.2304 C   0  0  0  0  0  0  0  0  0  0  0  0
   -7.2571    5.1178  -16.2802 C   0  0  0  0  0  0  0  0  0  0  0  0
   -8.3228    4.5885  -15.5484 C   0  0  0  0  0  0  0  0  0  0  0  0
   -9.2417    3.7646  -16.2123 C   0  0  0  0  0  0  0  0  0  0  0  0
   -9.0841    3.4814  -17.5699 C   0  0  0  0  0  0  0  0  0  0  0  0
  -10.0003    2.7352  -18.1976 F   0  0  0  0  0  0  0  0  0  0  0  0
   -8.0462    4.0285  -18.3071 C   0  0  0  0  0  0  0  0  0  0  0  0
   -7.1629    4.8766  -17.6610 C   0  0  0  0  0  0  0  0  0  0  0  0
   -6.2110    5.6733  -18.3127 N   0  0  0  0  0  0  0  0  0  0  0  0
   -5.1321    4.9882  -18.9851 C   0  0  0  0  0  0  0  0  0  0  0  0
   -3.8996    5.6769  -18.3708 C   0  0  0  0  0  0  0  0  0  0  0  0
   -4.1422    6.5311  -17.4160 N   0  0  0  0  0  0  0  0  0  0  0  0
   -5.6124    6.5064  -17.2666 C   0  0  0  0  0  0  0  0  0  0  0  0
   -8.6651    5.0336  -14.1653 C   0  0  0  0  0  0  0  0  0  0  0  0
   -9.4066    5.9264  -14.0449 O   0  0  0  0  0  0  0  0  0  0  0  0
   -7.9733    4.1538  -13.0973 N   0  0  0  0  0  0  0  0  0  0  0  0
   -7.3246    3.5052  -13.4546 H   0  0  0  0  0  0  0  0  0  0  0  0
   -8.1195    4.1301  -11.7086 C   0  0  0  0  0  0  0  0  0  0  0  0
   -8.0460    5.3257  -10.9703 C   0  0  0  0  0  0  0  0  0  0  0  0
   -8.1764    5.3286   -9.5784 C   0  0  0  0  0  0  0  0  0  0  0  0
   -8.4203    4.1261   -8.9475 C   0  0  0  0  0  0  0  0  0  0  0  0
   -8.5120    2.9401   -9.6720 C   0  0  0  0  0  0  0  0  0  0  0  0
   -8.3437    2.9175  -11.0504 C   0  0  0  0  0  0  0  0  0  0  0  0
   -8.7709    1.8195   -8.7176 C   0  0  0  0  0  0  0  0  0  0  0  0
   -9.2129    2.4802   -7.4568 N   0  0  0  0  0  0  0  0  0  0  0  0
   -8.6093    3.8289   -7.4980 C   0  0  0  0  0  0  0  0  0  0  0  0
   -8.8777    1.9624   -6.6445 H   0  0  0  0  0  0  0  0  0  0  0  0
   -2.6146    5.4038  -18.7966 N   0  0  0  0  0  0  0  0  0  0  0  0
   -1.4857    5.8536  -17.9859 C   0  0  0  0  0  0  0  0  0  0  0  0
   -2.3434    4.2397  -19.6062 C   0  0  0  0  0  0  0  0  0  0  0  0
   -6.4716    7.0104  -14.9933 O   0  0  0  0  0  0  0  0  0  0  0  0
   -4.9907    8.8259  -14.5878 C   0  0  0  0  0  0  0  0  0  0  0  0
   -5.5184    7.4986  -14.0544 C   0  0  0  0  0  0  0  0  0  0  0  0
   -6.2214    7.7101  -12.7184 C   0  0  0  0  0  0  0  0  0  0  0  0
 33 34  1  0  0  0
 34 35  1  0  0  0
 34 32  1  0  0  0
 32  1  1  0  0  0
  1  2  1  0  0  0
  1  3  1  0  0  0
  3  4  2  0  0  0
  4 15  1  0  0  0
 15 16  2  0  0  0
 15 17  1  0  0  0
 17 19  1  0  0  0
 19 20  2  0  0  0
 20 21  1  0  0  0
 21 22  2  0  0  0
 22 23  1  0  0  0
 23 24  2  0  0  0
 23 25  1  0  0  0
 25 26  1  0  0  0
 26 27  1  0  0  0
  4  5  1  0  0  0
  5  6  2  0  0  0
  6  7  1  0  0  0
  6  8  1  0  0  0
  8  9  2  0  0  0
  9 10  1  0  0  0
 10 11  1  0  0  0
 11 12  1  0  0  0
 12 29  1  0  0  0
 29 30  1  0  0  0
 29 31  1  0  0  0
 12 13  2  0  0  0
 14 13  1  0  0  0
 14  1  1  0  0  0
  9  3  1  0  0  0
 14 10  1  0  0  0
 24 19  1  0  0  0
 27 22  1  0  0  0
 17 18  1  0  0  0
 26 28  1  0  0  0
M  END
> <minimizedAffinity>
-8.70917

> <minimizedRMSD>
0.86254

$$$$
P22903


 37 40  0  0  0  0  0  0  0  0999 V2000
   -5.7564    5.4682  -14.6370 C   0  0  0  0  0  0  0  0  0  0  0  0
   -4.7892    5.0569  -15.8040 C   0  0  0  0  0  0  0  0  0  0  0  0
   -3.5745    4.9280  -15.7844 O   0  0  0  0  0  0  0  0  0  0  0  0
   -5.5582    4.8616  -16.9438 N   0  0  0  0  0  0  0  0  0  0  0  0
   -6.9141    4.8821  -16.6464 C   0  0  0  0  0  0  0  0  0  0  0  0
   -7.9612    4.6068  -17.5074 C   0  0  0  0  0  0  0  0  0  0  0  0
   -9.2403    4.5395  -16.9696 C   0  0  0  0  0  0  0  0  0  0  0  0
  -10.2916    4.2354  -17.7436 F   0  0  0  0  0  0  0  0  0  0  0  0
   -9.4561    4.7685  -15.6049 C   0  0  0  0  0  0  0  0  0  0  0  0
   -8.3832    5.0986  -14.7667 C   0  0  0  0  0  0  0  0  0  0  0  0
   -7.1013    5.1514  -15.2946 C   0  0  0  0  0  0  0  0  0  0  0  0
   -5.1893    4.7261  -17.8465 H   0  0  0  0  0  0  0  0  0  0  0  0
   -8.6194    5.4392  -13.3521 C   0  0  0  0  0  0  0  0  0  0  0  0
   -8.9529    6.5264  -13.0956 O   0  0  0  0  0  0  0  0  0  0  0  0
   -8.3184    4.2415  -12.4282 N   0  0  0  0  0  0  0  0  0  0  0  0
   -7.9765    3.4414  -12.8888 H   0  0  0  0  0  0  0  0  0  0  0  0
   -8.4512    4.1078  -11.0499 C   0  0  0  0  0  0  0  0  0  0  0  0
   -8.1832    5.1831  -10.1881 C   0  0  0  0  0  0  0  0  0  0  0  0
   -8.3121    5.0389   -8.8040 C   0  0  0  0  0  0  0  0  0  0  0  0
   -8.7038    3.8093   -8.3088 C   0  0  0  0  0  0  0  0  0  0  0  0
   -8.9615    2.7434   -9.1610 C   0  0  0  0  0  0  0  0  0  0  0  0
   -8.8425    2.8711  -10.5347 C   0  0  0  0  0  0  0  0  0  0  0  0
   -9.3154    1.5399   -8.3585 C   0  0  0  0  0  0  0  0  0  0  0  0
   -9.4537    2.0060   -6.9526 N   0  0  0  0  0  0  0  0  0  0  0  0
   -8.9054    3.3774   -6.8978 C   0  0  0  0  0  0  0  0  0  0  0  0
   -8.9299    1.3938   -6.3271 H   0  0  0  0  0  0  0  0  0  0  0  0
   -5.4582    4.5662  -13.3969 C   0  0  0  0  0  0  0  0  0  0  0  0
   -5.1454    4.9702  -12.2827 O   0  0  0  0  0  0  0  0  0  0  0  0
   -5.5850    3.2370  -13.6998 O   0  0  0  0  0  0  0  0  0  0  0  0
   -3.4830    2.0099  -13.5838 C   0  0  0  0  0  0  0  0  0  0  0  0
   -4.7995    2.3312  -12.9019 C   0  0  0  0  0  0  0  0  0  0  0  0
   -7.6683    4.2719  -18.8521 C   0  0  0  0  0  0  0  0  0  0  0  0
   -7.2036    4.0412  -19.8931 N   0  0  0  0  0  0  0  0  0  0  0  0
   -5.7355    6.8949  -14.6330 O   0  0  0  0  0  0  0  0  0  0  0  0
   -4.8568    7.5560  -13.7274 C   0  0  0  0  0  0  0  0  0  0  0  0
   -3.8827    8.4624  -14.4723 C   0  0  0  0  0  0  0  0  0  0  0  0
   -5.7382    8.4016  -12.8096 C   0  0  0  0  0  0  0  0  0  0  0  0
 30 31  1  0  0  0
 31 29  1  0  0  0
 29 27  1  0  0  0
 27 28  2  0  0  0
 27  1  1  0  0  0
  1 34  1  0  0  0
 34 35  1  0  0  0
 35 36  1  0  0  0
 35 37  1  0  0  0
  1  2  1  0  0  0
  2  3  2  0  0  0
  2  4  1  0  0  0
  4  5  1  0  0  0
  5  6  2  0  0  0
  6 32  1  0  0  0
 32 33  3  0  0  0
  6  7  1  0  0  0
  7  8  1  0  0  0
  7  9  2  0  0  0
  9 10  1  0  0  0
 10 13  1  0  0  0
 13 14  2  0  0  0
 13 15  1  0  0  0
 15 17  1  0  0  0
 17 18  2  0  0  0
 18 19  1  0  0  0
 19 20  2  0  0  0
 20 21  1  0  0  0
 21 22  2  0  0  0
 21 23  1  0  0  0
 23 24  1  0  0  0
 24 25  1  0  0  0
 10 11  2  0  0  0
 11  1  1  0  0  0
 11  5  1  0  0  0
 22 17  1  0  0  0
 25 20  1  0  0  0
  4 12  1  0  0  0
 15 16  1  0  0  0
 24 26  1  0  0  0
M  END
> <minimizedAffinity>
-5.94121

> <minimizedRMSD>
0.92505

$$$$
P22904


 31 34  0  0  0  0  0  0  0  0999 V2000
   -5.5929    5.4403  -16.5489 C   0  0  0  0  0  0  0  0  0  0  0  0
   -4.7547    4.5996  -15.5896 C   0  0  0  0  0  0  0  0  0  0  0  0
   -5.1576    5.1741  -18.0394 C   0  0  0  0  0  0  0  0  0  0  0  0
   -4.0232    5.1886  -18.4962 O   0  0  0  0  0  0  0  0  0  0  0  0
   -6.3087    4.9108  -18.7719 N   0  0  0  0  0  0  0  0  0  0  0  0
   -7.4095    4.7838  -17.9412 C   0  0  0  0  0  0  0  0  0  0  0  0
   -8.6817    4.4188  -18.3260 C   0  0  0  0  0  0  0  0  0  0  0  0
   -9.6272    4.2739  -17.3201 C   0  0  0  0  0  0  0  0  0  0  0  0
  -10.8739    3.9122  -17.6481 F   0  0  0  0  0  0  0  0  0  0  0  0
   -9.3112    4.5031  -15.9755 C   0  0  0  0  0  0  0  0  0  0  0  0
   -8.0176    4.9014  -15.6164 C   0  0  0  0  0  0  0  0  0  0  0  0
   -7.0550    5.0321  -16.6120 C   0  0  0  0  0  0  0  0  0  0  0  0
   -6.3378    4.8258  -19.7523 H   0  0  0  0  0  0  0  0  0  0  0  0
   -7.7090    5.2139  -14.2081 C   0  0  0  0  0  0  0  0  0  0  0  0
   -7.4397    6.3581  -13.8740 O   0  0  0  0  0  0  0  0  0  0  0  0
   -7.6449    4.0814  -13.2091 C   0  0  0  0  0  0  0  0  0  0  0  0
   -7.1683    3.0231  -13.6109 O   0  0  0  0  0  0  0  0  0  0  0  0
   -8.0281    4.2452  -11.7827 C   0  0  0  0  0  0  0  0  0  0  0  0
   -7.8843    5.4465  -11.0601 C   0  0  0  0  0  0  0  0  0  0  0  0
   -8.1108    5.4845   -9.6768 C   0  0  0  0  0  0  0  0  0  0  0  0
   -8.5039    4.3208   -9.0419 C   0  0  0  0  0  0  0  0  0  0  0  0
   -8.7059    3.1534   -9.7607 C   0  0  0  0  0  0  0  0  0  0  0  0
   -8.4679    3.0935  -11.1202 C   0  0  0  0  0  0  0  0  0  0  0  0
   -9.1128    2.0553   -8.8441 C   0  0  0  0  0  0  0  0  0  0  0  0
   -9.2932    2.6825   -7.5073 N   0  0  0  0  0  0  0  0  0  0  0  0
   -8.7327    4.0479   -7.5945 C   0  0  0  0  0  0  0  0  0  0  0  0
   -8.7966    2.1442   -6.7973 H   0  0  0  0  0  0  0  0  0  0  0  0
   -5.6386    6.8336  -16.2670 O   0  0  0  0  0  0  0  0  0  0  0  0
   -4.7502    8.3164  -14.6620 C   0  0  0  0  0  0  0  0  0  0  0  0
   -4.4475    7.5435  -15.9451 C   0  0  0  0  0  0  0  0  0  0  0  0
   -4.0422    8.5203  -17.0421 C   0  0  0  0  0  0  0  0  0  0  0  0
 29 30  1  0  0  0
 30 31  1  0  0  0
 30 28  1  0  0  0
 28  1  1  0  0  0
  1  2  1  0  0  0
  1  3  1  0  0  0
  3  4  2  0  0  0
  3  5  1  0  0  0
  5  6  1  0  0  0
  6  7  2  0  0  0
  7  8  1  0  0  0
  8  9  1  0  0  0
  8 10  2  0  0  0
 10 11  1  0  0  0
 11 14  1  0  0  0
 14 15  2  0  0  0
 14 16  1  0  0  0
 16 17  2  0  0  0
 16 18  1  0  0  0
 18 19  2  0  0  0
 19 20  1  0  0  0
 20 21  2  0  0  0
 21 22  1  0  0  0
 22 23  2  0  0  0
 22 24  1  0  0  0
 24 25  1  0  0  0
 25 26  1  0  0  0
 11 12  2  0  0  0
 12  1  1  0  0  0
 12  6  1  0  0  0
 23 18  1  0  0  0
 26 21  1  0  0  0
  5 13  1  0  0  0
 25 27  1  0  0  0
M  END
> <minimizedAffinity>
-8.34208

> <minimizedRMSD>
0.75429

$$$$
P22906


 33 36  0  0  0  0  0  0  0  0999 V2000
   -4.9967    5.2887  -15.5467 C   0  0  0  0  0  0  0  0  0  0  0  0
   -4.0946    4.1202  -15.1247 C   0  0  0  0  0  0  0  0  0  0  0  0
   -4.4266    5.7608  -16.9348 C   0  0  0  0  0  0  0  0  0  0  0  0
   -3.2950    6.1698  -17.1593 O   0  0  0  0  0  0  0  0  0  0  0  0
   -5.4465    5.6356  -17.8726 N   0  0  0  0  0  0  0  0  0  0  0  0
   -6.6203    5.1410  -17.2948 C   0  0  0  0  0  0  0  0  0  0  0  0
   -7.8360    4.9016  -17.9154 C   0  0  0  0  0  0  0  0  0  0  0  0
   -8.8651    4.3776  -17.1545 C   0  0  0  0  0  0  0  0  0  0  0  0
  -10.0327    4.0920  -17.7418 F   0  0  0  0  0  0  0  0  0  0  0  0
   -8.7072    4.1467  -15.7928 C   0  0  0  0  0  0  0  0  0  0  0  0
   -7.4852    4.4231  -15.1571 C   0  0  0  0  0  0  0  0  0  0  0  0
   -6.4196    4.8943  -15.9275 C   0  0  0  0  0  0  0  0  0  0  0  0
   -5.2955    6.1032  -19.2150 C   0  0  0  0  0  0  0  0  0  0  0  0
   -5.3223    5.0233  -20.1200 O   0  0  0  0  0  0  0  0  0  0  0  0
   -4.5925    4.4162  -19.9207 H   0  0  0  0  0  0  0  0  0  0  0  0
   -7.3776    4.2552  -13.6900 C   0  0  0  0  0  0  0  0  0  0  0  0
   -6.4787    3.6193  -13.1630 O   0  0  0  0  0  0  0  0  0  0  0  0
   -8.3462    4.9678  -12.7853 C   0  0  0  0  0  0  0  0  0  0  0  0
   -9.0347    5.8774  -13.2376 O   0  0  0  0  0  0  0  0  0  0  0  0
   -8.3322    4.6665  -11.3468 C   0  0  0  0  0  0  0  0  0  0  0  0
   -8.0944    5.7478  -10.4754 C   0  0  0  0  0  0  0  0  0  0  0  0
   -8.1677    5.5699   -9.0961 C   0  0  0  0  0  0  0  0  0  0  0  0
   -8.5209    4.3185   -8.6275 C   0  0  0  0  0  0  0  0  0  0  0  0
   -8.7324    3.2423   -9.4938 C   0  0  0  0  0  0  0  0  0  0  0  0
   -8.6205    3.3854  -10.8669 C   0  0  0  0  0  0  0  0  0  0  0  0
   -9.1111    2.0469   -8.6791 C   0  0  0  0  0  0  0  0  0  0  0  0
   -9.5335    2.6064   -7.3664 N   0  0  0  0  0  0  0  0  0  0  0  0
   -8.7884    3.8742   -7.2269 C   0  0  0  0  0  0  0  0  0  0  0  0
   -9.2930    1.9653   -6.6104 H   0  0  0  0  0  0  0  0  0  0  0  0
   -4.9947    6.2027  -14.4583 O   0  0  0  0  0  0  0  0  0  0  0  0
   -6.3435    7.9158  -13.5448 C   0  0  0  0  0  0  0  0  0  0  0  0
   -5.4133    7.5396  -14.6948 C   0  0  0  0  0  0  0  0  0  0  0  0
   -4.1986    8.4607  -14.6891 C   0  0  0  0  0  0  0  0  0  0  0  0
 31 32  1  0  0  0
 32 33  1  0  0  0
 32 30  1  0  0  0
 30  1  1  0  0  0
  1  2  1  0  0  0
  1  3  1  0  0  0
  3  4  2  0  0  0
  3  5  1  0  0  0
  5 13  1  0  0  0
 13 14  1  0  0  0
  5  6  1  0  0  0
  6  7  2  0  0  0
  7  8  1  0  0  0
  8  9  1  0  0  0
  8 10  2  0  0  0
 10 11  1  0  0  0
 11 16  1  0  0  0
 16 17  2  0  0  0
 16 18  1  0  0  0
 18 19  2  0  0  0
 18 20  1  0  0  0
 20 21  2  0  0  0
 21 22  1  0  0  0
 22 23  2  0  0  0
 23 24  1  0  0  0
 24 25  2  0  0  0
 24 26  1  0  0  0
 26 27  1  0  0  0
 27 28  1  0  0  0
 11 12  2  0  0  0
 12  1  1  0  0  0
 12  6  1  0  0  0
 25 20  1  0  0  0
 28 23  1  0  0  0
 14 15  1  0  0  0
 27 29  1  0  0  0
M  END
> <minimizedAffinity>
-8.21503

> <minimizedRMSD>
0.47685

$$$$
P22907


 33 36  0  0  0  0  0  0  0  0999 V2000
   -5.4202    5.2343  -15.9964 C   0  0  0  0  0  0  0  0  0  0  0  0
   -5.0783    6.6506  -15.5218 C   0  0  0  0  0  0  0  0  0  0  0  0
   -4.8135    5.1374  -17.4435 C   0  0  0  0  0  0  0  0  0  0  0  0
   -3.6249    5.2135  -17.7361 O   0  0  0  0  0  0  0  0  0  0  0  0
   -5.8996    4.9667  -18.3183 N   0  0  0  0  0  0  0  0  0  0  0  0
   -5.7660    4.9502  -19.6956 N   0  0  0  0  0  0  0  0  0  0  0  0
   -7.1035    4.8059  -17.6368 C   0  0  0  0  0  0  0  0  0  0  0  0
   -8.3457    4.5047  -18.1717 C   0  0  0  0  0  0  0  0  0  0  0  0
   -9.4008    4.3392  -17.2870 C   0  0  0  0  0  0  0  0  0  0  0  0
  -10.6132    4.0226  -17.7564 F   0  0  0  0  0  0  0  0  0  0  0  0
   -9.2335    4.5317  -15.9169 C   0  0  0  0  0  0  0  0  0  0  0  0
   -7.9817    4.8885  -15.4045 C   0  0  0  0  0  0  0  0  0  0  0  0
   -6.8942    4.9823  -16.2635 C   0  0  0  0  0  0  0  0  0  0  0  0
   -4.7865    5.0891  -19.9439 H   0  0  0  0  0  0  0  0  0  0  0  0
   -6.3288    5.6981  -20.1009 H   0  0  0  0  0  0  0  0  0  0  0  0
   -7.9188    5.3524  -14.0070 C   0  0  0  0  0  0  0  0  0  0  0  0
   -7.6502    6.4727  -13.8236 O   0  0  0  0  0  0  0  0  0  0  0  0
   -8.3105    4.2423  -13.0113 N   0  0  0  0  0  0  0  0  0  0  0  0
   -8.5672    3.3876  -13.4270 H   0  0  0  0  0  0  0  0  0  0  0  0
   -8.3604    4.2518  -11.6207 C   0  0  0  0  0  0  0  0  0  0  0  0
   -8.0558    5.4123  -10.8901 C   0  0  0  0  0  0  0  0  0  0  0  0
   -8.1261    5.4186   -9.4934 C   0  0  0  0  0  0  0  0  0  0  0  0
   -8.4996    4.2521   -8.8526 C   0  0  0  0  0  0  0  0  0  0  0  0
   -8.7934    3.1033   -9.5742 C   0  0  0  0  0  0  0  0  0  0  0  0
   -8.7286    3.0816  -10.9574 C   0  0  0  0  0  0  0  0  0  0  0  0
   -9.1314    1.9974   -8.6366 C   0  0  0  0  0  0  0  0  0  0  0  0
   -9.1959    2.6073   -7.2809 N   0  0  0  0  0  0  0  0  0  0  0  0
   -8.6528    3.9771   -7.3972 C   0  0  0  0  0  0  0  0  0  0  0  0
   -8.6357    2.0630   -6.6248 H   0  0  0  0  0  0  0  0  0  0  0  0
   -4.8617    4.1348  -15.2701 O   0  0  0  0  0  0  0  0  0  0  0  0
   -4.9376    3.2988  -13.0484 C   0  0  0  0  0  0  0  0  0  0  0  0
   -4.3300    4.3562  -13.9673 C   0  0  0  0  0  0  0  0  0  0  0  0
   -2.8140    4.1945  -13.9961 C   0  0  0  0  0  0  0  0  0  0  0  0
 31 32  1  0  0  0
 32 33  1  0  0  0
 32 30  1  0  0  0
 30  1  1  0  0  0
  1  2  1  0  0  0
  1  3  1  0  0  0
  3  4  2  0  0  0
  3  5  1  0  0  0
  5  6  1  0  0  0
  5  7  1  0  0  0
  7  8  2  0  0  0
  8  9  1  0  0  0
  9 10  1  0  0  0
  9 11  2  0  0  0
 11 12  1  0  0  0
 12 16  1  0  0  0
 16 17  2  0  0  0
 16 18  1  0  0  0
 18 20  1  0  0  0
 20 21  2  0  0  0
 21 22  1  0  0  0
 22 23  2  0  0  0
 23 24  1  0  0  0
 24 25  2  0  0  0
 24 26  1  0  0  0
 26 27  1  0  0  0
 27 28  1  0  0  0
 12 13  2  0  0  0
 13  1  1  0  0  0
 13  7  1  0  0  0
 25 20  1  0  0  0
 28 23  1  0  0  0
  6 14  1  0  0  0
  6 15  1  0  0  0
 18 19  1  0  0  0
 27 29  1  0  0  0
M  END
> <minimizedAffinity>
-9.02694

> <minimizedRMSD>
0.33325

$$$$
P22910


 36 39  0  0  0  0  0  0  0  0999 V2000
   -5.5327    5.6600  -15.2391 C   0  0  0  0  0  0  0  0  0  0  0  0
   -5.0090    4.8060  -14.0871 C   0  0  0  0  0  0  0  0  0  0  0  0
   -4.5998    5.5529  -16.4893 C   0  0  0  0  0  0  0  0  0  0  0  0
   -3.3930    5.7640  -16.5111 O   0  0  0  0  0  0  0  0  0  0  0  0
   -5.4057    5.2308  -17.5758 N   0  0  0  0  0  0  0  0  0  0  0  0
   -6.7237    4.9800  -17.1829 C   0  0  0  0  0  0  0  0  0  0  0  0
   -7.7938    4.5701  -17.9595 C   0  0  0  0  0  0  0  0  0  0  0  0
   -8.9908    4.2824  -17.3224 C   0  0  0  0  0  0  0  0  0  0  0  0
  -10.0275    3.8671  -18.0603 F   0  0  0  0  0  0  0  0  0  0  0  0
   -9.1379    4.4422  -15.9451 C   0  0  0  0  0  0  0  0  0  0  0  0
   -8.0675    4.9216  -15.1866 C   0  0  0  0  0  0  0  0  0  0  0  0
   -6.8477    5.1686  -15.8053 C   0  0  0  0  0  0  0  0  0  0  0  0
   -4.9317    5.2801  -18.9211 C   0  0  0  0  0  0  0  0  0  0  0  0
   -5.9140    4.7938  -19.7989 O   0  0  0  0  0  0  0  0  0  0  0  0
   -6.1221    3.8736  -19.5734 H   0  0  0  0  0  0  0  0  0  0  0  0
   -8.2681    5.2222  -13.7620 C   0  0  0  0  0  0  0  0  0  0  0  0
   -8.5836    6.3492  -13.4164 O   0  0  0  0  0  0  0  0  0  0  0  0
   -8.0008    4.1350  -12.7550 C   0  0  0  0  0  0  0  0  0  0  0  0
   -7.5559    3.0817  -13.2139 O   0  0  0  0  0  0  0  0  0  0  0  0
   -8.1728    4.3289  -11.2830 C   0  0  0  0  0  0  0  0  0  0  0  0
   -7.6926    5.4674  -10.6047 C   0  0  0  0  0  0  0  0  0  0  0  0
   -7.7425    5.5486   -9.2075 C   0  0  0  0  0  0  0  0  0  0  0  0
   -8.2842    4.4900   -8.5053 C   0  0  0  0  0  0  0  0  0  0  0  0
   -8.8053    3.3891   -9.1678 C   0  0  0  0  0  0  0  0  0  0  0  0
   -8.7262    3.2632  -10.5447 C   0  0  0  0  0  0  0  0  0  0  0  0
   -9.3633    2.1921  -11.1699 N   0  0  0  0  0  0  0  0  0  0  0  0
   -9.4342    2.4706   -8.1762 C   0  0  0  0  0  0  0  0  0  0  0  0
   -8.9840    2.9415   -6.8382 N   0  0  0  0  0  0  0  0  0  0  0  0
   -8.4515    4.3060   -7.0366 C   0  0  0  0  0  0  0  0  0  0  0  0
   -9.7411    1.4608  -10.6298 H   0  0  0  0  0  0  0  0  0  0  0  0
   -9.4354    2.1672  -12.1514 H   0  0  0  0  0  0  0  0  0  0  0  0
   -8.2553    2.3274   -6.4744 H   0  0  0  0  0  0  0  0  0  0  0  0
   -5.7577    7.0233  -14.8773 O   0  0  0  0  0  0  0  0  0  0  0  0
   -4.0526    8.6287  -14.4549 C   0  0  0  0  0  0  0  0  0  0  0  0
   -4.9461    7.5606  -13.8356 C   0  0  0  0  0  0  0  0  0  0  0  0
   -5.8670    8.1740  -12.7882 C   0  0  0  0  0  0  0  0  0  0  0  0
 34 35  1  0  0  0
 35 36  1  0  0  0
 35 33  1  0  0  0
 33  1  1  0  0  0
  1  2  1  0  0  0
  1  3  1  0  0  0
  3  4  2  0  0  0
  3  5  1  0  0  0
  5 13  1  0  0  0
 13 14  1  0  0  0
  5  6  1  0  0  0
  6  7  2  0  0  0
  7  8  1  0  0  0
  8  9  1  0  0  0
  8 10  2  0  0  0
 10 11  1  0  0  0
 11 16  1  0  0  0
 16 17  2  0  0  0
 16 18  1  0  0  0
 18 19  2  0  0  0
 18 20  1  0  0  0
 20 21  2  0  0  0
 21 22  1  0  0  0
 22 23  2  0  0  0
 23 24  1  0  0  0
 24 25  2  0  0  0
 25 26  1  0  0  0
 24 27  1  0  0  0
 27 28  1  0  0  0
 28 29  1  0  0  0
 11 12  2  0  0  0
 12  1  1  0  0  0
 12  6  1  0  0  0
 25 20  1  0  0  0
 29 23  1  0  0  0
 14 15  1  0  0  0
 26 30  1  0  0  0
 26 31  1  0  0  0
 28 32  1  0  0  0
M  END
> <minimizedAffinity>
-8.59799

> <minimizedRMSD>
0.81761

$$$$
P22919


 43 47  0  0  0  0  0  0  0  0999 V2000
   -7.2134    5.6673  -13.3959 C   0  0  0  0  0  0  0  0  0  0  0  0
   -6.7695    6.7090  -13.1298 O   0  0  0  0  0  0  0  0  0  0  0  0
   -7.6837    4.5216  -12.4844 N   0  0  0  0  0  0  0  0  0  0  0  0
   -8.0963    3.7624  -12.9563 H   0  0  0  0  0  0  0  0  0  0  0  0
   -7.6186    4.3772  -11.0436 C   0  0  0  0  0  0  0  0  0  0  0  0
   -8.4017    3.1080  -10.6393 C   0  0  0  0  0  0  0  0  0  0  0  0
   -8.7807    3.1247   -9.2080 C   0  0  0  0  0  0  0  0  0  0  0  0
   -8.6526    4.1737   -8.3914 C   0  0  0  0  0  0  0  0  0  0  0  0
   -9.0482    3.7884   -7.0159 C   0  0  0  0  0  0  0  0  0  0  0  0
   -9.5526    2.4002   -7.1073 N   0  0  0  0  0  0  0  0  0  0  0  0
   -9.2663    1.9323   -8.4806 C   0  0  0  0  0  0  0  0  0  0  0  0
   -8.1223    5.5127   -8.7953 C   0  0  0  0  0  0  0  0  0  0  0  0
   -8.1564    5.6341  -10.3414 C   0  0  0  0  0  0  0  0  0  0  0  0
   -6.7449    5.6719   -8.2684 N   0  0  0  0  0  0  0  0  0  0  0  0
   -6.8639    6.6268   -7.1913 N   0  0  0  0  0  0  0  0  0  0  0  0
   -7.9187    7.4693   -7.5879 N   0  0  0  0  0  0  0  0  0  0  0  0
   -8.8887    6.6126   -8.1836 N   0  0  0  0  0  0  0  0  0  0  0  0
  -10.5570    2.3790   -6.9312 H   0  0  0  0  0  0  0  0  0  0  0  0
   -6.1221    6.0263   -8.9944 H   0  0  0  0  0  0  0  0  0  0  0  0
   -5.9996    7.1572   -7.0817 H   0  0  0  0  0  0  0  0  0  0  0  0
   -7.5892    8.1586   -8.2637 H   0  0  0  0  0  0  0  0  0  0  0  0
   -9.4193    7.1156   -8.8948 H   0  0  0  0  0  0  0  0  0  0  0  0
   -5.0761    5.6501  -15.8004 C   0  0  0  0  0  0  0  0  0  0  0  0
   -4.9248    7.1809  -15.9168 C   0  0  0  0  0  0  0  0  0  0  0  0
   -4.6428    5.1013  -17.2205 C   0  0  0  0  0  0  0  0  0  0  0  0
   -3.5080    4.9340  -17.6428 O   0  0  0  0  0  0  0  0  0  0  0  0
   -5.8173    4.8566  -17.9246 N   0  0  0  0  0  0  0  0  0  0  0  0
   -6.9342    4.9221  -17.1009 C   0  0  0  0  0  0  0  0  0  0  0  0
   -8.2353    4.5919  -17.4379 C   0  0  0  0  0  0  0  0  0  0  0  0
   -9.1576    4.5942  -16.3989 C   0  0  0  0  0  0  0  0  0  0  0  0
  -10.4162    4.2373  -16.6637 F   0  0  0  0  0  0  0  0  0  0  0  0
   -8.8193    4.9443  -15.1031 C   0  0  0  0  0  0  0  0  0  0  0  0
   -7.5049    5.3124  -14.8010 C   0  0  0  0  0  0  0  0  0  0  0  0
   -6.5546    5.3081  -15.8083 C   0  0  0  0  0  0  0  0  0  0  0  0
   -5.8528    4.6610  -18.8888 H   0  0  0  0  0  0  0  0  0  0  0  0
   -8.7946    4.2595  -18.7747 C   0  0  0  0  0  0  0  0  0  0  0  0
   -7.8176    3.8513  -19.7687 N   0  0  0  0  0  0  0  0  0  0  0  0
   -7.1741    4.6217  -19.9494 H   0  0  0  0  0  0  0  0  0  0  0  0
   -8.2969    3.5988  -20.6329 H   0  0  0  0  0  0  0  0  0  0  0  0
   -4.4295    5.3118  -14.5967 O   0  0  0  0  0  0  0  0  0  0  0  0
   -4.4846    3.1854  -13.4750 C   0  0  0  0  0  0  0  0  0  0  0  0
   -3.7696    4.0590  -14.4968 C   0  0  0  0  0  0  0  0  0  0  0  0
   -2.3598    4.3662  -13.9993 C   0  0  0  0  0  0  0  0  0  0  0  0
 41 42  1  0  0  0
 42 43  1  0  0  0
 42 40  1  0  0  0
 40 23  1  0  0  0
 23 24  1  0  0  0
 23 25  1  0  0  0
 25 26  2  0  0  0
 25 27  1  0  0  0
 27 28  1  0  0  0
 28 29  2  0  0  0
 29 36  1  0  0  0
 36 37  1  0  0  0
 29 30  1  0  0  0
 30 31  1  0  0  0
 30 32  2  0  0  0
 32 33  1  0  0  0
 33  1  1  0  0  0
  1  2  2  0  0  0
  1  3  1  0  0  0
  5  3  1  0  0  0
  5  6  1  0  0  0
  6  7  1  0  0  0
  7  8  2  0  0  0
  8  9  1  0  0  0
  9 10  1  0  0  0
 10 11  1  0  0  0
  8 12  1  0  0  0
 12 13  1  0  0  0
 12 14  1  0  0  0
 14 15  1  0  0  0
 15 16  1  0  0  0
 16 17  1  0  0  0
 33 34  2  0  0  0
 34 23  1  0  0  0
 34 28  1  0  0  0
 13  5  1  0  0  0
 11  7  1  0  0  0
 17 12  1  0  0  0
 27 35  1  0  0  0
 37 38  1  0  0  0
 37 39  1  0  0  0
  3  4  1  0  0  0
 10 18  1  0  0  0
 14 19  1  0  0  0
 15 20  1  0  0  0
 16 21  1  0  0  0
 17 22  1  0  0  0
M  END
> <minimizedAffinity>
-7.18893

> <minimizedRMSD>
0.16114

$$$$
P22921


 33 36  0  0  0  0  0  0  0  0999 V2000
   -5.4491    5.4939  -14.0350 C   0  0  0  0  0  0  0  0  0  0  0  0
   -5.5991    6.8375  -13.3217 C   0  0  0  0  0  0  0  0  0  0  0  0
   -4.1775    5.5775  -14.9674 C   0  0  0  0  0  0  0  0  0  0  0  0
   -3.0044    5.6835  -14.6462 O   0  0  0  0  0  0  0  0  0  0  0  0
   -4.6147    5.5208  -16.2771 N   0  0  0  0  0  0  0  0  0  0  0  0
   -5.9793    5.2774  -16.3474 C   0  0  0  0  0  0  0  0  0  0  0  0
   -6.7044    4.9964  -17.4909 C   0  0  0  0  0  0  0  0  0  0  0  0
   -8.0413    4.6482  -17.3308 C   0  0  0  0  0  0  0  0  0  0  0  0
   -8.7848    4.2935  -18.3873 F   0  0  0  0  0  0  0  0  0  0  0  0
   -8.6360    4.6317  -16.0597 C   0  0  0  0  0  0  0  0  0  0  0  0
   -7.8823    4.9621  -14.9264 C   0  0  0  0  0  0  0  0  0  0  0  0
   -6.5356    5.2650  -15.0717 C   0  0  0  0  0  0  0  0  0  0  0  0
   -4.0315    5.6383  -17.0615 H   0  0  0  0  0  0  0  0  0  0  0  0
   -8.5488    5.1149  -13.6213 C   0  0  0  0  0  0  0  0  0  0  0  0
   -9.4455    5.8586  -13.5611 O   0  0  0  0  0  0  0  0  0  0  0  0
   -7.9270    4.2106  -12.5404 N   0  0  0  0  0  0  0  0  0  0  0  0
   -7.2167    3.6105  -12.8639 H   0  0  0  0  0  0  0  0  0  0  0  0
   -8.2058    4.1037  -11.1799 C   0  0  0  0  0  0  0  0  0  0  0  0
   -8.1283    5.2221  -10.3331 C   0  0  0  0  0  0  0  0  0  0  0  0
   -8.4059    5.1089   -8.9668 C   0  0  0  0  0  0  0  0  0  0  0  0
   -8.7740    3.8705   -8.4750 C   0  0  0  0  0  0  0  0  0  0  0  0
   -8.8574    2.7656   -9.3114 C   0  0  0  0  0  0  0  0  0  0  0  0
   -8.5628    2.8576  -10.6625 C   0  0  0  0  0  0  0  0  0  0  0  0
   -9.2749    1.5728   -8.5227 C   0  0  0  0  0  0  0  0  0  0  0  0
   -9.5900    2.0686   -7.1549 N   0  0  0  0  0  0  0  0  0  0  0  0
   -9.1256    3.4692   -7.0848 C   0  0  0  0  0  0  0  0  0  0  0  0
   -9.1055    1.5037   -6.4574 H   0  0  0  0  0  0  0  0  0  0  0  0
   -6.0011    4.9179  -18.7251 C   0  0  0  0  0  0  0  0  0  0  0  0
   -5.2731    4.9843  -19.6319 N   0  0  0  0  0  0  0  0  0  0  0  0
   -5.5220    4.3609  -13.1874 O   0  0  0  0  0  0  0  0  0  0  0  0
   -4.5237    4.0652  -11.0156 C   0  0  0  0  0  0  0  0  0  0  0  0
   -4.3277    3.9548  -12.5241 C   0  0  0  0  0  0  0  0  0  0  0  0
   -4.0885    2.4977  -12.9041 C   0  0  0  0  0  0  0  0  0  0  0  0
 31 32  1  0  0  0
 32 33  1  0  0  0
 32 30  1  0  0  0
 30  1  1  0  0  0
  1  2  1  0  0  0
  1  3  1  0  0  0
  3  4  2  0  0  0
  3  5  1  0  0  0
  5  6  1  0  0  0
  6  7  2  0  0  0
  7 28  1  0  0  0
 28 29  3  0  0  0
  7  8  1  0  0  0
  8  9  1  0  0  0
  8 10  2  0  0  0
 10 11  1  0  0  0
 11 14  1  0  0  0
 14 15  2  0  0  0
 14 16  1  0  0  0
 16 18  1  0  0  0
 18 19  2  0  0  0
 19 20  1  0  0  0
 20 21  2  0  0  0
 21 22  1  0  0  0
 22 23  2  0  0  0
 22 24  1  0  0  0
 24 25  1  0  0  0
 25 26  1  0  0  0
 11 12  2  0  0  0
 12  1  1  0  0  0
 12  6  1  0  0  0
 23 18  1  0  0  0
 26 21  1  0  0  0
  5 13  1  0  0  0
 16 17  1  0  0  0
 25 27  1  0  0  0
M  END
> <minimizedAffinity>
-8.01393

> <minimizedRMSD>
1.22286

$$$$
P22923


 39 43  0  0  0  0  0  0  0  0999 V2000
   -4.2490    9.4299  -15.0303 C   0  0  0  0  0  0  0  0  0  0  0  0
   -5.0472    8.1639  -14.6756 C   0  0  0  0  0  0  0  0  0  0  0  0
   -4.9929    7.9716  -13.1625 C   0  0  0  0  0  0  0  0  0  0  0  0
   -5.8670    6.9074  -12.7945 N   0  0  0  0  0  0  0  0  0  0  0  0
   -7.1971    7.0262  -13.1217 C   0  0  0  0  0  0  0  0  0  0  0  0
   -7.7601    8.1228  -13.1602 O   0  0  0  0  0  0  0  0  0  0  0  0
   -7.9155    5.6775  -13.4143 C   0  0  0  0  0  0  0  0  0  0  0  0
   -9.2983    5.9581  -13.1749 O   0  0  0  0  0  0  0  0  0  0  0  0
   -7.7704    5.2672  -14.8958 C   0  0  0  0  0  0  0  0  0  0  0  0
   -8.9294    4.6937  -15.4902 C   0  0  0  0  0  0  0  0  0  0  0  0
   -9.0306    4.3765  -16.8430 C   0  0  0  0  0  0  0  0  0  0  0  0
  -10.1666    3.8509  -17.3143 F   0  0  0  0  0  0  0  0  0  0  0  0
   -7.9646    4.5679  -17.6850 C   0  0  0  0  0  0  0  0  0  0  0  0
   -6.7871    4.9787  -17.0934 C   0  0  0  0  0  0  0  0  0  0  0  0
   -6.6358    5.3517  -15.7363 C   0  0  0  0  0  0  0  0  0  0  0  0
   -5.1195    5.5431  -15.4566 C   0  0  0  0  0  0  0  0  0  0  0  0
   -4.5225    6.9863  -15.4995 C   0  0  0  0  0  0  0  0  0  0  0  0
   -4.5284    5.0070  -16.8547 C   0  0  0  0  0  0  0  0  0  0  0  0
   -3.3611    4.8314  -17.1754 O   0  0  0  0  0  0  0  0  0  0  0  0
   -5.5749    4.8973  -17.7427 N   0  0  0  0  0  0  0  0  0  0  0  0
   -5.5291    6.1129  -12.3213 H   0  0  0  0  0  0  0  0  0  0  0  0
   -9.4195    6.2194  -12.2486 H   0  0  0  0  0  0  0  0  0  0  0  0
   -5.4705    4.7765  -18.7142 H   0  0  0  0  0  0  0  0  0  0  0  0
   -7.5283    4.5846  -12.5277 N   0  0  0  0  0  0  0  0  0  0  0  0
   -6.9529    3.8717  -12.8880 H   0  0  0  0  0  0  0  0  0  0  0  0
   -7.9367    4.4991  -11.1833 C   0  0  0  0  0  0  0  0  0  0  0  0
   -7.7727    5.5257  -10.2248 C   0  0  0  0  0  0  0  0  0  0  0  0
   -8.1136    5.3649   -8.8754 C   0  0  0  0  0  0  0  0  0  0  0  0
   -8.6384    4.1585   -8.4814 C   0  0  0  0  0  0  0  0  0  0  0  0
   -8.7890    3.1227   -9.3931 C   0  0  0  0  0  0  0  0  0  0  0  0
   -8.4153    3.2623  -10.7217 C   0  0  0  0  0  0  0  0  0  0  0  0
   -9.3586    1.9418   -8.6807 C   0  0  0  0  0  0  0  0  0  0  0  0
   -9.9134    2.4949   -7.4126 N   0  0  0  0  0  0  0  0  0  0  0  0
   -9.1091    3.7045   -7.1422 C   0  0  0  0  0  0  0  0  0  0  0  0
   -9.8144    1.8209   -6.6535 H   0  0  0  0  0  0  0  0  0  0  0  0
   -4.8987    4.8068  -14.2678 O   0  0  0  0  0  0  0  0  0  0  0  0
   -3.6448    4.2356  -13.9124 C   0  0  0  0  0  0  0  0  0  0  0  0
   -3.3517    4.6862  -12.4772 C   0  0  0  0  0  0  0  0  0  0  0  0
   -3.6285    2.7319  -13.9532 C   0  0  0  0  0  0  0  0  0  0  0  0
  2  1  1  0  0  0
  2  3  1  0  0  0
  3  4  1  0  0  0
  4  5  1  0  0  0
  5  6  2  0  0  0
  5  7  1  0  0  0
  7  8  1  0  0  0
  7 24  1  0  0  0
 24 26  1  0  0  0
 26 27  2  0  0  0
 27 28  1  0  0  0
 28 29  2  0  0  0
 29 30  1  0  0  0
 30 31  2  0  0  0
 30 32  1  0  0  0
 32 33  1  0  0  0
 33 34  1  0  0  0
  7  9  1  0  0  0
  9 10  2  0  0  0
 10 11  1  0  0  0
 11 12  1  0  0  0
 11 13  2  0  0  0
 13 14  1  0  0  0
 14 15  2  0  0  0
 15 16  1  0  0  0
 16 36  1  0  0  0
 36 37  1  0  0  0
 37 38  1  0  0  0
 37 39  1  0  0  0
 16 17  1  0  0  0
 16 18  1  0  0  0
 18 19  2  0  0  0
 18 20  1  0  0  0
 17  2  1  0  0  0
 31 26  1  0  0  0
 15  9  1  0  0  0
 34 29  1  0  0  0
 20 14  1  0  0  0
  4 21  1  0  0  0
  8 22  1  0  0  0
 24 25  1  0  0  0
 33 35  1  0  0  0
 20 23  1  0  0  0
M  END
> <minimizedAffinity>
-8.36853

> <minimizedRMSD>
0.51905

$$$$
P22926


 32 35  0  0  0  0  0  0  0  0999 V2000
   -8.8087    4.4882  -16.8753 C   0  0  0  0  0  0  0  0  0  0  0  0
   -8.6501    4.7225  -15.4981 C   0  0  0  0  0  0  0  0  0  0  0  0
   -7.3987    5.0433  -14.9629 C   0  0  0  0  0  0  0  0  0  0  0  0
   -6.3071    5.0931  -15.8178 C   0  0  0  0  0  0  0  0  0  0  0  0
   -6.4910    4.9002  -17.1909 C   0  0  0  0  0  0  0  0  0  0  0  0
   -7.7228    4.6143  -17.7394 C   0  0  0  0  0  0  0  0  0  0  0  0
   -5.2759    4.9990  -17.8657 N   0  0  0  0  0  0  0  0  0  0  0  0
   -5.1491    5.0037  -19.3013 C   0  0  0  0  0  0  0  0  0  0  0  0
   -4.2229    5.1679  -16.9713 C   0  0  0  0  0  0  0  0  0  0  0  0
   -3.0315    5.1823  -17.2528 O   0  0  0  0  0  0  0  0  0  0  0  0
   -4.8462    5.3619  -15.5405 C   0  0  0  0  0  0  0  0  0  0  0  0
   -4.2486    4.3713  -14.5436 C   0  0  0  0  0  0  0  0  0  0  0  0
   -7.3380    5.4344  -13.5310 C   0  0  0  0  0  0  0  0  0  0  0  0
   -7.0585    6.5331  -13.2574 O   0  0  0  0  0  0  0  0  0  0  0  0
   -7.7679    4.2561  -12.6285 N   0  0  0  0  0  0  0  0  0  0  0  0
   -7.8773    3.3969  -13.0966 H   0  0  0  0  0  0  0  0  0  0  0  0
   -8.0254    4.2117  -11.2622 C   0  0  0  0  0  0  0  0  0  0  0  0
   -7.8023    5.3339  -10.4463 C   0  0  0  0  0  0  0  0  0  0  0  0
   -8.0924    5.2963   -9.0788 C   0  0  0  0  0  0  0  0  0  0  0  0
   -8.6043    4.1252   -8.5557 C   0  0  0  0  0  0  0  0  0  0  0  0
   -8.8170    3.0105   -9.3627 C   0  0  0  0  0  0  0  0  0  0  0  0
   -8.5380    3.0335  -10.7175 C   0  0  0  0  0  0  0  0  0  0  0  0
   -9.3191    1.8905   -8.5145 C   0  0  0  0  0  0  0  0  0  0  0  0
   -9.7848    2.5413   -7.2610 N   0  0  0  0  0  0  0  0  0  0  0  0
   -8.9911    3.7861   -7.1548 C   0  0  0  0  0  0  0  0  0  0  0  0
   -9.6117    1.9367   -6.4579 H   0  0  0  0  0  0  0  0  0  0  0  0
  -10.5846    4.7027  -18.6683 C   0  0  0  0  0  0  0  0  0  0  0  0
  -10.1374    4.0584  -17.3938 C   0  0  0  0  0  0  0  0  0  0  0  0
   -4.7780    6.7093  -15.0992 O   0  0  0  0  0  0  0  0  0  0  0  0
   -3.5677    7.1288  -14.4742 C   0  0  0  0  0  0  0  0  0  0  0  0
   -2.9312    8.1861  -15.3680 C   0  0  0  0  0  0  0  0  0  0  0  0
   -3.9169    7.7166  -13.1126 C   0  0  0  0  0  0  0  0  0  0  0  0
 27 28  1  0  0  0
 28  1  1  0  0  0
  1  2  2  0  0  0
  2  3  1  0  0  0
  3 13  1  0  0  0
 13 14  2  0  0  0
 13 15  1  0  0  0
 15 17  1  0  0  0
 17 18  2  0  0  0
 18 19  1  0  0  0
 19 20  2  0  0  0
 20 21  1  0  0  0
 21 22  2  0  0  0
 21 23  1  0  0  0
 23 24  1  0  0  0
 24 25  1  0  0  0
  3  4  2  0  0  0
  4  5  1  0  0  0
  5  6  2  0  0  0
  5  7  1  0  0  0
  7  8  1  0  0  0
  7  9  1  0  0  0
  9 10  2  0  0  0
  9 11  1  0  0  0
 11 12  1  0  0  0
 11 29  1  0  0  0
 29 30  1  0  0  0
 30 31  1  0  0  0
 30 32  1  0  0  0
  6  1  1  0  0  0
 22 17  1  0  0  0
 11  4  1  0  0  0
 25 20  1  0  0  0
 15 16  1  0  0  0
 24 26  1  0  0  0
M  END
> <minimizedAffinity>
-7.39176

> <minimizedRMSD>
0.34483

$$$$
P22927


 33 36  0  0  0  0  0  0  0  0999 V2000
   -5.0317    5.1829  -16.1304 C   0  0  0  0  0  0  0  0  0  0  0  0
   -4.6236    6.5827  -15.6767 C   0  0  0  0  0  0  0  0  0  0  0  0
   -4.6108    5.1397  -17.6525 C   0  0  0  0  0  0  0  0  0  0  0  0
   -3.4789    5.1970  -18.1152 O   0  0  0  0  0  0  0  0  0  0  0  0
   -5.7679    5.0425  -18.4116 N   0  0  0  0  0  0  0  0  0  0  0  0
   -6.8782    4.8637  -17.6076 C   0  0  0  0  0  0  0  0  0  0  0  0
   -8.1581    4.6001  -18.0535 C   0  0  0  0  0  0  0  0  0  0  0  0
   -9.1269    4.3698  -17.0904 C   0  0  0  0  0  0  0  0  0  0  0  0
  -10.3726    4.0663  -17.4725 F   0  0  0  0  0  0  0  0  0  0  0  0
   -8.8347    4.4659  -15.7291 C   0  0  0  0  0  0  0  0  0  0  0  0
   -7.5329    4.7751  -15.3079 C   0  0  0  0  0  0  0  0  0  0  0  0
   -6.5297    4.9424  -16.2556 C   0  0  0  0  0  0  0  0  0  0  0  0
   -5.7948    5.0941  -19.3944 H   0  0  0  0  0  0  0  0  0  0  0  0
   -7.3158    5.1139  -13.8912 C   0  0  0  0  0  0  0  0  0  0  0  0
   -6.5841    5.9928  -13.6696 O   0  0  0  0  0  0  0  0  0  0  0  0
   -8.1409    4.2341  -12.9311 N   0  0  0  0  0  0  0  0  0  0  0  0
   -8.6309    3.4985  -13.3646 H   0  0  0  0  0  0  0  0  0  0  0  0
   -8.3071    4.3112  -11.5397 C   0  0  0  0  0  0  0  0  0  0  0  0
   -8.5463    3.0847  -10.8984 C   0  0  0  0  0  0  0  0  0  0  0  0
   -8.7183    3.0620   -9.5253 C   0  0  0  0  0  0  0  0  0  0  0  0
   -8.6338    4.2206   -8.7665 C   0  0  0  0  0  0  0  0  0  0  0  0
   -8.3978    5.4411   -9.3650 C   0  0  0  0  0  0  0  0  0  0  0  0
   -8.2644    5.4991  -10.7677 C   0  0  0  0  0  0  0  0  0  0  0  0
   -8.8682    3.8817   -7.3326 C   0  0  0  0  0  0  0  0  0  0  0  0
   -9.4740    2.5347   -7.3538 N   0  0  0  0  0  0  0  0  0  0  0  0
   -8.9974    1.9092   -8.6171 C   0  0  0  0  0  0  0  0  0  0  0  0
  -10.4919    2.6007   -7.3498 H   0  0  0  0  0  0  0  0  0  0  0  0
   -8.2352    6.8212  -11.3251 C   0  0  0  0  0  0  0  0  0  0  0  0
   -8.2819    7.9254  -11.6854 N   0  0  0  0  0  0  0  0  0  0  0  0
   -4.3702    4.0841  -15.4945 O   0  0  0  0  0  0  0  0  0  0  0  0
   -4.3851    3.0299  -13.3574 C   0  0  0  0  0  0  0  0  0  0  0  0
   -3.9045    4.2394  -14.1549 C   0  0  0  0  0  0  0  0  0  0  0  0
   -2.3809    4.2965  -14.1284 C   0  0  0  0  0  0  0  0  0  0  0  0
 31 32  1  0  0  0
 32 33  1  0  0  0
 32 30  1  0  0  0
 30  1  1  0  0  0
  1  2  1  0  0  0
  1  3  1  0  0  0
  3  4  2  0  0  0
  3  5  1  0  0  0
  5  6  1  0  0  0
  6  7  2  0  0  0
  7  8  1  0  0  0
  8  9  1  0  0  0
  8 10  2  0  0  0
 10 11  1  0  0  0
 11 14  1  0  0  0
 14 15  2  0  0  0
 14 16  1  0  0  0
 16 18  1  0  0  0
 18 19  2  0  0  0
 19 20  1  0  0  0
 20 21  2  0  0  0
 21 22  1  0  0  0
 22 23  2  0  0  0
 23 28  1  0  0  0
 28 29  3  0  0  0
 21 24  1  0  0  0
 24 25  1  0  0  0
 25 26  1  0  0  0
 11 12  2  0  0  0
 12  1  1  0  0  0
 12  6  1  0  0  0
 23 18  1  0  0  0
 26 20  1  0  0  0
  5 13  1  0  0  0
 16 17  1  0  0  0
 25 27  1  0  0  0
M  END
> <minimizedAffinity>
-8.19862

> <minimizedRMSD>
0.23156

$$$$
P22937


 39 43  0  0  0  0  0  0  0  0999 V2000
   -5.4981    5.4757  -15.8397 C   0  0  0  0  0  0  0  0  0  0  0  0
   -5.2348    6.7654  -15.0437 C   0  0  0  0  0  0  0  0  0  0  0  0
   -6.9559    5.1749  -16.1315 C   0  0  0  0  0  0  0  0  0  0  0  0
   -7.1123    4.8724  -17.4875 C   0  0  0  0  0  0  0  0  0  0  0  0
   -8.3276    4.4588  -18.0119 C   0  0  0  0  0  0  0  0  0  0  0  0
   -9.4073    4.3243  -17.1554 C   0  0  0  0  0  0  0  0  0  0  0  0
  -10.5865    3.9127  -17.6368 F   0  0  0  0  0  0  0  0  0  0  0  0
   -9.2855    4.6158  -15.8010 C   0  0  0  0  0  0  0  0  0  0  0  0
   -8.0609    5.0650  -15.2912 C   0  0  0  0  0  0  0  0  0  0  0  0
   -5.9158    4.8765  -18.2421 N   0  0  0  0  0  0  0  0  0  0  0  0
   -4.9709    5.6296  -17.4052 C   0  0  0  0  0  0  0  0  0  0  0  0
   -4.7566    7.0144  -17.8810 N   0  0  0  0  0  0  0  0  0  0  0  0
   -3.4149    7.4654  -17.5711 N   0  0  0  0  0  0  0  0  0  0  0  0
   -2.4836    6.3764  -17.9076 C   0  0  0  0  0  0  0  0  0  0  0  0
   -3.3579    4.8111  -17.6784 S   0  0  0  0  0  0  0  0  0  0  0  0
   -5.7535    4.4692  -19.1236 H   0  0  0  0  0  0  0  0  0  0  0  0
   -5.4297    7.6317  -17.4267 H   0  0  0  0  0  0  0  0  0  0  0  0
   -3.3445    7.6874  -16.5780 H   0  0  0  0  0  0  0  0  0  0  0  0
   -8.0283    5.5020  -13.8852 C   0  0  0  0  0  0  0  0  0  0  0  0
   -7.8545    6.6328  -13.6604 O   0  0  0  0  0  0  0  0  0  0  0  0
   -8.2318    4.3127  -12.9271 N   0  0  0  0  0  0  0  0  0  0  0  0
   -8.2832    3.4334  -13.3668 H   0  0  0  0  0  0  0  0  0  0  0  0
   -8.3548    4.2791  -11.5415 C   0  0  0  0  0  0  0  0  0  0  0  0
   -8.1412    5.4296  -10.7628 C   0  0  0  0  0  0  0  0  0  0  0  0
   -8.2509    5.3797   -9.3682 C   0  0  0  0  0  0  0  0  0  0  0  0
   -8.5911    4.1748   -8.7835 C   0  0  0  0  0  0  0  0  0  0  0  0
   -8.8058    3.0387   -9.5569 C   0  0  0  0  0  0  0  0  0  0  0  0
   -8.6812    3.0664  -10.9342 C   0  0  0  0  0  0  0  0  0  0  0  0
   -9.1414    1.8935   -8.6602 C   0  0  0  0  0  0  0  0  0  0  0  0
   -9.4791    2.5183   -7.3548 N   0  0  0  0  0  0  0  0  0  0  0  0
   -8.7772    3.8195   -7.3467 C   0  0  0  0  0  0  0  0  0  0  0  0
   -9.1545    1.9333   -6.5849 H   0  0  0  0  0  0  0  0  0  0  0  0
   -1.8291    6.5378  -19.3082 C   0  0  0  0  0  0  0  0  0  0  0  0
   -2.6168    5.9196  -20.4706 C   0  0  0  0  0  0  0  0  0  0  0  0
   -0.3915    6.0012  -19.3228 C   0  0  0  0  0  0  0  0  0  0  0  0
   -4.9662    4.2587  -15.2530 O   0  0  0  0  0  0  0  0  0  0  0  0
   -2.9311    4.1047  -13.9561 C   0  0  0  0  0  0  0  0  0  0  0  0
   -4.4480    4.2672  -13.9238 C   0  0  0  0  0  0  0  0  0  0  0  0
   -5.0589    3.0848  -13.1767 C   0  0  0  0  0  0  0  0  0  0  0  0
 37 38  1  0  0  0
 38 39  1  0  0  0
 38 36  1  0  0  0
 36  1  1  0  0  0
  1  2  1  0  0  0
  1  3  1  0  0  0
  3  4  2  0  0  0
  4  5  1  0  0  0
  5  6  2  0  0  0
  6  7  1  0  0  0
  6  8  1  0  0  0
  8  9  2  0  0  0
  9 19  1  0  0  0
 19 20  2  0  0  0
 19 21  1  0  0  0
 21 23  1  0  0  0
 23 24  2  0  0  0
 24 25  1  0  0  0
 25 26  2  0  0  0
 26 27  1  0  0  0
 27 28  2  0  0  0
 27 29  1  0  0  0
 29 30  1  0  0  0
 30 31  1  0  0  0
  4 10  1  0  0  0
 11 10  1  0  0  0
 11 12  1  0  0  0
 12 13  1  0  0  0
 13 14  1  0  0  0
 14 33  1  0  0  0
 33 34  1  0  0  0
 33 35  1  0  0  0
 14 15  1  0  0  0
 11  1  1  0  0  0
  9  3  1  0  0  0
 28 23  1  0  0  0
 15 11  1  0  0  0
 31 26  1  0  0  0
 21 22  1  0  0  0
 30 32  1  0  0  0
 10 16  1  0  0  0
 12 17  1  0  0  0
 13 18  1  0  0  0
M  END
> <minimizedAffinity>
-8.68964

> <minimizedRMSD>
0.43104

$$$$
P22938


 34 38  0  0  0  0  0  0  0  0999 V2000
   -5.3134    5.5456  -14.3755 C   0  0  0  0  0  0  0  0  0  0  0  0
   -4.8641    4.6486  -13.2247 C   0  0  0  0  0  0  0  0  0  0  0  0
   -4.3943    5.3354  -15.6376 C   0  0  0  0  0  0  0  0  0  0  0  0
   -3.1742    5.3767  -15.7018 O   0  0  0  0  0  0  0  0  0  0  0  0
   -5.2232    5.0899  -16.7194 N   0  0  0  0  0  0  0  0  0  0  0  0
   -6.5284    4.9232  -16.3023 C   0  0  0  0  0  0  0  0  0  0  0  0
   -6.6589    5.1179  -14.9322 C   0  0  0  0  0  0  0  0  0  0  0  0
   -7.9011    4.9550  -14.3343 C   0  0  0  0  0  0  0  0  0  0  0  0
   -9.0152    4.5590  -15.1065 C   0  0  0  0  0  0  0  0  0  0  0  0
   -8.8823    4.4181  -16.4987 C   0  0  0  0  0  0  0  0  0  0  0  0
   -9.8044    4.2393  -17.5598 C   0  0  0  0  0  0  0  0  0  0  0  0
   -9.1102    4.4919  -18.7117 C   0  0  0  0  0  0  0  0  0  0  0  0
   -7.7805    4.5679  -18.4241 N   0  0  0  0  0  0  0  0  0  0  0  0
   -7.6283    4.6275  -17.0732 C   0  0  0  0  0  0  0  0  0  0  0  0
   -4.9233    5.0411  -17.6559 H   0  0  0  0  0  0  0  0  0  0  0  0
   -7.0505    4.5780  -19.0846 H   0  0  0  0  0  0  0  0  0  0  0  0
   -8.1777    5.3652  -12.9389 C   0  0  0  0  0  0  0  0  0  0  0  0
   -8.4626    6.4750  -12.7222 O   0  0  0  0  0  0  0  0  0  0  0  0
   -8.1239    4.1440  -11.9967 N   0  0  0  0  0  0  0  0  0  0  0  0
   -7.9246    3.2887  -12.4417 H   0  0  0  0  0  0  0  0  0  0  0  0
   -8.3105    4.0553  -10.6262 C   0  0  0  0  0  0  0  0  0  0  0  0
   -8.0537    5.1543   -9.7916 C   0  0  0  0  0  0  0  0  0  0  0  0
   -8.3016    5.0788   -8.4196 C   0  0  0  0  0  0  0  0  0  0  0  0
   -8.7862    3.8890   -7.9107 C   0  0  0  0  0  0  0  0  0  0  0  0
   -9.0241    2.7996   -8.7386 C   0  0  0  0  0  0  0  0  0  0  0  0
   -8.8055    2.8638  -10.1018 C   0  0  0  0  0  0  0  0  0  0  0  0
   -9.4633    1.6392   -7.9196 C   0  0  0  0  0  0  0  0  0  0  0  0
   -9.6902    2.1613   -6.5460 N   0  0  0  0  0  0  0  0  0  0  0  0
   -9.1130    3.5224   -6.5049 C   0  0  0  0  0  0  0  0  0  0  0  0
   -9.2271    1.5629   -5.8620 H   0  0  0  0  0  0  0  0  0  0  0  0
   -5.4293    6.9448  -14.1206 O   0  0  0  0  0  0  0  0  0  0  0  0
   -5.7311    8.5818  -12.4450 C   0  0  0  0  0  0  0  0  0  0  0  0
   -4.7841    7.5122  -12.9862 C   0  0  0  0  0  0  0  0  0  0  0  0
   -3.4514    8.1540  -13.3552 C   0  0  0  0  0  0  0  0  0  0  0  0
 32 33  1  0  0  0
 33 34  1  0  0  0
 33 31  1  0  0  0
 31  1  1  0  0  0
  1  2  1  0  0  0
  1  3  1  0  0  0
  3  4  2  0  0  0
  3  5  1  0  0  0
  5  6  1  0  0  0
  6  7  2  0  0  0
  7  8  1  0  0  0
  8 17  1  0  0  0
 17 18  2  0  0  0
 17 19  1  0  0  0
 19 21  1  0  0  0
 21 22  2  0  0  0
 22 23  1  0  0  0
 23 24  2  0  0  0
 24 25  1  0  0  0
 25 26  2  0  0  0
 25 27  1  0  0  0
 27 28  1  0  0  0
 28 29  1  0  0  0
  8  9  2  0  0  0
  9 10  1  0  0  0
 10 11  1  0  0  0
 11 12  2  0  0  0
 12 13  1  0  0  0
 13 14  1  0  0  0
  7  1  1  0  0  0
 26 21  1  0  0  0
 14 10  2  0  0  0
 14  6  1  0  0  0
 29 24  1  0  0  0
  5 15  1  0  0  0
 19 20  1  0  0  0
 28 30  1  0  0  0
 13 16  1  0  0  0
M  END
> <minimizedAffinity>
-7.80844

> <minimizedRMSD>
1.05028

$$$$
P22941


 40 43  0  0  0  0  0  0  0  0999 V2000
   -7.8479    5.2157  -13.8949 C   0  0  0  0  0  0  0  0  0  0  0  0
   -6.4934    5.3745  -13.5389 O   0  0  0  0  0  0  0  0  0  0  0  0
   -6.0081    4.5594  -13.7413 H   0  0  0  0  0  0  0  0  0  0  0  0
   -5.4894    5.4422  -16.2654 C   0  0  0  0  0  0  0  0  0  0  0  0
   -5.3667    6.9674  -16.0842 C   0  0  0  0  0  0  0  0  0  0  0  0
   -5.0001    5.1614  -17.7423 C   0  0  0  0  0  0  0  0  0  0  0  0
   -3.8523    5.1778  -18.1637 O   0  0  0  0  0  0  0  0  0  0  0  0
   -6.1250    4.9294  -18.5152 N   0  0  0  0  0  0  0  0  0  0  0  0
   -7.2566    4.7971  -17.7266 C   0  0  0  0  0  0  0  0  0  0  0  0
   -8.4916    4.3969  -18.1855 C   0  0  0  0  0  0  0  0  0  0  0  0
   -9.4675    4.1824  -17.2347 C   0  0  0  0  0  0  0  0  0  0  0  0
  -10.6718    3.7422  -17.6178 F   0  0  0  0  0  0  0  0  0  0  0  0
   -9.2186    4.4086  -15.8768 C   0  0  0  0  0  0  0  0  0  0  0  0
   -7.9771    4.8981  -15.3979 C   0  0  0  0  0  0  0  0  0  0  0  0
   -6.9721    5.0549  -16.3712 C   0  0  0  0  0  0  0  0  0  0  0  0
   -6.1214    4.8666  -19.4977 H   0  0  0  0  0  0  0  0  0  0  0  0
   -4.9531    4.7375  -15.1652 O   0  0  0  0  0  0  0  0  0  0  0  0
   -2.5738    5.2648  -14.8957 C   0  0  0  0  0  0  0  0  0  0  0  0
   -3.6320    4.2208  -15.2315 C   0  0  0  0  0  0  0  0  0  0  0  0
   -3.5786    3.1002  -14.1917 C   0  0  0  0  0  0  0  0  0  0  0  0
   -8.6603    6.5797  -13.5562 C   0  0  0  0  0  0  0  0  0  0  0  0
   -9.8282    6.6611  -13.5916 O   0  0  0  0  0  0  0  0  0  0  0  0
   -7.5859    7.6343  -13.1447 N   0  0  0  0  0  0  0  0  0  0  0  0
   -6.6537    7.3455  -13.2743 H   0  0  0  0  0  0  0  0  0  0  0  0
   -7.7379    8.9689  -12.6032 C   0  0  0  0  0  0  0  0  0  0  0  0
   -8.0520    8.9939  -11.1099 C   0  0  0  0  0  0  0  0  0  0  0  0
   -9.2069    8.3338  -10.8458 F   0  0  0  0  0  0  0  0  0  0  0  0
   -7.0699    8.3436  -10.4303 F   0  0  0  0  0  0  0  0  0  0  0  0
   -8.3374    4.0971  -13.0894 N   0  0  0  0  0  0  0  0  0  0  0  0
   -8.6311    3.2768  -13.5476 H   0  0  0  0  0  0  0  0  0  0  0  0
   -8.4048    4.1483  -11.6851 C   0  0  0  0  0  0  0  0  0  0  0  0
   -8.0128    5.2524  -10.9018 C   0  0  0  0  0  0  0  0  0  0  0  0
   -8.1276    5.2766   -9.5062 C   0  0  0  0  0  0  0  0  0  0  0  0
   -8.5615    4.1360   -8.8772 C   0  0  0  0  0  0  0  0  0  0  0  0
   -8.8320    2.9898   -9.6108 C   0  0  0  0  0  0  0  0  0  0  0  0
   -8.7593    2.9798  -10.9970 C   0  0  0  0  0  0  0  0  0  0  0  0
   -9.1348    1.8792   -8.6596 C   0  0  0  0  0  0  0  0  0  0  0  0
   -9.4848    2.5591   -7.3816 N   0  0  0  0  0  0  0  0  0  0  0  0
   -8.7630    3.8503   -7.4282 C   0  0  0  0  0  0  0  0  0  0  0  0
   -9.1764    2.0040   -6.5834 H   0  0  0  0  0  0  0  0  0  0  0  0
 18 19  1  0  0  0
 19 20  1  0  0  0
 19 17  1  0  0  0
 17  4  1  0  0  0
  4  5  1  0  0  0
  4  6  1  0  0  0
  6  7  2  0  0  0
  6  8  1  0  0  0
  8  9  1  0  0  0
  9 10  2  0  0  0
 10 11  1  0  0  0
 11 12  1  0  0  0
 11 13  2  0  0  0
 13 14  1  0  0  0
 14  1  1  0  0  0
  1  2  1  0  0  0
  1 29  1  0  0  0
 29 31  1  0  0  0
 31 32  2  0  0  0
 32 33  1  0  0  0
 33 34  2  0  0  0
 34 35  1  0  0  0
 35 36  2  0  0  0
 35 37  1  0  0  0
 37 38  1  0  0  0
 38 39  1  0  0  0
  1 21  1  0  0  0
 21 22  2  0  0  0
 21 23  1  0  0  0
 23 25  1  0  0  0
 25 26  1  0  0  0
 26 27  1  0  0  0
 26 28  1  0  0  0
 14 15  2  0  0  0
 15  4  1  0  0  0
 15  9  1  0  0  0
 36 31  1  0  0  0
 39 34  1  0  0  0
  8 16  1  0  0  0
  2  3  1  0  0  0
 29 30  1  0  0  0
 38 40  1  0  0  0
 23 24  1  0  0  0
M  END
> <minimizedAffinity>
-8.09135

> <minimizedRMSD>
0.57980

$$$$
P22942


 36 39  0  0  0  0  0  0  0  0999 V2000
   -5.3283    5.2959  -15.8445 C   0  0  0  0  0  0  0  0  0  0  0  0
   -4.7930    5.2376  -17.3548 C   0  0  0  0  0  0  0  0  0  0  0  0
   -3.6421    5.3725  -17.7443 O   0  0  0  0  0  0  0  0  0  0  0  0
   -5.8663    4.9684  -18.1809 N   0  0  0  0  0  0  0  0  0  0  0  0
   -7.0299    4.7964  -17.4584 C   0  0  0  0  0  0  0  0  0  0  0  0
   -8.2565    4.4797  -18.0127 C   0  0  0  0  0  0  0  0  0  0  0  0
   -9.3268    4.3382  -17.1482 C   0  0  0  0  0  0  0  0  0  0  0  0
  -10.5280    4.0084  -17.6427 F   0  0  0  0  0  0  0  0  0  0  0  0
   -9.1765    4.5701  -15.7804 C   0  0  0  0  0  0  0  0  0  0  0  0
   -7.9242    4.9375  -15.2504 C   0  0  0  0  0  0  0  0  0  0  0  0
   -6.8123    4.9976  -16.0884 C   0  0  0  0  0  0  0  0  0  0  0  0
   -5.8089    4.9070  -19.1618 H   0  0  0  0  0  0  0  0  0  0  0  0
   -7.9143    5.4068  -13.8452 C   0  0  0  0  0  0  0  0  0  0  0  0
   -7.7505    6.5423  -13.6329 O   0  0  0  0  0  0  0  0  0  0  0  0
   -8.1368    4.2275  -12.8713 N   0  0  0  0  0  0  0  0  0  0  0  0
   -8.1743    3.3414  -13.2988 H   0  0  0  0  0  0  0  0  0  0  0  0
   -8.2928    4.2142  -11.4877 C   0  0  0  0  0  0  0  0  0  0  0  0
   -8.1054    5.3757  -10.7197 C   0  0  0  0  0  0  0  0  0  0  0  0
   -8.2590    5.3489   -9.3291 C   0  0  0  0  0  0  0  0  0  0  0  0
   -8.6168    4.1533   -8.7364 C   0  0  0  0  0  0  0  0  0  0  0  0
   -8.8011    3.0013   -9.4960 C   0  0  0  0  0  0  0  0  0  0  0  0
   -8.6332    3.0088  -10.8694 C   0  0  0  0  0  0  0  0  0  0  0  0
   -9.1616    1.8730   -8.5870 C   0  0  0  0  0  0  0  0  0  0  0  0
   -9.5711    2.5282   -7.3141 N   0  0  0  0  0  0  0  0  0  0  0  0
   -8.8588    3.8251   -7.3014 C   0  0  0  0  0  0  0  0  0  0  0  0
   -9.2944    1.9598   -6.5137 H   0  0  0  0  0  0  0  0  0  0  0  0
   -5.2007    6.4756  -15.0739 O   0  0  0  0  0  0  0  0  0  0  0  0
   -3.0757    7.6630  -15.0204 C   0  0  0  0  0  0  0  0  0  0  0  0
   -4.4765    7.5723  -15.6203 C   0  0  0  0  0  0  0  0  0  0  0  0
   -5.2450    8.8395  -15.2468 C   0  0  0  0  0  0  0  0  0  0  0  0
   -4.5128    4.1772  -15.1419 C   0  0  0  0  0  0  0  0  0  0  0  0
   -4.9533    3.6547  -13.7731 C   0  0  0  0  0  0  0  0  0  0  0  0
   -4.4966    4.4526  -12.5497 C   0  0  0  0  0  0  0  0  0  0  0  0
   -3.0090    4.7775  -12.5158 C   0  0  0  0  0  0  0  0  0  0  0  0
   -2.2407    3.6021  -12.2917 O   0  0  0  0  0  0  0  0  0  0  0  0
   -2.4870    3.2126  -11.4382 H   0  0  0  0  0  0  0  0  0  0  0  0
 28 29  1  0  0  0
 29 30  1  0  0  0
 29 27  1  0  0  0
 27  1  1  0  0  0
  1 31  1  0  0  0
 31 32  1  0  0  0
 32 33  1  0  0  0
 33 34  1  0  0  0
 34 35  1  0  0  0
  1  2  1  0  0  0
  2  3  2  0  0  0
  2  4  1  0  0  0
  4  5  1  0  0  0
  5  6  2  0  0  0
  6  7  1  0  0  0
  7  8  1  0  0  0
  7  9  2  0  0  0
  9 10  1  0  0  0
 10 13  1  0  0  0
 13 14  2  0  0  0
 13 15  1  0  0  0
 15 17  1  0  0  0
 17 18  2  0  0  0
 18 19  1  0  0  0
 19 20  2  0  0  0
 20 21  1  0  0  0
 21 22  2  0  0  0
 21 23  1  0  0  0
 23 24  1  0  0  0
 24 25  1  0  0  0
 10 11  2  0  0  0
 11  1  1  0  0  0
 11  5  1  0  0  0
 22 17  1  0  0  0
 25 20  1  0  0  0
 35 36  1  0  0  0
  4 12  1  0  0  0
 15 16  1  0  0  0
 24 26  1  0  0  0
M  END
> <minimizedAffinity>
-7.22093

> <minimizedRMSD>
0.32330

$$$$
P22943


 33 36  0  0  0  0  0  0  0  0999 V2000
   -7.6979    4.7815  -15.5706 C   0  0  0  0  0  0  0  0  0  0  0  0
   -9.0132    4.4101  -15.8935 C   0  0  0  0  0  0  0  0  0  0  0  0
   -9.4038    4.2688  -17.2316 C   0  0  0  0  0  0  0  0  0  0  0  0
  -10.6550    3.8923  -17.5169 F   0  0  0  0  0  0  0  0  0  0  0  0
   -8.5262    4.4998  -18.2773 C   0  0  0  0  0  0  0  0  0  0  0  0
   -7.2336    4.8283  -17.9411 C   0  0  0  0  0  0  0  0  0  0  0  0
   -6.7993    4.9784  -16.6189 C   0  0  0  0  0  0  0  0  0  0  0  0
   -5.3324    5.3726  -16.6332 C   0  0  0  0  0  0  0  0  0  0  0  0
   -4.4517    4.4748  -15.7672 C   0  0  0  0  0  0  0  0  0  0  0  0
   -4.9873    5.1826  -18.1535 C   0  0  0  0  0  0  0  0  0  0  0  0
   -3.8787    5.2083  -18.6698 O   0  0  0  0  0  0  0  0  0  0  0  0
   -6.1842    4.9957  -18.8292 N   0  0  0  0  0  0  0  0  0  0  0  0
   -6.2755    4.9837  -19.8094 H   0  0  0  0  0  0  0  0  0  0  0  0
   -8.3580    4.5274  -13.1424 N   0  0  0  0  0  0  0  0  0  0  0  0
   -7.3243    5.0842  -14.1555 C   0  0  0  0  0  0  0  0  0  0  0  0
   -6.3667    5.7288  -13.9821 O   0  0  0  0  0  0  0  0  0  0  0  0
   -9.1293    4.0707  -13.5495 H   0  0  0  0  0  0  0  0  0  0  0  0
   -8.2446    5.7263  -10.9042 C   0  0  0  0  0  0  0  0  0  0  0  0
   -8.2509    5.5665   -9.5021 C   0  0  0  0  0  0  0  0  0  0  0  0
   -8.4926    4.3215   -8.9535 C   0  0  0  0  0  0  0  0  0  0  0  0
   -8.6656    3.2083   -9.7569 C   0  0  0  0  0  0  0  0  0  0  0  0
   -8.5962    3.3096  -11.1335 C   0  0  0  0  0  0  0  0  0  0  0  0
   -8.3728    4.5687  -11.7316 C   0  0  0  0  0  0  0  0  0  0  0  0
   -8.9090    2.0190   -8.8869 C   0  0  0  0  0  0  0  0  0  0  0  0
   -9.2990    2.5938   -7.5705 N   0  0  0  0  0  0  0  0  0  0  0  0
   -8.6546    3.9234   -7.5250 C   0  0  0  0  0  0  0  0  0  0  0  0
   -8.9611    2.0058   -6.8087 H   0  0  0  0  0  0  0  0  0  0  0  0
   -9.0954    8.3871  -10.2905 C   0  0  0  0  0  0  0  0  0  0  0  0
   -8.2282    7.4112  -11.5509 S   0  0  0  0  0  0  0  0  0  0  0  0
   -5.2909    6.7636  -16.3104 O   0  0  0  0  0  0  0  0  0  0  0  0
   -4.0060    7.3519  -16.1282 C   0  0  0  0  0  0  0  0  0  0  0  0
   -3.9445    7.9754  -14.7390 C   0  0  0  0  0  0  0  0  0  0  0  0
   -3.8484    8.4262  -17.1984 C   0  0  0  0  0  0  0  0  0  0  0  0
 28 29  1  0  0  0
 29 18  1  0  0  0
 18 19  2  0  0  0
 19 20  1  0  0  0
 20 21  2  0  0  0
 21 22  1  0  0  0
 22 23  2  0  0  0
 23 14  1  0  0  0
 14 15  1  0  0  0
 15 16  2  0  0  0
 15  1  1  0  0  0
  1  2  2  0  0  0
  2  3  1  0  0  0
  3  4  1  0  0  0
  3  5  2  0  0  0
  5  6  1  0  0  0
  6  7  2  0  0  0
  7  8  1  0  0  0
  8  9  1  0  0  0
  8 30  1  0  0  0
 30 31  1  0  0  0
 31 32  1  0  0  0
 31 33  1  0  0  0
  8 10  1  0  0  0
 10 11  2  0  0  0
 10 12  1  0  0  0
 21 24  1  0  0  0
 24 25  1  0  0  0
 25 26  1  0  0  0
 23 18  1  0  0  0
  7  1  1  0  0  0
 26 20  1  0  0  0
 12  6  1  0  0  0
 14 17  1  0  0  0
 12 13  1  0  0  0
 25 27  1  0  0  0
M  END
> <minimizedAffinity>
-8.23115

> <minimizedRMSD>
0.46251

$$$$
P22947


 32 35  0  0  0  0  0  0  0  0999 V2000
   -5.8829    5.2126  -15.3362 C   0  0  0  0  0  0  0  0  0  0  0  0
   -5.4892    4.2207  -14.2459 C   0  0  0  0  0  0  0  0  0  0  0  0
   -4.9950    5.0503  -16.6170 C   0  0  0  0  0  0  0  0  0  0  0  0
   -3.7704    5.0255  -16.6393 O   0  0  0  0  0  0  0  0  0  0  0  0
   -5.8181    4.9648  -17.7955 N   0  0  0  0  0  0  0  0  0  0  0  0
   -7.1535    4.7910  -17.3037 C   0  0  0  0  0  0  0  0  0  0  0  0
   -8.2535    4.4971  -18.0937 C   0  0  0  0  0  0  0  0  0  0  0  0
   -9.4755    4.3225  -17.4603 C   0  0  0  0  0  0  0  0  0  0  0  0
  -10.5497    3.9936  -18.1870 F   0  0  0  0  0  0  0  0  0  0  0  0
   -9.6145    4.5045  -16.0838 C   0  0  0  0  0  0  0  0  0  0  0  0
   -8.5006    4.8429  -15.3042 C   0  0  0  0  0  0  0  0  0  0  0  0
   -7.2521    4.9422  -15.9154 C   0  0  0  0  0  0  0  0  0  0  0  0
   -8.7262    5.2626  -13.8989 C   0  0  0  0  0  0  0  0  0  0  0  0
   -9.2163    6.3043  -13.7139 O   0  0  0  0  0  0  0  0  0  0  0  0
   -8.3338    4.1509  -12.9033 N   0  0  0  0  0  0  0  0  0  0  0  0
   -8.0009    3.3233  -13.3199 H   0  0  0  0  0  0  0  0  0  0  0  0
   -8.3739    4.1277  -11.5110 C   0  0  0  0  0  0  0  0  0  0  0  0
   -8.0886    5.2841  -10.7636 C   0  0  0  0  0  0  0  0  0  0  0  0
   -8.1871    5.2817   -9.3685 C   0  0  0  0  0  0  0  0  0  0  0  0
   -8.5758    4.1111   -8.7480 C   0  0  0  0  0  0  0  0  0  0  0  0
   -8.8346    2.9588   -9.4854 C   0  0  0  0  0  0  0  0  0  0  0  0
   -8.7382    2.9455  -10.8659 C   0  0  0  0  0  0  0  0  0  0  0  0
   -9.1809    1.8527   -8.5456 C   0  0  0  0  0  0  0  0  0  0  0  0
   -9.5274    2.5342   -7.2689 N   0  0  0  0  0  0  0  0  0  0  0  0
   -8.7883    3.8160   -7.3011 C   0  0  0  0  0  0  0  0  0  0  0  0
   -9.2324    1.9712   -6.4711 H   0  0  0  0  0  0  0  0  0  0  0  0
   -5.6703    6.1119  -18.4841 C   0  0  0  0  0  0  0  0  0  0  0  0
   -5.6221    7.1419  -19.0173 N   0  0  0  0  0  0  0  0  0  0  0  0
   -5.8928    6.5523  -14.8737 O   0  0  0  0  0  0  0  0  0  0  0  0
   -6.1202    7.7201  -12.7993 C   0  0  0  0  0  0  0  0  0  0  0  0
   -5.2137    6.8425  -13.6537 C   0  0  0  0  0  0  0  0  0  0  0  0
   -3.9318    7.5860  -14.0094 C   0  0  0  0  0  0  0  0  0  0  0  0
 30 31  1  0  0  0
 31 32  1  0  0  0
 31 29  1  0  0  0
 29  1  1  0  0  0
  1  2  1  0  0  0
  1  3  1  0  0  0
  3  4  2  0  0  0
  3  5  1  0  0  0
  5 27  1  0  0  0
 27 28  3  0  0  0
  5  6  1  0  0  0
  6  7  2  0  0  0
  7  8  1  0  0  0
  8  9  1  0  0  0
  8 10  2  0  0  0
 10 11  1  0  0  0
 11 13  1  0  0  0
 13 14  2  0  0  0
 13 15  1  0  0  0
 15 17  1  0  0  0
 17 18  2  0  0  0
 18 19  1  0  0  0
 19 20  2  0  0  0
 20 21  1  0  0  0
 21 22  2  0  0  0
 21 23  1  0  0  0
 23 24  1  0  0  0
 24 25  1  0  0  0
 11 12  2  0  0  0
 12  1  1  0  0  0
 12  6  1  0  0  0
 22 17  1  0  0  0
 25 20  1  0  0  0
 15 16  1  0  0  0
 24 26  1  0  0  0
M  END
> <minimizedAffinity>
-8.13621

> <minimizedRMSD>
1.02405

$$$$
P22949


 41 45  0  0  0  0  0  0  0  0999 V2000
   -5.2955    5.4236  -16.5760 C   0  0  0  0  0  0  0  0  0  0  0  0
   -4.4572    4.4105  -15.7638 C   0  0  0  0  0  0  0  0  0  0  0  0
   -3.3981    4.9562  -14.8044 C   0  0  0  0  0  0  0  0  0  0  0  0
   -2.6921    3.8583  -14.3674 F   0  0  0  0  0  0  0  0  0  0  0  0
   -3.9101    5.6764  -13.5470 C   0  0  0  0  0  0  0  0  0  0  0  0
   -5.2848    5.3596  -13.2627 N   0  0  0  0  0  0  0  0  0  0  0  0
   -6.3126    6.1834  -13.6760 C   0  0  0  0  0  0  0  0  0  0  0  0
   -6.2163    7.4099  -13.7713 O   0  0  0  0  0  0  0  0  0  0  0  0
   -7.6482    5.4367  -14.0116 C   0  0  0  0  0  0  0  0  0  0  0  0
   -8.7378    6.3257  -13.7670 O   0  0  0  0  0  0  0  0  0  0  0  0
   -7.7775    5.0440  -15.4995 C   0  0  0  0  0  0  0  0  0  0  0  0
   -9.0779    4.6071  -15.8968 C   0  0  0  0  0  0  0  0  0  0  0  0
   -9.4244    4.3396  -17.2225 C   0  0  0  0  0  0  0  0  0  0  0  0
  -10.6729    3.9599  -17.5198 F   0  0  0  0  0  0  0  0  0  0  0  0
   -8.5018    4.4853  -18.2319 C   0  0  0  0  0  0  0  0  0  0  0  0
   -7.2227    4.8426  -17.8574 C   0  0  0  0  0  0  0  0  0  0  0  0
   -6.8134    5.1143  -16.5293 C   0  0  0  0  0  0  0  0  0  0  0  0
   -6.1706    4.9212  -18.7506 N   0  0  0  0  0  0  0  0  0  0  0  0
   -4.9784    5.1379  -18.1041 C   0  0  0  0  0  0  0  0  0  0  0  0
   -3.8761    5.1351  -18.6353 O   0  0  0  0  0  0  0  0  0  0  0  0
   -5.4967    4.5382  -12.7630 H   0  0  0  0  0  0  0  0  0  0  0  0
   -8.7176    6.6148  -12.8413 H   0  0  0  0  0  0  0  0  0  0  0  0
   -6.2641    4.8331  -19.7267 H   0  0  0  0  0  0  0  0  0  0  0  0
   -7.8012    4.2463  -13.1635 N   0  0  0  0  0  0  0  0  0  0  0  0
   -7.6964    3.3588  -13.5765 H   0  0  0  0  0  0  0  0  0  0  0  0
   -8.0904    4.3167  -11.7888 C   0  0  0  0  0  0  0  0  0  0  0  0
   -7.9388    5.4745  -10.9938 C   0  0  0  0  0  0  0  0  0  0  0  0
   -8.1514    5.4666   -9.6082 C   0  0  0  0  0  0  0  0  0  0  0  0
   -8.5175    4.2800   -9.0145 C   0  0  0  0  0  0  0  0  0  0  0  0
   -8.6505    3.1220   -9.7690 C   0  0  0  0  0  0  0  0  0  0  0  0
   -8.4259    3.1192  -11.1369 C   0  0  0  0  0  0  0  0  0  0  0  0
   -9.0146    1.9955   -8.8600 C   0  0  0  0  0  0  0  0  0  0  0  0
   -9.4947    2.6550   -7.6134 N   0  0  0  0  0  0  0  0  0  0  0  0
   -8.8100    3.9655   -7.5868 C   0  0  0  0  0  0  0  0  0  0  0  0
   -9.2419    2.1016   -6.7946 H   0  0  0  0  0  0  0  0  0  0  0  0
   -5.0900    6.7722  -16.1559 O   0  0  0  0  0  0  0  0  0  0  0  0
   -3.0897    7.9941  -16.6845 C   0  0  0  0  0  0  0  0  0  0  0  0
   -4.5353    7.7078  -17.0988 C   0  0  0  0  0  0  0  0  0  0  0  0
   -5.3537    9.0130  -17.0866 C   0  0  0  0  0  0  0  0  0  0  0  0
   -5.4454    9.5572  -15.7684 O   0  0  0  0  0  0  0  0  0  0  0  0
   -5.8914    8.9219  -15.1866 H   0  0  0  0  0  0  0  0  0  0  0  0
 38 37  1  0  0  0
 38 39  1  0  0  0
 39 40  1  0  0  0
 38 36  1  0  0  0
  1 36  1  0  0  0
  1  2  1  0  0  0
  2  3  1  0  0  0
  3  4  1  0  0  0
  3  5  1  0  0  0
  5  6  1  0  0  0
  6  7  1  0  0  0
  7  8  2  0  0  0
  7  9  1  0  0  0
  9 10  1  0  0  0
  9 24  1  0  0  0
 24 26  1  0  0  0
 26 27  2  0  0  0
 27 28  1  0  0  0
 28 29  2  0  0  0
 29 30  1  0  0  0
 30 31  2  0  0  0
 30 32  1  0  0  0
 32 33  1  0  0  0
 33 34  1  0  0  0
  9 11  1  0  0  0
 11 12  2  0  0  0
 12 13  1  0  0  0
 13 14  1  0  0  0
 13 15  2  0  0  0
 15 16  1  0  0  0
 16 17  2  0  0  0
 16 18  1  0  0  0
 18 19  1  0  0  0
 19 20  2  0  0  0
 17  1  1  0  0  0
 19  1  1  0  0  0
 31 26  1  0  0  0
 17 11  1  0  0  0
 34 29  1  0  0  0
 40 41  1  0  0  0
  6 21  1  0  0  0
 10 22  1  0  0  0
 24 25  1  0  0  0
 33 35  1  0  0  0
 18 23  1  0  0  0
M  END
> <minimizedAffinity>
-8.59495

> <minimizedRMSD>
0.61818

$$$$
P22951


 31 34  0  0  0  0  0  0  0  0999 V2000
   -5.8512    5.3515  -15.1227 C   0  0  0  0  0  0  0  0  0  0  0  0
   -5.5459    4.4094  -13.9591 C   0  0  0  0  0  0  0  0  0  0  0  0
   -4.8305    5.1736  -16.2615 C   0  0  0  0  0  0  0  0  0  0  0  0
   -3.6142    5.1655  -16.1924 O   0  0  0  0  0  0  0  0  0  0  0  0
   -5.5922    4.9957  -17.5570 C   0  0  0  0  0  0  0  0  0  0  0  0
   -5.0827    4.9609  -18.6522 O   0  0  0  0  0  0  0  0  0  0  0  0
   -7.0035    4.8514  -17.2007 C   0  0  0  0  0  0  0  0  0  0  0  0
   -8.0479    4.5453  -18.0542 C   0  0  0  0  0  0  0  0  0  0  0  0
   -9.2947    4.3450  -17.4813 C   0  0  0  0  0  0  0  0  0  0  0  0
  -10.3276    3.9981  -18.2582 F   0  0  0  0  0  0  0  0  0  0  0  0
   -9.4996    4.5042  -16.1078 C   0  0  0  0  0  0  0  0  0  0  0  0
   -8.4389    4.8784  -15.2738 C   0  0  0  0  0  0  0  0  0  0  0  0
   -7.1630    5.0184  -15.8162 C   0  0  0  0  0  0  0  0  0  0  0  0
   -8.7385    5.2632  -13.8741 C   0  0  0  0  0  0  0  0  0  0  0  0
   -9.2321    6.3026  -13.6863 O   0  0  0  0  0  0  0  0  0  0  0  0
   -8.3424    4.1504  -12.8820 N   0  0  0  0  0  0  0  0  0  0  0  0
   -8.0066    3.3252  -13.3010 H   0  0  0  0  0  0  0  0  0  0  0  0
   -8.3823    4.1231  -11.4891 C   0  0  0  0  0  0  0  0  0  0  0  0
   -8.1056    5.2777  -10.7356 C   0  0  0  0  0  0  0  0  0  0  0  0
   -8.1979    5.2651   -9.3400 C   0  0  0  0  0  0  0  0  0  0  0  0
   -8.5788    4.0885   -8.7254 C   0  0  0  0  0  0  0  0  0  0  0  0
   -8.8311    2.9382   -9.4682 C   0  0  0  0  0  0  0  0  0  0  0  0
   -8.7306    2.9328  -10.8487 C   0  0  0  0  0  0  0  0  0  0  0  0
   -9.1908    1.8298   -8.5348 C   0  0  0  0  0  0  0  0  0  0  0  0
   -9.5471    2.5109   -7.2604 N   0  0  0  0  0  0  0  0  0  0  0  0
   -8.7971    3.7863   -7.2809 C   0  0  0  0  0  0  0  0  0  0  0  0
   -9.2664    1.9434   -6.4607 H   0  0  0  0  0  0  0  0  0  0  0  0
   -5.9441    6.7168  -14.7452 O   0  0  0  0  0  0  0  0  0  0  0  0
   -4.1014    7.8838  -13.7982 C   0  0  0  0  0  0  0  0  0  0  0  0
   -5.3710    7.0970  -13.4945 C   0  0  0  0  0  0  0  0  0  0  0  0
   -6.3737    7.9698  -12.7500 C   0  0  0  0  0  0  0  0  0  0  0  0
 29 30  1  0  0  0
 30 31  1  0  0  0
 30 28  1  0  0  0
 28  1  1  0  0  0
  1  2  1  0  0  0
  1  3  1  0  0  0
  3  4  2  0  0  0
  3  5  1  0  0  0
  5  6  2  0  0  0
  5  7  1  0  0  0
  7  8  2  0  0  0
  8  9  1  0  0  0
  9 10  1  0  0  0
  9 11  2  0  0  0
 11 12  1  0  0  0
 12 14  1  0  0  0
 14 15  2  0  0  0
 14 16  1  0  0  0
 16 18  1  0  0  0
 18 19  2  0  0  0
 19 20  1  0  0  0
 20 21  2  0  0  0
 21 22  1  0  0  0
 22 23  2  0  0  0
 22 24  1  0  0  0
 24 25  1  0  0  0
 25 26  1  0  0  0
 12 13  2  0  0  0
 13  1  1  0  0  0
 13  7  1  0  0  0
 23 18  1  0  0  0
 26 21  1  0  0  0
 16 17  1  0  0  0
 25 27  1  0  0  0
M  END
> <minimizedAffinity>
-8.52234

> <minimizedRMSD>
0.96919

$$$$
P22954


 34 37  0  0  0  0  0  0  0  0999 V2000
   -5.7800    4.9139  -17.7379 N   0  0  0  0  0  0  0  0  0  0  0  0
   -4.8816    4.9914  -16.6697 C   0  0  0  0  0  0  0  0  0  0  0  0
   -3.6594    4.9552  -16.7467 O   0  0  0  0  0  0  0  0  0  0  0  0
   -5.7314    5.1876  -15.3585 C   0  0  0  0  0  0  0  0  0  0  0  0
   -5.4961    6.6392  -14.9271 C   0  0  0  0  0  0  0  0  0  0  0  0
   -7.1321    4.9701  -15.8956 C   0  0  0  0  0  0  0  0  0  0  0  0
   -8.3427    4.8775  -15.2208 C   0  0  0  0  0  0  0  0  0  0  0  0
   -9.4910    4.5232  -15.9303 C   0  0  0  0  0  0  0  0  0  0  0  0
   -9.4253    4.3451  -17.3114 C   0  0  0  0  0  0  0  0  0  0  0  0
  -10.5370    4.0122  -17.9783 F   0  0  0  0  0  0  0  0  0  0  0  0
   -8.2371    4.5198  -18.0123 C   0  0  0  0  0  0  0  0  0  0  0  0
   -7.0962    4.7992  -17.2813 C   0  0  0  0  0  0  0  0  0  0  0  0
   -8.4851    5.3132  -13.8177 C   0  0  0  0  0  0  0  0  0  0  0  0
   -8.7530    6.4316  -13.6234 O   0  0  0  0  0  0  0  0  0  0  0  0
   -8.3282    4.1385  -12.8340 N   0  0  0  0  0  0  0  0  0  0  0  0
   -8.1705    3.2642  -13.2582 H   0  0  0  0  0  0  0  0  0  0  0  0
   -8.3731    4.1116  -11.4423 C   0  0  0  0  0  0  0  0  0  0  0  0
   -8.1260    5.2711  -10.6861 C   0  0  0  0  0  0  0  0  0  0  0  0
   -8.2248    5.2548   -9.2911 C   0  0  0  0  0  0  0  0  0  0  0  0
   -8.5943    4.0722   -8.6815 C   0  0  0  0  0  0  0  0  0  0  0  0
   -8.8275    2.9205   -9.4287 C   0  0  0  0  0  0  0  0  0  0  0  0
   -8.7059    2.9151  -10.8068 C   0  0  0  0  0  0  0  0  0  0  0  0
   -9.1967    1.8093   -8.5032 C   0  0  0  0  0  0  0  0  0  0  0  0
   -9.5649    2.4856   -7.2289 N   0  0  0  0  0  0  0  0  0  0  0  0
   -8.8179    3.7627   -7.2395 C   0  0  0  0  0  0  0  0  0  0  0  0
   -9.2892    1.9163   -6.4288 H   0  0  0  0  0  0  0  0  0  0  0  0
   -5.3832    5.1338  -19.0989 C   0  0  0  0  0  0  0  0  0  0  0  0
   -4.6560    7.1064  -20.2761 C   0  0  0  0  0  0  0  0  0  0  0  0
   -5.6548    6.5428  -19.3795 N   0  0  0  0  0  0  0  0  0  0  0  0
   -6.5743    6.6238  -19.8135 H   0  0  0  0  0  0  0  0  0  0  0  0
   -5.5874    4.2198  -14.3346 O   0  0  0  0  0  0  0  0  0  0  0  0
   -4.4206    4.2549  -13.5196 C   0  0  0  0  0  0  0  0  0  0  0  0
   -3.6680    2.9576  -13.8046 C   0  0  0  0  0  0  0  0  0  0  0  0
   -4.7954    4.2837  -12.0397 C   0  0  0  0  0  0  0  0  0  0  0  0
 28 29  1  0  0  0
 29 27  1  0  0  0
 27  1  1  0  0  0
  1  2  1  0  0  0
  2  3  2  0  0  0
  2  4  1  0  0  0
  4  5  1  0  0  0
  4 31  1  0  0  0
 31 32  1  0  0  0
 32 33  1  0  0  0
 32 34  1  0  0  0
  4  6  1  0  0  0
  6  7  2  0  0  0
  7 13  1  0  0  0
 13 14  2  0  0  0
 13 15  1  0  0  0
 15 17  1  0  0  0
 17 18  2  0  0  0
 18 19  1  0  0  0
 19 20  2  0  0  0
 20 21  1  0  0  0
 21 22  2  0  0  0
 21 23  1  0  0  0
 23 24  1  0  0  0
 24 25  1  0  0  0
  7  8  1  0  0  0
  8  9  2  0  0  0
  9 10  1  0  0  0
  9 11  1  0  0  0
 11 12  2  0  0  0
 12  1  1  0  0  0
 12  6  1  0  0  0
 22 17  1  0  0  0
 25 20  1  0  0  0
 29 30  1  0  0  0
 15 16  1  0  0  0
 24 26  1  0  0  0
M  END
> <minimizedAffinity>
-8.45487

> <minimizedRMSD>
0.58301

$$$$
P22955


 39 43  0  0  0  0  0  0  0  0999 V2000
   -4.9230    5.0852  -15.2817 C   0  0  0  0  0  0  0  0  0  0  0  0
   -4.0517    6.2522  -14.7306 C   0  0  0  0  0  0  0  0  0  0  0  0
   -4.6528    7.6481  -14.6585 C   0  0  0  0  0  0  0  0  0  0  0  0
   -3.7142    8.5400  -15.0943 F   0  0  0  0  0  0  0  0  0  0  0  0
   -4.9567    7.9939  -13.1922 C   0  0  0  0  0  0  0  0  0  0  0  0
   -5.8431    7.0092  -12.6206 N   0  0  0  0  0  0  0  0  0  0  0  0
   -7.1340    6.9915  -13.0903 C   0  0  0  0  0  0  0  0  0  0  0  0
   -7.6929    8.0522  -13.3690 O   0  0  0  0  0  0  0  0  0  0  0  0
   -7.7833    5.5817  -13.2930 C   0  0  0  0  0  0  0  0  0  0  0  0
   -9.1702    5.7786  -13.0271 O   0  0  0  0  0  0  0  0  0  0  0  0
   -7.6210    5.1364  -14.7627 C   0  0  0  0  0  0  0  0  0  0  0  0
   -8.8275    4.7254  -15.4121 C   0  0  0  0  0  0  0  0  0  0  0  0
   -8.9294    4.4761  -16.7782 C   0  0  0  0  0  0  0  0  0  0  0  0
  -10.1075    4.1068  -17.2980 F   0  0  0  0  0  0  0  0  0  0  0  0
   -7.8333    4.6273  -17.5869 C   0  0  0  0  0  0  0  0  0  0  0  0
   -6.6329    4.8920  -16.9514 C   0  0  0  0  0  0  0  0  0  0  0  0
   -6.4527    5.1078  -15.5565 C   0  0  0  0  0  0  0  0  0  0  0  0
   -5.4367    4.8942  -17.6325 N   0  0  0  0  0  0  0  0  0  0  0  0
   -4.3697    4.9322  -16.7720 C   0  0  0  0  0  0  0  0  0  0  0  0
   -3.2047    4.8511  -17.1412 O   0  0  0  0  0  0  0  0  0  0  0  0
   -5.5376    6.3804  -11.9274 H   0  0  0  0  0  0  0  0  0  0  0  0
   -9.2861    6.0590  -12.1057 H   0  0  0  0  0  0  0  0  0  0  0  0
   -5.3573    4.8713  -18.6135 H   0  0  0  0  0  0  0  0  0  0  0  0
   -7.2994    4.5349  -12.4033 N   0  0  0  0  0  0  0  0  0  0  0  0
   -6.6387    3.8852  -12.7358 H   0  0  0  0  0  0  0  0  0  0  0  0
   -7.7604    4.4352  -11.0738 C   0  0  0  0  0  0  0  0  0  0  0  0
   -7.5921    5.4563  -10.1115 C   0  0  0  0  0  0  0  0  0  0  0  0
   -8.0016    5.3026   -8.7819 C   0  0  0  0  0  0  0  0  0  0  0  0
   -8.5889    4.1127   -8.4188 C   0  0  0  0  0  0  0  0  0  0  0  0
   -8.7546    3.0908   -9.3445 C   0  0  0  0  0  0  0  0  0  0  0  0
   -8.3238    3.2203  -10.6544 C   0  0  0  0  0  0  0  0  0  0  0  0
   -9.3967    1.9269   -8.6665 C   0  0  0  0  0  0  0  0  0  0  0  0
   -9.9435    2.4793   -7.3962 N   0  0  0  0  0  0  0  0  0  0  0  0
   -9.1023    3.6559   -7.0951 C   0  0  0  0  0  0  0  0  0  0  0  0
   -9.8762    1.7899   -6.6475 H   0  0  0  0  0  0  0  0  0  0  0  0
   -4.5733    3.7825  -14.7335 O   0  0  0  0  0  0  0  0  0  0  0  0
   -4.6771    2.4739  -12.7045 C   0  0  0  0  0  0  0  0  0  0  0  0
   -4.0374    3.6641  -13.4179 C   0  0  0  0  0  0  0  0  0  0  0  0
   -2.5297    3.4300  -13.4906 C   0  0  0  0  0  0  0  0  0  0  0  0
 37 38  1  0  0  0
 38 39  1  0  0  0
 38 36  1  0  0  0
  1 36  1  0  0  0
  1  2  1  0  0  0
  2  3  1  0  0  0
  3  4  1  0  0  0
  3  5  1  0  0  0
  5  6  1  0  0  0
  6  7  1  0  0  0
  7  8  2  0  0  0
  7  9  1  0  0  0
  9 10  1  0  0  0
  9 24  1  0  0  0
 24 26  1  0  0  0
 26 27  2  0  0  0
 27 28  1  0  0  0
 28 29  2  0  0  0
 29 30  1  0  0  0
 30 31  2  0  0  0
 30 32  1  0  0  0
 32 33  1  0  0  0
 33 34  1  0  0  0
  9 11  1  0  0  0
 11 12  2  0  0  0
 12 13  1  0  0  0
 13 14  1  0  0  0
 13 15  2  0  0  0
 15 16  1  0  0  0
 16 17  2  0  0  0
 16 18  1  0  0  0
 18 19  1  0  0  0
 19 20  2  0  0  0
 17  1  1  0  0  0
 19  1  1  0  0  0
 31 26  1  0  0  0
 17 11  1  0  0  0
 34 29  1  0  0  0
  6 21  1  0  0  0
 10 22  1  0  0  0
 24 25  1  0  0  0
 33 35  1  0  0  0
 18 23  1  0  0  0
M  END
> <minimizedAffinity>
-8.19429

> <minimizedRMSD>
0.30179

$$$$
P22956


 40 43  0  0  0  0  0  0  0  0999 V2000
   -7.1513    4.4163  -13.7273 C   0  0  0  0  0  0  0  0  0  0  0  0
   -6.4587    3.1943  -13.5983 O   0  0  0  0  0  0  0  0  0  0  0  0
   -7.0052    2.4742  -13.9500 H   0  0  0  0  0  0  0  0  0  0  0  0
   -4.9916    5.1329  -16.1305 C   0  0  0  0  0  0  0  0  0  0  0  0
   -4.1372    4.0987  -15.4040 C   0  0  0  0  0  0  0  0  0  0  0  0
   -4.5882    5.1485  -17.6569 C   0  0  0  0  0  0  0  0  0  0  0  0
   -3.4597    5.2229  -18.1242 O   0  0  0  0  0  0  0  0  0  0  0  0
   -5.7532    5.0991  -18.3967 N   0  0  0  0  0  0  0  0  0  0  0  0
   -6.8510    4.8700  -17.5851 C   0  0  0  0  0  0  0  0  0  0  0  0
   -8.1295    4.6662  -18.0506 C   0  0  0  0  0  0  0  0  0  0  0  0
   -9.0911    4.3960  -17.1006 C   0  0  0  0  0  0  0  0  0  0  0  0
  -10.3478    4.1578  -17.4946 F   0  0  0  0  0  0  0  0  0  0  0  0
   -8.7796    4.3598  -15.7336 C   0  0  0  0  0  0  0  0  0  0  0  0
   -7.4611    4.5594  -15.2391 C   0  0  0  0  0  0  0  0  0  0  0  0
   -6.4868    4.8209  -16.2214 C   0  0  0  0  0  0  0  0  0  0  0  0
   -5.7973    5.2121  -19.3737 H   0  0  0  0  0  0  0  0  0  0  0  0
   -4.9489    6.3905  -15.4625 O   0  0  0  0  0  0  0  0  0  0  0  0
   -3.0540    7.6022  -14.4647 C   0  0  0  0  0  0  0  0  0  0  0  0
   -3.8528    7.2677  -15.7187 C   0  0  0  0  0  0  0  0  0  0  0  0
   -4.4586    8.5499  -16.2868 C   0  0  0  0  0  0  0  0  0  0  0  0
   -6.3053    5.6694  -13.1624 C   0  0  0  0  0  0  0  0  0  0  0  0
   -5.3120    5.5219  -12.5558 O   0  0  0  0  0  0  0  0  0  0  0  0
   -7.0823    6.9742  -13.5288 N   0  0  0  0  0  0  0  0  0  0  0  0
   -7.9418    6.8277  -13.9862 H   0  0  0  0  0  0  0  0  0  0  0  0
   -6.7450    8.3583  -13.3059 C   0  0  0  0  0  0  0  0  0  0  0  0
   -7.5157    8.9776  -12.1478 C   0  0  0  0  0  0  0  0  0  0  0  0
   -8.9350    9.3128  -12.5624 C   0  0  0  0  0  0  0  0  0  0  0  0
   -9.7412    8.2460  -12.3178 F   0  0  0  0  0  0  0  0  0  0  0  0
   -8.4140    4.2323  -12.9744 N   0  0  0  0  0  0  0  0  0  0  0  0
   -9.2668    4.1326  -13.4562 H   0  0  0  0  0  0  0  0  0  0  0  0
   -8.3893    4.2006  -11.5618 C   0  0  0  0  0  0  0  0  0  0  0  0
   -8.2078    5.3630  -10.7891 C   0  0  0  0  0  0  0  0  0  0  0  0
   -8.2916    5.3537   -9.3930 C   0  0  0  0  0  0  0  0  0  0  0  0
   -8.5976    4.1630   -8.7748 C   0  0  0  0  0  0  0  0  0  0  0  0
   -8.7600    2.9978   -9.5142 C   0  0  0  0  0  0  0  0  0  0  0  0
   -8.6452    2.9928  -10.8938 C   0  0  0  0  0  0  0  0  0  0  0  0
   -9.0791    1.8791   -8.5808 C   0  0  0  0  0  0  0  0  0  0  0  0
   -9.5344    2.5518   -7.3327 N   0  0  0  0  0  0  0  0  0  0  0  0
   -8.8526    3.8651   -7.3362 C   0  0  0  0  0  0  0  0  0  0  0  0
   -9.2629    2.0089   -6.5130 H   0  0  0  0  0  0  0  0  0  0  0  0
 18 19  1  0  0  0
 19 20  1  0  0  0
 19 17  1  0  0  0
 17  4  1  0  0  0
  4  5  1  0  0  0
  4  6  1  0  0  0
  6  7  2  0  0  0
  6  8  1  0  0  0
  8  9  1  0  0  0
  9 10  2  0  0  0
 10 11  1  0  0  0
 11 12  1  0  0  0
 11 13  2  0  0  0
 13 14  1  0  0  0
 14  1  1  0  0  0
  1  2  1  0  0  0
  1 29  1  0  0  0
 29 31  1  0  0  0
 31 32  2  0  0  0
 32 33  1  0  0  0
 33 34  2  0  0  0
 34 35  1  0  0  0
 35 36  2  0  0  0
 35 37  1  0  0  0
 37 38  1  0  0  0
 38 39  1  0  0  0
  1 21  1  0  0  0
 21 22  2  0  0  0
 21 23  1  0  0  0
 23 25  1  0  0  0
 25 26  1  0  0  0
 26 27  1  0  0  0
 27 28  1  0  0  0
 14 15  2  0  0  0
 15  4  1  0  0  0
 15  9  1  0  0  0
 36 31  1  0  0  0
 39 34  1  0  0  0
  8 16  1  0  0  0
  2  3  1  0  0  0
 29 30  1  0  0  0
 38 40  1  0  0  0
 23 24  1  0  0  0
M  END
> <minimizedAffinity>
-7.58832

> <minimizedRMSD>
0.83601

$$$$
P22959


 34 37  0  0  0  0  0  0  0  0999 V2000
   -5.8019    4.7593  -17.9570 N   0  0  0  0  0  0  0  0  0  0  0  0
   -4.9133    4.6482  -16.8809 C   0  0  0  0  0  0  0  0  0  0  0  0
   -3.7134    4.4144  -16.9606 O   0  0  0  0  0  0  0  0  0  0  0  0
   -5.7321    4.9357  -15.5710 C   0  0  0  0  0  0  0  0  0  0  0  0
   -5.5158    3.7480  -14.6278 C   0  0  0  0  0  0  0  0  0  0  0  0
   -7.1477    4.9350  -16.1213 C   0  0  0  0  0  0  0  0  0  0  0  0
   -8.3610    5.0315  -15.4670 C   0  0  0  0  0  0  0  0  0  0  0  0
   -9.5251    4.8133  -16.1935 C   0  0  0  0  0  0  0  0  0  0  0  0
   -9.4789    4.5723  -17.5655 C   0  0  0  0  0  0  0  0  0  0  0  0
  -10.6247    4.3684  -18.2189 F   0  0  0  0  0  0  0  0  0  0  0  0
   -8.2785    4.5783  -18.2599 C   0  0  0  0  0  0  0  0  0  0  0  0
   -7.1251    4.7537  -17.5123 C   0  0  0  0  0  0  0  0  0  0  0  0
   -8.4862    5.5400  -14.0879 C   0  0  0  0  0  0  0  0  0  0  0  0
   -8.6266    6.6870  -13.9435 O   0  0  0  0  0  0  0  0  0  0  0  0
   -8.4404    4.4028  -13.0529 N   0  0  0  0  0  0  0  0  0  0  0  0
   -8.3870    3.4979  -13.4371 H   0  0  0  0  0  0  0  0  0  0  0  0
   -8.4620    4.4447  -11.6624 C   0  0  0  0  0  0  0  0  0  0  0  0
   -8.0907    5.6096  -10.9717 C   0  0  0  0  0  0  0  0  0  0  0  0
   -8.0813    5.6415   -9.5745 C   0  0  0  0  0  0  0  0  0  0  0  0
   -8.4485    4.4966   -8.8935 C   0  0  0  0  0  0  0  0  0  0  0  0
   -8.8229    3.3452   -9.5760 C   0  0  0  0  0  0  0  0  0  0  0  0
   -8.8405    3.3029  -10.9605 C   0  0  0  0  0  0  0  0  0  0  0  0
   -9.1071    2.2630   -8.5894 C   0  0  0  0  0  0  0  0  0  0  0  0
   -9.1733    2.9366   -7.2687 N   0  0  0  0  0  0  0  0  0  0  0  0
   -8.4859    4.2343   -7.4263 C   0  0  0  0  0  0  0  0  0  0  0  0
   -8.7032    2.3721   -6.5611 H   0  0  0  0  0  0  0  0  0  0  0  0
   -5.4125    4.7204  -19.3367 C   0  0  0  0  0  0  0  0  0  0  0  0
   -5.2332    7.0945  -19.7410 C   0  0  0  0  0  0  0  0  0  0  0  0
   -4.5281    5.8400  -19.6270 N   0  0  0  0  0  0  0  0  0  0  0  0
   -3.8435    5.9180  -18.8749 H   0  0  0  0  0  0  0  0  0  0  0  0
   -5.4454    6.0838  -14.7864 O   0  0  0  0  0  0  0  0  0  0  0  0
   -4.9283    7.2412  -15.4326 C   0  0  0  0  0  0  0  0  0  0  0  0
   -3.4559    7.4214  -15.0721 C   0  0  0  0  0  0  0  0  0  0  0  0
   -5.6982    8.4609  -14.9286 C   0  0  0  0  0  0  0  0  0  0  0  0
 28 29  1  0  0  0
 29 27  1  0  0  0
 27  1  1  0  0  0
  1  2  1  0  0  0
  2  3  2  0  0  0
  2  4  1  0  0  0
  4  5  1  0  0  0
  4 31  1  0  0  0
 31 32  1  0  0  0
 32 33  1  0  0  0
 32 34  1  0  0  0
  4  6  1  0  0  0
  6  7  2  0  0  0
  7 13  1  0  0  0
 13 14  2  0  0  0
 13 15  1  0  0  0
 15 17  1  0  0  0
 17 18  2  0  0  0
 18 19  1  0  0  0
 19 20  2  0  0  0
 20 21  1  0  0  0
 21 22  2  0  0  0
 21 23  1  0  0  0
 23 24  1  0  0  0
 24 25  1  0  0  0
  7  8  1  0  0  0
  8  9  2  0  0  0
  9 10  1  0  0  0
  9 11  1  0  0  0
 11 12  2  0  0  0
 12  1  1  0  0  0
 12  6  1  0  0  0
 22 17  1  0  0  0
 25 20  1  0  0  0
 29 30  1  0  0  0
 15 16  1  0  0  0
 24 26  1  0  0  0
M  END
> <minimizedAffinity>
-7.35311

> <minimizedRMSD>
0.62898

$$$$
P22960


 37 40  0  0  0  0  0  0  0  0999 V2000
   -7.5084    4.9689  -13.8495 C   0  0  0  0  0  0  0  0  0  0  0  0
   -6.1995    4.5461  -13.5367 O   0  0  0  0  0  0  0  0  0  0  0  0
   -5.5624    5.0406  -14.0757 H   0  0  0  0  0  0  0  0  0  0  0  0
   -5.4231    5.5478  -16.3851 C   0  0  0  0  0  0  0  0  0  0  0  0
   -5.3586    6.9906  -15.8700 C   0  0  0  0  0  0  0  0  0  0  0  0
   -5.1079    5.5977  -17.9223 C   0  0  0  0  0  0  0  0  0  0  0  0
   -4.0434    5.8872  -18.4515 O   0  0  0  0  0  0  0  0  0  0  0  0
   -6.2674    5.2715  -18.6011 N   0  0  0  0  0  0  0  0  0  0  0  0
   -7.2766    4.9011  -17.7293 C   0  0  0  0  0  0  0  0  0  0  0  0
   -8.5225    4.4631  -18.1172 C   0  0  0  0  0  0  0  0  0  0  0  0
   -9.3954    4.1085  -17.1082 C   0  0  0  0  0  0  0  0  0  0  0  0
  -10.6144    3.6601  -17.4343 F   0  0  0  0  0  0  0  0  0  0  0  0
   -9.0393    4.2331  -15.7572 C   0  0  0  0  0  0  0  0  0  0  0  0
   -7.7684    4.7092  -15.3459 C   0  0  0  0  0  0  0  0  0  0  0  0
   -6.8686    5.0248  -16.3858 C   0  0  0  0  0  0  0  0  0  0  0  0
   -6.3631    5.2991  -19.5805 H   0  0  0  0  0  0  0  0  0  0  0  0
   -4.5705    4.5739  -15.7918 O   0  0  0  0  0  0  0  0  0  0  0  0
   -2.2580    5.3953  -15.7619 C   0  0  0  0  0  0  0  0  0  0  0  0
   -3.4873    4.9847  -14.9608 C   0  0  0  0  0  0  0  0  0  0  0  0
   -3.1580    3.7812  -14.0768 C   0  0  0  0  0  0  0  0  0  0  0  0
   -8.3753    4.1713  -12.9932 N   0  0  0  0  0  0  0  0  0  0  0  0
   -9.0148    3.5733  -13.4433 H   0  0  0  0  0  0  0  0  0  0  0  0
   -8.3892    4.1708  -11.5958 C   0  0  0  0  0  0  0  0  0  0  0  0
   -8.0898    5.2914  -10.7956 C   0  0  0  0  0  0  0  0  0  0  0  0
   -8.1956    5.2778   -9.3989 C   0  0  0  0  0  0  0  0  0  0  0  0
   -8.5886    4.1110   -8.7891 C   0  0  0  0  0  0  0  0  0  0  0  0
   -8.8558    2.9820   -9.5432 C   0  0  0  0  0  0  0  0  0  0  0  0
   -8.7783    2.9981  -10.9303 C   0  0  0  0  0  0  0  0  0  0  0  0
   -9.1682    1.8490   -8.6304 C   0  0  0  0  0  0  0  0  0  0  0  0
   -9.3161    2.4380   -7.2709 N   0  0  0  0  0  0  0  0  0  0  0  0
   -8.7959    3.8180   -7.3458 C   0  0  0  0  0  0  0  0  0  0  0  0
   -8.7795    1.8966   -6.5932 H   0  0  0  0  0  0  0  0  0  0  0  0
   -7.5550    6.4805  -13.6125 C   0  0  0  0  0  0  0  0  0  0  0  0
   -8.9194    7.0489  -13.3909 C   0  0  0  0  0  0  0  0  0  0  0  0
   -9.9828    6.6428  -13.8253 O   0  0  0  0  0  0  0  0  0  0  0  0
   -8.8709    8.2021  -12.6864 O   0  0  0  0  0  0  0  0  0  0  0  0
   -8.0524    8.5133  -12.3529 H   0  0  0  0  0  0  0  0  0  0  0  0
 18 19  1  0  0  0
 19 20  1  0  0  0
 19 17  1  0  0  0
 17  4  1  0  0  0
  4  5  1  0  0  0
  4  6  1  0  0  0
  6  7  2  0  0  0
  6  8  1  0  0  0
  8  9  1  0  0  0
  9 10  2  0  0  0
 10 11  1  0  0  0
 11 12  1  0  0  0
 11 13  2  0  0  0
 13 14  1  0  0  0
 14  1  1  0  0  0
  1  2  1  0  0  0
  1 33  1  0  0  0
 33 34  1  0  0  0
 34 35  2  0  0  0
 34 36  1  0  0  0
  1 21  1  0  0  0
 21 23  1  0  0  0
 23 24  2  0  0  0
 24 25  1  0  0  0
 25 26  2  0  0  0
 26 27  1  0  0  0
 27 28  2  0  0  0
 27 29  1  0  0  0
 29 30  1  0  0  0
 30 31  1  0  0  0
 14 15  2  0  0  0
 15  4  1  0  0  0
 15  9  1  0  0  0
 28 23  1  0  0  0
 31 26  1  0  0  0
  8 16  1  0  0  0
  2  3  1  0  0  0
 36 37  1  0  0  0
 21 22  1  0  0  0
 30 32  1  0  0  0
M  END
> <minimizedAffinity>
-8.28231

> <minimizedRMSD>
0.49484

$$$$
P22965


 38 42  0  0  0  0  0  0  0  0999 V2000
   -5.2080    8.8794  -14.1502 C   0  0  0  0  0  0  0  0  0  0  0  0
   -5.6737    7.4517  -14.4383 C   0  0  0  0  0  0  0  0  0  0  0  0
   -4.9183    6.8743  -15.6432 C   0  0  0  0  0  0  0  0  0  0  0  0
   -5.1597    5.3919  -16.0323 C   0  0  0  0  0  0  0  0  0  0  0  0
   -4.6887    5.2503  -17.5355 C   0  0  0  0  0  0  0  0  0  0  0  0
   -3.5585    5.4220  -17.9733 O   0  0  0  0  0  0  0  0  0  0  0  0
   -5.8094    4.9470  -18.2793 N   0  0  0  0  0  0  0  0  0  0  0  0
   -5.7743    4.7501  -19.6348 F   0  0  0  0  0  0  0  0  0  0  0  0
   -6.9432    4.8028  -17.5059 C   0  0  0  0  0  0  0  0  0  0  0  0
   -8.1885    4.4653  -17.9902 C   0  0  0  0  0  0  0  0  0  0  0  0
   -9.1836    4.2918  -17.0548 C   0  0  0  0  0  0  0  0  0  0  0  0
  -10.4086    3.9380  -17.4601 F   0  0  0  0  0  0  0  0  0  0  0  0
   -8.9338    4.4875  -15.6915 C   0  0  0  0  0  0  0  0  0  0  0  0
   -7.6609    4.8784  -15.1809 C   0  0  0  0  0  0  0  0  0  0  0  0
   -6.6501    5.0321  -16.1432 C   0  0  0  0  0  0  0  0  0  0  0  0
   -7.5873    5.2032  -13.6771 C   0  0  0  0  0  0  0  0  0  0  0  0
   -8.4051    6.3642  -13.5702 O   0  0  0  0  0  0  0  0  0  0  0  0
   -6.1379    5.4307  -13.0664 C   0  0  0  0  0  0  0  0  0  0  0  0
   -5.5323    4.6134  -12.3680 O   0  0  0  0  0  0  0  0  0  0  0  0
   -5.5120    6.6442  -13.2557 N   0  0  0  0  0  0  0  0  0  0  0  0
   -9.2772    6.1817  -13.9536 H   0  0  0  0  0  0  0  0  0  0  0  0
   -4.9210    6.9781  -12.5426 H   0  0  0  0  0  0  0  0  0  0  0  0
   -8.3040    4.1834  -12.9022 N   0  0  0  0  0  0  0  0  0  0  0  0
   -8.7713    3.4637  -13.3847 H   0  0  0  0  0  0  0  0  0  0  0  0
   -8.3488    4.1954  -11.4918 C   0  0  0  0  0  0  0  0  0  0  0  0
   -8.2159    5.3627  -10.7012 C   0  0  0  0  0  0  0  0  0  0  0  0
   -8.3449    5.3379   -9.3071 C   0  0  0  0  0  0  0  0  0  0  0  0
   -8.6550    4.1379   -8.7078 C   0  0  0  0  0  0  0  0  0  0  0  0
   -8.8086    2.9834   -9.4650 C   0  0  0  0  0  0  0  0  0  0  0  0
   -8.6672    2.9947  -10.8417 C   0  0  0  0  0  0  0  0  0  0  0  0
   -9.1115    1.8451   -8.5505 C   0  0  0  0  0  0  0  0  0  0  0  0
   -9.5637    2.4905   -7.2869 N   0  0  0  0  0  0  0  0  0  0  0  0
   -8.8924    3.8089   -7.2728 C   0  0  0  0  0  0  0  0  0  0  0  0
   -9.2815    1.9352   -6.4792 H   0  0  0  0  0  0  0  0  0  0  0  0
   -4.5824    4.3744  -15.2308 O   0  0  0  0  0  0  0  0  0  0  0  0
   -3.3665    4.5572  -14.5065 C   0  0  0  0  0  0  0  0  0  0  0  0
   -3.0294    3.1852  -13.9168 C   0  0  0  0  0  0  0  0  0  0  0  0
   -2.1915    5.0573  -15.3315 C   0  0  0  0  0  0  0  0  0  0  0  0
  2  1  1  0  0  0
  2  3  1  0  0  0
  3  4  1  0  0  0
  4 35  1  0  0  0
 35 36  1  0  0  0
 36 37  1  0  0  0
 36 38  1  0  0  0
  4  5  1  0  0  0
  5  6  2  0  0  0
  5  7  1  0  0  0
  7  8  1  0  0  0
  7  9  1  0  0  0
  9 10  1  0  0  0
 10 11  2  0  0  0
 11 12  1  0  0  0
 11 13  1  0  0  0
 13 14  2  0  0  0
 14 15  1  0  0  0
 14 16  1  0  0  0
 16 17  1  0  0  0
 16 23  1  0  0  0
 23 25  1  0  0  0
 25 26  2  0  0  0
 26 27  1  0  0  0
 27 28  2  0  0  0
 28 29  1  0  0  0
 29 30  2  0  0  0
 29 31  1  0  0  0
 31 32  1  0  0  0
 32 33  1  0  0  0
 16 18  1  0  0  0
 18 19  2  0  0  0
 18 20  1  0  0  0
 20  2  1  0  0  0
 15  4  1  0  0  0
 30 25  1  0  0  0
 15  9  2  0  0  0
 33 28  1  0  0  0
 17 21  1  0  0  0
 23 24  1  0  0  0
 32 34  1  0  0  0
 20 22  1  0  0  0
M  END
> <minimizedAffinity>
-9.31003

> <minimizedRMSD>
0.21024

$$$$
P22966


 37 41  0  0  0  0  0  0  0  0999 V2000
   -5.3412    5.2538  -14.6704 C   0  0  0  0  0  0  0  0  0  0  0  0
   -5.1186    6.4277  -13.7239 C   0  0  0  0  0  0  0  0  0  0  0  0
   -6.7745    5.0307  -15.0921 C   0  0  0  0  0  0  0  0  0  0  0  0
   -8.0581    4.9450  -14.5683 C   0  0  0  0  0  0  0  0  0  0  0  0
   -9.1712    4.6376  -15.3979 C   0  0  0  0  0  0  0  0  0  0  0  0
   -9.0343    4.4682  -16.7916 C   0  0  0  0  0  0  0  0  0  0  0  0
  -10.1027    4.1825  -17.5430 F   0  0  0  0  0  0  0  0  0  0  0  0
   -7.7667    4.6504  -17.3418 C   0  0  0  0  0  0  0  0  0  0  0  0
   -7.1892    4.6370  -18.5906 N   0  0  0  0  0  0  0  0  0  0  0  0
   -5.9223    5.0198  -18.4299 C   0  0  0  0  0  0  0  0  0  0  0  0
   -5.6330    5.1162  -17.1262 N   0  0  0  0  0  0  0  0  0  0  0  0
   -6.7791    4.9005  -16.4489 C   0  0  0  0  0  0  0  0  0  0  0  0
   -4.6223    5.6138  -16.1862 C   0  0  0  0  0  0  0  0  0  0  0  0
   -4.5411    7.0397  -16.3768 O   0  0  0  0  0  0  0  0  0  0  0  0
   -4.1333    7.2282  -17.2365 H   0  0  0  0  0  0  0  0  0  0  0  0
   -8.3301    5.3257  -13.1724 C   0  0  0  0  0  0  0  0  0  0  0  0
   -8.5183    6.4513  -12.9310 O   0  0  0  0  0  0  0  0  0  0  0  0
   -8.3425    4.0904  -12.2509 N   0  0  0  0  0  0  0  0  0  0  0  0
   -8.2273    3.2295  -12.7143 H   0  0  0  0  0  0  0  0  0  0  0  0
   -8.4895    3.9939  -10.8739 C   0  0  0  0  0  0  0  0  0  0  0  0
   -8.2133    5.0809  -10.0300 C   0  0  0  0  0  0  0  0  0  0  0  0
   -8.3512    4.9597   -8.6443 C   0  0  0  0  0  0  0  0  0  0  0  0
   -8.7611    3.7423   -8.1328 C   0  0  0  0  0  0  0  0  0  0  0  0
   -9.0270    2.6671   -8.9704 C   0  0  0  0  0  0  0  0  0  0  0  0
   -8.8993    2.7721  -10.3434 C   0  0  0  0  0  0  0  0  0  0  0  0
   -9.3974    1.4783   -8.1554 C   0  0  0  0  0  0  0  0  0  0  0  0
   -9.5548    1.9701   -6.7603 N   0  0  0  0  0  0  0  0  0  0  0  0
   -8.9794    3.3312   -6.7181 C   0  0  0  0  0  0  0  0  0  0  0  0
   -9.0562    1.3582   -6.1142 H   0  0  0  0  0  0  0  0  0  0  0  0
   -4.7895    3.9836  -14.2907 O   0  0  0  0  0  0  0  0  0  0  0  0
   -4.9953    3.8686  -11.8267 C   0  0  0  0  0  0  0  0  0  0  0  0
   -4.1397    3.6795  -13.0644 C   0  0  0  0  0  0  0  0  0  0  0  0
   -2.7479    4.2865  -12.9288 C   0  0  0  0  0  0  0  0  0  0  0  0
   -3.2342    4.9114  -16.3485 C   0  0  0  0  0  0  0  0  0  0  0  0
   -2.0716    5.5868  -16.9816 N   0  0  0  0  0  0  0  0  0  0  0  0
   -2.3360    6.1417  -18.2992 C   0  0  0  0  0  0  0  0  0  0  0  0
   -1.4756    6.5966  -16.1077 C   0  0  0  0  0  0  0  0  0  0  0  0
 31 32  1  0  0  0
 32 33  1  0  0  0
 32 30  1  0  0  0
 30  1  1  0  0  0
  1  2  1  0  0  0
  1  3  1  0  0  0
  3  4  2  0  0  0
  4 16  1  0  0  0
 16 17  2  0  0  0
 16 18  1  0  0  0
 18 20  1  0  0  0
 20 21  2  0  0  0
 21 22  1  0  0  0
 22 23  2  0  0  0
 23 24  1  0  0  0
 24 25  2  0  0  0
 24 26  1  0  0  0
 26 27  1  0  0  0
 27 28  1  0  0  0
  4  5  1  0  0  0
  5  6  2  0  0  0
  6  7  1  0  0  0
  6  8  1  0  0  0
  8  9  1  0  0  0
  9 10  2  0  0  0
 10 11  1  0  0  0
 11 12  1  0  0  0
 11 13  1  0  0  0
 13 14  1  0  0  0
 13 34  1  0  0  0
 34 35  1  0  0  0
 35 36  1  0  0  0
 35 37  1  0  0  0
 13  1  1  0  0  0
 12  3  1  0  0  0
 25 20  1  0  0  0
 12  8  2  0  0  0
 28 23  1  0  0  0
 18 19  1  0  0  0
 27 29  1  0  0  0
 14 15  1  0  0  0
M  END
> <minimizedAffinity>
-7.66680

> <minimizedRMSD>
0.96134

$$$$
P22967


 36 40  0  0  0  0  0  0  0  0999 V2000
   -5.2975    5.1656  -15.6872 C   0  0  0  0  0  0  0  0  0  0  0  0
   -5.0298    6.5914  -15.1809 C   0  0  0  0  0  0  0  0  0  0  0  0
   -4.6648    5.0913  -17.1785 C   0  0  0  0  0  0  0  0  0  0  0  0
   -3.3862    5.1989  -17.3515 N   0  0  0  0  0  0  0  0  0  0  0  0
   -5.6934    5.0038  -18.0898 N   0  0  0  0  0  0  0  0  0  0  0  0
   -6.9032    4.7997  -17.4355 C   0  0  0  0  0  0  0  0  0  0  0  0
   -8.1178    4.5134  -18.0280 C   0  0  0  0  0  0  0  0  0  0  0  0
   -9.2248    4.3727  -17.2053 C   0  0  0  0  0  0  0  0  0  0  0  0
  -10.4151    4.0992  -17.7520 F   0  0  0  0  0  0  0  0  0  0  0  0
   -9.1335    4.5586  -15.8272 C   0  0  0  0  0  0  0  0  0  0  0  0
   -7.9048    4.8830  -15.2395 C   0  0  0  0  0  0  0  0  0  0  0  0
   -6.7737    4.9609  -16.0439 C   0  0  0  0  0  0  0  0  0  0  0  0
   -5.5872    5.0755  -19.0659 H   0  0  0  0  0  0  0  0  0  0  0  0
   -2.9075    5.6266  -18.6721 C   0  0  0  0  0  0  0  0  0  0  0  0
   -1.4301    6.0889  -18.6060 C   0  0  0  0  0  0  0  0  0  0  0  0
   -1.0113    4.7303  -19.0550 N   0  0  0  0  0  0  0  0  0  0  0  0
   -2.3636    4.5640  -19.6283 C   0  0  0  0  0  0  0  0  0  0  0  0
   -0.7889    4.0833  -18.2985 H   0  0  0  0  0  0  0  0  0  0  0  0
   -7.9236    5.3426  -13.8331 C   0  0  0  0  0  0  0  0  0  0  0  0
   -7.8288    6.4881  -13.6309 O   0  0  0  0  0  0  0  0  0  0  0  0
   -8.1744    4.1723  -12.8592 N   0  0  0  0  0  0  0  0  0  0  0  0
   -8.2901    3.2949  -13.2905 H   0  0  0  0  0  0  0  0  0  0  0  0
   -8.2636    4.1551  -11.4695 C   0  0  0  0  0  0  0  0  0  0  0  0
   -8.0635    5.3247  -10.7158 C   0  0  0  0  0  0  0  0  0  0  0  0
   -8.2216    5.3201   -9.3262 C   0  0  0  0  0  0  0  0  0  0  0  0
   -8.5968    4.1372   -8.7198 C   0  0  0  0  0  0  0  0  0  0  0  0
   -8.7850    2.9756   -9.4637 C   0  0  0  0  0  0  0  0  0  0  0  0
   -8.6116    2.9609  -10.8364 C   0  0  0  0  0  0  0  0  0  0  0  0
   -9.1710    1.8666   -8.5423 C   0  0  0  0  0  0  0  0  0  0  0  0
   -9.5917    2.5477   -7.2863 N   0  0  0  0  0  0  0  0  0  0  0  0
   -8.8649    3.8365   -7.2838 C   0  0  0  0  0  0  0  0  0  0  0  0
   -9.3333    1.9895   -6.4726 H   0  0  0  0  0  0  0  0  0  0  0  0
   -5.0478    4.2263  -14.6691 O   0  0  0  0  0  0  0  0  0  0  0  0
   -3.9575    2.4059  -13.6723 C   0  0  0  0  0  0  0  0  0  0  0  0
   -3.7537    3.6569  -14.5319 C   0  0  0  0  0  0  0  0  0  0  0  0
   -2.7341    4.5504  -13.8334 C   0  0  0  0  0  0  0  0  0  0  0  0
 34 35  1  0  0  0
 35 36  1  0  0  0
 35 33  1  0  0  0
 33  1  1  0  0  0
  1  2  1  0  0  0
  1  3  1  0  0  0
  3  4  2  0  0  0
  4 14  1  0  0  0
 14 15  1  0  0  0
 15 16  1  0  0  0
 16 17  1  0  0  0
  3  5  1  0  0  0
  5  6  1  0  0  0
  6  7  2  0  0  0
  7  8  1  0  0  0
  8  9  1  0  0  0
  8 10  2  0  0  0
 10 11  1  0  0  0
 11 19  1  0  0  0
 19 20  2  0  0  0
 19 21  1  0  0  0
 21 23  1  0  0  0
 23 24  2  0  0  0
 24 25  1  0  0  0
 25 26  2  0  0  0
 26 27  1  0  0  0
 27 28  2  0  0  0
 27 29  1  0  0  0
 29 30  1  0  0  0
 30 31  1  0  0  0
 11 12  2  0  0  0
 12  1  1  0  0  0
 17 14  1  0  0  0
 12  6  1  0  0  0
 28 23  1  0  0  0
 31 26  1  0  0  0
 16 18  1  0  0  0
  5 13  1  0  0  0
 21 22  1  0  0  0
 30 32  1  0  0  0
M  END
> <minimizedAffinity>
-8.89387

> <minimizedRMSD>
0.56002

$$$$
P22968


 34 38  0  0  0  0  0  0  0  0999 V2000
   -5.6123    5.7377  -14.8581 C   0  0  0  0  0  0  0  0  0  0  0  0
   -5.8163    7.2356  -14.5862 C   0  0  0  0  0  0  0  0  0  0  0  0
   -4.4943    5.6699  -16.0420 C   0  0  0  0  0  0  0  0  0  0  0  0
   -3.2953    5.8714  -15.9288 O   0  0  0  0  0  0  0  0  0  0  0  0
   -5.2168    5.3358  -17.2192 N   0  0  0  0  0  0  0  0  0  0  0  0
   -5.1382    5.1671  -18.6503 C   0  0  0  0  0  0  0  0  0  0  0  0
   -4.2184    5.4518  -19.3949 O   0  0  0  0  0  0  0  0  0  0  0  0
   -6.4227    4.6313  -19.0304 N   0  0  0  0  0  0  0  0  0  0  0  0
   -7.2360    4.5222  -17.9039 C   0  0  0  0  0  0  0  0  0  0  0  0
   -8.5073    4.1155  -17.6102 C   0  0  0  0  0  0  0  0  0  0  0  0
   -9.3196    3.6213  -18.5477 F   0  0  0  0  0  0  0  0  0  0  0  0
   -8.9489    4.2241  -16.2697 C   0  0  0  0  0  0  0  0  0  0  0  0
   -8.1056    4.7625  -15.2481 C   0  0  0  0  0  0  0  0  0  0  0  0
   -6.8209    5.1517  -15.5595 C   0  0  0  0  0  0  0  0  0  0  0  0
   -6.4868    4.9828  -16.8646 C   0  0  0  0  0  0  0  0  0  0  0  0
   -6.6847    4.3809  -19.9457 H   0  0  0  0  0  0  0  0  0  0  0  0
   -8.6464    5.0154  -13.9018 C   0  0  0  0  0  0  0  0  0  0  0  0
   -9.5138    5.7877  -13.7941 O   0  0  0  0  0  0  0  0  0  0  0  0
   -7.9799    4.1087  -12.8500 N   0  0  0  0  0  0  0  0  0  0  0  0
   -7.3119    3.4817  -13.2104 H   0  0  0  0  0  0  0  0  0  0  0  0
   -8.1681    4.0314  -11.4743 C   0  0  0  0  0  0  0  0  0  0  0  0
   -7.9813    5.1537  -10.6499 C   0  0  0  0  0  0  0  0  0  0  0  0
   -8.2084    5.0758   -9.2726 C   0  0  0  0  0  0  0  0  0  0  0  0
   -8.6411    3.8711   -8.7527 C   0  0  0  0  0  0  0  0  0  0  0  0
   -8.8155    2.7556   -9.5678 C   0  0  0  0  0  0  0  0  0  0  0  0
   -8.5694    2.8107  -10.9277 C   0  0  0  0  0  0  0  0  0  0  0  0
   -9.2816    1.6111   -8.7301 C   0  0  0  0  0  0  0  0  0  0  0  0
   -9.7631    2.2386   -7.4698 N   0  0  0  0  0  0  0  0  0  0  0  0
   -8.9993    3.5014   -7.3521 C   0  0  0  0  0  0  0  0  0  0  0  0
   -9.5752    1.6307   -6.6725 H   0  0  0  0  0  0  0  0  0  0  0  0
   -5.3998    4.9284  -13.7208 O   0  0  0  0  0  0  0  0  0  0  0  0
   -4.6460    5.5249  -11.5017 C   0  0  0  0  0  0  0  0  0  0  0  0
   -4.2384    5.1635  -12.9279 C   0  0  0  0  0  0  0  0  0  0  0  0
   -3.4434    3.8648  -12.8991 C   0  0  0  0  0  0  0  0  0  0  0  0
 32 33  1  0  0  0
 33 34  1  0  0  0
 33 31  1  0  0  0
 31  1  1  0  0  0
  1  2  1  0  0  0
  1  3  1  0  0  0
  3  4  2  0  0  0
  3  5  1  0  0  0
  5  6  1  0  0  0
  6  7  2  0  0  0
  6  8  1  0  0  0
  8  9  1  0  0  0
  9 10  2  0  0  0
 10 11  1  0  0  0
 10 12  1  0  0  0
 12 13  2  0  0  0
 13 17  1  0  0  0
 17 18  2  0  0  0
 17 19  1  0  0  0
 19 21  1  0  0  0
 21 22  2  0  0  0
 22 23  1  0  0  0
 23 24  2  0  0  0
 24 25  1  0  0  0
 25 26  2  0  0  0
 25 27  1  0  0  0
 27 28  1  0  0  0
 28 29  1  0  0  0
 13 14  1  0  0  0
 14 15  2  0  0  0
 14  1  1  0  0  0
 15  5  1  0  0  0
 15  9  1  0  0  0
 26 21  1  0  0  0
 29 24  1  0  0  0
  8 16  1  0  0  0
 19 20  1  0  0  0
 28 30  1  0  0  0
M  END
> <minimizedAffinity>
-9.67321

> <minimizedRMSD>
0.85582

$$$$
P22969


 36 39  0  0  0  0  0  0  0  0999 V2000
   -5.5302    4.9831  -17.5435 N   0  0  0  0  0  0  0  0  0  0  0  0
   -4.7961    5.0361  -16.3598 C   0  0  0  0  0  0  0  0  0  0  0  0
   -3.5739    5.0774  -16.2750 O   0  0  0  0  0  0  0  0  0  0  0  0
   -5.8205    5.1137  -15.1783 C   0  0  0  0  0  0  0  0  0  0  0  0
   -5.5388    4.0685  -14.1028 C   0  0  0  0  0  0  0  0  0  0  0  0
   -7.1277    4.8667  -15.9053 C   0  0  0  0  0  0  0  0  0  0  0  0
   -8.4256    4.7401  -15.4183 C   0  0  0  0  0  0  0  0  0  0  0  0
   -9.4545    4.4225  -16.3102 C   0  0  0  0  0  0  0  0  0  0  0  0
   -9.1866    4.3185  -17.6768 C   0  0  0  0  0  0  0  0  0  0  0  0
  -10.1842    4.0210  -18.5207 F   0  0  0  0  0  0  0  0  0  0  0  0
   -7.9128    4.5452  -18.1852 C   0  0  0  0  0  0  0  0  0  0  0  0
   -6.8932    4.7979  -17.2842 C   0  0  0  0  0  0  0  0  0  0  0  0
   -8.7765    5.1332  -14.0325 C   0  0  0  0  0  0  0  0  0  0  0  0
   -9.3643    6.1292  -13.8852 O   0  0  0  0  0  0  0  0  0  0  0  0
   -8.3158    4.0822  -13.0014 N   0  0  0  0  0  0  0  0  0  0  0  0
   -7.8967    3.2803  -13.3894 H   0  0  0  0  0  0  0  0  0  0  0  0
   -8.3963    4.0832  -11.6097 C   0  0  0  0  0  0  0  0  0  0  0  0
   -8.1280    5.2595  -10.8846 C   0  0  0  0  0  0  0  0  0  0  0  0
   -8.2330    5.2737   -9.4956 C   0  0  0  0  0  0  0  0  0  0  0  0
   -7.9817    6.4025   -8.8211 F   0  0  0  0  0  0  0  0  0  0  0  0
   -8.6026    4.1154   -8.8568 C   0  0  0  0  0  0  0  0  0  0  0  0
   -8.8579    2.9399   -9.5600 C   0  0  0  0  0  0  0  0  0  0  0  0
   -8.7594    2.9077  -10.9433 C   0  0  0  0  0  0  0  0  0  0  0  0
   -9.1856    1.8469   -8.6011 C   0  0  0  0  0  0  0  0  0  0  0  0
   -9.2407    2.5435   -7.3334 N   0  0  0  0  0  0  0  0  0  0  0  0
   -8.7949    3.8456   -7.4310 C   0  0  0  0  0  0  0  0  0  0  0  0
   -8.5846    4.6186   -6.5163 O   0  0  0  0  0  0  0  0  0  0  0  0
   -9.5599    2.1347   -6.4966 H   0  0  0  0  0  0  0  0  0  0  0  0
   -4.9519    5.2492  -18.8300 C   0  0  0  0  0  0  0  0  0  0  0  0
   -3.1756    6.6737  -19.5851 C   0  0  0  0  0  0  0  0  0  0  0  0
   -4.3610    6.5838  -18.7478 N   0  0  0  0  0  0  0  0  0  0  0  0
   -5.0450    7.2727  -19.0610 H   0  0  0  0  0  0  0  0  0  0  0  0
   -5.8731    6.4359  -14.6577 O   0  0  0  0  0  0  0  0  0  0  0  0
   -5.4064    6.6268  -13.3245 C   0  0  0  0  0  0  0  0  0  0  0  0
   -3.9861    7.1738  -13.4188 C   0  0  0  0  0  0  0  0  0  0  0  0
   -6.3171    7.6342  -12.6329 C   0  0  0  0  0  0  0  0  0  0  0  0
 30 31  1  0  0  0
 31 29  1  0  0  0
 29  1  1  0  0  0
  1  2  1  0  0  0
  2  3  2  0  0  0
  2  4  1  0  0  0
  4  5  1  0  0  0
  4 33  1  0  0  0
 33 34  1  0  0  0
 34 35  1  0  0  0
 34 36  1  0  0  0
  4  6  1  0  0  0
  6  7  2  0  0  0
  7 13  1  0  0  0
 13 14  2  0  0  0
 13 15  1  0  0  0
 15 17  1  0  0  0
 17 18  2  0  0  0
 18 19  1  0  0  0
 19 20  1  0  0  0
 19 21  2  0  0  0
 21 22  1  0  0  0
 22 23  2  0  0  0
 22 24  1  0  0  0
 24 25  1  0  0  0
 25 26  1  0  0  0
 26 27  2  0  0  0
  7  8  1  0  0  0
  8  9  2  0  0  0
  9 10  1  0  0  0
  9 11  1  0  0  0
 11 12  2  0  0  0
 12  1  1  0  0  0
 12  6  1  0  0  0
 23 17  1  0  0  0
 26 21  1  0  0  0
 31 32  1  0  0  0
 15 16  1  0  0  0
 25 28  1  0  0  0
M  END
> <minimizedAffinity>
-8.46242

> <minimizedRMSD>
1.05920

$$$$
P22970


 39 43  0  0  0  0  0  0  0  0999 V2000
   -5.4303    5.1045  -17.8376 N   0  0  0  0  0  0  0  0  0  0  0  0
   -4.4218    4.9862  -16.8777 C   0  0  0  0  0  0  0  0  0  0  0  0
   -3.2200    4.9553  -17.1078 O   0  0  0  0  0  0  0  0  0  0  0  0
   -5.1303    4.9985  -15.4660 C   0  0  0  0  0  0  0  0  0  0  0  0
   -5.0996    6.4725  -15.0013 C   0  0  0  0  0  0  0  0  0  0  0  0
   -6.5625    4.6964  -15.8865 C   0  0  0  0  0  0  0  0  0  0  0  0
   -7.6708    4.3201  -15.1372 C   0  0  0  0  0  0  0  0  0  0  0  0
   -8.9234    4.2606  -15.7606 C   0  0  0  0  0  0  0  0  0  0  0  0
   -9.0316    4.4882  -17.1320 C   0  0  0  0  0  0  0  0  0  0  0  0
  -10.2251    4.3625  -17.7275 F   0  0  0  0  0  0  0  0  0  0  0  0
   -7.9181    4.7942  -17.9054 C   0  0  0  0  0  0  0  0  0  0  0  0
   -6.6930    4.8879  -17.2700 C   0  0  0  0  0  0  0  0  0  0  0  0
   -7.5573    3.8263  -13.7417 C   0  0  0  0  0  0  0  0  0  0  0  0
   -7.1603    2.7534  -13.5459 O   0  0  0  0  0  0  0  0  0  0  0  0
   -8.0282    4.9039  -12.7630 N   0  0  0  0  0  0  0  0  0  0  0  0
   -8.2488    5.7691  -13.1777 H   0  0  0  0  0  0  0  0  0  0  0  0
   -8.2027    4.8585  -11.3224 C   0  0  0  0  0  0  0  0  0  0  0  0
   -8.5653    3.4516  -10.7944 C   0  0  0  0  0  0  0  0  0  0  0  0
   -8.7027    3.4870   -9.3138 C   0  0  0  0  0  0  0  0  0  0  0  0
   -8.2515    4.4667   -8.5312 C   0  0  0  0  0  0  0  0  0  0  0  0
   -8.5652    4.1790   -7.1118 C   0  0  0  0  0  0  0  0  0  0  0  0
   -9.3437    2.9279   -7.1149 N   0  0  0  0  0  0  0  0  0  0  0  0
   -9.3277    2.4121   -8.5094 C   0  0  0  0  0  0  0  0  0  0  0  0
   -7.4972    5.6579   -9.0099 C   0  0  0  0  0  0  0  0  0  0  0  0
   -7.0897    5.5532  -10.5081 C   0  0  0  0  0  0  0  0  0  0  0  0
   -6.7464    6.9638  -11.0621 C   0  0  0  0  0  0  0  0  0  0  0  0
   -5.2636    7.1615  -10.7842 C   0  0  0  0  0  0  0  0  0  0  0  0
   -4.6510    5.8081  -11.0955 C   0  0  0  0  0  0  0  0  0  0  0  0
   -5.7220    4.8695  -10.6037 C   0  0  0  0  0  0  0  0  0  0  0  0
   -5.4646    3.7202  -10.2697 O   0  0  0  0  0  0  0  0  0  0  0  0
  -10.3027    3.1109   -6.8197 H   0  0  0  0  0  0  0  0  0  0  0  0
   -5.1568    5.3319  -19.2267 C   0  0  0  0  0  0  0  0  0  0  0  0
   -3.3911    6.5528  -20.2815 C   0  0  0  0  0  0  0  0  0  0  0  0
   -4.4698    6.6206  -19.3040 N   0  0  0  0  0  0  0  0  0  0  0  0
   -5.1347    7.3415  -19.5843 H   0  0  0  0  0  0  0  0  0  0  0  0
   -4.7683    4.2503  -14.3417 O   0  0  0  0  0  0  0  0  0  0  0  0
   -3.5401    3.5422  -14.3570 C   0  0  0  0  0  0  0  0  0  0  0  0
   -3.7469    2.2862  -13.5117 C   0  0  0  0  0  0  0  0  0  0  0  0
   -2.4244    4.3831  -13.7444 C   0  0  0  0  0  0  0  0  0  0  0  0
 33 34  1  0  0  0
 34 32  1  0  0  0
 32  1  1  0  0  0
  1  2  1  0  0  0
  2  3  2  0  0  0
  2  4  1  0  0  0
  4  5  1  0  0  0
  4 36  1  0  0  0
 36 37  1  0  0  0
 37 38  1  0  0  0
 37 39  1  0  0  0
  4  6  1  0  0  0
  6  7  2  0  0  0
  7 13  1  0  0  0
 13 14  2  0  0  0
 13 15  1  0  0  0
 17 15  1  0  0  0
 17 18  1  0  0  0
 18 19  1  0  0  0
 19 20  2  0  0  0
 20 21  1  0  0  0
 21 22  1  0  0  0
 22 23  1  0  0  0
 20 24  1  0  0  0
 25 24  1  0  0  0
 25 26  1  0  0  0
 26 27  1  0  0  0
 27 28  1  0  0  0
 28 29  1  0  0  0
 29 30  2  0  0  0
  7  8  1  0  0  0
  8  9  2  0  0  0
  9 10  1  0  0  0
  9 11  1  0  0  0
 11 12  2  0  0  0
 12  1  1  0  0  0
 12  6  1  0  0  0
 25 17  1  0  0  0
 23 19  1  0  0  0
 29 25  1  0  0  0
 34 35  1  0  0  0
 15 16  1  0  0  0
 22 31  1  0  0  0
M  END
> <minimizedAffinity>
-8.88602

> <minimizedRMSD>
0.57133

$$$$
P22971


 39 43  0  0  0  0  0  0  0  0999 V2000
   -5.4448    5.4261  -17.4320 N   0  0  0  0  0  0  0  0  0  0  0  0
   -4.7920    5.5797  -16.2018 C   0  0  0  0  0  0  0  0  0  0  0  0
   -3.6245    5.9112  -16.0393 O   0  0  0  0  0  0  0  0  0  0  0  0
   -5.8348    5.3299  -15.0546 C   0  0  0  0  0  0  0  0  0  0  0  0
   -5.9387    6.6374  -14.2647 C   0  0  0  0  0  0  0  0  0  0  0  0
   -7.0695    5.0134  -15.8647 C   0  0  0  0  0  0  0  0  0  0  0  0
   -8.3583    4.7184  -15.4340 C   0  0  0  0  0  0  0  0  0  0  0  0
   -9.3203    4.3337  -16.3607 C   0  0  0  0  0  0  0  0  0  0  0  0
   -8.9895    4.3083  -17.7122 C   0  0  0  0  0  0  0  0  0  0  0  0
   -9.9263    3.9444  -18.5915 F   0  0  0  0  0  0  0  0  0  0  0  0
   -7.7274    4.6815  -18.1696 C   0  0  0  0  0  0  0  0  0  0  0  0
   -6.7745    5.0245  -17.2299 C   0  0  0  0  0  0  0  0  0  0  0  0
   -8.7950    5.0647  -14.0756 C   0  0  0  0  0  0  0  0  0  0  0  0
   -9.4981    5.9883  -13.9664 O   0  0  0  0  0  0  0  0  0  0  0  0
   -8.2278    4.1118  -13.0105 N   0  0  0  0  0  0  0  0  0  0  0  0
   -7.7125    3.3534  -13.3688 H   0  0  0  0  0  0  0  0  0  0  0  0
   -8.3245    4.1467  -11.6188 C   0  0  0  0  0  0  0  0  0  0  0  0
   -8.6453    2.9588  -10.9537 C   0  0  0  0  0  0  0  0  0  0  0  0
   -8.8081    2.9820   -9.5706 C   0  0  0  0  0  0  0  0  0  0  0  0
   -8.6142    4.1385   -8.8277 C   0  0  0  0  0  0  0  0  0  0  0  0
   -8.2558    5.2967   -9.4692 C   0  0  0  0  0  0  0  0  0  0  0  0
   -8.1189    5.2969  -10.8511 C   0  0  0  0  0  0  0  0  0  0  0  0
   -7.7225    6.5167  -11.3340 O   0  0  0  0  0  0  0  0  0  0  0  0
   -7.5166    7.3720  -10.1823 C   0  0  0  0  0  0  0  0  0  0  0  0
   -6.0163    7.6752  -10.1034 C   0  0  0  0  0  0  0  0  0  0  0  0
   -8.2993    8.6641  -10.4232 C   0  0  0  0  0  0  0  0  0  0  0  0
   -8.0124    6.6442   -8.9175 C   0  0  0  0  0  0  0  0  0  0  0  0
   -8.8518    3.8609   -7.3890 C   0  0  0  0  0  0  0  0  0  0  0  0
   -9.3363    2.4678   -7.3034 N   0  0  0  0  0  0  0  0  0  0  0  0
   -9.1967    1.8690   -8.6599 C   0  0  0  0  0  0  0  0  0  0  0  0
  -10.3145    2.4550   -7.0148 H   0  0  0  0  0  0  0  0  0  0  0  0
   -4.9720    6.0950  -18.6202 C   0  0  0  0  0  0  0  0  0  0  0  0
   -3.0275    5.1474  -19.7341 C   0  0  0  0  0  0  0  0  0  0  0  0
   -4.4729    5.1593  -19.6002 N   0  0  0  0  0  0  0  0  0  0  0  0
   -4.7764    4.2233  -19.3316 H   0  0  0  0  0  0  0  0  0  0  0  0
   -5.6471    4.1757  -14.2503 O   0  0  0  0  0  0  0  0  0  0  0  0
   -4.4865    4.1077  -13.4276 C   0  0  0  0  0  0  0  0  0  0  0  0
   -3.6756    2.9235  -13.9435 C   0  0  0  0  0  0  0  0  0  0  0  0
   -4.8698    3.8444  -11.9736 C   0  0  0  0  0  0  0  0  0  0  0  0
 33 34  1  0  0  0
 34 32  1  0  0  0
 32  1  1  0  0  0
  1  2  1  0  0  0
  2  3  2  0  0  0
  2  4  1  0  0  0
  4  5  1  0  0  0
  4 36  1  0  0  0
 36 37  1  0  0  0
 37 38  1  0  0  0
 37 39  1  0  0  0
  4  6  1  0  0  0
  6  7  2  0  0  0
  7 13  1  0  0  0
 13 14  2  0  0  0
 13 15  1  0  0  0
 15 17  1  0  0  0
 17 18  2  0  0  0
 18 19  1  0  0  0
 19 20  2  0  0  0
 20 21  1  0  0  0
 21 22  2  0  0  0
 22 23  1  0  0  0
 23 24  1  0  0  0
 24 25  1  0  0  0
 24 26  1  0  0  0
 24 27  1  0  0  0
 20 28  1  0  0  0
 28 29  1  0  0  0
 29 30  1  0  0  0
  7  8  1  0  0  0
  8  9  2  0  0  0
  9 10  1  0  0  0
  9 11  1  0  0  0
 11 12  2  0  0  0
 12  1  1  0  0  0
 12  6  1  0  0  0
 22 17  1  0  0  0
 30 19  1  0  0  0
 27 21  1  0  0  0
 34 35  1  0  0  0
 15 16  1  0  0  0
 29 31  1  0  0  0
M  END
> <minimizedAffinity>
-9.20982

> <minimizedRMSD>
0.50277

$$$$
P22972


 34 37  0  0  0  0  0  0  0  0999 V2000
   -5.8278    4.9721  -17.6943 N   0  0  0  0  0  0  0  0  0  0  0  0
   -4.9919    5.0937  -16.5833 C   0  0  0  0  0  0  0  0  0  0  0  0
   -3.7671    5.1222  -16.6139 O   0  0  0  0  0  0  0  0  0  0  0  0
   -5.9074    5.2538  -15.3278 C   0  0  0  0  0  0  0  0  0  0  0  0
   -5.4944    4.2945  -14.2159 C   0  0  0  0  0  0  0  0  0  0  0  0
   -7.2660    4.9183  -15.9147 C   0  0  0  0  0  0  0  0  0  0  0  0
   -8.5080    4.7927  -15.2969 C   0  0  0  0  0  0  0  0  0  0  0  0
   -9.6140    4.4304  -16.0700 C   0  0  0  0  0  0  0  0  0  0  0  0
   -9.4751    4.2769  -17.4514 C   0  0  0  0  0  0  0  0  0  0  0  0
  -10.5490    3.9499  -18.1824 F   0  0  0  0  0  0  0  0  0  0  0  0
   -8.2569    4.4882  -18.0915 C   0  0  0  0  0  0  0  0  0  0  0  0
   -7.1593    4.7867  -17.3045 C   0  0  0  0  0  0  0  0  0  0  0  0
   -8.7220    5.2420  -13.9012 C   0  0  0  0  0  0  0  0  0  0  0  0
   -9.1796    6.3031  -13.7441 O   0  0  0  0  0  0  0  0  0  0  0  0
   -8.2736    4.1845  -12.8725 N   0  0  0  0  0  0  0  0  0  0  0  0
   -7.8436    3.3884  -13.2605 H   0  0  0  0  0  0  0  0  0  0  0  0
   -8.3779    4.1723  -11.4837 C   0  0  0  0  0  0  0  0  0  0  0  0
   -8.0749    5.3250  -10.7370 C   0  0  0  0  0  0  0  0  0  0  0  0
   -8.1808    5.3304   -9.3438 C   0  0  0  0  0  0  0  0  0  0  0  0
   -8.5912    4.1693   -8.7184 C   0  0  0  0  0  0  0  0  0  0  0  0
   -8.8889    3.0262   -9.4539 C   0  0  0  0  0  0  0  0  0  0  0  0
   -8.7873    3.0067  -10.8371 C   0  0  0  0  0  0  0  0  0  0  0  0
   -9.3104    1.9316   -8.5272 C   0  0  0  0  0  0  0  0  0  0  0  0
   -9.1851    2.4941   -7.1648 N   0  0  0  0  0  0  0  0  0  0  0  0
  -10.3188    2.2218   -6.3089 C   0  0  0  0  0  0  0  0  0  0  0  0
   -8.8092    3.9066   -7.2649 C   0  0  0  0  0  0  0  0  0  0  0  0
   -5.3605    5.1732  -19.0354 C   0  0  0  0  0  0  0  0  0  0  0  0
   -4.6905    7.0997  -20.3001 C   0  0  0  0  0  0  0  0  0  0  0  0
   -5.6752    6.5593  -19.3765 N   0  0  0  0  0  0  0  0  0  0  0  0
   -6.5971    6.5956  -19.8115 H   0  0  0  0  0  0  0  0  0  0  0  0
   -5.9544    6.6419  -15.0041 O   0  0  0  0  0  0  0  0  0  0  0  0
   -5.1694    7.1586  -13.9353 C   0  0  0  0  0  0  0  0  0  0  0  0
   -4.1392    8.1714  -14.4234 C   0  0  0  0  0  0  0  0  0  0  0  0
   -6.1436    7.8532  -12.9840 C   0  0  0  0  0  0  0  0  0  0  0  0
 28 29  1  0  0  0
 29 27  1  0  0  0
 27  1  1  0  0  0
  1  2  1  0  0  0
  2  3  2  0  0  0
  2  4  1  0  0  0
  4  5  1  0  0  0
  4 31  1  0  0  0
 31 32  1  0  0  0
 32 33  1  0  0  0
 32 34  1  0  0  0
  4  6  1  0  0  0
  6  7  2  0  0  0
  7 13  1  0  0  0
 13 14  2  0  0  0
 13 15  1  0  0  0
 15 17  1  0  0  0
 17 18  2  0  0  0
 18 19  1  0  0  0
 19 20  2  0  0  0
 20 21  1  0  0  0
 21 22  2  0  0  0
 21 23  1  0  0  0
 23 24  1  0  0  0
 24 25  1  0  0  0
 24 26  1  0  0  0
  7  8  1  0  0  0
  8  9  2  0  0  0
  9 10  1  0  0  0
  9 11  1  0  0  0
 11 12  2  0  0  0
 12  1  1  0  0  0
 12  6  1  0  0  0
 22 17  1  0  0  0
 26 20  1  0  0  0
 29 30  1  0  0  0
 15 16  1  0  0  0
M  END
> <minimizedAffinity>
-8.20847

> <minimizedRMSD>
0.81857

$$$$
P22973


 35 38  0  0  0  0  0  0  0  0999 V2000
   -5.5939    4.9474  -17.4557 N   0  0  0  0  0  0  0  0  0  0  0  0
   -4.8265    5.0303  -16.2937 C   0  0  0  0  0  0  0  0  0  0  0  0
   -3.6027    5.0039  -16.2441 O   0  0  0  0  0  0  0  0  0  0  0  0
   -5.8142    5.2196  -15.0983 C   0  0  0  0  0  0  0  0  0  0  0  0
   -5.5028    4.2356  -13.9738 C   0  0  0  0  0  0  0  0  0  0  0  0
   -7.1424    4.9260  -15.7696 C   0  0  0  0  0  0  0  0  0  0  0  0
   -8.4223    4.8233  -15.2311 C   0  0  0  0  0  0  0  0  0  0  0  0
   -9.4862    4.5007  -16.0768 C   0  0  0  0  0  0  0  0  0  0  0  0
   -9.2648    4.3578  -17.4472 C   0  0  0  0  0  0  0  0  0  0  0  0
  -10.2960    4.0470  -18.2420 F   0  0  0  0  0  0  0  0  0  0  0  0
   -8.0055    4.5428  -18.0080 C   0  0  0  0  0  0  0  0  0  0  0  0
   -6.9523    4.8042  -17.1516 C   0  0  0  0  0  0  0  0  0  0  0  0
   -8.7132    5.2292  -13.8358 C   0  0  0  0  0  0  0  0  0  0  0  0
   -9.2206    6.2655  -13.6687 O   0  0  0  0  0  0  0  0  0  0  0  0
   -8.3376    4.1253  -12.8256 N   0  0  0  0  0  0  0  0  0  0  0  0
   -7.9831    3.3004  -13.2295 H   0  0  0  0  0  0  0  0  0  0  0  0
   -8.4183    4.1058  -11.4353 C   0  0  0  0  0  0  0  0  0  0  0  0
   -8.1405    5.2581  -10.6825 C   0  0  0  0  0  0  0  0  0  0  0  0
   -8.2474    5.2289   -9.2945 C   0  0  0  0  0  0  0  0  0  0  0  0
   -7.9823    6.3275   -8.5757 F   0  0  0  0  0  0  0  0  0  0  0  0
   -8.6239    4.0624   -8.6703 C   0  0  0  0  0  0  0  0  0  0  0  0
   -8.8870    2.9207   -9.4124 C   0  0  0  0  0  0  0  0  0  0  0  0
   -8.7902    2.9212  -10.7955 C   0  0  0  0  0  0  0  0  0  0  0  0
   -9.2189    1.8011   -8.4885 C   0  0  0  0  0  0  0  0  0  0  0  0
   -9.3489    2.4077   -7.1362 N   0  0  0  0  0  0  0  0  0  0  0  0
   -8.8027    3.7804   -7.2244 C   0  0  0  0  0  0  0  0  0  0  0  0
   -8.8195    1.8630   -6.4554 H   0  0  0  0  0  0  0  0  0  0  0  0
   -5.0356    5.1459  -18.7625 C   0  0  0  0  0  0  0  0  0  0  0  0
   -3.2476    6.5233  -19.5799 C   0  0  0  0  0  0  0  0  0  0  0  0
   -4.4455    6.4829  -18.7559 N   0  0  0  0  0  0  0  0  0  0  0  0
   -5.1251    7.1501  -19.1211 H   0  0  0  0  0  0  0  0  0  0  0  0
   -5.8502    6.6083  -14.7688 O   0  0  0  0  0  0  0  0  0  0  0  0
   -5.4187    7.0500  -13.4864 C   0  0  0  0  0  0  0  0  0  0  0  0
   -6.3828    8.1596  -13.0690 C   0  0  0  0  0  0  0  0  0  0  0  0
   -3.9988    7.6038  -13.5242 C   0  0  0  0  0  0  0  0  0  0  0  0
 29 30  1  0  0  0
 30 28  1  0  0  0
 28  1  1  0  0  0
  1  2  1  0  0  0
  2  3  2  0  0  0
  2  4  1  0  0  0
  4  5  1  0  0  0
  4 32  1  0  0  0
 32 33  1  0  0  0
 33 34  1  0  0  0
 33 35  1  0  0  0
  4  6  1  0  0  0
  6  7  2  0  0  0
  7 13  1  0  0  0
 13 14  2  0  0  0
 13 15  1  0  0  0
 15 17  1  0  0  0
 17 18  2  0  0  0
 18 19  1  0  0  0
 19 20  1  0  0  0
 19 21  2  0  0  0
 21 22  1  0  0  0
 22 23  2  0  0  0
 22 24  1  0  0  0
 24 25  1  0  0  0
 25 26  1  0  0  0
  7  8  1  0  0  0
  8  9  2  0  0  0
  9 10  1  0  0  0
  9 11  1  0  0  0
 11 12  2  0  0  0
 12  1  1  0  0  0
 12  6  1  0  0  0
 23 17  1  0  0  0
 26 21  1  0  0  0
 30 31  1  0  0  0
 15 16  1  0  0  0
 25 27  1  0  0  0
M  END
> <minimizedAffinity>
-8.11753

> <minimizedRMSD>
0.95821

$$$$
P22975


 34 37  0  0  0  0  0  0  0  0999 V2000
   -5.6772    5.4386  -15.1758 C   0  0  0  0  0  0  0  0  0  0  0  0
   -5.5081    6.9387  -14.9293 C   0  0  0  0  0  0  0  0  0  0  0  0
   -7.0442    5.1311  -15.7545 C   0  0  0  0  0  0  0  0  0  0  0  0
   -6.9255    4.8350  -17.1154 C   0  0  0  0  0  0  0  0  0  0  0  0
   -8.0307    4.5219  -17.8862 C   0  0  0  0  0  0  0  0  0  0  0  0
   -9.2537    4.3723  -17.2440 C   0  0  0  0  0  0  0  0  0  0  0  0
  -10.3244    3.9835  -17.9480 F   0  0  0  0  0  0  0  0  0  0  0  0
   -9.3926    4.6152  -15.8784 C   0  0  0  0  0  0  0  0  0  0  0  0
   -8.2860    5.0305  -15.1310 C   0  0  0  0  0  0  0  0  0  0  0  0
   -5.6003    4.9423  -17.6075 N   0  0  0  0  0  0  0  0  0  0  0  0
   -4.8043    4.8537  -16.3527 C   0  0  0  0  0  0  0  0  0  0  0  0
   -5.2884    5.0478  -18.5353 H   0  0  0  0  0  0  0  0  0  0  0  0
   -8.4882    5.4187  -13.7161 C   0  0  0  0  0  0  0  0  0  0  0  0
   -8.7752    6.5640  -13.5175 O   0  0  0  0  0  0  0  0  0  0  0  0
   -8.3483    4.3171  -12.8112 N   0  0  0  0  0  0  0  0  0  0  0  0
   -8.1767    3.4507  -13.2461 H   0  0  0  0  0  0  0  0  0  0  0  0
   -8.4136    4.2626  -11.4189 C   0  0  0  0  0  0  0  0  0  0  0  0
   -8.1692    5.3972  -10.6259 C   0  0  0  0  0  0  0  0  0  0  0  0
   -8.2484    5.3301   -9.2311 C   0  0  0  0  0  0  0  0  0  0  0  0
   -8.5923    4.1222   -8.6534 C   0  0  0  0  0  0  0  0  0  0  0  0
   -8.8432    3.0020   -9.4344 C   0  0  0  0  0  0  0  0  0  0  0  0
   -8.7447    3.0467  -10.8161 C   0  0  0  0  0  0  0  0  0  0  0  0
   -9.2073    1.8529   -8.5590 C   0  0  0  0  0  0  0  0  0  0  0  0
   -9.2820    2.3915   -7.1727 N   0  0  0  0  0  0  0  0  0  0  0  0
   -8.7649    3.7753   -7.2159 C   0  0  0  0  0  0  0  0  0  0  0  0
   -8.7116    1.8242   -6.5456 H   0  0  0  0  0  0  0  0  0  0  0  0
   -5.5869    4.6120  -14.0073 O   0  0  0  0  0  0  0  0  0  0  0  0
   -4.7705    5.0125  -11.7810 C   0  0  0  0  0  0  0  0  0  0  0  0
   -4.4023    4.6833  -13.2230 C   0  0  0  0  0  0  0  0  0  0  0  0
   -3.7469    3.3088  -13.2916 C   0  0  0  0  0  0  0  0  0  0  0  0
   -3.3555    5.3765  -16.5537 C   0  0  0  0  0  0  0  0  0  0  0  0
   -2.9447    5.9850  -17.8370 N   0  0  0  0  0  0  0  0  0  0  0  0
   -1.9630    5.1658  -18.5530 C   0  0  0  0  0  0  0  0  0  0  0  0
   -2.3999    7.3250  -17.6088 C   0  0  0  0  0  0  0  0  0  0  0  0
 28 29  1  0  0  0
 29 30  1  0  0  0
 29 27  1  0  0  0
 27  1  1  0  0  0
  1  2  1  0  0  0
  1  3  1  0  0  0
  3  4  2  0  0  0
  4  5  1  0  0  0
  5  6  2  0  0  0
  6  7  1  0  0  0
  6  8  1  0  0  0
  8  9  2  0  0  0
  9 13  1  0  0  0
 13 14  2  0  0  0
 13 15  1  0  0  0
 15 17  1  0  0  0
 17 18  2  0  0  0
 18 19  1  0  0  0
 19 20  2  0  0  0
 20 21  1  0  0  0
 21 22  2  0  0  0
 21 23  1  0  0  0
 23 24  1  0  0  0
 24 25  1  0  0  0
  4 10  1  0  0  0
 10 11  1  0  0  0
 11 31  1  0  0  0
 31 32  1  0  0  0
 32 33  1  0  0  0
 32 34  1  0  0  0
 11  1  1  0  0  0
  9  3  1  0  0  0
 22 17  1  0  0  0
 25 20  1  0  0  0
 15 16  1  0  0  0
 24 26  1  0  0  0
 10 12  1  0  0  0
M  END
> <minimizedAffinity>
-7.69705

> <minimizedRMSD>
0.83150

$$$$
P22976


 36 40  0  0  0  0  0  0  0  0999 V2000
   -5.7580    5.0790  -15.0539 C   0  0  0  0  0  0  0  0  0  0  0  0
   -5.5863    6.5235  -14.5582 C   0  0  0  0  0  0  0  0  0  0  0  0
   -4.7820    4.9172  -16.2904 C   0  0  0  0  0  0  0  0  0  0  0  0
   -3.5588    4.8473  -16.2564 O   0  0  0  0  0  0  0  0  0  0  0  0
   -5.5948    4.9245  -17.4378 N   0  0  0  0  0  0  0  0  0  0  0  0
   -6.9440    4.7920  -17.1131 C   0  0  0  0  0  0  0  0  0  0  0  0
   -8.0052    4.5559  -17.9683 C   0  0  0  0  0  0  0  0  0  0  0  0
   -9.2567    4.3615  -17.3977 C   0  0  0  0  0  0  0  0  0  0  0  0
  -10.2978    4.0639  -18.1837 F   0  0  0  0  0  0  0  0  0  0  0  0
   -9.4596    4.4921  -16.0230 C   0  0  0  0  0  0  0  0  0  0  0  0
   -8.3833    4.7987  -15.1861 C   0  0  0  0  0  0  0  0  0  0  0  0
   -7.1081    4.8909  -15.7291 C   0  0  0  0  0  0  0  0  0  0  0  0
   -8.6614    5.2120  -13.7962 C   0  0  0  0  0  0  0  0  0  0  0  0
   -9.1801    6.2446  -13.6332 O   0  0  0  0  0  0  0  0  0  0  0  0
   -8.2709    4.1189  -12.7824 N   0  0  0  0  0  0  0  0  0  0  0  0
   -7.9086    3.2959  -13.1831 H   0  0  0  0  0  0  0  0  0  0  0  0
   -8.3471    4.1057  -11.3917 C   0  0  0  0  0  0  0  0  0  0  0  0
   -8.1197    5.2737  -10.6425 C   0  0  0  0  0  0  0  0  0  0  0  0
   -8.2467    5.2708   -9.2496 C   0  0  0  0  0  0  0  0  0  0  0  0
   -8.6204    4.0918   -8.6354 C   0  0  0  0  0  0  0  0  0  0  0  0
   -8.8326    2.9317   -9.3755 C   0  0  0  0  0  0  0  0  0  0  0  0
   -8.6878    2.9141  -10.7508 C   0  0  0  0  0  0  0  0  0  0  0  0
   -9.2036    1.8251   -8.4462 C   0  0  0  0  0  0  0  0  0  0  0  0
   -9.6020    2.5090   -7.1850 N   0  0  0  0  0  0  0  0  0  0  0  0
   -8.8669    3.7935   -7.1947 C   0  0  0  0  0  0  0  0  0  0  0  0
   -9.3353    1.9499   -6.3747 H   0  0  0  0  0  0  0  0  0  0  0  0
   -5.1523    5.1874  -18.7359 N   0  0  0  0  0  0  0  0  0  0  0  0
   -5.9239    5.0272  -19.3834 H   0  0  0  0  0  0  0  0  0  0  0  0
   -4.6796    6.5665  -18.8989 C   0  0  0  0  0  0  0  0  0  0  0  0
   -5.8062    7.5704  -18.5512 C   0  0  0  0  0  0  0  0  0  0  0  0
   -5.3734    8.3577  -19.8060 C   0  0  0  0  0  0  0  0  0  0  0  0
   -4.8518    7.0162  -20.3665 C   0  0  0  0  0  0  0  0  0  0  0  0
   -5.7481    4.1830  -13.9605 O   0  0  0  0  0  0  0  0  0  0  0  0
   -5.0802    2.1127  -13.0439 C   0  0  0  0  0  0  0  0  0  0  0  0
   -4.5906    3.3895  -13.7281 C   0  0  0  0  0  0  0  0  0  0  0  0
   -3.5658    4.0710  -12.8282 C   0  0  0  0  0  0  0  0  0  0  0  0
 34 35  1  0  0  0
 35 36  1  0  0  0
 35 33  1  0  0  0
 33  1  1  0  0  0
  1  2  1  0  0  0
  1  3  1  0  0  0
  3  4  2  0  0  0
  3  5  1  0  0  0
  5 27  1  0  0  0
 27 29  1  0  0  0
 29 30  1  0  0  0
 30 31  1  0  0  0
 31 32  1  0  0  0
  5  6  1  0  0  0
  6  7  2  0  0  0
  7  8  1  0  0  0
  8  9  1  0  0  0
  8 10  2  0  0  0
 10 11  1  0  0  0
 11 13  1  0  0  0
 13 14  2  0  0  0
 13 15  1  0  0  0
 15 17  1  0  0  0
 17 18  2  0  0  0
 18 19  1  0  0  0
 19 20  2  0  0  0
 20 21  1  0  0  0
 21 22  2  0  0  0
 21 23  1  0  0  0
 23 24  1  0  0  0
 24 25  1  0  0  0
 11 12  2  0  0  0
 12  1  1  0  0  0
 32 29  1  0  0  0
 12  6  1  0  0  0
 22 17  1  0  0  0
 25 20  1  0  0  0
 27 28  1  0  0  0
 15 16  1  0  0  0
 24 26  1  0  0  0
M  END
> <minimizedAffinity>
-8.85232

> <minimizedRMSD>
0.82233

$$$$
P22978


 32 35  0  0  0  0  0  0  0  0999 V2000
   -2.9886    4.9238  -18.0559 C   0  0  0  0  0  0  0  0  0  0  0  0
   -3.7044    5.1669  -16.8171 N   0  0  0  0  0  0  0  0  0  0  0  0
   -4.9870    5.0844  -16.7996 C   0  0  0  0  0  0  0  0  0  0  0  0
   -5.8865    4.7920  -17.8019 N   0  0  0  0  0  0  0  0  0  0  0  0
   -7.1843    4.7811  -17.2988 C   0  0  0  0  0  0  0  0  0  0  0  0
   -8.3294    4.4504  -17.9933 C   0  0  0  0  0  0  0  0  0  0  0  0
   -9.5155    4.3589  -17.2808 C   0  0  0  0  0  0  0  0  0  0  0  0
  -10.6410    4.0436  -17.9325 F   0  0  0  0  0  0  0  0  0  0  0  0
   -9.5637    4.5998  -15.9059 C   0  0  0  0  0  0  0  0  0  0  0  0
   -8.4056    4.9658  -15.2108 C   0  0  0  0  0  0  0  0  0  0  0  0
   -7.2067    5.0321  -15.9124 C   0  0  0  0  0  0  0  0  0  0  0  0
   -5.7941    5.3758  -15.4535 C   0  0  0  0  0  0  0  0  0  0  0  0
   -5.3288    4.4889  -14.3017 C   0  0  0  0  0  0  0  0  0  0  0  0
   -5.6455    4.6158  -18.7400 H   0  0  0  0  0  0  0  0  0  0  0  0
   -8.5332    5.4070  -13.7969 C   0  0  0  0  0  0  0  0  0  0  0  0
   -8.7735    6.5293  -13.5869 O   0  0  0  0  0  0  0  0  0  0  0  0
   -8.3934    4.2132  -12.8241 N   0  0  0  0  0  0  0  0  0  0  0  0
   -8.2599    3.3402  -13.2593 H   0  0  0  0  0  0  0  0  0  0  0  0
   -8.4258    4.1719  -11.4310 C   0  0  0  0  0  0  0  0  0  0  0  0
   -8.1113    5.3075  -10.6668 C   0  0  0  0  0  0  0  0  0  0  0  0
   -8.1843    5.2756   -9.2702 C   0  0  0  0  0  0  0  0  0  0  0  0
   -8.5722    4.0964   -8.6615 C   0  0  0  0  0  0  0  0  0  0  0  0
   -8.8758    2.9704   -9.4141 C   0  0  0  0  0  0  0  0  0  0  0  0
   -8.8074    2.9870  -10.7987 C   0  0  0  0  0  0  0  0  0  0  0  0
   -9.2371    1.8462   -8.5062 C   0  0  0  0  0  0  0  0  0  0  0  0
   -9.2788    2.4155   -7.1311 N   0  0  0  0  0  0  0  0  0  0  0  0
   -8.7362    3.7880   -7.2143 C   0  0  0  0  0  0  0  0  0  0  0  0
   -8.7087    1.8512   -6.5011 H   0  0  0  0  0  0  0  0  0  0  0  0
   -5.8121    6.7722  -15.1697 O   0  0  0  0  0  0  0  0  0  0  0  0
   -4.9722    7.2337  -14.1161 C   0  0  0  0  0  0  0  0  0  0  0  0
   -5.8211    8.0459  -13.1453 C   0  0  0  0  0  0  0  0  0  0  0  0
   -3.8970    8.1123  -14.7452 C   0  0  0  0  0  0  0  0  0  0  0  0
  1  2  1  0  0  0
  2  3  2  0  0  0
  3  4  1  0  0  0
  4  5  1  0  0  0
  5  6  2  0  0  0
  6  7  1  0  0  0
  7  8  1  0  0  0
  7  9  2  0  0  0
  9 10  1  0  0  0
 10 15  1  0  0  0
 15 16  2  0  0  0
 15 17  1  0  0  0
 17 19  1  0  0  0
 19 20  2  0  0  0
 20 21  1  0  0  0
 21 22  2  0  0  0
 22 23  1  0  0  0
 23 24  2  0  0  0
 23 25  1  0  0  0
 25 26  1  0  0  0
 26 27  1  0  0  0
 10 11  2  0  0  0
 11 12  1  0  0  0
 12 13  1  0  0  0
 12 29  1  0  0  0
 29 30  1  0  0  0
 30 31  1  0  0  0
 30 32  1  0  0  0
 12  3  1  0  0  0
 11  5  1  0  0  0
 24 19  1  0  0  0
 27 22  1  0  0  0
  4 14  1  0  0  0
 17 18  1  0  0  0
 26 28  1  0  0  0
M  END
> <minimizedAffinity>
-8.09308

> <minimizedRMSD>
0.85522

$$$$
P22980


 35 38  0  0  0  0  0  0  0  0999 V2000
   -5.6420    5.0699  -17.5453 N   0  0  0  0  0  0  0  0  0  0  0  0
   -4.9056    5.4219  -16.4097 C   0  0  0  0  0  0  0  0  0  0  0  0
   -3.7032    5.6588  -16.3842 O   0  0  0  0  0  0  0  0  0  0  0  0
   -5.8756    5.4865  -15.1925 C   0  0  0  0  0  0  0  0  0  0  0  0
   -5.4317    4.5297  -14.0882 C   0  0  0  0  0  0  0  0  0  0  0  0
   -7.1765    5.0539  -15.8277 C   0  0  0  0  0  0  0  0  0  0  0  0
   -8.4383    4.8889  -15.2609 C   0  0  0  0  0  0  0  0  0  0  0  0
   -9.4957    4.4710  -16.0683 C   0  0  0  0  0  0  0  0  0  0  0  0
   -9.2880    4.2932  -17.4361 C   0  0  0  0  0  0  0  0  0  0  0  0
  -10.3180    3.9120  -18.2013 F   0  0  0  0  0  0  0  0  0  0  0  0
   -8.0462    4.5164  -18.0263 C   0  0  0  0  0  0  0  0  0  0  0  0
   -6.9908    4.8641  -17.2020 C   0  0  0  0  0  0  0  0  0  0  0  0
   -8.7253    5.3012  -13.8691 C   0  0  0  0  0  0  0  0  0  0  0  0
   -9.2570    6.3248  -13.6976 O   0  0  0  0  0  0  0  0  0  0  0  0
   -8.2255    4.2511  -12.8547 N   0  0  0  0  0  0  0  0  0  0  0  0
   -7.7349    3.4954  -13.2516 H   0  0  0  0  0  0  0  0  0  0  0  0
   -8.3559    4.1984  -11.4673 C   0  0  0  0  0  0  0  0  0  0  0  0
   -8.1622    5.3498  -10.6828 C   0  0  0  0  0  0  0  0  0  0  0  0
   -8.2796    5.3149   -9.2826 C   0  0  0  0  0  0  0  0  0  0  0  0
   -8.0822    6.5626   -8.4808 C   0  0  0  0  0  0  0  0  0  0  0  0
   -8.6383    4.1058   -8.7063 C   0  0  0  0  0  0  0  0  0  0  0  0
   -8.8218    2.9619   -9.4841 C   0  0  0  0  0  0  0  0  0  0  0  0
   -8.6720    2.9839  -10.8606 C   0  0  0  0  0  0  0  0  0  0  0  0
   -9.1566    1.8136   -8.5902 C   0  0  0  0  0  0  0  0  0  0  0  0
   -9.5712    2.4393   -7.3066 N   0  0  0  0  0  0  0  0  0  0  0  0
   -8.8763    3.7449   -7.2750 C   0  0  0  0  0  0  0  0  0  0  0  0
   -9.2842    1.8612   -6.5168 H   0  0  0  0  0  0  0  0  0  0  0  0
   -5.2014    5.3136  -18.9037 C   0  0  0  0  0  0  0  0  0  0  0  0
   -3.1159    5.7860  -19.9927 C   0  0  0  0  0  0  0  0  0  0  0  0
   -3.8130    4.8854  -19.0782 N   0  0  0  0  0  0  0  0  0  0  0  0
   -3.3420    4.8939  -18.1735 H   0  0  0  0  0  0  0  0  0  0  0  0
   -6.0606    6.8374  -14.7808 O   0  0  0  0  0  0  0  0  0  0  0  0
   -5.3757    7.2646  -13.6059 C   0  0  0  0  0  0  0  0  0  0  0  0
   -4.3038    8.2558  -14.0442 C   0  0  0  0  0  0  0  0  0  0  0  0
   -6.3782    7.9408  -12.6785 C   0  0  0  0  0  0  0  0  0  0  0  0
 29 30  1  0  0  0
 30 28  1  0  0  0
 28  1  1  0  0  0
  1  2  1  0  0  0
  2  3  2  0  0  0
  2  4  1  0  0  0
  4  5  1  0  0  0
  4 32  1  0  0  0
 32 33  1  0  0  0
 33 34  1  0  0  0
 33 35  1  0  0  0
  4  6  1  0  0  0
  6  7  2  0  0  0
  7 13  1  0  0  0
 13 14  2  0  0  0
 13 15  1  0  0  0
 15 17  1  0  0  0
 17 18  2  0  0  0
 18 19  1  0  0  0
 19 20  1  0  0  0
 19 21  2  0  0  0
 21 22  1  0  0  0
 22 23  2  0  0  0
 22 24  1  0  0  0
 24 25  1  0  0  0
 25 26  1  0  0  0
  7  8  1  0  0  0
  8  9  2  0  0  0
  9 10  1  0  0  0
  9 11  1  0  0  0
 11 12  2  0  0  0
 12  1  1  0  0  0
 12  6  1  0  0  0
 23 17  1  0  0  0
 26 21  1  0  0  0
 30 31  1  0  0  0
 15 16  1  0  0  0
 25 27  1  0  0  0
M  END
> <minimizedAffinity>
-8.02436

> <minimizedRMSD>
0.81625

$$$$
P22983


 35 39  0  0  0  0  0  0  0  0999 V2000
   -5.6168    5.7488  -14.9533 C   0  0  0  0  0  0  0  0  0  0  0  0
   -5.6667    6.9192  -13.9654 C   0  0  0  0  0  0  0  0  0  0  0  0
   -6.8619    5.3324  -15.7333 C   0  0  0  0  0  0  0  0  0  0  0  0
   -8.1699    5.0253  -15.3378 C   0  0  0  0  0  0  0  0  0  0  0  0
   -9.0936    4.5539  -16.2859 C   0  0  0  0  0  0  0  0  0  0  0  0
   -8.7127    4.4049  -17.6128 C   0  0  0  0  0  0  0  0  0  0  0  0
   -9.5947    3.9620  -18.5137 F   0  0  0  0  0  0  0  0  0  0  0  0
   -7.4418    4.7462  -18.0318 C   0  0  0  0  0  0  0  0  0  0  0  0
   -6.5372    5.2289  -17.0971 C   0  0  0  0  0  0  0  0  0  0  0  0
   -5.3077    5.7786  -17.4418 N   0  0  0  0  0  0  0  0  0  0  0  0
   -4.3481    4.9693  -18.1682 C   0  0  0  0  0  0  0  0  0  0  0  0
   -3.0094    5.4780  -17.6220 C   0  0  0  0  0  0  0  0  0  0  0  0
   -3.2583    5.7922  -16.1954 N   0  0  0  0  0  0  0  0  0  0  0  0
   -4.6647    6.2295  -16.2214 C   0  0  0  0  0  0  0  0  0  0  0  0
   -4.6722    7.6301  -16.3989 O   0  0  0  0  0  0  0  0  0  0  0  0
   -2.6441    6.5374  -15.8670 H   0  0  0  0  0  0  0  0  0  0  0  0
   -4.2594    8.0555  -15.6311 H   0  0  0  0  0  0  0  0  0  0  0  0
   -8.7018    5.3199  -13.9868 C   0  0  0  0  0  0  0  0  0  0  0  0
   -9.6223    6.0322  -13.9040 O   0  0  0  0  0  0  0  0  0  0  0  0
   -7.9184    4.5623  -12.8890 N   0  0  0  0  0  0  0  0  0  0  0  0
   -7.1230    4.0787  -13.2095 H   0  0  0  0  0  0  0  0  0  0  0  0
   -8.1554    4.4529  -11.5201 C   0  0  0  0  0  0  0  0  0  0  0  0
   -8.0305    5.5637  -10.6710 C   0  0  0  0  0  0  0  0  0  0  0  0
   -8.2577    5.4434   -9.2961 C   0  0  0  0  0  0  0  0  0  0  0  0
   -8.6162    4.2049   -8.7966 C   0  0  0  0  0  0  0  0  0  0  0  0
   -8.7525    3.1079   -9.6362 C   0  0  0  0  0  0  0  0  0  0  0  0
   -8.5196    3.2086  -10.9991 C   0  0  0  0  0  0  0  0  0  0  0  0
   -9.1412    1.9126   -8.8357 C   0  0  0  0  0  0  0  0  0  0  0  0
   -9.3567    2.3929   -7.4436 N   0  0  0  0  0  0  0  0  0  0  0  0
   -8.8981    3.7966   -7.3926 C   0  0  0  0  0  0  0  0  0  0  0  0
   -8.8178    1.8248   -6.7900 H   0  0  0  0  0  0  0  0  0  0  0  0
   -4.9601    4.5955  -14.3503 O   0  0  0  0  0  0  0  0  0  0  0  0
   -2.9129    4.8603  -12.9310 C   0  0  0  0  0  0  0  0  0  0  0  0
   -4.4256    4.6819  -13.0236 C   0  0  0  0  0  0  0  0  0  0  0  0
   -4.7546    3.3468  -12.3682 C   0  0  0  0  0  0  0  0  0  0  0  0
 33 34  1  0  0  0
 34 35  1  0  0  0
 34 32  1  0  0  0
 32  1  1  0  0  0
  1  2  1  0  0  0
  1  3  1  0  0  0
  3  4  2  0  0  0
  4 18  1  0  0  0
 18 19  2  0  0  0
 18 20  1  0  0  0
 20 22  1  0  0  0
 22 23  2  0  0  0
 23 24  1  0  0  0
 24 25  2  0  0  0
 25 26  1  0  0  0
 26 27  2  0  0  0
 26 28  1  0  0  0
 28 29  1  0  0  0
 29 30  1  0  0  0
  4  5  1  0  0  0
  5  6  2  0  0  0
  6  7  1  0  0  0
  6  8  1  0  0  0
  8  9  2  0  0  0
  9 10  1  0  0  0
 10 11  1  0  0  0
 11 12  1  0  0  0
 12 13  1  0  0  0
 13 14  1  0  0  0
 14 15  1  0  0  0
 14  1  1  0  0  0
  9  3  1  0  0  0
 14 10  1  0  0  0
 27 22  1  0  0  0
 30 25  1  0  0  0
 20 21  1  0  0  0
 29 31  1  0  0  0
 13 16  1  0  0  0
 15 17  1  0  0  0
M  END
> <minimizedAffinity>
-8.62489

> <minimizedRMSD>
1.17248

$$$$
P22985


 36 40  0  0  0  0  0  0  0  0999 V2000
   -3.3536    5.1467  -17.6484 C   0  0  0  0  0  0  0  0  0  0  0  0
   -3.5958    4.9792  -19.1216 N   0  0  0  0  0  0  0  0  0  0  0  0
   -5.0673    5.0050  -19.3624 C   0  0  0  0  0  0  0  0  0  0  0  0
   -5.6354    5.1027  -18.0215 C   0  0  0  0  0  0  0  0  0  0  0  0
   -4.7122    5.2587  -17.0778 C   0  0  0  0  0  0  0  0  0  0  0  0
   -5.2716    5.3516  -15.6846 C   0  0  0  0  0  0  0  0  0  0  0  0
   -4.7408    4.1962  -14.8282 C   0  0  0  0  0  0  0  0  0  0  0  0
   -6.7671    5.1482  -15.9990 C   0  0  0  0  0  0  0  0  0  0  0  0
   -7.8859    5.0029  -15.1780 C   0  0  0  0  0  0  0  0  0  0  0  0
   -9.1117    4.6153  -15.7542 C   0  0  0  0  0  0  0  0  0  0  0  0
   -9.2089    4.3890  -17.1286 C   0  0  0  0  0  0  0  0  0  0  0  0
  -10.3799    3.9944  -17.6481 F   0  0  0  0  0  0  0  0  0  0  0  0
   -8.1218    4.5784  -17.9685 C   0  0  0  0  0  0  0  0  0  0  0  0
   -6.9182    4.9501  -17.3967 C   0  0  0  0  0  0  0  0  0  0  0  0
   -3.2110    4.0881  -19.4349 H   0  0  0  0  0  0  0  0  0  0  0  0
   -7.9047    5.4129  -13.7536 C   0  0  0  0  0  0  0  0  0  0  0  0
   -7.7538    6.5449  -13.5189 O   0  0  0  0  0  0  0  0  0  0  0  0
   -8.2309    4.2317  -12.8154 N   0  0  0  0  0  0  0  0  0  0  0  0
   -8.3854    3.3733  -13.2719 H   0  0  0  0  0  0  0  0  0  0  0  0
   -8.3422    4.1826  -11.4294 C   0  0  0  0  0  0  0  0  0  0  0  0
   -8.0947    5.3288  -10.6547 C   0  0  0  0  0  0  0  0  0  0  0  0
   -8.2334    5.2994   -9.2653 C   0  0  0  0  0  0  0  0  0  0  0  0
   -8.6113    4.1095   -8.6732 C   0  0  0  0  0  0  0  0  0  0  0  0
   -8.8541    2.9751   -9.4364 C   0  0  0  0  0  0  0  0  0  0  0  0
   -8.7315    2.9915  -10.8174 C   0  0  0  0  0  0  0  0  0  0  0  0
   -9.2072    1.8392   -8.5390 C   0  0  0  0  0  0  0  0  0  0  0  0
   -9.2916    2.3990   -7.1623 N   0  0  0  0  0  0  0  0  0  0  0  0
   -8.8115    3.7951   -7.2316 C   0  0  0  0  0  0  0  0  0  0  0  0
   -8.7041    1.8580   -6.5279 H   0  0  0  0  0  0  0  0  0  0  0  0
   -2.4141    6.3267  -17.3810 C   0  0  0  0  0  0  0  0  0  0  0  0
   -0.0994    5.4528  -18.1062 C   0  0  0  0  0  0  0  0  0  0  0  0
   -0.9873    5.9350  -16.9715 C   0  0  0  0  0  0  0  0  0  0  0  0
   -4.7812    6.5283  -15.0498 O   0  0  0  0  0  0  0  0  0  0  0  0
   -5.4217    7.7822  -15.2172 C   0  0  0  0  0  0  0  0  0  0  0  0
   -5.0601    8.6180  -13.9903 C   0  0  0  0  0  0  0  0  0  0  0  0
   -4.9961    8.5255  -16.4765 C   0  0  0  0  0  0  0  0  0  0  0  0
 31 32  1  0  0  0
 32 30  1  0  0  0
  1 30  1  0  0  0
  1  2  1  0  0  0
  2  3  1  0  0  0
  3  4  1  0  0  0
  4  5  2  0  0  0
  5  6  1  0  0  0
  6  7  1  0  0  0
  6 33  1  0  0  0
 33 34  1  0  0  0
 34 35  1  0  0  0
 34 36  1  0  0  0
  6  8  1  0  0  0
  8  9  2  0  0  0
  9 16  1  0  0  0
 16 17  2  0  0  0
 16 18  1  0  0  0
 18 20  1  0  0  0
 20 21  2  0  0  0
 21 22  1  0  0  0
 22 23  2  0  0  0
 23 24  1  0  0  0
 24 25  2  0  0  0
 24 26  1  0  0  0
 26 27  1  0  0  0
 27 28  1  0  0  0
  9 10  1  0  0  0
 10 11  2  0  0  0
 11 12  1  0  0  0
 11 13  1  0  0  0
 13 14  2  0  0  0
  5  1  1  0  0  0
 14  8  1  0  0  0
 14  4  1  0  0  0
 25 20  1  0  0  0
 28 23  1  0  0  0
  2 15  1  0  0  0
 18 19  1  0  0  0
 27 29  1  0  0  0
M  END
> <minimizedAffinity>
-8.79873

> <minimizedRMSD>
0.58302

$$$$
P23027


 37 41  0  0  0  0  0  0  0  0999 V2000
   -8.3735    4.2773  -17.0130 C   0  0  0  0  0  0  0  0  0  0  0  0
   -7.1903    4.5844  -17.6894 C   0  0  0  0  0  0  0  0  0  0  0  0
   -6.1381    5.2202  -17.0371 C   0  0  0  0  0  0  0  0  0  0  0  0
   -6.2354    5.5925  -15.6940 C   0  0  0  0  0  0  0  0  0  0  0  0
   -7.4277    5.2553  -15.0170 C   0  0  0  0  0  0  0  0  0  0  0  0
   -8.4883    4.6119  -15.6667 C   0  0  0  0  0  0  0  0  0  0  0  0
   -7.6393    5.6903  -13.6127 C   0  0  0  0  0  0  0  0  0  0  0  0
   -7.6424    6.8365  -13.3817 O   0  0  0  0  0  0  0  0  0  0  0  0
   -7.9067    4.4795  -12.6863 N   0  0  0  0  0  0  0  0  0  0  0  0
   -7.9198    3.6070  -13.1420 H   0  0  0  0  0  0  0  0  0  0  0  0
   -8.1314    4.4236  -11.3148 C   0  0  0  0  0  0  0  0  0  0  0  0
   -7.9582    5.5578  -10.5059 C   0  0  0  0  0  0  0  0  0  0  0  0
   -8.1872    5.4969   -9.1284 C   0  0  0  0  0  0  0  0  0  0  0  0
   -8.5733    4.2871   -8.5835 C   0  0  0  0  0  0  0  0  0  0  0  0
   -8.7490    3.1652   -9.3830 C   0  0  0  0  0  0  0  0  0  0  0  0
   -8.5411    3.2133  -10.7521 C   0  0  0  0  0  0  0  0  0  0  0  0
   -9.1955    2.0222   -8.5405 C   0  0  0  0  0  0  0  0  0  0  0  0
   -9.1133    2.4835   -7.1281 N   0  0  0  0  0  0  0  0  0  0  0  0
   -8.8895    3.9454   -7.1695 C   0  0  0  0  0  0  0  0  0  0  0  0
   -8.3376    2.0226   -6.6526 H   0  0  0  0  0  0  0  0  0  0  0  0
  -10.4434    4.6552  -18.3042 C   0  0  0  0  0  0  0  0  0  0  0  0
   -9.5127    3.6191  -17.7321 C   0  0  0  0  0  0  0  0  0  0  0  0
   -5.1555    6.1515  -14.9951 N   0  0  0  0  0  0  0  0  0  0  0  0
   -4.9473    5.8261  -14.0895 H   0  0  0  0  0  0  0  0  0  0  0  0
   -4.3357    7.2032  -15.5809 C   0  0  0  0  0  0  0  0  0  0  0  0
   -3.2264    7.5998  -14.5947 C   0  0  0  0  0  0  0  0  0  0  0  0
   -3.1659    9.1196  -14.6555 C   0  0  0  0  0  0  0  0  0  0  0  0
   -4.6234    9.5418  -14.8327 C   0  0  0  0  0  0  0  0  0  0  0  0
   -5.4470    9.4707  -13.5325 C   0  0  0  0  0  0  0  0  0  0  0  0
   -6.6140   10.4400  -13.7213 C   0  0  0  0  0  0  0  0  0  0  0  0
   -6.3242   11.2444  -14.9864 C   0  0  0  0  0  0  0  0  0  0  0  0
   -4.8535   10.9842  -15.3385 C   0  0  0  0  0  0  0  0  0  0  0  0
   -5.1359    8.4917  -15.8473 C   0  0  0  0  0  0  0  0  0  0  0  0
   -3.9076   12.0834  -14.8087 C   0  0  0  0  0  0  0  0  0  0  0  0
   -4.5305   13.3593  -14.4892 N   0  0  0  0  0  0  0  0  0  0  0  0
   -4.9216   13.7686  -15.3376 H   0  0  0  0  0  0  0  0  0  0  0  0
   -3.8312   13.9906  -14.0982 H   0  0  0  0  0  0  0  0  0  0  0  0
 21 22  1  0  0  0
 22  1  1  0  0  0
  1  2  2  0  0  0
  2  3  1  0  0  0
  3  4  2  0  0  0
  4 23  1  0  0  0
 25 23  1  0  0  0
 25 26  1  0  0  0
 26 27  1  0  0  0
 28 27  1  0  0  0
 28 29  1  0  0  0
 29 30  1  0  0  0
 30 31  1  0  0  0
 31 32  1  0  0  0
 32 34  1  0  0  0
 34 35  1  0  0  0
 28 33  1  0  0  0
  4  5  1  0  0  0
  5  7  1  0  0  0
  7  8  2  0  0  0
  7  9  1  0  0  0
  9 11  1  0  0  0
 11 12  2  0  0  0
 12 13  1  0  0  0
 13 14  2  0  0  0
 14 15  1  0  0  0
 15 16  2  0  0  0
 15 17  1  0  0  0
 17 18  1  0  0  0
 18 19  1  0  0  0
  5  6  2  0  0  0
  6  1  1  0  0  0
 33 25  1  0  0  0
 16 11  1  0  0  0
 32 28  1  0  0  0
 19 14  1  0  0  0
 23 24  1  0  0  0
 35 36  1  0  0  0
 35 37  1  0  0  0
  9 10  1  0  0  0
 18 20  1  0  0  0
M  END
> <minimizedAffinity>
-6.82068

> <minimizedRMSD>
1.56608

$$$$
P23035


 30 33  0  0  0  0  0  0  0  0999 V2000
   -8.1424    4.8831  -13.9912 C   0  0  0  0  0  0  0  0  0  0  0  0
   -8.8966    5.9794  -13.7634 C   0  0  0  0  0  0  0  0  0  0  0  0
   -9.3470    6.3025  -12.5342 F   0  0  0  0  0  0  0  0  0  0  0  0
   -9.3388    6.7424  -14.7893 F   0  0  0  0  0  0  0  0  0  0  0  0
   -5.5623    5.2237  -19.5562 N   0  0  0  0  0  0  0  0  0  0  0  0
   -5.7961    5.0967  -18.1900 N   0  0  0  0  0  0  0  0  0  0  0  0
   -4.8351    5.3771  -17.2013 C   0  0  0  0  0  0  0  0  0  0  0  0
   -3.6532    5.6628  -17.3429 O   0  0  0  0  0  0  0  0  0  0  0  0
   -5.5569    5.2558  -15.8528 C   0  0  0  0  0  0  0  0  0  0  0  0
   -6.9396    4.8076  -16.2357 C   0  0  0  0  0  0  0  0  0  0  0  0
   -8.0473    4.5373  -15.4368 C   0  0  0  0  0  0  0  0  0  0  0  0
   -9.1998    4.0764  -16.0971 C   0  0  0  0  0  0  0  0  0  0  0  0
   -9.2554    3.9354  -17.4945 C   0  0  0  0  0  0  0  0  0  0  0  0
   -8.1571    4.2743  -18.2792 C   0  0  0  0  0  0  0  0  0  0  0  0
   -7.0152    4.7056  -17.6313 C   0  0  0  0  0  0  0  0  0  0  0  0
   -4.5987    5.5210  -19.7101 H   0  0  0  0  0  0  0  0  0  0  0  0
   -6.1989    5.9183  -19.9470 H   0  0  0  0  0  0  0  0  0  0  0  0
   -7.6307    3.9587  -13.0879 N   0  0  0  0  0  0  0  0  0  0  0  0
   -7.2153    3.1653  -13.4967 H   0  0  0  0  0  0  0  0  0  0  0  0
   -7.6130    3.9790  -11.6746 C   0  0  0  0  0  0  0  0  0  0  0  0
   -6.8979    4.9184  -10.9264 C   0  0  0  0  0  0  0  0  0  0  0  0
   -7.0549    5.0491   -9.5442 C   0  0  0  0  0  0  0  0  0  0  0  0
   -7.8863    4.1801   -8.8485 C   0  0  0  0  0  0  0  0  0  0  0  0
   -8.5110    3.1393   -9.5462 C   0  0  0  0  0  0  0  0  0  0  0  0
   -8.3995    3.0705  -10.9530 C   0  0  0  0  0  0  0  0  0  0  0  0
   -9.3738    2.1574   -8.7976 C   0  0  0  0  0  0  0  0  0  0  0  0
   -9.0720    2.0572   -7.3675 N   0  0  0  0  0  0  0  0  0  0  0  0
   -9.1034    3.3834   -6.7606 C   0  0  0  0  0  0  0  0  0  0  0  0
   -8.0492    4.3212   -7.3568 C   0  0  0  0  0  0  0  0  0  0  0  0
   -8.1445    1.6508   -7.2450 H   0  0  0  0  0  0  0  0  0  0  0  0
  5  6  1  0  0  0
  6  7  1  0  0  0
  7  8  2  0  0  0
  7  9  1  0  0  0
  9 10  1  0  0  0
 10 11  2  0  0  0
 11  1  1  0  0  0
  1 18  1  0  0  0
 18 20  1  0  0  0
 20 21  2  0  0  0
 21 22  1  0  0  0
 22 23  2  0  0  0
 23 24  1  0  0  0
 24 25  2  0  0  0
 24 26  1  0  0  0
 26 27  1  0  0  0
 27 28  1  0  0  0
 28 29  1  0  0  0
  1  2  2  0  0  0
  2  3  1  0  0  0
  2  4  1  0  0  0
 11 12  1  0  0  0
 12 13  2  0  0  0
 13 14  1  0  0  0
 14 15  2  0  0  0
 15  6  1  0  0  0
 15 10  1  0  0  0
 25 20  1  0  0  0
 29 23  1  0  0  0
  5 16  1  0  0  0
  5 17  1  0  0  0
 18 19  1  0  0  0
 27 30  1  0  0  0
M  END
> <minimizedAffinity>
-8.17113

> <minimizedRMSD>
0.84126

$$$$
P23040


 28 31  0  0  0  0  0  0  0  0999 V2000
   -7.2322    5.1693  -13.8444 C   0  0  0  0  0  0  0  0  0  0  0  0
   -6.6165    6.1406  -13.6343 O   0  0  0  0  0  0  0  0  0  0  0  0
   -7.9418    4.1988  -12.8668 N   0  0  0  0  0  0  0  0  0  0  0  0
   -8.3340    3.4011  -13.2900 H   0  0  0  0  0  0  0  0  0  0  0  0
   -5.5509    4.9640  -19.7098 N   0  0  0  0  0  0  0  0  0  0  0  0
   -5.6283    5.0779  -18.3278 N   0  0  0  0  0  0  0  0  0  0  0  0
   -4.5179    5.3443  -17.5041 C   0  0  0  0  0  0  0  0  0  0  0  0
   -3.3584    5.5279  -17.8502 O   0  0  0  0  0  0  0  0  0  0  0  0
   -5.0433    5.3769  -16.0636 C   0  0  0  0  0  0  0  0  0  0  0  0
   -6.4854    4.9939  -16.2235 C   0  0  0  0  0  0  0  0  0  0  0  0
   -7.4675    4.8032  -15.2647 C   0  0  0  0  0  0  0  0  0  0  0  0
   -8.7391    4.4028  -15.6914 C   0  0  0  0  0  0  0  0  0  0  0  0
   -9.0139    4.2021  -17.0550 C   0  0  0  0  0  0  0  0  0  0  0  0
   -8.0245    4.4141  -18.0153 C   0  0  0  0  0  0  0  0  0  0  0  0
   -6.7737    4.8095  -17.5778 C   0  0  0  0  0  0  0  0  0  0  0  0
   -4.6119    5.2143  -20.0196 H   0  0  0  0  0  0  0  0  0  0  0  0
   -6.2298    5.5913  -20.1412 H   0  0  0  0  0  0  0  0  0  0  0  0
   -8.1155    4.2716  -11.4827 C   0  0  0  0  0  0  0  0  0  0  0  0
   -7.8700    5.4506  -10.7818 C   0  0  0  0  0  0  0  0  0  0  0  0
   -8.0917    5.5132   -9.4024 C   0  0  0  0  0  0  0  0  0  0  0  0
   -8.5444    4.3889   -8.7025 C   0  0  0  0  0  0  0  0  0  0  0  0
   -8.7849    3.1952   -9.3997 C   0  0  0  0  0  0  0  0  0  0  0  0
   -8.5651    3.1454  -10.7893 C   0  0  0  0  0  0  0  0  0  0  0  0
   -9.2262    1.9619   -8.6480 C   0  0  0  0  0  0  0  0  0  0  0  0
  -10.0144    2.2739   -7.4449 N   0  0  0  0  0  0  0  0  0  0  0  0
   -9.2407    3.1504   -6.5692 C   0  0  0  0  0  0  0  0  0  0  0  0
   -8.8363    4.4796   -7.2247 C   0  0  0  0  0  0  0  0  0  0  0  0
  -10.2367    1.4098   -6.9506 H   0  0  0  0  0  0  0  0  0  0  0  0
  5  6  1  0  0  0
  6  7  1  0  0  0
  7  8  2  0  0  0
  7  9  1  0  0  0
  9 10  1  0  0  0
 10 11  2  0  0  0
 11  1  1  0  0  0
  1  2  2  0  0  0
  1  3  1  0  0  0
  3 18  1  0  0  0
 18 19  2  0  0  0
 19 20  1  0  0  0
 20 21  2  0  0  0
 21 22  1  0  0  0
 22 23  2  0  0  0
 22 24  1  0  0  0
 24 25  1  0  0  0
 25 26  1  0  0  0
 26 27  1  0  0  0
 11 12  1  0  0  0
 12 13  2  0  0  0
 13 14  1  0  0  0
 14 15  2  0  0  0
 15  6  1  0  0  0
 15 10  1  0  0  0
 23 18  1  0  0  0
 27 21  1  0  0  0
  5 16  1  0  0  0
  5 17  1  0  0  0
  3  4  1  0  0  0
 25 28  1  0  0  0
M  END
> <minimizedAffinity>
-8.89775

> <minimizedRMSD>
0.26265

$$$$
P23041


 32 36  0  0  0  0  0  0  0  0999 V2000
   -7.3181    4.7188  -15.0939 C   0  0  0  0  0  0  0  0  0  0  0  0
   -8.6282    4.3639  -15.4822 C   0  0  0  0  0  0  0  0  0  0  0  0
   -8.9972    4.2631  -16.8324 C   0  0  0  0  0  0  0  0  0  0  0  0
   -8.0545    4.4941  -17.8253 C   0  0  0  0  0  0  0  0  0  0  0  0
   -6.7899    4.8778  -17.4244 C   0  0  0  0  0  0  0  0  0  0  0  0
   -6.4024    5.0393  -16.0838 C   0  0  0  0  0  0  0  0  0  0  0  0
   -4.9804    5.5778  -16.0676 C   0  0  0  0  0  0  0  0  0  0  0  0
   -3.9879    5.0264  -15.0450 C   0  0  0  0  0  0  0  0  0  0  0  0
   -2.6564    5.7862  -15.0526 C   0  0  0  0  0  0  0  0  0  0  0  0
   -2.8368    7.2342  -14.9158 N   0  0  0  0  0  0  0  0  0  0  0  0
   -3.6981    7.7777  -15.9555 C   0  0  0  0  0  0  0  0  0  0  0  0
   -5.0702    7.1153  -15.9261 C   0  0  0  0  0  0  0  0  0  0  0  0
   -4.5461    5.2645  -17.5327 C   0  0  0  0  0  0  0  0  0  0  0  0
   -3.4125    5.2418  -17.9872 O   0  0  0  0  0  0  0  0  0  0  0  0
   -5.7053    5.0645  -18.2675 N   0  0  0  0  0  0  0  0  0  0  0  0
   -1.9245    7.6866  -14.9743 H   0  0  0  0  0  0  0  0  0  0  0  0
   -5.7514    5.0562  -19.2509 H   0  0  0  0  0  0  0  0  0  0  0  0
   -6.1120    3.6265  -13.5018 O   0  0  0  0  0  0  0  0  0  0  0  0
   -6.9669    4.3959  -13.6849 C   0  0  0  0  0  0  0  0  0  0  0  0
   -7.9079    5.0988  -12.6885 N   0  0  0  0  0  0  0  0  0  0  0  0
   -8.5037    5.7724  -13.0891 H   0  0  0  0  0  0  0  0  0  0  0  0
   -8.0528    4.9368  -11.3159 C   0  0  0  0  0  0  0  0  0  0  0  0
   -8.0249    6.0333  -10.4656 C   0  0  0  0  0  0  0  0  0  0  0  0
   -8.1769    5.8406   -9.0879 C   0  0  0  0  0  0  0  0  0  0  0  0
   -8.4851    4.5729   -8.5695 C   0  0  0  0  0  0  0  0  0  0  0  0
   -8.5983    3.4810   -9.4384 C   0  0  0  0  0  0  0  0  0  0  0  0
   -8.3186    3.6619  -10.8035 C   0  0  0  0  0  0  0  0  0  0  0  0
   -9.1330    2.1505   -8.9606 C   0  0  0  0  0  0  0  0  0  0  0  0
   -9.1937    1.9599   -7.5103 N   0  0  0  0  0  0  0  0  0  0  0  0
   -9.5675    3.1500   -6.7759 C   0  0  0  0  0  0  0  0  0  0  0  0
   -8.6673    4.3522   -7.0895 C   0  0  0  0  0  0  0  0  0  0  0  0
   -8.2740    1.6592   -7.1875 H   0  0  0  0  0  0  0  0  0  0  0  0
 18 19  2  0  0  0
 19 20  1  0  0  0
 20 22  1  0  0  0
 22 23  2  0  0  0
 23 24  1  0  0  0
 24 25  2  0  0  0
 25 26  1  0  0  0
 26 27  2  0  0  0
 26 28  1  0  0  0
 28 29  1  0  0  0
 29 30  1  0  0  0
 30 31  1  0  0  0
 19  1  1  0  0  0
  1  2  2  0  0  0
  2  3  1  0  0  0
  3  4  2  0  0  0
  4  5  1  0  0  0
  5  6  2  0  0  0
  6  7  1  0  0  0
  7  8  1  0  0  0
  8  9  1  0  0  0
  9 10  1  0  0  0
 10 11  1  0  0  0
 11 12  1  0  0  0
  7 13  1  0  0  0
 13 14  2  0  0  0
 13 15  1  0  0  0
 27 22  1  0  0  0
  6  1  1  0  0  0
 12  7  1  0  0  0
 31 25  1  0  0  0
 15  5  1  0  0  0
 20 21  1  0  0  0
 29 32  1  0  0  0
 10 16  1  0  0  0
 15 17  1  0  0  0
M  END
> <minimizedAffinity>
-9.24276

> <minimizedRMSD>
0.24402

$$$$
P23043


 27 30  0  0  0  0  0  0  0  0999 V2000
   -8.7328    5.0472  -14.2265 C   0  0  0  0  0  0  0  0  0  0  0  0
   -9.5858    5.8426  -14.1643 O   0  0  0  0  0  0  0  0  0  0  0  0
   -8.0325    4.2408  -13.1111 N   0  0  0  0  0  0  0  0  0  0  0  0
   -7.3886    3.5683  -13.4309 H   0  0  0  0  0  0  0  0  0  0  0  0
   -8.1638    4.3100  -11.7252 C   0  0  0  0  0  0  0  0  0  0  0  0
   -7.9117    5.5035  -11.0498 C   0  0  0  0  0  0  0  0  0  0  0  0
   -8.0676    5.5786   -9.6660 C   0  0  0  0  0  0  0  0  0  0  0  0
   -8.4815    4.4580   -8.9392 C   0  0  0  0  0  0  0  0  0  0  0  0
   -8.7458    3.2545   -9.6113 C   0  0  0  0  0  0  0  0  0  0  0  0
   -8.5645    3.1834  -11.0057 C   0  0  0  0  0  0  0  0  0  0  0  0
   -9.1913    2.0401   -8.8327 C   0  0  0  0  0  0  0  0  0  0  0  0
   -9.9224    2.3782   -7.6020 N   0  0  0  0  0  0  0  0  0  0  0  0
   -9.1277    3.2703   -6.7622 C   0  0  0  0  0  0  0  0  0  0  0  0
   -8.7137    4.5744   -7.4546 C   0  0  0  0  0  0  0  0  0  0  0  0
  -10.1236    1.5221   -7.0854 H   0  0  0  0  0  0  0  0  0  0  0  0
   -5.2471    5.3690  -17.4329 N   0  0  0  0  0  0  0  0  0  0  0  0
   -4.7018    5.6029  -16.1451 C   0  0  0  0  0  0  0  0  0  0  0  0
   -3.5488    5.8699  -15.8316 O   0  0  0  0  0  0  0  0  0  0  0  0
   -5.8328    5.4707  -15.1316 C   0  0  0  0  0  0  0  0  0  0  0  0
   -6.9751    5.0062  -15.9668 C   0  0  0  0  0  0  0  0  0  0  0  0
   -8.2628    4.6752  -15.5776 C   0  0  0  0  0  0  0  0  0  0  0  0
   -9.1499    4.1864  -16.5381 C   0  0  0  0  0  0  0  0  0  0  0  0
   -8.7508    4.0819  -17.8783 C   0  0  0  0  0  0  0  0  0  0  0  0
   -7.4656    4.4739  -18.2677 C   0  0  0  0  0  0  0  0  0  0  0  0
   -6.5864    4.9328  -17.2992 C   0  0  0  0  0  0  0  0  0  0  0  0
   -3.5885    4.8558  -19.1231 C   0  0  0  0  0  0  0  0  0  0  0  0
   -4.5962    5.5838  -18.6284 C   0  0  0  0  0  0  0  0  0  0  0  0
 26 27  2  0  0  0
 27 16  1  0  0  0
 16 17  1  0  0  0
 17 18  2  0  0  0
 17 19  1  0  0  0
 19 20  1  0  0  0
 20 21  2  0  0  0
 21  1  1  0  0  0
  1  2  2  0  0  0
  1  3  1  0  0  0
  3  5  1  0  0  0
  5  6  2  0  0  0
  6  7  1  0  0  0
  7  8  2  0  0  0
  8  9  1  0  0  0
  9 10  2  0  0  0
  9 11  1  0  0  0
 11 12  1  0  0  0
 12 13  1  0  0  0
 13 14  1  0  0  0
 21 22  1  0  0  0
 22 23  2  0  0  0
 23 24  1  0  0  0
 24 25  2  0  0  0
 25 16  1  0  0  0
 25 20  1  0  0  0
 10  5  1  0  0  0
 14  8  1  0  0  0
  3  4  1  0  0  0
 12 15  1  0  0  0
M  END
> <minimizedAffinity>
-8.90266

> <minimizedRMSD>
0.78464

$$$$
P23047


 33 37  0  0  0  0  0  0  0  0999 V2000
   -5.3667    5.0813  -17.4775 N   0  0  0  0  0  0  0  0  0  0  0  0
   -4.2874    5.2528  -16.6151 C   0  0  0  0  0  0  0  0  0  0  0  0
   -3.1006    5.1715  -16.9026 O   0  0  0  0  0  0  0  0  0  0  0  0
   -4.8563    5.6803  -15.2423 C   0  0  0  0  0  0  0  0  0  0  0  0
   -6.3317    5.3900  -15.4191 C   0  0  0  0  0  0  0  0  0  0  0  0
   -7.3580    5.2574  -14.4778 C   0  0  0  0  0  0  0  0  0  0  0  0
   -8.6375    4.8741  -14.9105 C   0  0  0  0  0  0  0  0  0  0  0  0
   -8.8779    4.5610  -16.2428 C   0  0  0  0  0  0  0  0  0  0  0  0
   -7.8484    4.6288  -17.1767 C   0  0  0  0  0  0  0  0  0  0  0  0
   -8.2477    4.0557  -18.7300 Cl  0  0  0  0  0  0  0  0  0  0  0  0
   -6.5809    5.0419  -16.7647 C   0  0  0  0  0  0  0  0  0  0  0  0
   -4.2947    7.1049  -15.0353 C   0  0  0  0  0  0  0  0  0  0  0  0
   -5.2240    8.2827  -15.3092 C   0  0  0  0  0  0  0  0  0  0  0  0
   -4.3746    9.4487  -14.8530 C   0  0  0  0  0  0  0  0  0  0  0  0
   -3.5520    8.9611  -13.7875 O   0  0  0  0  0  0  0  0  0  0  0  0
   -3.7486    7.5336  -13.6903 C   0  0  0  0  0  0  0  0  0  0  0  0
   -7.2583    5.5766  -13.0306 C   0  0  0  0  0  0  0  0  0  0  0  0
   -6.9348    6.6556  -12.7349 O   0  0  0  0  0  0  0  0  0  0  0  0
   -7.7169    4.3927  -12.1509 N   0  0  0  0  0  0  0  0  0  0  0  0
   -7.8649    3.5501  -12.6382 H   0  0  0  0  0  0  0  0  0  0  0  0
   -7.9550    4.3233  -10.7808 C   0  0  0  0  0  0  0  0  0  0  0  0
   -7.7577    5.4364   -9.9659 C   0  0  0  0  0  0  0  0  0  0  0  0
   -8.0947    5.3903   -8.6127 C   0  0  0  0  0  0  0  0  0  0  0  0
   -8.6223    4.2222   -8.0580 C   0  0  0  0  0  0  0  0  0  0  0  0
   -8.7827    3.0835   -8.8633 C   0  0  0  0  0  0  0  0  0  0  0  0
   -8.4674    3.1492  -10.2318 C   0  0  0  0  0  0  0  0  0  0  0  0
   -9.3374    1.8029   -8.2896 C   0  0  0  0  0  0  0  0  0  0  0  0
   -9.3904    1.7428   -6.8255 N   0  0  0  0  0  0  0  0  0  0  0  0
   -9.8944    2.9862   -6.2620 C   0  0  0  0  0  0  0  0  0  0  0  0
   -8.9737    4.1635   -6.5941 C   0  0  0  0  0  0  0  0  0  0  0  0
   -8.4513    1.5719   -6.4660 H   0  0  0  0  0  0  0  0  0  0  0  0
   -5.1193    6.4646  -19.4885 C   0  0  0  0  0  0  0  0  0  0  0  0
   -5.2067    5.0585  -18.9163 C   0  0  0  0  0  0  0  0  0  0  0  0
 32 33  1  0  0  0
 33  1  1  0  0  0
  1  2  1  0  0  0
  2  3  2  0  0  0
  4  2  1  0  0  0
  4 12  1  0  0  0
 12 13  1  0  0  0
 13 14  1  0  0  0
 14 15  1  0  0  0
 15 16  1  0  0  0
  4  5  1  0  0  0
  5  6  2  0  0  0
  6 17  1  0  0  0
 17 18  2  0  0  0
 17 19  1  0  0  0
 19 21  1  0  0  0
 21 22  2  0  0  0
 22 23  1  0  0  0
 23 24  2  0  0  0
 24 25  1  0  0  0
 25 26  2  0  0  0
 25 27  1  0  0  0
 27 28  1  0  0  0
 28 29  1  0  0  0
 29 30  1  0  0  0
  6  7  1  0  0  0
  7  8  2  0  0  0
  8  9  1  0  0  0
  9 10  1  0  0  0
  9 11  2  0  0  0
 11  1  1  0  0  0
 16 12  1  0  0  0
 11  5  1  0  0  0
 26 21  1  0  0  0
 30 24  1  0  0  0
 19 20  1  0  0  0
 28 31  1  0  0  0
M  END
> <minimizedAffinity>
-7.98122

> <minimizedRMSD>
0.47590

$$$$
P23049


 33 37  0  0  0  0  0  0  0  0999 V2000
   -8.2222    4.9898  -13.5777 C   0  0  0  0  0  0  0  0  0  0  0  0
   -9.5975    4.7119  -13.7146 O   0  0  0  0  0  0  0  0  0  0  0  0
   -8.1513    6.2738  -13.1387 F   0  0  0  0  0  0  0  0  0  0  0  0
   -9.9805    5.2976  -14.3862 H   0  0  0  0  0  0  0  0  0  0  0  0
   -8.8332    4.1897  -18.5374 C   0  0  0  0  0  0  0  0  0  0  0  0
   -7.8997    4.5070  -17.3979 C   0  0  0  0  0  0  0  0  0  0  0  0
   -8.4165    4.5222  -16.0780 C   0  0  0  0  0  0  0  0  0  0  0  0
   -7.6173    4.8221  -14.9523 C   0  0  0  0  0  0  0  0  0  0  0  0
   -6.2681    5.0608  -15.1989 C   0  0  0  0  0  0  0  0  0  0  0  0
   -5.7602    5.0541  -16.4991 C   0  0  0  0  0  0  0  0  0  0  0  0
   -6.5393    4.8046  -17.6153 C   0  0  0  0  0  0  0  0  0  0  0  0
   -5.8847    4.8596  -18.9675 C   0  0  0  0  0  0  0  0  0  0  0  0
   -5.1162    6.1780  -19.1917 C   0  0  0  0  0  0  0  0  0  0  0  0
   -3.7390    6.2475  -18.5327 C   0  0  0  0  0  0  0  0  0  0  0  0
   -3.5172    5.2116  -17.5391 N   0  0  0  0  0  0  0  0  0  0  0  0
   -4.3935    5.3404  -16.4661 N   0  0  0  0  0  0  0  0  0  0  0  0
   -3.9211    5.4476  -15.1630 C   0  0  0  0  0  0  0  0  0  0  0  0
   -2.7473    5.5668  -14.8417 O   0  0  0  0  0  0  0  0  0  0  0  0
   -5.1408    5.3568  -14.2443 C   0  0  0  0  0  0  0  0  0  0  0  0
   -2.5594    5.2813  -17.1954 H   0  0  0  0  0  0  0  0  0  0  0  0
   -7.6550    4.1203  -12.5810 N   0  0  0  0  0  0  0  0  0  0  0  0
   -7.0674    3.3888  -12.8790 H   0  0  0  0  0  0  0  0  0  0  0  0
   -7.8959    4.2616  -11.2120 C   0  0  0  0  0  0  0  0  0  0  0  0
   -7.4890    5.3730  -10.4590 C   0  0  0  0  0  0  0  0  0  0  0  0
   -7.7511    5.4775   -9.0898 C   0  0  0  0  0  0  0  0  0  0  0  0
   -8.3816    4.4370   -8.4131 C   0  0  0  0  0  0  0  0  0  0  0  0
   -8.7488    3.2876   -9.1230 C   0  0  0  0  0  0  0  0  0  0  0  0
   -8.4889    3.2062  -10.5075 C   0  0  0  0  0  0  0  0  0  0  0  0
   -9.3505    2.1151   -8.3899 C   0  0  0  0  0  0  0  0  0  0  0  0
  -10.0696    2.4966   -7.1649 N   0  0  0  0  0  0  0  0  0  0  0  0
   -9.2053    3.2827   -6.2914 C   0  0  0  0  0  0  0  0  0  0  0  0
   -8.7185    4.5761   -6.9509 C   0  0  0  0  0  0  0  0  0  0  0  0
  -10.3669    1.6537   -6.6734 H   0  0  0  0  0  0  0  0  0  0  0  0
  5  6  1  0  0  0
  6  7  2  0  0  0
  7  8  1  0  0  0
  8  1  1  0  0  0
  1  2  1  0  0  0
  1  3  1  0  0  0
  1 21  1  0  0  0
 21 23  1  0  0  0
 23 24  2  0  0  0
 24 25  1  0  0  0
 25 26  2  0  0  0
 26 27  1  0  0  0
 27 28  2  0  0  0
 27 29  1  0  0  0
 29 30  1  0  0  0
 30 31  1  0  0  0
 31 32  1  0  0  0
  8  9  2  0  0  0
  9 10  1  0  0  0
 10 11  2  0  0  0
 11 12  1  0  0  0
 12 13  1  0  0  0
 13 14  1  0  0  0
 14 15  1  0  0  0
 15 16  1  0  0  0
 16 17  1  0  0  0
 17 18  2  0  0  0
 17 19  1  0  0  0
 11  6  1  0  0  0
 28 23  1  0  0  0
 19  9  1  0  0  0
 32 26  1  0  0  0
 16 10  1  0  0  0
  2  4  1  0  0  0
 21 22  1  0  0  0
 30 33  1  0  0  0
 15 20  1  0  0  0
M  END
> <minimizedAffinity>
-9.50489

> <minimizedRMSD>
0.79225

$$$$
P23050


 36 39  0  0  0  0  0  0  0  0999 V2000
   -7.1636    5.0168  -15.3643 C   0  0  0  0  0  0  0  0  0  0  0  0
   -8.3849    4.7162  -15.9735 C   0  0  0  0  0  0  0  0  0  0  0  0
   -8.4439    4.5496  -17.3668 C   0  0  0  0  0  0  0  0  0  0  0  0
   -9.9294    4.2149  -18.1378 Cl  0  0  0  0  0  0  0  0  0  0  0  0
   -7.3246    4.7162  -18.1695 C   0  0  0  0  0  0  0  0  0  0  0  0
   -6.1360    4.9919  -17.5371 C   0  0  0  0  0  0  0  0  0  0  0  0
   -6.0318    5.0999  -16.1567 C   0  0  0  0  0  0  0  0  0  0  0  0
   -4.5982    5.3201  -15.7805 C   0  0  0  0  0  0  0  0  0  0  0  0
   -3.8777    5.2227  -17.1305 C   0  0  0  0  0  0  0  0  0  0  0  0
   -2.6656    5.1800  -17.2797 O   0  0  0  0  0  0  0  0  0  0  0  0
   -4.8859    5.1920  -18.1123 N   0  0  0  0  0  0  0  0  0  0  0  0
   -7.6936    4.4688  -12.9597 N   0  0  0  0  0  0  0  0  0  0  0  0
   -7.0897    5.4755  -13.9620 C   0  0  0  0  0  0  0  0  0  0  0  0
   -6.6150    6.5275  -13.7852 O   0  0  0  0  0  0  0  0  0  0  0  0
   -7.9635    3.6075  -13.3527 H   0  0  0  0  0  0  0  0  0  0  0  0
  -10.0114    1.6028   -6.6215 C   0  0  0  0  0  0  0  0  0  0  0  0
   -9.7523    2.8049   -7.4063 N   0  0  0  0  0  0  0  0  0  0  0  0
   -8.8895    3.6929   -6.6251 C   0  0  0  0  0  0  0  0  0  0  0  0
   -8.6610    5.0091   -7.3571 C   0  0  0  0  0  0  0  0  0  0  0  0
   -8.3849    4.8583   -8.8299 C   0  0  0  0  0  0  0  0  0  0  0  0
   -7.9500    5.9402   -9.5941 C   0  0  0  0  0  0  0  0  0  0  0  0
   -7.7607    7.1870   -9.0653 O   0  0  0  0  0  0  0  0  0  0  0  0
   -7.6953    5.8000  -10.9521 C   0  0  0  0  0  0  0  0  0  0  0  0
   -7.9187    4.5808  -11.5900 C   0  0  0  0  0  0  0  0  0  0  0  0
   -8.3807    3.4920  -10.8534 C   0  0  0  0  0  0  0  0  0  0  0  0
   -8.6186    3.6240   -9.4702 C   0  0  0  0  0  0  0  0  0  0  0  0
   -9.0815    2.4257   -8.6683 C   0  0  0  0  0  0  0  0  0  0  0  0
   -7.9178    7.3382   -8.1540 H   0  0  0  0  0  0  0  0  0  0  0  0
   -4.7523    5.3831  -19.4798 N   0  0  0  0  0  0  0  0  0  0  0  0
   -5.6503    5.1668  -19.9124 H   0  0  0  0  0  0  0  0  0  0  0  0
   -4.3575    6.7329  -19.9179 C   0  0  0  0  0  0  0  0  0  0  0  0
   -5.1453    7.0745  -21.1989 C   0  0  0  0  0  0  0  0  0  0  0  0
   -2.8670    6.8015  -20.3199 C   0  0  0  0  0  0  0  0  0  0  0  0
   -4.6364    7.8525  -18.8744 C   0  0  0  0  0  0  0  0  0  0  0  0
   -5.9869    8.2953  -18.9176 O   0  0  0  0  0  0  0  0  0  0  0  0
   -6.1781    8.6647  -19.7939 H   0  0  0  0  0  0  0  0  0  0  0  0
 16 17  1  0  0  0
 17 18  1  0  0  0
 18 19  1  0  0  0
 19 20  1  0  0  0
 20 21  2  0  0  0
 21 22  1  0  0  0
 21 23  1  0  0  0
 23 24  2  0  0  0
 24 12  1  0  0  0
 12 13  1  0  0  0
 13 14  2  0  0  0
 13  1  1  0  0  0
  1  2  2  0  0  0
  2  3  1  0  0  0
  3  4  1  0  0  0
  3  5  2  0  0  0
  5  6  1  0  0  0
  6  7  2  0  0  0
  7  8  1  0  0  0
  8  9  1  0  0  0
  9 10  2  0  0  0
  9 11  1  0  0  0
 11 29  1  0  0  0
 29 31  1  0  0  0
 31 32  1  0  0  0
 31 33  1  0  0  0
 31 34  1  0  0  0
 34 35  1  0  0  0
 24 25  1  0  0  0
 25 26  2  0  0  0
 26 27  1  0  0  0
 27 17  1  0  0  0
 26 20  1  0  0  0
  7  1  1  0  0  0
 11  6  1  0  0  0
 22 28  1  0  0  0
 12 15  1  0  0  0
 29 30  1  0  0  0
 35 36  1  0  0  0
M  END
> <minimizedAffinity>
-8.57931

> <minimizedRMSD>
0.37215

$$$$
P23057


 26 29  0  0  0  0  0  0  0  0999 V2000
   -8.7916    4.8173  -14.3140 C   0  0  0  0  0  0  0  0  0  0  0  0
   -9.5556    5.6944  -14.2056 O   0  0  0  0  0  0  0  0  0  0  0  0
   -8.0880    3.9621  -13.2353 N   0  0  0  0  0  0  0  0  0  0  0  0
   -7.5396    3.2242  -13.5873 H   0  0  0  0  0  0  0  0  0  0  0  0
   -3.8945    6.1295  -16.3050 O   0  0  0  0  0  0  0  0  0  0  0  0
   -5.0251    5.7419  -16.5053 C   0  0  0  0  0  0  0  0  0  0  0  0
   -6.1058    5.6277  -15.4786 C   0  0  0  0  0  0  0  0  0  0  0  0
   -7.1935    4.8985  -16.2160 C   0  0  0  0  0  0  0  0  0  0  0  0
   -8.4018    4.4409  -15.6997 C   0  0  0  0  0  0  0  0  0  0  0  0
   -9.2752    3.7663  -16.5583 C   0  0  0  0  0  0  0  0  0  0  0  0
   -8.9453    3.5748  -17.9153 C   0  0  0  0  0  0  0  0  0  0  0  0
   -7.7391    4.0478  -18.4360 C   0  0  0  0  0  0  0  0  0  0  0  0
   -6.8834    4.6956  -17.5684 C   0  0  0  0  0  0  0  0  0  0  0  0
   -5.5565    5.2590  -17.8444 C   0  0  0  0  0  0  0  0  0  0  0  0
   -4.9582    5.3456  -18.8904 O   0  0  0  0  0  0  0  0  0  0  0  0
   -8.1038    4.0660  -11.8436 C   0  0  0  0  0  0  0  0  0  0  0  0
   -7.6672    5.2317  -11.2192 C   0  0  0  0  0  0  0  0  0  0  0  0
   -7.7227    5.3508   -9.8299 C   0  0  0  0  0  0  0  0  0  0  0  0
   -8.2180    4.3042   -9.0454 C   0  0  0  0  0  0  0  0  0  0  0  0
   -8.6495    3.1230   -9.6645 C   0  0  0  0  0  0  0  0  0  0  0  0
   -8.5767    3.0069  -11.0651 C   0  0  0  0  0  0  0  0  0  0  0  0
   -9.1724    1.9936   -8.8131 C   0  0  0  0  0  0  0  0  0  0  0  0
   -9.8767    2.4673   -7.6189 N   0  0  0  0  0  0  0  0  0  0  0  0
   -8.9887    3.2921   -6.8073 C   0  0  0  0  0  0  0  0  0  0  0  0
   -8.3577    4.4812   -7.5528 C   0  0  0  0  0  0  0  0  0  0  0  0
  -10.1876    1.6656   -7.0703 H   0  0  0  0  0  0  0  0  0  0  0  0
  5  6  2  0  0  0
  6  7  1  0  0  0
  7  8  1  0  0  0
  8  9  2  0  0  0
  9  1  1  0  0  0
  1  2  2  0  0  0
  1  3  1  0  0  0
  3 16  1  0  0  0
 16 17  2  0  0  0
 17 18  1  0  0  0
 18 19  2  0  0  0
 19 20  1  0  0  0
 20 21  2  0  0  0
 20 22  1  0  0  0
 22 23  1  0  0  0
 23 24  1  0  0  0
 24 25  1  0  0  0
  9 10  1  0  0  0
 10 11  2  0  0  0
 11 12  1  0  0  0
 12 13  2  0  0  0
 13 14  1  0  0  0
 14 15  2  0  0  0
 14  6  1  0  0  0
 13  8  1  0  0  0
 21 16  1  0  0  0
 25 19  1  0  0  0
  3  4  1  0  0  0
 23 26  1  0  0  0
M  END
> <minimizedAffinity>
-10.46462

> <minimizedRMSD>
0.73999

$$$$
P23076


 29 33  0  0  0  0  0  0  0  0999 V2000
   -7.2501    6.2366  -13.8214 O   0  0  0  0  0  0  0  0  0  0  0  0
   -7.6235    5.1417  -13.9904 C   0  0  0  0  0  0  0  0  0  0  0  0
   -8.0399    4.0539  -12.9687 N   0  0  0  0  0  0  0  0  0  0  0  0
   -8.2469    3.1758  -13.3628 H   0  0  0  0  0  0  0  0  0  0  0  0
   -7.7149    4.6712  -15.4016 C   0  0  0  0  0  0  0  0  0  0  0  0
   -8.8551    4.0329  -15.9012 C   0  0  0  0  0  0  0  0  0  0  0  0
   -8.9675    3.7447  -17.2756 C   0  0  0  0  0  0  0  0  0  0  0  0
  -10.0839    3.1593  -17.7204 F   0  0  0  0  0  0  0  0  0  0  0  0
   -7.9843    4.0819  -18.1986 C   0  0  0  0  0  0  0  0  0  0  0  0
   -6.8674    4.7068  -17.7015 C   0  0  0  0  0  0  0  0  0  0  0  0
   -6.7118    4.9937  -16.3079 C   0  0  0  0  0  0  0  0  0  0  0  0
   -5.3575    5.6620  -16.0532 C   0  0  0  0  0  0  0  0  0  0  0  0
   -4.8663    5.6867  -17.4391 C   0  0  0  0  0  0  0  0  0  0  0  0
   -3.7595    6.1128  -18.0641 N   0  0  0  0  0  0  0  0  0  0  0  0
   -3.8436    5.9354  -19.4105 N   0  0  0  0  0  0  0  0  0  0  0  0
   -5.0550    5.3634  -19.5968 C   0  0  0  0  0  0  0  0  0  0  0  0
   -5.7073    5.1759  -18.3860 C   0  0  0  0  0  0  0  0  0  0  0  0
   -2.9818    6.5055  -17.6055 H   0  0  0  0  0  0  0  0  0  0  0  0
   -8.1694    4.1166  -11.5800 C   0  0  0  0  0  0  0  0  0  0  0  0
   -7.8290    5.2750  -10.8827 C   0  0  0  0  0  0  0  0  0  0  0  0
   -7.9420    5.3262   -9.4913 C   0  0  0  0  0  0  0  0  0  0  0  0
   -8.3962    4.2141   -8.7766 C   0  0  0  0  0  0  0  0  0  0  0  0
   -8.7370    3.0400   -9.4687 C   0  0  0  0  0  0  0  0  0  0  0  0
   -8.6353    3.0057  -10.8737 C   0  0  0  0  0  0  0  0  0  0  0  0
   -9.2904    1.8485   -8.7219 C   0  0  0  0  0  0  0  0  0  0  0  0
   -8.9574    1.8232   -7.2973 N   0  0  0  0  0  0  0  0  0  0  0  0
   -9.2620    3.0976   -6.6635 C   0  0  0  0  0  0  0  0  0  0  0  0
   -8.4595    4.2548   -7.2697 C   0  0  0  0  0  0  0  0  0  0  0  0
   -7.9617    1.6285   -7.1917 H   0  0  0  0  0  0  0  0  0  0  0  0
  1  2  2  0  0  0
  2  3  1  0  0  0
  3 19  1  0  0  0
 19 20  2  0  0  0
 20 21  1  0  0  0
 21 22  2  0  0  0
 22 23  1  0  0  0
 23 24  2  0  0  0
 23 25  1  0  0  0
 25 26  1  0  0  0
 26 27  1  0  0  0
 27 28  1  0  0  0
  2  5  1  0  0  0
  5  6  2  0  0  0
  6  7  1  0  0  0
  7  8  1  0  0  0
  7  9  2  0  0  0
  9 10  1  0  0  0
 10 11  2  0  0  0
 11 12  1  0  0  0
 12 13  1  0  0  0
 13 14  1  0  0  0
 14 15  1  0  0  0
 15 16  2  0  0  0
 16 17  1  0  0  0
 24 19  1  0  0  0
 11  5  1  0  0  0
 17 13  2  0  0  0
 28 22  1  0  0  0
 17 10  1  0  0  0
  3  4  1  0  0  0
 26 29  1  0  0  0
 14 18  1  0  0  0
M  END
> <minimizedAffinity>
-10.73797

> <minimizedRMSD>
0.24363

$$$$
P23085


 35 37  0  0  0  0  0  0  0  0999 V2000
   -7.0711    4.6792  -13.7573 C   0  0  0  0  0  0  0  0  0  0  0  0
  -10.0357    3.6487  -17.7669 C   0  0  0  0  0  0  0  0  0  0  0  0
   -8.7431    4.1004  -17.1894 C   0  0  0  0  0  0  0  0  0  0  0  0
   -8.5551    4.1698  -15.8069 C   0  0  0  0  0  0  0  0  0  0  0  0
   -7.3585    4.6532  -15.2666 C   0  0  0  0  0  0  0  0  0  0  0  0
   -6.3649    5.0742  -16.1709 C   0  0  0  0  0  0  0  0  0  0  0  0
   -6.5418    5.0081  -17.5645 C   0  0  0  0  0  0  0  0  0  0  0  0
   -7.7274    4.4834  -18.0624 C   0  0  0  0  0  0  0  0  0  0  0  0
   -5.5341    5.5781  -18.5189 C   0  0  0  0  0  0  0  0  0  0  0  0
   -5.3434    4.8600  -19.6609 F   0  0  0  0  0  0  0  0  0  0  0  0
   -5.8721    6.8396  -18.9278 F   0  0  0  0  0  0  0  0  0  0  0  0
   -4.2375    5.6839  -17.8762 O   0  0  0  0  0  0  0  0  0  0  0  0
   -3.1695    4.9886  -18.6274 N   0  0  0  0  0  0  0  0  0  0  0  0
   -2.2830    5.0939  -18.1341 H   0  0  0  0  0  0  0  0  0  0  0  0
   -3.0900    5.3947  -19.5598 H   0  0  0  0  0  0  0  0  0  0  0  0
   -5.7567    5.5067  -13.4440 C   0  0  0  0  0  0  0  0  0  0  0  0
   -5.7067    6.6761  -13.4956 O   0  0  0  0  0  0  0  0  0  0  0  0
   -4.6370    4.4589  -13.1467 N   0  0  0  0  0  0  0  0  0  0  0  0
   -4.9169    3.5193  -13.2369 H   0  0  0  0  0  0  0  0  0  0  0  0
   -3.2564    4.6451  -12.7605 C   0  0  0  0  0  0  0  0  0  0  0  0
   -2.3769    5.2440  -13.8532 C   0  0  0  0  0  0  0  0  0  0  0  0
   -2.8599    4.8965  -15.0760 F   0  0  0  0  0  0  0  0  0  0  0  0
   -1.1304    4.7069  -13.7714 F   0  0  0  0  0  0  0  0  0  0  0  0
   -8.2530    5.1616  -12.9973 N   0  0  0  0  0  0  0  0  0  0  0  0
   -8.9945    5.6323  -13.4420 H   0  0  0  0  0  0  0  0  0  0  0  0
   -8.2633    4.9140  -11.6107 C   0  0  0  0  0  0  0  0  0  0  0  0
   -8.0709    5.9633  -10.6908 C   0  0  0  0  0  0  0  0  0  0  0  0
   -8.0970    5.7408   -9.3120 C   0  0  0  0  0  0  0  0  0  0  0  0
   -8.3607    4.4610   -8.8654 C   0  0  0  0  0  0  0  0  0  0  0  0
   -8.5715    3.4206   -9.7584 C   0  0  0  0  0  0  0  0  0  0  0  0
   -8.5008    3.6207  -11.1277 C   0  0  0  0  0  0  0  0  0  0  0  0
   -8.9320    2.1829   -9.0110 C   0  0  0  0  0  0  0  0  0  0  0  0
   -8.8477    2.5280   -7.5661 N   0  0  0  0  0  0  0  0  0  0  0  0
   -8.5464    3.9714   -7.4729 C   0  0  0  0  0  0  0  0  0  0  0  0
   -8.1056    1.9877   -7.1215 H   0  0  0  0  0  0  0  0  0  0  0  0
  2  3  1  0  0  0
  3  4  2  0  0  0
  4  5  1  0  0  0
  5  1  1  0  0  0
  1 24  1  0  0  0
 24 26  1  0  0  0
 26 27  2  0  0  0
 27 28  1  0  0  0
 28 29  2  0  0  0
 29 30  1  0  0  0
 30 31  2  0  0  0
 30 32  1  0  0  0
 32 33  1  0  0  0
 33 34  1  0  0  0
  1 16  1  0  0  0
 16 17  2  0  0  0
 16 18  1  0  0  0
 18 20  1  0  0  0
 20 21  1  0  0  0
 21 22  1  0  0  0
 21 23  1  0  0  0
  5  6  2  0  0  0
  6  7  1  0  0  0
  7  9  1  0  0  0
  9 10  1  0  0  0
  9 11  1  0  0  0
  9 12  1  0  0  0
 12 13  1  0  0  0
  7  8  2  0  0  0
  8  3  1  0  0  0
 31 26  1  0  0  0
 34 29  1  0  0  0
 24 25  1  0  0  0
 33 35  1  0  0  0
 18 19  1  0  0  0
 13 14  1  0  0  0
 13 15  1  0  0  0
M  END
> <minimizedAffinity>
-7.83403

> <minimizedRMSD>
1.23955

$$$$
P23086


 33 35  0  0  0  0  0  0  0  0999 V2000
   -6.8622    4.8927  -13.5994 C   0  0  0  0  0  0  0  0  0  0  0  0
   -8.5077    4.3326  -17.0137 C   0  0  0  0  0  0  0  0  0  0  0  0
   -8.2753    4.3644  -15.6350 C   0  0  0  0  0  0  0  0  0  0  0  0
   -7.0308    4.7620  -15.1195 C   0  0  0  0  0  0  0  0  0  0  0  0
   -6.0329    5.1219  -16.0410 C   0  0  0  0  0  0  0  0  0  0  0  0
   -6.2529    5.0535  -17.4321 C   0  0  0  0  0  0  0  0  0  0  0  0
   -7.4978    4.6495  -17.9120 C   0  0  0  0  0  0  0  0  0  0  0  0
   -5.1814    5.4361  -18.4132 C   0  0  0  0  0  0  0  0  0  0  0  0
   -5.1051    6.7765  -18.6289 F   0  0  0  0  0  0  0  0  0  0  0  0
   -3.9387    5.0717  -17.9840 F   0  0  0  0  0  0  0  0  0  0  0  0
   -5.3492    4.8687  -19.6309 F   0  0  0  0  0  0  0  0  0  0  0  0
  -10.9107    4.0444  -17.8933 N   0  0  0  0  0  0  0  0  0  0  0  0
   -9.8278    4.1442  -17.5011 C   0  0  0  0  0  0  0  0  0  0  0  0
   -5.4149    4.5106  -13.0941 C   0  0  0  0  0  0  0  0  0  0  0  0
   -5.1488    3.4364  -12.7158 O   0  0  0  0  0  0  0  0  0  0  0  0
   -4.5314    5.7898  -13.2023 N   0  0  0  0  0  0  0  0  0  0  0  0
   -5.0129    6.6010  -13.4839 H   0  0  0  0  0  0  0  0  0  0  0  0
   -3.1184    5.9785  -12.9561 C   0  0  0  0  0  0  0  0  0  0  0  0
   -2.2281    5.1292  -13.8587 C   0  0  0  0  0  0  0  0  0  0  0  0
   -2.0935    3.8919  -13.3123 F   0  0  0  0  0  0  0  0  0  0  0  0
   -2.8459    4.9507  -15.0566 F   0  0  0  0  0  0  0  0  0  0  0  0
   -7.8681    4.0520  -12.9371 N   0  0  0  0  0  0  0  0  0  0  0  0
   -8.4108    3.4381  -13.4828 H   0  0  0  0  0  0  0  0  0  0  0  0
   -8.0793    4.0964  -11.5529 C   0  0  0  0  0  0  0  0  0  0  0  0
   -7.9600    5.2618  -10.7698 C   0  0  0  0  0  0  0  0  0  0  0  0
   -8.1824    5.2500   -9.3851 C   0  0  0  0  0  0  0  0  0  0  0  0
   -8.5965    4.0724   -8.7990 C   0  0  0  0  0  0  0  0  0  0  0  0
   -8.7988    2.9327   -9.5634 C   0  0  0  0  0  0  0  0  0  0  0  0
   -8.5438    2.9283  -10.9257 C   0  0  0  0  0  0  0  0  0  0  0  0
   -9.2763    1.8270   -8.6799 C   0  0  0  0  0  0  0  0  0  0  0  0
   -9.6453    2.4863   -7.3962 N   0  0  0  0  0  0  0  0  0  0  0  0
   -8.8883    3.7558   -7.3718 C   0  0  0  0  0  0  0  0  0  0  0  0
   -9.3817    1.8989   -6.6051 H   0  0  0  0  0  0  0  0  0  0  0  0
 12 13  3  0  0  0
 13  2  1  0  0  0
  2  3  2  0  0  0
  3  4  1  0  0  0
  4  1  1  0  0  0
  1 22  1  0  0  0
 22 24  1  0  0  0
 24 25  2  0  0  0
 25 26  1  0  0  0
 26 27  2  0  0  0
 27 28  1  0  0  0
 28 29  2  0  0  0
 28 30  1  0  0  0
 30 31  1  0  0  0
 31 32  1  0  0  0
  1 14  1  0  0  0
 14 15  2  0  0  0
 14 16  1  0  0  0
 16 18  1  0  0  0
 18 19  1  0  0  0
 19 20  1  0  0  0
 19 21  1  0  0  0
  4  5  2  0  0  0
  5  6  1  0  0  0
  6  8  1  0  0  0
  8  9  1  0  0  0
  8 10  1  0  0  0
  8 11  1  0  0  0
  6  7  2  0  0  0
  7  2  1  0  0  0
 29 24  1  0  0  0
 32 27  1  0  0  0
 22 23  1  0  0  0
 31 33  1  0  0  0
 16 17  1  0  0  0
M  END
> <minimizedAffinity>
-8.25577

> <minimizedRMSD>
1.62348

$$$$
P23092


 40 43  0  0  0  0  0  0  0  0999 V2000
   -7.1247    4.9397  -13.1414 C   0  0  0  0  0  0  0  0  0  0  0  0
   -9.5810    3.7633  -17.4218 C   0  0  0  0  0  0  0  0  0  0  0  0
   -8.3483    4.1910  -16.7081 C   0  0  0  0  0  0  0  0  0  0  0  0
   -7.2476    4.5691  -17.4743 C   0  0  0  0  0  0  0  0  0  0  0  0
   -6.1053    5.0836  -16.8660 C   0  0  0  0  0  0  0  0  0  0  0  0
   -6.0620    5.1495  -15.4638 C   0  0  0  0  0  0  0  0  0  0  0  0
   -7.1435    4.7434  -14.6617 C   0  0  0  0  0  0  0  0  0  0  0  0
   -8.2941    4.2698  -15.3132 C   0  0  0  0  0  0  0  0  0  0  0  0
   -4.9369    5.4787  -17.7279 C   0  0  0  0  0  0  0  0  0  0  0  0
   -5.2206    5.4808  -19.0569 F   0  0  0  0  0  0  0  0  0  0  0  0
   -4.3650    6.7787  -17.3908 N   0  0  0  0  0  0  0  0  0  0  0  0
   -4.7527    8.0059  -18.2280 S   0  0  0  0  0  0  0  0  0  0  0  0
   -4.2651    9.4649  -17.3483 C   0  0  0  0  0  0  0  0  0  0  0  0
   -6.0095    8.2764  -18.9022 O   0  0  0  0  0  0  0  0  0  0  0  0
   -3.5572    7.9159  -19.5417 C   0  0  0  0  0  0  0  0  0  0  0  0
   -2.2433    7.8246  -19.4030 N   0  0  0  0  0  0  0  0  0  0  0  0
   -1.7399    7.8216  -20.6793 C   0  0  0  0  0  0  0  0  0  0  0  0
   -2.7491    7.9218  -21.6060 C   0  0  0  0  0  0  0  0  0  0  0  0
   -3.8994    7.9915  -20.8711 N   0  0  0  0  0  0  0  0  0  0  0  0
   -4.8118    8.0801  -21.2302 H   0  0  0  0  0  0  0  0  0  0  0  0
   -5.6918    4.7125  -12.5043 C   0  0  0  0  0  0  0  0  0  0  0  0
   -4.9456    5.6023  -12.3561 O   0  0  0  0  0  0  0  0  0  0  0  0
   -5.5036    3.1901  -12.2598 N   0  0  0  0  0  0  0  0  0  0  0  0
   -6.2655    2.6310  -12.5356 H   0  0  0  0  0  0  0  0  0  0  0  0
   -4.3926    2.4615  -11.6937 C   0  0  0  0  0  0  0  0  0  0  0  0
   -4.5179    2.1567  -10.2022 C   0  0  0  0  0  0  0  0  0  0  0  0
   -5.0557    0.9318   -9.9978 F   0  0  0  0  0  0  0  0  0  0  0  0
   -5.3133    3.0573   -9.5763 F   0  0  0  0  0  0  0  0  0  0  0  0
   -8.1779    4.1215  -12.5085 N   0  0  0  0  0  0  0  0  0  0  0  0
   -8.7872    3.5994  -13.0789 H   0  0  0  0  0  0  0  0  0  0  0  0
   -8.3318    4.0690  -11.1243 C   0  0  0  0  0  0  0  0  0  0  0  0
   -8.1459    5.1898  -10.2890 C   0  0  0  0  0  0  0  0  0  0  0  0
   -8.2741    5.1030   -8.8991 C   0  0  0  0  0  0  0  0  0  0  0  0
   -8.6159    3.8851   -8.3508 C   0  0  0  0  0  0  0  0  0  0  0  0
   -8.8597    2.7851   -9.1580 C   0  0  0  0  0  0  0  0  0  0  0  0
   -8.7367    2.8624  -10.5365 C   0  0  0  0  0  0  0  0  0  0  0  0
   -9.2692    1.6303   -8.3116 C   0  0  0  0  0  0  0  0  0  0  0  0
   -9.0473    2.0524   -6.9006 N   0  0  0  0  0  0  0  0  0  0  0  0
   -8.8200    3.5144   -6.9252 C   0  0  0  0  0  0  0  0  0  0  0  0
   -8.2318    1.5762   -6.5152 H   0  0  0  0  0  0  0  0  0  0  0  0
  2  3  1  0  0  0
  3  4  2  0  0  0
  4  5  1  0  0  0
  5  9  1  0  0  0
  9 10  1  0  0  0
  9 11  1  0  0  0
 11 12  2  0  0  0
 12 13  1  0  0  0
 12 14  2  0  0  0
 12 15  1  0  0  0
 15 16  2  0  0  0
 16 17  1  0  0  0
 17 18  2  0  0  0
 18 19  1  0  0  0
  5  6  2  0  0  0
  6  7  1  0  0  0
  7  1  1  0  0  0
  1 29  1  0  0  0
 29 31  1  0  0  0
 31 32  2  0  0  0
 32 33  1  0  0  0
 33 34  2  0  0  0
 34 35  1  0  0  0
 35 36  2  0  0  0
 35 37  1  0  0  0
 37 38  1  0  0  0
 38 39  1  0  0  0
  1 21  1  0  0  0
 21 22  2  0  0  0
 21 23  1  0  0  0
 23 25  1  0  0  0
 25 26  1  0  0  0
 26 27  1  0  0  0
 26 28  1  0  0  0
  7  8  2  0  0  0
  8  3  1  0  0  0
 19 15  1  0  0  0
 36 31  1  0  0  0
 39 34  1  0  0  0
 19 20  1  0  0  0
 29 30  1  0  0  0
 38 40  1  0  0  0
 23 24  1  0  0  0
M  END
> <minimizedAffinity>
-8.70953

> <minimizedRMSD>
1.03049

$$$$
P23119


 32 34  0  0  0  0  0  0  0  0999 V2000
   -6.9599    4.6976  -13.6265 C   0  0  0  0  0  0  0  0  0  0  0  0
   -9.6272    4.3523  -17.9690 C   0  0  0  0  0  0  0  0  0  0  0  0
   -8.3326    4.5172  -17.2427 C   0  0  0  0  0  0  0  0  0  0  0  0
   -8.2824    4.5001  -15.8438 C   0  0  0  0  0  0  0  0  0  0  0  0
   -7.0758    4.6944  -15.1576 C   0  0  0  0  0  0  0  0  0  0  0  0
   -5.9145    4.9059  -15.9245 C   0  0  0  0  0  0  0  0  0  0  0  0
   -5.9524    4.9450  -17.3266 C   0  0  0  0  0  0  0  0  0  0  0  0
   -7.1657    4.7238  -17.9742 C   0  0  0  0  0  0  0  0  0  0  0  0
   -4.7240    5.2832  -18.1300 C   0  0  0  0  0  0  0  0  0  0  0  0
   -4.5451    6.7848  -18.2084 C   0  0  0  0  0  0  0  0  0  0  0  0
   -4.7581    4.8114  -19.4106 F   0  0  0  0  0  0  0  0  0  0  0  0
   -3.5672    4.7953  -17.5897 F   0  0  0  0  0  0  0  0  0  0  0  0
   -6.2105    6.0162  -13.1552 C   0  0  0  0  0  0  0  0  0  0  0  0
   -6.5832    7.0927  -13.4276 O   0  0  0  0  0  0  0  0  0  0  0  0
   -4.9195    5.5520  -12.4081 N   0  0  0  0  0  0  0  0  0  0  0  0
   -4.7940    4.5764  -12.3688 H   0  0  0  0  0  0  0  0  0  0  0  0
   -3.8780    6.3239  -11.7643 C   0  0  0  0  0  0  0  0  0  0  0  0
   -4.1744    6.7256  -10.3234 C   0  0  0  0  0  0  0  0  0  0  0  0
   -3.0147    6.7104   -9.6118 F   0  0  0  0  0  0  0  0  0  0  0  0
   -4.9805    5.7992   -9.7443 F   0  0  0  0  0  0  0  0  0  0  0  0
   -8.2834    4.5144  -12.9837 N   0  0  0  0  0  0  0  0  0  0  0  0
   -9.1111    4.4720  -13.5151 H   0  0  0  0  0  0  0  0  0  0  0  0
   -8.3049    4.4039  -11.5810 C   0  0  0  0  0  0  0  0  0  0  0  0
   -8.2062    5.5522  -10.7714 C   0  0  0  0  0  0  0  0  0  0  0  0
   -8.2654    5.4708   -9.3770 C   0  0  0  0  0  0  0  0  0  0  0  0
   -8.4692    4.2299   -8.8072 C   0  0  0  0  0  0  0  0  0  0  0  0
   -8.5673    3.0869   -9.5923 C   0  0  0  0  0  0  0  0  0  0  0  0
   -8.4578    3.1505  -10.9717 C   0  0  0  0  0  0  0  0  0  0  0  0
   -8.8381    1.9101   -8.7125 C   0  0  0  0  0  0  0  0  0  0  0  0
   -9.2383    2.4909   -7.4020 N   0  0  0  0  0  0  0  0  0  0  0  0
   -8.6650    3.8574   -7.3769 C   0  0  0  0  0  0  0  0  0  0  0  0
   -8.8613    1.9330   -6.6358 H   0  0  0  0  0  0  0  0  0  0  0  0
  2  3  1  0  0  0
  3  4  2  0  0  0
  4  5  1  0  0  0
  5  1  1  0  0  0
  1 21  1  0  0  0
 21 23  1  0  0  0
 23 24  2  0  0  0
 24 25  1  0  0  0
 25 26  2  0  0  0
 26 27  1  0  0  0
 27 28  2  0  0  0
 27 29  1  0  0  0
 29 30  1  0  0  0
 30 31  1  0  0  0
  1 13  1  0  0  0
 13 14  2  0  0  0
 13 15  1  0  0  0
 15 17  1  0  0  0
 17 18  1  0  0  0
 18 19  1  0  0  0
 18 20  1  0  0  0
  5  6  2  0  0  0
  6  7  1  0  0  0
  7  9  1  0  0  0
  9 10  1  0  0  0
  9 11  1  0  0  0
  9 12  1  0  0  0
  7  8  2  0  0  0
  8  3  1  0  0  0
 28 23  1  0  0  0
 31 26  1  0  0  0
 21 22  1  0  0  0
 30 32  1  0  0  0
 15 16  1  0  0  0
M  END
> <minimizedAffinity>
-7.45773

> <minimizedRMSD>
0.56637

$$$$
P23139


 35 38  0  0  0  0  0  0  0  0999 V2000
   -7.1867    4.5940  -14.0473 C   0  0  0  0  0  0  0  0  0  0  0  0
  -10.1301    4.4590  -18.0426 C   0  0  0  0  0  0  0  0  0  0  0  0
   -8.7019    4.0623  -17.6519 C   0  0  0  0  0  0  0  0  0  0  0  0
   -8.5376    4.0462  -16.1323 C   0  0  0  0  0  0  0  0  0  0  0  0
   -7.4481    4.9579  -15.5564 C   0  0  0  0  0  0  0  0  0  0  0  0
   -6.1707    4.8581  -16.4111 C   0  0  0  0  0  0  0  0  0  0  0  0
   -6.3501    5.2795  -17.8891 C   0  0  0  0  0  0  0  0  0  0  0  0
   -6.0243    6.7620  -18.1394 C   0  0  0  0  0  0  0  0  0  0  0  0
   -4.5691    6.8323  -18.1018 N   0  0  0  0  0  0  0  0  0  0  0  0
   -4.1347    5.5595  -18.6182 C   0  0  0  0  0  0  0  0  0  0  0  0
   -3.6969    5.7892  -19.8790 F   0  0  0  0  0  0  0  0  0  0  0  0
   -5.2810    4.6930  -18.7204 N   0  0  0  0  0  0  0  0  0  0  0  0
   -7.7256    4.9187  -18.4584 C   0  0  0  0  0  0  0  0  0  0  0  0
   -4.2389    6.9655  -17.1459 H   0  0  0  0  0  0  0  0  0  0  0  0
   -5.0454    3.7609  -18.3795 H   0  0  0  0  0  0  0  0  0  0  0  0
   -5.8205    5.1128  -13.5697 C   0  0  0  0  0  0  0  0  0  0  0  0
   -4.9416    4.3869  -13.3178 O   0  0  0  0  0  0  0  0  0  0  0  0
   -5.8867    6.6627  -13.5308 N   0  0  0  0  0  0  0  0  0  0  0  0
   -6.7757    7.0422  -13.7175 H   0  0  0  0  0  0  0  0  0  0  0  0
   -4.8538    7.6409  -13.2648 C   0  0  0  0  0  0  0  0  0  0  0  0
   -4.9337    8.8766  -14.1486 C   0  0  0  0  0  0  0  0  0  0  0  0
   -5.8956    9.7098  -13.6663 F   0  0  0  0  0  0  0  0  0  0  0  0
   -5.3246    8.5226  -15.3984 F   0  0  0  0  0  0  0  0  0  0  0  0
   -8.2805    5.1113  -13.1188 C   0  0  0  0  0  0  0  0  0  0  0  0
   -9.1145    5.9388  -13.4919 O   0  0  0  0  0  0  0  0  0  0  0  0
   -8.2282    4.7749  -11.6755 C   0  0  0  0  0  0  0  0  0  0  0  0
   -8.1494    5.8626  -10.7816 C   0  0  0  0  0  0  0  0  0  0  0  0
   -8.2183    5.6593   -9.4040 C   0  0  0  0  0  0  0  0  0  0  0  0
   -8.4091    4.3678   -8.9509 C   0  0  0  0  0  0  0  0  0  0  0  0
   -8.4819    3.2869   -9.8320 C   0  0  0  0  0  0  0  0  0  0  0  0
   -8.3753    3.4650  -11.2069 C   0  0  0  0  0  0  0  0  0  0  0  0
   -8.7302    2.0428   -9.0354 C   0  0  0  0  0  0  0  0  0  0  0  0
   -9.1650    2.5165   -7.6940 N   0  0  0  0  0  0  0  0  0  0  0  0
   -8.6170    3.8827   -7.5542 C   0  0  0  0  0  0  0  0  0  0  0  0
   -8.7934    1.9080   -6.9645 H   0  0  0  0  0  0  0  0  0  0  0  0
  3  2  1  0  0  0
  3  4  1  0  0  0
  5  4  1  0  0  0
  5  1  1  0  0  0
  1 16  1  0  0  0
 16 17  2  0  0  0
 16 18  1  0  0  0
 18 20  1  0  0  0
 20 21  1  0  0  0
 21 22  1  0  0  0
 21 23  1  0  0  0
  1 24  1  0  0  0
 24 25  2  0  0  0
 24 26  1  0  0  0
 26 27  2  0  0  0
 27 28  1  0  0  0
 28 29  2  0  0  0
 29 30  1  0  0  0
 30 31  2  0  0  0
 30 32  1  0  0  0
 32 33  1  0  0  0
 33 34  1  0  0  0
  5  6  1  0  0  0
  7  6  1  0  0  0
  7  8  1  0  0  0
  8  9  1  0  0  0
  9 10  1  0  0  0
 10 11  1  0  0  0
 10 12  1  0  0  0
  7 13  1  0  0  0
 13  3  1  0  0  0
 31 26  1  0  0  0
 12  7  1  0  0  0
 34 29  1  0  0  0
 18 19  1  0  0  0
 33 35  1  0  0  0
  9 14  1  0  0  0
 12 15  1  0  0  0
M  END
> <minimizedAffinity>
-7.56594

> <minimizedRMSD>
0.82712

$$$$
P23159


 35 37  0  0  0  0  0  0  0  0999 V2000
   -7.2677    5.6172  -13.5699 C   0  0  0  0  0  0  0  0  0  0  0  0
   -5.8476    5.1889  -15.8024 C   0  0  0  0  0  0  0  0  0  0  0  0
   -7.0635    5.1466  -15.0385 C   0  0  0  0  0  0  0  0  0  0  0  0
   -8.2331    4.6959  -15.6733 C   0  0  0  0  0  0  0  0  0  0  0  0
   -8.2501    4.4128  -17.0335 C   0  0  0  0  0  0  0  0  0  0  0  0
   -9.5005    4.0211  -17.7304 C   0  0  0  0  0  0  0  0  0  0  0  0
   -7.0943    4.5575  -17.7922 C   0  0  0  0  0  0  0  0  0  0  0  0
   -5.9019    4.9965  -17.2139 C   0  0  0  0  0  0  0  0  0  0  0  0
   -4.7702    5.3170  -18.1681 C   0  0  0  0  0  0  0  0  0  0  0  0
   -5.0541    5.1197  -19.4834 F   0  0  0  0  0  0  0  0  0  0  0  0
   -4.4047    6.6351  -18.1091 F   0  0  0  0  0  0  0  0  0  0  0  0
   -3.6355    4.6033  -17.9349 F   0  0  0  0  0  0  0  0  0  0  0  0
   -3.7312    4.3542  -14.4584 C   0  0  0  0  0  0  0  0  0  0  0  0
   -4.5404    5.4738  -15.0929 C   0  0  0  0  0  0  0  0  0  0  0  0
   -6.4878    6.9356  -13.2060 C   0  0  0  0  0  0  0  0  0  0  0  0
   -6.7670    7.9732  -13.6683 O   0  0  0  0  0  0  0  0  0  0  0  0
   -5.3768    6.5531  -12.1889 N   0  0  0  0  0  0  0  0  0  0  0  0
   -5.3937    5.6141  -11.8936 H   0  0  0  0  0  0  0  0  0  0  0  0
   -4.3205    7.3537  -11.6049 C   0  0  0  0  0  0  0  0  0  0  0  0
   -4.6391    7.9607  -10.2376 C   0  0  0  0  0  0  0  0  0  0  0  0
   -3.6123    8.7447   -9.8261 F   0  0  0  0  0  0  0  0  0  0  0  0
   -4.8149    7.0077   -9.2964 F   0  0  0  0  0  0  0  0  0  0  0  0
   -5.7470    8.7313  -10.2641 F   0  0  0  0  0  0  0  0  0  0  0  0
   -7.0429    4.4909  -12.6254 N   0  0  0  0  0  0  0  0  0  0  0  0
   -6.4230    3.7685  -12.8767 H   0  0  0  0  0  0  0  0  0  0  0  0
   -7.6990    4.4344  -11.3757 C   0  0  0  0  0  0  0  0  0  0  0  0
   -7.7963    5.5430  -10.5051 C   0  0  0  0  0  0  0  0  0  0  0  0
   -8.1796    5.4086   -9.1640 C   0  0  0  0  0  0  0  0  0  0  0  0
   -8.5338    4.1581   -8.7076 C   0  0  0  0  0  0  0  0  0  0  0  0
   -8.5263    3.0638   -9.5609 C   0  0  0  0  0  0  0  0  0  0  0  0
   -8.0774    3.1763  -10.8717 C   0  0  0  0  0  0  0  0  0  0  0  0
   -9.0126    1.8630   -8.8134 C   0  0  0  0  0  0  0  0  0  0  0  0
   -9.5717    2.3916   -7.5362 N   0  0  0  0  0  0  0  0  0  0  0  0
   -8.9321    3.7116   -7.3423 C   0  0  0  0  0  0  0  0  0  0  0  0
   -9.3439    1.7677   -6.7620 H   0  0  0  0  0  0  0  0  0  0  0  0
 13 14  1  0  0  0
 14  2  1  0  0  0
  2  3  2  0  0  0
  3  1  1  0  0  0
  1 24  1  0  0  0
 24 26  1  0  0  0
 26 27  2  0  0  0
 27 28  1  0  0  0
 28 29  2  0  0  0
 29 30  1  0  0  0
 30 31  2  0  0  0
 30 32  1  0  0  0
 32 33  1  0  0  0
 33 34  1  0  0  0
  1 15  1  0  0  0
 15 16  2  0  0  0
 15 17  1  0  0  0
 17 19  1  0  0  0
 19 20  1  0  0  0
 20 21  1  0  0  0
 20 22  1  0  0  0
 20 23  1  0  0  0
  3  4  1  0  0  0
  4  5  2  0  0  0
  5  6  1  0  0  0
  5  7  1  0  0  0
  7  8  2  0  0  0
  8  9  1  0  0  0
  9 10  1  0  0  0
  9 11  1  0  0  0
  9 12  1  0  0  0
  8  2  1  0  0  0
 31 26  1  0  0  0
 34 29  1  0  0  0
 24 25  1  0  0  0
 33 35  1  0  0  0
 17 18  1  0  0  0
M  END
> <minimizedAffinity>
-6.92397

> <minimizedRMSD>
0.59055

$$$$
P23186


 33 35  0  0  0  0  0  0  0  0999 V2000
   -7.0576    4.4658  -13.6022 C   0  0  0  0  0  0  0  0  0  0  0  0
   -9.7760    4.3654  -17.9491 C   0  0  0  0  0  0  0  0  0  0  0  0
   -8.4891    4.5240  -17.2085 C   0  0  0  0  0  0  0  0  0  0  0  0
   -7.3274    4.7652  -17.9388 C   0  0  0  0  0  0  0  0  0  0  0  0
   -6.1166    4.9529  -17.2887 C   0  0  0  0  0  0  0  0  0  0  0  0
   -6.0902    4.8391  -15.8929 C   0  0  0  0  0  0  0  0  0  0  0  0
   -7.2339    4.6089  -15.1185 C   0  0  0  0  0  0  0  0  0  0  0  0
   -8.4372    4.4426  -15.8078 C   0  0  0  0  0  0  0  0  0  0  0  0
   -4.8903    5.2126  -18.1249 C   0  0  0  0  0  0  0  0  0  0  0  0
   -3.9056    6.1913  -17.4990 C   0  0  0  0  0  0  0  0  0  0  0  0
   -2.7135    5.5045  -17.1143 O   0  0  0  0  0  0  0  0  0  0  0  0
   -1.5994    5.9251  -17.8852 C   0  0  0  0  0  0  0  0  0  0  0  0
   -2.0512    6.7744  -18.8332 F   0  0  0  0  0  0  0  0  0  0  0  0
   -5.5895    4.8731  -13.1369 C   0  0  0  0  0  0  0  0  0  0  0  0
   -5.2041    5.9796  -13.1155 O   0  0  0  0  0  0  0  0  0  0  0  0
   -4.8555    3.5378  -12.7804 N   0  0  0  0  0  0  0  0  0  0  0  0
   -5.3772    2.7212  -12.9542 H   0  0  0  0  0  0  0  0  0  0  0  0
   -3.5355    3.3091  -12.2373 C   0  0  0  0  0  0  0  0  0  0  0  0
   -2.5719    2.6077  -13.1856 C   0  0  0  0  0  0  0  0  0  0  0  0
   -2.7747    1.2628  -13.1320 F   0  0  0  0  0  0  0  0  0  0  0  0
   -1.2953    2.8125  -12.7657 F   0  0  0  0  0  0  0  0  0  0  0  0
   -8.1164    5.1877  -12.8572 N   0  0  0  0  0  0  0  0  0  0  0  0
   -8.7378    5.8082  -13.3023 H   0  0  0  0  0  0  0  0  0  0  0  0
   -8.1794    4.9311  -11.4708 C   0  0  0  0  0  0  0  0  0  0  0  0
   -8.0783    5.9946  -10.5486 C   0  0  0  0  0  0  0  0  0  0  0  0
   -8.1622    5.7784   -9.1702 C   0  0  0  0  0  0  0  0  0  0  0  0
   -8.3993    4.4907   -8.7327 C   0  0  0  0  0  0  0  0  0  0  0  0
   -8.4875    3.4305   -9.6301 C   0  0  0  0  0  0  0  0  0  0  0  0
   -8.3437    3.6247  -10.9937 C   0  0  0  0  0  0  0  0  0  0  0  0
   -8.7903    2.1778   -8.8754 C   0  0  0  0  0  0  0  0  0  0  0  0
   -9.2558    2.6416   -7.5386 N   0  0  0  0  0  0  0  0  0  0  0  0
   -8.6527    3.9811   -7.3544 C   0  0  0  0  0  0  0  0  0  0  0  0
   -8.9377    2.0037   -6.8091 H   0  0  0  0  0  0  0  0  0  0  0  0
  2  3  1  0  0  0
  3  4  2  0  0  0
  4  5  1  0  0  0
  5  9  1  0  0  0
  9 10  1  0  0  0
 10 11  1  0  0  0
 11 12  1  0  0  0
 12 13  1  0  0  0
  5  6  2  0  0  0
  6  7  1  0  0  0
  7  1  1  0  0  0
  1 22  1  0  0  0
 22 24  1  0  0  0
 24 25  2  0  0  0
 25 26  1  0  0  0
 26 27  2  0  0  0
 27 28  1  0  0  0
 28 29  2  0  0  0
 28 30  1  0  0  0
 30 31  1  0  0  0
 31 32  1  0  0  0
  1 14  1  0  0  0
 14 15  2  0  0  0
 14 16  1  0  0  0
 16 18  1  0  0  0
 18 19  1  0  0  0
 19 20  1  0  0  0
 19 21  1  0  0  0
  7  8  2  0  0  0
  8  3  1  0  0  0
 29 24  1  0  0  0
 32 27  1  0  0  0
 22 23  1  0  0  0
 31 33  1  0  0  0
 16 17  1  0  0  0
M  END
> <minimizedAffinity>
-7.15869

> <minimizedRMSD>
1.89680

$$$$
P23193


 33 35  0  0  0  0  0  0  0  0999 V2000
   -6.9199    4.9648  -13.3037 C   0  0  0  0  0  0  0  0  0  0  0  0
   -4.3823    5.3693  -17.7042 C   0  0  0  0  0  0  0  0  0  0  0  0
   -5.6428    5.0685  -16.9588 C   0  0  0  0  0  0  0  0  0  0  0  0
   -5.6949    5.1255  -15.5609 C   0  0  0  0  0  0  0  0  0  0  0  0
   -6.8720    4.8358  -14.8349 C   0  0  0  0  0  0  0  0  0  0  0  0
   -8.0197    4.5121  -15.5761 C   0  0  0  0  0  0  0  0  0  0  0  0
   -7.9772    4.4601  -16.9802 C   0  0  0  0  0  0  0  0  0  0  0  0
   -6.7928    4.7546  -17.6597 C   0  0  0  0  0  0  0  0  0  0  0  0
   -9.1423    4.0098  -17.8053 C   0  0  0  0  0  0  0  0  0  0  0  0
   -8.8010    3.7989  -19.0977 F   0  0  0  0  0  0  0  0  0  0  0  0
  -10.1833    4.8743  -17.8226 F   0  0  0  0  0  0  0  0  0  0  0  0
   -9.6391    2.8280  -17.3396 F   0  0  0  0  0  0  0  0  0  0  0  0
   -5.4611    5.0880  -12.6874 C   0  0  0  0  0  0  0  0  0  0  0  0
   -5.0289    6.0951  -12.2778 O   0  0  0  0  0  0  0  0  0  0  0  0
   -4.7896    3.6948  -12.8477 N   0  0  0  0  0  0  0  0  0  0  0  0
   -5.3474    3.0170  -13.2934 H   0  0  0  0  0  0  0  0  0  0  0  0
   -3.4775    3.2326  -12.4479 C   0  0  0  0  0  0  0  0  0  0  0  0
   -3.3794    1.7718  -12.0198 C   0  0  0  0  0  0  0  0  0  0  0  0
   -2.4991    1.6306  -11.0002 F   0  0  0  0  0  0  0  0  0  0  0  0
   -2.9379    0.9838  -13.0308 F   0  0  0  0  0  0  0  0  0  0  0  0
   -4.5590    1.2684  -11.6045 F   0  0  0  0  0  0  0  0  0  0  0  0
   -7.6256    3.8219  -12.6678 N   0  0  0  0  0  0  0  0  0  0  0  0
   -7.8107    3.0036  -13.1828 H   0  0  0  0  0  0  0  0  0  0  0  0
   -8.0285    3.9207  -11.3171 C   0  0  0  0  0  0  0  0  0  0  0  0
   -7.9360    5.0993  -10.5430 C   0  0  0  0  0  0  0  0  0  0  0  0
   -8.2415    5.1168   -9.1746 C   0  0  0  0  0  0  0  0  0  0  0  0
   -8.6445    3.9405   -8.5794 C   0  0  0  0  0  0  0  0  0  0  0  0
   -8.7489    2.7724   -9.3206 C   0  0  0  0  0  0  0  0  0  0  0  0
   -8.4478    2.7453  -10.6756 C   0  0  0  0  0  0  0  0  0  0  0  0
   -9.1601    1.6565   -8.4198 C   0  0  0  0  0  0  0  0  0  0  0  0
   -9.5712    2.3012   -7.1480 N   0  0  0  0  0  0  0  0  0  0  0  0
   -9.0054    3.6629   -7.1598 C   0  0  0  0  0  0  0  0  0  0  0  0
   -9.2061    1.7758   -6.3537 H   0  0  0  0  0  0  0  0  0  0  0  0
  2  3  1  0  0  0
  3  4  2  0  0  0
  4  5  1  0  0  0
  5  1  1  0  0  0
  1 22  1  0  0  0
 22 24  1  0  0  0
 24 25  2  0  0  0
 25 26  1  0  0  0
 26 27  2  0  0  0
 27 28  1  0  0  0
 28 29  2  0  0  0
 28 30  1  0  0  0
 30 31  1  0  0  0
 31 32  1  0  0  0
  1 13  1  0  0  0
 13 14  2  0  0  0
 13 15  1  0  0  0
 15 17  1  0  0  0
 17 18  1  0  0  0
 18 19  1  0  0  0
 18 20  1  0  0  0
 18 21  1  0  0  0
  5  6  2  0  0  0
  6  7  1  0  0  0
  7  9  1  0  0  0
  9 10  1  0  0  0
  9 11  1  0  0  0
  9 12  1  0  0  0
  7  8  2  0  0  0
  8  3  1  0  0  0
 29 24  1  0  0  0
 32 27  1  0  0  0
 22 23  1  0  0  0
 31 33  1  0  0  0
 15 16  1  0  0  0
M  END
> <minimizedAffinity>
-8.98959

> <minimizedRMSD>
0.54670

$$$$
P23243


 26 29  0  0  0  0  0  0  0  0999 V2000
   -7.1534    4.9610  -14.0670 C   0  0  0  0  0  0  0  0  0  0  0  0
   -6.3710    5.7839  -13.7972 O   0  0  0  0  0  0  0  0  0  0  0  0
   -8.0362    4.0804  -13.1540 N   0  0  0  0  0  0  0  0  0  0  0  0
   -8.5666    3.3988  -13.6266 H   0  0  0  0  0  0  0  0  0  0  0  0
   -4.6316    5.1696  -17.6408 N   0  0  0  0  0  0  0  0  0  0  0  0
   -5.1101    5.1409  -16.3691 C   0  0  0  0  0  0  0  0  0  0  0  0
   -6.4381    4.8380  -16.5071 C   0  0  0  0  0  0  0  0  0  0  0  0
   -7.3824    4.6613  -15.4941 C   0  0  0  0  0  0  0  0  0  0  0  0
   -8.6407    4.2965  -16.0112 C   0  0  0  0  0  0  0  0  0  0  0  0
   -8.9088    4.1685  -17.4042 C   0  0  0  0  0  0  0  0  0  0  0  0
  -10.1632    3.8562  -17.7680 F   0  0  0  0  0  0  0  0  0  0  0  0
   -7.9556    4.3720  -18.4157 C   0  0  0  0  0  0  0  0  0  0  0  0
   -6.6833    4.7117  -17.9291 C   0  0  0  0  0  0  0  0  0  0  0  0
   -5.5495    4.9831  -18.5966 N   0  0  0  0  0  0  0  0  0  0  0  0
   -2.7696    4.6546  -18.9136 C   0  0  0  0  0  0  0  0  0  0  0  0
   -3.3339    5.5581  -17.9738 O   0  0  0  0  0  0  0  0  0  0  0  0
   -8.2037    4.0942  -11.7697 C   0  0  0  0  0  0  0  0  0  0  0  0
   -8.0800    5.2667  -11.0133 C   0  0  0  0  0  0  0  0  0  0  0  0
   -8.2155    5.3338   -9.6614 N   0  0  0  0  0  0  0  0  0  0  0  0
   -8.4676    4.1547   -9.0667 C   0  0  0  0  0  0  0  0  0  0  0  0
   -8.6040    2.9488   -9.7231 C   0  0  0  0  0  0  0  0  0  0  0  0
   -8.4864    2.9039  -11.1006 C   0  0  0  0  0  0  0  0  0  0  0  0
   -8.8572    1.8609   -8.7428 C   0  0  0  0  0  0  0  0  0  0  0  0
   -8.7930    2.4744   -7.3854 N   0  0  0  0  0  0  0  0  0  0  0  0
   -8.6501    3.9392   -7.5936 C   0  0  0  0  0  0  0  0  0  0  0  0
   -7.9902    2.1111   -6.8717 H   0  0  0  0  0  0  0  0  0  0  0  0
 15 16  1  0  0  0
 16  5  1  0  0  0
  5  6  1  0  0  0
  6  7  2  0  0  0
  7  8  1  0  0  0
  8  1  1  0  0  0
  1  2  2  0  0  0
  1  3  1  0  0  0
  3 17  1  0  0  0
 17 18  2  0  0  0
 18 19  1  0  0  0
 19 20  2  0  0  0
 20 21  1  0  0  0
 21 22  2  0  0  0
 21 23  1  0  0  0
 23 24  1  0  0  0
 24 25  1  0  0  0
  8  9  2  0  0  0
  9 10  1  0  0  0
 10 11  1  0  0  0
 10 12  2  0  0  0
 12 13  1  0  0  0
 13 14  2  0  0  0
 14  5  1  0  0  0
 13  7  1  0  0  0
 22 17  1  0  0  0
 25 20  1  0  0  0
  3  4  1  0  0  0
 24 26  1  0  0  0
M  END
> <minimizedAffinity>
-8.39942

> <minimizedRMSD>
0.36483

$$$$
P23247


 27 30  0  0  0  0  0  0  0  0999 V2000
   -6.8371    4.6191  -13.8950 C   0  0  0  0  0  0  0  0  0  0  0  0
   -5.7513    4.2737  -13.6569 O   0  0  0  0  0  0  0  0  0  0  0  0
   -8.0184    4.9160  -12.9537 N   0  0  0  0  0  0  0  0  0  0  0  0
   -8.8212    5.2712  -13.3993 H   0  0  0  0  0  0  0  0  0  0  0  0
   -3.2812    5.2401  -18.0295 N   0  0  0  0  0  0  0  0  0  0  0  0
   -4.6109    5.1867  -17.6221 N   0  0  0  0  0  0  0  0  0  0  0  0
   -5.0230    5.2103  -16.3284 C   0  0  0  0  0  0  0  0  0  0  0  0
   -6.3602    4.9184  -16.3843 C   0  0  0  0  0  0  0  0  0  0  0  0
   -7.2368    4.7143  -15.3173 C   0  0  0  0  0  0  0  0  0  0  0  0
   -8.5192    4.3176  -15.7704 C   0  0  0  0  0  0  0  0  0  0  0  0
   -8.8492    4.1514  -17.1479 C   0  0  0  0  0  0  0  0  0  0  0  0
  -10.0840    3.7187  -17.4526 F   0  0  0  0  0  0  0  0  0  0  0  0
   -7.9583    4.3829  -18.2065 C   0  0  0  0  0  0  0  0  0  0  0  0
   -6.6798    4.7729  -17.7866 C   0  0  0  0  0  0  0  0  0  0  0  0
   -5.5865    5.0462  -18.5138 N   0  0  0  0  0  0  0  0  0  0  0  0
   -2.6796    5.3494  -17.2131 H   0  0  0  0  0  0  0  0  0  0  0  0
   -3.1495    6.0330  -18.6574 H   0  0  0  0  0  0  0  0  0  0  0  0
   -8.1358    4.7646  -11.5806 C   0  0  0  0  0  0  0  0  0  0  0  0
   -8.1257    5.8548  -10.7119 C   0  0  0  0  0  0  0  0  0  0  0  0
   -8.2216    5.7534   -9.3610 N   0  0  0  0  0  0  0  0  0  0  0  0
   -8.4265    4.5007   -8.9050 C   0  0  0  0  0  0  0  0  0  0  0  0
   -8.5309    3.3756   -9.6959 C   0  0  0  0  0  0  0  0  0  0  0  0
   -8.3251    3.4854  -11.0563 C   0  0  0  0  0  0  0  0  0  0  0  0
   -8.9130    2.1987   -8.8713 C   0  0  0  0  0  0  0  0  0  0  0  0
   -8.9416    2.6599   -7.4527 N   0  0  0  0  0  0  0  0  0  0  0  0
   -8.6119    4.1072   -7.4681 C   0  0  0  0  0  0  0  0  0  0  0  0
   -8.2517    2.1480   -6.9026 H   0  0  0  0  0  0  0  0  0  0  0  0
  5  6  1  0  0  0
  6  7  1  0  0  0
  7  8  2  0  0  0
  8  9  1  0  0  0
  9  1  1  0  0  0
  1  2  2  0  0  0
  1  3  1  0  0  0
  3 18  1  0  0  0
 18 19  2  0  0  0
 19 20  1  0  0  0
 20 21  2  0  0  0
 21 22  1  0  0  0
 22 23  2  0  0  0
 22 24  1  0  0  0
 24 25  1  0  0  0
 25 26  1  0  0  0
  9 10  2  0  0  0
 10 11  1  0  0  0
 11 12  1  0  0  0
 11 13  2  0  0  0
 13 14  1  0  0  0
 14 15  2  0  0  0
 15  6  1  0  0  0
 14  8  1  0  0  0
 23 18  1  0  0  0
 26 21  1  0  0  0
  5 16  1  0  0  0
  5 17  1  0  0  0
  3  4  1  0  0  0
 25 27  1  0  0  0
M  END
> <minimizedAffinity>
-8.56188

> <minimizedRMSD>
0.43667

$$$$
P23252


 29 32  0  0  0  0  0  0  0  0999 V2000
   -8.2238    4.4653  -13.0869 N   0  0  0  0  0  0  0  0  0  0  0  0
   -7.0730    4.8941  -14.0235 C   0  0  0  0  0  0  0  0  0  0  0  0
   -6.0503    5.3986  -13.7817 O   0  0  0  0  0  0  0  0  0  0  0  0
   -9.0251    4.1257  -13.5473 H   0  0  0  0  0  0  0  0  0  0  0  0
   -7.3765    4.6216  -15.4464 C   0  0  0  0  0  0  0  0  0  0  0  0
   -8.6407    4.2401  -15.9403 C   0  0  0  0  0  0  0  0  0  0  0  0
   -8.9324    4.1076  -17.3290 C   0  0  0  0  0  0  0  0  0  0  0  0
  -10.1890    3.7753  -17.6663 F   0  0  0  0  0  0  0  0  0  0  0  0
   -8.0001    4.3200  -18.3589 C   0  0  0  0  0  0  0  0  0  0  0  0
   -6.7298    4.6999  -17.8984 C   0  0  0  0  0  0  0  0  0  0  0  0
   -5.6094    4.9941  -18.5838 N   0  0  0  0  0  0  0  0  0  0  0  0
   -4.6915    5.2758  -17.6467 N   0  0  0  0  0  0  0  0  0  0  0  0
   -5.1500    5.2016  -16.3696 C   0  0  0  0  0  0  0  0  0  0  0  0
   -6.4647    4.8366  -16.4843 C   0  0  0  0  0  0  0  0  0  0  0  0
   -3.7624    5.5164  -17.8661 H   0  0  0  0  0  0  0  0  0  0  0  0
   -8.1901    5.5822  -10.8213 C   0  0  0  0  0  0  0  0  0  0  0  0
   -8.2337    5.5048   -9.4510 N   0  0  0  0  0  0  0  0  0  0  0  0
   -8.4144    4.2726   -8.9528 C   0  0  0  0  0  0  0  0  0  0  0  0
   -8.5794    3.1368   -9.7097 C   0  0  0  0  0  0  0  0  0  0  0  0
   -8.5341    3.2286  -11.0896 C   0  0  0  0  0  0  0  0  0  0  0  0
   -8.3132    4.4809  -11.6879 C   0  0  0  0  0  0  0  0  0  0  0  0
   -8.7867    1.9591   -8.8237 C   0  0  0  0  0  0  0  0  0  0  0  0
   -8.8005    2.4695   -7.4256 N   0  0  0  0  0  0  0  0  0  0  0  0
   -8.5198    3.9233   -7.4978 C   0  0  0  0  0  0  0  0  0  0  0  0
   -8.0827    2.0003   -6.8733 H   0  0  0  0  0  0  0  0  0  0  0  0
   -9.1859    8.1213  -10.0810 C   0  0  0  0  0  0  0  0  0  0  0  0
   -8.2565    7.2918  -11.3424 S   0  0  0  0  0  0  0  0  0  0  0  0
   -6.9166    7.8521  -11.2688 O   0  0  0  0  0  0  0  0  0  0  0  0
   -9.0759    7.3871  -12.5431 O   0  0  0  0  0  0  0  0  0  0  0  0
 26 27  1  0  0  0
 27 28  2  0  0  0
 27 29  2  0  0  0
 27 16  1  0  0  0
 16 17  2  0  0  0
 17 18  1  0  0  0
 18 19  2  0  0  0
 19 20  1  0  0  0
 20 21  2  0  0  0
 21  1  1  0  0  0
  1  2  1  0  0  0
  2  3  2  0  0  0
  2  5  1  0  0  0
  5  6  2  0  0  0
  6  7  1  0  0  0
  7  8  1  0  0  0
  7  9  2  0  0  0
  9 10  1  0  0  0
 10 11  2  0  0  0
 11 12  1  0  0  0
 12 13  1  0  0  0
 13 14  2  0  0  0
 19 22  1  0  0  0
 22 23  1  0  0  0
 23 24  1  0  0  0
 21 16  1  0  0  0
 14  5  1  0  0  0
 24 18  1  0  0  0
 14 10  1  0  0  0
  1  4  1  0  0  0
 12 15  1  0  0  0
 23 25  1  0  0  0
M  END
> <minimizedAffinity>
-8.24384

> <minimizedRMSD>
0.39641

$$$$
P23253


 26 29  0  0  0  0  0  0  0  0999 V2000
   -8.0253    4.1126  -13.1426 N   0  0  0  0  0  0  0  0  0  0  0  0
   -7.1019    4.9391  -14.0683 C   0  0  0  0  0  0  0  0  0  0  0  0
   -6.2701    5.7170  -13.8089 O   0  0  0  0  0  0  0  0  0  0  0  0
   -8.5986    3.4611  -13.6075 H   0  0  0  0  0  0  0  0  0  0  0  0
   -8.1194    6.6697   -8.9045 C   0  0  0  0  0  0  0  0  0  0  0  0
   -8.2391    5.3741   -9.6423 C   0  0  0  0  0  0  0  0  0  0  0  0
   -8.0749    5.3412  -11.0385 C   0  0  0  0  0  0  0  0  0  0  0  0
   -8.1780    4.1401  -11.7571 C   0  0  0  0  0  0  0  0  0  0  0  0
   -8.4405    2.9434  -11.0859 C   0  0  0  0  0  0  0  0  0  0  0  0
   -8.5831    2.9759   -9.7078 C   0  0  0  0  0  0  0  0  0  0  0  0
   -8.4726    4.1677   -8.9938 C   0  0  0  0  0  0  0  0  0  0  0  0
   -8.6305    3.8618   -7.5386 C   0  0  0  0  0  0  0  0  0  0  0  0
   -9.2179    2.5033   -7.4741 N   0  0  0  0  0  0  0  0  0  0  0  0
   -8.8471    1.8508   -8.7587 C   0  0  0  0  0  0  0  0  0  0  0  0
  -10.2323    2.5572   -7.3810 H   0  0  0  0  0  0  0  0  0  0  0  0
   -7.3789    4.6511  -15.4840 C   0  0  0  0  0  0  0  0  0  0  0  0
   -8.6423    4.2372  -15.9461 C   0  0  0  0  0  0  0  0  0  0  0  0
   -8.9532    4.0886  -17.3258 C   0  0  0  0  0  0  0  0  0  0  0  0
  -10.2035    3.7163  -17.6389 F   0  0  0  0  0  0  0  0  0  0  0  0
   -8.0420    4.3099  -18.3722 C   0  0  0  0  0  0  0  0  0  0  0  0
   -6.7627    4.6856  -17.9350 C   0  0  0  0  0  0  0  0  0  0  0  0
   -5.6458    4.9363  -18.6392 N   0  0  0  0  0  0  0  0  0  0  0  0
   -4.6915    5.1386  -17.7134 N   0  0  0  0  0  0  0  0  0  0  0  0
   -3.3218    5.2547  -18.1470 C   0  0  0  0  0  0  0  0  0  0  0  0
   -5.1478    5.1664  -16.4299 C   0  0  0  0  0  0  0  0  0  0  0  0
   -6.4762    4.8483  -16.5282 C   0  0  0  0  0  0  0  0  0  0  0  0
  5  6  1  0  0  0
  6  7  2  0  0  0
  7  8  1  0  0  0
  8  1  1  0  0  0
  1  2  1  0  0  0
  2  3  2  0  0  0
  2 16  1  0  0  0
 16 17  2  0  0  0
 17 18  1  0  0  0
 18 19  1  0  0  0
 18 20  2  0  0  0
 20 21  1  0  0  0
 21 22  2  0  0  0
 22 23  1  0  0  0
 23 24  1  0  0  0
 23 25  1  0  0  0
 25 26  2  0  0  0
  8  9  2  0  0  0
  9 10  1  0  0  0
 10 11  2  0  0  0
 11 12  1  0  0  0
 12 13  1  0  0  0
 13 14  1  0  0  0
 11  6  1  0  0  0
 26 16  1  0  0  0
 14 10  1  0  0  0
 26 21  1  0  0  0
  1  4  1  0  0  0
 13 15  1  0  0  0
M  END
> <minimizedAffinity>
-8.84491

> <minimizedRMSD>
0.40570

$$$$
P23254


 26 29  0  0  0  0  0  0  0  0999 V2000
   -7.1279    4.7239  -13.9199 C   0  0  0  0  0  0  0  0  0  0  0  0
   -7.3646    4.6830  -15.4431 C   0  0  0  0  0  0  0  0  0  0  0  0
   -8.6429    4.3872  -15.9874 C   0  0  0  0  0  0  0  0  0  0  0  0
   -8.8801    4.2674  -17.3550 C   0  0  0  0  0  0  0  0  0  0  0  0
  -10.1116    3.9787  -17.7960 F   0  0  0  0  0  0  0  0  0  0  0  0
   -7.8689    4.4359  -18.2785 C   0  0  0  0  0  0  0  0  0  0  0  0
   -6.6142    4.7562  -17.7695 C   0  0  0  0  0  0  0  0  0  0  0  0
   -5.4350    4.9855  -18.4252 N   0  0  0  0  0  0  0  0  0  0  0  0
   -4.4008    5.2587  -17.6061 N   0  0  0  0  0  0  0  0  0  0  0  0
   -4.9485    5.1820  -16.3878 C   0  0  0  0  0  0  0  0  0  0  0  0
   -6.3356    4.8787  -16.4094 C   0  0  0  0  0  0  0  0  0  0  0  0
   -5.3503    4.9537  -19.4056 H   0  0  0  0  0  0  0  0  0  0  0  0
   -7.1340    7.0224  -13.8284 O   0  0  0  0  0  0  0  0  0  0  0  0
   -6.4934    6.0193  -13.4925 N   0  0  0  0  0  0  0  0  0  0  0  0
   -8.3493    4.3619  -13.1635 N   0  0  0  0  0  0  0  0  0  0  0  0
   -9.1890    4.1664  -13.6388 H   0  0  0  0  0  0  0  0  0  0  0  0
   -8.2967    4.3003  -11.7559 C   0  0  0  0  0  0  0  0  0  0  0  0
   -8.1963    5.4402  -10.9348 C   0  0  0  0  0  0  0  0  0  0  0  0
   -8.2371    5.4468   -9.5739 N   0  0  0  0  0  0  0  0  0  0  0  0
   -8.4140    4.2364   -9.0202 C   0  0  0  0  0  0  0  0  0  0  0  0
   -8.5188    3.0520   -9.7226 C   0  0  0  0  0  0  0  0  0  0  0  0
   -8.4395    3.0685  -11.1030 C   0  0  0  0  0  0  0  0  0  0  0  0
   -8.7478    1.9254   -8.7741 C   0  0  0  0  0  0  0  0  0  0  0  0
   -9.1604    2.5634   -7.4914 N   0  0  0  0  0  0  0  0  0  0  0  0
   -8.6145    3.9473   -7.5581 C   0  0  0  0  0  0  0  0  0  0  0  0
   -8.7657    2.0599   -6.6970 H   0  0  0  0  0  0  0  0  0  0  0  0
 13 14  2  0  0  0
 14  1  1  0  0  0
  1 15  1  0  0  0
 15 17  1  0  0  0
 17 18  2  0  0  0
 18 19  1  0  0  0
 19 20  2  0  0  0
 20 21  1  0  0  0
 21 22  2  0  0  0
 21 23  1  0  0  0
 23 24  1  0  0  0
 24 25  1  0  0  0
  1  2  1  0  0  0
  2  3  2  0  0  0
  3  4  1  0  0  0
  4  5  1  0  0  0
  4  6  2  0  0  0
  6  7  1  0  0  0
  7  8  1  0  0  0
  8  9  1  0  0  0
  9 10  2  0  0  0
 10 11  1  0  0  0
 22 17  1  0  0  0
 11  2  1  0  0  0
 25 20  1  0  0  0
 11  7  2  0  0  0
 15 16  1  0  0  0
 24 26  1  0  0  0
  8 12  1  0  0  0
M  END
> <minimizedAffinity>
-7.58772

> <minimizedRMSD>
0.17402

$$$$
P23255


 28 31  0  0  0  0  0  0  0  0999 V2000
   -7.1794    5.0758  -14.1503 C   0  0  0  0  0  0  0  0  0  0  0  0
   -6.5016    6.0073  -13.9797 O   0  0  0  0  0  0  0  0  0  0  0  0
   -7.8367    4.1227  -13.1385 N   0  0  0  0  0  0  0  0  0  0  0  0
   -8.4329    3.4474  -13.5356 H   0  0  0  0  0  0  0  0  0  0  0  0
   -7.7212    4.0565  -11.6911 C   0  0  0  0  0  0  0  0  0  0  0  0
   -8.3564    2.7739  -11.1227 C   0  0  0  0  0  0  0  0  0  0  0  0
   -8.8897    3.0102   -9.7173 C   0  0  0  0  0  0  0  0  0  0  0  0
   -8.9278    1.8313   -8.7698 C   0  0  0  0  0  0  0  0  0  0  0  0
   -9.0766    2.4430   -7.4285 N   0  0  0  0  0  0  0  0  0  0  0  0
   -8.6186    3.8459   -7.5355 C   0  0  0  0  0  0  0  0  0  0  0  0
   -8.0636    4.0256   -8.9528 C   0  0  0  0  0  0  0  0  0  0  0  0
   -8.1845    5.3727   -9.5305 N   0  0  0  0  0  0  0  0  0  0  0  0
   -7.0972    6.2352   -9.0754 C   0  0  0  0  0  0  0  0  0  0  0  0
   -8.2658    5.3402  -11.0088 C   0  0  0  0  0  0  0  0  0  0  0  0
   -8.5058    1.9397   -6.7494 H   0  0  0  0  0  0  0  0  0  0  0  0
   -4.8093    5.1243  -17.7992 N   0  0  0  0  0  0  0  0  0  0  0  0
   -5.2699    5.1936  -16.5200 C   0  0  0  0  0  0  0  0  0  0  0  0
   -6.5923    4.8497  -16.5993 C   0  0  0  0  0  0  0  0  0  0  0  0
   -7.4945    4.7043  -15.5444 C   0  0  0  0  0  0  0  0  0  0  0  0
   -8.7528    4.2534  -15.9931 C   0  0  0  0  0  0  0  0  0  0  0  0
   -9.0492    4.0095  -17.3682 C   0  0  0  0  0  0  0  0  0  0  0  0
  -10.2942    3.6144  -17.6819 F   0  0  0  0  0  0  0  0  0  0  0  0
   -8.1301    4.1734  -18.4180 C   0  0  0  0  0  0  0  0  0  0  0  0
   -6.8626    4.5979  -17.9925 C   0  0  0  0  0  0  0  0  0  0  0  0
   -5.7472    4.8271  -18.7021 N   0  0  0  0  0  0  0  0  0  0  0  0
   -3.2469    4.8367  -19.5253 C   0  0  0  0  0  0  0  0  0  0  0  0
   -3.4534    5.2562  -18.1470 N   0  0  0  0  0  0  0  0  0  0  0  0
   -3.1727    6.2316  -18.0457 H   0  0  0  0  0  0  0  0  0  0  0  0
 26 27  1  0  0  0
 27 16  1  0  0  0
 16 17  1  0  0  0
 17 18  2  0  0  0
 18 19  1  0  0  0
 19  1  1  0  0  0
  1  2  2  0  0  0
  1  3  1  0  0  0
  5  3  1  0  0  0
  5  6  1  0  0  0
  7  6  1  0  0  0
  7  8  1  0  0  0
  8  9  1  0  0  0
  9 10  1  0  0  0
 11 10  1  0  0  0
 11 12  1  0  0  0
 12 13  1  0  0  0
 12 14  1  0  0  0
 19 20  2  0  0  0
 20 21  1  0  0  0
 21 22  1  0  0  0
 21 23  2  0  0  0
 23 24  1  0  0  0
 24 25  2  0  0  0
 25 16  1  0  0  0
 24 18  1  0  0  0
 14  5  1  0  0  0
 11  7  1  0  0  0
 27 28  1  0  0  0
  3  4  1  0  0  0
  9 15  1  0  0  0
M  END
> <minimizedAffinity>
-8.33327

> <minimizedRMSD>
0.58337

$$$$
P23257


 25 28  0  0  0  0  0  0  0  0999 V2000
   -6.4061    5.7995  -13.7799 O   0  0  0  0  0  0  0  0  0  0  0  0
   -7.1721    4.9560  -14.0365 C   0  0  0  0  0  0  0  0  0  0  0  0
   -8.1035    4.1318  -13.1141 N   0  0  0  0  0  0  0  0  0  0  0  0
   -8.7187    3.5248  -13.5857 H   0  0  0  0  0  0  0  0  0  0  0  0
   -7.4085    4.6420  -15.4621 C   0  0  0  0  0  0  0  0  0  0  0  0
   -8.6714    4.2450  -15.9507 C   0  0  0  0  0  0  0  0  0  0  0  0
   -8.9639    4.0830  -17.3339 C   0  0  0  0  0  0  0  0  0  0  0  0
  -10.2095    3.7163  -17.6660 F   0  0  0  0  0  0  0  0  0  0  0  0
   -8.0446    4.2946  -18.3688 C   0  0  0  0  0  0  0  0  0  0  0  0
   -6.7738    4.6685  -17.9143 C   0  0  0  0  0  0  0  0  0  0  0  0
   -5.6681    4.9327  -18.6214 N   0  0  0  0  0  0  0  0  0  0  0  0
   -4.7268    5.1634  -17.7062 N   0  0  0  0  0  0  0  0  0  0  0  0
   -2.9798    5.4952  -18.2267 Br  0  0  0  0  0  0  0  0  0  0  0  0
   -5.1624    5.1626  -16.4155 C   0  0  0  0  0  0  0  0  0  0  0  0
   -6.4911    4.8307  -16.5015 C   0  0  0  0  0  0  0  0  0  0  0  0
   -8.2128    4.1093  -11.7224 C   0  0  0  0  0  0  0  0  0  0  0  0
   -8.0672    5.2622  -10.9406 C   0  0  0  0  0  0  0  0  0  0  0  0
   -8.1994    5.3015   -9.5865 N   0  0  0  0  0  0  0  0  0  0  0  0
   -8.4667    4.1136   -9.0159 C   0  0  0  0  0  0  0  0  0  0  0  0
   -8.6157    2.9228   -9.6974 C   0  0  0  0  0  0  0  0  0  0  0  0
   -8.5036    2.9071  -11.0763 C   0  0  0  0  0  0  0  0  0  0  0  0
   -8.9012    1.8217   -8.7400 C   0  0  0  0  0  0  0  0  0  0  0  0
   -8.7957    2.4009   -7.3703 N   0  0  0  0  0  0  0  0  0  0  0  0
   -8.6787    3.8718   -7.5501 C   0  0  0  0  0  0  0  0  0  0  0  0
   -7.9705    2.0360   -6.8947 H   0  0  0  0  0  0  0  0  0  0  0  0
  1  2  2  0  0  0
  2  3  1  0  0  0
  3 16  1  0  0  0
 16 17  2  0  0  0
 17 18  1  0  0  0
 18 19  2  0  0  0
 19 20  1  0  0  0
 20 21  2  0  0  0
 20 22  1  0  0  0
 22 23  1  0  0  0
 23 24  1  0  0  0
  2  5  1  0  0  0
  5  6  2  0  0  0
  6  7  1  0  0  0
  7  8  1  0  0  0
  7  9  2  0  0  0
  9 10  1  0  0  0
 10 11  2  0  0  0
 11 12  1  0  0  0
 12 13  1  0  0  0
 12 14  1  0  0  0
 14 15  2  0  0  0
 21 16  1  0  0  0
 15  5  1  0  0  0
 24 19  1  0  0  0
 15 10  1  0  0  0
  3  4  1  0  0  0
 23 25  1  0  0  0
M  END
> <minimizedAffinity>
-8.65809

> <minimizedRMSD>
0.34476

$$$$
P23259


 34 38  0  0  0  0  0  0  0  0999 V2000
   -7.3917    4.6160  -15.4957 C   0  0  0  0  0  0  0  0  0  0  0  0
   -8.6597    4.2108  -15.9594 C   0  0  0  0  0  0  0  0  0  0  0  0
   -8.9859    4.0797  -17.3399 C   0  0  0  0  0  0  0  0  0  0  0  0
  -10.2413    3.7262  -17.6564 F   0  0  0  0  0  0  0  0  0  0  0  0
   -8.0847    4.3089  -18.3894 C   0  0  0  0  0  0  0  0  0  0  0  0
   -6.8032    4.6794  -17.9572 C   0  0  0  0  0  0  0  0  0  0  0  0
   -5.6996    4.9338  -18.6756 N   0  0  0  0  0  0  0  0  0  0  0  0
   -4.7575    5.1977  -17.7671 N   0  0  0  0  0  0  0  0  0  0  0  0
   -5.1739    5.1733  -16.4738 C   0  0  0  0  0  0  0  0  0  0  0  0
   -6.4991    4.8310  -16.5485 C   0  0  0  0  0  0  0  0  0  0  0  0
   -6.2368    5.6150  -13.8086 O   0  0  0  0  0  0  0  0  0  0  0  0
   -7.1029    4.8783  -14.0719 C   0  0  0  0  0  0  0  0  0  0  0  0
   -8.0541    4.0796  -13.1507 N   0  0  0  0  0  0  0  0  0  0  0  0
   -8.6588    3.4605  -13.6200 H   0  0  0  0  0  0  0  0  0  0  0  0
   -8.1947    4.0935  -11.7626 C   0  0  0  0  0  0  0  0  0  0  0  0
   -8.0747    5.2658  -11.0041 C   0  0  0  0  0  0  0  0  0  0  0  0
   -8.2110    5.3302   -9.6510 N   0  0  0  0  0  0  0  0  0  0  0  0
   -8.4615    4.1487   -9.0586 C   0  0  0  0  0  0  0  0  0  0  0  0
   -8.5851    2.9396   -9.7182 C   0  0  0  0  0  0  0  0  0  0  0  0
   -8.4591    2.8976  -11.0938 C   0  0  0  0  0  0  0  0  0  0  0  0
   -8.8213    1.8512   -8.7284 C   0  0  0  0  0  0  0  0  0  0  0  0
   -9.2095    2.5347   -7.4639 N   0  0  0  0  0  0  0  0  0  0  0  0
   -8.6654    3.9156   -7.5864 C   0  0  0  0  0  0  0  0  0  0  0  0
   -8.8007    2.0588   -6.6596 H   0  0  0  0  0  0  0  0  0  0  0  0
   -3.4460    5.3995  -18.1790 O   0  0  0  0  0  0  0  0  0  0  0  0
   -3.4179    6.5494  -19.0170 C   0  0  0  0  0  0  0  0  0  0  0  0
   -2.1596    7.2213  -18.9444 O   0  0  0  0  0  0  0  0  0  0  0  0
   -1.2896    6.8311  -20.0082 C   0  0  0  0  0  0  0  0  0  0  0  0
    0.0363    6.3827  -19.4372 C   0  0  0  0  0  0  0  0  0  0  0  0
    1.2007    6.3728  -20.2192 C   0  0  0  0  0  0  0  0  0  0  0  0
    2.4097    5.9142  -19.6917 C   0  0  0  0  0  0  0  0  0  0  0  0
    2.4667    5.4486  -18.3794 C   0  0  0  0  0  0  0  0  0  0  0  0
    1.3154    5.4403  -17.5951 C   0  0  0  0  0  0  0  0  0  0  0  0
    0.1077    5.9015  -18.1223 C   0  0  0  0  0  0  0  0  0  0  0  0
 11 12  2  0  0  0
 12 13  1  0  0  0
 13 15  1  0  0  0
 15 16  2  0  0  0
 16 17  1  0  0  0
 17 18  2  0  0  0
 18 19  1  0  0  0
 19 20  2  0  0  0
 19 21  1  0  0  0
 21 22  1  0  0  0
 22 23  1  0  0  0
 12  1  1  0  0  0
  1  2  2  0  0  0
  2  3  1  0  0  0
  3  4  1  0  0  0
  3  5  2  0  0  0
  5  6  1  0  0  0
  6  7  2  0  0  0
  7  8  1  0  0  0
  8 25  1  0  0  0
 25 26  1  0  0  0
 26 27  1  0  0  0
 27 28  1  0  0  0
 28 29  1  0  0  0
 29 30  2  0  0  0
 30 31  1  0  0  0
 31 32  2  0  0  0
 32 33  1  0  0  0
 33 34  2  0  0  0
  8  9  1  0  0  0
  9 10  2  0  0  0
 20 15  1  0  0  0
 10  1  1  0  0  0
 23 18  1  0  0  0
 10  6  1  0  0  0
 34 29  1  0  0  0
 13 14  1  0  0  0
 22 24  1  0  0  0
M  END
> <minimizedAffinity>
-8.08383

> <minimizedRMSD>
1.03639

$$$$
P23260


 25 28  0  0  0  0  0  0  0  0999 V2000
   -6.1877    5.6099  -13.8788 O   0  0  0  0  0  0  0  0  0  0  0  0
   -7.0680    4.8911  -14.1469 C   0  0  0  0  0  0  0  0  0  0  0  0
   -8.0360    4.1052  -13.2300 N   0  0  0  0  0  0  0  0  0  0  0  0
   -8.6521    3.5004  -13.7031 H   0  0  0  0  0  0  0  0  0  0  0  0
   -7.3499    4.6403  -15.5855 C   0  0  0  0  0  0  0  0  0  0  0  0
   -8.6326    4.2776  -16.0177 C   0  0  0  0  0  0  0  0  0  0  0  0
   -8.9188    4.1766  -17.3758 C   0  0  0  0  0  0  0  0  0  0  0  0
  -10.1672    3.8772  -17.7581 F   0  0  0  0  0  0  0  0  0  0  0  0
   -7.9510    4.3926  -18.3513 C   0  0  0  0  0  0  0  0  0  0  0  0
   -6.6718    4.7256  -17.9006 C   0  0  0  0  0  0  0  0  0  0  0  0
   -5.5137    4.9787  -18.5868 N   0  0  0  0  0  0  0  0  0  0  0  0
   -4.4710    5.2997  -17.7930 N   0  0  0  0  0  0  0  0  0  0  0  0
   -4.9840    5.2261  -16.5601 C   0  0  0  0  0  0  0  0  0  0  0  0
   -6.3502    4.8648  -16.5527 C   0  0  0  0  0  0  0  0  0  0  0  0
   -5.4483    4.9310  -19.5679 H   0  0  0  0  0  0  0  0  0  0  0  0
   -8.1776    4.1146  -11.8406 C   0  0  0  0  0  0  0  0  0  0  0  0
   -8.0894    5.2897  -11.0820 C   0  0  0  0  0  0  0  0  0  0  0  0
   -8.2230    5.3519   -9.7279 N   0  0  0  0  0  0  0  0  0  0  0  0
   -8.4417    4.1659   -9.1341 C   0  0  0  0  0  0  0  0  0  0  0  0
   -8.5449    2.9546   -9.7927 C   0  0  0  0  0  0  0  0  0  0  0  0
   -8.4136    2.9135  -11.1689 C   0  0  0  0  0  0  0  0  0  0  0  0
   -8.7652    1.8689   -8.7961 C   0  0  0  0  0  0  0  0  0  0  0  0
   -9.1804    2.5546   -7.5378 N   0  0  0  0  0  0  0  0  0  0  0  0
   -8.6288    3.9311   -7.6597 C   0  0  0  0  0  0  0  0  0  0  0  0
   -8.7891    2.0809   -6.7237 H   0  0  0  0  0  0  0  0  0  0  0  0
  1  2  2  0  0  0
  2  3  1  0  0  0
  3 16  1  0  0  0
 16 17  2  0  0  0
 17 18  1  0  0  0
 18 19  2  0  0  0
 19 20  1  0  0  0
 20 21  2  0  0  0
 20 22  1  0  0  0
 22 23  1  0  0  0
 23 24  1  0  0  0
  2  5  1  0  0  0
  5  6  2  0  0  0
  6  7  1  0  0  0
  7  8  1  0  0  0
  7  9  2  0  0  0
  9 10  1  0  0  0
 10 11  1  0  0  0
 11 12  1  0  0  0
 12 13  2  0  0  0
 13 14  1  0  0  0
 21 16  1  0  0  0
 14  5  1  0  0  0
 24 19  1  0  0  0
 14 10  2  0  0  0
  3  4  1  0  0  0
 23 25  1  0  0  0
 11 15  1  0  0  0
M  END
> <minimizedAffinity>
-8.34052

> <minimizedRMSD>
0.50445

$$$$
P23264


 34 37  0  0  0  0  0  0  0  0999 V2000
   -7.8121    4.1586  -13.6978 C   0  0  0  0  0  0  0  0  0  0  0  0
   -9.2168    4.1610  -13.6932 O   0  0  0  0  0  0  0  0  0  0  0  0
   -9.5376    3.9270  -12.8082 H   0  0  0  0  0  0  0  0  0  0  0  0
   -7.4352    4.5414  -15.1442 C   0  0  0  0  0  0  0  0  0  0  0  0
   -8.4314    4.3874  -16.1553 C   0  0  0  0  0  0  0  0  0  0  0  0
   -8.1837    4.5676  -17.5078 C   0  0  0  0  0  0  0  0  0  0  0  0
   -9.1900    4.4208  -18.3803 F   0  0  0  0  0  0  0  0  0  0  0  0
   -6.9184    4.8848  -17.9649 C   0  0  0  0  0  0  0  0  0  0  0  0
   -5.9408    5.0893  -16.9905 C   0  0  0  0  0  0  0  0  0  0  0  0
   -4.6242    5.4375  -17.1244 N   0  0  0  0  0  0  0  0  0  0  0  0
   -3.9957    5.6480  -15.9594 N   0  0  0  0  0  0  0  0  0  0  0  0
   -4.9184    5.3152  -15.0513 C   0  0  0  0  0  0  0  0  0  0  0  0
   -6.1647    4.9541  -15.6180 C   0  0  0  0  0  0  0  0  0  0  0  0
   -4.1787    5.5256  -17.9979 H   0  0  0  0  0  0  0  0  0  0  0  0
   -5.6909    3.1987  -12.6344 N   0  0  0  0  0  0  0  0  0  0  0  0
   -7.0119    2.7725  -13.3423 C   0  0  0  0  0  0  0  0  0  0  0  0
   -7.4406    1.7073  -13.5695 O   0  0  0  0  0  0  0  0  0  0  0  0
   -5.5179    4.1679  -12.6330 H   0  0  0  0  0  0  0  0  0  0  0  0
   -4.6849    2.4074  -11.9838 C   0  0  0  0  0  0  0  0  0  0  0  0
   -3.5041    1.9996  -14.1772 C   0  0  0  0  0  0  0  0  0  0  0  0
   -3.3429    2.3857  -12.7192 C   0  0  0  0  0  0  0  0  0  0  0  0
   -2.5926    3.7095  -12.6200 C   0  0  0  0  0  0  0  0  0  0  0  0
   -7.4534    5.2019  -12.7129 N   0  0  0  0  0  0  0  0  0  0  0  0
   -6.9973    6.0284  -12.9922 H   0  0  0  0  0  0  0  0  0  0  0  0
   -7.7897    4.9724  -11.3428 C   0  0  0  0  0  0  0  0  0  0  0  0
   -7.4988    5.9707  -10.3916 C   0  0  0  0  0  0  0  0  0  0  0  0
   -7.7000    5.8820   -9.0481 N   0  0  0  0  0  0  0  0  0  0  0  0
   -8.2277    4.7154   -8.6376 C   0  0  0  0  0  0  0  0  0  0  0  0
   -8.5564    3.6696   -9.4676 C   0  0  0  0  0  0  0  0  0  0  0  0
   -8.3286    3.7814  -10.8285 C   0  0  0  0  0  0  0  0  0  0  0  0
   -9.1696    2.5596   -8.6882 C   0  0  0  0  0  0  0  0  0  0  0  0
   -9.0782    2.9494   -7.2518 N   0  0  0  0  0  0  0  0  0  0  0  0
   -8.5883    4.3516   -7.2262 C   0  0  0  0  0  0  0  0  0  0  0  0
   -8.4246    2.3386   -6.7618 H   0  0  0  0  0  0  0  0  0  0  0  0
 20 21  1  0  0  0
 21 22  1  0  0  0
 21 19  1  0  0  0
 19 15  1  0  0  0
 15 16  1  0  0  0
 16 17  2  0  0  0
 16  1  1  0  0  0
  1  2  1  0  0  0
  1 23  1  0  0  0
 23 25  1  0  0  0
 25 26  2  0  0  0
 26 27  1  0  0  0
 27 28  2  0  0  0
 28 29  1  0  0  0
 29 30  2  0  0  0
 29 31  1  0  0  0
 31 32  1  0  0  0
 32 33  1  0  0  0
  1  4  1  0  0  0
  4  5  2  0  0  0
  5  6  1  0  0  0
  6  7  1  0  0  0
  6  8  2  0  0  0
  8  9  1  0  0  0
  9 10  1  0  0  0
 10 11  1  0  0  0
 11 12  2  0  0  0
 12 13  1  0  0  0
 30 25  1  0  0  0
 13  4  1  0  0  0
 33 28  1  0  0  0
 13  9  2  0  0  0
 15 18  1  0  0  0
  2  3  1  0  0  0
 23 24  1  0  0  0
 32 34  1  0  0  0
 10 14  1  0  0  0
M  END
> <minimizedAffinity>
-8.43049

> <minimizedRMSD>
0.59615

$$$$
P23287


 29 32  0  0  0  0  0  0  0  0999 V2000
   -7.4791    3.4890  -13.7690 C   0  0  0  0  0  0  0  0  0  0  0  0
   -7.3061    2.3441  -13.6397 O   0  0  0  0  0  0  0  0  0  0  0  0
   -7.8565    4.5681  -12.7306 N   0  0  0  0  0  0  0  0  0  0  0  0
   -8.0213    5.4627  -13.1071 H   0  0  0  0  0  0  0  0  0  0  0  0
   -8.0013    4.4814  -11.3502 C   0  0  0  0  0  0  0  0  0  0  0  0
   -7.7246    5.5748  -10.5153 C   0  0  0  0  0  0  0  0  0  0  0  0
   -7.8648    5.5798   -9.1636 N   0  0  0  0  0  0  0  0  0  0  0  0
   -8.3731    4.4389   -8.6622 C   0  0  0  0  0  0  0  0  0  0  0  0
   -8.7202    3.3287   -9.4223 C   0  0  0  0  0  0  0  0  0  0  0  0
   -8.4943    3.3168  -10.7795 C   0  0  0  0  0  0  0  0  0  0  0  0
   -9.3463    2.2933   -8.5545 C   0  0  0  0  0  0  0  0  0  0  0  0
   -9.6897    3.0429   -7.3162 N   0  0  0  0  0  0  0  0  0  0  0  0
   -9.7373    2.1538   -6.1795 C   0  0  0  0  0  0  0  0  0  0  0  0
   -8.6618    4.1100   -7.2088 C   0  0  0  0  0  0  0  0  0  0  0  0
   -9.1137    5.2946   -6.3657 C   0  0  0  0  0  0  0  0  0  0  0  0
   -4.9597    5.6451  -17.0080 N   0  0  0  0  0  0  0  0  0  0  0  0
   -4.0776    5.0580  -16.1531 N   0  0  0  0  0  0  0  0  0  0  0  0
   -4.8719    4.4332  -15.2841 C   0  0  0  0  0  0  0  0  0  0  0  0
   -6.2304    4.5086  -15.6538 C   0  0  0  0  0  0  0  0  0  0  0  0
   -7.4478    4.0816  -15.1122 C   0  0  0  0  0  0  0  0  0  0  0  0
   -8.6303    4.2208  -15.8431 C   0  0  0  0  0  0  0  0  0  0  0  0
   -8.5877    4.7504  -17.1230 C   0  0  0  0  0  0  0  0  0  0  0  0
   -9.7232    4.7974  -17.8354 F   0  0  0  0  0  0  0  0  0  0  0  0
   -7.4044    5.2631  -17.6689 C   0  0  0  0  0  0  0  0  0  0  0  0
   -6.2404    5.1572  -16.8875 C   0  0  0  0  0  0  0  0  0  0  0  0
   -4.5568    6.8491  -17.7387 C   0  0  0  0  0  0  0  0  0  0  0  0
   -4.9491    8.5696  -16.0419 C   0  0  0  0  0  0  0  0  0  0  0  0
   -3.9507    7.8246  -16.8086 N   0  0  0  0  0  0  0  0  0  0  0  0
   -3.3470    7.3228  -16.1573 H   0  0  0  0  0  0  0  0  0  0  0  0
 27 28  1  0  0  0
 28 26  1  0  0  0
 26 16  1  0  0  0
 16 17  1  0  0  0
 17 18  2  0  0  0
 18 19  1  0  0  0
 19 20  2  0  0  0
 20  1  1  0  0  0
  1  2  2  0  0  0
  1  3  1  0  0  0
  3  5  1  0  0  0
  5  6  2  0  0  0
  6  7  1  0  0  0
  7  8  2  0  0  0
  8  9  1  0  0  0
  9 10  2  0  0  0
  9 11  1  0  0  0
 11 12  1  0  0  0
 12 13  1  0  0  0
 12 14  1  0  0  0
 14 15  1  0  0  0
 20 21  1  0  0  0
 21 22  2  0  0  0
 22 23  1  0  0  0
 22 24  1  0  0  0
 24 25  2  0  0  0
 25 16  1  0  0  0
 25 19  1  0  0  0
 10  5  1  0  0  0
 14  8  1  0  0  0
 28 29  1  0  0  0
  3  4  1  0  0  0
M  END
> <minimizedAffinity>
-7.29384

> <minimizedRMSD>
0.33652

$$$$
P23292


 27 30  0  0  0  0  0  0  0  0999 V2000
   -7.5302    3.5882  -13.8287 C   0  0  0  0  0  0  0  0  0  0  0  0
   -7.3530    2.4446  -13.6867 O   0  0  0  0  0  0  0  0  0  0  0  0
   -7.7804    4.6985  -12.7872 N   0  0  0  0  0  0  0  0  0  0  0  0
   -7.8249    5.6093  -13.1583 H   0  0  0  0  0  0  0  0  0  0  0  0
   -5.1825    5.2615  -17.6219 C   0  0  0  0  0  0  0  0  0  0  0  0
   -4.3840    5.2165  -16.5003 C   0  0  0  0  0  0  0  0  0  0  0  0
   -5.1488    4.7509  -15.4589 N   0  0  0  0  0  0  0  0  0  0  0  0
   -6.4531    4.5942  -15.8719 C   0  0  0  0  0  0  0  0  0  0  0  0
   -7.5880    4.1328  -15.1946 C   0  0  0  0  0  0  0  0  0  0  0  0
   -8.8051    4.0900  -15.8734 C   0  0  0  0  0  0  0  0  0  0  0  0
   -8.8651    4.4276  -17.2157 C   0  0  0  0  0  0  0  0  0  0  0  0
  -10.5147    4.3526  -18.1132 Br  0  0  0  0  0  0  0  0  0  0  0  0
   -7.7262    4.8202  -17.9193 C   0  0  0  0  0  0  0  0  0  0  0  0
   -6.5020    4.9247  -17.2311 C   0  0  0  0  0  0  0  0  0  0  0  0
   -4.8147    4.5582  -14.5530 H   0  0  0  0  0  0  0  0  0  0  0  0
   -4.3986    5.7081  -20.0419 N   0  0  0  0  0  0  0  0  0  0  0  0
   -4.7322    5.5376  -18.9453 C   0  0  0  0  0  0  0  0  0  0  0  0
   -7.9535    4.6220  -11.4079 C   0  0  0  0  0  0  0  0  0  0  0  0
   -7.7678    5.7758  -10.6267 C   0  0  0  0  0  0  0  0  0  0  0  0
   -7.9588    5.7366   -9.2396 C   0  0  0  0  0  0  0  0  0  0  0  0
   -8.3801    4.5478   -8.6702 C   0  0  0  0  0  0  0  0  0  0  0  0
   -8.5910    3.4167   -9.4494 C   0  0  0  0  0  0  0  0  0  0  0  0
   -8.3553    3.4255  -10.8125 C   0  0  0  0  0  0  0  0  0  0  0  0
   -9.0862    2.3005   -8.5913 C   0  0  0  0  0  0  0  0  0  0  0  0
   -9.4139    2.9297   -7.2803 N   0  0  0  0  0  0  0  0  0  0  0  0
   -8.6803    4.2124   -7.2480 C   0  0  0  0  0  0  0  0  0  0  0  0
   -9.1111    2.3291   -6.5136 H   0  0  0  0  0  0  0  0  0  0  0  0
 16 17  3  0  0  0
 17  5  1  0  0  0
  5  6  2  0  0  0
  6  7  1  0  0  0
  7  8  1  0  0  0
  8  9  2  0  0  0
  9  1  1  0  0  0
  1  2  2  0  0  0
  1  3  1  0  0  0
  3 18  1  0  0  0
 18 19  2  0  0  0
 19 20  1  0  0  0
 20 21  2  0  0  0
 21 22  1  0  0  0
 22 23  2  0  0  0
 22 24  1  0  0  0
 24 25  1  0  0  0
 25 26  1  0  0  0
  9 10  1  0  0  0
 10 11  2  0  0  0
 11 12  1  0  0  0
 11 13  1  0  0  0
 13 14  2  0  0  0
 14  5  1  0  0  0
 14  8  1  0  0  0
 23 18  1  0  0  0
 26 21  1  0  0  0
  7 15  1  0  0  0
  3  4  1  0  0  0
 25 27  1  0  0  0
M  END
> <minimizedAffinity>
-8.09934

> <minimizedRMSD>
0.53140

$$$$
P23296


 30 33  0  0  0  0  0  0  0  0999 V2000
   -7.3197    3.7154  -13.6520 C   0  0  0  0  0  0  0  0  0  0  0  0
   -7.7817    2.3847  -13.6803 O   0  0  0  0  0  0  0  0  0  0  0  0
   -7.7282    2.0049  -12.7893 H   0  0  0  0  0  0  0  0  0  0  0  0
   -7.4509    4.2113  -15.1131 C   0  0  0  0  0  0  0  0  0  0  0  0
   -8.7277    4.2307  -15.7415 C   0  0  0  0  0  0  0  0  0  0  0  0
   -8.9115    4.5070  -17.0916 C   0  0  0  0  0  0  0  0  0  0  0  0
   -7.8175    4.8183  -17.8903 C   0  0  0  0  0  0  0  0  0  0  0  0
   -6.5381    4.8848  -17.3096 C   0  0  0  0  0  0  0  0  0  0  0  0
   -5.2449    5.1623  -17.8240 C   0  0  0  0  0  0  0  0  0  0  0  0
   -4.3356    5.0380  -16.7972 C   0  0  0  0  0  0  0  0  0  0  0  0
   -5.0360    4.6753  -15.6798 N   0  0  0  0  0  0  0  0  0  0  0  0
   -6.3860    4.5886  -15.9551 C   0  0  0  0  0  0  0  0  0  0  0  0
   -4.6324    4.4999  -14.7992 H   0  0  0  0  0  0  0  0  0  0  0  0
   -4.9368    5.4746  -19.1793 C   0  0  0  0  0  0  0  0  0  0  0  0
   -4.6814    5.7400  -20.2790 N   0  0  0  0  0  0  0  0  0  0  0  0
   -5.4112    2.4226  -12.8408 C   0  0  0  0  0  0  0  0  0  0  0  0
   -5.9263    3.7331  -13.2262 N   0  0  0  0  0  0  0  0  0  0  0  0
   -5.3592    4.0878  -13.9962 H   0  0  0  0  0  0  0  0  0  0  0  0
   -8.2997    4.4755  -12.8971 N   0  0  0  0  0  0  0  0  0  0  0  0
   -8.9897    5.0015  -13.3624 H   0  0  0  0  0  0  0  0  0  0  0  0
   -8.2493    4.4498  -11.4889 C   0  0  0  0  0  0  0  0  0  0  0  0
   -7.8883    5.6183  -10.7905 C   0  0  0  0  0  0  0  0  0  0  0  0
   -7.9267    5.6671   -9.3913 C   0  0  0  0  0  0  0  0  0  0  0  0
   -8.3254    4.5321   -8.7084 C   0  0  0  0  0  0  0  0  0  0  0  0
   -8.6514    3.3694   -9.3904 C   0  0  0  0  0  0  0  0  0  0  0  0
   -8.5963    3.3024  -10.7710 C   0  0  0  0  0  0  0  0  0  0  0  0
   -9.1267    2.3344   -8.4320 C   0  0  0  0  0  0  0  0  0  0  0  0
   -8.8953    2.8963   -7.0720 N   0  0  0  0  0  0  0  0  0  0  0  0
   -8.5538    4.3258   -7.2515 C   0  0  0  0  0  0  0  0  0  0  0  0
   -8.1258    2.4061   -6.6159 H   0  0  0  0  0  0  0  0  0  0  0  0
 16 17  1  0  0  0
 17  1  1  0  0  0
  1  2  1  0  0  0
  1 19  1  0  0  0
 19 21  1  0  0  0
 21 22  2  0  0  0
 22 23  1  0  0  0
 23 24  2  0  0  0
 24 25  1  0  0  0
 25 26  2  0  0  0
 25 27  1  0  0  0
 27 28  1  0  0  0
 28 29  1  0  0  0
  1  4  1  0  0  0
  4  5  2  0  0  0
  5  6  1  0  0  0
  6  7  2  0  0  0
  7  8  1  0  0  0
  8  9  1  0  0  0
  9 14  1  0  0  0
 14 15  3  0  0  0
  9 10  2  0  0  0
 10 11  1  0  0  0
 11 12  1  0  0  0
 26 21  1  0  0  0
 12  4  1  0  0  0
 29 24  1  0  0  0
 12  8  2  0  0  0
 17 18  1  0  0  0
  2  3  1  0  0  0
 19 20  1  0  0  0
 28 30  1  0  0  0
 11 13  1  0  0  0
M  END
> <minimizedAffinity>
-8.05506

> <minimizedRMSD>
0.35924

$$$$
P23297


 27 30  0  0  0  0  0  0  0  0999 V2000
   -7.5844    3.5871  -13.8475 C   0  0  0  0  0  0  0  0  0  0  0  0
   -7.3352    2.4580  -13.6978 O   0  0  0  0  0  0  0  0  0  0  0  0
   -7.8848    4.6914  -12.8116 N   0  0  0  0  0  0  0  0  0  0  0  0
   -7.9913    5.5939  -13.1904 H   0  0  0  0  0  0  0  0  0  0  0  0
  -10.3226    4.3694  -17.9513 C   0  0  0  0  0  0  0  0  0  0  0  0
   -9.0003    4.4197  -17.2467 C   0  0  0  0  0  0  0  0  0  0  0  0
   -8.9049    4.0814  -15.8966 C   0  0  0  0  0  0  0  0  0  0  0  0
   -7.6805    4.1184  -15.2196 C   0  0  0  0  0  0  0  0  0  0  0  0
   -6.5526    4.5724  -15.9069 C   0  0  0  0  0  0  0  0  0  0  0  0
   -5.2449    4.7246  -15.5038 N   0  0  0  0  0  0  0  0  0  0  0  0
   -4.4815    5.1568  -16.5622 C   0  0  0  0  0  0  0  0  0  0  0  0
   -5.3012    5.2385  -17.6689 C   0  0  0  0  0  0  0  0  0  0  0  0
   -6.6149    4.8995  -17.2625 C   0  0  0  0  0  0  0  0  0  0  0  0
   -7.8474    4.8047  -17.9401 C   0  0  0  0  0  0  0  0  0  0  0  0
   -4.9077    4.5504  -14.5954 H   0  0  0  0  0  0  0  0  0  0  0  0
   -4.9180    5.5794  -19.0018 C   0  0  0  0  0  0  0  0  0  0  0  0
   -4.6347    5.8731  -20.0882 N   0  0  0  0  0  0  0  0  0  0  0  0
   -8.0296    4.6188  -11.4282 C   0  0  0  0  0  0  0  0  0  0  0  0
   -7.7994    5.7652  -10.6492 C   0  0  0  0  0  0  0  0  0  0  0  0
   -7.9591    5.7246   -9.2579 C   0  0  0  0  0  0  0  0  0  0  0  0
   -8.3833    4.5406   -8.6787 C   0  0  0  0  0  0  0  0  0  0  0  0
   -8.6448    3.4217   -9.4557 C   0  0  0  0  0  0  0  0  0  0  0  0
   -8.4451    3.4313  -10.8250 C   0  0  0  0  0  0  0  0  0  0  0  0
   -9.1986    2.3301   -8.6071 C   0  0  0  0  0  0  0  0  0  0  0  0
   -9.0825    2.8059   -7.1986 N   0  0  0  0  0  0  0  0  0  0  0  0
   -8.6781    4.2278   -7.2526 C   0  0  0  0  0  0  0  0  0  0  0  0
   -8.3783    2.2604   -6.7018 H   0  0  0  0  0  0  0  0  0  0  0  0
  5  6  1  0  0  0
  6  7  2  0  0  0
  7  8  1  0  0  0
  8  1  1  0  0  0
  1  2  2  0  0  0
  1  3  1  0  0  0
  3 18  1  0  0  0
 18 19  2  0  0  0
 19 20  1  0  0  0
 20 21  2  0  0  0
 21 22  1  0  0  0
 22 23  2  0  0  0
 22 24  1  0  0  0
 24 25  1  0  0  0
 25 26  1  0  0  0
  8  9  2  0  0  0
  9 10  1  0  0  0
 10 11  1  0  0  0
 11 12  2  0  0  0
 12 16  1  0  0  0
 16 17  3  0  0  0
 12 13  1  0  0  0
 13 14  2  0  0  0
 14  6  1  0  0  0
 23 18  1  0  0  0
 13  9  1  0  0  0
 26 21  1  0  0  0
  3  4  1  0  0  0
 25 27  1  0  0  0
 10 15  1  0  0  0
M  END
> <minimizedAffinity>
-8.58157

> <minimizedRMSD>
0.58665

$$$$
P23298


 30 33  0  0  0  0  0  0  0  0999 V2000
   -7.9162    4.8618  -12.9509 N   0  0  0  0  0  0  0  0  0  0  0  0
   -7.6378    3.7515  -13.9857 C   0  0  0  0  0  0  0  0  0  0  0  0
   -7.3805    2.6245  -13.8343 O   0  0  0  0  0  0  0  0  0  0  0  0
   -8.0357    5.7611  -13.3333 H   0  0  0  0  0  0  0  0  0  0  0  0
   -7.8565    5.9293  -10.7291 C   0  0  0  0  0  0  0  0  0  0  0  0
   -7.9928    5.8346   -9.3308 C   0  0  0  0  0  0  0  0  0  0  0  0
   -8.3645    4.6170   -8.7921 C   0  0  0  0  0  0  0  0  0  0  0  0
   -8.5472    3.5074   -9.6042 C   0  0  0  0  0  0  0  0  0  0  0  0
   -8.3534    3.5707  -10.9721 C   0  0  0  0  0  0  0  0  0  0  0  0
   -8.0263    4.7985  -11.5583 C   0  0  0  0  0  0  0  0  0  0  0  0
   -8.9508    2.3356   -8.7722 C   0  0  0  0  0  0  0  0  0  0  0  0
   -9.3030    2.9110   -7.4453 N   0  0  0  0  0  0  0  0  0  0  0  0
   -8.6255    4.2220   -7.3764 C   0  0  0  0  0  0  0  0  0  0  0  0
   -8.9734    2.3020   -6.6964 H   0  0  0  0  0  0  0  0  0  0  0  0
   -7.9068    8.6926  -10.1542 C   0  0  0  0  0  0  0  0  0  0  0  0
   -7.4332    7.5191  -11.3965 S   0  0  0  0  0  0  0  0  0  0  0  0
   -8.2789    7.7662  -12.5558 O   0  0  0  0  0  0  0  0  0  0  0  0
   -5.9891    7.5563  -11.5270 O   0  0  0  0  0  0  0  0  0  0  0  0
   -7.7837    4.2515  -15.3628 C   0  0  0  0  0  0  0  0  0  0  0  0
   -9.0295    4.1720  -15.9972 C   0  0  0  0  0  0  0  0  0  0  0  0
   -9.1644    4.4221  -17.3569 C   0  0  0  0  0  0  0  0  0  0  0  0
   -8.0417    4.7348  -18.1226 C   0  0  0  0  0  0  0  0  0  0  0  0
   -6.7877    4.8640  -17.4902 C   0  0  0  0  0  0  0  0  0  0  0  0
   -5.4773    5.1037  -17.9622 C   0  0  0  0  0  0  0  0  0  0  0  0
   -4.6266    5.1693  -16.8844 C   0  0  0  0  0  0  0  0  0  0  0  0
   -5.3600    4.8505  -15.7679 N   0  0  0  0  0  0  0  0  0  0  0  0
   -6.6800    4.6572  -16.1147 C   0  0  0  0  0  0  0  0  0  0  0  0
   -4.9972    4.7719  -14.8561 H   0  0  0  0  0  0  0  0  0  0  0  0
   -5.1220    5.1994  -19.3324 C   0  0  0  0  0  0  0  0  0  0  0  0
   -4.8104    5.2040  -20.4486 N   0  0  0  0  0  0  0  0  0  0  0  0
 15 16  1  0  0  0
 16 17  2  0  0  0
 16 18  2  0  0  0
 16  5  1  0  0  0
  5  6  2  0  0  0
  6  7  1  0  0  0
  7  8  2  0  0  0
  8  9  1  0  0  0
  9 10  2  0  0  0
 10  1  1  0  0  0
  1  2  1  0  0  0
  2  3  2  0  0  0
  2 19  1  0  0  0
 19 20  2  0  0  0
 20 21  1  0  0  0
 21 22  2  0  0  0
 22 23  1  0  0  0
 23 24  1  0  0  0
 24 29  1  0  0  0
 29 30  3  0  0  0
 24 25  2  0  0  0
 25 26  1  0  0  0
 26 27  1  0  0  0
  8 11  1  0  0  0
 11 12  1  0  0  0
 12 13  1  0  0  0
 10  5  1  0  0  0
 27 19  1  0  0  0
 13  7  1  0  0  0
 27 23  2  0  0  0
  1  4  1  0  0  0
 26 28  1  0  0  0
 12 14  1  0  0  0
M  END
> <minimizedAffinity>
-8.05835

> <minimizedRMSD>
0.91337

$$$$
P23300


 29 32  0  0  0  0  0  0  0  0999 V2000
   -7.4022    3.7027  -13.6744 C   0  0  0  0  0  0  0  0  0  0  0  0
   -6.0765    3.9196  -13.2630 O   0  0  0  0  0  0  0  0  0  0  0  0
   -7.6567    2.3463  -13.5348 O   0  0  0  0  0  0  0  0  0  0  0  0
   -5.7147    4.7837  -13.2846 H   0  0  0  0  0  0  0  0  0  0  0  0
   -8.4981    2.0017  -13.7615 H   0  0  0  0  0  0  0  0  0  0  0  0
   -5.2755    5.3212  -17.6625 C   0  0  0  0  0  0  0  0  0  0  0  0
   -4.4023    5.0996  -16.6189 C   0  0  0  0  0  0  0  0  0  0  0  0
   -5.1291    4.5915  -15.5777 N   0  0  0  0  0  0  0  0  0  0  0  0
   -6.4641    4.5201  -15.9199 C   0  0  0  0  0  0  0  0  0  0  0  0
   -7.5546    4.1204  -15.1247 C   0  0  0  0  0  0  0  0  0  0  0  0
   -8.8151    4.2146  -15.7542 C   0  0  0  0  0  0  0  0  0  0  0  0
   -8.9579    4.5512  -17.0987 C   0  0  0  0  0  0  0  0  0  0  0  0
   -7.8405    4.8806  -17.8663 C   0  0  0  0  0  0  0  0  0  0  0  0
   -6.5747    4.9156  -17.2512 C   0  0  0  0  0  0  0  0  0  0  0  0
   -4.7542    4.3165  -14.7099 H   0  0  0  0  0  0  0  0  0  0  0  0
   -4.6583    6.4729  -19.8938 N   0  0  0  0  0  0  0  0  0  0  0  0
   -4.9260    5.9268  -18.9041 C   0  0  0  0  0  0  0  0  0  0  0  0
   -8.2968    4.5026  -12.8733 N   0  0  0  0  0  0  0  0  0  0  0  0
   -8.9506    5.0908  -13.3159 H   0  0  0  0  0  0  0  0  0  0  0  0
   -8.2474    4.4531  -11.4697 C   0  0  0  0  0  0  0  0  0  0  0  0
   -7.9428    5.6352  -10.7546 C   0  0  0  0  0  0  0  0  0  0  0  0
   -7.9624    5.6798   -9.3548 C   0  0  0  0  0  0  0  0  0  0  0  0
   -8.3311    4.5379   -8.6728 C   0  0  0  0  0  0  0  0  0  0  0  0
   -8.6600    3.3804   -9.3590 C   0  0  0  0  0  0  0  0  0  0  0  0
   -8.6083    3.3144  -10.7423 C   0  0  0  0  0  0  0  0  0  0  0  0
   -9.1312    2.3406   -8.4026 C   0  0  0  0  0  0  0  0  0  0  0  0
   -8.9171    2.9039   -7.0413 N   0  0  0  0  0  0  0  0  0  0  0  0
   -8.5280    4.3208   -7.2134 C   0  0  0  0  0  0  0  0  0  0  0  0
   -8.1747    2.3927   -6.5638 H   0  0  0  0  0  0  0  0  0  0  0  0
 16 17  3  0  0  0
 17  6  1  0  0  0
  6  7  2  0  0  0
  7  8  1  0  0  0
  8  9  1  0  0  0
  9 10  2  0  0  0
 10  1  1  0  0  0
  1  2  1  0  0  0
  1  3  1  0  0  0
  1 18  1  0  0  0
 18 20  1  0  0  0
 20 21  2  0  0  0
 21 22  1  0  0  0
 22 23  2  0  0  0
 23 24  1  0  0  0
 24 25  2  0  0  0
 24 26  1  0  0  0
 26 27  1  0  0  0
 27 28  1  0  0  0
 10 11  1  0  0  0
 11 12  2  0  0  0
 12 13  1  0  0  0
 13 14  2  0  0  0
 14  6  1  0  0  0
 14  9  1  0  0  0
 25 20  1  0  0  0
 28 23  1  0  0  0
  8 15  1  0  0  0
  2  4  1  0  0  0
  3  5  1  0  0  0
 18 19  1  0  0  0
 27 29  1  0  0  0
M  END
> <minimizedAffinity>
-7.89599

> <minimizedRMSD>
1.02733

$$$$
P23303


 29 32  0  0  0  0  0  0  0  0999 V2000
   -5.4015    5.1148  -17.8609 C   0  0  0  0  0  0  0  0  0  0  0  0
   -4.5058    5.0796  -16.8173 C   0  0  0  0  0  0  0  0  0  0  0  0
   -3.1734    5.2665  -16.7414 N   0  0  0  0  0  0  0  0  0  0  0  0
   -5.2104    4.7211  -15.6967 N   0  0  0  0  0  0  0  0  0  0  0  0
   -6.5489    4.5968  -15.9979 C   0  0  0  0  0  0  0  0  0  0  0  0
   -7.6354    4.2052  -15.2160 C   0  0  0  0  0  0  0  0  0  0  0  0
   -8.9056    4.1771  -15.7987 C   0  0  0  0  0  0  0  0  0  0  0  0
   -9.0809    4.4680  -17.1461 C   0  0  0  0  0  0  0  0  0  0  0  0
   -7.9800    4.7870  -17.9435 C   0  0  0  0  0  0  0  0  0  0  0  0
   -6.7001    4.8665  -17.3562 C   0  0  0  0  0  0  0  0  0  0  0  0
   -2.6659    5.5238  -17.5448 H   0  0  0  0  0  0  0  0  0  0  0  0
   -2.7076    5.1456  -15.8826 H   0  0  0  0  0  0  0  0  0  0  0  0
   -4.8169    4.5741  -14.8064 H   0  0  0  0  0  0  0  0  0  0  0  0
   -7.4366    3.7041  -13.8491 C   0  0  0  0  0  0  0  0  0  0  0  0
   -6.9134    2.6734  -13.6978 O   0  0  0  0  0  0  0  0  0  0  0  0
   -7.9812    4.7109  -12.8146 N   0  0  0  0  0  0  0  0  0  0  0  0
   -8.3144    5.5549  -13.1965 H   0  0  0  0  0  0  0  0  0  0  0  0
   -8.0780    4.6200  -11.4304 C   0  0  0  0  0  0  0  0  0  0  0  0
   -7.8482    5.7603  -10.6413 C   0  0  0  0  0  0  0  0  0  0  0  0
   -7.9845    5.7005   -9.2482 C   0  0  0  0  0  0  0  0  0  0  0  0
   -8.3921    4.5052   -8.6812 C   0  0  0  0  0  0  0  0  0  0  0  0
   -8.6311    3.3854   -9.4684 C   0  0  0  0  0  0  0  0  0  0  0  0
   -8.4508    3.4148  -10.8373 C   0  0  0  0  0  0  0  0  0  0  0  0
   -9.0938    2.2555   -8.6126 C   0  0  0  0  0  0  0  0  0  0  0  0
   -9.4003    2.8707   -7.2909 N   0  0  0  0  0  0  0  0  0  0  0  0
   -8.6584    4.1502   -7.2570 C   0  0  0  0  0  0  0  0  0  0  0  0
   -9.0897    2.2604   -6.5349 H   0  0  0  0  0  0  0  0  0  0  0  0
   -4.8090    5.4053  -20.3496 N   0  0  0  0  0  0  0  0  0  0  0  0
   -5.1045    5.3013  -19.2336 C   0  0  0  0  0  0  0  0  0  0  0  0
 28 29  3  0  0  0
 29  1  1  0  0  0
  1  2  2  0  0  0
  2  3  1  0  0  0
  2  4  1  0  0  0
  4  5  1  0  0  0
  5  6  2  0  0  0
  6 14  1  0  0  0
 14 15  2  0  0  0
 14 16  1  0  0  0
 16 18  1  0  0  0
 18 19  2  0  0  0
 19 20  1  0  0  0
 20 21  2  0  0  0
 21 22  1  0  0  0
 22 23  2  0  0  0
 22 24  1  0  0  0
 24 25  1  0  0  0
 25 26  1  0  0  0
  6  7  1  0  0  0
  7  8  2  0  0  0
  8  9  1  0  0  0
  9 10  2  0  0  0
 10  1  1  0  0  0
 10  5  1  0  0  0
 23 18  1  0  0  0
 26 21  1  0  0  0
  3 11  1  0  0  0
  3 12  1  0  0  0
  4 13  1  0  0  0
 16 17  1  0  0  0
 25 27  1  0  0  0
M  END
> <minimizedAffinity>
-8.17928

> <minimizedRMSD>
0.84476

$$$$
P23307


 26 29  0  0  0  0  0  0  0  0999 V2000
   -7.4237    3.6126  -13.8218 C   0  0  0  0  0  0  0  0  0  0  0  0
   -6.8320    2.6240  -13.6398 O   0  0  0  0  0  0  0  0  0  0  0  0
   -8.0488    4.6068  -12.8151 N   0  0  0  0  0  0  0  0  0  0  0  0
   -8.4354    5.4161  -13.2210 H   0  0  0  0  0  0  0  0  0  0  0  0
   -5.3236    5.3467  -17.7077 C   0  0  0  0  0  0  0  0  0  0  0  0
   -4.4377    5.0978  -16.6803 C   0  0  0  0  0  0  0  0  0  0  0  0
   -5.1474    4.5616  -15.6384 N   0  0  0  0  0  0  0  0  0  0  0  0
   -6.4866    4.5165  -15.9602 C   0  0  0  0  0  0  0  0  0  0  0  0
   -7.5917    4.1122  -15.2018 C   0  0  0  0  0  0  0  0  0  0  0  0
   -8.8574    4.1599  -15.7902 C   0  0  0  0  0  0  0  0  0  0  0  0
   -9.0088    4.5355  -17.1208 C   0  0  0  0  0  0  0  0  0  0  0  0
   -7.8959    4.9094  -17.8831 C   0  0  0  0  0  0  0  0  0  0  0  0
   -6.6175    4.9374  -17.2852 C   0  0  0  0  0  0  0  0  0  0  0  0
   -4.7589    4.2545  -14.7874 H   0  0  0  0  0  0  0  0  0  0  0  0
   -4.7311    6.5303  -19.9298 N   0  0  0  0  0  0  0  0  0  0  0  0
   -4.9880    5.9714  -18.9448 C   0  0  0  0  0  0  0  0  0  0  0  0
   -8.1535    4.5433  -11.4306 C   0  0  0  0  0  0  0  0  0  0  0  0
   -7.8945    5.7018  -10.6762 C   0  0  0  0  0  0  0  0  0  0  0  0
   -7.9970    5.6806   -9.2807 C   0  0  0  0  0  0  0  0  0  0  0  0
   -8.3912    4.5021   -8.6718 C   0  0  0  0  0  0  0  0  0  0  0  0
   -8.6760    3.3709   -9.4237 C   0  0  0  0  0  0  0  0  0  0  0  0
   -8.5369    3.3622  -10.8002 C   0  0  0  0  0  0  0  0  0  0  0  0
   -9.1788    2.2849   -8.5383 C   0  0  0  0  0  0  0  0  0  0  0  0
   -9.0201    2.7844   -7.1427 N   0  0  0  0  0  0  0  0  0  0  0  0
   -8.6326    4.2089   -7.2319 C   0  0  0  0  0  0  0  0  0  0  0  0
   -8.2938    2.2537   -6.6617 H   0  0  0  0  0  0  0  0  0  0  0  0
 15 16  3  0  0  0
 16  5  1  0  0  0
  5  6  2  0  0  0
  6  7  1  0  0  0
  7  8  1  0  0  0
  8  9  2  0  0  0
  9  1  1  0  0  0
  1  2  2  0  0  0
  1  3  1  0  0  0
  3 17  1  0  0  0
 17 18  2  0  0  0
 18 19  1  0  0  0
 19 20  2  0  0  0
 20 21  1  0  0  0
 21 22  2  0  0  0
 21 23  1  0  0  0
 23 24  1  0  0  0
 24 25  1  0  0  0
  9 10  1  0  0  0
 10 11  2  0  0  0
 11 12  1  0  0  0
 12 13  2  0  0  0
 13  5  1  0  0  0
 13  8  1  0  0  0
 22 17  1  0  0  0
 25 20  1  0  0  0
  7 14  1  0  0  0
  3  4  1  0  0  0
 24 26  1  0  0  0
M  END
> <minimizedAffinity>
-7.76662

> <minimizedRMSD>
1.09711

$$$$
P23313


 31 33  0  0  0  0  0  0  0  0999 V2000
   -5.6701    5.4982  -16.4355 C   0  0  0  0  0  0  0  0  0  0  0  0
   -6.2683    5.2001  -17.6719 C   0  0  0  0  0  0  0  0  0  0  0  0
   -7.4525    4.5928  -17.3940 C   0  0  0  0  0  0  0  0  0  0  0  0
   -7.6394    4.5856  -16.0464 N   0  0  0  0  0  0  0  0  0  0  0  0
   -6.5589    5.1763  -15.4189 C   0  0  0  0  0  0  0  0  0  0  0  0
   -8.4271    4.2149  -15.5866 H   0  0  0  0  0  0  0  0  0  0  0  0
   -6.5085    5.4685  -13.9884 C   0  0  0  0  0  0  0  0  0  0  0  0
   -5.8810    6.3782  -13.6075 O   0  0  0  0  0  0  0  0  0  0  0  0
   -7.4423    4.4984  -13.2178 N   0  0  0  0  0  0  0  0  0  0  0  0
   -7.9224    3.8517  -13.7838 H   0  0  0  0  0  0  0  0  0  0  0  0
   -7.7121    4.3936  -11.8533 C   0  0  0  0  0  0  0  0  0  0  0  0
   -7.6234    5.5133  -11.0113 C   0  0  0  0  0  0  0  0  0  0  0  0
   -7.9632    5.4217   -9.6573 C   0  0  0  0  0  0  0  0  0  0  0  0
   -8.3907    4.2010   -9.1709 C   0  0  0  0  0  0  0  0  0  0  0  0
   -8.4684    3.0848   -9.9982 C   0  0  0  0  0  0  0  0  0  0  0  0
   -8.1352    3.1609  -11.3414 C   0  0  0  0  0  0  0  0  0  0  0  0
   -8.9276    1.9157   -9.1886 C   0  0  0  0  0  0  0  0  0  0  0  0
   -9.4791    2.5021   -7.9404 N   0  0  0  0  0  0  0  0  0  0  0  0
   -8.8143    3.8160   -7.7923 C   0  0  0  0  0  0  0  0  0  0  0  0
   -9.2677    1.9038   -7.1419 H   0  0  0  0  0  0  0  0  0  0  0  0
   -4.4612    6.0824  -16.2718 N   0  0  0  0  0  0  0  0  0  0  0  0
   -4.4068    7.0205  -15.9781 H   0  0  0  0  0  0  0  0  0  0  0  0
   -3.2313    5.3268  -16.5290 C   0  0  0  0  0  0  0  0  0  0  0  0
   -2.7005    5.4277  -17.9571 C   0  0  0  0  0  0  0  0  0  0  0  0
   -0.0889    5.7546  -17.9384 N   0  0  0  0  0  0  0  0  0  0  0  0
   -1.2425    5.6178  -17.9455 C   0  0  0  0  0  0  0  0  0  0  0  0
   -8.5590    3.8840  -18.4819 S   0  0  0  0  0  0  0  0  0  0  0  0
  -10.0756    3.9138  -17.5844 C   0  0  0  0  0  0  0  0  0  0  0  0
  -10.9918    4.8497  -18.1303 N   0  0  0  0  0  0  0  0  0  0  0  0
  -10.5902    5.7861  -18.0828 H   0  0  0  0  0  0  0  0  0  0  0  0
  -11.8611    4.8251  -17.5973 H   0  0  0  0  0  0  0  0  0  0  0  0
 25 26  3  0  0  0
 26 24  1  0  0  0
 24 23  1  0  0  0
 23 21  1  0  0  0
 21  1  1  0  0  0
  1  2  1  0  0  0
  2  3  2  0  0  0
  3 27  1  0  0  0
 27 28  1  0  0  0
 28 29  1  0  0  0
  3  4  1  0  0  0
  4  5  1  0  0  0
  5  7  1  0  0  0
  7  8  2  0  0  0
  7  9  1  0  0  0
  9 11  1  0  0  0
 11 12  2  0  0  0
 12 13  1  0  0  0
 13 14  2  0  0  0
 14 15  1  0  0  0
 15 16  2  0  0  0
 15 17  1  0  0  0
 17 18  1  0  0  0
 18 19  1  0  0  0
  5  1  2  0  0  0
 16 11  1  0  0  0
 19 14  1  0  0  0
 21 22  1  0  0  0
 29 30  1  0  0  0
 29 31  1  0  0  0
  4  6  1  0  0  0
  9 10  1  0  0  0
 18 20  1  0  0  0
M  END
> <minimizedAffinity>
-6.32704

> <minimizedRMSD>
0.78672

$$$$
P23315


 27 30  0  0  0  0  0  0  0  0999 V2000
   -7.8097    5.3137  -13.5917 C   0  0  0  0  0  0  0  0  0  0  0  0
   -7.9191    6.4518  -13.3542 O   0  0  0  0  0  0  0  0  0  0  0  0
   -7.9490    4.0784  -12.6691 N   0  0  0  0  0  0  0  0  0  0  0  0
   -7.8844    3.2106  -13.1296 H   0  0  0  0  0  0  0  0  0  0  0  0
   -5.1228    5.3450  -17.5209 C   0  0  0  0  0  0  0  0  0  0  0  0
   -6.3395    4.9563  -17.1578 C   0  0  0  0  0  0  0  0  0  0  0  0
   -7.5079    4.5451  -17.8579 C   0  0  0  0  0  0  0  0  0  0  0  0
   -8.6205    4.2997  -17.1511 C   0  0  0  0  0  0  0  0  0  0  0  0
  -10.2156    3.9665  -18.0097 Br  0  0  0  0  0  0  0  0  0  0  0  0
   -8.6661    4.4679  -15.7077 C   0  0  0  0  0  0  0  0  0  0  0  0
   -7.5956    4.8518  -14.9863 C   0  0  0  0  0  0  0  0  0  0  0  0
   -6.3257    5.0914  -15.6963 C   0  0  0  0  0  0  0  0  0  0  0  0
   -5.1824    5.4327  -15.2089 N   0  0  0  0  0  0  0  0  0  0  0  0
   -4.3489    5.5644  -16.2891 C   0  0  0  0  0  0  0  0  0  0  0  0
   -3.1552    5.7988  -16.2509 O   0  0  0  0  0  0  0  0  0  0  0  0
   -4.1121    5.6941  -19.8459 N   0  0  0  0  0  0  0  0  0  0  0  0
   -4.5951    5.5218  -18.8061 C   0  0  0  0  0  0  0  0  0  0  0  0
   -8.1507    3.9949  -11.2941 C   0  0  0  0  0  0  0  0  0  0  0  0
   -7.9826    5.1219  -10.4722 C   0  0  0  0  0  0  0  0  0  0  0  0
   -8.2060    5.0442   -9.0951 C   0  0  0  0  0  0  0  0  0  0  0  0
   -8.6192    3.8351   -8.5712 C   0  0  0  0  0  0  0  0  0  0  0  0
   -8.7899    2.7176   -9.3840 C   0  0  0  0  0  0  0  0  0  0  0  0
   -8.5482    2.7729  -10.7457 C   0  0  0  0  0  0  0  0  0  0  0  0
   -9.2340    1.5694   -8.5390 C   0  0  0  0  0  0  0  0  0  0  0  0
   -9.6809    2.1836   -7.2617 N   0  0  0  0  0  0  0  0  0  0  0  0
   -8.9442    3.4635   -7.1633 C   0  0  0  0  0  0  0  0  0  0  0  0
   -9.4504    1.5775   -6.4743 H   0  0  0  0  0  0  0  0  0  0  0  0
 16 17  3  0  0  0
 17  5  1  0  0  0
  5  6  2  0  0  0
  6  7  1  0  0  0
  7  8  2  0  0  0
  8  9  1  0  0  0
  8 10  1  0  0  0
 10 11  2  0  0  0
 11  1  1  0  0  0
  1  2  2  0  0  0
  1  3  1  0  0  0
  3 18  1  0  0  0
 18 19  2  0  0  0
 19 20  1  0  0  0
 20 21  2  0  0  0
 21 22  1  0  0  0
 22 23  2  0  0  0
 22 24  1  0  0  0
 24 25  1  0  0  0
 25 26  1  0  0  0
 11 12  1  0  0  0
 12 13  2  0  0  0
 13 14  1  0  0  0
 14 15  2  0  0  0
 14  5  1  0  0  0
 12  6  1  0  0  0
 23 18  1  0  0  0
 26 21  1  0  0  0
  3  4  1  0  0  0
 25 27  1  0  0  0
M  END
> <minimizedAffinity>
-8.53402

> <minimizedRMSD>
0.36248

$$$$
P23318


 30 33  0  0  0  0  0  0  0  0999 V2000
   -5.3669    5.4117  -17.9053 C   0  0  0  0  0  0  0  0  0  0  0  0
   -4.4812    5.5904  -16.8562 C   0  0  0  0  0  0  0  0  0  0  0  0
   -5.2016    5.4453  -15.7031 N   0  0  0  0  0  0  0  0  0  0  0  0
   -6.4864    5.0340  -15.9860 C   0  0  0  0  0  0  0  0  0  0  0  0
   -7.5415    4.7248  -15.1064 C   0  0  0  0  0  0  0  0  0  0  0  0
   -8.7422    4.2595  -15.6554 C   0  0  0  0  0  0  0  0  0  0  0  0
   -8.8821    4.1392  -17.0372 C   0  0  0  0  0  0  0  0  0  0  0  0
   -7.8345    4.5009  -17.8988 C   0  0  0  0  0  0  0  0  0  0  0  0
   -6.6075    4.9545  -17.3708 C   0  0  0  0  0  0  0  0  0  0  0  0
   -4.8518    5.6113  -14.7980 H   0  0  0  0  0  0  0  0  0  0  0  0
   -3.0443    5.9339  -16.8335 C   0  0  0  0  0  0  0  0  0  0  0  0
   -2.5304    5.8145  -15.5825 F   0  0  0  0  0  0  0  0  0  0  0  0
   -2.3110    5.1404  -17.6427 F   0  0  0  0  0  0  0  0  0  0  0  0
   -2.8396    7.2160  -17.2202 F   0  0  0  0  0  0  0  0  0  0  0  0
   -7.3864    5.0227  -13.6580 C   0  0  0  0  0  0  0  0  0  0  0  0
   -6.7194    5.9385  -13.3710 O   0  0  0  0  0  0  0  0  0  0  0  0
   -8.1375    4.0108  -12.7631 N   0  0  0  0  0  0  0  0  0  0  0  0
   -8.5740    3.2749  -13.2500 H   0  0  0  0  0  0  0  0  0  0  0  0
   -8.2977    3.9706  -11.3789 C   0  0  0  0  0  0  0  0  0  0  0  0
   -8.1045    5.1240  -10.6018 C   0  0  0  0  0  0  0  0  0  0  0  0
   -8.2443    5.0850   -9.2113 C   0  0  0  0  0  0  0  0  0  0  0  0
   -8.5634    3.8776   -8.6190 C   0  0  0  0  0  0  0  0  0  0  0  0
   -8.7527    2.7331   -9.3821 C   0  0  0  0  0  0  0  0  0  0  0  0
   -8.6344    2.7614  -10.7645 C   0  0  0  0  0  0  0  0  0  0  0  0
   -9.0462    1.5809   -8.4819 C   0  0  0  0  0  0  0  0  0  0  0  0
   -9.1776    2.1429   -7.1116 N   0  0  0  0  0  0  0  0  0  0  0  0
   -8.7425    3.5544   -7.1764 C   0  0  0  0  0  0  0  0  0  0  0  0
   -8.5860    1.6241   -6.4626 H   0  0  0  0  0  0  0  0  0  0  0  0
   -4.6736    6.0997  -20.2982 N   0  0  0  0  0  0  0  0  0  0  0  0
   -5.0334    5.7139  -19.2652 C   0  0  0  0  0  0  0  0  0  0  0  0
 29 30  3  0  0  0
 30  1  1  0  0  0
  1  2  2  0  0  0
  2 11  1  0  0  0
 11 12  1  0  0  0
 11 13  1  0  0  0
 11 14  1  0  0  0
  2  3  1  0  0  0
  3  4  1  0  0  0
  4  5  2  0  0  0
  5 15  1  0  0  0
 15 16  2  0  0  0
 15 17  1  0  0  0
 17 19  1  0  0  0
 19 20  2  0  0  0
 20 21  1  0  0  0
 21 22  2  0  0  0
 22 23  1  0  0  0
 23 24  2  0  0  0
 23 25  1  0  0  0
 25 26  1  0  0  0
 26 27  1  0  0  0
  5  6  1  0  0  0
  6  7  2  0  0  0
  7  8  1  0  0  0
  8  9  2  0  0  0
  9  1  1  0  0  0
  9  4  1  0  0  0
 24 19  1  0  0  0
 27 22  1  0  0  0
  3 10  1  0  0  0
 17 18  1  0  0  0
 26 28  1  0  0  0
M  END
> <minimizedAffinity>
-8.81429

> <minimizedRMSD>
0.38178

$$$$
P23325


 33 36  0  0  0  0  0  0  0  0999 V2000
   -5.8663    6.8626  -14.4790 C   0  0  0  0  0  0  0  0  0  0  0  0
   -5.7751    5.4574  -15.0900 C   0  0  0  0  0  0  0  0  0  0  0  0
   -4.7430    5.5560  -16.2564 C   0  0  0  0  0  0  0  0  0  0  0  0
   -3.5288    5.6657  -16.1108 O   0  0  0  0  0  0  0  0  0  0  0  0
   -5.4759    5.5847  -17.5889 C   0  0  0  0  0  0  0  0  0  0  0  0
   -6.7690    4.9040  -17.2446 C   0  0  0  0  0  0  0  0  0  0  0  0
   -7.7164    4.3673  -18.1082 C   0  0  0  0  0  0  0  0  0  0  0  0
   -8.9387    3.9385  -17.5888 C   0  0  0  0  0  0  0  0  0  0  0  0
   -9.2195    4.0868  -16.2245 C   0  0  0  0  0  0  0  0  0  0  0  0
   -8.2596    4.6218  -15.3536 C   0  0  0  0  0  0  0  0  0  0  0  0
   -7.0129    4.9929  -15.8534 C   0  0  0  0  0  0  0  0  0  0  0  0
   -8.6753    4.9879  -13.9824 C   0  0  0  0  0  0  0  0  0  0  0  0
   -9.4550    5.8478  -13.8676 O   0  0  0  0  0  0  0  0  0  0  0  0
   -8.0001    4.1033  -12.9176 N   0  0  0  0  0  0  0  0  0  0  0  0
   -7.3119    3.4916  -13.2661 H   0  0  0  0  0  0  0  0  0  0  0  0
   -8.2045    4.0277  -11.5423 C   0  0  0  0  0  0  0  0  0  0  0  0
   -8.0866    5.1739  -10.7388 C   0  0  0  0  0  0  0  0  0  0  0  0
   -8.2567    5.1005   -9.3542 C   0  0  0  0  0  0  0  0  0  0  0  0
   -8.5754    3.8754   -8.8003 C   0  0  0  0  0  0  0  0  0  0  0  0
   -8.7258    2.7465   -9.5950 C   0  0  0  0  0  0  0  0  0  0  0  0
   -8.5248    2.7967  -10.9663 C   0  0  0  0  0  0  0  0  0  0  0  0
   -9.0938    1.5833   -8.7386 C   0  0  0  0  0  0  0  0  0  0  0  0
   -9.2676    2.1149   -7.3599 N   0  0  0  0  0  0  0  0  0  0  0  0
   -8.7890    3.5132   -7.3721 C   0  0  0  0  0  0  0  0  0  0  0  0
   -8.7197    1.5629   -6.7000 H   0  0  0  0  0  0  0  0  0  0  0  0
   -4.6447    5.1028  -18.6779 C   0  0  0  0  0  0  0  0  0  0  0  0
   -3.8733    4.8626  -19.5108 N   0  0  0  0  0  0  0  0  0  0  0  0
   -5.5302    4.4830  -14.0880 O   0  0  0  0  0  0  0  0  0  0  0  0
   -4.6185    4.8440  -13.0572 C   0  0  0  0  0  0  0  0  0  0  0  0
   -4.5613    3.7431  -12.0042 C   0  0  0  0  0  0  0  0  0  0  0  0
   -3.8106    2.5008  -12.4599 C   0  0  0  0  0  0  0  0  0  0  0  0
   -4.6583    1.3651  -12.3244 O   0  0  0  0  0  0  0  0  0  0  0  0
   -4.9206    1.2664  -11.3958 H   0  0  0  0  0  0  0  0  0  0  0  0
  2  1  1  0  0  0
  2 28  1  0  0  0
 28 29  1  0  0  0
 29 30  1  0  0  0
 30 31  1  0  0  0
 31 32  1  0  0  0
  2  3  1  0  0  0
  3  4  2  0  0  0
  3  5  1  0  0  0
  5 26  1  0  0  0
 26 27  3  0  0  0
  5  6  1  0  0  0
  6  7  2  0  0  0
  7  8  1  0  0  0
  8  9  2  0  0  0
  9 10  1  0  0  0
 10 12  1  0  0  0
 12 13  2  0  0  0
 12 14  1  0  0  0
 14 16  1  0  0  0
 16 17  2  0  0  0
 17 18  1  0  0  0
 18 19  2  0  0  0
 19 20  1  0  0  0
 20 21  2  0  0  0
 20 22  1  0  0  0
 22 23  1  0  0  0
 23 24  1  0  0  0
 10 11  2  0  0  0
 11  2  1  0  0  0
 11  6  1  0  0  0
 21 16  1  0  0  0
 24 19  1  0  0  0
 32 33  1  0  0  0
 14 15  1  0  0  0
 23 25  1  0  0  0
M  END
> <minimizedAffinity>
-9.28457

> <minimizedRMSD>
1.05070

$$$$
P23326


 32 35  0  0  0  0  0  0  0  0999 V2000
   -5.8641    5.7257  -15.4816 C   0  0  0  0  0  0  0  0  0  0  0  0
   -5.4078    5.2031  -14.1224 C   0  0  0  0  0  0  0  0  0  0  0  0
   -4.8383    5.4187  -16.6001 C   0  0  0  0  0  0  0  0  0  0  0  0
   -3.6175    5.4396  -16.4667 O   0  0  0  0  0  0  0  0  0  0  0  0
   -5.5613    5.1548  -17.9122 C   0  0  0  0  0  0  0  0  0  0  0  0
   -6.9368    4.7750  -17.4250 C   0  0  0  0  0  0  0  0  0  0  0  0
   -7.9442    4.1784  -18.1742 C   0  0  0  0  0  0  0  0  0  0  0  0
   -9.1307    3.8253  -17.5362 C   0  0  0  0  0  0  0  0  0  0  0  0
   -9.3057    4.0885  -16.1706 C   0  0  0  0  0  0  0  0  0  0  0  0
   -8.3036    4.7272  -15.4248 C   0  0  0  0  0  0  0  0  0  0  0  0
   -7.1058    5.0610  -16.0508 C   0  0  0  0  0  0  0  0  0  0  0  0
   -8.5920    5.1328  -14.0259 C   0  0  0  0  0  0  0  0  0  0  0  0
   -9.0168    6.2019  -13.8356 O   0  0  0  0  0  0  0  0  0  0  0  0
   -8.2713    3.9924  -13.0357 N   0  0  0  0  0  0  0  0  0  0  0  0
   -7.9896    3.1482  -13.4565 H   0  0  0  0  0  0  0  0  0  0  0  0
   -8.3158    3.9637  -11.6432 C   0  0  0  0  0  0  0  0  0  0  0  0
   -8.0380    5.1179  -10.8936 C   0  0  0  0  0  0  0  0  0  0  0  0
   -8.0930    5.0963   -9.4975 C   0  0  0  0  0  0  0  0  0  0  0  0
   -8.4401    3.9119   -8.8749 C   0  0  0  0  0  0  0  0  0  0  0  0
   -8.7187    2.7684   -9.6121 C   0  0  0  0  0  0  0  0  0  0  0  0
   -8.6530    2.7713  -10.9973 C   0  0  0  0  0  0  0  0  0  0  0  0
   -9.0647    1.6528   -8.6854 C   0  0  0  0  0  0  0  0  0  0  0  0
   -9.1271    2.2465   -7.3235 N   0  0  0  0  0  0  0  0  0  0  0  0
   -8.5854    3.6185   -7.4223 C   0  0  0  0  0  0  0  0  0  0  0  0
   -8.5657    1.6945   -6.6751 H   0  0  0  0  0  0  0  0  0  0  0  0
   -5.5350    6.3881  -18.6884 C   0  0  0  0  0  0  0  0  0  0  0  0
   -5.5860    7.3837  -19.2890 N   0  0  0  0  0  0  0  0  0  0  0  0
   -6.0961    7.1348  -15.5400 O   0  0  0  0  0  0  0  0  0  0  0  0
   -5.2709    7.9520  -14.7066 C   0  0  0  0  0  0  0  0  0  0  0  0
   -4.5928    9.0199  -15.5672 C   0  0  0  0  0  0  0  0  0  0  0  0
   -5.6097   10.3894  -17.1963 C   0  0  0  0  0  0  0  0  0  0  0  0
   -5.4972   10.1007  -15.8113 O   0  0  0  0  0  0  0  0  0  0  0  0
 31 32  1  0  0  0
 32 30  1  0  0  0
 30 29  1  0  0  0
 29 28  1  0  0  0
 28  1  1  0  0  0
  1  2  1  0  0  0
  1  3  1  0  0  0
  3  4  2  0  0  0
  3  5  1  0  0  0
  5 26  1  0  0  0
 26 27  3  0  0  0
  5  6  1  0  0  0
  6  7  2  0  0  0
  7  8  1  0  0  0
  8  9  2  0  0  0
  9 10  1  0  0  0
 10 12  1  0  0  0
 12 13  2  0  0  0
 12 14  1  0  0  0
 14 16  1  0  0  0
 16 17  2  0  0  0
 17 18  1  0  0  0
 18 19  2  0  0  0
 19 20  1  0  0  0
 20 21  2  0  0  0
 20 22  1  0  0  0
 22 23  1  0  0  0
 23 24  1  0  0  0
 10 11  2  0  0  0
 11  1  1  0  0  0
 11  6  1  0  0  0
 21 16  1  0  0  0
 24 19  1  0  0  0
 14 15  1  0  0  0
 23 25  1  0  0  0
M  END
> <minimizedAffinity>
-7.83217

> <minimizedRMSD>
0.70603

$$$$
P23327


 27 30  0  0  0  0  0  0  0  0999 V2000
   -8.1911    4.0271  -13.1704 N   0  0  0  0  0  0  0  0  0  0  0  0
   -8.8698    4.9279  -14.2299 C   0  0  0  0  0  0  0  0  0  0  0  0
   -9.6531    5.7847  -14.1049 O   0  0  0  0  0  0  0  0  0  0  0  0
   -7.6161    3.3183  -13.5394 H   0  0  0  0  0  0  0  0  0  0  0  0
   -7.8575    6.5779   -8.9460 C   0  0  0  0  0  0  0  0  0  0  0  0
   -8.1265    5.3002   -9.6762 C   0  0  0  0  0  0  0  0  0  0  0  0
   -8.0461    5.2521  -11.0762 C   0  0  0  0  0  0  0  0  0  0  0  0
   -8.2615    4.0560  -11.7793 C   0  0  0  0  0  0  0  0  0  0  0  0
   -8.5526    2.8792  -11.0889 C   0  0  0  0  0  0  0  0  0  0  0  0
   -8.6398    2.9331   -9.7067 C   0  0  0  0  0  0  0  0  0  0  0  0
   -8.4224    4.1180   -9.0105 C   0  0  0  0  0  0  0  0  0  0  0  0
   -8.5625    3.8564   -7.5477 C   0  0  0  0  0  0  0  0  0  0  0  0
   -9.0675    2.4747   -7.4117 N   0  0  0  0  0  0  0  0  0  0  0  0
   -8.9472    1.8351   -8.7455 C   0  0  0  0  0  0  0  0  0  0  0  0
  -10.0435    2.4861   -7.1155 H   0  0  0  0  0  0  0  0  0  0  0  0
   -8.3896    4.5435  -15.5850 C   0  0  0  0  0  0  0  0  0  0  0  0
   -9.2534    4.0833  -16.5109 C   0  0  0  0  0  0  0  0  0  0  0  0
   -8.9104    3.9445  -17.9179 C   0  0  0  0  0  0  0  0  0  0  0  0
   -7.7125    4.3279  -18.3879 C   0  0  0  0  0  0  0  0  0  0  0  0
   -6.7384    4.8199  -17.4635 C   0  0  0  0  0  0  0  0  0  0  0  0
   -7.0262    4.9069  -16.0240 C   0  0  0  0  0  0  0  0  0  0  0  0
   -6.0359    5.3143  -15.3025 N   0  0  0  0  0  0  0  0  0  0  0  0
   -5.0144    5.5522  -16.1816 C   0  0  0  0  0  0  0  0  0  0  0  0
   -3.8835    5.9130  -15.9040 O   0  0  0  0  0  0  0  0  0  0  0  0
   -5.4952    5.2837  -17.5476 C   0  0  0  0  0  0  0  0  0  0  0  0
   -4.6753    5.5039  -18.6592 C   0  0  0  0  0  0  0  0  0  0  0  0
   -4.0090    5.5356  -19.6089 N   0  0  0  0  0  0  0  0  0  0  0  0
  5  6  1  0  0  0
  6  7  2  0  0  0
  7  8  1  0  0  0
  8  1  1  0  0  0
  1  2  1  0  0  0
  2  3  2  0  0  0
  2 16  1  0  0  0
 16 17  2  0  0  0
 17 18  1  0  0  0
 18 19  2  0  0  0
 19 20  1  0  0  0
 20 21  1  0  0  0
 21 22  2  0  0  0
 22 23  1  0  0  0
 23 24  2  0  0  0
 23 25  1  0  0  0
 25 26  1  0  0  0
 26 27  3  0  0  0
  8  9  2  0  0  0
  9 10  1  0  0  0
 10 11  2  0  0  0
 11 12  1  0  0  0
 12 13  1  0  0  0
 13 14  1  0  0  0
 11  6  1  0  0  0
 21 16  1  0  0  0
 14 10  1  0  0  0
 25 20  2  0  0  0
  1  4  1  0  0  0
 13 15  1  0  0  0
M  END
> <minimizedAffinity>
-9.63253

> <minimizedRMSD>
0.73461

$$$$
P23329


 32 36  0  0  0  0  0  0  0  0999 V2000
   -8.8837    4.8983  -14.2498 C   0  0  0  0  0  0  0  0  0  0  0  0
   -9.6409    5.7759  -14.1104 O   0  0  0  0  0  0  0  0  0  0  0  0
   -8.2098    3.9793  -13.2030 N   0  0  0  0  0  0  0  0  0  0  0  0
   -7.6612    3.2552  -13.5825 H   0  0  0  0  0  0  0  0  0  0  0  0
   -5.5119    5.2842  -17.5717 C   0  0  0  0  0  0  0  0  0  0  0  0
   -6.7560    4.8159  -17.4949 C   0  0  0  0  0  0  0  0  0  0  0  0
   -7.7303    4.3231  -18.4193 C   0  0  0  0  0  0  0  0  0  0  0  0
   -8.9278    3.9336  -17.9514 C   0  0  0  0  0  0  0  0  0  0  0  0
   -9.2768    4.0648  -16.5447 C   0  0  0  0  0  0  0  0  0  0  0  0
   -8.4173    4.5240  -15.6154 C   0  0  0  0  0  0  0  0  0  0  0  0
   -7.0535    4.8869  -16.0546 C   0  0  0  0  0  0  0  0  0  0  0  0
   -6.0663    5.2805  -15.3238 N   0  0  0  0  0  0  0  0  0  0  0  0
   -5.0395    5.5132  -16.1943 C   0  0  0  0  0  0  0  0  0  0  0  0
   -3.9024    5.8297  -15.8975 O   0  0  0  0  0  0  0  0  0  0  0  0
   -3.9881    5.5630  -19.6094 N   0  0  0  0  0  0  0  0  0  0  0  0
   -4.6684    5.5210  -18.6699 C   0  0  0  0  0  0  0  0  0  0  0  0
   -8.2531    4.0100  -11.8096 C   0  0  0  0  0  0  0  0  0  0  0  0
   -8.5531    2.8366  -11.1171 C   0  0  0  0  0  0  0  0  0  0  0  0
   -8.6333    2.8938   -9.7367 C   0  0  0  0  0  0  0  0  0  0  0  0
   -8.3847    4.0770   -9.0416 C   0  0  0  0  0  0  0  0  0  0  0  0
   -8.0110    5.2426   -9.6999 C   0  0  0  0  0  0  0  0  0  0  0  0
   -7.9823    5.1966  -11.1056 C   0  0  0  0  0  0  0  0  0  0  0  0
   -8.5815    3.8212   -7.5811 C   0  0  0  0  0  0  0  0  0  0  0  0
   -9.2799    2.5178   -7.4993 N   0  0  0  0  0  0  0  0  0  0  0  0
   -8.9465    1.8097   -8.7585 C   0  0  0  0  0  0  0  0  0  0  0  0
  -10.2876    2.6575   -7.4250 H   0  0  0  0  0  0  0  0  0  0  0  0
   -7.6023    6.4508   -8.9801 C   0  0  0  0  0  0  0  0  0  0  0  0
   -6.2988    6.5640   -8.4824 C   0  0  0  0  0  0  0  0  0  0  0  0
   -5.9289    7.7254   -7.8246 C   0  0  0  0  0  0  0  0  0  0  0  0
   -6.7580    8.7680   -7.6206 N   0  0  0  0  0  0  0  0  0  0  0  0
   -8.0155    8.6383   -8.0994 C   0  0  0  0  0  0  0  0  0  0  0  0
   -8.4739    7.5233   -8.7859 C   0  0  0  0  0  0  0  0  0  0  0  0
 15 16  3  0  0  0
 16  5  1  0  0  0
  5  6  2  0  0  0
  6  7  1  0  0  0
  7  8  2  0  0  0
  8  9  1  0  0  0
  9 10  2  0  0  0
 10  1  1  0  0  0
  1  2  2  0  0  0
  1  3  1  0  0  0
  3 17  1  0  0  0
 17 18  2  0  0  0
 18 19  1  0  0  0
 19 20  2  0  0  0
 20 21  1  0  0  0
 21 27  1  0  0  0
 27 28  2  0  0  0
 28 29  1  0  0  0
 29 30  2  0  0  0
 30 31  1  0  0  0
 31 32  2  0  0  0
 21 22  2  0  0  0
 20 23  1  0  0  0
 23 24  1  0  0  0
 24 25  1  0  0  0
 10 11  1  0  0  0
 11 12  2  0  0  0
 12 13  1  0  0  0
 13 14  2  0  0  0
 13  5  1  0  0  0
 11  6  1  0  0  0
 22 17  1  0  0  0
 25 19  1  0  0  0
 32 27  1  0  0  0
  3  4  1  0  0  0
 24 26  1  0  0  0
M  END
> <minimizedAffinity>
-9.53715

> <minimizedRMSD>
0.70042

$$$$
P23356


 27 30  0  0  0  0  0  0  0  0999 V2000
   -7.4931    5.1454  -14.4107 C   0  0  0  0  0  0  0  0  0  0  0  0
   -6.8164    6.0900  -14.2828 O   0  0  0  0  0  0  0  0  0  0  0  0
   -8.2143    4.2759  -13.3506 N   0  0  0  0  0  0  0  0  0  0  0  0
   -8.7933    3.5708  -13.7204 H   0  0  0  0  0  0  0  0  0  0  0  0
   -8.1765    4.3296  -11.9570 C   0  0  0  0  0  0  0  0  0  0  0  0
   -7.6043    5.4165  -11.3063 C   0  0  0  0  0  0  0  0  0  0  0  0
   -7.4851    5.4159   -9.9176 C   0  0  0  0  0  0  0  0  0  0  0  0
   -7.9553    4.3444   -9.1683 C   0  0  0  0  0  0  0  0  0  0  0  0
   -8.5835    3.2615   -9.7881 C   0  0  0  0  0  0  0  0  0  0  0  0
   -8.6768    3.2659  -11.2002 C   0  0  0  0  0  0  0  0  0  0  0  0
   -9.0419    2.0423   -9.0320 C   0  0  0  0  0  0  0  0  0  0  0  0
   -9.9345    2.3000   -7.8985 N   0  0  0  0  0  0  0  0  0  0  0  0
   -9.2189    2.8727   -6.7578 C   0  0  0  0  0  0  0  0  0  0  0  0
   -8.7457    4.3043   -6.9749 C   0  0  0  0  0  0  0  0  0  0  0  0
   -7.6245    4.3997   -7.8474 O   0  0  0  0  0  0  0  0  0  0  0  0
  -10.3636    1.4206   -7.6105 H   0  0  0  0  0  0  0  0  0  0  0  0
   -3.8185    5.6062  -18.5710 O   0  0  0  0  0  0  0  0  0  0  0  0
   -4.9490    5.3785  -18.1685 C   0  0  0  0  0  0  0  0  0  0  0  0
   -5.4320    5.4972  -16.7183 C   0  0  0  0  0  0  0  0  0  0  0  0
   -6.8199    4.9352  -16.7990 C   0  0  0  0  0  0  0  0  0  0  0  0
   -7.1132    4.6347  -18.1262 C   0  0  0  0  0  0  0  0  0  0  0  0
   -8.3091    4.0721  -18.5152 C   0  0  0  0  0  0  0  0  0  0  0  0
   -9.2405    3.7883  -17.5167 C   0  0  0  0  0  0  0  0  0  0  0  0
   -8.9597    4.0834  -16.1688 C   0  0  0  0  0  0  0  0  0  0  0  0
   -7.7457    4.6767  -15.7998 C   0  0  0  0  0  0  0  0  0  0  0  0
   -6.0284    4.9467  -18.9321 N   0  0  0  0  0  0  0  0  0  0  0  0
   -6.0231    4.8725  -19.9138 H   0  0  0  0  0  0  0  0  0  0  0  0
 17 18  2  0  0  0
 18 19  1  0  0  0
 19 20  1  0  0  0
 20 21  2  0  0  0
 21 22  1  0  0  0
 22 23  2  0  0  0
 23 24  1  0  0  0
 24 25  2  0  0  0
 25  1  1  0  0  0
  1  2  2  0  0  0
  1  3  1  0  0  0
  3  5  1  0  0  0
  5  6  2  0  0  0
  6  7  1  0  0  0
  7  8  2  0  0  0
  8  9  1  0  0  0
  9 10  2  0  0  0
  9 11  1  0  0  0
 11 12  1  0  0  0
 12 13  1  0  0  0
 13 14  1  0  0  0
 14 15  1  0  0  0
 21 26  1  0  0  0
 26 18  1  0  0  0
 25 20  1  0  0  0
 10  5  1  0  0  0
 15  8  1  0  0  0
  3  4  1  0  0  0
 12 16  1  0  0  0
 26 27  1  0  0  0
M  END
> <minimizedAffinity>
-9.22143

> <minimizedRMSD>
0.52894

$$$$
P23357


 35 39  0  0  0  0  0  0  0  0999 V2000
   -2.4428    6.2631  -17.2981 C   0  0  0  0  0  0  0  0  0  0  0  0
   -3.2220    7.5785  -17.3798 C   0  0  0  0  0  0  0  0  0  0  0  0
   -4.6045    7.2121  -17.9215 C   0  0  0  0  0  0  0  0  0  0  0  0
   -4.8241    5.7631  -17.4827 C   0  0  0  0  0  0  0  0  0  0  0  0
   -5.3378    5.6422  -16.0120 C   0  0  0  0  0  0  0  0  0  0  0  0
   -6.7076    5.0722  -16.2059 C   0  0  0  0  0  0  0  0  0  0  0  0
   -6.9014    4.7997  -17.5578 C   0  0  0  0  0  0  0  0  0  0  0  0
   -8.0744    4.2234  -18.0135 C   0  0  0  0  0  0  0  0  0  0  0  0
   -9.0861    3.9429  -17.0978 C   0  0  0  0  0  0  0  0  0  0  0  0
   -8.9059    4.2328  -15.7381 C   0  0  0  0  0  0  0  0  0  0  0  0
   -7.7096    4.8016  -15.2773 C   0  0  0  0  0  0  0  0  0  0  0  0
   -5.7759    5.0622  -18.3561 N   0  0  0  0  0  0  0  0  0  0  0  0
   -3.4291    5.1683  -17.6907 C   0  0  0  0  0  0  0  0  0  0  0  0
   -5.6507    4.8259  -19.3035 H   0  0  0  0  0  0  0  0  0  0  0  0
    0.9483    6.5173  -19.1374 C   0  0  0  0  0  0  0  0  0  0  0  0
    0.0284    7.0852  -18.0781 C   0  0  0  0  0  0  0  0  0  0  0  0
    0.3073    7.9921  -17.4004 O   0  0  0  0  0  0  0  0  0  0  0  0
   -1.2637    6.2335  -18.1328 N   0  0  0  0  0  0  0  0  0  0  0  0
   -1.2853    5.5630  -18.8533 H   0  0  0  0  0  0  0  0  0  0  0  0
   -7.6010    5.2513  -13.8593 C   0  0  0  0  0  0  0  0  0  0  0  0
   -7.1928    6.3303  -13.6659 O   0  0  0  0  0  0  0  0  0  0  0  0
   -8.1649    4.1964  -12.8689 N   0  0  0  0  0  0  0  0  0  0  0  0
   -8.5193    3.3814  -13.2925 H   0  0  0  0  0  0  0  0  0  0  0  0
   -8.2511    4.2160  -11.4750 C   0  0  0  0  0  0  0  0  0  0  0  0
   -7.9290    5.3543  -10.7470 C   0  0  0  0  0  0  0  0  0  0  0  0
   -7.9693    5.3269   -9.3504 C   0  0  0  0  0  0  0  0  0  0  0  0
   -8.3326    4.1695   -8.6677 C   0  0  0  0  0  0  0  0  0  0  0  0
   -8.6748    3.0139   -9.3710 C   0  0  0  0  0  0  0  0  0  0  0  0
   -8.6431    3.0617  -10.7882 C   0  0  0  0  0  0  0  0  0  0  0  0
   -8.9903    1.6802   -8.7364 C   0  0  0  0  0  0  0  0  0  0  0  0
   -9.0735    1.6038   -7.2834 N   0  0  0  0  0  0  0  0  0  0  0  0
   -9.9599    2.5926   -6.7122 C   0  0  0  0  0  0  0  0  0  0  0  0
   -9.2986    3.9590   -6.5155 C   0  0  0  0  0  0  0  0  0  0  0  0
   -8.1497    4.2322   -7.3209 O   0  0  0  0  0  0  0  0  0  0  0  0
   -8.1399    1.7435   -6.8972 H   0  0  0  0  0  0  0  0  0  0  0  0
 15 16  1  0  0  0
 16 17  2  0  0  0
 16 18  1  0  0  0
  1 18  1  0  0  0
  1  2  1  0  0  0
  2  3  1  0  0  0
  4  3  1  0  0  0
  4  5  1  0  0  0
  5  6  1  0  0  0
  6  7  2  0  0  0
  7  8  1  0  0  0
  8  9  2  0  0  0
  9 10  1  0  0  0
 10 11  2  0  0  0
 11 20  1  0  0  0
 20 21  2  0  0  0
 20 22  1  0  0  0
 22 24  1  0  0  0
 24 25  2  0  0  0
 25 26  1  0  0  0
 26 27  2  0  0  0
 27 28  1  0  0  0
 28 29  2  0  0  0
 28 30  1  0  0  0
 30 31  1  0  0  0
 31 32  1  0  0  0
 32 33  1  0  0  0
 33 34  1  0  0  0
  7 12  1  0  0  0
  4 13  1  0  0  0
 13  1  1  0  0  0
 12  4  1  0  0  0
 11  6  1  0  0  0
 29 24  1  0  0  0
 34 27  1  0  0  0
 18 19  1  0  0  0
 22 23  1  0  0  0
 31 35  1  0  0  0
 12 14  1  0  0  0
M  END
> <minimizedAffinity>
-9.85955

> <minimizedRMSD>
0.17162

$$$$
P23358


 30 33  0  0  0  0  0  0  0  0999 V2000
   -7.9148    4.1258  -13.1489 N   0  0  0  0  0  0  0  0  0  0  0  0
   -7.4735    5.1739  -14.2047 C   0  0  0  0  0  0  0  0  0  0  0  0
   -7.0604    6.2583  -14.0682 O   0  0  0  0  0  0  0  0  0  0  0  0
   -8.1571    3.2458  -13.5178 H   0  0  0  0  0  0  0  0  0  0  0  0
   -7.8642    6.9307   -9.1012 C   0  0  0  0  0  0  0  0  0  0  0  0
   -8.0297    5.5724   -9.7321 C   0  0  0  0  0  0  0  0  0  0  0  0
   -7.8366    5.4471  -11.1176 C   0  0  0  0  0  0  0  0  0  0  0  0
   -8.0242    4.2281  -11.7580 C   0  0  0  0  0  0  0  0  0  0  0  0
   -8.3778    3.1124  -10.9939 C   0  0  0  0  0  0  0  0  0  0  0  0
   -8.5911    3.2071   -9.5933 C   0  0  0  0  0  0  0  0  0  0  0  0
   -8.4294    4.4594   -8.9758 C   0  0  0  0  0  0  0  0  0  0  0  0
   -8.7318    4.7694   -7.6768 O   0  0  0  0  0  0  0  0  0  0  0  0
   -8.5876    3.7323   -6.7154 C   0  0  0  0  0  0  0  0  0  0  0  0
   -9.7866    2.7924   -6.6971 C   0  0  0  0  0  0  0  0  0  0  0  0
  -10.1131    2.1176   -7.9440 N   0  0  0  0  0  0  0  0  0  0  0  0
   -8.9870    1.9466   -8.8540 C   0  0  0  0  0  0  0  0  0  0  0  0
  -10.8293    2.6633   -8.4231 H   0  0  0  0  0  0  0  0  0  0  0  0
   -7.7161    4.7097  -15.6007 C   0  0  0  0  0  0  0  0  0  0  0  0
   -8.9575    4.1540  -15.9487 C   0  0  0  0  0  0  0  0  0  0  0  0
   -9.2647    3.8368  -17.2850 C   0  0  0  0  0  0  0  0  0  0  0  0
   -8.3446    4.0769  -18.3023 C   0  0  0  0  0  0  0  0  0  0  0  0
   -7.1436    4.6481  -17.9441 C   0  0  0  0  0  0  0  0  0  0  0  0
   -6.8164    4.9716  -16.6243 C   0  0  0  0  0  0  0  0  0  0  0  0
   -5.4611    5.6168  -16.6014 C   0  0  0  0  0  0  0  0  0  0  0  0
   -5.4450    6.8787  -16.0884 F   0  0  0  0  0  0  0  0  0  0  0  0
   -4.5379    4.8957  -15.9008 F   0  0  0  0  0  0  0  0  0  0  0  0
   -5.1049    5.6654  -18.1275 C   0  0  0  0  0  0  0  0  0  0  0  0
   -4.1307    6.1908  -18.6494 O   0  0  0  0  0  0  0  0  0  0  0  0
   -6.1381    5.0339  -18.8163 N   0  0  0  0  0  0  0  0  0  0  0  0
   -6.1520    4.8825  -19.7890 H   0  0  0  0  0  0  0  0  0  0  0  0
  5  6  1  0  0  0
  6  7  2  0  0  0
  7  8  1  0  0  0
  8  1  1  0  0  0
  1  2  1  0  0  0
  2  3  2  0  0  0
  2 18  1  0  0  0
 18 19  2  0  0  0
 19 20  1  0  0  0
 20 21  2  0  0  0
 21 22  1  0  0  0
 22 23  2  0  0  0
 23 24  1  0  0  0
 24 25  1  0  0  0
 24 26  1  0  0  0
 24 27  1  0  0  0
 27 28  2  0  0  0
 27 29  1  0  0  0
  8  9  2  0  0  0
  9 10  1  0  0  0
 10 11  2  0  0  0
 11 12  1  0  0  0
 12 13  1  0  0  0
 13 14  1  0  0  0
 14 15  1  0  0  0
 15 16  1  0  0  0
 11  6  1  0  0  0
 23 18  1  0  0  0
 16 10  1  0  0  0
 29 22  1  0  0  0
  1  4  1  0  0  0
 29 30  1  0  0  0
 15 17  1  0  0  0
M  END
> <minimizedAffinity>
-9.93674

> <minimizedRMSD>
0.69756

$$$$
P23367


 28 31  0  0  0  0  0  0  0  0999 V2000
   -7.1453    4.5810  -13.6787 C   0  0  0  0  0  0  0  0  0  0  0  0
   -6.1337    4.1342  -13.1542 O   0  0  0  0  0  0  0  0  0  0  0  0
   -4.7960    6.8648  -14.9416 C   0  0  0  0  0  0  0  0  0  0  0  0
   -4.8724    5.5412  -15.6908 C   0  0  0  0  0  0  0  0  0  0  0  0
   -4.2801    5.7422  -17.1027 C   0  0  0  0  0  0  0  0  0  0  0  0
   -3.1339    6.0669  -17.3759 O   0  0  0  0  0  0  0  0  0  0  0  0
   -5.3083    5.5260  -18.0106 N   0  0  0  0  0  0  0  0  0  0  0  0
   -5.1849    5.7271  -19.4263 C   0  0  0  0  0  0  0  0  0  0  0  0
   -6.4766    5.1057  -17.3749 C   0  0  0  0  0  0  0  0  0  0  0  0
   -7.6642    4.7156  -17.9673 C   0  0  0  0  0  0  0  0  0  0  0  0
   -8.6901    4.2676  -17.1471 C   0  0  0  0  0  0  0  0  0  0  0  0
   -8.5090    4.2250  -15.7593 C   0  0  0  0  0  0  0  0  0  0  0  0
   -7.3065    4.6387  -15.1565 C   0  0  0  0  0  0  0  0  0  0  0  0
   -6.2822    5.0816  -15.9895 C   0  0  0  0  0  0  0  0  0  0  0  0
   -8.2137    5.1790  -12.7884 C   0  0  0  0  0  0  0  0  0  0  0  0
   -9.0375    5.9588  -13.2601 O   0  0  0  0  0  0  0  0  0  0  0  0
   -8.1642    4.9552  -11.3361 C   0  0  0  0  0  0  0  0  0  0  0  0
   -8.0049    6.0783  -10.5276 C   0  0  0  0  0  0  0  0  0  0  0  0
   -8.1760    5.9599   -9.1543 C   0  0  0  0  0  0  0  0  0  0  0  0
   -8.5340    4.7329   -8.5855 C   0  0  0  0  0  0  0  0  0  0  0  0
   -8.6591    3.5808   -9.3860 C   0  0  0  0  0  0  0  0  0  0  0  0
   -8.4432    3.7054  -10.7784 C   0  0  0  0  0  0  0  0  0  0  0  0
   -9.0818    2.2246   -8.8671 C   0  0  0  0  0  0  0  0  0  0  0  0
  -10.0822    2.2725   -7.8143 N   0  0  0  0  0  0  0  0  0  0  0  0
   -9.4944    2.5738   -6.5176 C   0  0  0  0  0  0  0  0  0  0  0  0
   -8.5061    3.7391   -6.4635 C   0  0  0  0  0  0  0  0  0  0  0  0
   -8.9059    4.8412   -7.2656 O   0  0  0  0  0  0  0  0  0  0  0  0
  -10.5489    1.3671   -7.7620 H   0  0  0  0  0  0  0  0  0  0  0  0
  4  3  1  0  0  0
  4  5  1  0  0  0
  5  6  2  0  0  0
  5  7  1  0  0  0
  7  8  1  0  0  0
  7  9  1  0  0  0
  9 10  2  0  0  0
 10 11  1  0  0  0
 11 12  2  0  0  0
 12 13  1  0  0  0
 13  1  1  0  0  0
  1  2  2  0  0  0
  1 15  1  0  0  0
 15 16  2  0  0  0
 15 17  1  0  0  0
 17 18  2  0  0  0
 18 19  1  0  0  0
 19 20  2  0  0  0
 20 21  1  0  0  0
 21 22  2  0  0  0
 21 23  1  0  0  0
 23 24  1  0  0  0
 24 25  1  0  0  0
 25 26  1  0  0  0
 26 27  1  0  0  0
 13 14  2  0  0  0
 14  4  1  0  0  0
 14  9  1  0  0  0
 22 17  1  0  0  0
 27 20  1  0  0  0
 24 28  1  0  0  0
M  END
> <minimizedAffinity>
-8.79065

> <minimizedRMSD>
0.35108

$$$$
P23370


 28 31  0  0  0  0  0  0  0  0999 V2000
   -7.4036    5.5765  -13.6329 C   0  0  0  0  0  0  0  0  0  0  0  0
   -7.2042    6.7058  -13.4078 O   0  0  0  0  0  0  0  0  0  0  0  0
   -7.8459    4.4277  -12.6917 N   0  0  0  0  0  0  0  0  0  0  0  0
   -8.0216    3.5702  -13.1423 H   0  0  0  0  0  0  0  0  0  0  0  0
   -2.8184    6.0828  -16.8131 O   0  0  0  0  0  0  0  0  0  0  0  0
   -3.9973    5.8073  -16.6655 C   0  0  0  0  0  0  0  0  0  0  0  0
   -4.7991    5.8829  -15.3591 C   0  0  0  0  0  0  0  0  0  0  0  0
   -6.1368    5.3509  -15.7774 C   0  0  0  0  0  0  0  0  0  0  0  0
   -6.0993    5.0661  -17.1411 C   0  0  0  0  0  0  0  0  0  0  0  0
   -7.1745    4.5747  -17.8303 C   0  0  0  0  0  0  0  0  0  0  0  0
   -8.3375    4.3831  -17.0984 C   0  0  0  0  0  0  0  0  0  0  0  0
   -9.9022    3.9709  -18.0269 Br  0  0  0  0  0  0  0  0  0  0  0  0
   -8.4107    4.6326  -15.7197 C   0  0  0  0  0  0  0  0  0  0  0  0
   -7.2937    5.1301  -15.0448 C   0  0  0  0  0  0  0  0  0  0  0  0
   -4.8523    5.3592  -17.6594 N   0  0  0  0  0  0  0  0  0  0  0  0
   -4.6048    5.2626  -18.6073 H   0  0  0  0  0  0  0  0  0  0  0  0
   -8.0354    4.4111  -11.3113 C   0  0  0  0  0  0  0  0  0  0  0  0
   -7.6818    5.5070  -10.5352 C   0  0  0  0  0  0  0  0  0  0  0  0
   -7.7803    5.4372   -9.1475 C   0  0  0  0  0  0  0  0  0  0  0  0
   -8.2471    4.2840   -8.5273 C   0  0  0  0  0  0  0  0  0  0  0  0
   -8.6631    3.1853   -9.2839 C   0  0  0  0  0  0  0  0  0  0  0  0
   -8.5476    3.2671  -10.6917 C   0  0  0  0  0  0  0  0  0  0  0  0
   -9.0798    1.8745   -8.6701 C   0  0  0  0  0  0  0  0  0  0  0  0
  -10.1237    1.9524   -7.6458 N   0  0  0  0  0  0  0  0  0  0  0  0
   -9.6181    2.5142   -6.3937 C   0  0  0  0  0  0  0  0  0  0  0  0
   -9.3137    4.0040   -6.4666 C   0  0  0  0  0  0  0  0  0  0  0  0
   -8.1129    4.2978   -7.1715 O   0  0  0  0  0  0  0  0  0  0  0  0
  -10.4800    1.0137   -7.4660 H   0  0  0  0  0  0  0  0  0  0  0  0
  5  6  2  0  0  0
  6  7  1  0  0  0
  7  8  1  0  0  0
  8  9  2  0  0  0
  9 10  1  0  0  0
 10 11  2  0  0  0
 11 12  1  0  0  0
 11 13  1  0  0  0
 13 14  2  0  0  0
 14  1  1  0  0  0
  1  2  2  0  0  0
  1  3  1  0  0  0
  3 17  1  0  0  0
 17 18  2  0  0  0
 18 19  1  0  0  0
 19 20  2  0  0  0
 20 21  1  0  0  0
 21 22  2  0  0  0
 21 23  1  0  0  0
 23 24  1  0  0  0
 24 25  1  0  0  0
 25 26  1  0  0  0
 26 27  1  0  0  0
  9 15  1  0  0  0
 15  6  1  0  0  0
 14  8  1  0  0  0
 22 17  1  0  0  0
 27 20  1  0  0  0
  3  4  1  0  0  0
 24 28  1  0  0  0
 15 16  1  0  0  0
M  END
> <minimizedAffinity>
-8.48791

> <minimizedRMSD>
0.41573

$$$$
P23371


 28 31  0  0  0  0  0  0  0  0999 V2000
   -7.2405    5.1407  -14.1992 C   0  0  0  0  0  0  0  0  0  0  0  0
   -6.5809    6.0899  -14.0198 O   0  0  0  0  0  0  0  0  0  0  0  0
   -7.9755    4.2203  -13.1874 N   0  0  0  0  0  0  0  0  0  0  0  0
   -8.5348    3.5212  -13.5969 H   0  0  0  0  0  0  0  0  0  0  0  0
   -3.5625    5.7565  -18.3963 O   0  0  0  0  0  0  0  0  0  0  0  0
   -4.6681    5.4740  -17.9658 C   0  0  0  0  0  0  0  0  0  0  0  0
   -5.1277    5.4984  -16.4989 C   0  0  0  0  0  0  0  0  0  0  0  0
   -6.5424    4.9993  -16.5976 C   0  0  0  0  0  0  0  0  0  0  0  0
   -6.8380    4.7696  -17.9398 C   0  0  0  0  0  0  0  0  0  0  0  0
   -8.0572    4.3184  -18.3690 C   0  0  0  0  0  0  0  0  0  0  0  0
   -9.0257    4.1243  -17.3962 C   0  0  0  0  0  0  0  0  0  0  0  0
  -10.6152    3.7839  -17.9120 Cl  0  0  0  0  0  0  0  0  0  0  0  0
   -8.7629    4.3230  -16.0301 C   0  0  0  0  0  0  0  0  0  0  0  0
   -7.4995    4.7638  -15.6166 C   0  0  0  0  0  0  0  0  0  0  0  0
   -5.7486    5.0710  -18.7342 N   0  0  0  0  0  0  0  0  0  0  0  0
   -5.7409    5.0078  -19.7167 H   0  0  0  0  0  0  0  0  0  0  0  0
   -7.9720    4.2231  -11.7913 C   0  0  0  0  0  0  0  0  0  0  0  0
   -7.3750    5.2675  -11.0979 C   0  0  0  0  0  0  0  0  0  0  0  0
   -7.3490    5.2605   -9.7059 C   0  0  0  0  0  0  0  0  0  0  0  0
   -7.9499    4.2344   -8.9884 C   0  0  0  0  0  0  0  0  0  0  0  0
   -8.5731    3.1712   -9.6530 C   0  0  0  0  0  0  0  0  0  0  0  0
   -8.5711    3.1821  -11.0721 C   0  0  0  0  0  0  0  0  0  0  0  0
   -9.3001    2.0470   -8.9522 C   0  0  0  0  0  0  0  0  0  0  0  0
   -8.8303    1.6951   -7.6257 N   0  0  0  0  0  0  0  0  0  0  0  0
   -9.1822    2.6487   -6.5819 C   0  0  0  0  0  0  0  0  0  0  0  0
   -8.9945    4.1239   -6.9094 C   0  0  0  0  0  0  0  0  0  0  0  0
   -7.8008    4.3728   -7.6383 O   0  0  0  0  0  0  0  0  0  0  0  0
   -7.8135    1.6207   -7.6582 H   0  0  0  0  0  0  0  0  0  0  0  0
  5  6  2  0  0  0
  6  7  1  0  0  0
  7  8  1  0  0  0
  8  9  2  0  0  0
  9 10  1  0  0  0
 10 11  2  0  0  0
 11 12  1  0  0  0
 11 13  1  0  0  0
 13 14  2  0  0  0
 14  1  1  0  0  0
  1  2  2  0  0  0
  1  3  1  0  0  0
  3 17  1  0  0  0
 17 18  2  0  0  0
 18 19  1  0  0  0
 19 20  2  0  0  0
 20 21  1  0  0  0
 21 22  2  0  0  0
 21 23  1  0  0  0
 23 24  1  0  0  0
 24 25  1  0  0  0
 25 26  1  0  0  0
 26 27  1  0  0  0
  9 15  1  0  0  0
 15  6  1  0  0  0
 14  8  1  0  0  0
 22 17  1  0  0  0
 27 20  1  0  0  0
  3  4  1  0  0  0
 24 28  1  0  0  0
 15 16  1  0  0  0
M  END
> <minimizedAffinity>
-9.07430

> <minimizedRMSD>
0.33379

$$$$
P23372


 27 30  0  0  0  0  0  0  0  0999 V2000
   -7.6569    5.2401  -13.9073 C   0  0  0  0  0  0  0  0  0  0  0  0
   -7.3489    6.3526  -13.7216 O   0  0  0  0  0  0  0  0  0  0  0  0
   -7.9960    4.1108  -12.9020 N   0  0  0  0  0  0  0  0  0  0  0  0
   -8.1535    3.2290  -13.3104 H   0  0  0  0  0  0  0  0  0  0  0  0
   -8.1144    4.1405  -11.5120 C   0  0  0  0  0  0  0  0  0  0  0  0
   -7.6714    5.2547  -10.8109 C   0  0  0  0  0  0  0  0  0  0  0  0
   -7.7247    5.2755   -9.4216 C   0  0  0  0  0  0  0  0  0  0  0  0
   -8.2546    4.2054   -8.7127 C   0  0  0  0  0  0  0  0  0  0  0  0
   -8.7276    3.0718   -9.3864 C   0  0  0  0  0  0  0  0  0  0  0  0
   -8.6397    3.0548  -10.8041 C   0  0  0  0  0  0  0  0  0  0  0  0
   -9.3852    1.8957   -8.7018 C   0  0  0  0  0  0  0  0  0  0  0  0
   -8.8702    1.5399   -7.3925 N   0  0  0  0  0  0  0  0  0  0  0  0
   -9.2212    2.4519   -6.3129 C   0  0  0  0  0  0  0  0  0  0  0  0
   -9.3096    3.9329   -6.6406 C   0  0  0  0  0  0  0  0  0  0  0  0
   -8.1835    4.3978   -7.3642 O   0  0  0  0  0  0  0  0  0  0  0  0
   -7.8528    1.5026   -7.4543 H   0  0  0  0  0  0  0  0  0  0  0  0
   -3.3411    5.8399  -17.2954 O   0  0  0  0  0  0  0  0  0  0  0  0
   -4.5093    5.5660  -17.0975 C   0  0  0  0  0  0  0  0  0  0  0  0
   -5.2564    5.5683  -15.7824 C   0  0  0  0  0  0  0  0  0  0  0  0
   -6.6208    5.0461  -16.1610 C   0  0  0  0  0  0  0  0  0  0  0  0
   -7.7121    4.8026  -15.3275 C   0  0  0  0  0  0  0  0  0  0  0  0
   -8.8879    4.2895  -15.8932 C   0  0  0  0  0  0  0  0  0  0  0  0
   -8.9690    4.0337  -17.2751 C   0  0  0  0  0  0  0  0  0  0  0  0
   -7.8828    4.2958  -18.1113 C   0  0  0  0  0  0  0  0  0  0  0  0
   -6.7312    4.7976  -17.5337 C   0  0  0  0  0  0  0  0  0  0  0  0
   -5.4754    5.1660  -18.1931 C   0  0  0  0  0  0  0  0  0  0  0  0
   -5.2228    5.2076  -19.3719 O   0  0  0  0  0  0  0  0  0  0  0  0
 17 18  2  0  0  0
 18 19  1  0  0  0
 19 20  1  0  0  0
 20 21  2  0  0  0
 21  1  1  0  0  0
  1  2  2  0  0  0
  1  3  1  0  0  0
  3  5  1  0  0  0
  5  6  2  0  0  0
  6  7  1  0  0  0
  7  8  2  0  0  0
  8  9  1  0  0  0
  9 10  2  0  0  0
  9 11  1  0  0  0
 11 12  1  0  0  0
 12 13  1  0  0  0
 13 14  1  0  0  0
 14 15  1  0  0  0
 21 22  1  0  0  0
 22 23  2  0  0  0
 23 24  1  0  0  0
 24 25  2  0  0  0
 25 26  1  0  0  0
 26 27  2  0  0  0
 26 18  1  0  0  0
 25 20  1  0  0  0
 10  5  1  0  0  0
 15  8  1  0  0  0
  3  4  1  0  0  0
 12 16  1  0  0  0
M  END
> <minimizedAffinity>
-9.20712

> <minimizedRMSD>
0.29143

$$$$
P23423


 50 54  0  0  0  0  0  0  0  0999 V2000
   -5.9543    5.2211  -16.9711 C   0  0  0  0  0  0  0  0  0  0  0  0
   -7.1226    4.7126  -17.5454 C   0  0  0  0  0  0  0  0  0  0  0  0
   -8.1488    4.2478  -16.7403 C   0  0  0  0  0  0  0  0  0  0  0  0
   -9.7056    3.5592  -17.5304 Br  0  0  0  0  0  0  0  0  0  0  0  0
   -8.0459    4.2945  -15.3566 C   0  0  0  0  0  0  0  0  0  0  0  0
   -6.8911    4.8050  -14.7259 C   0  0  0  0  0  0  0  0  0  0  0  0
   -5.8699    5.3169  -15.5633 C   0  0  0  0  0  0  0  0  0  0  0  0
   -2.8697    4.7769  -17.1831 O   0  0  0  0  0  0  0  0  0  0  0  0
   -3.5785    5.3895  -17.9218 C   0  0  0  0  0  0  0  0  0  0  0  0
   -4.9777    5.5946  -17.9059 N   0  0  0  0  0  0  0  0  0  0  0  0
   -5.3264    6.0840  -18.6857 H   0  0  0  0  0  0  0  0  0  0  0  0
   -3.1294    6.0656  -19.0106 O   0  0  0  0  0  0  0  0  0  0  0  0
   -2.5188    5.2510  -20.0169 C   0  0  0  0  0  0  0  0  0  0  0  0
   -3.1184    5.6361  -21.3476 C   0  0  0  0  0  0  0  0  0  0  0  0
   -4.5110    5.7142  -21.5016 C   0  0  0  0  0  0  0  0  0  0  0  0
   -5.0722    6.0626  -22.7305 C   0  0  0  0  0  0  0  0  0  0  0  0
   -4.2479    6.3358  -23.8201 C   0  0  0  0  0  0  0  0  0  0  0  0
   -2.8628    6.2601  -23.6811 C   0  0  0  0  0  0  0  0  0  0  0  0
   -2.2998    5.9110  -22.4516 C   0  0  0  0  0  0  0  0  0  0  0  0
   -6.8746    4.9598  -13.1983 C   0  0  0  0  0  0  0  0  0  0  0  0
   -7.1148    6.3532  -13.0195 O   0  0  0  0  0  0  0  0  0  0  0  0
   -7.9338    6.6013  -13.4762 H   0  0  0  0  0  0  0  0  0  0  0  0
   -5.5088    4.5081  -12.4457 C   0  0  0  0  0  0  0  0  0  0  0  0
   -4.9519    5.3449  -11.7839 O   0  0  0  0  0  0  0  0  0  0  0  0
   -5.2242    3.1059  -12.6230 N   0  0  0  0  0  0  0  0  0  0  0  0
   -5.7930    2.6546  -13.2879 H   0  0  0  0  0  0  0  0  0  0  0  0
   -4.2438    2.2479  -11.9894 C   0  0  0  0  0  0  0  0  0  0  0  0
   -2.8665    2.1463  -12.6427 C   0  0  0  0  0  0  0  0  0  0  0  0
   -2.6635    3.1080  -13.5704 F   0  0  0  0  0  0  0  0  0  0  0  0
   -2.7132    0.9506  -13.2655 F   0  0  0  0  0  0  0  0  0  0  0  0
   -8.0105    4.2109  -12.5981 N   0  0  0  0  0  0  0  0  0  0  0  0
   -8.6400    3.7330  -13.1851 H   0  0  0  0  0  0  0  0  0  0  0  0
   -8.1993    4.1747  -11.2058 C   0  0  0  0  0  0  0  0  0  0  0  0
   -8.0570    5.3020  -10.3739 C   0  0  0  0  0  0  0  0  0  0  0  0
   -8.2525    5.2308   -8.9889 C   0  0  0  0  0  0  0  0  0  0  0  0
   -8.6247    4.0209   -8.4413 C   0  0  0  0  0  0  0  0  0  0  0  0
   -8.8352    2.9143   -9.2479 C   0  0  0  0  0  0  0  0  0  0  0  0
   -8.6449    2.9767  -10.6209 C   0  0  0  0  0  0  0  0  0  0  0  0
   -9.3207    1.7775   -8.4152 C   0  0  0  0  0  0  0  0  0  0  0  0
   -9.2055    2.2211   -6.9983 N   0  0  0  0  0  0  0  0  0  0  0  0
   -8.9198    3.6722   -7.0251 C   0  0  0  0  0  0  0  0  0  0  0  0
   -8.4458    1.7224   -6.5352 H   0  0  0  0  0  0  0  0  0  0  0  0
   -4.8293    5.9594  -14.9493 O   0  0  0  0  0  0  0  0  0  0  0  0
   -4.9127    7.3841  -15.1346 C   0  0  0  0  0  0  0  0  0  0  0  0
   -4.2749    8.1364  -13.9863 C   0  0  0  0  0  0  0  0  0  0  0  0
   -3.0319    7.7636  -13.4783 C   0  0  0  0  0  0  0  0  0  0  0  0
   -2.4766    8.5022  -12.4376 C   0  0  0  0  0  0  0  0  0  0  0  0
   -3.1665    9.5977  -11.9366 C   0  0  0  0  0  0  0  0  0  0  0  0
   -4.3885    9.9138  -12.5046 C   0  0  0  0  0  0  0  0  0  0  0  0
   -4.9522    9.2215  -13.5190 N   0  0  0  0  0  0  0  0  0  0  0  0
  8  9  2  0  0  0
  9 10  1  0  0  0
 10  1  1  0  0  0
  1  2  2  0  0  0
  2  3  1  0  0  0
  3  4  1  0  0  0
  3  5  2  0  0  0
  5  6  1  0  0  0
  6 20  1  0  0  0
 20 21  1  0  0  0
 20 31  1  0  0  0
 31 33  1  0  0  0
 33 34  2  0  0  0
 34 35  1  0  0  0
 35 36  2  0  0  0
 36 37  1  0  0  0
 37 38  2  0  0  0
 37 39  1  0  0  0
 39 40  1  0  0  0
 40 41  1  0  0  0
 20 23  1  0  0  0
 23 24  2  0  0  0
 23 25  1  0  0  0
 25 27  1  0  0  0
 27 28  1  0  0  0
 28 29  1  0  0  0
 28 30  1  0  0  0
  6  7  2  0  0  0
  7 43  1  0  0  0
 43 44  1  0  0  0
 44 45  1  0  0  0
 45 46  2  0  0  0
 46 47  1  0  0  0
 47 48  2  0  0  0
 48 49  1  0  0  0
 49 50  2  0  0  0
  9 12  1  0  0  0
 12 13  1  0  0  0
 13 14  1  0  0  0
 14 15  2  0  0  0
 15 16  1  0  0  0
 16 17  2  0  0  0
 17 18  1  0  0  0
 18 19  2  0  0  0
  7  1  1  0  0  0
 50 45  1  0  0  0
 19 14  1  0  0  0
 38 33  1  0  0  0
 41 36  1  0  0  0
 10 11  1  0  0  0
 21 22  1  0  0  0
 31 32  1  0  0  0
 40 42  1  0  0  0
 25 26  1  0  0  0
M  END
> <minimizedAffinity>
-7.82429

> <minimizedRMSD>
1.46778

$$$$
P23425


 40 43  0  0  0  0  0  0  0  0999 V2000
   -6.7669    4.9180  -13.0362 C   0  0  0  0  0  0  0  0  0  0  0  0
   -5.7092    5.1706  -16.7880 C   0  0  0  0  0  0  0  0  0  0  0  0
   -6.8745    4.6882  -17.3926 C   0  0  0  0  0  0  0  0  0  0  0  0
   -7.9546    4.3057  -16.6196 C   0  0  0  0  0  0  0  0  0  0  0  0
   -9.5740    3.9553  -17.4854 Br  0  0  0  0  0  0  0  0  0  0  0  0
   -7.8890    4.3317  -15.2312 C   0  0  0  0  0  0  0  0  0  0  0  0
   -6.7309    4.7832  -14.5657 C   0  0  0  0  0  0  0  0  0  0  0  0
   -5.6723    5.2545  -15.3745 C   0  0  0  0  0  0  0  0  0  0  0  0
   -3.2943    5.1512  -17.4922 N   0  0  0  0  0  0  0  0  0  0  0  0
   -4.6407    5.6365  -17.7525 C   0  0  0  0  0  0  0  0  0  0  0  0
   -2.6569    5.5228  -18.1965 H   0  0  0  0  0  0  0  0  0  0  0  0
   -3.2869    4.1319  -17.5308 H   0  0  0  0  0  0  0  0  0  0  0  0
   -4.5658    5.7782  -14.7600 O   0  0  0  0  0  0  0  0  0  0  0  0
   -4.6716    7.2123  -14.6330 C   0  0  0  0  0  0  0  0  0  0  0  0
   -3.4265    7.9285  -15.1175 C   0  0  0  0  0  0  0  0  0  0  0  0
   -2.1541    7.4122  -14.8775 C   0  0  0  0  0  0  0  0  0  0  0  0
   -1.0386    8.1284  -15.3029 C   0  0  0  0  0  0  0  0  0  0  0  0
   -1.2166    9.3436  -15.9500 C   0  0  0  0  0  0  0  0  0  0  0  0
   -2.5102    9.7972  -16.1403 C   0  0  0  0  0  0  0  0  0  0  0  0
   -3.6123    9.1281  -15.7368 N   0  0  0  0  0  0  0  0  0  0  0  0
   -5.4960    4.4340  -12.2329 C   0  0  0  0  0  0  0  0  0  0  0  0
   -4.8747    5.1803  -11.5796 O   0  0  0  0  0  0  0  0  0  0  0  0
   -5.3592    2.8965  -12.4095 N   0  0  0  0  0  0  0  0  0  0  0  0
   -5.9608    2.5037  -13.0826 H   0  0  0  0  0  0  0  0  0  0  0  0
   -4.4911    1.9478  -11.7454 C   0  0  0  0  0  0  0  0  0  0  0  0
   -5.1219    1.2954  -10.5134 C   0  0  0  0  0  0  0  0  0  0  0  0
   -4.1825    0.5526   -9.8671 F   0  0  0  0  0  0  0  0  0  0  0  0
   -5.5141    2.2470   -9.6261 F   0  0  0  0  0  0  0  0  0  0  0  0
   -8.0082    4.3046  -12.4907 N   0  0  0  0  0  0  0  0  0  0  0  0
   -8.6911    3.9499  -13.1048 H   0  0  0  0  0  0  0  0  0  0  0  0
   -8.2078    4.2303  -11.1074 C   0  0  0  0  0  0  0  0  0  0  0  0
   -8.0446    5.3368  -10.2495 C   0  0  0  0  0  0  0  0  0  0  0  0
   -8.2453    5.2338   -8.8685 C   0  0  0  0  0  0  0  0  0  0  0  0
   -8.6386    4.0157   -8.3537 C   0  0  0  0  0  0  0  0  0  0  0  0
   -8.8458    2.9280   -9.1858 C   0  0  0  0  0  0  0  0  0  0  0  0
   -8.6488    3.0197  -10.5548 C   0  0  0  0  0  0  0  0  0  0  0  0
   -9.3205    1.7673   -8.3838 C   0  0  0  0  0  0  0  0  0  0  0  0
   -9.2986    2.2009   -6.9611 N   0  0  0  0  0  0  0  0  0  0  0  0
   -8.9528    3.6394   -6.9490 C   0  0  0  0  0  0  0  0  0  0  0  0
   -8.5988    1.6686   -6.4440 H   0  0  0  0  0  0  0  0  0  0  0  0
  9 10  1  0  0  0
 10  2  1  0  0  0
  2  3  2  0  0  0
  3  4  1  0  0  0
  4  5  1  0  0  0
  4  6  2  0  0  0
  6  7  1  0  0  0
  7  1  1  0  0  0
  1 29  1  0  0  0
 29 31  1  0  0  0
 31 32  2  0  0  0
 32 33  1  0  0  0
 33 34  2  0  0  0
 34 35  1  0  0  0
 35 36  2  0  0  0
 35 37  1  0  0  0
 37 38  1  0  0  0
 38 39  1  0  0  0
  1 21  1  0  0  0
 21 22  2  0  0  0
 21 23  1  0  0  0
 23 25  1  0  0  0
 25 26  1  0  0  0
 26 27  1  0  0  0
 26 28  1  0  0  0
  7  8  2  0  0  0
  8 13  1  0  0  0
 13 14  1  0  0  0
 14 15  1  0  0  0
 15 16  2  0  0  0
 16 17  1  0  0  0
 17 18  2  0  0  0
 18 19  1  0  0  0
 19 20  2  0  0  0
  8  2  1  0  0  0
 20 15  1  0  0  0
 36 31  1  0  0  0
 39 34  1  0  0  0
  9 11  1  0  0  0
  9 12  1  0  0  0
 29 30  1  0  0  0
 38 40  1  0  0  0
 23 24  1  0  0  0
M  END
> <minimizedAffinity>
-7.19791

> <minimizedRMSD>
0.99461

$$$$
P23426


 34 37  0  0  0  0  0  0  0  0999 V2000
   -7.7994    5.1329  -13.8761 C   0  0  0  0  0  0  0  0  0  0  0  0
   -7.8556    4.9312  -15.4218 C   0  0  0  0  0  0  0  0  0  0  0  0
   -8.6967    3.7405  -15.9162 C   0  0  0  0  0  0  0  0  0  0  0  0
   -8.7937    3.5980  -17.4519 C   0  0  0  0  0  0  0  0  0  0  0  0
  -10.5309    4.2397  -18.0253 Br  0  0  0  0  0  0  0  0  0  0  0  0
   -7.7157    4.2574  -18.3266 C   0  0  0  0  0  0  0  0  0  0  0  0
   -6.5671    4.7236  -17.5237 C   0  0  0  0  0  0  0  0  0  0  0  0
   -5.3072    4.9473  -18.0050 N   0  0  0  0  0  0  0  0  0  0  0  0
   -4.4800    5.3314  -16.9413 C   0  0  0  0  0  0  0  0  0  0  0  0
   -3.2890    5.5792  -16.9662 O   0  0  0  0  0  0  0  0  0  0  0  0
   -5.3363    5.3672  -15.8218 N   0  0  0  0  0  0  0  0  0  0  0  0
   -6.5922    4.9866  -16.2104 C   0  0  0  0  0  0  0  0  0  0  0  0
   -5.0273    4.8540  -18.9442 H   0  0  0  0  0  0  0  0  0  0  0  0
   -5.0734    5.6243  -14.9085 H   0  0  0  0  0  0  0  0  0  0  0  0
   -9.9242    6.2456  -13.8574 O   0  0  0  0  0  0  0  0  0  0  0  0
   -8.7913    6.3145  -13.5744 C   0  0  0  0  0  0  0  0  0  0  0  0
   -7.9824    7.4770  -12.9326 N   0  0  0  0  0  0  0  0  0  0  0  0
   -7.0136    7.3161  -12.8633 H   0  0  0  0  0  0  0  0  0  0  0  0
   -8.4226    8.7579  -12.4203 C   0  0  0  0  0  0  0  0  0  0  0  0
   -9.6626    8.6694  -11.5362 C   0  0  0  0  0  0  0  0  0  0  0  0
   -9.3639    7.9231  -10.4354 F   0  0  0  0  0  0  0  0  0  0  0  0
   -9.9718    9.9097  -11.0815 F   0  0  0  0  0  0  0  0  0  0  0  0
   -8.1899    3.9321  -13.1005 N   0  0  0  0  0  0  0  0  0  0  0  0
   -8.4348    3.0987  -13.5639 H   0  0  0  0  0  0  0  0  0  0  0  0
   -8.2072    3.9957  -11.6915 C   0  0  0  0  0  0  0  0  0  0  0  0
   -7.6363    5.0460  -10.9485 C   0  0  0  0  0  0  0  0  0  0  0  0
   -7.7449    5.1154   -9.5539 C   0  0  0  0  0  0  0  0  0  0  0  0
   -8.3420    4.0642   -8.8943 C   0  0  0  0  0  0  0  0  0  0  0  0
   -8.7916    2.9565   -9.5940 C   0  0  0  0  0  0  0  0  0  0  0  0
   -8.7302    2.9055  -10.9793 C   0  0  0  0  0  0  0  0  0  0  0  0
   -9.3437    1.9586   -8.6350 C   0  0  0  0  0  0  0  0  0  0  0  0
   -9.0141    2.4661   -7.2742 N   0  0  0  0  0  0  0  0  0  0  0  0
   -8.6169    3.8812   -7.4434 C   0  0  0  0  0  0  0  0  0  0  0  0
   -8.2450    1.9290   -6.8737 H   0  0  0  0  0  0  0  0  0  0  0  0
 15 16  2  0  0  0
 16 17  1  0  0  0
 17 19  1  0  0  0
 19 20  1  0  0  0
 20 21  1  0  0  0
 20 22  1  0  0  0
 16  1  1  0  0  0
  1 23  1  0  0  0
 23 25  1  0  0  0
 25 26  2  0  0  0
 26 27  1  0  0  0
 27 28  2  0  0  0
 28 29  1  0  0  0
 29 30  2  0  0  0
 29 31  1  0  0  0
 31 32  1  0  0  0
 32 33  1  0  0  0
  1  2  1  0  0  0
  2  3  1  0  0  0
  3  4  1  0  0  0
  4  5  1  0  0  0
  4  6  1  0  0  0
  6  7  1  0  0  0
  7  8  1  0  0  0
  8  9  1  0  0  0
  9 10  2  0  0  0
  9 11  1  0  0  0
 11 12  1  0  0  0
 30 25  1  0  0  0
 12  2  1  0  0  0
 33 28  1  0  0  0
 12  7  2  0  0  0
 17 18  1  0  0  0
 23 24  1  0  0  0
 32 34  1  0  0  0
  8 13  1  0  0  0
 11 14  1  0  0  0
M  END
> <minimizedAffinity>
-7.62951

> <minimizedRMSD>
0.51356

$$$$
P23431


 36 39  0  0  0  0  0  0  0  0999 V2000
   -7.1868    4.5828  -13.6280 C   0  0  0  0  0  0  0  0  0  0  0  0
   -7.5541    5.2065  -14.9939 C   0  0  0  0  0  0  0  0  0  0  0  0
   -8.9582    4.8725  -15.5873 C   0  0  0  0  0  0  0  0  0  0  0  0
   -8.7834    4.1064  -16.8953 C   0  0  0  0  0  0  0  0  0  0  0  0
  -10.0081    4.5224  -18.3038 Br  0  0  0  0  0  0  0  0  0  0  0  0
   -7.4103    4.4761  -17.2219 C   0  0  0  0  0  0  0  0  0  0  0  0
   -6.7239    4.9601  -16.1898 C   0  0  0  0  0  0  0  0  0  0  0  0
   -5.4739    5.4088  -16.5717 N   0  0  0  0  0  0  0  0  0  0  0  0
   -5.4143    5.1920  -18.0922 C   0  0  0  0  0  0  0  0  0  0  0  0
   -6.6926    4.5170  -18.3874 N   0  0  0  0  0  0  0  0  0  0  0  0
   -4.7721    5.7864  -15.9937 H   0  0  0  0  0  0  0  0  0  0  0  0
   -6.9769    4.1618  -19.2605 H   0  0  0  0  0  0  0  0  0  0  0  0
   -5.1817    6.4783  -18.8777 C   0  0  0  0  0  0  0  0  0  0  0  0
   -3.9281    6.9077  -18.6068 F   0  0  0  0  0  0  0  0  0  0  0  0
   -5.2481    6.2625  -20.2063 F   0  0  0  0  0  0  0  0  0  0  0  0
   -6.0080    7.4954  -18.5591 F   0  0  0  0  0  0  0  0  0  0  0  0
   -6.4542    2.2859  -13.7316 O   0  0  0  0  0  0  0  0  0  0  0  0
   -6.1460    3.4102  -13.6365 C   0  0  0  0  0  0  0  0  0  0  0  0
   -4.7487    4.0565  -13.3966 N   0  0  0  0  0  0  0  0  0  0  0  0
   -4.7613    5.0337  -13.2774 H   0  0  0  0  0  0  0  0  0  0  0  0
   -3.4388    3.4548  -13.3208 C   0  0  0  0  0  0  0  0  0  0  0  0
   -3.3704    2.1530  -12.5236 C   0  0  0  0  0  0  0  0  0  0  0  0
   -2.7195    1.2223  -13.2815 F   0  0  0  0  0  0  0  0  0  0  0  0
   -2.5925    2.3408  -11.4232 F   0  0  0  0  0  0  0  0  0  0  0  0
   -8.4019    4.1575  -12.9026 N   0  0  0  0  0  0  0  0  0  0  0  0
   -9.2086    3.8529  -13.3776 H   0  0  0  0  0  0  0  0  0  0  0  0
   -8.3459    4.2106  -11.4984 C   0  0  0  0  0  0  0  0  0  0  0  0
   -8.0105    5.3954  -10.8144 C   0  0  0  0  0  0  0  0  0  0  0  0
   -8.0660    5.4708   -9.4183 C   0  0  0  0  0  0  0  0  0  0  0  0
   -8.4785    4.3524   -8.7195 C   0  0  0  0  0  0  0  0  0  0  0  0
   -8.8193    3.1831   -9.3817 C   0  0  0  0  0  0  0  0  0  0  0  0
   -8.7551    3.0947  -10.7600 C   0  0  0  0  0  0  0  0  0  0  0  0
   -9.3251    2.1805   -8.4055 C   0  0  0  0  0  0  0  0  0  0  0  0
   -9.0596    2.7527   -7.0557 N   0  0  0  0  0  0  0  0  0  0  0  0
   -8.7234    4.1795   -7.2618 C   0  0  0  0  0  0  0  0  0  0  0  0
   -8.2786    2.2670   -6.6146 H   0  0  0  0  0  0  0  0  0  0  0  0
 17 18  2  0  0  0
 18 19  1  0  0  0
 19 21  1  0  0  0
 21 22  1  0  0  0
 22 23  1  0  0  0
 22 24  1  0  0  0
 18  1  1  0  0  0
  1 25  1  0  0  0
 25 27  1  0  0  0
 27 28  2  0  0  0
 28 29  1  0  0  0
 29 30  2  0  0  0
 30 31  1  0  0  0
 31 32  2  0  0  0
 31 33  1  0  0  0
 33 34  1  0  0  0
 34 35  1  0  0  0
  1  2  1  0  0  0
  2  3  1  0  0  0
  3  4  1  0  0  0
  4  5  1  0  0  0
  4  6  1  0  0  0
  6  7  2  0  0  0
  7  8  1  0  0  0
  8  9  1  0  0  0
  9 13  1  0  0  0
 13 14  1  0  0  0
 13 15  1  0  0  0
 13 16  1  0  0  0
  9 10  1  0  0  0
 32 27  1  0  0  0
  7  2  1  0  0  0
 35 30  1  0  0  0
 10  6  1  0  0  0
 19 20  1  0  0  0
 25 26  1  0  0  0
 34 36  1  0  0  0
  8 11  1  0  0  0
 10 12  1  0  0  0
M  END
> <minimizedAffinity>
-7.54762

> <minimizedRMSD>
0.41020

$$$$
P23432


 33 36  0  0  0  0  0  0  0  0999 V2000
   -6.6941    5.0698  -13.2593 C   0  0  0  0  0  0  0  0  0  0  0  0
   -2.2430    6.1219  -16.7107 C   0  0  0  0  0  0  0  0  0  0  0  0
   -3.6600    5.7036  -16.6232 C   0  0  0  0  0  0  0  0  0  0  0  0
   -4.4506    5.3690  -17.6167 N   0  0  0  0  0  0  0  0  0  0  0  0
   -5.6475    5.0257  -17.0342 C   0  0  0  0  0  0  0  0  0  0  0  0
   -6.8242    4.6002  -17.6494 C   0  0  0  0  0  0  0  0  0  0  0  0
   -7.9188    4.3589  -16.8302 C   0  0  0  0  0  0  0  0  0  0  0  0
   -9.5725    3.9623  -17.6000 Br  0  0  0  0  0  0  0  0  0  0  0  0
   -7.8581    4.4985  -15.4456 C   0  0  0  0  0  0  0  0  0  0  0  0
   -6.6770    4.8865  -14.7786 C   0  0  0  0  0  0  0  0  0  0  0  0
   -5.5987    5.1664  -15.6470 C   0  0  0  0  0  0  0  0  0  0  0  0
   -4.3178    5.6188  -15.4246 N   0  0  0  0  0  0  0  0  0  0  0  0
   -3.9360    5.8450  -14.5458 H   0  0  0  0  0  0  0  0  0  0  0  0
   -5.3271    4.6754  -12.5818 C   0  0  0  0  0  0  0  0  0  0  0  0
   -4.5637    5.4965  -12.2438 O   0  0  0  0  0  0  0  0  0  0  0  0
   -5.2078    3.1278  -12.5750 N   0  0  0  0  0  0  0  0  0  0  0  0
   -5.9667    2.6541  -12.9862 H   0  0  0  0  0  0  0  0  0  0  0  0
   -4.1631    2.2682  -12.0628 C   0  0  0  0  0  0  0  0  0  0  0  0
   -2.8411    2.3651  -12.8178 C   0  0  0  0  0  0  0  0  0  0  0  0
   -2.9418    3.2734  -13.8261 F   0  0  0  0  0  0  0  0  0  0  0  0
   -2.5599    1.1729  -13.4053 F   0  0  0  0  0  0  0  0  0  0  0  0
   -7.8460    4.3499  -12.6817 N   0  0  0  0  0  0  0  0  0  0  0  0
   -8.4676    3.8862  -13.2881 H   0  0  0  0  0  0  0  0  0  0  0  0
   -8.0863    4.3023  -11.3109 C   0  0  0  0  0  0  0  0  0  0  0  0
   -7.9212    5.4145  -10.4605 C   0  0  0  0  0  0  0  0  0  0  0  0
   -8.1474    5.3260   -9.0807 C   0  0  0  0  0  0  0  0  0  0  0  0
   -8.5671    4.1175   -8.5632 C   0  0  0  0  0  0  0  0  0  0  0  0
   -8.7665    3.0202   -9.3896 C   0  0  0  0  0  0  0  0  0  0  0  0
   -8.5436    3.0986  -10.7539 C   0  0  0  0  0  0  0  0  0  0  0  0
   -9.2062    1.8572   -8.5607 C   0  0  0  0  0  0  0  0  0  0  0  0
   -9.6089    2.4452   -7.2555 N   0  0  0  0  0  0  0  0  0  0  0  0
   -8.8764    3.7266   -7.1564 C   0  0  0  0  0  0  0  0  0  0  0  0
   -9.3473    1.8249   -6.4892 H   0  0  0  0  0  0  0  0  0  0  0  0
  2  3  1  0  0  0
  3  4  2  0  0  0
  4  5  1  0  0  0
  5  6  2  0  0  0
  6  7  1  0  0  0
  7  8  1  0  0  0
  7  9  2  0  0  0
  9 10  1  0  0  0
 10  1  1  0  0  0
  1 22  1  0  0  0
 22 24  1  0  0  0
 24 25  2  0  0  0
 25 26  1  0  0  0
 26 27  2  0  0  0
 27 28  1  0  0  0
 28 29  2  0  0  0
 28 30  1  0  0  0
 30 31  1  0  0  0
 31 32  1  0  0  0
  1 14  1  0  0  0
 14 15  2  0  0  0
 14 16  1  0  0  0
 16 18  1  0  0  0
 18 19  1  0  0  0
 19 20  1  0  0  0
 19 21  1  0  0  0
 10 11  2  0  0  0
 11 12  1  0  0  0
 12  3  1  0  0  0
 11  5  1  0  0  0
 29 24  1  0  0  0
 32 27  1  0  0  0
 22 23  1  0  0  0
 31 33  1  0  0  0
 16 17  1  0  0  0
 12 13  1  0  0  0
M  END
> <minimizedAffinity>
-7.97636

> <minimizedRMSD>
0.85864

$$$$
P23447


 38 41  0  0  0  0  0  0  0  0999 V2000
   -7.1037    5.1420  -14.2017 C   0  0  0  0  0  0  0  0  0  0  0  0
   -6.2346    5.1564  -16.6477 C   0  0  0  0  0  0  0  0  0  0  0  0
   -6.4543    4.9067  -18.0172 C   0  0  0  0  0  0  0  0  0  0  0  0
   -7.6974    4.5222  -18.4952 C   0  0  0  0  0  0  0  0  0  0  0  0
   -8.7290    4.3710  -17.5917 C   0  0  0  0  0  0  0  0  0  0  0  0
  -10.4736    4.1503  -18.2247 Br  0  0  0  0  0  0  0  0  0  0  0  0
   -8.5117    4.5128  -16.2233 C   0  0  0  0  0  0  0  0  0  0  0  0
   -7.2611    4.8966  -15.7114 C   0  0  0  0  0  0  0  0  0  0  0  0
   -5.0095    5.6773  -16.2801 N   0  0  0  0  0  0  0  0  0  0  0  0
   -5.0255    7.9677  -17.2122 C   0  0  0  0  0  0  0  0  0  0  0  0
   -4.8544    7.0932  -15.9769 C   0  0  0  0  0  0  0  0  0  0  0  0
   -3.8620    4.7739  -16.2778 C   0  0  0  0  0  0  0  0  0  0  0  0
   -2.8927    4.9886  -17.4175 C   0  0  0  0  0  0  0  0  0  0  0  0
   -1.7783    5.8068  -17.2334 C   0  0  0  0  0  0  0  0  0  0  0  0
   -0.8838    5.9684  -18.2854 C   0  0  0  0  0  0  0  0  0  0  0  0
   -1.1238    5.3166  -19.4900 C   0  0  0  0  0  0  0  0  0  0  0  0
   -2.2534    4.5233  -19.5921 C   0  0  0  0  0  0  0  0  0  0  0  0
   -3.1348    4.3444  -18.5868 N   0  0  0  0  0  0  0  0  0  0  0  0
   -5.7935    4.5372  -13.5699 C   0  0  0  0  0  0  0  0  0  0  0  0
   -5.0142    5.1945  -12.9930 O   0  0  0  0  0  0  0  0  0  0  0  0
   -5.8497    2.9965  -13.7858 N   0  0  0  0  0  0  0  0  0  0  0  0
   -6.5728    2.6894  -14.3793 H   0  0  0  0  0  0  0  0  0  0  0  0
   -5.0127    1.9435  -13.2565 C   0  0  0  0  0  0  0  0  0  0  0  0
   -4.7826    2.1193  -11.7610 C   0  0  0  0  0  0  0  0  0  0  0  0
   -5.8129    1.5072  -11.1109 F   0  0  0  0  0  0  0  0  0  0  0  0
   -3.6338    1.5047  -11.3953 F   0  0  0  0  0  0  0  0  0  0  0  0
   -8.2983    4.6612  -13.4249 N   0  0  0  0  0  0  0  0  0  0  0  0
   -9.0863    4.2836  -13.8783 H   0  0  0  0  0  0  0  0  0  0  0  0
   -8.2430    4.7739  -12.0178 C   0  0  0  0  0  0  0  0  0  0  0  0
   -8.0706    6.0118  -11.3673 C   0  0  0  0  0  0  0  0  0  0  0  0
   -7.9859    6.1028   -9.9699 C   0  0  0  0  0  0  0  0  0  0  0  0
   -8.0912    4.9434   -9.2236 C   0  0  0  0  0  0  0  0  0  0  0  0
   -8.2943    3.7215   -9.8442 C   0  0  0  0  0  0  0  0  0  0  0  0
   -8.3869    3.6222  -11.2271 C   0  0  0  0  0  0  0  0  0  0  0  0
   -8.3319    2.6430   -8.8131 C   0  0  0  0  0  0  0  0  0  0  0  0
   -8.3310    3.3256   -7.4976 N   0  0  0  0  0  0  0  0  0  0  0  0
   -8.0016    4.7407   -7.7467 C   0  0  0  0  0  0  0  0  0  0  0  0
   -7.6314    2.9055   -6.8855 H   0  0  0  0  0  0  0  0  0  0  0  0
 10 11  1  0  0  0
 11  9  1  0  0  0
  9 12  1  0  0  0
 12 13  1  0  0  0
 13 14  2  0  0  0
 14 15  1  0  0  0
 15 16  2  0  0  0
 16 17  1  0  0  0
 17 18  2  0  0  0
  9  2  1  0  0  0
  2  3  2  0  0  0
  3  4  1  0  0  0
  4  5  2  0  0  0
  5  6  1  0  0  0
  5  7  1  0  0  0
  7  8  2  0  0  0
  8  1  1  0  0  0
  1 27  1  0  0  0
 27 29  1  0  0  0
 29 30  2  0  0  0
 30 31  1  0  0  0
 31 32  2  0  0  0
 32 33  1  0  0  0
 33 34  2  0  0  0
 33 35  1  0  0  0
 35 36  1  0  0  0
 36 37  1  0  0  0
  1 19  1  0  0  0
 19 20  2  0  0  0
 19 21  1  0  0  0
 21 23  1  0  0  0
 23 24  1  0  0  0
 24 25  1  0  0  0
 24 26  1  0  0  0
 18 13  1  0  0  0
  8  2  1  0  0  0
 34 29  1  0  0  0
 37 32  1  0  0  0
 27 28  1  0  0  0
 36 38  1  0  0  0
 21 22  1  0  0  0
M  END
> <minimizedAffinity>
-7.10516

> <minimizedRMSD>
0.57374

$$$$
P23449


 37 40  0  0  0  0  0  0  0  0999 V2000
   -7.2133    5.1179  -13.8184 C   0  0  0  0  0  0  0  0  0  0  0  0
   -7.2598    4.8032  -15.3306 C   0  0  0  0  0  0  0  0  0  0  0  0
   -8.5161    4.4202  -15.8678 C   0  0  0  0  0  0  0  0  0  0  0  0
   -8.7166    4.2198  -17.2329 C   0  0  0  0  0  0  0  0  0  0  0  0
  -10.4469    4.0027  -17.8964 Br  0  0  0  0  0  0  0  0  0  0  0  0
   -7.6957    4.3386  -18.1556 C   0  0  0  0  0  0  0  0  0  0  0  0
   -6.4727    4.7466  -17.6485 C   0  0  0  0  0  0  0  0  0  0  0  0
   -5.3197    5.0314  -18.3292 N   0  0  0  0  0  0  0  0  0  0  0  0
   -4.3131    5.4299  -17.5330 N   0  0  0  0  0  0  0  0  0  0  0  0
   -4.8607    5.3994  -16.3112 C   0  0  0  0  0  0  0  0  0  0  0  0
   -6.2204    4.9826  -16.2955 C   0  0  0  0  0  0  0  0  0  0  0  0
   -5.2360    4.9521  -19.3069 H   0  0  0  0  0  0  0  0  0  0  0  0
   -5.7582    5.3026  -13.2580 C   0  0  0  0  0  0  0  0  0  0  0  0
   -5.2588    6.3573  -13.1714 O   0  0  0  0  0  0  0  0  0  0  0  0
   -5.1979    3.8931  -12.9220 N   0  0  0  0  0  0  0  0  0  0  0  0
   -5.7944    3.1457  -13.1561 H   0  0  0  0  0  0  0  0  0  0  0  0
   -3.9431    3.5009  -12.3216 C   0  0  0  0  0  0  0  0  0  0  0  0
   -3.9779    2.1786  -11.5593 C   0  0  0  0  0  0  0  0  0  0  0  0
   -3.5625    1.1573  -12.3542 F   0  0  0  0  0  0  0  0  0  0  0  0
   -5.2351    1.8791  -11.1605 F   0  0  0  0  0  0  0  0  0  0  0  0
   -7.9669    4.1072  -13.0380 N   0  0  0  0  0  0  0  0  0  0  0  0
   -8.2732    3.2989  -13.5091 H   0  0  0  0  0  0  0  0  0  0  0  0
   -8.6803    3.8441   -7.3899 C   0  0  0  0  0  0  0  0  0  0  0  0
   -8.6761    2.3574   -7.3636 N   0  0  0  0  0  0  0  0  0  0  0  0
   -9.0115    1.8993   -8.7219 C   0  0  0  0  0  0  0  0  0  0  0  0
   -8.7310    3.0556   -9.6137 C   0  0  0  0  0  0  0  0  0  0  0  0
   -8.6256    3.0528  -10.9995 C   0  0  0  0  0  0  0  0  0  0  0  0
   -8.2719    4.2239  -11.6799 C   0  0  0  0  0  0  0  0  0  0  0  0
   -8.0811    5.3864  -10.9045 C   0  0  0  0  0  0  0  0  0  0  0  0
   -8.2212    5.3864   -9.4968 C   0  0  0  0  0  0  0  0  0  0  0  0
   -8.5196    4.1991   -8.8526 C   0  0  0  0  0  0  0  0  0  0  0  0
   -9.3704    2.0173   -6.6983 H   0  0  0  0  0  0  0  0  0  0  0  0
   -7.6334    4.4476   -6.4410 C   0  0  0  0  0  0  0  0  0  0  0  0
   -6.6844    3.7306   -4.3096 O   0  0  0  0  0  0  0  0  0  0  0  0
   -7.6612    3.8643   -5.0415 C   0  0  0  0  0  0  0  0  0  0  0  0
   -8.8924    3.5098   -4.6236 O   0  0  0  0  0  0  0  0  0  0  0  0
   -9.6292    3.6172   -5.1924 H   0  0  0  0  0  0  0  0  0  0  0  0
 34 35  2  0  0  0
 35 36  1  0  0  0
 35 33  1  0  0  0
 23 33  1  0  0  0
 23 24  1  0  0  0
 24 25  1  0  0  0
 25 26  1  0  0  0
 26 27  2  0  0  0
 27 28  1  0  0  0
 28 21  1  0  0  0
  1 21  1  0  0  0
  1 13  1  0  0  0
 13 14  2  0  0  0
 13 15  1  0  0  0
 15 17  1  0  0  0
 17 18  1  0  0  0
 18 19  1  0  0  0
 18 20  1  0  0  0
  1  2  1  0  0  0
  2  3  2  0  0  0
  3  4  1  0  0  0
  4  5  1  0  0  0
  4  6  2  0  0  0
  6  7  1  0  0  0
  7  8  1  0  0  0
  8  9  1  0  0  0
  9 10  2  0  0  0
 10 11  1  0  0  0
 28 29  2  0  0  0
 29 30  1  0  0  0
 30 31  2  0  0  0
 31 23  1  0  0  0
 31 26  1  0  0  0
 11  2  1  0  0  0
 11  7  2  0  0  0
 36 37  1  0  0  0
 24 32  1  0  0  0
 21 22  1  0  0  0
 15 16  1  0  0  0
  8 12  1  0  0  0
M  END
> <minimizedAffinity>
-8.43698

> <minimizedRMSD>
0.47533

$$$$
P23482


 32 35  0  0  0  0  0  0  0  0999 V2000
   -7.0681    4.9995  -13.7031 C   0  0  0  0  0  0  0  0  0  0  0  0
   -7.1342    4.7673  -15.2160 C   0  0  0  0  0  0  0  0  0  0  0  0
   -8.3735    4.4077  -15.7912 C   0  0  0  0  0  0  0  0  0  0  0  0
   -8.5525    4.2941  -17.1693 C   0  0  0  0  0  0  0  0  0  0  0  0
  -10.2887    4.0590  -17.8257 Br  0  0  0  0  0  0  0  0  0  0  0  0
   -7.5134    4.5012  -18.0671 C   0  0  0  0  0  0  0  0  0  0  0  0
   -6.2721    4.8622  -17.5417 C   0  0  0  0  0  0  0  0  0  0  0  0
   -5.1135    5.1745  -18.2144 N   0  0  0  0  0  0  0  0  0  0  0  0
   -4.2349    5.4338  -17.2822 C   0  0  0  0  0  0  0  0  0  0  0  0
   -4.7743    5.3124  -16.0365 N   0  0  0  0  0  0  0  0  0  0  0  0
   -6.1046    4.9790  -16.1590 C   0  0  0  0  0  0  0  0  0  0  0  0
   -4.2919    5.4420  -15.1882 H   0  0  0  0  0  0  0  0  0  0  0  0
   -5.0370    3.8395  -13.0939 O   0  0  0  0  0  0  0  0  0  0  0  0
   -5.6069    4.8610  -13.1250 C   0  0  0  0  0  0  0  0  0  0  0  0
   -5.1455    6.2884  -12.6971 N   0  0  0  0  0  0  0  0  0  0  0  0
   -5.8434    6.9808  -12.7505 H   0  0  0  0  0  0  0  0  0  0  0  0
   -3.8572    6.7601  -12.2342 C   0  0  0  0  0  0  0  0  0  0  0  0
   -2.8673    6.9912  -13.3727 C   0  0  0  0  0  0  0  0  0  0  0  0
   -3.4864    7.6492  -14.3880 F   0  0  0  0  0  0  0  0  0  0  0  0
   -2.4443    5.8055  -13.8844 F   0  0  0  0  0  0  0  0  0  0  0  0
   -7.9875    4.0653  -13.0325 N   0  0  0  0  0  0  0  0  0  0  0  0
   -8.4744    3.3969  -13.5667 H   0  0  0  0  0  0  0  0  0  0  0  0
   -8.1797    4.1133  -11.6469 C   0  0  0  0  0  0  0  0  0  0  0  0
   -8.0512    5.2869  -10.8796 C   0  0  0  0  0  0  0  0  0  0  0  0
   -8.2188    5.2773   -9.4886 C   0  0  0  0  0  0  0  0  0  0  0  0
   -8.5672    4.0882   -8.8797 C   0  0  0  0  0  0  0  0  0  0  0  0
   -8.8010    2.9482   -9.6323 C   0  0  0  0  0  0  0  0  0  0  0  0
   -8.6315    2.9499  -11.0060 C   0  0  0  0  0  0  0  0  0  0  0  0
   -9.2374    1.8347   -8.7425 C   0  0  0  0  0  0  0  0  0  0  0  0
   -9.0282    2.3223   -7.3561 N   0  0  0  0  0  0  0  0  0  0  0  0
   -8.7897    3.7785   -7.4402 C   0  0  0  0  0  0  0  0  0  0  0  0
   -8.2205    1.8588   -6.9401 H   0  0  0  0  0  0  0  0  0  0  0  0
 13 14  2  0  0  0
 14 15  1  0  0  0
 15 17  1  0  0  0
 17 18  1  0  0  0
 18 19  1  0  0  0
 18 20  1  0  0  0
 14  1  1  0  0  0
  1 21  1  0  0  0
 21 23  1  0  0  0
 23 24  2  0  0  0
 24 25  1  0  0  0
 25 26  2  0  0  0
 26 27  1  0  0  0
 27 28  2  0  0  0
 27 29  1  0  0  0
 29 30  1  0  0  0
 30 31  1  0  0  0
  1  2  1  0  0  0
  2  3  2  0  0  0
  3  4  1  0  0  0
  4  5  1  0  0  0
  4  6  2  0  0  0
  6  7  1  0  0  0
  7  8  1  0  0  0
  8  9  2  0  0  0
  9 10  1  0  0  0
 10 11  1  0  0  0
 28 23  1  0  0  0
 11  2  1  0  0  0
 31 26  1  0  0  0
 11  7  2  0  0  0
 15 16  1  0  0  0
 21 22  1  0  0  0
 30 32  1  0  0  0
 10 12  1  0  0  0
M  END
> <minimizedAffinity>
-7.36024

> <minimizedRMSD>
0.69252

$$$$
P23509


 35 38  0  0  0  0  0  0  0  0999 V2000
   -6.0884    4.6760  -15.1827 C   0  0  0  0  0  0  0  0  0  0  0  0
   -7.3216    4.2375  -14.6541 C   0  0  0  0  0  0  0  0  0  0  0  0
   -8.5238    4.3385  -15.3797 C   0  0  0  0  0  0  0  0  0  0  0  0
   -8.5204    4.8180  -16.6733 C   0  0  0  0  0  0  0  0  0  0  0  0
   -9.6661    4.8998  -17.3647 F   0  0  0  0  0  0  0  0  0  0  0  0
   -7.3189    5.2137  -17.2186 C   0  0  0  0  0  0  0  0  0  0  0  0
   -6.1231    5.1162  -16.5078 C   0  0  0  0  0  0  0  0  0  0  0  0
   -5.0520    5.6428  -17.3730 N   0  0  0  0  0  0  0  0  0  0  0  0
   -4.1777    4.6878  -17.7739 O   0  0  0  0  0  0  0  0  0  0  0  0
   -5.8565    6.0591  -18.5506 C   0  0  0  0  0  0  0  0  0  0  0  0
   -7.1292    5.8296  -18.4503 N   0  0  0  0  0  0  0  0  0  0  0  0
   -4.6651    4.9654  -16.7724 H   0  0  0  0  0  0  0  0  0  0  0  0
   -7.4353    3.5634  -13.3403 C   0  0  0  0  0  0  0  0  0  0  0  0
   -7.3432    2.4020  -13.2878 O   0  0  0  0  0  0  0  0  0  0  0  0
   -7.7380    4.5930  -12.2335 N   0  0  0  0  0  0  0  0  0  0  0  0
   -7.6859    5.5335  -12.5201 H   0  0  0  0  0  0  0  0  0  0  0  0
   -8.0728    4.4097  -10.8965 C   0  0  0  0  0  0  0  0  0  0  0  0
   -7.9424    5.4976  -10.0183 C   0  0  0  0  0  0  0  0  0  0  0  0
   -8.1706    5.3363   -8.6492 C   0  0  0  0  0  0  0  0  0  0  0  0
   -8.5977    4.1002   -8.1972 C   0  0  0  0  0  0  0  0  0  0  0  0
   -8.7918    3.0443   -9.0774 C   0  0  0  0  0  0  0  0  0  0  0  0
   -8.5040    3.1690  -10.4259 C   0  0  0  0  0  0  0  0  0  0  0  0
   -9.3120    1.8595   -8.3384 C   0  0  0  0  0  0  0  0  0  0  0  0
   -9.5168    2.3094   -6.9340 N   0  0  0  0  0  0  0  0  0  0  0  0
   -8.9246    3.6554   -6.8133 C   0  0  0  0  0  0  0  0  0  0  0  0
   -9.0555    1.6662   -6.2907 H   0  0  0  0  0  0  0  0  0  0  0  0
   -4.9230    4.7245  -14.3780 N   0  0  0  0  0  0  0  0  0  0  0  0
   -3.9658    2.5558  -13.7193 C   0  0  0  0  0  0  0  0  0  0  0  0
   -3.9613    3.6600  -14.7693 C   0  0  0  0  0  0  0  0  0  0  0  0
   -4.3060    5.9994  -14.2863 O   0  0  0  0  0  0  0  0  0  0  0  0
   -3.6728    6.1286  -12.9920 C   0  0  0  0  0  0  0  0  0  0  0  0
   -4.6476    6.0441  -11.8206 C   0  0  0  0  0  0  0  0  0  0  0  0
   -4.3164    4.9239  -10.8480 C   0  0  0  0  0  0  0  0  0  0  0  0
   -2.9646    4.5201  -10.9931 O   0  0  0  0  0  0  0  0  0  0  0  0
   -2.8190    4.1961  -11.8958 H   0  0  0  0  0  0  0  0  0  0  0  0
 28 29  1  0  0  0
 29 27  1  0  0  0
 27 30  1  0  0  0
 30 31  1  0  0  0
 31 32  1  0  0  0
 32 33  1  0  0  0
 33 34  1  0  0  0
 27  1  1  0  0  0
  1  2  2  0  0  0
  2 13  1  0  0  0
 13 14  2  0  0  0
 13 15  1  0  0  0
 15 17  1  0  0  0
 17 18  2  0  0  0
 18 19  1  0  0  0
 19 20  2  0  0  0
 20 21  1  0  0  0
 21 22  2  0  0  0
 21 23  1  0  0  0
 23 24  1  0  0  0
 24 25  1  0  0  0
  2  3  1  0  0  0
  3  4  2  0  0  0
  4  5  1  0  0  0
  4  6  1  0  0  0
  6  7  2  0  0  0
  7  8  1  0  0  0
  8  9  1  0  0  0
  8 10  1  0  0  0
 10 11  2  0  0  0
  7  1  1  0  0  0
 22 17  1  0  0  0
 11  6  1  0  0  0
 25 20  1  0  0  0
 34 35  1  0  0  0
 15 16  1  0  0  0
 24 26  1  0  0  0
  8 12  1  0  0  0
M  CHG 1   8   1
M  CHG 1   9  -1
M  END
> <minimizedAffinity>
-6.44216

> <minimizedRMSD>
0.85654

$$$$
P23518


 38 42  0  0  0  0  0  0  0  0999 V2000
   -7.1378    4.0524  -13.2559 C   0  0  0  0  0  0  0  0  0  0  0  0
   -6.4884    5.2004  -12.6870 O   0  0  0  0  0  0  0  0  0  0  0  0
   -6.4149    5.0874  -11.7264 H   0  0  0  0  0  0  0  0  0  0  0  0
   -7.2048    4.3283  -14.7690 C   0  0  0  0  0  0  0  0  0  0  0  0
   -8.4068    4.2063  -15.5067 C   0  0  0  0  0  0  0  0  0  0  0  0
   -8.4542    4.5134  -16.8708 C   0  0  0  0  0  0  0  0  0  0  0  0
   -9.9310    4.3489  -17.7444 Cl  0  0  0  0  0  0  0  0  0  0  0  0
   -7.2936    4.9354  -17.5035 C   0  0  0  0  0  0  0  0  0  0  0  0
   -6.0891    5.0204  -16.8002 C   0  0  0  0  0  0  0  0  0  0  0  0
   -6.0299    4.7145  -15.4502 C   0  0  0  0  0  0  0  0  0  0  0  0
   -4.9945    5.5237  -17.7209 C   0  0  0  0  0  0  0  0  0  0  0  0
   -3.6978    4.6823  -17.6676 C   0  0  0  0  0  0  0  0  0  0  0  0
   -2.4153    5.5067  -17.8173 C   0  0  0  0  0  0  0  0  0  0  0  0
   -2.5910    6.6491  -18.8044 C   0  0  0  0  0  0  0  0  0  0  0  0
   -3.6645    7.6329  -18.3462 C   0  0  0  0  0  0  0  0  0  0  0  0
   -4.7118    7.0106  -17.4192 C   0  0  0  0  0  0  0  0  0  0  0  0
   -5.7388    5.3552  -19.0854 C   0  0  0  0  0  0  0  0  0  0  0  0
   -7.1641    5.4845  -18.7903 N   0  0  0  0  0  0  0  0  0  0  0  0
   -7.8696    5.8672  -19.3605 H   0  0  0  0  0  0  0  0  0  0  0  0
   -4.9191    3.1826  -12.4543 N   0  0  0  0  0  0  0  0  0  0  0  0
   -6.3043    2.6965  -12.9925 C   0  0  0  0  0  0  0  0  0  0  0  0
   -6.6898    1.6150  -13.2277 O   0  0  0  0  0  0  0  0  0  0  0  0
   -4.8657    4.1473  -12.2650 H   0  0  0  0  0  0  0  0  0  0  0  0
   -3.2321    1.7601  -13.4686 C   0  0  0  0  0  0  0  0  0  0  0  0
   -3.7071    2.4469  -12.1901 C   0  0  0  0  0  0  0  0  0  0  0  0
   -3.9063    1.4646  -11.0423 C   0  0  0  0  0  0  0  0  0  0  0  0
   -8.4888    4.0184  -12.6819 N   0  0  0  0  0  0  0  0  0  0  0  0
   -9.3001    3.9781  -13.2382 H   0  0  0  0  0  0  0  0  0  0  0  0
   -8.5351    4.0478  -11.2724 C   0  0  0  0  0  0  0  0  0  0  0  0
   -8.2187    5.2306  -10.5705 C   0  0  0  0  0  0  0  0  0  0  0  0
   -8.2242    5.2706   -9.1740 C   0  0  0  0  0  0  0  0  0  0  0  0
   -8.5687    4.1195   -8.4930 C   0  0  0  0  0  0  0  0  0  0  0  0
   -8.8686    2.9473   -9.1740 C   0  0  0  0  0  0  0  0  0  0  0  0
   -8.8342    2.8861  -10.5568 C   0  0  0  0  0  0  0  0  0  0  0  0
   -9.1964    1.8712   -8.1984 C   0  0  0  0  0  0  0  0  0  0  0  0
   -9.2708    2.5363   -6.8681 N   0  0  0  0  0  0  0  0  0  0  0  0
   -8.7025    3.8897   -7.0281 C   0  0  0  0  0  0  0  0  0  0  0  0
   -8.7308    2.0086   -6.1823 H   0  0  0  0  0  0  0  0  0  0  0  0
 24 25  1  0  0  0
 25 26  1  0  0  0
 25 20  1  0  0  0
 20 21  1  0  0  0
 21 22  2  0  0  0
 21  1  1  0  0  0
  1  2  1  0  0  0
  1 27  1  0  0  0
 27 29  1  0  0  0
 29 30  2  0  0  0
 30 31  1  0  0  0
 31 32  2  0  0  0
 32 33  1  0  0  0
 33 34  2  0  0  0
 33 35  1  0  0  0
 35 36  1  0  0  0
 36 37  1  0  0  0
  1  4  1  0  0  0
  4  5  2  0  0  0
  5  6  1  0  0  0
  6  7  1  0  0  0
  6  8  2  0  0  0
  8  9  1  0  0  0
  9 10  2  0  0  0
  9 11  1  0  0  0
 11 12  1  0  0  0
 12 13  1  0  0  0
 13 14  1  0  0  0
 14 15  1  0  0  0
 15 16  1  0  0  0
 11 17  1  0  0  0
 17 18  1  0  0  0
 34 29  1  0  0  0
 10  4  1  0  0  0
 16 11  1  0  0  0
 37 32  1  0  0  0
 18  8  1  0  0  0
 20 23  1  0  0  0
  2  3  1  0  0  0
 27 28  1  0  0  0
 36 38  1  0  0  0
 18 19  1  0  0  0
M  END
> <minimizedAffinity>
-9.61692

> <minimizedRMSD>
0.34188

$$$$
P23524


 38 40  0  0  0  0  0  0  0  0999 V2000
   -7.3879    4.2873  -13.7204 C   0  0  0  0  0  0  0  0  0  0  0  0
   -6.7161    4.8420  -17.4708 C   0  0  0  0  0  0  0  0  0  0  0  0
   -7.9903    4.5929  -18.0089 C   0  0  0  0  0  0  0  0  0  0  0  0
   -9.0536    4.2440  -17.1829 C   0  0  0  0  0  0  0  0  0  0  0  0
  -10.5833    3.8910  -17.8914 Cl  0  0  0  0  0  0  0  0  0  0  0  0
   -8.8745    4.1649  -15.8045 C   0  0  0  0  0  0  0  0  0  0  0  0
   -7.6246    4.4419  -15.2220 C   0  0  0  0  0  0  0  0  0  0  0  0
   -6.5655    4.8096  -16.0709 C   0  0  0  0  0  0  0  0  0  0  0  0
   -5.7682    4.8533  -19.7699 N   0  0  0  0  0  0  0  0  0  0  0  0
   -5.5378    5.1380  -18.3642 C   0  0  0  0  0  0  0  0  0  0  0  0
   -4.9292    5.0787  -20.3044 H   0  0  0  0  0  0  0  0  0  0  0  0
   -6.5482    5.4171  -20.1076 H   0  0  0  0  0  0  0  0  0  0  0  0
   -5.3376    5.0443  -15.5043 O   0  0  0  0  0  0  0  0  0  0  0  0
   -5.1293    6.4353  -15.2530 C   0  0  0  0  0  0  0  0  0  0  0  0
   -4.0325    6.6191  -14.2215 C   0  0  0  0  0  0  0  0  0  0  0  0
   -2.9293    7.0991  -14.4329 O   0  0  0  0  0  0  0  0  0  0  0  0
   -4.3922    6.2662  -12.9671 O   0  0  0  0  0  0  0  0  0  0  0  0
   -5.2393    5.8982  -12.8086 H   0  0  0  0  0  0  0  0  0  0  0  0
   -6.5241    3.0015  -13.4115 C   0  0  0  0  0  0  0  0  0  0  0  0
   -6.9280    1.9146  -13.5643 O   0  0  0  0  0  0  0  0  0  0  0  0
   -5.1499    3.5004  -12.8731 N   0  0  0  0  0  0  0  0  0  0  0  0
   -5.0784    4.4765  -12.7666 H   0  0  0  0  0  0  0  0  0  0  0  0
   -3.9645    2.7635  -12.5049 C   0  0  0  0  0  0  0  0  0  0  0  0
   -3.1039    2.3705  -13.6994 C   0  0  0  0  0  0  0  0  0  0  0  0
   -3.6668    1.3761  -14.4290 F   0  0  0  0  0  0  0  0  0  0  0  0
   -2.9768    3.4344  -14.5414 F   0  0  0  0  0  0  0  0  0  0  0  0
   -8.6833    4.3156  -12.9999 N   0  0  0  0  0  0  0  0  0  0  0  0
   -9.5558    4.3192  -13.4558 H   0  0  0  0  0  0  0  0  0  0  0  0
   -8.5421    4.3368  -11.5966 C   0  0  0  0  0  0  0  0  0  0  0  0
   -8.1334    5.5135  -10.9356 C   0  0  0  0  0  0  0  0  0  0  0  0
   -8.0238    5.5572   -9.5427 C   0  0  0  0  0  0  0  0  0  0  0  0
   -8.3366    4.4144   -8.8312 C   0  0  0  0  0  0  0  0  0  0  0  0
   -8.6878    3.2353   -9.4807 C   0  0  0  0  0  0  0  0  0  0  0  0
   -8.7715    3.1720  -10.8589 C   0  0  0  0  0  0  0  0  0  0  0  0
   -8.9452    2.1724   -8.4656 C   0  0  0  0  0  0  0  0  0  0  0  0
   -9.1244    2.9125   -7.1856 N   0  0  0  0  0  0  0  0  0  0  0  0
   -8.3983    4.1882   -7.3581 C   0  0  0  0  0  0  0  0  0  0  0  0
   -8.7307    2.3810   -6.4091 H   0  0  0  0  0  0  0  0  0  0  0  0
  9 10  1  0  0  0
 10  2  1  0  0  0
  2  3  2  0  0  0
  3  4  1  0  0  0
  4  5  1  0  0  0
  4  6  2  0  0  0
  6  7  1  0  0  0
  7  1  1  0  0  0
  1 27  1  0  0  0
 27 29  1  0  0  0
 29 30  2  0  0  0
 30 31  1  0  0  0
 31 32  2  0  0  0
 32 33  1  0  0  0
 33 34  2  0  0  0
 33 35  1  0  0  0
 35 36  1  0  0  0
 36 37  1  0  0  0
  1 19  1  0  0  0
 19 20  2  0  0  0
 19 21  1  0  0  0
 21 23  1  0  0  0
 23 24  1  0  0  0
 24 25  1  0  0  0
 24 26  1  0  0  0
  7  8  2  0  0  0
  8 13  1  0  0  0
 13 14  1  0  0  0
 14 15  1  0  0  0
 15 16  2  0  0  0
 15 17  1  0  0  0
  8  2  1  0  0  0
 34 29  1  0  0  0
 37 32  1  0  0  0
  9 11  1  0  0  0
  9 12  1  0  0  0
 27 28  1  0  0  0
 36 38  1  0  0  0
 21 22  1  0  0  0
 17 18  1  0  0  0
M  END
> <minimizedAffinity>
-7.63101

> <minimizedRMSD>
0.73797

$$$$
P23532


 42 45  0  0  0  0  0  0  0  0999 V2000
   -6.4622    5.4902  -15.3118 C   0  0  0  0  0  0  0  0  0  0  0  0
   -7.3094    4.2108  -15.0308 C   0  0  0  0  0  0  0  0  0  0  0  0
   -8.6627    4.2812  -15.7602 C   0  0  0  0  0  0  0  0  0  0  0  0
   -8.4306    4.2963  -17.2691 C   0  0  0  0  0  0  0  0  0  0  0  0
   -7.5635    5.4977  -17.6787 C   0  0  0  0  0  0  0  0  0  0  0  0
   -6.2445    5.7280  -16.8720 C   0  0  0  0  0  0  0  0  0  0  0  0
   -5.7211    7.1578  -17.2064 C   0  0  0  0  0  0  0  0  0  0  0  0
   -4.2769    7.4126  -16.7719 C   0  0  0  0  0  0  0  0  0  0  0  0
   -3.3676    6.4547  -17.3855 N   0  0  0  0  0  0  0  0  0  0  0  0
   -3.7480    5.0950  -17.0182 C   0  0  0  0  0  0  0  0  0  0  0  0
   -5.1776    4.7743  -17.4328 C   0  0  0  0  0  0  0  0  0  0  0  0
   -2.4173    6.6377  -17.0633 H   0  0  0  0  0  0  0  0  0  0  0  0
   -9.7205    4.1401  -18.1046 C   0  0  0  0  0  0  0  0  0  0  0  0
  -10.6786    5.1550  -17.8372 O   0  0  0  0  0  0  0  0  0  0  0  0
  -10.9477    5.1083  -16.9064 H   0  0  0  0  0  0  0  0  0  0  0  0
   -7.1724    6.5869  -14.7349 O   0  0  0  0  0  0  0  0  0  0  0  0
   -6.4391    7.5988  -14.0664 C   0  0  0  0  0  0  0  0  0  0  0  0
   -5.0174    6.3066  -12.4948 O   0  0  0  0  0  0  0  0  0  0  0  0
   -5.5484    7.3482  -12.8407 C   0  0  0  0  0  0  0  0  0  0  0  0
   -5.3292    8.4792  -12.1331 O   0  0  0  0  0  0  0  0  0  0  0  0
   -5.7352    9.2819  -12.3953 H   0  0  0  0  0  0  0  0  0  0  0  0
   -7.5320    3.7207  -13.5669 C   0  0  0  0  0  0  0  0  0  0  0  0
   -6.4483    2.6524  -13.1993 C   0  0  0  0  0  0  0  0  0  0  0  0
   -6.6757    1.5119  -13.2860 O   0  0  0  0  0  0  0  0  0  0  0  0
   -5.1692    3.3839  -12.7503 N   0  0  0  0  0  0  0  0  0  0  0  0
   -5.2537    4.3629  -12.6904 H   0  0  0  0  0  0  0  0  0  0  0  0
   -3.8686    2.8682  -12.4035 C   0  0  0  0  0  0  0  0  0  0  0  0
   -3.0509    2.3663  -13.5891 C   0  0  0  0  0  0  0  0  0  0  0  0
   -3.6435    1.3304  -14.2328 F   0  0  0  0  0  0  0  0  0  0  0  0
   -2.9181    3.3540  -14.5153 F   0  0  0  0  0  0  0  0  0  0  0  0
   -7.6253    4.8241  -12.6025 N   0  0  0  0  0  0  0  0  0  0  0  0
   -7.3865    5.7355  -12.8880 H   0  0  0  0  0  0  0  0  0  0  0  0
   -8.0482    4.6058  -11.2822 C   0  0  0  0  0  0  0  0  0  0  0  0
   -7.8281    5.6568  -10.3631 C   0  0  0  0  0  0  0  0  0  0  0  0
   -8.0562    5.5065   -8.9908 C   0  0  0  0  0  0  0  0  0  0  0  0
   -8.5315    4.2924   -8.5408 C   0  0  0  0  0  0  0  0  0  0  0  0
   -8.7796    3.2539   -9.4275 C   0  0  0  0  0  0  0  0  0  0  0  0
   -8.5394    3.3894  -10.7874 C   0  0  0  0  0  0  0  0  0  0  0  0
   -9.2651    2.0639   -8.6649 C   0  0  0  0  0  0  0  0  0  0  0  0
   -9.6190    2.5876   -7.3178 N   0  0  0  0  0  0  0  0  0  0  0  0
   -8.8430    3.8336   -7.1562 C   0  0  0  0  0  0  0  0  0  0  0  0
   -9.3637    1.9136   -6.5960 H   0  0  0  0  0  0  0  0  0  0  0  0
 18 19  2  0  0  0
 19 20  1  0  0  0
 19 17  1  0  0  0
 17 16  1  0  0  0
  1 16  1  0  0  0
  1  2  1  0  0  0
  2 22  1  0  0  0
 22 31  1  0  0  0
 31 33  1  0  0  0
 33 34  2  0  0  0
 34 35  1  0  0  0
 35 36  2  0  0  0
 36 37  1  0  0  0
 37 38  2  0  0  0
 37 39  1  0  0  0
 39 40  1  0  0  0
 40 41  1  0  0  0
 22 23  1  0  0  0
 23 24  2  0  0  0
 23 25  1  0  0  0
 25 27  1  0  0  0
 27 28  1  0  0  0
 28 29  1  0  0  0
 28 30  1  0  0  0
  2  3  1  0  0  0
  3  4  1  0  0  0
  4 13  1  0  0  0
 13 14  1  0  0  0
  4  5  1  0  0  0
  5  6  1  0  0  0
  6  7  1  0  0  0
  7  8  1  0  0  0
  8  9  1  0  0  0
  9 10  1  0  0  0
 10 11  1  0  0  0
  6  1  1  0  0  0
 38 33  1  0  0  0
 11  6  1  0  0  0
 41 36  1  0  0  0
 20 21  1  0  0  0
 31 32  1  0  0  0
 40 42  1  0  0  0
 25 26  1  0  0  0
 14 15  1  0  0  0
  9 12  1  0  0  0
M  END
> <minimizedAffinity>
-7.68401

> <minimizedRMSD>
0.50390

$$$$
P23545


 39 41  0  0  0  0  0  0  0  0999 V2000
   -7.4840    4.4236  -13.7886 C   0  0  0  0  0  0  0  0  0  0  0  0
   -7.7060    4.5381  -15.2992 C   0  0  0  0  0  0  0  0  0  0  0  0
   -8.9421    4.2340  -15.8940 C   0  0  0  0  0  0  0  0  0  0  0  0
   -9.0830    4.2173  -17.2822 C   0  0  0  0  0  0  0  0  0  0  0  0
  -10.6028    3.8330  -17.9969 Cl  0  0  0  0  0  0  0  0  0  0  0  0
   -7.9984    4.5066  -18.1073 C   0  0  0  0  0  0  0  0  0  0  0  0
   -6.7525    4.8231  -17.5513 C   0  0  0  0  0  0  0  0  0  0  0  0
   -5.6003    5.1202  -18.4654 C   0  0  0  0  0  0  0  0  0  0  0  0
   -6.6294    4.8657  -16.1512 C   0  0  0  0  0  0  0  0  0  0  0  0
   -5.4074    5.1560  -15.5930 O   0  0  0  0  0  0  0  0  0  0  0  0
   -5.2714    6.5629  -15.3769 C   0  0  0  0  0  0  0  0  0  0  0  0
   -4.2807    6.8405  -14.2617 C   0  0  0  0  0  0  0  0  0  0  0  0
   -3.1654    7.3181  -14.4045 O   0  0  0  0  0  0  0  0  0  0  0  0
   -4.7472    6.5766  -13.0201 O   0  0  0  0  0  0  0  0  0  0  0  0
   -5.6025    6.2103  -12.9089 H   0  0  0  0  0  0  0  0  0  0  0  0
   -6.6301    3.1290  -13.4785 C   0  0  0  0  0  0  0  0  0  0  0  0
   -7.0532    2.0425  -13.5669 O   0  0  0  0  0  0  0  0  0  0  0  0
   -5.1893    3.6270  -13.1649 N   0  0  0  0  0  0  0  0  0  0  0  0
   -5.0685    4.6024  -13.2222 H   0  0  0  0  0  0  0  0  0  0  0  0
   -4.0030    2.8919  -12.8042 C   0  0  0  0  0  0  0  0  0  0  0  0
   -3.2155    2.5178  -14.0502 C   0  0  0  0  0  0  0  0  0  0  0  0
   -3.6610    1.3575  -14.5863 F   0  0  0  0  0  0  0  0  0  0  0  0
   -1.9080    2.3386  -13.7437 F   0  0  0  0  0  0  0  0  0  0  0  0
   -8.7574    4.4590  -13.0340 N   0  0  0  0  0  0  0  0  0  0  0  0
   -9.6449    4.3102  -13.4334 H   0  0  0  0  0  0  0  0  0  0  0  0
   -8.1319    7.2238  -12.0665 C   0  0  0  0  0  0  0  0  0  0  0  0
   -8.2055    6.0276  -11.1621 C   0  0  0  0  0  0  0  0  0  0  0  0
   -7.9743    6.2118   -9.7834 C   0  0  0  0  0  0  0  0  0  0  0  0
   -8.1432    5.1430   -8.9143 C   0  0  0  0  0  0  0  0  0  0  0  0
   -8.4915    3.8899   -9.3844 C   0  0  0  0  0  0  0  0  0  0  0  0
   -8.6226    3.6547  -10.7377 C   0  0  0  0  0  0  0  0  0  0  0  0
   -9.1031    2.4281  -11.2115 N   0  0  0  0  0  0  0  0  0  0  0  0
   -8.5294    4.7389  -11.6413 C   0  0  0  0  0  0  0  0  0  0  0  0
   -8.7521    2.9700   -8.2427 C   0  0  0  0  0  0  0  0  0  0  0  0
   -8.4302    3.7360   -7.0097 N   0  0  0  0  0  0  0  0  0  0  0  0
   -8.0924    5.1131   -7.4263 C   0  0  0  0  0  0  0  0  0  0  0  0
   -9.1768    1.6593  -10.6010 H   0  0  0  0  0  0  0  0  0  0  0  0
   -9.3674    2.3344  -12.1552 H   0  0  0  0  0  0  0  0  0  0  0  0
   -7.6359    3.3108   -6.5315 H   0  0  0  0  0  0  0  0  0  0  0  0
 26 27  1  0  0  0
 27 28  2  0  0  0
 28 29  1  0  0  0
 29 30  2  0  0  0
 30 31  1  0  0  0
 31 32  1  0  0  0
 31 33  2  0  0  0
 33 24  1  0  0  0
  1 24  1  0  0  0
  1 16  1  0  0  0
 16 17  2  0  0  0
 16 18  1  0  0  0
 18 20  1  0  0  0
 20 21  1  0  0  0
 21 22  1  0  0  0
 21 23  1  0  0  0
  1  2  1  0  0  0
  2  3  2  0  0  0
  3  4  1  0  0  0
  4  5  1  0  0  0
  4  6  2  0  0  0
  6  7  1  0  0  0
  7  8  1  0  0  0
  7  9  2  0  0  0
  9 10  1  0  0  0
 10 11  1  0  0  0
 11 12  1  0  0  0
 12 13  2  0  0  0
 12 14  1  0  0  0
 30 34  1  0  0  0
 34 35  1  0  0  0
 35 36  1  0  0  0
 33 27  1  0  0  0
  9  2  1  0  0  0
 36 29  1  0  0  0
 32 37  1  0  0  0
 32 38  1  0  0  0
 24 25  1  0  0  0
 18 19  1  0  0  0
 14 15  1  0  0  0
 35 39  1  0  0  0
M  END
> <minimizedAffinity>
-8.08667

> <minimizedRMSD>
0.78738

$$$$
P23559


 45 47  0  0  0  0  0  0  0  0999 V2000
   -7.7573    4.3376  -14.9827 C   0  0  0  0  0  0  0  0  0  0  0  0
   -8.9495    4.1416  -15.7087 C   0  0  0  0  0  0  0  0  0  0  0  0
   -8.9967    4.3324  -17.0865 C   0  0  0  0  0  0  0  0  0  0  0  0
  -10.4282    3.9373  -17.9527 Cl  0  0  0  0  0  0  0  0  0  0  0  0
   -7.8722    4.7607  -17.7768 C   0  0  0  0  0  0  0  0  0  0  0  0
   -6.6901    5.0419  -17.0758 C   0  0  0  0  0  0  0  0  0  0  0  0
   -6.6460    4.8780  -15.6679 C   0  0  0  0  0  0  0  0  0  0  0  0
   -5.4566    5.3029  -17.8903 C   0  0  0  0  0  0  0  0  0  0  0  0
   -4.5044    4.6748  -17.6561 O   0  0  0  0  0  0  0  0  0  0  0  0
   -5.7017    6.3855  -18.9630 N   0  0  0  0  0  0  0  0  0  0  0  0
   -6.6268    6.7191  -19.0081 H   0  0  0  0  0  0  0  0  0  0  0  0
   -4.7802    6.9979  -19.9259 C   0  0  0  0  0  0  0  0  0  0  0  0
   -3.5333    7.4995  -19.1812 C   0  0  0  0  0  0  0  0  0  0  0  0
   -4.3649    5.9391  -20.9576 C   0  0  0  0  0  0  0  0  0  0  0  0
   -5.4459    8.2090  -20.6211 C   0  0  0  0  0  0  0  0  0  0  0  0
   -5.6095    8.0490  -22.0237 O   0  0  0  0  0  0  0  0  0  0  0  0
   -4.7394    7.9561  -22.4423 H   0  0  0  0  0  0  0  0  0  0  0  0
   -7.7280    3.8520  -13.5233 C   0  0  0  0  0  0  0  0  0  0  0  0
   -6.6692    2.7165  -13.2692 C   0  0  0  0  0  0  0  0  0  0  0  0
   -6.9361    1.5983  -13.4680 O   0  0  0  0  0  0  0  0  0  0  0  0
   -5.3566    3.3580  -12.7748 N   0  0  0  0  0  0  0  0  0  0  0  0
   -5.3589    4.3424  -12.7602 H   0  0  0  0  0  0  0  0  0  0  0  0
   -4.1267    2.7506  -12.3305 C   0  0  0  0  0  0  0  0  0  0  0  0
   -3.1753    2.3700  -13.4656 C   0  0  0  0  0  0  0  0  0  0  0  0
   -3.6583    1.3673  -14.2386 F   0  0  0  0  0  0  0  0  0  0  0  0
   -2.9814    3.4340  -14.2916 F   0  0  0  0  0  0  0  0  0  0  0  0
   -7.6304    4.9809  -12.5859 N   0  0  0  0  0  0  0  0  0  0  0  0
   -7.3093    5.8542  -12.9076 H   0  0  0  0  0  0  0  0  0  0  0  0
   -7.4018    7.2904  -10.9022 C   0  0  0  0  0  0  0  0  0  0  0  0
   -7.8328    5.9496  -10.3670 C   0  0  0  0  0  0  0  0  0  0  0  0
   -8.0420    5.8282   -8.9795 C   0  0  0  0  0  0  0  0  0  0  0  0
   -8.4180    4.6048   -8.4633 C   0  0  0  0  0  0  0  0  0  0  0  0
   -8.5842    3.5065   -9.2906 C   0  0  0  0  0  0  0  0  0  0  0  0
   -8.3684    3.5956  -10.6578 C   0  0  0  0  0  0  0  0  0  0  0  0
   -7.9919    4.8267  -11.2300 C   0  0  0  0  0  0  0  0  0  0  0  0
   -8.9533    2.3195   -8.4602 C   0  0  0  0  0  0  0  0  0  0  0  0
   -9.3493    2.8824   -7.1407 N   0  0  0  0  0  0  0  0  0  0  0  0
   -8.6833    4.1982   -7.0530 C   0  0  0  0  0  0  0  0  0  0  0  0
   -9.0350    2.2734   -6.3852 H   0  0  0  0  0  0  0  0  0  0  0  0
   -5.5445    5.1424  -14.9020 O   0  0  0  0  0  0  0  0  0  0  0  0
   -5.2374    6.5187  -14.7121 C   0  0  0  0  0  0  0  0  0  0  0  0
   -4.4941    6.6959  -13.4023 C   0  0  0  0  0  0  0  0  0  0  0  0
   -4.6452    6.0861  -12.3568 O   0  0  0  0  0  0  0  0  0  0  0  0
   -3.5762    7.6882  -13.4692 O   0  0  0  0  0  0  0  0  0  0  0  0
   -3.4547    8.1609  -14.2691 H   0  0  0  0  0  0  0  0  0  0  0  0
 29 30  1  0  0  0
 30 31  2  0  0  0
 31 32  1  0  0  0
 32 33  2  0  0  0
 33 34  1  0  0  0
 34 35  2  0  0  0
 35 27  1  0  0  0
 18 27  1  0  0  0
 18 19  1  0  0  0
 19 20  2  0  0  0
 19 21  1  0  0  0
 21 23  1  0  0  0
 23 24  1  0  0  0
 24 25  1  0  0  0
 24 26  1  0  0  0
 18  1  1  0  0  0
  1  2  2  0  0  0
  2  3  1  0  0  0
  3  4  1  0  0  0
  3  5  2  0  0  0
  5  6  1  0  0  0
  6  8  1  0  0  0
  8  9  2  0  0  0
  8 10  1  0  0  0
 10 12  1  0  0  0
 12 13  1  0  0  0
 12 14  1  0  0  0
 12 15  1  0  0  0
 15 16  1  0  0  0
  6  7  2  0  0  0
  7 40  1  0  0  0
 40 41  1  0  0  0
 41 42  1  0  0  0
 42 43  2  0  0  0
 42 44  1  0  0  0
 33 36  1  0  0  0
 36 37  1  0  0  0
 37 38  1  0  0  0
 35 30  1  0  0  0
  7  1  1  0  0  0
 38 32  1  0  0  0
 27 28  1  0  0  0
 21 22  1  0  0  0
 10 11  1  0  0  0
 16 17  1  0  0  0
 44 45  1  0  0  0
 37 39  1  0  0  0
M  END
> <minimizedAffinity>
-7.40283

> <minimizedRMSD>
0.47235

$$$$
P23563


 48 51  0  0  0  0  0  0  0  0999 V2000
   -7.5083    4.3804  -15.0290 C   0  0  0  0  0  0  0  0  0  0  0  0
   -8.7384    4.1791  -15.6814 C   0  0  0  0  0  0  0  0  0  0  0  0
   -8.8678    4.3928  -17.0553 C   0  0  0  0  0  0  0  0  0  0  0  0
  -10.3779    4.1004  -17.8297 Cl  0  0  0  0  0  0  0  0  0  0  0  0
   -7.7805    4.8096  -17.8170 C   0  0  0  0  0  0  0  0  0  0  0  0
   -6.5507    5.0272  -17.1993 C   0  0  0  0  0  0  0  0  0  0  0  0
   -6.4358    4.8632  -15.8038 C   0  0  0  0  0  0  0  0  0  0  0  0
   -5.4120    5.3521  -17.9395 N   0  0  0  0  0  0  0  0  0  0  0  0
   -5.0806    5.1039  -19.2922 C   0  0  0  0  0  0  0  0  0  0  0  0
   -5.6531    4.4838  -20.1357 O   0  0  0  0  0  0  0  0  0  0  0  0
   -4.7211    5.8372  -17.4329 H   0  0  0  0  0  0  0  0  0  0  0  0
   -3.8945    5.7416  -19.5037 O   0  0  0  0  0  0  0  0  0  0  0  0
   -3.5608    5.9873  -20.8772 C   0  0  0  0  0  0  0  0  0  0  0  0
   -4.2375    7.2505  -21.3506 C   0  0  0  0  0  0  0  0  0  0  0  0
   -4.9397    7.2682  -22.5650 C   0  0  0  0  0  0  0  0  0  0  0  0
   -5.5817    8.4294  -22.9973 C   0  0  0  0  0  0  0  0  0  0  0  0
   -5.5344    9.5827  -22.2167 C   0  0  0  0  0  0  0  0  0  0  0  0
   -4.8504    9.5737  -21.0016 C   0  0  0  0  0  0  0  0  0  0  0  0
   -4.2080    8.4123  -20.5676 C   0  0  0  0  0  0  0  0  0  0  0  0
   -7.3068    4.0582  -13.5477 C   0  0  0  0  0  0  0  0  0  0  0  0
   -6.3677    2.7952  -13.3314 C   0  0  0  0  0  0  0  0  0  0  0  0
   -6.8254    1.7007  -13.5151 O   0  0  0  0  0  0  0  0  0  0  0  0
   -5.0741    3.2027  -12.8492 N   0  0  0  0  0  0  0  0  0  0  0  0
   -4.9751    4.1731  -12.7159 H   0  0  0  0  0  0  0  0  0  0  0  0
   -3.8958    2.4300  -12.5274 C   0  0  0  0  0  0  0  0  0  0  0  0
   -2.9292    2.2604  -13.6936 C   0  0  0  0  0  0  0  0  0  0  0  0
   -3.4521    1.4783  -14.6700 F   0  0  0  0  0  0  0  0  0  0  0  0
   -2.6663    3.4661  -14.2661 F   0  0  0  0  0  0  0  0  0  0  0  0
   -8.6066    3.8193  -12.8684 N   0  0  0  0  0  0  0  0  0  0  0  0
   -9.4264    3.5345  -13.3333 H   0  0  0  0  0  0  0  0  0  0  0  0
   -8.6990    2.7854   -5.6669 N   0  0  0  0  0  0  0  0  0  0  0  0
   -9.2275    3.3770   -6.8789 N   0  0  0  0  0  0  0  0  0  0  0  0
   -8.4090    4.5604   -7.2527 C   0  0  0  0  0  0  0  0  0  0  0  0
   -8.3734    4.5502   -8.7459 C   0  0  0  0  0  0  0  0  0  0  0  0
   -8.0062    5.5573   -9.6181 C   0  0  0  0  0  0  0  0  0  0  0  0
   -8.0960    5.3022  -10.9879 C   0  0  0  0  0  0  0  0  0  0  0  0
   -8.5270    4.0500  -11.4724 C   0  0  0  0  0  0  0  0  0  0  0  0
   -8.8615    3.0342  -10.5658 C   0  0  0  0  0  0  0  0  0  0  0  0
   -8.7985    3.3075   -9.2096 C   0  0  0  0  0  0  0  0  0  0  0  0
   -9.1611    2.4352   -8.0459 C   0  0  0  0  0  0  0  0  0  0  0  0
   -8.7642    3.4586   -4.9035 H   0  0  0  0  0  0  0  0  0  0  0  0
   -7.7224    2.5289   -5.8116 H   0  0  0  0  0  0  0  0  0  0  0  0
   -5.2286    5.0944  -15.1878 O   0  0  0  0  0  0  0  0  0  0  0  0
   -5.0893    6.4673  -14.8020 C   0  0  0  0  0  0  0  0  0  0  0  0
   -4.1975    6.5504  -13.5787 C   0  0  0  0  0  0  0  0  0  0  0  0
   -4.3467    5.9643  -12.5171 O   0  0  0  0  0  0  0  0  0  0  0  0
   -3.1698    7.4085  -13.7467 O   0  0  0  0  0  0  0  0  0  0  0  0
   -3.0610    7.8549  -14.5633 H   0  0  0  0  0  0  0  0  0  0  0  0
 31 32  1  0  0  0
 32 33  1  0  0  0
 33 34  1  0  0  0
 34 35  2  0  0  0
 35 36  1  0  0  0
 36 37  2  0  0  0
 37 29  1  0  0  0
 20 29  1  0  0  0
 20 21  1  0  0  0
 21 22  2  0  0  0
 21 23  1  0  0  0
 23 25  1  0  0  0
 25 26  1  0  0  0
 26 27  1  0  0  0
 26 28  1  0  0  0
 20  1  1  0  0  0
  1  2  2  0  0  0
  2  3  1  0  0  0
  3  4  1  0  0  0
  3  5  2  0  0  0
  5  6  1  0  0  0
  6  8  1  0  0  0
  8  9  1  0  0  0
  9 10  2  0  0  0
  9 12  1  0  0  0
 12 13  1  0  0  0
 13 14  1  0  0  0
 14 15  2  0  0  0
 15 16  1  0  0  0
 16 17  2  0  0  0
 17 18  1  0  0  0
 18 19  2  0  0  0
  6  7  2  0  0  0
  7 43  1  0  0  0
 43 44  1  0  0  0
 44 45  1  0  0  0
 45 46  2  0  0  0
 45 47  1  0  0  0
 37 38  1  0  0  0
 38 39  2  0  0  0
 39 40  1  0  0  0
 40 32  1  0  0  0
 39 34  1  0  0  0
  7  1  1  0  0  0
 19 14  1  0  0  0
 31 41  1  0  0  0
 31 42  1  0  0  0
 29 30  1  0  0  0
 23 24  1  0  0  0
  8 11  1  0  0  0
 47 48  1  0  0  0
M  END
> <minimizedAffinity>
-7.85881

> <minimizedRMSD>
0.78032

$$$$
P23566


 44 47  0  0  0  0  0  0  0  0999 V2000
   -7.0076    4.1940  -13.5475 C   0  0  0  0  0  0  0  0  0  0  0  0
   -4.8228    5.1390  -19.0641 C   0  0  0  0  0  0  0  0  0  0  0  0
   -6.1352    5.0536  -19.1268 N   0  0  0  0  0  0  0  0  0  0  0  0
   -6.5876    4.8513  -17.8381 C   0  0  0  0  0  0  0  0  0  0  0  0
   -7.8619    4.6295  -17.2834 C   0  0  0  0  0  0  0  0  0  0  0  0
   -9.1973    4.5839  -18.3518 Cl  0  0  0  0  0  0  0  0  0  0  0  0
   -8.0127    4.4429  -15.9012 C   0  0  0  0  0  0  0  0  0  0  0  0
   -6.9021    4.4821  -15.0402 C   0  0  0  0  0  0  0  0  0  0  0  0
   -5.6314    4.7513  -15.5850 C   0  0  0  0  0  0  0  0  0  0  0  0
   -5.5074    4.8965  -16.9644 C   0  0  0  0  0  0  0  0  0  0  0  0
   -4.4094    5.0631  -17.7625 N   0  0  0  0  0  0  0  0  0  0  0  0
   -3.4768    5.1190  -17.4520 H   0  0  0  0  0  0  0  0  0  0  0  0
   -3.5342    6.7330  -20.5029 C   0  0  0  0  0  0  0  0  0  0  0  0
   -3.8339    5.2729  -20.1840 C   0  0  0  0  0  0  0  0  0  0  0  0
   -2.5519    4.5066  -19.8849 C   0  0  0  0  0  0  0  0  0  0  0  0
   -4.5187    4.7954  -14.7821 O   0  0  0  0  0  0  0  0  0  0  0  0
   -4.1858    6.1537  -14.4696 C   0  0  0  0  0  0  0  0  0  0  0  0
   -3.5226    6.2361  -13.1074 C   0  0  0  0  0  0  0  0  0  0  0  0
   -2.3815    6.6137  -12.8942 O   0  0  0  0  0  0  0  0  0  0  0  0
   -4.3323    5.8955  -12.0802 O   0  0  0  0  0  0  0  0  0  0  0  0
   -5.2074    5.6063  -12.2494 H   0  0  0  0  0  0  0  0  0  0  0  0
   -6.4352    2.7697  -13.1985 C   0  0  0  0  0  0  0  0  0  0  0  0
   -6.9865    1.7741  -13.4686 O   0  0  0  0  0  0  0  0  0  0  0  0
   -5.0430    3.0054  -12.5425 N   0  0  0  0  0  0  0  0  0  0  0  0
   -4.8333    3.9472  -12.3471 H   0  0  0  0  0  0  0  0  0  0  0  0
   -4.0105    2.0677  -12.1744 C   0  0  0  0  0  0  0  0  0  0  0  0
   -3.0029    1.9105  -13.3037 C   0  0  0  0  0  0  0  0  0  0  0  0
   -3.6040    1.5195  -14.4511 F   0  0  0  0  0  0  0  0  0  0  0  0
   -2.0863    0.9642  -12.9918 F   0  0  0  0  0  0  0  0  0  0  0  0
   -8.3800    4.3666  -13.0402 N   0  0  0  0  0  0  0  0  0  0  0  0
   -9.1925    4.3741  -13.5962 H   0  0  0  0  0  0  0  0  0  0  0  0
   -8.3548    4.5207  -11.6290 C   0  0  0  0  0  0  0  0  0  0  0  0
   -8.0050    5.7649  -11.0558 C   0  0  0  0  0  0  0  0  0  0  0  0
   -7.9535    5.9441   -9.6710 C   0  0  0  0  0  0  0  0  0  0  0  0
   -8.2823    4.8696   -8.8711 C   0  0  0  0  0  0  0  0  0  0  0  0
   -8.6318    3.6420   -9.4286 C   0  0  0  0  0  0  0  0  0  0  0  0
   -8.6477    3.4395  -10.7989 C   0  0  0  0  0  0  0  0  0  0  0  0
   -9.0900    2.7331   -8.3448 C   0  0  0  0  0  0  0  0  0  0  0  0
   -8.4037    1.5081   -8.2912 N   0  0  0  0  0  0  0  0  0  0  0  0
   -8.7222    3.3916   -7.1011 N   0  0  0  0  0  0  0  0  0  0  0  0
   -8.4478    4.7963   -7.3888 C   0  0  0  0  0  0  0  0  0  0  0  0
   -7.4105    1.6813   -8.1360 H   0  0  0  0  0  0  0  0  0  0  0  0
   -8.5283    1.0096   -9.1723 H   0  0  0  0  0  0  0  0  0  0  0  0
   -7.8893    2.9506   -6.7107 H   0  0  0  0  0  0  0  0  0  0  0  0
 13 14  1  0  0  0
 14 15  1  0  0  0
 14  2  1  0  0  0
  2  3  2  0  0  0
  3  4  1  0  0  0
  4  5  2  0  0  0
  5  6  1  0  0  0
  5  7  1  0  0  0
  7  8  2  0  0  0
  8  1  1  0  0  0
  1 30  1  0  0  0
 30 32  1  0  0  0
 32 33  2  0  0  0
 33 34  1  0  0  0
 34 35  2  0  0  0
 35 36  1  0  0  0
 36 37  2  0  0  0
 36 38  1  0  0  0
 38 39  1  0  0  0
 38 40  1  0  0  0
 40 41  1  0  0  0
  1 22  1  0  0  0
 22 23  2  0  0  0
 22 24  1  0  0  0
 24 26  1  0  0  0
 26 27  1  0  0  0
 27 28  1  0  0  0
 27 29  1  0  0  0
  8  9  1  0  0  0
  9 16  1  0  0  0
 16 17  1  0  0  0
 17 18  1  0  0  0
 18 19  2  0  0  0
 18 20  1  0  0  0
  9 10  2  0  0  0
 10 11  1  0  0  0
 11  2  1  0  0  0
 10  4  1  0  0  0
 37 32  1  0  0  0
 41 35  1  0  0  0
 30 31  1  0  0  0
 39 42  1  0  0  0
 39 43  1  0  0  0
 40 44  1  0  0  0
 24 25  1  0  0  0
 20 21  1  0  0  0
 11 12  1  0  0  0
M  END
> <minimizedAffinity>
-8.25917

> <minimizedRMSD>
1.07950

$$$$
P23567


 46 49  0  0  0  0  0  0  0  0999 V2000
   -7.7339    3.7655  -13.5428 C   0  0  0  0  0  0  0  0  0  0  0  0
   -6.7880    5.0067  -17.1265 C   0  0  0  0  0  0  0  0  0  0  0  0
   -7.9994    4.7373  -17.7800 C   0  0  0  0  0  0  0  0  0  0  0  0
   -9.0962    4.2835  -17.0645 C   0  0  0  0  0  0  0  0  0  0  0  0
  -10.5739    3.9775  -17.8856 Cl  0  0  0  0  0  0  0  0  0  0  0  0
   -8.9980    4.0498  -15.6971 C   0  0  0  0  0  0  0  0  0  0  0  0
   -7.7925    4.2481  -15.0005 C   0  0  0  0  0  0  0  0  0  0  0  0
   -6.7303    4.8394  -15.7162 C   0  0  0  0  0  0  0  0  0  0  0  0
   -5.6324    5.2476  -19.3457 N   0  0  0  0  0  0  0  0  0  0  0  0
   -5.5821    5.4819  -17.9079 C   0  0  0  0  0  0  0  0  0  0  0  0
   -4.7790    5.6015  -19.7779 H   0  0  0  0  0  0  0  0  0  0  0  0
   -6.4392    5.7306  -19.7409 H   0  0  0  0  0  0  0  0  0  0  0  0
   -5.6119    5.2362  -15.0264 O   0  0  0  0  0  0  0  0  0  0  0  0
   -5.5114    6.6562  -14.9240 C   0  0  0  0  0  0  0  0  0  0  0  0
   -5.5347    7.1596  -13.4939 C   0  0  0  0  0  0  0  0  0  0  0  0
   -6.1100    8.1667  -13.1071 O   0  0  0  0  0  0  0  0  0  0  0  0
   -4.8027    6.4139  -12.6414 O   0  0  0  0  0  0  0  0  0  0  0  0
   -4.3659    5.6440  -12.9488 H   0  0  0  0  0  0  0  0  0  0  0  0
   -6.6111    2.6857  -13.3058 C   0  0  0  0  0  0  0  0  0  0  0  0
   -6.7811    1.5415  -13.4671 O   0  0  0  0  0  0  0  0  0  0  0  0
   -5.3364    3.4619  -12.8972 N   0  0  0  0  0  0  0  0  0  0  0  0
   -5.4313    4.4418  -12.9020 H   0  0  0  0  0  0  0  0  0  0  0  0
   -4.0368    2.9852  -12.5118 C   0  0  0  0  0  0  0  0  0  0  0  0
   -3.3920    2.0744  -13.5479 C   0  0  0  0  0  0  0  0  0  0  0  0
   -3.4918    2.6057  -14.7954 F   0  0  0  0  0  0  0  0  0  0  0  0
   -2.0581    1.9950  -13.2939 F   0  0  0  0  0  0  0  0  0  0  0  0
   -7.6030    4.8945  -12.6043 N   0  0  0  0  0  0  0  0  0  0  0  0
   -8.0893    5.6920  -13.0141 H   0  0  0  0  0  0  0  0  0  0  0  0
   -8.1384    4.7020  -11.2302 C   0  0  0  0  0  0  0  0  0  0  0  0
   -8.4646    3.2760  -10.7070 C   0  0  0  0  0  0  0  0  0  0  0  0
   -8.7298    3.2993   -9.2415 C   0  0  0  0  0  0  0  0  0  0  0  0
   -8.3737    4.2861   -8.4119 C   0  0  0  0  0  0  0  0  0  0  0  0
   -8.8243    3.9578   -7.0324 C   0  0  0  0  0  0  0  0  0  0  0  0
   -9.6121    2.7225   -7.1495 N   0  0  0  0  0  0  0  0  0  0  0  0
   -9.3827    2.1892   -8.5057 C   0  0  0  0  0  0  0  0  0  0  0  0
   -7.6014    5.5066   -8.8138 C   0  0  0  0  0  0  0  0  0  0  0  0
   -7.1226    5.3801  -10.2905 C   0  0  0  0  0  0  0  0  0  0  0  0
   -8.3839    6.7387   -8.6445 N   0  0  0  0  0  0  0  0  0  0  0  0
   -7.4396    7.7705   -8.2730 N   0  0  0  0  0  0  0  0  0  0  0  0
   -6.1805    7.1553   -8.0883 N   0  0  0  0  0  0  0  0  0  0  0  0
   -6.4200    5.7453   -7.9658 N   0  0  0  0  0  0  0  0  0  0  0  0
  -10.6028    2.9252   -7.0161 H   0  0  0  0  0  0  0  0  0  0  0  0
   -9.0810    6.6165   -7.9100 H   0  0  0  0  0  0  0  0  0  0  0  0
   -7.7378    8.2184   -7.4064 H   0  0  0  0  0  0  0  0  0  0  0  0
   -5.7372    7.5108   -7.2412 H   0  0  0  0  0  0  0  0  0  0  0  0
   -6.6132    5.4936   -6.9964 H   0  0  0  0  0  0  0  0  0  0  0  0
  9 10  1  0  0  0
 10  2  1  0  0  0
  2  3  2  0  0  0
  3  4  1  0  0  0
  4  5  1  0  0  0
  4  6  2  0  0  0
  6  7  1  0  0  0
  7  1  1  0  0  0
  1 27  1  0  0  0
 29 27  1  0  0  0
 29 30  1  0  0  0
 30 31  1  0  0  0
 31 32  2  0  0  0
 32 33  1  0  0  0
 33 34  1  0  0  0
 34 35  1  0  0  0
 32 36  1  0  0  0
 36 37  1  0  0  0
 36 38  1  0  0  0
 38 39  1  0  0  0
 39 40  1  0  0  0
 40 41  1  0  0  0
  1 19  1  0  0  0
 19 20  2  0  0  0
 19 21  1  0  0  0
 21 23  1  0  0  0
 23 24  1  0  0  0
 24 25  1  0  0  0
 24 26  1  0  0  0
  7  8  2  0  0  0
  8 13  1  0  0  0
 13 14  1  0  0  0
 14 15  1  0  0  0
 15 16  2  0  0  0
 15 17  1  0  0  0
  8  2  1  0  0  0
 37 29  1  0  0  0
 35 31  1  0  0  0
 41 36  1  0  0  0
  9 11  1  0  0  0
  9 12  1  0  0  0
 27 28  1  0  0  0
 34 42  1  0  0  0
 38 43  1  0  0  0
 39 44  1  0  0  0
 40 45  1  0  0  0
 41 46  1  0  0  0
 21 22  1  0  0  0
 17 18  1  0  0  0
M  END
> <minimizedAffinity>
-7.32550

> <minimizedRMSD>
0.22188

$$$$
P23568


 46 49  0  0  0  0  0  0  0  0999 V2000
   -6.8788    4.4301  -12.6269 C   0  0  0  0  0  0  0  0  0  0  0  0
   -5.8724    5.3528  -16.2866 C   0  0  0  0  0  0  0  0  0  0  0  0
   -7.0221    4.9702  -16.9836 C   0  0  0  0  0  0  0  0  0  0  0  0
   -8.1213    4.4716  -16.3064 C   0  0  0  0  0  0  0  0  0  0  0  0
   -9.5190    4.1095  -17.2393 Cl  0  0  0  0  0  0  0  0  0  0  0  0
   -8.0882    4.3062  -14.9196 C   0  0  0  0  0  0  0  0  0  0  0  0
   -6.9448    4.6396  -14.1593 C   0  0  0  0  0  0  0  0  0  0  0  0
   -5.8752    5.2277  -14.8714 C   0  0  0  0  0  0  0  0  0  0  0  0
   -4.3539    5.2129  -18.2908 N   0  0  0  0  0  0  0  0  0  0  0  0
   -4.6638    5.8822  -17.0231 C   0  0  0  0  0  0  0  0  0  0  0  0
   -3.5268    5.6403  -18.7075 H   0  0  0  0  0  0  0  0  0  0  0  0
   -5.1443    5.3093  -18.9283 H   0  0  0  0  0  0  0  0  0  0  0  0
   -4.7954    5.6926  -14.1606 O   0  0  0  0  0  0  0  0  0  0  0  0
   -4.8575    7.1187  -14.0057 C   0  0  0  0  0  0  0  0  0  0  0  0
   -5.1455    7.4481  -12.5564 C   0  0  0  0  0  0  0  0  0  0  0  0
   -4.5317    7.0430  -11.5819 O   0  0  0  0  0  0  0  0  0  0  0  0
   -6.2175    8.2525  -12.4076 O   0  0  0  0  0  0  0  0  0  0  0  0
   -6.6820    8.5583  -13.1617 H   0  0  0  0  0  0  0  0  0  0  0  0
   -5.8289    3.3560  -12.1195 C   0  0  0  0  0  0  0  0  0  0  0  0
   -6.1707    2.2612  -11.9078 O   0  0  0  0  0  0  0  0  0  0  0  0
   -4.4640    4.0380  -11.8939 N   0  0  0  0  0  0  0  0  0  0  0  0
   -4.4046    4.9620  -12.2286 H   0  0  0  0  0  0  0  0  0  0  0  0
   -3.2597    3.5420  -11.2719 C   0  0  0  0  0  0  0  0  0  0  0  0
   -2.6243    2.3472  -11.9590 C   0  0  0  0  0  0  0  0  0  0  0  0
   -3.1707    1.1730  -11.5823 F   0  0  0  0  0  0  0  0  0  0  0  0
   -2.7958    2.4502  -13.3011 F   0  0  0  0  0  0  0  0  0  0  0  0
   -8.2117    4.0359  -12.0784 N   0  0  0  0  0  0  0  0  0  0  0  0
   -8.3591    3.0510  -12.2988 H   0  0  0  0  0  0  0  0  0  0  0  0
   -8.3997    4.2050  -10.6106 C   0  0  0  0  0  0  0  0  0  0  0  0
   -8.7593    2.8671   -9.8914 C   0  0  0  0  0  0  0  0  0  0  0  0
   -8.9390    3.0656   -8.4339 C   0  0  0  0  0  0  0  0  0  0  0  0
   -8.5859    4.1643   -7.7627 C   0  0  0  0  0  0  0  0  0  0  0  0
   -8.9558    4.0020   -6.3330 C   0  0  0  0  0  0  0  0  0  0  0  0
   -9.6946    2.7318   -6.2530 N   0  0  0  0  0  0  0  0  0  0  0  0
   -9.4423    2.0168   -7.5180 C   0  0  0  0  0  0  0  0  0  0  0  0
   -7.8488    5.3287   -8.3608 C   0  0  0  0  0  0  0  0  0  0  0  0
   -7.3554    5.0024   -9.8025 C   0  0  0  0  0  0  0  0  0  0  0  0
   -8.6876    6.5441   -8.3703 N   0  0  0  0  0  0  0  0  0  0  0  0
   -7.8319    7.5845   -7.8778 N   0  0  0  0  0  0  0  0  0  0  0  0
   -6.9521    6.9602   -6.9682 N   0  0  0  0  0  0  0  0  0  0  0  0
   -6.6605    5.6988   -7.5741 N   0  0  0  0  0  0  0  0  0  0  0  0
  -10.6926    2.9116   -6.1435 H   0  0  0  0  0  0  0  0  0  0  0  0
   -9.4972    6.4265   -7.7611 H   0  0  0  0  0  0  0  0  0  0  0  0
   -8.3813    8.3021   -7.4050 H   0  0  0  0  0  0  0  0  0  0  0  0
   -7.4007    6.8311   -6.0613 H   0  0  0  0  0  0  0  0  0  0  0  0
   -6.4800    4.9966   -6.8568 H   0  0  0  0  0  0  0  0  0  0  0  0
  9 10  1  0  0  0
 10  2  1  0  0  0
  2  3  2  0  0  0
  3  4  1  0  0  0
  4  5  1  0  0  0
  4  6  2  0  0  0
  6  7  1  0  0  0
  7  1  1  0  0  0
  1 27  1  0  0  0
 29 27  1  0  0  0
 29 30  1  0  0  0
 30 31  1  0  0  0
 31 32  2  0  0  0
 32 33  1  0  0  0
 33 34  1  0  0  0
 34 35  1  0  0  0
 32 36  1  0  0  0
 36 37  1  0  0  0
 36 38  1  0  0  0
 38 39  1  0  0  0
 39 40  1  0  0  0
 40 41  1  0  0  0
  1 19  1  0  0  0
 19 20  2  0  0  0
 19 21  1  0  0  0
 21 23  1  0  0  0
 23 24  1  0  0  0
 24 25  1  0  0  0
 24 26  1  0  0  0
  7  8  2  0  0  0
  8 13  1  0  0  0
 13 14  1  0  0  0
 14 15  1  0  0  0
 15 16  2  0  0  0
 15 17  1  0  0  0
  8  2  1  0  0  0
 37 29  1  0  0  0
 35 31  1  0  0  0
 41 36  1  0  0  0
  9 11  1  0  0  0
  9 12  1  0  0  0
 27 28  1  0  0  0
 34 42  1  0  0  0
 38 43  1  0  0  0
 39 44  1  0  0  0
 40 45  1  0  0  0
 41 46  1  0  0  0
 21 22  1  0  0  0
 17 18  1  0  0  0
M  END
> <minimizedAffinity>
-6.84875

> <minimizedRMSD>
0.73491

$$$$
P23572


 41 44  0  0  0  0  0  0  0  0999 V2000
   -7.4798    3.7835  -13.3601 C   0  0  0  0  0  0  0  0  0  0  0  0
   -4.4298    7.3257  -16.9878 C   0  0  0  0  0  0  0  0  0  0  0  0
   -5.0556    6.0205  -17.4663 C   0  0  0  0  0  0  0  0  0  0  0  0
   -3.9619    4.9765  -17.7104 C   0  0  0  0  0  0  0  0  0  0  0  0
   -5.7765    6.2713  -18.8121 C   0  0  0  0  0  0  0  0  0  0  0  0
   -5.3162    6.8556  -19.7809 O   0  0  0  0  0  0  0  0  0  0  0  0
   -7.0368    5.7154  -18.7134 N   0  0  0  0  0  0  0  0  0  0  0  0
   -7.2908    5.2284  -17.4358 C   0  0  0  0  0  0  0  0  0  0  0  0
   -8.4529    4.6465  -16.9667 C   0  0  0  0  0  0  0  0  0  0  0  0
   -9.8423    4.4164  -17.9571 Cl  0  0  0  0  0  0  0  0  0  0  0  0
   -8.4785    4.2360  -15.6332 C   0  0  0  0  0  0  0  0  0  0  0  0
   -7.3646    4.4009  -14.7642 C   0  0  0  0  0  0  0  0  0  0  0  0
   -6.2294    5.0847  -15.2603 C   0  0  0  0  0  0  0  0  0  0  0  0
   -6.1759    5.4450  -16.6108 C   0  0  0  0  0  0  0  0  0  0  0  0
   -7.6787    5.6693  -19.4584 H   0  0  0  0  0  0  0  0  0  0  0  0
   -5.1726    5.3756  -14.4416 O   0  0  0  0  0  0  0  0  0  0  0  0
   -5.3083    6.6849  -13.8747 C   0  0  0  0  0  0  0  0  0  0  0  0
   -4.5320    6.8999  -12.5871 C   0  0  0  0  0  0  0  0  0  0  0  0
   -3.8450    7.8821  -12.3411 O   0  0  0  0  0  0  0  0  0  0  0  0
   -4.6376    5.9028  -11.6900 O   0  0  0  0  0  0  0  0  0  0  0  0
   -5.1650    5.1527  -11.8832 H   0  0  0  0  0  0  0  0  0  0  0  0
   -6.4683    2.6054  -13.1099 C   0  0  0  0  0  0  0  0  0  0  0  0
   -6.8087    1.5009  -13.2665 O   0  0  0  0  0  0  0  0  0  0  0  0
   -5.1072    3.1777  -12.6684 N   0  0  0  0  0  0  0  0  0  0  0  0
   -5.0483    4.1603  -12.6852 H   0  0  0  0  0  0  0  0  0  0  0  0
   -3.9046    2.5075  -12.2343 C   0  0  0  0  0  0  0  0  0  0  0  0
   -2.9819    2.0520  -13.3624 C   0  0  0  0  0  0  0  0  0  0  0  0
   -3.6354    1.3558  -14.3232 F   0  0  0  0  0  0  0  0  0  0  0  0
   -2.4346    3.1330  -13.9811 F   0  0  0  0  0  0  0  0  0  0  0  0
   -7.4833    4.8437  -12.3341 N   0  0  0  0  0  0  0  0  0  0  0  0
   -7.1963    5.7534  -12.5775 H   0  0  0  0  0  0  0  0  0  0  0  0
   -7.8897    4.5769  -11.0142 C   0  0  0  0  0  0  0  0  0  0  0  0
   -7.7179    5.6289  -10.0857 C   0  0  0  0  0  0  0  0  0  0  0  0
   -8.0039    5.4760   -8.7269 C   0  0  0  0  0  0  0  0  0  0  0  0
   -8.4949    4.2599   -8.3011 C   0  0  0  0  0  0  0  0  0  0  0  0
   -8.7058    3.2254   -9.2001 C   0  0  0  0  0  0  0  0  0  0  0  0
   -8.4083    3.3620  -10.5510 C   0  0  0  0  0  0  0  0  0  0  0  0
   -9.2402    2.0368   -8.4740 C   0  0  0  0  0  0  0  0  0  0  0  0
   -9.4732    2.4783   -7.0719 N   0  0  0  0  0  0  0  0  0  0  0  0
   -8.8753    3.8200   -6.9305 C   0  0  0  0  0  0  0  0  0  0  0  0
   -9.0299    1.8282   -6.4229 H   0  0  0  0  0  0  0  0  0  0  0  0
  2  3  1  0  0  0
  3  4  1  0  0  0
  3  5  1  0  0  0
  5  6  2  0  0  0
  5  7  1  0  0  0
  7  8  1  0  0  0
  8  9  2  0  0  0
  9 10  1  0  0  0
  9 11  1  0  0  0
 11 12  2  0  0  0
 12  1  1  0  0  0
  1 30  1  0  0  0
 30 32  1  0  0  0
 32 33  2  0  0  0
 33 34  1  0  0  0
 34 35  2  0  0  0
 35 36  1  0  0  0
 36 37  2  0  0  0
 36 38  1  0  0  0
 38 39  1  0  0  0
 39 40  1  0  0  0
  1 22  1  0  0  0
 22 23  2  0  0  0
 22 24  1  0  0  0
 24 26  1  0  0  0
 26 27  1  0  0  0
 27 28  1  0  0  0
 27 29  1  0  0  0
 12 13  1  0  0  0
 13 16  1  0  0  0
 16 17  1  0  0  0
 17 18  1  0  0  0
 18 19  2  0  0  0
 18 20  1  0  0  0
 13 14  2  0  0  0
 14  3  1  0  0  0
 14  8  1  0  0  0
 37 32  1  0  0  0
 40 35  1  0  0  0
  7 15  1  0  0  0
 30 31  1  0  0  0
 39 41  1  0  0  0
 24 25  1  0  0  0
 20 21  1  0  0  0
M  END
> <minimizedAffinity>
-7.77576

> <minimizedRMSD>
0.44560

$$$$
P23577


 43 47  0  0  0  0  0  0  0  0999 V2000
   -7.6206    3.7950  -13.3852 C   0  0  0  0  0  0  0  0  0  0  0  0
   -7.5531    4.3757  -14.8139 C   0  0  0  0  0  0  0  0  0  0  0  0
   -8.6656    4.1039  -15.6576 C   0  0  0  0  0  0  0  0  0  0  0  0
   -8.6685    4.3671  -17.0248 C   0  0  0  0  0  0  0  0  0  0  0  0
  -10.0603    3.9872  -17.9643 Cl  0  0  0  0  0  0  0  0  0  0  0  0
   -7.5513    4.9026  -17.6459 C   0  0  0  0  0  0  0  0  0  0  0  0
   -6.4853    5.2535  -16.8148 C   0  0  0  0  0  0  0  0  0  0  0  0
   -5.2654    5.7778  -17.1356 N   0  0  0  0  0  0  0  0  0  0  0  0
   -4.5513    6.1798  -16.0803 N   0  0  0  0  0  0  0  0  0  0  0  0
   -5.2861    5.7859  -15.0196 C   0  0  0  0  0  0  0  0  0  0  0  0
   -6.4767    5.0860  -15.4256 C   0  0  0  0  0  0  0  0  0  0  0  0
   -4.9411    5.8527  -18.0621 H   0  0  0  0  0  0  0  0  0  0  0  0
   -4.9077    6.2278  -13.6831 C   0  0  0  0  0  0  0  0  0  0  0  0
   -3.8637    5.9932  -13.0894 O   0  0  0  0  0  0  0  0  0  0  0  0
   -5.8270    7.0401  -13.0978 O   0  0  0  0  0  0  0  0  0  0  0  0
   -6.6319    7.2305  -13.5382 H   0  0  0  0  0  0  0  0  0  0  0  0
   -5.2718    3.2728  -12.6135 N   0  0  0  0  0  0  0  0  0  0  0  0
   -6.5685    2.6365  -13.1627 C   0  0  0  0  0  0  0  0  0  0  0  0
   -6.8018    1.5328  -13.4590 O   0  0  0  0  0  0  0  0  0  0  0  0
   -5.3038    4.2515  -12.5119 H   0  0  0  0  0  0  0  0  0  0  0  0
   -4.0118    2.6609  -12.2222 C   0  0  0  0  0  0  0  0  0  0  0  0
   -3.1146    2.2450  -13.4146 C   0  0  0  0  0  0  0  0  0  0  0  0
   -3.7694    1.3394  -14.1978 F   0  0  0  0  0  0  0  0  0  0  0  0
   -2.9722    3.3428  -14.2204 F   0  0  0  0  0  0  0  0  0  0  0  0
    2.1856    0.2706  -11.9314 C   0  0  0  0  0  0  0  0  0  0  0  0
    0.8268    0.7691  -12.3192 C   0  0  0  0  0  0  0  0  0  0  0  0
   -0.3236    0.1145  -11.8714 C   0  0  0  0  0  0  0  0  0  0  0  0
   -1.5979    0.5784  -12.2115 C   0  0  0  0  0  0  0  0  0  0  0  0
   -1.7478    1.7293  -12.9920 C   0  0  0  0  0  0  0  0  0  0  0  0
   -0.5873    2.3992  -13.4171 C   0  0  0  0  0  0  0  0  0  0  0  0
    0.6847    1.9275  -13.0841 C   0  0  0  0  0  0  0  0  0  0  0  0
   -7.5015    4.8591  -12.3841 N   0  0  0  0  0  0  0  0  0  0  0  0
   -7.1004    5.7229  -12.6337 H   0  0  0  0  0  0  0  0  0  0  0  0
   -7.9560    4.6541  -11.0710 C   0  0  0  0  0  0  0  0  0  0  0  0
   -7.7165    5.6961  -10.1472 C   0  0  0  0  0  0  0  0  0  0  0  0
   -7.9731    5.5517   -8.7801 C   0  0  0  0  0  0  0  0  0  0  0  0
   -8.4925    4.3524   -8.3405 C   0  0  0  0  0  0  0  0  0  0  0  0
   -8.7446    3.3168   -9.2302 C   0  0  0  0  0  0  0  0  0  0  0  0
   -8.4693    3.4423  -10.5840 C   0  0  0  0  0  0  0  0  0  0  0  0
   -9.2696    2.1392   -8.4743 C   0  0  0  0  0  0  0  0  0  0  0  0
   -9.6515    2.6791   -7.1416 N   0  0  0  0  0  0  0  0  0  0  0  0
   -8.8506    3.9071   -6.9626 C   0  0  0  0  0  0  0  0  0  0  0  0
   -9.4348    2.0034   -6.4089 H   0  0  0  0  0  0  0  0  0  0  0  0
 25 26  1  0  0  0
 26 27  2  0  0  0
 27 28  1  0  0  0
 28 29  2  0  0  0
 29 22  1  0  0  0
 22 23  1  0  0  0
 22 24  1  0  0  0
 22 21  1  0  0  0
 21 17  1  0  0  0
 17 18  1  0  0  0
 18 19  2  0  0  0
 18  1  1  0  0  0
  1 32  1  0  0  0
 32 34  1  0  0  0
 34 35  2  0  0  0
 35 36  1  0  0  0
 36 37  2  0  0  0
 37 38  1  0  0  0
 38 39  2  0  0  0
 38 40  1  0  0  0
 40 41  1  0  0  0
 41 42  1  0  0  0
  1  2  1  0  0  0
  2  3  2  0  0  0
  3  4  1  0  0  0
  4  5  1  0  0  0
  4  6  2  0  0  0
  6  7  1  0  0  0
  7  8  1  0  0  0
  8  9  1  0  0  0
  9 10  2  0  0  0
 10 13  1  0  0  0
 13 14  2  0  0  0
 13 15  1  0  0  0
 10 11  1  0  0  0
 29 30  1  0  0  0
 30 31  2  0  0  0
 31 26  1  0  0  0
 39 34  1  0  0  0
 11  2  1  0  0  0
 42 37  1  0  0  0
 11  7  2  0  0  0
 17 20  1  0  0  0
 32 33  1  0  0  0
 41 43  1  0  0  0
  8 12  1  0  0  0
 15 16  1  0  0  0
M  END
> <minimizedAffinity>
-8.49542

> <minimizedRMSD>
0.28145

$$$$
P23583


 45 49  0  0  0  0  0  0  0  0999 V2000
   -6.1363    4.6747  -15.5671 C   0  0  0  0  0  0  0  0  0  0  0  0
   -7.3126    4.3625  -14.8450 C   0  0  0  0  0  0  0  0  0  0  0  0
   -8.5248    4.3201  -15.5478 C   0  0  0  0  0  0  0  0  0  0  0  0
   -8.5833    4.5201  -16.9298 C   0  0  0  0  0  0  0  0  0  0  0  0
  -10.0902    4.4294  -17.7551 Cl  0  0  0  0  0  0  0  0  0  0  0  0
   -7.3930    4.7607  -17.6216 C   0  0  0  0  0  0  0  0  0  0  0  0
   -7.1763    4.9621  -18.9639 N   0  0  0  0  0  0  0  0  0  0  0  0
   -5.8409    5.1185  -19.2030 C   0  0  0  0  0  0  0  0  0  0  0  0
   -5.1574    5.0442  -18.0046 C   0  0  0  0  0  0  0  0  0  0  0  0
   -6.1516    4.8324  -16.9796 C   0  0  0  0  0  0  0  0  0  0  0  0
   -7.8802    4.9895  -19.6517 H   0  0  0  0  0  0  0  0  0  0  0  0
   -3.6581    5.1453  -17.8555 C   0  0  0  0  0  0  0  0  0  0  0  0
   -2.8993    4.3545  -18.9376 C   0  0  0  0  0  0  0  0  0  0  0  0
   -2.3714    5.2547  -20.0509 C   0  0  0  0  0  0  0  0  0  0  0  0
   -1.4685    6.3064  -19.5696 N   0  0  0  0  0  0  0  0  0  0  0  0
   -1.7177    6.7211  -18.1898 C   0  0  0  0  0  0  0  0  0  0  0  0
   -3.1878    6.6110  -17.8002 C   0  0  0  0  0  0  0  0  0  0  0  0
   -1.5754    7.1215  -20.1734 H   0  0  0  0  0  0  0  0  0  0  0  0
   -4.9538    4.7631  -14.8631 O   0  0  0  0  0  0  0  0  0  0  0  0
   -4.7044    6.1222  -14.4932 C   0  0  0  0  0  0  0  0  0  0  0  0
   -2.5744    6.5846  -13.3942 O   0  0  0  0  0  0  0  0  0  0  0  0
   -3.7152    6.1507  -13.3472 C   0  0  0  0  0  0  0  0  0  0  0  0
   -4.2240    5.6980  -12.1785 O   0  0  0  0  0  0  0  0  0  0  0  0
   -5.0996    5.3658  -12.1461 H   0  0  0  0  0  0  0  0  0  0  0  0
   -7.2228    4.0100  -13.3584 C   0  0  0  0  0  0  0  0  0  0  0  0
   -6.4581    2.6446  -13.1529 C   0  0  0  0  0  0  0  0  0  0  0  0
   -6.9527    1.6097  -13.3836 O   0  0  0  0  0  0  0  0  0  0  0  0
   -5.0374    2.9854  -12.6230 N   0  0  0  0  0  0  0  0  0  0  0  0
   -4.8319    3.9474  -12.5834 H   0  0  0  0  0  0  0  0  0  0  0  0
   -3.9717    2.1218  -12.1801 C   0  0  0  0  0  0  0  0  0  0  0  0
   -2.9442    1.8502  -13.2682 C   0  0  0  0  0  0  0  0  0  0  0  0
   -3.5326    1.4656  -14.4268 F   0  0  0  0  0  0  0  0  0  0  0  0
   -2.2583    2.9931  -13.5428 F   0  0  0  0  0  0  0  0  0  0  0  0
   -8.5659    3.9401  -12.7322 N   0  0  0  0  0  0  0  0  0  0  0  0
   -9.4029    3.8250  -13.2376 H   0  0  0  0  0  0  0  0  0  0  0  0
   -8.5029    4.0585  -11.3198 C   0  0  0  0  0  0  0  0  0  0  0  0
   -8.0597    5.2522  -10.7186 C   0  0  0  0  0  0  0  0  0  0  0  0
   -8.0022    5.3838   -9.3255 C   0  0  0  0  0  0  0  0  0  0  0  0
   -8.3927    4.3078   -8.5485 C   0  0  0  0  0  0  0  0  0  0  0  0
   -8.8027    3.1196   -9.1342 C   0  0  0  0  0  0  0  0  0  0  0  0
   -8.8524    2.9735  -10.5088 C   0  0  0  0  0  0  0  0  0  0  0  0
   -9.1376    2.1261   -8.0783 C   0  0  0  0  0  0  0  0  0  0  0  0
   -9.1267    2.8786   -6.7969 N   0  0  0  0  0  0  0  0  0  0  0  0
   -8.4815    4.1802   -7.0663 C   0  0  0  0  0  0  0  0  0  0  0  0
   -8.5973    2.3641   -6.0930 H   0  0  0  0  0  0  0  0  0  0  0  0
 21 22  2  0  0  0
 22 23  1  0  0  0
 22 20  1  0  0  0
 20 19  1  0  0  0
 19  1  1  0  0  0
  1  2  2  0  0  0
  2 25  1  0  0  0
 25 34  1  0  0  0
 34 36  1  0  0  0
 36 37  2  0  0  0
 37 38  1  0  0  0
 38 39  2  0  0  0
 39 40  1  0  0  0
 40 41  2  0  0  0
 40 42  1  0  0  0
 42 43  1  0  0  0
 43 44  1  0  0  0
 25 26  1  0  0  0
 26 27  2  0  0  0
 26 28  1  0  0  0
 28 30  1  0  0  0
 30 31  1  0  0  0
 31 32  1  0  0  0
 31 33  1  0  0  0
  2  3  1  0  0  0
  3  4  2  0  0  0
  4  5  1  0  0  0
  4  6  1  0  0  0
  6  7  1  0  0  0
  7  8  1  0  0  0
  8  9  2  0  0  0
  9 12  1  0  0  0
 12 13  1  0  0  0
 13 14  1  0  0  0
 14 15  1  0  0  0
 15 16  1  0  0  0
 16 17  1  0  0  0
  9 10  1  0  0  0
 10  1  1  0  0  0
 41 36  1  0  0  0
 10  6  2  0  0  0
 44 39  1  0  0  0
 17 12  1  0  0  0
 23 24  1  0  0  0
 34 35  1  0  0  0
 43 45  1  0  0  0
 28 29  1  0  0  0
  7 11  1  0  0  0
 15 18  1  0  0  0
M  END
> <minimizedAffinity>
-8.58239

> <minimizedRMSD>
0.58511

$$$$
P23589


 42 46  0  0  0  0  0  0  0  0999 V2000
   -4.3429    6.0154  -16.5195 C   0  0  0  0  0  0  0  0  0  0  0  0
   -4.2839    5.2051  -17.7390 N   0  0  0  0  0  0  0  0  0  0  0  0
   -5.5976    5.1515  -18.3741 C   0  0  0  0  0  0  0  0  0  0  0  0
   -6.7458    4.9355  -17.4213 C   0  0  0  0  0  0  0  0  0  0  0  0
   -6.6259    5.1728  -16.0992 C   0  0  0  0  0  0  0  0  0  0  0  0
   -5.4410    5.6992  -15.5991 N   0  0  0  0  0  0  0  0  0  0  0  0
   -7.7953    4.9837  -15.1418 C   0  0  0  0  0  0  0  0  0  0  0  0
   -8.9136    4.0980  -15.7258 C   0  0  0  0  0  0  0  0  0  0  0  0
   -9.2488    4.5105  -17.1441 C   0  0  0  0  0  0  0  0  0  0  0  0
  -10.5878    3.5824  -17.8683 Cl  0  0  0  0  0  0  0  0  0  0  0  0
   -8.0344    4.4882  -18.0699 C   0  0  0  0  0  0  0  0  0  0  0  0
   -3.9864    4.2590  -17.5006 H   0  0  0  0  0  0  0  0  0  0  0  0
   -5.3389    5.8589  -14.6330 H   0  0  0  0  0  0  0  0  0  0  0  0
   -3.5937    9.6765  -17.6229 C   0  0  0  0  0  0  0  0  0  0  0  0
   -4.6351    9.7139  -16.8162 N   0  0  0  0  0  0  0  0  0  0  0  0
   -4.9886    8.4650  -16.3520 N   0  0  0  0  0  0  0  0  0  0  0  0
   -4.2171    7.5093  -16.8348 C   0  0  0  0  0  0  0  0  0  0  0  0
   -2.9796    8.0894  -17.8855 S   0  0  0  0  0  0  0  0  0  0  0  0
   -3.1509   10.8899  -19.7824 C   0  0  0  0  0  0  0  0  0  0  0  0
   -2.9901   10.8989  -18.2623 C   0  0  0  0  0  0  0  0  0  0  0  0
   -1.5286   11.0957  -17.8606 C   0  0  0  0  0  0  0  0  0  0  0  0
   -7.4101    4.5779  -13.6851 C   0  0  0  0  0  0  0  0  0  0  0  0
   -6.4533    3.3220  -13.5629 C   0  0  0  0  0  0  0  0  0  0  0  0
   -6.8282    2.2312  -13.7467 O   0  0  0  0  0  0  0  0  0  0  0  0
   -5.0705    3.8432  -13.0792 N   0  0  0  0  0  0  0  0  0  0  0  0
   -5.0257    4.8151  -12.9285 H   0  0  0  0  0  0  0  0  0  0  0  0
   -3.8395    3.1318  -12.8148 C   0  0  0  0  0  0  0  0  0  0  0  0
   -3.2081    2.4791  -14.0382 C   0  0  0  0  0  0  0  0  0  0  0  0
   -3.7065    1.2424  -14.2738 F   0  0  0  0  0  0  0  0  0  0  0  0
   -3.4742    3.2195  -15.1494 F   0  0  0  0  0  0  0  0  0  0  0  0
   -8.6781    4.3540  -12.9380 N   0  0  0  0  0  0  0  0  0  0  0  0
   -9.5440    4.2227  -13.3878 H   0  0  0  0  0  0  0  0  0  0  0  0
   -8.5406    4.3450  -11.5404 C   0  0  0  0  0  0  0  0  0  0  0  0
   -8.1929    5.5221  -10.8493 C   0  0  0  0  0  0  0  0  0  0  0  0
   -8.1311    5.5431   -9.4549 C   0  0  0  0  0  0  0  0  0  0  0  0
   -8.4296    4.3774   -8.7744 C   0  0  0  0  0  0  0  0  0  0  0  0
   -8.7283    3.2041   -9.4551 C   0  0  0  0  0  0  0  0  0  0  0  0
   -8.7605    3.1610  -10.8360 C   0  0  0  0  0  0  0  0  0  0  0  0
   -9.0007    2.1128   -8.4811 C   0  0  0  0  0  0  0  0  0  0  0  0
   -9.0684    2.7698   -7.1469 N   0  0  0  0  0  0  0  0  0  0  0  0
   -8.5268    4.1344   -7.3086 C   0  0  0  0  0  0  0  0  0  0  0  0
   -8.5092    2.2490   -6.4713 H   0  0  0  0  0  0  0  0  0  0  0  0
 19 20  1  0  0  0
 20 21  1  0  0  0
 20 14  1  0  0  0
 14 15  2  0  0  0
 15 16  1  0  0  0
 16 17  2  0  0  0
  1 17  1  0  0  0
  1  2  1  0  0  0
  2  3  1  0  0  0
  3  4  1  0  0  0
  4  5  2  0  0  0
  5  6  1  0  0  0
  5  7  1  0  0  0
  7 22  1  0  0  0
 22 31  1  0  0  0
 31 33  1  0  0  0
 33 34  2  0  0  0
 34 35  1  0  0  0
 35 36  2  0  0  0
 36 37  1  0  0  0
 37 38  2  0  0  0
 37 39  1  0  0  0
 39 40  1  0  0  0
 40 41  1  0  0  0
 22 23  1  0  0  0
 23 24  2  0  0  0
 23 25  1  0  0  0
 25 27  1  0  0  0
 27 28  1  0  0  0
 28 29  1  0  0  0
 28 30  1  0  0  0
  7  8  1  0  0  0
  8  9  1  0  0  0
  9 10  1  0  0  0
  9 11  1  0  0  0
 17 18  1  0  0  0
 18 14  1  0  0  0
  6  1  1  0  0  0
 38 33  1  0  0  0
 11  4  1  0  0  0
 41 36  1  0  0  0
  2 12  1  0  0  0
  6 13  1  0  0  0
 31 32  1  0  0  0
 40 42  1  0  0  0
 25 26  1  0  0  0
M  END
> <minimizedAffinity>
-7.89133

> <minimizedRMSD>
1.19766

$$$$
P23593


 36 38  0  0  0  0  0  0  0  0999 V2000
   -7.6776    3.7623  -13.5359 C   0  0  0  0  0  0  0  0  0  0  0  0
   -6.6671    5.0199  -17.0821 C   0  0  0  0  0  0  0  0  0  0  0  0
   -7.8839    4.8201  -17.7515 C   0  0  0  0  0  0  0  0  0  0  0  0
   -9.0045    4.3844  -17.0553 C   0  0  0  0  0  0  0  0  0  0  0  0
  -10.4816    4.1074  -17.8953 Cl  0  0  0  0  0  0  0  0  0  0  0  0
   -8.9277    4.1257  -15.6899 C   0  0  0  0  0  0  0  0  0  0  0  0
   -7.7199    4.2711  -14.9804 C   0  0  0  0  0  0  0  0  0  0  0  0
   -6.6229    4.8095  -15.6778 C   0  0  0  0  0  0  0  0  0  0  0  0
   -5.3270    4.9746  -19.3071 C   0  0  0  0  0  0  0  0  0  0  0  0
   -5.4087    5.3913  -17.8412 C   0  0  0  0  0  0  0  0  0  0  0  0
   -5.4650    5.0652  -14.9880 O   0  0  0  0  0  0  0  0  0  0  0  0
   -5.2374    6.4652  -14.8174 C   0  0  0  0  0  0  0  0  0  0  0  0
   -5.6510    6.9495  -13.4422 C   0  0  0  0  0  0  0  0  0  0  0  0
   -6.5206    7.7778  -13.2123 O   0  0  0  0  0  0  0  0  0  0  0  0
   -4.9479    6.3853  -12.4385 O   0  0  0  0  0  0  0  0  0  0  0  0
   -4.2844    5.7519  -12.6296 H   0  0  0  0  0  0  0  0  0  0  0  0
   -6.5572    2.6821  -13.2857 C   0  0  0  0  0  0  0  0  0  0  0  0
   -6.7730    1.5521  -13.4766 O   0  0  0  0  0  0  0  0  0  0  0  0
   -5.2764    3.3851  -12.7925 N   0  0  0  0  0  0  0  0  0  0  0  0
   -5.3227    4.3685  -12.7855 H   0  0  0  0  0  0  0  0  0  0  0  0
   -4.0215    2.8363  -12.3398 C   0  0  0  0  0  0  0  0  0  0  0  0
   -3.0982    2.3560  -13.4581 C   0  0  0  0  0  0  0  0  0  0  0  0
   -3.6387    1.3516  -14.1896 F   0  0  0  0  0  0  0  0  0  0  0  0
   -2.8535    3.3722  -14.3297 F   0  0  0  0  0  0  0  0  0  0  0  0
   -7.6584    4.8827  -12.5799 N   0  0  0  0  0  0  0  0  0  0  0  0
   -7.3800    5.7787  -12.8780 H   0  0  0  0  0  0  0  0  0  0  0  0
   -8.0378    4.6737  -11.2398 C   0  0  0  0  0  0  0  0  0  0  0  0
   -7.7957    5.7391  -10.3427 C   0  0  0  0  0  0  0  0  0  0  0  0
   -8.0038    5.6129   -8.9652 C   0  0  0  0  0  0  0  0  0  0  0  0
   -8.4847    4.4110   -8.4881 C   0  0  0  0  0  0  0  0  0  0  0  0
   -8.7453    3.3556   -9.3515 C   0  0  0  0  0  0  0  0  0  0  0  0
   -8.5150    3.4626  -10.7158 C   0  0  0  0  0  0  0  0  0  0  0  0
   -9.2368    2.1853   -8.5618 C   0  0  0  0  0  0  0  0  0  0  0  0
   -9.5820    2.7416   -7.2257 N   0  0  0  0  0  0  0  0  0  0  0  0
   -8.7980    3.9861   -7.0928 C   0  0  0  0  0  0  0  0  0  0  0  0
   -9.3285    2.0820   -6.4901 H   0  0  0  0  0  0  0  0  0  0  0  0
  9 10  1  0  0  0
 10  2  1  0  0  0
  2  3  2  0  0  0
  3  4  1  0  0  0
  4  5  1  0  0  0
  4  6  2  0  0  0
  6  7  1  0  0  0
  7  1  1  0  0  0
  1 25  1  0  0  0
 25 27  1  0  0  0
 27 28  2  0  0  0
 28 29  1  0  0  0
 29 30  2  0  0  0
 30 31  1  0  0  0
 31 32  2  0  0  0
 31 33  1  0  0  0
 33 34  1  0  0  0
 34 35  1  0  0  0
  1 17  1  0  0  0
 17 18  2  0  0  0
 17 19  1  0  0  0
 19 21  1  0  0  0
 21 22  1  0  0  0
 22 23  1  0  0  0
 22 24  1  0  0  0
  7  8  2  0  0  0
  8 11  1  0  0  0
 11 12  1  0  0  0
 12 13  1  0  0  0
 13 14  2  0  0  0
 13 15  1  0  0  0
  8  2  1  0  0  0
 32 27  1  0  0  0
 35 30  1  0  0  0
 25 26  1  0  0  0
 34 36  1  0  0  0
 19 20  1  0  0  0
 15 16  1  0  0  0
M  END
> <minimizedAffinity>
-7.32497

> <minimizedRMSD>
0.40656

$$$$
P23599


 35 37  0  0  0  0  0  0  0  0999 V2000
   -6.6553    4.8454  -13.4450 C   0  0  0  0  0  0  0  0  0  0  0  0
   -6.2841    5.9898  -15.7212 C   0  0  0  0  0  0  0  0  0  0  0  0
   -6.4374    6.0350  -17.1145 C   0  0  0  0  0  0  0  0  0  0  0  0
   -7.3186    5.1727  -17.7601 C   0  0  0  0  0  0  0  0  0  0  0  0
   -8.0715    4.2850  -17.0108 C   0  0  0  0  0  0  0  0  0  0  0  0
   -9.2523    3.3289  -17.7992 Cl  0  0  0  0  0  0  0  0  0  0  0  0
   -7.8925    4.1917  -15.6297 C   0  0  0  0  0  0  0  0  0  0  0  0
   -6.9558    5.0071  -14.9579 C   0  0  0  0  0  0  0  0  0  0  0  0
   -5.5511    6.9001  -15.0065 O   0  0  0  0  0  0  0  0  0  0  0  0
   -3.1824    7.4824  -15.1041 C   0  0  0  0  0  0  0  0  0  0  0  0
   -4.5824    7.7180  -15.6654 C   0  0  0  0  0  0  0  0  0  0  0  0
   -4.9915    9.1716  -15.4343 C   0  0  0  0  0  0  0  0  0  0  0  0
   -5.8067    9.6074  -14.6360 O   0  0  0  0  0  0  0  0  0  0  0  0
   -4.3914   10.0304  -16.2920 O   0  0  0  0  0  0  0  0  0  0  0  0
   -3.7637    9.7125  -16.9108 H   0  0  0  0  0  0  0  0  0  0  0  0
   -5.1539    4.2430  -13.1881 C   0  0  0  0  0  0  0  0  0  0  0  0
   -4.3209    4.2841  -14.0067 O   0  0  0  0  0  0  0  0  0  0  0  0
   -5.1012    3.7278  -11.7270 N   0  0  0  0  0  0  0  0  0  0  0  0
   -5.9257    3.8727  -11.2088 H   0  0  0  0  0  0  0  0  0  0  0  0
   -4.0386    3.0694  -11.0016 C   0  0  0  0  0  0  0  0  0  0  0  0
   -4.0043    1.5751  -11.2936 C   0  0  0  0  0  0  0  0  0  0  0  0
   -3.4619    1.3746  -12.5241 F   0  0  0  0  0  0  0  0  0  0  0  0
   -5.2794    1.1012  -11.3146 F   0  0  0  0  0  0  0  0  0  0  0  0
   -7.7352    4.0252  -12.8065 N   0  0  0  0  0  0  0  0  0  0  0  0
   -8.2005    3.3634  -13.3677 H   0  0  0  0  0  0  0  0  0  0  0  0
   -8.1266    4.1348  -11.4715 C   0  0  0  0  0  0  0  0  0  0  0  0
   -7.9720    5.3087  -10.7154 C   0  0  0  0  0  0  0  0  0  0  0  0
   -8.1867    5.3144   -9.3302 C   0  0  0  0  0  0  0  0  0  0  0  0
   -8.5692    4.1367   -8.7152 C   0  0  0  0  0  0  0  0  0  0  0  0
   -8.8041    2.9918   -9.4594 C   0  0  0  0  0  0  0  0  0  0  0  0
   -8.6214    2.9821  -10.8319 C   0  0  0  0  0  0  0  0  0  0  0  0
   -9.2499    1.8924   -8.5581 C   0  0  0  0  0  0  0  0  0  0  0  0
   -9.0342    2.3884   -7.1716 N   0  0  0  0  0  0  0  0  0  0  0  0
   -8.8219    3.8492   -7.2755 C   0  0  0  0  0  0  0  0  0  0  0  0
   -8.2142    1.9416   -6.7612 H   0  0  0  0  0  0  0  0  0  0  0  0
 11 10  1  0  0  0
 11  9  1  0  0  0
  9  2  1  0  0  0
  2  3  2  0  0  0
  3  4  1  0  0  0
  4  5  2  0  0  0
  5  6  1  0  0  0
  5  7  1  0  0  0
  7  8  2  0  0  0
  8  1  1  0  0  0
  1 24  1  0  0  0
 24 26  1  0  0  0
 26 27  2  0  0  0
 27 28  1  0  0  0
 28 29  2  0  0  0
 29 30  1  0  0  0
 30 31  2  0  0  0
 30 32  1  0  0  0
 32 33  1  0  0  0
 33 34  1  0  0  0
  1 16  1  0  0  0
 16 17  2  0  0  0
 16 18  1  0  0  0
 18 20  1  0  0  0
 20 21  1  0  0  0
 21 22  1  0  0  0
 21 23  1  0  0  0
 11 12  1  0  0  0
 12 13  2  0  0  0
 12 14  1  0  0  0
  8  2  1  0  0  0
 31 26  1  0  0  0
 34 29  1  0  0  0
 24 25  1  0  0  0
 33 35  1  0  0  0
 18 19  1  0  0  0
 14 15  1  0  0  0
M  END
> <minimizedAffinity>
-6.55161

> <minimizedRMSD>
0.87104

$$$$
P23607


 40 43  0  0  0  0  0  0  0  0999 V2000
   -7.3952    5.0747  -13.1946 C   0  0  0  0  0  0  0  0  0  0  0  0
   -7.3457    4.8316  -14.7058 C   0  0  0  0  0  0  0  0  0  0  0  0
   -8.4876    4.4122  -15.4035 C   0  0  0  0  0  0  0  0  0  0  0  0
   -8.4592    4.2835  -16.7875 C   0  0  0  0  0  0  0  0  0  0  0  0
   -9.8719    3.8021  -17.6063 Cl  0  0  0  0  0  0  0  0  0  0  0  0
   -7.3154    4.5895  -17.5102 C   0  0  0  0  0  0  0  0  0  0  0  0
   -6.1740    5.0186  -16.8372 C   0  0  0  0  0  0  0  0  0  0  0  0
   -6.1786    5.1294  -15.4423 C   0  0  0  0  0  0  0  0  0  0  0  0
   -5.1218    5.5893  -14.7073 O   0  0  0  0  0  0  0  0  0  0  0  0
   -4.0407    4.6995  -14.4050 C   0  0  0  0  0  0  0  0  0  0  0  0
   -2.7553    5.1846  -15.0526 C   0  0  0  0  0  0  0  0  0  0  0  0
   -2.6779    5.3103  -16.4405 C   0  0  0  0  0  0  0  0  0  0  0  0
   -1.4833    5.7358  -17.0150 C   0  0  0  0  0  0  0  0  0  0  0  0
   -0.3944    6.0131  -16.1992 C   0  0  0  0  0  0  0  0  0  0  0  0
   -0.5458    5.8597  -14.8329 C   0  0  0  0  0  0  0  0  0  0  0  0
   -1.6965    5.4634  -14.2418 N   0  0  0  0  0  0  0  0  0  0  0  0
   -3.8396    4.6330  -12.8879 C   0  0  0  0  0  0  0  0  0  0  0  0
   -3.6418    3.6170  -12.2343 O   0  0  0  0  0  0  0  0  0  0  0  0
   -3.9382    5.8239  -12.2533 O   0  0  0  0  0  0  0  0  0  0  0  0
   -4.0895    6.6063  -12.7462 H   0  0  0  0  0  0  0  0  0  0  0  0
   -8.9641    6.9298  -13.1231 O   0  0  0  0  0  0  0  0  0  0  0  0
   -7.8583    6.5722  -12.9810 C   0  0  0  0  0  0  0  0  0  0  0  0
   -6.5877    7.3661  -12.5410 N   0  0  0  0  0  0  0  0  0  0  0  0
   -5.7792    6.8172  -12.4216 H   0  0  0  0  0  0  0  0  0  0  0  0
   -6.4061    8.7774  -12.2804 C   0  0  0  0  0  0  0  0  0  0  0  0
   -6.8132    9.6751  -13.4444 C   0  0  0  0  0  0  0  0  0  0  0  0
   -8.1070   10.0658  -13.3161 F   0  0  0  0  0  0  0  0  0  0  0  0
   -6.0737   10.8183  -13.4175 F   0  0  0  0  0  0  0  0  0  0  0  0
   -8.2836    4.0970  -12.5213 N   0  0  0  0  0  0  0  0  0  0  0  0
   -8.8616    3.5044  -13.0543 H   0  0  0  0  0  0  0  0  0  0  0  0
   -8.2961    4.0206  -11.1153 C   0  0  0  0  0  0  0  0  0  0  0  0
   -8.0027    5.1137  -10.2742 C   0  0  0  0  0  0  0  0  0  0  0  0
   -8.1515    5.0492   -8.8831 C   0  0  0  0  0  0  0  0  0  0  0  0
   -8.6057    3.8738   -8.3285 C   0  0  0  0  0  0  0  0  0  0  0  0
   -8.9034    2.7838   -9.1291 C   0  0  0  0  0  0  0  0  0  0  0  0
   -8.7744    2.8453  -10.5112 C   0  0  0  0  0  0  0  0  0  0  0  0
   -9.3981    1.6680   -8.2756 C   0  0  0  0  0  0  0  0  0  0  0  0
   -9.2470    2.1166   -6.8634 N   0  0  0  0  0  0  0  0  0  0  0  0
   -8.9229    3.5583   -6.9098 C   0  0  0  0  0  0  0  0  0  0  0  0
   -8.4932    1.6010   -6.4092 H   0  0  0  0  0  0  0  0  0  0  0  0
 21 22  2  0  0  0
 22 23  1  0  0  0
 23 25  1  0  0  0
 25 26  1  0  0  0
 26 27  1  0  0  0
 26 28  1  0  0  0
 22  1  1  0  0  0
  1 29  1  0  0  0
 29 31  1  0  0  0
 31 32  2  0  0  0
 32 33  1  0  0  0
 33 34  2  0  0  0
 34 35  1  0  0  0
 35 36  2  0  0  0
 35 37  1  0  0  0
 37 38  1  0  0  0
 38 39  1  0  0  0
  1  2  1  0  0  0
  2  3  2  0  0  0
  3  4  1  0  0  0
  4  5  1  0  0  0
  4  6  2  0  0  0
  6  7  1  0  0  0
  7  8  2  0  0  0
  8  9  1  0  0  0
 10  9  1  0  0  0
 10 17  1  0  0  0
 17 18  2  0  0  0
 17 19  1  0  0  0
 10 11  1  0  0  0
 11 12  2  0  0  0
 12 13  1  0  0  0
 13 14  2  0  0  0
 14 15  1  0  0  0
 15 16  2  0  0  0
 36 31  1  0  0  0
  8  2  1  0  0  0
 16 11  1  0  0  0
 39 34  1  0  0  0
 23 24  1  0  0  0
 29 30  1  0  0  0
 38 40  1  0  0  0
 19 20  1  0  0  0
M  END
> <minimizedAffinity>
-7.09710

> <minimizedRMSD>
1.52092

$$$$
P23610


 37 40  0  0  0  0  0  0  0  0999 V2000
   -7.0756    5.0485  -13.0608 C   0  0  0  0  0  0  0  0  0  0  0  0
   -5.8881    5.3207  -15.3392 C   0  0  0  0  0  0  0  0  0  0  0  0
   -7.0119    4.9028  -14.5895 C   0  0  0  0  0  0  0  0  0  0  0  0
   -8.1438    4.4500  -15.2958 C   0  0  0  0  0  0  0  0  0  0  0  0
   -8.1508    4.3207  -16.6857 C   0  0  0  0  0  0  0  0  0  0  0  0
   -9.5742    3.7932  -17.4872 Cl  0  0  0  0  0  0  0  0  0  0  0  0
   -6.9983    4.6645  -17.3949 C   0  0  0  0  0  0  0  0  0  0  0  0
   -6.6665    4.5339  -19.0705 S   0  0  0  0  0  0  0  0  0  0  0  0
   -5.1909    5.3333  -18.8601 C   0  0  0  0  0  0  0  0  0  0  0  0
   -4.8530    5.5997  -17.6221 N   0  0  0  0  0  0  0  0  0  0  0  0
   -5.8775    5.2010  -16.7580 C   0  0  0  0  0  0  0  0  0  0  0  0
   -4.8877    5.9549  -14.6272 O   0  0  0  0  0  0  0  0  0  0  0  0
   -3.5479    5.5868  -14.9300 C   0  0  0  0  0  0  0  0  0  0  0  0
   -1.8609    7.2864  -14.3249 O   0  0  0  0  0  0  0  0  0  0  0  0
   -2.6351    6.7851  -15.1254 C   0  0  0  0  0  0  0  0  0  0  0  0
   -2.7065    7.2864  -16.3825 O   0  0  0  0  0  0  0  0  0  0  0  0
   -3.2971    6.9091  -17.0045 H   0  0  0  0  0  0  0  0  0  0  0  0
   -5.6810    5.0548  -12.2991 C   0  0  0  0  0  0  0  0  0  0  0  0
   -5.3336    5.9757  -11.6647 O   0  0  0  0  0  0  0  0  0  0  0  0
   -5.0249    3.6580  -12.4901 N   0  0  0  0  0  0  0  0  0  0  0  0
   -5.4771    3.0758  -13.1426 H   0  0  0  0  0  0  0  0  0  0  0  0
   -3.8568    3.0746  -11.8642 C   0  0  0  0  0  0  0  0  0  0  0  0
   -3.9184    1.5584  -11.7577 C   0  0  0  0  0  0  0  0  0  0  0  0
   -3.4990    1.0259  -12.9379 F   0  0  0  0  0  0  0  0  0  0  0  0
   -5.2080    1.1756  -11.5675 F   0  0  0  0  0  0  0  0  0  0  0  0
   -7.9827    4.0105  -12.4870 N   0  0  0  0  0  0  0  0  0  0  0  0
   -8.4140    3.3415  -13.0664 H   0  0  0  0  0  0  0  0  0  0  0  0
   -8.2059    4.0121  -11.0983 C   0  0  0  0  0  0  0  0  0  0  0  0
   -8.0705    5.1719  -10.3090 C   0  0  0  0  0  0  0  0  0  0  0  0
   -8.2859    5.1470   -8.9269 C   0  0  0  0  0  0  0  0  0  0  0  0
   -8.6664    3.9542   -8.3450 C   0  0  0  0  0  0  0  0  0  0  0  0
   -8.8437    2.8137   -9.1120 C   0  0  0  0  0  0  0  0  0  0  0  0
   -8.6350    2.8271  -10.4818 C   0  0  0  0  0  0  0  0  0  0  0  0
   -9.2838    1.6886   -8.2421 C   0  0  0  0  0  0  0  0  0  0  0  0
   -9.2482    2.2000   -6.8444 N   0  0  0  0  0  0  0  0  0  0  0  0
   -8.9937    3.6552   -6.9245 C   0  0  0  0  0  0  0  0  0  0  0  0
   -8.5013    1.7417   -6.3223 H   0  0  0  0  0  0  0  0  0  0  0  0
 14 15  2  0  0  0
 15 16  1  0  0  0
 15 13  1  0  0  0
 13 12  1  0  0  0
 12  2  1  0  0  0
  2  3  2  0  0  0
  3  1  1  0  0  0
  1 26  1  0  0  0
 26 28  1  0  0  0
 28 29  2  0  0  0
 29 30  1  0  0  0
 30 31  2  0  0  0
 31 32  1  0  0  0
 32 33  2  0  0  0
 32 34  1  0  0  0
 34 35  1  0  0  0
 35 36  1  0  0  0
  1 18  1  0  0  0
 18 19  2  0  0  0
 18 20  1  0  0  0
 20 22  1  0  0  0
 22 23  1  0  0  0
 23 24  1  0  0  0
 23 25  1  0  0  0
  3  4  1  0  0  0
  4  5  2  0  0  0
  5  6  1  0  0  0
  5  7  1  0  0  0
  7  8  1  0  0  0
  8  9  1  0  0  0
  9 10  2  0  0  0
 10 11  1  0  0  0
 11  2  1  0  0  0
 33 28  1  0  0  0
 11  7  2  0  0  0
 36 31  1  0  0  0
 16 17  1  0  0  0
 26 27  1  0  0  0
 35 37  1  0  0  0
 20 21  1  0  0  0
M  END
> <minimizedAffinity>
-6.92799

> <minimizedRMSD>
0.62958

$$$$
P23619


 45 49  0  0  0  0  0  0  0  0999 V2000
   -4.9823    5.4265  -17.8368 C   0  0  0  0  0  0  0  0  0  0  0  0
   -5.4340    4.9561  -19.0535 C   0  0  0  0  0  0  0  0  0  0  0  0
   -6.7067    4.5038  -18.8971 N   0  0  0  0  0  0  0  0  0  0  0  0
   -7.0769    4.6158  -17.5838 C   0  0  0  0  0  0  0  0  0  0  0  0
   -8.3169    4.3936  -17.0041 C   0  0  0  0  0  0  0  0  0  0  0  0
   -9.6486    3.9808  -17.9844 Cl  0  0  0  0  0  0  0  0  0  0  0  0
   -8.4653    4.6138  -15.6397 C   0  0  0  0  0  0  0  0  0  0  0  0
   -7.3871    5.0313  -14.8442 C   0  0  0  0  0  0  0  0  0  0  0  0
   -6.1392    5.2772  -15.4671 C   0  0  0  0  0  0  0  0  0  0  0  0
   -5.9869    5.1032  -16.8660 C   0  0  0  0  0  0  0  0  0  0  0  0
   -7.2755    4.1496  -19.6184 H   0  0  0  0  0  0  0  0  0  0  0  0
   -2.2212    6.0668  -21.2368 C   0  0  0  0  0  0  0  0  0  0  0  0
   -1.7762    6.2857  -19.8641 N   0  0  0  0  0  0  0  0  0  0  0  0
   -2.3073    7.5235  -19.2915 C   0  0  0  0  0  0  0  0  0  0  0  0
   -3.6935    7.3836  -18.6856 C   0  0  0  0  0  0  0  0  0  0  0  0
   -3.7409    6.2501  -17.6399 C   0  0  0  0  0  0  0  0  0  0  0  0
   -2.4633    5.3998  -17.6179 C   0  0  0  0  0  0  0  0  0  0  0  0
   -1.9611    5.0986  -19.0263 C   0  0  0  0  0  0  0  0  0  0  0  0
   -7.5356    5.2747  -13.3391 C   0  0  0  0  0  0  0  0  0  0  0  0
   -8.1660    6.7048  -13.1022 C   0  0  0  0  0  0  0  0  0  0  0  0
   -9.3118    6.9249  -13.2081 O   0  0  0  0  0  0  0  0  0  0  0  0
   -6.9762    7.6663  -12.7789 N   0  0  0  0  0  0  0  0  0  0  0  0
   -6.0854    7.2490  -12.8207 H   0  0  0  0  0  0  0  0  0  0  0  0
   -6.9722    9.0686  -12.4286 C   0  0  0  0  0  0  0  0  0  0  0  0
   -6.7283    9.9880  -13.6181 C   0  0  0  0  0  0  0  0  0  0  0  0
   -5.3952   10.0147  -13.8969 F   0  0  0  0  0  0  0  0  0  0  0  0
   -7.0704   11.2598  -13.2822 F   0  0  0  0  0  0  0  0  0  0  0  0
   -8.3075    4.1822  -12.6925 N   0  0  0  0  0  0  0  0  0  0  0  0
   -8.8098    3.5325  -13.2354 H   0  0  0  0  0  0  0  0  0  0  0  0
   -8.3058    4.0954  -11.2879 C   0  0  0  0  0  0  0  0  0  0  0  0
   -7.9928    5.1957  -10.4666 C   0  0  0  0  0  0  0  0  0  0  0  0
   -8.0655    5.1252   -9.0718 C   0  0  0  0  0  0  0  0  0  0  0  0
   -8.5109    3.9513   -8.5022 C   0  0  0  0  0  0  0  0  0  0  0  0
   -8.8510    2.8649   -9.2911 C   0  0  0  0  0  0  0  0  0  0  0  0
   -8.7466    2.9143  -10.6734 C   0  0  0  0  0  0  0  0  0  0  0  0
   -9.3409    1.7544   -8.4288 C   0  0  0  0  0  0  0  0  0  0  0  0
   -9.3181    2.2627   -7.0296 N   0  0  0  0  0  0  0  0  0  0  0  0
   -8.7782    3.6384   -7.0725 C   0  0  0  0  0  0  0  0  0  0  0  0
   -8.7207    1.6707   -6.4525 H   0  0  0  0  0  0  0  0  0  0  0  0
   -5.1402    5.8542  -14.7067 O   0  0  0  0  0  0  0  0  0  0  0  0
   -4.2382    4.8785  -14.1881 C   0  0  0  0  0  0  0  0  0  0  0  0
   -2.8654    5.4990  -14.0210 C   0  0  0  0  0  0  0  0  0  0  0  0
   -2.5763    6.6849  -14.0279 O   0  0  0  0  0  0  0  0  0  0  0  0
   -1.8988    4.5690  -13.8639 O   0  0  0  0  0  0  0  0  0  0  0  0
   -2.1209    3.6587  -13.8586 H   0  0  0  0  0  0  0  0  0  0  0  0
 12 13  1  0  0  0
 13 14  1  0  0  0
 14 15  1  0  0  0
 15 16  1  0  0  0
 16  1  1  0  0  0
  1  2  2  0  0  0
  2  3  1  0  0  0
  3  4  1  0  0  0
  4  5  2  0  0  0
  5  6  1  0  0  0
  5  7  1  0  0  0
  7  8  2  0  0  0
  8 19  1  0  0  0
 19 28  1  0  0  0
 28 30  1  0  0  0
 30 31  2  0  0  0
 31 32  1  0  0  0
 32 33  2  0  0  0
 33 34  1  0  0  0
 34 35  2  0  0  0
 34 36  1  0  0  0
 36 37  1  0  0  0
 37 38  1  0  0  0
 19 20  1  0  0  0
 20 21  2  0  0  0
 20 22  1  0  0  0
 22 24  1  0  0  0
 24 25  1  0  0  0
 25 26  1  0  0  0
 25 27  1  0  0  0
  8  9  1  0  0  0
  9 40  1  0  0  0
 40 41  1  0  0  0
 41 42  1  0  0  0
 42 43  2  0  0  0
 42 44  1  0  0  0
  9 10  2  0  0  0
 16 17  1  0  0  0
 17 18  1  0  0  0
 18 13  1  0  0  0
 10  1  1  0  0  0
 10  4  1  0  0  0
 35 30  1  0  0  0
 38 33  1  0  0  0
  3 11  1  0  0  0
 28 29  1  0  0  0
 37 39  1  0  0  0
 22 23  1  0  0  0
 44 45  1  0  0  0
M  END
> <minimizedAffinity>
-8.09407

> <minimizedRMSD>
1.48472

$$$$
P23643


 45 49  0  0  0  0  0  0  0  0999 V2000
   -6.1691    5.4044  -16.0869 C   0  0  0  0  0  0  0  0  0  0  0  0
   -7.1713    4.5732  -15.2334 C   0  0  0  0  0  0  0  0  0  0  0  0
   -8.6284    4.8500  -15.5855 C   0  0  0  0  0  0  0  0  0  0  0  0
   -8.9439    4.6286  -17.0561 C   0  0  0  0  0  0  0  0  0  0  0  0
   -9.1084    2.9085  -17.4252 Cl  0  0  0  0  0  0  0  0  0  0  0  0
   -7.9556    5.2695  -18.0143 C   0  0  0  0  0  0  0  0  0  0  0  0
   -6.4708    5.4727  -17.6134 C   0  0  0  0  0  0  0  0  0  0  0  0
   -5.6701    4.5967  -18.5546 C   0  0  0  0  0  0  0  0  0  0  0  0
   -5.4152    5.3546  -19.7925 N   0  0  0  0  0  0  0  0  0  0  0  0
   -5.8532    6.7003  -19.5688 N   0  0  0  0  0  0  0  0  0  0  0  0
   -5.9829    6.8449  -18.1254 C   0  0  0  0  0  0  0  0  0  0  0  0
   -5.9357    4.9427  -20.5670 H   0  0  0  0  0  0  0  0  0  0  0  0
   -4.9595    7.7441  -20.1022 C   0  0  0  0  0  0  0  0  0  0  0  0
   -3.8277    7.1906  -20.9891 C   0  0  0  0  0  0  0  0  0  0  0  0
   -2.9221    8.2195  -20.3821 N   0  0  0  0  0  0  0  0  0  0  0  0
   -3.8077    8.1892  -19.1754 C   0  0  0  0  0  0  0  0  0  0  0  0
   -2.9030    9.1130  -20.8737 H   0  0  0  0  0  0  0  0  0  0  0  0
   -4.8731    4.9092  -15.7124 O   0  0  0  0  0  0  0  0  0  0  0  0
   -3.6996    5.4008  -16.3309 C   0  0  0  0  0  0  0  0  0  0  0  0
   -3.4561    7.7572  -15.6031 O   0  0  0  0  0  0  0  0  0  0  0  0
   -2.9802    6.6648  -15.8566 C   0  0  0  0  0  0  0  0  0  0  0  0
   -1.6433    6.4785  -15.7707 O   0  0  0  0  0  0  0  0  0  0  0  0
   -1.2737    5.6397  -15.9650 H   0  0  0  0  0  0  0  0  0  0  0  0
   -6.8731    4.6834  -13.6894 C   0  0  0  0  0  0  0  0  0  0  0  0
   -5.7873    5.7769  -13.4035 C   0  0  0  0  0  0  0  0  0  0  0  0
   -5.9865    6.9196  -13.5621 O   0  0  0  0  0  0  0  0  0  0  0  0
   -4.5239    5.0371  -12.8670 N   0  0  0  0  0  0  0  0  0  0  0  0
   -4.6319    4.0650  -12.7544 H   0  0  0  0  0  0  0  0  0  0  0  0
   -3.2201    5.5469  -12.5083 C   0  0  0  0  0  0  0  0  0  0  0  0
   -2.0808    4.5675  -12.7546 C   0  0  0  0  0  0  0  0  0  0  0  0
   -1.9443    3.7317  -11.6930 F   0  0  0  0  0  0  0  0  0  0  0  0
   -2.3418    3.7820  -13.8305 F   0  0  0  0  0  0  0  0  0  0  0  0
   -8.1390    4.9437  -12.9392 N   0  0  0  0  0  0  0  0  0  0  0  0
   -8.9496    5.2420  -13.4116 H   0  0  0  0  0  0  0  0  0  0  0  0
   -8.1507    4.7537  -11.5408 C   0  0  0  0  0  0  0  0  0  0  0  0
   -8.4755    3.4878  -11.0288 C   0  0  0  0  0  0  0  0  0  0  0  0
   -8.5933    3.3213   -9.6557 C   0  0  0  0  0  0  0  0  0  0  0  0
   -8.3216    4.3587   -8.7692 C   0  0  0  0  0  0  0  0  0  0  0  0
   -7.9656    5.6077   -9.2306 C   0  0  0  0  0  0  0  0  0  0  0  0
   -7.9293    5.8023  -10.6126 C   0  0  0  0  0  0  0  0  0  0  0  0
   -7.7979    7.0688  -11.0406 F   0  0  0  0  0  0  0  0  0  0  0  0
   -8.5550    3.8787   -7.3767 C   0  0  0  0  0  0  0  0  0  0  0  0
   -9.3712    2.6541   -7.5233 N   0  0  0  0  0  0  0  0  0  0  0  0
   -9.0568    2.1279   -8.8806 C   0  0  0  0  0  0  0  0  0  0  0  0
  -10.3640    2.8761   -7.4480 H   0  0  0  0  0  0  0  0  0  0  0  0
 20 21  2  0  0  0
 21 22  1  0  0  0
 21 19  1  0  0  0
 19 18  1  0  0  0
  1 18  1  0  0  0
  1  2  1  0  0  0
  2 24  1  0  0  0
 24 33  1  0  0  0
 33 35  1  0  0  0
 35 36  2  0  0  0
 36 37  1  0  0  0
 37 38  2  0  0  0
 38 39  1  0  0  0
 39 40  2  0  0  0
 40 41  1  0  0  0
 38 42  1  0  0  0
 42 43  1  0  0  0
 43 44  1  0  0  0
 24 25  1  0  0  0
 25 26  2  0  0  0
 25 27  1  0  0  0
 27 29  1  0  0  0
 29 30  1  0  0  0
 30 31  1  0  0  0
 30 32  1  0  0  0
  2  3  1  0  0  0
  3  4  1  0  0  0
  4  5  1  0  0  0
  4  6  1  0  0  0
  7  6  1  0  0  0
  7  8  1  0  0  0
  8  9  1  0  0  0
  9 10  1  0  0  0
 10 13  1  0  0  0
 13 14  1  0  0  0
 14 15  1  0  0  0
 15 16  1  0  0  0
 10 11  1  0  0  0
  7  1  1  0  0  0
 16 13  1  0  0  0
 40 35  1  0  0  0
 11  7  1  0  0  0
 44 37  1  0  0  0
 22 23  1  0  0  0
 33 34  1  0  0  0
 43 45  1  0  0  0
 27 28  1  0  0  0
  9 12  1  0  0  0
 15 17  1  0  0  0
M  END
> <minimizedAffinity>
-6.35289

> <minimizedRMSD>
1.15777

$$$$
P23644


 45 49  0  0  0  0  0  0  0  0999 V2000
   -5.5309    5.8578  -15.9319 C   0  0  0  0  0  0  0  0  0  0  0  0
   -6.3682    4.8900  -15.0366 C   0  0  0  0  0  0  0  0  0  0  0  0
   -7.7837    4.6151  -15.6210 C   0  0  0  0  0  0  0  0  0  0  0  0
   -7.9192    4.6339  -17.1418 C   0  0  0  0  0  0  0  0  0  0  0  0
   -8.9791    3.3232  -17.6792 Cl  0  0  0  0  0  0  0  0  0  0  0  0
   -6.5961    4.5429  -17.8562 C   0  0  0  0  0  0  0  0  0  0  0  0
   -5.6116    5.6589  -17.4846 C   0  0  0  0  0  0  0  0  0  0  0  0
   -6.0576    6.9493  -18.1564 C   0  0  0  0  0  0  0  0  0  0  0  0
   -5.6481    6.8855  -19.5555 N   0  0  0  0  0  0  0  0  0  0  0  0
   -4.6277    5.8629  -19.6401 N   0  0  0  0  0  0  0  0  0  0  0  0
   -4.2930    5.5047  -18.2523 C   0  0  0  0  0  0  0  0  0  0  0  0
   -5.2707    7.7851  -19.8533 H   0  0  0  0  0  0  0  0  0  0  0  0
   -3.4430    6.4175  -20.3235 C   0  0  0  0  0  0  0  0  0  0  0  0
   -3.6823    6.5712  -21.8401 C   0  0  0  0  0  0  0  0  0  0  0  0
   -2.3717    5.9039  -22.0897 N   0  0  0  0  0  0  0  0  0  0  0  0
   -2.4993    5.2718  -20.7443 C   0  0  0  0  0  0  0  0  0  0  0  0
   -1.5821    6.5426  -22.1850 H   0  0  0  0  0  0  0  0  0  0  0  0
   -4.1976    6.1299  -15.4885 O   0  0  0  0  0  0  0  0  0  0  0  0
   -3.2908    5.0459  -15.3149 C   0  0  0  0  0  0  0  0  0  0  0  0
   -1.0674    4.9227  -14.3563 O   0  0  0  0  0  0  0  0  0  0  0  0
   -2.1464    5.4953  -14.4181 C   0  0  0  0  0  0  0  0  0  0  0  0
   -2.4554    6.5586  -13.6406 O   0  0  0  0  0  0  0  0  0  0  0  0
   -3.2942    6.9687  -13.7196 H   0  0  0  0  0  0  0  0  0  0  0  0
   -6.5338    5.3193  -13.5255 C   0  0  0  0  0  0  0  0  0  0  0  0
   -5.3285    4.8353  -12.6302 C   0  0  0  0  0  0  0  0  0  0  0  0
   -4.7057    5.5780  -11.9740 O   0  0  0  0  0  0  0  0  0  0  0  0
   -5.1691    3.3040  -12.8442 N   0  0  0  0  0  0  0  0  0  0  0  0
   -5.7786    2.9154  -13.5126 H   0  0  0  0  0  0  0  0  0  0  0  0
   -4.2681    2.3544  -12.2192 C   0  0  0  0  0  0  0  0  0  0  0  0
   -2.8959    2.2523  -12.8711 C   0  0  0  0  0  0  0  0  0  0  0  0
   -1.9377    2.1745  -11.9122 F   0  0  0  0  0  0  0  0  0  0  0  0
   -2.8132    1.1033  -13.5894 F   0  0  0  0  0  0  0  0  0  0  0  0
   -7.8275    4.7836  -13.0161 N   0  0  0  0  0  0  0  0  0  0  0  0
   -8.4703    4.4283  -13.6717 H   0  0  0  0  0  0  0  0  0  0  0  0
   -8.1865    4.7542  -11.6601 C   0  0  0  0  0  0  0  0  0  0  0  0
   -8.3952    3.4825  -11.0972 C   0  0  0  0  0  0  0  0  0  0  0  0
   -8.5479    3.3585   -9.7262 C   0  0  0  0  0  0  0  0  0  0  0  0
   -8.4588    4.4633   -8.8870 C   0  0  0  0  0  0  0  0  0  0  0  0
   -8.2868    5.7344   -9.4044 C   0  0  0  0  0  0  0  0  0  0  0  0
   -8.1824    5.8697  -10.7916 C   0  0  0  0  0  0  0  0  0  0  0  0
   -8.0929    7.1124  -11.2962 F   0  0  0  0  0  0  0  0  0  0  0  0
   -8.5874    3.9992   -7.4740 C   0  0  0  0  0  0  0  0  0  0  0  0
   -9.1617    2.6387   -7.5588 N   0  0  0  0  0  0  0  0  0  0  0  0
   -8.8011    2.1311   -8.9098 C   0  0  0  0  0  0  0  0  0  0  0  0
  -10.1754    2.6735   -7.4512 H   0  0  0  0  0  0  0  0  0  0  0  0
 20 21  2  0  0  0
 21 22  1  0  0  0
 21 19  1  0  0  0
 19 18  1  0  0  0
  1 18  1  0  0  0
  1  2  1  0  0  0
  2 24  1  0  0  0
 24 33  1  0  0  0
 33 35  1  0  0  0
 35 36  2  0  0  0
 36 37  1  0  0  0
 37 38  2  0  0  0
 38 39  1  0  0  0
 39 40  2  0  0  0
 40 41  1  0  0  0
 38 42  1  0  0  0
 42 43  1  0  0  0
 43 44  1  0  0  0
 24 25  1  0  0  0
 25 26  2  0  0  0
 25 27  1  0  0  0
 27 29  1  0  0  0
 29 30  1  0  0  0
 30 31  1  0  0  0
 30 32  1  0  0  0
  2  3  1  0  0  0
  3  4  1  0  0  0
  4  5  1  0  0  0
  4  6  1  0  0  0
  7  6  1  0  0  0
  7  8  1  0  0  0
  8  9  1  0  0  0
  9 10  1  0  0  0
 10 13  1  0  0  0
 13 14  1  0  0  0
 14 15  1  0  0  0
 15 16  1  0  0  0
 10 11  1  0  0  0
  7  1  1  0  0  0
 16 13  1  0  0  0
 40 35  1  0  0  0
 11  7  1  0  0  0
 44 37  1  0  0  0
 22 23  1  0  0  0
 33 34  1  0  0  0
 43 45  1  0  0  0
 27 28  1  0  0  0
  9 12  1  0  0  0
 15 17  1  0  0  0
M  END
> <minimizedAffinity>
-7.79076

> <minimizedRMSD>
1.04052

$$$$
P23652


 39 42  0  0  0  0  0  0  0  0999 V2000
   -6.8537    4.9213  -13.0503 C   0  0  0  0  0  0  0  0  0  0  0  0
   -3.3840    5.7601  -17.6692 C   0  0  0  0  0  0  0  0  0  0  0  0
   -4.8090    5.3861  -17.8180 C   0  0  0  0  0  0  0  0  0  0  0  0
   -5.4813    5.2365  -19.0096 C   0  0  0  0  0  0  0  0  0  0  0  0
   -6.7485    4.8019  -18.7412 N   0  0  0  0  0  0  0  0  0  0  0  0
   -6.9306    4.6986  -17.3844 C   0  0  0  0  0  0  0  0  0  0  0  0
   -8.0384    4.2889  -16.6511 C   0  0  0  0  0  0  0  0  0  0  0  0
   -9.4570    3.7606  -17.4368 Cl  0  0  0  0  0  0  0  0  0  0  0  0
   -7.9756    4.3480  -15.2577 C   0  0  0  0  0  0  0  0  0  0  0  0
   -6.8222    4.7863  -14.5769 C   0  0  0  0  0  0  0  0  0  0  0  0
   -5.7252    5.2070  -15.3595 C   0  0  0  0  0  0  0  0  0  0  0  0
   -5.7548    5.1227  -16.7738 C   0  0  0  0  0  0  0  0  0  0  0  0
   -7.4302    4.5936  -19.4203 H   0  0  0  0  0  0  0  0  0  0  0  0
   -4.5916    5.6860  -14.7543 O   0  0  0  0  0  0  0  0  0  0  0  0
   -4.6329    7.1131  -14.6702 C   0  0  0  0  0  0  0  0  0  0  0  0
   -3.5187    7.6820  -13.8103 C   0  0  0  0  0  0  0  0  0  0  0  0
   -3.2021    8.8629  -13.7626 O   0  0  0  0  0  0  0  0  0  0  0  0
   -2.8161    6.7690  -13.1128 O   0  0  0  0  0  0  0  0  0  0  0  0
   -3.0578    5.8644  -13.1487 H   0  0  0  0  0  0  0  0  0  0  0  0
   -5.5362    4.5049  -12.2918 C   0  0  0  0  0  0  0  0  0  0  0  0
   -4.9348    5.2854  -11.6581 O   0  0  0  0  0  0  0  0  0  0  0  0
   -5.3213    2.9761  -12.4745 N   0  0  0  0  0  0  0  0  0  0  0  0
   -6.0156    2.5226  -13.0050 H   0  0  0  0  0  0  0  0  0  0  0  0
   -4.2669    2.1116  -11.9916 C   0  0  0  0  0  0  0  0  0  0  0  0
   -2.9422    2.2738  -12.7289 C   0  0  0  0  0  0  0  0  0  0  0  0
   -2.6671    1.1427  -13.4327 F   0  0  0  0  0  0  0  0  0  0  0  0
   -3.0398    3.2695  -13.6483 F   0  0  0  0  0  0  0  0  0  0  0  0
   -8.0375    4.2308  -12.4890 N   0  0  0  0  0  0  0  0  0  0  0  0
   -8.6933    3.8044  -13.0867 H   0  0  0  0  0  0  0  0  0  0  0  0
   -8.2161    4.1896  -11.0985 C   0  0  0  0  0  0  0  0  0  0  0  0
   -8.0322    5.3146  -10.2671 C   0  0  0  0  0  0  0  0  0  0  0  0
   -8.2449    5.2521   -8.8839 C   0  0  0  0  0  0  0  0  0  0  0  0
   -8.6773    4.0584   -8.3448 C   0  0  0  0  0  0  0  0  0  0  0  0
   -8.8827    2.9462   -9.1511 C   0  0  0  0  0  0  0  0  0  0  0  0
   -8.6717    2.9976  -10.5180 C   0  0  0  0  0  0  0  0  0  0  0  0
   -9.3061    1.7989   -8.2965 C   0  0  0  0  0  0  0  0  0  0  0  0
   -9.7483    2.4210   -7.0198 N   0  0  0  0  0  0  0  0  0  0  0  0
   -8.9988    3.6964   -6.9335 C   0  0  0  0  0  0  0  0  0  0  0  0
   -9.5208    1.8176   -6.2295 H   0  0  0  0  0  0  0  0  0  0  0  0
  2  3  1  0  0  0
  3  4  2  0  0  0
  4  5  1  0  0  0
  5  6  1  0  0  0
  6  7  2  0  0  0
  7  8  1  0  0  0
  7  9  1  0  0  0
  9 10  2  0  0  0
 10  1  1  0  0  0
  1 28  1  0  0  0
 28 30  1  0  0  0
 30 31  2  0  0  0
 31 32  1  0  0  0
 32 33  2  0  0  0
 33 34  1  0  0  0
 34 35  2  0  0  0
 34 36  1  0  0  0
 36 37  1  0  0  0
 37 38  1  0  0  0
  1 20  1  0  0  0
 20 21  2  0  0  0
 20 22  1  0  0  0
 22 24  1  0  0  0
 24 25  1  0  0  0
 25 26  1  0  0  0
 25 27  1  0  0  0
 10 11  1  0  0  0
 11 14  1  0  0  0
 14 15  1  0  0  0
 15 16  1  0  0  0
 16 17  2  0  0  0
 16 18  1  0  0  0
 11 12  2  0  0  0
 12  3  1  0  0  0
 12  6  1  0  0  0
 35 30  1  0  0  0
 38 33  1  0  0  0
  5 13  1  0  0  0
 28 29  1  0  0  0
 37 39  1  0  0  0
 22 23  1  0  0  0
 18 19  1  0  0  0
M  END
> <minimizedAffinity>
-7.93991

> <minimizedRMSD>
0.65380

$$$$
P23654


 42 45  0  0  0  0  0  0  0  0999 V2000
   -4.8186    5.2341  -17.9371 C   0  0  0  0  0  0  0  0  0  0  0  0
   -5.4599    5.1197  -19.1538 C   0  0  0  0  0  0  0  0  0  0  0  0
   -6.7610    4.7810  -18.9395 N   0  0  0  0  0  0  0  0  0  0  0  0
   -7.0070    4.7027  -17.5916 C   0  0  0  0  0  0  0  0  0  0  0  0
   -8.1834    4.3900  -16.9237 C   0  0  0  0  0  0  0  0  0  0  0  0
   -9.5841    3.9291  -17.7924 Cl  0  0  0  0  0  0  0  0  0  0  0  0
   -8.2079    4.5232  -15.5363 C   0  0  0  0  0  0  0  0  0  0  0  0
   -7.0718    4.9303  -14.8035 C   0  0  0  0  0  0  0  0  0  0  0  0
   -5.8569    5.1659  -15.5076 C   0  0  0  0  0  0  0  0  0  0  0  0
   -5.8322    5.0519  -16.9261 C   0  0  0  0  0  0  0  0  0  0  0  0
   -7.4263    4.6166  -19.6463 H   0  0  0  0  0  0  0  0  0  0  0  0
   -2.5359    4.7122  -18.6121 N   0  0  0  0  0  0  0  0  0  0  0  0
   -3.3693    5.4970  -17.6945 C   0  0  0  0  0  0  0  0  0  0  0  0
   -1.5516    4.9073  -18.4286 H   0  0  0  0  0  0  0  0  0  0  0  0
   -2.7590    4.9653  -19.5747 H   0  0  0  0  0  0  0  0  0  0  0  0
   -7.2009    5.2381  -13.3063 C   0  0  0  0  0  0  0  0  0  0  0  0
   -7.4587    6.7928  -13.1291 C   0  0  0  0  0  0  0  0  0  0  0  0
   -6.5890    7.5519  -12.9530 O   0  0  0  0  0  0  0  0  0  0  0  0
   -8.9864    7.0243  -13.2340 N   0  0  0  0  0  0  0  0  0  0  0  0
   -9.5236    6.2028  -13.3099 H   0  0  0  0  0  0  0  0  0  0  0  0
   -9.7532    8.2528  -13.2385 C   0  0  0  0  0  0  0  0  0  0  0  0
   -9.6614    9.0394  -11.9328 C   0  0  0  0  0  0  0  0  0  0  0  0
  -10.7316    9.8702  -11.8328 F   0  0  0  0  0  0  0  0  0  0  0  0
   -8.5604    9.8335  -11.9327 F   0  0  0  0  0  0  0  0  0  0  0  0
   -8.2433    4.3699  -12.6636 N   0  0  0  0  0  0  0  0  0  0  0  0
   -8.9273    3.9134  -13.2049 H   0  0  0  0  0  0  0  0  0  0  0  0
   -8.2127    4.2271  -11.2504 C   0  0  0  0  0  0  0  0  0  0  0  0
   -7.9140    5.2930  -10.3757 C   0  0  0  0  0  0  0  0  0  0  0  0
   -8.0941    5.1914   -8.9921 C   0  0  0  0  0  0  0  0  0  0  0  0
   -8.5601    4.0012   -8.4801 C   0  0  0  0  0  0  0  0  0  0  0  0
   -8.8290    2.9255   -9.3126 C   0  0  0  0  0  0  0  0  0  0  0  0
   -8.6843    3.0264  -10.6901 C   0  0  0  0  0  0  0  0  0  0  0  0
   -9.3411    1.7926   -8.4894 C   0  0  0  0  0  0  0  0  0  0  0  0
   -9.1391    2.1868   -7.0700 N   0  0  0  0  0  0  0  0  0  0  0  0
   -8.9078    3.6465   -7.0762 C   0  0  0  0  0  0  0  0  0  0  0  0
   -8.3306    1.7024   -6.6802 H   0  0  0  0  0  0  0  0  0  0  0  0
   -4.7449    5.7109  -14.9086 O   0  0  0  0  0  0  0  0  0  0  0  0
   -3.9530    4.8148  -14.1392 C   0  0  0  0  0  0  0  0  0  0  0  0
   -2.4955    5.2350  -14.0821 C   0  0  0  0  0  0  0  0  0  0  0  0
   -1.9923    6.2808  -14.4571 O   0  0  0  0  0  0  0  0  0  0  0  0
   -1.7185    4.2883  -13.5085 O   0  0  0  0  0  0  0  0  0  0  0  0
   -2.0989    3.4827  -13.2183 H   0  0  0  0  0  0  0  0  0  0  0  0
 12 13  1  0  0  0
 13  1  1  0  0  0
  1  2  2  0  0  0
  2  3  1  0  0  0
  3  4  1  0  0  0
  4  5  2  0  0  0
  5  6  1  0  0  0
  5  7  1  0  0  0
  7  8  2  0  0  0
  8 16  1  0  0  0
 16 25  1  0  0  0
 25 27  1  0  0  0
 27 28  2  0  0  0
 28 29  1  0  0  0
 29 30  2  0  0  0
 30 31  1  0  0  0
 31 32  2  0  0  0
 31 33  1  0  0  0
 33 34  1  0  0  0
 34 35  1  0  0  0
 16 17  1  0  0  0
 17 18  2  0  0  0
 17 19  1  0  0  0
 19 21  1  0  0  0
 21 22  1  0  0  0
 22 23  1  0  0  0
 22 24  1  0  0  0
  8  9  1  0  0  0
  9 37  1  0  0  0
 37 38  1  0  0  0
 38 39  1  0  0  0
 39 40  2  0  0  0
 39 41  1  0  0  0
  9 10  2  0  0  0
 10  1  1  0  0  0
 10  4  1  0  0  0
 32 27  1  0  0  0
 35 30  1  0  0  0
 12 14  1  0  0  0
 12 15  1  0  0  0
  3 11  1  0  0  0
 25 26  1  0  0  0
 34 36  1  0  0  0
 19 20  1  0  0  0
 41 42  1  0  0  0
M  END
> <minimizedAffinity>
-7.45337

> <minimizedRMSD>
0.55742

$$$$
P23663


 39 42  0  0  0  0  0  0  0  0999 V2000
   -7.6467    5.8536  -13.6072 C   0  0  0  0  0  0  0  0  0  0  0  0
   -6.0575    5.8253  -15.6977 C   0  0  0  0  0  0  0  0  0  0  0  0
   -7.5052    5.6310  -15.1595 C   0  0  0  0  0  0  0  0  0  0  0  0
   -8.1692    4.3322  -15.6250 C   0  0  0  0  0  0  0  0  0  0  0  0
   -8.0635    4.0376  -17.1064 C   0  0  0  0  0  0  0  0  0  0  0  0
   -9.3770    4.7436  -18.0362 Cl  0  0  0  0  0  0  0  0  0  0  0  0
   -6.6775    4.3237  -17.6729 C   0  0  0  0  0  0  0  0  0  0  0  0
   -5.9691    5.5981  -17.2412 C   0  0  0  0  0  0  0  0  0  0  0  0
   -6.4691    6.7620  -18.0752 C   0  0  0  0  0  0  0  0  0  0  0  0
   -6.0829    6.6512  -19.4849 N   0  0  0  0  0  0  0  0  0  0  0  0
   -4.7697    6.0230  -19.5507 C   0  0  0  0  0  0  0  0  0  0  0  0
   -4.2440    5.5831  -17.8809 S   0  0  0  0  0  0  0  0  0  0  0  0
   -6.0428    7.5795  -19.9056 H   0  0  0  0  0  0  0  0  0  0  0  0
   -5.1751    4.9330  -14.9978 O   0  0  0  0  0  0  0  0  0  0  0  0
   -4.2383    5.6187  -14.1728 C   0  0  0  0  0  0  0  0  0  0  0  0
   -2.6092    4.2023  -12.9557 O   0  0  0  0  0  0  0  0  0  0  0  0
   -3.6527    4.8283  -13.0090 C   0  0  0  0  0  0  0  0  0  0  0  0
   -4.4272    4.9231  -11.9017 O   0  0  0  0  0  0  0  0  0  0  0  0
   -5.2318    5.4024  -11.9323 H   0  0  0  0  0  0  0  0  0  0  0  0
   -8.8327    6.8548  -13.4166 C   0  0  0  0  0  0  0  0  0  0  0  0
   -9.8960    6.6315  -13.8514 O   0  0  0  0  0  0  0  0  0  0  0  0
   -8.3060    8.0860  -12.6236 N   0  0  0  0  0  0  0  0  0  0  0  0
   -7.3807    8.0017  -12.2981 H   0  0  0  0  0  0  0  0  0  0  0  0
   -8.9566    9.3365  -12.2866 C   0  0  0  0  0  0  0  0  0  0  0  0
   -9.9952    9.2060  -11.1786 C   0  0  0  0  0  0  0  0  0  0  0  0
   -9.4893    8.4165  -10.1896 F   0  0  0  0  0  0  0  0  0  0  0  0
  -10.2181   10.4207  -10.6167 F   0  0  0  0  0  0  0  0  0  0  0  0
   -7.9102    4.6005  -12.8683 N   0  0  0  0  0  0  0  0  0  0  0  0
   -7.9900    3.7660  -13.3844 H   0  0  0  0  0  0  0  0  0  0  0  0
   -8.0527    4.5317  -11.4782 C   0  0  0  0  0  0  0  0  0  0  0  0
   -7.6025    5.5202  -10.5869 C   0  0  0  0  0  0  0  0  0  0  0  0
   -7.8097    5.4187   -9.2032 C   0  0  0  0  0  0  0  0  0  0  0  0
   -8.4154    4.2805   -8.7120 C   0  0  0  0  0  0  0  0  0  0  0  0
   -8.7547    3.2381   -9.5619 C   0  0  0  0  0  0  0  0  0  0  0  0
   -8.5756    3.3446  -10.9315 C   0  0  0  0  0  0  0  0  0  0  0  0
   -9.2554    2.0921   -8.7465 C   0  0  0  0  0  0  0  0  0  0  0  0
   -9.6145    2.6907   -7.4326 N   0  0  0  0  0  0  0  0  0  0  0  0
   -8.7663    3.8991   -7.3126 C   0  0  0  0  0  0  0  0  0  0  0  0
   -9.4154    2.0371   -6.6752 H   0  0  0  0  0  0  0  0  0  0  0  0
 16 17  2  0  0  0
 17 18  1  0  0  0
 17 15  1  0  0  0
 15 14  1  0  0  0
  2 14  1  0  0  0
  2  3  1  0  0  0
  3  1  1  0  0  0
  1 28  1  0  0  0
 28 30  1  0  0  0
 30 31  2  0  0  0
 31 32  1  0  0  0
 32 33  2  0  0  0
 33 34  1  0  0  0
 34 35  2  0  0  0
 34 36  1  0  0  0
 36 37  1  0  0  0
 37 38  1  0  0  0
  1 20  1  0  0  0
 20 21  2  0  0  0
 20 22  1  0  0  0
 22 24  1  0  0  0
 24 25  1  0  0  0
 25 26  1  0  0  0
 25 27  1  0  0  0
  3  4  1  0  0  0
  4  5  1  0  0  0
  5  6  1  0  0  0
  5  7  1  0  0  0
  8  7  1  0  0  0
  8  9  1  0  0  0
  9 10  1  0  0  0
 10 11  1  0  0  0
 11 12  1  0  0  0
  8  2  1  0  0  0
 35 30  1  0  0  0
 12  8  1  0  0  0
 38 33  1  0  0  0
 18 19  1  0  0  0
 28 29  1  0  0  0
 37 39  1  0  0  0
 22 23  1  0  0  0
 10 13  1  0  0  0
M  END
> <minimizedAffinity>
-6.24234

> <minimizedRMSD>
0.56339

$$$$
P23674


 28 31  0  0  0  0  0  0  0  0999 V2000
   -6.7102    4.9602  -13.8029 C   0  0  0  0  0  0  0  0  0  0  0  0
   -5.9272    5.7586  -13.4611 O   0  0  0  0  0  0  0  0  0  0  0  0
   -7.6929    4.0926  -12.9692 N   0  0  0  0  0  0  0  0  0  0  0  0
   -8.2031    3.4314  -13.4905 H   0  0  0  0  0  0  0  0  0  0  0  0
   -8.4340    4.4004  -17.1278 C   0  0  0  0  0  0  0  0  0  0  0  0
   -7.4173    4.5708  -18.0576 C   0  0  0  0  0  0  0  0  0  0  0  0
   -6.1848    4.8997  -17.5673 C   0  0  0  0  0  0  0  0  0  0  0  0
   -5.9162    5.0124  -16.2028 C   0  0  0  0  0  0  0  0  0  0  0  0
   -6.9058    4.7530  -15.2656 C   0  0  0  0  0  0  0  0  0  0  0  0
   -8.1840    4.4503  -15.7436 C   0  0  0  0  0  0  0  0  0  0  0  0
   -4.4936    5.4410  -16.0476 C   0  0  0  0  0  0  0  0  0  0  0  0
   -3.9924    5.4992  -17.5020 C   0  0  0  0  0  0  0  0  0  0  0  0
   -2.8599    5.7619  -17.8744 O   0  0  0  0  0  0  0  0  0  0  0  0
   -5.0639    5.1972  -18.3193 N   0  0  0  0  0  0  0  0  0  0  0  0
   -5.0335    5.1943  -19.3033 H   0  0  0  0  0  0  0  0  0  0  0  0
  -10.8658    4.2899  -17.9630 N   0  0  0  0  0  0  0  0  0  0  0  0
   -9.7721    4.3207  -17.5948 C   0  0  0  0  0  0  0  0  0  0  0  0
   -7.9706    4.0982  -11.5992 C   0  0  0  0  0  0  0  0  0  0  0  0
   -7.7919    5.2569  -10.8221 C   0  0  0  0  0  0  0  0  0  0  0  0
   -8.0960    5.2585   -9.4551 C   0  0  0  0  0  0  0  0  0  0  0  0
   -8.5574    4.0812   -8.8995 C   0  0  0  0  0  0  0  0  0  0  0  0
   -8.7286    2.9192   -9.6453 C   0  0  0  0  0  0  0  0  0  0  0  0
   -8.4538    2.9188  -11.0061 C   0  0  0  0  0  0  0  0  0  0  0  0
   -9.1706    1.8095   -8.7476 C   0  0  0  0  0  0  0  0  0  0  0  0
   -9.3520    2.4810   -7.4774 N   0  0  0  0  0  0  0  0  0  0  0  0
   -8.9095    3.7854   -7.5056 C   0  0  0  0  0  0  0  0  0  0  0  0
   -8.8007    4.5568   -6.5713 O   0  0  0  0  0  0  0  0  0  0  0  0
   -9.7470    2.0536   -6.6833 H   0  0  0  0  0  0  0  0  0  0  0  0
 16 17  3  0  0  0
 17  5  1  0  0  0
  5  6  2  0  0  0
  6  7  1  0  0  0
  7  8  2  0  0  0
  8  9  1  0  0  0
  9  1  1  0  0  0
  1  2  2  0  0  0
  1  3  1  0  0  0
  3 18  1  0  0  0
 18 19  2  0  0  0
 19 20  1  0  0  0
 20 21  2  0  0  0
 21 22  1  0  0  0
 22 23  2  0  0  0
 22 24  1  0  0  0
 24 25  1  0  0  0
 25 26  1  0  0  0
 26 27  2  0  0  0
  9 10  2  0  0  0
  8 11  1  0  0  0
 11 12  1  0  0  0
 12 13  2  0  0  0
 12 14  1  0  0  0
 10  5  1  0  0  0
 14  7  1  0  0  0
 23 18  1  0  0  0
 26 21  1  0  0  0
  3  4  1  0  0  0
 25 28  1  0  0  0
 14 15  1  0  0  0
M  END
> <minimizedAffinity>
-8.70746

> <minimizedRMSD>
0.45252

$$$$
P23676


 27 30  0  0  0  0  0  0  0  0999 V2000
   -8.0908    5.4948  -12.9601 C   0  0  0  0  0  0  0  0  0  0  0  0
   -8.3652    6.6019  -12.7105 O   0  0  0  0  0  0  0  0  0  0  0  0
   -7.9733    4.2592  -12.0383 N   0  0  0  0  0  0  0  0  0  0  0  0
   -7.6492    3.4428  -12.4828 H   0  0  0  0  0  0  0  0  0  0  0  0
   -6.9020    4.4500  -18.5299 C   0  0  0  0  0  0  0  0  0  0  0  0
   -7.2277    4.6625  -17.0948 C   0  0  0  0  0  0  0  0  0  0  0  0
   -8.5244    4.4985  -16.5941 C   0  0  0  0  0  0  0  0  0  0  0  0
   -8.8013    4.7344  -15.2371 C   0  0  0  0  0  0  0  0  0  0  0  0
   -7.7814    5.1444  -14.3647 C   0  0  0  0  0  0  0  0  0  0  0  0
   -6.4999    5.3052  -14.8639 C   0  0  0  0  0  0  0  0  0  0  0  0
   -6.2493    5.0655  -16.2083 C   0  0  0  0  0  0  0  0  0  0  0  0
   -4.9102    5.2867  -16.4890 N   0  0  0  0  0  0  0  0  0  0  0  0
   -4.2125    5.6483  -15.3529 C   0  0  0  0  0  0  0  0  0  0  0  0
   -3.0157    5.8763  -15.2958 O   0  0  0  0  0  0  0  0  0  0  0  0
   -5.2202    5.7073  -14.1926 C   0  0  0  0  0  0  0  0  0  0  0  0
   -4.5080    5.1975  -17.3831 H   0  0  0  0  0  0  0  0  0  0  0  0
   -8.2511    4.1132  -10.6812 C   0  0  0  0  0  0  0  0  0  0  0  0
   -8.0045    5.1639   -9.7771 C   0  0  0  0  0  0  0  0  0  0  0  0
   -8.2423    5.0029   -8.4096 C   0  0  0  0  0  0  0  0  0  0  0  0
   -8.7230    3.7795   -7.9895 C   0  0  0  0  0  0  0  0  0  0  0  0
   -8.9806    2.7312   -8.8690 C   0  0  0  0  0  0  0  0  0  0  0  0
   -8.7573    2.8870  -10.2279 C   0  0  0  0  0  0  0  0  0  0  0  0
   -9.4322    1.5335   -8.1030 C   0  0  0  0  0  0  0  0  0  0  0  0
   -9.5063    2.0297   -6.7428 N   0  0  0  0  0  0  0  0  0  0  0  0
   -9.0048    3.3100   -6.6287 C   0  0  0  0  0  0  0  0  0  0  0  0
   -8.7977    3.9329   -5.6046 O   0  0  0  0  0  0  0  0  0  0  0  0
   -9.8718    1.5134   -5.9885 H   0  0  0  0  0  0  0  0  0  0  0  0
  5  6  1  0  0  0
  6  7  2  0  0  0
  7  8  1  0  0  0
  8  9  2  0  0  0
  9  1  1  0  0  0
  1  2  2  0  0  0
  1  3  1  0  0  0
  3 17  1  0  0  0
 17 18  2  0  0  0
 18 19  1  0  0  0
 19 20  2  0  0  0
 20 21  1  0  0  0
 21 22  2  0  0  0
 21 23  1  0  0  0
 23 24  1  0  0  0
 24 25  1  0  0  0
 25 26  2  0  0  0
  9 10  1  0  0  0
 10 11  2  0  0  0
 11 12  1  0  0  0
 12 13  1  0  0  0
 13 14  2  0  0  0
 13 15  1  0  0  0
 11  6  1  0  0  0
 22 17  1  0  0  0
 15 10  1  0  0  0
 25 20  1  0  0  0
  3  4  1  0  0  0
 24 27  1  0  0  0
 12 16  1  0  0  0
M  END
> <minimizedAffinity>
-8.07325

> <minimizedRMSD>
0.92966

$$$$
P23680


 50 56  0  0  0  0  0  0  0  0999 V2000
   -8.1198    4.2716  -11.9602 C   0  0  0  0  0  0  0  0  0  0  0  0
   -8.5383    3.1001  -11.2844 C   0  0  0  0  0  0  0  0  0  0  0  0
   -8.6630    3.1142   -9.9077 C   0  0  0  0  0  0  0  0  0  0  0  0
   -8.3889    4.2781   -9.2104 C   0  0  0  0  0  0  0  0  0  0  0  0
   -8.0136    5.4531   -9.8314 C   0  0  0  0  0  0  0  0  0  0  0  0
   -7.8533    5.4781  -11.2296 C   0  0  0  0  0  0  0  0  0  0  0  0
   -8.5896    4.0163   -7.7820 C   0  0  0  0  0  0  0  0  0  0  0  0
   -8.3392    4.7924   -6.8795 O   0  0  0  0  0  0  0  0  0  0  0  0
   -9.0731    2.7310   -7.6832 N   0  0  0  0  0  0  0  0  0  0  0  0
   -9.0679    2.0388   -8.9549 C   0  0  0  0  0  0  0  0  0  0  0  0
   -9.3874    2.3276   -6.8419 H   0  0  0  0  0  0  0  0  0  0  0  0
   -7.2171    4.8032  -14.3361 C   0  0  0  0  0  0  0  0  0  0  0  0
   -6.3315    5.6013  -14.1973 O   0  0  0  0  0  0  0  0  0  0  0  0
   -8.0391    4.1310  -13.3639 N   0  0  0  0  0  0  0  0  0  0  0  0
   -8.6499    3.4578  -13.7420 H   0  0  0  0  0  0  0  0  0  0  0  0
   -3.9439    5.6462  -18.8314 O   0  0  0  0  0  0  0  0  0  0  0  0
   -5.0029    5.3144  -18.3210 C   0  0  0  0  0  0  0  0  0  0  0  0
   -5.3302    5.3038  -16.8184 C   0  0  0  0  0  0  0  0  0  0  0  0
   -6.7284    4.7617  -16.7976 C   0  0  0  0  0  0  0  0  0  0  0  0
   -7.1399    4.5316  -18.1088 C   0  0  0  0  0  0  0  0  0  0  0  0
   -8.3801    4.0259  -18.4263 C   0  0  0  0  0  0  0  0  0  0  0  0
   -9.2543    3.7595  -17.3772 C   0  0  0  0  0  0  0  0  0  0  0  0
   -8.8606    3.9796  -16.0471 C   0  0  0  0  0  0  0  0  0  0  0  0
   -7.5833    4.4776  -15.7430 C   0  0  0  0  0  0  0  0  0  0  0  0
   -6.1339    4.8785  -18.9958 N   0  0  0  0  0  0  0  0  0  0  0  0
   -6.2113    4.8230  -19.9757 H   0  0  0  0  0  0  0  0  0  0  0  0
   -7.6327    6.6911  -11.8953 N   0  0  0  0  0  0  0  0  0  0  0  0
   -7.9897    6.7920  -12.8073 H   0  0  0  0  0  0  0  0  0  0  0  0
   -6.9055    7.8109  -11.3148 C   0  0  0  0  0  0  0  0  0  0  0  0
   -5.5407    7.4225  -10.7900 C   0  0  0  0  0  0  0  0  0  0  0  0
   -4.5148    7.0349  -11.6631 C   0  0  0  0  0  0  0  0  0  0  0  0
   -3.2599    6.6837  -11.1672 C   0  0  0  0  0  0  0  0  0  0  0  0
   -3.0190    6.7258   -9.7974 C   0  0  0  0  0  0  0  0  0  0  0  0
   -1.7628    6.3777   -9.3815 O   0  0  0  0  0  0  0  0  0  0  0  0
   -4.0160    7.1142   -8.8930 C   0  0  0  0  0  0  0  0  0  0  0  0
   -5.2770    7.4606   -9.4092 C   0  0  0  0  0  0  0  0  0  0  0  0
   -1.1156    6.1219  -10.0089 H   0  0  0  0  0  0  0  0  0  0  0  0
   -3.8263    7.0720   -7.3951 C   0  0  0  0  0  0  0  0  0  0  0  0
   -2.5776    7.7425   -7.0198 N   0  0  0  0  0  0  0  0  0  0  0  0
   -2.2331    8.4979   -7.5488 H   0  0  0  0  0  0  0  0  0  0  0  0
   -1.9098    7.2995   -5.9305 C   0  0  0  0  0  0  0  0  0  0  0  0
   -1.4823    8.0324   -4.9341 N   0  0  0  0  0  0  0  0  0  0  0  0
   -0.8366    7.1616   -4.0898 C   0  0  0  0  0  0  0  0  0  0  0  0
   -0.1999    7.4043   -2.8642 C   0  0  0  0  0  0  0  0  0  0  0  0
    0.3972    6.3291   -2.1931 C   0  0  0  0  0  0  0  0  0  0  0  0
    0.3624    5.0401   -2.7320 C   0  0  0  0  0  0  0  0  0  0  0  0
   -0.2672    4.7783   -3.9548 C   0  0  0  0  0  0  0  0  0  0  0  0
   -0.8563    5.8677   -4.5993 C   0  0  0  0  0  0  0  0  0  0  0  0
   -1.5370    5.9890   -5.7830 N   0  0  0  0  0  0  0  0  0  0  0  0
   -1.7255    5.2604   -6.4177 H   0  0  0  0  0  0  0  0  0  0  0  0
 16 17  2  0  0  0
 17 18  1  0  0  0
 18 19  1  0  0  0
 19 20  2  0  0  0
 20 21  1  0  0  0
 21 22  2  0  0  0
 22 23  1  0  0  0
 23 24  2  0  0  0
 24 12  1  0  0  0
 12 13  2  0  0  0
 12 14  1  0  0  0
 14  1  1  0  0  0
  1  2  2  0  0  0
  2  3  1  0  0  0
  3  4  2  0  0  0
  4  5  1  0  0  0
  5  6  2  0  0  0
  6 27  1  0  0  0
 27 29  1  0  0  0
 29 30  1  0  0  0
 30 31  2  0  0  0
 31 32  1  0  0  0
 32 33  2  0  0  0
 33 34  1  0  0  0
 33 35  1  0  0  0
 35 38  1  0  0  0
 38 39  1  0  0  0
 39 41  1  0  0  0
 41 42  2  0  0  0
 42 43  1  0  0  0
 43 44  2  0  0  0
 44 45  1  0  0  0
 45 46  2  0  0  0
 46 47  1  0  0  0
 47 48  2  0  0  0
 48 49  1  0  0  0
 35 36  2  0  0  0
  4  7  1  0  0  0
  7  8  2  0  0  0
  7  9  1  0  0  0
  9 10  1  0  0  0
 20 25  1  0  0  0
 25 17  1  0  0  0
 24 19  1  0  0  0
  6  1  1  0  0  0
 36 30  1  0  0  0
 10  3  1  0  0  0
 49 41  1  0  0  0
 48 43  1  0  0  0
 14 15  1  0  0  0
 27 28  1  0  0  0
 34 37  1  0  0  0
 39 40  1  0  0  0
 49 50  1  0  0  0
  9 11  1  0  0  0
 25 26  1  0  0  0
M  END
> <minimizedAffinity>
-7.34668

> <minimizedRMSD>
1.95519

$$$$
P23704


 29 32  0  0  0  0  0  0  0  0999 V2000
   -7.9566    3.9585  -13.0155 N   0  0  0  0  0  0  0  0  0  0  0  0
   -8.5514    4.8691  -14.1178 C   0  0  0  0  0  0  0  0  0  0  0  0
   -9.3213    5.7440  -14.0430 O   0  0  0  0  0  0  0  0  0  0  0  0
   -7.3769    3.2350  -13.3468 H   0  0  0  0  0  0  0  0  0  0  0  0
   -7.9737    4.6138  -15.4410 C   0  0  0  0  0  0  0  0  0  0  0  0
   -8.8163    4.2048  -16.4611 C   0  0  0  0  0  0  0  0  0  0  0  0
   -8.3592    4.1868  -17.7759 C   0  0  0  0  0  0  0  0  0  0  0  0
   -9.2263    3.8331  -18.7232 F   0  0  0  0  0  0  0  0  0  0  0  0
   -7.0617    4.5423  -18.1142 C   0  0  0  0  0  0  0  0  0  0  0  0
   -6.2397    4.9171  -17.0771 C   0  0  0  0  0  0  0  0  0  0  0  0
   -6.6694    4.9610  -15.7517 C   0  0  0  0  0  0  0  0  0  0  0  0
   -5.5344    5.4108  -14.8801 C   0  0  0  0  0  0  0  0  0  0  0  0
   -4.3828    5.5398  -15.8924 C   0  0  0  0  0  0  0  0  0  0  0  0
   -3.2166    5.8063  -15.6477 O   0  0  0  0  0  0  0  0  0  0  0  0
   -4.9078    5.2873  -17.1542 N   0  0  0  0  0  0  0  0  0  0  0  0
   -4.3988    5.3619  -17.9936 H   0  0  0  0  0  0  0  0  0  0  0  0
   -7.7512    5.1458  -10.8660 C   0  0  0  0  0  0  0  0  0  0  0  0
   -8.0154    5.2260   -9.4926 C   0  0  0  0  0  0  0  0  0  0  0  0
   -8.5411    4.1048   -8.8875 C   0  0  0  0  0  0  0  0  0  0  0  0
   -8.7818    2.9212   -9.5813 C   0  0  0  0  0  0  0  0  0  0  0  0
   -8.5820    2.8553  -10.9555 C   0  0  0  0  0  0  0  0  0  0  0  0
   -8.1095    3.9971  -11.6194 C   0  0  0  0  0  0  0  0  0  0  0  0
   -9.1999    1.8621   -8.6127 C   0  0  0  0  0  0  0  0  0  0  0  0
   -9.3239    2.5922   -7.3692 N   0  0  0  0  0  0  0  0  0  0  0  0
   -8.8347    3.8753   -7.4685 C   0  0  0  0  0  0  0  0  0  0  0  0
   -8.6445    4.6744   -6.5721 O   0  0  0  0  0  0  0  0  0  0  0  0
   -9.7131    2.2149   -6.5474 H   0  0  0  0  0  0  0  0  0  0  0  0
   -6.0565    6.7701  -11.9552 N   0  0  0  0  0  0  0  0  0  0  0  0
   -6.8671    6.1145  -11.4447 C   0  0  0  0  0  0  0  0  0  0  0  0
 28 29  3  0  0  0
 29 17  1  0  0  0
 17 18  2  0  0  0
 18 19  1  0  0  0
 19 20  2  0  0  0
 20 21  1  0  0  0
 21 22  2  0  0  0
 22  1  1  0  0  0
  1  2  1  0  0  0
  2  3  2  0  0  0
  2  5  1  0  0  0
  5  6  2  0  0  0
  6  7  1  0  0  0
  7  8  1  0  0  0
  7  9  2  0  0  0
  9 10  1  0  0  0
 10 11  2  0  0  0
 11 12  1  0  0  0
 12 13  1  0  0  0
 13 14  2  0  0  0
 13 15  1  0  0  0
 20 23  1  0  0  0
 23 24  1  0  0  0
 24 25  1  0  0  0
 25 26  2  0  0  0
 22 17  1  0  0  0
 11  5  1  0  0  0
 25 19  1  0  0  0
 15 10  1  0  0  0
  1  4  1  0  0  0
 15 16  1  0  0  0
 24 27  1  0  0  0
M  END
> <minimizedAffinity>
-9.28108

> <minimizedRMSD>
0.67549

$$$$
P23714


 30 33  0  0  0  0  0  0  0  0999 V2000
   -2.6747    6.1578  -15.6710 N   0  0  0  0  0  0  0  0  0  0  0  0
   -3.3288    5.9833  -16.8383 N   0  0  0  0  0  0  0  0  0  0  0  0
   -4.4044    5.2557  -16.7783 C   0  0  0  0  0  0  0  0  0  0  0  0
   -4.9950    4.5802  -15.5208 C   0  0  0  0  0  0  0  0  0  0  0  0
   -6.4227    4.4274  -15.9557 C   0  0  0  0  0  0  0  0  0  0  0  0
   -6.5311    4.7883  -17.3133 C   0  0  0  0  0  0  0  0  0  0  0  0
   -7.7435    4.7902  -17.9699 C   0  0  0  0  0  0  0  0  0  0  0  0
   -8.8809    4.5184  -17.2148 C   0  0  0  0  0  0  0  0  0  0  0  0
  -10.4359    4.6768  -17.9231 Cl  0  0  0  0  0  0  0  0  0  0  0  0
   -8.7810    4.1406  -15.8713 C   0  0  0  0  0  0  0  0  0  0  0  0
   -7.5370    4.0424  -15.2459 C   0  0  0  0  0  0  0  0  0  0  0  0
   -5.2708    5.0806  -17.8435 N   0  0  0  0  0  0  0  0  0  0  0  0
   -1.8521    6.6980  -15.6436 H   0  0  0  0  0  0  0  0  0  0  0  0
   -3.0202    5.7449  -14.8467 H   0  0  0  0  0  0  0  0  0  0  0  0
   -5.0418    5.1492  -18.7985 H   0  0  0  0  0  0  0  0  0  0  0  0
   -7.4761    3.4799  -13.8810 C   0  0  0  0  0  0  0  0  0  0  0  0
   -7.1316    2.3728  -13.7578 O   0  0  0  0  0  0  0  0  0  0  0  0
   -7.9994    4.4872  -12.8354 N   0  0  0  0  0  0  0  0  0  0  0  0
   -8.3007    5.3477  -13.2068 H   0  0  0  0  0  0  0  0  0  0  0  0
   -8.1146    4.3769  -11.4525 C   0  0  0  0  0  0  0  0  0  0  0  0
   -7.8747    5.5144  -10.6559 C   0  0  0  0  0  0  0  0  0  0  0  0
   -8.0603    5.4644   -9.2703 C   0  0  0  0  0  0  0  0  0  0  0  0
   -8.5169    4.2755   -8.7325 C   0  0  0  0  0  0  0  0  0  0  0  0
   -8.7612    3.1458   -9.5071 C   0  0  0  0  0  0  0  0  0  0  0  0
   -8.5394    3.1745  -10.8727 C   0  0  0  0  0  0  0  0  0  0  0  0
   -9.2671    2.0364   -8.6473 C   0  0  0  0  0  0  0  0  0  0  0  0
   -9.3788    2.6739   -7.3495 N   0  0  0  0  0  0  0  0  0  0  0  0
   -8.8624    3.9516   -7.3434 C   0  0  0  0  0  0  0  0  0  0  0  0
   -8.7139    4.6905   -6.3886 O   0  0  0  0  0  0  0  0  0  0  0  0
   -9.7791    2.2420   -6.5606 H   0  0  0  0  0  0  0  0  0  0  0  0
  1  2  1  0  0  0
  2  3  2  0  0  0
  3  4  1  0  0  0
  4  5  1  0  0  0
  5  6  2  0  0  0
  6  7  1  0  0  0
  7  8  2  0  0  0
  8  9  1  0  0  0
  8 10  1  0  0  0
 10 11  2  0  0  0
 11 16  1  0  0  0
 16 17  2  0  0  0
 16 18  1  0  0  0
 18 20  1  0  0  0
 20 21  2  0  0  0
 21 22  1  0  0  0
 22 23  2  0  0  0
 23 24  1  0  0  0
 24 25  2  0  0  0
 24 26  1  0  0  0
 26 27  1  0  0  0
 27 28  1  0  0  0
 28 29  2  0  0  0
  6 12  1  0  0  0
 12  3  1  0  0  0
 11  5  1  0  0  0
 25 20  1  0  0  0
 28 23  1  0  0  0
  1 13  1  0  0  0
  1 14  1  0  0  0
 18 19  1  0  0  0
 27 30  1  0  0  0
 12 15  1  0  0  0
M  END
> <minimizedAffinity>
-8.71700

> <minimizedRMSD>
1.06392

$$$$
P23719


 30 33  0  0  0  0  0  0  0  0999 V2000
   -4.4299    4.9455  -16.9047 C   0  0  0  0  0  0  0  0  0  0  0  0
   -5.1062    4.2764  -15.6886 C   0  0  0  0  0  0  0  0  0  0  0  0
   -6.5418    4.4156  -16.0496 C   0  0  0  0  0  0  0  0  0  0  0  0
   -6.6597    4.7769  -17.3903 C   0  0  0  0  0  0  0  0  0  0  0  0
   -7.8955    4.8369  -18.0132 C   0  0  0  0  0  0  0  0  0  0  0  0
   -9.0298    4.6002  -17.2422 C   0  0  0  0  0  0  0  0  0  0  0  0
  -10.2476    4.6597  -17.8022 F   0  0  0  0  0  0  0  0  0  0  0  0
   -8.9238    4.2661  -15.8927 C   0  0  0  0  0  0  0  0  0  0  0  0
   -7.6677    4.1277  -15.3014 C   0  0  0  0  0  0  0  0  0  0  0  0
   -5.4051    4.9461  -18.0413 N   0  0  0  0  0  0  0  0  0  0  0  0
   -5.2229    5.0406  -19.0041 H   0  0  0  0  0  0  0  0  0  0  0  0
   -7.5666    3.5566  -13.9419 C   0  0  0  0  0  0  0  0  0  0  0  0
   -7.2621    2.4372  -13.8221 O   0  0  0  0  0  0  0  0  0  0  0  0
   -7.9352    4.6128  -12.8780 N   0  0  0  0  0  0  0  0  0  0  0  0
   -8.0828    5.5198  -13.2314 H   0  0  0  0  0  0  0  0  0  0  0  0
   -8.0930    4.4914  -11.5000 C   0  0  0  0  0  0  0  0  0  0  0  0
   -7.8419    5.6177  -10.6897 C   0  0  0  0  0  0  0  0  0  0  0  0
   -8.0263    5.5547   -9.3047 C   0  0  0  0  0  0  0  0  0  0  0  0
   -8.4809    4.3605   -8.7783 C   0  0  0  0  0  0  0  0  0  0  0  0
   -8.7346    3.2411   -9.5653 C   0  0  0  0  0  0  0  0  0  0  0  0
   -8.5303    3.2876  -10.9337 C   0  0  0  0  0  0  0  0  0  0  0  0
   -9.2107    2.1149   -8.7104 C   0  0  0  0  0  0  0  0  0  0  0  0
   -9.3069    2.7340   -7.4025 N   0  0  0  0  0  0  0  0  0  0  0  0
   -8.8013    4.0160   -7.3882 C   0  0  0  0  0  0  0  0  0  0  0  0
   -8.6438    4.7433   -6.4260 O   0  0  0  0  0  0  0  0  0  0  0  0
   -9.6905    2.2883   -6.6130 H   0  0  0  0  0  0  0  0  0  0  0  0
   -4.0090    6.4168  -16.6242 C   0  0  0  0  0  0  0  0  0  0  0  0
   -1.7779    5.9757  -15.7641 C   0  0  0  0  0  0  0  0  0  0  0  0
   -3.0531    6.6424  -15.5328 N   0  0  0  0  0  0  0  0  0  0  0  0
   -2.8873    7.6450  -15.4446 H   0  0  0  0  0  0  0  0  0  0  0  0
 28 29  1  0  0  0
 29 27  1  0  0  0
  1 27  1  0  0  0
  1  2  1  0  0  0
  2  3  1  0  0  0
  3  4  2  0  0  0
  4  5  1  0  0  0
  5  6  2  0  0  0
  6  7  1  0  0  0
  6  8  1  0  0  0
  8  9  2  0  0  0
  9 12  1  0  0  0
 12 13  2  0  0  0
 12 14  1  0  0  0
 14 16  1  0  0  0
 16 17  2  0  0  0
 17 18  1  0  0  0
 18 19  2  0  0  0
 19 20  1  0  0  0
 20 21  2  0  0  0
 20 22  1  0  0  0
 22 23  1  0  0  0
 23 24  1  0  0  0
 24 25  2  0  0  0
  4 10  1  0  0  0
 10  1  1  0  0  0
  9  3  1  0  0  0
 21 16  1  0  0  0
 24 19  1  0  0  0
 29 30  1  0  0  0
 14 15  1  0  0  0
 23 26  1  0  0  0
 10 11  1  0  0  0
M  END
> <minimizedAffinity>
-8.11550

> <minimizedRMSD>
1.09887

$$$$
P23735


 26 29  0  0  0  0  0  0  0  0999 V2000
   -8.8117    4.4858  -17.0358 C   0  0  0  0  0  0  0  0  0  0  0  0
   -7.7098    4.7558  -17.8483 C   0  0  0  0  0  0  0  0  0  0  0  0
   -6.4694    4.7322  -17.2578 C   0  0  0  0  0  0  0  0  0  0  0  0
   -6.2731    4.4613  -15.9021 C   0  0  0  0  0  0  0  0  0  0  0  0
   -7.3503    4.1912  -15.0702 C   0  0  0  0  0  0  0  0  0  0  0  0
   -8.6256    4.2013  -15.6592 C   0  0  0  0  0  0  0  0  0  0  0  0
   -4.8001    4.4946  -15.6172 C   0  0  0  0  0  0  0  0  0  0  0  0
   -4.2010    4.8070  -16.9928 C   0  0  0  0  0  0  0  0  0  0  0  0
   -3.0153    4.9238  -17.2550 O   0  0  0  0  0  0  0  0  0  0  0  0
   -5.2533    4.9389  -17.8854 N   0  0  0  0  0  0  0  0  0  0  0  0
   -5.1492    5.1518  -18.8409 H   0  0  0  0  0  0  0  0  0  0  0  0
  -10.2814    4.2626  -19.1103 C   0  0  0  0  0  0  0  0  0  0  0  0
  -10.1891    4.3929  -17.6179 C   0  0  0  0  0  0  0  0  0  0  0  0
   -7.1440    3.8960  -13.6207 C   0  0  0  0  0  0  0  0  0  0  0  0
   -6.0825    3.5139  -13.1543 O   0  0  0  0  0  0  0  0  0  0  0  0
   -8.3233    4.1255  -12.9306 O   0  0  0  0  0  0  0  0  0  0  0  0
   -8.3023    4.1598  -11.5223 C   0  0  0  0  0  0  0  0  0  0  0  0
   -7.9697    5.3276  -10.8188 C   0  0  0  0  0  0  0  0  0  0  0  0
   -8.0701    5.3526   -9.4234 C   0  0  0  0  0  0  0  0  0  0  0  0
   -8.5063    4.2084   -8.7724 C   0  0  0  0  0  0  0  0  0  0  0  0
   -8.8382    3.0587   -9.4799 C   0  0  0  0  0  0  0  0  0  0  0  0
   -8.7534    3.0161  -10.8617 C   0  0  0  0  0  0  0  0  0  0  0  0
   -9.2840    1.9970   -8.5339 C   0  0  0  0  0  0  0  0  0  0  0  0
   -9.1719    2.5744   -7.1680 N   0  0  0  0  0  0  0  0  0  0  0  0
   -8.7274    3.9787   -7.3168 C   0  0  0  0  0  0  0  0  0  0  0  0
   -8.4893    2.0485   -6.6221 H   0  0  0  0  0  0  0  0  0  0  0  0
 12 13  1  0  0  0
 13  1  1  0  0  0
  1  2  2  0  0  0
  2  3  1  0  0  0
  3  4  2  0  0  0
  4  5  1  0  0  0
  5 14  1  0  0  0
 14 15  2  0  0  0
 14 16  1  0  0  0
 16 17  1  0  0  0
 17 18  2  0  0  0
 18 19  1  0  0  0
 19 20  2  0  0  0
 20 21  1  0  0  0
 21 22  2  0  0  0
 21 23  1  0  0  0
 23 24  1  0  0  0
 24 25  1  0  0  0
  5  6  2  0  0  0
  4  7  1  0  0  0
  7  8  1  0  0  0
  8  9  2  0  0  0
  8 10  1  0  0  0
  6  1  1  0  0  0
 10  3  1  0  0  0
 22 17  1  0  0  0
 25 20  1  0  0  0
 24 26  1  0  0  0
 10 11  1  0  0  0
M  END
> <minimizedAffinity>
-7.72125

> <minimizedRMSD>
0.61727

$$$$
P23743


 30 33  0  0  0  0  0  0  0  0999 V2000
  -10.0129    4.5630  -18.0718 C   0  0  0  0  0  0  0  0  0  0  0  0
   -8.7853    4.4862  -17.2163 C   0  0  0  0  0  0  0  0  0  0  0  0
   -7.5624    4.8412  -17.7884 C   0  0  0  0  0  0  0  0  0  0  0  0
   -6.4381    4.7837  -17.0011 C   0  0  0  0  0  0  0  0  0  0  0  0
   -6.4621    4.3939  -15.6633 C   0  0  0  0  0  0  0  0  0  0  0  0
   -7.6649    4.0144  -15.0761 C   0  0  0  0  0  0  0  0  0  0  0  0
   -8.8337    4.0827  -15.8635 C   0  0  0  0  0  0  0  0  0  0  0  0
   -5.0482    4.4334  -15.1249 C   0  0  0  0  0  0  0  0  0  0  0  0
   -4.2465    4.8736  -16.3709 C   0  0  0  0  0  0  0  0  0  0  0  0
   -3.0410    5.0475  -16.4404 O   0  0  0  0  0  0  0  0  0  0  0  0
   -5.1467    5.0676  -17.4027 N   0  0  0  0  0  0  0  0  0  0  0  0
   -4.8994    5.3691  -18.3067 H   0  0  0  0  0  0  0  0  0  0  0  0
   -7.6948    3.4997  -13.6798 C   0  0  0  0  0  0  0  0  0  0  0  0
   -6.9638    2.6066  -13.2833 O   0  0  0  0  0  0  0  0  0  0  0  0
   -8.6029    4.2368  -12.9468 O   0  0  0  0  0  0  0  0  0  0  0  0
   -8.4429    4.1533  -11.5551 C   0  0  0  0  0  0  0  0  0  0  0  0
   -7.9846    5.2934  -10.8762 C   0  0  0  0  0  0  0  0  0  0  0  0
   -7.9662    5.3135   -9.4791 C   0  0  0  0  0  0  0  0  0  0  0  0
   -8.4252    4.1949   -8.8026 C   0  0  0  0  0  0  0  0  0  0  0  0
   -8.8577    3.0589   -9.4860 C   0  0  0  0  0  0  0  0  0  0  0  0
   -8.8767    3.0167  -10.8705 C   0  0  0  0  0  0  0  0  0  0  0  0
   -9.2495    2.0165   -8.4899 C   0  0  0  0  0  0  0  0  0  0  0  0
   -9.3905    2.7433   -7.2019 N   0  0  0  0  0  0  0  0  0  0  0  0
   -8.5616    3.9619   -7.3339 C   0  0  0  0  0  0  0  0  0  0  0  0
   -9.0546    2.1671   -6.4302 H   0  0  0  0  0  0  0  0  0  0  0  0
   -4.8537    5.4628  -14.0178 C   0  0  0  0  0  0  0  0  0  0  0  0
   -4.0236    4.9438  -12.8779 C   0  0  0  0  0  0  0  0  0  0  0  0
   -4.4469    4.6937  -11.7596 O   0  0  0  0  0  0  0  0  0  0  0  0
   -2.7466    4.6788  -13.1980 O   0  0  0  0  0  0  0  0  0  0  0  0
   -2.4291    4.8735  -14.0579 H   0  0  0  0  0  0  0  0  0  0  0  0
  1  2  1  0  0  0
  2  3  2  0  0  0
  3  4  1  0  0  0
  4  5  2  0  0  0
  5  6  1  0  0  0
  6 13  1  0  0  0
 13 14  2  0  0  0
 13 15  1  0  0  0
 15 16  1  0  0  0
 16 17  2  0  0  0
 17 18  1  0  0  0
 18 19  2  0  0  0
 19 20  1  0  0  0
 20 21  2  0  0  0
 20 22  1  0  0  0
 22 23  1  0  0  0
 23 24  1  0  0  0
  6  7  2  0  0  0
  5  8  1  0  0  0
  8 26  1  0  0  0
 26 27  1  0  0  0
 27 28  2  0  0  0
 27 29  1  0  0  0
  8  9  1  0  0  0
  9 10  2  0  0  0
  9 11  1  0  0  0
  7  2  1  0  0  0
 11  4  1  0  0  0
 21 16  1  0  0  0
 24 19  1  0  0  0
 23 25  1  0  0  0
 29 30  1  0  0  0
 11 12  1  0  0  0
M  END
> <minimizedAffinity>
-7.75685

> <minimizedRMSD>
1.02842

$$$$
P23757


 31 34  0  0  0  0  0  0  0  0999 V2000
   -7.6058    3.9605  -14.0414 C   0  0  0  0  0  0  0  0  0  0  0  0
   -6.3623    4.4863  -13.6388 O   0  0  0  0  0  0  0  0  0  0  0  0
   -7.5000    2.5495  -13.9912 O   0  0  0  0  0  0  0  0  0  0  0  0
   -6.2341    5.4139  -13.6069 H   0  0  0  0  0  0  0  0  0  0  0  0
   -8.2336    2.0160  -14.2263 H   0  0  0  0  0  0  0  0  0  0  0  0
   -3.7229    4.8534  -18.1138 N   0  0  0  0  0  0  0  0  0  0  0  0
   -4.9728    4.8148  -17.8254 C   0  0  0  0  0  0  0  0  0  0  0  0
   -5.4037    4.5849  -16.3582 C   0  0  0  0  0  0  0  0  0  0  0  0
   -6.9065    4.5241  -16.4781 C   0  0  0  0  0  0  0  0  0  0  0  0
   -7.2346    4.6860  -17.8422 C   0  0  0  0  0  0  0  0  0  0  0  0
   -8.5406    4.6717  -18.2774 C   0  0  0  0  0  0  0  0  0  0  0  0
   -9.5395    4.4737  -17.3316 C   0  0  0  0  0  0  0  0  0  0  0  0
   -9.2153    4.2992  -15.9743 C   0  0  0  0  0  0  0  0  0  0  0  0
   -7.8843    4.3154  -15.5050 C   0  0  0  0  0  0  0  0  0  0  0  0
   -6.0976    4.9353  -18.6092 N   0  0  0  0  0  0  0  0  0  0  0  0
   -6.0989    5.1631  -19.5670 H   0  0  0  0  0  0  0  0  0  0  0  0
   -3.3653    5.0813  -19.5128 C   0  0  0  0  0  0  0  0  0  0  0  0
   -2.9870    6.5553  -19.6857 C   0  0  0  0  0  0  0  0  0  0  0  0
   -1.6713    5.6852  -21.4461 C   0  0  0  0  0  0  0  0  0  0  0  0
   -2.4043    6.8061  -20.9681 O   0  0  0  0  0  0  0  0  0  0  0  0
   -8.6490    4.5116  -13.2264 O   0  0  0  0  0  0  0  0  0  0  0  0
   -8.4795    4.3979  -11.8674 C   0  0  0  0  0  0  0  0  0  0  0  0
   -8.0954    5.5628  -11.1801 C   0  0  0  0  0  0  0  0  0  0  0  0
   -8.0206    5.5804   -9.7819 C   0  0  0  0  0  0  0  0  0  0  0  0
   -8.3506    4.4252   -9.0949 C   0  0  0  0  0  0  0  0  0  0  0  0
   -8.7164    3.2663   -9.7726 C   0  0  0  0  0  0  0  0  0  0  0  0
   -8.8001    3.2371  -11.1565 C   0  0  0  0  0  0  0  0  0  0  0  0
   -8.9830    2.1827   -8.7786 C   0  0  0  0  0  0  0  0  0  0  0  0
   -9.1257    2.8798   -7.4749 N   0  0  0  0  0  0  0  0  0  0  0  0
   -8.4163    4.1706   -7.6247 C   0  0  0  0  0  0  0  0  0  0  0  0
   -8.7029    2.3272   -6.7290 H   0  0  0  0  0  0  0  0  0  0  0  0
 19 20  1  0  0  0
 20 18  1  0  0  0
 18 17  1  0  0  0
 17  6  1  0  0  0
  6  7  2  0  0  0
  7  8  1  0  0  0
  8  9  1  0  0  0
  9 10  2  0  0  0
 10 11  1  0  0  0
 11 12  2  0  0  0
 12 13  1  0  0  0
 13 14  2  0  0  0
 14  1  1  0  0  0
  1  2  1  0  0  0
  1  3  1  0  0  0
  1 21  1  0  0  0
 21 22  1  0  0  0
 22 23  2  0  0  0
 23 24  1  0  0  0
 24 25  2  0  0  0
 25 26  1  0  0  0
 26 27  2  0  0  0
 26 28  1  0  0  0
 28 29  1  0  0  0
 29 30  1  0  0  0
 10 15  1  0  0  0
 15  7  1  0  0  0
 14  9  1  0  0  0
 27 22  1  0  0  0
 30 25  1  0  0  0
  2  4  1  0  0  0
  3  5  1  0  0  0
 29 31  1  0  0  0
 15 16  1  0  0  0
M  END
> <minimizedAffinity>
-7.86292

> <minimizedRMSD>
0.60361

$$$$
P23771


 28 31  0  0  0  0  0  0  0  0999 V2000
   -7.3453    3.7781  -13.8012 C   0  0  0  0  0  0  0  0  0  0  0  0
   -6.1421    4.3594  -13.3447 O   0  0  0  0  0  0  0  0  0  0  0  0
   -7.1760    2.3754  -13.7764 O   0  0  0  0  0  0  0  0  0  0  0  0
   -5.3311    4.1474  -13.7634 H   0  0  0  0  0  0  0  0  0  0  0  0
   -6.4474    1.9836  -14.2164 H   0  0  0  0  0  0  0  0  0  0  0  0
   -7.5148    4.1871  -15.2588 C   0  0  0  0  0  0  0  0  0  0  0  0
   -8.7871    4.2968  -15.8630 C   0  0  0  0  0  0  0  0  0  0  0  0
   -8.9494    4.6165  -17.2238 C   0  0  0  0  0  0  0  0  0  0  0  0
   -7.8401    4.8370  -18.0325 C   0  0  0  0  0  0  0  0  0  0  0  0
   -6.6003    4.7478  -17.4434 C   0  0  0  0  0  0  0  0  0  0  0  0
   -6.4254    4.4370  -16.0938 C   0  0  0  0  0  0  0  0  0  0  0  0
   -4.9536    4.4051  -15.7963 C   0  0  0  0  0  0  0  0  0  0  0  0
   -4.3307    4.7257  -17.1578 C   0  0  0  0  0  0  0  0  0  0  0  0
   -3.1364    4.8024  -17.3996 O   0  0  0  0  0  0  0  0  0  0  0  0
   -5.3692    4.9222  -18.0564 N   0  0  0  0  0  0  0  0  0  0  0  0
   -5.2478    5.1550  -19.0052 H   0  0  0  0  0  0  0  0  0  0  0  0
   -8.5108    4.1853  -13.0761 O   0  0  0  0  0  0  0  0  0  0  0  0
   -7.9102    6.7127  -11.7849 C   0  0  0  0  0  0  0  0  0  0  0  0
   -8.1301    5.4307  -11.0401 C   0  0  0  0  0  0  0  0  0  0  0  0
   -8.1044    5.4452   -9.6352 C   0  0  0  0  0  0  0  0  0  0  0  0
   -8.4380    4.2893   -8.9495 C   0  0  0  0  0  0  0  0  0  0  0  0
   -8.7699    3.1257   -9.6257 C   0  0  0  0  0  0  0  0  0  0  0  0
   -8.7551    3.0749  -11.0078 C   0  0  0  0  0  0  0  0  0  0  0  0
   -8.4043    4.2263  -11.7143 C   0  0  0  0  0  0  0  0  0  0  0  0
   -9.1402    2.0639   -8.6484 C   0  0  0  0  0  0  0  0  0  0  0  0
   -9.0987    2.7006   -7.3065 N   0  0  0  0  0  0  0  0  0  0  0  0
   -8.5670    4.0693   -7.4820 C   0  0  0  0  0  0  0  0  0  0  0  0
   -8.4898    2.1670   -6.6861 H   0  0  0  0  0  0  0  0  0  0  0  0
 18 19  1  0  0  0
 19 20  2  0  0  0
 20 21  1  0  0  0
 21 22  2  0  0  0
 22 23  1  0  0  0
 23 24  2  0  0  0
 24 17  1  0  0  0
 17  1  1  0  0  0
  1  2  1  0  0  0
  1  3  1  0  0  0
  1  6  1  0  0  0
  6  7  2  0  0  0
  7  8  1  0  0  0
  8  9  2  0  0  0
  9 10  1  0  0  0
 10 11  2  0  0  0
 11 12  1  0  0  0
 12 13  1  0  0  0
 13 14  2  0  0  0
 13 15  1  0  0  0
 22 25  1  0  0  0
 25 26  1  0  0  0
 26 27  1  0  0  0
 24 19  1  0  0  0
 11  6  1  0  0  0
 27 21  1  0  0  0
 15 10  1  0  0  0
  2  4  1  0  0  0
  3  5  1  0  0  0
 15 16  1  0  0  0
 26 28  1  0  0  0
M  END
> <minimizedAffinity>
-8.42396

> <minimizedRMSD>
0.37008

$$$$
P23775


 34 38  0  0  0  0  0  0  0  0999 V2000
   -7.6927    4.2456  -15.2669 C   0  0  0  0  0  0  0  0  0  0  0  0
   -8.9377    4.2302  -15.9154 C   0  0  0  0  0  0  0  0  0  0  0  0
   -9.0116    4.4333  -17.3066 C   0  0  0  0  0  0  0  0  0  0  0  0
  -10.5256    4.4184  -18.1208 Cl  0  0  0  0  0  0  0  0  0  0  0  0
   -7.8659    4.6416  -18.0690 C   0  0  0  0  0  0  0  0  0  0  0  0
   -6.6576    4.7124  -17.4134 C   0  0  0  0  0  0  0  0  0  0  0  0
   -6.5679    4.5168  -16.0366 C   0  0  0  0  0  0  0  0  0  0  0  0
   -5.1320    4.5959  -15.6370 C   0  0  0  0  0  0  0  0  0  0  0  0
   -4.5127    5.2143  -16.9183 C   0  0  0  0  0  0  0  0  0  0  0  0
   -5.3911    4.8514  -18.0519 N   0  0  0  0  0  0  0  0  0  0  0  0
   -5.1604    4.7358  -19.0020 H   0  0  0  0  0  0  0  0  0  0  0  0
   -6.4966    3.4323  -13.3763 O   0  0  0  0  0  0  0  0  0  0  0  0
   -7.5174    3.9341  -13.8226 C   0  0  0  0  0  0  0  0  0  0  0  0
   -8.6253    4.3491  -13.1180 O   0  0  0  0  0  0  0  0  0  0  0  0
   -8.4417    4.2833  -11.7288 C   0  0  0  0  0  0  0  0  0  0  0  0
   -8.0098    5.4325  -11.0434 C   0  0  0  0  0  0  0  0  0  0  0  0
   -7.9742    5.4394   -9.6454 C   0  0  0  0  0  0  0  0  0  0  0  0
   -8.3884    4.2987   -8.9761 C   0  0  0  0  0  0  0  0  0  0  0  0
   -8.7845    3.1538   -9.6680 C   0  0  0  0  0  0  0  0  0  0  0  0
   -8.8210    3.1242  -11.0511 C   0  0  0  0  0  0  0  0  0  0  0  0
   -9.1267    2.0855   -8.6816 C   0  0  0  0  0  0  0  0  0  0  0  0
   -9.3116    2.8011   -7.3913 N   0  0  0  0  0  0  0  0  0  0  0  0
   -8.5159    4.0445   -7.5095 C   0  0  0  0  0  0  0  0  0  0  0  0
   -8.9706    2.2322   -6.6164 H   0  0  0  0  0  0  0  0  0  0  0  0
   -4.3519    6.6630  -16.6956 N   0  0  0  0  0  0  0  0  0  0  0  0
   -4.0652    7.3244  -17.7518 C   0  0  0  0  0  0  0  0  0  0  0  0
   -3.9215    8.6711  -17.7743 O   0  0  0  0  0  0  0  0  0  0  0  0
   -4.8765    9.4377  -17.0233 C   0  0  0  0  0  0  0  0  0  0  0  0
   -5.6492   10.3206  -17.9760 C   0  0  0  0  0  0  0  0  0  0  0  0
   -5.7409   10.0060  -19.3402 C   0  0  0  0  0  0  0  0  0  0  0  0
   -6.4407   10.8375  -20.2164 C   0  0  0  0  0  0  0  0  0  0  0  0
   -7.0489   11.9975  -19.7411 C   0  0  0  0  0  0  0  0  0  0  0  0
   -6.9535   12.3297  -18.3913 C   0  0  0  0  0  0  0  0  0  0  0  0
   -6.2530   11.4994  -17.5143 C   0  0  0  0  0  0  0  0  0  0  0  0
 12 13  2  0  0  0
 13 14  1  0  0  0
 14 15  1  0  0  0
 15 16  2  0  0  0
 16 17  1  0  0  0
 17 18  2  0  0  0
 18 19  1  0  0  0
 19 20  2  0  0  0
 19 21  1  0  0  0
 21 22  1  0  0  0
 22 23  1  0  0  0
 13  1  1  0  0  0
  1  2  2  0  0  0
  2  3  1  0  0  0
  3  4  1  0  0  0
  3  5  2  0  0  0
  5  6  1  0  0  0
  6  7  2  0  0  0
  7  8  1  0  0  0
  9  8  1  0  0  0
  9 25  1  0  0  0
 25 26  2  0  0  0
 26 27  1  0  0  0
 27 28  1  0  0  0
 28 29  1  0  0  0
 29 30  2  0  0  0
 30 31  1  0  0  0
 31 32  2  0  0  0
 32 33  1  0  0  0
 33 34  2  0  0  0
  9 10  1  0  0  0
 20 15  1  0  0  0
  7  1  1  0  0  0
 34 29  1  0  0  0
 23 18  1  0  0  0
 10  6  1  0  0  0
 22 24  1  0  0  0
 10 11  1  0  0  0
M  END
> <minimizedAffinity>
-7.62719

> <minimizedRMSD>
1.23160

$$$$
P23804


 25 29  0  0  0  0  0  0  0  0999 V2000
   -6.1627    3.3854  -13.3327 O   0  0  0  0  0  0  0  0  0  0  0  0
   -7.2130    3.8585  -13.7358 C   0  0  0  0  0  0  0  0  0  0  0  0
   -7.4731    4.1861  -15.1640 C   0  0  0  0  0  0  0  0  0  0  0  0
   -8.7857    4.3209  -15.6639 C   0  0  0  0  0  0  0  0  0  0  0  0
   -9.0344    4.6522  -17.0109 C   0  0  0  0  0  0  0  0  0  0  0  0
   -7.9830    4.8233  -17.9065 C   0  0  0  0  0  0  0  0  0  0  0  0
   -6.7094    4.6926  -17.4007 C   0  0  0  0  0  0  0  0  0  0  0  0
   -6.4248    4.4039  -16.0484 C   0  0  0  0  0  0  0  0  0  0  0  0
   -4.9180    4.3891  -15.8369 C   0  0  0  0  0  0  0  0  0  0  0  0
   -4.4311    4.7119  -17.2190 C   0  0  0  0  0  0  0  0  0  0  0  0
   -3.2855    4.9589  -17.9371 C   0  0  0  0  0  0  0  0  0  0  0  0
   -3.7013    5.2049  -19.2780 C   0  0  0  0  0  0  0  0  0  0  0  0
   -5.0777    5.0730  -19.3276 C   0  0  0  0  0  0  0  0  0  0  0  0
   -5.4988    4.8374  -18.0625 N   0  0  0  0  0  0  0  0  0  0  0  0
   -8.3409    4.1716  -12.9920 O   0  0  0  0  0  0  0  0  0  0  0  0
   -8.3201    4.2139  -11.5810 C   0  0  0  0  0  0  0  0  0  0  0  0
   -7.9935    5.3774  -10.8716 C   0  0  0  0  0  0  0  0  0  0  0  0
   -8.0759    5.3869   -9.4753 C   0  0  0  0  0  0  0  0  0  0  0  0
   -8.4987    4.2358   -8.8281 C   0  0  0  0  0  0  0  0  0  0  0  0
   -8.8384    3.0923   -9.5405 C   0  0  0  0  0  0  0  0  0  0  0  0
   -8.7577    3.0614  -10.9232 C   0  0  0  0  0  0  0  0  0  0  0  0
   -9.2672    2.0223   -8.5936 C   0  0  0  0  0  0  0  0  0  0  0  0
   -9.2493    2.6305   -7.2358 N   0  0  0  0  0  0  0  0  0  0  0  0
   -8.6698    3.9847   -7.3683 C   0  0  0  0  0  0  0  0  0  0  0  0
   -8.6772    2.0659   -6.6079 H   0  0  0  0  0  0  0  0  0  0  0  0
  1  2  2  0  0  0
  2 15  1  0  0  0
 15 16  1  0  0  0
 16 17  2  0  0  0
 17 18  1  0  0  0
 18 19  2  0  0  0
 19 20  1  0  0  0
 20 21  2  0  0  0
 20 22  1  0  0  0
 22 23  1  0  0  0
 23 24  1  0  0  0
  2  3  1  0  0  0
  3  4  2  0  0  0
  4  5  1  0  0  0
  5  6  2  0  0  0
  6  7  1  0  0  0
  7  8  2  0  0  0
  8  9  1  0  0  0
  9 10  1  0  0  0
 10 11  2  0  0  0
 11 12  1  0  0  0
 12 13  2  0  0  0
 13 14  1  0  0  0
 21 16  1  0  0  0
  8  3  1  0  0  0
 14 10  1  0  0  0
 24 19  1  0  0  0
 14  7  1  0  0  0
 23 25  1  0  0  0
M  END
> <minimizedAffinity>
-8.67522

> <minimizedRMSD>
0.87290

$$$$
P23814


 28 31  0  0  0  0  0  0  0  0999 V2000
   -4.8794    5.7118  -18.1275 C   0  0  0  0  0  0  0  0  0  0  0  0
   -5.2675    5.5167  -16.6422 C   0  0  0  0  0  0  0  0  0  0  0  0
   -6.6245    4.9116  -16.7213 C   0  0  0  0  0  0  0  0  0  0  0  0
   -6.9813    4.7787  -18.0613 C   0  0  0  0  0  0  0  0  0  0  0  0
   -8.2117    4.2703  -18.4131 C   0  0  0  0  0  0  0  0  0  0  0  0
   -9.0890    3.9357  -17.3948 C   0  0  0  0  0  0  0  0  0  0  0  0
  -10.3372    3.5715  -17.7147 F   0  0  0  0  0  0  0  0  0  0  0  0
   -8.7300    4.0515  -16.0467 C   0  0  0  0  0  0  0  0  0  0  0  0
   -7.4695    4.5302  -15.6849 C   0  0  0  0  0  0  0  0  0  0  0  0
   -6.0692    5.3858  -18.9336 N   0  0  0  0  0  0  0  0  0  0  0  0
   -6.1974    5.5601  -19.8940 H   0  0  0  0  0  0  0  0  0  0  0  0
   -7.0404    4.7052  -14.2651 C   0  0  0  0  0  0  0  0  0  0  0  0
   -5.9214    4.4269  -13.8604 O   0  0  0  0  0  0  0  0  0  0  0  0
   -8.0795    5.2328  -13.5167 O   0  0  0  0  0  0  0  0  0  0  0  0
   -8.0413    5.1310  -12.1088 C   0  0  0  0  0  0  0  0  0  0  0  0
   -7.8185    6.2455  -11.2852 C   0  0  0  0  0  0  0  0  0  0  0  0
   -7.8875    6.1143   -9.8952 C   0  0  0  0  0  0  0  0  0  0  0  0
   -8.2004    4.8732   -9.3652 C   0  0  0  0  0  0  0  0  0  0  0  0
   -8.4429    3.7785  -10.1865 C   0  0  0  0  0  0  0  0  0  0  0  0
   -8.3643    3.8859  -11.5653 C   0  0  0  0  0  0  0  0  0  0  0  0
   -8.8303    2.6055   -9.3513 C   0  0  0  0  0  0  0  0  0  0  0  0
   -8.6355    3.0198   -7.9347 N   0  0  0  0  0  0  0  0  0  0  0  0
   -8.3828    4.4759   -7.9413 C   0  0  0  0  0  0  0  0  0  0  0  0
   -7.8379    2.5276   -7.5323 H   0  0  0  0  0  0  0  0  0  0  0  0
   -3.6576    4.8864  -18.5697 C   0  0  0  0  0  0  0  0  0  0  0  0
   -2.8345    6.0822  -20.5596 C   0  0  0  0  0  0  0  0  0  0  0  0
   -3.3563    4.8424  -20.0052 N   0  0  0  0  0  0  0  0  0  0  0  0
   -2.6643    4.1095  -20.1615 H   0  0  0  0  0  0  0  0  0  0  0  0
 26 27  1  0  0  0
 27 25  1  0  0  0
  1 25  1  0  0  0
  1  2  1  0  0  0
  2  3  1  0  0  0
  3  4  2  0  0  0
  4  5  1  0  0  0
  5  6  2  0  0  0
  6  7  1  0  0  0
  6  8  1  0  0  0
  8  9  2  0  0  0
  9 12  1  0  0  0
 12 13  2  0  0  0
 12 14  1  0  0  0
 14 15  1  0  0  0
 15 16  2  0  0  0
 16 17  1  0  0  0
 17 18  2  0  0  0
 18 19  1  0  0  0
 19 20  2  0  0  0
 19 21  1  0  0  0
 21 22  1  0  0  0
 22 23  1  0  0  0
  4 10  1  0  0  0
 10  1  1  0  0  0
  9  3  1  0  0  0
 20 15  1  0  0  0
 23 18  1  0  0  0
 27 28  1  0  0  0
 22 24  1  0  0  0
 10 11  1  0  0  0
M  END
> <minimizedAffinity>
-8.31843

> <minimizedRMSD>
1.18356

$$$$
P23815


 28 31  0  0  0  0  0  0  0  0999 V2000
   -4.8994    5.3479  -17.9887 N   0  0  0  0  0  0  0  0  0  0  0  0
   -3.9645    5.6906  -17.0124 C   0  0  0  0  0  0  0  0  0  0  0  0
   -2.8546    6.1656  -17.2078 O   0  0  0  0  0  0  0  0  0  0  0  0
   -4.5678    5.4052  -15.6458 C   0  0  0  0  0  0  0  0  0  0  0  0
   -5.9608    4.9744  -15.9856 C   0  0  0  0  0  0  0  0  0  0  0  0
   -7.0177    4.6541  -15.1374 C   0  0  0  0  0  0  0  0  0  0  0  0
   -8.2495    4.3533  -15.7316 C   0  0  0  0  0  0  0  0  0  0  0  0
   -8.3802    4.3714  -17.1283 C   0  0  0  0  0  0  0  0  0  0  0  0
  -10.0738    4.1723  -17.9076 Br  0  0  0  0  0  0  0  0  0  0  0  0
   -7.3073    4.6516  -17.9676 C   0  0  0  0  0  0  0  0  0  0  0  0
   -6.1051    4.9632  -17.3768 C   0  0  0  0  0  0  0  0  0  0  0  0
   -6.8301    4.7003  -13.6600 C   0  0  0  0  0  0  0  0  0  0  0  0
   -5.7360    4.6017  -13.1262 O   0  0  0  0  0  0  0  0  0  0  0  0
   -8.0512    4.8892  -13.0379 O   0  0  0  0  0  0  0  0  0  0  0  0
   -8.1014    4.7811  -11.6353 C   0  0  0  0  0  0  0  0  0  0  0  0
   -7.8906    5.8914  -10.8029 C   0  0  0  0  0  0  0  0  0  0  0  0
   -8.0172    5.7600   -9.4179 C   0  0  0  0  0  0  0  0  0  0  0  0
   -8.3713    4.5231   -8.9045 C   0  0  0  0  0  0  0  0  0  0  0  0
   -8.6101    3.4358   -9.7380 C   0  0  0  0  0  0  0  0  0  0  0  0
   -8.4810    3.5442  -11.1122 C   0  0  0  0  0  0  0  0  0  0  0  0
   -9.0415    2.2672   -8.9186 C   0  0  0  0  0  0  0  0  0  0  0  0
   -8.8520    2.6649   -7.4969 N   0  0  0  0  0  0  0  0  0  0  0  0
   -8.5963    4.1208   -7.4881 C   0  0  0  0  0  0  0  0  0  0  0  0
   -8.0570    2.1669   -7.0964 H   0  0  0  0  0  0  0  0  0  0  0  0
   -4.8250    5.7981  -19.3626 C   0  0  0  0  0  0  0  0  0  0  0  0
   -2.9432    6.2335  -20.7802 C   0  0  0  0  0  0  0  0  0  0  0  0
   -3.6608    5.2039  -20.0351 N   0  0  0  0  0  0  0  0  0  0  0  0
   -3.0389    4.7949  -19.3377 H   0  0  0  0  0  0  0  0  0  0  0  0
 26 27  1  0  0  0
 27 25  1  0  0  0
 25  1  1  0  0  0
  1  2  1  0  0  0
  2  3  2  0  0  0
  2  4  1  0  0  0
  4  5  1  0  0  0
  5  6  2  0  0  0
  6 12  1  0  0  0
 12 13  2  0  0  0
 12 14  1  0  0  0
 14 15  1  0  0  0
 15 16  2  0  0  0
 16 17  1  0  0  0
 17 18  2  0  0  0
 18 19  1  0  0  0
 19 20  2  0  0  0
 19 21  1  0  0  0
 21 22  1  0  0  0
 22 23  1  0  0  0
  6  7  1  0  0  0
  7  8  2  0  0  0
  8  9  1  0  0  0
  8 10  1  0  0  0
 10 11  2  0  0  0
 11  1  1  0  0  0
 11  5  1  0  0  0
 20 15  1  0  0  0
 23 18  1  0  0  0
 27 28  1  0  0  0
 22 24  1  0  0  0
M  END
> <minimizedAffinity>
-8.04512

> <minimizedRMSD>
0.41942

$$$$
P23821


 28 31  0  0  0  0  0  0  0  0999 V2000
   -5.6993    6.5765  -17.4908 N   0  0  0  0  0  0  0  0  0  0  0  0
   -4.6545    6.8467  -16.6125 C   0  0  0  0  0  0  0  0  0  0  0  0
   -3.6249    7.4556  -16.8564 O   0  0  0  0  0  0  0  0  0  0  0  0
   -5.0303    6.2122  -15.2682 C   0  0  0  0  0  0  0  0  0  0  0  0
   -6.2942    5.4756  -15.5976 C   0  0  0  0  0  0  0  0  0  0  0  0
   -7.0821    4.6303  -14.8402 C   0  0  0  0  0  0  0  0  0  0  0  0
   -8.1799    4.0114  -15.4646 C   0  0  0  0  0  0  0  0  0  0  0  0
   -8.4617    4.2474  -16.8010 C   0  0  0  0  0  0  0  0  0  0  0  0
   -9.4605    3.6107  -17.4076 F   0  0  0  0  0  0  0  0  0  0  0  0
   -7.7323    5.1552  -17.5226 C   0  0  0  0  0  0  0  0  0  0  0  0
   -6.6393    5.7301  -16.9152 C   0  0  0  0  0  0  0  0  0  0  0  0
   -6.7999    4.4155  -13.4058 C   0  0  0  0  0  0  0  0  0  0  0  0
   -5.7251    4.0599  -12.9561 O   0  0  0  0  0  0  0  0  0  0  0  0
   -7.9532    4.7440  -12.7295 O   0  0  0  0  0  0  0  0  0  0  0  0
   -8.0691    4.6612  -11.3372 C   0  0  0  0  0  0  0  0  0  0  0  0
   -7.8996    5.7636  -10.4908 C   0  0  0  0  0  0  0  0  0  0  0  0
   -8.1147    5.6170   -9.1212 C   0  0  0  0  0  0  0  0  0  0  0  0
   -8.5026    4.3737   -8.6501 C   0  0  0  0  0  0  0  0  0  0  0  0
   -8.7029    3.3001   -9.5110 C   0  0  0  0  0  0  0  0  0  0  0  0
   -8.4967    3.4238  -10.8658 C   0  0  0  0  0  0  0  0  0  0  0  0
   -9.1733    2.1181   -8.7414 C   0  0  0  0  0  0  0  0  0  0  0  0
   -8.9814    2.4698   -7.3094 N   0  0  0  0  0  0  0  0  0  0  0  0
   -8.7938    3.9373   -7.2567 C   0  0  0  0  0  0  0  0  0  0  0  0
   -8.1581    1.9960   -6.9378 H   0  0  0  0  0  0  0  0  0  0  0  0
   -5.7003    6.8917  -18.8864 C   0  0  0  0  0  0  0  0  0  0  0  0
   -4.0973    5.0784  -19.4521 C   0  0  0  0  0  0  0  0  0  0  0  0
   -4.4158    6.4870  -19.3702 N   0  0  0  0  0  0  0  0  0  0  0  0
   -4.3197    6.8682  -20.3114 H   0  0  0  0  0  0  0  0  0  0  0  0
 26 27  1  0  0  0
 27 25  1  0  0  0
 25  1  1  0  0  0
  1  2  1  0  0  0
  2  3  2  0  0  0
  2  4  1  0  0  0
  4  5  1  0  0  0
  5  6  2  0  0  0
  6 12  1  0  0  0
 12 13  2  0  0  0
 12 14  1  0  0  0
 14 15  1  0  0  0
 15 16  2  0  0  0
 16 17  1  0  0  0
 17 18  2  0  0  0
 18 19  1  0  0  0
 19 20  2  0  0  0
 19 21  1  0  0  0
 21 22  1  0  0  0
 22 23  1  0  0  0
  6  7  1  0  0  0
  7  8  2  0  0  0
  8  9  1  0  0  0
  8 10  1  0  0  0
 10 11  2  0  0  0
 11  1  1  0  0  0
 11  5  1  0  0  0
 20 15  1  0  0  0
 23 18  1  0  0  0
 27 28  1  0  0  0
 22 24  1  0  0  0
M  END
> <minimizedAffinity>
-6.87916

> <minimizedRMSD>
1.19979

$$$$
P23823


 30 34  0  0  0  0  0  0  0  0999 V2000
   -7.3970    4.6246  -15.8840 C   0  0  0  0  0  0  0  0  0  0  0  0
   -8.7286    4.2915  -16.1717 C   0  0  0  0  0  0  0  0  0  0  0  0
   -9.1475    4.1337  -17.5004 C   0  0  0  0  0  0  0  0  0  0  0  0
  -10.8071    3.9101  -17.8499 Cl  0  0  0  0  0  0  0  0  0  0  0  0
   -8.2593    4.2463  -18.5596 C   0  0  0  0  0  0  0  0  0  0  0  0
   -6.9674    4.6241  -18.2773 C   0  0  0  0  0  0  0  0  0  0  0  0
   -6.5371    4.8208  -16.9629 C   0  0  0  0  0  0  0  0  0  0  0  0
   -5.0917    5.2056  -16.9993 C   0  0  0  0  0  0  0  0  0  0  0  0
   -4.8842    5.5098  -18.5226 C   0  0  0  0  0  0  0  0  0  0  0  0
   -3.5042    5.0109  -18.9841 C   0  0  0  0  0  0  0  0  0  0  0  0
   -2.9619    5.8582  -20.1286 C   0  0  0  0  0  0  0  0  0  0  0  0
   -2.7599    7.2564  -19.7401 N   0  0  0  0  0  0  0  0  0  0  0  0
   -3.7328    7.7527  -18.7691 C   0  0  0  0  0  0  0  0  0  0  0  0
   -5.0668    7.0188  -18.8291 C   0  0  0  0  0  0  0  0  0  0  0  0
   -5.9383    4.7494  -19.2323 N   0  0  0  0  0  0  0  0  0  0  0  0
   -2.8213    7.8339  -20.5787 H   0  0  0  0  0  0  0  0  0  0  0  0
   -5.9237    4.4103  -20.1565 H   0  0  0  0  0  0  0  0  0  0  0  0
   -5.8132    4.5039  -14.0986 O   0  0  0  0  0  0  0  0  0  0  0  0
   -6.9278    4.8219  -14.4837 C   0  0  0  0  0  0  0  0  0  0  0  0
   -7.9333    5.4216  -13.7351 O   0  0  0  0  0  0  0  0  0  0  0  0
   -7.9643    5.3082  -12.3256 C   0  0  0  0  0  0  0  0  0  0  0  0
   -7.7798    6.4124  -11.4809 C   0  0  0  0  0  0  0  0  0  0  0  0
   -7.8769    6.2579  -10.0943 C   0  0  0  0  0  0  0  0  0  0  0  0
   -8.1743    5.0030   -9.5879 C   0  0  0  0  0  0  0  0  0  0  0  0
   -8.3905    3.9193  -10.4303 C   0  0  0  0  0  0  0  0  0  0  0  0
   -8.2918    4.0519  -11.8070 C   0  0  0  0  0  0  0  0  0  0  0  0
   -8.7498    2.7218   -9.6166 C   0  0  0  0  0  0  0  0  0  0  0  0
   -8.5757    3.1160   -8.1908 N   0  0  0  0  0  0  0  0  0  0  0  0
   -8.3416    4.5747   -8.1710 C   0  0  0  0  0  0  0  0  0  0  0  0
   -7.7762    2.6275   -7.7875 H   0  0  0  0  0  0  0  0  0  0  0  0
 18 19  2  0  0  0
 19 20  1  0  0  0
 20 21  1  0  0  0
 21 22  2  0  0  0
 22 23  1  0  0  0
 23 24  2  0  0  0
 24 25  1  0  0  0
 25 26  2  0  0  0
 25 27  1  0  0  0
 27 28  1  0  0  0
 28 29  1  0  0  0
 19  1  1  0  0  0
  1  2  2  0  0  0
  2  3  1  0  0  0
  3  4  1  0  0  0
  3  5  2  0  0  0
  5  6  1  0  0  0
  6  7  2  0  0  0
  7  8  1  0  0  0
  8  9  1  0  0  0
  9 10  1  0  0  0
 10 11  1  0  0  0
 11 12  1  0  0  0
 12 13  1  0  0  0
 13 14  1  0  0  0
  9 15  1  0  0  0
 26 21  1  0  0  0
  7  1  1  0  0  0
 14  9  1  0  0  0
 29 24  1  0  0  0
 15  6  1  0  0  0
 28 30  1  0  0  0
 12 16  1  0  0  0
 15 17  1  0  0  0
M  END
> <minimizedAffinity>
-9.11235

> <minimizedRMSD>
0.85630

$$$$
P23824


 28 31  0  0  0  0  0  0  0  0999 V2000
   -5.2395    5.4500  -18.0194 N   0  0  0  0  0  0  0  0  0  0  0  0
   -4.1959    5.5758  -17.1124 C   0  0  0  0  0  0  0  0  0  0  0  0
   -3.0263    5.8208  -17.3700 O   0  0  0  0  0  0  0  0  0  0  0  0
   -4.7788    5.3347  -15.7207 C   0  0  0  0  0  0  0  0  0  0  0  0
   -6.2008    4.9482  -16.0169 C   0  0  0  0  0  0  0  0  0  0  0  0
   -7.2240    4.5626  -15.1583 C   0  0  0  0  0  0  0  0  0  0  0  0
   -8.4701    4.2579  -15.7316 C   0  0  0  0  0  0  0  0  0  0  0  0
   -8.6537    4.3395  -17.1214 C   0  0  0  0  0  0  0  0  0  0  0  0
  -10.1995    4.1048  -17.8173 Cl  0  0  0  0  0  0  0  0  0  0  0  0
   -7.6194    4.7086  -17.9682 C   0  0  0  0  0  0  0  0  0  0  0  0
   -6.4106    5.0248  -17.3936 C   0  0  0  0  0  0  0  0  0  0  0  0
   -6.9808    4.5353  -13.6897 C   0  0  0  0  0  0  0  0  0  0  0  0
   -5.9042    4.2260  -13.2023 O   0  0  0  0  0  0  0  0  0  0  0  0
   -8.1222    4.9295  -13.0177 O   0  0  0  0  0  0  0  0  0  0  0  0
   -8.1344    4.8068  -11.6156 C   0  0  0  0  0  0  0  0  0  0  0  0
   -7.8887    5.9055  -10.7770 C   0  0  0  0  0  0  0  0  0  0  0  0
   -7.9868    5.7620   -9.3912 C   0  0  0  0  0  0  0  0  0  0  0  0
   -8.3491    4.5254   -8.8827 C   0  0  0  0  0  0  0  0  0  0  0  0
   -8.6196    3.4497   -9.7215 C   0  0  0  0  0  0  0  0  0  0  0  0
   -8.5172    3.5694  -11.0967 C   0  0  0  0  0  0  0  0  0  0  0  0
   -9.0547    2.2802   -8.9057 C   0  0  0  0  0  0  0  0  0  0  0  0
   -8.8357    2.6624   -7.4837 N   0  0  0  0  0  0  0  0  0  0  0  0
   -8.5572    4.1138   -7.4665 C   0  0  0  0  0  0  0  0  0  0  0  0
   -8.0421    2.1485   -7.1007 H   0  0  0  0  0  0  0  0  0  0  0  0
   -5.1040    5.7405  -19.4104 C   0  0  0  0  0  0  0  0  0  0  0  0
   -5.1936    7.6181  -20.8888 C   0  0  0  0  0  0  0  0  0  0  0  0
   -5.7175    7.0449  -19.6550 N   0  0  0  0  0  0  0  0  0  0  0  0
   -6.7280    6.9331  -19.7367 H   0  0  0  0  0  0  0  0  0  0  0  0
 26 27  1  0  0  0
 27 25  1  0  0  0
 25  1  1  0  0  0
  1  2  1  0  0  0
  2  3  2  0  0  0
  2  4  1  0  0  0
  4  5  1  0  0  0
  5  6  2  0  0  0
  6 12  1  0  0  0
 12 13  2  0  0  0
 12 14  1  0  0  0
 14 15  1  0  0  0
 15 16  2  0  0  0
 16 17  1  0  0  0
 17 18  2  0  0  0
 18 19  1  0  0  0
 19 20  2  0  0  0
 19 21  1  0  0  0
 21 22  1  0  0  0
 22 23  1  0  0  0
  6  7  1  0  0  0
  7  8  2  0  0  0
  8  9  1  0  0  0
  8 10  1  0  0  0
 10 11  2  0  0  0
 11  1  1  0  0  0
 11  5  1  0  0  0
 20 15  1  0  0  0
 23 18  1  0  0  0
 27 28  1  0  0  0
 22 24  1  0  0  0
M  END
> <minimizedAffinity>
-8.07736

> <minimizedRMSD>
0.40639

$$$$
P23828


 35 38  0  0  0  0  0  0  0  0999 V2000
   -6.9820    4.9018  -13.6419 C   0  0  0  0  0  0  0  0  0  0  0  0
   -5.9882    3.9511  -13.2282 O   0  0  0  0  0  0  0  0  0  0  0  0
   -5.8484    4.0252  -12.2712 H   0  0  0  0  0  0  0  0  0  0  0  0
   -7.1770    4.7540  -15.1695 C   0  0  0  0  0  0  0  0  0  0  0  0
   -8.4241    4.4049  -15.7304 C   0  0  0  0  0  0  0  0  0  0  0  0
   -8.6055    4.3152  -17.1220 C   0  0  0  0  0  0  0  0  0  0  0  0
  -10.1623    4.0516  -17.7816 Cl  0  0  0  0  0  0  0  0  0  0  0  0
   -7.5562    4.5282  -17.9994 C   0  0  0  0  0  0  0  0  0  0  0  0
   -6.3311    4.8754  -17.4722 C   0  0  0  0  0  0  0  0  0  0  0  0
   -6.1442    4.9950  -16.0888 C   0  0  0  0  0  0  0  0  0  0  0  0
   -4.7404    5.4562  -15.8519 C   0  0  0  0  0  0  0  0  0  0  0  0
   -4.1627    5.5126  -17.2762 C   0  0  0  0  0  0  0  0  0  0  0  0
   -3.6100    6.7796  -17.5730 O   0  0  0  0  0  0  0  0  0  0  0  0
   -3.1335    4.6350  -17.3887 F   0  0  0  0  0  0  0  0  0  0  0  0
   -5.1852    5.1560  -18.2531 N   0  0  0  0  0  0  0  0  0  0  0  0
   -5.5811    6.3645  -18.9389 F   0  0  0  0  0  0  0  0  0  0  0  0
   -2.9331    6.9995  -16.9139 H   0  0  0  0  0  0  0  0  0  0  0  0
   -5.1187    6.2160  -12.5574 N   0  0  0  0  0  0  0  0  0  0  0  0
   -6.4507    6.3939  -13.3477 C   0  0  0  0  0  0  0  0  0  0  0  0
   -7.0180    7.3662  -13.6676 O   0  0  0  0  0  0  0  0  0  0  0  0
   -4.8863    5.2831  -12.3456 H   0  0  0  0  0  0  0  0  0  0  0  0
   -2.7611    6.6235  -12.0889 C   0  0  0  0  0  0  0  0  0  0  0  0
   -4.1719    7.1961  -12.0865 C   0  0  0  0  0  0  0  0  0  0  0  0
   -4.5694    7.6867  -10.6993 C   0  0  0  0  0  0  0  0  0  0  0  0
   -8.2311    4.6204  -12.9904 O   0  0  0  0  0  0  0  0  0  0  0  0
   -8.1931    4.5300  -11.6238 C   0  0  0  0  0  0  0  0  0  0  0  0
   -7.9798    5.6595  -10.8181 C   0  0  0  0  0  0  0  0  0  0  0  0
   -8.0472    5.5682   -9.4255 C   0  0  0  0  0  0  0  0  0  0  0  0
   -8.3837    4.3504   -8.8644 C   0  0  0  0  0  0  0  0  0  0  0  0
   -8.6445    3.2424   -9.6594 C   0  0  0  0  0  0  0  0  0  0  0  0
   -8.5471    3.3103  -11.0419 C   0  0  0  0  0  0  0  0  0  0  0  0
   -9.0626    2.1003   -8.7967 C   0  0  0  0  0  0  0  0  0  0  0  0
   -9.0068    2.5874   -7.3912 N   0  0  0  0  0  0  0  0  0  0  0  0
   -8.5865    4.0018   -7.4316 C   0  0  0  0  0  0  0  0  0  0  0  0
   -8.3325    2.0383   -6.8582 H   0  0  0  0  0  0  0  0  0  0  0  0
 22 23  1  0  0  0
 23 24  1  0  0  0
 23 18  1  0  0  0
 18 19  1  0  0  0
 19 20  2  0  0  0
 19  1  1  0  0  0
  1  2  1  0  0  0
  1 25  1  0  0  0
 25 26  1  0  0  0
 26 27  2  0  0  0
 27 28  1  0  0  0
 28 29  2  0  0  0
 29 30  1  0  0  0
 30 31  2  0  0  0
 30 32  1  0  0  0
 32 33  1  0  0  0
 33 34  1  0  0  0
  1  4  1  0  0  0
  4  5  2  0  0  0
  5  6  1  0  0  0
  6  7  1  0  0  0
  6  8  2  0  0  0
  8  9  1  0  0  0
  9 10  2  0  0  0
 10 11  1  0  0  0
 11 12  1  0  0  0
 12 13  1  0  0  0
 12 14  1  0  0  0
 12 15  1  0  0  0
 15 16  1  0  0  0
 31 26  1  0  0  0
 10  4  1  0  0  0
 34 29  1  0  0  0
 15  9  1  0  0  0
 18 21  1  0  0  0
  2  3  1  0  0  0
 33 35  1  0  0  0
 13 17  1  0  0  0
M  END
> <minimizedAffinity>
-8.51789

> <minimizedRMSD>
0.28072

$$$$
P23829


 30 34  0  0  0  0  0  0  0  0999 V2000
   -7.4122    4.5769  -15.7858 C   0  0  0  0  0  0  0  0  0  0  0  0
   -8.7159    4.2245  -16.1520 C   0  0  0  0  0  0  0  0  0  0  0  0
   -9.0785    4.1502  -17.5091 C   0  0  0  0  0  0  0  0  0  0  0  0
  -10.7192    4.0114  -17.9538 Cl  0  0  0  0  0  0  0  0  0  0  0  0
   -8.1595    4.3448  -18.5291 C   0  0  0  0  0  0  0  0  0  0  0  0
   -6.8863    4.6967  -18.1701 C   0  0  0  0  0  0  0  0  0  0  0  0
   -6.5212    4.8404  -16.8180 C   0  0  0  0  0  0  0  0  0  0  0  0
   -5.0888    5.2964  -16.7642 C   0  0  0  0  0  0  0  0  0  0  0  0
   -4.7157    5.3098  -18.2620 C   0  0  0  0  0  0  0  0  0  0  0  0
   -3.4971    5.5453  -18.6092 N   0  0  0  0  0  0  0  0  0  0  0  0
   -5.8373    5.0434  -19.0136 N   0  0  0  0  0  0  0  0  0  0  0  0
   -5.8887    5.0910  -19.9956 H   0  0  0  0  0  0  0  0  0  0  0  0
   -3.2287    5.5620  -20.0464 C   0  0  0  0  0  0  0  0  0  0  0  0
   -3.4871    6.9414  -20.6970 C   0  0  0  0  0  0  0  0  0  0  0  0
   -2.0881    7.3255  -20.3866 N   0  0  0  0  0  0  0  0  0  0  0  0
   -1.7449    5.8793  -20.3396 C   0  0  0  0  0  0  0  0  0  0  0  0
   -1.9718    7.8159  -19.4998 H   0  0  0  0  0  0  0  0  0  0  0  0
   -5.8701    4.4776  -13.9703 O   0  0  0  0  0  0  0  0  0  0  0  0
   -6.9928    4.7487  -14.3672 C   0  0  0  0  0  0  0  0  0  0  0  0
   -8.0463    5.2538  -13.6211 O   0  0  0  0  0  0  0  0  0  0  0  0
   -8.0289    5.1570  -12.2106 C   0  0  0  0  0  0  0  0  0  0  0  0
   -7.8088    6.2705  -11.3860 C   0  0  0  0  0  0  0  0  0  0  0  0
   -7.8766    6.1373   -9.9952 C   0  0  0  0  0  0  0  0  0  0  0  0
   -8.1827    4.8946   -9.4642 C   0  0  0  0  0  0  0  0  0  0  0  0
   -8.4278    3.8013  -10.2859 C   0  0  0  0  0  0  0  0  0  0  0  0
   -8.3549    3.9120  -11.6658 C   0  0  0  0  0  0  0  0  0  0  0  0
   -8.7970    2.6231   -9.4488 C   0  0  0  0  0  0  0  0  0  0  0  0
   -8.5987    3.0372   -8.0326 N   0  0  0  0  0  0  0  0  0  0  0  0
   -8.3424    4.4925   -8.0388 C   0  0  0  0  0  0  0  0  0  0  0  0
   -7.8016    2.5430   -7.6317 H   0  0  0  0  0  0  0  0  0  0  0  0
 18 19  2  0  0  0
 19 20  1  0  0  0
 20 21  1  0  0  0
 21 22  2  0  0  0
 22 23  1  0  0  0
 23 24  2  0  0  0
 24 25  1  0  0  0
 25 26  2  0  0  0
 25 27  1  0  0  0
 27 28  1  0  0  0
 28 29  1  0  0  0
 19  1  1  0  0  0
  1  2  2  0  0  0
  2  3  1  0  0  0
  3  4  1  0  0  0
  3  5  2  0  0  0
  5  6  1  0  0  0
  6  7  2  0  0  0
  7  8  1  0  0  0
  8  9  1  0  0  0
  9 10  2  0  0  0
 10 13  1  0  0  0
 13 14  1  0  0  0
 14 15  1  0  0  0
 15 16  1  0  0  0
  9 11  1  0  0  0
 26 21  1  0  0  0
  7  1  1  0  0  0
 16 13  1  0  0  0
 29 24  1  0  0  0
 11  6  1  0  0  0
 28 30  1  0  0  0
 15 17  1  0  0  0
 11 12  1  0  0  0
M  END
> <minimizedAffinity>
-8.57357

> <minimizedRMSD>
0.58879

$$$$
P23831


 29 32  0  0  0  0  0  0  0  0999 V2000
   -4.8613    5.3413  -18.2141 N   0  0  0  0  0  0  0  0  0  0  0  0
   -3.8508    5.6049  -17.2823 C   0  0  0  0  0  0  0  0  0  0  0  0
   -2.7286    6.0330  -17.5025 O   0  0  0  0  0  0  0  0  0  0  0  0
   -4.4209    5.3503  -15.8947 C   0  0  0  0  0  0  0  0  0  0  0  0
   -5.8481    4.9934  -16.1792 C   0  0  0  0  0  0  0  0  0  0  0  0
   -6.8927    4.7467  -15.2953 C   0  0  0  0  0  0  0  0  0  0  0  0
   -8.1542    4.4718  -15.8464 C   0  0  0  0  0  0  0  0  0  0  0  0
   -8.3287    4.4389  -17.2389 C   0  0  0  0  0  0  0  0  0  0  0  0
   -9.8874    4.2088  -17.9075 Cl  0  0  0  0  0  0  0  0  0  0  0  0
   -7.2735    4.6804  -18.1101 C   0  0  0  0  0  0  0  0  0  0  0  0
   -6.0469    4.9783  -17.5606 C   0  0  0  0  0  0  0  0  0  0  0  0
   -6.6563    4.8523  -13.8280 C   0  0  0  0  0  0  0  0  0  0  0  0
   -5.5829    4.6021  -13.3026 O   0  0  0  0  0  0  0  0  0  0  0  0
   -7.8043    5.2980  -13.2060 O   0  0  0  0  0  0  0  0  0  0  0  0
   -7.8899    5.1374  -11.8115 C   0  0  0  0  0  0  0  0  0  0  0  0
   -7.7456    6.2279  -10.9372 C   0  0  0  0  0  0  0  0  0  0  0  0
   -7.9759    6.0642   -9.5685 C   0  0  0  0  0  0  0  0  0  0  0  0
   -8.3693    4.8154   -9.1139 C   0  0  0  0  0  0  0  0  0  0  0  0
   -8.5084    3.7392   -9.9950 C   0  0  0  0  0  0  0  0  0  0  0  0
   -8.2671    3.8783  -11.3496 C   0  0  0  0  0  0  0  0  0  0  0  0
   -8.9649    2.5329   -9.2401 C   0  0  0  0  0  0  0  0  0  0  0  0
   -9.4412    3.0792   -7.9535 N   0  0  0  0  0  0  0  0  0  0  0  0
   -9.4025    2.1173   -6.8793 C   0  0  0  0  0  0  0  0  0  0  0  0
   -8.7890    4.3857   -7.7329 C   0  0  0  0  0  0  0  0  0  0  0  0
   -7.6430    4.4607   -6.7342 C   0  0  0  0  0  0  0  0  0  0  0  0
   -4.8360    5.9881  -19.4921 C   0  0  0  0  0  0  0  0  0  0  0  0
   -3.1530    6.5499  -21.0630 C   0  0  0  0  0  0  0  0  0  0  0  0
   -3.7478    5.4597  -20.2960 N   0  0  0  0  0  0  0  0  0  0  0  0
   -3.0424    5.0451  -19.6870 H   0  0  0  0  0  0  0  0  0  0  0  0
 27 28  1  0  0  0
 28 26  1  0  0  0
 26  1  1  0  0  0
  1  2  1  0  0  0
  2  3  2  0  0  0
  2  4  1  0  0  0
  4  5  1  0  0  0
  5  6  2  0  0  0
  6 12  1  0  0  0
 12 13  2  0  0  0
 12 14  1  0  0  0
 14 15  1  0  0  0
 15 16  2  0  0  0
 16 17  1  0  0  0
 17 18  2  0  0  0
 18 19  1  0  0  0
 19 20  2  0  0  0
 19 21  1  0  0  0
 21 22  1  0  0  0
 22 23  1  0  0  0
 22 24  1  0  0  0
 24 25  1  0  0  0
  6  7  1  0  0  0
  7  8  2  0  0  0
  8  9  1  0  0  0
  8 10  1  0  0  0
 10 11  2  0  0  0
 11  1  1  0  0  0
 11  5  1  0  0  0
 20 15  1  0  0  0
 24 18  1  0  0  0
 28 29  1  0  0  0
M  END
> <minimizedAffinity>
-8.09720

> <minimizedRMSD>
0.57757

$$$$
P23832


 33 37  0  0  0  0  0  0  0  0999 V2000
   -6.9928    4.5209  -13.5872 C   0  0  0  0  0  0  0  0  0  0  0  0
   -5.9408    4.1888  -13.0627 O   0  0  0  0  0  0  0  0  0  0  0  0
   -5.0456    5.4061  -17.8538 N   0  0  0  0  0  0  0  0  0  0  0  0
   -4.0316    5.4538  -16.9042 C   0  0  0  0  0  0  0  0  0  0  0  0
   -2.8371    5.5981  -17.1143 O   0  0  0  0  0  0  0  0  0  0  0  0
   -4.6878    5.2825  -15.5337 C   0  0  0  0  0  0  0  0  0  0  0  0
   -6.1108    4.9522  -15.8851 C   0  0  0  0  0  0  0  0  0  0  0  0
   -7.1776    4.5938  -15.0652 C   0  0  0  0  0  0  0  0  0  0  0  0
   -8.4033    4.3060  -15.6886 C   0  0  0  0  0  0  0  0  0  0  0  0
   -8.5193    4.3637  -17.0833 C   0  0  0  0  0  0  0  0  0  0  0  0
  -10.0143    4.0619  -17.8420 Cl  0  0  0  0  0  0  0  0  0  0  0  0
   -7.4481    4.7199  -17.8886 C   0  0  0  0  0  0  0  0  0  0  0  0
   -6.2580    5.0248  -17.2716 C   0  0  0  0  0  0  0  0  0  0  0  0
   -4.8225    5.5972  -19.2551 C   0  0  0  0  0  0  0  0  0  0  0  0
   -5.5376    7.8673  -19.7194 C   0  0  0  0  0  0  0  0  0  0  0  0
   -4.4085    6.9692  -19.5611 N   0  0  0  0  0  0  0  0  0  0  0  0
   -3.8222    7.3116  -18.8000 H   0  0  0  0  0  0  0  0  0  0  0  0
   -8.1737    4.8780  -12.9652 O   0  0  0  0  0  0  0  0  0  0  0  0
   -8.1823    4.7356  -11.5769 C   0  0  0  0  0  0  0  0  0  0  0  0
   -8.5376    3.4966  -11.0407 C   0  0  0  0  0  0  0  0  0  0  0  0
   -8.6371    3.3822   -9.6564 C   0  0  0  0  0  0  0  0  0  0  0  0
   -8.3748    4.4578   -8.8113 C   0  0  0  0  0  0  0  0  0  0  0  0
   -8.0461    5.6801   -9.3500 C   0  0  0  0  0  0  0  0  0  0  0  0
   -7.9722    5.8160  -10.7273 C   0  0  0  0  0  0  0  0  0  0  0  0
   -7.7344    7.1040  -11.1393 O   0  0  0  0  0  0  0  0  0  0  0  0
   -7.3794    7.8211   -9.9235 C   0  0  0  0  0  0  0  0  0  0  0  0
   -8.0962    9.1718   -9.9633 C   0  0  0  0  0  0  0  0  0  0  0  0
   -5.8603    8.0350   -9.9359 C   0  0  0  0  0  0  0  0  0  0  0  0
   -7.8300    6.9885   -8.7010 C   0  0  0  0  0  0  0  0  0  0  0  0
   -8.5766    4.0453   -7.3984 C   0  0  0  0  0  0  0  0  0  0  0  0
   -8.9201    2.6084   -7.4182 N   0  0  0  0  0  0  0  0  0  0  0  0
   -9.0771    2.2101   -8.8446 C   0  0  0  0  0  0  0  0  0  0  0  0
   -9.7926    2.4511   -6.9138 H   0  0  0  0  0  0  0  0  0  0  0  0
 15 16  1  0  0  0
 16 14  1  0  0  0
 14  3  1  0  0  0
  3  4  1  0  0  0
  4  5  2  0  0  0
  4  6  1  0  0  0
  6  7  1  0  0  0
  7  8  2  0  0  0
  8  1  1  0  0  0
  1  2  2  0  0  0
  1 18  1  0  0  0
 18 19  1  0  0  0
 19 20  2  0  0  0
 20 21  1  0  0  0
 21 22  2  0  0  0
 22 23  1  0  0  0
 23 24  2  0  0  0
 24 25  1  0  0  0
 25 26  1  0  0  0
 26 27  1  0  0  0
 26 28  1  0  0  0
 26 29  1  0  0  0
 22 30  1  0  0  0
 30 31  1  0  0  0
 31 32  1  0  0  0
  8  9  1  0  0  0
  9 10  2  0  0  0
 10 11  1  0  0  0
 10 12  1  0  0  0
 12 13  2  0  0  0
 13  3  1  0  0  0
 13  7  1  0  0  0
 24 19  1  0  0  0
 32 21  1  0  0  0
 29 23  1  0  0  0
 16 17  1  0  0  0
 31 33  1  0  0  0
M  END
> <minimizedAffinity>
-8.38392

> <minimizedRMSD>
0.49004

$$$$
P23834


 29 32  0  0  0  0  0  0  0  0999 V2000
   -5.1477    5.3936  -17.9224 N   0  0  0  0  0  0  0  0  0  0  0  0
   -4.1039    5.4961  -17.0128 C   0  0  0  0  0  0  0  0  0  0  0  0
   -2.9224    5.6727  -17.2688 O   0  0  0  0  0  0  0  0  0  0  0  0
   -4.7058    5.3430  -15.6177 C   0  0  0  0  0  0  0  0  0  0  0  0
   -6.1324    4.9747  -15.9115 C   0  0  0  0  0  0  0  0  0  0  0  0
   -7.1695    4.6396  -15.0491 C   0  0  0  0  0  0  0  0  0  0  0  0
   -8.4088    4.3099  -15.6241 C   0  0  0  0  0  0  0  0  0  0  0  0
   -8.5743    4.3233  -17.0173 C   0  0  0  0  0  0  0  0  0  0  0  0
  -10.1024    4.0222  -17.7274 Cl  0  0  0  0  0  0  0  0  0  0  0  0
   -7.5331    4.6687  -17.8643 C   0  0  0  0  0  0  0  0  0  0  0  0
   -6.3287    5.0049  -17.2917 C   0  0  0  0  0  0  0  0  0  0  0  0
   -6.9473    4.6843  -13.5774 C   0  0  0  0  0  0  0  0  0  0  0  0
   -5.8447    4.5746  -13.0643 O   0  0  0  0  0  0  0  0  0  0  0  0
   -8.1493    4.8994  -12.9299 O   0  0  0  0  0  0  0  0  0  0  0  0
   -8.1620    4.7626  -11.5302 C   0  0  0  0  0  0  0  0  0  0  0  0
   -7.9300    5.8567  -10.6847 C   0  0  0  0  0  0  0  0  0  0  0  0
   -8.0403    5.6865   -9.3087 C   0  0  0  0  0  0  0  0  0  0  0  0
   -7.8258    6.7218   -8.4864 F   0  0  0  0  0  0  0  0  0  0  0  0
   -8.3926    4.4528   -8.8020 C   0  0  0  0  0  0  0  0  0  0  0  0
   -8.6458    3.3814   -9.6488 C   0  0  0  0  0  0  0  0  0  0  0  0
   -8.5358    3.5159  -11.0227 C   0  0  0  0  0  0  0  0  0  0  0  0
   -9.0698    2.2028   -8.8415 C   0  0  0  0  0  0  0  0  0  0  0  0
   -8.8910    2.5907   -7.4154 N   0  0  0  0  0  0  0  0  0  0  0  0
   -8.6054    4.0433   -7.3918 C   0  0  0  0  0  0  0  0  0  0  0  0
   -8.1118    2.0743   -7.0074 H   0  0  0  0  0  0  0  0  0  0  0  0
   -4.9960    5.5832  -19.3294 C   0  0  0  0  0  0  0  0  0  0  0  0
   -4.7190    7.9271  -19.7497 C   0  0  0  0  0  0  0  0  0  0  0  0
   -5.6609    6.8153  -19.7467 N   0  0  0  0  0  0  0  0  0  0  0  0
   -6.0375    6.6918  -20.6866 H   0  0  0  0  0  0  0  0  0  0  0  0
 27 28  1  0  0  0
 28 26  1  0  0  0
 26  1  1  0  0  0
  1  2  1  0  0  0
  2  3  2  0  0  0
  2  4  1  0  0  0
  4  5  1  0  0  0
  5  6  2  0  0  0
  6 12  1  0  0  0
 12 13  2  0  0  0
 12 14  1  0  0  0
 14 15  1  0  0  0
 15 16  2  0  0  0
 16 17  1  0  0  0
 17 18  1  0  0  0
 17 19  2  0  0  0
 19 20  1  0  0  0
 20 21  2  0  0  0
 20 22  1  0  0  0
 22 23  1  0  0  0
 23 24  1  0  0  0
  6  7  1  0  0  0
  7  8  2  0  0  0
  8  9  1  0  0  0
  8 10  1  0  0  0
 10 11  2  0  0  0
 11  1  1  0  0  0
 11  5  1  0  0  0
 21 15  1  0  0  0
 24 19  1  0  0  0
 28 29  1  0  0  0
 23 25  1  0  0  0
M  END
> <minimizedAffinity>
-8.06067

> <minimizedRMSD>
0.41589

$$$$
P23835


 33 37  0  0  0  0  0  0  0  0999 V2000
   -6.8146    4.5327  -12.7595 C   0  0  0  0  0  0  0  0  0  0  0  0
   -5.7830    4.4435  -12.1134 O   0  0  0  0  0  0  0  0  0  0  0  0
   -4.4978    5.6005  -16.7633 N   0  0  0  0  0  0  0  0  0  0  0  0
   -3.5402    5.4501  -15.7666 C   0  0  0  0  0  0  0  0  0  0  0  0
   -2.3292    5.4798  -15.9218 O   0  0  0  0  0  0  0  0  0  0  0  0
   -4.2906    5.1963  -14.4583 C   0  0  0  0  0  0  0  0  0  0  0  0
   -5.7037    4.9992  -14.9268 C   0  0  0  0  0  0  0  0  0  0  0  0
   -6.8482    4.6187  -14.2410 C   0  0  0  0  0  0  0  0  0  0  0  0
   -8.0145    4.3667  -14.9914 C   0  0  0  0  0  0  0  0  0  0  0  0
   -8.0198    4.5239  -16.3753 C   0  0  0  0  0  0  0  0  0  0  0  0
   -9.3762    4.1553  -17.3522 Cl  0  0  0  0  0  0  0  0  0  0  0  0
   -6.9139    5.0465  -17.0126 C   0  0  0  0  0  0  0  0  0  0  0  0
   -5.7613    5.2444  -16.2887 C   0  0  0  0  0  0  0  0  0  0  0  0
   -4.1509    5.7616  -18.1420 C   0  0  0  0  0  0  0  0  0  0  0  0
   -2.6458    4.9543  -19.8106 C   0  0  0  0  0  0  0  0  0  0  0  0
   -3.2289    4.7055  -18.4998 N   0  0  0  0  0  0  0  0  0  0  0  0
   -2.4838    4.6617  -17.8046 H   0  0  0  0  0  0  0  0  0  0  0  0
   -8.1001    4.6662  -12.2800 O   0  0  0  0  0  0  0  0  0  0  0  0
   -8.2167    4.5566  -10.8927 C   0  0  0  0  0  0  0  0  0  0  0  0
   -8.0911    5.6911  -10.0834 C   0  0  0  0  0  0  0  0  0  0  0  0
   -8.2863    5.5660   -8.7150 C   0  0  0  0  0  0  0  0  0  0  0  0
   -8.1821    6.6458   -7.9357 F   0  0  0  0  0  0  0  0  0  0  0  0
   -8.5986    4.3370   -8.1692 C   0  0  0  0  0  0  0  0  0  0  0  0
   -8.7654    3.2316   -8.9993 C   0  0  0  0  0  0  0  0  0  0  0  0
   -8.5841    3.3200  -10.3691 C   0  0  0  0  0  0  0  0  0  0  0  0
   -9.1644    2.0542   -8.1830 C   0  0  0  0  0  0  0  0  0  0  0  0
   -8.9132    2.4431   -6.7703 N   0  0  0  0  0  0  0  0  0  0  0  0
   -8.7302    3.9237   -6.7412 C   0  0  0  0  0  0  0  0  0  0  0  0
   -7.5123    4.3518   -5.9084 C   0  0  0  0  0  0  0  0  0  0  0  0
   -7.9244    4.1029   -4.4630 C   0  0  0  0  0  0  0  0  0  0  0  0
   -9.4249    4.3716   -4.4338 C   0  0  0  0  0  0  0  0  0  0  0  0
   -9.8565    4.5364   -5.8955 C   0  0  0  0  0  0  0  0  0  0  0  0
   -8.0718    1.9809   -6.4257 H   0  0  0  0  0  0  0  0  0  0  0  0
 15 16  1  0  0  0
 16 14  1  0  0  0
 14  3  1  0  0  0
  3  4  1  0  0  0
  4  5  2  0  0  0
  4  6  1  0  0  0
  6  7  1  0  0  0
  7  8  2  0  0  0
  8  1  1  0  0  0
  1  2  2  0  0  0
  1 18  1  0  0  0
 18 19  1  0  0  0
 19 20  2  0  0  0
 20 21  1  0  0  0
 21 22  1  0  0  0
 21 23  2  0  0  0
 23 24  1  0  0  0
 24 25  2  0  0  0
 24 26  1  0  0  0
 26 27  1  0  0  0
 27 28  1  0  0  0
 28 29  1  0  0  0
 29 30  1  0  0  0
 30 31  1  0  0  0
 31 32  1  0  0  0
  8  9  1  0  0  0
  9 10  2  0  0  0
 10 11  1  0  0  0
 10 12  1  0  0  0
 12 13  2  0  0  0
 13  3  1  0  0  0
 13  7  1  0  0  0
 25 19  1  0  0  0
 32 28  1  0  0  0
 28 23  1  0  0  0
 16 17  1  0  0  0
 27 33  1  0  0  0
M  END
> <minimizedAffinity>
-8.53995

> <minimizedRMSD>
1.16392

$$$$
P23837


 27 30  0  0  0  0  0  0  0  0999 V2000
   -5.4593    5.3310  -18.4495 N   0  0  0  0  0  0  0  0  0  0  0  0
   -4.3637    5.4859  -17.5787 C   0  0  0  0  0  0  0  0  0  0  0  0
   -3.2020    5.7425  -17.8630 O   0  0  0  0  0  0  0  0  0  0  0  0
   -4.9017    5.3113  -16.1656 C   0  0  0  0  0  0  0  0  0  0  0  0
   -6.3366    4.9283  -16.3873 C   0  0  0  0  0  0  0  0  0  0  0  0
   -7.3051    4.5804  -15.4520 C   0  0  0  0  0  0  0  0  0  0  0  0
   -8.5702    4.2216  -15.9397 C   0  0  0  0  0  0  0  0  0  0  0  0
   -8.8403    4.2108  -17.3211 C   0  0  0  0  0  0  0  0  0  0  0  0
   -7.8555    4.5732  -18.2438 C   0  0  0  0  0  0  0  0  0  0  0  0
   -6.6128    4.9359  -17.7595 C   0  0  0  0  0  0  0  0  0  0  0  0
   -5.3329    5.4808  -19.8279 N   0  0  0  0  0  0  0  0  0  0  0  0
   -4.5013    4.9793  -20.1399 H   0  0  0  0  0  0  0  0  0  0  0  0
   -4.0792    7.1211  -21.2006 C   0  0  0  0  0  0  0  0  0  0  0  0
   -5.2098    6.8872  -20.2113 C   0  0  0  0  0  0  0  0  0  0  0  0
   -6.9818    4.6355  -13.9988 C   0  0  0  0  0  0  0  0  0  0  0  0
   -5.8989    4.2891  -13.5510 O   0  0  0  0  0  0  0  0  0  0  0  0
   -8.0560    5.1426  -13.2899 O   0  0  0  0  0  0  0  0  0  0  0  0
   -8.0662    5.0200  -11.8845 C   0  0  0  0  0  0  0  0  0  0  0  0
   -7.8280    6.1123  -11.0358 C   0  0  0  0  0  0  0  0  0  0  0  0
   -7.9177    5.9551   -9.6501 C   0  0  0  0  0  0  0  0  0  0  0  0
   -8.2673    4.7116   -9.1497 C   0  0  0  0  0  0  0  0  0  0  0  0
   -8.5320    3.6417   -9.9965 C   0  0  0  0  0  0  0  0  0  0  0  0
   -8.4347    3.7749  -11.3716 C   0  0  0  0  0  0  0  0  0  0  0  0
   -8.9497    2.4594   -9.1900 C   0  0  0  0  0  0  0  0  0  0  0  0
   -8.7575    2.8385   -7.7631 N   0  0  0  0  0  0  0  0  0  0  0  0
   -8.4611    4.2861   -7.7357 C   0  0  0  0  0  0  0  0  0  0  0  0
   -7.9792    2.3142   -7.3633 H   0  0  0  0  0  0  0  0  0  0  0  0
 13 14  1  0  0  0
 14 11  1  0  0  0
 11  1  1  0  0  0
  1  2  1  0  0  0
  2  3  2  0  0  0
  2  4  1  0  0  0
  4  5  1  0  0  0
  5  6  2  0  0  0
  6 15  1  0  0  0
 15 16  2  0  0  0
 15 17  1  0  0  0
 17 18  1  0  0  0
 18 19  2  0  0  0
 19 20  1  0  0  0
 20 21  2  0  0  0
 21 22  1  0  0  0
 22 23  2  0  0  0
 22 24  1  0  0  0
 24 25  1  0  0  0
 25 26  1  0  0  0
  6  7  1  0  0  0
  7  8  2  0  0  0
  8  9  1  0  0  0
  9 10  2  0  0  0
 10  1  1  0  0  0
 10  5  1  0  0  0
 23 18  1  0  0  0
 26 21  1  0  0  0
 11 12  1  0  0  0
 25 27  1  0  0  0
M  END
> <minimizedAffinity>
-7.92896

> <minimizedRMSD>
0.48799

$$$$
P23838


 28 31  0  0  0  0  0  0  0  0999 V2000
   -4.8110    5.4966  -18.2031 C   0  0  0  0  0  0  0  0  0  0  0  0
   -5.1407    5.1647  -16.7374 C   0  0  0  0  0  0  0  0  0  0  0  0
   -6.5816    4.8064  -16.8262 C   0  0  0  0  0  0  0  0  0  0  0  0
   -6.9244    4.6601  -18.1688 C   0  0  0  0  0  0  0  0  0  0  0  0
   -8.1966    4.3005  -18.5431 C   0  0  0  0  0  0  0  0  0  0  0  0
   -9.1488    4.1640  -17.5427 C   0  0  0  0  0  0  0  0  0  0  0  0
  -10.7853    4.0014  -18.0104 Cl  0  0  0  0  0  0  0  0  0  0  0  0
   -8.8128    4.2806  -16.1844 C   0  0  0  0  0  0  0  0  0  0  0  0
   -7.5009    4.5894  -15.8056 C   0  0  0  0  0  0  0  0  0  0  0  0
   -5.8728    4.9422  -19.0661 N   0  0  0  0  0  0  0  0  0  0  0  0
   -5.8520    4.8020  -20.0403 H   0  0  0  0  0  0  0  0  0  0  0  0
   -7.0804    4.7453  -14.3829 C   0  0  0  0  0  0  0  0  0  0  0  0
   -5.9566    4.4829  -13.9817 O   0  0  0  0  0  0  0  0  0  0  0  0
   -8.1348    5.2304  -13.6320 O   0  0  0  0  0  0  0  0  0  0  0  0
   -8.0506    5.1287  -12.2291 C   0  0  0  0  0  0  0  0  0  0  0  0
   -7.8011    6.2478  -11.4172 C   0  0  0  0  0  0  0  0  0  0  0  0
   -7.8235    6.1219  -10.0252 C   0  0  0  0  0  0  0  0  0  0  0  0
   -8.1296    4.8841   -9.4849 C   0  0  0  0  0  0  0  0  0  0  0  0
   -8.3848    3.7813  -10.2970 C   0  0  0  0  0  0  0  0  0  0  0  0
   -8.3449    3.8822  -11.6758 C   0  0  0  0  0  0  0  0  0  0  0  0
   -8.6801    2.5966   -9.4358 C   0  0  0  0  0  0  0  0  0  0  0  0
   -8.9407    3.1597   -8.0823 N   0  0  0  0  0  0  0  0  0  0  0  0
   -8.2487    4.4669   -8.0573 C   0  0  0  0  0  0  0  0  0  0  0  0
   -8.5648    2.5436   -7.3616 H   0  0  0  0  0  0  0  0  0  0  0  0
   -3.4088    5.0428  -18.6339 C   0  0  0  0  0  0  0  0  0  0  0  0
   -1.4392    5.8753  -17.3956 C   0  0  0  0  0  0  0  0  0  0  0  0
   -2.3578    6.0600  -18.5025 N   0  0  0  0  0  0  0  0  0  0  0  0
   -1.8132    6.0613  -19.3649 H   0  0  0  0  0  0  0  0  0  0  0  0
 26 27  1  0  0  0
 27 25  1  0  0  0
  1 25  1  0  0  0
  1  2  1  0  0  0
  2  3  1  0  0  0
  3  4  2  0  0  0
  4  5  1  0  0  0
  5  6  2  0  0  0
  6  7  1  0  0  0
  6  8  1  0  0  0
  8  9  2  0  0  0
  9 12  1  0  0  0
 12 13  2  0  0  0
 12 14  1  0  0  0
 14 15  1  0  0  0
 15 16  2  0  0  0
 16 17  1  0  0  0
 17 18  2  0  0  0
 18 19  1  0  0  0
 19 20  2  0  0  0
 19 21  1  0  0  0
 21 22  1  0  0  0
 22 23  1  0  0  0
  4 10  1  0  0  0
 10  1  1  0  0  0
  9  3  1  0  0  0
 20 15  1  0  0  0
 23 18  1  0  0  0
 27 28  1  0  0  0
 22 24  1  0  0  0
 10 11  1  0  0  0
M  END
> <minimizedAffinity>
-7.78778

> <minimizedRMSD>
0.91449

$$$$
P23841


 28 32  0  0  0  0  0  0  0  0999 V2000
   -7.2851    4.5284  -15.1074 C   0  0  0  0  0  0  0  0  0  0  0  0
   -8.5231    4.1211  -15.6247 C   0  0  0  0  0  0  0  0  0  0  0  0
   -8.7868    4.2172  -16.9908 C   0  0  0  0  0  0  0  0  0  0  0  0
   -9.9653    3.7990  -17.4653 F   0  0  0  0  0  0  0  0  0  0  0  0
   -7.8675    4.7727  -17.8659 C   0  0  0  0  0  0  0  0  0  0  0  0
   -6.6618    5.2240  -17.3599 C   0  0  0  0  0  0  0  0  0  0  0  0
   -6.3581    5.0589  -16.0039 C   0  0  0  0  0  0  0  0  0  0  0  0
   -4.9585    5.5396  -15.7608 C   0  0  0  0  0  0  0  0  0  0  0  0
   -4.5239    5.9908  -17.1720 C   0  0  0  0  0  0  0  0  0  0  0  0
   -4.0507    7.3248  -17.1513 O   0  0  0  0  0  0  0  0  0  0  0  0
   -3.5007    5.1209  -17.8930 C   0  0  0  0  0  0  0  0  0  0  0  0
   -3.8276    5.2212  -19.2938 O   0  0  0  0  0  0  0  0  0  0  0  0
   -5.2561    5.4552  -19.3467 C   0  0  0  0  0  0  0  0  0  0  0  0
   -5.6786    5.9431  -18.0502 N   0  0  0  0  0  0  0  0  0  0  0  0
   -3.2766    7.3843  -16.5697 H   0  0  0  0  0  0  0  0  0  0  0  0
   -5.8748    4.1738  -13.2024 O   0  0  0  0  0  0  0  0  0  0  0  0
   -6.9763    4.4542  -13.6491 C   0  0  0  0  0  0  0  0  0  0  0  0
   -8.1103    4.7892  -12.9279 O   0  0  0  0  0  0  0  0  0  0  0  0
   -8.1215    4.6935  -11.5218 C   0  0  0  0  0  0  0  0  0  0  0  0
   -7.8978    5.8076  -10.6991 C   0  0  0  0  0  0  0  0  0  0  0  0
   -8.0238    5.6858   -9.3114 C   0  0  0  0  0  0  0  0  0  0  0  0
   -8.3953    4.4566   -8.7902 C   0  0  0  0  0  0  0  0  0  0  0  0
   -8.6248    3.3595   -9.6165 C   0  0  0  0  0  0  0  0  0  0  0  0
   -8.4931    3.4584  -10.9893 C   0  0  0  0  0  0  0  0  0  0  0  0
   -8.9910    2.1787   -8.7778 C   0  0  0  0  0  0  0  0  0  0  0  0
   -9.3015    2.7394   -7.4339 N   0  0  0  0  0  0  0  0  0  0  0  0
   -8.6006    4.0404   -7.3723 C   0  0  0  0  0  0  0  0  0  0  0  0
   -8.9609    2.1167   -6.7013 H   0  0  0  0  0  0  0  0  0  0  0  0
 16 17  2  0  0  0
 17 18  1  0  0  0
 18 19  1  0  0  0
 19 20  2  0  0  0
 20 21  1  0  0  0
 21 22  2  0  0  0
 22 23  1  0  0  0
 23 24  2  0  0  0
 23 25  1  0  0  0
 25 26  1  0  0  0
 26 27  1  0  0  0
 17  1  1  0  0  0
  1  2  2  0  0  0
  2  3  1  0  0  0
  3  4  1  0  0  0
  3  5  2  0  0  0
  5  6  1  0  0  0
  6  7  2  0  0  0
  7  8  1  0  0  0
  8  9  1  0  0  0
  9 10  1  0  0  0
  9 11  1  0  0  0
 11 12  1  0  0  0
 12 13  1  0  0  0
 13 14  1  0  0  0
 24 19  1  0  0  0
  7  1  1  0  0  0
 14  9  1  0  0  0
 27 22  1  0  0  0
 14  6  1  0  0  0
 26 28  1  0  0  0
 10 15  1  0  0  0
M  END
> <minimizedAffinity>
-8.30207

> <minimizedRMSD>
0.44579

$$$$
P23842


 29 32  0  0  0  0  0  0  0  0999 V2000
   -7.8069    4.3893  -17.5537 C   0  0  0  0  0  0  0  0  0  0  0  0
   -8.4955    4.2537  -16.3530 C   0  0  0  0  0  0  0  0  0  0  0  0
   -7.8673    4.4714  -15.1322 C   0  0  0  0  0  0  0  0  0  0  0  0
   -6.5137    4.8462  -15.0402 C   0  0  0  0  0  0  0  0  0  0  0  0
   -5.8401    5.0286  -16.2485 C   0  0  0  0  0  0  0  0  0  0  0  0
   -6.4950    4.8134  -17.4697 C   0  0  0  0  0  0  0  0  0  0  0  0
   -5.6226    5.0622  -18.5210 N   0  0  0  0  0  0  0  0  0  0  0  0
   -4.3609    5.3978  -18.0765 C   0  0  0  0  0  0  0  0  0  0  0  0
   -3.3827    5.6229  -18.7724 O   0  0  0  0  0  0  0  0  0  0  0  0
   -4.4208    5.4322  -16.5502 C   0  0  0  0  0  0  0  0  0  0  0  0
   -5.8748    5.0058  -19.4709 H   0  0  0  0  0  0  0  0  0  0  0  0
   -7.7379    3.4977  -19.8523 N   0  0  0  0  0  0  0  0  0  0  0  0
   -8.5638    4.0467  -18.7816 C   0  0  0  0  0  0  0  0  0  0  0  0
   -8.3242    3.2872  -20.6600 H   0  0  0  0  0  0  0  0  0  0  0  0
   -7.2856    2.6427  -19.5284 H   0  0  0  0  0  0  0  0  0  0  0  0
   -5.9628    5.0906  -13.6392 C   0  0  0  0  0  0  0  0  0  0  0  0
   -6.5180    4.1020  -12.6370 N   0  0  0  0  0  0  0  0  0  0  0  0
   -6.6829    4.5903  -11.5130 O   0  0  0  0  0  0  0  0  0  0  0  0
   -4.5773    5.4711  -13.6166 O   0  0  0  0  0  0  0  0  0  0  0  0
   -3.5710    4.5917  -13.3424 C   0  0  0  0  0  0  0  0  0  0  0  0
   -2.2915    5.1819  -13.3015 C   0  0  0  0  0  0  0  0  0  0  0  0
   -1.1394    4.4207  -13.0740 C   0  0  0  0  0  0  0  0  0  0  0  0
   -1.2866    3.0601  -12.8872 C   0  0  0  0  0  0  0  0  0  0  0  0
   -2.5437    2.4714  -12.9163 C   0  0  0  0  0  0  0  0  0  0  0  0
   -3.6905    3.2186  -13.1529 C   0  0  0  0  0  0  0  0  0  0  0  0
   -2.4182    1.0084  -12.6414 C   0  0  0  0  0  0  0  0  0  0  0  0
   -0.9638    0.7197  -12.7141 N   0  0  0  0  0  0  0  0  0  0  0  0
   -0.2569    2.0169  -12.6170 C   0  0  0  0  0  0  0  0  0  0  0  0
   -0.7412    0.2653  -13.5998 H   0  0  0  0  0  0  0  0  0  0  0  0
 12 13  1  0  0  0
 13  1  1  0  0  0
  1  2  2  0  0  0
  2  3  1  0  0  0
  3  4  2  0  0  0
  4 16  1  0  0  0
 16 17  1  0  0  0
 17 18  2  0  0  0
 16 19  1  0  0  0
 19 20  1  0  0  0
 20 21  2  0  0  0
 21 22  1  0  0  0
 22 23  2  0  0  0
 23 24  1  0  0  0
 24 25  2  0  0  0
 24 26  1  0  0  0
 26 27  1  0  0  0
 27 28  1  0  0  0
  4  5  1  0  0  0
  5  6  2  0  0  0
  6  7  1  0  0  0
  7  8  1  0  0  0
  8  9  2  0  0  0
  8 10  1  0  0  0
  6  1  1  0  0  0
 25 20  1  0  0  0
 10  5  1  0  0  0
 28 23  1  0  0  0
 12 14  1  0  0  0
 12 15  1  0  0  0
 27 29  1  0  0  0
  7 11  1  0  0  0
M  END
> <minimizedAffinity>
-7.20923

> <minimizedRMSD>
1.03045

$$$$
P23843


 27 30  0  0  0  0  0  0  0  0999 V2000
   -5.3210    5.5815  -19.7611 N   0  0  0  0  0  0  0  0  0  0  0  0
   -5.3130    5.2388  -18.4157 N   0  0  0  0  0  0  0  0  0  0  0  0
   -4.2208    5.4907  -17.5685 C   0  0  0  0  0  0  0  0  0  0  0  0
   -3.0738    5.7749  -17.8838 O   0  0  0  0  0  0  0  0  0  0  0  0
   -4.7413    5.3442  -16.1320 C   0  0  0  0  0  0  0  0  0  0  0  0
   -6.1749    4.9327  -16.3229 C   0  0  0  0  0  0  0  0  0  0  0  0
   -7.1663    4.6481  -15.3875 C   0  0  0  0  0  0  0  0  0  0  0  0
   -8.4460    4.3393  -15.8768 C   0  0  0  0  0  0  0  0  0  0  0  0
   -8.6877    4.3108  -17.2584 C   0  0  0  0  0  0  0  0  0  0  0  0
  -10.4261    4.1343  -17.9310 Br  0  0  0  0  0  0  0  0  0  0  0  0
   -7.6849    4.5501  -18.1819 C   0  0  0  0  0  0  0  0  0  0  0  0
   -6.4481    4.8850  -17.6922 C   0  0  0  0  0  0  0  0  0  0  0  0
   -4.3712    5.7997  -20.0620 H   0  0  0  0  0  0  0  0  0  0  0  0
   -5.9177    6.3968  -19.9008 H   0  0  0  0  0  0  0  0  0  0  0  0
   -6.8792    4.7451  -13.9286 C   0  0  0  0  0  0  0  0  0  0  0  0
   -5.7509    4.6738  -13.4679 O   0  0  0  0  0  0  0  0  0  0  0  0
   -8.0625    4.9418  -13.2351 O   0  0  0  0  0  0  0  0  0  0  0  0
   -8.0800    4.8466  -11.8275 C   0  0  0  0  0  0  0  0  0  0  0  0
   -7.8541    5.9605  -11.0055 C   0  0  0  0  0  0  0  0  0  0  0  0
   -7.9601    5.8369   -9.6170 C   0  0  0  0  0  0  0  0  0  0  0  0
   -8.3050    4.6034   -9.0886 C   0  0  0  0  0  0  0  0  0  0  0  0
   -8.5565    3.5110   -9.9107 C   0  0  0  0  0  0  0  0  0  0  0  0
   -8.4518    3.6130  -11.2882 C   0  0  0  0  0  0  0  0  0  0  0  0
   -8.9686    2.3458   -9.0757 C   0  0  0  0  0  0  0  0  0  0  0  0
   -8.7532    2.7527   -7.6603 N   0  0  0  0  0  0  0  0  0  0  0  0
   -8.5023    4.2093   -7.6653 C   0  0  0  0  0  0  0  0  0  0  0  0
   -7.9491    2.2597   -7.2721 H   0  0  0  0  0  0  0  0  0  0  0  0
  1  2  1  0  0  0
  2  3  1  0  0  0
  3  4  2  0  0  0
  3  5  1  0  0  0
  5  6  1  0  0  0
  6  7  2  0  0  0
  7 15  1  0  0  0
 15 16  2  0  0  0
 15 17  1  0  0  0
 17 18  1  0  0  0
 18 19  2  0  0  0
 19 20  1  0  0  0
 20 21  2  0  0  0
 21 22  1  0  0  0
 22 23  2  0  0  0
 22 24  1  0  0  0
 24 25  1  0  0  0
 25 26  1  0  0  0
  7  8  1  0  0  0
  8  9  2  0  0  0
  9 10  1  0  0  0
  9 11  1  0  0  0
 11 12  2  0  0  0
 12  2  1  0  0  0
 12  6  1  0  0  0
 23 18  1  0  0  0
 26 21  1  0  0  0
  1 13  1  0  0  0
  1 14  1  0  0  0
 25 27  1  0  0  0
M  END
> <minimizedAffinity>
-8.37349

> <minimizedRMSD>
0.32432

$$$$
P23844


 30 34  0  0  0  0  0  0  0  0999 V2000
   -7.5607    4.6357  -15.2801 C   0  0  0  0  0  0  0  0  0  0  0  0
   -8.9145    4.5886  -15.9890 C   0  0  0  0  0  0  0  0  0  0  0  0
   -8.8347    4.3439  -17.4937 C   0  0  0  0  0  0  0  0  0  0  0  0
   -9.4401    2.7303  -17.8939 Cl  0  0  0  0  0  0  0  0  0  0  0  0
   -7.4329    4.4567  -18.0672 C   0  0  0  0  0  0  0  0  0  0  0  0
   -6.6864    5.6581  -17.5079 C   0  0  0  0  0  0  0  0  0  0  0  0
   -6.5449    5.5585  -15.9782 C   0  0  0  0  0  0  0  0  0  0  0  0
   -5.0853    5.1675  -15.7474 C   0  0  0  0  0  0  0  0  0  0  0  0
   -4.4513    5.0899  -17.1379 C   0  0  0  0  0  0  0  0  0  0  0  0
   -3.0899    5.4822  -17.0596 O   0  0  0  0  0  0  0  0  0  0  0  0
   -2.8478    6.8818  -17.0996 C   0  0  0  0  0  0  0  0  0  0  0  0
   -2.3588    7.3321  -18.4728 C   0  0  0  0  0  0  0  0  0  0  0  0
   -3.4173    7.3288  -19.5781 C   0  0  0  0  0  0  0  0  0  0  0  0
   -3.8433    5.9780  -19.9327 N   0  0  0  0  0  0  0  0  0  0  0  0
   -5.1589    5.6240  -19.4111 C   0  0  0  0  0  0  0  0  0  0  0  0
   -5.3141    5.8930  -17.9901 N   0  0  0  0  0  0  0  0  0  0  0  0
   -3.1609    5.3170  -19.5617 H   0  0  0  0  0  0  0  0  0  0  0  0
   -8.3923    6.1430  -13.5707 O   0  0  0  0  0  0  0  0  0  0  0  0
   -7.8292    5.0906  -13.8517 C   0  0  0  0  0  0  0  0  0  0  0  0
   -7.3975    4.1167  -12.9588 O   0  0  0  0  0  0  0  0  0  0  0  0
   -7.7139    4.2403  -11.5910 C   0  0  0  0  0  0  0  0  0  0  0  0
   -7.3129    5.3467  -10.8273 C   0  0  0  0  0  0  0  0  0  0  0  0
   -7.5770    5.3826   -9.4553 C   0  0  0  0  0  0  0  0  0  0  0  0
   -8.2132    4.2956   -8.8792 C   0  0  0  0  0  0  0  0  0  0  0  0
   -8.6127    3.2041   -9.6429 C   0  0  0  0  0  0  0  0  0  0  0  0
   -8.3695    3.1557  -11.0048 C   0  0  0  0  0  0  0  0  0  0  0  0
   -9.3028    2.2142   -8.7664 C   0  0  0  0  0  0  0  0  0  0  0  0
   -9.0586    2.6659   -7.3686 N   0  0  0  0  0  0  0  0  0  0  0  0
   -8.5841    4.0639   -7.4548 C   0  0  0  0  0  0  0  0  0  0  0  0
   -8.3496    2.0799   -6.9278 H   0  0  0  0  0  0  0  0  0  0  0  0
 18 19  2  0  0  0
 19 20  1  0  0  0
 20 21  1  0  0  0
 21 22  2  0  0  0
 22 23  1  0  0  0
 23 24  2  0  0  0
 24 25  1  0  0  0
 25 26  2  0  0  0
 25 27  1  0  0  0
 27 28  1  0  0  0
 28 29  1  0  0  0
  1 19  1  0  0  0
  1  2  1  0  0  0
  2  3  1  0  0  0
  3  4  1  0  0  0
  3  5  1  0  0  0
  6  5  1  0  0  0
  6  7  1  0  0  0
  7  8  1  0  0  0
  9  8  1  0  0  0
  9 10  1  0  0  0
 10 11  1  0  0  0
 11 12  1  0  0  0
 12 13  1  0  0  0
 13 14  1  0  0  0
 14 15  1  0  0  0
 15 16  1  0  0  0
 26 21  1  0  0  0
  7  1  1  0  0  0
 16  9  1  0  0  0
 29 24  1  0  0  0
 16  6  1  0  0  0
 28 30  1  0  0  0
 14 17  1  0  0  0
M  END
> <minimizedAffinity>
-8.36391

> <minimizedRMSD>
0.24374

$$$$
P23845


 29 33  0  0  0  0  0  0  0  0999 V2000
   -7.2186    4.5665  -15.1043 C   0  0  0  0  0  0  0  0  0  0  0  0
   -8.4391    4.2427  -15.7146 C   0  0  0  0  0  0  0  0  0  0  0  0
   -8.5882    4.3529  -17.1032 C   0  0  0  0  0  0  0  0  0  0  0  0
  -10.1106    4.0811  -17.8323 Cl  0  0  0  0  0  0  0  0  0  0  0  0
   -7.5450    4.7853  -17.9130 C   0  0  0  0  0  0  0  0  0  0  0  0
   -6.3529    5.1528  -17.3172 C   0  0  0  0  0  0  0  0  0  0  0  0
   -6.1844    5.0234  -15.9262 C   0  0  0  0  0  0  0  0  0  0  0  0
   -4.8013    5.4389  -15.5113 C   0  0  0  0  0  0  0  0  0  0  0  0
   -4.1499    5.8234  -16.8239 C   0  0  0  0  0  0  0  0  0  0  0  0
   -2.9746    6.1517  -16.9300 O   0  0  0  0  0  0  0  0  0  0  0  0
   -5.1450    5.7604  -17.9821 C   0  0  0  0  0  0  0  0  0  0  0  0
   -5.3996    7.1345  -18.5756 C   0  0  0  0  0  0  0  0  0  0  0  0
   -4.3069    7.2752  -19.6195 C   0  0  0  0  0  0  0  0  0  0  0  0
   -4.1249    5.9420  -20.1819 N   0  0  0  0  0  0  0  0  0  0  0  0
   -4.5239    4.9876  -19.1240 C   0  0  0  0  0  0  0  0  0  0  0  0
   -3.1483    5.7970  -20.4385 H   0  0  0  0  0  0  0  0  0  0  0  0
   -5.9605    4.1331  -13.1210 O   0  0  0  0  0  0  0  0  0  0  0  0
   -7.0138    4.4899  -13.6271 C   0  0  0  0  0  0  0  0  0  0  0  0
   -8.1503    4.9152  -12.9664 O   0  0  0  0  0  0  0  0  0  0  0  0
   -8.1543    4.7793  -11.5668 C   0  0  0  0  0  0  0  0  0  0  0  0
   -7.8852    5.8713  -10.7256 C   0  0  0  0  0  0  0  0  0  0  0  0
   -7.9686    5.7225   -9.3398 C   0  0  0  0  0  0  0  0  0  0  0  0
   -8.3415    4.4882   -8.8339 C   0  0  0  0  0  0  0  0  0  0  0  0
   -8.6363    3.4203   -9.6751 C   0  0  0  0  0  0  0  0  0  0  0  0
   -8.5479    3.5448  -11.0509 C   0  0  0  0  0  0  0  0  0  0  0  0
   -9.0785    2.2532   -8.8599 C   0  0  0  0  0  0  0  0  0  0  0  0
   -8.8383    2.6250   -7.4389 N   0  0  0  0  0  0  0  0  0  0  0  0
   -8.5396    4.0725   -7.4174 C   0  0  0  0  0  0  0  0  0  0  0  0
   -8.0476    2.0984   -7.0676 H   0  0  0  0  0  0  0  0  0  0  0  0
 17 18  2  0  0  0
 18 19  1  0  0  0
 19 20  1  0  0  0
 20 21  2  0  0  0
 21 22  1  0  0  0
 22 23  2  0  0  0
 23 24  1  0  0  0
 24 25  2  0  0  0
 24 26  1  0  0  0
 26 27  1  0  0  0
 27 28  1  0  0  0
 18  1  1  0  0  0
  1  2  2  0  0  0
  2  3  1  0  0  0
  3  4  1  0  0  0
  3  5  2  0  0  0
  5  6  1  0  0  0
  6  7  2  0  0  0
  7  8  1  0  0  0
  8  9  1  0  0  0
  9 10  2  0  0  0
  9 11  1  0  0  0
 11 12  1  0  0  0
 12 13  1  0  0  0
 13 14  1  0  0  0
 14 15  1  0  0  0
 25 20  1  0  0  0
  7  1  1  0  0  0
 15 11  1  0  0  0
 28 23  1  0  0  0
 11  6  1  0  0  0
 27 29  1  0  0  0
 14 16  1  0  0  0
M  END
> <minimizedAffinity>
-9.28290

> <minimizedRMSD>
0.38470

$$$$
P23846


 30 33  0  0  0  0  0  0  0  0999 V2000
   -3.5421    5.7424  -16.2299 C   0  0  0  0  0  0  0  0  0  0  0  0
   -3.1331    6.2696  -14.8682 C   0  0  0  0  0  0  0  0  0  0  0  0
   -4.8347    5.4615  -16.5218 C   0  0  0  0  0  0  0  0  0  0  0  0
   -5.9451    5.5184  -15.4473 C   0  0  0  0  0  0  0  0  0  0  0  0
   -7.1215    4.9234  -16.1597 C   0  0  0  0  0  0  0  0  0  0  0  0
   -8.3838    4.6281  -15.6718 C   0  0  0  0  0  0  0  0  0  0  0  0
   -9.3165    4.0658  -16.5454 C   0  0  0  0  0  0  0  0  0  0  0  0
   -8.9894    3.8448  -17.8892 C   0  0  0  0  0  0  0  0  0  0  0  0
   -7.7162    4.1613  -18.3697 C   0  0  0  0  0  0  0  0  0  0  0  0
   -6.7750    4.6884  -17.4961 C   0  0  0  0  0  0  0  0  0  0  0  0
   -5.4213    5.0133  -17.7167 N   0  0  0  0  0  0  0  0  0  0  0  0
   -8.7660    5.0115  -14.2905 C   0  0  0  0  0  0  0  0  0  0  0  0
   -9.5306    5.8824  -14.1531 O   0  0  0  0  0  0  0  0  0  0  0  0
   -8.0928    4.0963  -13.2447 N   0  0  0  0  0  0  0  0  0  0  0  0
   -7.5363    3.3778  -13.6233 H   0  0  0  0  0  0  0  0  0  0  0  0
   -8.1447    4.1217  -11.8528 C   0  0  0  0  0  0  0  0  0  0  0  0
   -7.7880    5.2555  -11.1096 C   0  0  0  0  0  0  0  0  0  0  0  0
   -7.8579    5.3462   -9.7539 N   0  0  0  0  0  0  0  0  0  0  0  0
   -8.2922    4.2281   -9.1451 C   0  0  0  0  0  0  0  0  0  0  0  0
   -8.6532    3.0589   -9.7899 C   0  0  0  0  0  0  0  0  0  0  0  0
   -8.5820    2.9901  -11.1674 C   0  0  0  0  0  0  0  0  0  0  0  0
   -9.0632    2.0400   -8.7831 C   0  0  0  0  0  0  0  0  0  0  0  0
   -9.2905    2.7955   -7.5202 N   0  0  0  0  0  0  0  0  0  0  0  0
   -8.4905    4.0393   -7.6662 C   0  0  0  0  0  0  0  0  0  0  0  0
   -8.9697    2.2553   -6.7167 H   0  0  0  0  0  0  0  0  0  0  0  0
   -1.7902    6.7292  -17.7955 C   0  0  0  0  0  0  0  0  0  0  0  0
   -2.3481    5.4820  -17.1269 C   0  0  0  0  0  0  0  0  0  0  0  0
   -5.0303    5.3906  -19.0727 C   0  0  0  0  0  0  0  0  0  0  0  0
   -5.4513    6.7519  -19.4473 C   0  0  0  0  0  0  0  0  0  0  0  0
   -5.8038    7.8259  -19.7281 N   0  0  0  0  0  0  0  0  0  0  0  0
 26 27  1  0  0  0
 27  1  1  0  0  0
  1  2  1  0  0  0
  1  3  2  0  0  0
  3  4  1  0  0  0
  4  5  1  0  0  0
  5  6  2  0  0  0
  6 12  1  0  0  0
 12 13  2  0  0  0
 12 14  1  0  0  0
 14 16  1  0  0  0
 16 17  2  0  0  0
 17 18  1  0  0  0
 18 19  2  0  0  0
 19 20  1  0  0  0
 20 21  2  0  0  0
 20 22  1  0  0  0
 22 23  1  0  0  0
 23 24  1  0  0  0
  6  7  1  0  0  0
  7  8  2  0  0  0
  8  9  1  0  0  0
  9 10  2  0  0  0
 10 11  1  0  0  0
 11 28  1  0  0  0
 28 29  1  0  0  0
 29 30  3  0  0  0
 11  3  1  0  0  0
 10  5  1  0  0  0
 21 16  1  0  0  0
 24 19  1  0  0  0
 14 15  1  0  0  0
 23 25  1  0  0  0
M  END
> <minimizedAffinity>
-8.93203

> <minimizedRMSD>
0.87926

$$$$
P23847


 30 33  0  0  0  0  0  0  0  0999 V2000
   -7.2412    5.0207  -13.8475 C   0  0  0  0  0  0  0  0  0  0  0  0
   -5.5267    5.3671  -19.7363 N   0  0  0  0  0  0  0  0  0  0  0  0
   -5.5462    5.0240  -18.3927 N   0  0  0  0  0  0  0  0  0  0  0  0
   -4.4581    5.2964  -17.5482 C   0  0  0  0  0  0  0  0  0  0  0  0
   -3.3004    5.5482  -17.8559 O   0  0  0  0  0  0  0  0  0  0  0  0
   -4.9951    5.2382  -16.1188 C   0  0  0  0  0  0  0  0  0  0  0  0
   -6.4505    4.8827  -16.2943 C   0  0  0  0  0  0  0  0  0  0  0  0
   -7.4681    4.7346  -15.3436 C   0  0  0  0  0  0  0  0  0  0  0  0
   -8.7320    4.3714  -15.8495 C   0  0  0  0  0  0  0  0  0  0  0  0
   -8.9667    4.1713  -17.2209 C   0  0  0  0  0  0  0  0  0  0  0  0
   -7.9491    4.3703  -18.1466 C   0  0  0  0  0  0  0  0  0  0  0  0
   -6.7073    4.7387  -17.6668 C   0  0  0  0  0  0  0  0  0  0  0  0
   -4.5637    5.5261  -20.0327 H   0  0  0  0  0  0  0  0  0  0  0  0
   -6.0709    6.2181  -19.8779 H   0  0  0  0  0  0  0  0  0  0  0  0
   -7.1615    6.5571  -13.6116 C   0  0  0  0  0  0  0  0  0  0  0  0
   -8.3723    7.0961  -13.3236 F   0  0  0  0  0  0  0  0  0  0  0  0
   -6.6915    7.2531  -14.6727 F   0  0  0  0  0  0  0  0  0  0  0  0
   -6.3223    6.8551  -12.5889 F   0  0  0  0  0  0  0  0  0  0  0  0
   -8.2826    4.2963  -13.0382 N   0  0  0  0  0  0  0  0  0  0  0  0
   -9.0146    3.8318  -13.5047 H   0  0  0  0  0  0  0  0  0  0  0  0
   -8.2378    4.2654  -11.6338 C   0  0  0  0  0  0  0  0  0  0  0  0
   -7.9517    5.3645  -10.8029 C   0  0  0  0  0  0  0  0  0  0  0  0
   -7.9741    5.3793   -9.4421 N   0  0  0  0  0  0  0  0  0  0  0  0
   -8.3618    4.2262   -8.8824 C   0  0  0  0  0  0  0  0  0  0  0  0
   -8.7097    3.0952   -9.5832 C   0  0  0  0  0  0  0  0  0  0  0  0
   -8.6467    3.1021  -10.9676 C   0  0  0  0  0  0  0  0  0  0  0  0
   -9.1406    2.0280   -8.6423 C   0  0  0  0  0  0  0  0  0  0  0  0
   -9.0579    2.5987   -7.2686 N   0  0  0  0  0  0  0  0  0  0  0  0
   -8.5425    3.9820   -7.4147 C   0  0  0  0  0  0  0  0  0  0  0  0
   -8.4218    2.0448   -6.6951 H   0  0  0  0  0  0  0  0  0  0  0  0
  2  3  1  0  0  0
  3  4  1  0  0  0
  4  5  2  0  0  0
  4  6  1  0  0  0
  6  7  1  0  0  0
  7  8  2  0  0  0
  8  1  1  0  0  0
  1 19  1  0  0  0
 19 21  1  0  0  0
 21 22  2  0  0  0
 22 23  1  0  0  0
 23 24  2  0  0  0
 24 25  1  0  0  0
 25 26  2  0  0  0
 25 27  1  0  0  0
 27 28  1  0  0  0
 28 29  1  0  0  0
  1 15  1  0  0  0
 15 16  1  0  0  0
 15 17  1  0  0  0
 15 18  1  0  0  0
  8  9  1  0  0  0
  9 10  2  0  0  0
 10 11  1  0  0  0
 11 12  2  0  0  0
 12  3  1  0  0  0
 12  7  1  0  0  0
 26 21  1  0  0  0
 29 24  1  0  0  0
  2 13  1  0  0  0
  2 14  1  0  0  0
 19 20  1  0  0  0
 28 30  1  0  0  0
M  END
> <minimizedAffinity>
-8.58166

> <minimizedRMSD>
0.16683

$$$$
P23848


 29 32  0  0  0  0  0  0  0  0999 V2000
   -2.6022    5.5843  -18.1921 C   0  0  0  0  0  0  0  0  0  0  0  0
   -3.7246    5.3064  -19.0782 N   0  0  0  0  0  0  0  0  0  0  0  0
   -4.8681    5.1126  -18.5116 C   0  0  0  0  0  0  0  0  0  0  0  0
   -5.1552    5.1306  -16.9845 C   0  0  0  0  0  0  0  0  0  0  0  0
   -6.6158    4.7717  -16.9543 C   0  0  0  0  0  0  0  0  0  0  0  0
   -7.0717    4.6356  -18.2762 C   0  0  0  0  0  0  0  0  0  0  0  0
   -8.3888    4.3430  -18.5527 C   0  0  0  0  0  0  0  0  0  0  0  0
   -9.2851    4.2540  -17.4882 C   0  0  0  0  0  0  0  0  0  0  0  0
  -10.6461    4.0353  -17.7381 N   0  0  0  0  0  0  0  0  0  0  0  0
   -8.8096    4.2756  -16.1658 C   0  0  0  0  0  0  0  0  0  0  0  0
   -7.4714    4.5730  -15.8854 C   0  0  0  0  0  0  0  0  0  0  0  0
   -6.0400    4.8540  -19.1804 N   0  0  0  0  0  0  0  0  0  0  0  0
  -10.9804    4.0200  -18.6640 H   0  0  0  0  0  0  0  0  0  0  0  0
  -11.2683    3.8970  -16.9878 H   0  0  0  0  0  0  0  0  0  0  0  0
   -6.1350    4.8273  -20.1600 H   0  0  0  0  0  0  0  0  0  0  0  0
   -7.0461    4.8273  -14.4825 C   0  0  0  0  0  0  0  0  0  0  0  0
   -6.1094    5.5011  -14.3029 O   0  0  0  0  0  0  0  0  0  0  0  0
   -8.0074    4.1570  -13.4726 N   0  0  0  0  0  0  0  0  0  0  0  0
   -8.6852    3.5685  -13.8770 H   0  0  0  0  0  0  0  0  0  0  0  0
   -8.0701    4.2506  -12.0826 C   0  0  0  0  0  0  0  0  0  0  0  0
   -7.7515    5.4257  -11.3898 C   0  0  0  0  0  0  0  0  0  0  0  0
   -7.8314    5.5743  -10.0389 N   0  0  0  0  0  0  0  0  0  0  0  0
   -8.2238    4.4690   -9.3785 C   0  0  0  0  0  0  0  0  0  0  0  0
   -8.5452    3.2620   -9.9705 C   0  0  0  0  0  0  0  0  0  0  0  0
   -8.4805    3.1400  -11.3455 C   0  0  0  0  0  0  0  0  0  0  0  0
   -8.8895    2.2639   -8.9183 C   0  0  0  0  0  0  0  0  0  0  0  0
   -9.1064    3.0503   -7.6731 N   0  0  0  0  0  0  0  0  0  0  0  0
   -8.3809    4.3287   -7.8891 C   0  0  0  0  0  0  0  0  0  0  0  0
   -8.7263    2.5551   -6.8664 H   0  0  0  0  0  0  0  0  0  0  0  0
  1  2  1  0  0  0
  2  3  2  0  0  0
  3  4  1  0  0  0
  4  5  1  0  0  0
  5  6  2  0  0  0
  6  7  1  0  0  0
  7  8  2  0  0  0
  8  9  1  0  0  0
  8 10  1  0  0  0
 10 11  2  0  0  0
 11 16  1  0  0  0
 16 17  2  0  0  0
 16 18  1  0  0  0
 18 20  1  0  0  0
 20 21  2  0  0  0
 21 22  1  0  0  0
 22 23  2  0  0  0
 23 24  1  0  0  0
 24 25  2  0  0  0
 24 26  1  0  0  0
 26 27  1  0  0  0
 27 28  1  0  0  0
  6 12  1  0  0  0
 12  3  1  0  0  0
 11  5  1  0  0  0
 25 20  1  0  0  0
 28 23  1  0  0  0
  9 13  1  0  0  0
  9 14  1  0  0  0
 18 19  1  0  0  0
 27 29  1  0  0  0
 12 15  1  0  0  0
M  END
> <minimizedAffinity>
-9.55610

> <minimizedRMSD>
0.47002

$$$$
P23849


 29 32  0  0  0  0  0  0  0  0999 V2000
   -7.5915    4.0634  -13.5122 N   0  0  0  0  0  0  0  0  0  0  0  0
   -7.8889    5.1269  -14.5928 C   0  0  0  0  0  0  0  0  0  0  0  0
   -8.1181    6.2661  -14.4897 O   0  0  0  0  0  0  0  0  0  0  0  0
   -7.3519    3.1752  -13.8630 H   0  0  0  0  0  0  0  0  0  0  0  0
   -7.9761    4.5350  -15.9519 C   0  0  0  0  0  0  0  0  0  0  0  0
   -9.1900    3.9458  -16.3293 C   0  0  0  0  0  0  0  0  0  0  0  0
   -9.4571    3.6066  -17.6686 C   0  0  0  0  0  0  0  0  0  0  0  0
   -8.5035    3.8311  -18.6541 C   0  0  0  0  0  0  0  0  0  0  0  0
   -7.3056    4.3825  -18.2546 C   0  0  0  0  0  0  0  0  0  0  0  0
   -7.0219    4.7364  -16.9324 C   0  0  0  0  0  0  0  0  0  0  0  0
   -5.6410    5.3157  -16.8727 C   0  0  0  0  0  0  0  0  0  0  0  0
   -5.1679    5.1819  -18.3344 C   0  0  0  0  0  0  0  0  0  0  0  0
   -4.0655    5.4640  -18.7781 O   0  0  0  0  0  0  0  0  0  0  0  0
   -6.2273    4.6742  -19.0713 N   0  0  0  0  0  0  0  0  0  0  0  0
   -6.2140    4.5393  -20.0465 H   0  0  0  0  0  0  0  0  0  0  0  0
   -7.0444    5.1278  -11.2516 C   0  0  0  0  0  0  0  0  0  0  0  0
   -7.2447    5.2071   -9.8948 N   0  0  0  0  0  0  0  0  0  0  0  0
   -7.9732    4.2247   -9.3631 C   0  0  0  0  0  0  0  0  0  0  0  0
   -8.5412    3.2028  -10.0862 C   0  0  0  0  0  0  0  0  0  0  0  0
   -8.3590    3.1545  -11.4607 C   0  0  0  0  0  0  0  0  0  0  0  0
   -7.6076    4.1578  -12.1019 C   0  0  0  0  0  0  0  0  0  0  0  0
   -9.2724    2.2987   -9.1509 C   0  0  0  0  0  0  0  0  0  0  0  0
   -9.3804    3.0445   -7.8656 N   0  0  0  0  0  0  0  0  0  0  0  0
   -8.2692    4.0239   -7.9039 C   0  0  0  0  0  0  0  0  0  0  0  0
   -9.2748    2.4117   -7.0726 H   0  0  0  0  0  0  0  0  0  0  0  0
   -6.4557    7.7861  -11.8684 C   0  0  0  0  0  0  0  0  0  0  0  0
   -5.6837    6.1996  -11.6656 S   0  0  0  0  0  0  0  0  0  0  0  0
   -5.0789    5.7555  -12.9102 O   0  0  0  0  0  0  0  0  0  0  0  0
   -4.8068    6.3200  -10.5064 O   0  0  0  0  0  0  0  0  0  0  0  0
 26 27  1  0  0  0
 27 28  2  0  0  0
 27 29  2  0  0  0
 27 16  1  0  0  0
 16 17  2  0  0  0
 17 18  1  0  0  0
 18 19  2  0  0  0
 19 20  1  0  0  0
 20 21  2  0  0  0
 21  1  1  0  0  0
  1  2  1  0  0  0
  2  3  2  0  0  0
  2  5  1  0  0  0
  5  6  2  0  0  0
  6  7  1  0  0  0
  7  8  2  0  0  0
  8  9  1  0  0  0
  9 10  2  0  0  0
 10 11  1  0  0  0
 11 12  1  0  0  0
 12 13  2  0  0  0
 12 14  1  0  0  0
 19 22  1  0  0  0
 22 23  1  0  0  0
 23 24  1  0  0  0
 21 16  1  0  0  0
 10  5  1  0  0  0
 24 18  1  0  0  0
 14  9  1  0  0  0
  1  4  1  0  0  0
 14 15  1  0  0  0
 23 25  1  0  0  0
M  END
> <minimizedAffinity>
-8.15462

> <minimizedRMSD>
0.91089

$$$$
P23850


 28 31  0  0  0  0  0  0  0  0999 V2000
   -6.3646    5.6520  -14.3239 O   0  0  0  0  0  0  0  0  0  0  0  0
   -7.2851    4.9492  -14.4763 C   0  0  0  0  0  0  0  0  0  0  0  0
   -8.2493    4.3200  -13.4410 N   0  0  0  0  0  0  0  0  0  0  0  0
   -9.0022    3.8190  -13.8302 H   0  0  0  0  0  0  0  0  0  0  0  0
   -7.7122    4.6478  -15.8699 C   0  0  0  0  0  0  0  0  0  0  0  0
   -9.0519    4.3507  -16.1373 C   0  0  0  0  0  0  0  0  0  0  0  0
   -9.4990    4.2304  -17.4552 C   0  0  0  0  0  0  0  0  0  0  0  0
  -10.8327    4.0962  -17.7185 O   0  0  0  0  0  0  0  0  0  0  0  0
   -8.6142    4.3201  -18.5228 C   0  0  0  0  0  0  0  0  0  0  0  0
   -7.2876    4.6130  -18.2504 C   0  0  0  0  0  0  0  0  0  0  0  0
   -6.8446    4.7937  -16.9422 C   0  0  0  0  0  0  0  0  0  0  0  0
   -5.3991    5.1522  -16.9589 C   0  0  0  0  0  0  0  0  0  0  0  0
   -5.0691    5.0800  -18.4680 C   0  0  0  0  0  0  0  0  0  0  0  0
   -4.6156    6.3217  -18.9676 O   0  0  0  0  0  0  0  0  0  0  0  0
   -6.2591    4.7028  -19.2081 N   0  0  0  0  0  0  0  0  0  0  0  0
  -11.4456    4.0341  -17.0125 H   0  0  0  0  0  0  0  0  0  0  0  0
   -5.3132    6.9873  -18.8611 H   0  0  0  0  0  0  0  0  0  0  0  0
   -6.3321    4.5431  -20.1768 H   0  0  0  0  0  0  0  0  0  0  0  0
   -8.2248    4.3476  -12.0471 C   0  0  0  0  0  0  0  0  0  0  0  0
   -7.8724    5.5019  -11.3356 C   0  0  0  0  0  0  0  0  0  0  0  0
   -7.8809    5.6086   -9.9802 N   0  0  0  0  0  0  0  0  0  0  0  0
   -8.2439    4.4857   -9.3355 C   0  0  0  0  0  0  0  0  0  0  0  0
   -8.5977    3.2978   -9.9450 C   0  0  0  0  0  0  0  0  0  0  0  0
   -8.5986    3.2140  -11.3259 C   0  0  0  0  0  0  0  0  0  0  0  0
   -8.9750    2.2944   -8.9126 C   0  0  0  0  0  0  0  0  0  0  0  0
   -8.6296    2.8909   -7.5920 N   0  0  0  0  0  0  0  0  0  0  0  0
   -8.3641    4.3291   -7.8477 C   0  0  0  0  0  0  0  0  0  0  0  0
   -7.7997    2.4406   -7.2062 H   0  0  0  0  0  0  0  0  0  0  0  0
  1  2  2  0  0  0
  2  3  1  0  0  0
  3 19  1  0  0  0
 19 20  2  0  0  0
 20 21  1  0  0  0
 21 22  2  0  0  0
 22 23  1  0  0  0
 23 24  2  0  0  0
 23 25  1  0  0  0
 25 26  1  0  0  0
 26 27  1  0  0  0
  2  5  1  0  0  0
  5  6  2  0  0  0
  6  7  1  0  0  0
  7  8  1  0  0  0
  7  9  2  0  0  0
  9 10  1  0  0  0
 10 11  2  0  0  0
 11 12  1  0  0  0
 12 13  1  0  0  0
 13 14  1  0  0  0
 13 15  1  0  0  0
 24 19  1  0  0  0
 11  5  1  0  0  0
 27 22  1  0  0  0
 15 10  1  0  0  0
  3  4  1  0  0  0
 26 28  1  0  0  0
  8 16  1  0  0  0
 14 17  1  0  0  0
 15 18  1  0  0  0
M  END
> <minimizedAffinity>
-9.35656

> <minimizedRMSD>
0.44270

$$$$
P23851


 30 33  0  0  0  0  0  0  0  0999 V2000
   -3.2228    5.5850  -20.0990 C   0  0  0  0  0  0  0  0  0  0  0  0
   -3.6838    5.7415  -18.6754 C   0  0  0  0  0  0  0  0  0  0  0  0
   -4.8824    5.2879  -18.2566 C   0  0  0  0  0  0  0  0  0  0  0  0
   -5.3884    5.3772  -16.7986 C   0  0  0  0  0  0  0  0  0  0  0  0
   -6.7805    4.8198  -16.9082 C   0  0  0  0  0  0  0  0  0  0  0  0
   -7.0197    4.4951  -18.2521 C   0  0  0  0  0  0  0  0  0  0  0  0
   -8.2197    3.9559  -18.6593 C   0  0  0  0  0  0  0  0  0  0  0  0
   -9.2119    3.7709  -17.7006 C   0  0  0  0  0  0  0  0  0  0  0  0
   -8.9744    4.0917  -16.3515 C   0  0  0  0  0  0  0  0  0  0  0  0
   -7.7500    4.6285  -15.9391 C   0  0  0  0  0  0  0  0  0  0  0  0
   -5.8732    4.6931  -19.0215 N   0  0  0  0  0  0  0  0  0  0  0  0
   -5.7812    4.4461  -19.9701 H   0  0  0  0  0  0  0  0  0  0  0  0
   -2.6934    6.3869  -17.7423 C   0  0  0  0  0  0  0  0  0  0  0  0
   -2.2155    7.6694  -18.2438 N   0  0  0  0  0  0  0  0  0  0  0  0
   -1.7377    7.5297  -19.1341 H   0  0  0  0  0  0  0  0  0  0  0  0
   -1.5672    8.0776  -17.5704 H   0  0  0  0  0  0  0  0  0  0  0  0
   -7.5406    5.1091  -14.5426 C   0  0  0  0  0  0  0  0  0  0  0  0
   -6.9915    6.1298  -14.3965 O   0  0  0  0  0  0  0  0  0  0  0  0
   -8.1660    4.1483  -13.5022 N   0  0  0  0  0  0  0  0  0  0  0  0
   -8.6441    3.3786  -13.8871 H   0  0  0  0  0  0  0  0  0  0  0  0
   -8.1623    4.1960  -12.1071 C   0  0  0  0  0  0  0  0  0  0  0  0
   -7.7545    5.3387  -11.4059 C   0  0  0  0  0  0  0  0  0  0  0  0
   -7.7698    5.4642  -10.0514 N   0  0  0  0  0  0  0  0  0  0  0  0
   -8.2046    4.3738   -9.3955 C   0  0  0  0  0  0  0  0  0  0  0  0
   -8.6176    3.1997   -9.9932 C   0  0  0  0  0  0  0  0  0  0  0  0
   -8.6033    3.0952  -11.3732 C   0  0  0  0  0  0  0  0  0  0  0  0
   -9.0699    2.2359   -8.9532 C   0  0  0  0  0  0  0  0  0  0  0  0
   -8.7288    2.8377   -7.6340 N   0  0  0  0  0  0  0  0  0  0  0  0
   -8.3549    4.2481   -7.9074 C   0  0  0  0  0  0  0  0  0  0  0  0
   -7.9459    2.3400   -7.2100 H   0  0  0  0  0  0  0  0  0  0  0  0
  1  2  1  0  0  0
  2 13  1  0  0  0
 13 14  1  0  0  0
  2  3  2  0  0  0
  3  4  1  0  0  0
  4  5  1  0  0  0
  5  6  2  0  0  0
  6  7  1  0  0  0
  7  8  2  0  0  0
  8  9  1  0  0  0
  9 10  2  0  0  0
 10 17  1  0  0  0
 17 18  2  0  0  0
 17 19  1  0  0  0
 19 21  1  0  0  0
 21 22  2  0  0  0
 22 23  1  0  0  0
 23 24  2  0  0  0
 24 25  1  0  0  0
 25 26  2  0  0  0
 25 27  1  0  0  0
 27 28  1  0  0  0
 28 29  1  0  0  0
  6 11  1  0  0  0
 11  3  1  0  0  0
 10  5  1  0  0  0
 26 21  1  0  0  0
 29 24  1  0  0  0
 14 15  1  0  0  0
 14 16  1  0  0  0
 19 20  1  0  0  0
 28 30  1  0  0  0
 11 12  1  0  0  0
M  END
> <minimizedAffinity>
-8.98697

> <minimizedRMSD>
0.29390

$$$$
P23852


 26 29  0  0  0  0  0  0  0  0999 V2000
   -8.7177    4.9704  -14.3225 C   0  0  0  0  0  0  0  0  0  0  0  0
   -9.4279    5.8913  -14.2302 O   0  0  0  0  0  0  0  0  0  0  0  0
   -8.0446    4.1145  -13.2317 N   0  0  0  0  0  0  0  0  0  0  0  0
   -7.4219    3.4311  -13.5700 H   0  0  0  0  0  0  0  0  0  0  0  0
   -5.3898    5.1240  -17.7020 N   0  0  0  0  0  0  0  0  0  0  0  0
   -4.7822    5.4022  -16.4586 C   0  0  0  0  0  0  0  0  0  0  0  0
   -3.6129    5.6866  -16.2307 O   0  0  0  0  0  0  0  0  0  0  0  0
   -5.8553    5.2920  -15.3841 C   0  0  0  0  0  0  0  0  0  0  0  0
   -7.0438    4.8069  -16.1466 C   0  0  0  0  0  0  0  0  0  0  0  0
   -8.3287    4.5449  -15.6918 C   0  0  0  0  0  0  0  0  0  0  0  0
   -9.2661    4.0449  -16.5996 C   0  0  0  0  0  0  0  0  0  0  0  0
   -8.9172    3.8523  -17.9463 C   0  0  0  0  0  0  0  0  0  0  0  0
   -7.6367    4.1820  -18.4029 C   0  0  0  0  0  0  0  0  0  0  0  0
   -6.7109    4.6643  -17.4904 C   0  0  0  0  0  0  0  0  0  0  0  0
   -4.8823    6.4698  -19.6555 C   0  0  0  0  0  0  0  0  0  0  0  0
   -4.8080    5.3493  -18.9270 C   0  0  0  0  0  0  0  0  0  0  0  0
   -8.1737    4.1505  -11.8460 C   0  0  0  0  0  0  0  0  0  0  0  0
   -7.8364    5.2920  -11.1042 C   0  0  0  0  0  0  0  0  0  0  0  0
   -7.9188    5.3894   -9.7521 N   0  0  0  0  0  0  0  0  0  0  0  0
   -8.3466    4.2711   -9.1418 C   0  0  0  0  0  0  0  0  0  0  0  0
   -8.7056    3.1019   -9.7845 C   0  0  0  0  0  0  0  0  0  0  0  0
   -8.6282    3.0264  -11.1629 C   0  0  0  0  0  0  0  0  0  0  0  0
   -9.1614    2.0976   -8.7870 C   0  0  0  0  0  0  0  0  0  0  0  0
   -8.8677    2.6672   -7.4430 N   0  0  0  0  0  0  0  0  0  0  0  0
   -8.5301    4.0960   -7.6631 C   0  0  0  0  0  0  0  0  0  0  0  0
   -8.0799    2.1794   -7.0167 H   0  0  0  0  0  0  0  0  0  0  0  0
 15 16  2  0  0  0
 16  5  1  0  0  0
  5  6  1  0  0  0
  6  7  2  0  0  0
  6  8  1  0  0  0
  8  9  1  0  0  0
  9 10  2  0  0  0
 10  1  1  0  0  0
  1  2  2  0  0  0
  1  3  1  0  0  0
  3 17  1  0  0  0
 17 18  2  0  0  0
 18 19  1  0  0  0
 19 20  2  0  0  0
 20 21  1  0  0  0
 21 22  2  0  0  0
 21 23  1  0  0  0
 23 24  1  0  0  0
 24 25  1  0  0  0
 10 11  1  0  0  0
 11 12  2  0  0  0
 12 13  1  0  0  0
 13 14  2  0  0  0
 14  5  1  0  0  0
 14  9  1  0  0  0
 22 17  1  0  0  0
 25 20  1  0  0  0
  3  4  1  0  0  0
 24 26  1  0  0  0
M  END
> <minimizedAffinity>
-9.15815

> <minimizedRMSD>
0.81575

$$$$
P23853


 31 34  0  0  0  0  0  0  0  0999 V2000
  -10.2196    3.8612  -18.0103 C   0  0  0  0  0  0  0  0  0  0  0  0
   -8.8985    4.2119  -17.4194 C   0  0  0  0  0  0  0  0  0  0  0  0
   -7.8080    4.3043  -18.2776 C   0  0  0  0  0  0  0  0  0  0  0  0
   -6.6189    4.7353  -17.7471 C   0  0  0  0  0  0  0  0  0  0  0  0
   -6.4463    5.0807  -16.4049 C   0  0  0  0  0  0  0  0  0  0  0  0
   -7.5147    4.9322  -15.5268 C   0  0  0  0  0  0  0  0  0  0  0  0
   -8.7451    4.4892  -16.0477 C   0  0  0  0  0  0  0  0  0  0  0  0
   -5.0070    5.5054  -16.2060 C   0  0  0  0  0  0  0  0  0  0  0  0
   -4.4051    5.2352  -17.6111 C   0  0  0  0  0  0  0  0  0  0  0  0
   -3.2396    5.3656  -17.9507 O   0  0  0  0  0  0  0  0  0  0  0  0
   -5.4387    4.8676  -18.4493 N   0  0  0  0  0  0  0  0  0  0  0  0
   -5.3460    4.7197  -19.4182 H   0  0  0  0  0  0  0  0  0  0  0  0
   -7.4730    5.3609  -14.0987 C   0  0  0  0  0  0  0  0  0  0  0  0
   -7.1878    6.4685  -13.8691 O   0  0  0  0  0  0  0  0  0  0  0  0
   -7.9317    4.2276  -13.1523 N   0  0  0  0  0  0  0  0  0  0  0  0
   -8.1892    3.3919  -13.6045 H   0  0  0  0  0  0  0  0  0  0  0  0
   -8.0401    4.1967  -11.7603 C   0  0  0  0  0  0  0  0  0  0  0  0
   -7.6549    5.2805  -10.9590 C   0  0  0  0  0  0  0  0  0  0  0  0
   -7.7895    5.3323   -9.6059 N   0  0  0  0  0  0  0  0  0  0  0  0
   -8.3216    4.2260   -9.0567 C   0  0  0  0  0  0  0  0  0  0  0  0
   -8.7227    3.1041   -9.7589 C   0  0  0  0  0  0  0  0  0  0  0  0
   -8.5870    3.0760  -11.1351 C   0  0  0  0  0  0  0  0  0  0  0  0
   -9.2388    2.0800   -8.8060 C   0  0  0  0  0  0  0  0  0  0  0  0
   -9.4646    2.8007   -7.5233 N   0  0  0  0  0  0  0  0  0  0  0  0
   -8.5887    3.9984   -7.5939 C   0  0  0  0  0  0  0  0  0  0  0  0
   -9.2044    2.2128   -6.7314 H   0  0  0  0  0  0  0  0  0  0  0  0
   -4.8017    6.9946  -15.9369 C   0  0  0  0  0  0  0  0  0  0  0  0
   -3.8157    7.1924  -14.8204 C   0  0  0  0  0  0  0  0  0  0  0  0
   -3.7990    6.6388  -13.7349 O   0  0  0  0  0  0  0  0  0  0  0  0
   -2.8979    8.1347  -15.1188 O   0  0  0  0  0  0  0  0  0  0  0  0
   -2.9152    8.5574  -15.9549 H   0  0  0  0  0  0  0  0  0  0  0  0
  1  2  1  0  0  0
  2  3  2  0  0  0
  3  4  1  0  0  0
  4  5  2  0  0  0
  5  6  1  0  0  0
  6 13  1  0  0  0
 13 14  2  0  0  0
 13 15  1  0  0  0
 15 17  1  0  0  0
 17 18  2  0  0  0
 18 19  1  0  0  0
 19 20  2  0  0  0
 20 21  1  0  0  0
 21 22  2  0  0  0
 21 23  1  0  0  0
 23 24  1  0  0  0
 24 25  1  0  0  0
  6  7  2  0  0  0
  5  8  1  0  0  0
  8 27  1  0  0  0
 27 28  1  0  0  0
 28 29  2  0  0  0
 28 30  1  0  0  0
  8  9  1  0  0  0
  9 10  2  0  0  0
  9 11  1  0  0  0
  7  2  1  0  0  0
 11  4  1  0  0  0
 22 17  1  0  0  0
 25 20  1  0  0  0
 15 16  1  0  0  0
 24 26  1  0  0  0
 30 31  1  0  0  0
 11 12  1  0  0  0
M  END
> <minimizedAffinity>
-8.03601

> <minimizedRMSD>
0.45734

$$$$
P23854


 31 34  0  0  0  0  0  0  0  0999 V2000
   -7.3022    4.8986  -14.3590 C   0  0  0  0  0  0  0  0  0  0  0  0
   -7.1476    6.2890  -14.2923 O   0  0  0  0  0  0  0  0  0  0  0  0
   -6.9425    6.5481  -13.3804 H   0  0  0  0  0  0  0  0  0  0  0  0
   -7.6203    4.5834  -15.8194 C   0  0  0  0  0  0  0  0  0  0  0  0
   -8.8914    4.1162  -16.2270 C   0  0  0  0  0  0  0  0  0  0  0  0
   -9.2145    3.8418  -17.5709 C   0  0  0  0  0  0  0  0  0  0  0  0
   -8.2773    4.0381  -18.5736 C   0  0  0  0  0  0  0  0  0  0  0  0
   -7.0525    4.5334  -18.1929 C   0  0  0  0  0  0  0  0  0  0  0  0
   -6.7144    4.8072  -16.8608 C   0  0  0  0  0  0  0  0  0  0  0  0
   -5.3154    5.3586  -16.8394 C   0  0  0  0  0  0  0  0  0  0  0  0
   -4.8972    5.2817  -18.3156 C   0  0  0  0  0  0  0  0  0  0  0  0
   -3.7975    5.5624  -18.7681 O   0  0  0  0  0  0  0  0  0  0  0  0
   -5.9913    4.8281  -19.0343 N   0  0  0  0  0  0  0  0  0  0  0  0
   -6.0122    4.7284  -20.0136 H   0  0  0  0  0  0  0  0  0  0  0  0
   -3.9673    3.6816  -12.8638 C   0  0  0  0  0  0  0  0  0  0  0  0
   -4.8636    4.8449  -13.2296 C   0  0  0  0  0  0  0  0  0  0  0  0
   -4.5733    5.9498  -13.0013 O   0  0  0  0  0  0  0  0  0  0  0  0
   -6.1183    4.2617  -13.9100 N   0  0  0  0  0  0  0  0  0  0  0  0
   -6.0930    3.2885  -14.0563 H   0  0  0  0  0  0  0  0  0  0  0  0
   -8.3588    4.4422  -13.4744 N   0  0  0  0  0  0  0  0  0  0  0  0
   -9.1758    4.0649  -13.8735 H   0  0  0  0  0  0  0  0  0  0  0  0
   -8.2679    4.5145  -12.0778 C   0  0  0  0  0  0  0  0  0  0  0  0
   -7.9811    5.6862  -11.3570 C   0  0  0  0  0  0  0  0  0  0  0  0
   -7.9335    5.7949  -10.0007 N   0  0  0  0  0  0  0  0  0  0  0  0
   -8.2154    4.6618   -9.3389 C   0  0  0  0  0  0  0  0  0  0  0  0
   -8.5353    3.4616   -9.9330 C   0  0  0  0  0  0  0  0  0  0  0  0
   -8.5681    3.3762  -11.3134 C   0  0  0  0  0  0  0  0  0  0  0  0
   -8.8641    2.4506   -8.8926 C   0  0  0  0  0  0  0  0  0  0  0  0
   -8.5400    3.0713   -7.5782 N   0  0  0  0  0  0  0  0  0  0  0  0
   -8.2986    4.5112   -7.8483 C   0  0  0  0  0  0  0  0  0  0  0  0
   -7.7049    2.6413   -7.1804 H   0  0  0  0  0  0  0  0  0  0  0  0
 15 16  1  0  0  0
 16 17  2  0  0  0
 16 18  1  0  0  0
 18  1  1  0  0  0
  1  2  1  0  0  0
  1 20  1  0  0  0
 20 22  1  0  0  0
 22 23  2  0  0  0
 23 24  1  0  0  0
 24 25  2  0  0  0
 25 26  1  0  0  0
 26 27  2  0  0  0
 26 28  1  0  0  0
 28 29  1  0  0  0
 29 30  1  0  0  0
  1  4  1  0  0  0
  4  5  2  0  0  0
  5  6  1  0  0  0
  6  7  2  0  0  0
  7  8  1  0  0  0
  8  9  2  0  0  0
  9 10  1  0  0  0
 10 11  1  0  0  0
 11 12  2  0  0  0
 11 13  1  0  0  0
 27 22  1  0  0  0
  9  4  1  0  0  0
 30 25  1  0  0  0
 13  8  1  0  0  0
 18 19  1  0  0  0
  2  3  1  0  0  0
 20 21  1  0  0  0
 29 31  1  0  0  0
 13 14  1  0  0  0
M  END
> <minimizedAffinity>
-8.75923

> <minimizedRMSD>
0.35834

$$$$
P23859


 33 37  0  0  0  0  0  0  0  0999 V2000
   -4.4275    7.5433  -16.5633 C   0  0  0  0  0  0  0  0  0  0  0  0
   -4.0841    6.5921  -15.4297 C   0  0  0  0  0  0  0  0  0  0  0  0
   -4.5718    5.2342  -15.9258 C   0  0  0  0  0  0  0  0  0  0  0  0
   -5.5861    5.5601  -17.0215 C   0  0  0  0  0  0  0  0  0  0  0  0
   -5.7129    7.0368  -17.0111 N   0  0  0  0  0  0  0  0  0  0  0  0
   -5.0452    5.1710  -18.4564 C   0  0  0  0  0  0  0  0  0  0  0  0
   -3.9217    5.3641  -18.9015 O   0  0  0  0  0  0  0  0  0  0  0  0
   -6.1171    4.6467  -19.1600 N   0  0  0  0  0  0  0  0  0  0  0  0
   -7.1979    4.4236  -18.3184 C   0  0  0  0  0  0  0  0  0  0  0  0
   -8.3741    3.8085  -18.6948 C   0  0  0  0  0  0  0  0  0  0  0  0
   -9.3355    3.6189  -17.7150 C   0  0  0  0  0  0  0  0  0  0  0  0
   -9.0824    4.0177  -16.3917 C   0  0  0  0  0  0  0  0  0  0  0  0
   -7.8714    4.6329  -16.0104 C   0  0  0  0  0  0  0  0  0  0  0  0
   -6.9292    4.8689  -17.0117 C   0  0  0  0  0  0  0  0  0  0  0  0
   -6.4511    7.3250  -16.3689 H   0  0  0  0  0  0  0  0  0  0  0  0
   -6.1129    4.4580  -20.1262 H   0  0  0  0  0  0  0  0  0  0  0  0
   -7.7058    5.1034  -14.5893 C   0  0  0  0  0  0  0  0  0  0  0  0
   -7.2522    6.1635  -14.4195 O   0  0  0  0  0  0  0  0  0  0  0  0
   -8.2840    4.0872  -13.5770 N   0  0  0  0  0  0  0  0  0  0  0  0
   -8.6809    3.2823  -13.9819 H   0  0  0  0  0  0  0  0  0  0  0  0
   -8.3368    4.1271  -12.1226 C   0  0  0  0  0  0  0  0  0  0  0  0
   -7.5924    2.9766  -11.4668 C   0  0  0  0  0  0  0  0  0  0  0  0
   -7.6793    3.0333   -9.9390 C   0  0  0  0  0  0  0  0  0  0  0  0
   -8.9561    2.4899   -9.3179 C   0  0  0  0  0  0  0  0  0  0  0  0
   -8.8797    2.9355   -7.9279 N   0  0  0  0  0  0  0  0  0  0  0  0
   -8.2826    4.2678   -7.9547 C   0  0  0  0  0  0  0  0  0  0  0  0
   -7.5552    4.4360   -9.3161 C   0  0  0  0  0  0  0  0  0  0  0  0
   -8.1664    5.5441  -10.0845 N   0  0  0  0  0  0  0  0  0  0  0  0
   -7.7522    6.8500   -9.5685 C   0  0  0  0  0  0  0  0  0  0  0  0
   -7.8740    5.4641  -11.5236 C   0  0  0  0  0  0  0  0  0  0  0  0
   -8.2969    2.2986   -7.3847 H   0  0  0  0  0  0  0  0  0  0  0  0
   -5.2416    9.0491  -14.9332 C   0  0  0  0  0  0  0  0  0  0  0  0
   -4.5583    8.8946  -16.1669 O   0  0  0  0  0  0  0  0  0  0  0  0
 32 33  1  0  0  0
  1 33  1  0  0  0
  1  2  1  0  0  0
  2  3  1  0  0  0
  4  3  1  0  0  0
  4  5  1  0  0  0
  4  6  1  0  0  0
  6  7  2  0  0  0
  6  8  1  0  0  0
  8  9  1  0  0  0
  9 10  2  0  0  0
 10 11  1  0  0  0
 11 12  2  0  0  0
 12 13  1  0  0  0
 13 17  1  0  0  0
 17 18  2  0  0  0
 17 19  1  0  0  0
 21 19  1  0  0  0
 21 22  1  0  0  0
 23 22  1  0  0  0
 23 24  1  0  0  0
 24 25  1  0  0  0
 25 26  1  0  0  0
 27 26  1  0  0  0
 27 28  1  0  0  0
 28 29  1  0  0  0
 28 30  1  0  0  0
 13 14  2  0  0  0
  5  1  1  0  0  0
 14  9  1  0  0  0
 14  4  1  0  0  0
 30 21  1  0  0  0
 27 23  1  0  0  0
  5 15  1  0  0  0
  8 16  1  0  0  0
 19 20  1  0  0  0
 25 31  1  0  0  0
M  END
> <minimizedAffinity>
-8.92464

> <minimizedRMSD>
0.68869

$$$$
P23860


 27 30  0  0  0  0  0  0  0  0999 V2000
   -8.1413    4.1839  -13.5437 N   0  0  0  0  0  0  0  0  0  0  0  0
   -7.6293    5.1734  -14.6217 C   0  0  0  0  0  0  0  0  0  0  0  0
   -7.1925    6.2524  -14.5135 O   0  0  0  0  0  0  0  0  0  0  0  0
   -8.5360    3.3550  -13.8992 H   0  0  0  0  0  0  0  0  0  0  0  0
   -7.8220    4.6208  -15.9933 C   0  0  0  0  0  0  0  0  0  0  0  0
   -9.0368    3.9911  -16.3182 C   0  0  0  0  0  0  0  0  0  0  0  0
   -9.3278    3.5976  -17.6358 C   0  0  0  0  0  0  0  0  0  0  0  0
   -8.4021    3.8059  -18.6508 C   0  0  0  0  0  0  0  0  0  0  0  0
   -7.2146    4.4184  -18.3103 C   0  0  0  0  0  0  0  0  0  0  0  0
   -6.9041    4.8341  -17.0117 C   0  0  0  0  0  0  0  0  0  0  0  0
   -5.5790    5.5512  -17.0452 C   0  0  0  0  0  0  0  0  0  0  0  0
   -4.5162    5.1309  -16.0484 C   0  0  0  0  0  0  0  0  0  0  0  0
   -5.1098    5.2872  -18.4971 C   0  0  0  0  0  0  0  0  0  0  0  0
   -4.0148    5.5453  -18.9737 O   0  0  0  0  0  0  0  0  0  0  0  0
   -6.1736    4.7125  -19.1756 N   0  0  0  0  0  0  0  0  0  0  0  0
   -6.1873    4.5367  -20.1442 H   0  0  0  0  0  0  0  0  0  0  0  0
   -7.5911    6.8620   -9.3867 C   0  0  0  0  0  0  0  0  0  0  0  0
   -7.8755    5.5712  -10.0864 C   0  0  0  0  0  0  0  0  0  0  0  0
   -7.8289    5.4789  -11.4905 C   0  0  0  0  0  0  0  0  0  0  0  0
   -8.1336    4.2771  -12.1498 C   0  0  0  0  0  0  0  0  0  0  0  0
   -8.4800    3.1428  -11.4084 C   0  0  0  0  0  0  0  0  0  0  0  0
   -8.5363    3.2412  -10.0279 C   0  0  0  0  0  0  0  0  0  0  0  0
   -8.2500    4.4371   -9.3771 C   0  0  0  0  0  0  0  0  0  0  0  0
   -8.4036    4.2258   -7.9054 C   0  0  0  0  0  0  0  0  0  0  0  0
   -9.1290    2.9464   -7.7554 N   0  0  0  0  0  0  0  0  0  0  0  0
   -8.8702    2.1961   -9.0127 C   0  0  0  0  0  0  0  0  0  0  0  0
  -10.1284    3.1144   -7.6392 H   0  0  0  0  0  0  0  0  0  0  0  0
 17 18  1  0  0  0
 18 19  2  0  0  0
 19 20  1  0  0  0
 20  1  1  0  0  0
  1  2  1  0  0  0
  2  3  2  0  0  0
  2  5  1  0  0  0
  5  6  2  0  0  0
  6  7  1  0  0  0
  7  8  2  0  0  0
  8  9  1  0  0  0
  9 10  2  0  0  0
 10 11  1  0  0  0
 11 12  1  0  0  0
 11 13  1  0  0  0
 13 14  2  0  0  0
 13 15  1  0  0  0
 20 21  2  0  0  0
 21 22  1  0  0  0
 22 23  2  0  0  0
 23 24  1  0  0  0
 24 25  1  0  0  0
 25 26  1  0  0  0
 23 18  1  0  0  0
 10  5  1  0  0  0
 26 22  1  0  0  0
 15  9  1  0  0  0
  1  4  1  0  0  0
 15 16  1  0  0  0
 25 27  1  0  0  0
M  END
> <minimizedAffinity>
-9.22983

> <minimizedRMSD>
0.45528

$$$$
P23862


 29 32  0  0  0  0  0  0  0  0999 V2000
   -8.1216    4.5757  -13.4931 N   0  0  0  0  0  0  0  0  0  0  0  0
   -7.1435    5.0579  -14.5888 C   0  0  0  0  0  0  0  0  0  0  0  0
   -6.2238    5.7741  -14.5205 O   0  0  0  0  0  0  0  0  0  0  0  0
   -8.8702    4.0272  -13.8216 H   0  0  0  0  0  0  0  0  0  0  0  0
   -8.1715    7.3439  -12.0619 C   0  0  0  0  0  0  0  0  0  0  0  0
   -8.1211    6.0076  -11.3986 C   0  0  0  0  0  0  0  0  0  0  0  0
   -8.1643    6.0728  -10.0292 N   0  0  0  0  0  0  0  0  0  0  0  0
   -8.2695    4.9032   -9.3736 C   0  0  0  0  0  0  0  0  0  0  0  0
   -8.3276    3.6712   -9.9733 C   0  0  0  0  0  0  0  0  0  0  0  0
   -8.1875    3.5988  -11.3453 C   0  0  0  0  0  0  0  0  0  0  0  0
   -8.3285    2.3676  -12.0269 N   0  0  0  0  0  0  0  0  0  0  0  0
   -8.1165    4.7933  -12.1003 C   0  0  0  0  0  0  0  0  0  0  0  0
   -8.5710    2.6200   -8.9491 C   0  0  0  0  0  0  0  0  0  0  0  0
   -8.5179    3.2859   -7.6185 N   0  0  0  0  0  0  0  0  0  0  0  0
   -8.3882    4.7398   -7.8859 C   0  0  0  0  0  0  0  0  0  0  0  0
   -8.3796    1.5264  -11.5181 H   0  0  0  0  0  0  0  0  0  0  0  0
   -8.3755    2.3519  -13.0101 H   0  0  0  0  0  0  0  0  0  0  0  0
   -7.7136    2.9513   -7.0878 H   0  0  0  0  0  0  0  0  0  0  0  0
   -7.5578    4.5668  -15.9351 C   0  0  0  0  0  0  0  0  0  0  0  0
   -8.8614    4.0835  -16.1319 C   0  0  0  0  0  0  0  0  0  0  0  0
   -9.3562    3.8173  -17.4229 C   0  0  0  0  0  0  0  0  0  0  0  0
   -8.5523    4.0131  -18.5412 C   0  0  0  0  0  0  0  0  0  0  0  0
   -7.2678    4.4595  -18.3211 C   0  0  0  0  0  0  0  0  0  0  0  0
   -6.7587    4.7341  -17.0512 C   0  0  0  0  0  0  0  0  0  0  0  0
   -5.3387    5.1929  -17.1839 C   0  0  0  0  0  0  0  0  0  0  0  0
   -5.1059    5.0937  -18.7010 C   0  0  0  0  0  0  0  0  0  0  0  0
   -4.0612    5.3117  -19.2953 O   0  0  0  0  0  0  0  0  0  0  0  0
   -6.3037    4.7053  -19.2836 N   0  0  0  0  0  0  0  0  0  0  0  0
   -6.4488    4.6164  -20.2533 H   0  0  0  0  0  0  0  0  0  0  0  0
  5  6  1  0  0  0
  6  7  2  0  0  0
  7  8  1  0  0  0
  8  9  2  0  0  0
  9 10  1  0  0  0
 10 11  1  0  0  0
 10 12  2  0  0  0
 12  1  1  0  0  0
  1  2  1  0  0  0
  2  3  2  0  0  0
  2 19  1  0  0  0
 19 20  2  0  0  0
 20 21  1  0  0  0
 21 22  2  0  0  0
 22 23  1  0  0  0
 23 24  2  0  0  0
 24 25  1  0  0  0
 25 26  1  0  0  0
 26 27  2  0  0  0
 26 28  1  0  0  0
  9 13  1  0  0  0
 13 14  1  0  0  0
 14 15  1  0  0  0
 12  6  1  0  0  0
 24 19  1  0  0  0
 15  8  1  0  0  0
 28 23  1  0  0  0
 11 16  1  0  0  0
 11 17  1  0  0  0
  1  4  1  0  0  0
 28 29  1  0  0  0
 14 18  1  0  0  0
M  END
> <minimizedAffinity>
-9.72974

> <minimizedRMSD>
0.74341

$$$$
P23863


 28 31  0  0  0  0  0  0  0  0999 V2000
  -10.7053    3.9983  -17.7182 N   0  0  0  0  0  0  0  0  0  0  0  0
   -9.3391    4.2158  -17.4863 C   0  0  0  0  0  0  0  0  0  0  0  0
   -8.4427    4.2692  -18.5512 C   0  0  0  0  0  0  0  0  0  0  0  0
   -7.1335    4.5889  -18.2633 C   0  0  0  0  0  0  0  0  0  0  0  0
   -6.6677    4.7829  -16.9643 C   0  0  0  0  0  0  0  0  0  0  0  0
   -7.5256    4.6100  -15.8943 C   0  0  0  0  0  0  0  0  0  0  0  0
   -8.8618    4.2893  -16.1664 C   0  0  0  0  0  0  0  0  0  0  0  0
   -5.2218    5.1698  -17.0161 C   0  0  0  0  0  0  0  0  0  0  0  0
   -4.9210    5.1052  -18.5233 C   0  0  0  0  0  0  0  0  0  0  0  0
   -3.8375    5.2945  -19.0551 O   0  0  0  0  0  0  0  0  0  0  0  0
   -6.1081    4.7944  -19.1734 N   0  0  0  0  0  0  0  0  0  0  0  0
  -11.0458    3.9457  -18.6404 H   0  0  0  0  0  0  0  0  0  0  0  0
  -11.3237    3.8982  -16.9587 H   0  0  0  0  0  0  0  0  0  0  0  0
   -6.2082    4.7287  -20.1506 H   0  0  0  0  0  0  0  0  0  0  0  0
   -7.1311    4.9367  -14.4995 C   0  0  0  0  0  0  0  0  0  0  0  0
   -6.3534    5.7923  -14.3344 O   0  0  0  0  0  0  0  0  0  0  0  0
   -7.9391    4.1043  -13.4749 N   0  0  0  0  0  0  0  0  0  0  0  0
   -8.4798    3.3808  -13.8666 H   0  0  0  0  0  0  0  0  0  0  0  0
   -8.0259    4.2123  -12.0868 C   0  0  0  0  0  0  0  0  0  0  0  0
   -7.7237    5.3937  -11.3980 C   0  0  0  0  0  0  0  0  0  0  0  0
   -7.8336    5.5532  -10.0501 N   0  0  0  0  0  0  0  0  0  0  0  0
   -8.2343    4.4516   -9.3886 C   0  0  0  0  0  0  0  0  0  0  0  0
   -8.5381    3.2384   -9.9768 C   0  0  0  0  0  0  0  0  0  0  0  0
   -8.4486    3.1068  -11.3492 C   0  0  0  0  0  0  0  0  0  0  0  0
   -8.8883    2.2443   -8.9234 C   0  0  0  0  0  0  0  0  0  0  0  0
   -9.1309    3.0361   -7.6865 N   0  0  0  0  0  0  0  0  0  0  0  0
   -8.4163    4.3214   -7.9010 C   0  0  0  0  0  0  0  0  0  0  0  0
   -8.7565    2.5502   -6.8716 H   0  0  0  0  0  0  0  0  0  0  0  0
  1  2  1  0  0  0
  2  3  2  0  0  0
  3  4  1  0  0  0
  4  5  2  0  0  0
  5  6  1  0  0  0
  6 15  1  0  0  0
 15 16  2  0  0  0
 15 17  1  0  0  0
 17 19  1  0  0  0
 19 20  2  0  0  0
 20 21  1  0  0  0
 21 22  2  0  0  0
 22 23  1  0  0  0
 23 24  2  0  0  0
 23 25  1  0  0  0
 25 26  1  0  0  0
 26 27  1  0  0  0
  6  7  2  0  0  0
  5  8  1  0  0  0
  8  9  1  0  0  0
  9 10  2  0  0  0
  9 11  1  0  0  0
  7  2  1  0  0  0
 11  4  1  0  0  0
 24 19  1  0  0  0
 27 22  1  0  0  0
  1 12  1  0  0  0
  1 13  1  0  0  0
 17 18  1  0  0  0
 26 28  1  0  0  0
 11 14  1  0  0  0
M  END
> <minimizedAffinity>
-9.39844

> <minimizedRMSD>
0.40973

$$$$
P23864


 25 28  0  0  0  0  0  0  0  0999 V2000
   -8.3226    5.1878  -13.5125 C   0  0  0  0  0  0  0  0  0  0  0  0
   -8.9560    6.1787  -13.1778 O   0  0  0  0  0  0  0  0  0  0  0  0
   -3.2215    5.8846  -15.7710 O   0  0  0  0  0  0  0  0  0  0  0  0
   -4.4135    5.6374  -15.8738 C   0  0  0  0  0  0  0  0  0  0  0  0
   -5.4575    5.6932  -14.7454 C   0  0  0  0  0  0  0  0  0  0  0  0
   -6.7012    5.2141  -15.4327 C   0  0  0  0  0  0  0  0  0  0  0  0
   -6.4055    4.9743  -16.7773 C   0  0  0  0  0  0  0  0  0  0  0  0
   -7.3309    4.4985  -17.6791 C   0  0  0  0  0  0  0  0  0  0  0  0
   -8.6137    4.2511  -17.2016 C   0  0  0  0  0  0  0  0  0  0  0  0
   -8.9281    4.4701  -15.8462 C   0  0  0  0  0  0  0  0  0  0  0  0
   -7.9723    4.9564  -14.9416 C   0  0  0  0  0  0  0  0  0  0  0  0
   -5.0732    5.2560  -17.0337 N   0  0  0  0  0  0  0  0  0  0  0  0
   -4.6507    5.1939  -17.9207 H   0  0  0  0  0  0  0  0  0  0  0  0
   -7.8475    4.1911  -12.4760 C   0  0  0  0  0  0  0  0  0  0  0  0
   -7.1077    3.2981  -12.8681 O   0  0  0  0  0  0  0  0  0  0  0  0
   -8.1563    4.2190  -11.0395 C   0  0  0  0  0  0  0  0  0  0  0  0
   -7.9693    5.3173  -10.2044 C   0  0  0  0  0  0  0  0  0  0  0  0
   -8.1956    5.2984   -8.8596 N   0  0  0  0  0  0  0  0  0  0  0  0
   -8.6122    4.1139   -8.3649 C   0  0  0  0  0  0  0  0  0  0  0  0
   -8.8544    2.9848   -9.1147 C   0  0  0  0  0  0  0  0  0  0  0  0
   -8.6333    3.0259  -10.4705 C   0  0  0  0  0  0  0  0  0  0  0  0
   -9.3459    1.8777   -8.2548 C   0  0  0  0  0  0  0  0  0  0  0  0
   -9.1220    2.3248   -6.8519 N   0  0  0  0  0  0  0  0  0  0  0  0
   -8.8781    3.7910   -6.9213 C   0  0  0  0  0  0  0  0  0  0  0  0
   -8.3122    1.8495   -6.4536 H   0  0  0  0  0  0  0  0  0  0  0  0
  3  4  2  0  0  0
  4  5  1  0  0  0
  5  6  1  0  0  0
  6  7  2  0  0  0
  7  8  1  0  0  0
  8  9  2  0  0  0
  9 10  1  0  0  0
 10 11  2  0  0  0
 11  1  1  0  0  0
  1  2  2  0  0  0
  1 14  1  0  0  0
 14 15  2  0  0  0
 14 16  1  0  0  0
 16 17  2  0  0  0
 17 18  1  0  0  0
 18 19  2  0  0  0
 19 20  1  0  0  0
 20 21  2  0  0  0
 20 22  1  0  0  0
 22 23  1  0  0  0
 23 24  1  0  0  0
  7 12  1  0  0  0
 12  4  1  0  0  0
 11  6  1  0  0  0
 21 16  1  0  0  0
 24 19  1  0  0  0
 23 25  1  0  0  0
 12 13  1  0  0  0
M  END
> <minimizedAffinity>
-7.96297

> <minimizedRMSD>
1.25323

$$$$
P23865


 28 31  0  0  0  0  0  0  0  0999 V2000
   -3.6487    4.8606  -15.1185 C   0  0  0  0  0  0  0  0  0  0  0  0
   -4.6194    5.6996  -15.9258 C   0  0  0  0  0  0  0  0  0  0  0  0
   -4.0006    5.8828  -17.3121 C   0  0  0  0  0  0  0  0  0  0  0  0
   -2.8560    6.2298  -17.5692 O   0  0  0  0  0  0  0  0  0  0  0  0
   -4.9741    5.6004  -18.2493 N   0  0  0  0  0  0  0  0  0  0  0  0
   -6.1286    5.0928  -17.6506 C   0  0  0  0  0  0  0  0  0  0  0  0
   -7.2833    4.6353  -18.2588 C   0  0  0  0  0  0  0  0  0  0  0  0
   -8.3387    4.2358  -17.4497 C   0  0  0  0  0  0  0  0  0  0  0  0
   -8.2212    4.3065  -16.0552 C   0  0  0  0  0  0  0  0  0  0  0  0
   -7.0485    4.7761  -15.4326 C   0  0  0  0  0  0  0  0  0  0  0  0
   -5.9796    5.1271  -16.2551 C   0  0  0  0  0  0  0  0  0  0  0  0
   -4.7377    5.7794  -19.6423 C   0  0  0  0  0  0  0  0  0  0  0  0
   -4.4456    7.1530  -19.8697 O   0  0  0  0  0  0  0  0  0  0  0  0
   -5.1950    7.6955  -19.5782 H   0  0  0  0  0  0  0  0  0  0  0  0
   -6.9861    5.0071  -13.9606 C   0  0  0  0  0  0  0  0  0  0  0  0
   -5.9600    5.3683  -13.3972 O   0  0  0  0  0  0  0  0  0  0  0  0
   -8.2315    4.9502  -13.1196 C   0  0  0  0  0  0  0  0  0  0  0  0
   -9.2889    5.3252  -13.6158 O   0  0  0  0  0  0  0  0  0  0  0  0
   -8.1383    4.6523  -11.6837 C   0  0  0  0  0  0  0  0  0  0  0  0
   -7.9443    5.7239  -10.8059 C   0  0  0  0  0  0  0  0  0  0  0  0
   -8.0449    5.6344   -9.4558 N   0  0  0  0  0  0  0  0  0  0  0  0
   -8.3541    4.4055   -9.0008 C   0  0  0  0  0  0  0  0  0  0  0  0
   -8.5385    3.2817   -9.7922 C   0  0  0  0  0  0  0  0  0  0  0  0
   -8.4284    3.3879  -11.1679 C   0  0  0  0  0  0  0  0  0  0  0  0
   -8.8872    2.1226   -8.9186 C   0  0  0  0  0  0  0  0  0  0  0  0
   -9.3087    2.7159   -7.6206 N   0  0  0  0  0  0  0  0  0  0  0  0
   -8.6432    4.0412   -7.5695 C   0  0  0  0  0  0  0  0  0  0  0  0
   -9.0028    2.1310   -6.8430 H   0  0  0  0  0  0  0  0  0  0  0  0
  2  1  1  0  0  0
  2  3  1  0  0  0
  3  4  2  0  0  0
  3  5  1  0  0  0
  5 12  1  0  0  0
 12 13  1  0  0  0
  5  6  1  0  0  0
  6  7  2  0  0  0
  7  8  1  0  0  0
  8  9  2  0  0  0
  9 10  1  0  0  0
 10 15  1  0  0  0
 15 16  2  0  0  0
 15 17  1  0  0  0
 17 18  2  0  0  0
 17 19  1  0  0  0
 19 20  2  0  0  0
 20 21  1  0  0  0
 21 22  2  0  0  0
 22 23  1  0  0  0
 23 24  2  0  0  0
 23 25  1  0  0  0
 25 26  1  0  0  0
 26 27  1  0  0  0
 10 11  2  0  0  0
 11  2  1  0  0  0
 11  6  1  0  0  0
 24 19  1  0  0  0
 27 22  1  0  0  0
 13 14  1  0  0  0
 26 28  1  0  0  0
M  END
> <minimizedAffinity>
-7.87289

> <minimizedRMSD>
0.42527

$$$$
P23868


 26 29  0  0  0  0  0  0  0  0999 V2000
   -7.0973    5.1674  -14.0498 C   0  0  0  0  0  0  0  0  0  0  0  0
   -6.5139    6.1455  -13.7929 O   0  0  0  0  0  0  0  0  0  0  0  0
   -7.7983    4.1457  -13.1238 N   0  0  0  0  0  0  0  0  0  0  0  0
   -8.1598    3.3534  -13.5831 H   0  0  0  0  0  0  0  0  0  0  0  0
   -3.1617    5.5332  -18.0651 O   0  0  0  0  0  0  0  0  0  0  0  0
   -4.3053    5.3242  -17.6927 C   0  0  0  0  0  0  0  0  0  0  0  0
   -4.8317    5.3921  -16.2476 C   0  0  0  0  0  0  0  0  0  0  0  0
   -6.2617    4.9722  -16.4106 C   0  0  0  0  0  0  0  0  0  0  0  0
   -6.5101    4.7487  -17.7646 C   0  0  0  0  0  0  0  0  0  0  0  0
   -7.7370    4.3837  -18.2525 C   0  0  0  0  0  0  0  0  0  0  0  0
   -8.7619    4.2737  -17.3255 C   0  0  0  0  0  0  0  0  0  0  0  0
  -10.5114    4.1243  -17.9715 Br  0  0  0  0  0  0  0  0  0  0  0  0
   -8.5453    4.4477  -15.9499 C   0  0  0  0  0  0  0  0  0  0  0  0
   -7.2763    4.8071  -15.4812 C   0  0  0  0  0  0  0  0  0  0  0  0
   -5.3690    4.9774  -18.5106 N   0  0  0  0  0  0  0  0  0  0  0  0
   -5.3187    4.9037  -19.4910 H   0  0  0  0  0  0  0  0  0  0  0  0
   -8.0015    4.1641  -11.7442 C   0  0  0  0  0  0  0  0  0  0  0  0
   -7.7031    5.2793  -10.9511 C   0  0  0  0  0  0  0  0  0  0  0  0
   -7.9077    5.3504   -9.6071 N   0  0  0  0  0  0  0  0  0  0  0  0
   -8.4088    4.2279   -9.0587 C   0  0  0  0  0  0  0  0  0  0  0  0
   -8.7248    3.0762   -9.7547 C   0  0  0  0  0  0  0  0  0  0  0  0
   -8.5328    3.0336  -11.1226 C   0  0  0  0  0  0  0  0  0  0  0  0
   -9.2084    2.0340   -8.8051 C   0  0  0  0  0  0  0  0  0  0  0  0
   -9.5030    2.7514   -7.5344 N   0  0  0  0  0  0  0  0  0  0  0  0
   -8.7072    4.0040   -7.6015 C   0  0  0  0  0  0  0  0  0  0  0  0
   -9.2187    2.1894   -6.7321 H   0  0  0  0  0  0  0  0  0  0  0  0
  5  6  2  0  0  0
  6  7  1  0  0  0
  7  8  1  0  0  0
  8  9  2  0  0  0
  9 10  1  0  0  0
 10 11  2  0  0  0
 11 12  1  0  0  0
 11 13  1  0  0  0
 13 14  2  0  0  0
 14  1  1  0  0  0
  1  2  2  0  0  0
  1  3  1  0  0  0
  3 17  1  0  0  0
 17 18  2  0  0  0
 18 19  1  0  0  0
 19 20  2  0  0  0
 20 21  1  0  0  0
 21 22  2  0  0  0
 21 23  1  0  0  0
 23 24  1  0  0  0
 24 25  1  0  0  0
  9 15  1  0  0  0
 15  6  1  0  0  0
 14  8  1  0  0  0
 22 17  1  0  0  0
 25 20  1  0  0  0
  3  4  1  0  0  0
 24 26  1  0  0  0
 15 16  1  0  0  0
M  END
> <minimizedAffinity>
-8.36022

> <minimizedRMSD>
0.17187

$$$$
P23869


 35 38  0  0  0  0  0  0  0  0999 V2000
   -7.4590    5.0935  -13.9089 C   0  0  0  0  0  0  0  0  0  0  0  0
   -6.1369    5.4501  -13.5548 O   0  0  0  0  0  0  0  0  0  0  0  0
   -5.5437    4.7017  -13.7247 H   0  0  0  0  0  0  0  0  0  0  0  0
   -3.3545    5.6002  -17.9582 O   0  0  0  0  0  0  0  0  0  0  0  0
   -4.4946    5.3523  -17.5997 C   0  0  0  0  0  0  0  0  0  0  0  0
   -5.0478    5.3917  -16.1632 C   0  0  0  0  0  0  0  0  0  0  0  0
   -6.4753    4.9354  -16.3342 C   0  0  0  0  0  0  0  0  0  0  0  0
   -6.6796    4.7220  -17.7108 C   0  0  0  0  0  0  0  0  0  0  0  0
   -7.8716    4.3309  -18.2547 C   0  0  0  0  0  0  0  0  0  0  0  0
   -8.9083    4.1505  -17.3638 C   0  0  0  0  0  0  0  0  0  0  0  0
  -10.4715    3.8934  -18.0017 Cl  0  0  0  0  0  0  0  0  0  0  0  0
   -8.7299    4.3093  -15.9752 C   0  0  0  0  0  0  0  0  0  0  0  0
   -7.5092    4.7413  -15.4084 C   0  0  0  0  0  0  0  0  0  0  0  0
   -5.5325    4.9888  -18.4337 N   0  0  0  0  0  0  0  0  0  0  0  0
   -5.4646    4.9276  -19.4139 H   0  0  0  0  0  0  0  0  0  0  0  0
   -8.5104    6.3001  -13.6513 C   0  0  0  0  0  0  0  0  0  0  0  0
   -9.6581    6.2153  -13.8701 O   0  0  0  0  0  0  0  0  0  0  0  0
   -7.6720    7.4964  -13.1074 N   0  0  0  0  0  0  0  0  0  0  0  0
   -6.7001    7.3413  -13.0824 H   0  0  0  0  0  0  0  0  0  0  0  0
   -8.0907    8.7984  -12.6331 C   0  0  0  0  0  0  0  0  0  0  0  0
   -9.0989    8.7405  -11.4900 C   0  0  0  0  0  0  0  0  0  0  0  0
   -8.4797    8.2651  -10.3764 F   0  0  0  0  0  0  0  0  0  0  0  0
   -9.5073   10.0008  -11.1904 F   0  0  0  0  0  0  0  0  0  0  0  0
   -7.7892    3.9486  -13.0499 N   0  0  0  0  0  0  0  0  0  0  0  0
   -7.8641    3.0600  -13.4672 H   0  0  0  0  0  0  0  0  0  0  0  0
   -8.0046    4.0527  -11.6608 C   0  0  0  0  0  0  0  0  0  0  0  0
   -7.5328    5.0759  -10.8146 C   0  0  0  0  0  0  0  0  0  0  0  0
   -7.7107    5.1668   -9.4661 N   0  0  0  0  0  0  0  0  0  0  0  0
   -8.3357    4.1140   -8.9206 C   0  0  0  0  0  0  0  0  0  0  0  0
   -8.7735    3.0150   -9.6280 C   0  0  0  0  0  0  0  0  0  0  0  0
   -8.6185    2.9795  -11.0048 C   0  0  0  0  0  0  0  0  0  0  0  0
   -9.3107    2.0029   -8.6767 C   0  0  0  0  0  0  0  0  0  0  0  0
   -9.5651    2.7387   -7.4086 N   0  0  0  0  0  0  0  0  0  0  0  0
   -8.6601    3.9158   -7.4642 C   0  0  0  0  0  0  0  0  0  0  0  0
   -9.3441    2.1533   -6.6031 H   0  0  0  0  0  0  0  0  0  0  0  0
  4  5  2  0  0  0
  5  6  1  0  0  0
  6  7  1  0  0  0
  7  8  2  0  0  0
  8  9  1  0  0  0
  9 10  2  0  0  0
 10 11  1  0  0  0
 10 12  1  0  0  0
 12 13  2  0  0  0
 13  1  1  0  0  0
  1  2  1  0  0  0
  1 24  1  0  0  0
 24 26  1  0  0  0
 26 27  2  0  0  0
 27 28  1  0  0  0
 28 29  2  0  0  0
 29 30  1  0  0  0
 30 31  2  0  0  0
 30 32  1  0  0  0
 32 33  1  0  0  0
 33 34  1  0  0  0
  1 16  1  0  0  0
 16 17  2  0  0  0
 16 18  1  0  0  0
 18 20  1  0  0  0
 20 21  1  0  0  0
 21 22  1  0  0  0
 21 23  1  0  0  0
  8 14  1  0  0  0
 14  5  1  0  0  0
 13  7  1  0  0  0
 31 26  1  0  0  0
 34 29  1  0  0  0
  2  3  1  0  0  0
 24 25  1  0  0  0
 33 35  1  0  0  0
 18 19  1  0  0  0
 14 15  1  0  0  0
M  END
> <minimizedAffinity>
-8.46152

> <minimizedRMSD>
0.45412

$$$$
P23870


 32 35  0  0  0  0  0  0  0  0999 V2000
   -7.1701    4.9433  -13.6472 C   0  0  0  0  0  0  0  0  0  0  0  0
   -5.9182    4.3866  -13.3234 O   0  0  0  0  0  0  0  0  0  0  0  0
   -5.7485    4.5020  -12.3754 H   0  0  0  0  0  0  0  0  0  0  0  0
   -7.3823    4.7287  -15.1654 C   0  0  0  0  0  0  0  0  0  0  0  0
   -8.6365    4.3746  -15.7190 C   0  0  0  0  0  0  0  0  0  0  0  0
   -8.8314    4.2578  -17.1147 C   0  0  0  0  0  0  0  0  0  0  0  0
  -10.3864    3.9612  -17.7680 Cl  0  0  0  0  0  0  0  0  0  0  0  0
   -7.8030    4.4750  -18.0130 C   0  0  0  0  0  0  0  0  0  0  0  0
   -6.5958    4.8276  -17.4762 C   0  0  0  0  0  0  0  0  0  0  0  0
   -6.3643    4.9575  -16.1006 C   0  0  0  0  0  0  0  0  0  0  0  0
   -4.9207    5.3581  -15.9157 C   0  0  0  0  0  0  0  0  0  0  0  0
   -4.3925    5.3947  -17.3590 C   0  0  0  0  0  0  0  0  0  0  0  0
   -3.2523    5.6265  -17.7282 O   0  0  0  0  0  0  0  0  0  0  0  0
   -5.4525    5.1083  -18.1977 N   0  0  0  0  0  0  0  0  0  0  0  0
   -5.3996    5.1048  -19.1808 H   0  0  0  0  0  0  0  0  0  0  0  0
   -9.4116    8.1483  -12.9717 C   0  0  0  0  0  0  0  0  0  0  0  0
   -8.7705    6.8968  -13.2536 N   0  0  0  0  0  0  0  0  0  0  0  0
   -7.2608    6.5453  -13.4015 C   0  0  0  0  0  0  0  0  0  0  0  0
   -6.3170    7.2374  -13.3925 O   0  0  0  0  0  0  0  0  0  0  0  0
   -9.3846    6.1366  -13.3731 H   0  0  0  0  0  0  0  0  0  0  0  0
   -8.1934    4.1866  -12.8775 N   0  0  0  0  0  0  0  0  0  0  0  0
   -8.8979    3.7085  -13.3718 H   0  0  0  0  0  0  0  0  0  0  0  0
   -8.1958    4.1258  -11.4655 C   0  0  0  0  0  0  0  0  0  0  0  0
   -7.8685    5.1915  -10.6026 C   0  0  0  0  0  0  0  0  0  0  0  0
   -8.0124    5.2068   -9.2489 N   0  0  0  0  0  0  0  0  0  0  0  0
   -8.4955    4.0706   -8.7266 C   0  0  0  0  0  0  0  0  0  0  0  0
   -8.8324    2.9531   -9.4608 C   0  0  0  0  0  0  0  0  0  0  0  0
   -8.7051    2.9765  -10.8405 C   0  0  0  0  0  0  0  0  0  0  0  0
   -9.2840    1.8779   -8.5333 C   0  0  0  0  0  0  0  0  0  0  0  0
   -9.6122    2.5652   -7.2555 N   0  0  0  0  0  0  0  0  0  0  0  0
   -8.8068    3.8133   -7.2766 C   0  0  0  0  0  0  0  0  0  0  0  0
   -9.3530    1.9840   -6.4583 H   0  0  0  0  0  0  0  0  0  0  0  0
 16 17  1  0  0  0
 17 18  1  0  0  0
 18 19  2  0  0  0
 18  1  1  0  0  0
  1  2  1  0  0  0
  1 21  1  0  0  0
 21 23  1  0  0  0
 23 24  2  0  0  0
 24 25  1  0  0  0
 25 26  2  0  0  0
 26 27  1  0  0  0
 27 28  2  0  0  0
 27 29  1  0  0  0
 29 30  1  0  0  0
 30 31  1  0  0  0
  1  4  1  0  0  0
  4  5  2  0  0  0
  5  6  1  0  0  0
  6  7  1  0  0  0
  6  8  2  0  0  0
  8  9  1  0  0  0
  9 10  2  0  0  0
 10 11  1  0  0  0
 11 12  1  0  0  0
 12 13  2  0  0  0
 12 14  1  0  0  0
 28 23  1  0  0  0
 10  4  1  0  0  0
 31 26  1  0  0  0
 14  9  1  0  0  0
 17 20  1  0  0  0
  2  3  1  0  0  0
 21 22  1  0  0  0
 30 32  1  0  0  0
 14 15  1  0  0  0
M  END
> <minimizedAffinity>
-8.54426

> <minimizedRMSD>
0.14827

$$$$
P23872


 32 36  0  0  0  0  0  0  0  0999 V2000
   -7.4291    4.8437  -15.5303 C   0  0  0  0  0  0  0  0  0  0  0  0
   -8.6730    4.3877  -15.9967 C   0  0  0  0  0  0  0  0  0  0  0  0
   -8.8784    4.1413  -17.3605 C   0  0  0  0  0  0  0  0  0  0  0  0
  -10.4596    3.8398  -17.9303 Cl  0  0  0  0  0  0  0  0  0  0  0  0
   -7.8522    4.2718  -18.2793 C   0  0  0  0  0  0  0  0  0  0  0  0
   -6.6468    4.7303  -17.8017 C   0  0  0  0  0  0  0  0  0  0  0  0
   -6.4108    5.0467  -16.4569 C   0  0  0  0  0  0  0  0  0  0  0  0
   -5.0092    5.6019  -16.3392 C   0  0  0  0  0  0  0  0  0  0  0  0
   -4.9062    7.0981  -16.0408 C   0  0  0  0  0  0  0  0  0  0  0  0
   -4.1691    7.1731  -14.7642 N   0  0  0  0  0  0  0  0  0  0  0  0
   -3.3061    6.0090  -14.8217 C   0  0  0  0  0  0  0  0  0  0  0  0
   -4.1562    4.9467  -15.3250 N   0  0  0  0  0  0  0  0  0  0  0  0
   -4.4539    5.3772  -17.7917 C   0  0  0  0  0  0  0  0  0  0  0  0
   -3.3214    5.5706  -18.2105 O   0  0  0  0  0  0  0  0  0  0  0  0
   -5.5205    4.9542  -18.5731 N   0  0  0  0  0  0  0  0  0  0  0  0
   -4.8055    7.1196  -13.9689 H   0  0  0  0  0  0  0  0  0  0  0  0
   -4.7251    4.5545  -14.5747 H   0  0  0  0  0  0  0  0  0  0  0  0
   -5.4806    4.8298  -19.5488 H   0  0  0  0  0  0  0  0  0  0  0  0
   -6.9142    6.3312  -13.8811 O   0  0  0  0  0  0  0  0  0  0  0  0
   -7.3342    5.2651  -14.1053 C   0  0  0  0  0  0  0  0  0  0  0  0
   -7.9277    4.1996  -13.1516 N   0  0  0  0  0  0  0  0  0  0  0  0
   -8.2869    3.3998  -13.5995 H   0  0  0  0  0  0  0  0  0  0  0  0
   -8.0364    4.1884  -11.7606 C   0  0  0  0  0  0  0  0  0  0  0  0
   -7.6602    5.2822  -10.9698 C   0  0  0  0  0  0  0  0  0  0  0  0
   -7.8120    5.3511   -9.6194 N   0  0  0  0  0  0  0  0  0  0  0  0
   -8.3419    4.2476   -9.0604 C   0  0  0  0  0  0  0  0  0  0  0  0
   -8.7234    3.1126   -9.7512 C   0  0  0  0  0  0  0  0  0  0  0  0
   -8.5836    3.0729  -11.1262 C   0  0  0  0  0  0  0  0  0  0  0  0
   -9.2187    2.0868   -8.7892 C   0  0  0  0  0  0  0  0  0  0  0  0
   -9.4624    2.8150   -7.5142 N   0  0  0  0  0  0  0  0  0  0  0  0
   -8.6217    4.0366   -7.5973 C   0  0  0  0  0  0  0  0  0  0  0  0
   -9.1846    2.2430   -6.7167 H   0  0  0  0  0  0  0  0  0  0  0  0
 19 20  2  0  0  0
 20 21  1  0  0  0
 21 23  1  0  0  0
 23 24  2  0  0  0
 24 25  1  0  0  0
 25 26  2  0  0  0
 26 27  1  0  0  0
 27 28  2  0  0  0
 27 29  1  0  0  0
 29 30  1  0  0  0
 30 31  1  0  0  0
 20  1  1  0  0  0
  1  2  2  0  0  0
  2  3  1  0  0  0
  3  4  1  0  0  0
  3  5  2  0  0  0
  5  6  1  0  0  0
  6  7  2  0  0  0
  7  8  1  0  0  0
  8  9  1  0  0  0
  9 10  1  0  0  0
 10 11  1  0  0  0
 11 12  1  0  0  0
  8 13  1  0  0  0
 13 14  2  0  0  0
 13 15  1  0  0  0
 28 23  1  0  0  0
  7  1  1  0  0  0
 12  8  1  0  0  0
 31 26  1  0  0  0
 15  6  1  0  0  0
 21 22  1  0  0  0
 30 32  1  0  0  0
 10 16  1  0  0  0
 12 17  1  0  0  0
 15 18  1  0  0  0
M  END
> <minimizedAffinity>
-8.82616

> <minimizedRMSD>
0.18199

$$$$
P23874


 27 30  0  0  0  0  0  0  0  0999 V2000
   -8.2874    5.3305  -13.6646 C   0  0  0  0  0  0  0  0  0  0  0  0
   -9.1202    6.1446  -13.5902 O   0  0  0  0  0  0  0  0  0  0  0  0
   -7.6458    4.4512  -12.5684 N   0  0  0  0  0  0  0  0  0  0  0  0
   -6.9004    3.8868  -12.8766 H   0  0  0  0  0  0  0  0  0  0  0  0
   -8.2028    4.3451  -17.3309 C   0  0  0  0  0  0  0  0  0  0  0  0
   -8.6510    4.5493  -16.0089 C   0  0  0  0  0  0  0  0  0  0  0  0
   -7.7735    4.9796  -15.0092 C   0  0  0  0  0  0  0  0  0  0  0  0
   -6.4512    5.1867  -15.3481 C   0  0  0  0  0  0  0  0  0  0  0  0
   -6.0276    5.0025  -16.6612 C   0  0  0  0  0  0  0  0  0  0  0  0
   -6.8740    4.5860  -17.6652 C   0  0  0  0  0  0  0  0  0  0  0  0
   -4.6697    5.2842  -16.7504 N   0  0  0  0  0  0  0  0  0  0  0  0
   -3.9382    5.2824  -17.9782 C   0  0  0  0  0  0  0  0  0  0  0  0
   -4.1326    5.6039  -15.5119 C   0  0  0  0  0  0  0  0  0  0  0  0
   -2.9586    5.8418  -15.2744 O   0  0  0  0  0  0  0  0  0  0  0  0
   -5.2856    5.6021  -14.5028 C   0  0  0  0  0  0  0  0  0  0  0  0
  -10.5869    4.2645  -18.2024 C   0  0  0  0  0  0  0  0  0  0  0  0
   -9.1581    3.8534  -18.3653 C   0  0  0  0  0  0  0  0  0  0  0  0
   -7.9499    4.3272  -11.2166 C   0  0  0  0  0  0  0  0  0  0  0  0
   -7.7461    5.3747  -10.3100 C   0  0  0  0  0  0  0  0  0  0  0  0
   -8.0231    5.3089   -8.9825 N   0  0  0  0  0  0  0  0  0  0  0  0
   -8.5033    4.1219   -8.5729 C   0  0  0  0  0  0  0  0  0  0  0  0
   -8.7421    3.0342   -9.3910 C   0  0  0  0  0  0  0  0  0  0  0  0
   -8.4773    3.1268  -10.7437 C   0  0  0  0  0  0  0  0  0  0  0  0
   -9.2933    1.9111   -8.5867 C   0  0  0  0  0  0  0  0  0  0  0  0
   -9.1543    2.3061   -7.1581 N   0  0  0  0  0  0  0  0  0  0  0  0
   -8.8694    3.7638   -7.1621 C   0  0  0  0  0  0  0  0  0  0  0  0
   -8.3859    1.7960   -6.7225 H   0  0  0  0  0  0  0  0  0  0  0  0
 16 17  1  0  0  0
 17  5  1  0  0  0
  5  6  2  0  0  0
  6  7  1  0  0  0
  7  1  1  0  0  0
  1  2  2  0  0  0
  1  3  1  0  0  0
  3 18  1  0  0  0
 18 19  2  0  0  0
 19 20  1  0  0  0
 20 21  2  0  0  0
 21 22  1  0  0  0
 22 23  2  0  0  0
 22 24  1  0  0  0
 24 25  1  0  0  0
 25 26  1  0  0  0
  7  8  2  0  0  0
  8  9  1  0  0  0
  9 10  2  0  0  0
  9 11  1  0  0  0
 11 12  1  0  0  0
 11 13  1  0  0  0
 13 14  2  0  0  0
 13 15  1  0  0  0
 10  5  1  0  0  0
 23 18  1  0  0  0
 15  8  1  0  0  0
 26 21  1  0  0  0
  3  4  1  0  0  0
 25 27  1  0  0  0
M  END
> <minimizedAffinity>
-8.82951

> <minimizedRMSD>
1.15375

$$$$
P23875


 33 37  0  0  0  0  0  0  0  0999 V2000
   -7.7137    4.1039  -11.9899 C   0  0  0  0  0  0  0  0  0  0  0  0
   -8.4897    2.9733  -11.2915 C   0  0  0  0  0  0  0  0  0  0  0  0
   -8.6183    3.2041   -9.8246 C   0  0  0  0  0  0  0  0  0  0  0  0
   -8.2868    4.3270   -9.1811 C   0  0  0  0  0  0  0  0  0  0  0  0
   -8.5280    4.1600   -7.7200 C   0  0  0  0  0  0  0  0  0  0  0  0
   -8.9740    2.7708   -7.5312 N   0  0  0  0  0  0  0  0  0  0  0  0
   -9.1221    2.1765   -8.8781 C   0  0  0  0  0  0  0  0  0  0  0  0
   -7.7146    5.5610   -9.8401 C   0  0  0  0  0  0  0  0  0  0  0  0
   -6.1825    5.5663   -9.5612 C   0  0  0  0  0  0  0  0  0  0  0  0
   -5.4263    6.7623  -10.1264 C   0  0  0  0  0  0  0  0  0  0  0  0
   -6.0579    8.2953   -9.4850 S   0  0  0  0  0  0  0  0  0  0  0  0
   -5.5375    9.3764  -10.2990 O   0  0  0  0  0  0  0  0  0  0  0  0
   -5.8661    8.2977   -8.0465 O   0  0  0  0  0  0  0  0  0  0  0  0
   -7.7989    8.1502   -9.8106 C   0  0  0  0  0  0  0  0  0  0  0  0
   -8.3648    6.8469   -9.2601 C   0  0  0  0  0  0  0  0  0  0  0  0
   -8.0209    5.4788  -11.3669 C   0  0  0  0  0  0  0  0  0  0  0  0
   -9.8681    2.7537   -7.0407 H   0  0  0  0  0  0  0  0  0  0  0  0
   -7.2750    4.9965  -14.5228 C   0  0  0  0  0  0  0  0  0  0  0  0
   -6.5050    5.8675  -14.4376 O   0  0  0  0  0  0  0  0  0  0  0  0
   -7.9353    4.1371  -13.4284 N   0  0  0  0  0  0  0  0  0  0  0  0
   -8.6184    3.5077  -13.7548 H   0  0  0  0  0  0  0  0  0  0  0  0
   -3.9494    5.3205  -18.9732 O   0  0  0  0  0  0  0  0  0  0  0  0
   -5.0472    5.1145  -18.4786 C   0  0  0  0  0  0  0  0  0  0  0  0
   -5.4067    5.2423  -16.9929 C   0  0  0  0  0  0  0  0  0  0  0  0
   -6.8329    4.7754  -16.9651 C   0  0  0  0  0  0  0  0  0  0  0  0
   -7.2386    4.4909  -18.2681 C   0  0  0  0  0  0  0  0  0  0  0  0
   -8.4999    4.0386  -18.5700 C   0  0  0  0  0  0  0  0  0  0  0  0
   -9.3768    3.8800  -17.5071 C   0  0  0  0  0  0  0  0  0  0  0  0
  -10.6312    3.4943  -17.7665 F   0  0  0  0  0  0  0  0  0  0  0  0
   -8.9967    4.1452  -16.1804 C   0  0  0  0  0  0  0  0  0  0  0  0
   -7.7050    4.6035  -15.8969 C   0  0  0  0  0  0  0  0  0  0  0  0
   -6.1954    4.7190  -19.1529 N   0  0  0  0  0  0  0  0  0  0  0  0
   -6.2601    4.6145  -20.1297 H   0  0  0  0  0  0  0  0  0  0  0  0
 22 23  2  0  0  0
 23 24  1  0  0  0
 24 25  1  0  0  0
 25 26  2  0  0  0
 26 27  1  0  0  0
 27 28  2  0  0  0
 28 29  1  0  0  0
 28 30  1  0  0  0
 30 31  2  0  0  0
 31 18  1  0  0  0
 18 19  2  0  0  0
 18 20  1  0  0  0
  1 20  1  0  0  0
  1  2  1  0  0  0
  2  3  1  0  0  0
  3  4  2  0  0  0
  4  5  1  0  0  0
  5  6  1  0  0  0
  6  7  1  0  0  0
  4  8  1  0  0  0
  8  9  1  0  0  0
  9 10  1  0  0  0
 10 11  1  0  0  0
 11 12  2  0  0  0
 11 13  2  0  0  0
 11 14  1  0  0  0
 14 15  1  0  0  0
  8 16  1  0  0  0
 26 32  1  0  0  0
 32 23  1  0  0  0
 31 25  1  0  0  0
 16  1  1  0  0  0
  7  3  1  0  0  0
 15  8  1  0  0  0
 20 21  1  0  0  0
  6 17  1  0  0  0
 32 33  1  0  0  0
M  END
> <minimizedAffinity>
-10.08747

> <minimizedRMSD>
0.29860

$$$$
P23876


 29 33  0  0  0  0  0  0  0  0999 V2000
   -8.3224    5.1344  -15.5536 C   0  0  0  0  0  0  0  0  0  0  0  0
   -8.9673    3.9665  -16.3456 C   0  0  0  0  0  0  0  0  0  0  0  0
   -8.6058    3.9434  -17.8499 C   0  0  0  0  0  0  0  0  0  0  0  0
   -7.3850    4.8087  -18.1199 C   0  0  0  0  0  0  0  0  0  0  0  0
   -6.5367    4.5120  -19.2587 N   0  0  0  0  0  0  0  0  0  0  0  0
   -5.3737    5.3765  -19.0399 C   0  0  0  0  0  0  0  0  0  0  0  0
   -5.7147    6.6788  -19.4599 O   0  0  0  0  0  0  0  0  0  0  0  0
   -5.0982    5.2536  -17.5443 C   0  0  0  0  0  0  0  0  0  0  0  0
   -5.0113    6.4810  -16.6934 C   0  0  0  0  0  0  0  0  0  0  0  0
   -4.1242    7.3227  -16.7808 O   0  0  0  0  0  0  0  0  0  0  0  0
   -6.1126    6.5494  -15.6524 C   0  0  0  0  0  0  0  0  0  0  0  0
   -6.7771    5.1672  -15.6795 C   0  0  0  0  0  0  0  0  0  0  0  0
   -6.3697    4.6116  -17.0233 C   0  0  0  0  0  0  0  0  0  0  0  0
   -7.0053    4.7431  -20.1347 H   0  0  0  0  0  0  0  0  0  0  0  0
   -6.5125    6.9709  -18.9918 H   0  0  0  0  0  0  0  0  0  0  0  0
   -9.7119    6.1052  -13.9226 O   0  0  0  0  0  0  0  0  0  0  0  0
   -8.8094    5.3810  -14.1036 C   0  0  0  0  0  0  0  0  0  0  0  0
   -8.0174    4.4878  -13.1047 N   0  0  0  0  0  0  0  0  0  0  0  0
   -7.3418    3.9043  -13.5197 H   0  0  0  0  0  0  0  0  0  0  0  0
   -8.1095    4.3797  -11.7158 C   0  0  0  0  0  0  0  0  0  0  0  0
   -7.8133    5.4513  -10.8630 C   0  0  0  0  0  0  0  0  0  0  0  0
   -7.9459    5.4261   -9.5089 N   0  0  0  0  0  0  0  0  0  0  0  0
   -8.4013    4.2614   -9.0154 C   0  0  0  0  0  0  0  0  0  0  0  0
   -8.7241    3.1500   -9.7733 C   0  0  0  0  0  0  0  0  0  0  0  0
   -8.5720    3.1909  -11.1481 C   0  0  0  0  0  0  0  0  0  0  0  0
   -9.1989    2.0622   -8.8723 C   0  0  0  0  0  0  0  0  0  0  0  0
   -9.5001    2.7174   -7.5712 N   0  0  0  0  0  0  0  0  0  0  0  0
   -8.6823    3.9576   -7.5685 C   0  0  0  0  0  0  0  0  0  0  0  0
   -9.2354    2.1114   -6.7946 H   0  0  0  0  0  0  0  0  0  0  0  0
 16 17  2  0  0  0
 17 18  1  0  0  0
 18 20  1  0  0  0
 20 21  2  0  0  0
 21 22  1  0  0  0
 22 23  2  0  0  0
 23 24  1  0  0  0
 24 25  2  0  0  0
 24 26  1  0  0  0
 26 27  1  0  0  0
 27 28  1  0  0  0
  1 17  1  0  0  0
  1  2  1  0  0  0
  2  3  1  0  0  0
  4  3  1  0  0  0
  4  5  1  0  0  0
  5  6  1  0  0  0
  6  7  1  0  0  0
  6  8  1  0  0  0
  8  9  1  0  0  0
  9 10  2  0  0  0
  9 11  1  0  0  0
 12 11  1  0  0  0
 12 13  1  0  0  0
 25 20  1  0  0  0
 12  1  1  0  0  0
 28 23  1  0  0  0
 13  4  1  0  0  0
 13  8  1  0  0  0
 18 19  1  0  0  0
 27 29  1  0  0  0
  5 14  1  0  0  0
  7 15  1  0  0  0
M  END
> <minimizedAffinity>
-9.34844

> <minimizedRMSD>
0.86842

$$$$
P23877


 34 38  0  0  0  0  0  0  0  0999 V2000
   -5.5873    6.9516   -9.6178 C   0  0  0  0  0  0  0  0  0  0  0  0
   -6.1805    5.5409   -9.5275 C   0  0  0  0  0  0  0  0  0  0  0  0
   -7.7050    5.5275   -9.8273 C   0  0  0  0  0  0  0  0  0  0  0  0
   -8.3382    6.8455   -9.3063 C   0  0  0  0  0  0  0  0  0  0  0  0
   -7.5090    7.4860   -8.1968 C   0  0  0  0  0  0  0  0  0  0  0  0
   -6.1798    7.8765   -8.6597 N   0  0  0  0  0  0  0  0  0  0  0  0
   -7.9715    5.4570  -11.3639 C   0  0  0  0  0  0  0  0  0  0  0  0
   -7.6577    4.0890  -11.9988 C   0  0  0  0  0  0  0  0  0  0  0  0
   -8.4206    2.9420  -11.3110 C   0  0  0  0  0  0  0  0  0  0  0  0
   -8.5919    3.1656   -9.8497 C   0  0  0  0  0  0  0  0  0  0  0  0
   -8.3025    4.2926   -9.1918 C   0  0  0  0  0  0  0  0  0  0  0  0
   -8.5733    4.1026   -7.7378 C   0  0  0  0  0  0  0  0  0  0  0  0
   -9.2549    2.8046   -7.6252 N   0  0  0  0  0  0  0  0  0  0  0  0
   -9.0550    2.1084   -8.9115 C   0  0  0  0  0  0  0  0  0  0  0  0
   -5.5633    7.9367   -7.8493 H   0  0  0  0  0  0  0  0  0  0  0  0
  -10.2504    2.9441   -7.4518 H   0  0  0  0  0  0  0  0  0  0  0  0
   -7.8973    4.1211  -13.4367 N   0  0  0  0  0  0  0  0  0  0  0  0
   -7.3246    5.0470  -14.5259 C   0  0  0  0  0  0  0  0  0  0  0  0
   -6.6305    5.9791  -14.4367 O   0  0  0  0  0  0  0  0  0  0  0  0
   -8.5279    3.4399  -13.7647 H   0  0  0  0  0  0  0  0  0  0  0  0
   -7.7449    4.6368  -15.8966 C   0  0  0  0  0  0  0  0  0  0  0  0
   -9.0358    4.1756  -16.1782 C   0  0  0  0  0  0  0  0  0  0  0  0
   -9.4081    3.8874  -17.5013 C   0  0  0  0  0  0  0  0  0  0  0  0
  -10.6593    3.4897  -17.7554 F   0  0  0  0  0  0  0  0  0  0  0  0
   -8.5279    4.0321  -18.5639 C   0  0  0  0  0  0  0  0  0  0  0  0
   -7.2671    4.4870  -18.2626 C   0  0  0  0  0  0  0  0  0  0  0  0
   -6.8671    4.7897  -16.9619 C   0  0  0  0  0  0  0  0  0  0  0  0
   -5.4382    5.2470  -16.9869 C   0  0  0  0  0  0  0  0  0  0  0  0
   -5.0716    5.0964  -18.4687 C   0  0  0  0  0  0  0  0  0  0  0  0
   -3.9700    5.2892  -18.9603 O   0  0  0  0  0  0  0  0  0  0  0  0
   -6.2181    4.6979  -19.1444 N   0  0  0  0  0  0  0  0  0  0  0  0
   -6.2778    4.5808  -20.1201 H   0  0  0  0  0  0  0  0  0  0  0  0
   -3.4192    7.7642  -10.1003 C   0  0  0  0  0  0  0  0  0  0  0  0
   -4.1938    6.8495   -9.3350 O   0  0  0  0  0  0  0  0  0  0  0  0
 33 34  1  0  0  0
  1 34  1  0  0  0
  1  2  1  0  0  0
  3  2  1  0  0  0
  3  4  1  0  0  0
  4  5  1  0  0  0
  5  6  1  0  0  0
  3  7  1  0  0  0
  7  8  1  0  0  0
  8 17  1  0  0  0
 17 18  1  0  0  0
 18 19  2  0  0  0
 18 21  1  0  0  0
 21 22  2  0  0  0
 22 23  1  0  0  0
 23 24  1  0  0  0
 23 25  2  0  0  0
 25 26  1  0  0  0
 26 27  2  0  0  0
 27 28  1  0  0  0
 28 29  1  0  0  0
 29 30  2  0  0  0
 29 31  1  0  0  0
  8  9  1  0  0  0
  9 10  1  0  0  0
 10 11  2  0  0  0
 11 12  1  0  0  0
 12 13  1  0  0  0
 13 14  1  0  0  0
  6  1  1  0  0  0
 27 21  1  0  0  0
 14 10  1  0  0  0
 11  3  1  0  0  0
 31 26  1  0  0  0
  6 15  1  0  0  0
 17 20  1  0  0  0
 31 32  1  0  0  0
 13 16  1  0  0  0
M  END
> <minimizedAffinity>
-9.39871

> <minimizedRMSD>
0.32541

$$$$
P23878


 28 31  0  0  0  0  0  0  0  0999 V2000
   -8.2077    4.2459  -13.5049 N   0  0  0  0  0  0  0  0  0  0  0  0
   -7.1824    4.7180  -14.5659 C   0  0  0  0  0  0  0  0  0  0  0  0
   -6.1519    5.2510  -14.4371 O   0  0  0  0  0  0  0  0  0  0  0  0
   -8.9758    3.7477  -13.8670 H   0  0  0  0  0  0  0  0  0  0  0  0
   -7.6345    4.4501  -15.9646 C   0  0  0  0  0  0  0  0  0  0  0  0
   -8.9524    4.0748  -16.2518 C   0  0  0  0  0  0  0  0  0  0  0  0
   -9.3876    3.9587  -17.5817 C   0  0  0  0  0  0  0  0  0  0  0  0
  -10.6657    3.6492  -17.8276 F   0  0  0  0  0  0  0  0  0  0  0  0
   -8.5404    4.1877  -18.6528 C   0  0  0  0  0  0  0  0  0  0  0  0
   -7.2533    4.5609  -18.3513 C   0  0  0  0  0  0  0  0  0  0  0  0
   -6.7906    4.6977  -17.0413 C   0  0  0  0  0  0  0  0  0  0  0  0
   -5.3507    5.1238  -17.0822 C   0  0  0  0  0  0  0  0  0  0  0  0
   -5.0526    5.1356  -18.5895 C   0  0  0  0  0  0  0  0  0  0  0  0
   -3.9712    5.3567  -19.1131 O   0  0  0  0  0  0  0  0  0  0  0  0
   -6.2379    4.8436  -19.2510 N   0  0  0  0  0  0  0  0  0  0  0  0
   -6.3431    4.8381  -20.2299 H   0  0  0  0  0  0  0  0  0  0  0  0
   -8.0242    5.6232  -11.4052 C   0  0  0  0  0  0  0  0  0  0  0  0
   -8.0237    5.7217  -10.0377 N   0  0  0  0  0  0  0  0  0  0  0  0
   -8.2504    4.5766   -9.3747 C   0  0  0  0  0  0  0  0  0  0  0  0
   -8.4925    3.3576   -9.9704 C   0  0  0  0  0  0  0  0  0  0  0  0
   -8.4736    3.2605  -11.3494 C   0  0  0  0  0  0  0  0  0  0  0  0
   -8.2198    4.4132  -12.1081 C   0  0  0  0  0  0  0  0  0  0  0  0
   -8.7299    2.3271   -8.9172 C   0  0  0  0  0  0  0  0  0  0  0  0
   -8.9720    3.0899   -7.6626 N   0  0  0  0  0  0  0  0  0  0  0  0
   -8.3365    4.4119   -7.8817 C   0  0  0  0  0  0  0  0  0  0  0  0
   -8.5448    2.6152   -6.8673 H   0  0  0  0  0  0  0  0  0  0  0  0
   -8.0474    7.9165  -12.6347 N   0  0  0  0  0  0  0  0  0  0  0  0
   -8.0263    6.9182  -12.0358 C   0  0  0  0  0  0  0  0  0  0  0  0
 27 28  3  0  0  0
 28 17  1  0  0  0
 17 18  2  0  0  0
 18 19  1  0  0  0
 19 20  2  0  0  0
 20 21  1  0  0  0
 21 22  2  0  0  0
 22  1  1  0  0  0
  1  2  1  0  0  0
  2  3  2  0  0  0
  2  5  1  0  0  0
  5  6  2  0  0  0
  6  7  1  0  0  0
  7  8  1  0  0  0
  7  9  2  0  0  0
  9 10  1  0  0  0
 10 11  2  0  0  0
 11 12  1  0  0  0
 12 13  1  0  0  0
 13 14  2  0  0  0
 13 15  1  0  0  0
 20 23  1  0  0  0
 23 24  1  0  0  0
 24 25  1  0  0  0
 22 17  1  0  0  0
 11  5  1  0  0  0
 25 19  1  0  0  0
 15 10  1  0  0  0
  1  4  1  0  0  0
 15 16  1  0  0  0
 24 26  1  0  0  0
M  END
> <minimizedAffinity>
-8.99630

> <minimizedRMSD>
0.44294

$$$$
P23880


 35 38  0  0  0  0  0  0  0  0999 V2000
   -6.6732    5.1196  -13.4811 C   0  0  0  0  0  0  0  0  0  0  0  0
   -6.6169    6.5314  -13.3755 O   0  0  0  0  0  0  0  0  0  0  0  0
   -7.3900    6.9195  -13.8143 H   0  0  0  0  0  0  0  0  0  0  0  0
   -2.6702    5.8462  -17.5631 O   0  0  0  0  0  0  0  0  0  0  0  0
   -3.8076    5.5867  -17.2044 C   0  0  0  0  0  0  0  0  0  0  0  0
   -4.3361    5.5745  -15.7629 C   0  0  0  0  0  0  0  0  0  0  0  0
   -5.7614    5.1138  -15.9232 C   0  0  0  0  0  0  0  0  0  0  0  0
   -5.9904    4.9479  -17.2992 C   0  0  0  0  0  0  0  0  0  0  0  0
   -7.1903    4.5680  -17.8341 C   0  0  0  0  0  0  0  0  0  0  0  0
   -8.2258    4.3883  -16.9411 C   0  0  0  0  0  0  0  0  0  0  0  0
   -9.9437    4.1628  -17.6528 Br  0  0  0  0  0  0  0  0  0  0  0  0
   -8.0336    4.5173  -15.5532 C   0  0  0  0  0  0  0  0  0  0  0  0
   -6.7775    4.8766  -14.9931 C   0  0  0  0  0  0  0  0  0  0  0  0
   -4.8564    5.2430  -18.0330 N   0  0  0  0  0  0  0  0  0  0  0  0
   -4.8040    5.2120  -19.0156 H   0  0  0  0  0  0  0  0  0  0  0  0
   -5.4162    4.4158  -12.7714 C   0  0  0  0  0  0  0  0  0  0  0  0
   -5.2379    3.2611  -12.7494 O   0  0  0  0  0  0  0  0  0  0  0  0
   -4.5586    5.5797  -12.1926 N   0  0  0  0  0  0  0  0  0  0  0  0
   -4.8873    6.4819  -12.4100 H   0  0  0  0  0  0  0  0  0  0  0  0
   -3.3583    5.5502  -11.3878 C   0  0  0  0  0  0  0  0  0  0  0  0
   -2.2571    4.6559  -11.9495 C   0  0  0  0  0  0  0  0  0  0  0  0
   -1.0567    5.0528  -11.4516 F   0  0  0  0  0  0  0  0  0  0  0  0
   -2.1824    4.8183  -13.2980 F   0  0  0  0  0  0  0  0  0  0  0  0
   -7.9167    4.6996  -12.8186 N   0  0  0  0  0  0  0  0  0  0  0  0
   -8.6990    4.4971  -13.3809 H   0  0  0  0  0  0  0  0  0  0  0  0
   -8.0480    4.5719  -11.4249 C   0  0  0  0  0  0  0  0  0  0  0  0
   -7.9143    5.6152  -10.4891 C   0  0  0  0  0  0  0  0  0  0  0  0
   -8.1372    5.5262   -9.1492 N   0  0  0  0  0  0  0  0  0  0  0  0
   -8.5307    4.3119   -8.7314 C   0  0  0  0  0  0  0  0  0  0  0  0
   -8.7211    3.2207   -9.5519 C   0  0  0  0  0  0  0  0  0  0  0  0
   -8.4973    3.3460  -10.9109 C   0  0  0  0  0  0  0  0  0  0  0  0
   -9.1457    2.0473   -8.7369 C   0  0  0  0  0  0  0  0  0  0  0  0
   -9.5407    2.6004   -7.4116 N   0  0  0  0  0  0  0  0  0  0  0  0
   -8.8538    3.9131   -7.3178 C   0  0  0  0  0  0  0  0  0  0  0  0
   -9.2348    1.9820   -6.6604 H   0  0  0  0  0  0  0  0  0  0  0  0
  4  5  2  0  0  0
  5  6  1  0  0  0
  6  7  1  0  0  0
  7  8  2  0  0  0
  8  9  1  0  0  0
  9 10  2  0  0  0
 10 11  1  0  0  0
 10 12  1  0  0  0
 12 13  2  0  0  0
 13  1  1  0  0  0
  1  2  1  0  0  0
  1 24  1  0  0  0
 24 26  1  0  0  0
 26 27  2  0  0  0
 27 28  1  0  0  0
 28 29  2  0  0  0
 29 30  1  0  0  0
 30 31  2  0  0  0
 30 32  1  0  0  0
 32 33  1  0  0  0
 33 34  1  0  0  0
  1 16  1  0  0  0
 16 17  2  0  0  0
 16 18  1  0  0  0
 18 20  1  0  0  0
 20 21  1  0  0  0
 21 22  1  0  0  0
 21 23  1  0  0  0
  8 14  1  0  0  0
 14  5  1  0  0  0
 13  7  1  0  0  0
 31 26  1  0  0  0
 34 29  1  0  0  0
  2  3  1  0  0  0
 24 25  1  0  0  0
 33 35  1  0  0  0
 18 19  1  0  0  0
 14 15  1  0  0  0
M  END
> <minimizedAffinity>
-7.51137

> <minimizedRMSD>
0.99313

$$$$
P23883


 37 40  0  0  0  0  0  0  0  0999 V2000
   -6.7424    5.1224  -13.5176 C   0  0  0  0  0  0  0  0  0  0  0  0
   -6.7834    6.5399  -13.3450 O   0  0  0  0  0  0  0  0  0  0  0  0
   -7.5787    6.8947  -13.7723 H   0  0  0  0  0  0  0  0  0  0  0  0
   -4.3711    5.5857  -15.8671 C   0  0  0  0  0  0  0  0  0  0  0  0
   -3.8548    5.4701  -17.3234 C   0  0  0  0  0  0  0  0  0  0  0  0
   -2.7142    5.6548  -17.7182 O   0  0  0  0  0  0  0  0  0  0  0  0
   -4.9286    5.1434  -18.1206 N   0  0  0  0  0  0  0  0  0  0  0  0
   -6.0569    4.9064  -17.3608 C   0  0  0  0  0  0  0  0  0  0  0  0
   -7.2625    4.5235  -17.8815 C   0  0  0  0  0  0  0  0  0  0  0  0
   -8.2947    4.3742  -16.9821 C   0  0  0  0  0  0  0  0  0  0  0  0
  -10.0142    4.1516  -17.6898 Br  0  0  0  0  0  0  0  0  0  0  0  0
   -8.0920    4.5293  -15.5990 C   0  0  0  0  0  0  0  0  0  0  0  0
   -6.8285    4.8872  -15.0480 C   0  0  0  0  0  0  0  0  0  0  0  0
   -5.8140    5.1196  -15.9899 C   0  0  0  0  0  0  0  0  0  0  0  0
   -4.8962    5.0863  -19.1029 H   0  0  0  0  0  0  0  0  0  0  0  0
   -2.9500    7.3132  -14.6702 C   0  0  0  0  0  0  0  0  0  0  0  0
   -4.2537    7.0444  -15.4107 C   0  0  0  0  0  0  0  0  0  0  0  0
   -5.4292    4.4886  -12.8187 C   0  0  0  0  0  0  0  0  0  0  0  0
   -5.1384    3.3583  -12.8782 O   0  0  0  0  0  0  0  0  0  0  0  0
   -4.7270    5.6735  -12.0924 N   0  0  0  0  0  0  0  0  0  0  0  0
   -5.1307    6.5561  -12.2577 H   0  0  0  0  0  0  0  0  0  0  0  0
   -3.5781    5.6879  -11.2146 C   0  0  0  0  0  0  0  0  0  0  0  0
   -3.3894    7.0069  -10.4772 C   0  0  0  0  0  0  0  0  0  0  0  0
   -4.5325    7.3470   -9.8282 F   0  0  0  0  0  0  0  0  0  0  0  0
   -3.1397    8.0072  -11.3607 F   0  0  0  0  0  0  0  0  0  0  0  0
   -7.9363    4.5391  -12.8768 N   0  0  0  0  0  0  0  0  0  0  0  0
   -8.6553    4.1890  -13.4510 H   0  0  0  0  0  0  0  0  0  0  0  0
   -8.0915    4.4618  -11.4839 C   0  0  0  0  0  0  0  0  0  0  0  0
   -7.9940    5.5424  -10.5886 C   0  0  0  0  0  0  0  0  0  0  0  0
   -8.1565    5.4869   -9.2361 N   0  0  0  0  0  0  0  0  0  0  0  0
   -8.5158    4.2791   -8.7743 C   0  0  0  0  0  0  0  0  0  0  0  0
   -8.7323    3.1671   -9.5603 C   0  0  0  0  0  0  0  0  0  0  0  0
   -8.5195    3.2483  -10.9247 C   0  0  0  0  0  0  0  0  0  0  0  0
   -9.1825    2.0296   -8.7085 C   0  0  0  0  0  0  0  0  0  0  0  0
   -9.5340    2.6298   -7.3892 N   0  0  0  0  0  0  0  0  0  0  0  0
   -8.7920    3.9145   -7.3423 C   0  0  0  0  0  0  0  0  0  0  0  0
   -9.2406    2.0182   -6.6274 H   0  0  0  0  0  0  0  0  0  0  0  0
 16 17  1  0  0  0
  4 17  1  0  0  0
  4  5  1  0  0  0
  5  6  2  0  0  0
  5  7  1  0  0  0
  7  8  1  0  0  0
  8  9  2  0  0  0
  9 10  1  0  0  0
 10 11  1  0  0  0
 10 12  2  0  0  0
 12 13  1  0  0  0
 13  1  1  0  0  0
  1  2  1  0  0  0
  1 26  1  0  0  0
 26 28  1  0  0  0
 28 29  2  0  0  0
 29 30  1  0  0  0
 30 31  2  0  0  0
 31 32  1  0  0  0
 32 33  2  0  0  0
 32 34  1  0  0  0
 34 35  1  0  0  0
 35 36  1  0  0  0
  1 18  1  0  0  0
 18 19  2  0  0  0
 18 20  1  0  0  0
 20 22  1  0  0  0
 22 23  1  0  0  0
 23 24  1  0  0  0
 23 25  1  0  0  0
 13 14  2  0  0  0
 14  4  1  0  0  0
 14  8  1  0  0  0
 33 28  1  0  0  0
 36 31  1  0  0  0
  7 15  1  0  0  0
  2  3  1  0  0  0
 26 27  1  0  0  0
 35 37  1  0  0  0
 20 21  1  0  0  0
M  END
> <minimizedAffinity>
-7.27117

> <minimizedRMSD>
0.83127

$$$$
P23884


 26 29  0  0  0  0  0  0  0  0999 V2000
   -7.3681    5.0284  -14.5303 C   0  0  0  0  0  0  0  0  0  0  0  0
   -6.7128    5.9868  -14.3996 O   0  0  0  0  0  0  0  0  0  0  0  0
   -8.0194    4.1052  -13.4701 N   0  0  0  0  0  0  0  0  0  0  0  0
   -8.4656    3.3077  -13.8364 H   0  0  0  0  0  0  0  0  0  0  0  0
   -3.9520    5.3173  -19.0134 O   0  0  0  0  0  0  0  0  0  0  0  0
   -5.0402    5.1143  -18.4981 C   0  0  0  0  0  0  0  0  0  0  0  0
   -5.3904    5.2266  -17.0020 C   0  0  0  0  0  0  0  0  0  0  0  0
   -6.8221    4.7773  -16.9732 C   0  0  0  0  0  0  0  0  0  0  0  0
   -7.2291    4.5052  -18.2819 C   0  0  0  0  0  0  0  0  0  0  0  0
   -8.4899    4.0662  -18.6029 C   0  0  0  0  0  0  0  0  0  0  0  0
   -9.3687    3.8915  -17.5476 C   0  0  0  0  0  0  0  0  0  0  0  0
  -10.6180    3.4951  -17.8106 F   0  0  0  0  0  0  0  0  0  0  0  0
   -8.9972    4.1510  -16.2203 C   0  0  0  0  0  0  0  0  0  0  0  0
   -7.7087    4.6072  -15.9190 C   0  0  0  0  0  0  0  0  0  0  0  0
   -6.1920    4.7329  -19.1689 N   0  0  0  0  0  0  0  0  0  0  0  0
   -6.2625    4.6370  -20.1461 H   0  0  0  0  0  0  0  0  0  0  0  0
   -8.0765    4.2204  -12.0767 C   0  0  0  0  0  0  0  0  0  0  0  0
   -7.6995    5.3797  -11.3866 C   0  0  0  0  0  0  0  0  0  0  0  0
   -7.7559    5.5327  -10.0324 N   0  0  0  0  0  0  0  0  0  0  0  0
   -8.1853    4.4464   -9.3632 C   0  0  0  0  0  0  0  0  0  0  0  0
   -8.5682    3.2558   -9.9505 C   0  0  0  0  0  0  0  0  0  0  0  0
   -8.5274    3.1322  -11.3278 C   0  0  0  0  0  0  0  0  0  0  0  0
   -8.9354    2.2729   -8.8914 C   0  0  0  0  0  0  0  0  0  0  0  0
   -9.1130    3.0698   -7.6466 N   0  0  0  0  0  0  0  0  0  0  0  0
   -8.3289    4.3124   -7.8705 C   0  0  0  0  0  0  0  0  0  0  0  0
   -8.7537    2.5595   -6.8399 H   0  0  0  0  0  0  0  0  0  0  0  0
  5  6  2  0  0  0
  6  7  1  0  0  0
  7  8  1  0  0  0
  8  9  2  0  0  0
  9 10  1  0  0  0
 10 11  2  0  0  0
 11 12  1  0  0  0
 11 13  1  0  0  0
 13 14  2  0  0  0
 14  1  1  0  0  0
  1  2  2  0  0  0
  1  3  1  0  0  0
  3 17  1  0  0  0
 17 18  2  0  0  0
 18 19  1  0  0  0
 19 20  2  0  0  0
 20 21  1  0  0  0
 21 22  2  0  0  0
 21 23  1  0  0  0
 23 24  1  0  0  0
 24 25  1  0  0  0
  9 15  1  0  0  0
 15  6  1  0  0  0
 14  8  1  0  0  0
 22 17  1  0  0  0
 25 20  1  0  0  0
  3  4  1  0  0  0
 24 26  1  0  0  0
 15 16  1  0  0  0
M  END
> <minimizedAffinity>
-9.31318

> <minimizedRMSD>
0.64632

$$$$
P23885


 31 34  0  0  0  0  0  0  0  0999 V2000
   -8.0171    4.2323  -12.9303 N   0  0  0  0  0  0  0  0  0  0  0  0
   -7.1827    5.1769  -13.8274 C   0  0  0  0  0  0  0  0  0  0  0  0
   -6.5618    6.1270  -13.5542 O   0  0  0  0  0  0  0  0  0  0  0  0
   -8.5157    3.5362  -13.4162 H   0  0  0  0  0  0  0  0  0  0  0  0
   -7.3110    4.8186  -15.2637 C   0  0  0  0  0  0  0  0  0  0  0  0
   -8.5623    4.4582  -15.7770 C   0  0  0  0  0  0  0  0  0  0  0  0
   -8.7414    4.3020  -17.1601 C   0  0  0  0  0  0  0  0  0  0  0  0
  -10.3206    4.0989  -17.7762 Cl  0  0  0  0  0  0  0  0  0  0  0  0
   -7.6902    4.4429  -18.0534 C   0  0  0  0  0  0  0  0  0  0  0  0
   -6.4777    4.8037  -17.5223 C   0  0  0  0  0  0  0  0  0  0  0  0
   -6.2689    5.0019  -16.1578 C   0  0  0  0  0  0  0  0  0  0  0  0
   -4.8424    5.4125  -15.9418 C   0  0  0  0  0  0  0  0  0  0  0  0
   -4.2713    5.3630  -17.3697 C   0  0  0  0  0  0  0  0  0  0  0  0
   -3.1144    5.5582  -17.7054 O   0  0  0  0  0  0  0  0  0  0  0  0
   -5.3124    5.0416  -18.2264 N   0  0  0  0  0  0  0  0  0  0  0  0
   -5.2325    4.9896  -19.2063 H   0  0  0  0  0  0  0  0  0  0  0  0
   -8.8671    4.0012   -7.3918 C   0  0  0  0  0  0  0  0  0  0  0  0
   -9.0003    2.5189   -7.2363 N   0  0  0  0  0  0  0  0  0  0  0  0
   -9.1711    1.9725   -8.6087 C   0  0  0  0  0  0  0  0  0  0  0  0
   -8.7429    3.0458   -9.5462 C   0  0  0  0  0  0  0  0  0  0  0  0
   -8.5689    3.0237  -10.9189 C   0  0  0  0  0  0  0  0  0  0  0  0
   -8.1780    4.2065  -11.5455 C   0  0  0  0  0  0  0  0  0  0  0  0
   -7.9981    5.3478  -10.7554 C   0  0  0  0  0  0  0  0  0  0  0  0
   -8.1900    5.3941   -9.4105 N   0  0  0  0  0  0  0  0  0  0  0  0
   -8.5488    4.2251   -8.8520 C   0  0  0  0  0  0  0  0  0  0  0  0
   -9.8134    2.2951   -6.6626 H   0  0  0  0  0  0  0  0  0  0  0  0
   -7.8180    4.5775   -6.4490 C   0  0  0  0  0  0  0  0  0  0  0  0
   -8.0142    6.1746   -4.6386 O   0  0  0  0  0  0  0  0  0  0  0  0
   -8.2618    5.8529   -5.7915 C   0  0  0  0  0  0  0  0  0  0  0  0
   -9.0688    6.6188   -6.5482 O   0  0  0  0  0  0  0  0  0  0  0  0
   -9.2573    6.3703   -7.4318 H   0  0  0  0  0  0  0  0  0  0  0  0
 28 29  2  0  0  0
 29 30  1  0  0  0
 29 27  1  0  0  0
 17 27  1  0  0  0
 17 18  1  0  0  0
 18 19  1  0  0  0
 19 20  1  0  0  0
 20 21  2  0  0  0
 21 22  1  0  0  0
 22  1  1  0  0  0
  1  2  1  0  0  0
  2  3  2  0  0  0
  2  5  1  0  0  0
  5  6  2  0  0  0
  6  7  1  0  0  0
  7  8  1  0  0  0
  7  9  2  0  0  0
  9 10  1  0  0  0
 10 11  2  0  0  0
 11 12  1  0  0  0
 12 13  1  0  0  0
 13 14  2  0  0  0
 13 15  1  0  0  0
 22 23  2  0  0  0
 23 24  1  0  0  0
 24 25  2  0  0  0
 25 17  1  0  0  0
 25 20  1  0  0  0
 11  5  1  0  0  0
 15 10  1  0  0  0
 30 31  1  0  0  0
 18 26  1  0  0  0
  1  4  1  0  0  0
 15 16  1  0  0  0
M  END
> <minimizedAffinity>
-8.52754

> <minimizedRMSD>
0.68406

$$$$
P23887


 28 31  0  0  0  0  0  0  0  0999 V2000
   -8.0337    4.0868  -13.4624 N   0  0  0  0  0  0  0  0  0  0  0  0
   -7.3906    5.0176  -14.5201 C   0  0  0  0  0  0  0  0  0  0  0  0
   -6.7454    5.9821  -14.3872 O   0  0  0  0  0  0  0  0  0  0  0  0
   -8.4715    3.2854  -13.8303 H   0  0  0  0  0  0  0  0  0  0  0  0
   -7.7229    4.5972  -15.9099 C   0  0  0  0  0  0  0  0  0  0  0  0
   -9.0082    4.1454  -16.2262 C   0  0  0  0  0  0  0  0  0  0  0  0
   -9.3663    3.8998  -17.5598 C   0  0  0  0  0  0  0  0  0  0  0  0
  -10.6165    3.5168  -17.8359 F   0  0  0  0  0  0  0  0  0  0  0  0
   -8.4736    4.0739  -18.6045 C   0  0  0  0  0  0  0  0  0  0  0  0
   -7.2147    4.5110  -18.2693 C   0  0  0  0  0  0  0  0  0  0  0  0
   -6.8261    4.7743  -16.9539 C   0  0  0  0  0  0  0  0  0  0  0  0
   -5.3955    5.2267  -16.9541 C   0  0  0  0  0  0  0  0  0  0  0  0
   -5.0191    5.1235  -18.4423 C   0  0  0  0  0  0  0  0  0  0  0  0
   -3.9182    5.3304  -18.9289 O   0  0  0  0  0  0  0  0  0  0  0  0
   -6.1606    4.7461  -19.1365 N   0  0  0  0  0  0  0  0  0  0  0  0
   -6.2138    4.6574  -20.1156 H   0  0  0  0  0  0  0  0  0  0  0  0
   -8.4847    4.3549   -7.8670 C   0  0  0  0  0  0  0  0  0  0  0  0
   -8.7113    2.9098   -7.5863 N   0  0  0  0  0  0  0  0  0  0  0  0
   -9.0350    2.2853   -8.8955 C   0  0  0  0  0  0  0  0  0  0  0  0
   -8.5934    3.2482   -9.9415 C   0  0  0  0  0  0  0  0  0  0  0  0
   -8.5399    3.1125  -11.3183 C   0  0  0  0  0  0  0  0  0  0  0  0
   -8.0937    4.1995  -12.0702 C   0  0  0  0  0  0  0  0  0  0  0  0
   -7.7339    5.3675  -11.3862 C   0  0  0  0  0  0  0  0  0  0  0  0
   -7.8114    5.5319  -10.0351 N   0  0  0  0  0  0  0  0  0  0  0  0
   -8.2337    4.4483   -9.3566 C   0  0  0  0  0  0  0  0  0  0  0  0
   -9.4881    2.7924   -6.9357 H   0  0  0  0  0  0  0  0  0  0  0  0
   -7.4597    4.5626   -5.5450 C   0  0  0  0  0  0  0  0  0  0  0  0
   -7.3764    4.9656   -7.0115 C   0  0  0  0  0  0  0  0  0  0  0  0
 27 28  1  0  0  0
 17 28  1  0  0  0
 17 18  1  0  0  0
 18 19  1  0  0  0
 19 20  1  0  0  0
 20 21  2  0  0  0
 21 22  1  0  0  0
 22  1  1  0  0  0
  1  2  1  0  0  0
  2  3  2  0  0  0
  2  5  1  0  0  0
  5  6  2  0  0  0
  6  7  1  0  0  0
  7  8  1  0  0  0
  7  9  2  0  0  0
  9 10  1  0  0  0
 10 11  2  0  0  0
 11 12  1  0  0  0
 12 13  1  0  0  0
 13 14  2  0  0  0
 13 15  1  0  0  0
 22 23  2  0  0  0
 23 24  1  0  0  0
 24 25  2  0  0  0
 25 17  1  0  0  0
 25 20  1  0  0  0
 11  5  1  0  0  0
 15 10  1  0  0  0
 18 26  1  0  0  0
  1  4  1  0  0  0
 15 16  1  0  0  0
M  END
> <minimizedAffinity>
-9.41539

> <minimizedRMSD>
0.36703

$$$$
P23888


 29 32  0  0  0  0  0  0  0  0999 V2000
   -5.1788    5.1082  -17.7543 N   0  0  0  0  0  0  0  0  0  0  0  0
   -4.2866    5.3791  -16.7238 C   0  0  0  0  0  0  0  0  0  0  0  0
   -3.0771    5.5214  -16.8229 O   0  0  0  0  0  0  0  0  0  0  0  0
   -5.1000    5.4418  -15.4306 C   0  0  0  0  0  0  0  0  0  0  0  0
   -6.4733    5.0473  -15.8906 C   0  0  0  0  0  0  0  0  0  0  0  0
   -7.6454    4.8923  -15.1672 C   0  0  0  0  0  0  0  0  0  0  0  0
   -8.8000    4.4943  -15.8471 C   0  0  0  0  0  0  0  0  0  0  0  0
   -8.7608    4.3030  -17.2362 C   0  0  0  0  0  0  0  0  0  0  0  0
  -10.2071    4.0216  -18.1046 Cl  0  0  0  0  0  0  0  0  0  0  0  0
   -7.5867    4.4670  -17.9614 C   0  0  0  0  0  0  0  0  0  0  0  0
   -6.4591    4.8478  -17.2674 C   0  0  0  0  0  0  0  0  0  0  0  0
   -5.3641    6.1828  -19.8205 N   0  0  0  0  0  0  0  0  0  0  0  0
   -4.7907    5.0470  -19.1190 C   0  0  0  0  0  0  0  0  0  0  0  0
   -5.0914    6.1488  -20.8028 H   0  0  0  0  0  0  0  0  0  0  0  0
   -5.0224    7.0483  -19.4026 H   0  0  0  0  0  0  0  0  0  0  0  0
   -7.6979    5.3237  -13.7501 C   0  0  0  0  0  0  0  0  0  0  0  0
   -7.5024    6.4509  -13.5233 O   0  0  0  0  0  0  0  0  0  0  0  0
   -7.9858    4.1474  -12.7957 N   0  0  0  0  0  0  0  0  0  0  0  0
   -8.0406    3.2666  -13.2320 H   0  0  0  0  0  0  0  0  0  0  0  0
   -8.1808    4.1282  -11.4180 C   0  0  0  0  0  0  0  0  0  0  0  0
   -7.9051    5.2478  -10.6203 C   0  0  0  0  0  0  0  0  0  0  0  0
   -8.0576    5.2933   -9.2719 N   0  0  0  0  0  0  0  0  0  0  0  0
   -8.4882    4.1438   -8.7248 C   0  0  0  0  0  0  0  0  0  0  0  0
   -8.7882    2.9915   -9.4262 C   0  0  0  0  0  0  0  0  0  0  0  0
   -8.6452    2.9699  -10.8009 C   0  0  0  0  0  0  0  0  0  0  0  0
   -9.2637    1.9407   -8.4874 C   0  0  0  0  0  0  0  0  0  0  0  0
   -9.0338    2.4626   -7.1120 N   0  0  0  0  0  0  0  0  0  0  0  0
   -8.7373    3.9093   -7.2640 C   0  0  0  0  0  0  0  0  0  0  0  0
   -8.2444    1.9832   -6.6790 H   0  0  0  0  0  0  0  0  0  0  0  0
 12 13  1  0  0  0
 13  1  1  0  0  0
  1  2  1  0  0  0
  2  3  2  0  0  0
  2  4  1  0  0  0
  4  5  1  0  0  0
  5  6  2  0  0  0
  6 16  1  0  0  0
 16 17  2  0  0  0
 16 18  1  0  0  0
 18 20  1  0  0  0
 20 21  2  0  0  0
 21 22  1  0  0  0
 22 23  2  0  0  0
 23 24  1  0  0  0
 24 25  2  0  0  0
 24 26  1  0  0  0
 26 27  1  0  0  0
 27 28  1  0  0  0
  6  7  1  0  0  0
  7  8  2  0  0  0
  8  9  1  0  0  0
  8 10  1  0  0  0
 10 11  2  0  0  0
 11  1  1  0  0  0
 11  5  1  0  0  0
 25 20  1  0  0  0
 28 23  1  0  0  0
 12 14  1  0  0  0
 12 15  1  0  0  0
 18 19  1  0  0  0
 27 29  1  0  0  0
M  END
> <minimizedAffinity>
-8.94478

> <minimizedRMSD>
0.39503

$$$$
P23889


 29 32  0  0  0  0  0  0  0  0999 V2000
   -4.6202    5.6712  -17.7046 C   0  0  0  0  0  0  0  0  0  0  0  0
   -5.2233    5.6018  -16.2697 C   0  0  0  0  0  0  0  0  0  0  0  0
   -6.5694    4.9900  -16.4979 C   0  0  0  0  0  0  0  0  0  0  0  0
   -6.6975    4.6894  -17.8551 C   0  0  0  0  0  0  0  0  0  0  0  0
   -7.8541    4.1336  -18.3592 C   0  0  0  0  0  0  0  0  0  0  0  0
   -8.8930    3.8887  -17.4772 C   0  0  0  0  0  0  0  0  0  0  0  0
  -10.0528    3.4261  -17.9558 F   0  0  0  0  0  0  0  0  0  0  0  0
   -8.7853    4.1839  -16.1150 C   0  0  0  0  0  0  0  0  0  0  0  0
   -7.6085    4.7401  -15.6025 C   0  0  0  0  0  0  0  0  0  0  0  0
   -5.6487    5.1831  -18.6331 N   0  0  0  0  0  0  0  0  0  0  0  0
   -5.6065    5.2008  -19.6166 H   0  0  0  0  0  0  0  0  0  0  0  0
   -7.5540    5.2173  -14.1831 C   0  0  0  0  0  0  0  0  0  0  0  0
   -7.2535    6.3308  -13.9968 O   0  0  0  0  0  0  0  0  0  0  0  0
   -8.0106    4.1200  -13.1875 N   0  0  0  0  0  0  0  0  0  0  0  0
   -8.2839    3.2717  -13.6058 H   0  0  0  0  0  0  0  0  0  0  0  0
   -8.0974    4.1394  -11.7921 C   0  0  0  0  0  0  0  0  0  0  0  0
   -7.7012    5.2476  -11.0302 C   0  0  0  0  0  0  0  0  0  0  0  0
   -7.8087    5.3392   -9.6747 N   0  0  0  0  0  0  0  0  0  0  0  0
   -8.3238    4.2475   -9.0808 C   0  0  0  0  0  0  0  0  0  0  0  0
   -8.7322    3.1039   -9.7421 C   0  0  0  0  0  0  0  0  0  0  0  0
   -8.6290    3.0379  -11.1207 C   0  0  0  0  0  0  0  0  0  0  0  0
   -9.2143    2.1025   -8.7487 C   0  0  0  0  0  0  0  0  0  0  0  0
   -9.4295    2.8594   -7.4855 N   0  0  0  0  0  0  0  0  0  0  0  0
   -8.5701    4.0656   -7.6072 C   0  0  0  0  0  0  0  0  0  0  0  0
   -9.1493    2.2996   -6.6802 H   0  0  0  0  0  0  0  0  0  0  0  0
   -3.2944    4.8987  -17.8840 C   0  0  0  0  0  0  0  0  0  0  0  0
   -1.4538    6.0621  -16.7592 C   0  0  0  0  0  0  0  0  0  0  0  0
   -2.0738    5.7102  -18.0272 N   0  0  0  0  0  0  0  0  0  0  0  0
   -1.3988    5.1818  -18.5800 H   0  0  0  0  0  0  0  0  0  0  0  0
 27 28  1  0  0  0
 28 26  1  0  0  0
  1 26  1  0  0  0
  1  2  1  0  0  0
  2  3  1  0  0  0
  3  4  2  0  0  0
  4  5  1  0  0  0
  5  6  2  0  0  0
  6  7  1  0  0  0
  6  8  1  0  0  0
  8  9  2  0  0  0
  9 12  1  0  0  0
 12 13  2  0  0  0
 12 14  1  0  0  0
 14 16  1  0  0  0
 16 17  2  0  0  0
 17 18  1  0  0  0
 18 19  2  0  0  0
 19 20  1  0  0  0
 20 21  2  0  0  0
 20 22  1  0  0  0
 22 23  1  0  0  0
 23 24  1  0  0  0
  4 10  1  0  0  0
 10  1  1  0  0  0
  9  3  1  0  0  0
 21 16  1  0  0  0
 24 19  1  0  0  0
 28 29  1  0  0  0
 14 15  1  0  0  0
 23 25  1  0  0  0
 10 11  1  0  0  0
M  END
> <minimizedAffinity>
-8.10253

> <minimizedRMSD>
0.40365

$$$$
P23891


 25 28  0  0  0  0  0  0  0  0999 V2000
   -8.7349    4.9545  -14.3694 C   0  0  0  0  0  0  0  0  0  0  0  0
   -9.4533    5.8667  -14.2529 O   0  0  0  0  0  0  0  0  0  0  0  0
   -8.1123    4.0290  -13.3032 N   0  0  0  0  0  0  0  0  0  0  0  0
   -7.5935    3.2744  -13.6647 H   0  0  0  0  0  0  0  0  0  0  0  0
   -3.6415    5.7352  -16.3241 O   0  0  0  0  0  0  0  0  0  0  0  0
   -4.8161    5.4661  -16.4899 C   0  0  0  0  0  0  0  0  0  0  0  0
   -5.9133    5.4190  -15.4529 C   0  0  0  0  0  0  0  0  0  0  0  0
   -7.0835    4.8772  -16.2284 C   0  0  0  0  0  0  0  0  0  0  0  0
   -8.3503    4.5651  -15.7508 C   0  0  0  0  0  0  0  0  0  0  0  0
   -9.2877    4.0259  -16.6405 C   0  0  0  0  0  0  0  0  0  0  0  0
   -8.9686    3.8354  -17.9981 C   0  0  0  0  0  0  0  0  0  0  0  0
   -7.7062    4.1755  -18.4845 C   0  0  0  0  0  0  0  0  0  0  0  0
   -6.7886    4.6845  -17.5846 C   0  0  0  0  0  0  0  0  0  0  0  0
   -5.4061    5.1027  -17.8350 C   0  0  0  0  0  0  0  0  0  0  0  0
   -4.7956    5.1864  -18.8728 O   0  0  0  0  0  0  0  0  0  0  0  0
   -8.1648    4.0875  -11.9106 C   0  0  0  0  0  0  0  0  0  0  0  0
   -7.8128    5.2416  -11.1956 C   0  0  0  0  0  0  0  0  0  0  0  0
   -7.8753    5.3655   -9.8423 N   0  0  0  0  0  0  0  0  0  0  0  0
   -8.2957    4.2596   -9.2026 C   0  0  0  0  0  0  0  0  0  0  0  0
   -8.6496    3.0719   -9.8163 C   0  0  0  0  0  0  0  0  0  0  0  0
   -8.5871    2.9704  -11.1931 C   0  0  0  0  0  0  0  0  0  0  0  0
   -9.0415    2.0734   -8.7813 C   0  0  0  0  0  0  0  0  0  0  0  0
   -9.2655    2.8569   -7.5353 N   0  0  0  0  0  0  0  0  0  0  0  0
   -8.4807    4.1051   -7.7178 C   0  0  0  0  0  0  0  0  0  0  0  0
   -8.9318    2.3397   -6.7220 H   0  0  0  0  0  0  0  0  0  0  0  0
  5  6  2  0  0  0
  6  7  1  0  0  0
  7  8  1  0  0  0
  8  9  2  0  0  0
  9  1  1  0  0  0
  1  2  2  0  0  0
  1  3  1  0  0  0
  3 16  1  0  0  0
 16 17  2  0  0  0
 17 18  1  0  0  0
 18 19  2  0  0  0
 19 20  1  0  0  0
 20 21  2  0  0  0
 20 22  1  0  0  0
 22 23  1  0  0  0
 23 24  1  0  0  0
  9 10  1  0  0  0
 10 11  2  0  0  0
 11 12  1  0  0  0
 12 13  2  0  0  0
 13 14  1  0  0  0
 14 15  2  0  0  0
 14  6  1  0  0  0
 13  8  1  0  0  0
 21 16  1  0  0  0
 24 19  1  0  0  0
  3  4  1  0  0  0
 23 25  1  0  0  0
M  END
> <minimizedAffinity>
-9.46818

> <minimizedRMSD>
0.70964

$$$$
P23892


 28 31  0  0  0  0  0  0  0  0999 V2000
   -5.3498    5.0561  -18.0976 N   0  0  0  0  0  0  0  0  0  0  0  0
   -4.3160    5.2235  -17.1731 C   0  0  0  0  0  0  0  0  0  0  0  0
   -3.1211    5.3109  -17.4165 O   0  0  0  0  0  0  0  0  0  0  0  0
   -4.9528    5.2810  -15.7840 C   0  0  0  0  0  0  0  0  0  0  0  0
   -6.3976    5.0251  -16.0837 C   0  0  0  0  0  0  0  0  0  0  0  0
   -7.4721    4.9009  -15.2239 C   0  0  0  0  0  0  0  0  0  0  0  0
   -8.7260    4.5880  -15.7635 C   0  0  0  0  0  0  0  0  0  0  0  0
   -8.8986    4.4491  -17.1494 C   0  0  0  0  0  0  0  0  0  0  0  0
   -7.8171    4.6181  -18.0141 C   0  0  0  0  0  0  0  0  0  0  0  0
   -6.5789    4.8898  -17.4587 C   0  0  0  0  0  0  0  0  0  0  0  0
   -7.3378    5.2320  -13.7856 C   0  0  0  0  0  0  0  0  0  0  0  0
   -6.7891    6.2191  -13.4954 O   0  0  0  0  0  0  0  0  0  0  0  0
   -8.0723    4.2014  -12.9060 N   0  0  0  0  0  0  0  0  0  0  0  0
   -8.5243    3.4824  -13.4039 H   0  0  0  0  0  0  0  0  0  0  0  0
   -8.2007    4.1217  -11.5224 C   0  0  0  0  0  0  0  0  0  0  0  0
   -7.9594    5.2166  -10.6808 C   0  0  0  0  0  0  0  0  0  0  0  0
   -8.1454    5.2104   -9.3337 N   0  0  0  0  0  0  0  0  0  0  0  0
   -8.5781    4.0372   -8.8392 C   0  0  0  0  0  0  0  0  0  0  0  0
   -8.8285    2.9019   -9.5897 C   0  0  0  0  0  0  0  0  0  0  0  0
   -8.6361    2.9270  -10.9554 C   0  0  0  0  0  0  0  0  0  0  0  0
   -9.2856    1.8064   -8.6927 C   0  0  0  0  0  0  0  0  0  0  0  0
   -9.7027    2.4768   -7.4325 N   0  0  0  0  0  0  0  0  0  0  0  0
   -8.9254    3.7446   -7.4037 C   0  0  0  0  0  0  0  0  0  0  0  0
   -9.4754    1.8972   -6.6246 H   0  0  0  0  0  0  0  0  0  0  0  0
   -5.1316    4.9798  -19.5065 C   0  0  0  0  0  0  0  0  0  0  0  0
   -4.0505    6.9278  -20.4949 C   0  0  0  0  0  0  0  0  0  0  0  0
   -5.2865    6.2588  -20.1535 N   0  0  0  0  0  0  0  0  0  0  0  0
   -5.8163    6.1158  -21.0133 H   0  0  0  0  0  0  0  0  0  0  0  0
 26 27  1  0  0  0
 27 25  1  0  0  0
 25  1  1  0  0  0
  1  2  1  0  0  0
  2  3  2  0  0  0
  2  4  1  0  0  0
  4  5  1  0  0  0
  5  6  2  0  0  0
  6 11  1  0  0  0
 11 12  2  0  0  0
 11 13  1  0  0  0
 13 15  1  0  0  0
 15 16  2  0  0  0
 16 17  1  0  0  0
 17 18  2  0  0  0
 18 19  1  0  0  0
 19 20  2  0  0  0
 19 21  1  0  0  0
 21 22  1  0  0  0
 22 23  1  0  0  0
  6  7  1  0  0  0
  7  8  2  0  0  0
  8  9  1  0  0  0
  9 10  2  0  0  0
 10  1  1  0  0  0
 10  5  1  0  0  0
 20 15  1  0  0  0
 23 18  1  0  0  0
 27 28  1  0  0  0
 13 14  1  0  0  0
 22 24  1  0  0  0
M  END
> <minimizedAffinity>
-8.43651

> <minimizedRMSD>
0.43673

$$$$
P23893


 29 32  0  0  0  0  0  0  0  0999 V2000
   -7.4823    5.2421  -13.8141 C   0  0  0  0  0  0  0  0  0  0  0  0
   -7.0691    6.3040  -13.5609 O   0  0  0  0  0  0  0  0  0  0  0  0
   -7.9894    4.1176  -12.8853 N   0  0  0  0  0  0  0  0  0  0  0  0
   -8.2175    3.2765  -13.3432 H   0  0  0  0  0  0  0  0  0  0  0  0
   -8.1766    4.0997  -11.5056 C   0  0  0  0  0  0  0  0  0  0  0  0
   -7.9436    5.2428  -10.7261 C   0  0  0  0  0  0  0  0  0  0  0  0
   -8.1423    5.2088   -9.3427 C   0  0  0  0  0  0  0  0  0  0  0  0
   -7.8111    6.7578   -8.3139 Br  0  0  0  0  0  0  0  0  0  0  0  0
   -8.5678    4.0321   -8.7553 C   0  0  0  0  0  0  0  0  0  0  0  0
   -8.7912    2.9013   -9.5306 C   0  0  0  0  0  0  0  0  0  0  0  0
   -8.6072    2.9157  -10.9048 C   0  0  0  0  0  0  0  0  0  0  0  0
   -9.1922    1.7639   -8.6571 C   0  0  0  0  0  0  0  0  0  0  0  0
   -9.3367    2.3179   -7.2864 N   0  0  0  0  0  0  0  0  0  0  0  0
   -8.8412    3.7121   -7.3269 C   0  0  0  0  0  0  0  0  0  0  0  0
   -8.7847    1.7693   -6.6272 H   0  0  0  0  0  0  0  0  0  0  0  0
   -5.4415    5.0118  -18.1009 N   0  0  0  0  0  0  0  0  0  0  0  0
   -4.4259    5.2190  -17.1627 C   0  0  0  0  0  0  0  0  0  0  0  0
   -3.2317    5.3594  -17.3844 O   0  0  0  0  0  0  0  0  0  0  0  0
   -5.0770    5.2384  -15.7795 C   0  0  0  0  0  0  0  0  0  0  0  0
   -6.5153    4.9653  -16.0936 C   0  0  0  0  0  0  0  0  0  0  0  0
   -7.6033    4.8635  -15.2434 C   0  0  0  0  0  0  0  0  0  0  0  0
   -8.8522    4.5473  -15.7915 C   0  0  0  0  0  0  0  0  0  0  0  0
   -9.0020    4.3807  -17.1775 C   0  0  0  0  0  0  0  0  0  0  0  0
   -7.9085    4.5389  -18.0327 C   0  0  0  0  0  0  0  0  0  0  0  0
   -6.6762    4.8212  -17.4708 C   0  0  0  0  0  0  0  0  0  0  0  0
   -5.2436    5.1890  -19.5110 C   0  0  0  0  0  0  0  0  0  0  0  0
   -4.4646    7.2546  -20.4799 C   0  0  0  0  0  0  0  0  0  0  0  0
   -5.5626    6.5835  -19.8033 N   0  0  0  0  0  0  0  0  0  0  0  0
   -6.3885    6.6156  -20.4010 H   0  0  0  0  0  0  0  0  0  0  0  0
 27 28  1  0  0  0
 28 26  1  0  0  0
 26 16  1  0  0  0
 16 17  1  0  0  0
 17 18  2  0  0  0
 17 19  1  0  0  0
 19 20  1  0  0  0
 20 21  2  0  0  0
 21  1  1  0  0  0
  1  2  2  0  0  0
  1  3  1  0  0  0
  3  5  1  0  0  0
  5  6  2  0  0  0
  6  7  1  0  0  0
  7  8  1  0  0  0
  7  9  2  0  0  0
  9 10  1  0  0  0
 10 11  2  0  0  0
 10 12  1  0  0  0
 12 13  1  0  0  0
 13 14  1  0  0  0
 21 22  1  0  0  0
 22 23  2  0  0  0
 23 24  1  0  0  0
 24 25  2  0  0  0
 25 16  1  0  0  0
 25 20  1  0  0  0
 11  5  1  0  0  0
 14  9  1  0  0  0
 28 29  1  0  0  0
  3  4  1  0  0  0
 13 15  1  0  0  0
M  END
> <minimizedAffinity>
-8.57902

> <minimizedRMSD>
0.26064

$$$$
P23895


 29 32  0  0  0  0  0  0  0  0999 V2000
   -5.4717    5.0944  -17.9433 N   0  0  0  0  0  0  0  0  0  0  0  0
   -4.5542    5.2206  -16.8889 C   0  0  0  0  0  0  0  0  0  0  0  0
   -3.3528    5.4245  -16.9897 O   0  0  0  0  0  0  0  0  0  0  0  0
   -5.3333    5.1107  -15.5852 C   0  0  0  0  0  0  0  0  0  0  0  0
   -6.7336    4.8998  -16.0677 C   0  0  0  0  0  0  0  0  0  0  0  0
   -7.9131    4.8217  -15.3519 C   0  0  0  0  0  0  0  0  0  0  0  0
   -9.0940    4.5038  -16.0264 C   0  0  0  0  0  0  0  0  0  0  0  0
   -9.0722    4.3234  -17.4081 C   0  0  0  0  0  0  0  0  0  0  0  0
  -10.1949    3.9848  -18.0513 F   0  0  0  0  0  0  0  0  0  0  0  0
   -7.9163    4.5307  -18.1449 C   0  0  0  0  0  0  0  0  0  0  0  0
   -6.7559    4.8263  -17.4538 C   0  0  0  0  0  0  0  0  0  0  0  0
   -7.9471    5.2826  -13.9502 C   0  0  0  0  0  0  0  0  0  0  0  0
   -7.9644    6.4305  -13.7540 O   0  0  0  0  0  0  0  0  0  0  0  0
   -8.0033    4.1042  -12.9687 N   0  0  0  0  0  0  0  0  0  0  0  0
   -7.8952    3.2176  -13.3828 H   0  0  0  0  0  0  0  0  0  0  0  0
   -8.1813    4.0847  -11.5951 C   0  0  0  0  0  0  0  0  0  0  0  0
   -7.9102    5.2035  -10.7953 C   0  0  0  0  0  0  0  0  0  0  0  0
   -8.0598    5.2382   -9.4471 N   0  0  0  0  0  0  0  0  0  0  0  0
   -8.4884    4.0825   -8.9112 C   0  0  0  0  0  0  0  0  0  0  0  0
   -8.7821    2.9356   -9.6231 C   0  0  0  0  0  0  0  0  0  0  0  0
   -8.6381    2.9207  -10.9934 C   0  0  0  0  0  0  0  0  0  0  0  0
   -9.1615    1.8451   -8.6919 C   0  0  0  0  0  0  0  0  0  0  0  0
   -9.3020    2.4623   -7.3468 N   0  0  0  0  0  0  0  0  0  0  0  0
   -8.7058    3.8185   -7.4494 C   0  0  0  0  0  0  0  0  0  0  0  0
   -8.8036    1.9088   -6.6499 H   0  0  0  0  0  0  0  0  0  0  0  0
   -5.2167    5.8414  -19.1338 C   0  0  0  0  0  0  0  0  0  0  0  0
   -3.2440    6.2990  -20.4015 C   0  0  0  0  0  0  0  0  0  0  0  0
   -4.1867    5.3167  -19.9659 N   0  0  0  0  0  0  0  0  0  0  0  0
   -3.6851    4.5985  -19.4435 H   0  0  0  0  0  0  0  0  0  0  0  0
 27 28  1  0  0  0
 28 26  1  0  0  0
 26  1  1  0  0  0
  1  2  1  0  0  0
  2  3  2  0  0  0
  2  4  1  0  0  0
  4  5  1  0  0  0
  5  6  2  0  0  0
  6 12  1  0  0  0
 12 13  2  0  0  0
 12 14  1  0  0  0
 14 16  1  0  0  0
 16 17  2  0  0  0
 17 18  1  0  0  0
 18 19  2  0  0  0
 19 20  1  0  0  0
 20 21  2  0  0  0
 20 22  1  0  0  0
 22 23  1  0  0  0
 23 24  1  0  0  0
  6  7  1  0  0  0
  7  8  2  0  0  0
  8  9  1  0  0  0
  8 10  1  0  0  0
 10 11  2  0  0  0
 11  1  1  0  0  0
 11  5  1  0  0  0
 21 16  1  0  0  0
 24 19  1  0  0  0
 28 29  1  0  0  0
 14 15  1  0  0  0
 23 25  1  0  0  0
M  END
> <minimizedAffinity>
-8.81673

> <minimizedRMSD>
1.01663

$$$$
P23900


 29 32  0  0  0  0  0  0  0  0999 V2000
   -4.2349    5.6934  -15.3562 C   0  0  0  0  0  0  0  0  0  0  0  0
   -5.3647    5.6102  -14.2948 C   0  0  0  0  0  0  0  0  0  0  0  0
   -6.5439    5.2014  -15.1082 C   0  0  0  0  0  0  0  0  0  0  0  0
   -6.1588    5.0646  -16.4370 C   0  0  0  0  0  0  0  0  0  0  0  0
   -7.0693    4.7220  -17.4093 C   0  0  0  0  0  0  0  0  0  0  0  0
   -8.3854    4.5043  -17.0201 C   0  0  0  0  0  0  0  0  0  0  0  0
   -9.6554    4.1769  -18.3521 Br  0  0  0  0  0  0  0  0  0  0  0  0
   -8.7931    4.6206  -15.6874 C   0  0  0  0  0  0  0  0  0  0  0  0
   -7.8579    4.9819  -14.7142 C   0  0  0  0  0  0  0  0  0  0  0  0
   -4.8357    5.4539  -16.6867 N   0  0  0  0  0  0  0  0  0  0  0  0
   -4.3981    5.5483  -17.5636 H   0  0  0  0  0  0  0  0  0  0  0  0
   -8.3137    5.2995  -13.3351 C   0  0  0  0  0  0  0  0  0  0  0  0
   -8.9344    6.2734  -13.1688 O   0  0  0  0  0  0  0  0  0  0  0  0
   -7.9404    4.1700  -12.3503 N   0  0  0  0  0  0  0  0  0  0  0  0
   -7.4669    3.4086  -12.7568 H   0  0  0  0  0  0  0  0  0  0  0  0
   -8.1646    4.0533  -10.9801 C   0  0  0  0  0  0  0  0  0  0  0  0
   -7.9595    5.1235  -10.0972 C   0  0  0  0  0  0  0  0  0  0  0  0
   -8.2109    5.0847   -8.7610 N   0  0  0  0  0  0  0  0  0  0  0  0
   -8.6853    3.9067   -8.3207 C   0  0  0  0  0  0  0  0  0  0  0  0
   -8.9190    2.7971   -9.1140 C   0  0  0  0  0  0  0  0  0  0  0  0
   -8.6524    2.8525  -10.4684 C   0  0  0  0  0  0  0  0  0  0  0  0
   -9.4437    1.6893   -8.2689 C   0  0  0  0  0  0  0  0  0  0  0  0
   -9.8900    2.3301   -7.0023 N   0  0  0  0  0  0  0  0  0  0  0  0
   -9.0908    3.5800   -6.9084 C   0  0  0  0  0  0  0  0  0  0  0  0
   -9.7010    1.7219   -6.2056 H   0  0  0  0  0  0  0  0  0  0  0  0
   -3.0596    4.7256  -15.1019 C   0  0  0  0  0  0  0  0  0  0  0  0
   -1.8188    6.8124  -14.7606 C   0  0  0  0  0  0  0  0  0  0  0  0
   -1.7787    5.3582  -14.7436 N   0  0  0  0  0  0  0  0  0  0  0  0
   -1.5212    5.0543  -13.8046 H   0  0  0  0  0  0  0  0  0  0  0  0
 27 28  1  0  0  0
 28 26  1  0  0  0
  1 26  1  0  0  0
  1  2  1  0  0  0
  2  3  1  0  0  0
  3  4  2  0  0  0
  4  5  1  0  0  0
  5  6  2  0  0  0
  6  7  1  0  0  0
  6  8  1  0  0  0
  8  9  2  0  0  0
  9 12  1  0  0  0
 12 13  2  0  0  0
 12 14  1  0  0  0
 14 16  1  0  0  0
 16 17  2  0  0  0
 17 18  1  0  0  0
 18 19  2  0  0  0
 19 20  1  0  0  0
 20 21  2  0  0  0
 20 22  1  0  0  0
 22 23  1  0  0  0
 23 24  1  0  0  0
  4 10  1  0  0  0
 10  1  1  0  0  0
  9  3  1  0  0  0
 21 16  1  0  0  0
 24 19  1  0  0  0
 28 29  1  0  0  0
 14 15  1  0  0  0
 23 25  1  0  0  0
 10 11  1  0  0  0
M  END
> <minimizedAffinity>
-7.46639

> <minimizedRMSD>
0.94875

$$$$
P23906


 31 35  0  0  0  0  0  0  0  0999 V2000
   -7.6539    5.1185  -15.0363 C   0  0  0  0  0  0  0  0  0  0  0  0
   -8.7831    4.7974  -15.7918 C   0  0  0  0  0  0  0  0  0  0  0  0
   -8.6576    4.5744  -17.1724 C   0  0  0  0  0  0  0  0  0  0  0  0
  -10.0625    4.3102  -18.1164 Cl  0  0  0  0  0  0  0  0  0  0  0  0
   -7.4221    4.6245  -17.8151 C   0  0  0  0  0  0  0  0  0  0  0  0
   -6.3181    4.9294  -17.0550 C   0  0  0  0  0  0  0  0  0  0  0  0
   -6.4296    5.1772  -15.6779 C   0  0  0  0  0  0  0  0  0  0  0  0
   -5.0643    5.4880  -15.1294 C   0  0  0  0  0  0  0  0  0  0  0  0
   -4.1994    5.3755  -16.4054 C   0  0  0  0  0  0  0  0  0  0  0  0
   -2.9437    5.6660  -16.5240 N   0  0  0  0  0  0  0  0  0  0  0  0
   -4.9857    4.9520  -17.4514 N   0  0  0  0  0  0  0  0  0  0  0  0
   -4.6554    4.7029  -18.3447 H   0  0  0  0  0  0  0  0  0  0  0  0
   -2.2777    6.2451  -15.3604 C   0  0  0  0  0  0  0  0  0  0  0  0
   -1.4567    5.2714  -14.4921 C   0  0  0  0  0  0  0  0  0  0  0  0
   -0.3466    6.2581  -14.4756 N   0  0  0  0  0  0  0  0  0  0  0  0
   -0.8922    6.8183  -15.7403 C   0  0  0  0  0  0  0  0  0  0  0  0
    0.5842    5.8496  -14.5604 H   0  0  0  0  0  0  0  0  0  0  0  0
   -7.7488    6.6467  -13.3502 O   0  0  0  0  0  0  0  0  0  0  0  0
   -7.7760    5.5107  -13.6137 C   0  0  0  0  0  0  0  0  0  0  0  0
   -7.9168    4.2752  -12.7003 N   0  0  0  0  0  0  0  0  0  0  0  0
   -7.8349    3.4097  -13.1623 H   0  0  0  0  0  0  0  0  0  0  0  0
   -8.1409    4.1850  -11.3283 C   0  0  0  0  0  0  0  0  0  0  0  0
   -7.9174    5.2618  -10.4600 C   0  0  0  0  0  0  0  0  0  0  0  0
   -8.1097    5.2236   -9.1144 N   0  0  0  0  0  0  0  0  0  0  0  0
   -8.5429    4.0392   -8.6467 C   0  0  0  0  0  0  0  0  0  0  0  0
   -8.7935    2.9252   -9.4219 C   0  0  0  0  0  0  0  0  0  0  0  0
   -8.5951    2.9832  -10.7893 C   0  0  0  0  0  0  0  0  0  0  0  0
   -9.2384    1.7969   -8.5632 C   0  0  0  0  0  0  0  0  0  0  0  0
   -9.3289    2.3183   -7.1710 N   0  0  0  0  0  0  0  0  0  0  0  0
   -8.8250    3.7150   -7.2090 C   0  0  0  0  0  0  0  0  0  0  0  0
   -8.7545    1.7535   -6.5453 H   0  0  0  0  0  0  0  0  0  0  0  0
 18 19  2  0  0  0
 19 20  1  0  0  0
 20 22  1  0  0  0
 22 23  2  0  0  0
 23 24  1  0  0  0
 24 25  2  0  0  0
 25 26  1  0  0  0
 26 27  2  0  0  0
 26 28  1  0  0  0
 28 29  1  0  0  0
 29 30  1  0  0  0
 19  1  1  0  0  0
  1  2  2  0  0  0
  2  3  1  0  0  0
  3  4  1  0  0  0
  3  5  2  0  0  0
  5  6  1  0  0  0
  6  7  2  0  0  0
  7  8  1  0  0  0
  8  9  1  0  0  0
  9 10  2  0  0  0
 10 13  1  0  0  0
 13 14  1  0  0  0
 14 15  1  0  0  0
 15 16  1  0  0  0
  9 11  1  0  0  0
 27 22  1  0  0  0
  7  1  1  0  0  0
 16 13  1  0  0  0
 30 25  1  0  0  0
 11  6  1  0  0  0
 20 21  1  0  0  0
 29 31  1  0  0  0
 15 17  1  0  0  0
 11 12  1  0  0  0
M  END
> <minimizedAffinity>
-8.09958

> <minimizedRMSD>
0.46459

$$$$
P23909


 30 33  0  0  0  0  0  0  0  0999 V2000
   -4.9003    5.1089  -18.1648 N   0  0  0  0  0  0  0  0  0  0  0  0
   -3.9287    5.3567  -17.1904 C   0  0  0  0  0  0  0  0  0  0  0  0
   -2.7419    5.5835  -17.3768 O   0  0  0  0  0  0  0  0  0  0  0  0
   -4.5939    5.2859  -15.8184 C   0  0  0  0  0  0  0  0  0  0  0  0
   -6.0230    5.0356  -16.1686 C   0  0  0  0  0  0  0  0  0  0  0  0
   -7.1252    4.9252  -15.3373 C   0  0  0  0  0  0  0  0  0  0  0  0
   -8.3775    4.6789  -15.9007 C   0  0  0  0  0  0  0  0  0  0  0  0
   -8.4979    4.5864  -17.2918 C   0  0  0  0  0  0  0  0  0  0  0  0
  -10.0520    4.3630  -17.9753 Cl  0  0  0  0  0  0  0  0  0  0  0  0
   -7.3938    4.7301  -18.1344 C   0  0  0  0  0  0  0  0  0  0  0  0
   -6.1583    4.9403  -17.5521 C   0  0  0  0  0  0  0  0  0  0  0  0
   -7.0165    5.2448  -13.9009 C   0  0  0  0  0  0  0  0  0  0  0  0
   -6.5245    6.2589  -13.6022 O   0  0  0  0  0  0  0  0  0  0  0  0
   -7.6835    4.1632  -13.0296 N   0  0  0  0  0  0  0  0  0  0  0  0
   -7.9582    3.3531  -13.5169 H   0  0  0  0  0  0  0  0  0  0  0  0
   -7.9609    4.1450  -11.6666 C   0  0  0  0  0  0  0  0  0  0  0  0
   -7.8216    5.2898  -10.8683 C   0  0  0  0  0  0  0  0  0  0  0  0
   -8.1165    5.3520   -9.5454 N   0  0  0  0  0  0  0  0  0  0  0  0
   -8.5626    4.1975   -9.0236 C   0  0  0  0  0  0  0  0  0  0  0  0
   -8.7236    3.0148   -9.7320 C   0  0  0  0  0  0  0  0  0  0  0  0
   -8.4164    2.9690  -11.0773 C   0  0  0  0  0  0  0  0  0  0  0  0
   -9.2388    1.9527   -8.8255 C   0  0  0  0  0  0  0  0  0  0  0  0
   -9.7347    2.6893   -7.6428 N   0  0  0  0  0  0  0  0  0  0  0  0
   -9.7022    1.8916   -6.4449 C   0  0  0  0  0  0  0  0  0  0  0  0
   -9.0441    4.0008   -7.6017 C   0  0  0  0  0  0  0  0  0  0  0  0
   -7.9081    4.2250   -6.6074 C   0  0  0  0  0  0  0  0  0  0  0  0
   -4.7671    5.3546  -19.5893 C   0  0  0  0  0  0  0  0  0  0  0  0
   -2.8805    6.3327  -20.7142 C   0  0  0  0  0  0  0  0  0  0  0  0
   -3.3954    5.1210  -20.0715 N   0  0  0  0  0  0  0  0  0  0  0  0
   -2.7967    4.8758  -19.2829 H   0  0  0  0  0  0  0  0  0  0  0  0
 28 29  1  0  0  0
 29 27  1  0  0  0
 27  1  1  0  0  0
  1  2  1  0  0  0
  2  3  2  0  0  0
  2  4  1  0  0  0
  4  5  1  0  0  0
  5  6  2  0  0  0
  6 12  1  0  0  0
 12 13  2  0  0  0
 12 14  1  0  0  0
 14 16  1  0  0  0
 16 17  2  0  0  0
 17 18  1  0  0  0
 18 19  2  0  0  0
 19 20  1  0  0  0
 20 21  2  0  0  0
 20 22  1  0  0  0
 22 23  1  0  0  0
 23 24  1  0  0  0
 23 25  1  0  0  0
 25 26  1  0  0  0
  6  7  1  0  0  0
  7  8  2  0  0  0
  8  9  1  0  0  0
  8 10  1  0  0  0
 10 11  2  0  0  0
 11  1  1  0  0  0
 11  5  1  0  0  0
 21 16  1  0  0  0
 25 19  1  0  0  0
 29 30  1  0  0  0
 14 15  1  0  0  0
M  END
> <minimizedAffinity>
-8.80368

> <minimizedRMSD>
0.26844

$$$$
P23910


 29 32  0  0  0  0  0  0  0  0999 V2000
   -4.7754    5.3232  -16.5757 N   0  0  0  0  0  0  0  0  0  0  0  0
   -4.2111    5.2659  -15.3016 C   0  0  0  0  0  0  0  0  0  0  0  0
   -3.0345    5.4174  -15.0121 O   0  0  0  0  0  0  0  0  0  0  0  0
   -5.3460    5.0273  -14.3125 C   0  0  0  0  0  0  0  0  0  0  0  0
   -6.5379    4.8998  -15.2119 C   0  0  0  0  0  0  0  0  0  0  0  0
   -7.8763    4.7365  -14.8857 C   0  0  0  0  0  0  0  0  0  0  0  0
   -8.7995    4.4981  -15.9082 C   0  0  0  0  0  0  0  0  0  0  0  0
   -8.3644    4.5383  -17.2370 C   0  0  0  0  0  0  0  0  0  0  0  0
   -9.4398    4.1939  -18.5277 Cl  0  0  0  0  0  0  0  0  0  0  0  0
   -7.0597    4.9072  -17.5593 C   0  0  0  0  0  0  0  0  0  0  0  0
   -6.1444    5.0345  -16.5365 C   0  0  0  0  0  0  0  0  0  0  0  0
   -8.3230    5.1084  -13.5268 C   0  0  0  0  0  0  0  0  0  0  0  0
   -9.0187    6.0399  -13.4426 O   0  0  0  0  0  0  0  0  0  0  0  0
   -7.8051    4.1506  -12.4431 N   0  0  0  0  0  0  0  0  0  0  0  0
   -7.1612    3.4774  -12.7617 H   0  0  0  0  0  0  0  0  0  0  0  0
   -8.0974    4.0796  -11.0866 C   0  0  0  0  0  0  0  0  0  0  0  0
   -7.8848    5.1808  -10.2423 C   0  0  0  0  0  0  0  0  0  0  0  0
   -8.1291    5.1936   -8.9090 N   0  0  0  0  0  0  0  0  0  0  0  0
   -8.5882    4.0284   -8.4241 C   0  0  0  0  0  0  0  0  0  0  0  0
   -8.8405    2.8958   -9.1784 C   0  0  0  0  0  0  0  0  0  0  0  0
   -8.6010    2.9058  -10.5401 C   0  0  0  0  0  0  0  0  0  0  0  0
   -9.3635    1.8115   -8.3003 C   0  0  0  0  0  0  0  0  0  0  0  0
   -9.3317    2.3468   -6.9199 N   0  0  0  0  0  0  0  0  0  0  0  0
  -10.5518    2.1110   -6.1754 C   0  0  0  0  0  0  0  0  0  0  0  0
   -8.9412    3.7653   -6.9871 C   0  0  0  0  0  0  0  0  0  0  0  0
   -4.0333    5.8246  -17.6888 C   0  0  0  0  0  0  0  0  0  0  0  0
   -4.4334    5.8031  -20.0083 C   0  0  0  0  0  0  0  0  0  0  0  0
   -4.2115    4.9624  -18.8500 N   0  0  0  0  0  0  0  0  0  0  0  0
   -3.3755    4.3950  -18.9902 H   0  0  0  0  0  0  0  0  0  0  0  0
 27 28  1  0  0  0
 28 26  1  0  0  0
 26  1  1  0  0  0
  1  2  1  0  0  0
  2  3  2  0  0  0
  2  4  1  0  0  0
  4  5  1  0  0  0
  5  6  2  0  0  0
  6 12  1  0  0  0
 12 13  2  0  0  0
 12 14  1  0  0  0
 14 16  1  0  0  0
 16 17  2  0  0  0
 17 18  1  0  0  0
 18 19  2  0  0  0
 19 20  1  0  0  0
 20 21  2  0  0  0
 20 22  1  0  0  0
 22 23  1  0  0  0
 23 24  1  0  0  0
 23 25  1  0  0  0
  6  7  1  0  0  0
  7  8  2  0  0  0
  8  9  1  0  0  0
  8 10  1  0  0  0
 10 11  2  0  0  0
 11  1  1  0  0  0
 11  5  1  0  0  0
 21 16  1  0  0  0
 25 19  1  0  0  0
 28 29  1  0  0  0
 14 15  1  0  0  0
M  END
> <minimizedAffinity>
-8.37541

> <minimizedRMSD>
0.88024

$$$$
P23911


 30 33  0  0  0  0  0  0  0  0999 V2000
   -5.2081    5.5337  -17.6716 N   0  0  0  0  0  0  0  0  0  0  0  0
   -4.1337    5.4694  -16.7840 C   0  0  0  0  0  0  0  0  0  0  0  0
   -2.9625    5.7176  -17.0287 O   0  0  0  0  0  0  0  0  0  0  0  0
   -4.6977    5.0737  -15.4206 C   0  0  0  0  0  0  0  0  0  0  0  0
   -6.1556    4.8901  -15.7155 C   0  0  0  0  0  0  0  0  0  0  0  0
   -7.2062    4.5952  -14.8623 C   0  0  0  0  0  0  0  0  0  0  0  0
   -8.4780    4.3664  -15.4002 C   0  0  0  0  0  0  0  0  0  0  0  0
   -8.6797    4.5352  -16.7737 C   0  0  0  0  0  0  0  0  0  0  0  0
  -10.2124    4.2567  -17.4893 Cl  0  0  0  0  0  0  0  0  0  0  0  0
   -7.6599    5.0007  -17.5960 C   0  0  0  0  0  0  0  0  0  0  0  0
   -6.3968    5.1319  -17.0599 C   0  0  0  0  0  0  0  0  0  0  0  0
   -7.0249    4.7989  -13.4114 C   0  0  0  0  0  0  0  0  0  0  0  0
   -6.2430    5.5973  -13.0821 O   0  0  0  0  0  0  0  0  0  0  0  0
   -7.9816    3.9357  -12.5734 N   0  0  0  0  0  0  0  0  0  0  0  0
   -8.4965    3.2730  -13.0882 H   0  0  0  0  0  0  0  0  0  0  0  0
   -8.2398    3.9382  -11.1993 C   0  0  0  0  0  0  0  0  0  0  0  0
   -8.6604    2.7373  -10.6318 C   0  0  0  0  0  0  0  0  0  0  0  0
   -8.9136    2.7232   -9.2771 C   0  0  0  0  0  0  0  0  0  0  0  0
   -8.7473    3.8759   -8.5313 C   0  0  0  0  0  0  0  0  0  0  0  0
   -8.3605    5.0616   -9.0214 N   0  0  0  0  0  0  0  0  0  0  0  0
   -8.1074    5.0610  -10.3551 C   0  0  0  0  0  0  0  0  0  0  0  0
   -7.7456    6.2477  -10.8604 F   0  0  0  0  0  0  0  0  0  0  0  0
   -9.1104    3.5771   -7.1018 C   0  0  0  0  0  0  0  0  0  0  0  0
   -9.8244    2.2749   -7.1434 N   0  0  0  0  0  0  0  0  0  0  0  0
   -9.3303    1.6141   -8.3788 C   0  0  0  0  0  0  0  0  0  0  0  0
  -10.8330    2.4190   -7.1912 H   0  0  0  0  0  0  0  0  0  0  0  0
   -5.1055    6.1895  -18.9338 C   0  0  0  0  0  0  0  0  0  0  0  0
   -5.6985    4.3460  -20.2474 C   0  0  0  0  0  0  0  0  0  0  0  0
   -4.6220    5.2734  -19.9566 N   0  0  0  0  0  0  0  0  0  0  0  0
   -4.3702    5.7913  -20.7984 H   0  0  0  0  0  0  0  0  0  0  0  0
 28 29  1  0  0  0
 29 27  1  0  0  0
 27  1  1  0  0  0
  1  2  1  0  0  0
  2  3  2  0  0  0
  2  4  1  0  0  0
  4  5  1  0  0  0
  5  6  2  0  0  0
  6 12  1  0  0  0
 12 13  2  0  0  0
 12 14  1  0  0  0
 14 16  1  0  0  0
 16 17  2  0  0  0
 17 18  1  0  0  0
 18 19  2  0  0  0
 19 20  1  0  0  0
 20 21  2  0  0  0
 21 22  1  0  0  0
 19 23  1  0  0  0
 23 24  1  0  0  0
 24 25  1  0  0  0
  6  7  1  0  0  0
  7  8  2  0  0  0
  8  9  1  0  0  0
  8 10  1  0  0  0
 10 11  2  0  0  0
 11  1  1  0  0  0
 11  5  1  0  0  0
 21 16  1  0  0  0
 25 18  1  0  0  0
 29 30  1  0  0  0
 14 15  1  0  0  0
 24 26  1  0  0  0
M  END
> <minimizedAffinity>
-7.11422

> <minimizedRMSD>
0.29609

$$$$
P23914


 26 29  0  0  0  0  0  0  0  0999 V2000
   -7.2497    5.3787  -13.6549 C   0  0  0  0  0  0  0  0  0  0  0  0
   -6.8368    6.4234  -13.3398 O   0  0  0  0  0  0  0  0  0  0  0  0
   -7.9086    4.2667  -12.8104 N   0  0  0  0  0  0  0  0  0  0  0  0
   -8.2449    3.5002  -13.3286 H   0  0  0  0  0  0  0  0  0  0  0  0
   -2.7599    5.2834  -17.0361 O   0  0  0  0  0  0  0  0  0  0  0  0
   -3.9619    5.2320  -16.8337 C   0  0  0  0  0  0  0  0  0  0  0  0
   -4.6824    5.3442  -15.4800 C   0  0  0  0  0  0  0  0  0  0  0  0
   -6.1135    5.1169  -15.8670 C   0  0  0  0  0  0  0  0  0  0  0  0
   -6.1883    4.9507  -17.2481 C   0  0  0  0  0  0  0  0  0  0  0  0
   -7.3622    4.7016  -17.9128 C   0  0  0  0  0  0  0  0  0  0  0  0
   -8.5061    4.5886  -17.1335 C   0  0  0  0  0  0  0  0  0  0  0  0
   -9.9876    4.2646  -17.9130 Cl  0  0  0  0  0  0  0  0  0  0  0  0
   -8.4743    4.7576  -15.7405 C   0  0  0  0  0  0  0  0  0  0  0  0
   -7.2617    5.0385  -15.0981 C   0  0  0  0  0  0  0  0  0  0  0  0
   -4.9297    5.0501  -17.8092 N   0  0  0  0  0  0  0  0  0  0  0  0
   -4.7445    4.9985  -18.7748 H   0  0  0  0  0  0  0  0  0  0  0  0
   -8.1047    4.1714  -11.4336 C   0  0  0  0  0  0  0  0  0  0  0  0
   -7.8871    5.2529  -10.5684 C   0  0  0  0  0  0  0  0  0  0  0  0
   -8.1195    5.2309   -9.2281 N   0  0  0  0  0  0  0  0  0  0  0  0
   -8.5771    4.0553   -8.7629 C   0  0  0  0  0  0  0  0  0  0  0  0
   -8.8126    2.9321   -9.5358 C   0  0  0  0  0  0  0  0  0  0  0  0
   -8.5764    2.9748  -10.8962 C   0  0  0  0  0  0  0  0  0  0  0  0
   -9.2974    1.8259   -8.6650 C   0  0  0  0  0  0  0  0  0  0  0  0
   -9.7278    2.4758   -7.3976 N   0  0  0  0  0  0  0  0  0  0  0  0
   -8.9524    3.7435   -7.3391 C   0  0  0  0  0  0  0  0  0  0  0  0
   -9.5083    1.8830   -6.5971 H   0  0  0  0  0  0  0  0  0  0  0  0
  5  6  2  0  0  0
  6  7  1  0  0  0
  7  8  1  0  0  0
  8  9  2  0  0  0
  9 10  1  0  0  0
 10 11  2  0  0  0
 11 12  1  0  0  0
 11 13  1  0  0  0
 13 14  2  0  0  0
 14  1  1  0  0  0
  1  2  2  0  0  0
  1  3  1  0  0  0
  3 17  1  0  0  0
 17 18  2  0  0  0
 18 19  1  0  0  0
 19 20  2  0  0  0
 20 21  1  0  0  0
 21 22  2  0  0  0
 21 23  1  0  0  0
 23 24  1  0  0  0
 24 25  1  0  0  0
  9 15  1  0  0  0
 15  6  1  0  0  0
 14  8  1  0  0  0
 22 17  1  0  0  0
 25 20  1  0  0  0
  3  4  1  0  0  0
 24 26  1  0  0  0
 15 16  1  0  0  0
M  END
> <minimizedAffinity>
-8.35575

> <minimizedRMSD>
0.16880

$$$$
P23916


 27 30  0  0  0  0  0  0  0  0999 V2000
   -7.3623    5.3178  -13.7475 C   0  0  0  0  0  0  0  0  0  0  0  0
   -6.9587    6.3707  -13.4484 O   0  0  0  0  0  0  0  0  0  0  0  0
   -7.9887    4.2033  -12.8820 N   0  0  0  0  0  0  0  0  0  0  0  0
   -8.3238    3.4279  -13.3878 H   0  0  0  0  0  0  0  0  0  0  0  0
   -2.3788    5.5175  -18.4952 C   0  0  0  0  0  0  0  0  0  0  0  0
   -2.8991    5.4961  -17.1376 N   0  0  0  0  0  0  0  0  0  0  0  0
   -4.1535    5.2461  -17.0168 C   0  0  0  0  0  0  0  0  0  0  0  0
   -4.8231    5.2583  -15.6179 C   0  0  0  0  0  0  0  0  0  0  0  0
   -6.2663    5.0377  -15.9826 C   0  0  0  0  0  0  0  0  0  0  0  0
   -6.3601    4.9033  -17.3779 C   0  0  0  0  0  0  0  0  0  0  0  0
   -7.5587    4.6470  -17.9988 C   0  0  0  0  0  0  0  0  0  0  0  0
   -8.6916    4.5543  -17.1993 C   0  0  0  0  0  0  0  0  0  0  0  0
  -10.2035    4.3167  -17.9592 Cl  0  0  0  0  0  0  0  0  0  0  0  0
   -8.6264    4.7085  -15.8074 C   0  0  0  0  0  0  0  0  0  0  0  0
   -7.3976    4.9643  -15.1880 C   0  0  0  0  0  0  0  0  0  0  0  0
   -5.1055    4.9721  -17.9739 N   0  0  0  0  0  0  0  0  0  0  0  0
   -4.9252    4.8444  -18.9333 H   0  0  0  0  0  0  0  0  0  0  0  0
   -8.1571    4.1160  -11.5010 C   0  0  0  0  0  0  0  0  0  0  0  0
   -7.9397    5.2074  -10.6483 C   0  0  0  0  0  0  0  0  0  0  0  0
   -8.1569    5.1961   -9.3050 N   0  0  0  0  0  0  0  0  0  0  0  0
   -8.5974    4.0202   -8.8240 C   0  0  0  0  0  0  0  0  0  0  0  0
   -8.8291    2.8873   -9.5836 C   0  0  0  0  0  0  0  0  0  0  0  0
   -8.6080    2.9194  -10.9466 C   0  0  0  0  0  0  0  0  0  0  0  0
   -9.2961    1.7851   -8.6980 C   0  0  0  0  0  0  0  0  0  0  0  0
   -9.7224    2.4442   -7.4336 N   0  0  0  0  0  0  0  0  0  0  0  0
   -8.9575    3.7188   -7.3940 C   0  0  0  0  0  0  0  0  0  0  0  0
   -9.4918    1.8614   -6.6289 H   0  0  0  0  0  0  0  0  0  0  0  0
  5  6  1  0  0  0
  6  7  2  0  0  0
  7  8  1  0  0  0
  8  9  1  0  0  0
  9 10  2  0  0  0
 10 11  1  0  0  0
 11 12  2  0  0  0
 12 13  1  0  0  0
 12 14  1  0  0  0
 14 15  2  0  0  0
 15  1  1  0  0  0
  1  2  2  0  0  0
  1  3  1  0  0  0
  3 18  1  0  0  0
 18 19  2  0  0  0
 19 20  1  0  0  0
 20 21  2  0  0  0
 21 22  1  0  0  0
 22 23  2  0  0  0
 22 24  1  0  0  0
 24 25  1  0  0  0
 25 26  1  0  0  0
 10 16  1  0  0  0
 16  7  1  0  0  0
 15  9  1  0  0  0
 23 18  1  0  0  0
 26 21  1  0  0  0
  3  4  1  0  0  0
 25 27  1  0  0  0
 16 17  1  0  0  0
M  END
> <minimizedAffinity>
-8.60331

> <minimizedRMSD>
0.22593

$$$$
P23918


 30 34  0  0  0  0  0  0  0  0999 V2000
   -7.4738    4.8053  -15.4962 C   0  0  0  0  0  0  0  0  0  0  0  0
   -8.7697    4.5268  -15.9425 C   0  0  0  0  0  0  0  0  0  0  0  0
   -9.0187    4.3985  -17.3151 C   0  0  0  0  0  0  0  0  0  0  0  0
  -10.6147    4.1156  -17.8637 Cl  0  0  0  0  0  0  0  0  0  0  0  0
   -8.0032    4.5402  -18.2546 C   0  0  0  0  0  0  0  0  0  0  0  0
   -6.7334    4.8176  -17.7986 C   0  0  0  0  0  0  0  0  0  0  0  0
   -6.4616    4.9312  -16.4350 C   0  0  0  0  0  0  0  0  0  0  0  0
   -4.9952    5.1474  -16.2493 C   0  0  0  0  0  0  0  0  0  0  0  0
   -4.5679    5.4941  -17.6941 C   0  0  0  0  0  0  0  0  0  0  0  0
   -3.1929    4.9870  -18.0926 C   0  0  0  0  0  0  0  0  0  0  0  0
   -2.7519    5.9304  -19.2105 C   0  0  0  0  0  0  0  0  0  0  0  0
   -3.6315    7.1075  -19.1722 N   0  0  0  0  0  0  0  0  0  0  0  0
   -4.4080    7.0072  -17.9287 C   0  0  0  0  0  0  0  0  0  0  0  0
   -5.5828    4.9104  -18.6031 N   0  0  0  0  0  0  0  0  0  0  0  0
   -4.2560    7.1072  -19.9787 H   0  0  0  0  0  0  0  0  0  0  0  0
   -5.4769    4.6494  -19.5464 H   0  0  0  0  0  0  0  0  0  0  0  0
   -6.5413    6.0140  -13.8029 O   0  0  0  0  0  0  0  0  0  0  0  0
   -7.2385    5.1156  -14.0649 C   0  0  0  0  0  0  0  0  0  0  0  0
   -8.0813    4.2026  -13.1489 N   0  0  0  0  0  0  0  0  0  0  0  0
   -8.6515    3.5557  -13.6238 H   0  0  0  0  0  0  0  0  0  0  0  0
   -8.1665    4.1453  -11.7582 C   0  0  0  0  0  0  0  0  0  0  0  0
   -7.9014    5.2566  -10.9451 C   0  0  0  0  0  0  0  0  0  0  0  0
   -8.0209    5.2721   -9.5899 N   0  0  0  0  0  0  0  0  0  0  0  0
   -8.4206    4.1051   -9.0551 C   0  0  0  0  0  0  0  0  0  0  0  0
   -8.7007    2.9560   -9.7732 C   0  0  0  0  0  0  0  0  0  0  0  0
   -8.5698    2.9584  -11.1487 C   0  0  0  0  0  0  0  0  0  0  0  0
   -9.1095    1.8746   -8.8345 C   0  0  0  0  0  0  0  0  0  0  0  0
   -9.4453    2.5609   -7.5573 N   0  0  0  0  0  0  0  0  0  0  0  0
   -8.6770    3.8329   -7.5973 C   0  0  0  0  0  0  0  0  0  0  0  0
   -9.1603    1.9938   -6.7588 H   0  0  0  0  0  0  0  0  0  0  0  0
 17 18  2  0  0  0
 18 19  1  0  0  0
 19 21  1  0  0  0
 21 22  2  0  0  0
 22 23  1  0  0  0
 23 24  2  0  0  0
 24 25  1  0  0  0
 25 26  2  0  0  0
 25 27  1  0  0  0
 27 28  1  0  0  0
 28 29  1  0  0  0
 18  1  1  0  0  0
  1  2  2  0  0  0
  2  3  1  0  0  0
  3  4  1  0  0  0
  3  5  2  0  0  0
  5  6  1  0  0  0
  6  7  2  0  0  0
  7  8  1  0  0  0
  9  8  1  0  0  0
  9 10  1  0  0  0
 10 11  1  0  0  0
 11 12  1  0  0  0
 12 13  1  0  0  0
  9 14  1  0  0  0
 26 21  1  0  0  0
  7  1  1  0  0  0
 13  9  1  0  0  0
 29 24  1  0  0  0
 14  6  1  0  0  0
 19 20  1  0  0  0
 28 30  1  0  0  0
 12 15  1  0  0  0
 14 16  1  0  0  0
M  END
> <minimizedAffinity>
-9.21267

> <minimizedRMSD>
0.63889

$$$$
P23919


 31 35  0  0  0  0  0  0  0  0999 V2000
   -7.9774    5.0075  -15.1347 C   0  0  0  0  0  0  0  0  0  0  0  0
   -8.9827    4.5207  -15.9645 C   0  0  0  0  0  0  0  0  0  0  0  0
   -8.7343    4.4097  -17.3366 C   0  0  0  0  0  0  0  0  0  0  0  0
   -9.9648    3.8036  -18.3541 Cl  0  0  0  0  0  0  0  0  0  0  0  0
   -7.5230    4.8135  -17.9106 C   0  0  0  0  0  0  0  0  0  0  0  0
   -6.5201    5.2877  -17.0833 C   0  0  0  0  0  0  0  0  0  0  0  0
   -6.7433    5.3380  -15.6918 C   0  0  0  0  0  0  0  0  0  0  0  0
   -5.5176    5.7713  -14.9452 C   0  0  0  0  0  0  0  0  0  0  0  0
   -4.4904    5.8797  -16.0548 C   0  0  0  0  0  0  0  0  0  0  0  0
   -3.2865    6.0043  -15.8657 O   0  0  0  0  0  0  0  0  0  0  0  0
   -5.1544    5.8539  -17.4396 C   0  0  0  0  0  0  0  0  0  0  0  0
   -5.2496    7.3147  -17.9267 C   0  0  0  0  0  0  0  0  0  0  0  0
   -5.4945    7.4047  -19.4296 C   0  0  0  0  0  0  0  0  0  0  0  0
   -4.4821    6.5698  -20.2087 C   0  0  0  0  0  0  0  0  0  0  0  0
   -4.5180    5.1576  -19.8059 N   0  0  0  0  0  0  0  0  0  0  0  0
   -4.2428    5.0347  -18.3656 C   0  0  0  0  0  0  0  0  0  0  0  0
   -3.8124    4.6396  -20.3295 H   0  0  0  0  0  0  0  0  0  0  0  0
   -8.6396    6.4559  -13.5232 O   0  0  0  0  0  0  0  0  0  0  0  0
   -8.2725    5.3678  -13.7281 C   0  0  0  0  0  0  0  0  0  0  0  0
   -8.1083    4.1717  -12.7704 N   0  0  0  0  0  0  0  0  0  0  0  0
   -7.8504    3.3273  -13.2060 H   0  0  0  0  0  0  0  0  0  0  0  0
   -8.2655    4.0907  -11.3885 C   0  0  0  0  0  0  0  0  0  0  0  0
   -7.9868    5.1760  -10.5452 C   0  0  0  0  0  0  0  0  0  0  0  0
   -8.1088    5.1577   -9.1916 N   0  0  0  0  0  0  0  0  0  0  0  0
   -8.5331    3.9857   -8.6884 C   0  0  0  0  0  0  0  0  0  0  0  0
   -8.8384    2.8662   -9.4367 C   0  0  0  0  0  0  0  0  0  0  0  0
   -8.7067    2.9021  -10.8133 C   0  0  0  0  0  0  0  0  0  0  0  0
   -9.2517    1.7553   -8.5402 C   0  0  0  0  0  0  0  0  0  0  0  0
   -9.2921    2.3046   -7.1565 N   0  0  0  0  0  0  0  0  0  0  0  0
   -8.7423    3.6816   -7.2338 C   0  0  0  0  0  0  0  0  0  0  0  0
   -8.7226    1.7322   -6.5333 H   0  0  0  0  0  0  0  0  0  0  0  0
 18 19  2  0  0  0
 19 20  1  0  0  0
 20 22  1  0  0  0
 22 23  2  0  0  0
 23 24  1  0  0  0
 24 25  2  0  0  0
 25 26  1  0  0  0
 26 27  2  0  0  0
 26 28  1  0  0  0
 28 29  1  0  0  0
 29 30  1  0  0  0
 19  1  1  0  0  0
  1  2  2  0  0  0
  2  3  1  0  0  0
  3  4  1  0  0  0
  3  5  2  0  0  0
  5  6  1  0  0  0
  6  7  2  0  0  0
  7  8  1  0  0  0
  8  9  1  0  0  0
  9 10  2  0  0  0
  9 11  1  0  0  0
 11 12  1  0  0  0
 12 13  1  0  0  0
 13 14  1  0  0  0
 14 15  1  0  0  0
 15 16  1  0  0  0
 27 22  1  0  0  0
  7  1  1  0  0  0
 16 11  1  0  0  0
 30 25  1  0  0  0
 11  6  1  0  0  0
 20 21  1  0  0  0
 29 31  1  0  0  0
 15 17  1  0  0  0
M  END
> <minimizedAffinity>
-9.83897

> <minimizedRMSD>
0.55604

$$$$
P23920


 28 32  0  0  0  0  0  0  0  0999 V2000
   -6.1188    6.2451  -13.1724 O   0  0  0  0  0  0  0  0  0  0  0  0
   -6.8989    5.4606  -13.5553 C   0  0  0  0  0  0  0  0  0  0  0  0
   -7.7786    4.4496  -12.7695 N   0  0  0  0  0  0  0  0  0  0  0  0
   -8.3054    3.8370  -13.3321 H   0  0  0  0  0  0  0  0  0  0  0  0
   -7.2394    5.4286  -15.0552 C   0  0  0  0  0  0  0  0  0  0  0  0
   -8.7135    5.0782  -15.3728 C   0  0  0  0  0  0  0  0  0  0  0  0
   -9.0338    4.5158  -16.7711 C   0  0  0  0  0  0  0  0  0  0  0  0
   -9.2075    3.1718  -16.6142 F   0  0  0  0  0  0  0  0  0  0  0  0
   -8.0239    4.7013  -17.9027 C   0  0  0  0  0  0  0  0  0  0  0  0
   -6.7312    5.3337  -17.4439 C   0  0  0  0  0  0  0  0  0  0  0  0
   -5.5010    5.1590  -18.2243 C   0  0  0  0  0  0  0  0  0  0  0  0
   -4.4340    5.0638  -17.4429 C   0  0  0  0  0  0  0  0  0  0  0  0
   -3.2026    5.0836  -18.2464 C   0  0  0  0  0  0  0  0  0  0  0  0
   -3.6712    5.2131  -19.6710 N   0  0  0  0  0  0  0  0  0  0  0  0
   -5.1640    5.3061  -19.6430 C   0  0  0  0  0  0  0  0  0  0  0  0
   -4.7684    5.1016  -15.9891 C   0  0  0  0  0  0  0  0  0  0  0  0
   -6.2874    4.8012  -16.0532 C   0  0  0  0  0  0  0  0  0  0  0  0
   -3.3827    4.3958  -20.2088 H   0  0  0  0  0  0  0  0  0  0  0  0
   -7.9435    4.2685  -11.3948 C   0  0  0  0  0  0  0  0  0  0  0  0
   -7.7698    5.3389  -10.5032 C   0  0  0  0  0  0  0  0  0  0  0  0
   -8.0520    5.3018   -9.1751 N   0  0  0  0  0  0  0  0  0  0  0  0
   -8.5216    4.1212   -8.7403 C   0  0  0  0  0  0  0  0  0  0  0  0
   -8.7061    3.0032   -9.5298 C   0  0  0  0  0  0  0  0  0  0  0  0
   -8.4203    3.0612  -10.8863 C   0  0  0  0  0  0  0  0  0  0  0  0
   -9.2166    1.8823   -8.6954 C   0  0  0  0  0  0  0  0  0  0  0  0
   -9.4099    2.4100   -7.3151 N   0  0  0  0  0  0  0  0  0  0  0  0
   -8.9470    3.8197   -7.3339 C   0  0  0  0  0  0  0  0  0  0  0  0
   -8.8591    1.8671   -6.6500 H   0  0  0  0  0  0  0  0  0  0  0  0
  1  2  2  0  0  0
  2  3  1  0  0  0
  3 19  1  0  0  0
 19 20  2  0  0  0
 20 21  1  0  0  0
 21 22  2  0  0  0
 22 23  1  0  0  0
 23 24  2  0  0  0
 23 25  1  0  0  0
 25 26  1  0  0  0
 26 27  1  0  0  0
  5  2  1  0  0  0
  5  6  1  0  0  0
  6  7  1  0  0  0
  7  8  1  0  0  0
  7  9  1  0  0  0
 10  9  1  0  0  0
 10 11  1  0  0  0
 11 12  2  0  0  0
 12 13  1  0  0  0
 13 14  1  0  0  0
 14 15  1  0  0  0
 12 16  1  0  0  0
 17 16  1  0  0  0
 24 19  1  0  0  0
 17  5  1  0  0  0
 27 22  1  0  0  0
 17 10  1  0  0  0
 15 11  1  0  0  0
  3  4  1  0  0  0
 26 28  1  0  0  0
 14 18  1  0  0  0
M  END
> <minimizedAffinity>
-9.23766

> <minimizedRMSD>
0.28818

$$$$
P23922


 32 36  0  0  0  0  0  0  0  0999 V2000
   -5.3724    4.4538  -19.8081 C   0  0  0  0  0  0  0  0  0  0  0  0
   -5.1608    5.8463  -19.2832 C   0  0  0  0  0  0  0  0  0  0  0  0
   -3.8509    6.4396  -19.8462 C   0  0  0  0  0  0  0  0  0  0  0  0
   -3.3126    7.6225  -19.0382 C   0  0  0  0  0  0  0  0  0  0  0  0
   -4.3953    8.3911  -18.4366 N   0  0  0  0  0  0  0  0  0  0  0  0
   -5.2125    7.5602  -17.5270 C   0  0  0  0  0  0  0  0  0  0  0  0
   -5.2483    6.0112  -17.7664 C   0  0  0  0  0  0  0  0  0  0  0  0
   -4.1671    5.3872  -16.8541 C   0  0  0  0  0  0  0  0  0  0  0  0
   -3.0282    5.0869  -17.1855 O   0  0  0  0  0  0  0  0  0  0  0  0
   -4.7409    5.1978  -15.4409 C   0  0  0  0  0  0  0  0  0  0  0  0
   -6.2132    5.1049  -15.7396 C   0  0  0  0  0  0  0  0  0  0  0  0
   -7.2409    4.7164  -14.8833 C   0  0  0  0  0  0  0  0  0  0  0  0
   -8.4792    4.3743  -15.4405 C   0  0  0  0  0  0  0  0  0  0  0  0
   -8.6604    4.4686  -16.8235 C   0  0  0  0  0  0  0  0  0  0  0  0
  -10.1298    3.9768  -17.5509 Cl  0  0  0  0  0  0  0  0  0  0  0  0
   -7.6848    5.0341  -17.6418 C   0  0  0  0  0  0  0  0  0  0  0  0
   -6.4678    5.3914  -17.0910 C   0  0  0  0  0  0  0  0  0  0  0  0
   -4.9932    8.7567  -19.1777 H   0  0  0  0  0  0  0  0  0  0  0  0
   -7.1006    4.9415  -13.4178 C   0  0  0  0  0  0  0  0  0  0  0  0
   -6.5172    5.8960  -13.0859 O   0  0  0  0  0  0  0  0  0  0  0  0
   -7.8592    3.8932  -12.5811 N   0  0  0  0  0  0  0  0  0  0  0  0
   -8.2082    3.1297  -13.0954 H   0  0  0  0  0  0  0  0  0  0  0  0
   -8.1314    3.8497  -11.2166 C   0  0  0  0  0  0  0  0  0  0  0  0
   -7.9635    4.9699  -10.3880 C   0  0  0  0  0  0  0  0  0  0  0  0
   -8.2598    5.0051   -9.0612 N   0  0  0  0  0  0  0  0  0  0  0  0
   -8.7206    3.8432   -8.5678 C   0  0  0  0  0  0  0  0  0  0  0  0
   -8.9119    2.6872   -9.3047 C   0  0  0  0  0  0  0  0  0  0  0  0
   -8.6231    2.6760  -10.6551 C   0  0  0  0  0  0  0  0  0  0  0  0
   -9.3960    1.6052   -8.4051 C   0  0  0  0  0  0  0  0  0  0  0  0
   -9.8810    2.2927   -7.1785 N   0  0  0  0  0  0  0  0  0  0  0  0
   -9.1307    3.5760   -7.1442 C   0  0  0  0  0  0  0  0  0  0  0  0
   -9.6778    1.7348   -6.3491 H   0  0  0  0  0  0  0  0  0  0  0  0
  2  1  1  0  0  0
  2  3  1  0  0  0
  3  4  1  0  0  0
  4  5  1  0  0  0
  5  6  1  0  0  0
  7  6  1  0  0  0
  7  8  1  0  0  0
  8  9  2  0  0  0
  8 10  1  0  0  0
 10 11  1  0  0  0
 11 12  2  0  0  0
 12 19  1  0  0  0
 19 20  2  0  0  0
 19 21  1  0  0  0
 21 23  1  0  0  0
 23 24  2  0  0  0
 24 25  1  0  0  0
 25 26  2  0  0  0
 26 27  1  0  0  0
 27 28  2  0  0  0
 27 29  1  0  0  0
 29 30  1  0  0  0
 30 31  1  0  0  0
 12 13  1  0  0  0
 13 14  2  0  0  0
 14 15  1  0  0  0
 14 16  1  0  0  0
 16 17  2  0  0  0
  7  2  1  0  0  0
 17 11  1  0  0  0
 17  7  1  0  0  0
 28 23  1  0  0  0
 31 26  1  0  0  0
  5 18  1  0  0  0
 21 22  1  0  0  0
 30 32  1  0  0  0
M  END
> <minimizedAffinity>
-9.10493

> <minimizedRMSD>
0.30216

$$$$
P23923


 32 36  0  0  0  0  0  0  0  0999 V2000
   -4.8539    5.0448  -19.0146 C   0  0  0  0  0  0  0  0  0  0  0  0
   -4.2470    5.9849  -17.9847 C   0  0  0  0  0  0  0  0  0  0  0  0
   -3.4867    7.1090  -18.7025 C   0  0  0  0  0  0  0  0  0  0  0  0
   -4.4290    8.0957  -19.4082 C   0  0  0  0  0  0  0  0  0  0  0  0
   -5.6300    8.4590  -18.6423 N   0  0  0  0  0  0  0  0  0  0  0  0
   -5.4928    8.1081  -17.2258 C   0  0  0  0  0  0  0  0  0  0  0  0
   -5.2429    6.5936  -16.9709 C   0  0  0  0  0  0  0  0  0  0  0  0
   -4.6096    6.5651  -15.5597 C   0  0  0  0  0  0  0  0  0  0  0  0
   -3.4313    6.8089  -15.3185 O   0  0  0  0  0  0  0  0  0  0  0  0
   -5.6577    6.2541  -14.4993 C   0  0  0  0  0  0  0  0  0  0  0  0
   -6.7686    5.6822  -15.3270 C   0  0  0  0  0  0  0  0  0  0  0  0
   -7.9381    5.0736  -14.8785 C   0  0  0  0  0  0  0  0  0  0  0  0
   -8.7345    4.3728  -15.7907 C   0  0  0  0  0  0  0  0  0  0  0  0
   -8.4108    4.4136  -17.1447 C   0  0  0  0  0  0  0  0  0  0  0  0
   -9.2885    3.5372  -18.3244 Cl  0  0  0  0  0  0  0  0  0  0  0  0
   -7.3788    5.2233  -17.5997 C   0  0  0  0  0  0  0  0  0  0  0  0
   -6.5112    5.8090  -16.6957 C   0  0  0  0  0  0  0  0  0  0  0  0
   -6.4325    7.9631  -19.0300 H   0  0  0  0  0  0  0  0  0  0  0  0
   -8.4423    5.4013  -13.5227 C   0  0  0  0  0  0  0  0  0  0  0  0
   -9.2474    6.2416  -13.4502 O   0  0  0  0  0  0  0  0  0  0  0  0
   -7.8653    4.4777  -12.4382 N   0  0  0  0  0  0  0  0  0  0  0  0
   -7.2435    3.7905  -12.7704 H   0  0  0  0  0  0  0  0  0  0  0  0
   -8.0779    4.4546  -11.0667 C   0  0  0  0  0  0  0  0  0  0  0  0
   -7.8055    5.5552  -10.2450 C   0  0  0  0  0  0  0  0  0  0  0  0
   -7.9916    5.5771   -8.8988 N   0  0  0  0  0  0  0  0  0  0  0  0
   -8.4377    4.4193   -8.3829 C   0  0  0  0  0  0  0  0  0  0  0  0
   -8.7271    3.2824   -9.1144 C   0  0  0  0  0  0  0  0  0  0  0  0
   -8.5732    3.2975  -10.4850 C   0  0  0  0  0  0  0  0  0  0  0  0
   -9.1216    2.1877   -8.1871 C   0  0  0  0  0  0  0  0  0  0  0  0
   -9.4757    2.8611   -6.9090 N   0  0  0  0  0  0  0  0  0  0  0  0
   -8.7172    4.1392   -6.9317 C   0  0  0  0  0  0  0  0  0  0  0  0
   -9.1944    2.2903   -6.1118 H   0  0  0  0  0  0  0  0  0  0  0  0
  2  1  1  0  0  0
  2  3  1  0  0  0
  3  4  1  0  0  0
  4  5  1  0  0  0
  5  6  1  0  0  0
  7  6  1  0  0  0
  7  8  1  0  0  0
  8  9  2  0  0  0
  8 10  1  0  0  0
 10 11  1  0  0  0
 11 12  2  0  0  0
 12 19  1  0  0  0
 19 20  2  0  0  0
 19 21  1  0  0  0
 21 23  1  0  0  0
 23 24  2  0  0  0
 24 25  1  0  0  0
 25 26  2  0  0  0
 26 27  1  0  0  0
 27 28  2  0  0  0
 27 29  1  0  0  0
 29 30  1  0  0  0
 30 31  1  0  0  0
 12 13  1  0  0  0
 13 14  2  0  0  0
 14 15  1  0  0  0
 14 16  1  0  0  0
 16 17  2  0  0  0
  7  2  1  0  0  0
 17 11  1  0  0  0
 17  7  1  0  0  0
 28 23  1  0  0  0
 31 26  1  0  0  0
  5 18  1  0  0  0
 21 22  1  0  0  0
 30 32  1  0  0  0
M  END
> <minimizedAffinity>
-8.30031

> <minimizedRMSD>
0.93792

$$$$
P23924


 32 36  0  0  0  0  0  0  0  0999 V2000
   -7.9550    4.8053  -14.6238 C   0  0  0  0  0  0  0  0  0  0  0  0
   -9.0056    4.6023  -15.5244 C   0  0  0  0  0  0  0  0  0  0  0  0
   -8.7365    4.5750  -16.8976 C   0  0  0  0  0  0  0  0  0  0  0  0
   -9.9800    4.3035  -18.0438 Cl  0  0  0  0  0  0  0  0  0  0  0  0
   -7.4584    4.8220  -17.3815 C   0  0  0  0  0  0  0  0  0  0  0  0
   -6.4383    4.9575  -16.4633 C   0  0  0  0  0  0  0  0  0  0  0  0
   -6.6608    4.8809  -15.0998 C   0  0  0  0  0  0  0  0  0  0  0  0
   -5.3598    4.9780  -14.3597 C   0  0  0  0  0  0  0  0  0  0  0  0
   -4.3477    5.1584  -15.4852 C   0  0  0  0  0  0  0  0  0  0  0  0
   -3.1341    5.2569  -15.3651 O   0  0  0  0  0  0  0  0  0  0  0  0
   -5.0851    5.2029  -16.6822 N   0  0  0  0  0  0  0  0  0  0  0  0
   -8.4009    6.3180  -13.0063 O   0  0  0  0  0  0  0  0  0  0  0  0
   -8.2057    5.1916  -13.2251 C   0  0  0  0  0  0  0  0  0  0  0  0
   -8.1221    3.9947  -12.2733 N   0  0  0  0  0  0  0  0  0  0  0  0
   -7.8680    3.1452  -12.7010 H   0  0  0  0  0  0  0  0  0  0  0  0
   -8.3458    3.9125  -10.9085 C   0  0  0  0  0  0  0  0  0  0  0  0
   -8.0880    4.9944  -10.0530 C   0  0  0  0  0  0  0  0  0  0  0  0
   -8.2499    4.9669   -8.7065 N   0  0  0  0  0  0  0  0  0  0  0  0
   -8.6855    3.7884   -8.2308 C   0  0  0  0  0  0  0  0  0  0  0  0
   -8.9731    2.6769   -8.9998 C   0  0  0  0  0  0  0  0  0  0  0  0
   -8.8074    2.7224  -10.3675 C   0  0  0  0  0  0  0  0  0  0  0  0
   -9.3710    1.5476   -8.1243 C   0  0  0  0  0  0  0  0  0  0  0  0
   -9.5357    2.1062   -6.7566 N   0  0  0  0  0  0  0  0  0  0  0  0
   -8.9233    3.4581   -6.7859 C   0  0  0  0  0  0  0  0  0  0  0  0
   -9.0592    1.5168   -6.0740 H   0  0  0  0  0  0  0  0  0  0  0  0
   -4.6499    6.0511  -17.6838 N   0  0  0  0  0  0  0  0  0  0  0  0
   -3.9579    6.6972  -17.3042 H   0  0  0  0  0  0  0  0  0  0  0  0
   -4.0480    5.2735  -18.7583 C   0  0  0  0  0  0  0  0  0  0  0  0
   -5.1791    4.9804  -19.7340 C   0  0  0  0  0  0  0  0  0  0  0  0
   -4.8342    6.2116  -20.4763 N   0  0  0  0  0  0  0  0  0  0  0  0
   -3.4988    6.2051  -19.8554 C   0  0  0  0  0  0  0  0  0  0  0  0
   -5.4046    7.0206  -20.2305 H   0  0  0  0  0  0  0  0  0  0  0  0
 12 13  2  0  0  0
 13 14  1  0  0  0
 14 16  1  0  0  0
 16 17  2  0  0  0
 17 18  1  0  0  0
 18 19  2  0  0  0
 19 20  1  0  0  0
 20 21  2  0  0  0
 20 22  1  0  0  0
 22 23  1  0  0  0
 23 24  1  0  0  0
 13  1  1  0  0  0
  1  2  2  0  0  0
  2  3  1  0  0  0
  3  4  1  0  0  0
  3  5  2  0  0  0
  5  6  1  0  0  0
  6  7  2  0  0  0
  7  8  1  0  0  0
  8  9  1  0  0  0
  9 10  2  0  0  0
  9 11  1  0  0  0
 11 26  1  0  0  0
 26 28  1  0  0  0
 28 29  1  0  0  0
 29 30  1  0  0  0
 30 31  1  0  0  0
 21 16  1  0  0  0
  7  1  1  0  0  0
 31 28  1  0  0  0
 24 19  1  0  0  0
 11  6  1  0  0  0
 14 15  1  0  0  0
 23 25  1  0  0  0
 26 27  1  0  0  0
 30 32  1  0  0  0
M  END
> <minimizedAffinity>
-8.82403

> <minimizedRMSD>
0.56830

$$$$
P23925


 30 34  0  0  0  0  0  0  0  0999 V2000
   -7.3414    4.8814  -15.1164 C   0  0  0  0  0  0  0  0  0  0  0  0
   -8.5484    4.5561  -15.7438 C   0  0  0  0  0  0  0  0  0  0  0  0
   -8.6076    4.4925  -17.1400 C   0  0  0  0  0  0  0  0  0  0  0  0
  -10.0843    4.1359  -17.9241 Cl  0  0  0  0  0  0  0  0  0  0  0  0
   -7.5008    4.7905  -17.9295 C   0  0  0  0  0  0  0  0  0  0  0  0
   -6.3071    5.1055  -17.3059 C   0  0  0  0  0  0  0  0  0  0  0  0
   -6.2136    5.0986  -15.9032 C   0  0  0  0  0  0  0  0  0  0  0  0
   -4.8005    5.3368  -15.4464 C   0  0  0  0  0  0  0  0  0  0  0  0
   -4.0368    5.3664  -16.7684 C   0  0  0  0  0  0  0  0  0  0  0  0
   -2.8172    5.3029  -16.8654 O   0  0  0  0  0  0  0  0  0  0  0  0
   -5.0077    5.5383  -17.9406 C   0  0  0  0  0  0  0  0  0  0  0  0
   -5.0457    7.0065  -18.3516 C   0  0  0  0  0  0  0  0  0  0  0  0
   -5.2469    6.9554  -19.8455 C   0  0  0  0  0  0  0  0  0  0  0  0
   -4.4286    5.8268  -20.2711 N   0  0  0  0  0  0  0  0  0  0  0  0
   -4.5943    4.8148  -19.2155 C   0  0  0  0  0  0  0  0  0  0  0  0
   -3.4502    6.1037  -20.3514 H   0  0  0  0  0  0  0  0  0  0  0  0
   -6.8739    6.2468  -13.3637 O   0  0  0  0  0  0  0  0  0  0  0  0
   -7.3184    5.2123  -13.6688 C   0  0  0  0  0  0  0  0  0  0  0  0
   -8.0014    4.1268  -12.8140 N   0  0  0  0  0  0  0  0  0  0  0  0
   -8.3630    3.3668  -13.3248 H   0  0  0  0  0  0  0  0  0  0  0  0
   -8.1904    4.0460  -11.4368 C   0  0  0  0  0  0  0  0  0  0  0  0
   -7.9733    5.1440  -10.5927 C   0  0  0  0  0  0  0  0  0  0  0  0
   -8.1648    5.1354   -9.2474 N   0  0  0  0  0  0  0  0  0  0  0  0
   -8.5835    3.9568   -8.7537 C   0  0  0  0  0  0  0  0  0  0  0  0
   -8.8183    2.8219   -9.5038 C   0  0  0  0  0  0  0  0  0  0  0  0
   -8.6287    2.8516  -10.8727 C   0  0  0  0  0  0  0  0  0  0  0  0
   -9.2332    1.7042   -8.6174 C   0  0  0  0  0  0  0  0  0  0  0  0
   -9.3709    2.2661   -7.2454 N   0  0  0  0  0  0  0  0  0  0  0  0
   -8.8693    3.6627   -7.3100 C   0  0  0  0  0  0  0  0  0  0  0  0
   -8.8159    1.7225   -6.5845 H   0  0  0  0  0  0  0  0  0  0  0  0
 17 18  2  0  0  0
 18 19  1  0  0  0
 19 21  1  0  0  0
 21 22  2  0  0  0
 22 23  1  0  0  0
 23 24  2  0  0  0
 24 25  1  0  0  0
 25 26  2  0  0  0
 25 27  1  0  0  0
 27 28  1  0  0  0
 28 29  1  0  0  0
 18  1  1  0  0  0
  1  2  2  0  0  0
  2  3  1  0  0  0
  3  4  1  0  0  0
  3  5  2  0  0  0
  5  6  1  0  0  0
  6  7  2  0  0  0
  7  8  1  0  0  0
  8  9  1  0  0  0
  9 10  2  0  0  0
  9 11  1  0  0  0
 11 12  1  0  0  0
 12 13  1  0  0  0
 13 14  1  0  0  0
 14 15  1  0  0  0
 26 21  1  0  0  0
  7  1  1  0  0  0
 15 11  1  0  0  0
 29 24  1  0  0  0
 11  6  1  0  0  0
 19 20  1  0  0  0
 28 30  1  0  0  0
 14 16  1  0  0  0
M  END
> <minimizedAffinity>
-9.90052

> <minimizedRMSD>
0.17792

$$$$
P23954


 27 31  0  0  0  0  0  0  0  0999 V2000
   -5.9185    4.7036  -12.7215 C   0  0  0  0  0  0  0  0  0  0  0  0
   -4.9316    5.0251  -12.1855 O   0  0  0  0  0  0  0  0  0  0  0  0
   -7.2650    4.2045  -12.1344 N   0  0  0  0  0  0  0  0  0  0  0  0
   -7.9271    3.9201  -12.8051 H   0  0  0  0  0  0  0  0  0  0  0  0
   -9.1291    3.9047  -18.5219 O   0  0  0  0  0  0  0  0  0  0  0  0
   -8.3008    4.5302  -17.8872 C   0  0  0  0  0  0  0  0  0  0  0  0
   -6.9374    4.6892  -18.1986 N   0  0  0  0  0  0  0  0  0  0  0  0
   -6.3731    4.9632  -17.0779 C   0  0  0  0  0  0  0  0  0  0  0  0
   -5.0230    5.0301  -16.4771 C   0  0  0  0  0  0  0  0  0  0  0  0
   -3.9804    5.0676  -17.3196 F   0  0  0  0  0  0  0  0  0  0  0  0
   -4.8878    4.9988  -15.1238 C   0  0  0  0  0  0  0  0  0  0  0  0
   -6.0509    4.8445  -14.2020 C   0  0  0  0  0  0  0  0  0  0  0  0
   -7.2731    4.9429  -14.7345 C   0  0  0  0  0  0  0  0  0  0  0  0
   -7.3464    5.2115  -16.0892 C   0  0  0  0  0  0  0  0  0  0  0  0
   -8.5531    4.9693  -16.5074 C   0  0  0  0  0  0  0  0  0  0  0  0
   -9.3006    4.5693  -15.4335 N   0  0  0  0  0  0  0  0  0  0  0  0
   -8.5725    4.6705  -14.3633 N   0  0  0  0  0  0  0  0  0  0  0  0
   -7.6885    4.0936  -10.8146 C   0  0  0  0  0  0  0  0  0  0  0  0
   -7.6274    5.1634   -9.9135 C   0  0  0  0  0  0  0  0  0  0  0  0
   -8.1045    5.1275   -8.6412 N   0  0  0  0  0  0  0  0  0  0  0  0
   -8.6439    3.9490   -8.2821 C   0  0  0  0  0  0  0  0  0  0  0  0
   -8.7438    2.8385   -9.1008 C   0  0  0  0  0  0  0  0  0  0  0  0
   -8.2689    2.8967  -10.3954 C   0  0  0  0  0  0  0  0  0  0  0  0
   -9.3641    1.7186   -8.3426 C   0  0  0  0  0  0  0  0  0  0  0  0
   -9.9903    2.3409   -7.1460 N   0  0  0  0  0  0  0  0  0  0  0  0
   -9.2470    3.6127   -6.9443 C   0  0  0  0  0  0  0  0  0  0  0  0
   -9.8910    1.7340   -6.3322 H   0  0  0  0  0  0  0  0  0  0  0  0
  5  6  2  0  0  0
  6  7  1  0  0  0
  7  8  2  0  0  0
  8  9  1  0  0  0
  9 10  1  0  0  0
  9 11  2  0  0  0
 11 12  1  0  0  0
 12  1  1  0  0  0
  1  2  2  0  0  0
  1  3  1  0  0  0
  3 18  1  0  0  0
 18 19  2  0  0  0
 19 20  1  0  0  0
 20 21  2  0  0  0
 21 22  1  0  0  0
 22 23  2  0  0  0
 22 24  1  0  0  0
 24 25  1  0  0  0
 25 26  1  0  0  0
 12 13  2  0  0  0
 13 14  1  0  0  0
 14 15  2  0  0  0
 15 16  1  0  0  0
 16 17  2  0  0  0
 15  6  1  0  0  0
 14  8  1  0  0  0
 23 18  1  0  0  0
 17 13  1  0  0  0
 26 21  1  0  0  0
  3  4  1  0  0  0
 25 27  1  0  0  0
M  END
> <minimizedAffinity>
-8.39177

> <minimizedRMSD>
0.81218

$$$$
P23960


 37 40  0  0  0  0  0  0  0  0999 V2000
   -6.8007    4.9946  -12.7335 C   0  0  0  0  0  0  0  0  0  0  0  0
   -7.0799    6.3516  -12.4607 O   0  0  0  0  0  0  0  0  0  0  0  0
   -7.8708    6.6241  -12.9517 H   0  0  0  0  0  0  0  0  0  0  0  0
   -5.6498    5.4502  -15.0709 C   0  0  0  0  0  0  0  0  0  0  0  0
   -6.7330    4.9675  -14.2781 C   0  0  0  0  0  0  0  0  0  0  0  0
   -7.9328    4.5628  -14.9524 C   0  0  0  0  0  0  0  0  0  0  0  0
   -8.0368    4.5352  -16.3317 C   0  0  0  0  0  0  0  0  0  0  0  0
   -9.6526    4.2508  -17.2086 Br  0  0  0  0  0  0  0  0  0  0  0  0
   -6.9310    4.8611  -17.0511 C   0  0  0  0  0  0  0  0  0  0  0  0
   -5.7783    5.3578  -16.4603 C   0  0  0  0  0  0  0  0  0  0  0  0
   -4.8270    5.7383  -17.5630 C   0  0  0  0  0  0  0  0  0  0  0  0
   -5.5137    5.1502  -18.7943 C   0  0  0  0  0  0  0  0  0  0  0  0
   -5.0469    5.0142  -19.9105 O   0  0  0  0  0  0  0  0  0  0  0  0
   -6.7633    4.7294  -18.4110 N   0  0  0  0  0  0  0  0  0  0  0  0
   -7.4477    4.3801  -19.0265 H   0  0  0  0  0  0  0  0  0  0  0  0
   -4.5323    7.6074  -14.3885 C   0  0  0  0  0  0  0  0  0  0  0  0
   -4.3963    6.0999  -14.5392 C   0  0  0  0  0  0  0  0  0  0  0  0
   -5.4948    4.3934  -11.9763 C   0  0  0  0  0  0  0  0  0  0  0  0
   -4.9532    4.9862  -11.1227 O   0  0  0  0  0  0  0  0  0  0  0  0
   -5.2346    2.9576  -12.5322 N   0  0  0  0  0  0  0  0  0  0  0  0
   -5.7817    2.7123  -13.3131 H   0  0  0  0  0  0  0  0  0  0  0  0
   -4.3201    1.9296  -12.0860 C   0  0  0  0  0  0  0  0  0  0  0  0
   -2.9230    2.0361  -12.6846 C   0  0  0  0  0  0  0  0  0  0  0  0
   -2.9010    3.0135  -13.6305 F   0  0  0  0  0  0  0  0  0  0  0  0
   -2.6153    0.8802  -13.3317 F   0  0  0  0  0  0  0  0  0  0  0  0
   -7.9960    4.2454  -12.2679 N   0  0  0  0  0  0  0  0  0  0  0  0
   -8.6307    3.8742  -12.9225 H   0  0  0  0  0  0  0  0  0  0  0  0
   -8.2204    4.0665  -10.8880 C   0  0  0  0  0  0  0  0  0  0  0  0
   -8.1793    5.1001   -9.9294 C   0  0  0  0  0  0  0  0  0  0  0  0
   -8.4488    4.9647   -8.6086 N   0  0  0  0  0  0  0  0  0  0  0  0
   -8.7878    3.7237   -8.2337 C   0  0  0  0  0  0  0  0  0  0  0  0
   -8.8780    2.6404   -9.0798 C   0  0  0  0  0  0  0  0  0  0  0  0
   -8.6082    2.8020  -10.4262 C   0  0  0  0  0  0  0  0  0  0  0  0
   -9.3220    1.4410   -8.3231 C   0  0  0  0  0  0  0  0  0  0  0  0
   -9.4497    1.8522   -6.8996 N   0  0  0  0  0  0  0  0  0  0  0  0
   -9.1773    3.3088   -6.8474 C   0  0  0  0  0  0  0  0  0  0  0  0
   -8.7732    1.3478   -6.3266 H   0  0  0  0  0  0  0  0  0  0  0  0
 16 17  1  0  0  0
 17  4  1  0  0  0
  4  5  2  0  0  0
  5  1  1  0  0  0
  1  2  1  0  0  0
  1 26  1  0  0  0
 26 28  1  0  0  0
 28 29  2  0  0  0
 29 30  1  0  0  0
 30 31  2  0  0  0
 31 32  1  0  0  0
 32 33  2  0  0  0
 32 34  1  0  0  0
 34 35  1  0  0  0
 35 36  1  0  0  0
  1 18  1  0  0  0
 18 19  2  0  0  0
 18 20  1  0  0  0
 20 22  1  0  0  0
 22 23  1  0  0  0
 23 24  1  0  0  0
 23 25  1  0  0  0
  5  6  1  0  0  0
  6  7  2  0  0  0
  7  8  1  0  0  0
  7  9  1  0  0  0
  9 10  2  0  0  0
 10 11  1  0  0  0
 11 12  1  0  0  0
 12 13  2  0  0  0
 12 14  1  0  0  0
 10  4  1  0  0  0
 33 28  1  0  0  0
 14  9  1  0  0  0
 36 31  1  0  0  0
  2  3  1  0  0  0
 26 27  1  0  0  0
 35 37  1  0  0  0
 20 21  1  0  0  0
 14 15  1  0  0  0
M  END
> <minimizedAffinity>
-8.29214

> <minimizedRMSD>
1.27546

$$$$
P23965


 33 38  0  0  0  0  0  0  0  0999 V2000
   -8.2007    4.8629  -15.4530 C   0  0  0  0  0  0  0  0  0  0  0  0
   -8.9461    4.3815  -16.5920 C   0  0  0  0  0  0  0  0  0  0  0  0
   -8.4189    4.2845  -17.9627 C   0  0  0  0  0  0  0  0  0  0  0  0
   -9.2345    3.8337  -18.9262 F   0  0  0  0  0  0  0  0  0  0  0  0
   -7.1101    4.6268  -18.2699 C   0  0  0  0  0  0  0  0  0  0  0  0
   -6.4942    4.9986  -17.1338 C   0  0  0  0  0  0  0  0  0  0  0  0
   -5.2315    5.3762  -17.3996 C   0  0  0  0  0  0  0  0  0  0  0  0
   -4.7589    5.7684  -16.1875 N   0  0  0  0  0  0  0  0  0  0  0  0
   -5.7810    5.6819  -15.2194 C   0  0  0  0  0  0  0  0  0  0  0  0
   -6.8965    5.1596  -15.8358 C   0  0  0  0  0  0  0  0  0  0  0  0
   -4.9581    5.2367  -18.8001 C   0  0  0  0  0  0  0  0  0  0  0  0
   -3.9220    5.4587  -19.4033 O   0  0  0  0  0  0  0  0  0  0  0  0
   -6.1923    4.7675  -19.3175 N   0  0  0  0  0  0  0  0  0  0  0  0
   -6.3750    4.5714  -20.2648 H   0  0  0  0  0  0  0  0  0  0  0  0
   -3.4516    6.3493  -15.9333 C   0  0  0  0  0  0  0  0  0  0  0  0
   -2.2552    5.4840  -16.3628 C   0  0  0  0  0  0  0  0  0  0  0  0
   -1.5934    5.8605  -15.0836 N   0  0  0  0  0  0  0  0  0  0  0  0
   -2.9466    6.0639  -14.5074 C   0  0  0  0  0  0  0  0  0  0  0  0
   -1.0226    6.7044  -15.1338 H   0  0  0  0  0  0  0  0  0  0  0  0
   -9.5304    5.9669  -13.9952 O   0  0  0  0  0  0  0  0  0  0  0  0
   -8.7239    5.1337  -14.1117 C   0  0  0  0  0  0  0  0  0  0  0  0
   -8.0043    4.2855  -13.0476 N   0  0  0  0  0  0  0  0  0  0  0  0
   -7.3004    3.6938  -13.3992 H   0  0  0  0  0  0  0  0  0  0  0  0
   -8.1868    4.2189  -11.6692 C   0  0  0  0  0  0  0  0  0  0  0  0
   -7.9616    5.3192  -10.8298 C   0  0  0  0  0  0  0  0  0  0  0  0
   -8.1019    5.3025   -9.4770 N   0  0  0  0  0  0  0  0  0  0  0  0
   -8.4935    4.1195   -8.9736 C   0  0  0  0  0  0  0  0  0  0  0  0
   -8.7436    2.9857   -9.7207 C   0  0  0  0  0  0  0  0  0  0  0  0
   -8.5840    3.0164  -11.0931 C   0  0  0  0  0  0  0  0  0  0  0  0
   -9.1255    1.8651   -8.8246 C   0  0  0  0  0  0  0  0  0  0  0  0
   -9.2897    2.4393   -7.4624 N   0  0  0  0  0  0  0  0  0  0  0  0
   -8.7350    3.8161   -7.5225 C   0  0  0  0  0  0  0  0  0  0  0  0
   -8.7772    1.8813   -6.7795 H   0  0  0  0  0  0  0  0  0  0  0  0
 20 21  2  0  0  0
 21 22  1  0  0  0
 22 24  1  0  0  0
 24 25  2  0  0  0
 25 26  1  0  0  0
 26 27  2  0  0  0
 27 28  1  0  0  0
 28 29  2  0  0  0
 28 30  1  0  0  0
 30 31  1  0  0  0
 31 32  1  0  0  0
 21  1  1  0  0  0
  1  2  2  0  0  0
  2  3  1  0  0  0
  3  4  1  0  0  0
  3  5  2  0  0  0
  5  6  1  0  0  0
  6  7  2  0  0  0
  7  8  1  0  0  0
  8 15  1  0  0  0
 15 16  1  0  0  0
 16 17  1  0  0  0
 17 18  1  0  0  0
  8  9  1  0  0  0
  9 10  2  0  0  0
  7 11  1  0  0  0
 11 12  2  0  0  0
 11 13  1  0  0  0
 29 24  1  0  0  0
 10  1  1  0  0  0
 32 27  1  0  0  0
 13  5  1  0  0  0
 10  6  1  0  0  0
 18 15  1  0  0  0
 22 23  1  0  0  0
 31 33  1  0  0  0
 17 19  1  0  0  0
 13 14  1  0  0  0
M  END
> <minimizedAffinity>
-9.53416

> <minimizedRMSD>
0.97557

$$$$
P23988


 34 39  0  0  0  0  0  0  0  0999 V2000
   -8.6089    4.3124  -17.2419 C   0  0  0  0  0  0  0  0  0  0  0  0
   -8.9419    4.4088  -15.9248 C   0  0  0  0  0  0  0  0  0  0  0  0
   -7.9784    4.7972  -14.8532 C   0  0  0  0  0  0  0  0  0  0  0  0
   -6.7003    5.0082  -15.1827 C   0  0  0  0  0  0  0  0  0  0  0  0
   -6.3906    4.8510  -16.5208 C   0  0  0  0  0  0  0  0  0  0  0  0
   -7.1969    4.5405  -17.6364 C   0  0  0  0  0  0  0  0  0  0  0  0
   -6.4737    4.5514  -18.7045 N   0  0  0  0  0  0  0  0  0  0  0  0
   -5.2011    5.0125  -18.3280 C   0  0  0  0  0  0  0  0  0  0  0  0
   -4.2633    5.3141  -19.0450 O   0  0  0  0  0  0  0  0  0  0  0  0
   -5.1790    5.1429  -16.8934 C   0  0  0  0  0  0  0  0  0  0  0  0
   -4.6375    5.4852  -15.5945 C   0  0  0  0  0  0  0  0  0  0  0  0
   -5.5267    5.4236  -14.5999 N   0  0  0  0  0  0  0  0  0  0  0  0
   -3.2267    5.8691  -15.4082 C   0  0  0  0  0  0  0  0  0  0  0  0
   -2.3923    5.2482  -14.4730 C   0  0  0  0  0  0  0  0  0  0  0  0
   -1.0675    5.6701  -14.3284 C   0  0  0  0  0  0  0  0  0  0  0  0
   -0.5706    6.7105  -15.1112 C   0  0  0  0  0  0  0  0  0  0  0  0
   -1.3975    7.3371  -16.0402 C   0  0  0  0  0  0  0  0  0  0  0  0
   -2.7221    6.9206  -16.1864 C   0  0  0  0  0  0  0  0  0  0  0  0
   -8.4732    5.1929  -13.5069 C   0  0  0  0  0  0  0  0  0  0  0  0
   -9.1671    6.1171  -13.3516 O   0  0  0  0  0  0  0  0  0  0  0  0
   -7.9839    4.1269  -12.4999 N   0  0  0  0  0  0  0  0  0  0  0  0
   -7.4597    3.3944  -12.8973 H   0  0  0  0  0  0  0  0  0  0  0  0
   -8.1639    4.0343  -11.1237 C   0  0  0  0  0  0  0  0  0  0  0  0
   -7.9747    5.1305  -10.2703 C   0  0  0  0  0  0  0  0  0  0  0  0
   -8.1640    5.1038   -8.9251 N   0  0  0  0  0  0  0  0  0  0  0  0
   -8.5734    3.9152   -8.4485 C   0  0  0  0  0  0  0  0  0  0  0  0
   -8.8052    2.7861   -9.2152 C   0  0  0  0  0  0  0  0  0  0  0  0
   -8.5840    2.8244  -10.5767 C   0  0  0  0  0  0  0  0  0  0  0  0
   -9.2747    1.6792   -8.3378 C   0  0  0  0  0  0  0  0  0  0  0  0
   -9.6689    2.3258   -7.0591 N   0  0  0  0  0  0  0  0  0  0  0  0
   -8.8920    3.5914   -7.0139 C   0  0  0  0  0  0  0  0  0  0  0  0
   -9.4296    1.7296   -6.2669 H   0  0  0  0  0  0  0  0  0  0  0  0
  -10.8435    4.5271  -17.9440 O   0  0  0  0  0  0  0  0  0  0  0  0
   -9.6918    4.2479  -18.2297 C   0  0  0  0  0  0  0  0  0  0  0  0
 33 34  2  0  0  0
 34  1  1  0  0  0
  1  2  2  0  0  0
  2  3  1  0  0  0
  3 19  1  0  0  0
 19 20  2  0  0  0
 19 21  1  0  0  0
 21 23  1  0  0  0
 23 24  2  0  0  0
 24 25  1  0  0  0
 25 26  2  0  0  0
 26 27  1  0  0  0
 27 28  2  0  0  0
 27 29  1  0  0  0
 29 30  1  0  0  0
 30 31  1  0  0  0
  3  4  2  0  0  0
  4  5  1  0  0  0
  5  6  1  0  0  0
  6  7  2  0  0  0
  7  8  1  0  0  0
  8  9  2  0  0  0
  8 10  1  0  0  0
 10 11  1  0  0  0
 11 13  1  0  0  0
 13 14  2  0  0  0
 14 15  1  0  0  0
 15 16  2  0  0  0
 16 17  1  0  0  0
 17 18  2  0  0  0
 11 12  2  0  0  0
  6  1  1  0  0  0
 18 13  1  0  0  0
 28 23  1  0  0  0
 12  4  1  0  0  0
 31 26  1  0  0  0
 10  5  2  0  0  0
 21 22  1  0  0  0
 30 32  1  0  0  0
M  END
> <minimizedAffinity>
-9.96945

> <minimizedRMSD>
1.19855

$$$$
P24045


 30 33  0  0  0  0  0  0  0  0999 V2000
   -2.9105    5.8046  -16.0784 C   0  0  0  0  0  0  0  0  0  0  0  0
   -4.3535    5.4824  -16.1848 C   0  0  0  0  0  0  0  0  0  0  0  0
   -5.1740    5.4542  -15.0857 N   0  0  0  0  0  0  0  0  0  0  0  0
   -6.4497    5.0805  -15.4421 C   0  0  0  0  0  0  0  0  0  0  0  0
   -7.5982    4.8822  -14.6537 C   0  0  0  0  0  0  0  0  0  0  0  0
   -8.7698    4.5015  -15.3167 C   0  0  0  0  0  0  0  0  0  0  0  0
   -8.7681    4.3142  -16.6939 C   0  0  0  0  0  0  0  0  0  0  0  0
  -10.2371    4.0419  -17.5198 Cl  0  0  0  0  0  0  0  0  0  0  0  0
   -7.6135    4.4641  -17.4557 C   0  0  0  0  0  0  0  0  0  0  0  0
   -6.4330    4.8763  -16.8213 C   0  0  0  0  0  0  0  0  0  0  0  0
   -5.1183    5.1741  -17.2980 C   0  0  0  0  0  0  0  0  0  0  0  0
   -4.8896    5.6714  -14.1686 H   0  0  0  0  0  0  0  0  0  0  0  0
   -4.6630    5.1171  -18.7165 C   0  0  0  0  0  0  0  0  0  0  0  0
   -5.3969    6.1222  -19.4867 N   0  0  0  0  0  0  0  0  0  0  0  0
   -6.3970    5.9294  -19.4314 H   0  0  0  0  0  0  0  0  0  0  0  0
   -5.0976    6.0890  -20.4613 H   0  0  0  0  0  0  0  0  0  0  0  0
   -7.5431    5.0795  -13.1811 C   0  0  0  0  0  0  0  0  0  0  0  0
   -7.0801    6.1137  -12.7151 O   0  0  0  0  0  0  0  0  0  0  0  0
   -7.9686    3.9470  -12.2705 C   0  0  0  0  0  0  0  0  0  0  0  0
   -8.0896    2.8434  -12.7846 O   0  0  0  0  0  0  0  0  0  0  0  0
   -8.1808    4.0602  -10.8152 C   0  0  0  0  0  0  0  0  0  0  0  0
   -7.9440    5.2327  -10.0814 C   0  0  0  0  0  0  0  0  0  0  0  0
   -8.1412    5.2478   -8.6937 C   0  0  0  0  0  0  0  0  0  0  0  0
   -8.5731    4.0880   -8.0695 C   0  0  0  0  0  0  0  0  0  0  0  0
   -8.8379    2.9391   -8.7970 C   0  0  0  0  0  0  0  0  0  0  0  0
   -8.6504    2.9062  -10.1625 C   0  0  0  0  0  0  0  0  0  0  0  0
   -9.3431    1.8664   -7.8985 C   0  0  0  0  0  0  0  0  0  0  0  0
   -9.1672    2.3831   -6.5157 N   0  0  0  0  0  0  0  0  0  0  0  0
   -8.8557    3.8257   -6.6303 C   0  0  0  0  0  0  0  0  0  0  0  0
   -8.4002    1.8945   -6.0539 H   0  0  0  0  0  0  0  0  0  0  0  0
  1  2  1  0  0  0
  2  3  1  0  0  0
  3  4  1  0  0  0
  4  5  2  0  0  0
  5 17  1  0  0  0
 17 18  2  0  0  0
 17 19  1  0  0  0
 19 20  2  0  0  0
 19 21  1  0  0  0
 21 22  2  0  0  0
 22 23  1  0  0  0
 23 24  2  0  0  0
 24 25  1  0  0  0
 25 26  2  0  0  0
 25 27  1  0  0  0
 27 28  1  0  0  0
 28 29  1  0  0  0
  5  6  1  0  0  0
  6  7  2  0  0  0
  7  8  1  0  0  0
  7  9  1  0  0  0
  9 10  2  0  0  0
 10 11  1  0  0  0
 11 13  1  0  0  0
 13 14  1  0  0  0
 11  2  2  0  0  0
 10  4  1  0  0  0
 26 21  1  0  0  0
 29 24  1  0  0  0
  3 12  1  0  0  0
 28 30  1  0  0  0
 14 15  1  0  0  0
 14 16  1  0  0  0
M  END
> <minimizedAffinity>
-8.50238

> <minimizedRMSD>
0.61345

$$$$
P24052


 29 32  0  0  0  0  0  0  0  0999 V2000
   -5.1882    5.1394  -17.7189 C   0  0  0  0  0  0  0  0  0  0  0  0
   -6.3963    4.7977  -17.2790 C   0  0  0  0  0  0  0  0  0  0  0  0
   -7.6209    4.4268  -17.9076 C   0  0  0  0  0  0  0  0  0  0  0  0
   -8.7106    4.2747  -17.1443 C   0  0  0  0  0  0  0  0  0  0  0  0
  -10.2306    4.0887  -17.9056 Cl  0  0  0  0  0  0  0  0  0  0  0  0
   -8.6792    4.4784  -15.7079 C   0  0  0  0  0  0  0  0  0  0  0  0
   -7.5564    4.8316  -15.0522 C   0  0  0  0  0  0  0  0  0  0  0  0
   -6.3060    4.9868  -15.8238 C   0  0  0  0  0  0  0  0  0  0  0  0
   -5.1277    5.3000  -15.4016 N   0  0  0  0  0  0  0  0  0  0  0  0
   -4.3458    5.3676  -16.5238 C   0  0  0  0  0  0  0  0  0  0  0  0
   -3.1454    5.5763  -16.5820 O   0  0  0  0  0  0  0  0  0  0  0  0
   -5.4059    5.3206  -20.1896 N   0  0  0  0  0  0  0  0  0  0  0  0
   -4.5579    5.3376  -19.0345 C   0  0  0  0  0  0  0  0  0  0  0  0
   -4.8428    5.4689  -21.0271 H   0  0  0  0  0  0  0  0  0  0  0  0
   -6.1013    6.0628  -20.1118 H   0  0  0  0  0  0  0  0  0  0  0  0
   -7.6800    5.3383  -13.6627 C   0  0  0  0  0  0  0  0  0  0  0  0
   -7.7126    6.4858  -13.4480 O   0  0  0  0  0  0  0  0  0  0  0  0
   -7.7967    4.1331  -12.6979 N   0  0  0  0  0  0  0  0  0  0  0  0
   -7.6605    3.2536  -13.1187 H   0  0  0  0  0  0  0  0  0  0  0  0
   -8.0630    4.0909  -11.3315 C   0  0  0  0  0  0  0  0  0  0  0  0
   -7.8885    5.2266  -10.5253 C   0  0  0  0  0  0  0  0  0  0  0  0
   -8.1201    5.1691   -9.1478 C   0  0  0  0  0  0  0  0  0  0  0  0
   -8.5339    3.9681   -8.6025 C   0  0  0  0  0  0  0  0  0  0  0  0
   -8.7230    2.8476   -9.4005 C   0  0  0  0  0  0  0  0  0  0  0  0
   -8.4883    2.8866  -10.7660 C   0  0  0  0  0  0  0  0  0  0  0  0
   -9.1468    1.6988   -8.5506 C   0  0  0  0  0  0  0  0  0  0  0  0
   -9.3816    2.2540   -7.1922 N   0  0  0  0  0  0  0  0  0  0  0  0
   -8.8181    3.6202   -7.1819 C   0  0  0  0  0  0  0  0  0  0  0  0
   -8.9150    1.6770   -6.4923 H   0  0  0  0  0  0  0  0  0  0  0  0
 12 13  1  0  0  0
 13  1  1  0  0  0
  1  2  2  0  0  0
  2  3  1  0  0  0
  3  4  2  0  0  0
  4  5  1  0  0  0
  4  6  1  0  0  0
  6  7  2  0  0  0
  7 16  1  0  0  0
 16 17  2  0  0  0
 16 18  1  0  0  0
 18 20  1  0  0  0
 20 21  2  0  0  0
 21 22  1  0  0  0
 22 23  2  0  0  0
 23 24  1  0  0  0
 24 25  2  0  0  0
 24 26  1  0  0  0
 26 27  1  0  0  0
 27 28  1  0  0  0
  7  8  1  0  0  0
  8  9  2  0  0  0
  9 10  1  0  0  0
 10 11  2  0  0  0
 10  1  1  0  0  0
  8  2  1  0  0  0
 25 20  1  0  0  0
 28 23  1  0  0  0
 12 14  1  0  0  0
 12 15  1  0  0  0
 18 19  1  0  0  0
 27 29  1  0  0  0
M  END
> <minimizedAffinity>
-9.22675

> <minimizedRMSD>
0.18089

$$$$
P24053


 31 34  0  0  0  0  0  0  0  0999 V2000
   -5.1804    5.1567  -17.7248 C   0  0  0  0  0  0  0  0  0  0  0  0
   -4.3722    5.4958  -16.6628 C   0  0  0  0  0  0  0  0  0  0  0  0
   -5.0981    5.3848  -15.5230 N   0  0  0  0  0  0  0  0  0  0  0  0
   -4.5243    5.6235  -14.2791 N   0  0  0  0  0  0  0  0  0  0  0  0
   -6.3935    5.0058  -15.7815 C   0  0  0  0  0  0  0  0  0  0  0  0
   -7.5224    4.8133  -14.9520 C   0  0  0  0  0  0  0  0  0  0  0  0
   -8.7196    4.4069  -15.5517 C   0  0  0  0  0  0  0  0  0  0  0  0
   -8.7786    4.2141  -16.9240 C   0  0  0  0  0  0  0  0  0  0  0  0
  -10.2913    3.9491  -17.6672 Cl  0  0  0  0  0  0  0  0  0  0  0  0
   -7.6643    4.3853  -17.7406 C   0  0  0  0  0  0  0  0  0  0  0  0
   -6.4537    4.8095  -17.1696 C   0  0  0  0  0  0  0  0  0  0  0  0
   -3.5472    5.8896  -14.4008 H   0  0  0  0  0  0  0  0  0  0  0  0
   -4.5783    4.7776  -13.7118 H   0  0  0  0  0  0  0  0  0  0  0  0
   -5.4561    6.2704  -19.8210 N   0  0  0  0  0  0  0  0  0  0  0  0
   -4.7725    5.1654  -19.1543 C   0  0  0  0  0  0  0  0  0  0  0  0
   -5.1879    6.2920  -20.8049 H   0  0  0  0  0  0  0  0  0  0  0  0
   -5.1928    7.1503  -19.3774 H   0  0  0  0  0  0  0  0  0  0  0  0
   -7.5284    5.2100  -13.5181 C   0  0  0  0  0  0  0  0  0  0  0  0
   -7.3013    6.3272  -13.2592 O   0  0  0  0  0  0  0  0  0  0  0  0
   -7.8859    4.0181  -12.5952 N   0  0  0  0  0  0  0  0  0  0  0  0
   -7.9575    3.1494  -13.0529 H   0  0  0  0  0  0  0  0  0  0  0  0
   -8.1230    3.9755  -11.2209 C   0  0  0  0  0  0  0  0  0  0  0  0
   -7.9198    5.1085  -10.4176 C   0  0  0  0  0  0  0  0  0  0  0  0
   -8.1518    5.0628   -9.0388 C   0  0  0  0  0  0  0  0  0  0  0  0
   -8.5661    3.8674   -8.4819 C   0  0  0  0  0  0  0  0  0  0  0  0
   -8.7722    2.7443   -9.2715 C   0  0  0  0  0  0  0  0  0  0  0  0
   -8.5731    2.7826  -10.6449 C   0  0  0  0  0  0  0  0  0  0  0  0
   -9.2126    1.6089   -8.4116 C   0  0  0  0  0  0  0  0  0  0  0  0
   -9.1479    2.0936   -7.0064 N   0  0  0  0  0  0  0  0  0  0  0  0
   -8.8716    3.5451   -7.0609 C   0  0  0  0  0  0  0  0  0  0  0  0
   -8.4008    1.6136   -6.5045 H   0  0  0  0  0  0  0  0  0  0  0  0
 14 15  1  0  0  0
 15  1  1  0  0  0
  1  2  2  0  0  0
  2  3  1  0  0  0
  3  4  1  0  0  0
  3  5  1  0  0  0
  5  6  2  0  0  0
  6 18  1  0  0  0
 18 19  2  0  0  0
 18 20  1  0  0  0
 20 22  1  0  0  0
 22 23  2  0  0  0
 23 24  1  0  0  0
 24 25  2  0  0  0
 25 26  1  0  0  0
 26 27  2  0  0  0
 26 28  1  0  0  0
 28 29  1  0  0  0
 29 30  1  0  0  0
  6  7  1  0  0  0
  7  8  2  0  0  0
  8  9  1  0  0  0
  8 10  1  0  0  0
 10 11  2  0  0  0
 11  1  1  0  0  0
 11  5  1  0  0  0
 27 22  1  0  0  0
 30 25  1  0  0  0
 14 16  1  0  0  0
 14 17  1  0  0  0
  4 12  1  0  0  0
  4 13  1  0  0  0
 20 21  1  0  0  0
 29 31  1  0  0  0
M  END
> <minimizedAffinity>
-9.15126

> <minimizedRMSD>
0.48238

$$$$
P24065


 34 37  0  0  0  0  0  0  0  0999 V2000
   -5.2834    5.4723  -15.2768 C   0  0  0  0  0  0  0  0  0  0  0  0
   -5.2554    6.9346  -14.8268 C   0  0  0  0  0  0  0  0  0  0  0  0
   -4.4612    5.4178  -16.6110 C   0  0  0  0  0  0  0  0  0  0  0  0
   -3.2389    5.4174  -16.7050 O   0  0  0  0  0  0  0  0  0  0  0  0
   -5.4057    5.4498  -17.8094 C   0  0  0  0  0  0  0  0  0  0  0  0
   -6.6573    4.8873  -17.1996 C   0  0  0  0  0  0  0  0  0  0  0  0
   -7.7748    4.4303  -17.8770 C   0  0  0  0  0  0  0  0  0  0  0  0
   -8.9265    4.1598  -17.1484 C   0  0  0  0  0  0  0  0  0  0  0  0
  -10.3678    3.8625  -18.0156 Cl  0  0  0  0  0  0  0  0  0  0  0  0
   -8.9669    4.3213  -15.7623 C   0  0  0  0  0  0  0  0  0  0  0  0
   -7.8306    4.7806  -15.0820 C   0  0  0  0  0  0  0  0  0  0  0  0
   -6.6590    5.0415  -15.7958 C   0  0  0  0  0  0  0  0  0  0  0  0
   -4.8420    4.7883  -19.0586 C   0  0  0  0  0  0  0  0  0  0  0  0
   -4.0368    5.7440  -19.8431 N   0  0  0  0  0  0  0  0  0  0  0  0
   -4.6245    6.5252  -20.1342 H   0  0  0  0  0  0  0  0  0  0  0  0
   -3.6611    5.2755  -20.6677 H   0  0  0  0  0  0  0  0  0  0  0  0
   -8.0216    5.2420  -13.6893 C   0  0  0  0  0  0  0  0  0  0  0  0
   -8.3787    6.3414  -13.5324 O   0  0  0  0  0  0  0  0  0  0  0  0
   -7.7975    4.1090  -12.6691 N   0  0  0  0  0  0  0  0  0  0  0  0
   -7.4155    3.2840  -13.0468 H   0  0  0  0  0  0  0  0  0  0  0  0
   -8.0475    4.0621  -11.2984 C   0  0  0  0  0  0  0  0  0  0  0  0
   -7.8648    5.2024  -10.4987 C   0  0  0  0  0  0  0  0  0  0  0  0
   -8.0876    5.1574   -9.1195 C   0  0  0  0  0  0  0  0  0  0  0  0
   -8.5098    3.9646   -8.5642 C   0  0  0  0  0  0  0  0  0  0  0  0
   -8.7173    2.8425   -9.3553 C   0  0  0  0  0  0  0  0  0  0  0  0
   -8.4817    2.8669  -10.7226 C   0  0  0  0  0  0  0  0  0  0  0  0
   -9.1754    1.7110   -8.5004 C   0  0  0  0  0  0  0  0  0  0  0  0
   -9.3393    2.2599   -7.1276 N   0  0  0  0  0  0  0  0  0  0  0  0
   -8.7905    3.6318   -7.1402 C   0  0  0  0  0  0  0  0  0  0  0  0
   -8.8287    1.6848   -6.4575 H   0  0  0  0  0  0  0  0  0  0  0  0
   -4.9242    4.4811  -14.3353 O   0  0  0  0  0  0  0  0  0  0  0  0
   -4.6366    5.7401  -12.2371 C   0  0  0  0  0  0  0  0  0  0  0  0
   -4.0859    4.7010  -13.2077 C   0  0  0  0  0  0  0  0  0  0  0  0
   -2.6108    4.9130  -13.5146 C   0  0  0  0  0  0  0  0  0  0  0  0
 32 33  1  0  0  0
 33 34  1  0  0  0
 33 31  1  0  0  0
 31  1  1  0  0  0
  1  2  1  0  0  0
  1  3  1  0  0  0
  3  4  2  0  0  0
  3  5  1  0  0  0
  5 13  1  0  0  0
 13 14  1  0  0  0
  5  6  1  0  0  0
  6  7  2  0  0  0
  7  8  1  0  0  0
  8  9  1  0  0  0
  8 10  2  0  0  0
 10 11  1  0  0  0
 11 17  1  0  0  0
 17 18  2  0  0  0
 17 19  1  0  0  0
 19 21  1  0  0  0
 21 22  2  0  0  0
 22 23  1  0  0  0
 23 24  2  0  0  0
 24 25  1  0  0  0
 25 26  2  0  0  0
 25 27  1  0  0  0
 27 28  1  0  0  0
 28 29  1  0  0  0
 11 12  2  0  0  0
 12  1  1  0  0  0
 12  6  1  0  0  0
 26 21  1  0  0  0
 29 24  1  0  0  0
 14 15  1  0  0  0
 14 16  1  0  0  0
 19 20  1  0  0  0
 28 30  1  0  0  0
M  END
> <minimizedAffinity>
-8.59769

> <minimizedRMSD>
0.52328

$$$$
P24087


 30 34  0  0  0  0  0  0  0  0999 V2000
   -7.1523    4.8069  -14.7771 C   0  0  0  0  0  0  0  0  0  0  0  0
   -8.4944    4.9202  -15.5006 C   0  0  0  0  0  0  0  0  0  0  0  0
   -8.4618    4.1709  -16.8292 C   0  0  0  0  0  0  0  0  0  0  0  0
   -9.9748    4.3423  -17.7500 Cl  0  0  0  0  0  0  0  0  0  0  0  0
   -7.2511    4.4542  -17.7209 C   0  0  0  0  0  0  0  0  0  0  0  0
   -7.2300    5.5638  -18.6701 N   0  0  0  0  0  0  0  0  0  0  0  0
   -5.8573    5.5494  -19.1385 C   0  0  0  0  0  0  0  0  0  0  0  0
   -5.5735    6.6181  -19.9867 O   0  0  0  0  0  0  0  0  0  0  0  0
   -5.0884    5.5889  -17.8391 C   0  0  0  0  0  0  0  0  0  0  0  0
   -5.0494    6.9100  -17.0738 C   0  0  0  0  0  0  0  0  0  0  0  0
   -5.9296    6.7448  -15.9132 N   0  0  0  0  0  0  0  0  0  0  0  0
   -5.9710    5.3302  -15.5936 C   0  0  0  0  0  0  0  0  0  0  0  0
   -5.9452    4.6874  -16.9620 C   0  0  0  0  0  0  0  0  0  0  0  0
   -7.4534    6.4465  -18.2104 H   0  0  0  0  0  0  0  0  0  0  0  0
   -5.7643    7.4525  -19.5304 H   0  0  0  0  0  0  0  0  0  0  0  0
   -6.8671    7.0786  -16.1371 H   0  0  0  0  0  0  0  0  0  0  0  0
   -6.7618    6.4246  -13.0540 O   0  0  0  0  0  0  0  0  0  0  0  0
   -7.2150    5.3892  -13.3611 C   0  0  0  0  0  0  0  0  0  0  0  0
   -7.9543    4.3115  -12.5005 N   0  0  0  0  0  0  0  0  0  0  0  0
   -8.3121    3.5499  -13.0116 H   0  0  0  0  0  0  0  0  0  0  0  0
   -8.1874    4.2552  -11.1336 C   0  0  0  0  0  0  0  0  0  0  0  0
   -7.9876    5.3685  -10.3061 C   0  0  0  0  0  0  0  0  0  0  0  0
   -8.2281    5.2805   -8.9313 C   0  0  0  0  0  0  0  0  0  0  0  0
   -8.6571    4.0697   -8.4180 C   0  0  0  0  0  0  0  0  0  0  0  0
   -8.8331    2.9605   -9.2391 C   0  0  0  0  0  0  0  0  0  0  0  0
   -8.6135    3.0357  -10.6002 C   0  0  0  0  0  0  0  0  0  0  0  0
   -9.2326    1.7912   -8.4040 C   0  0  0  0  0  0  0  0  0  0  0  0
   -9.6911    2.3839   -7.1209 N   0  0  0  0  0  0  0  0  0  0  0  0
   -8.9847    3.6813   -7.0149 C   0  0  0  0  0  0  0  0  0  0  0  0
   -9.4439    1.7776   -6.3388 H   0  0  0  0  0  0  0  0  0  0  0  0
 17 18  2  0  0  0
 18 19  1  0  0  0
 19 21  1  0  0  0
 21 22  2  0  0  0
 22 23  1  0  0  0
 23 24  2  0  0  0
 24 25  1  0  0  0
 25 26  2  0  0  0
 25 27  1  0  0  0
 27 28  1  0  0  0
 28 29  1  0  0  0
  1 18  1  0  0  0
  1  2  1  0  0  0
  2  3  1  0  0  0
  3  4  1  0  0  0
  3  5  1  0  0  0
  5  6  1  0  0  0
  6  7  1  0  0  0
  7  8  1  0  0  0
  7  9  1  0  0  0
  9 10  1  0  0  0
 10 11  1  0  0  0
 12 11  1  0  0  0
 13 12  1  0  0  0
 26 21  1  0  0  0
 12  1  1  0  0  0
 29 24  1  0  0  0
 13  5  1  0  0  0
 13  9  1  0  0  0
 19 20  1  0  0  0
 28 30  1  0  0  0
  6 14  1  0  0  0
  8 15  1  0  0  0
 11 16  1  0  0  0
M  END
> <minimizedAffinity>
-8.30326

> <minimizedRMSD>
0.34178

$$$$
P24118


 27 31  0  0  0  0  0  0  0  0999 V2000
   -9.6606    5.7717  -14.2809 O   0  0  0  0  0  0  0  0  0  0  0  0
   -8.8395    4.9501  -14.3988 C   0  0  0  0  0  0  0  0  0  0  0  0
   -8.1069    4.1077  -13.3334 N   0  0  0  0  0  0  0  0  0  0  0  0
   -7.5043    3.4187  -13.6957 H   0  0  0  0  0  0  0  0  0  0  0  0
   -8.3506    4.6389  -15.7647 C   0  0  0  0  0  0  0  0  0  0  0  0
   -9.1119    3.9190  -16.6858 C   0  0  0  0  0  0  0  0  0  0  0  0
   -8.6222    3.7152  -17.9753 C   0  0  0  0  0  0  0  0  0  0  0  0
   -7.3786    4.2355  -18.3180 C   0  0  0  0  0  0  0  0  0  0  0  0
   -6.6176    4.9833  -17.4190 C   0  0  0  0  0  0  0  0  0  0  0  0
   -7.1099    5.1689  -16.1295 C   0  0  0  0  0  0  0  0  0  0  0  0
   -5.3112    5.5292  -17.9674 C   0  0  0  0  0  0  0  0  0  0  0  0
   -5.2145    7.0628  -17.8966 C   0  0  0  0  0  0  0  0  0  0  0  0
   -4.6922    7.4060  -16.5055 C   0  0  0  0  0  0  0  0  0  0  0  0
   -3.9523    6.1724  -16.0169 C   0  0  0  0  0  0  0  0  0  0  0  0
   -4.0858    5.1311  -17.1251 C   0  0  0  0  0  0  0  0  0  0  0  0
   -5.2007    5.0673  -19.4434 C   0  0  0  0  0  0  0  0  0  0  0  0
   -6.5955    4.0015  -19.8706 S   0  0  0  0  0  0  0  0  0  0  0  0
   -8.1595    4.1634  -11.9435 C   0  0  0  0  0  0  0  0  0  0  0  0
   -7.8963    5.3588  -11.2533 C   0  0  0  0  0  0  0  0  0  0  0  0
   -7.9793    5.4152   -9.8584 C   0  0  0  0  0  0  0  0  0  0  0  0
   -8.3442    4.2674   -9.1821 C   0  0  0  0  0  0  0  0  0  0  0  0
   -8.5872    3.0777   -9.8629 C   0  0  0  0  0  0  0  0  0  0  0  0
   -8.4863    3.0021  -11.2410 C   0  0  0  0  0  0  0  0  0  0  0  0
   -8.9410    2.0171   -8.8741 C   0  0  0  0  0  0  0  0  0  0  0  0
   -9.2893    2.7578   -7.6317 N   0  0  0  0  0  0  0  0  0  0  0  0
   -8.5522    4.0380   -7.7228 C   0  0  0  0  0  0  0  0  0  0  0  0
   -8.9944    2.2333   -6.8081 H   0  0  0  0  0  0  0  0  0  0  0  0
  1  2  2  0  0  0
  2  3  1  0  0  0
  3 18  1  0  0  0
 18 19  2  0  0  0
 19 20  1  0  0  0
 20 21  2  0  0  0
 21 22  1  0  0  0
 22 23  2  0  0  0
 22 24  1  0  0  0
 24 25  1  0  0  0
 25 26  1  0  0  0
  2  5  1  0  0  0
  5  6  2  0  0  0
  6  7  1  0  0  0
  7  8  2  0  0  0
  8  9  1  0  0  0
  9 10  2  0  0  0
  9 11  1  0  0  0
 11 12  1  0  0  0
 12 13  1  0  0  0
 13 14  1  0  0  0
 14 15  1  0  0  0
 11 16  1  0  0  0
 16 17  1  0  0  0
 23 18  1  0  0  0
 10  5  1  0  0  0
 15 11  1  0  0  0
 26 21  1  0  0  0
 17  8  1  0  0  0
  3  4  1  0  0  0
 25 27  1  0  0  0
M  END
> <minimizedAffinity>
-9.13242

> <minimizedRMSD>
0.72793

$$$$
P24123


 29 32  0  0  0  0  0  0  0  0999 V2000
   -5.2960    5.2617  -17.9586 C   0  0  0  0  0  0  0  0  0  0  0  0
   -5.5250    4.7886  -19.2364 C   0  0  0  0  0  0  0  0  0  0  0  0
   -7.0272    4.0097  -19.3972 S   0  0  0  0  0  0  0  0  0  0  0  0
   -7.4578    4.3313  -17.7732 C   0  0  0  0  0  0  0  0  0  0  0  0
   -8.6519    3.9597  -17.1272 C   0  0  0  0  0  0  0  0  0  0  0  0
   -8.8223    4.2908  -15.7811 C   0  0  0  0  0  0  0  0  0  0  0  0
   -7.8544    5.0219  -15.1139 C   0  0  0  0  0  0  0  0  0  0  0  0
   -6.6897    5.4095  -15.7723 C   0  0  0  0  0  0  0  0  0  0  0  0
   -6.4499    5.0368  -17.1134 C   0  0  0  0  0  0  0  0  0  0  0  0
   -8.0055    5.4726  -13.7097 C   0  0  0  0  0  0  0  0  0  0  0  0
   -7.8331    6.6013  -13.4682 O   0  0  0  0  0  0  0  0  0  0  0  0
   -8.2953    4.2826  -12.7726 N   0  0  0  0  0  0  0  0  0  0  0  0
   -8.4797    3.4316  -13.2321 H   0  0  0  0  0  0  0  0  0  0  0  0
   -8.3387    4.2156  -11.3828 C   0  0  0  0  0  0  0  0  0  0  0  0
   -8.1150    5.3555  -10.5924 C   0  0  0  0  0  0  0  0  0  0  0  0
   -8.2062    5.2900   -9.1989 C   0  0  0  0  0  0  0  0  0  0  0  0
   -8.5462    4.0795   -8.6266 C   0  0  0  0  0  0  0  0  0  0  0  0
   -8.7477    2.9449   -9.4077 C   0  0  0  0  0  0  0  0  0  0  0  0
   -8.6296    2.9882  -10.7851 C   0  0  0  0  0  0  0  0  0  0  0  0
   -9.0934    1.7981   -8.5176 C   0  0  0  0  0  0  0  0  0  0  0  0
   -9.4821    2.4255   -7.2261 N   0  0  0  0  0  0  0  0  0  0  0  0
   -8.7742    3.7248   -7.1958 C   0  0  0  0  0  0  0  0  0  0  0  0
   -9.1904    1.8411   -6.4426 H   0  0  0  0  0  0  0  0  0  0  0  0
   -4.2479    7.4084  -17.1613 C   0  0  0  0  0  0  0  0  0  0  0  0
   -4.0051    5.9373  -17.5216 C   0  0  0  0  0  0  0  0  0  0  0  0
   -3.2869    5.1581  -16.3909 C   0  0  0  0  0  0  0  0  0  0  0  0
   -1.9463    5.6545  -16.0865 N   0  0  0  0  0  0  0  0  0  0  0  0
   -1.3506    5.5505  -16.9079 H   0  0  0  0  0  0  0  0  0  0  0  0
   -1.5536    5.1197  -15.3117 H   0  0  0  0  0  0  0  0  0  0  0  0
 25 24  1  0  0  0
 25 26  1  0  0  0
 26 27  1  0  0  0
 25  1  1  0  0  0
  1  2  2  0  0  0
  2  3  1  0  0  0
  3  4  1  0  0  0
  4  5  2  0  0  0
  5  6  1  0  0  0
  6  7  2  0  0  0
  7 10  1  0  0  0
 10 11  2  0  0  0
 10 12  1  0  0  0
 12 14  1  0  0  0
 14 15  2  0  0  0
 15 16  1  0  0  0
 16 17  2  0  0  0
 17 18  1  0  0  0
 18 19  2  0  0  0
 18 20  1  0  0  0
 20 21  1  0  0  0
 21 22  1  0  0  0
  7  8  1  0  0  0
  8  9  2  0  0  0
  9  1  1  0  0  0
  9  4  1  0  0  0
 19 14  1  0  0  0
 22 17  1  0  0  0
 27 28  1  0  0  0
 27 29  1  0  0  0
 12 13  1  0  0  0
 21 23  1  0  0  0
M  END
> <minimizedAffinity>
-7.47591

> <minimizedRMSD>
0.20718

$$$$
P24127


 27 30  0  0  0  0  0  0  0  0999 V2000
   -7.2148    5.2126  -13.0898 C   0  0  0  0  0  0  0  0  0  0  0  0
   -6.5212    6.0946  -12.7659 O   0  0  0  0  0  0  0  0  0  0  0  0
   -8.1219    4.2897  -12.2454 N   0  0  0  0  0  0  0  0  0  0  0  0
   -8.6727    3.6630  -12.7680 H   0  0  0  0  0  0  0  0  0  0  0  0
   -5.1549    4.9117  -20.3703 C   0  0  0  0  0  0  0  0  0  0  0  0
   -5.8039    4.7896  -19.0384 C   0  0  0  0  0  0  0  0  0  0  0  0
   -7.3912    4.1768  -18.9453 S   0  0  0  0  0  0  0  0  0  0  0  0
   -7.4886    4.4202  -17.2584 C   0  0  0  0  0  0  0  0  0  0  0  0
   -8.6081    4.1743  -16.4462 C   0  0  0  0  0  0  0  0  0  0  0  0
   -8.5011    4.4043  -15.0769 C   0  0  0  0  0  0  0  0  0  0  0  0
   -7.3129    4.8778  -14.5329 C   0  0  0  0  0  0  0  0  0  0  0  0
   -6.2067    5.1322  -15.3490 C   0  0  0  0  0  0  0  0  0  0  0  0
   -6.2849    4.9026  -16.7430 C   0  0  0  0  0  0  0  0  0  0  0  0
   -5.3205    5.1012  -17.7888 C   0  0  0  0  0  0  0  0  0  0  0  0
   -4.0687    5.5614  -17.5630 N   0  0  0  0  0  0  0  0  0  0  0  0
   -3.7782    5.7678  -16.6453 H   0  0  0  0  0  0  0  0  0  0  0  0
   -3.4481    5.6900  -18.3164 H   0  0  0  0  0  0  0  0  0  0  0  0
   -8.2869    4.2001  -10.8674 C   0  0  0  0  0  0  0  0  0  0  0  0
   -8.0918    5.3124  -10.0354 C   0  0  0  0  0  0  0  0  0  0  0  0
   -8.2805    5.2102   -8.6539 C   0  0  0  0  0  0  0  0  0  0  0  0
   -8.6649    3.9877   -8.1331 C   0  0  0  0  0  0  0  0  0  0  0  0
   -8.8530    2.8854   -8.9561 C   0  0  0  0  0  0  0  0  0  0  0  0
   -8.6680    2.9707  -10.3253 C   0  0  0  0  0  0  0  0  0  0  0  0
   -9.2287    1.7039   -8.1305 C   0  0  0  0  0  0  0  0  0  0  0  0
   -9.4659    2.2219   -6.7571 N   0  0  0  0  0  0  0  0  0  0  0  0
   -8.9284    3.5986   -6.7195 C   0  0  0  0  0  0  0  0  0  0  0  0
   -8.9837    1.6381   -6.0737 H   0  0  0  0  0  0  0  0  0  0  0  0
  5  6  1  0  0  0
  6  7  1  0  0  0
  7  8  1  0  0  0
  8  9  2  0  0  0
  9 10  1  0  0  0
 10 11  2  0  0  0
 11  1  1  0  0  0
  1  2  2  0  0  0
  1  3  1  0  0  0
  3 18  1  0  0  0
 18 19  2  0  0  0
 19 20  1  0  0  0
 20 21  2  0  0  0
 21 22  1  0  0  0
 22 23  2  0  0  0
 22 24  1  0  0  0
 24 25  1  0  0  0
 25 26  1  0  0  0
 11 12  1  0  0  0
 12 13  2  0  0  0
 13 14  1  0  0  0
 14 15  1  0  0  0
 14  6  2  0  0  0
 13  8  1  0  0  0
 23 18  1  0  0  0
 26 21  1  0  0  0
  3  4  1  0  0  0
 25 27  1  0  0  0
 15 16  1  0  0  0
 15 17  1  0  0  0
M  END
> <minimizedAffinity>
-8.14183

> <minimizedRMSD>
0.57224

$$$$
P24128


 28 31  0  0  0  0  0  0  0  0999 V2000
   -6.0325    6.1999  -14.8631 C   0  0  0  0  0  0  0  0  0  0  0  0
   -6.8084    5.0303  -15.4607 C   0  0  0  0  0  0  0  0  0  0  0  0
   -6.5876    4.8916  -16.9567 C   0  0  0  0  0  0  0  0  0  0  0  0
   -7.4660    4.2741  -17.7607 C   0  0  0  0  0  0  0  0  0  0  0  0
   -6.9730    4.1916  -19.4012 S   0  0  0  0  0  0  0  0  0  0  0  0
   -5.4679    5.1189  -19.0442 C   0  0  0  0  0  0  0  0  0  0  0  0
   -5.3617    6.3292  -19.7394 O   0  0  0  0  0  0  0  0  0  0  0  0
   -5.4614    5.4064  -17.6163 N   0  0  0  0  0  0  0  0  0  0  0  0
   -8.7078    3.6613  -17.2598 C   0  0  0  0  0  0  0  0  0  0  0  0
   -9.3866    2.9075  -17.9499 O   0  0  0  0  0  0  0  0  0  0  0  0
   -9.0408    3.8789  -15.8015 C   0  0  0  0  0  0  0  0  0  0  0  0
   -8.3267    5.0942  -15.2073 C   0  0  0  0  0  0  0  0  0  0  0  0
   -6.0948    6.9123  -19.4874 H   0  0  0  0  0  0  0  0  0  0  0  0
   -4.7450    5.9074  -17.1634 H   0  0  0  0  0  0  0  0  0  0  0  0
   -8.7106    5.4568  -13.7601 C   0  0  0  0  0  0  0  0  0  0  0  0
   -9.3042    6.4454  -13.5567 O   0  0  0  0  0  0  0  0  0  0  0  0
   -8.2271    4.3525  -12.7791 N   0  0  0  0  0  0  0  0  0  0  0  0
   -7.8088    3.5725  -13.2102 H   0  0  0  0  0  0  0  0  0  0  0  0
   -8.2895    4.2870  -11.3896 C   0  0  0  0  0  0  0  0  0  0  0  0
   -8.0816    5.4257  -10.5967 C   0  0  0  0  0  0  0  0  0  0  0  0
   -8.1894    5.3555   -9.2043 C   0  0  0  0  0  0  0  0  0  0  0  0
   -8.5388    4.1453   -8.6330 C   0  0  0  0  0  0  0  0  0  0  0  0
   -8.7604    3.0218   -9.4172 C   0  0  0  0  0  0  0  0  0  0  0  0
   -8.6174    3.0656  -10.7950 C   0  0  0  0  0  0  0  0  0  0  0  0
   -9.1650    1.8784   -8.5511 C   0  0  0  0  0  0  0  0  0  0  0  0
   -9.2567    2.4138   -7.1662 N   0  0  0  0  0  0  0  0  0  0  0  0
   -8.7531    3.8024   -7.1997 C   0  0  0  0  0  0  0  0  0  0  0  0
   -8.6864    1.8505   -6.5354 H   0  0  0  0  0  0  0  0  0  0  0  0
  2  1  1  0  0  0
  2  3  1  0  0  0
  3  4  2  0  0  0
  4  5  1  0  0  0
  5  6  1  0  0  0
  6  7  1  0  0  0
  6  8  1  0  0  0
  4  9  1  0  0  0
  9 10  2  0  0  0
  9 11  1  0  0  0
 11 12  1  0  0  0
 12 15  1  0  0  0
 15 16  2  0  0  0
 15 17  1  0  0  0
 17 19  1  0  0  0
 19 20  2  0  0  0
 20 21  1  0  0  0
 21 22  2  0  0  0
 22 23  1  0  0  0
 23 24  2  0  0  0
 23 25  1  0  0  0
 25 26  1  0  0  0
 26 27  1  0  0  0
 12  2  1  0  0  0
 24 19  1  0  0  0
  8  3  1  0  0  0
 27 22  1  0  0  0
  7 13  1  0  0  0
  8 14  1  0  0  0
 17 18  1  0  0  0
 26 28  1  0  0  0
M  END
> <minimizedAffinity>
-8.13073

> <minimizedRMSD>
0.45827

$$$$
P24129


 25 28  0  0  0  0  0  0  0  0999 V2000
   -7.6768    5.3829  -13.6654 C   0  0  0  0  0  0  0  0  0  0  0  0
   -7.2995    6.4568  -13.4081 O   0  0  0  0  0  0  0  0  0  0  0  0
   -8.2251    4.2700  -12.7500 N   0  0  0  0  0  0  0  0  0  0  0  0
   -8.5524    3.4711  -13.2233 H   0  0  0  0  0  0  0  0  0  0  0  0
   -8.3327    4.2106  -11.3645 C   0  0  0  0  0  0  0  0  0  0  0  0
   -8.1155    5.3471  -10.5697 C   0  0  0  0  0  0  0  0  0  0  0  0
   -8.2413    5.2799   -9.1792 C   0  0  0  0  0  0  0  0  0  0  0  0
   -8.5933    4.0688   -8.6125 C   0  0  0  0  0  0  0  0  0  0  0  0
   -8.8001    2.9425   -9.3984 C   0  0  0  0  0  0  0  0  0  0  0  0
   -8.6670    2.9908  -10.7752 C   0  0  0  0  0  0  0  0  0  0  0  0
   -9.1376    1.7825   -8.5270 C   0  0  0  0  0  0  0  0  0  0  0  0
   -9.3519    2.3431   -7.1671 N   0  0  0  0  0  0  0  0  0  0  0  0
   -8.8061    3.7167   -7.1808 C   0  0  0  0  0  0  0  0  0  0  0  0
   -8.8629    1.7778   -6.4730 H   0  0  0  0  0  0  0  0  0  0  0  0
   -5.2824    5.1206  -18.0801 C   0  0  0  0  0  0  0  0  0  0  0  0
   -5.5948    4.7407  -19.3622 C   0  0  0  0  0  0  0  0  0  0  0  0
   -7.1417    4.0265  -19.4375 S   0  0  0  0  0  0  0  0  0  0  0  0
   -7.4504    4.3137  -17.7763 C   0  0  0  0  0  0  0  0  0  0  0  0
   -8.6112    3.9818  -17.0587 C   0  0  0  0  0  0  0  0  0  0  0  0
   -8.6620    4.2824  -15.6956 C   0  0  0  0  0  0  0  0  0  0  0  0
   -7.6057    4.9327  -15.0742 C   0  0  0  0  0  0  0  0  0  0  0  0
   -6.4547    5.2541  -15.7893 C   0  0  0  0  0  0  0  0  0  0  0  0
   -6.3625    4.9330  -17.1615 C   0  0  0  0  0  0  0  0  0  0  0  0
   -2.9995    5.9725  -17.2185 N   0  0  0  0  0  0  0  0  0  0  0  0
   -4.0088    5.6136  -17.6627 C   0  0  0  0  0  0  0  0  0  0  0  0
 24 25  3  0  0  0
 25 15  1  0  0  0
 15 16  2  0  0  0
 16 17  1  0  0  0
 17 18  1  0  0  0
 18 19  2  0  0  0
 19 20  1  0  0  0
 20 21  2  0  0  0
 21  1  1  0  0  0
  1  2  2  0  0  0
  1  3  1  0  0  0
  3  5  1  0  0  0
  5  6  2  0  0  0
  6  7  1  0  0  0
  7  8  2  0  0  0
  8  9  1  0  0  0
  9 10  2  0  0  0
  9 11  1  0  0  0
 11 12  1  0  0  0
 12 13  1  0  0  0
 21 22  1  0  0  0
 22 23  2  0  0  0
 23 15  1  0  0  0
 23 18  1  0  0  0
 10  5  1  0  0  0
 13  8  1  0  0  0
  3  4  1  0  0  0
 12 14  1  0  0  0
M  END
> <minimizedAffinity>
-7.62315

> <minimizedRMSD>
0.23490

$$$$
P24130


 26 29  0  0  0  0  0  0  0  0999 V2000
   -7.0763    5.0743  -13.0220 C   0  0  0  0  0  0  0  0  0  0  0  0
   -6.2236    5.7981  -12.6857 O   0  0  0  0  0  0  0  0  0  0  0  0
   -8.1344    4.3162  -12.1879 N   0  0  0  0  0  0  0  0  0  0  0  0
   -8.8004    3.8218  -12.7183 H   0  0  0  0  0  0  0  0  0  0  0  0
   -8.2988    4.2191  -10.8092 C   0  0  0  0  0  0  0  0  0  0  0  0
   -8.0981    5.3264   -9.9718 C   0  0  0  0  0  0  0  0  0  0  0  0
   -8.2814    5.2180   -8.5898 C   0  0  0  0  0  0  0  0  0  0  0  0
   -8.6672    3.9943   -8.0729 C   0  0  0  0  0  0  0  0  0  0  0  0
   -8.8620    2.8969   -8.9005 C   0  0  0  0  0  0  0  0  0  0  0  0
   -8.6813    2.9881  -10.2706 C   0  0  0  0  0  0  0  0  0  0  0  0
   -9.2462    1.7143   -8.0800 C   0  0  0  0  0  0  0  0  0  0  0  0
   -9.4547    2.2206   -6.6974 N   0  0  0  0  0  0  0  0  0  0  0  0
   -8.9305    3.6022   -6.6604 C   0  0  0  0  0  0  0  0  0  0  0  0
   -8.9503    1.6364   -6.0305 H   0  0  0  0  0  0  0  0  0  0  0  0
   -5.3386    5.0972  -17.8139 C   0  0  0  0  0  0  0  0  0  0  0  0
   -5.9080    4.8207  -19.0354 C   0  0  0  0  0  0  0  0  0  0  0  0
   -7.4820    4.2042  -18.8993 S   0  0  0  0  0  0  0  0  0  0  0  0
   -7.4958    4.4038  -17.2012 C   0  0  0  0  0  0  0  0  0  0  0  0
   -8.5835    4.1219  -16.3525 C   0  0  0  0  0  0  0  0  0  0  0  0
   -8.4345    4.3107  -14.9818 C   0  0  0  0  0  0  0  0  0  0  0  0
   -7.2356    4.7888  -14.4720 C   0  0  0  0  0  0  0  0  0  0  0  0
   -6.1657    5.0867  -15.3254 C   0  0  0  0  0  0  0  0  0  0  0  0
   -6.2693    4.8853  -16.7247 C   0  0  0  0  0  0  0  0  0  0  0  0
   -2.9610    4.9328  -18.5023 C   0  0  0  0  0  0  0  0  0  0  0  0
   -4.0456    5.5308  -17.7570 N   0  0  0  0  0  0  0  0  0  0  0  0
   -3.8393    6.2965  -17.1736 H   0  0  0  0  0  0  0  0  0  0  0  0
 24 25  1  0  0  0
 25 15  1  0  0  0
 15 16  2  0  0  0
 16 17  1  0  0  0
 17 18  1  0  0  0
 18 19  2  0  0  0
 19 20  1  0  0  0
 20 21  2  0  0  0
 21  1  1  0  0  0
  1  2  2  0  0  0
  1  3  1  0  0  0
  3  5  1  0  0  0
  5  6  2  0  0  0
  6  7  1  0  0  0
  7  8  2  0  0  0
  8  9  1  0  0  0
  9 10  2  0  0  0
  9 11  1  0  0  0
 11 12  1  0  0  0
 12 13  1  0  0  0
 21 22  1  0  0  0
 22 23  2  0  0  0
 23 15  1  0  0  0
 23 18  1  0  0  0
 10  5  1  0  0  0
 13  8  1  0  0  0
 25 26  1  0  0  0
  3  4  1  0  0  0
 12 14  1  0  0  0
M  END
> <minimizedAffinity>
-7.61849

> <minimizedRMSD>
0.79591

$$$$
P24139


 36 39  0  0  0  0  0  0  0  0999 V2000
   -7.3219    4.8499  -14.8701 C   0  0  0  0  0  0  0  0  0  0  0  0
   -8.4929    4.3991  -15.4576 C   0  0  0  0  0  0  0  0  0  0  0  0
   -8.5362    4.2006  -16.8365 C   0  0  0  0  0  0  0  0  0  0  0  0
  -10.0413    3.8742  -17.5867 Cl  0  0  0  0  0  0  0  0  0  0  0  0
   -7.3792    4.3991  -17.6108 C   0  0  0  0  0  0  0  0  0  0  0  0
   -7.1615    4.1164  -19.2878 S   0  0  0  0  0  0  0  0  0  0  0  0
   -5.6454    4.9078  -19.3314 C   0  0  0  0  0  0  0  0  0  0  0  0
   -5.2002    5.0926  -18.0399 C   0  0  0  0  0  0  0  0  0  0  0  0
   -3.9386    5.4901  -17.7757 O   0  0  0  0  0  0  0  0  0  0  0  0
   -6.1987    4.8708  -17.0365 C   0  0  0  0  0  0  0  0  0  0  0  0
   -6.1788    5.0930  -15.6397 C   0  0  0  0  0  0  0  0  0  0  0  0
   -3.3311    5.6181  -18.4775 H   0  0  0  0  0  0  0  0  0  0  0  0
   -7.9509    4.1982  -12.5363 N   0  0  0  0  0  0  0  0  0  0  0  0
   -7.2970    5.2588  -13.4479 C   0  0  0  0  0  0  0  0  0  0  0  0
   -6.7806    6.2715  -13.1812 O   0  0  0  0  0  0  0  0  0  0  0  0
   -8.2530    3.3848  -13.0015 H   0  0  0  0  0  0  0  0  0  0  0  0
  -10.5133    2.2668   -6.1940 C   0  0  0  0  0  0  0  0  0  0  0  0
   -9.2716    2.5050   -6.9041 N   0  0  0  0  0  0  0  0  0  0  0  0
   -9.2611    1.9361   -8.2712 C   0  0  0  0  0  0  0  0  0  0  0  0
   -8.8168    3.0435   -9.1723 C   0  0  0  0  0  0  0  0  0  0  0  0
   -8.6181    3.0292  -10.5453 C   0  0  0  0  0  0  0  0  0  0  0  0
   -8.1831    4.2046  -11.1631 C   0  0  0  0  0  0  0  0  0  0  0  0
   -7.9699    5.3681  -10.4062 C   0  0  0  0  0  0  0  0  0  0  0  0
   -8.1867    5.3601   -9.0290 C   0  0  0  0  0  0  0  0  0  0  0  0
   -8.0017    6.4788   -8.2734 O   0  0  0  0  0  0  0  0  0  0  0  0
   -8.6030    4.1952   -8.4231 C   0  0  0  0  0  0  0  0  0  0  0  0
   -8.9017    3.9285   -6.9872 C   0  0  0  0  0  0  0  0  0  0  0  0
   -7.7187    7.2755   -8.6775 H   0  0  0  0  0  0  0  0  0  0  0  0
   -5.0825    5.1639  -20.5520 N   0  0  0  0  0  0  0  0  0  0  0  0
   -4.9173    4.3981  -21.1482 H   0  0  0  0  0  0  0  0  0  0  0  0
   -4.7015    6.5173  -21.0443 C   0  0  0  0  0  0  0  0  0  0  0  0
   -5.0350    6.5667  -22.5546 C   0  0  0  0  0  0  0  0  0  0  0  0
   -5.4772    7.6762  -20.3975 C   0  0  0  0  0  0  0  0  0  0  0  0
   -3.1602    6.6940  -20.9188 C   0  0  0  0  0  0  0  0  0  0  0  0
   -2.7423    7.3054  -19.7030 O   0  0  0  0  0  0  0  0  0  0  0  0
   -3.1078    8.2024  -19.6498 H   0  0  0  0  0  0  0  0  0  0  0  0
 17 18  1  0  0  0
 18 19  1  0  0  0
 19 20  1  0  0  0
 20 21  2  0  0  0
 21 22  1  0  0  0
 22 13  1  0  0  0
 13 14  1  0  0  0
 14 15  2  0  0  0
 14  1  1  0  0  0
  1  2  2  0  0  0
  2  3  1  0  0  0
  3  4  1  0  0  0
  3  5  2  0  0  0
  5  6  1  0  0  0
  6  7  1  0  0  0
  7 29  1  0  0  0
 29 31  1  0  0  0
 31 32  1  0  0  0
 31 33  1  0  0  0
 31 34  1  0  0  0
 34 35  1  0  0  0
  7  8  2  0  0  0
  8  9  1  0  0  0
  8 10  1  0  0  0
 10 11  2  0  0  0
 22 23  2  0  0  0
 23 24  1  0  0  0
 24 25  1  0  0  0
 24 26  2  0  0  0
 26 27  1  0  0  0
 27 18  1  0  0  0
 26 20  1  0  0  0
 11  1  1  0  0  0
 10  5  1  0  0  0
 13 16  1  0  0  0
 29 30  1  0  0  0
 35 36  1  0  0  0
  9 12  1  0  0  0
 25 28  1  0  0  0
M  END
> <minimizedAffinity>
-8.34034

> <minimizedRMSD>
0.43619

$$$$
P24145


 35 39  0  0  0  0  0  0  0  0999 V2000
   -7.7318    5.0509  -14.5850 C   0  0  0  0  0  0  0  0  0  0  0  0
   -8.7782    4.5483  -15.3385 C   0  0  0  0  0  0  0  0  0  0  0  0
   -8.5925    4.3231  -16.7010 C   0  0  0  0  0  0  0  0  0  0  0  0
   -9.9501    3.9204  -17.6677 Cl  0  0  0  0  0  0  0  0  0  0  0  0
   -7.3313    4.5375  -17.2920 C   0  0  0  0  0  0  0  0  0  0  0  0
   -6.8666    4.2180  -18.9126 S   0  0  0  0  0  0  0  0  0  0  0  0
   -5.3521    4.9424  -18.7081 C   0  0  0  0  0  0  0  0  0  0  0  0
   -5.0971    5.2997  -17.3978 C   0  0  0  0  0  0  0  0  0  0  0  0
   -6.2620    5.0664  -16.5576 C   0  0  0  0  0  0  0  0  0  0  0  0
   -6.4944    5.3286  -15.1816 C   0  0  0  0  0  0  0  0  0  0  0  0
   -8.1111    4.2138  -12.2519 N   0  0  0  0  0  0  0  0  0  0  0  0
   -7.9283    5.4466  -13.1675 C   0  0  0  0  0  0  0  0  0  0  0  0
   -7.8739    6.5834  -12.9046 O   0  0  0  0  0  0  0  0  0  0  0  0
   -8.0474    3.3457  -12.7120 H   0  0  0  0  0  0  0  0  0  0  0  0
   -9.4858    4.3940   -5.7400 C   0  0  0  0  0  0  0  0  0  0  0  0
   -8.7817    3.4502   -6.7036 C   0  0  0  0  0  0  0  0  0  0  0  0
   -9.4790    2.1437   -6.7624 N   0  0  0  0  0  0  0  0  0  0  0  0
   -9.2623    1.6228   -8.1381 C   0  0  0  0  0  0  0  0  0  0  0  0
   -8.9139    2.8160   -8.9652 C   0  0  0  0  0  0  0  0  0  0  0  0
   -8.7588    2.9092  -10.3412 C   0  0  0  0  0  0  0  0  0  0  0  0
   -8.3514    4.1315  -10.8812 C   0  0  0  0  0  0  0  0  0  0  0  0
   -8.1420    5.2364  -10.0410 C   0  0  0  0  0  0  0  0  0  0  0  0
   -8.2997    5.1270   -8.6543 C   0  0  0  0  0  0  0  0  0  0  0  0
   -8.6739    3.9038   -8.1277 C   0  0  0  0  0  0  0  0  0  0  0  0
  -10.4757    2.2658   -6.5830 H   0  0  0  0  0  0  0  0  0  0  0  0
   -3.7980    5.8546  -17.0198 C   0  0  0  0  0  0  0  0  0  0  0  0
   -3.4580    6.9981  -17.3009 O   0  0  0  0  0  0  0  0  0  0  0  0
   -3.0171    4.9639  -16.3526 O   0  0  0  0  0  0  0  0  0  0  0  0
   -2.3210    5.4747  -15.2119 C   0  0  0  0  0  0  0  0  0  0  0  0
   -3.1202    5.1712  -13.9716 C   0  0  0  0  0  0  0  0  0  0  0  0
   -3.6077    6.2084  -13.1655 C   0  0  0  0  0  0  0  0  0  0  0  0
   -4.3662    5.9231  -12.0289 C   0  0  0  0  0  0  0  0  0  0  0  0
   -4.6508    4.6007  -11.6924 C   0  0  0  0  0  0  0  0  0  0  0  0
   -4.1801    3.5618  -12.4932 C   0  0  0  0  0  0  0  0  0  0  0  0
   -3.4190    3.8445  -13.6280 C   0  0  0  0  0  0  0  0  0  0  0  0
 16 15  1  0  0  0
 16 17  1  0  0  0
 17 18  1  0  0  0
 18 19  1  0  0  0
 19 20  2  0  0  0
 20 21  1  0  0  0
 21 11  1  0  0  0
 11 12  1  0  0  0
 12 13  2  0  0  0
 12  1  1  0  0  0
  1  2  2  0  0  0
  2  3  1  0  0  0
  3  4  1  0  0  0
  3  5  2  0  0  0
  5  6  1  0  0  0
  6  7  1  0  0  0
  7  8  2  0  0  0
  8 26  1  0  0  0
 26 27  2  0  0  0
 26 28  1  0  0  0
 28 29  1  0  0  0
 29 30  1  0  0  0
 30 31  2  0  0  0
 31 32  1  0  0  0
 32 33  2  0  0  0
 33 34  1  0  0  0
 34 35  2  0  0  0
  8  9  1  0  0  0
  9 10  2  0  0  0
 21 22  2  0  0  0
 22 23  1  0  0  0
 23 24  2  0  0  0
 24 16  1  0  0  0
 24 19  1  0  0  0
 10  1  1  0  0  0
  9  5  1  0  0  0
 35 30  1  0  0  0
 17 25  1  0  0  0
 11 14  1  0  0  0
M  END
> <minimizedAffinity>
-8.05338

> <minimizedRMSD>
2.47911

$$$$
P24147


 26 29  0  0  0  0  0  0  0  0999 V2000
   -8.8071    4.8910  -14.2502 C   0  0  0  0  0  0  0  0  0  0  0  0
   -9.6578    5.6844  -14.1569 O   0  0  0  0  0  0  0  0  0  0  0  0
   -8.0770    4.0763  -13.1645 N   0  0  0  0  0  0  0  0  0  0  0  0
   -7.4419    3.4074  -13.5086 H   0  0  0  0  0  0  0  0  0  0  0  0
   -8.1692    4.1322  -11.7776 C   0  0  0  0  0  0  0  0  0  0  0  0
   -7.8816    5.3146  -11.0767 C   0  0  0  0  0  0  0  0  0  0  0  0
   -7.9959    5.3657   -9.6844 C   0  0  0  0  0  0  0  0  0  0  0  0
   -8.4047    4.2243   -9.0200 C   0  0  0  0  0  0  0  0  0  0  0  0
   -8.6756    3.0508   -9.7117 C   0  0  0  0  0  0  0  0  0  0  0  0
   -8.5549    2.9820  -11.0891 C   0  0  0  0  0  0  0  0  0  0  0  0
   -9.0652    1.9837   -8.7481 C   0  0  0  0  0  0  0  0  0  0  0  0
   -9.2402    2.6625   -7.4375 N   0  0  0  0  0  0  0  0  0  0  0  0
   -8.6264    4.0009   -7.5640 C   0  0  0  0  0  0  0  0  0  0  0  0
   -8.7748    2.1309   -6.7019 H   0  0  0  0  0  0  0  0  0  0  0  0
   -5.0922    5.3578  -17.6460 C   0  0  0  0  0  0  0  0  0  0  0  0
   -5.0101    5.1489  -19.0103 C   0  0  0  0  0  0  0  0  0  0  0  0
   -6.3557    4.3249  -19.6310 S   0  0  0  0  0  0  0  0  0  0  0  0
   -7.1654    4.3591  -18.1279 C   0  0  0  0  0  0  0  0  0  0  0  0
   -8.4303    3.8106  -17.8529 C   0  0  0  0  0  0  0  0  0  0  0  0
   -8.9438    3.9193  -16.5619 C   0  0  0  0  0  0  0  0  0  0  0  0
   -8.2510    4.6194  -15.5938 C   0  0  0  0  0  0  0  0  0  0  0  0
   -6.9988    5.1615  -15.8755 C   0  0  0  0  0  0  0  0  0  0  0  0
   -6.4044    5.0047  -17.1487 C   0  0  0  0  0  0  0  0  0  0  0  0
   -3.3329    4.9664  -15.8045 C   0  0  0  0  0  0  0  0  0  0  0  0
   -3.9317    5.8278  -16.8827 C   0  0  0  0  0  0  0  0  0  0  0  0
   -3.4027    6.9135  -17.1320 O   0  0  0  0  0  0  0  0  0  0  0  0
 24 25  1  0  0  0
 25 26  2  0  0  0
 25 15  1  0  0  0
 15 16  2  0  0  0
 16 17  1  0  0  0
 17 18  1  0  0  0
 18 19  2  0  0  0
 19 20  1  0  0  0
 20 21  2  0  0  0
 21  1  1  0  0  0
  1  2  2  0  0  0
  1  3  1  0  0  0
  3  5  1  0  0  0
  5  6  2  0  0  0
  6  7  1  0  0  0
  7  8  2  0  0  0
  8  9  1  0  0  0
  9 10  2  0  0  0
  9 11  1  0  0  0
 11 12  1  0  0  0
 12 13  1  0  0  0
 21 22  1  0  0  0
 22 23  2  0  0  0
 23 15  1  0  0  0
 23 18  1  0  0  0
 10  5  1  0  0  0
 13  8  1  0  0  0
  3  4  1  0  0  0
 12 14  1  0  0  0
M  END
> <minimizedAffinity>
-8.73700

> <minimizedRMSD>
0.89533

$$$$
P24148


 24 27  0  0  0  0  0  0  0  0999 V2000
   -7.0693    5.1268  -13.2605 C   0  0  0  0  0  0  0  0  0  0  0  0
   -6.2497    5.8918  -12.9348 O   0  0  0  0  0  0  0  0  0  0  0  0
   -8.0934    4.3368  -12.4169 N   0  0  0  0  0  0  0  0  0  0  0  0
   -8.7362    3.8056  -12.9402 H   0  0  0  0  0  0  0  0  0  0  0  0
   -3.9239    5.6213  -17.7667 C   0  0  0  0  0  0  0  0  0  0  0  0
   -5.3023    5.1076  -17.9974 C   0  0  0  0  0  0  0  0  0  0  0  0
   -5.8282    4.7855  -19.2305 C   0  0  0  0  0  0  0  0  0  0  0  0
   -7.4073    4.1662  -19.1250 S   0  0  0  0  0  0  0  0  0  0  0  0
   -7.4684    4.3866  -17.4305 C   0  0  0  0  0  0  0  0  0  0  0  0
   -8.5579    4.1096  -16.5869 C   0  0  0  0  0  0  0  0  0  0  0  0
   -8.4123    4.3216  -15.2165 C   0  0  0  0  0  0  0  0  0  0  0  0
   -7.2184    4.8145  -14.7036 C   0  0  0  0  0  0  0  0  0  0  0  0
   -6.1450    5.1020  -15.5496 C   0  0  0  0  0  0  0  0  0  0  0  0
   -6.2598    4.8848  -16.9415 C   0  0  0  0  0  0  0  0  0  0  0  0
   -8.2554    4.2535  -11.0377 C   0  0  0  0  0  0  0  0  0  0  0  0
   -8.0768    5.3751  -10.2124 C   0  0  0  0  0  0  0  0  0  0  0  0
   -8.2844    5.2869   -8.8323 C   0  0  0  0  0  0  0  0  0  0  0  0
   -8.6813    4.0706   -8.3097 C   0  0  0  0  0  0  0  0  0  0  0  0
   -8.8406    2.9542   -9.1253 C   0  0  0  0  0  0  0  0  0  0  0  0
   -8.6253    3.0233  -10.4895 C   0  0  0  0  0  0  0  0  0  0  0  0
   -9.2443    1.7903   -8.2833 C   0  0  0  0  0  0  0  0  0  0  0  0
   -9.7114    2.3917   -7.0056 N   0  0  0  0  0  0  0  0  0  0  0  0
   -9.0031    3.6878   -6.9041 C   0  0  0  0  0  0  0  0  0  0  0  0
   -9.4705    1.7899   -6.2181 H   0  0  0  0  0  0  0  0  0  0  0  0
  5  6  1  0  0  0
  6  7  2  0  0  0
  7  8  1  0  0  0
  8  9  1  0  0  0
  9 10  2  0  0  0
 10 11  1  0  0  0
 11 12  2  0  0  0
 12  1  1  0  0  0
  1  2  2  0  0  0
  1  3  1  0  0  0
  3 15  1  0  0  0
 15 16  2  0  0  0
 16 17  1  0  0  0
 17 18  2  0  0  0
 18 19  1  0  0  0
 19 20  2  0  0  0
 19 21  1  0  0  0
 21 22  1  0  0  0
 22 23  1  0  0  0
 12 13  1  0  0  0
 13 14  2  0  0  0
 14  6  1  0  0  0
 14  9  1  0  0  0
 20 15  1  0  0  0
 23 18  1  0  0  0
  3  4  1  0  0  0
 22 24  1  0  0  0
M  END
> <minimizedAffinity>
-7.90996

> <minimizedRMSD>
0.52806

$$$$
P24160


 34 37  0  0  0  0  0  0  0  0999 V2000
   -7.1877    4.9093  -13.1828 C   0  0  0  0  0  0  0  0  0  0  0  0
   -7.4514    6.3021  -13.0612 O   0  0  0  0  0  0  0  0  0  0  0  0
   -8.3129    6.5040  -13.4587 H   0  0  0  0  0  0  0  0  0  0  0  0
   -3.8071    5.8396  -17.5325 C   0  0  0  0  0  0  0  0  0  0  0  0
   -5.1301    5.2524  -17.8797 C   0  0  0  0  0  0  0  0  0  0  0  0
   -5.5413    4.9489  -19.1593 C   0  0  0  0  0  0  0  0  0  0  0  0
   -7.0606    4.1967  -19.1881 S   0  0  0  0  0  0  0  0  0  0  0  0
   -7.3016    4.4252  -17.5057 C   0  0  0  0  0  0  0  0  0  0  0  0
   -8.4523    4.1684  -16.7471 C   0  0  0  0  0  0  0  0  0  0  0  0
   -9.9449    3.8009  -17.5123 Cl  0  0  0  0  0  0  0  0  0  0  0  0
   -8.3972    4.2972  -15.3555 C   0  0  0  0  0  0  0  0  0  0  0  0
   -7.2243    4.6922  -14.6956 C   0  0  0  0  0  0  0  0  0  0  0  0
   -6.1224    5.0453  -15.4929 C   0  0  0  0  0  0  0  0  0  0  0  0
   -6.1427    4.9183  -16.9054 C   0  0  0  0  0  0  0  0  0  0  0  0
   -5.7476    4.5970  -12.5137 C   0  0  0  0  0  0  0  0  0  0  0  0
   -5.0715    5.4784  -12.1390 O   0  0  0  0  0  0  0  0  0  0  0  0
   -5.5405    3.0604  -12.4218 N   0  0  0  0  0  0  0  0  0  0  0  0
   -6.2239    2.5239  -12.8848 H   0  0  0  0  0  0  0  0  0  0  0  0
   -4.5051    2.2881  -11.7654 C   0  0  0  0  0  0  0  0  0  0  0  0
   -4.7755    2.0490  -10.2797 C   0  0  0  0  0  0  0  0  0  0  0  0
   -3.7640    1.3089   -9.7495 F   0  0  0  0  0  0  0  0  0  0  0  0
   -5.9073    1.3192  -10.1329 F   0  0  0  0  0  0  0  0  0  0  0  0
   -8.2563    4.1573  -12.5194 N   0  0  0  0  0  0  0  0  0  0  0  0
   -8.9080    3.6630  -13.0673 H   0  0  0  0  0  0  0  0  0  0  0  0
   -8.3720    4.1255  -11.1275 C   0  0  0  0  0  0  0  0  0  0  0  0
   -8.1725    5.2596  -10.3155 C   0  0  0  0  0  0  0  0  0  0  0  0
   -8.2921    5.2030   -8.9221 C   0  0  0  0  0  0  0  0  0  0  0  0
   -8.6343    3.9980   -8.3449 C   0  0  0  0  0  0  0  0  0  0  0  0
   -8.8475    2.8736   -9.1256 C   0  0  0  0  0  0  0  0  0  0  0  0
   -8.7266    2.9200  -10.5056 C   0  0  0  0  0  0  0  0  0  0  0  0
   -9.1859    1.7161   -8.2509 C   0  0  0  0  0  0  0  0  0  0  0  0
   -9.3751    2.2758   -6.8858 N   0  0  0  0  0  0  0  0  0  0  0  0
   -8.8531    3.6576   -6.9120 C   0  0  0  0  0  0  0  0  0  0  0  0
   -8.8597    1.7191   -6.2040 H   0  0  0  0  0  0  0  0  0  0  0  0
  4  5  1  0  0  0
  5  6  2  0  0  0
  6  7  1  0  0  0
  7  8  1  0  0  0
  8  9  2  0  0  0
  9 10  1  0  0  0
  9 11  1  0  0  0
 11 12  2  0  0  0
 12  1  1  0  0  0
  1  2  1  0  0  0
  1 23  1  0  0  0
 23 25  1  0  0  0
 25 26  2  0  0  0
 26 27  1  0  0  0
 27 28  2  0  0  0
 28 29  1  0  0  0
 29 30  2  0  0  0
 29 31  1  0  0  0
 31 32  1  0  0  0
 32 33  1  0  0  0
  1 15  1  0  0  0
 15 16  2  0  0  0
 15 17  1  0  0  0
 17 19  1  0  0  0
 19 20  1  0  0  0
 20 21  1  0  0  0
 20 22  1  0  0  0
 12 13  1  0  0  0
 13 14  2  0  0  0
 14  5  1  0  0  0
 14  8  1  0  0  0
 30 25  1  0  0  0
 33 28  1  0  0  0
  2  3  1  0  0  0
 23 24  1  0  0  0
 32 34  1  0  0  0
 17 18  1  0  0  0
M  END
> <minimizedAffinity>
-8.59173

> <minimizedRMSD>
0.40320

$$$$
P24171


 28 31  0  0  0  0  0  0  0  0999 V2000
   -4.9505    5.2704  -17.6922 C   0  0  0  0  0  0  0  0  0  0  0  0
   -5.2500    4.9657  -19.0032 C   0  0  0  0  0  0  0  0  0  0  0  0
   -6.7935    4.2822  -19.1704 S   0  0  0  0  0  0  0  0  0  0  0  0
   -7.1797    4.5355  -17.5174 C   0  0  0  0  0  0  0  0  0  0  0  0
   -8.4071    4.3515  -16.8597 C   0  0  0  0  0  0  0  0  0  0  0  0
   -9.9943    4.0972  -17.8307 Br  0  0  0  0  0  0  0  0  0  0  0  0
   -8.4939    4.5329  -15.4808 C   0  0  0  0  0  0  0  0  0  0  0  0
   -7.3856    4.9596  -14.7762 C   0  0  0  0  0  0  0  0  0  0  0  0
   -6.1727    5.1749  -15.4189 C   0  0  0  0  0  0  0  0  0  0  0  0
   -6.0608    4.9854  -16.8156 C   0  0  0  0  0  0  0  0  0  0  0  0
   -7.5006    5.3903  -13.3714 C   0  0  0  0  0  0  0  0  0  0  0  0
   -7.2145    6.4887  -13.1030 O   0  0  0  0  0  0  0  0  0  0  0  0
   -8.0266    4.2501  -12.4814 N   0  0  0  0  0  0  0  0  0  0  0  0
   -8.2685    3.4277  -12.9655 H   0  0  0  0  0  0  0  0  0  0  0  0
   -8.2156    4.1923  -11.1072 C   0  0  0  0  0  0  0  0  0  0  0  0
   -8.0029    5.3201  -10.2970 C   0  0  0  0  0  0  0  0  0  0  0  0
   -8.2191    5.2597   -8.9182 C   0  0  0  0  0  0  0  0  0  0  0  0
   -8.6481    4.0617   -8.3816 C   0  0  0  0  0  0  0  0  0  0  0  0
   -8.8353    2.9385   -9.1830 C   0  0  0  0  0  0  0  0  0  0  0  0
   -8.6252    2.9833  -10.5475 C   0  0  0  0  0  0  0  0  0  0  0  0
   -9.2430    1.7917   -8.3218 C   0  0  0  0  0  0  0  0  0  0  0  0
   -9.7064    2.4183   -7.0560 N   0  0  0  0  0  0  0  0  0  0  0  0
   -8.9753    3.7032   -6.9708 C   0  0  0  0  0  0  0  0  0  0  0  0
   -9.4800    1.8241   -6.2585 H   0  0  0  0  0  0  0  0  0  0  0  0
   -3.6521    5.8275  -17.2085 C   0  0  0  0  0  0  0  0  0  0  0  0
   -4.1341    8.1773  -17.0915 C   0  0  0  0  0  0  0  0  0  0  0  0
   -3.4517    7.1294  -17.8357 N   0  0  0  0  0  0  0  0  0  0  0  0
   -2.4533    7.3362  -17.8635 H   0  0  0  0  0  0  0  0  0  0  0  0
 26 27  1  0  0  0
 27 25  1  0  0  0
 25  1  1  0  0  0
  1  2  2  0  0  0
  2  3  1  0  0  0
  3  4  1  0  0  0
  4  5  2  0  0  0
  5  6  1  0  0  0
  5  7  1  0  0  0
  7  8  2  0  0  0
  8 11  1  0  0  0
 11 12  2  0  0  0
 11 13  1  0  0  0
 13 15  1  0  0  0
 15 16  2  0  0  0
 16 17  1  0  0  0
 17 18  2  0  0  0
 18 19  1  0  0  0
 19 20  2  0  0  0
 19 21  1  0  0  0
 21 22  1  0  0  0
 22 23  1  0  0  0
  8  9  1  0  0  0
  9 10  2  0  0  0
 10  1  1  0  0  0
 10  4  1  0  0  0
 20 15  1  0  0  0
 23 18  1  0  0  0
 27 28  1  0  0  0
 13 14  1  0  0  0
 22 24  1  0  0  0
M  END
> <minimizedAffinity>
-7.43295

> <minimizedRMSD>
0.48938

$$$$
P24237


 34 37  0  0  0  0  0  0  0  0999 V2000
   -7.7084    4.5160  -15.5000 C   0  0  0  0  0  0  0  0  0  0  0  0
   -6.6300    4.9767  -16.4467 C   0  0  0  0  0  0  0  0  0  0  0  0
   -6.4914    4.8386  -17.7775 C   0  0  0  0  0  0  0  0  0  0  0  0
   -5.1365    4.8914  -18.2145 C   0  0  0  0  0  0  0  0  0  0  0  0
   -4.5321    5.2475  -19.3438 C   0  0  0  0  0  0  0  0  0  0  0  0
   -3.2076    5.7746  -19.0458 C   0  0  0  0  0  0  0  0  0  0  0  0
   -2.9387    5.8905  -17.7261 C   0  0  0  0  0  0  0  0  0  0  0  0
   -3.9860    4.7572  -16.8636 S   0  0  0  0  0  0  0  0  0  0  0  0
   -5.3153    5.4795  -15.9425 C   0  0  0  0  0  0  0  0  0  0  0  0
   -2.3324    6.2002  -20.0740 C   0  0  0  0  0  0  0  0  0  0  0  0
   -1.6142    6.5383  -20.9207 N   0  0  0  0  0  0  0  0  0  0  0  0
   -8.0476    4.1431  -13.0767 N   0  0  0  0  0  0  0  0  0  0  0  0
   -7.6112    5.2248  -14.1262 C   0  0  0  0  0  0  0  0  0  0  0  0
   -7.3076    6.3476  -13.9779 O   0  0  0  0  0  0  0  0  0  0  0  0
   -8.1800    3.2400  -13.4457 H   0  0  0  0  0  0  0  0  0  0  0  0
   -8.5023    3.9167   -7.5086 C   0  0  0  0  0  0  0  0  0  0  0  0
   -9.1888    2.6086   -7.4067 N   0  0  0  0  0  0  0  0  0  0  0  0
   -9.1220    2.0003   -8.7512 C   0  0  0  0  0  0  0  0  0  0  0  0
   -8.8216    3.1276   -9.6816 C   0  0  0  0  0  0  0  0  0  0  0  0
   -8.7036    3.0963  -11.0563 C   0  0  0  0  0  0  0  0  0  0  0  0
   -8.2772    4.2532  -11.7127 C   0  0  0  0  0  0  0  0  0  0  0  0
   -8.0595    5.4388  -11.0000 C   0  0  0  0  0  0  0  0  0  0  0  0
   -8.1911    5.4581   -9.6050 C   0  0  0  0  0  0  0  0  0  0  0  0
   -8.5419    4.2835   -8.9586 C   0  0  0  0  0  0  0  0  0  0  0  0
  -10.1606    2.7405   -7.1264 H   0  0  0  0  0  0  0  0  0  0  0  0
  -10.0329    4.2349   -5.5297 C   0  0  0  0  0  0  0  0  0  0  0  0
   -9.0526    4.8969   -6.4927 C   0  0  0  0  0  0  0  0  0  0  0  0
   -9.2063    4.5660  -15.8999 C   0  0  0  0  0  0  0  0  0  0  0  0
   -9.7123    3.7781  -17.1102 C   0  0  0  0  0  0  0  0  0  0  0  0
  -10.3258    4.5772  -18.1519 N   0  0  0  0  0  0  0  0  0  0  0  0
   -9.7526    4.3211  -19.4360 N   0  0  0  0  0  0  0  0  0  0  0  0
  -10.1994    5.5639  -17.9266 H   0  0  0  0  0  0  0  0  0  0  0  0
   -9.8734    3.3361  -19.6719 H   0  0  0  0  0  0  0  0  0  0  0  0
   -8.7581    4.5463  -19.4155 H   0  0  0  0  0  0  0  0  0  0  0  0
 26 27  1  0  0  0
 16 27  1  0  0  0
 16 17  1  0  0  0
 17 18  1  0  0  0
 18 19  1  0  0  0
 19 20  2  0  0  0
 20 21  1  0  0  0
 21 12  1  0  0  0
 12 13  1  0  0  0
 13 14  2  0  0  0
 13  1  1  0  0  0
  1 28  1  0  0  0
 28 29  1  0  0  0
 29 30  1  0  0  0
 30 31  1  0  0  0
  1  2  1  0  0  0
  2  3  2  0  0  0
  3  4  1  0  0  0
  4  5  2  0  0  0
  5  6  1  0  0  0
  6 10  1  0  0  0
 10 11  3  0  0  0
  6  7  2  0  0  0
  8  7  1  0  0  0
  8  9  2  0  0  0
 21 22  2  0  0  0
 22 23  1  0  0  0
 23 24  2  0  0  0
 24 16  1  0  0  0
 24 19  1  0  0  0
  9  2  1  0  0  0
  8  4  1  0  0  0
 17 25  1  0  0  0
 12 15  1  0  0  0
 30 32  1  0  0  0
 31 33  1  0  0  0
 31 34  1  0  0  0
M  END
> <minimizedAffinity>
-7.72330

> <minimizedRMSD>
0.78744

$$$$
P24238


 36 41  0  0  0  0  0  0  0  0999 V2000
   -6.7877    4.8245  -17.4128 C   0  0  0  0  0  0  0  0  0  0  0  0
   -8.1373    4.7846  -17.6788 C   0  0  0  0  0  0  0  0  0  0  0  0
   -9.0627    4.3817  -16.3239 S   0  0  0  0  0  0  0  0  0  0  0  0
   -7.6536    4.2715  -15.3315 C   0  0  0  0  0  0  0  0  0  0  0  0
   -7.6264    3.9115  -13.9756 C   0  0  0  0  0  0  0  0  0  0  0  0
   -6.4165    3.9447  -13.2838 C   0  0  0  0  0  0  0  0  0  0  0  0
   -5.2624    4.3126  -13.9871 C   0  0  0  0  0  0  0  0  0  0  0  0
   -3.9979    4.3328  -13.5382 N   0  0  0  0  0  0  0  0  0  0  0  0
   -3.2791    4.8366  -14.5314 N   0  0  0  0  0  0  0  0  0  0  0  0
   -3.9993    5.2507  -15.6291 C   0  0  0  0  0  0  0  0  0  0  0  0
   -5.2524    4.7435  -15.3546 C   0  0  0  0  0  0  0  0  0  0  0  0
   -6.5291    4.6585  -16.0548 C   0  0  0  0  0  0  0  0  0  0  0  0
   -2.2983    4.9097  -14.4871 H   0  0  0  0  0  0  0  0  0  0  0  0
   -3.2215    6.0826  -16.6042 C   0  0  0  0  0  0  0  0  0  0  0  0
   -3.8904    7.3498  -17.1288 C   0  0  0  0  0  0  0  0  0  0  0  0
   -2.9542    8.0871  -18.0924 C   0  0  0  0  0  0  0  0  0  0  0  0
   -2.4491    7.2093  -19.1553 N   0  0  0  0  0  0  0  0  0  0  0  0
   -1.6922    6.0914  -18.5956 C   0  0  0  0  0  0  0  0  0  0  0  0
   -2.5394    5.2346  -17.6682 C   0  0  0  0  0  0  0  0  0  0  0  0
   -1.8412    7.7482  -19.7721 H   0  0  0  0  0  0  0  0  0  0  0  0
   -6.3832    3.7588  -11.8347 C   0  0  0  0  0  0  0  0  0  0  0  0
   -5.3815    3.4578  -11.3193 O   0  0  0  0  0  0  0  0  0  0  0  0
   -7.7812    3.9977  -11.2362 N   0  0  0  0  0  0  0  0  0  0  0  0
   -8.4888    4.1705  -11.8985 H   0  0  0  0  0  0  0  0  0  0  0  0
   -8.2053    4.0092   -9.9192 C   0  0  0  0  0  0  0  0  0  0  0  0
   -8.0155    5.1448   -9.1163 C   0  0  0  0  0  0  0  0  0  0  0  0
   -8.3985    5.1383   -7.7758 C   0  0  0  0  0  0  0  0  0  0  0  0
   -8.9839    3.9919   -7.2751 C   0  0  0  0  0  0  0  0  0  0  0  0
   -9.1866    2.8765   -8.0796 C   0  0  0  0  0  0  0  0  0  0  0  0
   -8.7967    2.8591   -9.4043 C   0  0  0  0  0  0  0  0  0  0  0  0
   -9.7860    1.7846   -7.2675 C   0  0  0  0  0  0  0  0  0  0  0  0
  -10.1778    2.4067   -5.9769 N   0  0  0  0  0  0  0  0  0  0  0  0
   -9.4585    3.6943   -5.8949 C   0  0  0  0  0  0  0  0  0  0  0  0
   -9.9095    1.8033   -5.1995 H   0  0  0  0  0  0  0  0  0  0  0  0
   -5.2348    5.0904  -19.4287 N   0  0  0  0  0  0  0  0  0  0  0  0
   -5.8833    4.9300  -18.4854 C   0  0  0  0  0  0  0  0  0  0  0  0
 35 36  3  0  0  0
 36  1  1  0  0  0
  1  2  2  0  0  0
  2  3  1  0  0  0
  3  4  1  0  0  0
  4  5  1  0  0  0
  5  6  2  0  0  0
  6 21  1  0  0  0
 21 22  2  0  0  0
 21 23  1  0  0  0
 23 25  1  0  0  0
 25 26  2  0  0  0
 26 27  1  0  0  0
 27 28  2  0  0  0
 28 29  1  0  0  0
 29 30  2  0  0  0
 29 31  1  0  0  0
 31 32  1  0  0  0
 32 33  1  0  0  0
  6  7  1  0  0  0
  7  8  2  0  0  0
  8  9  1  0  0  0
  9 10  1  0  0  0
 10 14  1  0  0  0
 14 15  1  0  0  0
 15 16  1  0  0  0
 16 17  1  0  0  0
 17 18  1  0  0  0
 18 19  1  0  0  0
 10 11  2  0  0  0
 11 12  1  0  0  0
 12  1  1  0  0  0
 12  4  2  0  0  0
 30 25  1  0  0  0
 11  7  1  0  0  0
 33 28  1  0  0  0
 19 14  1  0  0  0
 23 24  1  0  0  0
 32 34  1  0  0  0
  9 13  1  0  0  0
 17 20  1  0  0  0
M  END
> <minimizedAffinity>
-8.31552

> <minimizedRMSD>
1.85457

$$$$
P24263


 33 38  0  0  0  0  0  0  0  0999 V2000
   -7.5332    4.6778  -18.4353 C   0  0  0  0  0  0  0  0  0  0  0  0
   -8.9940    5.0801  -18.4583 C   0  0  0  0  0  0  0  0  0  0  0  0
   -9.8397    4.4711  -16.9805 S   0  0  0  0  0  0  0  0  0  0  0  0
   -8.4019    3.7449  -16.2223 C   0  0  0  0  0  0  0  0  0  0  0  0
   -8.2414    3.8872  -14.7044 C   0  0  0  0  0  0  0  0  0  0  0  0
   -7.4297    5.0842  -14.2029 C   0  0  0  0  0  0  0  0  0  0  0  0
   -6.0926    5.2092  -14.9631 C   0  0  0  0  0  0  0  0  0  0  0  0
   -6.4665    5.4372  -16.4111 C   0  0  0  0  0  0  0  0  0  0  0  0
   -5.4448    5.6104  -17.5204 C   0  0  0  0  0  0  0  0  0  0  0  0
   -6.4456    5.7783  -18.6947 C   0  0  0  0  0  0  0  0  0  0  0  0
   -7.2200    4.2535  -17.0009 C   0  0  0  0  0  0  0  0  0  0  0  0
   -7.2295    5.2953  -12.6823 C   0  0  0  0  0  0  0  0  0  0  0  0
   -6.5289    6.1623  -12.3194 O   0  0  0  0  0  0  0  0  0  0  0  0
   -8.0396    4.2446  -11.8669 N   0  0  0  0  0  0  0  0  0  0  0  0
   -8.4977    3.5642  -12.4114 H   0  0  0  0  0  0  0  0  0  0  0  0
   -8.2216    4.1108  -10.4919 C   0  0  0  0  0  0  0  0  0  0  0  0
   -7.9886    5.1813   -9.6159 C   0  0  0  0  0  0  0  0  0  0  0  0
   -8.2083    5.0412   -8.2409 C   0  0  0  0  0  0  0  0  0  0  0  0
   -8.6645    3.8238   -7.7683 C   0  0  0  0  0  0  0  0  0  0  0  0
   -8.8865    2.7592   -8.6326 C   0  0  0  0  0  0  0  0  0  0  0  0
   -8.6681    2.8815   -9.9958 C   0  0  0  0  0  0  0  0  0  0  0  0
   -9.3305    1.5704   -7.8496 C   0  0  0  0  0  0  0  0  0  0  0  0
   -9.6076    2.0682   -6.4770 N   0  0  0  0  0  0  0  0  0  0  0  0
   -8.9779    3.4017   -6.3733 C   0  0  0  0  0  0  0  0  0  0  0  0
   -9.2057    1.4350   -5.7857 H   0  0  0  0  0  0  0  0  0  0  0  0
   -7.2828    2.9350  -20.3558 N   0  0  0  0  0  0  0  0  0  0  0  0
   -7.3688    3.6751  -19.4716 C   0  0  0  0  0  0  0  0  0  0  0  0
   -4.4054    6.7011  -17.3535 C   0  0  0  0  0  0  0  0  0  0  0  0
   -3.1300    6.3117  -18.0981 C   0  0  0  0  0  0  0  0  0  0  0  0
   -2.8738    4.8018  -18.3439 C   0  0  0  0  0  0  0  0  0  0  0  0
   -1.4285    5.1056  -18.2650 N   0  0  0  0  0  0  0  0  0  0  0  0
   -1.7738    6.2282  -17.3477 C   0  0  0  0  0  0  0  0  0  0  0  0
   -1.0065    5.3934  -19.1479 H   0  0  0  0  0  0  0  0  0  0  0  0
 26 27  3  0  0  0
  1 27  1  0  0  0
  1  2  1  0  0  0
  2  3  1  0  0  0
  3  4  1  0  0  0
  4  5  1  0  0  0
  5  6  1  0  0  0
  6 12  1  0  0  0
 12 13  2  0  0  0
 12 14  1  0  0  0
 14 16  1  0  0  0
 16 17  2  0  0  0
 17 18  1  0  0  0
 18 19  2  0  0  0
 19 20  1  0  0  0
 20 21  2  0  0  0
 20 22  1  0  0  0
 22 23  1  0  0  0
 23 24  1  0  0  0
  6  7  1  0  0  0
  8  7  1  0  0  0
  8  9  1  0  0  0
  9 28  1  0  0  0
 28 29  1  0  0  0
 29 30  1  0  0  0
 30 31  1  0  0  0
 31 32  1  0  0  0
  9 10  1  0  0  0
  8 11  1  0  0  0
 10  1  1  0  0  0
 11  1  1  0  0  0
 11  4  1  0  0  0
 21 16  1  0  0  0
 32 29  1  0  0  0
 24 19  1  0  0  0
 14 15  1  0  0  0
 23 25  1  0  0  0
 31 33  1  0  0  0
M  END
> <minimizedAffinity>
-6.37876

> <minimizedRMSD>
0.85945

$$$$
P24273


 31 35  0  0  0  0  0  0  0  0999 V2000
   -6.2030    5.6132  -18.8065 C   0  0  0  0  0  0  0  0  0  0  0  0
   -6.0703    6.2781  -17.4399 C   0  0  0  0  0  0  0  0  0  0  0  0
   -6.0604    5.1152  -16.4661 C   0  0  0  0  0  0  0  0  0  0  0  0
   -6.1617    5.4451  -14.9866 C   0  0  0  0  0  0  0  0  0  0  0  0
   -7.5636    5.3458  -14.4079 C   0  0  0  0  0  0  0  0  0  0  0  0
   -8.2148    4.0281  -14.7964 C   0  0  0  0  0  0  0  0  0  0  0  0
   -8.3137    3.7747  -16.2878 C   0  0  0  0  0  0  0  0  0  0  0  0
   -9.7092    4.5597  -17.0502 S   0  0  0  0  0  0  0  0  0  0  0  0
   -8.8086    5.1105  -18.5021 C   0  0  0  0  0  0  0  0  0  0  0  0
   -7.3763    4.5849  -18.5167 C   0  0  0  0  0  0  0  0  0  0  0  0
   -7.0703    4.1403  -17.0763 C   0  0  0  0  0  0  0  0  0  0  0  0
   -7.4979    5.6956  -12.8954 C   0  0  0  0  0  0  0  0  0  0  0  0
   -6.9690    6.6844  -12.5535 O   0  0  0  0  0  0  0  0  0  0  0  0
   -8.1578    4.5593  -12.0540 N   0  0  0  0  0  0  0  0  0  0  0  0
   -8.6076    3.8620  -12.5839 H   0  0  0  0  0  0  0  0  0  0  0  0
   -8.2140    4.3712  -10.6757 C   0  0  0  0  0  0  0  0  0  0  0  0
   -7.9861    5.4180   -9.7719 C   0  0  0  0  0  0  0  0  0  0  0  0
   -8.1175    5.2095   -8.3937 C   0  0  0  0  0  0  0  0  0  0  0  0
   -8.5183    3.9604   -7.9536 C   0  0  0  0  0  0  0  0  0  0  0  0
   -8.7361    2.9185   -8.8492 C   0  0  0  0  0  0  0  0  0  0  0  0
   -8.5615    3.0964  -10.2101 C   0  0  0  0  0  0  0  0  0  0  0  0
   -9.1790    1.7087   -8.0953 C   0  0  0  0  0  0  0  0  0  0  0  0
   -9.5639    2.2143   -6.7520 N   0  0  0  0  0  0  0  0  0  0  0  0
   -8.8132    3.4780   -6.5726 C   0  0  0  0  0  0  0  0  0  0  0  0
   -9.3055    1.5411   -6.0306 H   0  0  0  0  0  0  0  0  0  0  0  0
   -4.9307    4.9513  -19.2178 N   0  0  0  0  0  0  0  0  0  0  0  0
   -4.8789    4.0640  -18.7174 H   0  0  0  0  0  0  0  0  0  0  0  0
   -2.6357    4.8180  -18.2285 C   0  0  0  0  0  0  0  0  0  0  0  0
   -3.6661    5.6506  -18.9860 C   0  0  0  0  0  0  0  0  0  0  0  0
   -7.4034    3.5644  -19.5533 C   0  0  0  0  0  0  0  0  0  0  0  0
   -7.3698    2.8412  -20.4571 N   0  0  0  0  0  0  0  0  0  0  0  0
 28 29  1  0  0  0
 29 26  1  0  0  0
  1 26  1  0  0  0
  1  2  1  0  0  0
  3  2  1  0  0  0
  3  4  1  0  0  0
  4  5  1  0  0  0
  5 12  1  0  0  0
 12 13  2  0  0  0
 12 14  1  0  0  0
 14 16  1  0  0  0
 16 17  2  0  0  0
 17 18  1  0  0  0
 18 19  2  0  0  0
 19 20  1  0  0  0
 20 21  2  0  0  0
 20 22  1  0  0  0
 22 23  1  0  0  0
 23 24  1  0  0  0
  5  6  1  0  0  0
  7  6  1  0  0  0
  7  8  1  0  0  0
  8  9  1  0  0  0
  9 10  1  0  0  0
 10 30  1  0  0  0
 30 31  3  0  0  0
 10 11  1  0  0  0
 10  1  1  0  0  0
 11  3  1  0  0  0
 21 16  1  0  0  0
 11  7  1  0  0  0
 24 19  1  0  0  0
 26 27  1  0  0  0
 14 15  1  0  0  0
 23 25  1  0  0  0
M  END
> <minimizedAffinity>
-5.99444

> <minimizedRMSD>
0.57291

$$$$
P24300


 34 38  0  0  0  0  0  0  0  0999 V2000
   -2.7003    5.4879  -16.0292 N   0  0  0  0  0  0  0  0  0  0  0  0
   -4.0510    5.2057  -15.8273 N   0  0  0  0  0  0  0  0  0  0  0  0
   -4.4958    4.9122  -14.6240 N   0  0  0  0  0  0  0  0  0  0  0  0
   -5.8267    4.7701  -14.7538 C   0  0  0  0  0  0  0  0  0  0  0  0
   -6.8327    4.5696  -13.7842 C   0  0  0  0  0  0  0  0  0  0  0  0
   -8.1351    4.4086  -14.3238 C   0  0  0  0  0  0  0  0  0  0  0  0
   -8.4199    4.4462  -15.7190 C   0  0  0  0  0  0  0  0  0  0  0  0
   -7.4474    4.7044  -16.7029 C   0  0  0  0  0  0  0  0  0  0  0  0
   -6.1727    4.8643  -16.1547 C   0  0  0  0  0  0  0  0  0  0  0  0
   -5.0186    5.2602  -16.7817 C   0  0  0  0  0  0  0  0  0  0  0  0
   -2.1937    5.3712  -15.1517 H   0  0  0  0  0  0  0  0  0  0  0  0
   -2.5988    6.4491  -16.3551 H   0  0  0  0  0  0  0  0  0  0  0  0
   -4.7594    5.7748  -18.2038 C   0  0  0  0  0  0  0  0  0  0  0  0
   -5.2644    4.9286  -19.3552 C   0  0  0  0  0  0  0  0  0  0  0  0
   -5.6384    6.1873  -20.0538 N   0  0  0  0  0  0  0  0  0  0  0  0
   -5.7079    6.8539  -18.7397 C   0  0  0  0  0  0  0  0  0  0  0  0
   -6.5274    6.1445  -20.5522 H   0  0  0  0  0  0  0  0  0  0  0  0
   -6.5241    4.6298  -12.3215 C   0  0  0  0  0  0  0  0  0  0  0  0
   -5.3685    4.4445  -12.0152 N   0  0  0  0  0  0  0  0  0  0  0  0
   -4.8303    4.2564  -10.7046 C   0  0  0  0  0  0  0  0  0  0  0  0
   -5.2316    3.0361  -10.2489 F   0  0  0  0  0  0  0  0  0  0  0  0
   -3.4760    4.1822  -10.7762 F   0  0  0  0  0  0  0  0  0  0  0  0
   -7.7683    5.0323  -11.4357 N   0  0  0  0  0  0  0  0  0  0  0  0
   -8.4042    5.6435  -11.8730 H   0  0  0  0  0  0  0  0  0  0  0  0
   -8.1111    4.6668  -10.1458 C   0  0  0  0  0  0  0  0  0  0  0  0
   -8.0510    5.5718   -9.0716 C   0  0  0  0  0  0  0  0  0  0  0  0
   -8.3147    5.1696   -7.7618 C   0  0  0  0  0  0  0  0  0  0  0  0
   -8.7119    3.8647   -7.5600 C   0  0  0  0  0  0  0  0  0  0  0  0
   -8.8256    2.9762   -8.6234 C   0  0  0  0  0  0  0  0  0  0  0  0
   -8.5095    3.3526   -9.9115 C   0  0  0  0  0  0  0  0  0  0  0  0
   -9.2948    1.6577   -8.1121 C   0  0  0  0  0  0  0  0  0  0  0  0
   -9.8154    1.9445   -6.7510 N   0  0  0  0  0  0  0  0  0  0  0  0
   -9.0954    3.1574   -6.3041 C   0  0  0  0  0  0  0  0  0  0  0  0
   -9.6234    1.1637   -6.1234 H   0  0  0  0  0  0  0  0  0  0  0  0
  1  2  1  0  0  0
  2  3  1  0  0  0
  3  4  2  0  0  0
  4  5  1  0  0  0
  5 18  1  0  0  0
 18 19  2  0  0  0
 19 20  1  0  0  0
 20 21  1  0  0  0
 20 22  1  0  0  0
 18 23  1  0  0  0
 23 25  1  0  0  0
 25 26  2  0  0  0
 26 27  1  0  0  0
 27 28  2  0  0  0
 28 29  1  0  0  0
 29 30  2  0  0  0
 29 31  1  0  0  0
 31 32  1  0  0  0
 32 33  1  0  0  0
  5  6  2  0  0  0
  6  7  1  0  0  0
  7  8  2  0  0  0
  8  9  1  0  0  0
  9 10  2  0  0  0
 10 13  1  0  0  0
 13 14  1  0  0  0
 14 15  1  0  0  0
 15 16  1  0  0  0
 10  2  1  0  0  0
 16 13  1  0  0  0
  9  4  1  0  0  0
 30 25  1  0  0  0
 33 28  1  0  0  0
  1 11  1  0  0  0
  1 12  1  0  0  0
 23 24  1  0  0  0
 32 34  1  0  0  0
 15 17  1  0  0  0
M  END
> <minimizedAffinity>
-7.92439

> <minimizedRMSD>
1.24712

$$$$
P24313


 35 39  0  0  0  0  0  0  0  0999 V2000
   -8.1633    5.1257  -14.1413 C   0  0  0  0  0  0  0  0  0  0  0  0
   -9.5542    5.3560  -14.1323 O   0  0  0  0  0  0  0  0  0  0  0  0
   -9.8327    5.6186  -13.2411 H   0  0  0  0  0  0  0  0  0  0  0  0
   -7.7829    4.7221  -15.5429 C   0  0  0  0  0  0  0  0  0  0  0  0
   -8.7663    4.2259  -16.4541 C   0  0  0  0  0  0  0  0  0  0  0  0
   -8.5704    3.9711  -17.8436 C   0  0  0  0  0  0  0  0  0  0  0  0
   -7.3487    4.1728  -18.4916 C   0  0  0  0  0  0  0  0  0  0  0  0
   -6.3784    4.5954  -17.5936 C   0  0  0  0  0  0  0  0  0  0  0  0
   -5.0971    4.9272  -17.9241 C   0  0  0  0  0  0  0  0  0  0  0  0
   -4.5009    5.2495  -16.7460 N   0  0  0  0  0  0  0  0  0  0  0  0
   -5.3273    5.2481  -15.6888 N   0  0  0  0  0  0  0  0  0  0  0  0
   -6.5256    4.8564  -16.1745 C   0  0  0  0  0  0  0  0  0  0  0  0
   -3.5431    5.4658  -16.6742 H   0  0  0  0  0  0  0  0  0  0  0  0
   -4.4808    4.9814  -19.3519 C   0  0  0  0  0  0  0  0  0  0  0  0
   -3.7973    6.3223  -19.6840 C   0  0  0  0  0  0  0  0  0  0  0  0
   -2.5074    5.7468  -19.1955 N   0  0  0  0  0  0  0  0  0  0  0  0
   -3.0582    4.4028  -19.5015 C   0  0  0  0  0  0  0  0  0  0  0  0
   -2.3160    5.9122  -18.2074 H   0  0  0  0  0  0  0  0  0  0  0  0
   -6.8769    8.5413  -12.9948 C   0  0  0  0  0  0  0  0  0  0  0  0
   -8.0731    7.6555  -13.2651 C   0  0  0  0  0  0  0  0  0  0  0  0
   -9.1755    8.0067  -13.1290 O   0  0  0  0  0  0  0  0  0  0  0  0
   -7.5063    6.2900  -13.7007 N   0  0  0  0  0  0  0  0  0  0  0  0
   -6.5248    6.2208  -13.6650 H   0  0  0  0  0  0  0  0  0  0  0  0
   -7.8477    4.0794  -13.1991 N   0  0  0  0  0  0  0  0  0  0  0  0
   -7.4654    3.2454  -13.5562 H   0  0  0  0  0  0  0  0  0  0  0  0
   -8.0445    4.1609  -11.8128 C   0  0  0  0  0  0  0  0  0  0  0  0
   -7.7132    5.2775  -11.0159 C   0  0  0  0  0  0  0  0  0  0  0  0
   -7.8433    5.2683   -9.6192 C   0  0  0  0  0  0  0  0  0  0  0  0
   -8.3205    4.1245   -9.0171 C   0  0  0  0  0  0  0  0  0  0  0  0
   -8.6391    3.0069   -9.7755 C   0  0  0  0  0  0  0  0  0  0  0  0
   -8.4878    3.0030  -11.1534 C   0  0  0  0  0  0  0  0  0  0  0  0
   -9.0984    1.9182   -8.8653 C   0  0  0  0  0  0  0  0  0  0  0  0
   -9.4055    2.5978   -7.5783 N   0  0  0  0  0  0  0  0  0  0  0  0
   -8.5767    3.8249   -7.5790 C   0  0  0  0  0  0  0  0  0  0  0  0
   -9.1581    1.9996   -6.7901 H   0  0  0  0  0  0  0  0  0  0  0  0
 19 20  1  0  0  0
 20 21  2  0  0  0
 20 22  1  0  0  0
 22  1  1  0  0  0
  1  2  1  0  0  0
  1 24  1  0  0  0
 24 26  1  0  0  0
 26 27  2  0  0  0
 27 28  1  0  0  0
 28 29  2  0  0  0
 29 30  1  0  0  0
 30 31  2  0  0  0
 30 32  1  0  0  0
 32 33  1  0  0  0
 33 34  1  0  0  0
  1  4  1  0  0  0
  4  5  2  0  0  0
  5  6  1  0  0  0
  6  7  2  0  0  0
  7  8  1  0  0  0
  8  9  2  0  0  0
  9 14  1  0  0  0
 14 15  1  0  0  0
 15 16  1  0  0  0
 16 17  1  0  0  0
  9 10  1  0  0  0
 10 11  1  0  0  0
 11 12  2  0  0  0
 31 26  1  0  0  0
 12  4  1  0  0  0
 34 29  1  0  0  0
 12  8  1  0  0  0
 17 14  1  0  0  0
 22 23  1  0  0  0
  2  3  1  0  0  0
 24 25  1  0  0  0
 33 35  1  0  0  0
 16 18  1  0  0  0
 10 13  1  0  0  0
M  END
> <minimizedAffinity>
-9.10945

> <minimizedRMSD>
1.16055

$$$$
P24315


 35 39  0  0  0  0  0  0  0  0999 V2000
   -4.9388    5.0567  -17.1570 C   0  0  0  0  0  0  0  0  0  0  0  0
   -4.0642    5.2923  -16.1753 N   0  0  0  0  0  0  0  0  0  0  0  0
   -4.8176    5.1911  -15.0651 N   0  0  0  0  0  0  0  0  0  0  0  0
   -6.1293    4.8731  -15.3063 C   0  0  0  0  0  0  0  0  0  0  0  0
   -7.2107    4.6915  -14.4365 C   0  0  0  0  0  0  0  0  0  0  0  0
   -8.4542    4.4098  -15.0154 C   0  0  0  0  0  0  0  0  0  0  0  0
   -8.5960    4.2927  -16.3977 C   0  0  0  0  0  0  0  0  0  0  0  0
   -7.4957    4.4573  -17.2460 C   0  0  0  0  0  0  0  0  0  0  0  0
   -6.2412    4.7633  -16.6855 C   0  0  0  0  0  0  0  0  0  0  0  0
   -4.4587    5.3330  -14.1594 H   0  0  0  0  0  0  0  0  0  0  0  0
   -3.8303    6.4389  -19.0895 C   0  0  0  0  0  0  0  0  0  0  0  0
   -4.6681    6.4323  -20.2969 N   0  0  0  0  0  0  0  0  0  0  0  0
   -5.6643    5.6073  -19.5771 C   0  0  0  0  0  0  0  0  0  0  0  0
   -4.5445    5.1351  -18.6466 C   0  0  0  0  0  0  0  0  0  0  0  0
   -4.2423    5.9695  -21.1000 H   0  0  0  0  0  0  0  0  0  0  0  0
   -2.4484    6.3372  -19.5715 N   0  0  0  0  0  0  0  0  0  0  0  0
   -2.2680    5.3369  -19.6565 H   0  0  0  0  0  0  0  0  0  0  0  0
   -0.6842    5.7097  -17.6255 C   0  0  0  0  0  0  0  0  0  0  0  0
   -1.0990    6.9620  -18.8187 S   0  0  0  0  0  0  0  0  0  0  0  0
   -0.0729    6.9813  -19.8422 O   0  0  0  0  0  0  0  0  0  0  0  0
   -1.4995    8.1680  -18.1315 O   0  0  0  0  0  0  0  0  0  0  0  0
   -7.0277    4.9023  -12.9780 C   0  0  0  0  0  0  0  0  0  0  0  0
   -6.1894    5.6430  -12.6390 O   0  0  0  0  0  0  0  0  0  0  0  0
   -8.0106    4.0493  -12.1415 N   0  0  0  0  0  0  0  0  0  0  0  0
   -8.5780    3.4402  -12.6671 H   0  0  0  0  0  0  0  0  0  0  0  0
   -8.2235    4.0030  -10.7660 C   0  0  0  0  0  0  0  0  0  0  0  0
   -7.9609    5.1154   -9.9514 C   0  0  0  0  0  0  0  0  0  0  0  0
   -8.1725    5.0570   -8.5692 C   0  0  0  0  0  0  0  0  0  0  0  0
   -8.6260    3.8695   -8.0246 C   0  0  0  0  0  0  0  0  0  0  0  0
   -8.8722    2.7632   -8.8282 C   0  0  0  0  0  0  0  0  0  0  0  0
   -8.6967    2.8160  -10.2021 C   0  0  0  0  0  0  0  0  0  0  0  0
   -9.2561    1.6071   -7.9685 C   0  0  0  0  0  0  0  0  0  0  0  0
   -9.5129    2.1731   -6.6206 N   0  0  0  0  0  0  0  0  0  0  0  0
   -8.8967    3.5169   -6.6010 C   0  0  0  0  0  0  0  0  0  0  0  0
   -9.0905    1.5820   -5.9046 H   0  0  0  0  0  0  0  0  0  0  0  0
 18 19  1  0  0  0
 19 20  2  0  0  0
 19 21  2  0  0  0
 19 16  1  0  0  0
 11 16  1  0  0  0
 11 12  1  0  0  0
 12 13  1  0  0  0
 13 14  1  0  0  0
 14  1  1  0  0  0
  1  2  2  0  0  0
  2  3  1  0  0  0
  3  4  1  0  0  0
  4  5  2  0  0  0
  5 22  1  0  0  0
 22 23  2  0  0  0
 22 24  1  0  0  0
 24 26  1  0  0  0
 26 27  2  0  0  0
 27 28  1  0  0  0
 28 29  2  0  0  0
 29 30  1  0  0  0
 30 31  2  0  0  0
 30 32  1  0  0  0
 32 33  1  0  0  0
 33 34  1  0  0  0
  5  6  1  0  0  0
  6  7  2  0  0  0
  7  8  1  0  0  0
  8  9  2  0  0  0
 14 11  1  0  0  0
  9  1  1  0  0  0
  9  4  1  0  0  0
 31 26  1  0  0  0
 34 29  1  0  0  0
 16 17  1  0  0  0
 12 15  1  0  0  0
  3 10  1  0  0  0
 24 25  1  0  0  0
 33 35  1  0  0  0
M  END
> <minimizedAffinity>
-8.14815

> <minimizedRMSD>
0.52545

$$$$
P24329


 38 42  0  0  0  0  0  0  0  0999 V2000
   -7.0605    4.9323  -13.1609 C   0  0  0  0  0  0  0  0  0  0  0  0
   -7.1888    4.7069  -14.6730 C   0  0  0  0  0  0  0  0  0  0  0  0
   -8.4624    4.3807  -15.2021 C   0  0  0  0  0  0  0  0  0  0  0  0
   -8.6876    4.1498  -16.5517 C   0  0  0  0  0  0  0  0  0  0  0  0
   -7.6351    4.2624  -17.4451 C   0  0  0  0  0  0  0  0  0  0  0  0
   -7.8720    3.9041  -19.0897 Cl  0  0  0  0  0  0  0  0  0  0  0  0
   -6.3593    4.6663  -17.0157 C   0  0  0  0  0  0  0  0  0  0  0  0
   -5.0976    4.9708  -17.5940 C   0  0  0  0  0  0  0  0  0  0  0  0
   -4.1871    5.3233  -16.6855 N   0  0  0  0  0  0  0  0  0  0  0  0
   -4.8571    5.2685  -15.5296 N   0  0  0  0  0  0  0  0  0  0  0  0
   -6.1706    4.8774  -15.6430 C   0  0  0  0  0  0  0  0  0  0  0  0
   -4.4424    5.4907  -14.6648 H   0  0  0  0  0  0  0  0  0  0  0  0
   -4.7983    4.9790  -19.1137 C   0  0  0  0  0  0  0  0  0  0  0  0
   -3.3741    4.6022  -19.5705 C   0  0  0  0  0  0  0  0  0  0  0  0
   -3.5006    5.6568  -20.6308 N   0  0  0  0  0  0  0  0  0  0  0  0
   -4.4161    6.3624  -19.6824 C   0  0  0  0  0  0  0  0  0  0  0  0
   -3.9377    5.3443  -21.4977 H   0  0  0  0  0  0  0  0  0  0  0  0
   -5.6262    4.7804  -12.6270 C   0  0  0  0  0  0  0  0  0  0  0  0
   -4.9083    5.7838  -12.4753 O   0  0  0  0  0  0  0  0  0  0  0  0
   -5.0751    3.3841  -12.3574 C   0  0  0  0  0  0  0  0  0  0  0  0
   -1.2397    2.9003  -12.5565 C   0  0  0  0  0  0  0  0  0  0  0  0
   -2.6110    2.2660  -12.6325 C   0  0  0  0  0  0  0  0  0  0  0  0
   -2.7816    1.1310  -12.8342 O   0  0  0  0  0  0  0  0  0  0  0  0
   -3.6295    3.4136  -12.4382 N   0  0  0  0  0  0  0  0  0  0  0  0
   -3.2302    4.3098  -12.3561 H   0  0  0  0  0  0  0  0  0  0  0  0
   -8.0197    4.0733  -12.4614 N   0  0  0  0  0  0  0  0  0  0  0  0
   -8.5667    3.4510  -12.9932 H   0  0  0  0  0  0  0  0  0  0  0  0
   -8.1938    4.0954  -11.0826 C   0  0  0  0  0  0  0  0  0  0  0  0
   -8.0503    5.2536  -10.2953 C   0  0  0  0  0  0  0  0  0  0  0  0
   -8.2302    5.2248   -8.9053 C   0  0  0  0  0  0  0  0  0  0  0  0
   -8.5738    4.0263   -8.3093 C   0  0  0  0  0  0  0  0  0  0  0  0
   -8.7636    2.8894   -9.0811 C   0  0  0  0  0  0  0  0  0  0  0  0
   -8.6016    2.9125  -10.4548 C   0  0  0  0  0  0  0  0  0  0  0  0
   -9.1566    1.7467   -8.2130 C   0  0  0  0  0  0  0  0  0  0  0  0
   -8.9552    2.2158   -6.8177 N   0  0  0  0  0  0  0  0  0  0  0  0
   -8.8680    3.6964   -6.8794 C   0  0  0  0  0  0  0  0  0  0  0  0
   -7.8370    4.2353   -5.8948 C   0  0  0  0  0  0  0  0  0  0  0  0
   -8.0924    1.8275   -6.4365 H   0  0  0  0  0  0  0  0  0  0  0  0
 21 22  1  0  0  0
 22 23  2  0  0  0
 22 24  1  0  0  0
 24 20  1  0  0  0
 20 18  1  0  0  0
 18 19  2  0  0  0
 18  1  1  0  0  0
  1 26  1  0  0  0
 26 28  1  0  0  0
 28 29  2  0  0  0
 29 30  1  0  0  0
 30 31  2  0  0  0
 31 32  1  0  0  0
 32 33  2  0  0  0
 32 34  1  0  0  0
 34 35  1  0  0  0
 35 36  1  0  0  0
 36 37  1  0  0  0
  1  2  1  0  0  0
  2  3  2  0  0  0
  3  4  1  0  0  0
  4  5  2  0  0  0
  5  6  1  0  0  0
  5  7  1  0  0  0
  7  8  1  0  0  0
  8 13  1  0  0  0
 13 14  1  0  0  0
 14 15  1  0  0  0
 15 16  1  0  0  0
  8  9  2  0  0  0
  9 10  1  0  0  0
 10 11  1  0  0  0
 33 28  1  0  0  0
 11  2  1  0  0  0
 36 31  1  0  0  0
 11  7  2  0  0  0
 16 13  1  0  0  0
 24 25  1  0  0  0
 26 27  1  0  0  0
 35 38  1  0  0  0
 15 17  1  0  0  0
 10 12  1  0  0  0
M  END
> <minimizedAffinity>
-8.97855

> <minimizedRMSD>
0.45014

$$$$
P24333


 30 34  0  0  0  0  0  0  0  0999 V2000
   -2.6672    5.4554  -16.4838 C   0  0  0  0  0  0  0  0  0  0  0  0
   -4.1052    5.3460  -16.4938 N   0  0  0  0  0  0  0  0  0  0  0  0
   -4.7142    5.0964  -15.3292 N   0  0  0  0  0  0  0  0  0  0  0  0
   -5.9914    4.8146  -15.6391 C   0  0  0  0  0  0  0  0  0  0  0  0
   -7.0791    4.4402  -14.8212 C   0  0  0  0  0  0  0  0  0  0  0  0
   -8.2636    4.1715  -15.5609 C   0  0  0  0  0  0  0  0  0  0  0  0
   -8.3692    4.2999  -16.9805 C   0  0  0  0  0  0  0  0  0  0  0  0
   -7.3139    4.7236  -17.8073 C   0  0  0  0  0  0  0  0  0  0  0  0
   -6.1546    4.9721  -17.0753 C   0  0  0  0  0  0  0  0  0  0  0  0
   -4.9675    5.4850  -17.5451 C   0  0  0  0  0  0  0  0  0  0  0  0
   -4.6173    6.1122  -18.9567 C   0  0  0  0  0  0  0  0  0  0  0  0
   -3.6836    5.2299  -19.7584 C   0  0  0  0  0  0  0  0  0  0  0  0
   -4.1734    7.6156  -18.8970 C   0  0  0  0  0  0  0  0  0  0  0  0
   -5.5976    8.0134  -19.0249 N   0  0  0  0  0  0  0  0  0  0  0  0
   -5.8288    6.7226  -19.7293 C   0  0  0  0  0  0  0  0  0  0  0  0
   -5.7575    8.8437  -19.5954 H   0  0  0  0  0  0  0  0  0  0  0  0
   -6.9410    4.4083  -13.3424 C   0  0  0  0  0  0  0  0  0  0  0  0
   -5.9512    3.9636  -12.7740 O   0  0  0  0  0  0  0  0  0  0  0  0
   -7.9953    5.0294  -12.4651 C   0  0  0  0  0  0  0  0  0  0  0  0
   -8.6729    5.9399  -12.9250 O   0  0  0  0  0  0  0  0  0  0  0  0
   -8.0886    4.6593  -11.0319 C   0  0  0  0  0  0  0  0  0  0  0  0
   -7.8707    5.6664  -10.0695 C   0  0  0  0  0  0  0  0  0  0  0  0
   -8.0966    5.4174   -8.7124 C   0  0  0  0  0  0  0  0  0  0  0  0
   -8.5455    4.1614   -8.3465 C   0  0  0  0  0  0  0  0  0  0  0  0
   -8.7254    3.1513   -9.2920 C   0  0  0  0  0  0  0  0  0  0  0  0
   -8.5103    3.3811  -10.6451 C   0  0  0  0  0  0  0  0  0  0  0  0
   -9.1656    1.9114   -8.5798 C   0  0  0  0  0  0  0  0  0  0  0  0
   -9.6564    2.3817   -7.2573 N   0  0  0  0  0  0  0  0  0  0  0  0
   -8.9273    3.6426   -6.9981 C   0  0  0  0  0  0  0  0  0  0  0  0
   -9.4490    1.6934   -6.5336 H   0  0  0  0  0  0  0  0  0  0  0  0
  1  2  1  0  0  0
  2  3  1  0  0  0
  3  4  2  0  0  0
  4  5  1  0  0  0
  5 17  1  0  0  0
 17 18  2  0  0  0
 17 19  1  0  0  0
 19 20  2  0  0  0
 19 21  1  0  0  0
 21 22  2  0  0  0
 22 23  1  0  0  0
 23 24  2  0  0  0
 24 25  1  0  0  0
 25 26  2  0  0  0
 25 27  1  0  0  0
 27 28  1  0  0  0
 28 29  1  0  0  0
  5  6  2  0  0  0
  6  7  1  0  0  0
  7  8  2  0  0  0
  8  9  1  0  0  0
  9 10  2  0  0  0
 10 11  1  0  0  0
 11 12  1  0  0  0
 11 13  1  0  0  0
 13 14  1  0  0  0
 14 15  1  0  0  0
 10  2  1  0  0  0
 15 11  1  0  0  0
  9  4  1  0  0  0
 26 21  1  0  0  0
 29 24  1  0  0  0
 28 30  1  0  0  0
 14 16  1  0  0  0
M  END
> <minimizedAffinity>
-8.57594

> <minimizedRMSD>
0.58866

$$$$
P24334


 29 33  0  0  0  0  0  0  0  0999 V2000
   -2.9034    5.3394  -14.5544 C   0  0  0  0  0  0  0  0  0  0  0  0
   -4.2718    5.1846  -14.9767 N   0  0  0  0  0  0  0  0  0  0  0  0
   -5.2064    5.1516  -14.0087 N   0  0  0  0  0  0  0  0  0  0  0  0
   -6.3740    4.9440  -14.6368 C   0  0  0  0  0  0  0  0  0  0  0  0
   -7.6822    4.8326  -14.1341 C   0  0  0  0  0  0  0  0  0  0  0  0
   -8.6544    4.5677  -15.1245 C   0  0  0  0  0  0  0  0  0  0  0  0
   -8.3583    4.4559  -16.5192 C   0  0  0  0  0  0  0  0  0  0  0  0
   -7.0643    4.5975  -17.0573 C   0  0  0  0  0  0  0  0  0  0  0  0
   -6.1191    4.8301  -16.0587 C   0  0  0  0  0  0  0  0  0  0  0  0
   -4.7738    5.0453  -16.2421 C   0  0  0  0  0  0  0  0  0  0  0  0
   -4.0517    5.1587  -17.6333 C   0  0  0  0  0  0  0  0  0  0  0  0
   -4.2129    6.5483  -18.2998 C   0  0  0  0  0  0  0  0  0  0  0  0
   -2.8912    6.9285  -17.7398 N   0  0  0  0  0  0  0  0  0  0  0  0
   -2.5467    5.4904  -17.7045 C   0  0  0  0  0  0  0  0  0  0  0  0
   -2.9325    7.3763  -16.8243 H   0  0  0  0  0  0  0  0  0  0  0  0
   -7.9912    5.0631  -12.7123 C   0  0  0  0  0  0  0  0  0  0  0  0
   -8.2701    6.1881  -12.3222 O   0  0  0  0  0  0  0  0  0  0  0  0
   -7.9864    3.8904  -11.7531 C   0  0  0  0  0  0  0  0  0  0  0  0
   -7.7605    2.7839  -12.2294 O   0  0  0  0  0  0  0  0  0  0  0  0
   -8.2050    3.9749  -10.2855 C   0  0  0  0  0  0  0  0  0  0  0  0
   -7.9191    5.0972   -9.4896 C   0  0  0  0  0  0  0  0  0  0  0  0
   -8.1411    5.0672   -8.1026 C   0  0  0  0  0  0  0  0  0  0  0  0
   -8.6627    3.9159   -7.5365 C   0  0  0  0  0  0  0  0  0  0  0  0
   -8.9532    2.8064   -8.3160 C   0  0  0  0  0  0  0  0  0  0  0  0
   -8.7291    2.8185   -9.6770 C   0  0  0  0  0  0  0  0  0  0  0  0
   -9.4696    1.7049   -7.4543 C   0  0  0  0  0  0  0  0  0  0  0  0
   -9.8164    2.3653   -6.1683 N   0  0  0  0  0  0  0  0  0  0  0  0
   -8.9884    3.5931   -6.1165 C   0  0  0  0  0  0  0  0  0  0  0  0
   -9.5957    1.7533   -5.3827 H   0  0  0  0  0  0  0  0  0  0  0  0
  1  2  1  0  0  0
  2  3  1  0  0  0
  3  4  2  0  0  0
  4  5  1  0  0  0
  5 16  1  0  0  0
 16 17  2  0  0  0
 16 18  1  0  0  0
 18 19  2  0  0  0
 18 20  1  0  0  0
 20 21  2  0  0  0
 21 22  1  0  0  0
 22 23  2  0  0  0
 23 24  1  0  0  0
 24 25  2  0  0  0
 24 26  1  0  0  0
 26 27  1  0  0  0
 27 28  1  0  0  0
  5  6  2  0  0  0
  6  7  1  0  0  0
  7  8  2  0  0  0
  8  9  1  0  0  0
  9 10  2  0  0  0
 10 11  1  0  0  0
 11 12  1  0  0  0
 12 13  1  0  0  0
 13 14  1  0  0  0
 10  2  1  0  0  0
 14 11  1  0  0  0
  9  4  1  0  0  0
 25 20  1  0  0  0
 28 23  1  0  0  0
 27 29  1  0  0  0
 13 15  1  0  0  0
M  END
> <minimizedAffinity>
-8.17620

> <minimizedRMSD>
1.46120

$$$$
P24336


 32 37  0  0  0  0  0  0  0  0999 V2000
   -7.5381    5.4462  -12.3802 C   0  0  0  0  0  0  0  0  0  0  0  0
   -7.6335    4.5065  -13.4007 C   0  0  0  0  0  0  0  0  0  0  0  0
   -8.1481    3.3777  -12.8140 N   0  0  0  0  0  0  0  0  0  0  0  0
   -8.2723    3.5044  -11.4593 C   0  0  0  0  0  0  0  0  0  0  0  0
   -8.7070    2.5544  -10.5293 C   0  0  0  0  0  0  0  0  0  0  0  0
   -8.7709    2.9730   -9.2165 C   0  0  0  0  0  0  0  0  0  0  0  0
   -8.4504    4.2726   -8.8511 C   0  0  0  0  0  0  0  0  0  0  0  0
   -8.0216    5.2188   -9.7845 C   0  0  0  0  0  0  0  0  0  0  0  0
   -7.9141    4.8161  -11.1393 C   0  0  0  0  0  0  0  0  0  0  0  0
   -8.6171    4.4023   -7.3760 C   0  0  0  0  0  0  0  0  0  0  0  0
   -9.3843    3.2022   -6.9432 N   0  0  0  0  0  0  0  0  0  0  0  0
   -9.1481    2.1866   -8.0074 C   0  0  0  0  0  0  0  0  0  0  0  0
   -8.3996    2.5673  -13.3134 H   0  0  0  0  0  0  0  0  0  0  0  0
  -10.3781    3.4197   -6.8698 H   0  0  0  0  0  0  0  0  0  0  0  0
   -7.4248    4.5345  -14.8386 C   0  0  0  0  0  0  0  0  0  0  0  0
   -8.4805    4.2593  -15.7423 C   0  0  0  0  0  0  0  0  0  0  0  0
   -8.3654    4.2798  -17.1536 C   0  0  0  0  0  0  0  0  0  0  0  0
   -7.1802    4.6224  -17.8162 C   0  0  0  0  0  0  0  0  0  0  0  0
   -6.1290    4.8738  -16.9328 C   0  0  0  0  0  0  0  0  0  0  0  0
   -4.8870    5.3668  -17.2367 C   0  0  0  0  0  0  0  0  0  0  0  0
   -4.2432    5.4446  -16.0335 N   0  0  0  0  0  0  0  0  0  0  0  0
   -4.9478    5.0040  -14.9902 N   0  0  0  0  0  0  0  0  0  0  0  0
   -6.1911    4.8056  -15.4722 C   0  0  0  0  0  0  0  0  0  0  0  0
   -3.3291    5.7989  -15.9438 H   0  0  0  0  0  0  0  0  0  0  0  0
   -4.3130    5.9857  -18.5256 C   0  0  0  0  0  0  0  0  0  0  0  0
   -5.2390    6.4500  -19.6517 C   0  0  0  0  0  0  0  0  0  0  0  0
   -4.1673    6.0377  -20.6082 N   0  0  0  0  0  0  0  0  0  0  0  0
   -3.7689    5.0181  -19.5967 C   0  0  0  0  0  0  0  0  0  0  0  0
   -3.4635    6.7519  -20.7955 H   0  0  0  0  0  0  0  0  0  0  0  0
   -5.9556    7.3033  -12.4042 O   0  0  0  0  0  0  0  0  0  0  0  0
   -7.1786    6.9775  -12.5408 C   0  0  0  0  0  0  0  0  0  0  0  0
   -8.1457    7.7829  -12.7415 O   0  0  0  0  0  0  0  0  0  0  0  0
 30 31  2  0  0  0
 31 32  1  0  0  0
 31  1  1  0  0  0
  1  2  2  0  0  0
  2 15  1  0  0  0
 15 16  2  0  0  0
 16 17  1  0  0  0
 17 18  2  0  0  0
 18 19  1  0  0  0
 19 20  2  0  0  0
 20 25  1  0  0  0
 25 26  1  0  0  0
 26 27  1  0  0  0
 27 28  1  0  0  0
 20 21  1  0  0  0
 21 22  1  0  0  0
 22 23  2  0  0  0
  2  3  1  0  0  0
  3  4  1  0  0  0
  4  5  2  0  0  0
  5  6  1  0  0  0
  6  7  2  0  0  0
  7  8  1  0  0  0
  8  9  2  0  0  0
  7 10  1  0  0  0
 10 11  1  0  0  0
 11 12  1  0  0  0
  9  1  1  0  0  0
 23 15  1  0  0  0
  9  4  1  0  0  0
 23 19  1  0  0  0
 12  6  1  0  0  0
 28 25  1  0  0  0
 27 29  1  0  0  0
 21 24  1  0  0  0
  3 13  1  0  0  0
 11 14  1  0  0  0
M  CHG 1  32  -1
M  END
> <minimizedAffinity>
-9.13256

> <minimizedRMSD>
0.48188

$$$$
P24348


 33 38  0  0  0  0  0  0  0  0999 V2000
   -7.9566    4.4279  -15.5498 C   0  0  0  0  0  0  0  0  0  0  0  0
   -8.7256    4.2425  -16.7310 C   0  0  0  0  0  0  0  0  0  0  0  0
   -8.1851    4.3754  -18.0605 C   0  0  0  0  0  0  0  0  0  0  0  0
   -6.8474    4.7322  -18.2924 C   0  0  0  0  0  0  0  0  0  0  0  0
   -6.1298    4.7843  -17.1138 C   0  0  0  0  0  0  0  0  0  0  0  0
   -4.8342    5.1755  -17.0666 C   0  0  0  0  0  0  0  0  0  0  0  0
   -4.5059    5.1808  -15.7508 N   0  0  0  0  0  0  0  0  0  0  0  0
   -5.5447    4.8804  -14.9432 N   0  0  0  0  0  0  0  0  0  0  0  0
   -6.5896    4.6606  -15.7704 C   0  0  0  0  0  0  0  0  0  0  0  0
   -4.0493    5.5963  -18.3358 C   0  0  0  0  0  0  0  0  0  0  0  0
   -3.0552    6.7658  -18.0955 C   0  0  0  0  0  0  0  0  0  0  0  0
   -1.9501    5.7986  -17.9636 N   0  0  0  0  0  0  0  0  0  0  0  0
   -2.7759    4.7603  -18.6085 C   0  0  0  0  0  0  0  0  0  0  0  0
   -5.0405    5.7787  -19.5670 C   0  0  0  0  0  0  0  0  0  0  0  0
   -4.7551    6.4699  -20.5531 O   0  0  0  0  0  0  0  0  0  0  0  0
   -6.2991    5.1686  -19.5040 N   0  0  0  0  0  0  0  0  0  0  0  0
   -3.6015    5.3832  -15.4184 H   0  0  0  0  0  0  0  0  0  0  0  0
   -1.6953    5.5874  -16.9987 H   0  0  0  0  0  0  0  0  0  0  0  0
   -6.8125    5.0431  -20.3347 H   0  0  0  0  0  0  0  0  0  0  0  0
   -9.3835    5.5531  -14.2118 O   0  0  0  0  0  0  0  0  0  0  0  0
   -8.5501    4.7380  -14.2478 C   0  0  0  0  0  0  0  0  0  0  0  0
   -7.8963    3.9291  -13.1149 N   0  0  0  0  0  0  0  0  0  0  0  0
   -7.2621    3.2383  -13.4147 H   0  0  0  0  0  0  0  0  0  0  0  0
   -8.0551    4.0145  -11.7344 C   0  0  0  0  0  0  0  0  0  0  0  0
   -7.8735    5.2334  -11.0590 C   0  0  0  0  0  0  0  0  0  0  0  0
   -8.0202    5.3130   -9.6698 C   0  0  0  0  0  0  0  0  0  0  0  0
   -8.4128    4.1750   -8.9914 C   0  0  0  0  0  0  0  0  0  0  0  0
   -8.6181    2.9743   -9.6642 C   0  0  0  0  0  0  0  0  0  0  0  0
   -8.4033    2.8654  -11.0273 C   0  0  0  0  0  0  0  0  0  0  0  0
   -9.0816    1.9427   -8.6910 C   0  0  0  0  0  0  0  0  0  0  0  0
   -9.4594    2.7031   -7.4701 N   0  0  0  0  0  0  0  0  0  0  0  0
   -8.6963    3.9695   -7.5416 C   0  0  0  0  0  0  0  0  0  0  0  0
   -9.2053    2.1806   -6.6317 H   0  0  0  0  0  0  0  0  0  0  0  0
 20 21  2  0  0  0
 21 22  1  0  0  0
 22 24  1  0  0  0
 24 25  2  0  0  0
 25 26  1  0  0  0
 26 27  2  0  0  0
 27 28  1  0  0  0
 28 29  2  0  0  0
 28 30  1  0  0  0
 30 31  1  0  0  0
 31 32  1  0  0  0
 21  1  1  0  0  0
  1  2  2  0  0  0
  2  3  1  0  0  0
  3  4  2  0  0  0
  4  5  1  0  0  0
  5  6  2  0  0  0
  6  7  1  0  0  0
  7  8  1  0  0  0
  8  9  2  0  0  0
  6 10  1  0  0  0
 10 11  1  0  0  0
 11 12  1  0  0  0
 12 13  1  0  0  0
 10 14  1  0  0  0
 14 15  2  0  0  0
 14 16  1  0  0  0
 29 24  1  0  0  0
  9  1  1  0  0  0
 13 10  1  0  0  0
 32 27  1  0  0  0
 16  4  1  0  0  0
  9  5  1  0  0  0
 22 23  1  0  0  0
 31 33  1  0  0  0
  7 17  1  0  0  0
 12 18  1  0  0  0
 16 19  1  0  0  0
M  END
> <minimizedAffinity>
-10.68105

> <minimizedRMSD>
0.61391

$$$$
P24361


 33 37  0  0  0  0  0  0  0  0999 V2000
   -4.4092    5.0602  -15.6533 N   0  0  0  0  0  0  0  0  0  0  0  0
   -5.4346    4.9916  -14.7707 N   0  0  0  0  0  0  0  0  0  0  0  0
   -6.5300    4.7912  -15.5181 C   0  0  0  0  0  0  0  0  0  0  0  0
   -7.8816    4.6536  -15.1595 C   0  0  0  0  0  0  0  0  0  0  0  0
   -8.7632    4.3714  -16.2221 C   0  0  0  0  0  0  0  0  0  0  0  0
   -8.3213    4.3190  -17.5723 C   0  0  0  0  0  0  0  0  0  0  0  0
   -9.5892    4.0685  -18.9488 Br  0  0  0  0  0  0  0  0  0  0  0  0
   -6.9992    4.5431  -17.9893 C   0  0  0  0  0  0  0  0  0  0  0  0
   -6.1475    4.7515  -16.9115 C   0  0  0  0  0  0  0  0  0  0  0  0
   -4.8184    5.0804  -16.9626 C   0  0  0  0  0  0  0  0  0  0  0  0
   -3.9338    5.4870  -18.1660 C   0  0  0  0  0  0  0  0  0  0  0  0
   -3.2578    4.3952  -18.9912 C   0  0  0  0  0  0  0  0  0  0  0  0
   -3.5238    5.2180  -20.1989 N   0  0  0  0  0  0  0  0  0  0  0  0
   -4.6591    5.8384  -19.4830 C   0  0  0  0  0  0  0  0  0  0  0  0
   -3.7891    4.6810  -21.0246 H   0  0  0  0  0  0  0  0  0  0  0  0
   -8.3469    5.0376  -13.8243 C   0  0  0  0  0  0  0  0  0  0  0  0
   -9.0034    5.9972  -13.7285 O   0  0  0  0  0  0  0  0  0  0  0  0
   -7.9001    4.0221  -12.7554 N   0  0  0  0  0  0  0  0  0  0  0  0
   -7.4064    3.2456  -13.1055 H   0  0  0  0  0  0  0  0  0  0  0  0
   -8.0807    4.0235  -11.3757 C   0  0  0  0  0  0  0  0  0  0  0  0
   -7.8255    5.1775  -10.6140 C   0  0  0  0  0  0  0  0  0  0  0  0
   -8.0018    5.1777   -9.2268 C   0  0  0  0  0  0  0  0  0  0  0  0
   -8.4505    4.0163   -8.6303 C   0  0  0  0  0  0  0  0  0  0  0  0
   -8.6955    2.8710   -9.3833 C   0  0  0  0  0  0  0  0  0  0  0  0
   -8.5109    2.8522  -10.7545 C   0  0  0  0  0  0  0  0  0  0  0  0
   -9.1242    1.7752   -8.4679 C   0  0  0  0  0  0  0  0  0  0  0  0
   -9.5182    2.4603   -7.2109 N   0  0  0  0  0  0  0  0  0  0  0  0
   -8.7448    3.7234   -7.1969 C   0  0  0  0  0  0  0  0  0  0  0  0
   -9.2807    1.8867   -6.4016 H   0  0  0  0  0  0  0  0  0  0  0  0
   -3.0509    5.2432  -15.1248 C   0  0  0  0  0  0  0  0  0  0  0  0
   -1.6375    4.5855  -13.2937 C   0  0  0  0  0  0  0  0  0  0  0  0
   -2.8877    4.3275  -13.9873 N   0  0  0  0  0  0  0  0  0  0  0  0
   -3.6636    4.4587  -13.3383 H   0  0  0  0  0  0  0  0  0  0  0  0
 31 32  1  0  0  0
 32 30  1  0  0  0
 30  1  1  0  0  0
  1  2  1  0  0  0
  2  3  2  0  0  0
  3  4  1  0  0  0
  4 16  1  0  0  0
 16 17  2  0  0  0
 16 18  1  0  0  0
 18 20  1  0  0  0
 20 21  2  0  0  0
 21 22  1  0  0  0
 22 23  2  0  0  0
 23 24  1  0  0  0
 24 25  2  0  0  0
 24 26  1  0  0  0
 26 27  1  0  0  0
 27 28  1  0  0  0
  4  5  2  0  0  0
  5  6  1  0  0  0
  6  7  1  0  0  0
  6  8  2  0  0  0
  8  9  1  0  0  0
  9 10  2  0  0  0
 10 11  1  0  0  0
 11 12  1  0  0  0
 12 13  1  0  0  0
 13 14  1  0  0  0
 10  1  1  0  0  0
 14 11  1  0  0  0
  9  3  1  0  0  0
 25 20  1  0  0  0
 28 23  1  0  0  0
 32 33  1  0  0  0
 18 19  1  0  0  0
 27 29  1  0  0  0
 13 15  1  0  0  0
M  END
> <minimizedAffinity>
-8.83177

> <minimizedRMSD>
0.90382

$$$$
P24368


 31 35  0  0  0  0  0  0  0  0999 V2000
   -5.3693    5.0215  -18.5986 C   0  0  0  0  0  0  0  0  0  0  0  0
   -4.4393    5.3141  -17.6820 N   0  0  0  0  0  0  0  0  0  0  0  0
   -5.0671    5.0856  -16.5132 N   0  0  0  0  0  0  0  0  0  0  0  0
   -6.3687    4.6760  -16.6446 C   0  0  0  0  0  0  0  0  0  0  0  0
   -7.3611    4.4264  -15.6803 C   0  0  0  0  0  0  0  0  0  0  0  0
   -8.6245    4.0730  -16.1718 C   0  0  0  0  0  0  0  0  0  0  0  0
   -8.8731    3.9772  -17.5451 C   0  0  0  0  0  0  0  0  0  0  0  0
   -7.8674    4.2405  -18.4809 C   0  0  0  0  0  0  0  0  0  0  0  0
   -6.5902    4.5974  -18.0173 C   0  0  0  0  0  0  0  0  0  0  0  0
   -4.6291    5.2026  -15.6393 H   0  0  0  0  0  0  0  0  0  0  0  0
   -4.0804    4.8564  -21.8708 N   0  0  0  0  0  0  0  0  0  0  0  0
   -3.7309    5.5483  -20.5897 C   0  0  0  0  0  0  0  0  0  0  0  0
   -5.1848    5.3535  -20.1069 C   0  0  0  0  0  0  0  0  0  0  0  0
   -5.2014    4.2078  -21.1322 C   0  0  0  0  0  0  0  0  0  0  0  0
   -4.5923    5.8186  -22.8647 C   0  0  0  0  0  0  0  0  0  0  0  0
   -2.4201    5.0883  -24.0276 C   0  0  0  0  0  0  0  0  0  0  0  0
   -3.5958    6.0539  -24.0114 C   0  0  0  0  0  0  0  0  0  0  0  0
   -7.0954    4.7342  -14.2394 C   0  0  0  0  0  0  0  0  0  0  0  0
   -6.2257    5.4888  -14.0266 O   0  0  0  0  0  0  0  0  0  0  0  0
   -8.0999    4.0559  -13.2676 N   0  0  0  0  0  0  0  0  0  0  0  0
   -8.7945    3.5128  -13.7056 H   0  0  0  0  0  0  0  0  0  0  0  0
   -8.1780    4.0912  -11.8691 C   0  0  0  0  0  0  0  0  0  0  0  0
   -7.9567    5.2825  -11.1572 C   0  0  0  0  0  0  0  0  0  0  0  0
   -8.0888    5.3285   -9.7613 C   0  0  0  0  0  0  0  0  0  0  0  0
   -8.4187    4.1648   -9.0925 C   0  0  0  0  0  0  0  0  0  0  0  0
   -8.5984    2.9731   -9.7853 C   0  0  0  0  0  0  0  0  0  0  0  0
   -8.5033    2.9229  -11.1705 C   0  0  0  0  0  0  0  0  0  0  0  0
   -8.8468    1.8778   -8.7990 C   0  0  0  0  0  0  0  0  0  0  0  0
   -9.2125    2.5676   -7.5353 N   0  0  0  0  0  0  0  0  0  0  0  0
   -8.6168    3.9184   -7.6334 C   0  0  0  0  0  0  0  0  0  0  0  0
   -8.8302    2.0672   -6.7329 H   0  0  0  0  0  0  0  0  0  0  0  0
 16 17  1  0  0  0
 17 15  1  0  0  0
 15 11  1  0  0  0
 11 12  1  0  0  0
 12 13  1  0  0  0
 13  1  1  0  0  0
  1  2  2  0  0  0
  2  3  1  0  0  0
  3  4  1  0  0  0
  4  5  2  0  0  0
  5 18  1  0  0  0
 18 19  2  0  0  0
 18 20  1  0  0  0
 20 22  1  0  0  0
 22 23  2  0  0  0
 23 24  1  0  0  0
 24 25  2  0  0  0
 25 26  1  0  0  0
 26 27  2  0  0  0
 26 28  1  0  0  0
 28 29  1  0  0  0
 29 30  1  0  0  0
  5  6  1  0  0  0
  6  7  2  0  0  0
  7  8  1  0  0  0
  8  9  2  0  0  0
 13 14  1  0  0  0
 14 11  1  0  0  0
  9  1  1  0  0  0
  9  4  1  0  0  0
 27 22  1  0  0  0
 30 25  1  0  0  0
  3 10  1  0  0  0
 20 21  1  0  0  0
 29 31  1  0  0  0
M  END
> <minimizedAffinity>
-8.43422

> <minimizedRMSD>
0.50724

$$$$
P24374


 30 34  0  0  0  0  0  0  0  0999 V2000
   -4.9320    5.2735  -17.1841 C   0  0  0  0  0  0  0  0  0  0  0  0
   -4.6886    5.5264  -15.8648 N   0  0  0  0  0  0  0  0  0  0  0  0
   -5.7212    5.2902  -15.0539 N   0  0  0  0  0  0  0  0  0  0  0  0
   -6.7067    4.8490  -15.8560 C   0  0  0  0  0  0  0  0  0  0  0  0
   -8.0417    4.5049  -15.5684 C   0  0  0  0  0  0  0  0  0  0  0  0
   -8.7906    4.0303  -16.6667 C   0  0  0  0  0  0  0  0  0  0  0  0
   -8.2511    3.9421  -17.9852 C   0  0  0  0  0  0  0  0  0  0  0  0
   -6.9322    4.3210  -18.3262 C   0  0  0  0  0  0  0  0  0  0  0  0
   -6.2063    4.7636  -17.2178 C   0  0  0  0  0  0  0  0  0  0  0  0
   -3.8206    5.8566  -15.5380 H   0  0  0  0  0  0  0  0  0  0  0  0
   -1.9131    5.8383  -20.5588 C   0  0  0  0  0  0  0  0  0  0  0  0
   -3.2294    5.1165  -20.2718 C   0  0  0  0  0  0  0  0  0  0  0  0
   -3.6503    4.2408  -21.4398 C   0  0  0  0  0  0  0  0  0  0  0  0
   -3.2565    4.3266  -18.9394 C   0  0  0  0  0  0  0  0  0  0  0  0
   -3.8681    5.5607  -18.2691 C   0  0  0  0  0  0  0  0  0  0  0  0
   -4.3467    6.0219  -19.6627 C   0  0  0  0  0  0  0  0  0  0  0  0
   -8.6270    4.7918  -14.2497 C   0  0  0  0  0  0  0  0  0  0  0  0
   -9.5225    5.5382  -14.1902 O   0  0  0  0  0  0  0  0  0  0  0  0
   -7.8974    4.0125  -13.1333 N   0  0  0  0  0  0  0  0  0  0  0  0
   -7.2136    3.3797  -13.4516 H   0  0  0  0  0  0  0  0  0  0  0  0
   -8.0496    4.0594  -11.7483 C   0  0  0  0  0  0  0  0  0  0  0  0
   -7.7700    5.2376  -11.0341 C   0  0  0  0  0  0  0  0  0  0  0  0
   -7.9105    5.2882   -9.6438 C   0  0  0  0  0  0  0  0  0  0  0  0
   -8.3651    4.1571   -8.9953 C   0  0  0  0  0  0  0  0  0  0  0  0
   -8.6466    2.9898   -9.6995 C   0  0  0  0  0  0  0  0  0  0  0  0
   -8.4781    2.9150  -11.0730 C   0  0  0  0  0  0  0  0  0  0  0  0
   -9.1077    1.9460   -8.7375 C   0  0  0  0  0  0  0  0  0  0  0  0
   -9.4353    2.6848   -7.4909 N   0  0  0  0  0  0  0  0  0  0  0  0
   -8.6377    3.9292   -7.5464 C   0  0  0  0  0  0  0  0  0  0  0  0
   -9.1786    2.1334   -6.6720 H   0  0  0  0  0  0  0  0  0  0  0  0
 11 12  1  0  0  0
 12 13  1  0  0  0
 12 14  1  0  0  0
 14 15  1  0  0  0
 15  1  1  0  0  0
  1  2  1  0  0  0
  2  3  1  0  0  0
  3  4  2  0  0  0
  4  5  1  0  0  0
  5 17  1  0  0  0
 17 18  2  0  0  0
 17 19  1  0  0  0
 19 21  1  0  0  0
 21 22  2  0  0  0
 22 23  1  0  0  0
 23 24  2  0  0  0
 24 25  1  0  0  0
 25 26  2  0  0  0
 25 27  1  0  0  0
 27 28  1  0  0  0
 28 29  1  0  0  0
  5  6  2  0  0  0
  6  7  1  0  0  0
  7  8  2  0  0  0
  8  9  1  0  0  0
 15 16  1  0  0  0
 16 12  1  0  0  0
  9  1  2  0  0  0
  9  4  1  0  0  0
 26 21  1  0  0  0
 29 24  1  0  0  0
  2 10  1  0  0  0
 19 20  1  0  0  0
 28 30  1  0  0  0
M  END
> <minimizedAffinity>
-9.72138

> <minimizedRMSD>
1.04635

$$$$
P24376


 32 36  0  0  0  0  0  0  0  0999 V2000
   -4.5380    5.0757  -17.6540 N   0  0  0  0  0  0  0  0  0  0  0  0
   -5.0210    5.0820  -16.3836 N   0  0  0  0  0  0  0  0  0  0  0  0
   -6.3181    4.7456  -16.4834 C   0  0  0  0  0  0  0  0  0  0  0  0
   -7.3378    4.6310  -15.5174 C   0  0  0  0  0  0  0  0  0  0  0  0
   -8.5931    4.2257  -16.0287 C   0  0  0  0  0  0  0  0  0  0  0  0
   -8.8342    3.9754  -17.4093 C   0  0  0  0  0  0  0  0  0  0  0  0
   -7.8515    4.1069  -18.4058 C   0  0  0  0  0  0  0  0  0  0  0  0
   -6.6185    4.4880  -17.8771 C   0  0  0  0  0  0  0  0  0  0  0  0
   -5.4896    4.7814  -18.6012 C   0  0  0  0  0  0  0  0  0  0  0  0
   -5.4125    4.8542  -20.1610 C   0  0  0  0  0  0  0  0  0  0  0  0
   -4.9353    6.2140  -20.7099 C   0  0  0  0  0  0  0  0  0  0  0  0
   -4.1168    5.5052  -21.7136 N   0  0  0  0  0  0  0  0  0  0  0  0
   -4.1996    4.2709  -20.9027 C   0  0  0  0  0  0  0  0  0  0  0  0
   -3.1714    5.8740  -21.8166 H   0  0  0  0  0  0  0  0  0  0  0  0
   -2.4436    5.5317  -16.5617 N   0  0  0  0  0  0  0  0  0  0  0  0
   -3.1126    5.3634  -17.8597 C   0  0  0  0  0  0  0  0  0  0  0  0
   -1.4547    5.7311  -16.7122 H   0  0  0  0  0  0  0  0  0  0  0  0
   -2.5385    4.6748  -16.0166 H   0  0  0  0  0  0  0  0  0  0  0  0
   -7.1862    5.0738  -14.1195 C   0  0  0  0  0  0  0  0  0  0  0  0
   -6.7482    6.1368  -13.9119 O   0  0  0  0  0  0  0  0  0  0  0  0
   -7.7610    4.0168  -13.1437 N   0  0  0  0  0  0  0  0  0  0  0  0
   -8.0000    3.1576  -13.5608 H   0  0  0  0  0  0  0  0  0  0  0  0
   -7.9949    4.0842  -11.7703 C   0  0  0  0  0  0  0  0  0  0  0  0
   -7.8050    5.2738  -11.0493 C   0  0  0  0  0  0  0  0  0  0  0  0
   -8.0495    5.3251   -9.6713 C   0  0  0  0  0  0  0  0  0  0  0  0
   -8.4778    4.1732   -9.0385 C   0  0  0  0  0  0  0  0  0  0  0  0
   -8.6551    2.9906   -9.7483 C   0  0  0  0  0  0  0  0  0  0  0  0
   -8.4281    2.9293  -11.1133 C   0  0  0  0  0  0  0  0  0  0  0  0
   -9.0510    1.9089   -8.7991 C   0  0  0  0  0  0  0  0  0  0  0  0
   -9.4726    2.6142   -7.5623 N   0  0  0  0  0  0  0  0  0  0  0  0
   -8.7889    3.9263   -7.5998 C   0  0  0  0  0  0  0  0  0  0  0  0
   -9.1870    2.0873   -6.7370 H   0  0  0  0  0  0  0  0  0  0  0  0
 15 16  1  0  0  0
 16  1  1  0  0  0
  1  2  1  0  0  0
  2  3  2  0  0  0
  3  4  1  0  0  0
  4 19  1  0  0  0
 19 20  2  0  0  0
 19 21  1  0  0  0
 21 23  1  0  0  0
 23 24  2  0  0  0
 24 25  1  0  0  0
 25 26  2  0  0  0
 26 27  1  0  0  0
 27 28  2  0  0  0
 27 29  1  0  0  0
 29 30  1  0  0  0
 30 31  1  0  0  0
  4  5  2  0  0  0
  5  6  1  0  0  0
  6  7  2  0  0  0
  7  8  1  0  0  0
  8  9  2  0  0  0
  9 10  1  0  0  0
 10 11  1  0  0  0
 11 12  1  0  0  0
 12 13  1  0  0  0
  9  1  1  0  0  0
 13 10  1  0  0  0
  8  3  1  0  0  0
 28 23  1  0  0  0
 31 26  1  0  0  0
 15 17  1  0  0  0
 15 18  1  0  0  0
 21 22  1  0  0  0
 30 32  1  0  0  0
 12 14  1  0  0  0
M  END
> <minimizedAffinity>
-8.28822

> <minimizedRMSD>
0.66160

$$$$
P24384


 30 34  0  0  0  0  0  0  0  0999 V2000
   -7.8993    4.6844  -15.1186 C   0  0  0  0  0  0  0  0  0  0  0  0
   -8.6567    4.3723  -16.2687 C   0  0  0  0  0  0  0  0  0  0  0  0
   -8.0623    4.2887  -17.5632 C   0  0  0  0  0  0  0  0  0  0  0  0
   -9.1966    4.0405  -19.0654 Br  0  0  0  0  0  0  0  0  0  0  0  0
   -6.6888    4.4766  -17.8323 C   0  0  0  0  0  0  0  0  0  0  0  0
   -5.9675    4.7894  -16.6799 C   0  0  0  0  0  0  0  0  0  0  0  0
   -4.6515    5.1742  -16.5842 C   0  0  0  0  0  0  0  0  0  0  0  0
   -4.4431    5.3679  -15.2446 N   0  0  0  0  0  0  0  0  0  0  0  0
   -5.5267    5.1976  -14.4821 N   0  0  0  0  0  0  0  0  0  0  0  0
   -6.5182    4.8859  -15.3371 C   0  0  0  0  0  0  0  0  0  0  0  0
   -3.5649    5.6130  -14.8733 H   0  0  0  0  0  0  0  0  0  0  0  0
   -3.5184    5.4056  -17.6392 C   0  0  0  0  0  0  0  0  0  0  0  0
   -3.4853    6.7195  -18.4386 C   0  0  0  0  0  0  0  0  0  0  0  0
   -4.1343    6.0192  -19.5630 N   0  0  0  0  0  0  0  0  0  0  0  0
   -3.7121    4.7240  -19.0072 C   0  0  0  0  0  0  0  0  0  0  0  0
   -3.7294    6.2321  -20.4746 H   0  0  0  0  0  0  0  0  0  0  0  0
   -9.3438    5.8077  -13.7787 O   0  0  0  0  0  0  0  0  0  0  0  0
   -8.5044    4.9965  -13.8125 C   0  0  0  0  0  0  0  0  0  0  0  0
   -7.8246    4.2095  -12.6682 N   0  0  0  0  0  0  0  0  0  0  0  0
   -7.0819    3.6288  -12.9519 H   0  0  0  0  0  0  0  0  0  0  0  0
   -8.0925    4.1883  -11.2988 C   0  0  0  0  0  0  0  0  0  0  0  0
   -7.9363    5.3506  -10.5241 C   0  0  0  0  0  0  0  0  0  0  0  0
   -8.1311    5.3267   -9.1394 C   0  0  0  0  0  0  0  0  0  0  0  0
   -8.5082    4.1341   -8.5525 C   0  0  0  0  0  0  0  0  0  0  0  0
   -8.6867    2.9871   -9.3162 C   0  0  0  0  0  0  0  0  0  0  0  0
   -8.4728    2.9906  -10.6887 C   0  0  0  0  0  0  0  0  0  0  0  0
   -9.0835    1.8603   -8.4223 C   0  0  0  0  0  0  0  0  0  0  0  0
   -9.3297    2.4600   -7.0865 N   0  0  0  0  0  0  0  0  0  0  0  0
   -8.7696    3.8251   -7.1180 C   0  0  0  0  0  0  0  0  0  0  0  0
   -8.8675    1.9080   -6.3639 H   0  0  0  0  0  0  0  0  0  0  0  0
 17 18  2  0  0  0
 18 19  1  0  0  0
 19 21  1  0  0  0
 21 22  2  0  0  0
 22 23  1  0  0  0
 23 24  2  0  0  0
 24 25  1  0  0  0
 25 26  2  0  0  0
 25 27  1  0  0  0
 27 28  1  0  0  0
 28 29  1  0  0  0
 18  1  1  0  0  0
  1  2  2  0  0  0
  2  3  1  0  0  0
  3  4  1  0  0  0
  3  5  2  0  0  0
  5  6  1  0  0  0
  6  7  2  0  0  0
  7 12  1  0  0  0
 12 13  1  0  0  0
 13 14  1  0  0  0
 14 15  1  0  0  0
  7  8  1  0  0  0
  8  9  1  0  0  0
  9 10  2  0  0  0
 26 21  1  0  0  0
 10  1  1  0  0  0
 29 24  1  0  0  0
 10  6  1  0  0  0
 15 12  1  0  0  0
 19 20  1  0  0  0
 28 30  1  0  0  0
 14 16  1  0  0  0
  8 11  1  0  0  0
M  END
> <minimizedAffinity>
-8.90238

> <minimizedRMSD>
0.97717

$$$$
P24387


 31 35  0  0  0  0  0  0  0  0999 V2000
   -4.7403    5.0775  -16.9236 C   0  0  0  0  0  0  0  0  0  0  0  0
   -4.4847    5.4325  -15.6332 N   0  0  0  0  0  0  0  0  0  0  0  0
   -5.5614    5.3813  -14.8278 N   0  0  0  0  0  0  0  0  0  0  0  0
   -6.5824    4.9919  -15.6162 C   0  0  0  0  0  0  0  0  0  0  0  0
   -7.9485    4.7608  -15.3523 C   0  0  0  0  0  0  0  0  0  0  0  0
   -8.7164    4.3308  -16.4596 C   0  0  0  0  0  0  0  0  0  0  0  0
   -8.1616    4.1829  -17.7645 C   0  0  0  0  0  0  0  0  0  0  0  0
   -9.2069    3.7460  -19.0692 Cl  0  0  0  0  0  0  0  0  0  0  0  0
   -6.8103    4.4148  -18.0802 C   0  0  0  0  0  0  0  0  0  0  0  0
   -6.0800    4.8022  -16.9596 C   0  0  0  0  0  0  0  0  0  0  0  0
   -3.5918    5.7023  -15.3182 H   0  0  0  0  0  0  0  0  0  0  0  0
   -4.3425    6.1609  -20.2818 C   0  0  0  0  0  0  0  0  0  0  0  0
   -3.6021    6.2409  -18.9670 C   0  0  0  0  0  0  0  0  0  0  0  0
   -2.1485    5.9574  -19.0878 N   0  0  0  0  0  0  0  0  0  0  0  0
   -2.2331    5.1990  -17.8107 C   0  0  0  0  0  0  0  0  0  0  0  0
   -3.7346    4.9855  -18.0934 C   0  0  0  0  0  0  0  0  0  0  0  0
   -1.5524    6.7842  -19.0492 H   0  0  0  0  0  0  0  0  0  0  0  0
   -8.5519    5.0729  -14.0515 C   0  0  0  0  0  0  0  0  0  0  0  0
   -9.4835    5.7761  -14.0247 O   0  0  0  0  0  0  0  0  0  0  0  0
   -7.7862    4.3788  -12.9004 N   0  0  0  0  0  0  0  0  0  0  0  0
   -6.9772    3.8915  -13.1785 H   0  0  0  0  0  0  0  0  0  0  0  0
   -8.0556    4.3311  -11.5315 C   0  0  0  0  0  0  0  0  0  0  0  0
   -7.9049    5.4706  -10.7250 C   0  0  0  0  0  0  0  0  0  0  0  0
   -8.1100    5.4054   -9.3422 C   0  0  0  0  0  0  0  0  0  0  0  0
   -8.4749    4.1920   -8.7887 C   0  0  0  0  0  0  0  0  0  0  0  0
   -8.6403    3.0654   -9.5842 C   0  0  0  0  0  0  0  0  0  0  0  0
   -8.4339    3.1144  -10.9560 C   0  0  0  0  0  0  0  0  0  0  0  0
   -9.0043    1.9031   -8.7225 C   0  0  0  0  0  0  0  0  0  0  0  0
   -9.2575    2.4582   -7.3694 N   0  0  0  0  0  0  0  0  0  0  0  0
   -8.7257    3.8357   -7.3629 C   0  0  0  0  0  0  0  0  0  0  0  0
   -8.7812    1.8952   -6.6647 H   0  0  0  0  0  0  0  0  0  0  0  0
 13 12  1  0  0  0
 13 14  1  0  0  0
 14 15  1  0  0  0
 15 16  1  0  0  0
 16  1  1  0  0  0
  1  2  1  0  0  0
  2  3  1  0  0  0
  3  4  2  0  0  0
  4  5  1  0  0  0
  5 18  1  0  0  0
 18 19  2  0  0  0
 18 20  1  0  0  0
 20 22  1  0  0  0
 22 23  2  0  0  0
 23 24  1  0  0  0
 24 25  2  0  0  0
 25 26  1  0  0  0
 26 27  2  0  0  0
 26 28  1  0  0  0
 28 29  1  0  0  0
 29 30  1  0  0  0
  5  6  2  0  0  0
  6  7  1  0  0  0
  7  8  1  0  0  0
  7  9  2  0  0  0
  9 10  1  0  0  0
 16 13  1  0  0  0
 10  1  2  0  0  0
 10  4  1  0  0  0
 27 22  1  0  0  0
 30 25  1  0  0  0
 14 17  1  0  0  0
  2 11  1  0  0  0
 20 21  1  0  0  0
 29 31  1  0  0  0
M  END
> <minimizedAffinity>
-9.04962

> <minimizedRMSD>
0.87226

$$$$
P24422


 41 44  0  0  0  0  0  0  0  0999 V2000
   -7.2942    4.6228  -16.0628 C   0  0  0  0  0  0  0  0  0  0  0  0
   -8.5290    4.0723  -16.4151 C   0  0  0  0  0  0  0  0  0  0  0  0
   -8.8032    3.8025  -17.7627 C   0  0  0  0  0  0  0  0  0  0  0  0
  -10.3630    3.2401  -18.2213 Cl  0  0  0  0  0  0  0  0  0  0  0  0
   -7.8556    4.0455  -18.7579 C   0  0  0  0  0  0  0  0  0  0  0  0
   -6.6270    4.5576  -18.3853 C   0  0  0  0  0  0  0  0  0  0  0  0
   -6.3539    4.8524  -17.0602 C   0  0  0  0  0  0  0  0  0  0  0  0
   -4.9920    5.4637  -16.9737 C   0  0  0  0  0  0  0  0  0  0  0  0
   -4.4510    5.2934  -18.4477 C   0  0  0  0  0  0  0  0  0  0  0  0
   -3.5856    4.1864  -18.4324 O   0  0  0  0  0  0  0  0  0  0  0  0
   -5.5970    4.9301  -19.2673 N   0  0  0  0  0  0  0  0  0  0  0  0
   -2.8063    4.3926  -17.8929 H   0  0  0  0  0  0  0  0  0  0  0  0
   -5.6426    4.9427  -20.2506 H   0  0  0  0  0  0  0  0  0  0  0  0
   -7.5788    4.1108  -13.6256 N   0  0  0  0  0  0  0  0  0  0  0  0
   -7.0025    5.0769  -14.6829 C   0  0  0  0  0  0  0  0  0  0  0  0
   -6.3544    6.0398  -14.5551 O   0  0  0  0  0  0  0  0  0  0  0  0
   -8.1639    3.4062  -13.9867 H   0  0  0  0  0  0  0  0  0  0  0  0
   -7.7073    3.7679  -10.0495 C   0  0  0  0  0  0  0  0  0  0  0  0
   -8.3406    3.7122  -11.2868 C   0  0  0  0  0  0  0  0  0  0  0  0
   -7.4093    4.0746  -12.2742 C   0  0  0  0  0  0  0  0  0  0  0  0
   -6.2324    4.3542  -11.6313 C   0  0  0  0  0  0  0  0  0  0  0  0
   -6.3687    3.9890  -10.3100 N   0  0  0  0  0  0  0  0  0  0  0  0
   -8.3582    3.5476   -8.7178 C   0  0  0  0  0  0  0  0  0  0  0  0
   -8.9214    4.2981   -6.5565 C   0  0  0  0  0  0  0  0  0  0  0  0
   -8.1100    4.5842   -7.7145 N   0  0  0  0  0  0  0  0  0  0  0  0
   -8.3530    5.9619   -8.0997 C   0  0  0  0  0  0  0  0  0  0  0  0
   -5.2338    3.8521   -9.4023 C   0  0  0  0  0  0  0  0  0  0  0  0
   -4.2057    2.8490   -9.8869 C   0  0  0  0  0  0  0  0  0  0  0  0
   -2.9031    3.2420  -10.2039 C   0  0  0  0  0  0  0  0  0  0  0  0
   -2.0007    2.2724  -10.6145 C   0  0  0  0  0  0  0  0  0  0  0  0
   -2.2983    0.9591  -10.7215 N   0  0  0  0  0  0  0  0  0  0  0  0
   -3.5673    0.6038  -10.4248 C   0  0  0  0  0  0  0  0  0  0  0  0
   -4.5401    1.4952  -10.0046 C   0  0  0  0  0  0  0  0  0  0  0  0
   -3.6827    6.4784  -18.7898 N   0  0  0  0  0  0  0  0  0  0  0  0
   -2.8038    6.4157  -18.2760 H   0  0  0  0  0  0  0  0  0  0  0  0
   -3.3308    6.7630  -20.2003 C   0  0  0  0  0  0  0  0  0  0  0  0
   -2.3930    7.9924  -20.1079 C   0  0  0  0  0  0  0  0  0  0  0  0
   -4.5539    7.1845  -21.0386 C   0  0  0  0  0  0  0  0  0  0  0  0
   -2.5300    5.6514  -20.9407 C   0  0  0  0  0  0  0  0  0  0  0  0
   -3.3747    4.6231  -21.4674 O   0  0  0  0  0  0  0  0  0  0  0  0
   -3.8469    4.1883  -20.7401 H   0  0  0  0  0  0  0  0  0  0  0  0
 24 25  1  0  0  0
 25 26  1  0  0  0
 25 23  1  0  0  0
 23 18  1  0  0  0
 18 19  2  0  0  0
 19 20  1  0  0  0
 20 14  1  0  0  0
 14 15  1  0  0  0
 15 16  2  0  0  0
 15  1  1  0  0  0
  1  2  2  0  0  0
  2  3  1  0  0  0
  3  4  1  0  0  0
  3  5  2  0  0  0
  5  6  1  0  0  0
  6  7  2  0  0  0
  7  8  1  0  0  0
  8  9  1  0  0  0
  9 10  1  0  0  0
  9 34  1  0  0  0
 34 36  1  0  0  0
 36 37  1  0  0  0
 36 38  1  0  0  0
 36 39  1  0  0  0
 39 40  1  0  0  0
  9 11  1  0  0  0
 20 21  2  0  0  0
 21 22  1  0  0  0
 22 27  1  0  0  0
 27 28  1  0  0  0
 28 29  2  0  0  0
 29 30  1  0  0  0
 30 31  2  0  0  0
 31 32  1  0  0  0
 32 33  2  0  0  0
 22 18  1  0  0  0
 33 28  1  0  0  0
  7  1  1  0  0  0
 11  6  1  0  0  0
 14 17  1  0  0  0
 10 12  1  0  0  0
 34 35  1  0  0  0
 40 41  1  0  0  0
 11 13  1  0  0  0
M  END
> <minimizedAffinity>
-7.27717

> <minimizedRMSD>
2.29950

$$$$
P24499


 28 31  0  0  0  0  0  0  0  0999 V2000
   -5.9148    4.4895  -12.8622 N   0  0  0  0  0  0  0  0  0  0  0  0
   -7.1014    4.9633  -13.5558 C   0  0  0  0  0  0  0  0  0  0  0  0
   -7.1623    6.3744  -13.4165 O   0  0  0  0  0  0  0  0  0  0  0  0
   -6.0272    4.6337  -11.8587 H   0  0  0  0  0  0  0  0  0  0  0  0
   -5.0996    5.0069  -13.1909 H   0  0  0  0  0  0  0  0  0  0  0  0
   -7.2772    6.6023  -12.4807 H   0  0  0  0  0  0  0  0  0  0  0  0
   -6.9210    4.7416  -15.0613 C   0  0  0  0  0  0  0  0  0  0  0  0
   -7.9860    4.4699  -15.9569 C   0  0  0  0  0  0  0  0  0  0  0  0
   -7.7848    4.4941  -17.3526 C   0  0  0  0  0  0  0  0  0  0  0  0
   -6.5141    4.7840  -17.8129 C   0  0  0  0  0  0  0  0  0  0  0  0
   -5.4603    5.0157  -16.9470 C   0  0  0  0  0  0  0  0  0  0  0  0
   -5.6422    5.0067  -15.5912 C   0  0  0  0  0  0  0  0  0  0  0  0
   -4.2138    5.3339  -17.6930 C   0  0  0  0  0  0  0  0  0  0  0  0
   -4.7157    5.3821  -19.1217 C   0  0  0  0  0  0  0  0  0  0  0  0
   -4.0402    5.7434  -20.0711 O   0  0  0  0  0  0  0  0  0  0  0  0
   -6.0489    4.9780  -19.1057 N   0  0  0  0  0  0  0  0  0  0  0  0
   -6.5950    4.8461  -19.9141 H   0  0  0  0  0  0  0  0  0  0  0  0
   -8.2969    4.3655  -13.0490 O   0  0  0  0  0  0  0  0  0  0  0  0
   -8.3920    4.3659  -11.6737 C   0  0  0  0  0  0  0  0  0  0  0  0
   -8.5756    3.1165  -11.0698 C   0  0  0  0  0  0  0  0  0  0  0  0
   -8.5470    2.9959   -9.6786 C   0  0  0  0  0  0  0  0  0  0  0  0
   -8.3594    4.1376   -8.9172 C   0  0  0  0  0  0  0  0  0  0  0  0
   -8.2235    5.3820   -9.5098 C   0  0  0  0  0  0  0  0  0  0  0  0
   -8.2530    5.5190  -10.8847 C   0  0  0  0  0  0  0  0  0  0  0  0
   -8.0366    6.4117   -8.4496 C   0  0  0  0  0  0  0  0  0  0  0  0
   -8.3836    5.7368   -7.1668 N   0  0  0  0  0  0  0  0  0  0  0  0
   -8.2611    4.2760   -7.4393 C   0  0  0  0  0  0  0  0  0  0  0  0
   -9.3370    5.9688   -6.8885 H   0  0  0  0  0  0  0  0  0  0  0  0
  2  1  1  0  0  0
  2  3  1  0  0  0
  2 18  1  0  0  0
 18 19  1  0  0  0
 19 20  2  0  0  0
 20 21  1  0  0  0
 21 22  2  0  0  0
 22 23  1  0  0  0
 23 24  2  0  0  0
 23 25  1  0  0  0
 25 26  1  0  0  0
 26 27  1  0  0  0
  2  7  1  0  0  0
  7  8  2  0  0  0
  8  9  1  0  0  0
  9 10  2  0  0  0
 10 11  1  0  0  0
 11 12  2  0  0  0
 11 13  1  0  0  0
 13 14  1  0  0  0
 14 15  2  0  0  0
 14 16  1  0  0  0
 24 19  1  0  0  0
 12  7  1  0  0  0
 27 22  1  0  0  0
 16 10  1  0  0  0
  1  4  1  0  0  0
  1  5  1  0  0  0
  3  6  1  0  0  0
 26 28  1  0  0  0
 16 17  1  0  0  0
M  END
> <minimizedAffinity>
-7.56956

> <minimizedRMSD>
0.39817

$$$$
P24515


 28 31  0  0  0  0  0  0  0  0999 V2000
   -8.0478    5.8277  -10.5929 C   0  0  0  0  0  0  0  0  0  0  0  0
   -8.1353    5.6627   -9.2048 C   0  0  0  0  0  0  0  0  0  0  0  0
   -8.4649    4.4005   -8.7216 C   0  0  0  0  0  0  0  0  0  0  0  0
   -8.6797    3.3199   -9.5772 C   0  0  0  0  0  0  0  0  0  0  0  0
   -8.5809    3.4612  -10.9470 C   0  0  0  0  0  0  0  0  0  0  0  0
   -8.2627    4.7262  -11.4469 C   0  0  0  0  0  0  0  0  0  0  0  0
   -8.9947    2.1011   -8.7712 C   0  0  0  0  0  0  0  0  0  0  0  0
   -9.3174    2.6175   -7.4154 N   0  0  0  0  0  0  0  0  0  0  0  0
   -8.6563    3.9341   -7.3140 C   0  0  0  0  0  0  0  0  0  0  0  0
   -8.9587    1.9846   -6.7003 H   0  0  0  0  0  0  0  0  0  0  0  0
   -7.6766    8.6244  -10.0749 C   0  0  0  0  0  0  0  0  0  0  0  0
   -7.7440    7.4099  -11.3431 S   0  0  0  0  0  0  0  0  0  0  0  0
   -6.4186    7.3822  -11.9335 O   0  0  0  0  0  0  0  0  0  0  0  0
   -8.9040    7.7243  -12.1597 O   0  0  0  0  0  0  0  0  0  0  0  0
   -8.2285    4.8895  -12.8322 O   0  0  0  0  0  0  0  0  0  0  0  0
   -7.0782    4.3362  -13.3444 C   0  0  0  0  0  0  0  0  0  0  0  0
   -6.1620    3.8140  -12.7233 O   0  0  0  0  0  0  0  0  0  0  0  0
   -7.0457    4.5499  -14.8113 C   0  0  0  0  0  0  0  0  0  0  0  0
   -8.1609    4.3418  -15.6577 C   0  0  0  0  0  0  0  0  0  0  0  0
   -8.0239    4.4470  -17.0511 C   0  0  0  0  0  0  0  0  0  0  0  0
   -6.7784    4.7875  -17.5421 C   0  0  0  0  0  0  0  0  0  0  0  0
   -5.6914    5.0214  -16.7094 C   0  0  0  0  0  0  0  0  0  0  0  0
   -5.8041    4.9133  -15.3433 C   0  0  0  0  0  0  0  0  0  0  0  0
   -4.4858    5.3627  -17.5194 C   0  0  0  0  0  0  0  0  0  0  0  0
   -5.0376    5.3437  -18.9386 C   0  0  0  0  0  0  0  0  0  0  0  0
   -4.4013    5.6271  -19.9403 O   0  0  0  0  0  0  0  0  0  0  0  0
   -6.3744    4.9756  -18.8532 N   0  0  0  0  0  0  0  0  0  0  0  0
   -6.9648    4.8619  -19.6328 H   0  0  0  0  0  0  0  0  0  0  0  0
 11 12  1  0  0  0
 12 13  2  0  0  0
 12 14  2  0  0  0
 12  1  1  0  0  0
  1  2  2  0  0  0
  2  3  1  0  0  0
  3  4  2  0  0  0
  4  5  1  0  0  0
  5  6  2  0  0  0
  6 15  1  0  0  0
 15 16  1  0  0  0
 16 17  2  0  0  0
 16 18  1  0  0  0
 18 19  2  0  0  0
 19 20  1  0  0  0
 20 21  2  0  0  0
 21 22  1  0  0  0
 22 23  2  0  0  0
 22 24  1  0  0  0
 24 25  1  0  0  0
 25 26  2  0  0  0
 25 27  1  0  0  0
  4  7  1  0  0  0
  7  8  1  0  0  0
  8  9  1  0  0  0
  6  1  1  0  0  0
 23 18  1  0  0  0
  9  3  1  0  0  0
 27 21  1  0  0  0
 27 28  1  0  0  0
  8 10  1  0  0  0
M  END
> <minimizedAffinity>
-7.94023

> <minimizedRMSD>
0.51123

$$$$
P24538


 27 30  0  0  0  0  0  0  0  0999 V2000
   -4.9976    5.7789  -17.4396 C   0  0  0  0  0  0  0  0  0  0  0  0
   -5.1503    5.5795  -18.9466 C   0  0  0  0  0  0  0  0  0  0  0  0
   -4.4426    6.0595  -19.8177 O   0  0  0  0  0  0  0  0  0  0  0  0
   -6.3002    4.8276  -19.1398 N   0  0  0  0  0  0  0  0  0  0  0  0
   -6.9824    4.6069  -17.9569 C   0  0  0  0  0  0  0  0  0  0  0  0
   -8.2392    4.0657  -17.7895 C   0  0  0  0  0  0  0  0  0  0  0  0
   -8.7666    4.0710  -16.4959 C   0  0  0  0  0  0  0  0  0  0  0  0
   -8.0169    4.5787  -15.4212 C   0  0  0  0  0  0  0  0  0  0  0  0
   -6.7502    5.1270  -15.6176 C   0  0  0  0  0  0  0  0  0  0  0  0
   -6.2451    5.1333  -16.9025 C   0  0  0  0  0  0  0  0  0  0  0  0
   -6.5961    4.4906  -20.0162 H   0  0  0  0  0  0  0  0  0  0  0  0
   -3.4552    5.4481  -15.4144 C   0  0  0  0  0  0  0  0  0  0  0  0
   -3.7197    5.2303  -16.8803 C   0  0  0  0  0  0  0  0  0  0  0  0
   -2.8715    4.6748  -17.5782 O   0  0  0  0  0  0  0  0  0  0  0  0
   -8.6308    4.7145  -14.0977 C   0  0  0  0  0  0  0  0  0  0  0  0
   -9.5702    5.4680  -13.9042 O   0  0  0  0  0  0  0  0  0  0  0  0
   -7.9321    3.9231  -13.2110 O   0  0  0  0  0  0  0  0  0  0  0  0
   -8.1744    4.1020  -11.8382 C   0  0  0  0  0  0  0  0  0  0  0  0
   -7.8275    5.3043  -11.2050 C   0  0  0  0  0  0  0  0  0  0  0  0
   -7.9251    5.4107   -9.8131 C   0  0  0  0  0  0  0  0  0  0  0  0
   -8.3654    4.3089   -9.0945 C   0  0  0  0  0  0  0  0  0  0  0  0
   -8.7167    3.1262   -9.7343 C   0  0  0  0  0  0  0  0  0  0  0  0
   -8.6139    2.9974  -11.1093 C   0  0  0  0  0  0  0  0  0  0  0  0
   -9.1347    2.1131   -8.7229 C   0  0  0  0  0  0  0  0  0  0  0  0
   -9.1359    2.8127   -7.4105 N   0  0  0  0  0  0  0  0  0  0  0  0
   -8.5161    4.1364   -7.6212 C   0  0  0  0  0  0  0  0  0  0  0  0
   -8.5964    2.2787   -6.7292 H   0  0  0  0  0  0  0  0  0  0  0  0
 12 13  1  0  0  0
 13 14  2  0  0  0
  1 13  1  0  0  0
  1  2  1  0  0  0
  2  3  2  0  0  0
  2  4  1  0  0  0
  4  5  1  0  0  0
  5  6  2  0  0  0
  6  7  1  0  0  0
  7  8  2  0  0  0
  8 15  1  0  0  0
 15 16  2  0  0  0
 15 17  1  0  0  0
 17 18  1  0  0  0
 18 19  2  0  0  0
 19 20  1  0  0  0
 20 21  2  0  0  0
 21 22  1  0  0  0
 22 23  2  0  0  0
 22 24  1  0  0  0
 24 25  1  0  0  0
 25 26  1  0  0  0
  8  9  1  0  0  0
  9 10  2  0  0  0
 10  1  1  0  0  0
 10  5  1  0  0  0
 23 18  1  0  0  0
 26 21  1  0  0  0
  4 11  1  0  0  0
 25 27  1  0  0  0
M  END
> <minimizedAffinity>
-8.84437

> <minimizedRMSD>
0.27056

$$$$
P24539


 27 30  0  0  0  0  0  0  0  0999 V2000
   -4.1662    6.5638  -17.0258 N   0  0  0  0  0  0  0  0  0  0  0  0
   -4.7863    5.2836  -17.3670 C   0  0  0  0  0  0  0  0  0  0  0  0
   -5.4406    5.3426  -18.7616 C   0  0  0  0  0  0  0  0  0  0  0  0
   -4.8907    5.7451  -19.7753 O   0  0  0  0  0  0  0  0  0  0  0  0
   -6.7602    4.9252  -18.6046 N   0  0  0  0  0  0  0  0  0  0  0  0
   -7.0816    4.7178  -17.2711 C   0  0  0  0  0  0  0  0  0  0  0  0
   -8.2928    4.3732  -16.7045 C   0  0  0  0  0  0  0  0  0  0  0  0
   -8.3555    4.3014  -15.3000 C   0  0  0  0  0  0  0  0  0  0  0  0
   -7.2091    4.5593  -14.5093 C   0  0  0  0  0  0  0  0  0  0  0  0
   -6.0005    4.9018  -15.1218 C   0  0  0  0  0  0  0  0  0  0  0  0
   -5.9555    4.9692  -16.4965 C   0  0  0  0  0  0  0  0  0  0  0  0
   -3.3744    6.7341  -17.6460 H   0  0  0  0  0  0  0  0  0  0  0  0
   -3.8414    6.5374  -16.0592 H   0  0  0  0  0  0  0  0  0  0  0  0
   -7.3893    4.7932  -19.3503 H   0  0  0  0  0  0  0  0  0  0  0  0
   -7.1648    4.4534  -13.0278 C   0  0  0  0  0  0  0  0  0  0  0  0
   -6.1094    4.3573  -12.4158 O   0  0  0  0  0  0  0  0  0  0  0  0
   -8.4343    4.5482  -12.5101 O   0  0  0  0  0  0  0  0  0  0  0  0
   -8.4192    4.3882  -11.1224 C   0  0  0  0  0  0  0  0  0  0  0  0
   -8.1366    5.4961  -10.3043 C   0  0  0  0  0  0  0  0  0  0  0  0
   -8.1904    5.3671   -8.9161 C   0  0  0  0  0  0  0  0  0  0  0  0
   -8.5518    4.1376   -8.3914 C   0  0  0  0  0  0  0  0  0  0  0  0
   -8.8197    3.0429   -9.2143 C   0  0  0  0  0  0  0  0  0  0  0  0
   -8.7601    3.1461  -10.5906 C   0  0  0  0  0  0  0  0  0  0  0  0
   -9.1332    1.8595   -8.3600 C   0  0  0  0  0  0  0  0  0  0  0  0
   -9.4444    2.4292   -7.0227 N   0  0  0  0  0  0  0  0  0  0  0  0
   -8.7320    3.7241   -6.9684 C   0  0  0  0  0  0  0  0  0  0  0  0
   -9.1120    1.8084   -6.2847 H   0  0  0  0  0  0  0  0  0  0  0  0
  2  1  1  0  0  0
  2  3  1  0  0  0
  3  4  2  0  0  0
  3  5  1  0  0  0
  5  6  1  0  0  0
  6  7  2  0  0  0
  7  8  1  0  0  0
  8  9  2  0  0  0
  9 15  1  0  0  0
 15 16  2  0  0  0
 15 17  1  0  0  0
 17 18  1  0  0  0
 18 19  2  0  0  0
 19 20  1  0  0  0
 20 21  2  0  0  0
 21 22  1  0  0  0
 22 23  2  0  0  0
 22 24  1  0  0  0
 24 25  1  0  0  0
 25 26  1  0  0  0
  9 10  1  0  0  0
 10 11  2  0  0  0
 11  2  1  0  0  0
 11  6  1  0  0  0
 23 18  1  0  0  0
 26 21  1  0  0  0
  1 12  1  0  0  0
  1 13  1  0  0  0
  5 14  1  0  0  0
 25 27  1  0  0  0
M  END
> <minimizedAffinity>
-7.96026

> <minimizedRMSD>
0.31186

$$$$
P24552


 25 29  0  0  0  0  0  0  0  0999 V2000
   -4.1988    5.5610  -19.7034 O   0  0  0  0  0  0  0  0  0  0  0  0
   -5.0051    5.2029  -18.8753 C   0  0  0  0  0  0  0  0  0  0  0  0
   -6.2959    4.7520  -18.9952 N   0  0  0  0  0  0  0  0  0  0  0  0
   -6.9125    4.6136  -17.7816 C   0  0  0  0  0  0  0  0  0  0  0  0
   -6.0908    4.8949  -16.7716 C   0  0  0  0  0  0  0  0  0  0  0  0
   -6.4208    4.9489  -15.3524 C   0  0  0  0  0  0  0  0  0  0  0  0
   -7.8772    4.7014  -15.0721 C   0  0  0  0  0  0  0  0  0  0  0  0
   -8.7517    4.0477  -16.1259 C   0  0  0  0  0  0  0  0  0  0  0  0
   -8.3467    4.2545  -17.6028 C   0  0  0  0  0  0  0  0  0  0  0  0
   -8.6262    5.7483  -13.9876 N   0  0  0  0  0  0  0  0  0  0  0  0
   -8.2136    4.5953  -13.7223 C   0  0  0  0  0  0  0  0  0  0  0  0
   -4.7920    5.2246  -17.3570 C   0  0  0  0  0  0  0  0  0  0  0  0
   -3.7688    5.4688  -16.7596 O   0  0  0  0  0  0  0  0  0  0  0  0
   -6.7288    4.5511  -19.8563 H   0  0  0  0  0  0  0  0  0  0  0  0
   -8.0086    3.6387  -12.8242 O   0  0  0  0  0  0  0  0  0  0  0  0
   -8.2514    3.9091  -11.4707 C   0  0  0  0  0  0  0  0  0  0  0  0
   -7.9211    5.1119  -10.8290 C   0  0  0  0  0  0  0  0  0  0  0  0
   -8.0761    5.2220   -9.4398 C   0  0  0  0  0  0  0  0  0  0  0  0
   -8.5548    4.1242   -8.7385 C   0  0  0  0  0  0  0  0  0  0  0  0
   -8.8805    2.9415   -9.3927 C   0  0  0  0  0  0  0  0  0  0  0  0
   -8.7306    2.8148  -10.7552 C   0  0  0  0  0  0  0  0  0  0  0  0
   -9.3193    1.9181   -8.4019 C   0  0  0  0  0  0  0  0  0  0  0  0
   -9.5802    2.6834   -7.1576 N   0  0  0  0  0  0  0  0  0  0  0  0
   -8.7761    3.9217   -7.2738 C   0  0  0  0  0  0  0  0  0  0  0  0
   -9.2891    2.1454   -6.3414 H   0  0  0  0  0  0  0  0  0  0  0  0
  1  2  2  0  0  0
  2  3  1  0  0  0
  3  4  1  0  0  0
  4  5  2  0  0  0
  5  6  1  0  0  0
  7  6  1  0  0  0
  7  8  1  0  0  0
  8  9  1  0  0  0
  7 10  1  0  0  0
 10 11  2  0  0  0
 11 15  1  0  0  0
 15 16  1  0  0  0
 16 17  2  0  0  0
 17 18  1  0  0  0
 18 19  2  0  0  0
 19 20  1  0  0  0
 20 21  2  0  0  0
 20 22  1  0  0  0
 22 23  1  0  0  0
 23 24  1  0  0  0
  5 12  1  0  0  0
 12 13  2  0  0  0
 12  2  1  0  0  0
  9  4  1  0  0  0
 21 16  1  0  0  0
 11  7  1  0  0  0
 24 19  1  0  0  0
  3 14  1  0  0  0
 23 25  1  0  0  0
M  END
> <minimizedAffinity>
-9.18194

> <minimizedRMSD>
0.29525

$$$$
P24577


 31 34  0  0  0  0  0  0  0  0999 V2000
   -5.5659    5.3786  -18.5719 C   0  0  0  0  0  0  0  0  0  0  0  0
   -5.4162    3.9995  -18.8067 O   0  0  0  0  0  0  0  0  0  0  0  0
   -4.9260    5.7342  -17.2101 C   0  0  0  0  0  0  0  0  0  0  0  0
   -6.0516    5.3009  -16.3211 C   0  0  0  0  0  0  0  0  0  0  0  0
   -6.0298    5.0479  -14.9692 C   0  0  0  0  0  0  0  0  0  0  0  0
   -7.1950    4.5471  -14.3802 C   0  0  0  0  0  0  0  0  0  0  0  0
   -8.3388    4.2736  -15.1660 C   0  0  0  0  0  0  0  0  0  0  0  0
   -8.3298    4.5303  -16.5375 C   0  0  0  0  0  0  0  0  0  0  0  0
   -9.6403    4.0440  -17.5351 Cl  0  0  0  0  0  0  0  0  0  0  0  0
   -7.2008    5.0994  -17.0954 C   0  0  0  0  0  0  0  0  0  0  0  0
   -6.9948    5.5715  -18.4154 N   0  0  0  0  0  0  0  0  0  0  0  0
   -4.4759    3.7914  -18.9227 H   0  0  0  0  0  0  0  0  0  0  0  0
   -7.6483    5.9342  -19.0563 H   0  0  0  0  0  0  0  0  0  0  0  0
   -7.1366    4.2866  -12.9217 C   0  0  0  0  0  0  0  0  0  0  0  0
   -6.0872    4.2440  -12.2971 O   0  0  0  0  0  0  0  0  0  0  0  0
   -8.4185    4.1684  -12.4431 O   0  0  0  0  0  0  0  0  0  0  0  0
   -8.4388    4.0894  -11.0531 C   0  0  0  0  0  0  0  0  0  0  0  0
   -8.7586    2.8677  -10.4712 C   0  0  0  0  0  0  0  0  0  0  0  0
   -8.8755    2.8424   -9.0959 C   0  0  0  0  0  0  0  0  0  0  0  0
   -8.6771    3.9862   -8.3181 C   0  0  0  0  0  0  0  0  0  0  0  0
   -8.3357    5.1979   -8.8921 C   0  0  0  0  0  0  0  0  0  0  0  0
   -8.2347    5.2427  -10.2785 C   0  0  0  0  0  0  0  0  0  0  0  0
   -7.9703    6.4145  -10.8775 F   0  0  0  0  0  0  0  0  0  0  0  0
   -8.9090    3.6363   -6.8857 C   0  0  0  0  0  0  0  0  0  0  0  0
   -9.5824    2.3198   -6.9110 N   0  0  0  0  0  0  0  0  0  0  0  0
   -9.1881    1.6944   -8.1981 C   0  0  0  0  0  0  0  0  0  0  0  0
  -10.5947    2.4368   -6.8673 H   0  0  0  0  0  0  0  0  0  0  0  0
   -4.9144    6.0197  -19.8032 C   0  0  0  0  0  0  0  0  0  0  0  0
   -3.7905    7.7537  -20.9599 C   0  0  0  0  0  0  0  0  0  0  0  0
   -4.5897    7.4512  -19.7753 N   0  0  0  0  0  0  0  0  0  0  0  0
   -5.4484    8.0016  -19.7867 H   0  0  0  0  0  0  0  0  0  0  0  0
 29 30  1  0  0  0
 30 28  1  0  0  0
 28  1  1  0  0  0
  1  2  1  0  0  0
  1  3  1  0  0  0
  3  4  1  0  0  0
  4  5  2  0  0  0
  5  6  1  0  0  0
  6 14  1  0  0  0
 14 15  2  0  0  0
 14 16  1  0  0  0
 16 17  1  0  0  0
 17 18  2  0  0  0
 18 19  1  0  0  0
 19 20  2  0  0  0
 20 21  1  0  0  0
 21 22  2  0  0  0
 22 23  1  0  0  0
 20 24  1  0  0  0
 24 25  1  0  0  0
 25 26  1  0  0  0
  6  7  2  0  0  0
  7  8  1  0  0  0
  8  9  1  0  0  0
  8 10  2  0  0  0
 10 11  1  0  0  0
 11  1  1  0  0  0
 10  4  1  0  0  0
 22 17  1  0  0  0
 26 19  1  0  0  0
 30 31  1  0  0  0
  2 12  1  0  0  0
 25 27  1  0  0  0
 11 13  1  0  0  0
M  END
> <minimizedAffinity>
-6.71336

> <minimizedRMSD>
0.03629

$$$$
P24650


 37 41  0  0  0  0  0  0  0  0999 V2000
   -3.9021    7.0413  -15.9643 C   0  0  0  0  0  0  0  0  0  0  0  0
   -4.0964    5.5650  -16.3322 C   0  0  0  0  0  0  0  0  0  0  0  0
   -3.2840    5.2896  -17.6412 C   0  0  0  0  0  0  0  0  0  0  0  0
   -2.0657    5.1770  -17.7273 O   0  0  0  0  0  0  0  0  0  0  0  0
   -4.1998    5.2775  -18.8545 C   0  0  0  0  0  0  0  0  0  0  0  0
   -5.5333    5.0069  -18.2068 C   0  0  0  0  0  0  0  0  0  0  0  0
   -6.6822    4.5396  -18.8377 C   0  0  0  0  0  0  0  0  0  0  0  0
   -7.8177    4.3203  -18.0676 C   0  0  0  0  0  0  0  0  0  0  0  0
   -8.9329    3.8770  -18.6577 F   0  0  0  0  0  0  0  0  0  0  0  0
   -7.8320    4.6026  -16.7030 C   0  0  0  0  0  0  0  0  0  0  0  0
   -6.6718    5.0849  -16.0770 C   0  0  0  0  0  0  0  0  0  0  0  0
   -5.5025    5.2383  -16.8179 C   0  0  0  0  0  0  0  0  0  0  0  0
   -4.1971    6.6068  -19.6072 C   0  0  0  0  0  0  0  0  0  0  0  0
   -3.0901    7.6897  -19.4151 C   0  0  0  0  0  0  0  0  0  0  0  0
   -3.1718    7.9565  -20.8656 N   0  0  0  0  0  0  0  0  0  0  0  0
   -3.6344    6.5606  -21.0513 C   0  0  0  0  0  0  0  0  0  0  0  0
   -2.2771    8.1675  -21.3075 H   0  0  0  0  0  0  0  0  0  0  0  0
   -6.8198    5.7131  -14.7494 C   0  0  0  0  0  0  0  0  0  0  0  0
   -6.6143    6.8562  -14.6852 O   0  0  0  0  0  0  0  0  0  0  0  0
   -7.3269    4.7347  -13.6871 N   0  0  0  0  0  0  0  0  0  0  0  0
   -7.3447    3.7920  -13.9703 H   0  0  0  0  0  0  0  0  0  0  0  0
   -7.7820    4.9680  -12.3417 C   0  0  0  0  0  0  0  0  0  0  0  0
   -6.9153    5.9667  -11.5773 C   0  0  0  0  0  0  0  0  0  0  0  0
   -7.6331    6.4161  -10.3175 C   0  0  0  0  0  0  0  0  0  0  0  0
   -8.1209    5.2676   -9.4562 C   0  0  0  0  0  0  0  0  0  0  0  0
   -7.0551    4.7121   -8.5349 C   0  0  0  0  0  0  0  0  0  0  0  0
   -7.7331    3.5416   -7.9949 N   0  0  0  0  0  0  0  0  0  0  0  0
   -8.4146    2.9054   -9.1552 C   0  0  0  0  0  0  0  0  0  0  0  0
   -8.6387    4.0159  -10.1774 C   0  0  0  0  0  0  0  0  0  0  0  0
   -7.9608    3.7005  -11.5217 C   0  0  0  0  0  0  0  0  0  0  0  0
   -8.4153    3.8189   -7.2891 H   0  0  0  0  0  0  0  0  0  0  0  0
   -3.8217    4.7273  -15.2223 O   0  0  0  0  0  0  0  0  0  0  0  0
   -3.0813    5.3115  -14.1551 C   0  0  0  0  0  0  0  0  0  0  0  0
   -3.7060    4.8382  -12.8491 C   0  0  0  0  0  0  0  0  0  0  0  0
   -3.4754    3.3551  -12.6118 C   0  0  0  0  0  0  0  0  0  0  0  0
   -4.6806    2.7234  -12.1976 O   0  0  0  0  0  0  0  0  0  0  0  0
   -4.9878    3.1244  -11.3696 H   0  0  0  0  0  0  0  0  0  0  0  0
  2  1  1  0  0  0
  2 32  1  0  0  0
 32 33  1  0  0  0
 33 34  1  0  0  0
 34 35  1  0  0  0
 35 36  1  0  0  0
  2  3  1  0  0  0
  3  4  2  0  0  0
  3  5  1  0  0  0
  5 13  1  0  0  0
 13 14  1  0  0  0
 14 15  1  0  0  0
 15 16  1  0  0  0
  5  6  1  0  0  0
  6  7  2  0  0  0
  7  8  1  0  0  0
  8  9  1  0  0  0
  8 10  2  0  0  0
 10 11  1  0  0  0
 11 18  1  0  0  0
 18 19  2  0  0  0
 18 20  1  0  0  0
 22 20  1  0  0  0
 22 23  1  0  0  0
 23 24  1  0  0  0
 25 24  1  0  0  0
 25 26  1  0  0  0
 26 27  1  0  0  0
 27 28  1  0  0  0
 29 28  1  0  0  0
 29 30  1  0  0  0
 11 12  2  0  0  0
 12  2  1  0  0  0
 16 13  1  0  0  0
 12  6  1  0  0  0
 30 22  1  0  0  0
 29 25  1  0  0  0
 36 37  1  0  0  0
 15 17  1  0  0  0
 20 21  1  0  0  0
 27 31  1  0  0  0
M  END
> <minimizedAffinity>
-7.33066

> <minimizedRMSD>
1.34038

$$$$
P24665


 27 30  0  0  0  0  0  0  0  0999 V2000
   -8.1069    4.6658  -15.8016 C   0  0  0  0  0  0  0  0  0  0  0  0
   -8.9175    4.3074  -16.8814 C   0  0  0  0  0  0  0  0  0  0  0  0
   -8.3794    4.2116  -18.1700 C   0  0  0  0  0  0  0  0  0  0  0  0
   -7.0259    4.5043  -18.4193 C   0  0  0  0  0  0  0  0  0  0  0  0
   -6.1948    4.8617  -17.3396 C   0  0  0  0  0  0  0  0  0  0  0  0
   -4.8633    5.3169  -17.1306 C   0  0  0  0  0  0  0  0  0  0  0  0
   -4.5855    5.5440  -15.8425 N   0  0  0  0  0  0  0  0  0  0  0  0
   -5.7440    5.2857  -15.2267 N   0  0  0  0  0  0  0  0  0  0  0  0
   -6.7534    4.9054  -16.0701 C   0  0  0  0  0  0  0  0  0  0  0  0
   -5.8609    5.3623  -14.2522 H   0  0  0  0  0  0  0  0  0  0  0  0
   -3.8583    5.7335  -18.2416 C   0  0  0  0  0  0  0  0  0  0  0  0
   -4.2849    5.4732  -19.6725 C   0  0  0  0  0  0  0  0  0  0  0  0
   -3.4734    4.2348  -19.7072 N   0  0  0  0  0  0  0  0  0  0  0  0
   -2.7173    4.7400  -18.5381 C   0  0  0  0  0  0  0  0  0  0  0  0
   -2.9148    4.1207  -20.5529 H   0  0  0  0  0  0  0  0  0  0  0  0
   -9.4302    5.7949  -14.3634 O   0  0  0  0  0  0  0  0  0  0  0  0
   -8.5957    4.9801  -14.4347 C   0  0  0  0  0  0  0  0  0  0  0  0
   -7.8398    4.2226  -13.3232 N   0  0  0  0  0  0  0  0  0  0  0  0
   -7.1195    3.6326  -13.6430 H   0  0  0  0  0  0  0  0  0  0  0  0
   -8.0108    4.2376  -11.9395 C   0  0  0  0  0  0  0  0  0  0  0  0
   -7.7010    5.3935  -11.2102 C   0  0  0  0  0  0  0  0  0  0  0  0
   -7.8506    5.4211   -9.8235 C   0  0  0  0  0  0  0  0  0  0  0  0
   -8.3099    4.2888   -9.1659 C   0  0  0  0  0  0  0  0  0  0  0  0
   -8.4934    4.3410   -7.8390 F   0  0  0  0  0  0  0  0  0  0  0  0
   -8.6208    3.1398   -9.8840 C   0  0  0  0  0  0  0  0  0  0  0  0
   -9.1079    2.0675   -9.2460 F   0  0  0  0  0  0  0  0  0  0  0  0
   -8.4722    3.1058  -11.2715 C   0  0  0  0  0  0  0  0  0  0  0  0
 16 17  2  0  0  0
 17 18  1  0  0  0
 18 20  1  0  0  0
 20 21  2  0  0  0
 21 22  1  0  0  0
 22 23  2  0  0  0
 23 24  1  0  0  0
 23 25  1  0  0  0
 25 26  1  0  0  0
 25 27  2  0  0  0
 17  1  1  0  0  0
  1  2  2  0  0  0
  2  3  1  0  0  0
  3  4  2  0  0  0
  4  5  1  0  0  0
  5  6  1  0  0  0
  6 11  1  0  0  0
 11 12  1  0  0  0
 12 13  1  0  0  0
 13 14  1  0  0  0
  6  7  2  0  0  0
  7  8  1  0  0  0
  8  9  1  0  0  0
 27 20  1  0  0  0
  9  1  1  0  0  0
  9  5  2  0  0  0
 14 11  1  0  0  0
 18 19  1  0  0  0
 13 15  1  0  0  0
  8 10  1  0  0  0
M  END
> <minimizedAffinity>
-9.11166

> <minimizedRMSD>
1.06933

$$$$
P24742


 34 39  0  0  0  0  0  0  0  0999 V2000
   -7.7704    5.1141  -14.0781 C   0  0  0  0  0  0  0  0  0  0  0  0
   -8.7754    4.6157  -14.9233 C   0  0  0  0  0  0  0  0  0  0  0  0
   -8.4991    4.4719  -16.2931 C   0  0  0  0  0  0  0  0  0  0  0  0
   -9.5549    4.0473  -17.5822 S   0  0  0  0  0  0  0  0  0  0  0  0
   -8.2715    4.2018  -18.6899 C   0  0  0  0  0  0  0  0  0  0  0  0
   -7.1082    4.5461  -18.1946 N   0  0  0  0  0  0  0  0  0  0  0  0
   -7.2587    4.7369  -16.8552 C   0  0  0  0  0  0  0  0  0  0  0  0
   -6.2637    5.2488  -15.9816 C   0  0  0  0  0  0  0  0  0  0  0  0
   -4.9888    5.7498  -16.2516 C   0  0  0  0  0  0  0  0  0  0  0  0
   -4.4386    6.1828  -15.0970 N   0  0  0  0  0  0  0  0  0  0  0  0
   -5.3995    5.9996  -14.1658 N   0  0  0  0  0  0  0  0  0  0  0  0
   -6.5411    5.4246  -14.6522 C   0  0  0  0  0  0  0  0  0  0  0  0
   -5.2882    6.2567  -13.2220 H   0  0  0  0  0  0  0  0  0  0  0  0
   -4.2400    5.9685  -17.5348 C   0  0  0  0  0  0  0  0  0  0  0  0
   -3.8522    4.6955  -18.2771 C   0  0  0  0  0  0  0  0  0  0  0  0
   -3.0926    5.0046  -19.5706 C   0  0  0  0  0  0  0  0  0  0  0  0
   -2.9264    6.4343  -19.8450 N   0  0  0  0  0  0  0  0  0  0  0  0
   -4.2228    7.1031  -19.8187 C   0  0  0  0  0  0  0  0  0  0  0  0
   -4.9258    6.9795  -18.4647 C   0  0  0  0  0  0  0  0  0  0  0  0
   -2.5033    6.5544  -20.7653 H   0  0  0  0  0  0  0  0  0  0  0  0
   -8.2387    6.6128  -12.4398 O   0  0  0  0  0  0  0  0  0  0  0  0
   -8.0333    5.4864  -12.6693 C   0  0  0  0  0  0  0  0  0  0  0  0
   -8.0735    4.2528  -11.7425 N   0  0  0  0  0  0  0  0  0  0  0  0
   -7.9342    3.3909  -12.1975 H   0  0  0  0  0  0  0  0  0  0  0  0
   -8.2740    4.1605  -10.3707 C   0  0  0  0  0  0  0  0  0  0  0  0
   -7.9780    5.2356   -9.5158 C   0  0  0  0  0  0  0  0  0  0  0  0
   -8.2202    5.1436   -8.1414 C   0  0  0  0  0  0  0  0  0  0  0  0
   -8.7459    3.9636   -7.6516 C   0  0  0  0  0  0  0  0  0  0  0  0
   -9.0129    2.8913   -8.4976 C   0  0  0  0  0  0  0  0  0  0  0  0
   -8.7975    2.9737   -9.8604 C   0  0  0  0  0  0  0  0  0  0  0  0
   -9.4901    1.7370   -7.6841 C   0  0  0  0  0  0  0  0  0  0  0  0
   -9.8877    2.3270   -6.3806 N   0  0  0  0  0  0  0  0  0  0  0  0
   -9.1008    3.5748   -6.2552 C   0  0  0  0  0  0  0  0  0  0  0  0
   -9.6661    1.6875   -5.6174 H   0  0  0  0  0  0  0  0  0  0  0  0
 21 22  2  0  0  0
 22 23  1  0  0  0
 23 25  1  0  0  0
 25 26  2  0  0  0
 26 27  1  0  0  0
 27 28  2  0  0  0
 28 29  1  0  0  0
 29 30  2  0  0  0
 29 31  1  0  0  0
 31 32  1  0  0  0
 32 33  1  0  0  0
 22  1  1  0  0  0
  1  2  2  0  0  0
  2  3  1  0  0  0
  3  4  1  0  0  0
  4  5  1  0  0  0
  5  6  2  0  0  0
  6  7  1  0  0  0
  7  8  1  0  0  0
  8  9  1  0  0  0
  9 14  1  0  0  0
 14 15  1  0  0  0
 15 16  1  0  0  0
 16 17  1  0  0  0
 17 18  1  0  0  0
 18 19  1  0  0  0
  9 10  2  0  0  0
 10 11  1  0  0  0
 11 12  1  0  0  0
 30 25  1  0  0  0
 12  1  1  0  0  0
 33 28  1  0  0  0
  7  3  2  0  0  0
 12  8  2  0  0  0
 19 14  1  0  0  0
 23 24  1  0  0  0
 32 34  1  0  0  0
 17 20  1  0  0  0
 11 13  1  0  0  0
M  END
> <minimizedAffinity>
-8.26149

> <minimizedRMSD>
0.96305

$$$$
P24744


 27 31  0  0  0  0  0  0  0  0999 V2000
   -5.8212    5.1690  -12.7897 O   0  0  0  0  0  0  0  0  0  0  0  0
   -6.8589    4.7571  -13.1358 C   0  0  0  0  0  0  0  0  0  0  0  0
   -8.0607    4.2437  -12.3079 N   0  0  0  0  0  0  0  0  0  0  0  0
   -8.8009    3.8741  -12.8416 H   0  0  0  0  0  0  0  0  0  0  0  0
   -7.0899    4.6395  -14.5897 C   0  0  0  0  0  0  0  0  0  0  0  0
   -8.3613    4.3695  -15.1966 C   0  0  0  0  0  0  0  0  0  0  0  0
   -8.5514    4.3249  -16.6088 C   0  0  0  0  0  0  0  0  0  0  0  0
   -9.7706    4.1087  -17.1091 F   0  0  0  0  0  0  0  0  0  0  0  0
   -7.4797    4.5178  -17.4437 C   0  0  0  0  0  0  0  0  0  0  0  0
   -6.3225    4.7810  -16.7968 C   0  0  0  0  0  0  0  0  0  0  0  0
   -5.2415    5.0146  -17.5644 C   0  0  0  0  0  0  0  0  0  0  0  0
   -4.1749    5.2891  -16.8148 N   0  0  0  0  0  0  0  0  0  0  0  0
   -4.7057    5.1994  -15.5157 N   0  0  0  0  0  0  0  0  0  0  0  0
   -6.0454    4.8717  -15.4827 C   0  0  0  0  0  0  0  0  0  0  0  0
   -5.8005    4.8608  -18.8930 C   0  0  0  0  0  0  0  0  0  0  0  0
   -7.1012    4.5637  -18.8244 N   0  0  0  0  0  0  0  0  0  0  0  0
   -4.1705    5.3562  -14.7044 H   0  0  0  0  0  0  0  0  0  0  0  0
   -8.2661    4.2191  -10.9302 C   0  0  0  0  0  0  0  0  0  0  0  0
   -8.0463    5.3608  -10.1417 C   0  0  0  0  0  0  0  0  0  0  0  0
   -8.2456    5.3264   -8.7574 C   0  0  0  0  0  0  0  0  0  0  0  0
   -8.6429    4.1337   -8.1840 C   0  0  0  0  0  0  0  0  0  0  0  0
   -8.8609    3.0029   -8.9618 C   0  0  0  0  0  0  0  0  0  0  0  0
   -8.6919    3.0283  -10.3373 C   0  0  0  0  0  0  0  0  0  0  0  0
   -9.3082    1.8818   -8.0876 C   0  0  0  0  0  0  0  0  0  0  0  0
   -9.1111    2.3502   -6.6894 N   0  0  0  0  0  0  0  0  0  0  0  0
   -8.9400    3.8174   -6.7589 C   0  0  0  0  0  0  0  0  0  0  0  0
   -8.2801    1.9172   -6.2864 H   0  0  0  0  0  0  0  0  0  0  0  0
  1  2  2  0  0  0
  2  3  1  0  0  0
  3 18  1  0  0  0
 18 19  2  0  0  0
 19 20  1  0  0  0
 20 21  2  0  0  0
 21 22  1  0  0  0
 22 23  2  0  0  0
 22 24  1  0  0  0
 24 25  1  0  0  0
 25 26  1  0  0  0
  2  5  1  0  0  0
  5  6  2  0  0  0
  6  7  1  0  0  0
  7  8  1  0  0  0
  7  9  2  0  0  0
  9 10  1  0  0  0
 10 11  1  0  0  0
 11 12  2  0  0  0
 12 13  1  0  0  0
 13 14  1  0  0  0
 11 15  1  0  0  0
 15 16  2  0  0  0
 23 18  1  0  0  0
 14  5  1  0  0  0
 26 21  1  0  0  0
 16  9  1  0  0  0
 14 10  2  0  0  0
  3  4  1  0  0  0
 25 27  1  0  0  0
 13 17  1  0  0  0
M  END
> <minimizedAffinity>
-7.90933

> <minimizedRMSD>
0.60049

$$$$
P24756


 36 40  0  0  0  0  0  0  0  0999 V2000
   -7.9764    4.7958  -17.0685 C   0  0  0  0  0  0  0  0  0  0  0  0
   -7.7375    4.7972  -15.6668 C   0  0  0  0  0  0  0  0  0  0  0  0
   -6.4207    4.8154  -15.1112 C   0  0  0  0  0  0  0  0  0  0  0  0
   -5.3356    4.8110  -15.9635 C   0  0  0  0  0  0  0  0  0  0  0  0
   -5.6494    4.8001  -17.2722 C   0  0  0  0  0  0  0  0  0  0  0  0
   -4.6141    4.8665  -18.1195 C   0  0  0  0  0  0  0  0  0  0  0  0
   -5.1269    4.9164  -19.3860 C   0  0  0  0  0  0  0  0  0  0  0  0
   -6.5323    4.9089  -19.2190 N   0  0  0  0  0  0  0  0  0  0  0  0
   -6.8528    4.8207  -17.8776 C   0  0  0  0  0  0  0  0  0  0  0  0
   -3.4914    4.8952  -17.2700 N   0  0  0  0  0  0  0  0  0  0  0  0
   -3.9075    4.8688  -16.0020 N   0  0  0  0  0  0  0  0  0  0  0  0
   -7.1870    4.9593  -19.9525 H   0  0  0  0  0  0  0  0  0  0  0  0
   -6.2638    4.9979  -13.6540 C   0  0  0  0  0  0  0  0  0  0  0  0
   -5.3900    5.6682  -13.2654 O   0  0  0  0  0  0  0  0  0  0  0  0
   -7.4078    4.2929  -12.8830 N   0  0  0  0  0  0  0  0  0  0  0  0
   -7.9827    3.7155  -13.4357 H   0  0  0  0  0  0  0  0  0  0  0  0
   -7.7554    4.3430  -11.5346 C   0  0  0  0  0  0  0  0  0  0  0  0
   -7.5522    5.5021  -10.7680 C   0  0  0  0  0  0  0  0  0  0  0  0
   -7.9100    5.5388   -9.4146 C   0  0  0  0  0  0  0  0  0  0  0  0
   -8.4511    4.3990   -8.8494 C   0  0  0  0  0  0  0  0  0  0  0  0
   -8.6421    3.2478   -9.6056 C   0  0  0  0  0  0  0  0  0  0  0  0
   -8.3225    3.2066  -10.9528 C   0  0  0  0  0  0  0  0  0  0  0  0
   -9.1453    2.1591   -8.7177 C   0  0  0  0  0  0  0  0  0  0  0  0
   -9.5971    2.8421   -7.4778 N   0  0  0  0  0  0  0  0  0  0  0  0
   -8.8699    4.1306   -7.4423 C   0  0  0  0  0  0  0  0  0  0  0  0
   -9.3660    2.2807   -6.6582 H   0  0  0  0  0  0  0  0  0  0  0  0
   -9.9462    3.1627  -17.6413 C   0  0  0  0  0  0  0  0  0  0  0  0
   -9.5550    4.8605  -17.8013 S   0  0  0  0  0  0  0  0  0  0  0  0
   -4.5267    5.0139  -20.7456 C   0  0  0  0  0  0  0  0  0  0  0  0
   -4.8522    6.3679  -21.4064 C   0  0  0  0  0  0  0  0  0  0  0  0
   -4.7591    6.3263  -22.8832 N   0  0  0  0  0  0  0  0  0  0  0  0
   -3.3614    6.5131  -23.3016 C   0  0  0  0  0  0  0  0  0  0  0  0
   -5.6132    7.3439  -23.4688 C   0  0  0  0  0  0  0  0  0  0  0  0
   -6.1376    6.7688  -24.6852 N   0  0  0  0  0  0  0  0  0  0  0  0
   -5.3653    6.5074  -25.2981 H   0  0  0  0  0  0  0  0  0  0  0  0
   -6.7296    7.4524  -25.1568 H   0  0  0  0  0  0  0  0  0  0  0  0
 27 28  1  0  0  0
 28  1  1  0  0  0
  1  2  2  0  0  0
  2  3  1  0  0  0
  3 13  1  0  0  0
 13 14  2  0  0  0
 13 15  1  0  0  0
 15 17  1  0  0  0
 17 18  2  0  0  0
 18 19  1  0  0  0
 19 20  2  0  0  0
 20 21  1  0  0  0
 21 22  2  0  0  0
 21 23  1  0  0  0
 23 24  1  0  0  0
 24 25  1  0  0  0
  3  4  2  0  0  0
  4  5  1  0  0  0
  5  6  1  0  0  0
  6  7  2  0  0  0
  7 29  1  0  0  0
 29 30  1  0  0  0
 30 31  1  0  0  0
 31 32  1  0  0  0
 31 33  1  0  0  0
 33 34  1  0  0  0
  7  8  1  0  0  0
  8  9  1  0  0  0
  6 10  1  0  0  0
 10 11  2  0  0  0
  9  1  1  0  0  0
 22 17  1  0  0  0
 11  4  1  0  0  0
 25 20  1  0  0  0
  9  5  2  0  0  0
 15 16  1  0  0  0
 24 26  1  0  0  0
 34 35  1  0  0  0
 34 36  1  0  0  0
  8 12  1  0  0  0
M  END
> <minimizedAffinity>
-6.87337

> <minimizedRMSD>
0.64464

$$$$
P24777


 32 36  0  0  0  0  0  0  0  0999 V2000
   -2.7682    5.9392  -16.6902 C   0  0  0  0  0  0  0  0  0  0  0  0
   -4.2018    5.5950  -16.5107 C   0  0  0  0  0  0  0  0  0  0  0  0
   -4.8620    5.6798  -15.3501 N   0  0  0  0  0  0  0  0  0  0  0  0
   -6.2289    5.2957  -15.5701 C   0  0  0  0  0  0  0  0  0  0  0  0
   -7.4419    5.1798  -14.9244 C   0  0  0  0  0  0  0  0  0  0  0  0
   -8.5831    4.7570  -15.6704 C   0  0  0  0  0  0  0  0  0  0  0  0
   -8.5304    4.4713  -17.0663 C   0  0  0  0  0  0  0  0  0  0  0  0
   -9.9227    4.1147  -17.9842 Cl  0  0  0  0  0  0  0  0  0  0  0  0
   -7.2879    4.5940  -17.6704 C   0  0  0  0  0  0  0  0  0  0  0  0
   -6.2511    4.9902  -16.8961 C   0  0  0  0  0  0  0  0  0  0  0  0
   -5.0792    5.1564  -17.5693 C   0  0  0  0  0  0  0  0  0  0  0  0
   -5.3472    4.8489  -18.8744 C   0  0  0  0  0  0  0  0  0  0  0  0
   -4.6231    4.8644  -19.9899 O   0  0  0  0  0  0  0  0  0  0  0  0
   -6.6932    4.4300  -18.8996 N   0  0  0  0  0  0  0  0  0  0  0  0
   -7.3304    3.9329  -20.0534 N   0  0  0  0  0  0  0  0  0  0  0  0
   -3.7292    5.1443  -19.9643 H   0  0  0  0  0  0  0  0  0  0  0  0
   -6.6659    3.9130  -20.8270 H   0  0  0  0  0  0  0  0  0  0  0  0
   -8.1157    4.5373  -20.2952 H   0  0  0  0  0  0  0  0  0  0  0  0
   -7.6011    5.6273  -13.5255 C   0  0  0  0  0  0  0  0  0  0  0  0
   -7.5055    6.7669  -13.2897 O   0  0  0  0  0  0  0  0  0  0  0  0
   -7.9406    4.4358  -12.5975 N   0  0  0  0  0  0  0  0  0  0  0  0
   -8.0363    3.5701  -13.0564 H   0  0  0  0  0  0  0  0  0  0  0  0
   -8.1330    4.3892  -11.2165 C   0  0  0  0  0  0  0  0  0  0  0  0
   -7.8699    5.5044  -10.4029 C   0  0  0  0  0  0  0  0  0  0  0  0
   -8.0729    5.4481   -9.0185 C   0  0  0  0  0  0  0  0  0  0  0  0
   -8.5425    4.2675   -8.4741 C   0  0  0  0  0  0  0  0  0  0  0  0
   -8.7951    3.1596   -9.2765 C   0  0  0  0  0  0  0  0  0  0  0  0
   -8.6002    3.2018  -10.6476 C   0  0  0  0  0  0  0  0  0  0  0  0
   -9.2424    2.0253   -8.4149 C   0  0  0  0  0  0  0  0  0  0  0  0
   -9.5971    2.6448   -7.1105 N   0  0  0  0  0  0  0  0  0  0  0  0
   -8.8444    3.9175   -7.0553 C   0  0  0  0  0  0  0  0  0  0  0  0
   -9.3222    2.0350   -6.3405 H   0  0  0  0  0  0  0  0  0  0  0  0
  1  2  1  0  0  0
  2  3  2  0  0  0
  3  4  1  0  0  0
  4  5  2  0  0  0
  5 19  1  0  0  0
 19 20  2  0  0  0
 19 21  1  0  0  0
 21 23  1  0  0  0
 23 24  2  0  0  0
 24 25  1  0  0  0
 25 26  2  0  0  0
 26 27  1  0  0  0
 27 28  2  0  0  0
 27 29  1  0  0  0
 29 30  1  0  0  0
 30 31  1  0  0  0
  5  6  1  0  0  0
  6  7  2  0  0  0
  7  8  1  0  0  0
  7  9  1  0  0  0
  9 10  2  0  0  0
 10 11  1  0  0  0
 11 12  2  0  0  0
 12 13  1  0  0  0
 12 14  1  0  0  0
 14 15  1  0  0  0
 11  2  1  0  0  0
 10  4  1  0  0  0
 28 23  1  0  0  0
 14  9  1  0  0  0
 31 26  1  0  0  0
 21 22  1  0  0  0
 30 32  1  0  0  0
 13 16  1  0  0  0
 15 17  1  0  0  0
 15 18  1  0  0  0
M  END
> <minimizedAffinity>
-8.79743

> <minimizedRMSD>
0.28019

$$$$
P24785


 35 38  0  0  0  0  0  0  0  0999 V2000
   -4.9134    5.5271  -17.7210 C   0  0  0  0  0  0  0  0  0  0  0  0
   -4.2159    5.7880  -16.5462 C   0  0  0  0  0  0  0  0  0  0  0  0
   -5.0372    5.6097  -15.4879 N   0  0  0  0  0  0  0  0  0  0  0  0
   -6.2546    5.1470  -15.9161 C   0  0  0  0  0  0  0  0  0  0  0  0
   -7.3860    4.8689  -15.1371 C   0  0  0  0  0  0  0  0  0  0  0  0
   -8.5223    4.3968  -15.7739 C   0  0  0  0  0  0  0  0  0  0  0  0
   -8.5209    4.2783  -17.1590 C   0  0  0  0  0  0  0  0  0  0  0  0
  -10.0194    3.9349  -17.9184 Cl  0  0  0  0  0  0  0  0  0  0  0  0
   -7.3905    4.5827  -17.9446 C   0  0  0  0  0  0  0  0  0  0  0  0
   -6.2115    5.0381  -17.3108 C   0  0  0  0  0  0  0  0  0  0  0  0
   -4.7972    5.7858  -14.5495 H   0  0  0  0  0  0  0  0  0  0  0  0
   -4.2890    5.8108  -19.0555 C   0  0  0  0  0  0  0  0  0  0  0  0
   -3.8864    4.5468  -19.6601 N   0  0  0  0  0  0  0  0  0  0  0  0
   -3.0568    6.4944  -18.8398 O   0  0  0  0  0  0  0  0  0  0  0  0
   -3.4597    4.7254  -20.5692 H   0  0  0  0  0  0  0  0  0  0  0  0
   -4.7056    3.9511  -19.7801 H   0  0  0  0  0  0  0  0  0  0  0  0
   -2.6393    6.6857  -19.6942 H   0  0  0  0  0  0  0  0  0  0  0  0
   -4.2614    6.7101  -21.3368 N   0  0  0  0  0  0  0  0  0  0  0  0
   -5.0622    6.6562  -20.0855 C   0  0  0  0  0  0  0  0  0  0  0  0
   -4.7567    7.2665  -22.0336 H   0  0  0  0  0  0  0  0  0  0  0  0
   -4.1228    5.7644  -21.6927 H   0  0  0  0  0  0  0  0  0  0  0  0
   -7.3826    5.2880  -13.7159 C   0  0  0  0  0  0  0  0  0  0  0  0
   -6.8498    6.2959  -13.4645 O   0  0  0  0  0  0  0  0  0  0  0  0
   -8.0276    4.2404  -12.7882 N   0  0  0  0  0  0  0  0  0  0  0  0
   -8.3484    3.4286  -13.2436 H   0  0  0  0  0  0  0  0  0  0  0  0
   -8.2306    4.2546  -11.4118 C   0  0  0  0  0  0  0  0  0  0  0  0
   -7.9763    5.4237  -10.6717 C   0  0  0  0  0  0  0  0  0  0  0  0
   -8.1314    5.4446   -9.2845 C   0  0  0  0  0  0  0  0  0  0  0  0
   -8.5459    4.2839   -8.6624 C   0  0  0  0  0  0  0  0  0  0  0  0
   -8.8035    3.1259   -9.3908 C   0  0  0  0  0  0  0  0  0  0  0  0
   -8.6526    3.0919  -10.7680 C   0  0  0  0  0  0  0  0  0  0  0  0
   -9.2007    2.0390   -8.4451 C   0  0  0  0  0  0  0  0  0  0  0  0
   -9.5238    2.7340   -7.1665 N   0  0  0  0  0  0  0  0  0  0  0  0
   -8.7694    4.0082   -7.2148 C   0  0  0  0  0  0  0  0  0  0  0  0
   -9.2260    2.1722   -6.3689 H   0  0  0  0  0  0  0  0  0  0  0  0
 18 19  1  0  0  0
 19 12  1  0  0  0
 12 13  1  0  0  0
 12 14  1  0  0  0
 12  1  1  0  0  0
  1  2  2  0  0  0
  2  3  1  0  0  0
  3  4  1  0  0  0
  4  5  2  0  0  0
  5 22  1  0  0  0
 22 23  2  0  0  0
 22 24  1  0  0  0
 24 26  1  0  0  0
 26 27  2  0  0  0
 27 28  1  0  0  0
 28 29  2  0  0  0
 29 30  1  0  0  0
 30 31  2  0  0  0
 30 32  1  0  0  0
 32 33  1  0  0  0
 33 34  1  0  0  0
  5  6  1  0  0  0
  6  7  2  0  0  0
  7  8  1  0  0  0
  7  9  1  0  0  0
  9 10  2  0  0  0
 10  1  1  0  0  0
 10  4  1  0  0  0
 31 26  1  0  0  0
 34 29  1  0  0  0
 18 20  1  0  0  0
 18 21  1  0  0  0
 13 15  1  0  0  0
 13 16  1  0  0  0
 14 17  1  0  0  0
  3 11  1  0  0  0
 24 25  1  0  0  0
 33 35  1  0  0  0
M  END
> <minimizedAffinity>
-8.48673

> <minimizedRMSD>
0.31175

$$$$
P24796


 36 40  0  0  0  0  0  0  0  0999 V2000
   -5.3314    5.1922  -18.1873 C   0  0  0  0  0  0  0  0  0  0  0  0
   -4.5088    5.6450  -17.1724 C   0  0  0  0  0  0  0  0  0  0  0  0
   -5.2046    5.5868  -15.9957 N   0  0  0  0  0  0  0  0  0  0  0  0
   -6.4647    5.0803  -16.2151 C   0  0  0  0  0  0  0  0  0  0  0  0
   -7.5218    4.8631  -15.3178 C   0  0  0  0  0  0  0  0  0  0  0  0
   -8.7345    4.4070  -15.8363 C   0  0  0  0  0  0  0  0  0  0  0  0
   -8.8667    4.1557  -17.1962 C   0  0  0  0  0  0  0  0  0  0  0  0
  -10.4399    3.8823  -17.8162 Cl  0  0  0  0  0  0  0  0  0  0  0  0
   -7.7824    4.2846  -18.0656 C   0  0  0  0  0  0  0  0  0  0  0  0
   -7.9122    3.9230  -19.3834 O   0  0  0  0  0  0  0  0  0  0  0  0
   -6.5677    4.8060  -17.5804 C   0  0  0  0  0  0  0  0  0  0  0  0
   -4.8544    5.8668  -15.1192 H   0  0  0  0  0  0  0  0  0  0  0  0
   -8.7248    3.5770  -19.6965 H   0  0  0  0  0  0  0  0  0  0  0  0
   -7.4250    5.3097  -13.9080 C   0  0  0  0  0  0  0  0  0  0  0  0
   -6.9671    6.3662  -13.7062 O   0  0  0  0  0  0  0  0  0  0  0  0
   -8.0649    4.2906  -12.9337 N   0  0  0  0  0  0  0  0  0  0  0  0
   -8.4499    3.4938  -13.3651 H   0  0  0  0  0  0  0  0  0  0  0  0
   -8.1845    4.3177  -11.5466 C   0  0  0  0  0  0  0  0  0  0  0  0
   -7.9456    5.5000  -10.8273 C   0  0  0  0  0  0  0  0  0  0  0  0
   -8.0919    5.5355   -9.4374 C   0  0  0  0  0  0  0  0  0  0  0  0
   -8.4631    4.3725   -8.7903 C   0  0  0  0  0  0  0  0  0  0  0  0
   -8.6880    3.1959   -9.4969 C   0  0  0  0  0  0  0  0  0  0  0  0
   -8.5656    3.1518  -10.8768 C   0  0  0  0  0  0  0  0  0  0  0  0
   -9.0151    2.1038   -8.5312 C   0  0  0  0  0  0  0  0  0  0  0  0
   -9.3226    2.7949   -7.2474 N   0  0  0  0  0  0  0  0  0  0  0  0
   -8.6535    4.1125   -7.3350 C   0  0  0  0  0  0  0  0  0  0  0  0
   -8.9563    2.2612   -6.4590 H   0  0  0  0  0  0  0  0  0  0  0  0
   -5.0032    5.1211  -19.6392 C   0  0  0  0  0  0  0  0  0  0  0  0
   -5.6470    7.3853  -20.2597 O   0  0  0  0  0  0  0  0  0  0  0  0
   -4.8026    6.4899  -20.2617 C   0  0  0  0  0  0  0  0  0  0  0  0
   -3.5171    6.7219  -20.9596 C   0  0  0  0  0  0  0  0  0  0  0  0
   -2.3347    6.1314  -20.5169 C   0  0  0  0  0  0  0  0  0  0  0  0
   -1.1859    6.3810  -21.2463 C   0  0  0  0  0  0  0  0  0  0  0  0
   -1.1539    7.1454  -22.3597 N   0  0  0  0  0  0  0  0  0  0  0  0
   -2.3143    7.7172  -22.7490 C   0  0  0  0  0  0  0  0  0  0  0  0
   -3.5118    7.5460  -22.0832 C   0  0  0  0  0  0  0  0  0  0  0  0
 29 30  2  0  0  0
 30 28  1  0  0  0
 28  1  1  0  0  0
  1  2  2  0  0  0
  2  3  1  0  0  0
  3  4  1  0  0  0
  4  5  2  0  0  0
  5 14  1  0  0  0
 14 15  2  0  0  0
 14 16  1  0  0  0
 16 18  1  0  0  0
 18 19  2  0  0  0
 19 20  1  0  0  0
 20 21  2  0  0  0
 21 22  1  0  0  0
 22 23  2  0  0  0
 22 24  1  0  0  0
 24 25  1  0  0  0
 25 26  1  0  0  0
  5  6  1  0  0  0
  6  7  2  0  0  0
  7  8  1  0  0  0
  7  9  1  0  0  0
  9 10  1  0  0  0
  9 11  2  0  0  0
 30 31  1  0  0  0
 31 32  2  0  0  0
 32 33  1  0  0  0
 33 34  2  0  0  0
 34 35  1  0  0  0
 35 36  2  0  0  0
 11  1  1  0  0  0
 36 31  1  0  0  0
 11  4  1  0  0  0
 23 18  1  0  0  0
 26 21  1  0  0  0
  3 12  1  0  0  0
 16 17  1  0  0  0
 25 27  1  0  0  0
 10 13  1  0  0  0
M  END
> <minimizedAffinity>
-9.07717

> <minimizedRMSD>
0.30717

$$$$
P24798


 33 35  0  0  0  0  0  0  0  0999 V2000
   -7.4091    4.9616  -15.9178 C   0  0  0  0  0  0  0  0  0  0  0  0
   -4.7468    5.4600  -18.4901 C   0  0  0  0  0  0  0  0  0  0  0  0
   -4.0823    5.5792  -17.2829 C   0  0  0  0  0  0  0  0  0  0  0  0
   -4.9268    5.2263  -16.2636 N   0  0  0  0  0  0  0  0  0  0  0  0
   -6.1730    4.9361  -16.7688 C   0  0  0  0  0  0  0  0  0  0  0  0
   -6.0481    4.9727  -18.1538 C   0  0  0  0  0  0  0  0  0  0  0  0
   -4.6789    5.1864  -15.3117 H   0  0  0  0  0  0  0  0  0  0  0  0
   -4.1833    5.8476  -19.8340 C   0  0  0  0  0  0  0  0  0  0  0  0
   -3.5396    4.7082  -20.4225 N   0  0  0  0  0  0  0  0  0  0  0  0
   -4.2217    3.9607  -20.5504 H   0  0  0  0  0  0  0  0  0  0  0  0
   -2.7922    4.3850  -19.8082 H   0  0  0  0  0  0  0  0  0  0  0  0
   -5.2350    6.2241  -20.7438 N   0  0  0  0  0  0  0  0  0  0  0  0
   -5.1234    5.7006  -21.6121 H   0  0  0  0  0  0  0  0  0  0  0  0
   -5.3409    7.8561  -22.5491 C   0  0  0  0  0  0  0  0  0  0  0  0
   -5.2054    7.6541  -21.0464 C   0  0  0  0  0  0  0  0  0  0  0  0
   -7.1424    5.4168  -14.4448 C   0  0  0  0  0  0  0  0  0  0  0  0
   -6.6663    6.4688  -14.2386 O   0  0  0  0  0  0  0  0  0  0  0  0
   -7.6897    4.3425  -13.4524 N   0  0  0  0  0  0  0  0  0  0  0  0
   -7.9726    3.4986  -13.8731 H   0  0  0  0  0  0  0  0  0  0  0  0
   -7.8431    4.3846  -12.0647 C   0  0  0  0  0  0  0  0  0  0  0  0
   -7.6016    5.5795  -11.3630 C   0  0  0  0  0  0  0  0  0  0  0  0
   -7.8123    5.6655   -9.9834 C   0  0  0  0  0  0  0  0  0  0  0  0
   -8.2758    4.5448   -9.3253 C   0  0  0  0  0  0  0  0  0  0  0  0
   -8.5224    3.3593  -10.0109 C   0  0  0  0  0  0  0  0  0  0  0  0
   -8.3061    3.2563  -11.3797 C   0  0  0  0  0  0  0  0  0  0  0  0
   -9.0057    2.3339   -9.0357 C   0  0  0  0  0  0  0  0  0  0  0  0
   -9.3328    3.0893   -7.7940 N   0  0  0  0  0  0  0  0  0  0  0  0
   -8.5621    4.3466   -7.8760 C   0  0  0  0  0  0  0  0  0  0  0  0
   -9.0561    2.5557   -6.9699 H   0  0  0  0  0  0  0  0  0  0  0  0
   -8.6543    4.0888  -16.0779 C   0  0  0  0  0  0  0  0  0  0  0  0
   -9.5173    3.9219  -17.3328 C   0  0  0  0  0  0  0  0  0  0  0  0
   -9.6387    2.4895  -17.6506 C   0  0  0  0  0  0  0  0  0  0  0  0
   -9.1001    4.6220  -18.8553 Cl  0  0  0  0  0  0  0  0  0  0  0  0
 14 15  1  0  0  0
 15 12  1  0  0  0
 12  8  1  0  0  0
  8  9  1  0  0  0
  8  2  1  0  0  0
  2  3  2  0  0  0
  3  4  1  0  0  0
  4  5  1  0  0  0
  5  1  1  0  0  0
  1 30  1  0  0  0
 30 31  1  0  0  0
 31 32  1  0  0  0
 31 33  1  0  0  0
  1 16  1  0  0  0
 16 17  2  0  0  0
 16 18  1  0  0  0
 18 20  1  0  0  0
 20 21  2  0  0  0
 21 22  1  0  0  0
 22 23  2  0  0  0
 23 24  1  0  0  0
 24 25  2  0  0  0
 24 26  1  0  0  0
 26 27  1  0  0  0
 27 28  1  0  0  0
  5  6  2  0  0  0
  6  2  1  0  0  0
 25 20  1  0  0  0
 28 23  1  0  0  0
 12 13  1  0  0  0
  9 10  1  0  0  0
  9 11  1  0  0  0
  4  7  1  0  0  0
 18 19  1  0  0  0
 27 29  1  0  0  0
M  END
> <minimizedAffinity>
-6.16738

> <minimizedRMSD>
0.53921

$$$$
P24803


 42 45  0  0  0  0  0  0  0  0999 V2000
   -7.5519    5.2008  -15.2446 C   0  0  0  0  0  0  0  0  0  0  0  0
   -8.6013    4.5445  -15.8715 C   0  0  0  0  0  0  0  0  0  0  0  0
   -8.5250    4.3109  -17.2368 C   0  0  0  0  0  0  0  0  0  0  0  0
   -9.8838    3.6754  -18.0266 Cl  0  0  0  0  0  0  0  0  0  0  0  0
   -7.4092    4.6627  -18.0054 C   0  0  0  0  0  0  0  0  0  0  0  0
   -6.3354    5.3212  -17.3813 C   0  0  0  0  0  0  0  0  0  0  0  0
   -5.0953    5.8934  -17.8362 C   0  0  0  0  0  0  0  0  0  0  0  0
   -4.5037    6.4638  -16.7185 C   0  0  0  0  0  0  0  0  0  0  0  0
   -5.3192    6.2796  -15.6430 N   0  0  0  0  0  0  0  0  0  0  0  0
   -6.4399    5.5773  -16.0141 C   0  0  0  0  0  0  0  0  0  0  0  0
   -5.1324    6.6028  -14.7321 H   0  0  0  0  0  0  0  0  0  0  0  0
   -4.5367    5.9252  -19.2294 C   0  0  0  0  0  0  0  0  0  0  0  0
   -4.2768    4.6455  -19.7021 O   0  0  0  0  0  0  0  0  0  0  0  0
   -3.2811    6.5717  -19.2656 O   0  0  0  0  0  0  0  0  0  0  0  0
   -4.9720    4.0210  -19.7699 H   0  0  0  0  0  0  0  0  0  0  0  0
   -3.2050    7.4631  -18.9872 H   0  0  0  0  0  0  0  0  0  0  0  0
   -5.4894    6.5960  -20.0773 N   0  0  0  0  0  0  0  0  0  0  0  0
   -6.3359    6.7648  -19.5339 H   0  0  0  0  0  0  0  0  0  0  0  0
   -5.0284    7.8777  -20.6151 C   0  0  0  0  0  0  0  0  0  0  0  0
   -5.4743    8.0047  -22.0800 C   0  0  0  0  0  0  0  0  0  0  0  0
   -5.6210    9.0625  -19.8159 C   0  0  0  0  0  0  0  0  0  0  0  0
   -4.7805    9.3923  -18.7096 O   0  0  0  0  0  0  0  0  0  0  0  0
   -4.7096    8.6269  -18.1179 H   0  0  0  0  0  0  0  0  0  0  0  0
   -7.9167    4.6033  -12.8228 N   0  0  0  0  0  0  0  0  0  0  0  0
   -7.6812    5.7157  -13.8713 C   0  0  0  0  0  0  0  0  0  0  0  0
   -7.5874    6.8734  -13.7397 O   0  0  0  0  0  0  0  0  0  0  0  0
   -8.0352    3.7011  -13.1986 H   0  0  0  0  0  0  0  0  0  0  0  0
   -7.8697    2.6674   -8.1413 C   0  0  0  0  0  0  0  0  0  0  0  0
   -8.2422    3.4143   -6.9261 N   0  0  0  0  0  0  0  0  0  0  0  0
   -7.9628    4.8254   -7.2074 C   0  0  0  0  0  0  0  0  0  0  0  0
   -8.0024    4.9358   -8.6862 C   0  0  0  0  0  0  0  0  0  0  0  0
   -8.0538    6.0719   -9.4507 C   0  0  0  0  0  0  0  0  0  0  0  0
   -8.1084    7.2853   -8.8403 O   0  0  0  0  0  0  0  0  0  0  0  0
   -8.0417    5.9417  -10.8294 C   0  0  0  0  0  0  0  0  0  0  0  0
   -7.9885    4.6704  -11.4321 C   0  0  0  0  0  0  0  0  0  0  0  0
   -7.9678    3.5100  -10.6472 C   0  0  0  0  0  0  0  0  0  0  0  0
   -7.9633    3.6645   -9.2625 C   0  0  0  0  0  0  0  0  0  0  0  0
   -7.6868    3.0960   -6.1320 H   0  0  0  0  0  0  0  0  0  0  0  0
   -8.1152    7.3394   -7.9049 H   0  0  0  0  0  0  0  0  0  0  0  0
   -9.6669    1.4875   -7.0913 C   0  0  0  0  0  0  0  0  0  0  0  0
   -8.8175    1.5843   -8.2737 N   0  0  0  0  0  0  0  0  0  0  0  0
   -9.4026    1.7509   -9.0924 H   0  0  0  0  0  0  0  0  0  0  0  0
 40 41  1  0  0  0
 28 41  1  0  0  0
 28 29  1  0  0  0
 29 30  1  0  0  0
 30 31  1  0  0  0
 31 32  2  0  0  0
 32 33  1  0  0  0
 32 34  1  0  0  0
 34 35  2  0  0  0
 35 24  1  0  0  0
 24 25  1  0  0  0
 25 26  2  0  0  0
 25  1  1  0  0  0
  1  2  2  0  0  0
  2  3  1  0  0  0
  3  4  1  0  0  0
  3  5  2  0  0  0
  5  6  1  0  0  0
  6  7  1  0  0  0
  7 12  1  0  0  0
 12 13  1  0  0  0
 12 14  1  0  0  0
 12 17  1  0  0  0
 17 19  1  0  0  0
 19 20  1  0  0  0
 19 21  1  0  0  0
 21 22  1  0  0  0
  7  8  2  0  0  0
  8  9  1  0  0  0
  9 10  1  0  0  0
 35 36  1  0  0  0
 36 37  2  0  0  0
 37 28  1  0  0  0
 37 31  1  0  0  0
 10  1  1  0  0  0
 10  6  2  0  0  0
 41 42  1  0  0  0
 29 38  1  0  0  0
 33 39  1  0  0  0
 24 27  1  0  0  0
 13 15  1  0  0  0
 14 16  1  0  0  0
 17 18  1  0  0  0
 22 23  1  0  0  0
  9 11  1  0  0  0
M  END
> <minimizedAffinity>
-7.89948

> <minimizedRMSD>
0.97655

$$$$
P24846


 29 32  0  0  0  0  0  0  0  0999 V2000
   -5.0833    5.3303  -18.1151 C   0  0  0  0  0  0  0  0  0  0  0  0
   -4.2540    5.6996  -17.0694 C   0  0  0  0  0  0  0  0  0  0  0  0
   -4.9622    5.6209  -15.9043 N   0  0  0  0  0  0  0  0  0  0  0  0
   -6.2319    5.1547  -16.1548 C   0  0  0  0  0  0  0  0  0  0  0  0
   -7.2823    4.8987  -15.2584 C   0  0  0  0  0  0  0  0  0  0  0  0
   -8.4947    4.4597  -15.7815 C   0  0  0  0  0  0  0  0  0  0  0  0
   -8.6352    4.3065  -17.1538 C   0  0  0  0  0  0  0  0  0  0  0  0
  -10.1979    3.9948  -17.7602 Cl  0  0  0  0  0  0  0  0  0  0  0  0
   -7.5803    4.5307  -18.0467 C   0  0  0  0  0  0  0  0  0  0  0  0
   -6.3446    4.9737  -17.5379 C   0  0  0  0  0  0  0  0  0  0  0  0
   -4.6149    5.8624  -15.0153 H   0  0  0  0  0  0  0  0  0  0  0  0
   -7.1627    5.2731  -13.8291 C   0  0  0  0  0  0  0  0  0  0  0  0
   -6.5326    6.2231  -13.5717 O   0  0  0  0  0  0  0  0  0  0  0  0
   -8.0096    4.3544  -12.9175 N   0  0  0  0  0  0  0  0  0  0  0  0
   -8.5132    3.6541  -13.3919 H   0  0  0  0  0  0  0  0  0  0  0  0
   -8.1756    4.3567  -11.5353 C   0  0  0  0  0  0  0  0  0  0  0  0
   -7.9988    5.5299  -10.7840 C   0  0  0  0  0  0  0  0  0  0  0  0
   -8.1746    5.5259   -9.3961 C   0  0  0  0  0  0  0  0  0  0  0  0
   -8.5148    4.3342   -8.7849 C   0  0  0  0  0  0  0  0  0  0  0  0
   -8.6846    3.1703   -9.5262 C   0  0  0  0  0  0  0  0  0  0  0  0
   -8.5305    3.1636  -10.9023 C   0  0  0  0  0  0  0  0  0  0  0  0
   -8.9887    2.0405   -8.5997 C   0  0  0  0  0  0  0  0  0  0  0  0
   -9.3364    2.6777   -7.3045 N   0  0  0  0  0  0  0  0  0  0  0  0
   -8.7149    4.0222   -7.3409 C   0  0  0  0  0  0  0  0  0  0  0  0
   -8.9611    2.1332   -6.5279 H   0  0  0  0  0  0  0  0  0  0  0  0
   -4.6499    5.3242  -19.5077 C   0  0  0  0  0  0  0  0  0  0  0  0
   -3.8549    4.4882  -19.9303 O   0  0  0  0  0  0  0  0  0  0  0  0
   -5.1484    7.4133  -20.9922 N   0  0  0  0  0  0  0  0  0  0  0  0
   -4.9886    6.4558  -20.3517 C   0  0  0  0  0  0  0  0  0  0  0  0
 28 29  3  0  0  0
 29 26  1  0  0  0
 26 27  2  0  0  0
 26  1  1  0  0  0
  1  2  2  0  0  0
  2  3  1  0  0  0
  3  4  1  0  0  0
  4  5  2  0  0  0
  5 12  1  0  0  0
 12 13  2  0  0  0
 12 14  1  0  0  0
 14 16  1  0  0  0
 16 17  2  0  0  0
 17 18  1  0  0  0
 18 19  2  0  0  0
 19 20  1  0  0  0
 20 21  2  0  0  0
 20 22  1  0  0  0
 22 23  1  0  0  0
 23 24  1  0  0  0
  5  6  1  0  0  0
  6  7  2  0  0  0
  7  8  1  0  0  0
  7  9  1  0  0  0
  9 10  2  0  0  0
 10  1  1  0  0  0
 10  4  1  0  0  0
 21 16  1  0  0  0
 24 19  1  0  0  0
  3 11  1  0  0  0
 14 15  1  0  0  0
 23 25  1  0  0  0
M  END
> <minimizedAffinity>
-8.26718

> <minimizedRMSD>
0.32042

$$$$
P24854


 31 34  0  0  0  0  0  0  0  0999 V2000
   -5.3315    5.5867  -18.3071 C   0  0  0  0  0  0  0  0  0  0  0  0
   -5.5694    7.0874  -18.5705 C   0  0  0  0  0  0  0  0  0  0  0  0
   -4.2579    5.4152  -17.1980 C   0  0  0  0  0  0  0  0  0  0  0  0
   -4.9558    5.5809  -15.9056 N   0  0  0  0  0  0  0  0  0  0  0  0
   -6.2605    5.0826  -16.1584 C   0  0  0  0  0  0  0  0  0  0  0  0
   -7.2926    4.8311  -15.2470 C   0  0  0  0  0  0  0  0  0  0  0  0
   -8.5347    4.4016  -15.7473 C   0  0  0  0  0  0  0  0  0  0  0  0
   -8.7315    4.2725  -17.1272 C   0  0  0  0  0  0  0  0  0  0  0  0
  -10.2819    3.9030  -17.7551 Cl  0  0  0  0  0  0  0  0  0  0  0  0
   -7.7275    4.5880  -18.0333 C   0  0  0  0  0  0  0  0  0  0  0  0
   -6.5086    5.0165  -17.5398 C   0  0  0  0  0  0  0  0  0  0  0  0
   -4.5990    5.9505  -15.0658 H   0  0  0  0  0  0  0  0  0  0  0  0
   -7.2116    5.2461  -13.8099 C   0  0  0  0  0  0  0  0  0  0  0  0
   -6.6727    6.2545  -13.5659 O   0  0  0  0  0  0  0  0  0  0  0  0
   -7.9775    4.2650  -12.8820 N   0  0  0  0  0  0  0  0  0  0  0  0
   -8.4125    3.5135  -13.3460 H   0  0  0  0  0  0  0  0  0  0  0  0
   -8.1500    4.2751  -11.4941 C   0  0  0  0  0  0  0  0  0  0  0  0
   -7.9435    5.4501  -10.7538 C   0  0  0  0  0  0  0  0  0  0  0  0
   -8.1587    5.4706   -9.3706 C   0  0  0  0  0  0  0  0  0  0  0  0
   -7.8741    7.0687   -8.4043 Br  0  0  0  0  0  0  0  0  0  0  0  0
   -8.5775    4.3151   -8.7397 C   0  0  0  0  0  0  0  0  0  0  0  0
   -8.7707    3.1464   -9.4699 C   0  0  0  0  0  0  0  0  0  0  0  0
   -8.5704    3.1104  -10.8449 C   0  0  0  0  0  0  0  0  0  0  0  0
   -9.1590    2.0481   -8.5326 C   0  0  0  0  0  0  0  0  0  0  0  0
   -9.5375    2.7256   -7.2657 N   0  0  0  0  0  0  0  0  0  0  0  0
   -8.8595    4.0401   -7.3007 C   0  0  0  0  0  0  0  0  0  0  0  0
   -9.2202    2.1824   -6.4628 H   0  0  0  0  0  0  0  0  0  0  0  0
   -5.0211    4.8283  -19.6228 C   0  0  0  0  0  0  0  0  0  0  0  0
   -2.7414    4.2985  -20.2860 C   0  0  0  0  0  0  0  0  0  0  0  0
   -3.8194    5.2666  -20.3492 N   0  0  0  0  0  0  0  0  0  0  0  0
   -4.0663    5.4163  -21.3275 H   0  0  0  0  0  0  0  0  0  0  0  0
 29 30  1  0  0  0
 30 28  1  0  0  0
 28  1  1  0  0  0
  1  2  1  0  0  0
  1  3  1  0  0  0
  3  4  1  0  0  0
  4  5  1  0  0  0
  5  6  2  0  0  0
  6 13  1  0  0  0
 13 14  2  0  0  0
 13 15  1  0  0  0
 15 17  1  0  0  0
 17 18  2  0  0  0
 18 19  1  0  0  0
 19 20  1  0  0  0
 19 21  2  0  0  0
 21 22  1  0  0  0
 22 23  2  0  0  0
 22 24  1  0  0  0
 24 25  1  0  0  0
 25 26  1  0  0  0
  6  7  1  0  0  0
  7  8  2  0  0  0
  8  9  1  0  0  0
  8 10  1  0  0  0
 10 11  2  0  0  0
 11  1  1  0  0  0
 11  5  1  0  0  0
 23 17  1  0  0  0
 26 21  1  0  0  0
 30 31  1  0  0  0
  4 12  1  0  0  0
 15 16  1  0  0  0
 25 27  1  0  0  0
M  END
> <minimizedAffinity>
-8.68737

> <minimizedRMSD>
0.43040

$$$$
P24858


 34 38  0  0  0  0  0  0  0  0999 V2000
   -5.2410    5.1507  -18.2139 C   0  0  0  0  0  0  0  0  0  0  0  0
   -4.3764    5.4273  -17.1697 C   0  0  0  0  0  0  0  0  0  0  0  0
   -5.0775    5.3793  -15.9973 N   0  0  0  0  0  0  0  0  0  0  0  0
   -6.3741    4.9871  -16.2334 C   0  0  0  0  0  0  0  0  0  0  0  0
   -7.4326    4.7774  -15.3323 C   0  0  0  0  0  0  0  0  0  0  0  0
   -8.6720    4.4144  -15.8572 C   0  0  0  0  0  0  0  0  0  0  0  0
   -8.8306    4.2936  -17.2335 C   0  0  0  0  0  0  0  0  0  0  0  0
  -10.4026    4.0844  -17.8725 Cl  0  0  0  0  0  0  0  0  0  0  0  0
   -7.7688    4.4763  -18.1216 C   0  0  0  0  0  0  0  0  0  0  0  0
   -6.5084    4.8391  -17.6128 C   0  0  0  0  0  0  0  0  0  0  0  0
   -4.7073    5.5947  -15.1109 H   0  0  0  0  0  0  0  0  0  0  0  0
   -7.2624    5.1400  -13.9047 C   0  0  0  0  0  0  0  0  0  0  0  0
   -6.6076    6.0826  -13.6786 O   0  0  0  0  0  0  0  0  0  0  0  0
   -8.0206    4.1903  -12.9438 N   0  0  0  0  0  0  0  0  0  0  0  0
   -8.4428    3.4146  -13.3791 H   0  0  0  0  0  0  0  0  0  0  0  0
   -8.2027    4.2554  -11.5615 C   0  0  0  0  0  0  0  0  0  0  0  0
   -7.9363    5.4536  -10.8773 C   0  0  0  0  0  0  0  0  0  0  0  0
   -8.0764    5.5387   -9.4916 C   0  0  0  0  0  0  0  0  0  0  0  0
   -8.4606    4.4042   -8.8057 C   0  0  0  0  0  0  0  0  0  0  0  0
   -8.7405    3.2165   -9.4721 C   0  0  0  0  0  0  0  0  0  0  0  0
   -8.6313    3.1259  -10.8554 C   0  0  0  0  0  0  0  0  0  0  0  0
   -9.1623    2.1891   -8.4697 C   0  0  0  0  0  0  0  0  0  0  0  0
   -8.8840    2.7798   -7.1301 N   0  0  0  0  0  0  0  0  0  0  0  0
   -8.6616    4.2228   -7.3425 C   0  0  0  0  0  0  0  0  0  0  0  0
   -8.0524    2.3519   -6.7229 H   0  0  0  0  0  0  0  0  0  0  0  0
   -4.9490    5.1354  -19.6882 C   0  0  0  0  0  0  0  0  0  0  0  0
   -5.5770    7.4700  -19.7030 C   0  0  0  0  0  0  0  0  0  0  0  0
   -4.7033    6.4563  -20.2814 N   0  0  0  0  0  0  0  0  0  0  0  0
   -3.3059    6.9033  -20.3897 C   0  0  0  0  0  0  0  0  0  0  0  0
   -2.2418    5.8102  -20.2145 C   0  0  0  0  0  0  0  0  0  0  0  0
   -0.8346    6.4156  -20.2981 C   0  0  0  0  0  0  0  0  0  0  0  0
   -0.7927    7.6599  -20.9996 O   0  0  0  0  0  0  0  0  0  0  0  0
   -1.6113    7.6309  -22.1602 C   0  0  0  0  0  0  0  0  0  0  0  0
   -3.0806    7.5847  -21.7604 C   0  0  0  0  0  0  0  0  0  0  0  0
 27 28  1  0  0  0
 28 26  1  0  0  0
 26  1  1  0  0  0
  1  2  2  0  0  0
  2  3  1  0  0  0
  3  4  1  0  0  0
  4  5  2  0  0  0
  5 12  1  0  0  0
 12 13  2  0  0  0
 12 14  1  0  0  0
 14 16  1  0  0  0
 16 17  2  0  0  0
 17 18  1  0  0  0
 18 19  2  0  0  0
 19 20  1  0  0  0
 20 21  2  0  0  0
 20 22  1  0  0  0
 22 23  1  0  0  0
 23 24  1  0  0  0
  5  6  1  0  0  0
  6  7  2  0  0  0
  7  8  1  0  0  0
  7  9  1  0  0  0
  9 10  2  0  0  0
 28 29  1  0  0  0
 29 30  1  0  0  0
 30 31  1  0  0  0
 31 32  1  0  0  0
 32 33  1  0  0  0
 33 34  1  0  0  0
 10  1  1  0  0  0
 34 29  1  0  0  0
 10  4  1  0  0  0
 21 16  1  0  0  0
 24 19  1  0  0  0
  3 11  1  0  0  0
 14 15  1  0  0  0
 23 25  1  0  0  0
M  END
> <minimizedAffinity>
-8.71545

> <minimizedRMSD>
0.43288

$$$$
P24866


 34 37  0  0  0  0  0  0  0  0999 V2000
   -4.8683    5.1019  -17.7650 C   0  0  0  0  0  0  0  0  0  0  0  0
   -4.0912    5.2786  -16.6323 C   0  0  0  0  0  0  0  0  0  0  0  0
   -4.9041    5.2246  -15.5386 N   0  0  0  0  0  0  0  0  0  0  0  0
   -6.1943    4.9447  -15.9219 C   0  0  0  0  0  0  0  0  0  0  0  0
   -7.3570    4.8256  -15.1470 C   0  0  0  0  0  0  0  0  0  0  0  0
   -8.5569    4.5812  -15.8140 C   0  0  0  0  0  0  0  0  0  0  0  0
   -8.5756    4.4911  -17.2015 C   0  0  0  0  0  0  0  0  0  0  0  0
  -10.0731    4.4482  -18.0251 Cl  0  0  0  0  0  0  0  0  0  0  0  0
   -7.4109    4.5772  -17.9600 C   0  0  0  0  0  0  0  0  0  0  0  0
   -6.1950    4.8344  -17.3089 C   0  0  0  0  0  0  0  0  0  0  0  0
   -4.6097    5.3656  -14.6098 H   0  0  0  0  0  0  0  0  0  0  0  0
   -7.3020    5.1664  -13.7050 C   0  0  0  0  0  0  0  0  0  0  0  0
   -6.6320    6.0747  -13.4032 O   0  0  0  0  0  0  0  0  0  0  0  0
   -8.1861    4.2424  -12.8381 N   0  0  0  0  0  0  0  0  0  0  0  0
   -8.7194    3.5881  -13.3449 H   0  0  0  0  0  0  0  0  0  0  0  0
   -8.3514    4.1844  -11.4570 C   0  0  0  0  0  0  0  0  0  0  0  0
   -8.0521    5.3140  -10.6718 C   0  0  0  0  0  0  0  0  0  0  0  0
   -8.2128    5.2767   -9.2904 C   0  0  0  0  0  0  0  0  0  0  0  0
   -7.9340    6.3625   -8.5586 F   0  0  0  0  0  0  0  0  0  0  0  0
   -8.6620    4.1117   -8.7192 C   0  0  0  0  0  0  0  0  0  0  0  0
   -8.9584    2.9826   -9.4823 C   0  0  0  0  0  0  0  0  0  0  0  0
   -8.8129    3.0054  -10.8620 C   0  0  0  0  0  0  0  0  0  0  0  0
   -9.3910    1.8732   -8.5827 C   0  0  0  0  0  0  0  0  0  0  0  0
   -9.4629    2.5238   -7.2909 N   0  0  0  0  0  0  0  0  0  0  0  0
   -8.9155    3.7913   -7.3143 C   0  0  0  0  0  0  0  0  0  0  0  0
   -8.6712    4.4975   -6.3552 O   0  0  0  0  0  0  0  0  0  0  0  0
   -9.8566    2.1103   -6.4888 H   0  0  0  0  0  0  0  0  0  0  0  0
   -4.4479    5.1764  -19.1993 C   0  0  0  0  0  0  0  0  0  0  0  0
   -3.0784    5.6843  -19.2532 N   0  0  0  0  0  0  0  0  0  0  0  0
   -3.0909    6.6721  -18.9994 H   0  0  0  0  0  0  0  0  0  0  0  0
   -2.0200    4.1892  -20.6159 N   0  0  0  0  0  0  0  0  0  0  0  0
   -2.4698    5.5564  -20.5390 C   0  0  0  0  0  0  0  0  0  0  0  0
   -1.5716    4.0290  -21.5179 H   0  0  0  0  0  0  0  0  0  0  0  0
   -2.8187    3.5624  -20.5172 H   0  0  0  0  0  0  0  0  0  0  0  0
 31 32  1  0  0  0
 32 29  1  0  0  0
 29 28  1  0  0  0
 28  1  1  0  0  0
  1  2  2  0  0  0
  2  3  1  0  0  0
  3  4  1  0  0  0
  4  5  2  0  0  0
  5 12  1  0  0  0
 12 13  2  0  0  0
 12 14  1  0  0  0
 14 16  1  0  0  0
 16 17  2  0  0  0
 17 18  1  0  0  0
 18 19  1  0  0  0
 18 20  2  0  0  0
 20 21  1  0  0  0
 21 22  2  0  0  0
 21 23  1  0  0  0
 23 24  1  0  0  0
 24 25  1  0  0  0
 25 26  2  0  0  0
  5  6  1  0  0  0
  6  7  2  0  0  0
  7  8  1  0  0  0
  7  9  1  0  0  0
  9 10  2  0  0  0
 10  1  1  0  0  0
 10  4  1  0  0  0
 22 16  1  0  0  0
 25 20  1  0  0  0
 31 33  1  0  0  0
 31 34  1  0  0  0
 29 30  1  0  0  0
  3 11  1  0  0  0
 14 15  1  0  0  0
 24 27  1  0  0  0
M  END
> <minimizedAffinity>
-8.75203

> <minimizedRMSD>
0.72554

$$$$
P24869


 31 34  0  0  0  0  0  0  0  0999 V2000
   -7.2846    5.1705  -13.9467 C   0  0  0  0  0  0  0  0  0  0  0  0
   -6.5863    6.0803  -13.7207 O   0  0  0  0  0  0  0  0  0  0  0  0
   -8.1510    4.3112  -12.9959 N   0  0  0  0  0  0  0  0  0  0  0  0
   -8.7160    3.6417  -13.4452 H   0  0  0  0  0  0  0  0  0  0  0  0
   -5.2558    5.2133  -18.2426 C   0  0  0  0  0  0  0  0  0  0  0  0
   -4.3973    5.5073  -17.1959 C   0  0  0  0  0  0  0  0  0  0  0  0
   -5.0954    5.4205  -16.0262 N   0  0  0  0  0  0  0  0  0  0  0  0
   -6.3819    4.9990  -16.2697 C   0  0  0  0  0  0  0  0  0  0  0  0
   -7.4407    4.7816  -15.3719 C   0  0  0  0  0  0  0  0  0  0  0  0
   -8.6705    4.3918  -15.9026 C   0  0  0  0  0  0  0  0  0  0  0  0
   -8.8200    4.2557  -17.2784 C   0  0  0  0  0  0  0  0  0  0  0  0
  -10.3912    4.0386  -17.9210 Cl  0  0  0  0  0  0  0  0  0  0  0  0
   -7.7562    4.4487  -18.1621 C   0  0  0  0  0  0  0  0  0  0  0  0
   -6.5079    4.8449  -17.6499 C   0  0  0  0  0  0  0  0  0  0  0  0
   -4.7305    5.6295  -15.1360 H   0  0  0  0  0  0  0  0  0  0  0  0
   -4.9327    5.2701  -19.7037 C   0  0  0  0  0  0  0  0  0  0  0  0
   -2.8088    4.2991  -20.2490 C   0  0  0  0  0  0  0  0  0  0  0  0
   -3.4936    5.5136  -19.8414 N   0  0  0  0  0  0  0  0  0  0  0  0
   -3.3413    6.2369  -20.5444 H   0  0  0  0  0  0  0  0  0  0  0  0
   -8.2619    4.3305  -11.6076 C   0  0  0  0  0  0  0  0  0  0  0  0
   -7.9971    5.5167  -10.9021 C   0  0  0  0  0  0  0  0  0  0  0  0
   -8.0932    5.5578   -9.5075 C   0  0  0  0  0  0  0  0  0  0  0  0
   -8.4503    4.3975   -8.8419 C   0  0  0  0  0  0  0  0  0  0  0  0
   -8.7139    3.2236   -9.5381 C   0  0  0  0  0  0  0  0  0  0  0  0
   -8.6357    3.1727  -10.9231 C   0  0  0  0  0  0  0  0  0  0  0  0
   -9.0724    2.1449   -8.5724 C   0  0  0  0  0  0  0  0  0  0  0  0
   -8.9059    2.7253   -7.2137 N   0  0  0  0  0  0  0  0  0  0  0  0
   -8.6288    4.1656   -7.3814 C   0  0  0  0  0  0  0  0  0  0  0  0
   -8.1270    2.2736   -6.7344 H   0  0  0  0  0  0  0  0  0  0  0  0
   -7.7953    6.7600   -8.7900 C   0  0  0  0  0  0  0  0  0  0  0  0
   -7.5366    7.7158   -8.1838 N   0  0  0  0  0  0  0  0  0  0  0  0
 17 18  1  0  0  0
 18 16  1  0  0  0
 16  5  1  0  0  0
  5  6  2  0  0  0
  6  7  1  0  0  0
  7  8  1  0  0  0
  8  9  2  0  0  0
  9  1  1  0  0  0
  1  2  2  0  0  0
  1  3  1  0  0  0
  3 20  1  0  0  0
 20 21  2  0  0  0
 21 22  1  0  0  0
 22 30  1  0  0  0
 30 31  3  0  0  0
 22 23  2  0  0  0
 23 24  1  0  0  0
 24 25  2  0  0  0
 24 26  1  0  0  0
 26 27  1  0  0  0
 27 28  1  0  0  0
  9 10  1  0  0  0
 10 11  2  0  0  0
 11 12  1  0  0  0
 11 13  1  0  0  0
 13 14  2  0  0  0
 14  5  1  0  0  0
 14  8  1  0  0  0
 25 20  1  0  0  0
 28 23  1  0  0  0
 18 19  1  0  0  0
  7 15  1  0  0  0
  3  4  1  0  0  0
 27 29  1  0  0  0
M  END
> <minimizedAffinity>
-8.25342

> <minimizedRMSD>
0.71197

$$$$
P24870


 29 32  0  0  0  0  0  0  0  0999 V2000
   -5.2987    5.1333  -18.4535 C   0  0  0  0  0  0  0  0  0  0  0  0
   -4.4188    5.5373  -17.4650 C   0  0  0  0  0  0  0  0  0  0  0  0
   -5.0638    5.5017  -16.2624 N   0  0  0  0  0  0  0  0  0  0  0  0
   -6.3490    5.0394  -16.4267 C   0  0  0  0  0  0  0  0  0  0  0  0
   -7.3529    4.8050  -15.4724 C   0  0  0  0  0  0  0  0  0  0  0  0
   -8.6059    4.4003  -15.9331 C   0  0  0  0  0  0  0  0  0  0  0  0
   -8.8263    4.2510  -17.2962 C   0  0  0  0  0  0  0  0  0  0  0  0
  -10.4265    4.0129  -17.8445 Cl  0  0  0  0  0  0  0  0  0  0  0  0
   -7.8088    4.4262  -18.2364 C   0  0  0  0  0  0  0  0  0  0  0  0
   -6.5384    4.8388  -17.7952 C   0  0  0  0  0  0  0  0  0  0  0  0
   -4.6666    5.7682  -15.4019 H   0  0  0  0  0  0  0  0  0  0  0  0
   -7.1289    5.1516  -14.0463 C   0  0  0  0  0  0  0  0  0  0  0  0
   -6.3312    5.9722  -13.8071 O   0  0  0  0  0  0  0  0  0  0  0  0
   -8.0859    4.3781  -13.1064 N   0  0  0  0  0  0  0  0  0  0  0  0
   -8.7242    3.7853  -13.5651 H   0  0  0  0  0  0  0  0  0  0  0  0
   -8.1905    4.3843  -11.7170 C   0  0  0  0  0  0  0  0  0  0  0  0
   -7.9047    5.5501  -10.9861 C   0  0  0  0  0  0  0  0  0  0  0  0
   -8.0237    5.5736   -9.5940 C   0  0  0  0  0  0  0  0  0  0  0  0
   -8.4296    4.4173   -8.9578 C   0  0  0  0  0  0  0  0  0  0  0  0
   -8.7147    3.2575   -9.6773 C   0  0  0  0  0  0  0  0  0  0  0  0
   -8.6029    3.2222  -11.0584 C   0  0  0  0  0  0  0  0  0  0  0  0
   -9.1090    2.1779   -8.7156 C   0  0  0  0  0  0  0  0  0  0  0  0
   -9.4059    2.8979   -7.4549 N   0  0  0  0  0  0  0  0  0  0  0  0
   -9.1239    2.1419   -6.3393 F   0  0  0  0  0  0  0  0  0  0  0  0
   -8.6227    4.1454   -7.5014 C   0  0  0  0  0  0  0  0  0  0  0  0
   -4.9877    4.9538  -19.9050 C   0  0  0  0  0  0  0  0  0  0  0  0
   -5.0826    7.2001  -20.7514 C   0  0  0  0  0  0  0  0  0  0  0  0
   -4.2216    6.0793  -20.4399 N   0  0  0  0  0  0  0  0  0  0  0  0
   -3.5329    6.3718  -19.7468 H   0  0  0  0  0  0  0  0  0  0  0  0
 27 28  1  0  0  0
 28 26  1  0  0  0
 26  1  1  0  0  0
  1  2  2  0  0  0
  2  3  1  0  0  0
  3  4  1  0  0  0
  4  5  2  0  0  0
  5 12  1  0  0  0
 12 13  2  0  0  0
 12 14  1  0  0  0
 14 16  1  0  0  0
 16 17  2  0  0  0
 17 18  1  0  0  0
 18 19  2  0  0  0
 19 20  1  0  0  0
 20 21  2  0  0  0
 20 22  1  0  0  0
 22 23  1  0  0  0
 23 24  1  0  0  0
 23 25  1  0  0  0
  5  6  1  0  0  0
  6  7  2  0  0  0
  7  8  1  0  0  0
  7  9  1  0  0  0
  9 10  2  0  0  0
 10  1  1  0  0  0
 10  4  1  0  0  0
 21 16  1  0  0  0
 25 19  1  0  0  0
 28 29  1  0  0  0
  3 11  1  0  0  0
 14 15  1  0  0  0
M  END
> <minimizedAffinity>
-8.55500

> <minimizedRMSD>
0.29801

$$$$
P24872


 33 37  0  0  0  0  0  0  0  0999 V2000
   -5.0472    7.8067  -21.2799 N   0  0  0  0  0  0  0  0  0  0  0  0
   -4.6081    7.0306  -20.1859 N   0  0  0  0  0  0  0  0  0  0  0  0
   -5.6884    6.8609  -19.2030 C   0  0  0  0  0  0  0  0  0  0  0  0
   -5.3211    5.5684  -18.4943 C   0  0  0  0  0  0  0  0  0  0  0  0
   -4.2721    5.8177  -17.3802 C   0  0  0  0  0  0  0  0  0  0  0  0
   -4.8615    5.4319  -16.0839 N   0  0  0  0  0  0  0  0  0  0  0  0
   -6.1965    5.0612  -16.3537 C   0  0  0  0  0  0  0  0  0  0  0  0
   -7.1825    4.7497  -15.4136 C   0  0  0  0  0  0  0  0  0  0  0  0
   -8.4452    4.3522  -15.8649 C   0  0  0  0  0  0  0  0  0  0  0  0
   -8.6907    4.2730  -17.2389 C   0  0  0  0  0  0  0  0  0  0  0  0
  -10.2908    4.0268  -17.7857 Cl  0  0  0  0  0  0  0  0  0  0  0  0
   -7.7018    4.5615  -18.1773 C   0  0  0  0  0  0  0  0  0  0  0  0
   -6.4623    4.9796  -17.7200 C   0  0  0  0  0  0  0  0  0  0  0  0
   -4.7757    4.7727  -19.6664 C   0  0  0  0  0  0  0  0  0  0  0  0
   -4.2232    5.7381  -20.6348 N   0  0  0  0  0  0  0  0  0  0  0  0
   -5.3219    8.7325  -20.9515 H   0  0  0  0  0  0  0  0  0  0  0  0
   -5.8463    7.3513  -21.7208 H   0  0  0  0  0  0  0  0  0  0  0  0
   -4.4137    5.4327  -15.2071 H   0  0  0  0  0  0  0  0  0  0  0  0
   -4.6037    5.5608  -21.5644 H   0  0  0  0  0  0  0  0  0  0  0  0
   -6.9871    5.0875  -13.9775 C   0  0  0  0  0  0  0  0  0  0  0  0
   -6.2745    5.9803  -13.7233 O   0  0  0  0  0  0  0  0  0  0  0  0
   -7.8458    4.1910  -13.0482 N   0  0  0  0  0  0  0  0  0  0  0  0
   -8.3068    3.4490  -13.5022 H   0  0  0  0  0  0  0  0  0  0  0  0
   -8.0714    4.2649  -11.6735 C   0  0  0  0  0  0  0  0  0  0  0  0
   -7.8465    5.4608  -10.9731 C   0  0  0  0  0  0  0  0  0  0  0  0
   -8.0343    5.5293   -9.5893 C   0  0  0  0  0  0  0  0  0  0  0  0
   -8.4380    4.3863   -8.9245 C   0  0  0  0  0  0  0  0  0  0  0  0
   -8.6890    3.2076   -9.6135 C   0  0  0  0  0  0  0  0  0  0  0  0
   -8.5185    3.1293  -10.9901 C   0  0  0  0  0  0  0  0  0  0  0  0
   -9.1398    2.1587   -8.6515 C   0  0  0  0  0  0  0  0  0  0  0  0
   -9.0058    2.7488   -7.2890 N   0  0  0  0  0  0  0  0  0  0  0  0
   -8.6761    4.1795   -7.4699 C   0  0  0  0  0  0  0  0  0  0  0  0
   -8.2600    2.2794   -6.7754 H   0  0  0  0  0  0  0  0  0  0  0  0
  1  2  1  0  0  0
  2  3  1  0  0  0
  4  3  1  0  0  0
  4  5  1  0  0  0
  5  6  1  0  0  0
  6  7  1  0  0  0
  7  8  2  0  0  0
  8 20  1  0  0  0
 20 21  2  0  0  0
 20 22  1  0  0  0
 22 24  1  0  0  0
 24 25  2  0  0  0
 25 26  1  0  0  0
 26 27  2  0  0  0
 27 28  1  0  0  0
 28 29  2  0  0  0
 28 30  1  0  0  0
 30 31  1  0  0  0
 31 32  1  0  0  0
  8  9  1  0  0  0
  9 10  2  0  0  0
 10 11  1  0  0  0
 10 12  1  0  0  0
 12 13  2  0  0  0
  4 14  1  0  0  0
 14 15  1  0  0  0
 15  2  1  0  0  0
 13  4  1  0  0  0
 13  7  1  0  0  0
 29 24  1  0  0  0
 32 27  1  0  0  0
  1 16  1  0  0  0
  1 17  1  0  0  0
  6 18  1  0  0  0
 22 23  1  0  0  0
 31 33  1  0  0  0
 15 19  1  0  0  0
M  END
> <minimizedAffinity>
-9.56095

> <minimizedRMSD>
0.27831

$$$$
P24874


 30 33  0  0  0  0  0  0  0  0999 V2000
   -5.1806    5.2485  -18.2192 C   0  0  0  0  0  0  0  0  0  0  0  0
   -4.3035    5.5418  -17.1880 C   0  0  0  0  0  0  0  0  0  0  0  0
   -4.9800    5.4441  -16.0044 N   0  0  0  0  0  0  0  0  0  0  0  0
   -6.2704    5.0240  -16.2293 C   0  0  0  0  0  0  0  0  0  0  0  0
   -7.3202    4.8005  -15.3247 C   0  0  0  0  0  0  0  0  0  0  0  0
   -8.5577    4.4111  -15.8397 C   0  0  0  0  0  0  0  0  0  0  0  0
   -8.7258    4.2758  -17.2113 C   0  0  0  0  0  0  0  0  0  0  0  0
  -10.3013    4.0316  -17.8327 Cl  0  0  0  0  0  0  0  0  0  0  0  0
   -7.6742    4.4803  -18.1055 C   0  0  0  0  0  0  0  0  0  0  0  0
   -6.4197    4.8760  -17.6076 C   0  0  0  0  0  0  0  0  0  0  0  0
   -4.5990    5.6453  -15.1192 H   0  0  0  0  0  0  0  0  0  0  0  0
   -7.1696    5.1816  -13.9009 C   0  0  0  0  0  0  0  0  0  0  0  0
   -6.4857    6.0978  -13.6587 O   0  0  0  0  0  0  0  0  0  0  0  0
   -8.0546    4.3184  -12.9724 N   0  0  0  0  0  0  0  0  0  0  0  0
   -8.6010    3.6428  -13.4352 H   0  0  0  0  0  0  0  0  0  0  0  0
   -8.2043    4.3409  -11.5895 C   0  0  0  0  0  0  0  0  0  0  0  0
   -7.9973    5.5355  -10.8802 C   0  0  0  0  0  0  0  0  0  0  0  0
   -8.1639    5.5935   -9.4902 C   0  0  0  0  0  0  0  0  0  0  0  0
   -7.9898    6.8793   -8.7473 C   0  0  0  0  0  0  0  0  0  0  0  0
   -8.4874    4.4131   -8.8359 C   0  0  0  0  0  0  0  0  0  0  0  0
   -8.7042    3.2323   -9.5384 C   0  0  0  0  0  0  0  0  0  0  0  0
   -8.5850    3.1795  -10.9185 C   0  0  0  0  0  0  0  0  0  0  0  0
   -9.0828    2.1479   -8.5881 C   0  0  0  0  0  0  0  0  0  0  0  0
   -8.9350    2.7176   -7.2220 N   0  0  0  0  0  0  0  0  0  0  0  0
   -8.6895    4.1650   -7.3801 C   0  0  0  0  0  0  0  0  0  0  0  0
   -8.1480    2.2795   -6.7434 H   0  0  0  0  0  0  0  0  0  0  0  0
   -4.8961    5.3155  -19.6860 C   0  0  0  0  0  0  0  0  0  0  0  0
   -2.8030    4.3046  -20.2589 C   0  0  0  0  0  0  0  0  0  0  0  0
   -3.4574    5.5372  -19.8544 N   0  0  0  0  0  0  0  0  0  0  0  0
   -3.3078    6.2485  -20.5701 H   0  0  0  0  0  0  0  0  0  0  0  0
 28 29  1  0  0  0
 29 27  1  0  0  0
 27  1  1  0  0  0
  1  2  2  0  0  0
  2  3  1  0  0  0
  3  4  1  0  0  0
  4  5  2  0  0  0
  5 12  1  0  0  0
 12 13  2  0  0  0
 12 14  1  0  0  0
 14 16  1  0  0  0
 16 17  2  0  0  0
 17 18  1  0  0  0
 18 19  1  0  0  0
 18 20  2  0  0  0
 20 21  1  0  0  0
 21 22  2  0  0  0
 21 23  1  0  0  0
 23 24  1  0  0  0
 24 25  1  0  0  0
  5  6  1  0  0  0
  6  7  2  0  0  0
  7  8  1  0  0  0
  7  9  1  0  0  0
  9 10  2  0  0  0
 10  1  1  0  0  0
 10  4  1  0  0  0
 22 16  1  0  0  0
 25 20  1  0  0  0
 29 30  1  0  0  0
  3 11  1  0  0  0
 14 15  1  0  0  0
 24 26  1  0  0  0
M  END
> <minimizedAffinity>
-8.54467

> <minimizedRMSD>
0.76645

$$$$
P24877


 28 32  0  0  0  0  0  0  0  0999 V2000
   -6.4668    6.0366  -13.8879 O   0  0  0  0  0  0  0  0  0  0  0  0
   -7.1038    5.0755  -14.0945 C   0  0  0  0  0  0  0  0  0  0  0  0
   -7.8456    4.1260  -13.1088 N   0  0  0  0  0  0  0  0  0  0  0  0
   -8.2526    3.3333  -13.5275 H   0  0  0  0  0  0  0  0  0  0  0  0
   -7.3341    4.7175  -15.5286 C   0  0  0  0  0  0  0  0  0  0  0  0
   -8.6221    4.3835  -15.9800 C   0  0  0  0  0  0  0  0  0  0  0  0
   -8.8881    4.2330  -17.3389 C   0  0  0  0  0  0  0  0  0  0  0  0
  -10.4954    4.0809  -17.9051 Cl  0  0  0  0  0  0  0  0  0  0  0  0
   -7.8995    4.3589  -18.3023 C   0  0  0  0  0  0  0  0  0  0  0  0
   -6.6181    4.7406  -17.9044 C   0  0  0  0  0  0  0  0  0  0  0  0
   -6.3247    4.9230  -16.5015 C   0  0  0  0  0  0  0  0  0  0  0  0
   -4.9866    5.3564  -16.3455 N   0  0  0  0  0  0  0  0  0  0  0  0
   -4.5881    5.4477  -17.6395 C   0  0  0  0  0  0  0  0  0  0  0  0
   -3.4773    5.8497  -18.2895 C   0  0  0  0  0  0  0  0  0  0  0  0
   -3.6192    5.7961  -19.6702 O   0  0  0  0  0  0  0  0  0  0  0  0
   -4.9156    5.3098  -19.8600 C   0  0  0  0  0  0  0  0  0  0  0  0
   -5.4674    5.1062  -18.6375 C   0  0  0  0  0  0  0  0  0  0  0  0
   -4.4814    5.5415  -15.5211 H   0  0  0  0  0  0  0  0  0  0  0  0
   -8.0282    4.2162  -11.7222 C   0  0  0  0  0  0  0  0  0  0  0  0
   -7.7104    5.3927  -11.0271 C   0  0  0  0  0  0  0  0  0  0  0  0
   -7.9000    5.4890   -9.6423 C   0  0  0  0  0  0  0  0  0  0  0  0
   -8.3748    4.3836   -8.9618 C   0  0  0  0  0  0  0  0  0  0  0  0
   -8.6855    3.2116   -9.6362 C   0  0  0  0  0  0  0  0  0  0  0  0
   -8.5425    3.1187  -11.0181 C   0  0  0  0  0  0  0  0  0  0  0  0
   -9.1634    2.1959   -8.6513 C   0  0  0  0  0  0  0  0  0  0  0  0
   -8.9680    2.7910   -7.2992 N   0  0  0  0  0  0  0  0  0  0  0  0
   -8.6485    4.2184   -7.5072 C   0  0  0  0  0  0  0  0  0  0  0  0
   -8.1990    2.3249   -6.8177 H   0  0  0  0  0  0  0  0  0  0  0  0
  1  2  2  0  0  0
  2  3  1  0  0  0
  3 19  1  0  0  0
 19 20  2  0  0  0
 20 21  1  0  0  0
 21 22  2  0  0  0
 22 23  1  0  0  0
 23 24  2  0  0  0
 23 25  1  0  0  0
 25 26  1  0  0  0
 26 27  1  0  0  0
  2  5  1  0  0  0
  5  6  2  0  0  0
  6  7  1  0  0  0
  7  8  1  0  0  0
  7  9  2  0  0  0
  9 10  1  0  0  0
 10 11  2  0  0  0
 11 12  1  0  0  0
 12 13  1  0  0  0
 13 14  2  0  0  0
 14 15  1  0  0  0
 15 16  1  0  0  0
 16 17  2  0  0  0
 24 19  1  0  0  0
 11  5  1  0  0  0
 17 13  1  0  0  0
 27 22  1  0  0  0
 17 10  1  0  0  0
  3  4  1  0  0  0
 26 28  1  0  0  0
 12 18  1  0  0  0
M  END
> <minimizedAffinity>
-9.11890

> <minimizedRMSD>
0.18633

$$$$
P24878


 33 36  0  0  0  0  0  0  0  0999 V2000
   -5.0746    5.2742  -18.2275 C   0  0  0  0  0  0  0  0  0  0  0  0
   -4.1779    5.4669  -17.1992 C   0  0  0  0  0  0  0  0  0  0  0  0
   -4.8379    5.3211  -16.0162 N   0  0  0  0  0  0  0  0  0  0  0  0
   -6.1614    4.9782  -16.2223 C   0  0  0  0  0  0  0  0  0  0  0  0
   -7.1870    4.6832  -15.2755 C   0  0  0  0  0  0  0  0  0  0  0  0
   -8.4398    4.3910  -15.8599 C   0  0  0  0  0  0  0  0  0  0  0  0
   -8.6300    4.3572  -17.2405 C   0  0  0  0  0  0  0  0  0  0  0  0
  -10.1987    4.0862  -17.8708 Cl  0  0  0  0  0  0  0  0  0  0  0  0
   -7.5957    4.6215  -18.1324 C   0  0  0  0  0  0  0  0  0  0  0  0
   -6.3329    4.9522  -17.6168 C   0  0  0  0  0  0  0  0  0  0  0  0
   -4.4262    5.4438  -15.1304 H   0  0  0  0  0  0  0  0  0  0  0  0
   -5.4118    7.0942  -21.5600 N   0  0  0  0  0  0  0  0  0  0  0  0
   -5.4376    6.5937  -20.2649 N   0  0  0  0  0  0  0  0  0  0  0  0
   -4.6947    5.3886  -19.6380 C   0  0  0  0  0  0  0  0  0  0  0  0
   -3.8879    4.6773  -20.0927 O   0  0  0  0  0  0  0  0  0  0  0  0
   -6.0274    7.9050  -21.6235 H   0  0  0  0  0  0  0  0  0  0  0  0
   -5.7297    6.3744  -22.2091 H   0  0  0  0  0  0  0  0  0  0  0  0
   -6.0234    7.0850  -19.6446 H   0  0  0  0  0  0  0  0  0  0  0  0
   -7.0500    4.7870  -13.7406 C   0  0  0  0  0  0  0  0  0  0  0  0
   -5.8347    4.0498  -13.2509 N   0  0  0  0  0  0  0  0  0  0  0  0
   -4.9050    4.8107  -12.9498 O   0  0  0  0  0  0  0  0  0  0  0  0
   -8.2535    4.3098  -13.0455 N   0  0  0  0  0  0  0  0  0  0  0  0
   -9.0245    3.9612  -13.5489 H   0  0  0  0  0  0  0  0  0  0  0  0
   -8.2724    4.3656  -11.6339 C   0  0  0  0  0  0  0  0  0  0  0  0
   -8.0226    5.5549  -10.9163 C   0  0  0  0  0  0  0  0  0  0  0  0
   -8.0556    5.5914   -9.5177 C   0  0  0  0  0  0  0  0  0  0  0  0
   -8.3844    4.4330   -8.8423 C   0  0  0  0  0  0  0  0  0  0  0  0
   -8.6829    3.2632   -9.5280 C   0  0  0  0  0  0  0  0  0  0  0  0
   -8.6428    3.2182  -10.9131 C   0  0  0  0  0  0  0  0  0  0  0  0
   -8.9986    2.1829   -8.5445 C   0  0  0  0  0  0  0  0  0  0  0  0
   -9.2047    2.8878   -7.2477 N   0  0  0  0  0  0  0  0  0  0  0  0
   -8.4882    4.1765   -7.3783 C   0  0  0  0  0  0  0  0  0  0  0  0
   -8.8167    2.3408   -6.4792 H   0  0  0  0  0  0  0  0  0  0  0  0
 12 13  1  0  0  0
 13 14  1  0  0  0
 14 15  2  0  0  0
 14  1  1  0  0  0
  1  2  2  0  0  0
  2  3  1  0  0  0
  3  4  1  0  0  0
  4  5  2  0  0  0
  5 19  1  0  0  0
 19 20  1  0  0  0
 20 21  2  0  0  0
 19 22  1  0  0  0
 22 24  1  0  0  0
 24 25  2  0  0  0
 25 26  1  0  0  0
 26 27  2  0  0  0
 27 28  1  0  0  0
 28 29  2  0  0  0
 28 30  1  0  0  0
 30 31  1  0  0  0
 31 32  1  0  0  0
  5  6  1  0  0  0
  6  7  2  0  0  0
  7  8  1  0  0  0
  7  9  1  0  0  0
  9 10  2  0  0  0
 10  1  1  0  0  0
 10  4  1  0  0  0
 29 24  1  0  0  0
 32 27  1  0  0  0
 12 16  1  0  0  0
 12 17  1  0  0  0
 13 18  1  0  0  0
  3 11  1  0  0  0
 22 23  1  0  0  0
 31 33  1  0  0  0
M  END
> <minimizedAffinity>
-8.98868

> <minimizedRMSD>
0.35539

$$$$
P24881


 34 38  0  0  0  0  0  0  0  0999 V2000
   -5.0560    5.2963  -17.9417 C   0  0  0  0  0  0  0  0  0  0  0  0
   -4.2783    5.7320  -16.8791 C   0  0  0  0  0  0  0  0  0  0  0  0
   -5.0273    5.6762  -15.7339 N   0  0  0  0  0  0  0  0  0  0  0  0
   -6.2764    5.1749  -16.0058 C   0  0  0  0  0  0  0  0  0  0  0  0
   -7.3490    4.9161  -15.1390 C   0  0  0  0  0  0  0  0  0  0  0  0
   -8.5450    4.4642  -15.6922 C   0  0  0  0  0  0  0  0  0  0  0  0
   -8.6477    4.2975  -17.0663 C   0  0  0  0  0  0  0  0  0  0  0  0
  -10.1875    3.9887  -17.7351 Cl  0  0  0  0  0  0  0  0  0  0  0  0
   -7.5628    4.5069  -17.9199 C   0  0  0  0  0  0  0  0  0  0  0  0
   -6.3414    4.9591  -17.3807 C   0  0  0  0  0  0  0  0  0  0  0  0
   -4.7148    5.9555  -14.8431 H   0  0  0  0  0  0  0  0  0  0  0  0
   -5.3859    4.5777  -20.0803 O   0  0  0  0  0  0  0  0  0  0  0  0
   -4.6705    5.1513  -19.3625 C   0  0  0  0  0  0  0  0  0  0  0  0
   -3.3043    5.8109  -19.6317 N   0  0  0  0  0  0  0  0  0  0  0  0
   -2.9281    6.3061  -18.8684 H   0  0  0  0  0  0  0  0  0  0  0  0
   -2.4775    5.8211  -20.8334 C   0  0  0  0  0  0  0  0  0  0  0  0
   -2.7747    6.9681  -21.8244 C   0  0  0  0  0  0  0  0  0  0  0  0
   -1.3137    7.1225  -22.0168 N   0  0  0  0  0  0  0  0  0  0  0  0
   -1.0980    6.5014  -20.6915 C   0  0  0  0  0  0  0  0  0  0  0  0
   -0.9989    8.0904  -22.0830 H   0  0  0  0  0  0  0  0  0  0  0  0
   -7.2499    5.2881  -13.7099 C   0  0  0  0  0  0  0  0  0  0  0  0
   -6.6031    6.2234  -13.4396 O   0  0  0  0  0  0  0  0  0  0  0  0
   -8.0982    4.3617  -12.8082 N   0  0  0  0  0  0  0  0  0  0  0  0
   -8.6176    3.6791  -13.2914 H   0  0  0  0  0  0  0  0  0  0  0  0
   -8.2468    4.3359  -11.4255 C   0  0  0  0  0  0  0  0  0  0  0  0
   -8.0152    5.4966  -10.6713 C   0  0  0  0  0  0  0  0  0  0  0  0
   -8.1578    5.4865   -9.2838 C   0  0  0  0  0  0  0  0  0  0  0  0
   -8.5174    4.3007   -8.6732 C   0  0  0  0  0  0  0  0  0  0  0  0
   -8.7559    3.1516   -9.4156 C   0  0  0  0  0  0  0  0  0  0  0  0
   -8.6360    3.1505  -10.7974 C   0  0  0  0  0  0  0  0  0  0  0  0
   -9.1421    2.0430   -8.4966 C   0  0  0  0  0  0  0  0  0  0  0  0
   -9.0405    2.5834   -7.1127 N   0  0  0  0  0  0  0  0  0  0  0  0
   -8.7285    4.0223   -7.2271 C   0  0  0  0  0  0  0  0  0  0  0  0
   -8.2974    2.1041   -6.6042 H   0  0  0  0  0  0  0  0  0  0  0  0
 12 13  2  0  0  0
 13 14  1  0  0  0
 14 16  1  0  0  0
 16 17  1  0  0  0
 17 18  1  0  0  0
 18 19  1  0  0  0
 13  1  1  0  0  0
  1  2  2  0  0  0
  2  3  1  0  0  0
  3  4  1  0  0  0
  4  5  2  0  0  0
  5 21  1  0  0  0
 21 22  2  0  0  0
 21 23  1  0  0  0
 23 25  1  0  0  0
 25 26  2  0  0  0
 26 27  1  0  0  0
 27 28  2  0  0  0
 28 29  1  0  0  0
 29 30  2  0  0  0
 29 31  1  0  0  0
 31 32  1  0  0  0
 32 33  1  0  0  0
  5  6  1  0  0  0
  6  7  2  0  0  0
  7  8  1  0  0  0
  7  9  1  0  0  0
  9 10  2  0  0  0
 19 16  1  0  0  0
 10  1  1  0  0  0
 10  4  1  0  0  0
 30 25  1  0  0  0
 33 28  1  0  0  0
 14 15  1  0  0  0
 18 20  1  0  0  0
  3 11  1  0  0  0
 23 24  1  0  0  0
 32 34  1  0  0  0
M  END
> <minimizedAffinity>
-8.72610

> <minimizedRMSD>
0.38526

$$$$
P24892


 34 38  0  0  0  0  0  0  0  0999 V2000
   -7.5691    4.7635  -15.4553 C   0  0  0  0  0  0  0  0  0  0  0  0
   -8.7174    4.3047  -16.1422 C   0  0  0  0  0  0  0  0  0  0  0  0
   -8.7253    4.0430  -17.5511 C   0  0  0  0  0  0  0  0  0  0  0  0
   -9.8684    3.6251  -18.1066 F   0  0  0  0  0  0  0  0  0  0  0  0
   -7.6344    4.2193  -18.4204 C   0  0  0  0  0  0  0  0  0  0  0  0
   -6.5170    4.6537  -17.7207 C   0  0  0  0  0  0  0  0  0  0  0  0
   -5.2894    4.9716  -18.2660 C   0  0  0  0  0  0  0  0  0  0  0  0
   -4.4917    5.3516  -17.1933 N   0  0  0  0  0  0  0  0  0  0  0  0
   -5.1965    5.2819  -16.0103 C   0  0  0  0  0  0  0  0  0  0  0  0
   -6.4776    4.9031  -16.3184 C   0  0  0  0  0  0  0  0  0  0  0  0
   -3.0464    5.6663  -17.2720 C   0  0  0  0  0  0  0  0  0  0  0  0
   -2.7266    7.1569  -17.5119 C   0  0  0  0  0  0  0  0  0  0  0  0
   -1.5991    7.0289  -16.5506 N   0  0  0  0  0  0  0  0  0  0  0  0
   -2.3465    5.9124  -15.9158 C   0  0  0  0  0  0  0  0  0  0  0  0
   -1.4585    7.8414  -15.9503 H   0  0  0  0  0  0  0  0  0  0  0  0
   -7.3964    6.3582  -13.8466 O   0  0  0  0  0  0  0  0  0  0  0  0
   -7.5810    5.2237  -14.0540 C   0  0  0  0  0  0  0  0  0  0  0  0
   -7.8584    4.0586  -13.0766 N   0  0  0  0  0  0  0  0  0  0  0  0
   -7.9045    3.1698  -13.4974 H   0  0  0  0  0  0  0  0  0  0  0  0
   -8.0538    4.0617  -11.6959 C   0  0  0  0  0  0  0  0  0  0  0  0
   -7.7796    5.2092  -10.9311 C   0  0  0  0  0  0  0  0  0  0  0  0
   -7.9690    5.2156   -9.5448 C   0  0  0  0  0  0  0  0  0  0  0  0
   -8.4404    4.0633   -8.9478 C   0  0  0  0  0  0  0  0  0  0  0  0
   -8.7053    2.9219   -9.7002 C   0  0  0  0  0  0  0  0  0  0  0  0
   -8.5192    2.9004  -11.0734 C   0  0  0  0  0  0  0  0  0  0  0  0
   -9.1362    1.8296   -8.7771 C   0  0  0  0  0  0  0  0  0  0  0  0
   -9.5174    2.5241   -7.5186 N   0  0  0  0  0  0  0  0  0  0  0  0
   -8.7276    3.7748   -7.5115 C   0  0  0  0  0  0  0  0  0  0  0  0
   -9.2850    1.9496   -6.7085 H   0  0  0  0  0  0  0  0  0  0  0  0
   -4.8689    5.0007  -19.6955 C   0  0  0  0  0  0  0  0  0  0  0  0
   -3.8296    4.0206  -19.9740 N   0  0  0  0  0  0  0  0  0  0  0  0
   -2.8326    4.6983  -20.7937 O   0  0  0  0  0  0  0  0  0  0  0  0
   -4.2207    3.2258  -20.4797 H   0  0  0  0  0  0  0  0  0  0  0  0
   -2.4682    5.4514  -20.3029 H   0  0  0  0  0  0  0  0  0  0  0  0
 16 17  2  0  0  0
 17 18  1  0  0  0
 18 20  1  0  0  0
 20 21  2  0  0  0
 21 22  1  0  0  0
 22 23  2  0  0  0
 23 24  1  0  0  0
 24 25  2  0  0  0
 24 26  1  0  0  0
 26 27  1  0  0  0
 27 28  1  0  0  0
 17  1  1  0  0  0
  1  2  2  0  0  0
  2  3  1  0  0  0
  3  4  1  0  0  0
  3  5  2  0  0  0
  5  6  1  0  0  0
  6  7  2  0  0  0
  7 30  1  0  0  0
 30 31  1  0  0  0
 31 32  1  0  0  0
  7  8  1  0  0  0
  8 11  1  0  0  0
 11 12  1  0  0  0
 12 13  1  0  0  0
 13 14  1  0  0  0
  8  9  1  0  0  0
  9 10  2  0  0  0
 25 20  1  0  0  0
 10  1  1  0  0  0
 28 23  1  0  0  0
 10  6  1  0  0  0
 14 11  1  0  0  0
 18 19  1  0  0  0
 27 29  1  0  0  0
 31 33  1  0  0  0
 32 34  1  0  0  0
 13 15  1  0  0  0
M  END
> <minimizedAffinity>
-9.26169

> <minimizedRMSD>
0.65909

$$$$
P24905


 48 53  0  0  0  0  0  0  0  0999 V2000
   -1.8797    6.0046  -18.6005 N   0  0  0  0  0  0  0  0  0  0  0  0
   -2.9018    6.7427  -17.8227 C   0  0  0  0  0  0  0  0  0  0  0  0
   -3.2578    5.4517  -17.0675 C   0  0  0  0  0  0  0  0  0  0  0  0
   -2.5274    4.7244  -18.2106 C   0  0  0  0  0  0  0  0  0  0  0  0
   -4.7095    5.2158  -16.9950 N   0  0  0  0  0  0  0  0  0  0  0  0
   -5.4070    5.2919  -15.8209 C   0  0  0  0  0  0  0  0  0  0  0  0
   -6.6825    4.9117  -16.1410 C   0  0  0  0  0  0  0  0  0  0  0  0
   -7.7783    4.7982  -15.2813 C   0  0  0  0  0  0  0  0  0  0  0  0
   -8.9276    4.3326  -15.9490 C   0  0  0  0  0  0  0  0  0  0  0  0
   -8.9474    4.0377  -17.3398 C   0  0  0  0  0  0  0  0  0  0  0  0
  -10.1059    3.6042  -17.8558 F   0  0  0  0  0  0  0  0  0  0  0  0
   -7.8458    4.1755  -18.2027 C   0  0  0  0  0  0  0  0  0  0  0  0
   -6.6799    4.6120  -17.5555 C   0  0  0  0  0  0  0  0  0  0  0  0
   -5.4470    4.8168  -18.0495 N   0  0  0  0  0  0  0  0  0  0  0  0
   -7.7906    5.2354  -13.8734 C   0  0  0  0  0  0  0  0  0  0  0  0
   -7.6066    6.4053  -13.6878 O   0  0  0  0  0  0  0  0  0  0  0  0
   -8.1121    4.1776  -12.9558 N   0  0  0  0  0  0  0  0  0  0  0  0
   -8.2882    3.3075  -13.3814 H   0  0  0  0  0  0  0  0  0  0  0  0
   -8.2173    4.1729  -11.5639 C   0  0  0  0  0  0  0  0  0  0  0  0
   -7.8715    5.2951  -10.7927 C   0  0  0  0  0  0  0  0  0  0  0  0
   -7.9950    5.2748   -9.3986 C   0  0  0  0  0  0  0  0  0  0  0  0
   -8.4574    4.1185   -8.7973 C   0  0  0  0  0  0  0  0  0  0  0  0
   -8.7909    3.0035   -9.5541 C   0  0  0  0  0  0  0  0  0  0  0  0
   -8.6838    3.0130  -10.9365 C   0  0  0  0  0  0  0  0  0  0  0  0
   -9.2084    1.8941   -8.6495 C   0  0  0  0  0  0  0  0  0  0  0  0
   -9.2966    2.4851   -7.2877 N   0  0  0  0  0  0  0  0  0  0  0  0
   -8.6680    3.8211   -7.3529 C   0  0  0  0  0  0  0  0  0  0  0  0
   -8.8002    1.8971   -6.6182 H   0  0  0  0  0  0  0  0  0  0  0  0
   -0.5472    6.1460  -17.9852 C   0  0  0  0  0  0  0  0  0  0  0  0
    0.3459    7.0868  -18.8117 C   0  0  0  0  0  0  0  0  0  0  0  0
    4.1150    7.1058  -19.3666 C   0  0  0  0  0  0  0  0  0  0  0  0
    2.7708    7.4792  -19.3737 C   0  0  0  0  0  0  0  0  0  0  0  0
    1.7936    6.6502  -18.8008 C   0  0  0  0  0  0  0  0  0  0  0  0
    2.1828    5.4397  -18.2079 C   0  0  0  0  0  0  0  0  0  0  0  0
    3.5280    5.0629  -18.1994 C   0  0  0  0  0  0  0  0  0  0  0  0
    4.4897    5.8985  -18.7795 C   0  0  0  0  0  0  0  0  0  0  0  0
    3.9737    3.8689  -17.6320 N   0  0  0  0  0  0  0  0  0  0  0  0
    4.7101    2.7671  -18.2019 C   0  0  0  0  0  0  0  0  0  0  0  0
    5.0124    1.7603  -17.1112 C   0  0  0  0  0  0  0  0  0  0  0  0
    5.0601    2.5588  -19.3280 O   0  0  0  0  0  0  0  0  0  0  0  0
    3.7469    3.7595  -16.6802 H   0  0  0  0  0  0  0  0  0  0  0  0
    5.2275    8.3559  -21.3331 C   0  0  0  0  0  0  0  0  0  0  0  0
    4.5846    8.1029  -22.3139 O   0  0  0  0  0  0  0  0  0  0  0  0
    5.0406    7.9648  -19.9553 N   0  0  0  0  0  0  0  0  0  0  0  0
    5.6755    8.3752  -19.3246 H   0  0  0  0  0  0  0  0  0  0  0  0
    6.4945    9.2288  -21.4262 C   0  0  0  0  0  0  0  0  0  0  0  0
    5.8617   11.4916  -21.6890 C   0  0  0  0  0  0  0  0  0  0  0  0
    6.3584   10.5012  -20.7926 O   0  0  0  0  0  0  0  0  0  0  0  0
 47 48  1  0  0  0
 48 46  1  0  0  0
 46 42  1  0  0  0
 42 43  2  0  0  0
 42 44  1  0  0  0
 44 31  1  0  0  0
 31 32  2  0  0  0
 32 33  1  0  0  0
 33 30  1  0  0  0
 30 29  1  0  0  0
 29  1  1  0  0  0
  1  2  1  0  0  0
  2  3  1  0  0  0
  3  5  1  0  0  0
  5  6  1  0  0  0
  6  7  2  0  0  0
  7  8  1  0  0  0
  8 15  1  0  0  0
 15 16  2  0  0  0
 15 17  1  0  0  0
 17 19  1  0  0  0
 19 20  2  0  0  0
 20 21  1  0  0  0
 21 22  2  0  0  0
 22 23  1  0  0  0
 23 24  2  0  0  0
 23 25  1  0  0  0
 25 26  1  0  0  0
 26 27  1  0  0  0
  8  9  2  0  0  0
  9 10  1  0  0  0
 10 11  1  0  0  0
 10 12  2  0  0  0
 12 13  1  0  0  0
 13 14  2  0  0  0
  3  4  1  0  0  0
 33 34  2  0  0  0
 34 35  1  0  0  0
 35 37  1  0  0  0
 37 38  1  0  0  0
 38 39  1  0  0  0
 38 40  2  0  0  0
 35 36  2  0  0  0
 36 31  1  0  0  0
  4  1  1  0  0  0
 14  5  1  0  0  0
 13  7  1  0  0  0
 24 19  1  0  0  0
 27 22  1  0  0  0
 44 45  1  0  0  0
 17 18  1  0  0  0
 26 28  1  0  0  0
 37 41  1  0  0  0
M  END
> <minimizedAffinity>
-8.03279

> <minimizedRMSD>
1.82668

$$$$
P24918


 36 41  0  0  0  0  0  0  0  0999 V2000
   -5.4066    6.1933  -18.8987 C   0  0  0  0  0  0  0  0  0  0  0  0
   -4.3192    6.1370  -18.1629 N   0  0  0  0  0  0  0  0  0  0  0  0
   -4.5398    5.5306  -16.9714 C   0  0  0  0  0  0  0  0  0  0  0  0
   -5.7195    5.0137  -16.5147 C   0  0  0  0  0  0  0  0  0  0  0  0
   -6.8095    5.0402  -17.3520 C   0  0  0  0  0  0  0  0  0  0  0  0
   -7.9367    4.6057  -16.6193 C   0  0  0  0  0  0  0  0  0  0  0  0
   -9.1304    4.5148  -17.2323 F   0  0  0  0  0  0  0  0  0  0  0  0
   -7.9332    4.3755  -15.1772 C   0  0  0  0  0  0  0  0  0  0  0  0
   -6.7725    4.5096  -14.3596 C   0  0  0  0  0  0  0  0  0  0  0  0
   -5.6515    4.7790  -15.1421 C   0  0  0  0  0  0  0  0  0  0  0  0
   -4.3438    5.0088  -14.7755 C   0  0  0  0  0  0  0  0  0  0  0  0
   -3.6808    5.4823  -15.8970 N   0  0  0  0  0  0  0  0  0  0  0  0
   -6.6362    5.5553  -18.6249 N   0  0  0  0  0  0  0  0  0  0  0  0
   -7.3396    5.4802  -19.3096 H   0  0  0  0  0  0  0  0  0  0  0  0
   -2.2641    5.8835  -15.9320 C   0  0  0  0  0  0  0  0  0  0  0  0
   -2.0169    7.3844  -15.6598 C   0  0  0  0  0  0  0  0  0  0  0  0
   -0.8301    6.9853  -14.8587 N   0  0  0  0  0  0  0  0  0  0  0  0
   -1.5041    5.6897  -14.5999 C   0  0  0  0  0  0  0  0  0  0  0  0
   -0.6704    7.5532  -14.0266 H   0  0  0  0  0  0  0  0  0  0  0  0
   -6.7659    4.7749  -12.9127 C   0  0  0  0  0  0  0  0  0  0  0  0
   -5.8582    5.3834  -12.5031 O   0  0  0  0  0  0  0  0  0  0  0  0
   -7.9828    4.1821  -12.1794 N   0  0  0  0  0  0  0  0  0  0  0  0
   -8.6581    3.7720  -12.7668 H   0  0  0  0  0  0  0  0  0  0  0  0
   -8.2868    4.1310  -10.8091 C   0  0  0  0  0  0  0  0  0  0  0  0
   -8.6814    2.8689  -10.3356 C   0  0  0  0  0  0  0  0  0  0  0  0
   -8.9245    2.6972   -8.9835 C   0  0  0  0  0  0  0  0  0  0  0  0
   -8.7828    3.7412   -8.0888 C   0  0  0  0  0  0  0  0  0  0  0  0
   -8.4105    4.9945   -8.5241 C   0  0  0  0  0  0  0  0  0  0  0  0
   -8.1947    5.2174   -9.9007 C   0  0  0  0  0  0  0  0  0  0  0  0
   -7.9180    6.6437  -10.2803 C   0  0  0  0  0  0  0  0  0  0  0  0
   -9.0950    3.2725   -6.7107 C   0  0  0  0  0  0  0  0  0  0  0  0
   -9.6081    1.8949   -6.8540 N   0  0  0  0  0  0  0  0  0  0  0  0
   -9.2770    1.4588   -8.2371 C   0  0  0  0  0  0  0  0  0  0  0  0
  -10.6181    1.8792   -6.7125 H   0  0  0  0  0  0  0  0  0  0  0  0
   -4.5364    6.5415  -21.2314 C   0  0  0  0  0  0  0  0  0  0  0  0
   -5.2947    7.1345  -20.0828 C   0  0  0  0  0  0  0  0  0  0  0  0
 35 36  1  0  0  0
 36  1  1  0  0  0
  1  2  2  0  0  0
  2  3  1  0  0  0
  3  4  2  0  0  0
  4  5  1  0  0  0
  5  6  2  0  0  0
  6  7  1  0  0  0
  6  8  1  0  0  0
  8  9  2  0  0  0
  9 20  1  0  0  0
 20 21  2  0  0  0
 20 22  1  0  0  0
 22 24  1  0  0  0
 24 25  2  0  0  0
 25 26  1  0  0  0
 26 27  2  0  0  0
 27 28  1  0  0  0
 28 29  2  0  0  0
 29 30  1  0  0  0
 27 31  1  0  0  0
 31 32  1  0  0  0
 32 33  1  0  0  0
  9 10  1  0  0  0
 10 11  2  0  0  0
 11 12  1  0  0  0
 12 15  1  0  0  0
 15 16  1  0  0  0
 16 17  1  0  0  0
 17 18  1  0  0  0
  5 13  1  0  0  0
 13  1  1  0  0  0
 12  3  1  0  0  0
 18 15  1  0  0  0
 10  4  1  0  0  0
 29 24  1  0  0  0
 33 26  1  0  0  0
 22 23  1  0  0  0
 32 34  1  0  0  0
 17 19  1  0  0  0
 13 14  1  0  0  0
M  END
> <minimizedAffinity>
-8.45709

> <minimizedRMSD>
0.69555

$$$$
P24919


 32 36  0  0  0  0  0  0  0  0999 V2000
   -5.5426    4.8292  -20.0580 N   0  0  0  0  0  0  0  0  0  0  0  0
   -5.7694    4.7912  -18.7209 C   0  0  0  0  0  0  0  0  0  0  0  0
   -6.9155    4.4997  -18.0134 C   0  0  0  0  0  0  0  0  0  0  0  0
   -8.1420    4.1072  -18.5432 C   0  0  0  0  0  0  0  0  0  0  0  0
   -9.0993    3.9432  -17.5213 C   0  0  0  0  0  0  0  0  0  0  0  0
  -10.3421    3.5867  -17.8842 F   0  0  0  0  0  0  0  0  0  0  0  0
   -8.8615    4.1742  -16.1271 C   0  0  0  0  0  0  0  0  0  0  0  0
   -7.6134    4.5993  -15.6145 C   0  0  0  0  0  0  0  0  0  0  0  0
   -6.6588    4.7276  -16.6269 C   0  0  0  0  0  0  0  0  0  0  0  0
   -5.3494    5.1209  -16.5085 C   0  0  0  0  0  0  0  0  0  0  0  0
   -4.8053    5.1170  -17.7770 N   0  0  0  0  0  0  0  0  0  0  0  0
   -6.2613    4.5882  -20.6862 H   0  0  0  0  0  0  0  0  0  0  0  0
   -4.6594    5.0979  -20.4000 H   0  0  0  0  0  0  0  0  0  0  0  0
   -3.4740    5.6812  -18.0864 C   0  0  0  0  0  0  0  0  0  0  0  0
   -2.6377    6.0707  -16.8482 C   0  0  0  0  0  0  0  0  0  0  0  0
   -1.4420    5.5206  -17.5328 N   0  0  0  0  0  0  0  0  0  0  0  0
   -2.3581    4.6411  -18.3084 C   0  0  0  0  0  0  0  0  0  0  0  0
   -0.7943    5.0238  -16.9211 H   0  0  0  0  0  0  0  0  0  0  0  0
   -7.4152    5.0387  -14.2210 C   0  0  0  0  0  0  0  0  0  0  0  0
   -6.8076    6.0185  -14.0336 O   0  0  0  0  0  0  0  0  0  0  0  0
   -8.1419    4.1045  -13.2262 N   0  0  0  0  0  0  0  0  0  0  0  0
   -8.6530    3.3745  -13.6446 H   0  0  0  0  0  0  0  0  0  0  0  0
   -8.1913    4.1277  -11.8321 C   0  0  0  0  0  0  0  0  0  0  0  0
   -7.8352    5.2850  -11.1176 C   0  0  0  0  0  0  0  0  0  0  0  0
   -7.9146    5.3238   -9.7213 C   0  0  0  0  0  0  0  0  0  0  0  0
   -8.3603    4.1941   -9.0639 C   0  0  0  0  0  0  0  0  0  0  0  0
   -8.6940    3.0388   -9.7663 C   0  0  0  0  0  0  0  0  0  0  0  0
   -8.6155    2.9849  -11.1485 C   0  0  0  0  0  0  0  0  0  0  0  0
   -9.0759    1.9771   -8.7874 C   0  0  0  0  0  0  0  0  0  0  0  0
   -9.3697    2.7126   -7.5286 N   0  0  0  0  0  0  0  0  0  0  0  0
   -8.5626    3.9500   -7.6051 C   0  0  0  0  0  0  0  0  0  0  0  0
   -9.0969    2.1571   -6.7178 H   0  0  0  0  0  0  0  0  0  0  0  0
  1  2  1  0  0  0
  2  3  2  0  0  0
  3  4  1  0  0  0
  4  5  2  0  0  0
  5  6  1  0  0  0
  5  7  1  0  0  0
  7  8  2  0  0  0
  8 19  1  0  0  0
 19 20  2  0  0  0
 19 21  1  0  0  0
 21 23  1  0  0  0
 23 24  2  0  0  0
 24 25  1  0  0  0
 25 26  2  0  0  0
 26 27  1  0  0  0
 27 28  2  0  0  0
 27 29  1  0  0  0
 29 30  1  0  0  0
 30 31  1  0  0  0
  8  9  1  0  0  0
  9 10  2  0  0  0
 10 11  1  0  0  0
 11 14  1  0  0  0
 14 15  1  0  0  0
 15 16  1  0  0  0
 16 17  1  0  0  0
 11  2  1  0  0  0
 17 14  1  0  0  0
  9  3  1  0  0  0
 28 23  1  0  0  0
 31 26  1  0  0  0
  1 12  1  0  0  0
  1 13  1  0  0  0
 21 22  1  0  0  0
 30 32  1  0  0  0
 16 18  1  0  0  0
M  END
> <minimizedAffinity>
-9.79429

> <minimizedRMSD>
0.90074

$$$$
P24923


 30 34  0  0  0  0  0  0  0  0999 V2000
   -5.1029    5.2151  -19.7790 C   0  0  0  0  0  0  0  0  0  0  0  0
   -5.4233    5.0796  -18.3329 C   0  0  0  0  0  0  0  0  0  0  0  0
   -6.5960    4.7490  -17.6867 C   0  0  0  0  0  0  0  0  0  0  0  0
   -7.8127    4.4460  -18.2900 C   0  0  0  0  0  0  0  0  0  0  0  0
   -8.7819    4.1269  -17.3195 C   0  0  0  0  0  0  0  0  0  0  0  0
  -10.0082    3.7861  -17.7479 F   0  0  0  0  0  0  0  0  0  0  0  0
   -8.5599    4.1338  -15.9044 C   0  0  0  0  0  0  0  0  0  0  0  0
   -7.3143    4.4453  -15.3026 C   0  0  0  0  0  0  0  0  0  0  0  0
   -6.3530    4.7440  -16.2764 C   0  0  0  0  0  0  0  0  0  0  0  0
   -5.0362    5.0861  -16.0924 C   0  0  0  0  0  0  0  0  0  0  0  0
   -4.4746    5.2555  -17.3354 N   0  0  0  0  0  0  0  0  0  0  0  0
   -3.0420    5.5366  -17.6273 C   0  0  0  0  0  0  0  0  0  0  0  0
   -2.7761    7.0385  -17.8596 C   0  0  0  0  0  0  0  0  0  0  0  0
   -2.3182    7.1493  -16.4601 N   0  0  0  0  0  0  0  0  0  0  0  0
   -2.0813    5.6918  -16.4349 C   0  0  0  0  0  0  0  0  0  0  0  0
   -3.0363    7.4675  -15.8092 H   0  0  0  0  0  0  0  0  0  0  0  0
   -7.0678    4.4636  -13.8474 C   0  0  0  0  0  0  0  0  0  0  0  0
   -6.0071    4.1120  -13.3473 O   0  0  0  0  0  0  0  0  0  0  0  0
   -8.1029    5.0554  -12.9286 C   0  0  0  0  0  0  0  0  0  0  0  0
   -8.8083    5.9722  -13.3348 O   0  0  0  0  0  0  0  0  0  0  0  0
   -8.1206    4.7056  -11.5027 C   0  0  0  0  0  0  0  0  0  0  0  0
   -7.8607    5.7553  -10.5993 C   0  0  0  0  0  0  0  0  0  0  0  0
   -8.0046    5.5580   -9.2285 C   0  0  0  0  0  0  0  0  0  0  0  0
   -8.4274    4.3149   -8.7951 C   0  0  0  0  0  0  0  0  0  0  0  0
   -8.6618    3.2706   -9.6886 C   0  0  0  0  0  0  0  0  0  0  0  0
   -8.5101    3.4399  -11.0580 C   0  0  0  0  0  0  0  0  0  0  0  0
   -9.0724    2.0588   -8.9199 C   0  0  0  0  0  0  0  0  0  0  0  0
   -9.3144    2.5172   -7.5260 N   0  0  0  0  0  0  0  0  0  0  0  0
   -8.7311    3.8670   -7.4062 C   0  0  0  0  0  0  0  0  0  0  0  0
   -8.8656    1.8821   -6.8659 H   0  0  0  0  0  0  0  0  0  0  0  0
  1  2  1  0  0  0
  2  3  2  0  0  0
  3  4  1  0  0  0
  4  5  2  0  0  0
  5  6  1  0  0  0
  5  7  1  0  0  0
  7  8  2  0  0  0
  8 17  1  0  0  0
 17 18  2  0  0  0
 17 19  1  0  0  0
 19 20  2  0  0  0
 19 21  1  0  0  0
 21 22  2  0  0  0
 22 23  1  0  0  0
 23 24  2  0  0  0
 24 25  1  0  0  0
 25 26  2  0  0  0
 25 27  1  0  0  0
 27 28  1  0  0  0
 28 29  1  0  0  0
  8  9  1  0  0  0
  9 10  2  0  0  0
 10 11  1  0  0  0
 11 12  1  0  0  0
 12 13  1  0  0  0
 13 14  1  0  0  0
 14 15  1  0  0  0
 11  2  1  0  0  0
 15 12  1  0  0  0
  9  3  1  0  0  0
 26 21  1  0  0  0
 29 24  1  0  0  0
 28 30  1  0  0  0
 14 16  1  0  0  0
M  END
> <minimizedAffinity>
-9.13292

> <minimizedRMSD>
0.59231

$$$$
P24932


 33 37  0  0  0  0  0  0  0  0999 V2000
   -4.8010    5.2132  -17.4505 N   0  0  0  0  0  0  0  0  0  0  0  0
   -5.3842    5.2126  -16.1962 C   0  0  0  0  0  0  0  0  0  0  0  0
   -6.6905    4.8225  -16.3520 C   0  0  0  0  0  0  0  0  0  0  0  0
   -7.6713    4.6726  -15.3680 C   0  0  0  0  0  0  0  0  0  0  0  0
   -8.8911    4.2124  -15.9181 C   0  0  0  0  0  0  0  0  0  0  0  0
   -9.0761    3.9663  -17.3183 C   0  0  0  0  0  0  0  0  0  0  0  0
  -10.2868    3.5526  -17.7202 F   0  0  0  0  0  0  0  0  0  0  0  0
   -8.0954    4.1535  -18.3103 C   0  0  0  0  0  0  0  0  0  0  0  0
   -6.8997    4.5782  -17.7421 C   0  0  0  0  0  0  0  0  0  0  0  0
   -5.7378    4.8728  -18.4175 C   0  0  0  0  0  0  0  0  0  0  0  0
   -5.4767    4.8696  -19.7410 N   0  0  0  0  0  0  0  0  0  0  0  0
   -6.1814    4.6189  -20.3812 H   0  0  0  0  0  0  0  0  0  0  0  0
   -4.5815    5.1180  -20.0668 H   0  0  0  0  0  0  0  0  0  0  0  0
   -4.1006    8.0689  -18.1700 C   0  0  0  0  0  0  0  0  0  0  0  0
   -3.0565    6.9653  -18.1784 C   0  0  0  0  0  0  0  0  0  0  0  0
   -3.3596    5.5539  -17.6092 C   0  0  0  0  0  0  0  0  0  0  0  0
   -2.6478    5.0260  -18.8692 C   0  0  0  0  0  0  0  0  0  0  0  0
   -2.8972    6.3424  -19.5212 N   0  0  0  0  0  0  0  0  0  0  0  0
   -1.6847    6.8108  -20.1842 C   0  0  0  0  0  0  0  0  0  0  0  0
   -7.5177    5.0996  -13.9651 C   0  0  0  0  0  0  0  0  0  0  0  0
   -6.9672    6.1077  -13.7526 O   0  0  0  0  0  0  0  0  0  0  0  0
   -8.2029    4.1080  -12.9962 N   0  0  0  0  0  0  0  0  0  0  0  0
   -8.6682    3.3590  -13.4340 H   0  0  0  0  0  0  0  0  0  0  0  0
   -8.2691    4.1023  -11.6027 C   0  0  0  0  0  0  0  0  0  0  0  0
   -7.9324    5.2483  -10.8613 C   0  0  0  0  0  0  0  0  0  0  0  0
   -8.0304    5.2587   -9.4658 C   0  0  0  0  0  0  0  0  0  0  0  0
   -8.4711    4.1114   -8.8362 C   0  0  0  0  0  0  0  0  0  0  0  0
   -8.7830    2.9665   -9.5651 C   0  0  0  0  0  0  0  0  0  0  0  0
   -8.6908    2.9420  -10.9473 C   0  0  0  0  0  0  0  0  0  0  0  0
   -9.1594    1.8803   -8.6115 C   0  0  0  0  0  0  0  0  0  0  0  0
   -9.4782    2.5861   -7.3420 N   0  0  0  0  0  0  0  0  0  0  0  0
   -8.6887    3.8366   -7.3851 C   0  0  0  0  0  0  0  0  0  0  0  0
   -9.2062    2.0187   -6.5392 H   0  0  0  0  0  0  0  0  0  0  0  0
 15 14  1  0  0  0
 15 16  1  0  0  0
 16  1  1  0  0  0
  1  2  1  0  0  0
  2  3  2  0  0  0
  3  4  1  0  0  0
  4 20  1  0  0  0
 20 21  2  0  0  0
 20 22  1  0  0  0
 22 24  1  0  0  0
 24 25  2  0  0  0
 25 26  1  0  0  0
 26 27  2  0  0  0
 27 28  1  0  0  0
 28 29  2  0  0  0
 28 30  1  0  0  0
 30 31  1  0  0  0
 31 32  1  0  0  0
  4  5  2  0  0  0
  5  6  1  0  0  0
  6  7  1  0  0  0
  6  8  2  0  0  0
  8  9  1  0  0  0
  9 10  2  0  0  0
 10 11  1  0  0  0
 16 17  1  0  0  0
 17 18  1  0  0  0
 18 19  1  0  0  0
 18 15  1  0  0  0
 10  1  1  0  0  0
  9  3  1  0  0  0
 29 24  1  0  0  0
 32 27  1  0  0  0
 22 23  1  0  0  0
 31 33  1  0  0  0
 11 12  1  0  0  0
 11 13  1  0  0  0
M  END
> <minimizedAffinity>
-9.91115

> <minimizedRMSD>
0.80645

$$$$
P24941


 40 45  0  0  0  0  0  0  0  0999 V2000
   -7.2780    4.8246  -13.7648 C   0  0  0  0  0  0  0  0  0  0  0  0
   -6.0416    4.1974  -13.5032 O   0  0  0  0  0  0  0  0  0  0  0  0
   -5.8195    4.2995  -12.5645 H   0  0  0  0  0  0  0  0  0  0  0  0
   -7.5449    4.6138  -15.2580 C   0  0  0  0  0  0  0  0  0  0  0  0
   -8.8021    4.2065  -15.7999 C   0  0  0  0  0  0  0  0  0  0  0  0
   -9.0804    3.9975  -17.1885 C   0  0  0  0  0  0  0  0  0  0  0  0
  -10.3264    3.6424  -17.5354 F   0  0  0  0  0  0  0  0  0  0  0  0
   -8.1485    4.1685  -18.2128 C   0  0  0  0  0  0  0  0  0  0  0  0
   -6.9017    4.5849  -17.7417 C   0  0  0  0  0  0  0  0  0  0  0  0
   -5.8008    4.8840  -18.4445 N   0  0  0  0  0  0  0  0  0  0  0  0
   -4.8720    5.1870  -17.5273 N   0  0  0  0  0  0  0  0  0  0  0  0
   -5.3367    5.1827  -16.2412 C   0  0  0  0  0  0  0  0  0  0  0  0
   -6.6452    4.7842  -16.3277 C   0  0  0  0  0  0  0  0  0  0  0  0
   -3.5294    5.6533  -17.8922 C   0  0  0  0  0  0  0  0  0  0  0  0
   -2.6163    4.5283  -18.3999 C   0  0  0  0  0  0  0  0  0  0  0  0
   -2.0649    5.5027  -19.3776 N   0  0  0  0  0  0  0  0  0  0  0  0
   -3.3925    6.1772  -19.3399 C   0  0  0  0  0  0  0  0  0  0  0  0
   -1.8143    5.1040  -20.2824 H   0  0  0  0  0  0  0  0  0  0  0  0
   -6.2457    7.0302  -13.4193 O   0  0  0  0  0  0  0  0  0  0  0  0
   -7.2500    6.4249  -13.4742 C   0  0  0  0  0  0  0  0  0  0  0  0
   -8.7297    6.8931  -13.2577 N   0  0  0  0  0  0  0  0  0  0  0  0
   -9.4104    6.2046  -13.4361 H   0  0  0  0  0  0  0  0  0  0  0  0
   -9.2634    8.1868  -12.8336 C   0  0  0  0  0  0  0  0  0  0  0  0
  -10.6245    8.4793  -13.4810 C   0  0  0  0  0  0  0  0  0  0  0  0
  -10.7381    9.9204  -13.9563 C   0  0  0  0  0  0  0  0  0  0  0  0
  -10.2860   10.8025  -12.9364 O   0  0  0  0  0  0  0  0  0  0  0  0
   -8.9015   10.6723  -12.6237 C   0  0  0  0  0  0  0  0  0  0  0  0
   -8.2804    9.3396  -13.0257 C   0  0  0  0  0  0  0  0  0  0  0  0
   -8.2960    4.1110  -12.9561 N   0  0  0  0  0  0  0  0  0  0  0  0
   -9.0391    3.6638  -13.4219 H   0  0  0  0  0  0  0  0  0  0  0  0
   -8.2447    4.0456  -11.5458 C   0  0  0  0  0  0  0  0  0  0  0  0
   -7.8784    5.1342  -10.7258 C   0  0  0  0  0  0  0  0  0  0  0  0
   -8.0290    5.1075   -9.3351 C   0  0  0  0  0  0  0  0  0  0  0  0
   -8.5228    3.9614   -8.7567 C   0  0  0  0  0  0  0  0  0  0  0  0
   -8.8247    2.8477   -9.5276 C   0  0  0  0  0  0  0  0  0  0  0  0
   -8.7242    2.8841  -10.9113 C   0  0  0  0  0  0  0  0  0  0  0  0
   -9.2180    1.7319   -8.6123 C   0  0  0  0  0  0  0  0  0  0  0  0
   -9.5742    2.4004   -7.3346 N   0  0  0  0  0  0  0  0  0  0  0  0
   -8.8148    3.6669   -7.3245 C   0  0  0  0  0  0  0  0  0  0  0  0
   -9.3062    1.8180   -6.5412 H   0  0  0  0  0  0  0  0  0  0  0  0
 19 20  2  0  0  0
 20 21  1  0  0  0
 21 23  1  0  0  0
 23 24  1  0  0  0
 24 25  1  0  0  0
 25 26  1  0  0  0
 26 27  1  0  0  0
 27 28  1  0  0  0
 20  1  1  0  0  0
  1  2  1  0  0  0
  1 29  1  0  0  0
 29 31  1  0  0  0
 31 32  2  0  0  0
 32 33  1  0  0  0
 33 34  2  0  0  0
 34 35  1  0  0  0
 35 36  2  0  0  0
 35 37  1  0  0  0
 37 38  1  0  0  0
 38 39  1  0  0  0
  1  4  1  0  0  0
  4  5  2  0  0  0
  5  6  1  0  0  0
  6  7  1  0  0  0
  6  8  2  0  0  0
  8  9  1  0  0  0
  9 10  2  0  0  0
 10 11  1  0  0  0
 11 14  1  0  0  0
 14 15  1  0  0  0
 15 16  1  0  0  0
 16 17  1  0  0  0
 11 12  1  0  0  0
 12 13  2  0  0  0
 28 23  1  0  0  0
 36 31  1  0  0  0
 13  4  1  0  0  0
 39 34  1  0  0  0
 13  9  1  0  0  0
 17 14  1  0  0  0
 21 22  1  0  0  0
  2  3  1  0  0  0
 29 30  1  0  0  0
 38 40  1  0  0  0
 16 18  1  0  0  0
M  END
> <minimizedAffinity>
-9.75053

> <minimizedRMSD>
0.44038

$$$$
P24946


 31 35  0  0  0  0  0  0  0  0999 V2000
   -8.5877    4.0709  -17.0958 C   0  0  0  0  0  0  0  0  0  0  0  0
   -8.3848    4.2501  -15.6795 C   0  0  0  0  0  0  0  0  0  0  0  0
   -7.1601    4.6859  -15.1163 C   0  0  0  0  0  0  0  0  0  0  0  0
   -6.1900    4.9194  -16.0922 C   0  0  0  0  0  0  0  0  0  0  0  0
   -4.9081    5.3694  -15.9297 C   0  0  0  0  0  0  0  0  0  0  0  0
   -4.3379    5.4899  -17.1839 N   0  0  0  0  0  0  0  0  0  0  0  0
   -5.2399    5.0967  -18.1666 C   0  0  0  0  0  0  0  0  0  0  0  0
   -4.9966    5.0975  -19.6368 C   0  0  0  0  0  0  0  0  0  0  0  0
   -6.3803    4.7187  -17.4820 C   0  0  0  0  0  0  0  0  0  0  0  0
   -7.5552    4.2591  -18.0576 C   0  0  0  0  0  0  0  0  0  0  0  0
   -2.9833    6.0823  -17.3033 C   0  0  0  0  0  0  0  0  0  0  0  0
   -1.9722    5.4282  -18.2490 C   0  0  0  0  0  0  0  0  0  0  0  0
   -1.6159    6.7802  -18.7409 N   0  0  0  0  0  0  0  0  0  0  0  0
   -2.9022    7.3026  -18.2311 C   0  0  0  0  0  0  0  0  0  0  0  0
   -1.5135    6.8414  -19.7539 H   0  0  0  0  0  0  0  0  0  0  0  0
   -6.9885    4.9794  -13.6848 C   0  0  0  0  0  0  0  0  0  0  0  0
   -6.2115    5.7893  -13.3624 O   0  0  0  0  0  0  0  0  0  0  0  0
   -7.9311    4.0990  -12.8316 N   0  0  0  0  0  0  0  0  0  0  0  0
   -8.4431    3.4299  -13.3408 H   0  0  0  0  0  0  0  0  0  0  0  0
   -8.1736    4.0988  -11.4602 C   0  0  0  0  0  0  0  0  0  0  0  0
   -7.9375    5.2473  -10.6863 C   0  0  0  0  0  0  0  0  0  0  0  0
   -8.1390    5.2352   -9.3031 C   0  0  0  0  0  0  0  0  0  0  0  0
   -8.5739    4.0616   -8.7183 C   0  0  0  0  0  0  0  0  0  0  0  0
   -8.8117    2.9247   -9.4831 C   0  0  0  0  0  0  0  0  0  0  0  0
   -8.6246    2.9227  -10.8562 C   0  0  0  0  0  0  0  0  0  0  0  0
   -9.2111    1.8043   -8.5845 C   0  0  0  0  0  0  0  0  0  0  0  0
   -9.4555    2.4184   -7.2584 N   0  0  0  0  0  0  0  0  0  0  0  0
   -8.8400    3.7582   -7.2824 C   0  0  0  0  0  0  0  0  0  0  0  0
   -9.0297    1.8507   -6.5258 H   0  0  0  0  0  0  0  0  0  0  0  0
  -10.3803    4.6300  -18.7431 C   0  0  0  0  0  0  0  0  0  0  0  0
   -9.9824    3.7386  -17.5854 C   0  0  0  0  0  0  0  0  0  0  0  0
 30 31  1  0  0  0
 31  1  1  0  0  0
  1  2  1  0  0  0
  2  3  2  0  0  0
  3 16  1  0  0  0
 16 17  2  0  0  0
 16 18  1  0  0  0
 18 20  1  0  0  0
 20 21  2  0  0  0
 21 22  1  0  0  0
 22 23  2  0  0  0
 23 24  1  0  0  0
 24 25  2  0  0  0
 24 26  1  0  0  0
 26 27  1  0  0  0
 27 28  1  0  0  0
  3  4  1  0  0  0
  4  5  2  0  0  0
  5  6  1  0  0  0
  6 11  1  0  0  0
 11 12  1  0  0  0
 12 13  1  0  0  0
 13 14  1  0  0  0
  6  7  1  0  0  0
  7  8  1  0  0  0
  7  9  2  0  0  0
  9 10  1  0  0  0
 10  1  2  0  0  0
 25 20  1  0  0  0
  9  4  1  0  0  0
 28 23  1  0  0  0
 14 11  1  0  0  0
 18 19  1  0  0  0
 27 29  1  0  0  0
 13 15  1  0  0  0
M  END
> <minimizedAffinity>
-8.65009

> <minimizedRMSD>
0.92023

$$$$
P24951


 30 34  0  0  0  0  0  0  0  0999 V2000
   -5.0643    4.8236  -19.5015 C   0  0  0  0  0  0  0  0  0  0  0  0
   -5.4833    4.8666  -18.0736 C   0  0  0  0  0  0  0  0  0  0  0  0
   -6.7293    4.6272  -17.5227 C   0  0  0  0  0  0  0  0  0  0  0  0
   -7.8795    4.2433  -18.2071 C   0  0  0  0  0  0  0  0  0  0  0  0
   -8.9684    4.1075  -17.3218 C   0  0  0  0  0  0  0  0  0  0  0  0
  -10.1425    3.7167  -17.8385 F   0  0  0  0  0  0  0  0  0  0  0  0
   -8.9257    4.3712  -15.9155 C   0  0  0  0  0  0  0  0  0  0  0  0
   -7.7528    4.7877  -15.2466 C   0  0  0  0  0  0  0  0  0  0  0  0
   -6.6674    4.8779  -16.1214 C   0  0  0  0  0  0  0  0  0  0  0  0
   -5.3726    5.2084  -15.8255 C   0  0  0  0  0  0  0  0  0  0  0  0
   -4.6507    5.1749  -17.0031 N   0  0  0  0  0  0  0  0  0  0  0  0
   -3.2040    5.5203  -16.9730 C   0  0  0  0  0  0  0  0  0  0  0  0
   -2.3020    4.9805  -18.0817 C   0  0  0  0  0  0  0  0  0  0  0  0
   -2.2119    6.3282  -18.6663 N   0  0  0  0  0  0  0  0  0  0  0  0
   -2.8785    6.9212  -17.4996 C   0  0  0  0  0  0  0  0  0  0  0  0
   -2.7341    6.4346  -19.5360 H   0  0  0  0  0  0  0  0  0  0  0  0
   -7.7280    5.2288  -13.8400 C   0  0  0  0  0  0  0  0  0  0  0  0
   -7.4220    6.3329  -13.6119 O   0  0  0  0  0  0  0  0  0  0  0  0
   -8.1940    4.1013  -12.8901 N   0  0  0  0  0  0  0  0  0  0  0  0
   -8.4704    3.2707  -13.3407 H   0  0  0  0  0  0  0  0  0  0  0  0
   -8.2867    4.0694  -11.4991 C   0  0  0  0  0  0  0  0  0  0  0  0
   -7.9793    5.2059  -10.7307 C   0  0  0  0  0  0  0  0  0  0  0  0
   -8.1014    5.1889   -9.3374 C   0  0  0  0  0  0  0  0  0  0  0  0
   -8.5397    4.0248   -8.7378 C   0  0  0  0  0  0  0  0  0  0  0  0
   -8.8254    2.8905   -9.4938 C   0  0  0  0  0  0  0  0  0  0  0  0
   -8.7054    2.8918  -10.8739 C   0  0  0  0  0  0  0  0  0  0  0  0
   -9.2110    1.7836   -8.5687 C   0  0  0  0  0  0  0  0  0  0  0  0
   -9.5604    2.4624   -7.2923 N   0  0  0  0  0  0  0  0  0  0  0  0
   -8.7810    3.7199   -7.2965 C   0  0  0  0  0  0  0  0  0  0  0  0
   -9.2991    1.8821   -6.4952 H   0  0  0  0  0  0  0  0  0  0  0  0
  1  2  1  0  0  0
  2  3  2  0  0  0
  3  4  1  0  0  0
  4  5  2  0  0  0
  5  6  1  0  0  0
  5  7  1  0  0  0
  7  8  2  0  0  0
  8 17  1  0  0  0
 17 18  2  0  0  0
 17 19  1  0  0  0
 19 21  1  0  0  0
 21 22  2  0  0  0
 22 23  1  0  0  0
 23 24  2  0  0  0
 24 25  1  0  0  0
 25 26  2  0  0  0
 25 27  1  0  0  0
 27 28  1  0  0  0
 28 29  1  0  0  0
  8  9  1  0  0  0
  9 10  2  0  0  0
 10 11  1  0  0  0
 11 12  1  0  0  0
 12 13  1  0  0  0
 13 14  1  0  0  0
 14 15  1  0  0  0
 11  2  1  0  0  0
 15 12  1  0  0  0
  9  3  1  0  0  0
 26 21  1  0  0  0
 29 24  1  0  0  0
 19 20  1  0  0  0
 28 30  1  0  0  0
 14 16  1  0  0  0
M  END
> <minimizedAffinity>
-9.43311

> <minimizedRMSD>
0.64253

$$$$
P24953


 32 36  0  0  0  0  0  0  0  0999 V2000
   -5.0464    5.2935  -17.4521 C   0  0  0  0  0  0  0  0  0  0  0  0
   -6.3275    4.8020  -17.3360 C   0  0  0  0  0  0  0  0  0  0  0  0
   -7.1784    4.4121  -18.3715 C   0  0  0  0  0  0  0  0  0  0  0  0
   -8.4574    4.0650  -17.8826 C   0  0  0  0  0  0  0  0  0  0  0  0
   -9.3891    3.6738  -18.7671 F   0  0  0  0  0  0  0  0  0  0  0  0
   -8.8616    4.1528  -16.5165 C   0  0  0  0  0  0  0  0  0  0  0  0
   -7.9958    4.5854  -15.4888 C   0  0  0  0  0  0  0  0  0  0  0  0
   -6.7008    4.8739  -15.9555 C   0  0  0  0  0  0  0  0  0  0  0  0
   -5.5852    5.2546  -15.2250 C   0  0  0  0  0  0  0  0  0  0  0  0
   -5.4118    5.3108  -13.7449 C   0  0  0  0  0  0  0  0  0  0  0  0
   -4.6203    5.6077  -16.1654 N   0  0  0  0  0  0  0  0  0  0  0  0
   -3.3033    6.2771  -15.9679 C   0  0  0  0  0  0  0  0  0  0  0  0
   -3.2416    7.5048  -15.0542 C   0  0  0  0  0  0  0  0  0  0  0  0
   -2.0067    6.9477  -14.4553 N   0  0  0  0  0  0  0  0  0  0  0  0
   -2.3673    5.6036  -14.9616 C   0  0  0  0  0  0  0  0  0  0  0  0
   -1.9708    7.0136  -13.4381 H   0  0  0  0  0  0  0  0  0  0  0  0
   -8.5056    4.9530  -14.1571 C   0  0  0  0  0  0  0  0  0  0  0  0
   -9.1772    5.9038  -14.0707 O   0  0  0  0  0  0  0  0  0  0  0  0
   -8.0282    3.9638  -13.0733 N   0  0  0  0  0  0  0  0  0  0  0  0
   -7.5258    3.1891  -13.4150 H   0  0  0  0  0  0  0  0  0  0  0  0
   -8.1924    3.9884  -11.6889 C   0  0  0  0  0  0  0  0  0  0  0  0
   -7.8898    5.1459  -10.9509 C   0  0  0  0  0  0  0  0  0  0  0  0
   -8.0318    5.1713   -9.5601 C   0  0  0  0  0  0  0  0  0  0  0  0
   -8.4943    4.0317   -8.9308 C   0  0  0  0  0  0  0  0  0  0  0  0
   -8.8019    2.8885   -9.6579 C   0  0  0  0  0  0  0  0  0  0  0  0
   -8.6497    2.8427  -11.0358 C   0  0  0  0  0  0  0  0  0  0  0  0
   -9.2428    1.8135   -8.7247 C   0  0  0  0  0  0  0  0  0  0  0  0
   -9.3857    2.4578   -7.3916 N   0  0  0  0  0  0  0  0  0  0  0  0
   -8.7349    3.7813   -7.4820 C   0  0  0  0  0  0  0  0  0  0  0  0
   -8.9293    1.8906   -6.6772 H   0  0  0  0  0  0  0  0  0  0  0  0
   -3.6336    4.4798  -19.1175 C   0  0  0  0  0  0  0  0  0  0  0  0
   -4.2670    5.5904  -18.4975 O   0  0  0  0  0  0  0  0  0  0  0  0
 31 32  1  0  0  0
 32  1  1  0  0  0
  1  2  2  0  0  0
  2  3  1  0  0  0
  3  4  2  0  0  0
  4  5  1  0  0  0
  4  6  1  0  0  0
  6  7  2  0  0  0
  7 17  1  0  0  0
 17 18  2  0  0  0
 17 19  1  0  0  0
 19 21  1  0  0  0
 21 22  2  0  0  0
 22 23  1  0  0  0
 23 24  2  0  0  0
 24 25  1  0  0  0
 25 26  2  0  0  0
 25 27  1  0  0  0
 27 28  1  0  0  0
 28 29  1  0  0  0
  7  8  1  0  0  0
  8  9  2  0  0  0
  9 10  1  0  0  0
  9 11  1  0  0  0
 11 12  1  0  0  0
 12 13  1  0  0  0
 13 14  1  0  0  0
 14 15  1  0  0  0
 11  1  1  0  0  0
 15 12  1  0  0  0
  8  2  1  0  0  0
 26 21  1  0  0  0
 29 24  1  0  0  0
 19 20  1  0  0  0
 28 30  1  0  0  0
 14 16  1  0  0  0
M  END
> <minimizedAffinity>
-9.48812

> <minimizedRMSD>
0.85102

$$$$
P24955


 31 35  0  0  0  0  0  0  0  0999 V2000
   -4.8728    5.0107  -17.2523 C   0  0  0  0  0  0  0  0  0  0  0  0
   -6.2274    4.7510  -17.2782 C   0  0  0  0  0  0  0  0  0  0  0  0
   -7.0232    4.4239  -18.3793 C   0  0  0  0  0  0  0  0  0  0  0  0
   -8.3628    4.1919  -17.9825 C   0  0  0  0  0  0  0  0  0  0  0  0
   -9.2613    3.8691  -18.9288 F   0  0  0  0  0  0  0  0  0  0  0  0
   -8.8546    4.3059  -16.6425 C   0  0  0  0  0  0  0  0  0  0  0  0
   -8.0406    4.6712  -15.5506 C   0  0  0  0  0  0  0  0  0  0  0  0
   -6.7141    4.8652  -15.9374 C   0  0  0  0  0  0  0  0  0  0  0  0
   -5.6492    5.1565  -15.1230 C   0  0  0  0  0  0  0  0  0  0  0  0
   -4.5471    5.2767  -15.9339 N   0  0  0  0  0  0  0  0  0  0  0  0
   -3.1734    5.5301  -15.4430 C   0  0  0  0  0  0  0  0  0  0  0  0
   -3.0056    6.8911  -14.7252 C   0  0  0  0  0  0  0  0  0  0  0  0
   -2.1263    6.2041  -13.7503 N   0  0  0  0  0  0  0  0  0  0  0  0
   -2.8483    4.9460  -14.0463 C   0  0  0  0  0  0  0  0  0  0  0  0
   -2.2251    6.5312  -12.7893 H   0  0  0  0  0  0  0  0  0  0  0  0
   -8.5565    4.9774  -14.2072 C   0  0  0  0  0  0  0  0  0  0  0  0
   -9.3605    5.8183  -14.1075 O   0  0  0  0  0  0  0  0  0  0  0  0
   -7.9223    4.0665  -13.1340 N   0  0  0  0  0  0  0  0  0  0  0  0
   -7.3154    3.3758  -13.4859 H   0  0  0  0  0  0  0  0  0  0  0  0
   -8.0690    4.0630  -11.7476 C   0  0  0  0  0  0  0  0  0  0  0  0
   -7.7854    5.2133  -10.9903 C   0  0  0  0  0  0  0  0  0  0  0  0
   -7.9593    5.2236   -9.6026 C   0  0  0  0  0  0  0  0  0  0  0  0
   -8.4254    4.0728   -8.9985 C   0  0  0  0  0  0  0  0  0  0  0  0
   -8.6837    2.9242   -9.7429 C   0  0  0  0  0  0  0  0  0  0  0  0
   -8.5107    2.8977  -11.1166 C   0  0  0  0  0  0  0  0  0  0  0  0
   -9.1078    1.8365   -8.8118 C   0  0  0  0  0  0  0  0  0  0  0  0
   -9.5125    2.5431   -7.5679 N   0  0  0  0  0  0  0  0  0  0  0  0
   -8.7297    3.7983   -7.5630 C   0  0  0  0  0  0  0  0  0  0  0  0
   -9.2896    1.9794   -6.7476 H   0  0  0  0  0  0  0  0  0  0  0  0
   -3.0880    5.0366  -19.1129 N   0  0  0  0  0  0  0  0  0  0  0  0
   -3.9255    5.0099  -18.3117 C   0  0  0  0  0  0  0  0  0  0  0  0
 30 31  3  0  0  0
 31  1  1  0  0  0
  1  2  2  0  0  0
  2  3  1  0  0  0
  3  4  2  0  0  0
  4  5  1  0  0  0
  4  6  1  0  0  0
  6  7  2  0  0  0
  7 16  1  0  0  0
 16 17  2  0  0  0
 16 18  1  0  0  0
 18 20  1  0  0  0
 20 21  2  0  0  0
 21 22  1  0  0  0
 22 23  2  0  0  0
 23 24  1  0  0  0
 24 25  2  0  0  0
 24 26  1  0  0  0
 26 27  1  0  0  0
 27 28  1  0  0  0
  7  8  1  0  0  0
  8  9  2  0  0  0
  9 10  1  0  0  0
 10 11  1  0  0  0
 11 12  1  0  0  0
 12 13  1  0  0  0
 13 14  1  0  0  0
 10  1  1  0  0  0
 14 11  1  0  0  0
  8  2  1  0  0  0
 25 20  1  0  0  0
 28 23  1  0  0  0
 18 19  1  0  0  0
 27 29  1  0  0  0
 13 15  1  0  0  0
M  END
> <minimizedAffinity>
-9.23275

> <minimizedRMSD>
1.23027

$$$$
P24957


 33 37  0  0  0  0  0  0  0  0999 V2000
   -5.3182    5.0153  -18.2662 C   0  0  0  0  0  0  0  0  0  0  0  0
   -6.5283    4.6955  -17.6741 C   0  0  0  0  0  0  0  0  0  0  0  0
   -7.6927    4.2646  -18.3125 C   0  0  0  0  0  0  0  0  0  0  0  0
   -8.7451    4.0832  -17.3863 C   0  0  0  0  0  0  0  0  0  0  0  0
   -9.9477    3.7111  -17.8610 F   0  0  0  0  0  0  0  0  0  0  0  0
   -8.6420    4.3140  -15.9764 C   0  0  0  0  0  0  0  0  0  0  0  0
   -7.4587    4.7686  -15.3525 C   0  0  0  0  0  0  0  0  0  0  0  0
   -6.4200    4.9321  -16.2716 C   0  0  0  0  0  0  0  0  0  0  0  0
   -5.1441    5.3637  -16.0215 C   0  0  0  0  0  0  0  0  0  0  0  0
   -4.4907    5.4355  -17.2314 N   0  0  0  0  0  0  0  0  0  0  0  0
   -3.1322    5.9997  -17.4179 C   0  0  0  0  0  0  0  0  0  0  0  0
   -3.0871    7.5419  -17.4298 C   0  0  0  0  0  0  0  0  0  0  0  0
   -1.8466    7.4589  -16.6231 N   0  0  0  0  0  0  0  0  0  0  0  0
   -2.2811    6.1230  -16.1406 C   0  0  0  0  0  0  0  0  0  0  0  0
   -1.7729    8.1661  -15.8918 H   0  0  0  0  0  0  0  0  0  0  0  0
   -3.8185    4.0490  -19.8924 N   0  0  0  0  0  0  0  0  0  0  0  0
   -4.9074    4.9878  -19.6967 C   0  0  0  0  0  0  0  0  0  0  0  0
   -3.5487    4.0416  -20.8761 H   0  0  0  0  0  0  0  0  0  0  0  0
   -4.1210    3.1150  -19.6158 H   0  0  0  0  0  0  0  0  0  0  0  0
   -7.3885    5.1976  -13.9443 C   0  0  0  0  0  0  0  0  0  0  0  0
   -6.8750    6.2187  -13.7036 O   0  0  0  0  0  0  0  0  0  0  0  0
   -8.0722    4.1750  -13.0090 N   0  0  0  0  0  0  0  0  0  0  0  0
   -8.5017    3.4182  -13.4695 H   0  0  0  0  0  0  0  0  0  0  0  0
   -8.1798    4.1497  -11.6186 C   0  0  0  0  0  0  0  0  0  0  0  0
   -7.8784    5.2893  -10.8519 C   0  0  0  0  0  0  0  0  0  0  0  0
   -8.0140    5.2787   -9.4598 C   0  0  0  0  0  0  0  0  0  0  0  0
   -8.4630    4.1188   -8.8599 C   0  0  0  0  0  0  0  0  0  0  0  0
   -8.7416    2.9811   -9.6135 C   0  0  0  0  0  0  0  0  0  0  0  0
   -8.6032    2.9748  -10.9919 C   0  0  0  0  0  0  0  0  0  0  0  0
   -9.1464    1.8813   -8.6875 C   0  0  0  0  0  0  0  0  0  0  0  0
   -9.5148    2.5711   -7.4224 N   0  0  0  0  0  0  0  0  0  0  0  0
   -8.7274    3.8233   -7.4208 C   0  0  0  0  0  0  0  0  0  0  0  0
   -9.2719    1.9946   -6.6167 H   0  0  0  0  0  0  0  0  0  0  0  0
 16 17  1  0  0  0
 17  1  1  0  0  0
  1  2  2  0  0  0
  2  3  1  0  0  0
  3  4  2  0  0  0
  4  5  1  0  0  0
  4  6  1  0  0  0
  6  7  2  0  0  0
  7 20  1  0  0  0
 20 21  2  0  0  0
 20 22  1  0  0  0
 22 24  1  0  0  0
 24 25  2  0  0  0
 25 26  1  0  0  0
 26 27  2  0  0  0
 27 28  1  0  0  0
 28 29  2  0  0  0
 28 30  1  0  0  0
 30 31  1  0  0  0
 31 32  1  0  0  0
  7  8  1  0  0  0
  8  9  2  0  0  0
  9 10  1  0  0  0
 10 11  1  0  0  0
 11 12  1  0  0  0
 12 13  1  0  0  0
 13 14  1  0  0  0
 10  1  1  0  0  0
 14 11  1  0  0  0
  8  2  1  0  0  0
 29 24  1  0  0  0
 32 27  1  0  0  0
 16 18  1  0  0  0
 16 19  1  0  0  0
 22 23  1  0  0  0
 31 33  1  0  0  0
 13 15  1  0  0  0
M  END
> <minimizedAffinity>
-9.13166

> <minimizedRMSD>
0.55914

$$$$
P24964


 23 25  0  0  0  0  0  0  0  0999 V2000
   -8.5011    4.9671  -14.1660 C   0  0  0  0  0  0  0  0  0  0  0  0
   -9.3404    5.7768  -14.0997 O   0  0  0  0  0  0  0  0  0  0  0  0
   -7.8768    4.0783  -13.0656 N   0  0  0  0  0  0  0  0  0  0  0  0
   -7.2300    3.4117  -13.3919 H   0  0  0  0  0  0  0  0  0  0  0  0
   -8.0808    4.0672  -11.6861 C   0  0  0  0  0  0  0  0  0  0  0  0
   -7.7559    5.1836  -10.8946 C   0  0  0  0  0  0  0  0  0  0  0  0
   -7.9401    5.1706   -9.5055 C   0  0  0  0  0  0  0  0  0  0  0  0
   -8.4649    4.0325   -8.9283 C   0  0  0  0  0  0  0  0  0  0  0  0
   -8.8019    2.9277   -9.7213 C   0  0  0  0  0  0  0  0  0  0  0  0
   -8.6090    2.9198  -11.0928 C   0  0  0  0  0  0  0  0  0  0  0  0
   -9.3630    1.8607   -8.8347 C   0  0  0  0  0  0  0  0  0  0  0  0
   -9.7902    2.6288   -7.6387 N   0  0  0  0  0  0  0  0  0  0  0  0
   -9.9535    1.7604   -6.4928 C   0  0  0  0  0  0  0  0  0  0  0  0
   -8.7601    3.6819   -7.4918 C   0  0  0  0  0  0  0  0  0  0  0  0
   -9.1795    4.8352   -6.5915 C   0  0  0  0  0  0  0  0  0  0  0  0
   -5.6165    5.3663  -14.6873 C   0  0  0  0  0  0  0  0  0  0  0  0
   -6.5671    4.9504  -15.7721 C   0  0  0  0  0  0  0  0  0  0  0  0
   -6.1027    4.8685  -17.0940 C   0  0  0  0  0  0  0  0  0  0  0  0
   -6.9593    4.4723  -18.1167 C   0  0  0  0  0  0  0  0  0  0  0  0
   -8.2728    4.1417  -17.8175 C   0  0  0  0  0  0  0  0  0  0  0  0
   -9.0832    3.7695  -18.8097 F   0  0  0  0  0  0  0  0  0  0  0  0
   -8.7727    4.2404  -16.5257 C   0  0  0  0  0  0  0  0  0  0  0  0
   -7.9229    4.6701  -15.5046 C   0  0  0  0  0  0  0  0  0  0  0  0
 16 17  1  0  0  0
 17 18  2  0  0  0
 18 19  1  0  0  0
 19 20  2  0  0  0
 20 21  1  0  0  0
 20 22  1  0  0  0
 22 23  2  0  0  0
 23  1  1  0  0  0
  1  2  2  0  0  0
  1  3  1  0  0  0
  3  5  1  0  0  0
  5  6  2  0  0  0
  6  7  1  0  0  0
  7  8  2  0  0  0
  8  9  1  0  0  0
  9 10  2  0  0  0
  9 11  1  0  0  0
 11 12  1  0  0  0
 12 13  1  0  0  0
 12 14  1  0  0  0
 14 15  1  0  0  0
 23 17  1  0  0  0
 10  5  1  0  0  0
 14  8  1  0  0  0
  3  4  1  0  0  0
M  END
> <minimizedAffinity>
-9.52184

> <minimizedRMSD>
0.79590

$$$$
P24965


 24 26  0  0  0  0  0  0  0  0999 V2000
   -8.5362    4.9480  -14.2139 C   0  0  0  0  0  0  0  0  0  0  0  0
   -9.3445    5.7872  -14.1318 O   0  0  0  0  0  0  0  0  0  0  0  0
   -7.9200    4.0395  -13.1243 N   0  0  0  0  0  0  0  0  0  0  0  0
   -7.3046    3.3495  -13.4626 H   0  0  0  0  0  0  0  0  0  0  0  0
   -8.0947    4.0387  -11.7377 C   0  0  0  0  0  0  0  0  0  0  0  0
   -7.8574    5.2015  -10.9832 C   0  0  0  0  0  0  0  0  0  0  0  0
   -8.0418    5.2106   -9.5928 C   0  0  0  0  0  0  0  0  0  0  0  0
   -8.4841    4.0494   -8.9834 C   0  0  0  0  0  0  0  0  0  0  0  0
   -8.7027    2.8910   -9.7264 C   0  0  0  0  0  0  0  0  0  0  0  0
   -8.5097    2.8652  -11.0999 C   0  0  0  0  0  0  0  0  0  0  0  0
   -9.1068    1.7931   -8.7957 C   0  0  0  0  0  0  0  0  0  0  0  0
   -9.5246    2.4885   -7.5525 N   0  0  0  0  0  0  0  0  0  0  0  0
   -8.7868    3.7679   -7.5467 C   0  0  0  0  0  0  0  0  0  0  0  0
   -9.2791    1.9321   -6.7336 H   0  0  0  0  0  0  0  0  0  0  0  0
   -7.7810    6.3922   -8.8289 C   0  0  0  0  0  0  0  0  0  0  0  0
   -7.5684    7.3365   -8.1873 N   0  0  0  0  0  0  0  0  0  0  0  0
   -5.6531    5.3277  -14.7745 C   0  0  0  0  0  0  0  0  0  0  0  0
   -6.6230    4.9269  -15.8477 C   0  0  0  0  0  0  0  0  0  0  0  0
   -6.1753    4.8563  -17.1762 C   0  0  0  0  0  0  0  0  0  0  0  0
   -7.0456    4.4739  -18.1912 C   0  0  0  0  0  0  0  0  0  0  0  0
   -8.3558    4.1431  -17.8788 C   0  0  0  0  0  0  0  0  0  0  0  0
   -9.1660    3.7592  -18.8673 F   0  0  0  0  0  0  0  0  0  0  0  0
   -8.8419    4.2346  -16.5792 C   0  0  0  0  0  0  0  0  0  0  0  0
   -7.9779    4.6522  -15.5637 C   0  0  0  0  0  0  0  0  0  0  0  0
 17 18  1  0  0  0
 18 19  2  0  0  0
 19 20  1  0  0  0
 20 21  2  0  0  0
 21 22  1  0  0  0
 21 23  1  0  0  0
 23 24  2  0  0  0
 24  1  1  0  0  0
  1  2  2  0  0  0
  1  3  1  0  0  0
  3  5  1  0  0  0
  5  6  2  0  0  0
  6  7  1  0  0  0
  7 15  1  0  0  0
 15 16  3  0  0  0
  7  8  2  0  0  0
  8  9  1  0  0  0
  9 10  2  0  0  0
  9 11  1  0  0  0
 11 12  1  0  0  0
 12 13  1  0  0  0
 24 18  1  0  0  0
 10  5  1  0  0  0
 13  8  1  0  0  0
  3  4  1  0  0  0
 12 14  1  0  0  0
M  END
> <minimizedAffinity>
-8.79475

> <minimizedRMSD>
0.77762

$$$$
P24966


 22 24  0  0  0  0  0  0  0  0999 V2000
   -7.3635    5.0964  -14.1829 C   0  0  0  0  0  0  0  0  0  0  0  0
   -6.8274    6.1101  -13.9595 O   0  0  0  0  0  0  0  0  0  0  0  0
   -7.9668    4.0469  -13.2186 N   0  0  0  0  0  0  0  0  0  0  0  0
   -8.2998    3.2295  -13.6549 H   0  0  0  0  0  0  0  0  0  0  0  0
   -8.1156    4.0706  -11.8314 C   0  0  0  0  0  0  0  0  0  0  0  0
   -7.7875    5.2160  -11.0837 C   0  0  0  0  0  0  0  0  0  0  0  0
   -7.9425    5.2410   -9.6923 C   0  0  0  0  0  0  0  0  0  0  0  0
   -8.4347    4.1089   -9.0732 C   0  0  0  0  0  0  0  0  0  0  0  0
   -8.7529    2.9669   -9.8100 C   0  0  0  0  0  0  0  0  0  0  0  0
   -8.6005    2.9285  -11.1866 C   0  0  0  0  0  0  0  0  0  0  0  0
   -9.2227    1.9041   -8.8655 C   0  0  0  0  0  0  0  0  0  0  0  0
   -9.5929    2.6548   -7.6466 N   0  0  0  0  0  0  0  0  0  0  0  0
   -9.4837    1.8977   -6.5053 F   0  0  0  0  0  0  0  0  0  0  0  0
   -8.7235    3.8454   -7.6283 C   0  0  0  0  0  0  0  0  0  0  0  0
   -5.0708    5.2169  -16.0793 C   0  0  0  0  0  0  0  0  0  0  0  0
   -6.4491    4.8134  -16.5194 C   0  0  0  0  0  0  0  0  0  0  0  0
   -6.6897    4.5775  -17.8835 C   0  0  0  0  0  0  0  0  0  0  0  0
   -7.9491    4.1713  -18.3236 C   0  0  0  0  0  0  0  0  0  0  0  0
   -8.9686    3.9890  -17.4012 C   0  0  0  0  0  0  0  0  0  0  0  0
  -10.1723    3.5835  -17.8221 F   0  0  0  0  0  0  0  0  0  0  0  0
   -8.7678    4.2443  -16.0508 C   0  0  0  0  0  0  0  0  0  0  0  0
   -7.5146    4.6770  -15.6077 C   0  0  0  0  0  0  0  0  0  0  0  0
 15 16  1  0  0  0
 16 17  2  0  0  0
 17 18  1  0  0  0
 18 19  2  0  0  0
 19 20  1  0  0  0
 19 21  1  0  0  0
 21 22  2  0  0  0
 22  1  1  0  0  0
  1  2  2  0  0  0
  1  3  1  0  0  0
  3  5  1  0  0  0
  5  6  2  0  0  0
  6  7  1  0  0  0
  7  8  2  0  0  0
  8  9  1  0  0  0
  9 10  2  0  0  0
  9 11  1  0  0  0
 11 12  1  0  0  0
 12 13  1  0  0  0
 12 14  1  0  0  0
 22 16  1  0  0  0
 10  5  1  0  0  0
 14  8  1  0  0  0
  3  4  1  0  0  0
M  END
> <minimizedAffinity>
-8.75701

> <minimizedRMSD>
0.47654

$$$$
P24967


 35 40  0  0  0  0  0  0  0  0999 V2000
   -7.6345    4.5916  -15.4577 C   0  0  0  0  0  0  0  0  0  0  0  0
   -8.8259    4.0131  -15.9405 C   0  0  0  0  0  0  0  0  0  0  0  0
   -9.0965    3.7974  -17.3249 C   0  0  0  0  0  0  0  0  0  0  0  0
  -10.3045    3.3293  -17.6739 F   0  0  0  0  0  0  0  0  0  0  0  0
   -8.2040    4.0928  -18.3587 C   0  0  0  0  0  0  0  0  0  0  0  0
   -7.0154    4.6606  -17.8995 C   0  0  0  0  0  0  0  0  0  0  0  0
   -5.9895    5.1239  -18.6114 N   0  0  0  0  0  0  0  0  0  0  0  0
   -5.1726    5.7064  -17.7221 N   0  0  0  0  0  0  0  0  0  0  0  0
   -5.5434    5.5193  -16.4201 C   0  0  0  0  0  0  0  0  0  0  0  0
   -6.7588    4.8888  -16.4994 C   0  0  0  0  0  0  0  0  0  0  0  0
   -4.3825    6.8547  -18.1448 C   0  0  0  0  0  0  0  0  0  0  0  0
   -2.9487    6.9485  -17.6403 C   0  0  0  0  0  0  0  0  0  0  0  0
   -2.5899    7.5251  -18.9757 N   0  0  0  0  0  0  0  0  0  0  0  0
   -3.7377    6.7070  -19.5642 C   0  0  0  0  0  0  0  0  0  0  0  0
   -3.1777    5.3836  -20.1119 C   0  0  0  0  0  0  0  0  0  0  0  0
   -2.4795    5.6617  -21.4443 C   0  0  0  0  0  0  0  0  0  0  0  0
   -3.2856    6.3654  -22.4575 N   0  0  0  0  0  0  0  0  0  0  0  0
   -4.6224    6.6883  -21.9466 C   0  0  0  0  0  0  0  0  0  0  0  0
   -4.5478    7.4704  -20.6320 C   0  0  0  0  0  0  0  0  0  0  0  0
   -1.6642    7.2653  -19.3162 H   0  0  0  0  0  0  0  0  0  0  0  0
   -3.3795    5.7692  -23.2798 H   0  0  0  0  0  0  0  0  0  0  0  0
   -6.8851    6.0166  -13.8531 O   0  0  0  0  0  0  0  0  0  0  0  0
   -7.4409    5.0099  -14.0570 C   0  0  0  0  0  0  0  0  0  0  0  0
   -8.0397    3.9793  -13.0734 N   0  0  0  0  0  0  0  0  0  0  0  0
   -8.3941    3.1639  -13.4962 H   0  0  0  0  0  0  0  0  0  0  0  0
   -8.1597    4.0162  -11.6858 C   0  0  0  0  0  0  0  0  0  0  0  0
   -7.8304    5.1702  -10.9547 C   0  0  0  0  0  0  0  0  0  0  0  0
   -7.9776    5.2058   -9.5632 C   0  0  0  0  0  0  0  0  0  0  0  0
   -8.4517    4.0736   -8.9288 C   0  0  0  0  0  0  0  0  0  0  0  0
   -8.7513    2.9202   -9.6483 C   0  0  0  0  0  0  0  0  0  0  0  0
   -8.6175    2.8735  -11.0252 C   0  0  0  0  0  0  0  0  0  0  0  0
   -9.1559    1.8474   -8.6921 C   0  0  0  0  0  0  0  0  0  0  0  0
   -9.5030    2.5701   -7.4407 N   0  0  0  0  0  0  0  0  0  0  0  0
   -8.7134    3.8207   -7.4809 C   0  0  0  0  0  0  0  0  0  0  0  0
   -9.2494    2.0135   -6.6245 H   0  0  0  0  0  0  0  0  0  0  0  0
 22 23  2  0  0  0
 23 24  1  0  0  0
 24 26  1  0  0  0
 26 27  2  0  0  0
 27 28  1  0  0  0
 28 29  2  0  0  0
 29 30  1  0  0  0
 30 31  2  0  0  0
 30 32  1  0  0  0
 32 33  1  0  0  0
 33 34  1  0  0  0
 23  1  1  0  0  0
  1  2  2  0  0  0
  2  3  1  0  0  0
  3  4  1  0  0  0
  3  5  2  0  0  0
  5  6  1  0  0  0
  6  7  2  0  0  0
  7  8  1  0  0  0
 11  8  1  0  0  0
 11 12  1  0  0  0
 12 13  1  0  0  0
 13 14  1  0  0  0
 14 15  1  0  0  0
 15 16  1  0  0  0
 16 17  1  0  0  0
 17 18  1  0  0  0
 18 19  1  0  0  0
  8  9  1  0  0  0
  9 10  2  0  0  0
 31 26  1  0  0  0
 10  1  1  0  0  0
 34 29  1  0  0  0
 10  6  1  0  0  0
 14 11  1  0  0  0
 19 14  1  0  0  0
 24 25  1  0  0  0
 33 35  1  0  0  0
 13 20  1  0  0  0
 17 21  1  0  0  0
M  END
> <minimizedAffinity>
-10.11125

> <minimizedRMSD>
0.46401

$$$$
P24976


 31 36  0  0  0  0  0  0  0  0999 V2000
   -7.3864    4.9274  -15.0870 C   0  0  0  0  0  0  0  0  0  0  0  0
   -8.5526    4.5216  -15.7868 C   0  0  0  0  0  0  0  0  0  0  0  0
   -8.5863    4.2902  -17.2020 C   0  0  0  0  0  0  0  0  0  0  0  0
  -10.2639    4.0922  -18.0138 Br  0  0  0  0  0  0  0  0  0  0  0  0
   -7.4916    4.3615  -18.0755 C   0  0  0  0  0  0  0  0  0  0  0  0
   -6.3881    4.7853  -17.3726 C   0  0  0  0  0  0  0  0  0  0  0  0
   -5.2368    5.2084  -17.9432 C   0  0  0  0  0  0  0  0  0  0  0  0
   -4.4904    5.7797  -16.9757 N   0  0  0  0  0  0  0  0  0  0  0  0
   -5.0831    5.6963  -15.7468 C   0  0  0  0  0  0  0  0  0  0  0  0
   -6.3099    5.0910  -15.9669 C   0  0  0  0  0  0  0  0  0  0  0  0
   -3.4325    6.5667  -17.4338 O   0  0  0  0  0  0  0  0  0  0  0  0
   -3.6773    6.6374  -18.8737 C   0  0  0  0  0  0  0  0  0  0  0  0
   -2.4516    6.4306  -19.6405 N   0  0  0  0  0  0  0  0  0  0  0  0
   -2.6599    5.2587  -20.4897 C   0  0  0  0  0  0  0  0  0  0  0  0
   -3.6660    4.4125  -19.7361 C   0  0  0  0  0  0  0  0  0  0  0  0
   -4.6271    5.4691  -19.2364 C   0  0  0  0  0  0  0  0  0  0  0  0
   -1.6680    6.2681  -19.0081 H   0  0  0  0  0  0  0  0  0  0  0  0
   -7.2510    6.4748  -13.4095 O   0  0  0  0  0  0  0  0  0  0  0  0
   -7.4596    5.3564  -13.6760 C   0  0  0  0  0  0  0  0  0  0  0  0
   -7.9232    4.1790  -12.7789 N   0  0  0  0  0  0  0  0  0  0  0  0
   -8.1031    3.3396  -13.2608 H   0  0  0  0  0  0  0  0  0  0  0  0
   -8.1266    4.1161  -11.4015 C   0  0  0  0  0  0  0  0  0  0  0  0
   -7.9020    5.2312  -10.5813 C   0  0  0  0  0  0  0  0  0  0  0  0
   -8.1480    5.1679   -9.2053 C   0  0  0  0  0  0  0  0  0  0  0  0
   -8.6100    3.9776   -8.6733 C   0  0  0  0  0  0  0  0  0  0  0  0
   -8.8285    2.8707   -9.4820 C   0  0  0  0  0  0  0  0  0  0  0  0
   -8.6018    2.9217  -10.8489 C   0  0  0  0  0  0  0  0  0  0  0  0
   -9.2670    1.7201   -8.6422 C   0  0  0  0  0  0  0  0  0  0  0  0
   -9.4831    2.2626   -7.2742 N   0  0  0  0  0  0  0  0  0  0  0  0
   -8.9285    3.6334   -7.2593 C   0  0  0  0  0  0  0  0  0  0  0  0
   -9.0014    1.6824   -6.5873 H   0  0  0  0  0  0  0  0  0  0  0  0
 18 19  2  0  0  0
 19 20  1  0  0  0
 20 22  1  0  0  0
 22 23  2  0  0  0
 23 24  1  0  0  0
 24 25  2  0  0  0
 25 26  1  0  0  0
 26 27  2  0  0  0
 26 28  1  0  0  0
 28 29  1  0  0  0
 29 30  1  0  0  0
 19  1  1  0  0  0
  1  2  2  0  0  0
  2  3  1  0  0  0
  3  4  1  0  0  0
  3  5  2  0  0  0
  5  6  1  0  0  0
  6  7  2  0  0  0
  7  8  1  0  0  0
  8  9  1  0  0  0
  9 10  2  0  0  0
  8 11  1  0  0  0
 11 12  1  0  0  0
 12 13  1  0  0  0
 13 14  1  0  0  0
 14 15  1  0  0  0
 16 15  1  0  0  0
 27 22  1  0  0  0
 10  1  1  0  0  0
 16 12  1  0  0  0
 30 25  1  0  0  0
 10  6  1  0  0  0
 16  7  1  0  0  0
 20 21  1  0  0  0
 29 31  1  0  0  0
 13 17  1  0  0  0
M  END
> <minimizedAffinity>
-9.39762

> <minimizedRMSD>
0.45440

$$$$
P24977


 31 35  0  0  0  0  0  0  0  0999 V2000
   -4.8062    5.0544  -17.9649 N   0  0  0  0  0  0  0  0  0  0  0  0
   -3.8402    5.2888  -17.0519 N   0  0  0  0  0  0  0  0  0  0  0  0
   -4.4779    5.2023  -15.8808 C   0  0  0  0  0  0  0  0  0  0  0  0
   -5.8483    4.8965  -16.0201 C   0  0  0  0  0  0  0  0  0  0  0  0
   -6.9465    4.6990  -15.1580 C   0  0  0  0  0  0  0  0  0  0  0  0
   -8.2029    4.4077  -15.7023 C   0  0  0  0  0  0  0  0  0  0  0  0
   -8.3540    4.3384  -17.0818 C   0  0  0  0  0  0  0  0  0  0  0  0
  -10.0708    4.1081  -17.7997 Br  0  0  0  0  0  0  0  0  0  0  0  0
   -7.2910    4.5367  -17.9626 C   0  0  0  0  0  0  0  0  0  0  0  0
   -6.0395    4.8077  -17.3991 C   0  0  0  0  0  0  0  0  0  0  0  0
   -3.2913    5.8026  -20.9196 N   0  0  0  0  0  0  0  0  0  0  0  0
   -3.2276    4.6515  -19.9508 C   0  0  0  0  0  0  0  0  0  0  0  0
   -4.5981    5.1282  -19.4255 C   0  0  0  0  0  0  0  0  0  0  0  0
   -4.1126    6.5172  -19.8904 C   0  0  0  0  0  0  0  0  0  0  0  0
   -5.1256    7.4174  -20.5529 C   0  0  0  0  0  0  0  0  0  0  0  0
   -1.5906    6.5016  -22.5219 C   0  0  0  0  0  0  0  0  0  0  0  0
   -1.9985    6.4686  -21.0563 C   0  0  0  0  0  0  0  0  0  0  0  0
   -6.8137    4.9487  -13.7030 C   0  0  0  0  0  0  0  0  0  0  0  0
   -6.0875    5.7952  -13.3548 O   0  0  0  0  0  0  0  0  0  0  0  0
   -7.7517    4.0308  -12.8820 N   0  0  0  0  0  0  0  0  0  0  0  0
   -8.2116    3.3363  -13.4068 H   0  0  0  0  0  0  0  0  0  0  0  0
   -8.0512    4.0275  -11.5206 C   0  0  0  0  0  0  0  0  0  0  0  0
   -7.8778    5.1789  -10.7365 C   0  0  0  0  0  0  0  0  0  0  0  0
   -8.1717    5.1667   -9.3685 C   0  0  0  0  0  0  0  0  0  0  0  0
   -8.6229    3.9878   -8.8045 C   0  0  0  0  0  0  0  0  0  0  0  0
   -8.7947    2.8471   -9.5771 C   0  0  0  0  0  0  0  0  0  0  0  0
   -8.5289    2.8497  -10.9384 C   0  0  0  0  0  0  0  0  0  0  0  0
   -9.2123    1.7148   -8.7024 C   0  0  0  0  0  0  0  0  0  0  0  0
   -9.4822    2.3023   -7.3626 N   0  0  0  0  0  0  0  0  0  0  0  0
   -8.9593    3.6851   -7.3849 C   0  0  0  0  0  0  0  0  0  0  0  0
   -9.0083    1.7600   -6.6402 H   0  0  0  0  0  0  0  0  0  0  0  0
 16 17  1  0  0  0
 17 11  1  0  0  0
 11 12  1  0  0  0
 12 13  1  0  0  0
 13  1  1  0  0  0
  1  2  1  0  0  0
  2  3  2  0  0  0
  3  4  1  0  0  0
  4  5  2  0  0  0
  5 18  1  0  0  0
 18 19  2  0  0  0
 18 20  1  0  0  0
 20 22  1  0  0  0
 22 23  2  0  0  0
 23 24  1  0  0  0
 24 25  2  0  0  0
 25 26  1  0  0  0
 26 27  2  0  0  0
 26 28  1  0  0  0
 28 29  1  0  0  0
 29 30  1  0  0  0
  5  6  1  0  0  0
  6  7  2  0  0  0
  7  8  1  0  0  0
  7  9  1  0  0  0
  9 10  2  0  0  0
 13 14  1  0  0  0
 14 15  1  0  0  0
 14 11  1  0  0  0
 10  1  1  0  0  0
 10  4  1  0  0  0
 27 22  1  0  0  0
 30 25  1  0  0  0
 20 21  1  0  0  0
 29 31  1  0  0  0
M  END
> <minimizedAffinity>
-8.82195

> <minimizedRMSD>
0.29263

$$$$
P24978


 32 36  0  0  0  0  0  0  0  0999 V2000
   -4.3534    5.5341  -17.3630 N   0  0  0  0  0  0  0  0  0  0  0  0
   -3.6443    5.9393  -16.2781 N   0  0  0  0  0  0  0  0  0  0  0  0
   -4.4824    5.8185  -15.2565 C   0  0  0  0  0  0  0  0  0  0  0  0
   -5.7340    5.3090  -15.6364 C   0  0  0  0  0  0  0  0  0  0  0  0
   -6.9317    5.0173  -14.9489 C   0  0  0  0  0  0  0  0  0  0  0  0
   -8.0237    4.5220  -15.6554 C   0  0  0  0  0  0  0  0  0  0  0  0
   -7.9113    4.3432  -17.0262 C   0  0  0  0  0  0  0  0  0  0  0  0
   -9.4455    3.8220  -17.9653 Br  0  0  0  0  0  0  0  0  0  0  0  0
   -6.7384    4.6241  -17.7420 C   0  0  0  0  0  0  0  0  0  0  0  0
   -5.6370    5.1153  -17.0251 C   0  0  0  0  0  0  0  0  0  0  0  0
   -5.3226    6.7487  -20.0104 N   0  0  0  0  0  0  0  0  0  0  0  0
   -3.9336    6.4135  -19.7975 C   0  0  0  0  0  0  0  0  0  0  0  0
   -3.5968    5.3176  -20.7165 N   0  0  0  0  0  0  0  0  0  0  0  0
   -3.8265    4.3463  -19.6126 C   0  0  0  0  0  0  0  0  0  0  0  0
   -3.6000    5.4794  -18.6337 C   0  0  0  0  0  0  0  0  0  0  0  0
   -5.4024    7.3738  -20.8124 H   0  0  0  0  0  0  0  0  0  0  0  0
   -5.6916    7.2122  -19.1800 H   0  0  0  0  0  0  0  0  0  0  0  0
   -2.6373    5.3402  -21.0618 H   0  0  0  0  0  0  0  0  0  0  0  0
   -7.0750    5.3982  -13.5210 C   0  0  0  0  0  0  0  0  0  0  0  0
   -6.7502    6.4776  -13.2133 O   0  0  0  0  0  0  0  0  0  0  0  0
   -7.7246    4.2691  -12.6846 N   0  0  0  0  0  0  0  0  0  0  0  0
   -7.9753    3.4676  -13.1984 H   0  0  0  0  0  0  0  0  0  0  0  0
   -8.0124    4.2025  -11.3214 C   0  0  0  0  0  0  0  0  0  0  0  0
   -7.8167    5.3196  -10.4930 C   0  0  0  0  0  0  0  0  0  0  0  0
   -8.0988    5.2590   -9.1249 C   0  0  0  0  0  0  0  0  0  0  0  0
   -8.5735    4.0690   -8.6069 C   0  0  0  0  0  0  0  0  0  0  0  0
   -8.7701    2.9618   -9.4224 C   0  0  0  0  0  0  0  0  0  0  0  0
   -8.5028    3.0092  -10.7833 C   0  0  0  0  0  0  0  0  0  0  0  0
   -9.2272    1.8123   -8.5901 C   0  0  0  0  0  0  0  0  0  0  0  0
   -9.5001    2.3634   -7.2358 N   0  0  0  0  0  0  0  0  0  0  0  0
   -8.9261    3.7246   -7.2008 C   0  0  0  0  0  0  0  0  0  0  0  0
   -9.0605    1.7792   -6.5246 H   0  0  0  0  0  0  0  0  0  0  0  0
 12 11  1  0  0  0
 12 13  1  0  0  0
 13 14  1  0  0  0
 14 15  1  0  0  0
 15  1  1  0  0  0
  1  2  1  0  0  0
  2  3  2  0  0  0
  3  4  1  0  0  0
  4  5  2  0  0  0
  5 19  1  0  0  0
 19 20  2  0  0  0
 19 21  1  0  0  0
 21 23  1  0  0  0
 23 24  2  0  0  0
 24 25  1  0  0  0
 25 26  2  0  0  0
 26 27  1  0  0  0
 27 28  2  0  0  0
 27 29  1  0  0  0
 29 30  1  0  0  0
 30 31  1  0  0  0
  5  6  1  0  0  0
  6  7  2  0  0  0
  7  8  1  0  0  0
  7  9  1  0  0  0
  9 10  2  0  0  0
 15 12  1  0  0  0
 10  1  1  0  0  0
 10  4  1  0  0  0
 28 23  1  0  0  0
 31 26  1  0  0  0
 11 16  1  0  0  0
 11 17  1  0  0  0
 13 18  1  0  0  0
 21 22  1  0  0  0
 30 32  1  0  0  0
M  END
> <minimizedAffinity>
-8.79687

> <minimizedRMSD>
0.20284

$$$$
P24980


 32 36  0  0  0  0  0  0  0  0999 V2000
   -2.7424    5.4280  -15.8551 N   0  0  0  0  0  0  0  0  0  0  0  0
   -4.1156    5.2040  -16.0460 N   0  0  0  0  0  0  0  0  0  0  0  0
   -5.0133    5.1787  -15.0202 C   0  0  0  0  0  0  0  0  0  0  0  0
   -6.2428    4.9418  -15.5760 C   0  0  0  0  0  0  0  0  0  0  0  0
   -7.4671    4.8810  -14.9102 C   0  0  0  0  0  0  0  0  0  0  0  0
   -8.5275    4.5768  -15.7861 C   0  0  0  0  0  0  0  0  0  0  0  0
   -8.3346    4.3969  -17.1929 C   0  0  0  0  0  0  0  0  0  0  0  0
   -9.8794    4.0772  -18.2267 Br  0  0  0  0  0  0  0  0  0  0  0  0
   -7.1032    4.5259  -17.8818 C   0  0  0  0  0  0  0  0  0  0  0  0
   -6.0638    4.7915  -16.9941 C   0  0  0  0  0  0  0  0  0  0  0  0
   -4.7431    5.0825  -17.2665 C   0  0  0  0  0  0  0  0  0  0  0  0
   -2.5415    5.4771  -14.8563 H   0  0  0  0  0  0  0  0  0  0  0  0
   -2.4763    6.3069  -16.2991 H   0  0  0  0  0  0  0  0  0  0  0  0
   -4.0289    5.4390  -18.6047 C   0  0  0  0  0  0  0  0  0  0  0  0
   -3.2553    4.3126  -19.3257 C   0  0  0  0  0  0  0  0  0  0  0  0
   -3.5030    5.0648  -20.6005 N   0  0  0  0  0  0  0  0  0  0  0  0
   -4.7696    5.5405  -19.9471 C   0  0  0  0  0  0  0  0  0  0  0  0
   -3.6368    4.4812  -21.4263 H   0  0  0  0  0  0  0  0  0  0  0  0
   -7.6981    5.3529  -13.5355 C   0  0  0  0  0  0  0  0  0  0  0  0
   -7.9780    6.4760  -13.3816 O   0  0  0  0  0  0  0  0  0  0  0  0
   -7.6168    4.1931  -12.5191 N   0  0  0  0  0  0  0  0  0  0  0  0
   -7.2797    3.3449  -12.8879 H   0  0  0  0  0  0  0  0  0  0  0  0
   -7.9427    4.1518  -11.1651 C   0  0  0  0  0  0  0  0  0  0  0  0
   -7.6965    5.2558  -10.3301 C   0  0  0  0  0  0  0  0  0  0  0  0
   -8.0172    5.2167   -8.9694 C   0  0  0  0  0  0  0  0  0  0  0  0
   -8.5829    4.0613   -8.4690 C   0  0  0  0  0  0  0  0  0  0  0  0
   -8.8229    2.9652   -9.2937 C   0  0  0  0  0  0  0  0  0  0  0  0
   -8.5156    2.9905  -10.6438 C   0  0  0  0  0  0  0  0  0  0  0  0
   -9.3584    1.8484   -8.4614 C   0  0  0  0  0  0  0  0  0  0  0  0
   -9.8172    2.4954   -7.2039 N   0  0  0  0  0  0  0  0  0  0  0  0
   -8.9929    3.7175   -7.0752 C   0  0  0  0  0  0  0  0  0  0  0  0
   -9.6665    1.8765   -6.4073 H   0  0  0  0  0  0  0  0  0  0  0  0
  1  2  1  0  0  0
  2  3  1  0  0  0
  3  4  2  0  0  0
  4  5  1  0  0  0
  5 19  1  0  0  0
 19 20  2  0  0  0
 19 21  1  0  0  0
 21 23  1  0  0  0
 23 24  2  0  0  0
 24 25  1  0  0  0
 25 26  2  0  0  0
 26 27  1  0  0  0
 27 28  2  0  0  0
 27 29  1  0  0  0
 29 30  1  0  0  0
 30 31  1  0  0  0
  5  6  2  0  0  0
  6  7  1  0  0  0
  7  8  1  0  0  0
  7  9  2  0  0  0
  9 10  1  0  0  0
 10 11  2  0  0  0
 11 14  1  0  0  0
 14 15  1  0  0  0
 15 16  1  0  0  0
 16 17  1  0  0  0
 11  2  1  0  0  0
 17 14  1  0  0  0
 10  4  1  0  0  0
 28 23  1  0  0  0
 31 26  1  0  0  0
  1 12  1  0  0  0
  1 13  1  0  0  0
 21 22  1  0  0  0
 30 32  1  0  0  0
 16 18  1  0  0  0
M  END
> <minimizedAffinity>
-9.04758

> <minimizedRMSD>
0.62732

$$$$
P25033


 35 40  0  0  0  0  0  0  0  0999 V2000
   -8.1004    5.1210  -14.9302 C   0  0  0  0  0  0  0  0  0  0  0  0
   -8.9460    4.0007  -15.5177 C   0  0  0  0  0  0  0  0  0  0  0  0
   -8.8451    3.8946  -17.0507 C   0  0  0  0  0  0  0  0  0  0  0  0
  -10.4165    4.3026  -17.8136 Cl  0  0  0  0  0  0  0  0  0  0  0  0
   -7.6728    4.6541  -17.7318 C   0  0  0  0  0  0  0  0  0  0  0  0
   -7.2240    3.7663  -19.1732 Cl  0  0  0  0  0  0  0  0  0  0  0  0
   -6.5075    4.9393  -16.8136 C   0  0  0  0  0  0  0  0  0  0  0  0
   -6.7120    5.1033  -15.4911 C   0  0  0  0  0  0  0  0  0  0  0  0
   -5.4106    5.4461  -14.8341 C   0  0  0  0  0  0  0  0  0  0  0  0
   -5.2231    6.9165  -14.4798 C   0  0  0  0  0  0  0  0  0  0  0  0
   -4.0370    6.8798  -13.5393 C   0  0  0  0  0  0  0  0  0  0  0  0
   -4.1134    5.6447  -12.8162 O   0  0  0  0  0  0  0  0  0  0  0  0
   -5.0234    4.7675  -13.5109 C   0  0  0  0  0  0  0  0  0  0  0  0
   -4.4132    5.1225  -15.9060 N   0  0  0  0  0  0  0  0  0  0  0  0
   -5.1540    5.1159  -17.1465 N   0  0  0  0  0  0  0  0  0  0  0  0
   -3.9954    4.2074  -15.7373 H   0  0  0  0  0  0  0  0  0  0  0  0
   -4.5561    6.0247  -18.1313 C   0  0  0  0  0  0  0  0  0  0  0  0
   -4.4501    5.5508  -19.5776 C   0  0  0  0  0  0  0  0  0  0  0  0
   -5.4379    6.5644  -19.9931 N   0  0  0  0  0  0  0  0  0  0  0  0
   -5.4052    7.1722  -18.6560 C   0  0  0  0  0  0  0  0  0  0  0  0
   -6.3458    6.1767  -20.2492 H   0  0  0  0  0  0  0  0  0  0  0  0
   -8.4563    6.6137  -13.1464 O   0  0  0  0  0  0  0  0  0  0  0  0
   -8.2903    5.4917  -13.4366 C   0  0  0  0  0  0  0  0  0  0  0  0
   -8.2532    4.2173  -12.5489 N   0  0  0  0  0  0  0  0  0  0  0  0
   -8.1725    3.3711  -13.0456 H   0  0  0  0  0  0  0  0  0  0  0  0
   -8.3154    4.0775  -11.1659 C   0  0  0  0  0  0  0  0  0  0  0  0
   -8.0294    5.1652  -10.3241 C   0  0  0  0  0  0  0  0  0  0  0  0
   -8.1381    5.0456   -8.9363 C   0  0  0  0  0  0  0  0  0  0  0  0
   -8.5463    3.8324   -8.4163 C   0  0  0  0  0  0  0  0  0  0  0  0
   -8.8211    2.7534   -9.2466 C   0  0  0  0  0  0  0  0  0  0  0  0
   -8.7008    2.8507  -10.6241 C   0  0  0  0  0  0  0  0  0  0  0  0
   -9.2196    1.5802   -8.4186 C   0  0  0  0  0  0  0  0  0  0  0  0
   -9.3471    2.0805   -7.0246 N   0  0  0  0  0  0  0  0  0  0  0  0
   -8.7645    3.4377   -6.9967 C   0  0  0  0  0  0  0  0  0  0  0  0
   -8.8400    1.4685   -6.3852 H   0  0  0  0  0  0  0  0  0  0  0  0
 22 23  2  0  0  0
 23 24  1  0  0  0
 24 26  1  0  0  0
 26 27  2  0  0  0
 27 28  1  0  0  0
 28 29  2  0  0  0
 29 30  1  0  0  0
 30 31  2  0  0  0
 30 32  1  0  0  0
 32 33  1  0  0  0
 33 34  1  0  0  0
  1 23  1  0  0  0
  1  2  1  0  0  0
  2  3  1  0  0  0
  3  4  1  0  0  0
  3  5  1  0  0  0
  5  6  1  0  0  0
  5  7  1  0  0  0
  7  8  2  0  0  0
  8  9  1  0  0  0
  9 10  1  0  0  0
 10 11  1  0  0  0
 11 12  1  0  0  0
 12 13  1  0  0  0
  9 14  1  0  0  0
 14 15  1  0  0  0
 15 17  1  0  0  0
 17 18  1  0  0  0
 18 19  1  0  0  0
 19 20  1  0  0  0
 31 26  1  0  0  0
  8  1  1  0  0  0
 13  9  1  0  0  0
 20 17  1  0  0  0
 34 29  1  0  0  0
 15  7  1  0  0  0
 24 25  1  0  0  0
 33 35  1  0  0  0
 14 16  1  0  0  0
 19 21  1  0  0  0
M  END
> <minimizedAffinity>
-8.68007

> <minimizedRMSD>
0.38163

$$$$
P25035


 31 35  0  0  0  0  0  0  0  0999 V2000
   -6.6129    5.5946  -12.8169 O   0  0  0  0  0  0  0  0  0  0  0  0
   -7.7691    5.0078  -13.3574 C   0  0  0  0  0  0  0  0  0  0  0  0
   -8.7782    5.9055  -13.1939 F   0  0  0  0  0  0  0  0  0  0  0  0
   -6.7526    5.7756  -11.8743 H   0  0  0  0  0  0  0  0  0  0  0  0
   -7.5520    4.7238  -14.8328 C   0  0  0  0  0  0  0  0  0  0  0  0
   -8.6631    4.3234  -15.5957 C   0  0  0  0  0  0  0  0  0  0  0  0
   -8.5939    4.2268  -16.9768 C   0  0  0  0  0  0  0  0  0  0  0  0
  -10.0350    3.8896  -17.8287 Cl  0  0  0  0  0  0  0  0  0  0  0  0
   -7.4313    4.5327  -17.6838 C   0  0  0  0  0  0  0  0  0  0  0  0
   -6.3003    4.9060  -16.9453 C   0  0  0  0  0  0  0  0  0  0  0  0
   -6.3423    4.9615  -15.5434 C   0  0  0  0  0  0  0  0  0  0  0  0
   -5.0244    5.3102  -15.1765 C   0  0  0  0  0  0  0  0  0  0  0  0
   -4.2206    5.4914  -16.2167 N   0  0  0  0  0  0  0  0  0  0  0  0
   -5.0199    5.3240  -17.2888 N   0  0  0  0  0  0  0  0  0  0  0  0
   -4.4918    5.8161  -18.5770 C   0  0  0  0  0  0  0  0  0  0  0  0
   -4.7187    4.9837  -19.8284 C   0  0  0  0  0  0  0  0  0  0  0  0
   -5.0617    6.2342  -20.5499 N   0  0  0  0  0  0  0  0  0  0  0  0
   -5.3690    6.8670  -19.2490 C   0  0  0  0  0  0  0  0  0  0  0  0
   -5.8621    6.1518  -21.1767 H   0  0  0  0  0  0  0  0  0  0  0  0
   -8.0672    3.8293  -12.5893 N   0  0  0  0  0  0  0  0  0  0  0  0
   -8.0930    2.9561  -13.0433 H   0  0  0  0  0  0  0  0  0  0  0  0
   -8.3227    3.8891  -11.2080 C   0  0  0  0  0  0  0  0  0  0  0  0
   -8.0681    5.0188  -10.3980 C   0  0  0  0  0  0  0  0  0  0  0  0
   -8.2007    4.9821   -9.0037 C   0  0  0  0  0  0  0  0  0  0  0  0
   -8.5944    3.7986   -8.4164 C   0  0  0  0  0  0  0  0  0  0  0  0
   -8.8566    2.6802   -9.1906 C   0  0  0  0  0  0  0  0  0  0  0  0
   -8.7171    2.7055  -10.5705 C   0  0  0  0  0  0  0  0  0  0  0  0
   -9.2226    1.5386   -8.3065 C   0  0  0  0  0  0  0  0  0  0  0  0
   -9.3638    2.1055   -6.9404 N   0  0  0  0  0  0  0  0  0  0  0  0
   -8.7850    3.4640   -6.9774 C   0  0  0  0  0  0  0  0  0  0  0  0
   -8.8602    1.5279   -6.2672 H   0  0  0  0  0  0  0  0  0  0  0  0
  2  1  1  0  0  0
  2  3  1  0  0  0
  2 20  1  0  0  0
 20 22  1  0  0  0
 22 23  2  0  0  0
 23 24  1  0  0  0
 24 25  2  0  0  0
 25 26  1  0  0  0
 26 27  2  0  0  0
 26 28  1  0  0  0
 28 29  1  0  0  0
 29 30  1  0  0  0
  2  5  1  0  0  0
  5  6  2  0  0  0
  6  7  1  0  0  0
  7  8  1  0  0  0
  7  9  2  0  0  0
  9 10  1  0  0  0
 10 11  2  0  0  0
 11 12  1  0  0  0
 12 13  2  0  0  0
 13 14  1  0  0  0
 14 15  1  0  0  0
 15 16  1  0  0  0
 16 17  1  0  0  0
 17 18  1  0  0  0
 27 22  1  0  0  0
 11  5  1  0  0  0
 18 15  1  0  0  0
 30 25  1  0  0  0
 14 10  1  0  0  0
  1  4  1  0  0  0
 20 21  1  0  0  0
 29 31  1  0  0  0
 17 19  1  0  0  0
M  END
> <minimizedAffinity>
-9.27403

> <minimizedRMSD>
0.24248

$$$$
P25036


 31 35  0  0  0  0  0  0  0  0999 V2000
   -7.4583    4.9687  -14.7966 C   0  0  0  0  0  0  0  0  0  0  0  0
   -8.6027    4.5791  -15.5025 C   0  0  0  0  0  0  0  0  0  0  0  0
   -8.5423    4.3863  -16.8873 C   0  0  0  0  0  0  0  0  0  0  0  0
   -7.3318    4.5493  -17.5878 C   0  0  0  0  0  0  0  0  0  0  0  0
   -6.1989    4.9386  -16.8639 C   0  0  0  0  0  0  0  0  0  0  0  0
   -6.2408    5.1283  -15.4846 C   0  0  0  0  0  0  0  0  0  0  0  0
   -4.9154    5.4554  -15.1343 C   0  0  0  0  0  0  0  0  0  0  0  0
   -4.0873    5.4577  -16.1782 N   0  0  0  0  0  0  0  0  0  0  0  0
   -4.9028    5.2502  -17.2347 N   0  0  0  0  0  0  0  0  0  0  0  0
   -4.4005    5.2719  -18.6305 C   0  0  0  0  0  0  0  0  0  0  0  0
   -4.5639    6.6404  -19.3045 C   0  0  0  0  0  0  0  0  0  0  0  0
   -3.1747    6.9842  -18.9612 N   0  0  0  0  0  0  0  0  0  0  0  0
   -2.8895    5.5435  -18.7731 C   0  0  0  0  0  0  0  0  0  0  0  0
   -3.0781    7.5451  -18.1148 H   0  0  0  0  0  0  0  0  0  0  0  0
   -7.3040    6.4581  -13.0842 O   0  0  0  0  0  0  0  0  0  0  0  0
   -7.5334    5.3485  -13.3669 C   0  0  0  0  0  0  0  0  0  0  0  0
   -7.9085    4.1444  -12.4740 N   0  0  0  0  0  0  0  0  0  0  0  0
   -7.9787    3.2850  -12.9492 H   0  0  0  0  0  0  0  0  0  0  0  0
   -8.1634    4.0770  -11.1063 C   0  0  0  0  0  0  0  0  0  0  0  0
   -7.9540    5.1955  -10.2823 C   0  0  0  0  0  0  0  0  0  0  0  0
   -8.1776    5.1258   -8.9044 C   0  0  0  0  0  0  0  0  0  0  0  0
   -8.5972    3.9223   -8.3719 C   0  0  0  0  0  0  0  0  0  0  0  0
   -8.8143    2.8167   -9.1847 C   0  0  0  0  0  0  0  0  0  0  0  0
   -8.6150    2.8760  -10.5559 C   0  0  0  0  0  0  0  0  0  0  0  0
   -9.2685    1.6706   -8.3483 C   0  0  0  0  0  0  0  0  0  0  0  0
   -9.1521    2.1129   -6.9327 N   0  0  0  0  0  0  0  0  0  0  0  0
   -8.9044    3.5706   -6.9583 C   0  0  0  0  0  0  0  0  0  0  0  0
   -8.3756    1.6328   -6.4778 H   0  0  0  0  0  0  0  0  0  0  0  0
   -9.7771    4.0241  -17.6515 C   0  0  0  0  0  0  0  0  0  0  0  0
   -9.7532    2.6163  -17.7895 O   0  0  0  0  0  0  0  0  0  0  0  0
   -8.9423    2.3503  -18.2505 H   0  0  0  0  0  0  0  0  0  0  0  0
 15 16  2  0  0  0
 16 17  1  0  0  0
 17 19  1  0  0  0
 19 20  2  0  0  0
 20 21  1  0  0  0
 21 22  2  0  0  0
 22 23  1  0  0  0
 23 24  2  0  0  0
 23 25  1  0  0  0
 25 26  1  0  0  0
 26 27  1  0  0  0
 16  1  1  0  0  0
  1  2  2  0  0  0
  2  3  1  0  0  0
  3 29  1  0  0  0
 29 30  1  0  0  0
  3  4  2  0  0  0
  4  5  1  0  0  0
  5  6  2  0  0  0
  6  7  1  0  0  0
  7  8  2  0  0  0
  8  9  1  0  0  0
  9 10  1  0  0  0
 10 11  1  0  0  0
 11 12  1  0  0  0
 12 13  1  0  0  0
 24 19  1  0  0  0
  6  1  1  0  0  0
 13 10  1  0  0  0
 27 22  1  0  0  0
  9  5  1  0  0  0
 17 18  1  0  0  0
 26 28  1  0  0  0
 30 31  1  0  0  0
 12 14  1  0  0  0
M  END
> <minimizedAffinity>
-8.46456

> <minimizedRMSD>
0.60613

$$$$
P25037


 29 33  0  0  0  0  0  0  0  0999 V2000
   -7.1620    4.6648  -15.1108 C   0  0  0  0  0  0  0  0  0  0  0  0
   -8.4158    4.2850  -15.6212 C   0  0  0  0  0  0  0  0  0  0  0  0
   -8.6229    4.2378  -17.0008 C   0  0  0  0  0  0  0  0  0  0  0  0
  -10.1693    3.8453  -17.6284 Cl  0  0  0  0  0  0  0  0  0  0  0  0
   -7.6112    4.5364  -17.9140 C   0  0  0  0  0  0  0  0  0  0  0  0
   -6.3788    4.9325  -17.3890 C   0  0  0  0  0  0  0  0  0  0  0  0
   -6.1481    5.0271  -16.0173 C   0  0  0  0  0  0  0  0  0  0  0  0
   -4.8098    5.4572  -15.9096 C   0  0  0  0  0  0  0  0  0  0  0  0
   -4.2374    5.6551  -17.0948 N   0  0  0  0  0  0  0  0  0  0  0  0
   -5.1678    5.2216  -17.9753 N   0  0  0  0  0  0  0  0  0  0  0  0
   -4.8792    5.0431  -19.4167 C   0  0  0  0  0  0  0  0  0  0  0  0
   -3.4432    4.5516  -19.6920 C   0  0  0  0  0  0  0  0  0  0  0  0
   -3.0138    5.9665  -19.8076 N   0  0  0  0  0  0  0  0  0  0  0  0
   -4.4182    6.3380  -20.0845 C   0  0  0  0  0  0  0  0  0  0  0  0
   -2.3705    6.1493  -20.5778 H   0  0  0  0  0  0  0  0  0  0  0  0
   -5.7338    4.0992  -13.4296 O   0  0  0  0  0  0  0  0  0  0  0  0
   -6.7992    4.5037  -13.6716 C   0  0  0  0  0  0  0  0  0  0  0  0
   -7.9802    4.8222  -12.7393 N   0  0  0  0  0  0  0  0  0  0  0  0
   -8.7580    5.2301  -13.1841 H   0  0  0  0  0  0  0  0  0  0  0  0
   -8.1274    4.6289  -11.3774 C   0  0  0  0  0  0  0  0  0  0  0  0
   -7.9835    5.7151  -10.5072 C   0  0  0  0  0  0  0  0  0  0  0  0
   -8.1198    5.5287   -9.1292 C   0  0  0  0  0  0  0  0  0  0  0  0
   -8.4876    4.2749   -8.6700 C   0  0  0  0  0  0  0  0  0  0  0  0
   -8.6755    3.2095   -9.5465 C   0  0  0  0  0  0  0  0  0  0  0  0
   -8.4486    3.3537  -10.9029 C   0  0  0  0  0  0  0  0  0  0  0  0
   -9.1450    2.0175   -8.7775 C   0  0  0  0  0  0  0  0  0  0  0  0
   -9.5180    2.5460   -7.4365 N   0  0  0  0  0  0  0  0  0  0  0  0
   -8.7598    3.8051   -7.2799 C   0  0  0  0  0  0  0  0  0  0  0  0
   -9.2589    1.8815   -6.7073 H   0  0  0  0  0  0  0  0  0  0  0  0
 16 17  2  0  0  0
 17 18  1  0  0  0
 18 20  1  0  0  0
 20 21  2  0  0  0
 21 22  1  0  0  0
 22 23  2  0  0  0
 23 24  1  0  0  0
 24 25  2  0  0  0
 24 26  1  0  0  0
 26 27  1  0  0  0
 27 28  1  0  0  0
 17  1  1  0  0  0
  1  2  2  0  0  0
  2  3  1  0  0  0
  3  4  1  0  0  0
  3  5  2  0  0  0
  5  6  1  0  0  0
  6  7  2  0  0  0
  7  8  1  0  0  0
  8  9  2  0  0  0
  9 10  1  0  0  0
 10 11  1  0  0  0
 11 12  1  0  0  0
 12 13  1  0  0  0
 13 14  1  0  0  0
 25 20  1  0  0  0
  7  1  1  0  0  0
 14 11  1  0  0  0
 28 23  1  0  0  0
 10  6  1  0  0  0
 18 19  1  0  0  0
 27 29  1  0  0  0
 13 15  1  0  0  0
M  END
> <minimizedAffinity>
-9.21497

> <minimizedRMSD>
0.25973

$$$$
P25038


 31 35  0  0  0  0  0  0  0  0999 V2000
   -5.5112    5.0382  -17.6159 N   0  0  0  0  0  0  0  0  0  0  0  0
   -4.6909    5.4645  -16.6352 N   0  0  0  0  0  0  0  0  0  0  0  0
   -5.4507    5.4364  -15.5407 C   0  0  0  0  0  0  0  0  0  0  0  0
   -6.7621    4.9920  -15.8019 C   0  0  0  0  0  0  0  0  0  0  0  0
   -7.9355    4.8024  -15.0485 C   0  0  0  0  0  0  0  0  0  0  0  0
   -9.0981    4.3662  -15.6898 C   0  0  0  0  0  0  0  0  0  0  0  0
   -9.0857    4.1533  -17.0647 C   0  0  0  0  0  0  0  0  0  0  0  0
  -10.5678    3.9056  -17.8806 Cl  0  0  0  0  0  0  0  0  0  0  0  0
   -7.9304    4.3003  -17.8330 C   0  0  0  0  0  0  0  0  0  0  0  0
   -6.7778    4.7341  -17.1715 C   0  0  0  0  0  0  0  0  0  0  0  0
   -3.6785    4.6414  -19.3770 C   0  0  0  0  0  0  0  0  0  0  0  0
   -3.5879    5.8700  -20.2306 N   0  0  0  0  0  0  0  0  0  0  0  0
   -4.7390    6.4426  -19.5082 C   0  0  0  0  0  0  0  0  0  0  0  0
   -5.1252    5.0438  -19.0366 C   0  0  0  0  0  0  0  0  0  0  0  0
   -3.7578    5.7033  -21.2225 H   0  0  0  0  0  0  0  0  0  0  0  0
   -1.6737    5.4673  -18.1517 O   0  0  0  0  0  0  0  0  0  0  0  0
   -2.5293    4.5927  -18.3306 C   0  0  0  0  0  0  0  0  0  0  0  0
   -7.9656    5.2366  -13.6342 C   0  0  0  0  0  0  0  0  0  0  0  0
   -7.8536    6.3773  -13.4119 O   0  0  0  0  0  0  0  0  0  0  0  0
   -8.1343    4.0408  -12.6714 N   0  0  0  0  0  0  0  0  0  0  0  0
   -8.1312    3.1577  -13.1066 H   0  0  0  0  0  0  0  0  0  0  0  0
   -8.2900    4.0084  -11.2885 C   0  0  0  0  0  0  0  0  0  0  0  0
   -8.0211    5.1425  -10.5049 C   0  0  0  0  0  0  0  0  0  0  0  0
   -8.1632    5.1037   -9.1148 C   0  0  0  0  0  0  0  0  0  0  0  0
   -8.5583    3.9150   -8.5320 C   0  0  0  0  0  0  0  0  0  0  0  0
   -8.8269    2.7926   -9.3054 C   0  0  0  0  0  0  0  0  0  0  0  0
   -8.7107    2.8215  -10.6859 C   0  0  0  0  0  0  0  0  0  0  0  0
   -9.2435    1.6695   -8.4199 C   0  0  0  0  0  0  0  0  0  0  0  0
   -9.0258    2.1379   -7.0256 N   0  0  0  0  0  0  0  0  0  0  0  0
   -8.7934    3.5966   -7.0966 C   0  0  0  0  0  0  0  0  0  0  0  0
   -8.2134    1.6721   -6.6214 H   0  0  0  0  0  0  0  0  0  0  0  0
 16 17  2  0  0  0
 11 17  1  0  0  0
 11 12  1  0  0  0
 12 13  1  0  0  0
 13 14  1  0  0  0
 14  1  1  0  0  0
  1  2  1  0  0  0
  2  3  2  0  0  0
  3  4  1  0  0  0
  4  5  2  0  0  0
  5 18  1  0  0  0
 18 19  2  0  0  0
 18 20  1  0  0  0
 20 22  1  0  0  0
 22 23  2  0  0  0
 23 24  1  0  0  0
 24 25  2  0  0  0
 25 26  1  0  0  0
 26 27  2  0  0  0
 26 28  1  0  0  0
 28 29  1  0  0  0
 29 30  1  0  0  0
  5  6  1  0  0  0
  6  7  2  0  0  0
  7  8  1  0  0  0
  7  9  1  0  0  0
  9 10  2  0  0  0
 14 11  1  0  0  0
 10  1  1  0  0  0
 10  4  1  0  0  0
 27 22  1  0  0  0
 30 25  1  0  0  0
 12 15  1  0  0  0
 20 21  1  0  0  0
 29 31  1  0  0  0
M  END
> <minimizedAffinity>
-9.18195

> <minimizedRMSD>
0.53102

$$$$
P25042


 32 36  0  0  0  0  0  0  0  0999 V2000
   -8.5294    3.8504  -16.9221 C   0  0  0  0  0  0  0  0  0  0  0  0
   -7.5891    4.5842  -17.8694 C   0  0  0  0  0  0  0  0  0  0  0  0
   -6.3121    4.9000  -17.1724 C   0  0  0  0  0  0  0  0  0  0  0  0
   -6.2022    5.0238  -15.8443 C   0  0  0  0  0  0  0  0  0  0  0  0
   -4.7879    5.3731  -15.5305 C   0  0  0  0  0  0  0  0  0  0  0  0
   -4.1226    5.5080  -16.8519 N   0  0  0  0  0  0  0  0  0  0  0  0
   -5.0975    5.0949  -17.8013 N   0  0  0  0  0  0  0  0  0  0  0  0
   -7.3232    4.9502  -14.8479 C   0  0  0  0  0  0  0  0  0  0  0  0
   -8.5751    4.2800  -15.4401 C   0  0  0  0  0  0  0  0  0  0  0  0
   -3.2987    4.9087  -16.9008 H   0  0  0  0  0  0  0  0  0  0  0  0
   -4.8676    5.1525  -19.2196 C   0  0  0  0  0  0  0  0  0  0  0  0
   -4.2997    6.4747  -19.7626 C   0  0  0  0  0  0  0  0  0  0  0  0
   -3.5152    5.6679  -20.7541 N   0  0  0  0  0  0  0  0  0  0  0  0
   -3.5273    4.5701  -19.7293 C   0  0  0  0  0  0  0  0  0  0  0  0
   -2.5911    6.0393  -20.9743 H   0  0  0  0  0  0  0  0  0  0  0  0
   -6.8770    4.6710  -13.3524 C   0  0  0  0  0  0  0  0  0  0  0  0
   -5.7495    4.8115  -13.0591 O   0  0  0  0  0  0  0  0  0  0  0  0
   -8.1187    4.3315  -12.4656 N   0  0  0  0  0  0  0  0  0  0  0  0
   -8.9554    4.1900  -12.9646 H   0  0  0  0  0  0  0  0  0  0  0  0
   -8.2338    4.1965  -11.0807 C   0  0  0  0  0  0  0  0  0  0  0  0
   -8.6553    2.9510  -10.5893 C   0  0  0  0  0  0  0  0  0  0  0  0
   -8.8004    2.7888   -9.2198 C   0  0  0  0  0  0  0  0  0  0  0  0
   -8.6054    3.8485   -8.3482 C   0  0  0  0  0  0  0  0  0  0  0  0
   -8.2260    5.0910   -8.8125 C   0  0  0  0  0  0  0  0  0  0  0  0
   -8.0328    5.2816  -10.1939 C   0  0  0  0  0  0  0  0  0  0  0  0
   -7.6663    6.6703  -10.6397 C   0  0  0  0  0  0  0  0  0  0  0  0
   -8.9094    3.4149   -6.9560 C   0  0  0  0  0  0  0  0  0  0  0  0
   -8.9953    1.9406   -7.0041 N   0  0  0  0  0  0  0  0  0  0  0  0
   -9.2013    1.5872   -8.4335 C   0  0  0  0  0  0  0  0  0  0  0  0
   -9.7805    1.6130   -6.4415 H   0  0  0  0  0  0  0  0  0  0  0  0
  -10.5880    4.4727  -18.4203 C   0  0  0  0  0  0  0  0  0  0  0  0
   -9.9293    3.5396  -17.4488 C   0  0  0  0  0  0  0  0  0  0  0  0
 31 32  1  0  0  0
  1 32  1  0  0  0
  1  2  1  0  0  0
  2  3  1  0  0  0
  3  4  2  0  0  0
  4  5  1  0  0  0
  5  6  1  0  0  0
  6  7  1  0  0  0
  7 11  1  0  0  0
 11 12  1  0  0  0
 12 13  1  0  0  0
 13 14  1  0  0  0
  4  8  1  0  0  0
  8 16  1  0  0  0
 16 17  2  0  0  0
 16 18  1  0  0  0
 18 20  1  0  0  0
 20 21  2  0  0  0
 21 22  1  0  0  0
 22 23  2  0  0  0
 23 24  1  0  0  0
 24 25  2  0  0  0
 25 26  1  0  0  0
 23 27  1  0  0  0
 27 28  1  0  0  0
 28 29  1  0  0  0
  8  9  1  0  0  0
  9  1  1  0  0  0
  7  3  1  0  0  0
 14 11  1  0  0  0
 25 20  1  0  0  0
 29 22  1  0  0  0
  6 10  1  0  0  0
 13 15  1  0  0  0
 18 19  1  0  0  0
 28 30  1  0  0  0
M  END
> <minimizedAffinity>
-9.20709

> <minimizedRMSD>
0.55260

$$$$
P25049


 29 33  0  0  0  0  0  0  0  0999 V2000
   -7.0519    4.6233  -14.8933 C   0  0  0  0  0  0  0  0  0  0  0  0
   -8.2526    4.2292  -15.4863 C   0  0  0  0  0  0  0  0  0  0  0  0
   -8.3853    4.2480  -16.8656 C   0  0  0  0  0  0  0  0  0  0  0  0
   -9.9227    3.8874  -17.5191 Cl  0  0  0  0  0  0  0  0  0  0  0  0
   -7.3423    4.6355  -17.7132 C   0  0  0  0  0  0  0  0  0  0  0  0
   -6.1243    5.0023  -17.1277 C   0  0  0  0  0  0  0  0  0  0  0  0
   -5.9693    4.9815  -15.7320 C   0  0  0  0  0  0  0  0  0  0  0  0
   -4.6309    5.3685  -15.5242 C   0  0  0  0  0  0  0  0  0  0  0  0
   -3.9827    5.6216  -16.6551 N   0  0  0  0  0  0  0  0  0  0  0  0
   -4.9044    5.4319  -17.6265 N   0  0  0  0  0  0  0  0  0  0  0  0
   -4.5565    5.9497  -18.9672 C   0  0  0  0  0  0  0  0  0  0  0  0
   -4.6237    5.0654  -20.2108 C   0  0  0  0  0  0  0  0  0  0  0  0
   -3.3272    5.6444  -20.6360 N   0  0  0  0  0  0  0  0  0  0  0  0
   -3.0255    5.8866  -19.2070 C   0  0  0  0  0  0  0  0  0  0  0  0
   -3.4058    6.4897  -21.2014 H   0  0  0  0  0  0  0  0  0  0  0  0
   -6.8979    4.7046  -13.4187 C   0  0  0  0  0  0  0  0  0  0  0  0
   -5.8224    4.4854  -12.8758 O   0  0  0  0  0  0  0  0  0  0  0  0
   -8.7809    6.0684  -12.9915 O   0  0  0  0  0  0  0  0  0  0  0  0
   -8.0384    5.1938  -12.5582 C   0  0  0  0  0  0  0  0  0  0  0  0
   -8.1267    4.7604  -11.1538 C   0  0  0  0  0  0  0  0  0  0  0  0
   -7.9190    5.7438  -10.1659 C   0  0  0  0  0  0  0  0  0  0  0  0
   -8.1236    5.4453   -8.8190 C   0  0  0  0  0  0  0  0  0  0  0  0
   -8.5569    4.1722   -8.4971 C   0  0  0  0  0  0  0  0  0  0  0  0
   -8.7374    3.1918   -9.4748 C   0  0  0  0  0  0  0  0  0  0  0  0
   -8.5197    3.4612  -10.8181 C   0  0  0  0  0  0  0  0  0  0  0  0
   -9.1996    1.9353   -8.8074 C   0  0  0  0  0  0  0  0  0  0  0  0
   -9.6676    2.3625   -7.4631 N   0  0  0  0  0  0  0  0  0  0  0  0
   -8.9328    3.6096   -7.1654 C   0  0  0  0  0  0  0  0  0  0  0  0
   -9.4530    1.6480   -6.7676 H   0  0  0  0  0  0  0  0  0  0  0  0
 18 19  2  0  0  0
 19 16  1  0  0  0
 16 17  2  0  0  0
 16  1  1  0  0  0
  1  2  2  0  0  0
  2  3  1  0  0  0
  3  4  1  0  0  0
  3  5  2  0  0  0
  5  6  1  0  0  0
  6  7  2  0  0  0
  7  8  1  0  0  0
  8  9  2  0  0  0
  9 10  1  0  0  0
 10 11  1  0  0  0
 11 12  1  0  0  0
 12 13  1  0  0  0
 13 14  1  0  0  0
 19 20  1  0  0  0
 20 21  2  0  0  0
 21 22  1  0  0  0
 22 23  2  0  0  0
 23 24  1  0  0  0
 24 25  2  0  0  0
 24 26  1  0  0  0
 26 27  1  0  0  0
 27 28  1  0  0  0
  7  1  1  0  0  0
 14 11  1  0  0  0
 25 20  1  0  0  0
 10  6  1  0  0  0
 28 23  1  0  0  0
 13 15  1  0  0  0
 27 29  1  0  0  0
M  END
> <minimizedAffinity>
-8.58333

> <minimizedRMSD>
0.43074

$$$$
P25061


 32 36  0  0  0  0  0  0  0  0999 V2000
   -6.9800    4.8273  -13.3869 C   0  0  0  0  0  0  0  0  0  0  0  0
   -7.0471    6.2430  -13.2287 O   0  0  0  0  0  0  0  0  0  0  0  0
   -7.0514    6.4629  -12.2839 H   0  0  0  0  0  0  0  0  0  0  0  0
   -6.9827    4.6713  -14.9153 C   0  0  0  0  0  0  0  0  0  0  0  0
   -8.1811    4.3381  -15.5920 C   0  0  0  0  0  0  0  0  0  0  0  0
   -8.2603    4.3183  -16.9788 C   0  0  0  0  0  0  0  0  0  0  0  0
   -9.7753    4.0240  -17.7195 Cl  0  0  0  0  0  0  0  0  0  0  0  0
   -7.1696    4.6430  -17.7797 C   0  0  0  0  0  0  0  0  0  0  0  0
   -5.9697    4.9877  -17.1432 C   0  0  0  0  0  0  0  0  0  0  0  0
   -5.8649    4.9956  -15.7445 C   0  0  0  0  0  0  0  0  0  0  0  0
   -4.5289    5.4013  -15.5109 C   0  0  0  0  0  0  0  0  0  0  0  0
   -3.8390    5.6118  -16.6226 N   0  0  0  0  0  0  0  0  0  0  0  0
   -4.7296    5.4046  -17.6073 N   0  0  0  0  0  0  0  0  0  0  0  0
   -4.3254    5.8703  -18.9408 C   0  0  0  0  0  0  0  0  0  0  0  0
   -4.5196    4.9468  -20.1265 C   0  0  0  0  0  0  0  0  0  0  0  0
   -5.0493    6.0970  -20.8869 N   0  0  0  0  0  0  0  0  0  0  0  0
   -5.3620    6.7619  -19.6099 C   0  0  0  0  0  0  0  0  0  0  0  0
   -5.8654    5.8822  -21.4598 H   0  0  0  0  0  0  0  0  0  0  0  0
   -4.7811    3.8353  -12.2696 N   0  0  0  0  0  0  0  0  0  0  0  0
   -5.7476    4.2682  -12.7551 C   0  0  0  0  0  0  0  0  0  0  0  0
   -8.2081    4.3034  -12.7752 N   0  0  0  0  0  0  0  0  0  0  0  0
   -8.9692    4.0241  -13.3337 H   0  0  0  0  0  0  0  0  0  0  0  0
   -8.2727    4.2090  -11.3613 C   0  0  0  0  0  0  0  0  0  0  0  0
   -8.0596    5.3141  -10.5032 C   0  0  0  0  0  0  0  0  0  0  0  0
   -8.2054    5.2132   -9.1144 C   0  0  0  0  0  0  0  0  0  0  0  0
   -8.5935    4.0006   -8.5885 C   0  0  0  0  0  0  0  0  0  0  0  0
   -8.8052    2.9021   -9.4121 C   0  0  0  0  0  0  0  0  0  0  0  0
   -8.6658    2.9902  -10.7879 C   0  0  0  0  0  0  0  0  0  0  0  0
   -9.1633    1.7279   -8.5633 C   0  0  0  0  0  0  0  0  0  0  0  0
   -9.5748    2.3130   -7.2609 N   0  0  0  0  0  0  0  0  0  0  0  0
   -8.8661    3.6093   -7.1748 C   0  0  0  0  0  0  0  0  0  0  0  0
   -9.2984    1.7028   -6.4917 H   0  0  0  0  0  0  0  0  0  0  0  0
 19 20  3  0  0  0
 20  1  1  0  0  0
  1  2  1  0  0  0
  1 21  1  0  0  0
 21 23  1  0  0  0
 23 24  2  0  0  0
 24 25  1  0  0  0
 25 26  2  0  0  0
 26 27  1  0  0  0
 27 28  2  0  0  0
 27 29  1  0  0  0
 29 30  1  0  0  0
 30 31  1  0  0  0
  1  4  1  0  0  0
  4  5  2  0  0  0
  5  6  1  0  0  0
  6  7  1  0  0  0
  6  8  2  0  0  0
  8  9  1  0  0  0
  9 10  2  0  0  0
 10 11  1  0  0  0
 11 12  2  0  0  0
 12 13  1  0  0  0
 13 14  1  0  0  0
 14 15  1  0  0  0
 15 16  1  0  0  0
 16 17  1  0  0  0
 28 23  1  0  0  0
 10  4  1  0  0  0
 17 14  1  0  0  0
 31 26  1  0  0  0
 13  9  1  0  0  0
  2  3  1  0  0  0
 21 22  1  0  0  0
 30 32  1  0  0  0
 16 18  1  0  0  0
M  END
> <minimizedAffinity>
-8.54223

> <minimizedRMSD>
0.28510

$$$$
P25064


 31 36  0  0  0  0  0  0  0  0999 V2000
   -7.3484    4.8872  -14.2128 C   0  0  0  0  0  0  0  0  0  0  0  0
   -8.5853    4.5327  -14.8296 C   0  0  0  0  0  0  0  0  0  0  0  0
   -8.5985    4.3370  -16.2097 C   0  0  0  0  0  0  0  0  0  0  0  0
   -9.8397    3.9996  -17.3168 S   0  0  0  0  0  0  0  0  0  0  0  0
   -8.6798    3.9412  -18.5756 C   0  0  0  0  0  0  0  0  0  0  0  0
   -7.4364    4.2159  -18.2564 N   0  0  0  0  0  0  0  0  0  0  0  0
   -7.4326    4.4903  -16.9349 C   0  0  0  0  0  0  0  0  0  0  0  0
   -6.2811    4.8955  -16.3386 C   0  0  0  0  0  0  0  0  0  0  0  0
   -6.1813    5.0852  -14.9823 C   0  0  0  0  0  0  0  0  0  0  0  0
   -4.8382    5.4743  -14.8373 C   0  0  0  0  0  0  0  0  0  0  0  0
   -4.1924    5.5821  -16.0103 N   0  0  0  0  0  0  0  0  0  0  0  0
   -5.1306    5.2603  -16.9440 N   0  0  0  0  0  0  0  0  0  0  0  0
   -5.0377    5.7295  -18.3481 C   0  0  0  0  0  0  0  0  0  0  0  0
   -4.0668    4.9443  -19.2368 C   0  0  0  0  0  0  0  0  0  0  0  0
   -3.6886    6.2378  -19.8816 N   0  0  0  0  0  0  0  0  0  0  0  0
   -4.0556    6.8881  -18.5946 C   0  0  0  0  0  0  0  0  0  0  0  0
   -4.2683    6.5053  -20.6771 H   0  0  0  0  0  0  0  0  0  0  0  0
   -6.9970    6.2820  -12.4405 O   0  0  0  0  0  0  0  0  0  0  0  0
   -7.3647    5.2255  -12.7739 C   0  0  0  0  0  0  0  0  0  0  0  0
   -7.9941    4.0776  -11.9514 N   0  0  0  0  0  0  0  0  0  0  0  0
   -8.2928    3.3050  -12.4835 H   0  0  0  0  0  0  0  0  0  0  0  0
   -8.2065    3.9590  -10.5850 C   0  0  0  0  0  0  0  0  0  0  0  0
   -7.9800    5.0339   -9.7126 C   0  0  0  0  0  0  0  0  0  0  0  0
   -8.2654    4.9149   -8.3494 C   0  0  0  0  0  0  0  0  0  0  0  0
   -8.7711    3.7129   -7.8912 C   0  0  0  0  0  0  0  0  0  0  0  0
   -8.9762    2.6421   -8.7558 C   0  0  0  0  0  0  0  0  0  0  0  0
   -8.7059    2.7457  -10.1064 C   0  0  0  0  0  0  0  0  0  0  0  0
   -9.4638    1.4704   -7.9735 C   0  0  0  0  0  0  0  0  0  0  0  0
   -9.9209    2.0383   -6.6800 N   0  0  0  0  0  0  0  0  0  0  0  0
   -9.1591    3.2972   -6.5115 C   0  0  0  0  0  0  0  0  0  0  0  0
   -9.7184    1.3938   -5.9158 H   0  0  0  0  0  0  0  0  0  0  0  0
 18 19  2  0  0  0
 19 20  1  0  0  0
 20 22  1  0  0  0
 22 23  2  0  0  0
 23 24  1  0  0  0
 24 25  2  0  0  0
 25 26  1  0  0  0
 26 27  2  0  0  0
 26 28  1  0  0  0
 28 29  1  0  0  0
 29 30  1  0  0  0
 19  1  1  0  0  0
  1  2  2  0  0  0
  2  3  1  0  0  0
  3  4  1  0  0  0
  4  5  1  0  0  0
  5  6  2  0  0  0
  6  7  1  0  0  0
  7  8  1  0  0  0
  8  9  2  0  0  0
  9 10  1  0  0  0
 10 11  2  0  0  0
 11 12  1  0  0  0
 12 13  1  0  0  0
 13 14  1  0  0  0
 14 15  1  0  0  0
 15 16  1  0  0  0
 27 22  1  0  0  0
  9  1  1  0  0  0
 16 13  1  0  0  0
 30 25  1  0  0  0
  7  3  2  0  0  0
 12  8  1  0  0  0
 20 21  1  0  0  0
 29 31  1  0  0  0
 15 17  1  0  0  0
M  END
> <minimizedAffinity>
-8.63173

> <minimizedRMSD>
0.69208

$$$$
P25065


 30 34  0  0  0  0  0  0  0  0999 V2000
   -8.2376    4.2418  -17.2186 C   0  0  0  0  0  0  0  0  0  0  0  0
   -8.7144    4.3220  -15.9005 C   0  0  0  0  0  0  0  0  0  0  0  0
   -7.8841    4.7929  -14.8779 C   0  0  0  0  0  0  0  0  0  0  0  0
   -6.5499    5.1191  -15.1669 C   0  0  0  0  0  0  0  0  0  0  0  0
   -5.4474    5.5814  -14.4235 C   0  0  0  0  0  0  0  0  0  0  0  0
   -4.3489    5.7135  -15.1625 N   0  0  0  0  0  0  0  0  0  0  0  0
   -4.7555    5.3884  -16.4071 N   0  0  0  0  0  0  0  0  0  0  0  0
   -6.0779    5.0022  -16.4712 C   0  0  0  0  0  0  0  0  0  0  0  0
   -6.9004    4.5707  -17.5177 C   0  0  0  0  0  0  0  0  0  0  0  0
   -3.8155    5.3509  -17.5335 C   0  0  0  0  0  0  0  0  0  0  0  0
   -3.8816    6.5937  -18.4329 C   0  0  0  0  0  0  0  0  0  0  0  0
   -2.4010    6.6217  -18.4538 N   0  0  0  0  0  0  0  0  0  0  0  0
   -2.4011    5.8516  -17.1861 C   0  0  0  0  0  0  0  0  0  0  0  0
   -1.9966    7.5551  -18.3793 H   0  0  0  0  0  0  0  0  0  0  0  0
   -8.4037    5.0953  -13.5268 C   0  0  0  0  0  0  0  0  0  0  0  0
   -9.0016    6.0885  -13.3886 O   0  0  0  0  0  0  0  0  0  0  0  0
   -8.0437    3.9940  -12.5073 N   0  0  0  0  0  0  0  0  0  0  0  0
   -7.5917    3.2083  -12.8918 H   0  0  0  0  0  0  0  0  0  0  0  0
   -8.2543    3.9305  -11.1300 C   0  0  0  0  0  0  0  0  0  0  0  0
   -8.0059    5.0471  -10.3118 C   0  0  0  0  0  0  0  0  0  0  0  0
   -8.2133    4.9896   -8.9297 C   0  0  0  0  0  0  0  0  0  0  0  0
   -8.6807    3.8073   -8.3912 C   0  0  0  0  0  0  0  0  0  0  0  0
   -8.9190    2.6964   -9.1955 C   0  0  0  0  0  0  0  0  0  0  0  0
   -8.7069    2.7361  -10.5647 C   0  0  0  0  0  0  0  0  0  0  0  0
   -9.3819    1.5684   -8.3330 C   0  0  0  0  0  0  0  0  0  0  0  0
   -9.7769    2.2021   -7.0474 N   0  0  0  0  0  0  0  0  0  0  0  0
   -9.0014    3.4605   -6.9758 C   0  0  0  0  0  0  0  0  0  0  0  0
   -9.5432    1.5936   -6.2629 H   0  0  0  0  0  0  0  0  0  0  0  0
  -10.5700    4.2439  -18.2170 C   0  0  0  0  0  0  0  0  0  0  0  0
   -9.1261    3.8130  -18.3552 C   0  0  0  0  0  0  0  0  0  0  0  0
 29 30  1  0  0  0
 30  1  1  0  0  0
  1  2  2  0  0  0
  2  3  1  0  0  0
  3 15  1  0  0  0
 15 16  2  0  0  0
 15 17  1  0  0  0
 17 19  1  0  0  0
 19 20  2  0  0  0
 20 21  1  0  0  0
 21 22  2  0  0  0
 22 23  1  0  0  0
 23 24  2  0  0  0
 23 25  1  0  0  0
 25 26  1  0  0  0
 26 27  1  0  0  0
  3  4  2  0  0  0
  4  5  1  0  0  0
  5  6  2  0  0  0
  6  7  1  0  0  0
  7 10  1  0  0  0
 10 11  1  0  0  0
 11 12  1  0  0  0
 12 13  1  0  0  0
  7  8  1  0  0  0
  8  9  2  0  0  0
  9  1  1  0  0  0
 24 19  1  0  0  0
  8  4  1  0  0  0
 27 22  1  0  0  0
 13 10  1  0  0  0
 17 18  1  0  0  0
 26 28  1  0  0  0
 12 14  1  0  0  0
M  END
> <minimizedAffinity>
-9.06887

> <minimizedRMSD>
0.94774

$$$$
P25068


 30 34  0  0  0  0  0  0  0  0999 V2000
   -7.7638    4.9760  -14.8784 C   0  0  0  0  0  0  0  0  0  0  0  0
   -8.7788    4.4139  -15.6536 C   0  0  0  0  0  0  0  0  0  0  0  0
   -8.5544    4.1783  -17.0037 C   0  0  0  0  0  0  0  0  0  0  0  0
   -9.8700    3.6550  -17.9606 Cl  0  0  0  0  0  0  0  0  0  0  0  0
   -7.3323    4.4575  -17.6266 C   0  0  0  0  0  0  0  0  0  0  0  0
   -6.3167    5.0124  -16.8409 C   0  0  0  0  0  0  0  0  0  0  0  0
   -6.5030    5.2769  -15.4514 C   0  0  0  0  0  0  0  0  0  0  0  0
   -5.2790    5.8122  -14.8786 C   0  0  0  0  0  0  0  0  0  0  0  0
   -4.3770    5.8608  -15.8661 N   0  0  0  0  0  0  0  0  0  0  0  0
   -3.1659    6.1765  -15.8420 O   0  0  0  0  0  0  0  0  0  0  0  0
   -5.0136    5.4141  -17.0971 N   0  0  0  0  0  0  0  0  0  0  0  0
   -4.2433    5.2356  -18.3425 C   0  0  0  0  0  0  0  0  0  0  0  0
   -5.0261    4.7087  -19.5449 C   0  0  0  0  0  0  0  0  0  0  0  0
   -4.3107    5.6761  -20.4078 N   0  0  0  0  0  0  0  0  0  0  0  0
   -4.1181    6.5152  -19.2015 C   0  0  0  0  0  0  0  0  0  0  0  0
   -4.8850    6.1026  -21.1349 H   0  0  0  0  0  0  0  0  0  0  0  0
   -8.3016    6.5034  -13.2775 O   0  0  0  0  0  0  0  0  0  0  0  0
   -8.0440    5.3826  -13.4806 C   0  0  0  0  0  0  0  0  0  0  0  0
   -7.9113    4.1921  -12.5036 N   0  0  0  0  0  0  0  0  0  0  0  0
   -7.6070    3.3519  -12.9166 H   0  0  0  0  0  0  0  0  0  0  0  0
   -8.1524    4.1146  -11.1334 C   0  0  0  0  0  0  0  0  0  0  0  0
   -7.9229    5.2187  -10.2965 C   0  0  0  0  0  0  0  0  0  0  0  0
   -8.1306    5.1292   -8.9168 C   0  0  0  0  0  0  0  0  0  0  0  0
   -8.5593    3.9229   -8.3967 C   0  0  0  0  0  0  0  0  0  0  0  0
   -8.7999    2.8326   -9.2225 C   0  0  0  0  0  0  0  0  0  0  0  0
   -8.6105    2.9098  -10.5942 C   0  0  0  0  0  0  0  0  0  0  0  0
   -9.2681    1.6816   -8.3998 C   0  0  0  0  0  0  0  0  0  0  0  0
   -9.1404    2.1036   -6.9794 N   0  0  0  0  0  0  0  0  0  0  0  0
   -8.8547    3.5543   -6.9846 C   0  0  0  0  0  0  0  0  0  0  0  0
   -8.3768    1.5976   -6.5308 H   0  0  0  0  0  0  0  0  0  0  0  0
 17 18  2  0  0  0
 18 19  1  0  0  0
 19 21  1  0  0  0
 21 22  2  0  0  0
 22 23  1  0  0  0
 23 24  2  0  0  0
 24 25  1  0  0  0
 25 26  2  0  0  0
 25 27  1  0  0  0
 27 28  1  0  0  0
 28 29  1  0  0  0
 18  1  1  0  0  0
  1  2  2  0  0  0
  2  3  1  0  0  0
  3  4  1  0  0  0
  3  5  2  0  0  0
  5  6  1  0  0  0
  6  7  2  0  0  0
  7  8  1  0  0  0
  8  9  2  0  0  0
  9 10  1  0  0  0
  9 11  1  0  0  0
 11 12  1  0  0  0
 12 13  1  0  0  0
 13 14  1  0  0  0
 14 15  1  0  0  0
 26 21  1  0  0  0
  7  1  1  0  0  0
 15 12  1  0  0  0
 29 24  1  0  0  0
 11  6  1  0  0  0
 19 20  1  0  0  0
 28 30  1  0  0  0
 14 16  1  0  0  0
M  CHG 1   9   1
M  CHG 1  10  -1
M  END
> <minimizedAffinity>
-8.96484

> <minimizedRMSD>
0.68788

$$$$
P25074


 31 36  0  0  0  0  0  0  0  0999 V2000
   -7.1000    6.2056  -13.4409 O   0  0  0  0  0  0  0  0  0  0  0  0
   -7.4775    5.1356  -13.7144 C   0  0  0  0  0  0  0  0  0  0  0  0
   -7.9781    3.9902  -12.8101 N   0  0  0  0  0  0  0  0  0  0  0  0
   -8.1712    3.1476  -13.2812 H   0  0  0  0  0  0  0  0  0  0  0  0
   -8.2016    3.9539  -11.4334 C   0  0  0  0  0  0  0  0  0  0  0  0
   -8.6387    2.7357  -10.8741 C   0  0  0  0  0  0  0  0  0  0  0  0
   -8.8266    2.6696   -9.5096 C   0  0  0  0  0  0  0  0  0  0  0  0
   -8.5994    3.8121   -8.7768 C   0  0  0  0  0  0  0  0  0  0  0  0
   -8.7814    3.6873   -7.4131 C   0  0  0  0  0  0  0  0  0  0  0  0
   -8.4624    4.8282   -6.7440 C   0  0  0  0  0  0  0  0  0  0  0  0
   -7.9749    6.0633   -7.8979 S   0  0  0  0  0  0  0  0  0  0  0  0
   -8.1611    5.0088   -9.2600 C   0  0  0  0  0  0  0  0  0  0  0  0
   -7.9563    5.1132  -10.6418 C   0  0  0  0  0  0  0  0  0  0  0  0
   -9.1922    2.4097   -7.1550 N   0  0  0  0  0  0  0  0  0  0  0  0
   -9.1783    1.6223   -8.4939 C   0  0  0  0  0  0  0  0  0  0  0  0
   -9.4512    2.0514   -6.2753 H   0  0  0  0  0  0  0  0  0  0  0  0
   -7.4787    4.7516  -15.1465 C   0  0  0  0  0  0  0  0  0  0  0  0
   -8.6633    4.3979  -15.7985 C   0  0  0  0  0  0  0  0  0  0  0  0
   -8.6711    4.2816  -17.1844 C   0  0  0  0  0  0  0  0  0  0  0  0
  -10.1638    4.1035  -18.0022 Cl  0  0  0  0  0  0  0  0  0  0  0  0
   -7.5253    4.4812  -17.9577 C   0  0  0  0  0  0  0  0  0  0  0  0
   -6.3453    4.8260  -17.2900 C   0  0  0  0  0  0  0  0  0  0  0  0
   -6.3049    4.9476  -15.9005 C   0  0  0  0  0  0  0  0  0  0  0  0
   -4.9794    5.3244  -15.6128 C   0  0  0  0  0  0  0  0  0  0  0  0
   -4.2431    5.4910  -16.7070 N   0  0  0  0  0  0  0  0  0  0  0  0
   -5.0829    5.1863  -17.7241 N   0  0  0  0  0  0  0  0  0  0  0  0
   -4.7703    5.6684  -19.0909 C   0  0  0  0  0  0  0  0  0  0  0  0
   -3.2446    5.7557  -19.3530 C   0  0  0  0  0  0  0  0  0  0  0  0
   -3.3130    4.3830  -19.8936 N   0  0  0  0  0  0  0  0  0  0  0  0
   -4.7414    4.6063  -20.1924 C   0  0  0  0  0  0  0  0  0  0  0  0
   -3.1363    3.6506  -19.2060 H   0  0  0  0  0  0  0  0  0  0  0  0
  1  2  2  0  0  0
  2  3  1  0  0  0
  3  5  1  0  0  0
  5  6  2  0  0  0
  6  7  1  0  0  0
  7  8  2  0  0  0
  8  9  1  0  0  0
  9 10  2  0  0  0
 10 11  1  0  0  0
 11 12  1  0  0  0
 12 13  2  0  0  0
  9 14  1  0  0  0
 14 15  1  0  0  0
  2 17  1  0  0  0
 17 18  2  0  0  0
 18 19  1  0  0  0
 19 20  1  0  0  0
 19 21  2  0  0  0
 21 22  1  0  0  0
 22 23  2  0  0  0
 23 24  1  0  0  0
 24 25  2  0  0  0
 25 26  1  0  0  0
 26 27  1  0  0  0
 27 28  1  0  0  0
 28 29  1  0  0  0
 29 30  1  0  0  0
 13  5  1  0  0  0
 23 17  1  0  0  0
 30 27  1  0  0  0
 15  7  1  0  0  0
 26 22  1  0  0  0
 12  8  1  0  0  0
  3  4  1  0  0  0
 14 16  1  0  0  0
 29 31  1  0  0  0
M  END
> <minimizedAffinity>
-9.57763

> <minimizedRMSD>
0.29451

$$$$
P25080


 44 49  0  0  0  0  0  0  0  0999 V2000
   -6.9771    4.9173  -12.9273 C   0  0  0  0  0  0  0  0  0  0  0  0
   -7.0045    4.7327  -14.4682 C   0  0  0  0  0  0  0  0  0  0  0  0
   -8.1919    4.3062  -15.1180 C   0  0  0  0  0  0  0  0  0  0  0  0
   -8.3026    4.2720  -16.5063 C   0  0  0  0  0  0  0  0  0  0  0  0
   -9.8054    3.8739  -17.2320 Cl  0  0  0  0  0  0  0  0  0  0  0  0
   -7.2470    4.6444  -17.3357 C   0  0  0  0  0  0  0  0  0  0  0  0
   -6.0491    5.0400  -16.7299 C   0  0  0  0  0  0  0  0  0  0  0  0
   -5.9222    5.0822  -15.3299 C   0  0  0  0  0  0  0  0  0  0  0  0
   -4.5977    5.5276  -15.1296 C   0  0  0  0  0  0  0  0  0  0  0  0
   -3.9425    5.7641  -16.2551 N   0  0  0  0  0  0  0  0  0  0  0  0
   -4.8266    5.4711  -17.2269 N   0  0  0  0  0  0  0  0  0  0  0  0
   -4.4150    5.8560  -18.5848 C   0  0  0  0  0  0  0  0  0  0  0  0
   -5.3388    6.8786  -19.2327 C   0  0  0  0  0  0  0  0  0  0  0  0
   -5.0933    6.2054  -20.5282 N   0  0  0  0  0  0  0  0  0  0  0  0
   -4.7268    4.9752  -19.7755 C   0  0  0  0  0  0  0  0  0  0  0  0
   -4.3320    6.6077  -21.0750 H   0  0  0  0  0  0  0  0  0  0  0  0
   -5.5226    2.9699  -12.4641 O   0  0  0  0  0  0  0  0  0  0  0  0
   -5.7180    4.1086  -12.2814 C   0  0  0  0  0  0  0  0  0  0  0  0
   -4.9391    5.1386  -11.4100 N   0  0  0  0  0  0  0  0  0  0  0  0
   -5.2610    6.0662  -11.4812 H   0  0  0  0  0  0  0  0  0  0  0  0
   -3.8208    4.9532  -10.5142 C   0  0  0  0  0  0  0  0  0  0  0  0
   -4.0322    3.8036   -9.5340 C   0  0  0  0  0  0  0  0  0  0  0  0
   -3.1467    3.9129   -8.5095 F   0  0  0  0  0  0  0  0  0  0  0  0
   -5.2703    3.9127   -8.9775 F   0  0  0  0  0  0  0  0  0  0  0  0
   -8.1876    4.3548  -12.2972 N   0  0  0  0  0  0  0  0  0  0  0  0
   -8.9525    4.1085  -12.8660 H   0  0  0  0  0  0  0  0  0  0  0  0
   -8.2797    4.1598  -10.9014 C   0  0  0  0  0  0  0  0  0  0  0  0
   -8.1597    5.1903   -9.9432 C   0  0  0  0  0  0  0  0  0  0  0  0
   -8.3713    4.9830   -8.5759 C   0  0  0  0  0  0  0  0  0  0  0  0
   -8.7141    3.7185   -8.1598 C   0  0  0  0  0  0  0  0  0  0  0  0
   -8.8481    2.6889   -9.0757 C   0  0  0  0  0  0  0  0  0  0  0  0
   -8.6602    2.8944  -10.4365 C   0  0  0  0  0  0  0  0  0  0  0  0
   -9.1606    1.4260   -8.3525 C   0  0  0  0  0  0  0  0  0  0  0  0
   -9.4084    1.8048   -6.9351 N   0  0  0  0  0  0  0  0  0  0  0  0
   -8.9840    3.2124   -6.7871 C   0  0  0  0  0  0  0  0  0  0  0  0
   -8.8651    1.2072   -6.3121 H   0  0  0  0  0  0  0  0  0  0  0  0
   -6.8183    6.3373  -12.6914 O   0  0  0  0  0  0  0  0  0  0  0  0
   -7.8921    7.1379  -13.1863 C   0  0  0  0  0  0  0  0  0  0  0  0
   -8.4517    8.1130  -12.1728 C   0  0  0  0  0  0  0  0  0  0  0  0
   -7.7497    8.5007  -11.0367 C   0  0  0  0  0  0  0  0  0  0  0  0
   -8.3851    9.3145  -10.1005 C   0  0  0  0  0  0  0  0  0  0  0  0
   -9.7020    9.7071  -10.3128 C   0  0  0  0  0  0  0  0  0  0  0  0
  -10.3334    9.2774  -11.4647 C   0  0  0  0  0  0  0  0  0  0  0  0
   -9.7347    8.5010  -12.3926 N   0  0  0  0  0  0  0  0  0  0  0  0
 17 18  2  0  0  0
 18 19  1  0  0  0
 19 21  1  0  0  0
 21 22  1  0  0  0
 22 23  1  0  0  0
 22 24  1  0  0  0
 18  1  1  0  0  0
  1 25  1  0  0  0
 25 27  1  0  0  0
 27 28  2  0  0  0
 28 29  1  0  0  0
 29 30  2  0  0  0
 30 31  1  0  0  0
 31 32  2  0  0  0
 31 33  1  0  0  0
 33 34  1  0  0  0
 34 35  1  0  0  0
  1 37  1  0  0  0
 37 38  1  0  0  0
 38 39  1  0  0  0
 39 40  2  0  0  0
 40 41  1  0  0  0
 41 42  2  0  0  0
 42 43  1  0  0  0
 43 44  2  0  0  0
  1  2  1  0  0  0
  2  3  2  0  0  0
  3  4  1  0  0  0
  4  5  1  0  0  0
  4  6  2  0  0  0
  6  7  1  0  0  0
  7  8  2  0  0  0
  8  9  1  0  0  0
  9 10  2  0  0  0
 10 11  1  0  0  0
 11 12  1  0  0  0
 12 13  1  0  0  0
 13 14  1  0  0  0
 14 15  1  0  0  0
 32 27  1  0  0  0
 44 39  1  0  0  0
  8  2  1  0  0  0
 15 12  1  0  0  0
 35 30  1  0  0  0
 11  7  1  0  0  0
 19 20  1  0  0  0
 25 26  1  0  0  0
 34 36  1  0  0  0
 14 16  1  0  0  0
M  END
> <minimizedAffinity>
-8.15646

> <minimizedRMSD>
1.11492

$$$$
P25082


 33 37  0  0  0  0  0  0  0  0999 V2000
   -7.3234    6.6414  -12.5514 N   0  0  0  0  0  0  0  0  0  0  0  0
   -7.4016    5.4879  -12.9301 C   0  0  0  0  0  0  0  0  0  0  0  0
   -7.2500    5.1171  -14.4021 C   0  0  0  0  0  0  0  0  0  0  0  0
   -8.4008    4.6949  -15.0982 C   0  0  0  0  0  0  0  0  0  0  0  0
   -8.3466    4.4176  -16.4634 C   0  0  0  0  0  0  0  0  0  0  0  0
   -9.7795    4.0157  -17.3137 Cl  0  0  0  0  0  0  0  0  0  0  0  0
   -7.1747    4.5801  -17.1959 C   0  0  0  0  0  0  0  0  0  0  0  0
   -6.0290    4.9597  -16.4894 C   0  0  0  0  0  0  0  0  0  0  0  0
   -6.0306    5.1712  -15.1063 C   0  0  0  0  0  0  0  0  0  0  0  0
   -4.6710    5.3957  -14.7997 C   0  0  0  0  0  0  0  0  0  0  0  0
   -3.8842    5.4055  -15.8765 N   0  0  0  0  0  0  0  0  0  0  0  0
   -4.7391    5.2201  -16.9016 N   0  0  0  0  0  0  0  0  0  0  0  0
   -4.3465    5.3815  -18.3158 C   0  0  0  0  0  0  0  0  0  0  0  0
   -3.2963    6.4929  -18.5002 C   0  0  0  0  0  0  0  0  0  0  0  0
   -2.6078    5.6176  -19.4781 N   0  0  0  0  0  0  0  0  0  0  0  0
   -3.2222    4.4445  -18.7979 C   0  0  0  0  0  0  0  0  0  0  0  0
   -1.5894    5.6486  -19.4287 H   0  0  0  0  0  0  0  0  0  0  0  0
   -6.0967    8.2348  -13.7109 O   0  0  0  0  0  0  0  0  0  0  0  0
   -7.1132    7.7959  -13.2045 C   0  0  0  0  0  0  0  0  0  0  0  0
   -8.2217    8.5560  -13.1730 O   0  0  0  0  0  0  0  0  0  0  0  0
   -9.0070    8.2235  -12.7846 H   0  0  0  0  0  0  0  0  0  0  0  0
   -7.7605    4.1627  -12.1298 N   0  0  0  0  0  0  0  0  0  0  0  0
   -7.7983    3.3472  -12.6800 H   0  0  0  0  0  0  0  0  0  0  0  0
   -8.0308    3.9656  -10.7761 C   0  0  0  0  0  0  0  0  0  0  0  0
   -7.8359    5.0125   -9.8474 C   0  0  0  0  0  0  0  0  0  0  0  0
   -8.1672    4.8824   -8.4953 C   0  0  0  0  0  0  0  0  0  0  0  0
   -8.7091    3.6875   -8.0788 C   0  0  0  0  0  0  0  0  0  0  0  0
   -8.9007    2.6405   -8.9744 C   0  0  0  0  0  0  0  0  0  0  0  0
   -8.5713    2.7600  -10.3182 C   0  0  0  0  0  0  0  0  0  0  0  0
   -9.4591    1.4742   -8.2284 C   0  0  0  0  0  0  0  0  0  0  0  0
   -9.9560    2.0351   -6.9441 N   0  0  0  0  0  0  0  0  0  0  0  0
   -9.1640    3.2646   -6.7228 C   0  0  0  0  0  0  0  0  0  0  0  0
   -9.8069    1.3722   -6.1833 H   0  0  0  0  0  0  0  0  0  0  0  0
 18 19  2  0  0  0
 19 20  1  0  0  0
 19  1  1  0  0  0
  1  2  2  0  0  0
  2 22  1  0  0  0
 22 24  1  0  0  0
 24 25  2  0  0  0
 25 26  1  0  0  0
 26 27  2  0  0  0
 27 28  1  0  0  0
 28 29  2  0  0  0
 28 30  1  0  0  0
 30 31  1  0  0  0
 31 32  1  0  0  0
  2  3  1  0  0  0
  3  4  2  0  0  0
  4  5  1  0  0  0
  5  6  1  0  0  0
  5  7  2  0  0  0
  7  8  1  0  0  0
  8  9  2  0  0  0
  9 10  1  0  0  0
 10 11  2  0  0  0
 11 12  1  0  0  0
 12 13  1  0  0  0
 13 14  1  0  0  0
 14 15  1  0  0  0
 15 16  1  0  0  0
 29 24  1  0  0  0
  9  3  1  0  0  0
 16 13  1  0  0  0
 32 27  1  0  0  0
 12  8  1  0  0  0
 20 21  1  0  0  0
 22 23  1  0  0  0
 31 33  1  0  0  0
 15 17  1  0  0  0
M  END
> <minimizedAffinity>
-7.70705

> <minimizedRMSD>
0.88909

$$$$
P25090


 29 33  0  0  0  0  0  0  0  0999 V2000
   -7.6483    4.7960  -15.2040 C   0  0  0  0  0  0  0  0  0  0  0  0
   -8.8441    4.3962  -15.8083 C   0  0  0  0  0  0  0  0  0  0  0  0
   -8.8890    4.2137  -17.1864 C   0  0  0  0  0  0  0  0  0  0  0  0
  -10.4034    3.9673  -17.9415 Cl  0  0  0  0  0  0  0  0  0  0  0  0
   -7.7644    4.3733  -17.9987 C   0  0  0  0  0  0  0  0  0  0  0  0
   -6.5741    4.7604  -17.3727 C   0  0  0  0  0  0  0  0  0  0  0  0
   -6.4981    4.9740  -15.9972 C   0  0  0  0  0  0  0  0  0  0  0  0
   -5.1629    5.3697  -15.7749 C   0  0  0  0  0  0  0  0  0  0  0  0
   -4.4397    5.3954  -16.8938 N   0  0  0  0  0  0  0  0  0  0  0  0
   -5.3143    5.0432  -17.8550 N   0  0  0  0  0  0  0  0  0  0  0  0
   -4.9694    5.0280  -19.2825 C   0  0  0  0  0  0  0  0  0  0  0  0
   -3.5434    4.5469  -19.6197 C   0  0  0  0  0  0  0  0  0  0  0  0
   -3.4966    5.6307  -20.6507 N   0  0  0  0  0  0  0  0  0  0  0  0
   -4.4591    6.3818  -19.7956 C   0  0  0  0  0  0  0  0  0  0  0  0
   -3.8575    5.3642  -21.5667 H   0  0  0  0  0  0  0  0  0  0  0  0
   -8.1532    4.1204  -12.8398 N   0  0  0  0  0  0  0  0  0  0  0  0
   -7.6228    5.2207  -13.7869 C   0  0  0  0  0  0  0  0  0  0  0  0
   -7.2632    6.3079  -13.5579 O   0  0  0  0  0  0  0  0  0  0  0  0
   -8.4673    3.3040  -13.2916 H   0  0  0  0  0  0  0  0  0  0  0  0
  -10.2232    2.1085   -6.2884 C   0  0  0  0  0  0  0  0  0  0  0  0
   -9.0840    2.3882   -7.1410 N   0  0  0  0  0  0  0  0  0  0  0  0
   -8.7575    3.8171   -7.2410 C   0  0  0  0  0  0  0  0  0  0  0  0
   -8.5064    4.0769   -8.6898 C   0  0  0  0  0  0  0  0  0  0  0  0
   -8.0887    5.2412   -9.3051 C   0  0  0  0  0  0  0  0  0  0  0  0
   -7.9608    5.2430  -10.6959 C   0  0  0  0  0  0  0  0  0  0  0  0
   -8.2592    4.0959  -11.4504 C   0  0  0  0  0  0  0  0  0  0  0  0
   -8.6834    2.9262  -10.8145 C   0  0  0  0  0  0  0  0  0  0  0  0
   -8.7923    2.9350   -9.4309 C   0  0  0  0  0  0  0  0  0  0  0  0
   -9.2257    1.8396   -8.5084 C   0  0  0  0  0  0  0  0  0  0  0  0
 20 21  1  0  0  0
 21 22  1  0  0  0
 22 23  1  0  0  0
 23 24  2  0  0  0
 24 25  1  0  0  0
 25 26  2  0  0  0
 26 16  1  0  0  0
 16 17  1  0  0  0
 17 18  2  0  0  0
 17  1  1  0  0  0
  1  2  2  0  0  0
  2  3  1  0  0  0
  3  4  1  0  0  0
  3  5  2  0  0  0
  5  6  1  0  0  0
  6  7  2  0  0  0
  7  8  1  0  0  0
  8  9  2  0  0  0
  9 10  1  0  0  0
 10 11  1  0  0  0
 11 12  1  0  0  0
 12 13  1  0  0  0
 13 14  1  0  0  0
 26 27  1  0  0  0
 27 28  2  0  0  0
 28 29  1  0  0  0
 29 21  1  0  0  0
 28 23  1  0  0  0
  7  1  1  0  0  0
 14 11  1  0  0  0
 10  6  1  0  0  0
 16 19  1  0  0  0
 13 15  1  0  0  0
M  END
> <minimizedAffinity>
-9.50320

> <minimizedRMSD>
0.28975

$$$$
P25092


 34 39  0  0  0  0  0  0  0  0999 V2000
   -7.2463    6.2852  -13.2597 O   0  0  0  0  0  0  0  0  0  0  0  0
   -7.6326    5.2119  -13.5089 C   0  0  0  0  0  0  0  0  0  0  0  0
   -8.1365    4.0877  -12.5770 N   0  0  0  0  0  0  0  0  0  0  0  0
   -8.3378    3.2367  -13.0293 H   0  0  0  0  0  0  0  0  0  0  0  0
   -8.3527    4.0821  -11.2001 C   0  0  0  0  0  0  0  0  0  0  0  0
   -8.1534    5.2492  -10.4484 C   0  0  0  0  0  0  0  0  0  0  0  0
   -8.2926    5.2284   -9.0629 C   0  0  0  0  0  0  0  0  0  0  0  0
   -8.0849    6.3516   -8.3636 F   0  0  0  0  0  0  0  0  0  0  0  0
   -8.6122    4.0493   -8.4244 C   0  0  0  0  0  0  0  0  0  0  0  0
   -8.8397    2.8992   -9.1783 C   0  0  0  0  0  0  0  0  0  0  0  0
   -8.7287    2.8961  -10.5647 C   0  0  0  0  0  0  0  0  0  0  0  0
   -9.1783    1.7735   -8.2635 C   0  0  0  0  0  0  0  0  0  0  0  0
   -8.8104    2.2428   -6.9042 N   0  0  0  0  0  0  0  0  0  0  0  0
   -8.6849    3.7271   -6.9667 C   0  0  0  0  0  0  0  0  0  0  0  0
   -9.8314    4.3424   -6.1506 C   0  0  0  0  0  0  0  0  0  0  0  0
   -9.3873    4.2657   -4.6852 C   0  0  0  0  0  0  0  0  0  0  0  0
   -7.8719    4.0859   -4.7090 C   0  0  0  0  0  0  0  0  0  0  0  0
   -7.4775    4.2534   -6.1699 C   0  0  0  0  0  0  0  0  0  0  0  0
   -7.9223    1.8290   -6.6205 H   0  0  0  0  0  0  0  0  0  0  0  0
   -7.6119    4.7996  -14.9287 C   0  0  0  0  0  0  0  0  0  0  0  0
   -8.7739    4.3755  -15.5770 C   0  0  0  0  0  0  0  0  0  0  0  0
   -8.7611    4.1979  -16.9576 C   0  0  0  0  0  0  0  0  0  0  0  0
  -10.2363    3.9007  -17.7697 Cl  0  0  0  0  0  0  0  0  0  0  0  0
   -7.6127    4.3951  -17.7292 C   0  0  0  0  0  0  0  0  0  0  0  0
   -6.4588    4.8158  -17.0573 C   0  0  0  0  0  0  0  0  0  0  0  0
   -6.4358    5.0021  -15.6762 C   0  0  0  0  0  0  0  0  0  0  0  0
   -5.1085    5.3852  -15.3909 C   0  0  0  0  0  0  0  0  0  0  0  0
   -4.3362    5.4114  -16.4759 N   0  0  0  0  0  0  0  0  0  0  0  0
   -5.1972    5.1744  -17.4857 N   0  0  0  0  0  0  0  0  0  0  0  0
   -4.7540    5.1669  -18.8916 C   0  0  0  0  0  0  0  0  0  0  0  0
   -4.7444    6.5519  -19.5425 C   0  0  0  0  0  0  0  0  0  0  0  0
   -3.3075    6.6821  -19.2352 N   0  0  0  0  0  0  0  0  0  0  0  0
   -3.2235    5.2170  -19.0743 C   0  0  0  0  0  0  0  0  0  0  0  0
   -3.1076    7.2086  -18.3847 H   0  0  0  0  0  0  0  0  0  0  0  0
  1  2  2  0  0  0
  2  3  1  0  0  0
  3  5  1  0  0  0
  5  6  2  0  0  0
  6  7  1  0  0  0
  7  8  1  0  0  0
  7  9  2  0  0  0
  9 10  1  0  0  0
 10 11  2  0  0  0
 10 12  1  0  0  0
 12 13  1  0  0  0
 13 14  1  0  0  0
 14 15  1  0  0  0
 15 16  1  0  0  0
 16 17  1  0  0  0
 17 18  1  0  0  0
  2 20  1  0  0  0
 20 21  2  0  0  0
 21 22  1  0  0  0
 22 23  1  0  0  0
 22 24  2  0  0  0
 24 25  1  0  0  0
 25 26  2  0  0  0
 26 27  1  0  0  0
 27 28  2  0  0  0
 28 29  1  0  0  0
 29 30  1  0  0  0
 30 31  1  0  0  0
 31 32  1  0  0  0
 32 33  1  0  0  0
 11  5  1  0  0  0
 18 14  1  0  0  0
 26 20  1  0  0  0
 33 30  1  0  0  0
 14  9  1  0  0  0
 29 25  1  0  0  0
  3  4  1  0  0  0
 13 19  1  0  0  0
 32 34  1  0  0  0
M  END
> <minimizedAffinity>
-10.02484

> <minimizedRMSD>
0.42605

$$$$
P25093


 31 35  0  0  0  0  0  0  0  0999 V2000
   -8.1389    4.1568  -12.8832 N   0  0  0  0  0  0  0  0  0  0  0  0
   -7.5119    5.2186  -13.8128 C   0  0  0  0  0  0  0  0  0  0  0  0
   -7.0592    6.2661  -13.5678 O   0  0  0  0  0  0  0  0  0  0  0  0
   -8.5223    3.3777  -13.3471 H   0  0  0  0  0  0  0  0  0  0  0  0
   -8.1235    5.2351   -9.3268 C   0  0  0  0  0  0  0  0  0  0  0  0
   -7.9839    5.2650  -10.7213 C   0  0  0  0  0  0  0  0  0  0  0  0
   -8.2503    4.1221  -11.4949 C   0  0  0  0  0  0  0  0  0  0  0  0
   -8.6455    2.9322  -10.8814 C   0  0  0  0  0  0  0  0  0  0  0  0
   -8.7802    2.9172   -9.5034 C   0  0  0  0  0  0  0  0  0  0  0  0
   -8.5373    4.0536   -8.7357 C   0  0  0  0  0  0  0  0  0  0  0  0
   -8.7841    3.7268   -7.2986 C   0  0  0  0  0  0  0  0  0  0  0  0
   -9.4998    2.4328   -7.3098 N   0  0  0  0  0  0  0  0  0  0  0  0
   -9.1434    1.7883   -8.5974 C   0  0  0  0  0  0  0  0  0  0  0  0
  -10.5072    2.5831   -7.2540 H   0  0  0  0  0  0  0  0  0  0  0  0
   -7.6371    7.3302   -7.8801 N   0  0  0  0  0  0  0  0  0  0  0  0
   -7.8517    6.3984   -8.5392 C   0  0  0  0  0  0  0  0  0  0  0  0
   -7.5746    4.8074  -15.2339 C   0  0  0  0  0  0  0  0  0  0  0  0
   -8.7834    4.4073  -15.8105 C   0  0  0  0  0  0  0  0  0  0  0  0
   -8.8562    4.2110  -17.1863 C   0  0  0  0  0  0  0  0  0  0  0  0
  -10.3878    3.9262  -17.8890 Cl  0  0  0  0  0  0  0  0  0  0  0  0
   -7.7513    4.3723  -18.0273 C   0  0  0  0  0  0  0  0  0  0  0  0
   -6.5494    4.7663  -17.4273 C   0  0  0  0  0  0  0  0  0  0  0  0
   -6.4428    4.9778  -16.0526 C   0  0  0  0  0  0  0  0  0  0  0  0
   -5.1001    5.3570  -15.8556 C   0  0  0  0  0  0  0  0  0  0  0  0
   -4.4006    5.3821  -16.9880 N   0  0  0  0  0  0  0  0  0  0  0  0
   -5.3011    5.0588  -17.9359 N   0  0  0  0  0  0  0  0  0  0  0  0
   -4.9742    5.0428  -19.3678 C   0  0  0  0  0  0  0  0  0  0  0  0
   -3.5458    4.5810  -19.7182 C   0  0  0  0  0  0  0  0  0  0  0  0
   -3.4901    5.6846  -20.7214 N   0  0  0  0  0  0  0  0  0  0  0  0
   -4.4936    6.3997  -19.8930 C   0  0  0  0  0  0  0  0  0  0  0  0
   -3.8132    5.4283  -21.6543 H   0  0  0  0  0  0  0  0  0  0  0  0
 15 16  3  0  0  0
 16  5  1  0  0  0
  5  6  2  0  0  0
  6  7  1  0  0  0
  7  1  1  0  0  0
  1  2  1  0  0  0
  2  3  2  0  0  0
  2 17  1  0  0  0
 17 18  2  0  0  0
 18 19  1  0  0  0
 19 20  1  0  0  0
 19 21  2  0  0  0
 21 22  1  0  0  0
 22 23  2  0  0  0
 23 24  1  0  0  0
 24 25  2  0  0  0
 25 26  1  0  0  0
 26 27  1  0  0  0
 27 28  1  0  0  0
 28 29  1  0  0  0
 29 30  1  0  0  0
  7  8  2  0  0  0
  8  9  1  0  0  0
  9 10  2  0  0  0
 10 11  1  0  0  0
 11 12  1  0  0  0
 12 13  1  0  0  0
 10  5  1  0  0  0
 23 17  1  0  0  0
 30 27  1  0  0  0
 13  9  1  0  0  0
 26 22  1  0  0  0
  1  4  1  0  0  0
 29 31  1  0  0  0
 12 14  1  0  0  0
M  END
> <minimizedAffinity>
-9.06157

> <minimizedRMSD>
0.46080

$$$$
P25094


 29 33  0  0  0  0  0  0  0  0999 V2000
   -7.5209    4.8086  -15.1686 C   0  0  0  0  0  0  0  0  0  0  0  0
   -8.7055    4.4190  -15.8079 C   0  0  0  0  0  0  0  0  0  0  0  0
   -8.7131    4.2291  -17.1862 C   0  0  0  0  0  0  0  0  0  0  0  0
  -10.2034    4.0273  -17.9995 Cl  0  0  0  0  0  0  0  0  0  0  0  0
   -7.5671    4.3835  -17.9643 C   0  0  0  0  0  0  0  0  0  0  0  0
   -6.4077    4.8067  -17.3096 C   0  0  0  0  0  0  0  0  0  0  0  0
   -6.3542    4.9997  -15.9329 C   0  0  0  0  0  0  0  0  0  0  0  0
   -5.0290    5.4197  -15.6896 C   0  0  0  0  0  0  0  0  0  0  0  0
   -4.3135    5.5482  -16.8087 N   0  0  0  0  0  0  0  0  0  0  0  0
   -5.1857    5.2268  -17.7835 N   0  0  0  0  0  0  0  0  0  0  0  0
   -4.9948    5.6155  -19.1857 C   0  0  0  0  0  0  0  0  0  0  0  0
   -3.9033    6.6682  -19.4576 C   0  0  0  0  0  0  0  0  0  0  0  0
   -3.5715    5.8788  -20.6822 N   0  0  0  0  0  0  0  0  0  0  0  0
   -4.0507    4.6822  -19.9439 C   0  0  0  0  0  0  0  0  0  0  0  0
   -2.5809    5.8628  -20.9250 H   0  0  0  0  0  0  0  0  0  0  0  0
   -7.3934    6.3808  -13.5317 O   0  0  0  0  0  0  0  0  0  0  0  0
   -7.5337    5.2437  -13.7539 C   0  0  0  0  0  0  0  0  0  0  0  0
   -7.7866    4.0609  -12.7955 N   0  0  0  0  0  0  0  0  0  0  0  0
   -7.7934    3.1757  -13.2263 H   0  0  0  0  0  0  0  0  0  0  0  0
   -8.0065    4.0418  -11.4215 C   0  0  0  0  0  0  0  0  0  0  0  0
   -7.6948    5.1524  -10.6178 C   0  0  0  0  0  0  0  0  0  0  0  0
   -7.9276    5.1305   -9.2385 C   0  0  0  0  0  0  0  0  0  0  0  0
   -8.4683    3.9843   -8.6908 C   0  0  0  0  0  0  0  0  0  0  0  0
   -8.7641    2.8777   -9.4870 C   0  0  0  0  0  0  0  0  0  0  0  0
   -8.5465    2.8886  -10.8524 C   0  0  0  0  0  0  0  0  0  0  0  0
   -9.2887    1.7822   -8.6167 C   0  0  0  0  0  0  0  0  0  0  0  0
   -9.6831    2.4703   -7.3721 N   0  0  0  0  0  0  0  0  0  0  0  0
   -9.5949    1.6553   -6.2710 F   0  0  0  0  0  0  0  0  0  0  0  0
   -8.8261    3.6657   -7.2735 C   0  0  0  0  0  0  0  0  0  0  0  0
 16 17  2  0  0  0
 17 18  1  0  0  0
 18 20  1  0  0  0
 20 21  2  0  0  0
 21 22  1  0  0  0
 22 23  2  0  0  0
 23 24  1  0  0  0
 24 25  2  0  0  0
 24 26  1  0  0  0
 26 27  1  0  0  0
 27 28  1  0  0  0
 27 29  1  0  0  0
 17  1  1  0  0  0
  1  2  2  0  0  0
  2  3  1  0  0  0
  3  4  1  0  0  0
  3  5  2  0  0  0
  5  6  1  0  0  0
  6  7  2  0  0  0
  7  8  1  0  0  0
  8  9  2  0  0  0
  9 10  1  0  0  0
 10 11  1  0  0  0
 11 12  1  0  0  0
 12 13  1  0  0  0
 13 14  1  0  0  0
 25 20  1  0  0  0
  7  1  1  0  0  0
 14 11  1  0  0  0
 29 23  1  0  0  0
 10  6  1  0  0  0
 18 19  1  0  0  0
 13 15  1  0  0  0
M  END
> <minimizedAffinity>
-9.18725

> <minimizedRMSD>
0.32951

$$$$
P25095


 37 42  0  0  0  0  0  0  0  0999 V2000
   -8.0785    4.7373  -14.9140 C   0  0  0  0  0  0  0  0  0  0  0  0
   -9.0550    4.2901  -15.8260 C   0  0  0  0  0  0  0  0  0  0  0  0
   -8.7900    4.1420  -17.2237 C   0  0  0  0  0  0  0  0  0  0  0  0
  -10.1158    3.6913  -18.2255 Cl  0  0  0  0  0  0  0  0  0  0  0  0
   -7.5571    4.4325  -17.8568 C   0  0  0  0  0  0  0  0  0  0  0  0
   -6.5920    4.8379  -16.9376 C   0  0  0  0  0  0  0  0  0  0  0  0
   -5.2920    5.2463  -17.1596 C   0  0  0  0  0  0  0  0  0  0  0  0
   -4.7307    5.4558  -15.9119 N   0  0  0  0  0  0  0  0  0  0  0  0
   -5.6811    5.3534  -14.9266 C   0  0  0  0  0  0  0  0  0  0  0  0
   -6.8479    4.9699  -15.5326 C   0  0  0  0  0  0  0  0  0  0  0  0
   -4.5023    5.5667  -18.4749 C   0  0  0  0  0  0  0  0  0  0  0  0
   -4.5100    4.6410  -19.6800 C   0  0  0  0  0  0  0  0  0  0  0  0
   -4.6723    5.8287  -20.5576 N   0  0  0  0  0  0  0  0  0  0  0  0
   -5.2034    6.5718  -19.3974 C   0  0  0  0  0  0  0  0  0  0  0  0
   -5.3400    5.7022  -21.3182 H   0  0  0  0  0  0  0  0  0  0  0  0
   -8.8330    6.1943  -13.3486 O   0  0  0  0  0  0  0  0  0  0  0  0
   -8.3956    5.1267  -13.5305 C   0  0  0  0  0  0  0  0  0  0  0  0
   -8.1645    3.9580  -12.5467 N   0  0  0  0  0  0  0  0  0  0  0  0
   -7.8500    3.1238  -12.9643 H   0  0  0  0  0  0  0  0  0  0  0  0
   -8.3286    3.8926  -11.1664 C   0  0  0  0  0  0  0  0  0  0  0  0
   -8.0445    5.0054  -10.3569 C   0  0  0  0  0  0  0  0  0  0  0  0
   -8.1786    4.9359   -8.9679 C   0  0  0  0  0  0  0  0  0  0  0  0
   -8.5837    3.7377   -8.4127 C   0  0  0  0  0  0  0  0  0  0  0  0
   -8.8770    2.6395   -9.2124 C   0  0  0  0  0  0  0  0  0  0  0  0
   -8.7698    2.6991  -10.5928 C   0  0  0  0  0  0  0  0  0  0  0  0
   -9.2983    1.5002   -8.3508 C   0  0  0  0  0  0  0  0  0  0  0  0
   -9.0439    1.9241   -6.9481 N   0  0  0  0  0  0  0  0  0  0  0  0
   -8.7998    3.3828   -6.9829 C   0  0  0  0  0  0  0  0  0  0  0  0
   -8.2266    1.4396   -6.5772 H   0  0  0  0  0  0  0  0  0  0  0  0
   -3.3234    5.7185  -15.6624 C   0  0  0  0  0  0  0  0  0  0  0  0
   -2.9612    7.2111  -15.6648 C   0  0  0  0  0  0  0  0  0  0  0  0
   -2.7444    7.7525  -14.2415 C   0  0  0  0  0  0  0  0  0  0  0  0
   -2.2508    9.1986  -14.2677 C   0  0  0  0  0  0  0  0  0  0  0  0
   -1.0312    9.3453  -15.0631 N   0  0  0  0  0  0  0  0  0  0  0  0
   -1.2443    8.8997  -16.4406 C   0  0  0  0  0  0  0  0  0  0  0  0
   -1.6924    7.4408  -16.5005 C   0  0  0  0  0  0  0  0  0  0  0  0
   -0.2897    8.7852  -14.6427 H   0  0  0  0  0  0  0  0  0  0  0  0
 16 17  2  0  0  0
 17 18  1  0  0  0
 18 20  1  0  0  0
 20 21  2  0  0  0
 21 22  1  0  0  0
 22 23  2  0  0  0
 23 24  1  0  0  0
 24 25  2  0  0  0
 24 26  1  0  0  0
 26 27  1  0  0  0
 27 28  1  0  0  0
 17  1  1  0  0  0
  1  2  2  0  0  0
  2  3  1  0  0  0
  3  4  1  0  0  0
  3  5  2  0  0  0
  5  6  1  0  0  0
  6  7  2  0  0  0
  7 11  1  0  0  0
 11 12  1  0  0  0
 12 13  1  0  0  0
 13 14  1  0  0  0
  7  8  1  0  0  0
  8 30  1  0  0  0
 30 31  1  0  0  0
 31 32  1  0  0  0
 32 33  1  0  0  0
 33 34  1  0  0  0
 34 35  1  0  0  0
 35 36  1  0  0  0
  8  9  1  0  0  0
  9 10  2  0  0  0
 25 20  1  0  0  0
 10  1  1  0  0  0
 28 23  1  0  0  0
 10  6  1  0  0  0
 14 11  1  0  0  0
 36 31  1  0  0  0
 18 19  1  0  0  0
 27 29  1  0  0  0
 13 15  1  0  0  0
 34 37  1  0  0  0
M  END
> <minimizedAffinity>
-9.20911

> <minimizedRMSD>
1.02226

$$$$
P25096


 34 38  0  0  0  0  0  0  0  0999 V2000
   -4.6044    5.3850  -16.6724 N   0  0  0  0  0  0  0  0  0  0  0  0
   -5.3818    5.4424  -15.5323 C   0  0  0  0  0  0  0  0  0  0  0  0
   -6.6334    5.0177  -15.8713 C   0  0  0  0  0  0  0  0  0  0  0  0
   -7.7277    4.8642  -15.0272 C   0  0  0  0  0  0  0  0  0  0  0  0
   -8.8672    4.4312  -15.7292 C   0  0  0  0  0  0  0  0  0  0  0  0
   -8.8692    4.2126  -17.1412 C   0  0  0  0  0  0  0  0  0  0  0  0
  -10.3999    4.0206  -17.8902 Cl  0  0  0  0  0  0  0  0  0  0  0  0
   -7.7456    4.3220  -17.9854 C   0  0  0  0  0  0  0  0  0  0  0  0
   -6.6328    4.7512  -17.2713 C   0  0  0  0  0  0  0  0  0  0  0  0
   -5.3754    5.0315  -17.7683 C   0  0  0  0  0  0  0  0  0  0  0  0
   -4.9980    4.9477  -19.2975 C   0  0  0  0  0  0  0  0  0  0  0  0
   -4.6724    6.2808  -19.9821 C   0  0  0  0  0  0  0  0  0  0  0  0
   -3.4428    5.7040  -20.5469 N   0  0  0  0  0  0  0  0  0  0  0  0
   -3.6098    4.4872  -19.7367 C   0  0  0  0  0  0  0  0  0  0  0  0
   -2.5995    6.2338  -20.3267 H   0  0  0  0  0  0  0  0  0  0  0  0
   -7.7918    5.2934  -13.6253 C   0  0  0  0  0  0  0  0  0  0  0  0
   -7.6810    6.4287  -13.3784 O   0  0  0  0  0  0  0  0  0  0  0  0
   -8.1081    4.0951  -12.7045 N   0  0  0  0  0  0  0  0  0  0  0  0
   -8.2246    3.2362  -13.1713 H   0  0  0  0  0  0  0  0  0  0  0  0
   -8.2551    4.0315  -11.3242 C   0  0  0  0  0  0  0  0  0  0  0  0
   -7.9872    5.1468  -10.5143 C   0  0  0  0  0  0  0  0  0  0  0  0
   -8.1773    5.0853   -9.1309 C   0  0  0  0  0  0  0  0  0  0  0  0
   -8.6345    3.8990   -8.5878 C   0  0  0  0  0  0  0  0  0  0  0  0
   -8.8844    2.7889   -9.3890 C   0  0  0  0  0  0  0  0  0  0  0  0
   -8.7026    2.8356  -10.7592 C   0  0  0  0  0  0  0  0  0  0  0  0
   -9.3205    1.6515   -8.5255 C   0  0  0  0  0  0  0  0  0  0  0  0
   -9.6879    2.2749   -7.2265 N   0  0  0  0  0  0  0  0  0  0  0  0
   -8.9252    3.5425   -7.1680 C   0  0  0  0  0  0  0  0  0  0  0  0
   -9.4266    1.6652   -6.4517 H   0  0  0  0  0  0  0  0  0  0  0  0
   -3.1666    5.5457  -16.5956 C   0  0  0  0  0  0  0  0  0  0  0  0
   -2.6700    6.9449  -16.9657 C   0  0  0  0  0  0  0  0  0  0  0  0
   -0.6153    6.0652  -17.9186 C   0  0  0  0  0  0  0  0  0  0  0  0
   -1.6953    7.0268  -18.0510 N   0  0  0  0  0  0  0  0  0  0  0  0
   -2.1767    6.8552  -18.9337 H   0  0  0  0  0  0  0  0  0  0  0  0
 32 33  1  0  0  0
 33 31  1  0  0  0
 31 30  1  0  0  0
 30  1  1  0  0  0
  1  2  1  0  0  0
  2  3  2  0  0  0
  3  4  1  0  0  0
  4 16  1  0  0  0
 16 17  2  0  0  0
 16 18  1  0  0  0
 18 20  1  0  0  0
 20 21  2  0  0  0
 21 22  1  0  0  0
 22 23  2  0  0  0
 23 24  1  0  0  0
 24 25  2  0  0  0
 24 26  1  0  0  0
 26 27  1  0  0  0
 27 28  1  0  0  0
  4  5  2  0  0  0
  5  6  1  0  0  0
  6  7  1  0  0  0
  6  8  2  0  0  0
  8  9  1  0  0  0
  9 10  2  0  0  0
 10 11  1  0  0  0
 11 12  1  0  0  0
 12 13  1  0  0  0
 13 14  1  0  0  0
 10  1  1  0  0  0
 14 11  1  0  0  0
  9  3  1  0  0  0
 25 20  1  0  0  0
 28 23  1  0  0  0
 33 34  1  0  0  0
 18 19  1  0  0  0
 27 29  1  0  0  0
 13 15  1  0  0  0
M  END
> <minimizedAffinity>
-8.76890

> <minimizedRMSD>
0.41461

$$$$
P25098


 39 45  0  0  0  0  0  0  0  0999 V2000
   -1.8522    6.8981  -15.9796 C   0  0  0  0  0  0  0  0  0  0  0  0
   -3.1304    7.7302  -15.8893 C   0  0  0  0  0  0  0  0  0  0  0  0
   -4.1564    7.2588  -16.9206 C   0  0  0  0  0  0  0  0  0  0  0  0
   -4.4099    5.7237  -16.8377 C   0  0  0  0  0  0  0  0  0  0  0  0
   -5.1504    5.3904  -15.4892 C   0  0  0  0  0  0  0  0  0  0  0  0
   -6.5202    4.9957  -15.9390 C   0  0  0  0  0  0  0  0  0  0  0  0
   -7.6528    4.7490  -15.1640 C   0  0  0  0  0  0  0  0  0  0  0  0
   -8.8136    4.3092  -15.8013 C   0  0  0  0  0  0  0  0  0  0  0  0
   -8.8024    4.1328  -17.1871 C   0  0  0  0  0  0  0  0  0  0  0  0
  -10.2775    3.8261  -18.0002 Cl  0  0  0  0  0  0  0  0  0  0  0  0
   -7.6625    4.3928  -17.9502 C   0  0  0  0  0  0  0  0  0  0  0  0
   -6.5284    4.8711  -17.3258 C   0  0  0  0  0  0  0  0  0  0  0  0
   -5.3855    5.3913  -17.9174 N   0  0  0  0  0  0  0  0  0  0  0  0
   -4.8604    4.9046  -19.1969 C   0  0  0  0  0  0  0  0  0  0  0  0
   -4.7935    6.0417  -20.2242 C   0  0  0  0  0  0  0  0  0  0  0  0
   -3.4214    5.9440  -20.8665 C   0  0  0  0  0  0  0  0  0  0  0  0
   -2.9484    4.5975  -20.5603 N   0  0  0  0  0  0  0  0  0  0  0  0
   -3.3980    4.3873  -19.1629 C   0  0  0  0  0  0  0  0  0  0  0  0
   -2.6042    5.1665  -18.2553 O   0  0  0  0  0  0  0  0  0  0  0  0
   -3.1115    4.9984  -16.8949 N   0  0  0  0  0  0  0  0  0  0  0  0
   -2.1390    5.4582  -15.9102 N   0  0  0  0  0  0  0  0  0  0  0  0
   -1.9322    4.5428  -20.6293 H   0  0  0  0  0  0  0  0  0  0  0  0
   -1.2672    4.9501  -16.0591 H   0  0  0  0  0  0  0  0  0  0  0  0
   -7.7024    5.1869  -13.7423 C   0  0  0  0  0  0  0  0  0  0  0  0
   -7.6157    6.3306  -13.5223 O   0  0  0  0  0  0  0  0  0  0  0  0
   -7.9121    3.9954  -12.7812 N   0  0  0  0  0  0  0  0  0  0  0  0
   -7.8744    3.1095  -13.2089 H   0  0  0  0  0  0  0  0  0  0  0  0
   -8.1460    3.9706  -11.4069 C   0  0  0  0  0  0  0  0  0  0  0  0
   -7.9124    5.1078  -10.6139 C   0  0  0  0  0  0  0  0  0  0  0  0
   -8.1448    5.0855   -9.2345 C   0  0  0  0  0  0  0  0  0  0  0  0
   -8.6180    3.9158   -8.6730 C   0  0  0  0  0  0  0  0  0  0  0  0
   -8.8496    2.7875   -9.4543 C   0  0  0  0  0  0  0  0  0  0  0  0
   -8.6205    2.7949  -10.8211 C   0  0  0  0  0  0  0  0  0  0  0  0
   -9.3130    1.6757   -8.5716 C   0  0  0  0  0  0  0  0  0  0  0  0
   -9.7064    2.3316   -7.2961 N   0  0  0  0  0  0  0  0  0  0  0  0
   -8.9386    3.5958   -7.2514 C   0  0  0  0  0  0  0  0  0  0  0  0
   -9.4657    1.7395   -6.5012 H   0  0  0  0  0  0  0  0  0  0  0  0
   -0.2202    8.2871  -17.0000 C   0  0  0  0  0  0  0  0  0  0  0  0
   -1.1409    7.2214  -17.1691 O   0  0  0  0  0  0  0  0  0  0  0  0
 38 39  1  0  0  0
  1 39  1  0  0  0
  1  2  1  0  0  0
  2  3  1  0  0  0
  4  3  1  0  0  0
  4  5  1  0  0  0
  5  6  1  0  0  0
  6  7  2  0  0  0
  7 24  1  0  0  0
 24 25  2  0  0  0
 24 26  1  0  0  0
 26 28  1  0  0  0
 28 29  2  0  0  0
 29 30  1  0  0  0
 30 31  2  0  0  0
 31 32  1  0  0  0
 32 33  2  0  0  0
 32 34  1  0  0  0
 34 35  1  0  0  0
 35 36  1  0  0  0
  7  8  1  0  0  0
  8  9  2  0  0  0
  9 10  1  0  0  0
  9 11  1  0  0  0
 11 12  2  0  0  0
 12 13  1  0  0  0
 13 14  1  0  0  0
 14 15  1  0  0  0
 15 16  1  0  0  0
 16 17  1  0  0  0
 18 17  1  0  0  0
 18 19  1  0  0  0
 19 20  1  0  0  0
 20 21  1  0  0  0
 21  1  1  0  0  0
 13  4  1  0  0  0
 18 14  1  0  0  0
 20  4  1  0  0  0
 12  6  1  0  0  0
 33 28  1  0  0  0
 36 31  1  0  0  0
 26 27  1  0  0  0
 35 37  1  0  0  0
 17 22  1  0  0  0
 21 23  1  0  0  0
M  END
> <minimizedAffinity>
-10.82578

> <minimizedRMSD>
0.57778

$$$$
P25103


 34 39  0  0  0  0  0  0  0  0999 V2000
   -8.0397    4.8804  -15.0570 C   0  0  0  0  0  0  0  0  0  0  0  0
   -9.0559    4.3748  -15.8569 C   0  0  0  0  0  0  0  0  0  0  0  0
   -8.8021    4.1503  -17.2140 C   0  0  0  0  0  0  0  0  0  0  0  0
  -10.1228    3.7624  -18.2189 Cl  0  0  0  0  0  0  0  0  0  0  0  0
   -7.5423    4.3526  -17.7874 C   0  0  0  0  0  0  0  0  0  0  0  0
   -6.5350    4.8447  -16.9866 C   0  0  0  0  0  0  0  0  0  0  0  0
   -6.8095    5.1325  -15.6464 C   0  0  0  0  0  0  0  0  0  0  0  0
   -5.5899    5.7399  -15.0436 C   0  0  0  0  0  0  0  0  0  0  0  0
   -4.6580    5.9393  -16.1918 N   0  0  0  0  0  0  0  0  0  0  0  0
   -3.3405    5.4442  -15.8146 C   0  0  0  0  0  0  0  0  0  0  0  0
   -2.3764    5.8707  -16.8022 N   0  0  0  0  0  0  0  0  0  0  0  0
   -2.3244    4.9459  -17.9209 C   0  0  0  0  0  0  0  0  0  0  0  0
   -3.2304    5.3250  -18.9882 N   0  0  0  0  0  0  0  0  0  0  0  0
   -2.9170    6.6371  -19.5599 N   0  0  0  0  0  0  0  0  0  0  0  0
   -4.0951    7.4560  -19.3577 C   0  0  0  0  0  0  0  0  0  0  0  0
   -5.2231    6.4606  -19.3768 C   0  0  0  0  0  0  0  0  0  0  0  0
   -4.6736    5.2327  -18.6616 C   0  0  0  0  0  0  0  0  0  0  0  0
   -5.2078    5.1544  -17.2803 N   0  0  0  0  0  0  0  0  0  0  0  0
   -1.4548    5.9193  -16.3678 H   0  0  0  0  0  0  0  0  0  0  0  0
   -2.7134    6.5498  -20.5556 H   0  0  0  0  0  0  0  0  0  0  0  0
   -8.5854    6.3954  -13.4432 O   0  0  0  0  0  0  0  0  0  0  0  0
   -8.3023    5.2828  -13.6544 C   0  0  0  0  0  0  0  0  0  0  0  0
   -8.1799    4.0805  -12.6917 N   0  0  0  0  0  0  0  0  0  0  0  0
   -7.9989    3.2179  -13.1305 H   0  0  0  0  0  0  0  0  0  0  0  0
   -8.2839    4.0183  -11.3033 C   0  0  0  0  0  0  0  0  0  0  0  0
   -7.9848    5.1347  -10.5043 C   0  0  0  0  0  0  0  0  0  0  0  0
   -8.1167    5.0779   -9.1129 C   0  0  0  0  0  0  0  0  0  0  0  0
   -8.5567    3.8966   -8.5477 C   0  0  0  0  0  0  0  0  0  0  0  0
   -8.8404    2.7851   -9.3359 C   0  0  0  0  0  0  0  0  0  0  0  0
   -8.7094    2.8249  -10.7141 C   0  0  0  0  0  0  0  0  0  0  0  0
   -9.2528    1.6563   -8.4499 C   0  0  0  0  0  0  0  0  0  0  0  0
   -9.5769    2.2902   -7.1453 N   0  0  0  0  0  0  0  0  0  0  0  0
   -8.8040    3.5519   -7.1170 C   0  0  0  0  0  0  0  0  0  0  0  0
   -9.2972    1.6832   -6.3747 H   0  0  0  0  0  0  0  0  0  0  0  0
 21 22  2  0  0  0
 22 23  1  0  0  0
 23 25  1  0  0  0
 25 26  2  0  0  0
 26 27  1  0  0  0
 27 28  2  0  0  0
 28 29  1  0  0  0
 29 30  2  0  0  0
 29 31  1  0  0  0
 31 32  1  0  0  0
 32 33  1  0  0  0
 22  1  1  0  0  0
  1  2  2  0  0  0
  2  3  1  0  0  0
  3  4  1  0  0  0
  3  5  2  0  0  0
  5  6  1  0  0  0
  6  7  2  0  0  0
  7  8  1  0  0  0
  8  9  1  0  0  0
  9 10  1  0  0  0
 10 11  1  0  0  0
 11 12  1  0  0  0
 12 13  1  0  0  0
 13 14  1  0  0  0
 14 15  1  0  0  0
 15 16  1  0  0  0
 17 16  1  0  0  0
 17 18  1  0  0  0
 30 25  1  0  0  0
  7  1  1  0  0  0
 18  9  1  0  0  0
 33 28  1  0  0  0
 18  6  1  0  0  0
 17 13  1  0  0  0
 23 24  1  0  0  0
 32 34  1  0  0  0
 11 19  1  0  0  0
 14 20  1  0  0  0
M  END
> <minimizedAffinity>
-9.83575

> <minimizedRMSD>
0.65592

$$$$
P25208


 36 39  0  0  0  0  0  0  0  0999 V2000
   -6.1581    4.9455  -17.3466 C   0  0  0  0  0  0  0  0  0  0  0  0
   -7.3130    4.4981  -18.0107 C   0  0  0  0  0  0  0  0  0  0  0  0
   -8.4909    4.2627  -17.3121 C   0  0  0  0  0  0  0  0  0  0  0  0
   -9.9160    3.8656  -18.1813 Cl  0  0  0  0  0  0  0  0  0  0  0  0
   -8.5392    4.4349  -15.9367 C   0  0  0  0  0  0  0  0  0  0  0  0
   -7.4030    4.9042  -15.2696 C   0  0  0  0  0  0  0  0  0  0  0  0
   -6.2084    5.2082  -15.9582 C   0  0  0  0  0  0  0  0  0  0  0  0
   -5.0568    5.5992  -15.2314 N   0  0  0  0  0  0  0  0  0  0  0  0
   -5.1211    5.7758  -14.2650 H   0  0  0  0  0  0  0  0  0  0  0  0
   -4.1923    5.6943  -15.6927 H   0  0  0  0  0  0  0  0  0  0  0  0
   -3.5674    5.9266  -19.7951 C   0  0  0  0  0  0  0  0  0  0  0  0
   -4.8764    5.9800  -19.3533 C   0  0  0  0  0  0  0  0  0  0  0  0
   -4.9808    5.2111  -18.1643 C   0  0  0  0  0  0  0  0  0  0  0  0
   -3.7263    4.6795  -17.9456 C   0  0  0  0  0  0  0  0  0  0  0  0
   -2.8933    5.1152  -18.9271 N   0  0  0  0  0  0  0  0  0  0  0  0
   -1.5296    4.8072  -18.9867 N   0  0  0  0  0  0  0  0  0  0  0  0
   -1.2886    4.1809  -18.2185 H   0  0  0  0  0  0  0  0  0  0  0  0
   -0.9835    5.6653  -18.9098 H   0  0  0  0  0  0  0  0  0  0  0  0
   -2.9441    6.5743  -20.9807 C   0  0  0  0  0  0  0  0  0  0  0  0
   -2.4108    7.9684  -20.7144 C   0  0  0  0  0  0  0  0  0  0  0  0
   -3.9474    9.6695  -19.6620 C   0  0  0  0  0  0  0  0  0  0  0  0
   -3.4438    9.0719  -20.9667 C   0  0  0  0  0  0  0  0  0  0  0  0
   -7.5654    5.3397  -13.8616 C   0  0  0  0  0  0  0  0  0  0  0  0
   -7.3897    6.4678  -13.6264 O   0  0  0  0  0  0  0  0  0  0  0  0
   -8.0309    4.1929  -12.9511 N   0  0  0  0  0  0  0  0  0  0  0  0
   -8.0277    3.3038  -13.3740 H   0  0  0  0  0  0  0  0  0  0  0  0
   -8.4728    4.2066  -11.5752 C   0  0  0  0  0  0  0  0  0  0  0  0
   -7.7347    5.2522  -10.7197 C   0  0  0  0  0  0  0  0  0  0  0  0
   -8.2825    5.3190   -9.2875 C   0  0  0  0  0  0  0  0  0  0  0  0
   -8.2902    3.9291   -8.6784 C   0  0  0  0  0  0  0  0  0  0  0  0
   -8.9604    3.7526   -7.3248 C   0  0  0  0  0  0  0  0  0  0  0  0
   -9.4760    2.3692   -7.3161 N   0  0  0  0  0  0  0  0  0  0  0  0
   -9.1229    1.7525   -8.6145 C   0  0  0  0  0  0  0  0  0  0  0  0
   -9.0646    2.9470   -9.5344 C   0  0  0  0  0  0  0  0  0  0  0  0
   -8.4614    2.8124  -10.9228 C   0  0  0  0  0  0  0  0  0  0  0  0
  -10.4891    2.3762   -7.1983 H   0  0  0  0  0  0  0  0  0  0  0  0
 21 22  1  0  0  0
 22 20  1  0  0  0
 20 19  1  0  0  0
 19 11  1  0  0  0
 11 12  2  0  0  0
 12 13  1  0  0  0
 13  1  1  0  0  0
  1  2  2  0  0  0
  2  3  1  0  0  0
  3  4  1  0  0  0
  3  5  2  0  0  0
  5  6  1  0  0  0
  6 23  1  0  0  0
 23 24  2  0  0  0
 23 25  1  0  0  0
 27 25  1  0  0  0
 27 28  1  0  0  0
 28 29  1  0  0  0
 30 29  1  0  0  0
 30 31  1  0  0  0
 31 32  1  0  0  0
 32 33  1  0  0  0
 34 33  1  0  0  0
 34 35  1  0  0  0
  6  7  2  0  0  0
  7  8  1  0  0  0
 13 14  2  0  0  0
 14 15  1  0  0  0
 15 16  1  0  0  0
 15 11  1  0  0  0
  7  1  1  0  0  0
 35 27  1  0  0  0
 34 30  1  0  0  0
 25 26  1  0  0  0
 32 36  1  0  0  0
  8  9  1  0  0  0
  8 10  1  0  0  0
 16 17  1  0  0  0
 16 18  1  0  0  0
M  END
> <minimizedAffinity>
-8.22607

> <minimizedRMSD>
0.34311

$$$$
P25234


 38 41  0  0  0  0  0  0  0  0999 V2000
   -6.9791    4.8578  -13.2041 C   0  0  0  0  0  0  0  0  0  0  0  0
   -7.1990    6.2468  -13.0046 O   0  0  0  0  0  0  0  0  0  0  0  0
   -8.0704    6.4898  -13.3547 H   0  0  0  0  0  0  0  0  0  0  0  0
   -5.0524    4.8475  -18.0153 C   0  0  0  0  0  0  0  0  0  0  0  0
   -5.5536    5.0635  -19.4541 C   0  0  0  0  0  0  0  0  0  0  0  0
   -6.6843    4.1273  -19.8009 C   0  0  0  0  0  0  0  0  0  0  0  0
   -6.8058    3.5245  -20.8657 O   0  0  0  0  0  0  0  0  0  0  0  0
   -7.6414    4.0335  -18.8462 N   0  0  0  0  0  0  0  0  0  0  0  0
   -7.4575    4.3689  -17.5038 C   0  0  0  0  0  0  0  0  0  0  0  0
   -8.5335    4.2262  -16.6385 C   0  0  0  0  0  0  0  0  0  0  0  0
  -10.0909    3.9494  -17.2911 Cl  0  0  0  0  0  0  0  0  0  0  0  0
   -8.3653    4.3697  -15.2695 C   0  0  0  0  0  0  0  0  0  0  0  0
   -7.1083    4.6845  -14.7261 C   0  0  0  0  0  0  0  0  0  0  0  0
   -6.0435    4.9023  -15.6304 C   0  0  0  0  0  0  0  0  0  0  0  0
   -6.2031    4.7540  -17.0255 C   0  0  0  0  0  0  0  0  0  0  0  0
   -8.5289    3.7056  -19.1186 H   0  0  0  0  0  0  0  0  0  0  0  0
   -2.5868    5.2452  -17.6128 C   0  0  0  0  0  0  0  0  0  0  0  0
   -3.9688    5.8886  -17.6810 C   0  0  0  0  0  0  0  0  0  0  0  0
   -5.5569    4.3570  -12.6553 C   0  0  0  0  0  0  0  0  0  0  0  0
   -5.3087    3.2456  -12.3863 O   0  0  0  0  0  0  0  0  0  0  0  0
   -4.6503    5.6255  -12.6421 N   0  0  0  0  0  0  0  0  0  0  0  0
   -5.1183    6.4689  -12.8393 H   0  0  0  0  0  0  0  0  0  0  0  0
   -3.2344    5.7638  -12.3875 C   0  0  0  0  0  0  0  0  0  0  0  0
   -2.3806    5.5424  -13.6332 C   0  0  0  0  0  0  0  0  0  0  0  0
   -2.5174    6.6007  -14.4759 F   0  0  0  0  0  0  0  0  0  0  0  0
   -2.7947    4.4470  -14.3163 F   0  0  0  0  0  0  0  0  0  0  0  0
   -8.0700    4.1494  -12.5256 N   0  0  0  0  0  0  0  0  0  0  0  0
   -8.7583    3.7255  -13.0875 H   0  0  0  0  0  0  0  0  0  0  0  0
   -8.2031    4.0323  -11.1328 C   0  0  0  0  0  0  0  0  0  0  0  0
   -8.0885    5.1066  -10.2264 C   0  0  0  0  0  0  0  0  0  0  0  0
   -8.3201    4.9502   -8.8517 C   0  0  0  0  0  0  0  0  0  0  0  0
   -8.6769    3.7038   -8.3819 C   0  0  0  0  0  0  0  0  0  0  0  0
   -8.8206    2.6384   -9.2533 C   0  0  0  0  0  0  0  0  0  0  0  0
   -8.6110    2.7892  -10.6176 C   0  0  0  0  0  0  0  0  0  0  0  0
   -9.2165    1.4203   -8.4920 C   0  0  0  0  0  0  0  0  0  0  0  0
   -9.1962    1.7995   -7.0520 N   0  0  0  0  0  0  0  0  0  0  0  0
   -8.9836    3.2614   -6.9943 C   0  0  0  0  0  0  0  0  0  0  0  0
   -8.4368    1.3157   -6.5728 H   0  0  0  0  0  0  0  0  0  0  0  0
 17 18  1  0  0  0
  4 18  1  0  0  0
  4  5  1  0  0  0
  5  6  1  0  0  0
  6  7  2  0  0  0
  6  8  1  0  0  0
  8  9  1  0  0  0
  9 10  2  0  0  0
 10 11  1  0  0  0
 10 12  1  0  0  0
 12 13  2  0  0  0
 13  1  1  0  0  0
  1  2  1  0  0  0
  1 27  1  0  0  0
 27 29  1  0  0  0
 29 30  2  0  0  0
 30 31  1  0  0  0
 31 32  2  0  0  0
 32 33  1  0  0  0
 33 34  2  0  0  0
 33 35  1  0  0  0
 35 36  1  0  0  0
 36 37  1  0  0  0
  1 19  1  0  0  0
 19 20  2  0  0  0
 19 21  1  0  0  0
 21 23  1  0  0  0
 23 24  1  0  0  0
 24 25  1  0  0  0
 24 26  1  0  0  0
 13 14  1  0  0  0
 14 15  2  0  0  0
 15  4  1  0  0  0
 15  9  1  0  0  0
 34 29  1  0  0  0
 37 32  1  0  0  0
  8 16  1  0  0  0
  2  3  1  0  0  0
 27 28  1  0  0  0
 36 38  1  0  0  0
 21 22  1  0  0  0
M  END
> <minimizedAffinity>
-8.07505

> <minimizedRMSD>
1.06692

$$$$
P25238


 27 30  0  0  0  0  0  0  0  0999 V2000
   -7.2265    5.0705  -13.3157 C   0  0  0  0  0  0  0  0  0  0  0  0
   -6.6311    6.0269  -13.0048 O   0  0  0  0  0  0  0  0  0  0  0  0
   -8.0488    4.0753  -12.4570 N   0  0  0  0  0  0  0  0  0  0  0  0
   -8.5252    3.3836  -12.9706 H   0  0  0  0  0  0  0  0  0  0  0  0
   -6.8383    3.4577  -20.8220 O   0  0  0  0  0  0  0  0  0  0  0  0
   -6.7722    4.0751  -19.7591 C   0  0  0  0  0  0  0  0  0  0  0  0
   -5.6621    5.0440  -19.4104 C   0  0  0  0  0  0  0  0  0  0  0  0
   -5.2324    4.9620  -17.9487 C   0  0  0  0  0  0  0  0  0  0  0  0
   -6.3901    4.7898  -17.0072 C   0  0  0  0  0  0  0  0  0  0  0  0
   -6.2570    5.0154  -15.6274 C   0  0  0  0  0  0  0  0  0  0  0  0
   -7.3330    4.7532  -14.7655 C   0  0  0  0  0  0  0  0  0  0  0  0
   -8.5473    4.2978  -15.2775 C   0  0  0  0  0  0  0  0  0  0  0  0
   -8.6761    4.0918  -16.6385 C   0  0  0  0  0  0  0  0  0  0  0  0
   -9.8443    3.6891  -17.1506 F   0  0  0  0  0  0  0  0  0  0  0  0
   -7.6072    4.3082  -17.4941 C   0  0  0  0  0  0  0  0  0  0  0  0
   -7.7561    3.9560  -18.8309 N   0  0  0  0  0  0  0  0  0  0  0  0
   -8.6263    3.5991  -19.1216 H   0  0  0  0  0  0  0  0  0  0  0  0
   -8.2231    4.0008  -11.0765 C   0  0  0  0  0  0  0  0  0  0  0  0
   -8.0391    5.1190  -10.2504 C   0  0  0  0  0  0  0  0  0  0  0  0
   -8.2626    5.0324   -8.8711 C   0  0  0  0  0  0  0  0  0  0  0  0
   -8.6553    3.8158   -8.3418 C   0  0  0  0  0  0  0  0  0  0  0  0
   -8.8227    2.7040   -9.1551 C   0  0  0  0  0  0  0  0  0  0  0  0
   -8.6211    2.7784  -10.5245 C   0  0  0  0  0  0  0  0  0  0  0  0
   -9.1988    1.5269   -8.3214 C   0  0  0  0  0  0  0  0  0  0  0  0
   -9.4211    2.0454   -6.9470 N   0  0  0  0  0  0  0  0  0  0  0  0
   -8.9518    3.4475   -6.9287 C   0  0  0  0  0  0  0  0  0  0  0  0
   -8.8918    1.4908   -6.2742 H   0  0  0  0  0  0  0  0  0  0  0  0
  5  6  2  0  0  0
  6  7  1  0  0  0
  7  8  1  0  0  0
  8  9  1  0  0  0
  9 10  2  0  0  0
 10 11  1  0  0  0
 11  1  1  0  0  0
  1  2  2  0  0  0
  1  3  1  0  0  0
  3 18  1  0  0  0
 18 19  2  0  0  0
 19 20  1  0  0  0
 20 21  2  0  0  0
 21 22  1  0  0  0
 22 23  2  0  0  0
 22 24  1  0  0  0
 24 25  1  0  0  0
 25 26  1  0  0  0
 11 12  2  0  0  0
 12 13  1  0  0  0
 13 14  1  0  0  0
 13 15  2  0  0  0
 15 16  1  0  0  0
 16  6  1  0  0  0
 15  9  1  0  0  0
 23 18  1  0  0  0
 26 21  1  0  0  0
  3  4  1  0  0  0
 25 27  1  0  0  0
 16 17  1  0  0  0
M  END
> <minimizedAffinity>
-8.74801

> <minimizedRMSD>
0.32767

$$$$
P25249


 34 37  0  0  0  0  0  0  0  0999 V2000
   -4.5952    5.3048  -17.1326 C   0  0  0  0  0  0  0  0  0  0  0  0
   -4.5095    6.2112  -18.3562 C   0  0  0  0  0  0  0  0  0  0  0  0
   -5.1526    5.5754  -19.5439 C   0  0  0  0  0  0  0  0  0  0  0  0
   -4.6905    5.8053  -20.6596 O   0  0  0  0  0  0  0  0  0  0  0  0
   -6.2971    4.8472  -19.2829 N   0  0  0  0  0  0  0  0  0  0  0  0
   -6.8466    4.6646  -17.9929 C   0  0  0  0  0  0  0  0  0  0  0  0
   -8.1511    4.1697  -17.8075 C   0  0  0  0  0  0  0  0  0  0  0  0
   -8.8951    3.7913  -18.8591 F   0  0  0  0  0  0  0  0  0  0  0  0
   -8.7318    4.1163  -16.5358 C   0  0  0  0  0  0  0  0  0  0  0  0
   -8.0167    4.6196  -15.4543 C   0  0  0  0  0  0  0  0  0  0  0  0
   -6.7011    5.0787  -15.6336 C   0  0  0  0  0  0  0  0  0  0  0  0
   -6.0713    5.0359  -16.8786 C   0  0  0  0  0  0  0  0  0  0  0  0
   -6.7600    4.4284  -20.0442 H   0  0  0  0  0  0  0  0  0  0  0  0
   -8.6205    4.8567  -14.1127 C   0  0  0  0  0  0  0  0  0  0  0  0
   -9.3904    5.7314  -14.0347 O   0  0  0  0  0  0  0  0  0  0  0  0
   -8.0292    3.9418  -13.0161 N   0  0  0  0  0  0  0  0  0  0  0  0
   -7.4491    3.2200  -13.3502 H   0  0  0  0  0  0  0  0  0  0  0  0
   -8.1846    3.9727  -11.6233 C   0  0  0  0  0  0  0  0  0  0  0  0
   -7.9285    5.1511  -10.9000 C   0  0  0  0  0  0  0  0  0  0  0  0
   -8.0611    5.1913   -9.5062 C   0  0  0  0  0  0  0  0  0  0  0  0
   -8.4616    4.0424   -8.8506 C   0  0  0  0  0  0  0  0  0  0  0  0
   -8.7185    2.8750   -9.5553 C   0  0  0  0  0  0  0  0  0  0  0  0
   -8.5785    2.8186  -10.9385 C   0  0  0  0  0  0  0  0  0  0  0  0
   -9.1442    1.8073   -8.6040 C   0  0  0  0  0  0  0  0  0  0  0  0
   -9.1303    2.4144   -7.2468 N   0  0  0  0  0  0  0  0  0  0  0  0
   -8.7100    3.8228   -7.3987 C   0  0  0  0  0  0  0  0  0  0  0  0
   -8.4714    1.9163   -6.6484 H   0  0  0  0  0  0  0  0  0  0  0  0
   -2.1537    5.7401  -16.6505 C   0  0  0  0  0  0  0  0  0  0  0  0
   -3.5664    5.6921  -16.0186 C   0  0  0  0  0  0  0  0  0  0  0  0
   -3.4370    4.6319  -14.8960 C   0  0  0  0  0  0  0  0  0  0  0  0
   -3.9608    7.3052  -15.2283 S   0  0  0  0  0  0  0  0  0  0  0  0
   -2.4339    8.2005  -15.0681 C   0  0  0  0  0  0  0  0  0  0  0  0
   -4.8027    8.0817  -16.1189 O   0  0  0  0  0  0  0  0  0  0  0  0
   -4.4052    7.0493  -13.8695 O   0  0  0  0  0  0  0  0  0  0  0  0
 28 29  1  0  0  0
 29 30  1  0  0  0
  1 29  1  0  0  0
  1  2  1  0  0  0
  2  3  1  0  0  0
  3  4  2  0  0  0
  3  5  1  0  0  0
  5  6  1  0  0  0
  6  7  2  0  0  0
  7  8  1  0  0  0
  7  9  1  0  0  0
  9 10  2  0  0  0
 10 14  1  0  0  0
 14 15  2  0  0  0
 14 16  1  0  0  0
 16 18  1  0  0  0
 18 19  2  0  0  0
 19 20  1  0  0  0
 20 21  2  0  0  0
 21 22  1  0  0  0
 22 23  2  0  0  0
 22 24  1  0  0  0
 24 25  1  0  0  0
 25 26  1  0  0  0
 10 11  1  0  0  0
 11 12  2  0  0  0
 29 31  1  0  0  0
 31 32  1  0  0  0
 31 33  2  0  0  0
 31 34  2  0  0  0
 12  1  1  0  0  0
 12  6  1  0  0  0
 23 18  1  0  0  0
 26 21  1  0  0  0
  5 13  1  0  0  0
 16 17  1  0  0  0
 25 27  1  0  0  0
M  END
> <minimizedAffinity>
-10.39278

> <minimizedRMSD>
1.04701

$$$$
P25254


 29 32  0  0  0  0  0  0  0  0999 V2000
   -8.0314    4.0519  -12.4432 N   0  0  0  0  0  0  0  0  0  0  0  0
   -6.9374    4.7473  -13.2937 C   0  0  0  0  0  0  0  0  0  0  0  0
   -6.0135    5.3823  -12.9658 O   0  0  0  0  0  0  0  0  0  0  0  0
   -8.6689    3.5063  -12.9581 H   0  0  0  0  0  0  0  0  0  0  0  0
   -7.1641    4.5810  -14.7585 C   0  0  0  0  0  0  0  0  0  0  0  0
   -8.4112    4.2210  -15.2684 C   0  0  0  0  0  0  0  0  0  0  0  0
   -8.5688    4.0863  -16.6385 C   0  0  0  0  0  0  0  0  0  0  0  0
   -9.7468    3.6956  -17.1355 F   0  0  0  0  0  0  0  0  0  0  0  0
   -7.5140    4.3246  -17.5092 C   0  0  0  0  0  0  0  0  0  0  0  0
   -6.2770    4.7473  -17.0237 C   0  0  0  0  0  0  0  0  0  0  0  0
   -6.1049    4.8665  -15.6380 C   0  0  0  0  0  0  0  0  0  0  0  0
   -5.1300    4.9500  -17.9705 C   0  0  0  0  0  0  0  0  0  0  0  0
   -5.5809    5.1257  -19.4149 C   0  0  0  0  0  0  0  0  0  0  0  0
   -6.7071    4.1919  -19.7958 C   0  0  0  0  0  0  0  0  0  0  0  0
   -6.7974    3.6394  -20.8895 O   0  0  0  0  0  0  0  0  0  0  0  0
   -7.6842    4.0410  -18.8610 N   0  0  0  0  0  0  0  0  0  0  0  0
   -8.5632    3.7118  -19.1583 H   0  0  0  0  0  0  0  0  0  0  0  0
   -8.1596    5.2203  -10.2380 C   0  0  0  0  0  0  0  0  0  0  0  0
   -8.3668    5.1184   -8.8473 C   0  0  0  0  0  0  0  0  0  0  0  0
   -8.7326    3.8980   -8.3135 C   0  0  0  0  0  0  0  0  0  0  0  0
   -8.8814    2.7826   -9.1256 C   0  0  0  0  0  0  0  0  0  0  0  0
   -8.6475    2.8488  -10.4892 C   0  0  0  0  0  0  0  0  0  0  0  0
   -8.2605    4.0735  -11.0599 C   0  0  0  0  0  0  0  0  0  0  0  0
   -9.2909    1.6195   -8.2818 C   0  0  0  0  0  0  0  0  0  0  0  0
   -9.7480    2.2196   -7.0025 N   0  0  0  0  0  0  0  0  0  0  0  0
   -9.0605    3.5246   -6.9056 C   0  0  0  0  0  0  0  0  0  0  0  0
   -9.4899    1.6222   -6.2170 H   0  0  0  0  0  0  0  0  0  0  0  0
   -8.0380    7.6197  -11.2161 N   0  0  0  0  0  0  0  0  0  0  0  0
   -8.0302    6.5515  -10.7582 C   0  0  0  0  0  0  0  0  0  0  0  0
 28 29  3  0  0  0
 29 18  1  0  0  0
 18 19  2  0  0  0
 19 20  1  0  0  0
 20 21  2  0  0  0
 21 22  1  0  0  0
 22 23  2  0  0  0
 23  1  1  0  0  0
  1  2  1  0  0  0
  2  3  2  0  0  0
  2  5  1  0  0  0
  5  6  2  0  0  0
  6  7  1  0  0  0
  7  8  1  0  0  0
  7  9  2  0  0  0
  9 10  1  0  0  0
 10 11  2  0  0  0
 10 12  1  0  0  0
 12 13  1  0  0  0
 13 14  1  0  0  0
 14 15  2  0  0  0
 14 16  1  0  0  0
 21 24  1  0  0  0
 24 25  1  0  0  0
 25 26  1  0  0  0
 23 18  1  0  0  0
 11  5  1  0  0  0
 26 20  1  0  0  0
 16  9  1  0  0  0
  1  4  1  0  0  0
 16 17  1  0  0  0
 25 27  1  0  0  0
M  END
> <minimizedAffinity>
-8.41569

> <minimizedRMSD>
0.35284

$$$$
P25259


 38 41  0  0  0  0  0  0  0  0999 V2000
   -7.4992    5.3978  -13.1234 C   0  0  0  0  0  0  0  0  0  0  0  0
   -6.4125    5.8383  -12.3406 O   0  0  0  0  0  0  0  0  0  0  0  0
   -5.7572    5.1268  -12.2675 H   0  0  0  0  0  0  0  0  0  0  0  0
   -5.7291    5.1693  -15.1089 C   0  0  0  0  0  0  0  0  0  0  0  0
   -7.0364    5.0111  -14.5591 C   0  0  0  0  0  0  0  0  0  0  0  0
   -8.0390    4.5346  -15.4296 C   0  0  0  0  0  0  0  0  0  0  0  0
   -7.8258    4.3953  -16.7975 C   0  0  0  0  0  0  0  0  0  0  0  0
   -9.2830    3.8880  -17.8506 Br  0  0  0  0  0  0  0  0  0  0  0  0
   -6.5988    4.7007  -17.3637 C   0  0  0  0  0  0  0  0  0  0  0  0
   -5.5332    5.0425  -16.5209 C   0  0  0  0  0  0  0  0  0  0  0  0
   -4.1806    5.1753  -17.1809 C   0  0  0  0  0  0  0  0  0  0  0  0
   -4.2973    5.8403  -18.5324 C   0  0  0  0  0  0  0  0  0  0  0  0
   -5.2899    5.1353  -19.4001 C   0  0  0  0  0  0  0  0  0  0  0  0
   -5.1173    5.0774  -20.6132 O   0  0  0  0  0  0  0  0  0  0  0  0
   -6.4089    4.6715  -18.7620 N   0  0  0  0  0  0  0  0  0  0  0  0
   -7.1293    4.2922  -19.3155 H   0  0  0  0  0  0  0  0  0  0  0  0
   -4.0805    6.9212  -14.3055 C   0  0  0  0  0  0  0  0  0  0  0  0
   -4.5166    5.4613  -14.2462 C   0  0  0  0  0  0  0  0  0  0  0  0
   -8.6036    6.5827  -13.2524 C   0  0  0  0  0  0  0  0  0  0  0  0
   -9.6591    6.4212  -13.7322 O   0  0  0  0  0  0  0  0  0  0  0  0
   -7.9504    7.8659  -12.6620 N   0  0  0  0  0  0  0  0  0  0  0  0
   -7.0118    7.7604  -12.3841 H   0  0  0  0  0  0  0  0  0  0  0  0
   -8.4993    9.1906  -12.4552 C   0  0  0  0  0  0  0  0  0  0  0  0
   -9.6728    9.2201  -11.4822 C   0  0  0  0  0  0  0  0  0  0  0  0
  -10.8327    8.9157  -12.1156 F   0  0  0  0  0  0  0  0  0  0  0  0
   -9.4928    8.2626  -10.5319 F   0  0  0  0  0  0  0  0  0  0  0  0
   -8.0589    4.2385  -12.4244 N   0  0  0  0  0  0  0  0  0  0  0  0
   -8.2691    3.4406  -12.9614 H   0  0  0  0  0  0  0  0  0  0  0  0
   -8.3180    4.1802  -11.0447 C   0  0  0  0  0  0  0  0  0  0  0  0
   -8.0897    5.2395  -10.1397 C   0  0  0  0  0  0  0  0  0  0  0  0
   -8.2272    5.0916   -8.7539 C   0  0  0  0  0  0  0  0  0  0  0  0
   -8.6001    3.8608   -8.2638 C   0  0  0  0  0  0  0  0  0  0  0  0
   -8.8278    2.8009   -9.1252 C   0  0  0  0  0  0  0  0  0  0  0  0
   -8.6837    2.9388  -10.5009 C   0  0  0  0  0  0  0  0  0  0  0  0
   -9.1712    1.5881   -8.3306 C   0  0  0  0  0  0  0  0  0  0  0  0
   -9.3198    2.0397   -6.9222 N   0  0  0  0  0  0  0  0  0  0  0  0
   -8.8102    3.4242   -6.8565 C   0  0  0  0  0  0  0  0  0  0  0  0
   -8.7784    1.4373   -6.3022 H   0  0  0  0  0  0  0  0  0  0  0  0
 17 18  1  0  0  0
 18  4  1  0  0  0
  4  5  2  0  0  0
  5  1  1  0  0  0
  1  2  1  0  0  0
  1 27  1  0  0  0
 27 29  1  0  0  0
 29 30  2  0  0  0
 30 31  1  0  0  0
 31 32  2  0  0  0
 32 33  1  0  0  0
 33 34  2  0  0  0
 33 35  1  0  0  0
 35 36  1  0  0  0
 36 37  1  0  0  0
  1 19  1  0  0  0
 19 20  2  0  0  0
 19 21  1  0  0  0
 21 23  1  0  0  0
 23 24  1  0  0  0
 24 25  1  0  0  0
 24 26  1  0  0  0
  5  6  1  0  0  0
  6  7  2  0  0  0
  7  8  1  0  0  0
  7  9  1  0  0  0
  9 10  2  0  0  0
 10 11  1  0  0  0
 11 12  1  0  0  0
 12 13  1  0  0  0
 13 14  2  0  0  0
 13 15  1  0  0  0
 10  4  1  0  0  0
 34 29  1  0  0  0
 15  9  1  0  0  0
 37 32  1  0  0  0
  2  3  1  0  0  0
 27 28  1  0  0  0
 36 38  1  0  0  0
 21 22  1  0  0  0
 15 16  1  0  0  0
M  END
> <minimizedAffinity>
-8.71550

> <minimizedRMSD>
0.76342

$$$$
P25263


 31 34  0  0  0  0  0  0  0  0999 V2000
   -7.8253    4.1594  -12.4853 N   0  0  0  0  0  0  0  0  0  0  0  0
   -7.1025    5.1904  -13.3848 C   0  0  0  0  0  0  0  0  0  0  0  0
   -6.5416    6.1761  -13.1065 O   0  0  0  0  0  0  0  0  0  0  0  0
   -8.1588    3.3626  -12.9576 H   0  0  0  0  0  0  0  0  0  0  0  0
   -8.3238    6.6605   -8.2266 C   0  0  0  0  0  0  0  0  0  0  0  0
   -8.3300    5.3776   -8.9976 C   0  0  0  0  0  0  0  0  0  0  0  0
   -8.0915    5.3726  -10.3827 C   0  0  0  0  0  0  0  0  0  0  0  0
   -8.0809    4.1754  -11.1159 C   0  0  0  0  0  0  0  0  0  0  0  0
   -8.3084    2.9578  -10.4735 C   0  0  0  0  0  0  0  0  0  0  0  0
   -8.4965    2.9641   -9.1007 C   0  0  0  0  0  0  0  0  0  0  0  0
   -8.5074    4.1498   -8.3744 C   0  0  0  0  0  0  0  0  0  0  0  0
   -8.7213    3.8282   -6.9344 C   0  0  0  0  0  0  0  0  0  0  0  0
   -8.8108    2.3571   -6.8312 N   0  0  0  0  0  0  0  0  0  0  0  0
   -8.6336    1.8087   -8.1751 C   0  0  0  0  0  0  0  0  0  0  0  0
   -9.8348    1.0680   -8.3495 N   0  0  0  0  0  0  0  0  0  0  0  0
   -9.7237    2.0890   -6.4636 H   0  0  0  0  0  0  0  0  0  0  0  0
  -10.6365    1.6761   -8.1826 H   0  0  0  0  0  0  0  0  0  0  0  0
   -9.8540    0.2910   -7.6890 H   0  0  0  0  0  0  0  0  0  0  0  0
   -7.2300    4.8317  -14.8194 C   0  0  0  0  0  0  0  0  0  0  0  0
   -8.4677    4.4154  -15.3176 C   0  0  0  0  0  0  0  0  0  0  0  0
   -8.6286    4.1804  -16.6803 C   0  0  0  0  0  0  0  0  0  0  0  0
   -7.5460    4.3492  -17.5409 C   0  0  0  0  0  0  0  0  0  0  0  0
   -6.3136    4.7777  -17.0499 C   0  0  0  0  0  0  0  0  0  0  0  0
   -6.1475    5.0237  -15.6826 C   0  0  0  0  0  0  0  0  0  0  0  0
   -5.2038    4.9897  -18.0016 C   0  0  0  0  0  0  0  0  0  0  0  0
   -4.1050    5.3570  -17.5897 O   0  0  0  0  0  0  0  0  0  0  0  0
   -5.4761    4.8117  -19.4682 C   0  0  0  0  0  0  0  0  0  0  0  0
   -6.7185    4.0461  -19.8101 C   0  0  0  0  0  0  0  0  0  0  0  0
   -6.9027    3.4637  -20.8796 O   0  0  0  0  0  0  0  0  0  0  0  0
   -7.7124    4.0213  -18.8798 N   0  0  0  0  0  0  0  0  0  0  0  0
   -8.6115    3.7520  -19.1772 H   0  0  0  0  0  0  0  0  0  0  0  0
  5  6  1  0  0  0
  6  7  2  0  0  0
  7  8  1  0  0  0
  8  1  1  0  0  0
  1  2  1  0  0  0
  2  3  2  0  0  0
  2 19  1  0  0  0
 19 20  2  0  0  0
 20 21  1  0  0  0
 21 22  2  0  0  0
 22 23  1  0  0  0
 23 24  2  0  0  0
 23 25  1  0  0  0
 25 26  2  0  0  0
 25 27  1  0  0  0
 27 28  1  0  0  0
 28 29  2  0  0  0
 28 30  1  0  0  0
  8  9  2  0  0  0
  9 10  1  0  0  0
 10 11  2  0  0  0
 11 12  1  0  0  0
 12 13  1  0  0  0
 13 14  1  0  0  0
 14 15  1  0  0  0
 11  6  1  0  0  0
 24 19  1  0  0  0
 14 10  1  0  0  0
 30 22  1  0  0  0
  1  4  1  0  0  0
 30 31  1  0  0  0
 13 16  1  0  0  0
 15 17  1  0  0  0
 15 18  1  0  0  0
M  END
> <minimizedAffinity>
-8.54907

> <minimizedRMSD>
0.37233

$$$$
P25266


 28 31  0  0  0  0  0  0  0  0999 V2000
   -7.1023    5.0047  -13.3785 C   0  0  0  0  0  0  0  0  0  0  0  0
   -6.5103    5.9571  -13.0523 O   0  0  0  0  0  0  0  0  0  0  0  0
   -7.8533    3.9503  -12.5295 N   0  0  0  0  0  0  0  0  0  0  0  0
   -8.2130    3.1897  -13.0407 H   0  0  0  0  0  0  0  0  0  0  0  0
   -6.9412    3.4564  -20.9048 O   0  0  0  0  0  0  0  0  0  0  0  0
   -6.7855    4.0253  -19.8256 C   0  0  0  0  0  0  0  0  0  0  0  0
   -5.5682    4.8364  -19.4859 C   0  0  0  0  0  0  0  0  0  0  0  0
   -5.2639    4.9633  -18.0218 C   0  0  0  0  0  0  0  0  0  0  0  0
   -4.1502    5.2915  -17.6161 O   0  0  0  0  0  0  0  0  0  0  0  0
   -6.3673    4.7413  -17.0673 C   0  0  0  0  0  0  0  0  0  0  0  0
   -6.1853    4.9604  -15.6986 C   0  0  0  0  0  0  0  0  0  0  0  0
   -7.2502    4.7213  -14.8278 C   0  0  0  0  0  0  0  0  0  0  0  0
   -8.4915    4.3082  -15.3229 C   0  0  0  0  0  0  0  0  0  0  0  0
   -8.6705    4.1053  -16.6880 C   0  0  0  0  0  0  0  0  0  0  0  0
   -7.5992    4.2997  -17.5540 C   0  0  0  0  0  0  0  0  0  0  0  0
   -7.7694    3.9628  -18.8894 N   0  0  0  0  0  0  0  0  0  0  0  0
   -8.6603    3.6588  -19.1775 H   0  0  0  0  0  0  0  0  0  0  0  0
   -8.1030    3.9027  -11.1598 C   0  0  0  0  0  0  0  0  0  0  0  0
   -7.9667    5.0508  -10.3605 C   0  0  0  0  0  0  0  0  0  0  0  0
   -8.2480    5.0041   -8.9938 C   0  0  0  0  0  0  0  0  0  0  0  0
   -8.6634    3.7967   -8.4696 C   0  0  0  0  0  0  0  0  0  0  0  0
   -8.7991    2.6458   -9.2392 C   0  0  0  0  0  0  0  0  0  0  0  0
   -8.5197    2.6853  -10.5961 C   0  0  0  0  0  0  0  0  0  0  0  0
   -9.2481    1.5164   -8.3694 C   0  0  0  0  0  0  0  0  0  0  0  0
   -9.4459    2.1595   -7.0882 N   0  0  0  0  0  0  0  0  0  0  0  0
   -9.0396    3.4741   -7.0904 C   0  0  0  0  0  0  0  0  0  0  0  0
   -8.9891    4.2468   -6.1529 O   0  0  0  0  0  0  0  0  0  0  0  0
   -9.8285    1.7066   -6.3022 H   0  0  0  0  0  0  0  0  0  0  0  0
  5  6  2  0  0  0
  6  7  1  0  0  0
  7  8  1  0  0  0
  8  9  2  0  0  0
  8 10  1  0  0  0
 10 11  2  0  0  0
 11 12  1  0  0  0
 12  1  1  0  0  0
  1  2  2  0  0  0
  1  3  1  0  0  0
  3 18  1  0  0  0
 18 19  2  0  0  0
 19 20  1  0  0  0
 20 21  2  0  0  0
 21 22  1  0  0  0
 22 23  2  0  0  0
 22 24  1  0  0  0
 24 25  1  0  0  0
 25 26  1  0  0  0
 26 27  2  0  0  0
 12 13  2  0  0  0
 13 14  1  0  0  0
 14 15  2  0  0  0
 15 16  1  0  0  0
 16  6  1  0  0  0
 15 10  1  0  0  0
 23 18  1  0  0  0
 26 21  1  0  0  0
  3  4  1  0  0  0
 25 28  1  0  0  0
 16 17  1  0  0  0
M  END
> <minimizedAffinity>
-8.70436

> <minimizedRMSD>
0.43311

$$$$
P25268


 31 34  0  0  0  0  0  0  0  0999 V2000
   -5.4908    5.5249  -18.1719 C   0  0  0  0  0  0  0  0  0  0  0  0
   -5.5656    4.8577  -19.5546 C   0  0  0  0  0  0  0  0  0  0  0  0
   -6.7863    4.0183  -19.8412 C   0  0  0  0  0  0  0  0  0  0  0  0
   -6.8995    3.3809  -20.8904 O   0  0  0  0  0  0  0  0  0  0  0  0
   -7.7564    3.9647  -18.9013 N   0  0  0  0  0  0  0  0  0  0  0  0
   -7.5775    4.3089  -17.5679 C   0  0  0  0  0  0  0  0  0  0  0  0
   -8.6008    3.9950  -16.6816 C   0  0  0  0  0  0  0  0  0  0  0  0
   -9.7424    3.4910  -17.1664 F   0  0  0  0  0  0  0  0  0  0  0  0
   -8.4585    4.2066  -15.3230 C   0  0  0  0  0  0  0  0  0  0  0  0
   -7.2586    4.7317  -14.8419 C   0  0  0  0  0  0  0  0  0  0  0  0
   -6.2417    5.1077  -15.7404 C   0  0  0  0  0  0  0  0  0  0  0  0
   -6.4003    4.9170  -17.1259 C   0  0  0  0  0  0  0  0  0  0  0  0
   -8.6502    3.6611  -19.1810 H   0  0  0  0  0  0  0  0  0  0  0  0
   -7.1162    5.0322  -13.3856 C   0  0  0  0  0  0  0  0  0  0  0  0
   -6.5497    6.0046  -13.0699 O   0  0  0  0  0  0  0  0  0  0  0  0
   -7.8427    3.9678  -12.5237 N   0  0  0  0  0  0  0  0  0  0  0  0
   -8.1810    3.1916  -13.0260 H   0  0  0  0  0  0  0  0  0  0  0  0
   -8.0949    3.9311  -11.1526 C   0  0  0  0  0  0  0  0  0  0  0  0
   -7.9448    5.0654  -10.3397 C   0  0  0  0  0  0  0  0  0  0  0  0
   -8.2447    5.0116   -8.9719 C   0  0  0  0  0  0  0  0  0  0  0  0
   -8.7012    3.8163   -8.4461 C   0  0  0  0  0  0  0  0  0  0  0  0
   -8.8389    2.6875   -9.2471 C   0  0  0  0  0  0  0  0  0  0  0  0
   -8.5392    2.7244  -10.5985 C   0  0  0  0  0  0  0  0  0  0  0  0
   -9.3110    1.5468   -8.4065 C   0  0  0  0  0  0  0  0  0  0  0  0
   -9.8164    2.1742   -7.1571 N   0  0  0  0  0  0  0  0  0  0  0  0
   -9.1016    3.4676   -7.0503 C   0  0  0  0  0  0  0  0  0  0  0  0
   -9.6085    1.5838   -6.3517 H   0  0  0  0  0  0  0  0  0  0  0  0
   -4.0163    5.8056  -17.7857 C   0  0  0  0  0  0  0  0  0  0  0  0
   -1.6896    5.2293  -17.8597 C   0  0  0  0  0  0  0  0  0  0  0  0
   -3.0463    4.7666  -18.1475 N   0  0  0  0  0  0  0  0  0  0  0  0
   -3.2374    3.9228  -17.6072 H   0  0  0  0  0  0  0  0  0  0  0  0
 29 30  1  0  0  0
 30 28  1  0  0  0
  1 28  1  0  0  0
  1  2  1  0  0  0
  2  3  1  0  0  0
  3  4  2  0  0  0
  3  5  1  0  0  0
  5  6  1  0  0  0
  6  7  2  0  0  0
  7  8  1  0  0  0
  7  9  1  0  0  0
  9 10  2  0  0  0
 10 14  1  0  0  0
 14 15  2  0  0  0
 14 16  1  0  0  0
 16 18  1  0  0  0
 18 19  2  0  0  0
 19 20  1  0  0  0
 20 21  2  0  0  0
 21 22  1  0  0  0
 22 23  2  0  0  0
 22 24  1  0  0  0
 24 25  1  0  0  0
 25 26  1  0  0  0
 10 11  1  0  0  0
 11 12  2  0  0  0
 12  1  1  0  0  0
 12  6  1  0  0  0
 23 18  1  0  0  0
 26 21  1  0  0  0
 30 31  1  0  0  0
  5 13  1  0  0  0
 16 17  1  0  0  0
 25 27  1  0  0  0
M  END
> <minimizedAffinity>
-8.38234

> <minimizedRMSD>
0.37180

$$$$
P25277


 38 41  0  0  0  0  0  0  0  0999 V2000
   -7.3371    5.0343  -13.3320 C   0  0  0  0  0  0  0  0  0  0  0  0
   -5.9945    5.0011  -12.8778 O   0  0  0  0  0  0  0  0  0  0  0  0
   -5.6194    4.1217  -13.0416 H   0  0  0  0  0  0  0  0  0  0  0  0
   -5.0835    4.8709  -17.9876 C   0  0  0  0  0  0  0  0  0  0  0  0
   -5.5114    5.0845  -19.4472 C   0  0  0  0  0  0  0  0  0  0  0  0
   -6.5918    4.1171  -19.8542 C   0  0  0  0  0  0  0  0  0  0  0  0
   -6.6300    3.5255  -20.9286 O   0  0  0  0  0  0  0  0  0  0  0  0
   -7.5963    3.9836  -18.9565 N   0  0  0  0  0  0  0  0  0  0  0  0
   -7.5063    4.3438  -17.6134 C   0  0  0  0  0  0  0  0  0  0  0  0
   -8.6344    4.2044  -16.8163 C   0  0  0  0  0  0  0  0  0  0  0  0
  -10.1576    3.9377  -17.5392 Cl  0  0  0  0  0  0  0  0  0  0  0  0
   -8.5581    4.3884  -15.4476 C   0  0  0  0  0  0  0  0  0  0  0  0
   -7.3527    4.7604  -14.8403 C   0  0  0  0  0  0  0  0  0  0  0  0
   -6.2256    4.9529  -15.6720 C   0  0  0  0  0  0  0  0  0  0  0  0
   -6.2890    4.7644  -17.0670 C   0  0  0  0  0  0  0  0  0  0  0  0
   -8.4484    3.6064  -19.2742 H   0  0  0  0  0  0  0  0  0  0  0  0
   -2.6505    5.2954  -17.4389 C   0  0  0  0  0  0  0  0  0  0  0  0
   -4.0303    5.9256  -17.6011 C   0  0  0  0  0  0  0  0  0  0  0  0
   -8.0402    6.4675  -13.0969 C   0  0  0  0  0  0  0  0  0  0  0  0
   -9.1804    6.6780  -13.2673 O   0  0  0  0  0  0  0  0  0  0  0  0
   -6.8902    7.4261  -12.6501 N   0  0  0  0  0  0  0  0  0  0  0  0
   -5.9922    7.0227  -12.6535 H   0  0  0  0  0  0  0  0  0  0  0  0
   -6.9309    8.8025  -12.2346 C   0  0  0  0  0  0  0  0  0  0  0  0
   -7.2713    9.7227  -13.3964 C   0  0  0  0  0  0  0  0  0  0  0  0
   -8.7029   10.2113  -13.2994 C   0  0  0  0  0  0  0  0  0  0  0  0
   -9.2866    9.6620  -12.2018 F   0  0  0  0  0  0  0  0  0  0  0  0
   -8.0091    3.9663  -12.5948 N   0  0  0  0  0  0  0  0  0  0  0  0
   -8.3097    3.1805  -13.1062 H   0  0  0  0  0  0  0  0  0  0  0  0
   -8.2579    3.9747  -11.2187 C   0  0  0  0  0  0  0  0  0  0  0  0
   -7.9855    5.0638  -10.3665 C   0  0  0  0  0  0  0  0  0  0  0  0
   -8.1984    5.0031   -8.9836 C   0  0  0  0  0  0  0  0  0  0  0  0
   -8.6264    3.8119   -8.4406 C   0  0  0  0  0  0  0  0  0  0  0  0
   -8.8416    2.7077   -9.2464 C   0  0  0  0  0  0  0  0  0  0  0  0
   -8.6722    2.7733  -10.6224 C   0  0  0  0  0  0  0  0  0  0  0  0
   -9.2309    1.5444   -8.4028 C   0  0  0  0  0  0  0  0  0  0  0  0
   -9.1860    2.0117   -6.9904 N   0  0  0  0  0  0  0  0  0  0  0  0
   -8.9198    3.4656   -7.0241 C   0  0  0  0  0  0  0  0  0  0  0  0
   -8.4412    1.5309   -6.4859 H   0  0  0  0  0  0  0  0  0  0  0  0
 17 18  1  0  0  0
  4 18  1  0  0  0
  4  5  1  0  0  0
  5  6  1  0  0  0
  6  7  2  0  0  0
  6  8  1  0  0  0
  8  9  1  0  0  0
  9 10  2  0  0  0
 10 11  1  0  0  0
 10 12  1  0  0  0
 12 13  2  0  0  0
 13  1  1  0  0  0
  1  2  1  0  0  0
  1 27  1  0  0  0
 27 29  1  0  0  0
 29 30  2  0  0  0
 30 31  1  0  0  0
 31 32  2  0  0  0
 32 33  1  0  0  0
 33 34  2  0  0  0
 33 35  1  0  0  0
 35 36  1  0  0  0
 36 37  1  0  0  0
  1 19  1  0  0  0
 19 20  2  0  0  0
 19 21  1  0  0  0
 21 23  1  0  0  0
 23 24  1  0  0  0
 24 25  1  0  0  0
 25 26  1  0  0  0
 13 14  1  0  0  0
 14 15  2  0  0  0
 15  4  1  0  0  0
 15  9  1  0  0  0
 34 29  1  0  0  0
 37 32  1  0  0  0
  8 16  1  0  0  0
  2  3  1  0  0  0
 27 28  1  0  0  0
 36 38  1  0  0  0
 21 22  1  0  0  0
M  END
> <minimizedAffinity>
-7.89009

> <minimizedRMSD>
0.76389

$$$$
P25278


 31 34  0  0  0  0  0  0  0  0999 V2000
   -5.5257    5.3438  -19.2244 C   0  0  0  0  0  0  0  0  0  0  0  0
   -5.0209    5.0573  -17.8000 C   0  0  0  0  0  0  0  0  0  0  0  0
   -6.1635    4.8506  -16.8393 C   0  0  0  0  0  0  0  0  0  0  0  0
   -6.0217    5.0196  -15.4539 C   0  0  0  0  0  0  0  0  0  0  0  0
   -7.1142    4.7879  -14.6014 C   0  0  0  0  0  0  0  0  0  0  0  0
   -8.3583    4.4345  -15.1284 C   0  0  0  0  0  0  0  0  0  0  0  0
   -8.4906    4.2763  -16.4974 C   0  0  0  0  0  0  0  0  0  0  0  0
  -10.0227    4.0253  -17.2084 Cl  0  0  0  0  0  0  0  0  0  0  0  0
   -7.3985    4.4363  -17.3387 C   0  0  0  0  0  0  0  0  0  0  0  0
   -7.5482    4.1302  -18.6883 N   0  0  0  0  0  0  0  0  0  0  0  0
   -6.5826    4.3144  -19.6215 C   0  0  0  0  0  0  0  0  0  0  0  0
   -6.6502    3.7131  -20.6896 O   0  0  0  0  0  0  0  0  0  0  0  0
   -8.4098    3.7564  -18.9837 H   0  0  0  0  0  0  0  0  0  0  0  0
   -6.9955    5.0536  -13.1406 C   0  0  0  0  0  0  0  0  0  0  0  0
   -6.2954    5.9205  -12.7888 O   0  0  0  0  0  0  0  0  0  0  0  0
   -7.9504    4.1413  -12.3292 N   0  0  0  0  0  0  0  0  0  0  0  0
   -8.4961    3.5284  -12.8731 H   0  0  0  0  0  0  0  0  0  0  0  0
   -8.1620    4.0476  -10.9552 C   0  0  0  0  0  0  0  0  0  0  0  0
   -8.0038    5.1608  -10.1168 C   0  0  0  0  0  0  0  0  0  0  0  0
   -8.2615    5.0635   -8.7449 C   0  0  0  0  0  0  0  0  0  0  0  0
   -8.6619    3.8413   -8.2350 C   0  0  0  0  0  0  0  0  0  0  0  0
   -8.8079    2.7357   -9.0609 C   0  0  0  0  0  0  0  0  0  0  0  0
   -8.5756    2.8211  -10.4249 C   0  0  0  0  0  0  0  0  0  0  0  0
   -9.1984    1.5510   -8.2450 C   0  0  0  0  0  0  0  0  0  0  0  0
   -9.4357    2.0528   -6.8668 N   0  0  0  0  0  0  0  0  0  0  0  0
   -8.9887    3.4619   -6.8318 C   0  0  0  0  0  0  0  0  0  0  0  0
   -8.9013    1.4998   -6.1966 H   0  0  0  0  0  0  0  0  0  0  0  0
   -4.4140    5.4320  -20.2722 C   0  0  0  0  0  0  0  0  0  0  0  0
   -2.3465    6.4940  -20.9065 C   0  0  0  0  0  0  0  0  0  0  0  0
   -3.3006    6.2921  -19.8244 N   0  0  0  0  0  0  0  0  0  0  0  0
   -3.6714    7.1957  -19.5306 H   0  0  0  0  0  0  0  0  0  0  0  0
 29 30  1  0  0  0
 30 28  1  0  0  0
  1 28  1  0  0  0
  1  2  1  0  0  0
  2  3  1  0  0  0
  3  4  2  0  0  0
  4  5  1  0  0  0
  5 14  1  0  0  0
 14 15  2  0  0  0
 14 16  1  0  0  0
 16 18  1  0  0  0
 18 19  2  0  0  0
 19 20  1  0  0  0
 20 21  2  0  0  0
 21 22  1  0  0  0
 22 23  2  0  0  0
 22 24  1  0  0  0
 24 25  1  0  0  0
 25 26  1  0  0  0
  5  6  2  0  0  0
  6  7  1  0  0  0
  7  8  1  0  0  0
  7  9  2  0  0  0
  9 10  1  0  0  0
 10 11  1  0  0  0
 11 12  2  0  0  0
 11  1  1  0  0  0
  9  3  1  0  0  0
 23 18  1  0  0  0
 26 21  1  0  0  0
 30 31  1  0  0  0
 16 17  1  0  0  0
 25 27  1  0  0  0
 10 13  1  0  0  0
M  END
> <minimizedAffinity>
-8.02492

> <minimizedRMSD>
0.39553

$$$$
P25281


 39 42  0  0  0  0  0  0  0  0999 V2000
   -7.8057    5.1297  -13.3244 C   0  0  0  0  0  0  0  0  0  0  0  0
   -9.1231    5.6700  -13.3759 O   0  0  0  0  0  0  0  0  0  0  0  0
   -9.4186    5.8878  -12.4781 H   0  0  0  0  0  0  0  0  0  0  0  0
   -7.4537    4.8285  -14.7860 C   0  0  0  0  0  0  0  0  0  0  0  0
   -8.4228    4.4197  -15.7109 C   0  0  0  0  0  0  0  0  0  0  0  0
   -8.1268    4.3433  -17.0804 C   0  0  0  0  0  0  0  0  0  0  0  0
   -9.4137    3.9810  -18.1454 Cl  0  0  0  0  0  0  0  0  0  0  0  0
   -6.8471    4.6444  -17.5639 C   0  0  0  0  0  0  0  0  0  0  0  0
   -5.8551    4.9909  -16.6520 C   0  0  0  0  0  0  0  0  0  0  0  0
   -6.1716    5.0770  -15.2854 C   0  0  0  0  0  0  0  0  0  0  0  0
   -4.5237    5.4773  -17.1579 C   0  0  0  0  0  0  0  0  0  0  0  0
   -4.5587    6.8346  -17.3078 F   0  0  0  0  0  0  0  0  0  0  0  0
   -4.1540    4.8704  -18.4831 C   0  0  0  0  0  0  0  0  0  0  0  0
   -5.2909    4.9650  -19.4402 C   0  0  0  0  0  0  0  0  0  0  0  0
   -5.0609    5.1848  -20.6264 O   0  0  0  0  0  0  0  0  0  0  0  0
   -6.5437    4.7155  -18.9383 N   0  0  0  0  0  0  0  0  0  0  0  0
   -7.2777    4.5774  -19.5797 H   0  0  0  0  0  0  0  0  0  0  0  0
   -3.4462    5.1926  -16.2029 N   0  0  0  0  0  0  0  0  0  0  0  0
   -2.2016    5.2213  -16.7915 F   0  0  0  0  0  0  0  0  0  0  0  0
   -3.5986    4.2663  -15.8038 H   0  0  0  0  0  0  0  0  0  0  0  0
   -7.4647    7.5668  -12.7535 N   0  0  0  0  0  0  0  0  0  0  0  0
   -6.7580    6.1752  -12.6691 C   0  0  0  0  0  0  0  0  0  0  0  0
   -5.6826    5.8920  -12.3020 O   0  0  0  0  0  0  0  0  0  0  0  0
   -8.3548    7.5527  -13.1740 H   0  0  0  0  0  0  0  0  0  0  0  0
   -7.8976    9.9622  -12.9149 C   0  0  0  0  0  0  0  0  0  0  0  0
   -7.0238    8.8690  -12.3148 C   0  0  0  0  0  0  0  0  0  0  0  0
   -7.0187    8.9369  -10.7920 C   0  0  0  0  0  0  0  0  0  0  0  0
   -7.9028    3.9033  -12.5516 N   0  0  0  0  0  0  0  0  0  0  0  0
   -7.8218    3.0433  -13.0239 H   0  0  0  0  0  0  0  0  0  0  0  0
   -8.1071    3.8878  -11.1607 C   0  0  0  0  0  0  0  0  0  0  0  0
   -8.0099    5.0232  -10.3245 C   0  0  0  0  0  0  0  0  0  0  0  0
   -8.2578    4.9633   -8.9489 C   0  0  0  0  0  0  0  0  0  0  0  0
   -8.6843    3.7669   -8.4215 C   0  0  0  0  0  0  0  0  0  0  0  0
   -8.8392    2.6486   -9.2300 C   0  0  0  0  0  0  0  0  0  0  0  0
   -8.5496    2.6885  -10.5842 C   0  0  0  0  0  0  0  0  0  0  0  0
   -9.3227    1.5136   -8.3907 C   0  0  0  0  0  0  0  0  0  0  0  0
   -9.8249    2.1508   -7.1429 N   0  0  0  0  0  0  0  0  0  0  0  0
   -9.0632    3.4127   -7.0233 C   0  0  0  0  0  0  0  0  0  0  0  0
   -9.6504    1.5491   -6.3380 H   0  0  0  0  0  0  0  0  0  0  0  0
 25 26  1  0  0  0
 26 27  1  0  0  0
 26 21  1  0  0  0
 21 22  1  0  0  0
 22 23  2  0  0  0
 22  1  1  0  0  0
  1  2  1  0  0  0
  1 28  1  0  0  0
 28 30  1  0  0  0
 30 31  2  0  0  0
 31 32  1  0  0  0
 32 33  2  0  0  0
 33 34  1  0  0  0
 34 35  2  0  0  0
 34 36  1  0  0  0
 36 37  1  0  0  0
 37 38  1  0  0  0
  1  4  1  0  0  0
  4  5  2  0  0  0
  5  6  1  0  0  0
  6  7  1  0  0  0
  6  8  2  0  0  0
  8  9  1  0  0  0
  9 10  2  0  0  0
  9 11  1  0  0  0
 11 12  1  0  0  0
 11 18  1  0  0  0
 18 19  1  0  0  0
 11 13  1  0  0  0
 13 14  1  0  0  0
 14 15  2  0  0  0
 14 16  1  0  0  0
 35 30  1  0  0  0
 10  4  1  0  0  0
 38 33  1  0  0  0
 16  8  1  0  0  0
 21 24  1  0  0  0
  2  3  1  0  0  0
 28 29  1  0  0  0
 37 39  1  0  0  0
 18 20  1  0  0  0
 16 17  1  0  0  0
M  END
> <minimizedAffinity>
-9.04287

> <minimizedRMSD>
0.65059

$$$$
P25283


 33 37  0  0  0  0  0  0  0  0999 V2000
   -6.6334    3.5183  -20.9896 O   0  0  0  0  0  0  0  0  0  0  0  0
   -6.5602    4.1568  -19.9443 C   0  0  0  0  0  0  0  0  0  0  0  0
   -5.5080    5.1933  -19.6609 C   0  0  0  0  0  0  0  0  0  0  0  0
   -5.0734    5.3026  -18.1847 C   0  0  0  0  0  0  0  0  0  0  0  0
   -6.1416    4.8756  -17.1994 C   0  0  0  0  0  0  0  0  0  0  0  0
   -5.9940    5.0645  -15.8118 C   0  0  0  0  0  0  0  0  0  0  0  0
   -7.0474    4.7652  -14.9308 C   0  0  0  0  0  0  0  0  0  0  0  0
   -8.2822    4.3524  -15.4278 C   0  0  0  0  0  0  0  0  0  0  0  0
   -8.4306    4.1862  -16.7955 C   0  0  0  0  0  0  0  0  0  0  0  0
   -9.9821    3.9124  -17.4620 Cl  0  0  0  0  0  0  0  0  0  0  0  0
   -7.3578    4.3788  -17.6642 C   0  0  0  0  0  0  0  0  0  0  0  0
   -7.5160    4.0258  -18.9993 N   0  0  0  0  0  0  0  0  0  0  0  0
   -8.3851    3.6545  -19.2751 H   0  0  0  0  0  0  0  0  0  0  0  0
   -6.9075    5.0507  -13.4769 C   0  0  0  0  0  0  0  0  0  0  0  0
   -6.2932    5.9908  -13.1537 O   0  0  0  0  0  0  0  0  0  0  0  0
   -7.7131    4.0358  -12.6263 N   0  0  0  0  0  0  0  0  0  0  0  0
   -8.0844    3.2771  -13.1320 H   0  0  0  0  0  0  0  0  0  0  0  0
   -7.9976    4.0226  -11.2605 C   0  0  0  0  0  0  0  0  0  0  0  0
   -7.8147    5.1601  -10.4591 C   0  0  0  0  0  0  0  0  0  0  0  0
   -8.1218    5.1319   -9.0930 C   0  0  0  0  0  0  0  0  0  0  0  0
   -8.6082    3.9552   -8.5542 C   0  0  0  0  0  0  0  0  0  0  0  0
   -8.7810    2.8232   -9.3440 C   0  0  0  0  0  0  0  0  0  0  0  0
   -8.4867    2.8382  -10.6974 C   0  0  0  0  0  0  0  0  0  0  0  0
   -9.2632    1.7006   -8.4851 C   0  0  0  0  0  0  0  0  0  0  0  0
   -9.7348    2.3482   -7.2336 N   0  0  0  0  0  0  0  0  0  0  0  0
   -8.9991    3.6302   -7.1505 C   0  0  0  0  0  0  0  0  0  0  0  0
   -9.5218    1.7619   -6.4266 H   0  0  0  0  0  0  0  0  0  0  0  0
   -3.7043    4.6364  -17.9572 C   0  0  0  0  0  0  0  0  0  0  0  0
   -2.5789    5.5914  -18.3713 C   0  0  0  0  0  0  0  0  0  0  0  0
   -1.3351    5.6457  -17.4653 C   0  0  0  0  0  0  0  0  0  0  0  0
   -1.9195    6.8184  -16.7782 N   0  0  0  0  0  0  0  0  0  0  0  0
   -2.7498    7.0757  -17.9735 C   0  0  0  0  0  0  0  0  0  0  0  0
   -1.2493    7.5574  -16.5657 H   0  0  0  0  0  0  0  0  0  0  0  0
  1  2  2  0  0  0
  2  3  1  0  0  0
  3  4  1  0  0  0
  4 28  1  0  0  0
 28 29  1  0  0  0
 29 30  1  0  0  0
 30 31  1  0  0  0
 31 32  1  0  0  0
  4  5  1  0  0  0
  5  6  2  0  0  0
  6  7  1  0  0  0
  7 14  1  0  0  0
 14 15  2  0  0  0
 14 16  1  0  0  0
 16 18  1  0  0  0
 18 19  2  0  0  0
 19 20  1  0  0  0
 20 21  2  0  0  0
 21 22  1  0  0  0
 22 23  2  0  0  0
 22 24  1  0  0  0
 24 25  1  0  0  0
 25 26  1  0  0  0
  7  8  2  0  0  0
  8  9  1  0  0  0
  9 10  1  0  0  0
  9 11  2  0  0  0
 11 12  1  0  0  0
 12  2  1  0  0  0
 32 29  1  0  0  0
 11  5  1  0  0  0
 23 18  1  0  0  0
 26 21  1  0  0  0
 31 33  1  0  0  0
 16 17  1  0  0  0
 25 27  1  0  0  0
 12 13  1  0  0  0
M  END
> <minimizedAffinity>
-8.41895

> <minimizedRMSD>
0.33952

$$$$
P25284


 34 37  0  0  0  0  0  0  0  0999 V2000
   -4.2840    5.9610  -18.9400 C   0  0  0  0  0  0  0  0  0  0  0  0
   -3.9959    5.2600  -17.6177 C   0  0  0  0  0  0  0  0  0  0  0  0
   -5.2644    5.0523  -16.8428 C   0  0  0  0  0  0  0  0  0  0  0  0
   -5.2629    5.0400  -15.4488 C   0  0  0  0  0  0  0  0  0  0  0  0
   -6.4424    4.7781  -14.7369 C   0  0  0  0  0  0  0  0  0  0  0  0
   -7.6251    4.4906  -15.4166 C   0  0  0  0  0  0  0  0  0  0  0  0
   -7.6238    4.5139  -16.8145 C   0  0  0  0  0  0  0  0  0  0  0  0
   -9.0976    4.2834  -17.6635 Cl  0  0  0  0  0  0  0  0  0  0  0  0
   -6.4549    4.8039  -17.5267 C   0  0  0  0  0  0  0  0  0  0  0  0
   -6.4457    4.8271  -18.9277 N   0  0  0  0  0  0  0  0  0  0  0  0
   -5.3678    5.2041  -19.6805 C   0  0  0  0  0  0  0  0  0  0  0  0
   -5.3261    4.9996  -20.8884 O   0  0  0  0  0  0  0  0  0  0  0  0
   -7.2659    4.5552  -19.3994 H   0  0  0  0  0  0  0  0  0  0  0  0
   -6.3870    4.9893  -13.2692 C   0  0  0  0  0  0  0  0  0  0  0  0
   -5.3967    5.4541  -12.8560 O   0  0  0  0  0  0  0  0  0  0  0  0
   -7.6328    4.4548  -12.5218 N   0  0  0  0  0  0  0  0  0  0  0  0
   -8.3127    4.0383  -13.0992 H   0  0  0  0  0  0  0  0  0  0  0  0
   -7.9489    4.4674  -11.1623 C   0  0  0  0  0  0  0  0  0  0  0  0
   -7.6343    5.6097  -10.4040 C   0  0  0  0  0  0  0  0  0  0  0  0
   -7.8234    5.6370   -9.0255 C   0  0  0  0  0  0  0  0  0  0  0  0
   -8.3503    4.5139   -8.4247 C   0  0  0  0  0  0  0  0  0  0  0  0
   -8.7196    3.3958   -9.1645 C   0  0  0  0  0  0  0  0  0  0  0  0
   -8.5154    3.3475  -10.5412 C   0  0  0  0  0  0  0  0  0  0  0  0
   -9.3047    2.3741   -8.2360 C   0  0  0  0  0  0  0  0  0  0  0  0
   -9.2924    2.9876   -6.8720 N   0  0  0  0  0  0  0  0  0  0  0  0
   -8.5736    4.2716   -6.9746 C   0  0  0  0  0  0  0  0  0  0  0  0
  -10.6264    3.1950   -6.2848 C   0  0  0  0  0  0  0  0  0  0  0  0
  -10.8886    2.5573   -4.9296 C   0  0  0  0  0  0  0  0  0  0  0  0
  -12.2120    2.2577   -4.8265 F   0  0  0  0  0  0  0  0  0  0  0  0
  -10.6683    3.4782   -3.9719 F   0  0  0  0  0  0  0  0  0  0  0  0
   -2.9963    6.0840  -19.7684 C   0  0  0  0  0  0  0  0  0  0  0  0
   -2.3250    6.5057  -22.0412 C   0  0  0  0  0  0  0  0  0  0  0  0
   -3.2065    6.9214  -20.9602 N   0  0  0  0  0  0  0  0  0  0  0  0
   -4.1757    6.8328  -21.2653 H   0  0  0  0  0  0  0  0  0  0  0  0
 32 33  1  0  0  0
 33 31  1  0  0  0
  1 31  1  0  0  0
  1  2  1  0  0  0
  2  3  1  0  0  0
  3  4  2  0  0  0
  4  5  1  0  0  0
  5 14  1  0  0  0
 14 15  2  0  0  0
 14 16  1  0  0  0
 16 18  1  0  0  0
 18 19  2  0  0  0
 19 20  1  0  0  0
 20 21  2  0  0  0
 21 22  1  0  0  0
 22 23  2  0  0  0
 22 24  1  0  0  0
 24 25  1  0  0  0
 25 27  1  0  0  0
 27 28  1  0  0  0
 28 29  1  0  0  0
 28 30  1  0  0  0
 25 26  1  0  0  0
  5  6  2  0  0  0
  6  7  1  0  0  0
  7  8  1  0  0  0
  7  9  2  0  0  0
  9 10  1  0  0  0
 10 11  1  0  0  0
 11 12  2  0  0  0
 11  1  1  0  0  0
  9  3  1  0  0  0
 23 18  1  0  0  0
 26 21  1  0  0  0
 33 34  1  0  0  0
 16 17  1  0  0  0
 10 13  1  0  0  0
M  END
> <minimizedAffinity>
-8.63651

> <minimizedRMSD>
0.77254

$$$$
P25289


 31 34  0  0  0  0  0  0  0  0999 V2000
   -4.2481    5.3542  -17.4084 C   0  0  0  0  0  0  0  0  0  0  0  0
   -4.6596    5.8255  -18.8105 C   0  0  0  0  0  0  0  0  0  0  0  0
   -5.7314    4.9476  -19.3973 C   0  0  0  0  0  0  0  0  0  0  0  0
   -5.7429    4.5642  -20.5612 O   0  0  0  0  0  0  0  0  0  0  0  0
   -6.7455    4.6281  -18.5560 N   0  0  0  0  0  0  0  0  0  0  0  0
   -6.6767    4.7301  -17.1681 C   0  0  0  0  0  0  0  0  0  0  0  0
   -7.8059    4.4253  -16.4073 C   0  0  0  0  0  0  0  0  0  0  0  0
   -9.3009    4.1655  -17.1947 Cl  0  0  0  0  0  0  0  0  0  0  0  0
   -7.7501    4.4225  -15.0210 C   0  0  0  0  0  0  0  0  0  0  0  0
   -6.5574    4.7645  -14.3964 C   0  0  0  0  0  0  0  0  0  0  0  0
   -5.4269    5.0905  -15.1496 C   0  0  0  0  0  0  0  0  0  0  0  0
   -5.4720    5.0819  -16.5508 C   0  0  0  0  0  0  0  0  0  0  0  0
   -7.5860    4.3024  -18.9519 H   0  0  0  0  0  0  0  0  0  0  0  0
   -6.4822    4.8890  -12.9234 C   0  0  0  0  0  0  0  0  0  0  0  0
   -5.5844    5.4726  -12.4595 O   0  0  0  0  0  0  0  0  0  0  0  0
   -7.6580    4.1571  -12.2433 N   0  0  0  0  0  0  0  0  0  0  0  0
   -8.2521    3.6705  -12.8594 H   0  0  0  0  0  0  0  0  0  0  0  0
   -8.0150    4.0729  -10.9030 C   0  0  0  0  0  0  0  0  0  0  0  0
   -7.9040    5.1837  -10.0503 C   0  0  0  0  0  0  0  0  0  0  0  0
   -8.2680    5.0900   -8.7041 C   0  0  0  0  0  0  0  0  0  0  0  0
   -8.7402    3.8767   -8.2414 C   0  0  0  0  0  0  0  0  0  0  0  0
   -8.8371    2.7726   -9.0841 C   0  0  0  0  0  0  0  0  0  0  0  0
   -8.4848    2.8509  -10.4186 C   0  0  0  0  0  0  0  0  0  0  0  0
   -9.3198    1.6019   -8.2955 C   0  0  0  0  0  0  0  0  0  0  0  0
   -9.8982    2.1895   -7.0605 N   0  0  0  0  0  0  0  0  0  0  0  0
   -9.1995    3.4823   -6.8772 C   0  0  0  0  0  0  0  0  0  0  0  0
   -9.7317    1.5772   -6.2618 H   0  0  0  0  0  0  0  0  0  0  0  0
   -3.2777    6.3527  -16.7429 C   0  0  0  0  0  0  0  0  0  0  0  0
   -1.0614    5.7123  -17.5237 C   0  0  0  0  0  0  0  0  0  0  0  0
   -2.1137    6.7207  -17.5455 N   0  0  0  0  0  0  0  0  0  0  0  0
   -2.4145    6.8550  -18.5108 H   0  0  0  0  0  0  0  0  0  0  0  0
 29 30  1  0  0  0
 30 28  1  0  0  0
  1 28  1  0  0  0
  1  2  1  0  0  0
  2  3  1  0  0  0
  3  4  2  0  0  0
  3  5  1  0  0  0
  5  6  1  0  0  0
  6  7  2  0  0  0
  7  8  1  0  0  0
  7  9  1  0  0  0
  9 10  2  0  0  0
 10 14  1  0  0  0
 14 15  2  0  0  0
 14 16  1  0  0  0
 16 18  1  0  0  0
 18 19  2  0  0  0
 19 20  1  0  0  0
 20 21  2  0  0  0
 21 22  1  0  0  0
 22 23  2  0  0  0
 22 24  1  0  0  0
 24 25  1  0  0  0
 25 26  1  0  0  0
 10 11  1  0  0  0
 11 12  2  0  0  0
 12  1  1  0  0  0
 12  6  1  0  0  0
 23 18  1  0  0  0
 26 21  1  0  0  0
 30 31  1  0  0  0
  5 13  1  0  0  0
 16 17  1  0  0  0
 25 27  1  0  0  0
M  END
> <minimizedAffinity>
-7.99754

> <minimizedRMSD>
0.80494

$$$$
P25298


 30 34  0  0  0  0  0  0  0  0999 V2000
   -8.4621    4.2983  -17.1953 C   0  0  0  0  0  0  0  0  0  0  0  0
   -8.2884    4.3941  -15.8143 C   0  0  0  0  0  0  0  0  0  0  0  0
   -7.0344    4.6883  -15.2719 C   0  0  0  0  0  0  0  0  0  0  0  0
   -5.9464    4.8716  -16.1478 C   0  0  0  0  0  0  0  0  0  0  0  0
   -4.5855    5.2145  -16.0152 C   0  0  0  0  0  0  0  0  0  0  0  0
   -3.9518    5.2847  -17.1861 N   0  0  0  0  0  0  0  0  0  0  0  0
   -4.9066    5.0021  -18.0953 N   0  0  0  0  0  0  0  0  0  0  0  0
   -6.1385    4.7408  -17.5278 C   0  0  0  0  0  0  0  0  0  0  0  0
   -7.3921    4.4465  -18.0850 C   0  0  0  0  0  0  0  0  0  0  0  0
   -4.6541    5.0056  -19.5517 C   0  0  0  0  0  0  0  0  0  0  0  0
   -4.2814    6.3913  -20.1006 C   0  0  0  0  0  0  0  0  0  0  0  0
   -3.2587    5.7284  -20.9535 N   0  0  0  0  0  0  0  0  0  0  0  0
   -3.2157    4.6225  -19.9595 C   0  0  0  0  0  0  0  0  0  0  0  0
   -2.3855    6.2471  -21.0473 H   0  0  0  0  0  0  0  0  0  0  0  0
   -6.9324    5.0193  -13.8261 C   0  0  0  0  0  0  0  0  0  0  0  0
   -6.2718    5.9330  -13.5187 O   0  0  0  0  0  0  0  0  0  0  0  0
   -7.8434    4.1045  -12.9680 N   0  0  0  0  0  0  0  0  0  0  0  0
   -8.3615    3.4420  -13.4796 H   0  0  0  0  0  0  0  0  0  0  0  0
   -8.0484    4.0675  -11.5892 C   0  0  0  0  0  0  0  0  0  0  0  0
   -7.8378    5.2062  -10.7964 C   0  0  0  0  0  0  0  0  0  0  0  0
   -8.1013    5.1787   -9.4216 C   0  0  0  0  0  0  0  0  0  0  0  0
   -8.5598    3.9985   -8.8634 C   0  0  0  0  0  0  0  0  0  0  0  0
   -8.7506    2.8630   -9.6435 C   0  0  0  0  0  0  0  0  0  0  0  0
   -8.5175    2.8835  -11.0097 C   0  0  0  0  0  0  0  0  0  0  0  0
   -9.1737    1.7322   -8.7608 C   0  0  0  0  0  0  0  0  0  0  0  0
   -9.5930    2.3694   -7.4863 N   0  0  0  0  0  0  0  0  0  0  0  0
   -8.8935    3.6734   -7.4434 C   0  0  0  0  0  0  0  0  0  0  0  0
   -9.3178    1.7916   -6.6921 H   0  0  0  0  0  0  0  0  0  0  0  0
  -10.8857    4.3397  -18.0588 N   0  0  0  0  0  0  0  0  0  0  0  0
   -9.8020    4.2349  -17.6738 C   0  0  0  0  0  0  0  0  0  0  0  0
 29 30  3  0  0  0
 30  1  1  0  0  0
  1  2  2  0  0  0
  2  3  1  0  0  0
  3 15  1  0  0  0
 15 16  2  0  0  0
 15 17  1  0  0  0
 17 19  1  0  0  0
 19 20  2  0  0  0
 20 21  1  0  0  0
 21 22  2  0  0  0
 22 23  1  0  0  0
 23 24  2  0  0  0
 23 25  1  0  0  0
 25 26  1  0  0  0
 26 27  1  0  0  0
  3  4  2  0  0  0
  4  5  1  0  0  0
  5  6  2  0  0  0
  6  7  1  0  0  0
  7 10  1  0  0  0
 10 11  1  0  0  0
 11 12  1  0  0  0
 12 13  1  0  0  0
  7  8  1  0  0  0
  8  9  2  0  0  0
  9  1  1  0  0  0
 24 19  1  0  0  0
  8  4  1  0  0  0
 27 22  1  0  0  0
 13 10  1  0  0  0
 17 18  1  0  0  0
 26 28  1  0  0  0
 12 14  1  0  0  0
M  END
> <minimizedAffinity>
-9.08498

> <minimizedRMSD>
0.27812

$$$$
P25348


 32 36  0  0  0  0  0  0  0  0999 V2000
   -8.5271    4.8380  -15.4896 C   0  0  0  0  0  0  0  0  0  0  0  0
   -9.4371    4.3269  -16.4170 C   0  0  0  0  0  0  0  0  0  0  0  0
   -9.0596    4.1924  -17.7537 C   0  0  0  0  0  0  0  0  0  0  0  0
   -7.7836    4.5731  -18.2015 C   0  0  0  0  0  0  0  0  0  0  0  0
   -6.8836    5.0971  -17.2601 C   0  0  0  0  0  0  0  0  0  0  0  0
   -7.2285    5.1930  -15.9128 C   0  0  0  0  0  0  0  0  0  0  0  0
   -6.0798    5.6939  -15.2704 C   0  0  0  0  0  0  0  0  0  0  0  0
   -5.0795    5.9183  -16.1119 N   0  0  0  0  0  0  0  0  0  0  0  0
   -5.6235    5.6608  -17.3296 N   0  0  0  0  0  0  0  0  0  0  0  0
   -4.8473    6.0356  -18.5454 C   0  0  0  0  0  0  0  0  0  0  0  0
   -3.8996    7.2451  -18.2437 C   0  0  0  0  0  0  0  0  0  0  0  0
   -4.1782    7.7487  -19.6161 N   0  0  0  0  0  0  0  0  0  0  0  0
   -5.4782    7.0230  -19.5507 C   0  0  0  0  0  0  0  0  0  0  0  0
   -3.5368    7.4079  -20.3323 H   0  0  0  0  0  0  0  0  0  0  0  0
   -4.0092    5.0055  -19.2207 N   0  0  0  0  0  0  0  0  0  0  0  0
   -3.1396    4.4332  -18.2154 O   0  0  0  0  0  0  0  0  0  0  0  0
   -3.4531    5.4368  -19.9590 H   0  0  0  0  0  0  0  0  0  0  0  0
   -3.6763    4.0255  -17.5177 H   0  0  0  0  0  0  0  0  0  0  0  0
   -9.4870    6.1903  -13.9463 O   0  0  0  0  0  0  0  0  0  0  0  0
   -8.9187    5.1815  -14.1018 C   0  0  0  0  0  0  0  0  0  0  0  0
   -8.4229    4.1421  -13.0718 N   0  0  0  0  0  0  0  0  0  0  0  0
   -8.0332    3.3272  -13.4634 H   0  0  0  0  0  0  0  0  0  0  0  0
   -8.4374    4.1704  -11.6762 C   0  0  0  0  0  0  0  0  0  0  0  0
   -8.0940    5.3408  -10.9770 C   0  0  0  0  0  0  0  0  0  0  0  0
   -8.0610    5.3627   -9.5782 C   0  0  0  0  0  0  0  0  0  0  0  0
   -8.3734    4.2007   -8.8986 C   0  0  0  0  0  0  0  0  0  0  0  0
   -8.7125    3.0410   -9.5846 C   0  0  0  0  0  0  0  0  0  0  0  0
   -8.7537    3.0078  -10.9712 C   0  0  0  0  0  0  0  0  0  0  0  0
   -8.9338    1.9383   -8.6044 C   0  0  0  0  0  0  0  0  0  0  0  0
   -8.9661    2.5843   -7.2683 N   0  0  0  0  0  0  0  0  0  0  0  0
   -8.3832    3.9307   -7.4324 C   0  0  0  0  0  0  0  0  0  0  0  0
   -8.4156    2.0420   -6.6025 H   0  0  0  0  0  0  0  0  0  0  0  0
 19 20  2  0  0  0
 20 21  1  0  0  0
 21 23  1  0  0  0
 23 24  2  0  0  0
 24 25  1  0  0  0
 25 26  2  0  0  0
 26 27  1  0  0  0
 27 28  2  0  0  0
 27 29  1  0  0  0
 29 30  1  0  0  0
 30 31  1  0  0  0
 20  1  1  0  0  0
  1  2  2  0  0  0
  2  3  1  0  0  0
  3  4  2  0  0  0
  4  5  1  0  0  0
  5  6  2  0  0  0
  6  7  1  0  0  0
  7  8  2  0  0  0
  8  9  1  0  0  0
  9 10  1  0  0  0
 10 15  1  0  0  0
 15 16  1  0  0  0
 10 11  1  0  0  0
 11 12  1  0  0  0
 12 13  1  0  0  0
 28 23  1  0  0  0
  6  1  1  0  0  0
 13 10  1  0  0  0
 31 26  1  0  0  0
  9  5  1  0  0  0
 21 22  1  0  0  0
 30 32  1  0  0  0
 15 17  1  0  0  0
 16 18  1  0  0  0
 12 14  1  0  0  0
M  END
> <minimizedAffinity>
-8.47444

> <minimizedRMSD>
0.72508

$$$$
P25356


 29 33  0  0  0  0  0  0  0  0999 V2000
   -8.5300    4.8886  -15.4022 C   0  0  0  0  0  0  0  0  0  0  0  0
   -9.6205    4.4111  -16.1354 C   0  0  0  0  0  0  0  0  0  0  0  0
   -9.4859    4.1710  -17.4991 C   0  0  0  0  0  0  0  0  0  0  0  0
  -10.5519    3.7524  -18.1960 F   0  0  0  0  0  0  0  0  0  0  0  0
   -8.2827    4.3806  -18.1751 C   0  0  0  0  0  0  0  0  0  0  0  0
   -7.1890    4.8218  -17.4171 C   0  0  0  0  0  0  0  0  0  0  0  0
   -7.2908    5.0758  -16.0525 C   0  0  0  0  0  0  0  0  0  0  0  0
   -6.0024    5.5017  -15.6663 C   0  0  0  0  0  0  0  0  0  0  0  0
   -5.1390    5.5026  -16.6769 N   0  0  0  0  0  0  0  0  0  0  0  0
   -5.8827    5.1157  -17.7338 N   0  0  0  0  0  0  0  0  0  0  0  0
   -5.3449    5.0542  -19.1030 C   0  0  0  0  0  0  0  0  0  0  0  0
   -3.8062    5.0829  -19.2220 C   0  0  0  0  0  0  0  0  0  0  0  0
   -3.9717    5.9979  -20.3912 N   0  0  0  0  0  0  0  0  0  0  0  0
   -5.2471    6.4409  -19.7605 C   0  0  0  0  0  0  0  0  0  0  0  0
   -4.0799    5.5280  -21.2900 H   0  0  0  0  0  0  0  0  0  0  0  0
   -8.8694    6.4632  -13.8067 O   0  0  0  0  0  0  0  0  0  0  0  0
   -8.6640    5.3275  -13.9913 C   0  0  0  0  0  0  0  0  0  0  0  0
   -8.4119    4.1782  -12.9870 N   0  0  0  0  0  0  0  0  0  0  0  0
   -8.1861    3.3131  -13.3991 H   0  0  0  0  0  0  0  0  0  0  0  0
   -8.4524    4.1681  -11.5918 C   0  0  0  0  0  0  0  0  0  0  0  0
   -8.0824    5.3031  -10.8491 C   0  0  0  0  0  0  0  0  0  0  0  0
   -8.1084    5.2892   -9.4496 C   0  0  0  0  0  0  0  0  0  0  0  0
   -8.5061    4.1276   -8.8163 C   0  0  0  0  0  0  0  0  0  0  0  0
   -8.8554    2.9952   -9.5462 C   0  0  0  0  0  0  0  0  0  0  0  0
   -8.8402    2.9993  -10.9320 C   0  0  0  0  0  0  0  0  0  0  0  0
   -9.1683    1.8861   -8.5943 C   0  0  0  0  0  0  0  0  0  0  0  0
   -9.3974    2.5615   -7.2889 N   0  0  0  0  0  0  0  0  0  0  0  0
   -8.6201    3.8185   -7.3608 C   0  0  0  0  0  0  0  0  0  0  0  0
   -9.0643    1.9783   -6.5212 H   0  0  0  0  0  0  0  0  0  0  0  0
 16 17  2  0  0  0
 17 18  1  0  0  0
 18 20  1  0  0  0
 20 21  2  0  0  0
 21 22  1  0  0  0
 22 23  2  0  0  0
 23 24  1  0  0  0
 24 25  2  0  0  0
 24 26  1  0  0  0
 26 27  1  0  0  0
 27 28  1  0  0  0
 17  1  1  0  0  0
  1  2  2  0  0  0
  2  3  1  0  0  0
  3  4  1  0  0  0
  3  5  2  0  0  0
  5  6  1  0  0  0
  6  7  2  0  0  0
  7  8  1  0  0  0
  8  9  2  0  0  0
  9 10  1  0  0  0
 10 11  1  0  0  0
 11 12  1  0  0  0
 12 13  1  0  0  0
 13 14  1  0  0  0
 25 20  1  0  0  0
  7  1  1  0  0  0
 14 11  1  0  0  0
 28 23  1  0  0  0
 10  6  1  0  0  0
 18 19  1  0  0  0
 27 29  1  0  0  0
 13 15  1  0  0  0
M  END
> <minimizedAffinity>
-8.81614

> <minimizedRMSD>
0.55205

$$$$
P25376


 32 35  0  0  0  0  0  0  0  0999 V2000
   -7.9866    5.1469  -13.4758 C   0  0  0  0  0  0  0  0  0  0  0  0
   -4.5867    5.2323  -16.2703 N   0  0  0  0  0  0  0  0  0  0  0  0
   -5.4204    5.1750  -15.1947 C   0  0  0  0  0  0  0  0  0  0  0  0
   -6.6679    4.9499  -15.7130 C   0  0  0  0  0  0  0  0  0  0  0  0
   -7.8558    4.8612  -14.9679 C   0  0  0  0  0  0  0  0  0  0  0  0
   -8.9412    4.6364  -15.8610 C   0  0  0  0  0  0  0  0  0  0  0  0
   -8.8161    4.5202  -17.2869 C   0  0  0  0  0  0  0  0  0  0  0  0
  -10.2475    4.3197  -18.2325 Cl  0  0  0  0  0  0  0  0  0  0  0  0
   -7.6020    4.6367  -17.9821 C   0  0  0  0  0  0  0  0  0  0  0  0
   -6.5123    4.8683  -17.1396 C   0  0  0  0  0  0  0  0  0  0  0  0
   -5.2242    5.0779  -17.4463 N   0  0  0  0  0  0  0  0  0  0  0  0
   -2.5256    5.3306  -14.9828 N   0  0  0  0  0  0  0  0  0  0  0  0
   -3.1402    5.4757  -16.3053 C   0  0  0  0  0  0  0  0  0  0  0  0
   -1.5235    5.5077  -15.0523 H   0  0  0  0  0  0  0  0  0  0  0  0
   -2.6804    4.3832  -14.6381 H   0  0  0  0  0  0  0  0  0  0  0  0
   -8.6321    4.0170  -12.7639 N   0  0  0  0  0  0  0  0  0  0  0  0
   -9.1325    3.3204  -13.2471 H   0  0  0  0  0  0  0  0  0  0  0  0
   -8.4926    3.9898  -11.3508 C   0  0  0  0  0  0  0  0  0  0  0  0
   -8.0905    5.1207  -10.6109 C   0  0  0  0  0  0  0  0  0  0  0  0
   -8.0021    5.1113   -9.2128 C   0  0  0  0  0  0  0  0  0  0  0  0
   -8.3673    3.9629   -8.5457 C   0  0  0  0  0  0  0  0  0  0  0  0
   -8.7948    2.8442   -9.2455 C   0  0  0  0  0  0  0  0  0  0  0  0
   -8.8533    2.8371  -10.6351 C   0  0  0  0  0  0  0  0  0  0  0  0
   -9.1375    1.7635   -8.2748 C   0  0  0  0  0  0  0  0  0  0  0  0
   -9.1196    2.4028   -6.9327 N   0  0  0  0  0  0  0  0  0  0  0  0
   -8.4061    3.6849   -7.0830 C   0  0  0  0  0  0  0  0  0  0  0  0
   -8.6318    1.8053   -6.2652 H   0  0  0  0  0  0  0  0  0  0  0  0
   -8.8024    6.4493  -13.3609 C   0  0  0  0  0  0  0  0  0  0  0  0
   -7.9262    7.6228  -13.0264 C   0  0  0  0  0  0  0  0  0  0  0  0
   -6.7073    7.6580  -13.0043 O   0  0  0  0  0  0  0  0  0  0  0  0
   -8.6374    8.7508  -12.8206 O   0  0  0  0  0  0  0  0  0  0  0  0
   -9.5738    8.7239  -12.8375 H   0  0  0  0  0  0  0  0  0  0  0  0
 12 13  1  0  0  0
 13  2  1  0  0  0
  2  3  1  0  0  0
  3  4  2  0  0  0
  4  5  1  0  0  0
  5  1  1  0  0  0
  1 28  1  0  0  0
 28 29  1  0  0  0
 29 30  2  0  0  0
 29 31  1  0  0  0
  1 16  1  0  0  0
 16 18  1  0  0  0
 18 19  2  0  0  0
 19 20  1  0  0  0
 20 21  2  0  0  0
 21 22  1  0  0  0
 22 23  2  0  0  0
 22 24  1  0  0  0
 24 25  1  0  0  0
 25 26  1  0  0  0
  5  6  2  0  0  0
  6  7  1  0  0  0
  7  8  1  0  0  0
  7  9  2  0  0  0
  9 10  1  0  0  0
 10 11  2  0  0  0
 11  2  1  0  0  0
 10  4  1  0  0  0
 23 18  1  0  0  0
 26 21  1  0  0  0
 12 14  1  0  0  0
 12 15  1  0  0  0
 31 32  1  0  0  0
 16 17  1  0  0  0
 25 27  1  0  0  0
M  END
> <minimizedAffinity>
-7.38573

> <minimizedRMSD>
0.80538

$$$$
P25377


 31 34  0  0  0  0  0  0  0  0999 V2000
   -7.9268    5.1720  -13.6020 C   0  0  0  0  0  0  0  0  0  0  0  0
   -5.0314    4.9904  -19.0496 N   0  0  0  0  0  0  0  0  0  0  0  0
   -5.4507    5.1085  -17.7220 N   0  0  0  0  0  0  0  0  0  0  0  0
   -4.6078    5.4980  -16.7602 N   0  0  0  0  0  0  0  0  0  0  0  0
   -5.3445    5.4406  -15.6527 C   0  0  0  0  0  0  0  0  0  0  0  0
   -6.6872    5.0714  -15.8990 C   0  0  0  0  0  0  0  0  0  0  0  0
   -7.8601    4.8974  -15.1136 C   0  0  0  0  0  0  0  0  0  0  0  0
   -9.0399    4.5687  -15.8280 C   0  0  0  0  0  0  0  0  0  0  0  0
   -9.0596    4.4450  -17.2175 C   0  0  0  0  0  0  0  0  0  0  0  0
  -10.5489    4.2427  -18.0450 Cl  0  0  0  0  0  0  0  0  0  0  0  0
   -7.9033    4.5806  -17.9713 C   0  0  0  0  0  0  0  0  0  0  0  0
   -6.7317    4.8974  -17.2801 C   0  0  0  0  0  0  0  0  0  0  0  0
   -4.0349    5.1992  -19.1113 H   0  0  0  0  0  0  0  0  0  0  0  0
   -5.5530    5.6469  -19.6305 H   0  0  0  0  0  0  0  0  0  0  0  0
   -8.5890    4.0759  -12.8945 N   0  0  0  0  0  0  0  0  0  0  0  0
   -9.1111    3.4220  -13.4133 H   0  0  0  0  0  0  0  0  0  0  0  0
   -8.5061    3.9245  -11.5045 C   0  0  0  0  0  0  0  0  0  0  0  0
   -8.9181    2.7010  -10.9397 C   0  0  0  0  0  0  0  0  0  0  0  0
   -9.0050    2.5015   -9.5557 C   0  0  0  0  0  0  0  0  0  0  0  0
   -8.7390    3.5702   -8.7274 C   0  0  0  0  0  0  0  0  0  0  0  0
   -8.3470    4.7903   -9.2540 C   0  0  0  0  0  0  0  0  0  0  0  0
   -8.1886    4.9671  -10.6198 C   0  0  0  0  0  0  0  0  0  0  0  0
   -8.1348    5.7619   -8.1443 C   0  0  0  0  0  0  0  0  0  0  0  0
   -8.7344    5.1242   -6.9394 N   0  0  0  0  0  0  0  0  0  0  0  0
   -8.7727    3.6617   -7.2414 C   0  0  0  0  0  0  0  0  0  0  0  0
   -9.6768    5.4802   -6.7791 H   0  0  0  0  0  0  0  0  0  0  0  0
   -8.7207    6.4681  -13.3603 C   0  0  0  0  0  0  0  0  0  0  0  0
   -7.7962    7.6101  -13.0524 C   0  0  0  0  0  0  0  0  0  0  0  0
   -6.5781    7.6032  -13.0303 O   0  0  0  0  0  0  0  0  0  0  0  0
   -8.4693    8.7510  -12.7971 O   0  0  0  0  0  0  0  0  0  0  0  0
   -9.4062    8.7560  -12.8141 H   0  0  0  0  0  0  0  0  0  0  0  0
  2  3  1  0  0  0
  3  4  1  0  0  0
  4  5  2  0  0  0
  5  6  1  0  0  0
  6  7  2  0  0  0
  7  1  1  0  0  0
  1 27  1  0  0  0
 27 28  1  0  0  0
 28 29  2  0  0  0
 28 30  1  0  0  0
  1 15  1  0  0  0
 15 17  1  0  0  0
 17 18  2  0  0  0
 18 19  1  0  0  0
 19 20  2  0  0  0
 20 21  1  0  0  0
 21 22  2  0  0  0
 21 23  1  0  0  0
 23 24  1  0  0  0
 24 25  1  0  0  0
  7  8  1  0  0  0
  8  9  2  0  0  0
  9 10  1  0  0  0
  9 11  1  0  0  0
 11 12  2  0  0  0
 12  3  1  0  0  0
 12  6  1  0  0  0
 22 17  1  0  0  0
 25 20  1  0  0  0
  2 13  1  0  0  0
  2 14  1  0  0  0
 30 31  1  0  0  0
 15 16  1  0  0  0
 24 26  1  0  0  0
M  END
> <minimizedAffinity>
-7.47664

> <minimizedRMSD>
0.45718

$$$$
P25381


 34 37  0  0  0  0  0  0  0  0999 V2000
   -7.2434    4.4677  -13.5615 C   0  0  0  0  0  0  0  0  0  0  0  0
   -4.8467    5.3336  -15.7569 C   0  0  0  0  0  0  0  0  0  0  0  0
   -4.2296    5.5109  -16.9316 N   0  0  0  0  0  0  0  0  0  0  0  0
   -5.1510    5.1645  -17.8368 N   0  0  0  0  0  0  0  0  0  0  0  0
   -6.3779    4.9046  -17.3098 C   0  0  0  0  0  0  0  0  0  0  0  0
   -7.5830    4.6706  -17.9617 C   0  0  0  0  0  0  0  0  0  0  0  0
   -8.6950    4.4880  -17.1586 C   0  0  0  0  0  0  0  0  0  0  0  0
  -10.2323    4.3924  -17.9227 Cl  0  0  0  0  0  0  0  0  0  0  0  0
   -8.5793    4.4369  -15.7679 C   0  0  0  0  0  0  0  0  0  0  0  0
   -7.3346    4.5848  -15.0930 C   0  0  0  0  0  0  0  0  0  0  0  0
   -6.2140    4.9136  -15.9273 C   0  0  0  0  0  0  0  0  0  0  0  0
   -4.9582    5.1030  -18.8003 H   0  0  0  0  0  0  0  0  0  0  0  0
   -4.0873    5.7060  -14.5283 C   0  0  0  0  0  0  0  0  0  0  0  0
   -2.5848    3.9464  -13.6984 O   0  0  0  0  0  0  0  0  0  0  0  0
   -2.8017    4.9355  -14.3789 C   0  0  0  0  0  0  0  0  0  0  0  0
   -1.7774    5.5211  -15.0410 O   0  0  0  0  0  0  0  0  0  0  0  0
   -1.9327    6.2812  -15.5665 H   0  0  0  0  0  0  0  0  0  0  0  0
   -8.4999    4.0144  -12.9330 N   0  0  0  0  0  0  0  0  0  0  0  0
   -9.2601    3.6854  -13.4651 H   0  0  0  0  0  0  0  0  0  0  0  0
   -8.5467    4.0806  -11.5238 C   0  0  0  0  0  0  0  0  0  0  0  0
   -8.2550    5.2705  -10.8286 C   0  0  0  0  0  0  0  0  0  0  0  0
   -8.2410    5.3122   -9.4291 C   0  0  0  0  0  0  0  0  0  0  0  0
   -8.5071    4.1462   -8.7357 C   0  0  0  0  0  0  0  0  0  0  0  0
   -8.8242    2.9730   -9.4058 C   0  0  0  0  0  0  0  0  0  0  0  0
   -8.8757    2.9302  -10.7892 C   0  0  0  0  0  0  0  0  0  0  0  0
   -9.0974    1.8915   -8.4176 C   0  0  0  0  0  0  0  0  0  0  0  0
   -8.6821    2.4361   -7.0982 N   0  0  0  0  0  0  0  0  0  0  0  0
   -8.5561    3.9012   -7.2673 C   0  0  0  0  0  0  0  0  0  0  0  0
   -7.7868    2.0356   -6.8179 H   0  0  0  0  0  0  0  0  0  0  0  0
   -5.9954    3.6838  -13.0905 C   0  0  0  0  0  0  0  0  0  0  0  0
   -5.9561    2.2005  -13.3238 C   0  0  0  0  0  0  0  0  0  0  0  0
   -6.9060    1.4420  -13.4035 O   0  0  0  0  0  0  0  0  0  0  0  0
   -4.7053    1.7315  -13.5172 O   0  0  0  0  0  0  0  0  0  0  0  0
   -3.9726    2.3123  -13.4566 H   0  0  0  0  0  0  0  0  0  0  0  0
 14 15  2  0  0  0
 15 16  1  0  0  0
 15 13  1  0  0  0
 13  2  1  0  0  0
  2  3  2  0  0  0
  3  4  1  0  0  0
  4  5  1  0  0  0
  5  6  2  0  0  0
  6  7  1  0  0  0
  7  8  1  0  0  0
  7  9  2  0  0  0
  9 10  1  0  0  0
 10  1  1  0  0  0
  1 30  1  0  0  0
 30 31  1  0  0  0
 31 32  2  0  0  0
 31 33  1  0  0  0
  1 18  1  0  0  0
 18 20  1  0  0  0
 20 21  2  0  0  0
 21 22  1  0  0  0
 22 23  2  0  0  0
 23 24  1  0  0  0
 24 25  2  0  0  0
 24 26  1  0  0  0
 26 27  1  0  0  0
 27 28  1  0  0  0
 10 11  2  0  0  0
 11  2  1  0  0  0
 11  5  1  0  0  0
 25 20  1  0  0  0
 28 23  1  0  0  0
 16 17  1  0  0  0
  4 12  1  0  0  0
 33 34  1  0  0  0
 18 19  1  0  0  0
 27 29  1  0  0  0
M  END
> <minimizedAffinity>
-8.45885

> <minimizedRMSD>
0.68747

$$$$
P25412


 30 33  0  0  0  0  0  0  0  0999 V2000
   -6.7825    4.2550  -13.5102 C   0  0  0  0  0  0  0  0  0  0  0  0
   -6.6700    4.3473  -15.0527 C   0  0  0  0  0  0  0  0  0  0  0  0
   -5.4546    4.5387  -15.6248 C   0  0  0  0  0  0  0  0  0  0  0  0
   -5.2497    4.7443  -17.0511 C   0  0  0  0  0  0  0  0  0  0  0  0
   -3.6286    4.9096  -17.6069 Cl  0  0  0  0  0  0  0  0  0  0  0  0
   -6.2452    4.8522  -17.9344 C   0  0  0  0  0  0  0  0  0  0  0  0
   -7.6026    4.7662  -17.4136 C   0  0  0  0  0  0  0  0  0  0  0  0
   -7.7758    4.4501  -15.9815 C   0  0  0  0  0  0  0  0  0  0  0  0
   -9.1000    4.3779  -15.9352 C   0  0  0  0  0  0  0  0  0  0  0  0
   -9.7712    4.8043  -17.1909 N   0  0  0  0  0  0  0  0  0  0  0  0
  -10.4858    3.8190  -17.6981 O   0  0  0  0  0  0  0  0  0  0  0  0
   -8.6610    4.9954  -18.1155 N   0  0  0  0  0  0  0  0  0  0  0  0
  -10.4838    4.1859  -16.9101 H   0  0  0  0  0  0  0  0  0  0  0  0
   -8.1389    3.9281  -13.0289 N   0  0  0  0  0  0  0  0  0  0  0  0
   -8.8579    3.6408  -13.6369 H   0  0  0  0  0  0  0  0  0  0  0  0
   -8.3355    4.0565  -11.6287 C   0  0  0  0  0  0  0  0  0  0  0  0
   -8.0968    5.2698  -10.9524 C   0  0  0  0  0  0  0  0  0  0  0  0
   -8.2086    5.3636   -9.5572 C   0  0  0  0  0  0  0  0  0  0  0  0
   -8.5613    4.2304   -8.8476 C   0  0  0  0  0  0  0  0  0  0  0  0
   -8.8087    3.0301   -9.5001 C   0  0  0  0  0  0  0  0  0  0  0  0
   -8.7260    2.9339  -10.8797 C   0  0  0  0  0  0  0  0  0  0  0  0
   -9.1099    1.9740   -8.4887 C   0  0  0  0  0  0  0  0  0  0  0  0
   -9.4006    2.7131   -7.2327 N   0  0  0  0  0  0  0  0  0  0  0  0
   -8.7385    4.0286   -7.3797 C   0  0  0  0  0  0  0  0  0  0  0  0
   -9.0215    2.2120   -6.4293 H   0  0  0  0  0  0  0  0  0  0  0  0
   -5.6590    3.4439  -12.8010 C   0  0  0  0  0  0  0  0  0  0  0  0
   -6.6220    1.2075  -13.0425 O   0  0  0  0  0  0  0  0  0  0  0  0
   -5.6582    1.9523  -13.0079 C   0  0  0  0  0  0  0  0  0  0  0  0
   -4.4170    1.4657  -13.2157 O   0  0  0  0  0  0  0  0  0  0  0  0
   -3.6777    2.0408  -13.1885 H   0  0  0  0  0  0  0  0  0  0  0  0
 27 28  2  0  0  0
 28 29  1  0  0  0
 28 26  1  0  0  0
  1 26  1  0  0  0
  1 14  1  0  0  0
 14 16  1  0  0  0
 16 17  2  0  0  0
 17 18  1  0  0  0
 18 19  2  0  0  0
 19 20  1  0  0  0
 20 21  2  0  0  0
 20 22  1  0  0  0
 22 23  1  0  0  0
 23 24  1  0  0  0
  1  2  1  0  0  0
  2  3  2  0  0  0
  3  4  1  0  0  0
  4  5  1  0  0  0
  4  6  2  0  0  0
  6  7  1  0  0  0
  7  8  1  0  0  0
  8  9  2  0  0  0
  9 10  1  0  0  0
 10 11  1  0  0  0
 10 12  1  0  0  0
 21 16  1  0  0  0
  8  2  1  0  0  0
 24 19  1  0  0  0
 12  7  2  0  0  0
 29 30  1  0  0  0
 14 15  1  0  0  0
 23 25  1  0  0  0
 10 13  1  0  0  0
M  CHG 1  10   1
M  CHG 1  11  -1
M  END
> <minimizedAffinity>
-8.55955

> <minimizedRMSD>
0.61638

$$$$
P25457


 33 36  0  0  0  0  0  0  0  0999 V2000
   -8.1009    5.3999  -13.1655 C   0  0  0  0  0  0  0  0  0  0  0  0
   -7.8469    4.9553  -14.6231 C   0  0  0  0  0  0  0  0  0  0  0  0
   -8.9542    4.7370  -15.4803 C   0  0  0  0  0  0  0  0  0  0  0  0
   -8.8074    4.5473  -16.8566 C   0  0  0  0  0  0  0  0  0  0  0  0
  -10.2003    4.3516  -17.8469 Cl  0  0  0  0  0  0  0  0  0  0  0  0
   -7.5560    4.5715  -17.4612 C   0  0  0  0  0  0  0  0  0  0  0  0
   -6.4612    4.7208  -16.6101 C   0  0  0  0  0  0  0  0  0  0  0  0
   -5.1199    4.7418  -16.8786 N   0  0  0  0  0  0  0  0  0  0  0  0
   -4.3421    4.9008  -15.7960 N   0  0  0  0  0  0  0  0  0  0  0  0
   -5.2236    4.9525  -14.7933 C   0  0  0  0  0  0  0  0  0  0  0  0
   -6.5696    4.8785  -15.2312 C   0  0  0  0  0  0  0  0  0  0  0  0
   -4.7560    4.6483  -17.7886 H   0  0  0  0  0  0  0  0  0  0  0  0
   -7.1951    4.6680  -12.2669 N   0  0  0  0  0  0  0  0  0  0  0  0
   -6.3248    4.3259  -12.5749 H   0  0  0  0  0  0  0  0  0  0  0  0
   -7.6403    4.4810  -10.9361 C   0  0  0  0  0  0  0  0  0  0  0  0
   -7.3398    5.4190   -9.9302 C   0  0  0  0  0  0  0  0  0  0  0  0
   -7.7691    5.2670   -8.6078 C   0  0  0  0  0  0  0  0  0  0  0  0
   -8.4720    4.1289   -8.2846 C   0  0  0  0  0  0  0  0  0  0  0  0
   -8.7561    3.1766   -9.2517 C   0  0  0  0  0  0  0  0  0  0  0  0
   -8.3754    3.3437  -10.5794 C   0  0  0  0  0  0  0  0  0  0  0  0
   -9.4129    2.0071   -8.6042 C   0  0  0  0  0  0  0  0  0  0  0  0
   -9.6666    2.3877   -7.1873 N   0  0  0  0  0  0  0  0  0  0  0  0
   -8.9769    3.6761   -6.9595 C   0  0  0  0  0  0  0  0  0  0  0  0
   -9.2940    1.6746   -6.5603 H   0  0  0  0  0  0  0  0  0  0  0  0
   -7.9969    6.9493  -13.1209 C   0  0  0  0  0  0  0  0  0  0  0  0
   -5.9035    7.4837  -11.9174 O   0  0  0  0  0  0  0  0  0  0  0  0
   -6.6119    7.5266  -12.9065 C   0  0  0  0  0  0  0  0  0  0  0  0
   -6.1879    8.2455  -13.9719 O   0  0  0  0  0  0  0  0  0  0  0  0
   -6.7157    8.2936  -14.7447 H   0  0  0  0  0  0  0  0  0  0  0  0
   -9.0917    7.6373  -12.2891 C   0  0  0  0  0  0  0  0  0  0  0  0
   -9.4429    9.0627  -12.7313 C   0  0  0  0  0  0  0  0  0  0  0  0
  -10.8478    9.1204  -13.3123 C   0  0  0  0  0  0  0  0  0  0  0  0
  -11.2463    7.8494  -13.5879 F   0  0  0  0  0  0  0  0  0  0  0  0
 26 27  2  0  0  0
 27 28  1  0  0  0
 27 25  1  0  0  0
 25 30  1  0  0  0
 30 31  1  0  0  0
 31 32  1  0  0  0
 32 33  1  0  0  0
 25  1  1  0  0  0
  1 13  1  0  0  0
 13 15  1  0  0  0
 15 16  2  0  0  0
 16 17  1  0  0  0
 17 18  2  0  0  0
 18 19  1  0  0  0
 19 20  2  0  0  0
 19 21  1  0  0  0
 21 22  1  0  0  0
 22 23  1  0  0  0
  1  2  1  0  0  0
  2  3  2  0  0  0
  3  4  1  0  0  0
  4  5  1  0  0  0
  4  6  2  0  0  0
  6  7  1  0  0  0
  7  8  1  0  0  0
  8  9  1  0  0  0
  9 10  2  0  0  0
 10 11  1  0  0  0
 20 15  1  0  0  0
 11  2  1  0  0  0
 23 18  1  0  0  0
 11  7  2  0  0  0
 28 29  1  0  0  0
 13 14  1  0  0  0
 22 24  1  0  0  0
  8 12  1  0  0  0
M  END
> <minimizedAffinity>
-6.55127

> <minimizedRMSD>
0.64444

$$$$
P25459


 36 40  0  0  0  0  0  0  0  0999 V2000
   -7.0856    5.5610  -13.5698 C   0  0  0  0  0  0  0  0  0  0  0  0
   -6.0303    4.7202  -13.1405 O   0  0  0  0  0  0  0  0  0  0  0  0
   -5.9075    4.8185  -12.1833 H   0  0  0  0  0  0  0  0  0  0  0  0
   -7.2644    5.3762  -15.1552 C   0  0  0  0  0  0  0  0  0  0  0  0
   -8.5309    4.5515  -15.5757 C   0  0  0  0  0  0  0  0  0  0  0  0
   -8.6226    4.0786  -17.0500 C   0  0  0  0  0  0  0  0  0  0  0  0
  -10.2420    4.3549  -17.7497 Cl  0  0  0  0  0  0  0  0  0  0  0  0
   -7.5586    4.6673  -17.9647 C   0  0  0  0  0  0  0  0  0  0  0  0
   -7.4656    4.0631  -19.2907 N   0  0  0  0  0  0  0  0  0  0  0  0
   -6.3566    4.1617  -20.1001 C   0  0  0  0  0  0  0  0  0  0  0  0
   -6.3911    3.7479  -21.2605 O   0  0  0  0  0  0  0  0  0  0  0  0
   -5.0541    4.7019  -19.4943 C   0  0  0  0  0  0  0  0  0  0  0  0
   -5.2408    5.3306  -18.1209 C   0  0  0  0  0  0  0  0  0  0  0  0
   -4.1002    5.3472  -17.2006 N   0  0  0  0  0  0  0  0  0  0  0  0
   -4.7282    5.6429  -15.8939 C   0  0  0  0  0  0  0  0  0  0  0  0
   -6.0123    4.8024  -15.8613 C   0  0  0  0  0  0  0  0  0  0  0  0
   -6.2131    4.4917  -17.3309 C   0  0  0  0  0  0  0  0  0  0  0  0
   -8.2405    3.5562  -19.6250 H   0  0  0  0  0  0  0  0  0  0  0  0
   -3.4321    6.0735  -17.4585 H   0  0  0  0  0  0  0  0  0  0  0  0
   -8.2790    5.0654  -12.8470 N   0  0  0  0  0  0  0  0  0  0  0  0
   -9.0905    4.8686  -13.3685 H   0  0  0  0  0  0  0  0  0  0  0  0
   -8.3168    4.8602  -11.4537 C   0  0  0  0  0  0  0  0  0  0  0  0
   -8.2469    5.9081  -10.5144 C   0  0  0  0  0  0  0  0  0  0  0  0
   -8.3103    5.6835   -9.1350 C   0  0  0  0  0  0  0  0  0  0  0  0
   -8.5576    4.4023   -8.6964 C   0  0  0  0  0  0  0  0  0  0  0  0
   -8.7365    3.3687   -9.6021 C   0  0  0  0  0  0  0  0  0  0  0  0
   -8.6161    3.5764  -10.9733 C   0  0  0  0  0  0  0  0  0  0  0  0
   -9.0761    2.1220   -8.8572 C   0  0  0  0  0  0  0  0  0  0  0  0
   -9.1931    2.5035   -7.4233 N   0  0  0  0  0  0  0  0  0  0  0  0
   -8.7362    3.9002   -7.3068 C   0  0  0  0  0  0  0  0  0  0  0  0
   -8.6080    1.8951   -6.8506 H   0  0  0  0  0  0  0  0  0  0  0  0
   -6.7489    7.0064  -13.1614 C   0  0  0  0  0  0  0  0  0  0  0  0
   -4.5572    8.0301  -13.2384 O   0  0  0  0  0  0  0  0  0  0  0  0
   -5.3639    7.3007  -12.6835 C   0  0  0  0  0  0  0  0  0  0  0  0
   -5.0599    6.7262  -11.5065 O   0  0  0  0  0  0  0  0  0  0  0  0
   -5.6816    6.1670  -11.0837 H   0  0  0  0  0  0  0  0  0  0  0  0
 33 34  2  0  0  0
 34 35  1  0  0  0
 34 32  1  0  0  0
 32  1  1  0  0  0
  1  2  1  0  0  0
  1 20  1  0  0  0
 20 22  1  0  0  0
 22 23  2  0  0  0
 23 24  1  0  0  0
 24 25  2  0  0  0
 25 26  1  0  0  0
 26 27  2  0  0  0
 26 28  1  0  0  0
 28 29  1  0  0  0
 29 30  1  0  0  0
  1  4  1  0  0  0
  4  5  1  0  0  0
  5  6  1  0  0  0
  6  7  1  0  0  0
  6  8  1  0  0  0
  8  9  1  0  0  0
  9 10  1  0  0  0
 10 11  2  0  0  0
 10 12  1  0  0  0
 13 12  1  0  0  0
 13 14  1  0  0  0
 14 15  1  0  0  0
 16 15  1  0  0  0
 16 17  1  0  0  0
 27 22  1  0  0  0
 16  4  1  0  0  0
 30 25  1  0  0  0
 17  8  1  0  0  0
 17 13  1  0  0  0
 35 36  1  0  0  0
  2  3  1  0  0  0
 20 21  1  0  0  0
 29 31  1  0  0  0
  9 18  1  0  0  0
 14 19  1  0  0  0
M  END
> <minimizedAffinity>
-7.90583

> <minimizedRMSD>
0.61452

$$$$
P25469


 36 39  0  0  0  0  0  0  0  0999 V2000
   -7.4259    5.0733  -13.5209 C   0  0  0  0  0  0  0  0  0  0  0  0
   -6.1436    4.7824  -12.9769 O   0  0  0  0  0  0  0  0  0  0  0  0
   -5.4680    5.2922  -13.4509 H   0  0  0  0  0  0  0  0  0  0  0  0
   -5.0869    5.2687  -17.6719 N   0  0  0  0  0  0  0  0  0  0  0  0
   -4.2376    5.6791  -16.6997 N   0  0  0  0  0  0  0  0  0  0  0  0
   -4.9167    5.4388  -15.5787 C   0  0  0  0  0  0  0  0  0  0  0  0
   -6.2233    4.9425  -15.8110 C   0  0  0  0  0  0  0  0  0  0  0  0
   -7.3629    4.6793  -15.0022 C   0  0  0  0  0  0  0  0  0  0  0  0
   -8.5115    4.2373  -15.6944 C   0  0  0  0  0  0  0  0  0  0  0  0
   -8.5378    4.1070  -17.0812 C   0  0  0  0  0  0  0  0  0  0  0  0
  -10.0119    3.8168  -17.8896 Cl  0  0  0  0  0  0  0  0  0  0  0  0
   -7.4221    4.3519  -17.8626 C   0  0  0  0  0  0  0  0  0  0  0  0
   -6.2858    4.7974  -17.1923 C   0  0  0  0  0  0  0  0  0  0  0  0
   -4.8422    5.6568  -19.0516 C   0  0  0  0  0  0  0  0  0  0  0  0
   -2.8017    4.6199  -19.8586 C   0  0  0  0  0  0  0  0  0  0  0  0
   -4.2567    4.5544  -19.8237 N   0  0  0  0  0  0  0  0  0  0  0  0
   -4.5357    3.6705  -19.3979 H   0  0  0  0  0  0  0  0  0  0  0  0
   -8.3729    4.2728  -12.7579 N   0  0  0  0  0  0  0  0  0  0  0  0
   -9.0213    3.7319  -13.2642 H   0  0  0  0  0  0  0  0  0  0  0  0
   -8.4336    4.2122  -11.3627 C   0  0  0  0  0  0  0  0  0  0  0  0
   -8.1827    5.3071  -10.5160 C   0  0  0  0  0  0  0  0  0  0  0  0
   -8.2944    5.2279   -9.1202 C   0  0  0  0  0  0  0  0  0  0  0  0
   -8.6623    4.0240   -8.5620 C   0  0  0  0  0  0  0  0  0  0  0  0
   -8.8969    2.9229   -9.3720 C   0  0  0  0  0  0  0  0  0  0  0  0
   -8.8009    3.0026  -10.7557 C   0  0  0  0  0  0  0  0  0  0  0  0
   -9.1996    1.7414   -8.5156 C   0  0  0  0  0  0  0  0  0  0  0  0
   -9.4353    2.2844   -7.1545 N   0  0  0  0  0  0  0  0  0  0  0  0
   -8.8717    3.6481   -7.1355 C   0  0  0  0  0  0  0  0  0  0  0  0
   -8.9692    1.7022   -6.4587 H   0  0  0  0  0  0  0  0  0  0  0  0
   -8.0308    6.3858   -8.3232 C   0  0  0  0  0  0  0  0  0  0  0  0
   -7.7982    7.3267   -7.6837 N   0  0  0  0  0  0  0  0  0  0  0  0
   -7.6335    6.5921  -13.4625 C   0  0  0  0  0  0  0  0  0  0  0  0
   -9.0337    7.0899  -13.2568 C   0  0  0  0  0  0  0  0  0  0  0  0
   -9.3354    7.9957  -12.4914 O   0  0  0  0  0  0  0  0  0  0  0  0
   -9.9822    6.5565  -14.0425 O   0  0  0  0  0  0  0  0  0  0  0  0
   -9.7654    5.8624  -14.6333 H   0  0  0  0  0  0  0  0  0  0  0  0
 15 16  1  0  0  0
 16 14  1  0  0  0
 14  4  1  0  0  0
  4  5  1  0  0  0
  5  6  2  0  0  0
  6  7  1  0  0  0
  7  8  2  0  0  0
  8  1  1  0  0  0
  1  2  1  0  0  0
  1 32  1  0  0  0
 32 33  1  0  0  0
 33 34  2  0  0  0
 33 35  1  0  0  0
  1 18  1  0  0  0
 18 20  1  0  0  0
 20 21  2  0  0  0
 21 22  1  0  0  0
 22 30  1  0  0  0
 30 31  3  0  0  0
 22 23  2  0  0  0
 23 24  1  0  0  0
 24 25  2  0  0  0
 24 26  1  0  0  0
 26 27  1  0  0  0
 27 28  1  0  0  0
  8  9  1  0  0  0
  9 10  2  0  0  0
 10 11  1  0  0  0
 10 12  1  0  0  0
 12 13  2  0  0  0
 13  4  1  0  0  0
 13  7  1  0  0  0
 25 20  1  0  0  0
 28 23  1  0  0  0
 16 17  1  0  0  0
  2  3  1  0  0  0
 35 36  1  0  0  0
 18 19  1  0  0  0
 27 29  1  0  0  0
M  END
> <minimizedAffinity>
-7.49106

> <minimizedRMSD>
0.24641

$$$$
P25512


 32 35  0  0  0  0  0  0  0  0999 V2000
   -5.0688    5.0965  -16.7134 N   0  0  0  0  0  0  0  0  0  0  0  0
   -6.0135    5.2290  -15.7648 N   0  0  0  0  0  0  0  0  0  0  0  0
   -7.1778    4.9981  -16.3900 C   0  0  0  0  0  0  0  0  0  0  0  0
   -8.4842    4.8885  -15.8955 C   0  0  0  0  0  0  0  0  0  0  0  0
   -9.4382    4.5245  -16.8620 C   0  0  0  0  0  0  0  0  0  0  0  0
   -9.1485    4.3887  -18.2516 C   0  0  0  0  0  0  0  0  0  0  0  0
   -7.8665    4.5853  -18.7956 C   0  0  0  0  0  0  0  0  0  0  0  0
   -6.9232    4.8516  -17.8033 C   0  0  0  0  0  0  0  0  0  0  0  0
   -5.5769    5.0494  -17.9834 C   0  0  0  0  0  0  0  0  0  0  0  0
   -4.8671    5.1561  -19.3541 C   0  0  0  0  0  0  0  0  0  0  0  0
   -3.4068    4.7131  -19.5318 C   0  0  0  0  0  0  0  0  0  0  0  0
   -3.2147    5.8562  -20.4612 N   0  0  0  0  0  0  0  0  0  0  0  0
   -4.2964    6.5517  -19.6983 C   0  0  0  0  0  0  0  0  0  0  0  0
   -3.4391    5.6571  -21.4361 H   0  0  0  0  0  0  0  0  0  0  0  0
   -8.8523    5.3367  -14.5484 C   0  0  0  0  0  0  0  0  0  0  0  0
   -9.6535    6.1844  -14.4719 O   0  0  0  0  0  0  0  0  0  0  0  0
   -8.1556    4.5107  -13.4384 N   0  0  0  0  0  0  0  0  0  0  0  0
   -7.5664    3.7935  -13.7666 H   0  0  0  0  0  0  0  0  0  0  0  0
   -8.2273    4.6180  -12.0492 C   0  0  0  0  0  0  0  0  0  0  0  0
   -8.0984    5.8692  -11.4443 C   0  0  0  0  0  0  0  0  0  0  0  0
   -8.1186    5.9802  -10.0589 C   0  0  0  0  0  0  0  0  0  0  0  0
   -7.9133    7.6765   -9.2486 Br  0  0  0  0  0  0  0  0  0  0  0  0
   -8.2682    4.8508   -9.2659 C   0  0  0  0  0  0  0  0  0  0  0  0
   -8.4381    3.5869   -9.8520 C   0  0  0  0  0  0  0  0  0  0  0  0
   -8.4054    3.4799  -11.2562 C   0  0  0  0  0  0  0  0  0  0  0  0
   -8.5548    2.3560   -8.9841 C   0  0  0  0  0  0  0  0  0  0  0  0
   -9.6419    2.4607   -8.0108 N   0  0  0  0  0  0  0  0  0  0  0  0
   -9.4642    3.2471   -7.3859 H   0  0  0  0  0  0  0  0  0  0  0  0
   -9.6954    1.5996   -7.4668 H   0  0  0  0  0  0  0  0  0  0  0  0
   -2.9952    6.2586  -16.0686 C   0  0  0  0  0  0  0  0  0  0  0  0
   -3.6890    4.9218  -16.2891 C   0  0  0  0  0  0  0  0  0  0  0  0
   -3.5522    4.0692  -15.0173 C   0  0  0  0  0  0  0  0  0  0  0  0
 30 31  1  0  0  0
 31 32  1  0  0  0
 31  1  1  0  0  0
  1  2  1  0  0  0
  2  3  2  0  0  0
  3  4  1  0  0  0
  4 15  1  0  0  0
 15 16  2  0  0  0
 15 17  1  0  0  0
 17 19  1  0  0  0
 19 20  2  0  0  0
 20 21  1  0  0  0
 21 22  1  0  0  0
 21 23  2  0  0  0
 23 24  1  0  0  0
 24 26  1  0  0  0
 26 27  1  0  0  0
 24 25  2  0  0  0
  4  5  2  0  0  0
  5  6  1  0  0  0
  6  7  2  0  0  0
  7  8  1  0  0  0
  8  9  2  0  0  0
  9 10  1  0  0  0
 10 11  1  0  0  0
 11 12  1  0  0  0
 12 13  1  0  0  0
  9  1  1  0  0  0
 13 10  1  0  0  0
  8  3  1  0  0  0
 25 19  1  0  0  0
 17 18  1  0  0  0
 27 28  1  0  0  0
 27 29  1  0  0  0
 12 14  1  0  0  0
M  END
> <minimizedAffinity>
-8.19902

> <minimizedRMSD>
1.06802

$$$$
P25513


 32 36  0  0  0  0  0  0  0  0999 V2000
   -6.5638    5.9464  -13.4080 O   0  0  0  0  0  0  0  0  0  0  0  0
   -7.3666    5.1336  -13.6627 C   0  0  0  0  0  0  0  0  0  0  0  0
   -8.3330    4.3495  -12.7354 N   0  0  0  0  0  0  0  0  0  0  0  0
   -8.9736    3.7679  -13.2050 H   0  0  0  0  0  0  0  0  0  0  0  0
   -8.4418    4.3350  -11.3403 C   0  0  0  0  0  0  0  0  0  0  0  0
   -8.1967    5.5024  -10.6210 C   0  0  0  0  0  0  0  0  0  0  0  0
   -8.2988    5.5099   -9.2267 C   0  0  0  0  0  0  0  0  0  0  0  0
   -7.9574    7.1554   -8.3312 Br  0  0  0  0  0  0  0  0  0  0  0  0
   -8.6407    4.3516   -8.5168 C   0  0  0  0  0  0  0  0  0  0  0  0
   -8.8837    3.1831   -9.2349 C   0  0  0  0  0  0  0  0  0  0  0  0
   -8.7938    3.1756  -10.6482 C   0  0  0  0  0  0  0  0  0  0  0  0
   -9.1705    1.8967   -8.5855 C   0  0  0  0  0  0  0  0  0  0  0  0
   -9.6868    1.6223   -7.4307 N   0  0  0  0  0  0  0  0  0  0  0  0
  -10.0634    2.5838   -6.5518 C   0  0  0  0  0  0  0  0  0  0  0  0
   -9.5904    3.8237   -6.4168 C   0  0  0  0  0  0  0  0  0  0  0  0
   -8.6250    4.4479   -7.1500 O   0  0  0  0  0  0  0  0  0  0  0  0
   -7.5394    4.8386  -15.1096 C   0  0  0  0  0  0  0  0  0  0  0  0
   -8.7807    4.5811  -15.6919 C   0  0  0  0  0  0  0  0  0  0  0  0
   -8.9044    4.5380  -17.0822 C   0  0  0  0  0  0  0  0  0  0  0  0
  -10.4603    4.4565  -17.7825 Cl  0  0  0  0  0  0  0  0  0  0  0  0
   -7.8125    4.6879  -17.9406 C   0  0  0  0  0  0  0  0  0  0  0  0
   -6.5611    4.9428  -17.3705 C   0  0  0  0  0  0  0  0  0  0  0  0
   -5.2511    5.1853  -17.8435 C   0  0  0  0  0  0  0  0  0  0  0  0
   -4.3896    5.4308  -16.8501 N   0  0  0  0  0  0  0  0  0  0  0  0
   -5.1520    5.3666  -15.7449 N   0  0  0  0  0  0  0  0  0  0  0  0
   -6.4581    5.0288  -15.9866 C   0  0  0  0  0  0  0  0  0  0  0  0
   -4.8031    5.5463  -14.8420 H   0  0  0  0  0  0  0  0  0  0  0  0
   -4.8452    5.1579  -19.3486 C   0  0  0  0  0  0  0  0  0  0  0  0
   -3.3434    4.9160  -19.6200 C   0  0  0  0  0  0  0  0  0  0  0  0
   -3.4051    5.9385  -20.6885 N   0  0  0  0  0  0  0  0  0  0  0  0
   -4.5859    6.5291  -19.9985 C   0  0  0  0  0  0  0  0  0  0  0  0
   -3.6015    5.5667  -21.6177 H   0  0  0  0  0  0  0  0  0  0  0  0
  1  2  2  0  0  0
  2  3  1  0  0  0
  3  5  1  0  0  0
  5  6  2  0  0  0
  6  7  1  0  0  0
  7  8  1  0  0  0
  7  9  2  0  0  0
  9 10  1  0  0  0
 10 11  2  0  0  0
 10 12  1  0  0  0
 12 13  2  0  0  0
 13 14  1  0  0  0
 14 15  2  0  0  0
 15 16  1  0  0  0
  2 17  1  0  0  0
 17 18  2  0  0  0
 18 19  1  0  0  0
 19 20  1  0  0  0
 19 21  2  0  0  0
 21 22  1  0  0  0
 22 23  1  0  0  0
 23 28  1  0  0  0
 28 29  1  0  0  0
 29 30  1  0  0  0
 30 31  1  0  0  0
 23 24  2  0  0  0
 24 25  1  0  0  0
 25 26  1  0  0  0
 11  5  1  0  0  0
 26 17  1  0  0  0
 16  9  1  0  0  0
 26 22  2  0  0  0
 31 28  1  0  0  0
  3  4  1  0  0  0
 30 32  1  0  0  0
 25 27  1  0  0  0
M  END
> <minimizedAffinity>
-9.63830

> <minimizedRMSD>
0.25551

$$$$
P25522


 33 37  0  0  0  0  0  0  0  0999 V2000
   -8.2831    4.2673  -12.9587 N   0  0  0  0  0  0  0  0  0  0  0  0
   -7.1805    4.8860  -13.8342 C   0  0  0  0  0  0  0  0  0  0  0  0
   -6.2498    5.5238  -13.5393 O   0  0  0  0  0  0  0  0  0  0  0  0
   -8.9259    3.7015  -13.4443 H   0  0  0  0  0  0  0  0  0  0  0  0
   -7.7280    5.5029  -10.8233 C   0  0  0  0  0  0  0  0  0  0  0  0
   -8.5308    4.3818  -11.5321 C   0  0  0  0  0  0  0  0  0  0  0  0
   -8.4429    3.0318  -10.8174 C   0  0  0  0  0  0  0  0  0  0  0  0
   -9.0986    3.1847   -9.4523 C   0  0  0  0  0  0  0  0  0  0  0  0
   -8.9203    2.0569   -8.4624 C   0  0  0  0  0  0  0  0  0  0  0  0
   -9.2299    2.7121   -7.1807 N   0  0  0  0  0  0  0  0  0  0  0  0
   -8.6049    4.0363   -7.2347 C   0  0  0  0  0  0  0  0  0  0  0  0
   -8.7025    4.4554   -8.6969 C   0  0  0  0  0  0  0  0  0  0  0  0
   -7.5710    5.2844   -9.3037 C   0  0  0  0  0  0  0  0  0  0  0  0
   -5.7740    4.5464   -8.9892 Br  0  0  0  0  0  0  0  0  0  0  0  0
   -8.8457    2.1715   -6.4058 H   0  0  0  0  0  0  0  0  0  0  0  0
   -8.9186    7.8346  -11.1758 N   0  0  0  0  0  0  0  0  0  0  0  0
   -8.3943    6.8073  -11.0409 C   0  0  0  0  0  0  0  0  0  0  0  0
   -7.4139    4.7108  -15.2913 C   0  0  0  0  0  0  0  0  0  0  0  0
   -8.6726    4.5353  -15.8762 C   0  0  0  0  0  0  0  0  0  0  0  0
   -8.8091    4.5263  -17.2615 C   0  0  0  0  0  0  0  0  0  0  0  0
  -10.0278    4.3922  -17.7986 F   0  0  0  0  0  0  0  0  0  0  0  0
   -7.7207    4.6941  -18.1148 C   0  0  0  0  0  0  0  0  0  0  0  0
   -6.4543    4.8904  -17.5456 C   0  0  0  0  0  0  0  0  0  0  0  0
   -5.1401    5.1317  -18.0067 C   0  0  0  0  0  0  0  0  0  0  0  0
   -4.2539    5.2579  -17.0138 N   0  0  0  0  0  0  0  0  0  0  0  0
   -5.0089    5.1431  -15.9093 N   0  0  0  0  0  0  0  0  0  0  0  0
   -6.3328    4.8932  -16.1639 C   0  0  0  0  0  0  0  0  0  0  0  0
   -4.6447    5.2305  -14.9988 H   0  0  0  0  0  0  0  0  0  0  0  0
   -4.7771    5.2691  -19.5028 C   0  0  0  0  0  0  0  0  0  0  0  0
   -3.3027    5.0365  -19.8860 C   0  0  0  0  0  0  0  0  0  0  0  0
   -3.4391    6.1450  -20.8787 N   0  0  0  0  0  0  0  0  0  0  0  0
   -4.4866    6.7093  -19.9733 C   0  0  0  0  0  0  0  0  0  0  0  0
   -3.7764    5.8581  -21.7976 H   0  0  0  0  0  0  0  0  0  0  0  0
 16 17  3  0  0  0
  5 17  1  0  0  0
  5  6  1  0  0  0
  6  1  1  0  0  0
  1  2  1  0  0  0
  2  3  2  0  0  0
  2 18  1  0  0  0
 18 19  2  0  0  0
 19 20  1  0  0  0
 20 21  1  0  0  0
 20 22  2  0  0  0
 22 23  1  0  0  0
 23 24  1  0  0  0
 24 29  1  0  0  0
 29 30  1  0  0  0
 30 31  1  0  0  0
 31 32  1  0  0  0
 24 25  2  0  0  0
 25 26  1  0  0  0
 26 27  1  0  0  0
  6  7  1  0  0  0
  8  7  1  0  0  0
  8  9  1  0  0  0
  9 10  1  0  0  0
 10 11  1  0  0  0
 12 11  1  0  0  0
 12 13  1  0  0  0
 13 14  1  0  0  0
 13  5  1  0  0  0
 27 18  1  0  0  0
 12  8  1  0  0  0
 27 23  2  0  0  0
 32 29  1  0  0  0
  1  4  1  0  0  0
 31 33  1  0  0  0
 26 28  1  0  0  0
 10 15  1  0  0  0
M  END
> <minimizedAffinity>
-8.47135

> <minimizedRMSD>
0.39502

$$$$
P25523


 38 43  0  0  0  0  0  0  0  0999 V2000
   -7.9182    4.0091  -12.7514 N   0  0  0  0  0  0  0  0  0  0  0  0
   -7.4279    5.1128  -13.6977 C   0  0  0  0  0  0  0  0  0  0  0  0
   -6.7930    6.0662  -13.4819 O   0  0  0  0  0  0  0  0  0  0  0  0
   -8.3794    3.2609  -13.1950 H   0  0  0  0  0  0  0  0  0  0  0  0
   -6.1179    5.9307   -7.4329 C   0  0  0  0  0  0  0  0  0  0  0  0
   -6.4820    5.0777   -8.6591 C   0  0  0  0  0  0  0  0  0  0  0  0
   -7.9720    5.2276   -9.0785 C   0  0  0  0  0  0  0  0  0  0  0  0
   -8.5225    6.5692   -8.5203 C   0  0  0  0  0  0  0  0  0  0  0  0
   -7.4599    7.6660   -8.5256 C   0  0  0  0  0  0  0  0  0  0  0  0
   -6.2944    7.3523   -7.7031 N   0  0  0  0  0  0  0  0  0  0  0  0
   -8.0877    5.2477  -10.6362 C   0  0  0  0  0  0  0  0  0  0  0  0
   -7.8133    3.8884  -11.3125 C   0  0  0  0  0  0  0  0  0  0  0  0
   -8.7012    2.7745  -10.7583 C   0  0  0  0  0  0  0  0  0  0  0  0
   -8.5421    2.7229   -9.2483 C   0  0  0  0  0  0  0  0  0  0  0  0
   -9.4827    1.8117   -8.4886 C   0  0  0  0  0  0  0  0  0  0  0  0
   -9.4927    2.3263   -7.1006 N   0  0  0  0  0  0  0  0  0  0  0  0
   -8.9312    3.6897   -7.1313 C   0  0  0  0  0  0  0  0  0  0  0  0
   -8.8629    4.0616   -8.6037 C   0  0  0  0  0  0  0  0  0  0  0  0
   -6.3924    7.8375   -6.8113 H   0  0  0  0  0  0  0  0  0  0  0  0
   -8.9226    1.7279   -6.5028 H   0  0  0  0  0  0  0  0  0  0  0  0
   -4.4698    5.7722   -5.7189 C   0  0  0  0  0  0  0  0  0  0  0  0
   -4.7618    5.6393   -7.1003 O   0  0  0  0  0  0  0  0  0  0  0  0
   -7.7414    4.8548  -15.1333 C   0  0  0  0  0  0  0  0  0  0  0  0
   -8.9860    4.5092  -15.6602 C   0  0  0  0  0  0  0  0  0  0  0  0
   -9.1396    4.3548  -17.0397 C   0  0  0  0  0  0  0  0  0  0  0  0
  -10.3457    4.0393  -17.5271 F   0  0  0  0  0  0  0  0  0  0  0  0
   -8.0893    4.5447  -17.9438 C   0  0  0  0  0  0  0  0  0  0  0  0
   -6.8360    4.9063  -17.4321 C   0  0  0  0  0  0  0  0  0  0  0  0
   -5.5480    5.2182  -17.9303 C   0  0  0  0  0  0  0  0  0  0  0  0
   -4.6698    5.4837  -16.9593 N   0  0  0  0  0  0  0  0  0  0  0  0
   -5.3971    5.3926  -15.8444 N   0  0  0  0  0  0  0  0  0  0  0  0
   -6.7029    5.0416  -16.0572 C   0  0  0  0  0  0  0  0  0  0  0  0
   -5.0273    5.5627  -14.9480 H   0  0  0  0  0  0  0  0  0  0  0  0
   -5.1378    5.2910  -19.4180 C   0  0  0  0  0  0  0  0  0  0  0  0
   -4.9785    6.7193  -19.9844 C   0  0  0  0  0  0  0  0  0  0  0  0
   -3.8006    6.2355  -20.7635 N   0  0  0  0  0  0  0  0  0  0  0  0
   -3.6149    5.2176  -19.6901 C   0  0  0  0  0  0  0  0  0  0  0  0
   -3.0395    6.9090  -20.8509 H   0  0  0  0  0  0  0  0  0  0  0  0
 21 22  1  0  0  0
  5 22  1  0  0  0
  5  6  1  0  0  0
  7  6  1  0  0  0
  7  8  1  0  0  0
  8  9  1  0  0  0
  9 10  1  0  0  0
  7 11  1  0  0  0
 11 12  1  0  0  0
 12  1  1  0  0  0
  1  2  1  0  0  0
  2  3  2  0  0  0
  2 23  1  0  0  0
 23 24  2  0  0  0
 24 25  1  0  0  0
 25 26  1  0  0  0
 25 27  2  0  0  0
 27 28  1  0  0  0
 28 29  1  0  0  0
 29 34  1  0  0  0
 34 35  1  0  0  0
 35 36  1  0  0  0
 36 37  1  0  0  0
 29 30  2  0  0  0
 30 31  1  0  0  0
 31 32  1  0  0  0
 12 13  1  0  0  0
 14 13  1  0  0  0
 14 15  1  0  0  0
 15 16  1  0  0  0
 16 17  1  0  0  0
 18 17  1  0  0  0
 10  5  1  0  0  0
 32 23  1  0  0  0
 18 14  1  0  0  0
 18  7  1  0  0  0
 32 28  2  0  0  0
 37 34  1  0  0  0
 10 19  1  0  0  0
  1  4  1  0  0  0
 36 38  1  0  0  0
 31 33  1  0  0  0
 16 20  1  0  0  0
M  END
> <minimizedAffinity>
-8.93800

> <minimizedRMSD>
0.36294

$$$$
P25536


 31 35  0  0  0  0  0  0  0  0999 V2000
   -8.4560    4.7651  -15.3980 C   0  0  0  0  0  0  0  0  0  0  0  0
   -9.3004    4.2825  -16.3970 C   0  0  0  0  0  0  0  0  0  0  0  0
   -8.8639    4.2121  -17.7253 C   0  0  0  0  0  0  0  0  0  0  0  0
   -7.5763    4.6417  -18.1002 C   0  0  0  0  0  0  0  0  0  0  0  0
   -6.6828    5.1171  -17.1174 C   0  0  0  0  0  0  0  0  0  0  0  0
   -5.3459    5.6994  -17.1373 C   0  0  0  0  0  0  0  0  0  0  0  0
   -5.0141    5.9625  -15.8637 N   0  0  0  0  0  0  0  0  0  0  0  0
   -4.0051    6.5039  -15.3569 O   0  0  0  0  0  0  0  0  0  0  0  0
   -6.1177    5.6328  -15.0404 N   0  0  0  0  0  0  0  0  0  0  0  0
   -7.1595    5.1294  -15.7826 C   0  0  0  0  0  0  0  0  0  0  0  0
   -6.1365    5.7491  -14.0630 H   0  0  0  0  0  0  0  0  0  0  0  0
   -4.4544    6.1342  -18.3053 C   0  0  0  0  0  0  0  0  0  0  0  0
   -4.1310    5.0148  -19.3221 C   0  0  0  0  0  0  0  0  0  0  0  0
   -4.1934    6.0256  -20.3990 N   0  0  0  0  0  0  0  0  0  0  0  0
   -5.0776    6.8346  -19.5007 C   0  0  0  0  0  0  0  0  0  0  0  0
   -4.6397    5.7046  -21.2581 H   0  0  0  0  0  0  0  0  0  0  0  0
   -9.6154    6.0156  -13.9204 O   0  0  0  0  0  0  0  0  0  0  0  0
   -8.8922    5.1025  -14.0163 C   0  0  0  0  0  0  0  0  0  0  0  0
   -8.2236    4.2360  -12.9261 N   0  0  0  0  0  0  0  0  0  0  0  0
   -7.5885    3.5646  -13.2653 H   0  0  0  0  0  0  0  0  0  0  0  0
   -8.3736    4.2500  -11.5378 C   0  0  0  0  0  0  0  0  0  0  0  0
   -8.1230    5.4160  -10.8162 C   0  0  0  0  0  0  0  0  0  0  0  0
   -8.2713    5.4409   -9.4260 C   0  0  0  0  0  0  0  0  0  0  0  0
   -7.9632    7.0934   -8.5481 Br  0  0  0  0  0  0  0  0  0  0  0  0
   -8.6656    4.2930   -8.7112 C   0  0  0  0  0  0  0  0  0  0  0  0
   -8.8520    4.2507   -7.3119 C   0  0  0  0  0  0  0  0  0  0  0  0
   -9.2882    3.0827   -6.7171 C   0  0  0  0  0  0  0  0  0  0  0  0
   -9.5393    1.9579   -7.3981 N   0  0  0  0  0  0  0  0  0  0  0  0
   -9.3183    1.9975   -8.7302 C   0  0  0  0  0  0  0  0  0  0  0  0
   -8.9085    3.1191   -9.4497 C   0  0  0  0  0  0  0  0  0  0  0  0
   -8.7606    3.1023  -10.8552 C   0  0  0  0  0  0  0  0  0  0  0  0
 17 18  2  0  0  0
 18 19  1  0  0  0
 19 21  1  0  0  0
 21 22  2  0  0  0
 22 23  1  0  0  0
 23 24  1  0  0  0
 23 25  2  0  0  0
 25 26  1  0  0  0
 26 27  2  0  0  0
 27 28  1  0  0  0
 28 29  2  0  0  0
 29 30  1  0  0  0
 30 31  2  0  0  0
 18  1  1  0  0  0
  1  2  2  0  0  0
  2  3  1  0  0  0
  3  4  2  0  0  0
  4  5  1  0  0  0
  5  6  1  0  0  0
  6 12  1  0  0  0
 12 13  1  0  0  0
 13 14  1  0  0  0
 14 15  1  0  0  0
  6  7  2  0  0  0
  7  8  1  0  0  0
  7  9  1  0  0  0
  9 10  1  0  0  0
 31 21  1  0  0  0
 10  1  1  0  0  0
 30 25  1  0  0  0
 10  5  2  0  0  0
 15 12  1  0  0  0
 19 20  1  0  0  0
 14 16  1  0  0  0
  9 11  1  0  0  0
M  CHG 1   7   1
M  CHG 1   8  -1
M  END
> <minimizedAffinity>
-9.61312

> <minimizedRMSD>
0.83616

$$$$
P25547


 31 35  0  0  0  0  0  0  0  0999 V2000
   -7.3431    4.6833  -15.2853 C   0  0  0  0  0  0  0  0  0  0  0  0
   -8.5978    4.5195  -15.8712 C   0  0  0  0  0  0  0  0  0  0  0  0
   -8.7281    4.5147  -17.2530 C   0  0  0  0  0  0  0  0  0  0  0  0
  -10.4581    4.4694  -17.9649 Br  0  0  0  0  0  0  0  0  0  0  0  0
   -7.6368    4.6690  -18.1084 C   0  0  0  0  0  0  0  0  0  0  0  0
   -6.3832    4.9144  -17.5351 C   0  0  0  0  0  0  0  0  0  0  0  0
   -5.0714    5.1753  -17.9910 C   0  0  0  0  0  0  0  0  0  0  0  0
   -4.2050    5.3669  -16.9893 N   0  0  0  0  0  0  0  0  0  0  0  0
   -4.9620    5.2251  -15.8892 N   0  0  0  0  0  0  0  0  0  0  0  0
   -6.2722    4.9264  -16.1524 C   0  0  0  0  0  0  0  0  0  0  0  0
   -4.6072    5.3266  -14.9764 H   0  0  0  0  0  0  0  0  0  0  0  0
   -4.6591    5.2085  -19.4889 C   0  0  0  0  0  0  0  0  0  0  0  0
   -3.1761    4.8747  -19.7648 C   0  0  0  0  0  0  0  0  0  0  0  0
   -3.1494    5.9643  -20.7649 N   0  0  0  0  0  0  0  0  0  0  0  0
   -4.2968    6.5928  -20.0539 C   0  0  0  0  0  0  0  0  0  0  0  0
   -3.3559    5.6667  -21.7184 H   0  0  0  0  0  0  0  0  0  0  0  0
   -6.2470    5.4528  -13.4637 O   0  0  0  0  0  0  0  0  0  0  0  0
   -7.1271    4.7755  -13.8217 C   0  0  0  0  0  0  0  0  0  0  0  0
   -8.1958    4.0168  -13.0131 N   0  0  0  0  0  0  0  0  0  0  0  0
   -8.7910    3.4459  -13.5508 H   0  0  0  0  0  0  0  0  0  0  0  0
   -8.4659    4.0063  -11.6021 C   0  0  0  0  0  0  0  0  0  0  0  0
   -8.2168    5.3876  -11.0298 C   0  0  0  0  0  0  0  0  0  0  0  0
   -8.6022    5.4393   -9.5733 C   0  0  0  0  0  0  0  0  0  0  0  0
   -8.1747    7.2464   -8.9775 Br  0  0  0  0  0  0  0  0  0  0  0  0
   -7.9171    4.3822   -8.7051 C   0  0  0  0  0  0  0  0  0  0  0  0
   -8.6936    4.1583   -7.3962 C   0  0  0  0  0  0  0  0  0  0  0  0
   -9.3491    2.8604   -7.5085 N   0  0  0  0  0  0  0  0  0  0  0  0
   -9.2373    2.4009   -8.8875 C   0  0  0  0  0  0  0  0  0  0  0  0
   -7.9160    2.9872   -9.3543 C   0  0  0  0  0  0  0  0  0  0  0  0
   -7.6589    2.9670  -10.8587 C   0  0  0  0  0  0  0  0  0  0  0  0
  -10.3330    2.9491   -7.2546 H   0  0  0  0  0  0  0  0  0  0  0  0
 17 18  2  0  0  0
 18 19  1  0  0  0
 21 19  1  0  0  0
 21 22  1  0  0  0
 22 23  1  0  0  0
 23 24  1  0  0  0
 23 25  1  0  0  0
 25 26  1  0  0  0
 26 27  1  0  0  0
 27 28  1  0  0  0
 29 28  1  0  0  0
 29 30  1  0  0  0
 18  1  1  0  0  0
  1  2  2  0  0  0
  2  3  1  0  0  0
  3  4  1  0  0  0
  3  5  2  0  0  0
  5  6  1  0  0  0
  6  7  1  0  0  0
  7 12  1  0  0  0
 12 13  1  0  0  0
 13 14  1  0  0  0
 14 15  1  0  0  0
  7  8  2  0  0  0
  8  9  1  0  0  0
  9 10  1  0  0  0
 30 21  1  0  0  0
 10  1  1  0  0  0
 29 25  1  0  0  0
 10  6  2  0  0  0
 15 12  1  0  0  0
 19 20  1  0  0  0
 27 31  1  0  0  0
 14 16  1  0  0  0
  9 11  1  0  0  0
M  END
> <minimizedAffinity>
-8.47857

> <minimizedRMSD>
0.29260

$$$$
P25550


 32 35  0  0  0  0  0  0  0  0999 V2000
   -7.4145    4.8809  -15.1090 C   0  0  0  0  0  0  0  0  0  0  0  0
   -8.6611    4.6346  -15.6862 C   0  0  0  0  0  0  0  0  0  0  0  0
   -8.7800    4.5556  -17.0721 C   0  0  0  0  0  0  0  0  0  0  0  0
  -10.3239    4.4236  -17.7735 Cl  0  0  0  0  0  0  0  0  0  0  0  0
   -7.6885    4.6834  -17.9300 C   0  0  0  0  0  0  0  0  0  0  0  0
   -6.4348    4.9254  -17.3627 C   0  0  0  0  0  0  0  0  0  0  0  0
   -5.1266    5.1500  -17.8434 C   0  0  0  0  0  0  0  0  0  0  0  0
   -4.2506    5.3641  -16.8566 N   0  0  0  0  0  0  0  0  0  0  0  0
   -5.0092    5.3228  -15.7454 N   0  0  0  0  0  0  0  0  0  0  0  0
   -6.3260    5.0263  -15.9819 C   0  0  0  0  0  0  0  0  0  0  0  0
   -4.6503    5.4905  -14.8441 H   0  0  0  0  0  0  0  0  0  0  0  0
   -4.7702    5.1773  -19.3582 C   0  0  0  0  0  0  0  0  0  0  0  0
   -3.2944    4.9196  -19.7227 C   0  0  0  0  0  0  0  0  0  0  0  0
   -3.4006    5.9996  -20.7405 N   0  0  0  0  0  0  0  0  0  0  0  0
   -4.4714    6.5860  -19.9265 C   0  0  0  0  0  0  0  0  0  0  0  0
   -5.4884    6.9819  -20.8648 N   0  0  0  0  0  0  0  0  0  0  0  0
   -3.6949    5.6839  -21.6647 H   0  0  0  0  0  0  0  0  0  0  0  0
   -5.6534    6.2240  -21.5273 H   0  0  0  0  0  0  0  0  0  0  0  0
   -5.1805    7.8133  -21.3692 H   0  0  0  0  0  0  0  0  0  0  0  0
   -8.2661    4.4314  -12.7711 N   0  0  0  0  0  0  0  0  0  0  0  0
   -7.2425    5.1724  -13.6649 C   0  0  0  0  0  0  0  0  0  0  0  0
   -6.4086    5.9420  -13.3840 O   0  0  0  0  0  0  0  0  0  0  0  0
   -8.9224    3.8855  -13.2616 H   0  0  0  0  0  0  0  0  0  0  0  0
   -9.2140    1.8690   -8.6847 C   0  0  0  0  0  0  0  0  0  0  0  0
   -8.8872    3.1841   -9.3361 C   0  0  0  0  0  0  0  0  0  0  0  0
   -8.7522    3.2272  -10.7383 C   0  0  0  0  0  0  0  0  0  0  0  0
   -8.4100    4.4113  -11.3847 C   0  0  0  0  0  0  0  0  0  0  0  0
   -8.2304    5.5704  -10.6377 C   0  0  0  0  0  0  0  0  0  0  0  0
   -8.3771    5.5447   -9.2470 C   0  0  0  0  0  0  0  0  0  0  0  0
   -8.1674    7.2017   -8.3319 Br  0  0  0  0  0  0  0  0  0  0  0  0
   -8.6728    4.3496   -8.5686 C   0  0  0  0  0  0  0  0  0  0  0  0
   -8.7968    4.3187   -7.0665 C   0  0  0  0  0  0  0  0  0  0  0  0
 24 25  1  0  0  0
 25 26  2  0  0  0
 26 27  1  0  0  0
 27 20  1  0  0  0
 20 21  1  0  0  0
 21 22  2  0  0  0
 21  1  1  0  0  0
  1  2  2  0  0  0
  2  3  1  0  0  0
  3  4  1  0  0  0
  3  5  2  0  0  0
  5  6  1  0  0  0
  6  7  1  0  0  0
 12  7  1  0  0  0
 12 13  1  0  0  0
 13 14  1  0  0  0
 14 15  1  0  0  0
 15 16  1  0  0  0
  7  8  2  0  0  0
  8  9  1  0  0  0
  9 10  1  0  0  0
 27 28  2  0  0  0
 28 29  1  0  0  0
 29 30  1  0  0  0
 29 31  2  0  0  0
 31 32  1  0  0  0
 31 25  1  0  0  0
 10  1  1  0  0  0
 10  6  2  0  0  0
 15 12  1  0  0  0
 20 23  1  0  0  0
 14 17  1  0  0  0
 16 18  1  0  0  0
 16 19  1  0  0  0
  9 11  1  0  0  0
M  END
> <minimizedAffinity>
-9.25798

> <minimizedRMSD>
0.30377

$$$$
P25561


 31 35  0  0  0  0  0  0  0  0999 V2000
   -7.0912    4.9059  -15.0928 C   0  0  0  0  0  0  0  0  0  0  0  0
   -8.2294    4.7318  -15.8754 C   0  0  0  0  0  0  0  0  0  0  0  0
   -8.1091    4.6560  -17.2569 C   0  0  0  0  0  0  0  0  0  0  0  0
   -9.5559    4.5534  -18.1619 Cl  0  0  0  0  0  0  0  0  0  0  0  0
   -6.8723    4.7830  -17.9073 C   0  0  0  0  0  0  0  0  0  0  0  0
   -5.7248    5.0136  -17.1299 C   0  0  0  0  0  0  0  0  0  0  0  0
   -4.3593    5.3482  -17.3082 C   0  0  0  0  0  0  0  0  0  0  0  0
   -3.6859    5.4583  -16.1584 N   0  0  0  0  0  0  0  0  0  0  0  0
   -4.6253    5.2671  -15.2336 N   0  0  0  0  0  0  0  0  0  0  0  0
   -5.8695    5.0311  -15.7535 C   0  0  0  0  0  0  0  0  0  0  0  0
   -4.4420    5.2931  -14.2666 H   0  0  0  0  0  0  0  0  0  0  0  0
   -3.6489    5.7524  -18.6094 C   0  0  0  0  0  0  0  0  0  0  0  0
   -2.5971    4.7237  -19.0784 C   0  0  0  0  0  0  0  0  0  0  0  0
   -3.0032    4.9980  -20.4743 N   0  0  0  0  0  0  0  0  0  0  0  0
   -4.3255    5.4494  -19.9263 C   0  0  0  0  0  0  0  0  0  0  0  0
   -3.0495    4.1744  -21.0743 H   0  0  0  0  0  0  0  0  0  0  0  0
   -6.4858    6.0641  -13.2561 O   0  0  0  0  0  0  0  0  0  0  0  0
   -7.0951    5.1488  -13.6354 C   0  0  0  0  0  0  0  0  0  0  0  0
   -7.9983    4.1793  -12.8793 N   0  0  0  0  0  0  0  0  0  0  0  0
   -8.4671    3.5255  -13.4468 H   0  0  0  0  0  0  0  0  0  0  0  0
   -8.2750    4.0652  -11.4822 C   0  0  0  0  0  0  0  0  0  0  0  0
   -7.1682    3.2807  -10.7819 C   0  0  0  0  0  0  0  0  0  0  0  0
   -7.1161    3.4903   -9.2583 C   0  0  0  0  0  0  0  0  0  0  0  0
   -8.4400    4.0490   -8.6875 C   0  0  0  0  0  0  0  0  0  0  0  0
   -8.4973    4.2236   -7.1469 C   0  0  0  0  0  0  0  0  0  0  0  0
   -9.2526    3.0364   -6.5607 C   0  0  0  0  0  0  0  0  0  0  0  0
   -9.4319    2.0604   -7.6947 C   0  0  0  0  0  0  0  0  0  0  0  0
   -9.5207    2.9570   -8.9101 C   0  0  0  0  0  0  0  0  0  0  0  0
   -8.7062    5.4040   -9.3879 C   0  0  0  0  0  0  0  0  0  0  0  0
   -7.6597    6.8990   -8.5671 Br  0  0  0  0  0  0  0  0  0  0  0  0
   -8.4025    5.4535  -10.8778 C   0  0  0  0  0  0  0  0  0  0  0  0
 17 18  2  0  0  0
 18 19  1  0  0  0
 21 19  1  0  0  0
 21 22  1  0  0  0
 22 23  1  0  0  0
 23 24  1  0  0  0
 24 25  1  0  0  0
 25 26  1  0  0  0
 26 27  1  0  0  0
 27 28  1  0  0  0
 24 29  1  0  0  0
 29 30  1  0  0  0
 29 31  1  0  0  0
 18  1  1  0  0  0
  1  2  2  0  0  0
  2  3  1  0  0  0
  3  4  1  0  0  0
  3  5  2  0  0  0
  5  6  1  0  0  0
  6  7  1  0  0  0
  7 12  1  0  0  0
 12 13  1  0  0  0
 13 14  1  0  0  0
 14 15  1  0  0  0
  7  8  2  0  0  0
  8  9  1  0  0  0
  9 10  1  0  0  0
 31 21  1  0  0  0
 10  1  1  0  0  0
 28 24  1  0  0  0
 10  6  2  0  0  0
 15 12  1  0  0  0
 19 20  1  0  0  0
 14 16  1  0  0  0
  9 11  1  0  0  0
M  END
> <minimizedAffinity>
-7.82593

> <minimizedRMSD>
0.62225

$$$$
P25564


 28 31  0  0  0  0  0  0  0  0999 V2000
   -7.7278    4.9602  -14.9184 C   0  0  0  0  0  0  0  0  0  0  0  0
   -8.8238    4.6689  -15.7249 C   0  0  0  0  0  0  0  0  0  0  0  0
   -8.6523    4.5741  -17.1079 C   0  0  0  0  0  0  0  0  0  0  0  0
  -10.0334    4.4036  -18.0997 Cl  0  0  0  0  0  0  0  0  0  0  0  0
   -7.4087    4.7464  -17.7346 C   0  0  0  0  0  0  0  0  0  0  0  0
   -6.2959    5.0284  -16.9308 C   0  0  0  0  0  0  0  0  0  0  0  0
   -4.9334    5.3771  -17.1053 C   0  0  0  0  0  0  0  0  0  0  0  0
   -4.2996    5.5811  -15.9460 N   0  0  0  0  0  0  0  0  0  0  0  0
   -5.2653    5.4462  -15.0324 N   0  0  0  0  0  0  0  0  0  0  0  0
   -6.4855    5.1093  -15.5561 C   0  0  0  0  0  0  0  0  0  0  0  0
   -5.1133    5.5772  -14.0685 H   0  0  0  0  0  0  0  0  0  0  0  0
   -4.1969    5.7008  -18.4245 C   0  0  0  0  0  0  0  0  0  0  0  0
   -2.9842    4.7899  -18.7066 C   0  0  0  0  0  0  0  0  0  0  0  0
   -3.3036    4.8764  -20.1519 N   0  0  0  0  0  0  0  0  0  0  0  0
   -4.7212    5.1588  -19.7451 C   0  0  0  0  0  0  0  0  0  0  0  0
   -3.1735    4.0076  -20.6703 H   0  0  0  0  0  0  0  0  0  0  0  0
   -8.3002    4.2799  -12.5244 N   0  0  0  0  0  0  0  0  0  0  0  0
   -7.8322    5.3843  -13.5004 C   0  0  0  0  0  0  0  0  0  0  0  0
   -7.5650    6.5059  -13.3043 O   0  0  0  0  0  0  0  0  0  0  0  0
   -8.5370    3.4252  -12.9520 H   0  0  0  0  0  0  0  0  0  0  0  0
   -8.9290    3.2520   -9.0166 C   0  0  0  0  0  0  0  0  0  0  0  0
   -8.6369    4.4520   -8.3540 C   0  0  0  0  0  0  0  0  0  0  0  0
   -8.2630    5.5754   -9.0736 C   0  0  0  0  0  0  0  0  0  0  0  0
   -8.1648    5.4931  -10.4578 C   0  0  0  0  0  0  0  0  0  0  0  0
   -8.4416    4.2976  -11.1358 C   0  0  0  0  0  0  0  0  0  0  0  0
   -8.8388    3.1697  -10.4158 C   0  0  0  0  0  0  0  0  0  0  0  0
   -9.7364    1.3939   -7.4134 N   0  0  0  0  0  0  0  0  0  0  0  0
   -9.3616    2.1591   -8.1999 C   0  0  0  0  0  0  0  0  0  0  0  0
 27 28  3  0  0  0
 28 21  1  0  0  0
 21 22  2  0  0  0
 22 23  1  0  0  0
 23 24  2  0  0  0
 24 25  1  0  0  0
 25 17  1  0  0  0
 17 18  1  0  0  0
 18 19  2  0  0  0
 18  1  1  0  0  0
  1  2  2  0  0  0
  2  3  1  0  0  0
  3  4  1  0  0  0
  3  5  2  0  0  0
  5  6  1  0  0  0
  6  7  1  0  0  0
  7 12  1  0  0  0
 12 13  1  0  0  0
 13 14  1  0  0  0
 14 15  1  0  0  0
  7  8  2  0  0  0
  8  9  1  0  0  0
  9 10  1  0  0  0
 25 26  2  0  0  0
 26 21  1  0  0  0
 10  1  1  0  0  0
 10  6  2  0  0  0
 15 12  1  0  0  0
 17 20  1  0  0  0
 14 16  1  0  0  0
  9 11  1  0  0  0
M  END
> <minimizedAffinity>
-7.81768

> <minimizedRMSD>
0.45169

$$$$
P25565


 28 31  0  0  0  0  0  0  0  0999 V2000
   -7.4118    4.8678  -15.1156 C   0  0  0  0  0  0  0  0  0  0  0  0
   -8.6576    4.6231  -15.6992 C   0  0  0  0  0  0  0  0  0  0  0  0
   -8.7757    4.5468  -17.0864 C   0  0  0  0  0  0  0  0  0  0  0  0
  -10.3247    4.4897  -17.8023 Cl  0  0  0  0  0  0  0  0  0  0  0  0
   -7.6766    4.6607  -17.9358 C   0  0  0  0  0  0  0  0  0  0  0  0
   -6.4254    4.9087  -17.3628 C   0  0  0  0  0  0  0  0  0  0  0  0
   -5.1216    5.1571  -17.8412 C   0  0  0  0  0  0  0  0  0  0  0  0
   -4.2454    5.3775  -16.8568 N   0  0  0  0  0  0  0  0  0  0  0  0
   -5.0050    5.3241  -15.7457 N   0  0  0  0  0  0  0  0  0  0  0  0
   -6.3192    5.0130  -15.9834 C   0  0  0  0  0  0  0  0  0  0  0  0
   -4.6485    5.4933  -14.8437 H   0  0  0  0  0  0  0  0  0  0  0  0
   -4.7880    5.2125  -19.3526 C   0  0  0  0  0  0  0  0  0  0  0  0
   -3.3231    4.9920  -19.7681 C   0  0  0  0  0  0  0  0  0  0  0  0
   -3.5186    6.0384  -20.8185 N   0  0  0  0  0  0  0  0  0  0  0  0
   -4.5495    6.6305  -19.9124 C   0  0  0  0  0  0  0  0  0  0  0  0
   -3.8782    5.6910  -21.7075 H   0  0  0  0  0  0  0  0  0  0  0  0
   -6.4652    6.0264  -13.4261 O   0  0  0  0  0  0  0  0  0  0  0  0
   -7.2504    5.1976  -13.6789 C   0  0  0  0  0  0  0  0  0  0  0  0
   -8.2313    4.4307  -12.7590 N   0  0  0  0  0  0  0  0  0  0  0  0
   -8.8516    3.8279  -13.2292 H   0  0  0  0  0  0  0  0  0  0  0  0
   -8.3791    4.4548  -11.3732 C   0  0  0  0  0  0  0  0  0  0  0  0
   -8.1989    5.6567  -10.6791 C   0  0  0  0  0  0  0  0  0  0  0  0
   -8.3714    5.7094   -9.2963 C   0  0  0  0  0  0  0  0  0  0  0  0
   -8.7031    4.5537   -8.6057 C   0  0  0  0  0  0  0  0  0  0  0  0
   -8.8732    4.6225   -7.2766 F   0  0  0  0  0  0  0  0  0  0  0  0
   -8.8702    3.3521   -9.2862 C   0  0  0  0  0  0  0  0  0  0  0  0
   -9.2973    1.8070   -8.3033 Br  0  0  0  0  0  0  0  0  0  0  0  0
   -8.7249    3.2959  -10.6766 C   0  0  0  0  0  0  0  0  0  0  0  0
 17 18  2  0  0  0
 18 19  1  0  0  0
 19 21  1  0  0  0
 21 22  2  0  0  0
 22 23  1  0  0  0
 23 24  2  0  0  0
 24 25  1  0  0  0
 24 26  1  0  0  0
 26 27  1  0  0  0
 26 28  2  0  0  0
 18  1  1  0  0  0
  1  2  2  0  0  0
  2  3  1  0  0  0
  3  4  1  0  0  0
  3  5  2  0  0  0
  5  6  1  0  0  0
  6  7  1  0  0  0
  7 12  1  0  0  0
 12 13  1  0  0  0
 13 14  1  0  0  0
 14 15  1  0  0  0
  7  8  2  0  0  0
  8  9  1  0  0  0
  9 10  1  0  0  0
 28 21  1  0  0  0
 10  1  1  0  0  0
 10  6  2  0  0  0
 15 12  1  0  0  0
 19 20  1  0  0  0
 14 16  1  0  0  0
  9 11  1  0  0  0
M  END
> <minimizedAffinity>
-8.21376

> <minimizedRMSD>
0.33667

$$$$
P25566


 31 35  0  0  0  0  0  0  0  0999 V2000
   -3.0055    5.8347  -16.5501 C   0  0  0  0  0  0  0  0  0  0  0  0
   -4.3954    5.4569  -16.6451 N   0  0  0  0  0  0  0  0  0  0  0  0
   -5.0875    5.3972  -15.4966 N   0  0  0  0  0  0  0  0  0  0  0  0
   -6.3621    5.1658  -15.8445 C   0  0  0  0  0  0  0  0  0  0  0  0
   -7.5429    5.1060  -15.0760 C   0  0  0  0  0  0  0  0  0  0  0  0
   -8.7129    4.8060  -15.7988 C   0  0  0  0  0  0  0  0  0  0  0  0
   -8.6933    4.6198  -17.2107 C   0  0  0  0  0  0  0  0  0  0  0  0
  -10.1886    4.4206  -18.0175 Cl  0  0  0  0  0  0  0  0  0  0  0  0
   -7.5466    4.6904  -18.0235 C   0  0  0  0  0  0  0  0  0  0  0  0
   -6.4127    4.9658  -17.2707 C   0  0  0  0  0  0  0  0  0  0  0  0
   -5.1457    5.1810  -17.7566 C   0  0  0  0  0  0  0  0  0  0  0  0
   -4.7497    5.1879  -19.2601 C   0  0  0  0  0  0  0  0  0  0  0  0
   -3.3118    4.8475  -19.6844 C   0  0  0  0  0  0  0  0  0  0  0  0
   -3.3987    5.9253  -20.7033 N   0  0  0  0  0  0  0  0  0  0  0  0
   -4.4242    6.5785  -19.8440 C   0  0  0  0  0  0  0  0  0  0  0  0
   -3.7406    5.6207  -21.6147 H   0  0  0  0  0  0  0  0  0  0  0  0
   -7.5364    5.5071  -13.6634 C   0  0  0  0  0  0  0  0  0  0  0  0
   -7.2549    6.6090  -13.4135 O   0  0  0  0  0  0  0  0  0  0  0  0
   -7.8618    4.3266  -12.7344 N   0  0  0  0  0  0  0  0  0  0  0  0
   -8.1471    3.5052  -13.1963 H   0  0  0  0  0  0  0  0  0  0  0  0
   -7.8172    4.2260  -11.2959 C   0  0  0  0  0  0  0  0  0  0  0  0
   -8.3826    5.4574  -10.5907 C   0  0  0  0  0  0  0  0  0  0  0  0
   -7.9447    5.4383   -9.1374 C   0  0  0  0  0  0  0  0  0  0  0  0
   -8.6950    6.9776   -8.1949 Br  0  0  0  0  0  0  0  0  0  0  0  0
   -8.1130    4.1052   -8.4063 C   0  0  0  0  0  0  0  0  0  0  0  0
   -9.1751    3.9733   -7.3210 C   0  0  0  0  0  0  0  0  0  0  0  0
   -9.3786    2.5388   -7.2047 N   0  0  0  0  0  0  0  0  0  0  0  0
   -9.3699    2.0251   -8.5692 C   0  0  0  0  0  0  0  0  0  0  0  0
   -8.2761    2.8277   -9.2687 C   0  0  0  0  0  0  0  0  0  0  0  0
   -8.5344    2.9966  -10.7657 C   0  0  0  0  0  0  0  0  0  0  0  0
  -10.2735    2.3421   -6.7567 H   0  0  0  0  0  0  0  0  0  0  0  0
  1  2  1  0  0  0
  2  3  1  0  0  0
  3  4  2  0  0  0
  4  5  1  0  0  0
  5 17  1  0  0  0
 17 18  2  0  0  0
 17 19  1  0  0  0
 21 19  1  0  0  0
 21 22  1  0  0  0
 22 23  1  0  0  0
 23 24  1  0  0  0
 23 25  1  0  0  0
 25 26  1  0  0  0
 26 27  1  0  0  0
 27 28  1  0  0  0
 29 28  1  0  0  0
 29 30  1  0  0  0
  5  6  2  0  0  0
  6  7  1  0  0  0
  7  8  1  0  0  0
  7  9  2  0  0  0
  9 10  1  0  0  0
 10 11  2  0  0  0
 11 12  1  0  0  0
 12 13  1  0  0  0
 13 14  1  0  0  0
 14 15  1  0  0  0
 11  2  1  0  0  0
 15 12  1  0  0  0
 10  4  1  0  0  0
 30 21  1  0  0  0
 29 25  1  0  0  0
 19 20  1  0  0  0
 27 31  1  0  0  0
 14 16  1  0  0  0
M  END
> <minimizedAffinity>
-8.58373

> <minimizedRMSD>
0.39453

$$$$
P25567


 33 37  0  0  0  0  0  0  0  0999 V2000
   -5.2081    5.3639  -16.4032 N   0  0  0  0  0  0  0  0  0  0  0  0
   -6.1931    5.3688  -15.4728 N   0  0  0  0  0  0  0  0  0  0  0  0
   -7.3048    4.9860  -16.1179 C   0  0  0  0  0  0  0  0  0  0  0  0
   -8.6164    4.7655  -15.6568 C   0  0  0  0  0  0  0  0  0  0  0  0
   -9.5348    4.3442  -16.6382 C   0  0  0  0  0  0  0  0  0  0  0  0
   -9.1890    4.2155  -18.0132 C   0  0  0  0  0  0  0  0  0  0  0  0
   -7.8980    4.4686  -18.5206 C   0  0  0  0  0  0  0  0  0  0  0  0
   -6.9946    4.8267  -17.5189 C   0  0  0  0  0  0  0  0  0  0  0  0
   -5.6620    5.1321  -17.6791 C   0  0  0  0  0  0  0  0  0  0  0  0
   -4.9060    5.2083  -19.0525 C   0  0  0  0  0  0  0  0  0  0  0  0
   -3.4118    4.8818  -19.1144 C   0  0  0  0  0  0  0  0  0  0  0  0
   -3.0866    6.2835  -19.4012 N   0  0  0  0  0  0  0  0  0  0  0  0
   -4.5147    6.6302  -19.4897 C   0  0  0  0  0  0  0  0  0  0  0  0
   -2.5754    6.4175  -20.2736 H   0  0  0  0  0  0  0  0  0  0  0  0
   -9.0352    5.1444  -14.3033 C   0  0  0  0  0  0  0  0  0  0  0  0
   -9.8123    6.0046  -14.1961 O   0  0  0  0  0  0  0  0  0  0  0  0
   -8.3613    4.2721  -13.2335 N   0  0  0  0  0  0  0  0  0  0  0  0
   -7.7905    3.5526  -13.5880 H   0  0  0  0  0  0  0  0  0  0  0  0
   -8.4290    4.3359  -11.7866 C   0  0  0  0  0  0  0  0  0  0  0  0
   -7.2519    5.1440  -11.2478 C   0  0  0  0  0  0  0  0  0  0  0  0
   -7.4065    5.4373   -9.7666 C   0  0  0  0  0  0  0  0  0  0  0  0
   -8.6055    6.9580   -9.5197 Br  0  0  0  0  0  0  0  0  0  0  0  0
   -7.7191    4.1970   -8.9384 C   0  0  0  0  0  0  0  0  0  0  0  0
   -8.6224    4.3039   -7.7109 C   0  0  0  0  0  0  0  0  0  0  0  0
   -9.0461    2.9303   -7.4758 N   0  0  0  0  0  0  0  0  0  0  0  0
   -9.3081    2.3726   -8.7998 C   0  0  0  0  0  0  0  0  0  0  0  0
   -8.1671    2.9078   -9.6595 C   0  0  0  0  0  0  0  0  0  0  0  0
   -8.4815    2.9500  -11.1575 C   0  0  0  0  0  0  0  0  0  0  0  0
   -9.8922    2.9104   -6.9065 H   0  0  0  0  0  0  0  0  0  0  0  0
   -3.8672    5.7023  -15.9313 C   0  0  0  0  0  0  0  0  0  0  0  0
   -2.8627    4.4931  -14.0891 C   0  0  0  0  0  0  0  0  0  0  0  0
   -3.1243    4.4958  -15.5301 N   0  0  0  0  0  0  0  0  0  0  0  0
   -3.6737    3.6708  -15.7706 H   0  0  0  0  0  0  0  0  0  0  0  0
 31 32  1  0  0  0
 32 30  1  0  0  0
 30  1  1  0  0  0
  1  2  1  0  0  0
  2  3  2  0  0  0
  3  4  1  0  0  0
  4 15  1  0  0  0
 15 16  2  0  0  0
 15 17  1  0  0  0
 19 17  1  0  0  0
 19 20  1  0  0  0
 20 21  1  0  0  0
 21 22  1  0  0  0
 21 23  1  0  0  0
 23 24  1  0  0  0
 24 25  1  0  0  0
 25 26  1  0  0  0
 27 26  1  0  0  0
 27 28  1  0  0  0
  4  5  2  0  0  0
  5  6  1  0  0  0
  6  7  2  0  0  0
  7  8  1  0  0  0
  8  9  2  0  0  0
  9 10  1  0  0  0
 10 11  1  0  0  0
 11 12  1  0  0  0
 12 13  1  0  0  0
  9  1  1  0  0  0
 13 10  1  0  0  0
  8  3  1  0  0  0
 28 19  1  0  0  0
 27 23  1  0  0  0
 32 33  1  0  0  0
 17 18  1  0  0  0
 25 29  1  0  0  0
 12 14  1  0  0  0
M  END
> <minimizedAffinity>
-8.63679

> <minimizedRMSD>
0.74576

$$$$
P25581


 35 37  0  0  0  0  0  0  0  0999 V2000
   -7.6906    3.6044  -13.6817 C   0  0  0  0  0  0  0  0  0  0  0  0
   -6.4551    5.1969  -17.0047 C   0  0  0  0  0  0  0  0  0  0  0  0
   -7.6142    5.0634  -17.7780 C   0  0  0  0  0  0  0  0  0  0  0  0
   -8.7786    4.5785  -17.1977 C   0  0  0  0  0  0  0  0  0  0  0  0
  -10.2103    4.3951  -18.1302 Cl  0  0  0  0  0  0  0  0  0  0  0  0
   -8.7968    4.2190  -15.8544 C   0  0  0  0  0  0  0  0  0  0  0  0
   -7.6202    4.2180  -15.0806 C   0  0  0  0  0  0  0  0  0  0  0  0
   -6.4645    4.7491  -15.6698 C   0  0  0  0  0  0  0  0  0  0  0  0
   -5.2114    5.8054  -17.5991 C   0  0  0  0  0  0  0  0  0  0  0  0
   -4.4406    5.3660  -19.7937 C   0  0  0  0  0  0  0  0  0  0  0  0
   -4.5800    4.8757  -18.4699 O   0  0  0  0  0  0  0  0  0  0  0  0
   -6.5355    2.6866  -13.2114 C   0  0  0  0  0  0  0  0  0  0  0  0
   -6.6549    1.5265  -13.2666 O   0  0  0  0  0  0  0  0  0  0  0  0
   -5.3475    3.5473  -12.7376 N   0  0  0  0  0  0  0  0  0  0  0  0
   -5.5231    4.5157  -12.7159 H   0  0  0  0  0  0  0  0  0  0  0  0
   -4.0228    3.1654  -12.3217 C   0  0  0  0  0  0  0  0  0  0  0  0
   -3.1597    2.6767  -13.4819 C   0  0  0  0  0  0  0  0  0  0  0  0
   -3.2740    1.3453  -13.6881 F   0  0  0  0  0  0  0  0  0  0  0  0
   -3.5307    3.2857  -14.6387 F   0  0  0  0  0  0  0  0  0  0  0  0
   -8.2328    4.6198  -12.7493 N   0  0  0  0  0  0  0  0  0  0  0  0
   -8.6772    5.4146  -13.1235 H   0  0  0  0  0  0  0  0  0  0  0  0
   -8.1398    4.4961  -11.3628 C   0  0  0  0  0  0  0  0  0  0  0  0
   -8.5637    3.3326  -10.7239 C   0  0  0  0  0  0  0  0  0  0  0  0
   -8.6659    3.3153   -9.3426 C   0  0  0  0  0  0  0  0  0  0  0  0
   -8.3278    4.4194   -8.5757 C   0  0  0  0  0  0  0  0  0  0  0  0
   -7.8366    5.5668   -9.1711 C   0  0  0  0  0  0  0  0  0  0  0  0
   -7.7418    5.5864  -10.5733 C   0  0  0  0  0  0  0  0  0  0  0  0
   -8.6390    4.1390   -7.1459 C   0  0  0  0  0  0  0  0  0  0  0  0
   -9.0553    2.7198   -7.0716 N   0  0  0  0  0  0  0  0  0  0  0  0
   -9.2004    2.2340   -8.4695 C   0  0  0  0  0  0  0  0  0  0  0  0
   -9.9454    2.6414   -6.5796 H   0  0  0  0  0  0  0  0  0  0  0  0
   -7.1707    7.0404  -11.3976 S   0  0  0  0  0  0  0  0  0  0  0  0
   -8.6016    7.8038  -12.0874 C   0  0  0  0  0  0  0  0  0  0  0  0
   -6.2851    6.6232  -12.4698 O   0  0  0  0  0  0  0  0  0  0  0  0
   -6.6744    7.9471  -10.3738 O   0  0  0  0  0  0  0  0  0  0  0  0
 10 11  1  0  0  0
 11  9  1  0  0  0
  9  2  1  0  0  0
  2  3  2  0  0  0
  3  4  1  0  0  0
  4  5  1  0  0  0
  4  6  2  0  0  0
  6  7  1  0  0  0
  7  1  1  0  0  0
  1 20  1  0  0  0
 20 22  1  0  0  0
 22 23  2  0  0  0
 23 24  1  0  0  0
 24 25  2  0  0  0
 25 26  1  0  0  0
 26 27  2  0  0  0
 27 32  1  0  0  0
 32 33  1  0  0  0
 32 34  2  0  0  0
 32 35  2  0  0  0
 25 28  1  0  0  0
 28 29  1  0  0  0
 29 30  1  0  0  0
  1 12  1  0  0  0
 12 13  2  0  0  0
 12 14  1  0  0  0
 14 16  1  0  0  0
 16 17  1  0  0  0
 17 18  1  0  0  0
 17 19  1  0  0  0
  7  8  2  0  0  0
  8  2  1  0  0  0
 27 22  1  0  0  0
 30 24  1  0  0  0
 20 21  1  0  0  0
 29 31  1  0  0  0
 14 15  1  0  0  0
M  END
> <minimizedAffinity>
-7.79815

> <minimizedRMSD>
0.50529

$$$$
P25584


 34 36  0  0  0  0  0  0  0  0999 V2000
   -7.4710    5.2265  -12.5998 C   0  0  0  0  0  0  0  0  0  0  0  0
   -8.6599    4.6134  -16.2276 C   0  0  0  0  0  0  0  0  0  0  0  0
   -7.4875    4.8218  -16.9460 C   0  0  0  0  0  0  0  0  0  0  0  0
   -6.2800    5.0763  -16.2886 C   0  0  0  0  0  0  0  0  0  0  0  0
   -6.2476    5.1102  -14.8690 C   0  0  0  0  0  0  0  0  0  0  0  0
   -4.9082    5.2993  -14.1997 C   0  0  0  0  0  0  0  0  0  0  0  0
   -7.4542    5.0169  -14.1250 C   0  0  0  0  0  0  0  0  0  0  0  0
   -8.6471    4.7748  -14.8372 C   0  0  0  0  0  0  0  0  0  0  0  0
   -9.6979    4.4191  -18.3485 C   0  0  0  0  0  0  0  0  0  0  0  0
   -9.8514    4.2821  -16.9052 N   0  0  0  0  0  0  0  0  0  0  0  0
  -10.6813    3.9949  -16.4602 H   0  0  0  0  0  0  0  0  0  0  0  0
   -5.0073    5.2159  -17.0921 C   0  0  0  0  0  0  0  0  0  0  0  0
   -5.2111    5.0674  -18.4891 O   0  0  0  0  0  0  0  0  0  0  0  0
   -3.9873    5.1274  -19.1983 C   0  0  0  0  0  0  0  0  0  0  0  0
   -7.4304    6.7809  -12.2783 C   0  0  0  0  0  0  0  0  0  0  0  0
   -6.4643    7.3136  -11.8894 O   0  0  0  0  0  0  0  0  0  0  0  0
   -8.8469    7.3480  -12.5586 N   0  0  0  0  0  0  0  0  0  0  0  0
   -9.4764    6.7055  -12.9587 H   0  0  0  0  0  0  0  0  0  0  0  0
   -9.3966    8.6757  -12.3264 C   0  0  0  0  0  0  0  0  0  0  0  0
  -10.7719    8.9358  -12.9492 C   0  0  0  0  0  0  0  0  0  0  0  0
  -11.1648    7.8595  -13.6761 F   0  0  0  0  0  0  0  0  0  0  0  0
  -10.7060    9.9983  -13.7908 F   0  0  0  0  0  0  0  0  0  0  0  0
   -8.6091    4.5106  -11.9460 N   0  0  0  0  0  0  0  0  0  0  0  0
   -9.3849    4.1984  -12.4654 H   0  0  0  0  0  0  0  0  0  0  0  0
   -8.5236    4.2999  -10.5435 C   0  0  0  0  0  0  0  0  0  0  0  0
   -8.1929    5.3294   -9.6346 C   0  0  0  0  0  0  0  0  0  0  0  0
   -8.3308    5.1741   -8.2497 C   0  0  0  0  0  0  0  0  0  0  0  0
   -8.7918    3.9673   -7.7745 C   0  0  0  0  0  0  0  0  0  0  0  0
   -9.0540    2.9159   -8.6432 C   0  0  0  0  0  0  0  0  0  0  0  0
   -8.9473    3.0682  -10.0178 C   0  0  0  0  0  0  0  0  0  0  0  0
   -9.4412    1.7213   -7.8378 C   0  0  0  0  0  0  0  0  0  0  0  0
   -9.8544    2.2700   -6.5193 N   0  0  0  0  0  0  0  0  0  0  0  0
   -9.1138    3.5444   -6.3804 C   0  0  0  0  0  0  0  0  0  0  0  0
   -9.6026    1.6263   -5.7692 H   0  0  0  0  0  0  0  0  0  0  0  0
  9 10  1  0  0  0
 10  2  1  0  0  0
  2  3  2  0  0  0
  3  4  1  0  0  0
  4 12  1  0  0  0
 12 13  1  0  0  0
 13 14  1  0  0  0
  4  5  2  0  0  0
  5  6  1  0  0  0
  5  7  1  0  0  0
  7  1  1  0  0  0
  1 23  1  0  0  0
 23 25  1  0  0  0
 25 26  2  0  0  0
 26 27  1  0  0  0
 27 28  2  0  0  0
 28 29  1  0  0  0
 29 30  2  0  0  0
 29 31  1  0  0  0
 31 32  1  0  0  0
 32 33  1  0  0  0
  1 15  1  0  0  0
 15 16  2  0  0  0
 15 17  1  0  0  0
 17 19  1  0  0  0
 19 20  1  0  0  0
 20 21  1  0  0  0
 20 22  1  0  0  0
  7  8  2  0  0  0
  8  2  1  0  0  0
 30 25  1  0  0  0
 33 28  1  0  0  0
 10 11  1  0  0  0
 23 24  1  0  0  0
 32 34  1  0  0  0
 17 18  1  0  0  0
M  END
> <minimizedAffinity>
-7.09787

> <minimizedRMSD>
0.87202

$$$$
P25616


 37 41  0  0  0  0  0  0  0  0999 V2000
   -7.6180    5.3036  -13.6910 C   0  0  0  0  0  0  0  0  0  0  0  0
   -5.4667    4.9970  -18.0226 N   0  0  0  0  0  0  0  0  0  0  0  0
   -4.4875    5.2978  -17.1594 N   0  0  0  0  0  0  0  0  0  0  0  0
   -5.1168    5.2985  -15.9840 C   0  0  0  0  0  0  0  0  0  0  0  0
   -6.5098    5.0314  -16.0788 C   0  0  0  0  0  0  0  0  0  0  0  0
   -7.6239    4.9812  -15.1922 C   0  0  0  0  0  0  0  0  0  0  0  0
   -8.8772    4.7180  -15.7929 C   0  0  0  0  0  0  0  0  0  0  0  0
   -9.0191    4.5351  -17.1652 C   0  0  0  0  0  0  0  0  0  0  0  0
  -10.5843    4.4196  -17.8240 Cl  0  0  0  0  0  0  0  0  0  0  0  0
   -7.9360    4.5723  -18.0270 C   0  0  0  0  0  0  0  0  0  0  0  0
   -6.6966    4.8310  -17.4479 C   0  0  0  0  0  0  0  0  0  0  0  0
   -3.8505    5.2082  -19.6450 C   0  0  0  0  0  0  0  0  0  0  0  0
   -5.2395    5.0935  -19.3939 O   0  0  0  0  0  0  0  0  0  0  0  0
   -6.2298    5.8600  -13.2128 C   0  0  0  0  0  0  0  0  0  0  0  0
   -5.9323    6.9896  -13.2470 O   0  0  0  0  0  0  0  0  0  0  0  0
   -5.4098    4.6184  -12.7799 N   0  0  0  0  0  0  0  0  0  0  0  0
   -5.8648    3.7560  -12.9157 H   0  0  0  0  0  0  0  0  0  0  0  0
   -4.0928    4.5211  -12.2124 C   0  0  0  0  0  0  0  0  0  0  0  0
   -3.9800    3.2040  -11.5108 C   0  0  0  0  0  0  0  0  0  0  0  0
   -3.1885    2.1563  -11.9839 C   0  0  0  0  0  0  0  0  0  0  0  0
   -3.3032    0.9144  -11.3687 C   0  0  0  0  0  0  0  0  0  0  0  0
   -4.1741    0.6393  -10.3719 N   0  0  0  0  0  0  0  0  0  0  0  0
   -4.9398    1.6687   -9.9569 C   0  0  0  0  0  0  0  0  0  0  0  0
   -4.8180    2.9556  -10.4284 C   0  0  0  0  0  0  0  0  0  0  0  0
   -5.5374    3.9447   -9.8880 F   0  0  0  0  0  0  0  0  0  0  0  0
   -7.9916    4.1049  -12.9043 N   0  0  0  0  0  0  0  0  0  0  0  0
   -7.9802    3.2224  -13.3407 H   0  0  0  0  0  0  0  0  0  0  0  0
   -8.3613    4.1944  -11.5535 C   0  0  0  0  0  0  0  0  0  0  0  0
   -8.2731    5.3773  -10.7889 C   0  0  0  0  0  0  0  0  0  0  0  0
   -8.4732    5.3816   -9.4009 C   0  0  0  0  0  0  0  0  0  0  0  0
   -8.7610    4.1860   -8.7753 C   0  0  0  0  0  0  0  0  0  0  0  0
   -8.8711    3.0145   -9.5070 C   0  0  0  0  0  0  0  0  0  0  0  0
   -8.6730    3.0014  -10.8813 C   0  0  0  0  0  0  0  0  0  0  0  0
   -9.1324    1.8760   -8.5808 C   0  0  0  0  0  0  0  0  0  0  0  0
   -9.3873    2.4805   -7.2473 N   0  0  0  0  0  0  0  0  0  0  0  0
   -8.9466    3.8887   -7.3273 C   0  0  0  0  0  0  0  0  0  0  0  0
   -8.8563    1.9863   -6.5302 H   0  0  0  0  0  0  0  0  0  0  0  0
 12 13  1  0  0  0
 13  2  1  0  0  0
  2  3  1  0  0  0
  3  4  2  0  0  0
  4  5  1  0  0  0
  5  6  2  0  0  0
  6  1  1  0  0  0
  1 26  1  0  0  0
 26 28  1  0  0  0
 28 29  2  0  0  0
 29 30  1  0  0  0
 30 31  2  0  0  0
 31 32  1  0  0  0
 32 33  2  0  0  0
 32 34  1  0  0  0
 34 35  1  0  0  0
 35 36  1  0  0  0
  1 14  1  0  0  0
 14 15  2  0  0  0
 14 16  1  0  0  0
 16 18  1  0  0  0
 18 19  1  0  0  0
 19 20  2  0  0  0
 20 21  1  0  0  0
 21 22  2  0  0  0
 22 23  1  0  0  0
 23 24  2  0  0  0
 24 25  1  0  0  0
  6  7  1  0  0  0
  7  8  2  0  0  0
  8  9  1  0  0  0
  8 10  1  0  0  0
 10 11  2  0  0  0
 11  2  1  0  0  0
 11  5  1  0  0  0
 33 28  1  0  0  0
 24 19  1  0  0  0
 36 31  1  0  0  0
 26 27  1  0  0  0
 35 37  1  0  0  0
 16 17  1  0  0  0
M  END
> <minimizedAffinity>
-8.18088

> <minimizedRMSD>
0.25920

$$$$
P25619


 33 36  0  0  0  0  0  0  0  0999 V2000
   -7.0471    4.0338  -13.2533 C   0  0  0  0  0  0  0  0  0  0  0  0
   -4.9194    5.2380  -17.3803 N   0  0  0  0  0  0  0  0  0  0  0  0
   -3.9858    5.3396  -16.4245 N   0  0  0  0  0  0  0  0  0  0  0  0
   -4.6580    5.0225  -15.3156 C   0  0  0  0  0  0  0  0  0  0  0  0
   -6.0363    4.7761  -15.5455 C   0  0  0  0  0  0  0  0  0  0  0  0
   -7.1460    4.3751  -14.7534 C   0  0  0  0  0  0  0  0  0  0  0  0
   -8.3859    4.3095  -15.4329 C   0  0  0  0  0  0  0  0  0  0  0  0
   -8.4963    4.5217  -16.8034 C   0  0  0  0  0  0  0  0  0  0  0  0
  -10.0492    4.4913  -17.5109 Cl  0  0  0  0  0  0  0  0  0  0  0  0
   -7.3926    4.8156  -17.5896 C   0  0  0  0  0  0  0  0  0  0  0  0
   -6.1784    4.9626  -16.9218 C   0  0  0  0  0  0  0  0  0  0  0  0
   -4.1091    6.5614  -19.0566 C   0  0  0  0  0  0  0  0  0  0  0  0
   -4.5166    5.2500  -18.7148 O   0  0  0  0  0  0  0  0  0  0  0  0
   -6.2995    2.6475  -13.0091 C   0  0  0  0  0  0  0  0  0  0  0  0
   -6.7941    1.6219  -13.2661 O   0  0  0  0  0  0  0  0  0  0  0  0
   -4.8956    2.9696  -12.4270 N   0  0  0  0  0  0  0  0  0  0  0  0
   -4.7407    3.9209  -12.2263 H   0  0  0  0  0  0  0  0  0  0  0  0
   -3.7781    2.0976  -12.1317 C   0  0  0  0  0  0  0  0  0  0  0  0
   -2.8438    1.8835  -13.3154 C   0  0  0  0  0  0  0  0  0  0  0  0
   -3.5382    1.4609  -14.4021 F   0  0  0  0  0  0  0  0  0  0  0  0
   -1.9378    0.9164  -13.0265 F   0  0  0  0  0  0  0  0  0  0  0  0
   -8.4058    4.0006  -12.6621 N   0  0  0  0  0  0  0  0  0  0  0  0
   -9.2045    3.9457  -13.2351 H   0  0  0  0  0  0  0  0  0  0  0  0
   -8.5244    4.0494  -11.2672 C   0  0  0  0  0  0  0  0  0  0  0  0
   -8.2954    5.2366  -10.5465 C   0  0  0  0  0  0  0  0  0  0  0  0
   -8.3608    5.2561   -9.1487 C   0  0  0  0  0  0  0  0  0  0  0  0
   -8.6907    4.0846   -8.4887 C   0  0  0  0  0  0  0  0  0  0  0  0
   -8.9659    2.9233   -9.1928 C   0  0  0  0  0  0  0  0  0  0  0  0
   -8.8826    2.8863  -10.5726 C   0  0  0  0  0  0  0  0  0  0  0  0
   -9.3751    1.8407   -8.2533 C   0  0  0  0  0  0  0  0  0  0  0  0
   -9.2401    2.4076   -6.8842 N   0  0  0  0  0  0  0  0  0  0  0  0
   -8.8719    3.8308   -7.0309 C   0  0  0  0  0  0  0  0  0  0  0  0
   -8.5125    1.9101   -6.3709 H   0  0  0  0  0  0  0  0  0  0  0  0
 12 13  1  0  0  0
 13  2  1  0  0  0
  2  3  1  0  0  0
  3  4  2  0  0  0
  4  5  1  0  0  0
  5  6  2  0  0  0
  6  1  1  0  0  0
  1 22  1  0  0  0
 22 24  1  0  0  0
 24 25  2  0  0  0
 25 26  1  0  0  0
 26 27  2  0  0  0
 27 28  1  0  0  0
 28 29  2  0  0  0
 28 30  1  0  0  0
 30 31  1  0  0  0
 31 32  1  0  0  0
  1 14  1  0  0  0
 14 15  2  0  0  0
 14 16  1  0  0  0
 16 18  1  0  0  0
 18 19  1  0  0  0
 19 20  1  0  0  0
 19 21  1  0  0  0
  6  7  1  0  0  0
  7  8  2  0  0  0
  8  9  1  0  0  0
  8 10  1  0  0  0
 10 11  2  0  0  0
 11  2  1  0  0  0
 11  5  1  0  0  0
 29 24  1  0  0  0
 32 27  1  0  0  0
 22 23  1  0  0  0
 31 33  1  0  0  0
 16 17  1  0  0  0
M  END
> <minimizedAffinity>
-8.82864

> <minimizedRMSD>
1.64143

$$$$
P25623


 34 36  0  0  0  0  0  0  0  0999 V2000
   -7.0831    5.1047  -13.5672 C   0  0  0  0  0  0  0  0  0  0  0  0
   -5.7959    4.7089  -12.8154 C   0  0  0  0  0  0  0  0  0  0  0  0
   -5.1060    5.5349  -12.3607 O   0  0  0  0  0  0  0  0  0  0  0  0
   -5.6534    3.1654  -12.8076 N   0  0  0  0  0  0  0  0  0  0  0  0
   -6.4155    2.6791  -13.1974 H   0  0  0  0  0  0  0  0  0  0  0  0
   -4.5807    2.3218  -12.3197 C   0  0  0  0  0  0  0  0  0  0  0  0
   -4.6094    2.0430  -10.8193 C   0  0  0  0  0  0  0  0  0  0  0  0
   -4.2004    0.7629  -10.5967 F   0  0  0  0  0  0  0  0  0  0  0  0
   -5.8779    2.1208  -10.3435 F   0  0  0  0  0  0  0  0  0  0  0  0
   -8.2622    5.4715  -12.7068 C   0  0  0  0  0  0  0  0  0  0  0  0
   -9.1423    6.2110  -13.1528 O   0  0  0  0  0  0  0  0  0  0  0  0
   -8.3358    5.0435  -11.2975 C   0  0  0  0  0  0  0  0  0  0  0  0
   -8.1232    6.0371  -10.3256 C   0  0  0  0  0  0  0  0  0  0  0  0
   -8.2522    5.7329   -8.9721 C   0  0  0  0  0  0  0  0  0  0  0  0
   -8.6034    4.4400   -8.6247 C   0  0  0  0  0  0  0  0  0  0  0  0
   -8.7989    3.4531   -9.5875 C   0  0  0  0  0  0  0  0  0  0  0  0
   -8.6765    3.7337  -10.9407 C   0  0  0  0  0  0  0  0  0  0  0  0
   -9.1400    2.1689   -8.9068 C   0  0  0  0  0  0  0  0  0  0  0  0
   -9.3553    2.5020   -7.4753 N   0  0  0  0  0  0  0  0  0  0  0  0
   -8.8615    3.8776   -7.2686 C   0  0  0  0  0  0  0  0  0  0  0  0
   -8.8375    1.8522   -6.8836 H   0  0  0  0  0  0  0  0  0  0  0  0
   -7.4419    4.1522  -14.7066 C   0  0  0  0  0  0  0  0  0  0  0  0
   -8.6900    4.4633  -15.5355 C   0  0  0  0  0  0  0  0  0  0  0  0
   -8.5539    4.9923  -16.9404 C   0  0  0  0  0  0  0  0  0  0  0  0
  -10.1328    4.6173  -17.7670 Cl  0  0  0  0  0  0  0  0  0  0  0  0
   -7.5383    4.4384  -17.9135 C   0  0  0  0  0  0  0  0  0  0  0  0
   -4.3865    5.6943  -19.2129 N   0  0  0  0  0  0  0  0  0  0  0  0
   -4.2824    6.2476  -17.9705 C   0  0  0  0  0  0  0  0  0  0  0  0
   -5.4352    5.9322  -17.2773 C   0  0  0  0  0  0  0  0  0  0  0  0
   -6.2144    5.0800  -18.0960 C   0  0  0  0  0  0  0  0  0  0  0  0
   -5.5280    4.9736  -19.2911 C   0  0  0  0  0  0  0  0  0  0  0  0
   -3.5997    7.2122  -20.8324 C   0  0  0  0  0  0  0  0  0  0  0  0
   -3.4781    5.8601  -20.2897 N   0  0  0  0  0  0  0  0  0  0  0  0
   -2.5256    5.7132  -19.9555 H   0  0  0  0  0  0  0  0  0  0  0  0
 32 33  1  0  0  0
 33 27  1  0  0  0
 27 28  1  0  0  0
 28 29  2  0  0  0
 29 30  1  0  0  0
 30 26  1  0  0  0
 26 24  1  0  0  0
 24 25  1  0  0  0
 24 23  1  0  0  0
 23 22  1  0  0  0
  1 22  1  0  0  0
  1  2  1  0  0  0
  2  3  2  0  0  0
  2  4  1  0  0  0
  4  6  1  0  0  0
  6  7  1  0  0  0
  7  8  1  0  0  0
  7  9  1  0  0  0
  1 10  1  0  0  0
 10 11  2  0  0  0
 10 12  1  0  0  0
 12 13  2  0  0  0
 13 14  1  0  0  0
 14 15  2  0  0  0
 15 16  1  0  0  0
 16 17  2  0  0  0
 16 18  1  0  0  0
 18 19  1  0  0  0
 19 20  1  0  0  0
 30 31  2  0  0  0
 31 27  1  0  0  0
 17 12  1  0  0  0
 20 15  1  0  0  0
 33 34  1  0  0  0
  4  5  1  0  0  0
 19 21  1  0  0  0
M  END
> <minimizedAffinity>
-6.62356

> <minimizedRMSD>
0.93051

$$$$
P25650


 32 34  0  0  0  0  0  0  0  0999 V2000
   -7.0646    4.6996  -13.7255 C   0  0  0  0  0  0  0  0  0  0  0  0
   -5.9897    4.9773  -17.3620 C   0  0  0  0  0  0  0  0  0  0  0  0
   -7.1941    4.9188  -18.0577 C   0  0  0  0  0  0  0  0  0  0  0  0
   -8.3634    4.6647  -17.3521 C   0  0  0  0  0  0  0  0  0  0  0  0
   -9.8578    4.5803  -18.1887 Cl  0  0  0  0  0  0  0  0  0  0  0  0
   -8.3487    4.5523  -15.9571 C   0  0  0  0  0  0  0  0  0  0  0  0
   -7.1462    4.5552  -15.2433 C   0  0  0  0  0  0  0  0  0  0  0  0
   -5.9737    4.6779  -15.9925 C   0  0  0  0  0  0  0  0  0  0  0  0
   -4.7313    5.4996  -17.9864 C   0  0  0  0  0  0  0  0  0  0  0  0
   -5.0354    6.3661  -19.0910 O   0  0  0  0  0  0  0  0  0  0  0  0
   -5.6272    8.5418  -18.1955 C   0  0  0  0  0  0  0  0  0  0  0  0
   -4.5985    7.7187  -18.9537 C   0  0  0  0  0  0  0  0  0  0  0  0
   -5.6052    4.4654  -13.1456 C   0  0  0  0  0  0  0  0  0  0  0  0
   -4.9286    5.3631  -12.8197 O   0  0  0  0  0  0  0  0  0  0  0  0
   -5.3266    2.9396  -13.1301 N   0  0  0  0  0  0  0  0  0  0  0  0
   -6.0356    2.3870  -13.5317 H   0  0  0  0  0  0  0  0  0  0  0  0
   -4.1933    2.1958  -12.6212 C   0  0  0  0  0  0  0  0  0  0  0  0
   -3.0036    2.1185  -13.5755 C   0  0  0  0  0  0  0  0  0  0  0  0
   -2.1127    1.1824  -13.1445 F   0  0  0  0  0  0  0  0  0  0  0  0
   -3.3967    1.7329  -14.8187 F   0  0  0  0  0  0  0  0  0  0  0  0
   -8.1098    3.9428  -13.0068 N   0  0  0  0  0  0  0  0  0  0  0  0
   -8.7039    3.3091  -13.4701 H   0  0  0  0  0  0  0  0  0  0  0  0
   -8.2093    4.1780  -11.6239 C   0  0  0  0  0  0  0  0  0  0  0  0
   -7.9836    5.4545  -11.0631 C   0  0  0  0  0  0  0  0  0  0  0  0
   -7.9998    5.6641   -9.6802 C   0  0  0  0  0  0  0  0  0  0  0  0
   -8.2314    4.5786   -8.8611 C   0  0  0  0  0  0  0  0  0  0  0  0
   -8.4726    3.3207   -9.3950 C   0  0  0  0  0  0  0  0  0  0  0  0
   -8.4928    3.1106  -10.7641 C   0  0  0  0  0  0  0  0  0  0  0  0
   -8.6960    2.3506   -8.2875 C   0  0  0  0  0  0  0  0  0  0  0  0
   -8.3325    3.0686   -7.0387 N   0  0  0  0  0  0  0  0  0  0  0  0
   -8.3146    4.5090   -7.3763 C   0  0  0  0  0  0  0  0  0  0  0  0
   -7.4122    2.7704   -6.7153 H   0  0  0  0  0  0  0  0  0  0  0  0
 11 12  1  0  0  0
 12 10  1  0  0  0
 10  9  1  0  0  0
  9  2  1  0  0  0
  2  3  2  0  0  0
  3  4  1  0  0  0
  4  5  1  0  0  0
  4  6  2  0  0  0
  6  7  1  0  0  0
  7  1  1  0  0  0
  1 21  1  0  0  0
 21 23  1  0  0  0
 23 24  2  0  0  0
 24 25  1  0  0  0
 25 26  2  0  0  0
 26 27  1  0  0  0
 27 28  2  0  0  0
 27 29  1  0  0  0
 29 30  1  0  0  0
 30 31  1  0  0  0
  1 13  1  0  0  0
 13 14  2  0  0  0
 13 15  1  0  0  0
 15 17  1  0  0  0
 17 18  1  0  0  0
 18 19  1  0  0  0
 18 20  1  0  0  0
  7  8  2  0  0  0
  8  2  1  0  0  0
 28 23  1  0  0  0
 31 26  1  0  0  0
 21 22  1  0  0  0
 30 32  1  0  0  0
 15 16  1  0  0  0
M  END
> <minimizedAffinity>
-7.11359

> <minimizedRMSD>
1.09619

$$$$
P25655


 31 32  0  0  0  0  0  0  0  0999 V2000
   -7.5129    4.3136  -13.0986 C   0  0  0  0  0  0  0  0  0  0  0  0
   -8.3033    4.7934  -14.3438 C   0  0  0  0  0  0  0  0  0  0  0  0
   -9.3726    5.2335  -14.1702 O   0  0  0  0  0  0  0  0  0  0  0  0
   -7.4816    4.6402  -15.6461 N   0  0  0  0  0  0  0  0  0  0  0  0
   -6.6268    4.1634  -15.5404 H   0  0  0  0  0  0  0  0  0  0  0  0
   -7.7684    5.0886  -17.0085 C   0  0  0  0  0  0  0  0  0  0  0  0
   -6.5590    5.2230  -17.9446 C   0  0  0  0  0  0  0  0  0  0  0  0
   -5.3339    5.0251  -17.2692 O   0  0  0  0  0  0  0  0  0  0  0  0
   -6.5594    4.3291  -18.9482 F   0  0  0  0  0  0  0  0  0  0  0  0
   -6.4834    6.4557  -18.4881 F   0  0  0  0  0  0  0  0  0  0  0  0
   -5.3308    4.1478  -16.8554 H   0  0  0  0  0  0  0  0  0  0  0  0
   -8.9009    4.3016  -17.6759 C   0  0  0  0  0  0  0  0  0  0  0  0
   -9.7049    3.5504  -16.7635 O   0  0  0  0  0  0  0  0  0  0  0  0
   -9.1557    2.8843  -16.3213 H   0  0  0  0  0  0  0  0  0  0  0  0
   -7.7342    5.3249  -11.9892 C   0  0  0  0  0  0  0  0  0  0  0  0
   -7.4861    6.5241  -12.1310 O   0  0  0  0  0  0  0  0  0  0  0  0
   -8.1099    4.8503  -10.6335 C   0  0  0  0  0  0  0  0  0  0  0  0
   -7.9243    5.7697   -9.5787 C   0  0  0  0  0  0  0  0  0  0  0  0
   -8.2223    5.4212   -8.2656 C   0  0  0  0  0  0  0  0  0  0  0  0
   -8.7192    4.1546   -8.0337 C   0  0  0  0  0  0  0  0  0  0  0  0
   -8.8917    3.2397   -9.0677 C   0  0  0  0  0  0  0  0  0  0  0  0
   -8.5897    3.5615  -10.3791 C   0  0  0  0  0  0  0  0  0  0  0  0
   -9.4064    1.9577   -8.5106 C   0  0  0  0  0  0  0  0  0  0  0  0
   -9.7674    2.2427   -7.0983 N   0  0  0  0  0  0  0  0  0  0  0  0
   -9.1680    3.5463   -6.7507 C   0  0  0  0  0  0  0  0  0  0  0  0
   -9.3968    1.5137   -6.4886 H   0  0  0  0  0  0  0  0  0  0  0  0
   -5.9952    4.0826  -13.1486 C   0  0  0  0  0  0  0  0  0  0  0  0
   -5.6814    2.5878  -13.1389 C   0  0  0  0  0  0  0  0  0  0  0  0
   -3.2822    1.8670  -12.6798 C   0  0  0  0  0  0  0  0  0  0  0  0
   -4.3246    2.2096  -13.7356 C   0  0  0  0  0  0  0  0  0  0  0  0
   -3.7014    3.5207  -14.7859 Cl  0  0  0  0  0  0  0  0  0  0  0  0
 30 29  1  0  0  0
 30 31  1  0  0  0
 30 28  1  0  0  0
 28 27  1  0  0  0
  1 27  1  0  0  0
  1  2  1  0  0  0
  2  3  2  0  0  0
  2  4  1  0  0  0
  4  6  1  0  0  0
  6 12  1  0  0  0
 12 13  1  0  0  0
  6  7  1  0  0  0
  7  8  1  0  0  0
  7  9  1  0  0  0
  7 10  1  0  0  0
  1 15  1  0  0  0
 15 16  2  0  0  0
 15 17  1  0  0  0
 17 18  2  0  0  0
 18 19  1  0  0  0
 19 20  2  0  0  0
 20 21  1  0  0  0
 21 22  2  0  0  0
 21 23  1  0  0  0
 23 24  1  0  0  0
 24 25  1  0  0  0
 22 17  1  0  0  0
 25 20  1  0  0  0
  4  5  1  0  0  0
 13 14  1  0  0  0
  8 11  1  0  0  0
 24 26  1  0  0  0
M  END
> <minimizedAffinity>
-7.10127

> <minimizedRMSD>
0.75714

$$$$
P25659


 33 36  0  0  0  0  0  0  0  0999 V2000
   -7.2195    4.9936  -13.8014 C   0  0  0  0  0  0  0  0  0  0  0  0
   -3.5757    6.9926  -17.2555 C   0  0  0  0  0  0  0  0  0  0  0  0
   -4.3717    5.7083  -17.0860 C   0  0  0  0  0  0  0  0  0  0  0  0
   -3.3917    4.5566  -16.8698 C   0  0  0  0  0  0  0  0  0  0  0  0
   -5.3008    5.5022  -18.2939 C   0  0  0  0  0  0  0  0  0  0  0  0
   -6.5175    5.0473  -17.5903 C   0  0  0  0  0  0  0  0  0  0  0  0
   -7.6893    4.5905  -18.1511 C   0  0  0  0  0  0  0  0  0  0  0  0
   -8.7303    4.2827  -17.2908 C   0  0  0  0  0  0  0  0  0  0  0  0
  -10.2496    3.8551  -17.9583 Cl  0  0  0  0  0  0  0  0  0  0  0  0
   -8.5750    4.3860  -15.8968 C   0  0  0  0  0  0  0  0  0  0  0  0
   -7.3674    4.8269  -15.3127 C   0  0  0  0  0  0  0  0  0  0  0  0
   -6.3767    5.2003  -16.2152 C   0  0  0  0  0  0  0  0  0  0  0  0
   -5.1869    5.8002  -15.8871 O   0  0  0  0  0  0  0  0  0  0  0  0
   -5.7907    4.5935  -13.2423 C   0  0  0  0  0  0  0  0  0  0  0  0
   -5.0277    5.3973  -12.8640 O   0  0  0  0  0  0  0  0  0  0  0  0
   -5.6862    3.0396  -13.2746 N   0  0  0  0  0  0  0  0  0  0  0  0
   -6.4392    2.5847  -13.7166 H   0  0  0  0  0  0  0  0  0  0  0  0
   -4.6602    2.1548  -12.7593 C   0  0  0  0  0  0  0  0  0  0  0  0
   -4.8690    1.7428  -11.2992 C   0  0  0  0  0  0  0  0  0  0  0  0
   -5.4047    2.7738  -10.5927 F   0  0  0  0  0  0  0  0  0  0  0  0
   -3.6622    1.4910  -10.7244 F   0  0  0  0  0  0  0  0  0  0  0  0
   -8.3087    4.2726  -13.0759 N   0  0  0  0  0  0  0  0  0  0  0  0
   -8.9892    3.7700  -13.5795 H   0  0  0  0  0  0  0  0  0  0  0  0
   -8.3581    4.3144  -11.6754 C   0  0  0  0  0  0  0  0  0  0  0  0
   -8.0025    5.4609  -10.9358 C   0  0  0  0  0  0  0  0  0  0  0  0
   -8.0688    5.4834   -9.5362 C   0  0  0  0  0  0  0  0  0  0  0  0
   -8.5037    4.3473   -8.8835 C   0  0  0  0  0  0  0  0  0  0  0  0
   -8.8467    3.2050   -9.5942 C   0  0  0  0  0  0  0  0  0  0  0  0
   -8.7969    3.1775  -10.9784 C   0  0  0  0  0  0  0  0  0  0  0  0
   -9.2074    2.1223   -8.6321 C   0  0  0  0  0  0  0  0  0  0  0  0
   -9.4442    2.8169   -7.3402 N   0  0  0  0  0  0  0  0  0  0  0  0
   -8.6920    4.0888   -7.4264 C   0  0  0  0  0  0  0  0  0  0  0  0
   -9.0998    2.2517   -6.5641 H   0  0  0  0  0  0  0  0  0  0  0  0
  2  3  1  0  0  0
  3  4  1  0  0  0
  3  5  1  0  0  0
  5  6  1  0  0  0
  6  7  2  0  0  0
  7  8  1  0  0  0
  8  9  1  0  0  0
  8 10  2  0  0  0
 10 11  1  0  0  0
 11  1  1  0  0  0
  1 22  1  0  0  0
 22 24  1  0  0  0
 24 25  2  0  0  0
 25 26  1  0  0  0
 26 27  2  0  0  0
 27 28  1  0  0  0
 28 29  2  0  0  0
 28 30  1  0  0  0
 30 31  1  0  0  0
 31 32  1  0  0  0
  1 14  1  0  0  0
 14 15  2  0  0  0
 14 16  1  0  0  0
 16 18  1  0  0  0
 18 19  1  0  0  0
 19 20  1  0  0  0
 19 21  1  0  0  0
 11 12  2  0  0  0
 12 13  1  0  0  0
 13  3  1  0  0  0
 12  6  1  0  0  0
 29 24  1  0  0  0
 32 27  1  0  0  0
 22 23  1  0  0  0
 31 33  1  0  0  0
 16 17  1  0  0  0
M  END
> <minimizedAffinity>
-8.13209

> <minimizedRMSD>
0.46388

$$$$
P25730


 35 39  0  0  0  0  0  0  0  0999 V2000
   -5.1931    5.7713  -17.0771 N   0  0  0  0  0  0  0  0  0  0  0  0
   -4.7921    6.0478  -15.8167 N   0  0  0  0  0  0  0  0  0  0  0  0
   -5.8879    5.8662  -15.0852 C   0  0  0  0  0  0  0  0  0  0  0  0
   -6.9579    5.3316  -15.8312 C   0  0  0  0  0  0  0  0  0  0  0  0
   -8.2779    4.9267  -15.5388 C   0  0  0  0  0  0  0  0  0  0  0  0
   -9.0649    4.3694  -16.5471 C   0  0  0  0  0  0  0  0  0  0  0  0
   -8.5446    4.2469  -17.8300 C   0  0  0  0  0  0  0  0  0  0  0  0
   -9.3245    3.7212  -18.7857 F   0  0  0  0  0  0  0  0  0  0  0  0
   -7.2475    4.6678  -18.1613 C   0  0  0  0  0  0  0  0  0  0  0  0
   -6.4634    5.2188  -17.1334 C   0  0  0  0  0  0  0  0  0  0  0  0
   -5.5102    8.0239  -18.9791 C   0  0  0  0  0  0  0  0  0  0  0  0
   -4.5085    6.9144  -19.2677 C   0  0  0  0  0  0  0  0  0  0  0  0
   -3.1369    7.4781  -19.1133 N   0  0  0  0  0  0  0  0  0  0  0  0
   -2.9853    6.7628  -17.8306 C   0  0  0  0  0  0  0  0  0  0  0  0
   -4.1882    5.8238  -18.1916 C   0  0  0  0  0  0  0  0  0  0  0  0
   -3.7481    4.5172  -18.6693 O   0  0  0  0  0  0  0  0  0  0  0  0
   -3.5829    3.9346  -17.9115 H   0  0  0  0  0  0  0  0  0  0  0  0
   -2.2305    6.9420  -20.1477 C   0  0  0  0  0  0  0  0  0  0  0  0
   -1.5271    8.1053  -20.8635 C   0  0  0  0  0  0  0  0  0  0  0  0
   -2.1932    9.3316  -20.5587 O   0  0  0  0  0  0  0  0  0  0  0  0
   -3.1147    9.2820  -20.8578 H   0  0  0  0  0  0  0  0  0  0  0  0
   -8.8029    5.1951  -14.1797 C   0  0  0  0  0  0  0  0  0  0  0  0
   -9.5397    6.0933  -14.0598 O   0  0  0  0  0  0  0  0  0  0  0  0
   -8.1997    4.2467  -13.1200 N   0  0  0  0  0  0  0  0  0  0  0  0
   -7.6576    3.5110  -13.4863 H   0  0  0  0  0  0  0  0  0  0  0  0
   -8.2979    4.2629  -11.7287 C   0  0  0  0  0  0  0  0  0  0  0  0
   -7.9056    5.3933  -10.9900 C   0  0  0  0  0  0  0  0  0  0  0  0
   -7.9965    5.4100   -9.5940 C   0  0  0  0  0  0  0  0  0  0  0  0
   -8.4881    4.2861   -8.9594 C   0  0  0  0  0  0  0  0  0  0  0  0
   -8.8672    3.1645   -9.6872 C   0  0  0  0  0  0  0  0  0  0  0  0
   -8.7785    3.1305  -11.0704 C   0  0  0  0  0  0  0  0  0  0  0  0
   -9.3044    2.0952   -8.7468 C   0  0  0  0  0  0  0  0  0  0  0  0
   -9.4074    2.7400   -7.4167 N   0  0  0  0  0  0  0  0  0  0  0  0
   -8.7080    4.0346   -7.5061 C   0  0  0  0  0  0  0  0  0  0  0  0
   -8.9671    2.1529   -6.7083 H   0  0  0  0  0  0  0  0  0  0  0  0
 12 11  1  0  0  0
 12 13  1  0  0  0
 13 18  1  0  0  0
 18 19  1  0  0  0
 19 20  1  0  0  0
 13 14  1  0  0  0
 14 15  1  0  0  0
 15 16  1  0  0  0
 15  1  1  0  0  0
  1  2  1  0  0  0
  2  3  2  0  0  0
  3  4  1  0  0  0
  4  5  2  0  0  0
  5 22  1  0  0  0
 22 23  2  0  0  0
 22 24  1  0  0  0
 24 26  1  0  0  0
 26 27  2  0  0  0
 27 28  1  0  0  0
 28 29  2  0  0  0
 29 30  1  0  0  0
 30 31  2  0  0  0
 30 32  1  0  0  0
 32 33  1  0  0  0
 33 34  1  0  0  0
  5  6  1  0  0  0
  6  7  2  0  0  0
  7  8  1  0  0  0
  7  9  1  0  0  0
  9 10  2  0  0  0
 15 12  1  0  0  0
 10  1  1  0  0  0
 10  4  1  0  0  0
 31 26  1  0  0  0
 34 29  1  0  0  0
 20 21  1  0  0  0
 16 17  1  0  0  0
 24 25  1  0  0  0
 33 35  1  0  0  0
M  END
> <minimizedAffinity>
-8.69972

> <minimizedRMSD>
1.01936

$$$$
P25732


 33 37  0  0  0  0  0  0  0  0999 V2000
   -7.8969    4.7343  -12.8548 N   0  0  0  0  0  0  0  0  0  0  0  0
   -7.3951    3.6921  -13.8704 C   0  0  0  0  0  0  0  0  0  0  0  0
   -7.0255    2.5986  -13.7107 O   0  0  0  0  0  0  0  0  0  0  0  0
   -8.0819    5.6237  -13.2343 H   0  0  0  0  0  0  0  0  0  0  0  0
   -7.9587    5.7229  -10.6159 C   0  0  0  0  0  0  0  0  0  0  0  0
   -8.1555    5.5916   -9.2307 C   0  0  0  0  0  0  0  0  0  0  0  0
   -8.5918    4.3715   -8.7440 C   0  0  0  0  0  0  0  0  0  0  0  0
   -8.8207    3.3036   -9.5977 C   0  0  0  0  0  0  0  0  0  0  0  0
   -8.5700    3.4007  -10.9576 C   0  0  0  0  0  0  0  0  0  0  0  0
   -8.1324    4.6238  -11.4824 C   0  0  0  0  0  0  0  0  0  0  0  0
   -9.3244    2.1330   -8.8231 C   0  0  0  0  0  0  0  0  0  0  0  0
   -9.4368    2.5913   -7.4100 N   0  0  0  0  0  0  0  0  0  0  0  0
   -8.8662    3.9506   -7.3407 C   0  0  0  0  0  0  0  0  0  0  0  0
   -8.9167    1.9632   -6.7973 H   0  0  0  0  0  0  0  0  0  0  0  0
   -7.9757    8.5049  -10.0797 C   0  0  0  0  0  0  0  0  0  0  0  0
   -7.4054    7.2923  -11.2382 S   0  0  0  0  0  0  0  0  0  0  0  0
   -5.9561    7.2839  -11.1923 O   0  0  0  0  0  0  0  0  0  0  0  0
   -8.1095    7.5515  -12.4867 O   0  0  0  0  0  0  0  0  0  0  0  0
   -7.5250    4.2126  -15.2466 C   0  0  0  0  0  0  0  0  0  0  0  0
   -8.7943    4.2112  -15.8341 C   0  0  0  0  0  0  0  0  0  0  0  0
   -8.9357    4.4577  -17.1878 C   0  0  0  0  0  0  0  0  0  0  0  0
  -10.1559    4.3625  -17.7350 F   0  0  0  0  0  0  0  0  0  0  0  0
   -7.8387    4.7627  -17.9908 C   0  0  0  0  0  0  0  0  0  0  0  0
   -6.5807    4.8383  -17.3725 C   0  0  0  0  0  0  0  0  0  0  0  0
   -6.4038    4.5769  -16.0111 C   0  0  0  0  0  0  0  0  0  0  0  0
   -5.0175    4.7185  -15.8017 C   0  0  0  0  0  0  0  0  0  0  0  0
   -4.3564    5.0475  -16.9134 N   0  0  0  0  0  0  0  0  0  0  0  0
   -5.3165    5.0807  -17.8631 N   0  0  0  0  0  0  0  0  0  0  0  0
   -5.0141    5.2687  -19.2932 C   0  0  0  0  0  0  0  0  0  0  0  0
   -5.0331    6.7506  -19.7148 C   0  0  0  0  0  0  0  0  0  0  0  0
   -3.8169    6.4912  -20.5206 N   0  0  0  0  0  0  0  0  0  0  0  0
   -3.5098    5.3494  -19.6258 C   0  0  0  0  0  0  0  0  0  0  0  0
   -3.1275    7.2425  -20.4966 H   0  0  0  0  0  0  0  0  0  0  0  0
 15 16  1  0  0  0
 16 17  2  0  0  0
 16 18  2  0  0  0
 16  5  1  0  0  0
  5  6  2  0  0  0
  6  7  1  0  0  0
  7  8  2  0  0  0
  8  9  1  0  0  0
  9 10  2  0  0  0
 10  1  1  0  0  0
  1  2  1  0  0  0
  2  3  2  0  0  0
  2 19  1  0  0  0
 19 20  2  0  0  0
 20 21  1  0  0  0
 21 22  1  0  0  0
 21 23  2  0  0  0
 23 24  1  0  0  0
 24 25  2  0  0  0
 25 26  1  0  0  0
 26 27  2  0  0  0
 27 28  1  0  0  0
 28 29  1  0  0  0
 29 30  1  0  0  0
 30 31  1  0  0  0
 31 32  1  0  0  0
  8 11  1  0  0  0
 11 12  1  0  0  0
 12 13  1  0  0  0
 10  5  1  0  0  0
 25 19  1  0  0  0
 32 29  1  0  0  0
 13  7  1  0  0  0
 28 24  1  0  0  0
  1  4  1  0  0  0
 31 33  1  0  0  0
 12 14  1  0  0  0
M  END
> <minimizedAffinity>
-8.76663

> <minimizedRMSD>
0.47019

$$$$
P25741


 32 37  0  0  0  0  0  0  0  0999 V2000
   -8.2634    4.6742  -15.4623 C   0  0  0  0  0  0  0  0  0  0  0  0
   -9.0922    4.3327  -16.5660 C   0  0  0  0  0  0  0  0  0  0  0  0
   -8.5922    4.3024  -17.8969 C   0  0  0  0  0  0  0  0  0  0  0  0
   -9.4506    4.0521  -18.8950 F   0  0  0  0  0  0  0  0  0  0  0  0
   -7.2646    4.5945  -18.1450 C   0  0  0  0  0  0  0  0  0  0  0  0
   -6.5498    4.8351  -17.0079 C   0  0  0  0  0  0  0  0  0  0  0  0
   -6.9106    4.9236  -15.7123 C   0  0  0  0  0  0  0  0  0  0  0  0
   -5.6959    5.3555  -15.1047 C   0  0  0  0  0  0  0  0  0  0  0  0
   -4.6887    5.5544  -15.9930 N   0  0  0  0  0  0  0  0  0  0  0  0
   -5.2722    5.2088  -17.1409 N   0  0  0  0  0  0  0  0  0  0  0  0
   -5.0800    5.3337  -18.6005 C   0  0  0  0  0  0  0  0  0  0  0  0
   -4.6765    6.7303  -19.0877 C   0  0  0  0  0  0  0  0  0  0  0  0
   -3.2594    6.2781  -19.0690 N   0  0  0  0  0  0  0  0  0  0  0  0
   -2.5761    6.6612  -20.2959 C   0  0  0  0  0  0  0  0  0  0  0  0
   -3.7272    4.8658  -19.1106 C   0  0  0  0  0  0  0  0  0  0  0  0
   -6.3774    4.7593  -19.2130 N   0  0  0  0  0  0  0  0  0  0  0  0
   -6.5448    4.5520  -20.1607 H   0  0  0  0  0  0  0  0  0  0  0  0
   -8.1815    4.1504  -13.0181 N   0  0  0  0  0  0  0  0  0  0  0  0
   -8.7715    5.0338  -14.1334 C   0  0  0  0  0  0  0  0  0  0  0  0
   -9.4766    5.9607  -14.0706 O   0  0  0  0  0  0  0  0  0  0  0  0
   -7.6693    3.3723  -13.3365 H   0  0  0  0  0  0  0  0  0  0  0  0
   -7.2299    6.6449  -11.4022 C   0  0  0  0  0  0  0  0  0  0  0  0
   -7.8610    5.3993  -10.8509 C   0  0  0  0  0  0  0  0  0  0  0  0
   -8.0223    5.3755   -9.4468 C   0  0  0  0  0  0  0  0  0  0  0  0
   -8.5340    4.2505   -8.8349 C   0  0  0  0  0  0  0  0  0  0  0  0
   -8.8796    3.1412   -9.5806 C   0  0  0  0  0  0  0  0  0  0  0  0
   -8.7337    3.1289  -10.9580 C   0  0  0  0  0  0  0  0  0  0  0  0
   -8.2550    4.2740  -11.6186 C   0  0  0  0  0  0  0  0  0  0  0  0
   -9.3720    2.0692   -8.6730 C   0  0  0  0  0  0  0  0  0  0  0  0
   -9.4645    2.6781   -7.3198 N   0  0  0  0  0  0  0  0  0  0  0  0
   -8.7975    3.9935   -7.3925 C   0  0  0  0  0  0  0  0  0  0  0  0
   -8.9952    2.0846   -6.6357 H   0  0  0  0  0  0  0  0  0  0  0  0
 22 23  1  0  0  0
 23 24  2  0  0  0
 24 25  1  0  0  0
 25 26  2  0  0  0
 26 27  1  0  0  0
 27 28  2  0  0  0
 28 18  1  0  0  0
 18 19  1  0  0  0
 19 20  2  0  0  0
 19  1  1  0  0  0
  1  2  2  0  0  0
  2  3  1  0  0  0
  3  4  1  0  0  0
  3  5  2  0  0  0
  5  6  1  0  0  0
  6  7  2  0  0  0
  7  8  1  0  0  0
  8  9  2  0  0  0
  9 10  1  0  0  0
 10 11  1  0  0  0
 11 12  1  0  0  0
 12 13  1  0  0  0
 13 14  1  0  0  0
 13 15  1  0  0  0
 11 16  1  0  0  0
 26 29  1  0  0  0
 29 30  1  0  0  0
 30 31  1  0  0  0
 28 23  1  0  0  0
  7  1  1  0  0  0
 15 11  1  0  0  0
 31 25  1  0  0  0
 16  5  1  0  0  0
 10  6  1  0  0  0
 18 21  1  0  0  0
 16 17  1  0  0  0
 30 32  1  0  0  0
M  END
> <minimizedAffinity>
-10.48868

> <minimizedRMSD>
0.58408

$$$$
P25745


 36 41  0  0  0  0  0  0  0  0999 V2000
   -8.0392    5.2539  -13.0192 C   0  0  0  0  0  0  0  0  0  0  0  0
   -9.0053    4.6486  -14.0439 N   0  0  0  0  0  0  0  0  0  0  0  0
   -8.1634    4.5311  -15.2229 C   0  0  0  0  0  0  0  0  0  0  0  0
   -8.5391    4.3777  -16.5553 C   0  0  0  0  0  0  0  0  0  0  0  0
   -9.8153    4.1633  -16.9052 F   0  0  0  0  0  0  0  0  0  0  0  0
   -7.5903    4.5302  -17.5921 C   0  0  0  0  0  0  0  0  0  0  0  0
   -6.2389    4.7537  -17.2402 C   0  0  0  0  0  0  0  0  0  0  0  0
   -5.8223    4.7469  -15.9095 C   0  0  0  0  0  0  0  0  0  0  0  0
   -4.4373    4.9603  -15.9405 C   0  0  0  0  0  0  0  0  0  0  0  0
   -3.9813    5.1145  -17.1817 N   0  0  0  0  0  0  0  0  0  0  0  0
   -5.0923    5.0412  -17.9538 N   0  0  0  0  0  0  0  0  0  0  0  0
   -6.8053    4.6228  -14.9404 C   0  0  0  0  0  0  0  0  0  0  0  0
   -6.6583    4.8514  -13.5248 C   0  0  0  0  0  0  0  0  0  0  0  0
   -5.5851    4.8515  -12.9516 O   0  0  0  0  0  0  0  0  0  0  0  0
   -9.9520    4.4027  -13.9322 H   0  0  0  0  0  0  0  0  0  0  0  0
   -8.2663    4.8700  -11.5501 C   0  0  0  0  0  0  0  0  0  0  0  0
   -7.9930    5.8226  -10.5219 C   0  0  0  0  0  0  0  0  0  0  0  0
   -8.1288    5.5459   -9.1603 C   0  0  0  0  0  0  0  0  0  0  0  0
   -8.5616    4.2956   -8.8033 C   0  0  0  0  0  0  0  0  0  0  0  0
   -8.8102    3.3243   -9.7685 C   0  0  0  0  0  0  0  0  0  0  0  0
   -8.6550    3.5805  -11.1349 C   0  0  0  0  0  0  0  0  0  0  0  0
   -9.2197    2.0747   -9.0522 C   0  0  0  0  0  0  0  0  0  0  0  0
   -9.6065    2.5087   -7.6823 N   0  0  0  0  0  0  0  0  0  0  0  0
   -8.8495    3.7525   -7.4446 C   0  0  0  0  0  0  0  0  0  0  0  0
   -9.3519    1.7980   -6.9963 H   0  0  0  0  0  0  0  0  0  0  0  0
   -5.0833    5.4398  -19.3711 C   0  0  0  0  0  0  0  0  0  0  0  0
   -3.6855    5.7383  -19.9580 C   0  0  0  0  0  0  0  0  0  0  0  0
   -4.2487    6.9717  -20.5608 N   0  0  0  0  0  0  0  0  0  0  0  0
   -5.2970    6.9593  -19.5185 C   0  0  0  0  0  0  0  0  0  0  0  0
   -4.5985    6.8542  -21.5117 H   0  0  0  0  0  0  0  0  0  0  0  0
   -8.0331    6.8222  -13.2689 C   0  0  0  0  0  0  0  0  0  0  0  0
  -11.2375    9.0195  -13.2693 C   0  0  0  0  0  0  0  0  0  0  0  0
   -9.9157    8.6721  -12.6076 C   0  0  0  0  0  0  0  0  0  0  0  0
   -9.4782    9.2903  -11.7204 O   0  0  0  0  0  0  0  0  0  0  0  0
   -9.3266    7.4617  -13.3744 N   0  0  0  0  0  0  0  0  0  0  0  0
   -9.9304    7.0630  -14.0420 H   0  0  0  0  0  0  0  0  0  0  0  0
 32 33  1  0  0  0
 33 34  2  0  0  0
 33 35  1  0  0  0
 35 31  1  0  0  0
  1 31  1  0  0  0
  1 16  1  0  0  0
 16 17  2  0  0  0
 17 18  1  0  0  0
 18 19  2  0  0  0
 19 20  1  0  0  0
 20 21  2  0  0  0
 20 22  1  0  0  0
 22 23  1  0  0  0
 23 24  1  0  0  0
  1  2  1  0  0  0
  2  3  1  0  0  0
  3  4  2  0  0  0
  4  5  1  0  0  0
  4  6  1  0  0  0
  6  7  2  0  0  0
  7  8  1  0  0  0
  8  9  1  0  0  0
  9 10  2  0  0  0
 10 11  1  0  0  0
 11 26  1  0  0  0
 26 27  1  0  0  0
 27 28  1  0  0  0
 28 29  1  0  0  0
  8 12  2  0  0  0
 12 13  1  0  0  0
 13 14  2  0  0  0
 13  1  1  0  0  0
 21 16  1  0  0  0
 12  3  1  0  0  0
 24 19  1  0  0  0
 11  7  1  0  0  0
 29 26  1  0  0  0
 35 36  1  0  0  0
 23 25  1  0  0  0
  2 15  1  0  0  0
 28 30  1  0  0  0
M  END
> <minimizedAffinity>
-8.78429

> <minimizedRMSD>
0.19315

$$$$
P25747


 30 34  0  0  0  0  0  0  0  0999 V2000
   -3.2103    4.6987  -17.2555 C   0  0  0  0  0  0  0  0  0  0  0  0
   -4.3958    5.5414  -17.0914 N   0  0  0  0  0  0  0  0  0  0  0  0
   -5.1685    5.0948  -15.8972 C   0  0  0  0  0  0  0  0  0  0  0  0
   -6.5368    4.7701  -16.4049 C   0  0  0  0  0  0  0  0  0  0  0  0
   -7.6607    4.3515  -15.7042 C   0  0  0  0  0  0  0  0  0  0  0  0
   -8.8356    4.1345  -16.4245 C   0  0  0  0  0  0  0  0  0  0  0  0
   -8.8489    4.3221  -17.8082 C   0  0  0  0  0  0  0  0  0  0  0  0
   -9.9839    4.0729  -18.4796 F   0  0  0  0  0  0  0  0  0  0  0  0
   -7.7106    4.7376  -18.5001 C   0  0  0  0  0  0  0  0  0  0  0  0
   -6.5454    4.9618  -17.7881 C   0  0  0  0  0  0  0  0  0  0  0  0
   -5.2741    5.3312  -18.2189 N   0  0  0  0  0  0  0  0  0  0  0  0
   -7.5705    4.1441  -14.2416 C   0  0  0  0  0  0  0  0  0  0  0  0
   -6.7077    3.4223  -13.7542 O   0  0  0  0  0  0  0  0  0  0  0  0
   -8.4807    4.9100  -13.3121 C   0  0  0  0  0  0  0  0  0  0  0  0
   -9.2055    5.7933  -13.7562 O   0  0  0  0  0  0  0  0  0  0  0  0
   -8.3523    4.6939  -11.8607 C   0  0  0  0  0  0  0  0  0  0  0  0
   -7.8966    5.7751  -11.0801 C   0  0  0  0  0  0  0  0  0  0  0  0
   -7.8629    5.6741   -9.6890 C   0  0  0  0  0  0  0  0  0  0  0  0
   -8.3122    4.4983   -9.1140 C   0  0  0  0  0  0  0  0  0  0  0  0
   -8.7356    3.4195   -9.8924 C   0  0  0  0  0  0  0  0  0  0  0  0
   -8.7552    3.4898  -11.2764 C   0  0  0  0  0  0  0  0  0  0  0  0
   -9.1368    2.3021   -8.9839 C   0  0  0  0  0  0  0  0  0  0  0  0
   -9.3048    2.9301   -7.6483 N   0  0  0  0  0  0  0  0  0  0  0  0
   -8.4722    4.1503   -7.6699 C   0  0  0  0  0  0  0  0  0  0  0  0
   -8.9869    2.2961   -6.9152 H   0  0  0  0  0  0  0  0  0  0  0  0
   -4.9978    5.8705  -19.5592 C   0  0  0  0  0  0  0  0  0  0  0  0
   -4.9562    7.2997  -19.9338 N   0  0  0  0  0  0  0  0  0  0  0  0
   -3.6547    7.9363  -19.6479 C   0  0  0  0  0  0  0  0  0  0  0  0
   -4.4455    9.1696  -19.1690 C   0  0  0  0  0  0  0  0  0  0  0  0
   -5.5822    8.1606  -18.9120 C   0  0  0  0  0  0  0  0  0  0  0  0
  1  2  1  0  0  0
  2  3  1  0  0  0
  3  4  1  0  0  0
  4  5  2  0  0  0
  5 12  1  0  0  0
 12 13  2  0  0  0
 12 14  1  0  0  0
 14 15  2  0  0  0
 14 16  1  0  0  0
 16 17  2  0  0  0
 17 18  1  0  0  0
 18 19  2  0  0  0
 19 20  1  0  0  0
 20 21  2  0  0  0
 20 22  1  0  0  0
 22 23  1  0  0  0
 23 24  1  0  0  0
  5  6  1  0  0  0
  6  7  2  0  0  0
  7  8  1  0  0  0
  7  9  1  0  0  0
  9 10  2  0  0  0
 10 11  1  0  0  0
 11 26  1  0  0  0
 26 27  1  0  0  0
 27 28  1  0  0  0
 28 29  1  0  0  0
 29 30  1  0  0  0
 11  2  1  0  0  0
 30 27  1  0  0  0
 10  4  1  0  0  0
 21 16  1  0  0  0
 24 19  1  0  0  0
 23 25  1  0  0  0
M  END
> <minimizedAffinity>
-8.12971

> <minimizedRMSD>
0.58582

$$$$
P25749


 30 34  0  0  0  0  0  0  0  0999 V2000
   -3.5934    6.2956  -16.5385 C   0  0  0  0  0  0  0  0  0  0  0  0
   -4.9587    5.7143  -16.6398 C   0  0  0  0  0  0  0  0  0  0  0  0
   -5.8619    5.6048  -15.6024 C   0  0  0  0  0  0  0  0  0  0  0  0
   -7.0827    5.1039  -16.1108 C   0  0  0  0  0  0  0  0  0  0  0  0
   -8.3409    4.8393  -15.5330 C   0  0  0  0  0  0  0  0  0  0  0  0
   -9.3804    4.3408  -16.3157 C   0  0  0  0  0  0  0  0  0  0  0  0
   -9.1763    4.1314  -17.6690 C   0  0  0  0  0  0  0  0  0  0  0  0
  -10.1938    3.6822  -18.4166 F   0  0  0  0  0  0  0  0  0  0  0  0
   -7.9450    4.3828  -18.2764 C   0  0  0  0  0  0  0  0  0  0  0  0
   -6.8932    4.8663  -17.4754 C   0  0  0  0  0  0  0  0  0  0  0  0
   -5.5774    5.2021  -17.7690 N   0  0  0  0  0  0  0  0  0  0  0  0
   -5.0272    5.0623  -19.1468 C   0  0  0  0  0  0  0  0  0  0  0  0
   -3.5084    4.9587  -19.2885 C   0  0  0  0  0  0  0  0  0  0  0  0
   -3.4809    6.2031  -20.0668 N   0  0  0  0  0  0  0  0  0  0  0  0
   -4.9300    6.3904  -19.9028 C   0  0  0  0  0  0  0  0  0  0  0  0
   -3.1912    6.0742  -21.0362 H   0  0  0  0  0  0  0  0  0  0  0  0
   -8.5367    5.1359  -14.1042 C   0  0  0  0  0  0  0  0  0  0  0  0
   -9.0420    6.1952  -13.7639 O   0  0  0  0  0  0  0  0  0  0  0  0
   -8.0045    4.1496  -13.0930 C   0  0  0  0  0  0  0  0  0  0  0  0
   -7.2918    3.2526  -13.5343 O   0  0  0  0  0  0  0  0  0  0  0  0
   -8.2333    4.2754  -11.6308 C   0  0  0  0  0  0  0  0  0  0  0  0
   -7.8410    5.4034  -10.8818 C   0  0  0  0  0  0  0  0  0  0  0  0
   -7.9553    5.4154   -9.4847 C   0  0  0  0  0  0  0  0  0  0  0  0
   -8.4735    4.2974   -8.8585 C   0  0  0  0  0  0  0  0  0  0  0  0
   -8.8793    3.1898   -9.5930 C   0  0  0  0  0  0  0  0  0  0  0  0
   -8.7623    3.1574  -10.9709 C   0  0  0  0  0  0  0  0  0  0  0  0
   -9.3427    2.1219   -8.6598 C   0  0  0  0  0  0  0  0  0  0  0  0
   -9.5086    2.7971   -7.3473 N   0  0  0  0  0  0  0  0  0  0  0  0
   -8.6609    4.0068   -7.4056 C   0  0  0  0  0  0  0  0  0  0  0  0
   -9.2017    2.1846   -6.5916 H   0  0  0  0  0  0  0  0  0  0  0  0
  1  2  1  0  0  0
  2  3  2  0  0  0
  3  4  1  0  0  0
  4  5  2  0  0  0
  5 17  1  0  0  0
 17 18  2  0  0  0
 17 19  1  0  0  0
 19 20  2  0  0  0
 19 21  1  0  0  0
 21 22  2  0  0  0
 22 23  1  0  0  0
 23 24  2  0  0  0
 24 25  1  0  0  0
 25 26  2  0  0  0
 25 27  1  0  0  0
 27 28  1  0  0  0
 28 29  1  0  0  0
  5  6  1  0  0  0
  6  7  2  0  0  0
  7  8  1  0  0  0
  7  9  1  0  0  0
  9 10  2  0  0  0
 10 11  1  0  0  0
 11 12  1  0  0  0
 12 13  1  0  0  0
 13 14  1  0  0  0
 14 15  1  0  0  0
 11  2  1  0  0  0
 15 12  1  0  0  0
 10  4  1  0  0  0
 26 21  1  0  0  0
 29 24  1  0  0  0
 28 30  1  0  0  0
 14 16  1  0  0  0
M  END
> <minimizedAffinity>
-8.51926

> <minimizedRMSD>
0.59264

$$$$
P25756


 30 34  0  0  0  0  0  0  0  0999 V2000
   -5.0868    5.1451  -17.7001 N   0  0  0  0  0  0  0  0  0  0  0  0
   -4.1791    5.1503  -16.6989 N   0  0  0  0  0  0  0  0  0  0  0  0
   -4.8833    4.7875  -15.6237 C   0  0  0  0  0  0  0  0  0  0  0  0
   -6.2591    4.6444  -15.8941 C   0  0  0  0  0  0  0  0  0  0  0  0
   -7.4157    4.2727  -15.1855 C   0  0  0  0  0  0  0  0  0  0  0  0
   -8.6578    4.2691  -15.8302 C   0  0  0  0  0  0  0  0  0  0  0  0
   -8.7368    4.5333  -17.1846 C   0  0  0  0  0  0  0  0  0  0  0  0
   -9.9251    4.4347  -17.7971 F   0  0  0  0  0  0  0  0  0  0  0  0
   -7.6052    4.8543  -17.9293 C   0  0  0  0  0  0  0  0  0  0  0  0
   -6.3740    4.9186  -17.2601 C   0  0  0  0  0  0  0  0  0  0  0  0
   -5.3884    7.5831  -20.2432 C   0  0  0  0  0  0  0  0  0  0  0  0
   -4.3601    6.7956  -19.4631 C   0  0  0  0  0  0  0  0  0  0  0  0
   -4.7280    5.3297  -19.1229 C   0  0  0  0  0  0  0  0  0  0  0  0
   -3.2466    5.0455  -19.4655 C   0  0  0  0  0  0  0  0  0  0  0  0
   -3.2856    6.2492  -20.3432 N   0  0  0  0  0  0  0  0  0  0  0  0
   -2.0543    7.0199  -20.1976 C   0  0  0  0  0  0  0  0  0  0  0  0
   -7.3520    3.6991  -13.8282 C   0  0  0  0  0  0  0  0  0  0  0  0
   -7.0684    2.5736  -13.7162 O   0  0  0  0  0  0  0  0  0  0  0  0
   -7.7899    4.7299  -12.7684 N   0  0  0  0  0  0  0  0  0  0  0  0
   -7.9013    5.6475  -13.1073 H   0  0  0  0  0  0  0  0  0  0  0  0
   -8.0536    4.5741  -11.4097 C   0  0  0  0  0  0  0  0  0  0  0  0
   -7.8867    5.6710  -10.5508 C   0  0  0  0  0  0  0  0  0  0  0  0
   -8.1198    5.5380   -9.1767 C   0  0  0  0  0  0  0  0  0  0  0  0
   -8.5769    4.3208   -8.6995 C   0  0  0  0  0  0  0  0  0  0  0  0
   -8.8060    3.2574   -9.5602 C   0  0  0  0  0  0  0  0  0  0  0  0
   -8.5167    3.3526  -10.9116 C   0  0  0  0  0  0  0  0  0  0  0  0
   -9.3824    2.1089   -8.8056 C   0  0  0  0  0  0  0  0  0  0  0  0
   -9.4715    2.5466   -7.3840 N   0  0  0  0  0  0  0  0  0  0  0  0
   -8.8950    3.9051   -7.3048 C   0  0  0  0  0  0  0  0  0  0  0  0
   -8.9437    1.9084   -6.7886 H   0  0  0  0  0  0  0  0  0  0  0  0
 12 11  1  0  0  0
 12 13  1  0  0  0
 13  1  1  0  0  0
  1  2  1  0  0  0
  2  3  2  0  0  0
  3  4  1  0  0  0
  4  5  2  0  0  0
  5 17  1  0  0  0
 17 18  2  0  0  0
 17 19  1  0  0  0
 19 21  1  0  0  0
 21 22  2  0  0  0
 22 23  1  0  0  0
 23 24  2  0  0  0
 24 25  1  0  0  0
 25 26  2  0  0  0
 25 27  1  0  0  0
 27 28  1  0  0  0
 28 29  1  0  0  0
  5  6  1  0  0  0
  6  7  2  0  0  0
  7  8  1  0  0  0
  7  9  1  0  0  0
  9 10  2  0  0  0
 13 14  1  0  0  0
 14 15  1  0  0  0
 15 16  1  0  0  0
 15 12  1  0  0  0
 10  1  1  0  0  0
 10  4  1  0  0  0
 26 21  1  0  0  0
 29 24  1  0  0  0
 19 20  1  0  0  0
 28 30  1  0  0  0
M  END
> <minimizedAffinity>
-9.06335

> <minimizedRMSD>
0.23823

$$$$
P25762


 37 41  0  0  0  0  0  0  0  0999 V2000
   -7.4238    4.9726  -13.6631 C   0  0  0  0  0  0  0  0  0  0  0  0
   -7.8605    6.3226  -13.5405 O   0  0  0  0  0  0  0  0  0  0  0  0
   -7.8823    6.5715  -12.6032 H   0  0  0  0  0  0  0  0  0  0  0  0
   -7.4466    4.7458  -15.1818 C   0  0  0  0  0  0  0  0  0  0  0  0
   -8.6408    4.3820  -15.8579 C   0  0  0  0  0  0  0  0  0  0  0  0
   -8.7110    4.2677  -17.2454 C   0  0  0  0  0  0  0  0  0  0  0  0
   -9.8720    3.8998  -17.8128 F   0  0  0  0  0  0  0  0  0  0  0  0
   -7.6112    4.5338  -18.0563 C   0  0  0  0  0  0  0  0  0  0  0  0
   -6.4229    4.9111  -17.4131 C   0  0  0  0  0  0  0  0  0  0  0  0
   -6.3311    5.0285  -16.0204 C   0  0  0  0  0  0  0  0  0  0  0  0
   -5.0074    5.4811  -15.8071 C   0  0  0  0  0  0  0  0  0  0  0  0
   -4.2959    5.5695  -16.9213 N   0  0  0  0  0  0  0  0  0  0  0  0
   -5.1641    5.2349  -17.8906 N   0  0  0  0  0  0  0  0  0  0  0  0
   -4.7480    5.1685  -19.3068 C   0  0  0  0  0  0  0  0  0  0  0  0
   -3.2201    5.0511  -19.5263 C   0  0  0  0  0  0  0  0  0  0  0  0
   -3.1497    6.5159  -19.6938 N   0  0  0  0  0  0  0  0  0  0  0  0
   -4.6024    6.5547  -19.9484 C   0  0  0  0  0  0  0  0  0  0  0  0
   -2.5799    6.8181  -20.4840 H   0  0  0  0  0  0  0  0  0  0  0  0
   -5.5386    3.3193  -13.0617 N   0  0  0  0  0  0  0  0  0  0  0  0
   -5.9476    4.8193  -13.0347 C   0  0  0  0  0  0  0  0  0  0  0  0
   -5.3788    5.7545  -12.6140 O   0  0  0  0  0  0  0  0  0  0  0  0
   -6.2307    2.7095  -13.4057 H   0  0  0  0  0  0  0  0  0  0  0  0
   -4.5392    1.8379  -11.4135 C   0  0  0  0  0  0  0  0  0  0  0  0
   -4.3088    2.6756  -12.6642 C   0  0  0  0  0  0  0  0  0  0  0  0
   -3.7410    1.8616  -13.8178 C   0  0  0  0  0  0  0  0  0  0  0  0
   -8.3736    4.1041  -12.9511 N   0  0  0  0  0  0  0  0  0  0  0  0
   -8.9748    3.5034  -13.4479 H   0  0  0  0  0  0  0  0  0  0  0  0
   -8.4051    4.1498  -11.5420 C   0  0  0  0  0  0  0  0  0  0  0  0
   -8.1040    5.3182  -10.8067 C   0  0  0  0  0  0  0  0  0  0  0  0
   -8.1689    5.3577   -9.4088 C   0  0  0  0  0  0  0  0  0  0  0  0
   -8.5805    4.2212   -8.7488 C   0  0  0  0  0  0  0  0  0  0  0  0
   -8.8858    3.0629   -9.4523 C   0  0  0  0  0  0  0  0  0  0  0  0
   -8.8089    3.0092  -10.8347 C   0  0  0  0  0  0  0  0  0  0  0  0
   -9.2622    1.9963   -8.4820 C   0  0  0  0  0  0  0  0  0  0  0  0
   -9.5701    2.7158   -7.2185 N   0  0  0  0  0  0  0  0  0  0  0  0
   -8.8142    3.9860   -7.2944 C   0  0  0  0  0  0  0  0  0  0  0  0
   -9.2672    2.1680   -6.4132 H   0  0  0  0  0  0  0  0  0  0  0  0
 23 24  1  0  0  0
 24 25  1  0  0  0
 24 19  1  0  0  0
 19 20  1  0  0  0
 20 21  2  0  0  0
 20  1  1  0  0  0
  1  2  1  0  0  0
  1 26  1  0  0  0
 26 28  1  0  0  0
 28 29  2  0  0  0
 29 30  1  0  0  0
 30 31  2  0  0  0
 31 32  1  0  0  0
 32 33  2  0  0  0
 32 34  1  0  0  0
 34 35  1  0  0  0
 35 36  1  0  0  0
  1  4  1  0  0  0
  4  5  2  0  0  0
  5  6  1  0  0  0
  6  7  1  0  0  0
  6  8  2  0  0  0
  8  9  1  0  0  0
  9 10  2  0  0  0
 10 11  1  0  0  0
 11 12  2  0  0  0
 12 13  1  0  0  0
 13 14  1  0  0  0
 14 15  1  0  0  0
 15 16  1  0  0  0
 16 17  1  0  0  0
 33 28  1  0  0  0
 10  4  1  0  0  0
 17 14  1  0  0  0
 36 31  1  0  0  0
 13  9  1  0  0  0
 19 22  1  0  0  0
  2  3  1  0  0  0
 26 27  1  0  0  0
 35 37  1  0  0  0
 16 18  1  0  0  0
M  END
> <minimizedAffinity>
-8.60244

> <minimizedRMSD>
0.51873

$$$$
P25763


 41 46  0  0  0  0  0  0  0  0999 V2000
   -7.1600    4.0794  -13.5900 C   0  0  0  0  0  0  0  0  0  0  0  0
   -6.3770    5.1298  -13.0316 O   0  0  0  0  0  0  0  0  0  0  0  0
   -6.2711    4.9826  -12.0786 H   0  0  0  0  0  0  0  0  0  0  0  0
   -7.2755    4.3923  -15.0921 C   0  0  0  0  0  0  0  0  0  0  0  0
   -8.5191    4.3316  -15.7672 C   0  0  0  0  0  0  0  0  0  0  0  0
   -8.6305    4.4761  -17.1446 C   0  0  0  0  0  0  0  0  0  0  0  0
   -9.8350    4.3528  -17.7179 F   0  0  0  0  0  0  0  0  0  0  0  0
   -7.5236    4.7134  -17.9433 C   0  0  0  0  0  0  0  0  0  0  0  0
   -6.2881    4.8177  -17.2994 C   0  0  0  0  0  0  0  0  0  0  0  0
   -6.1491    4.6768  -15.9165 C   0  0  0  0  0  0  0  0  0  0  0  0
   -4.7642    4.8707  -15.6985 C   0  0  0  0  0  0  0  0  0  0  0  0
   -4.0743    5.0786  -16.8187 N   0  0  0  0  0  0  0  0  0  0  0  0
   -5.0134    5.0143  -17.7857 N   0  0  0  0  0  0  0  0  0  0  0  0
   -4.6904    5.0992  -19.2230 C   0  0  0  0  0  0  0  0  0  0  0  0
   -3.1877    4.9901  -19.5531 C   0  0  0  0  0  0  0  0  0  0  0  0
   -3.3572    6.1244  -20.4895 N   0  0  0  0  0  0  0  0  0  0  0  0
   -4.5491    6.5478  -19.7169 C   0  0  0  0  0  0  0  0  0  0  0  0
   -3.5557    5.8493  -21.4514 H   0  0  0  0  0  0  0  0  0  0  0  0
   -7.0542    1.6129  -13.5959 O   0  0  0  0  0  0  0  0  0  0  0  0
   -6.4759    2.6137  -13.4167 C   0  0  0  0  0  0  0  0  0  0  0  0
   -5.0187    2.8624  -12.9340 N   0  0  0  0  0  0  0  0  0  0  0  0
   -4.7885    3.8084  -12.7877 H   0  0  0  0  0  0  0  0  0  0  0  0
   -3.9532    1.9350  -12.6667 C   0  0  0  0  0  0  0  0  0  0  0  0
   -2.7352    2.6228  -12.1342 C   0  0  0  0  0  0  0  0  0  0  0  0
   -2.1162    3.6676  -12.8286 C   0  0  0  0  0  0  0  0  0  0  0  0
   -0.9882    4.2816  -12.2934 C   0  0  0  0  0  0  0  0  0  0  0  0
   -0.5125    3.8282  -11.0750 C   0  0  0  0  0  0  0  0  0  0  0  0
   -1.0771    2.8210  -10.3765 N   0  0  0  0  0  0  0  0  0  0  0  0
   -2.1684    2.2348  -10.9240 C   0  0  0  0  0  0  0  0  0  0  0  0
   -8.4904    4.0778  -12.9408 N   0  0  0  0  0  0  0  0  0  0  0  0
   -9.3220    4.0508  -13.4670 H   0  0  0  0  0  0  0  0  0  0  0  0
   -8.5075    4.1169  -11.5259 C   0  0  0  0  0  0  0  0  0  0  0  0
   -8.0993    5.2800  -10.8374 C   0  0  0  0  0  0  0  0  0  0  0  0
   -8.0803    5.3322   -9.4401 C   0  0  0  0  0  0  0  0  0  0  0  0
   -8.5091    4.2186   -8.7423 C   0  0  0  0  0  0  0  0  0  0  0  0
   -8.9267    3.0754   -9.4084 C   0  0  0  0  0  0  0  0  0  0  0  0
   -8.9112    2.9975  -10.7902 C   0  0  0  0  0  0  0  0  0  0  0  0
   -9.3671    2.0485   -8.4245 C   0  0  0  0  0  0  0  0  0  0  0  0
   -9.3172    2.7076   -7.0911 N   0  0  0  0  0  0  0  0  0  0  0  0
   -8.6449    4.0114   -7.2736 C   0  0  0  0  0  0  0  0  0  0  0  0
   -8.7897    2.1310   -6.4357 H   0  0  0  0  0  0  0  0  0  0  0  0
 19 20  2  0  0  0
 20 21  1  0  0  0
 21 23  1  0  0  0
 23 24  1  0  0  0
 24 25  2  0  0  0
 25 26  1  0  0  0
 26 27  2  0  0  0
 27 28  1  0  0  0
 28 29  2  0  0  0
 20  1  1  0  0  0
  1  2  1  0  0  0
  1 30  1  0  0  0
 30 32  1  0  0  0
 32 33  2  0  0  0
 33 34  1  0  0  0
 34 35  2  0  0  0
 35 36  1  0  0  0
 36 37  2  0  0  0
 36 38  1  0  0  0
 38 39  1  0  0  0
 39 40  1  0  0  0
  1  4  1  0  0  0
  4  5  2  0  0  0
  5  6  1  0  0  0
  6  7  1  0  0  0
  6  8  2  0  0  0
  8  9  1  0  0  0
  9 10  2  0  0  0
 10 11  1  0  0  0
 11 12  2  0  0  0
 12 13  1  0  0  0
 13 14  1  0  0  0
 14 15  1  0  0  0
 15 16  1  0  0  0
 16 17  1  0  0  0
 29 24  1  0  0  0
 37 32  1  0  0  0
 10  4  1  0  0  0
 17 14  1  0  0  0
 40 35  1  0  0  0
 13  9  1  0  0  0
 21 22  1  0  0  0
  2  3  1  0  0  0
 30 31  1  0  0  0
 39 41  1  0  0  0
 16 18  1  0  0  0
M  END
> <minimizedAffinity>
-9.46159

> <minimizedRMSD>
0.30273

$$$$
P25766


 36 41  0  0  0  0  0  0  0  0999 V2000
   -8.2130    4.8939  -15.3840 C   0  0  0  0  0  0  0  0  0  0  0  0
   -9.2649    4.3923  -16.1496 C   0  0  0  0  0  0  0  0  0  0  0  0
   -9.0864    4.1737  -17.5173 C   0  0  0  0  0  0  0  0  0  0  0  0
  -10.1189    3.7163  -18.2403 F   0  0  0  0  0  0  0  0  0  0  0  0
   -7.8744    4.4463  -18.1443 C   0  0  0  0  0  0  0  0  0  0  0  0
   -6.8306    4.9152  -17.3663 C   0  0  0  0  0  0  0  0  0  0  0  0
   -6.9862    5.1188  -15.9943 C   0  0  0  0  0  0  0  0  0  0  0  0
   -5.6673    5.5917  -15.4431 C   0  0  0  0  0  0  0  0  0  0  0  0
   -5.1828    4.8657  -14.1616 C   0  0  0  0  0  0  0  0  0  0  0  0
   -5.0675    5.9258  -13.1415 N   0  0  0  0  0  0  0  0  0  0  0  0
   -4.7765    7.1039  -13.9414 C   0  0  0  0  0  0  0  0  0  0  0  0
   -5.6741    7.0123  -15.0761 N   0  0  0  0  0  0  0  0  0  0  0  0
   -4.7115    5.4139  -16.5750 N   0  0  0  0  0  0  0  0  0  0  0  0
   -5.5258    5.2722  -17.7525 N   0  0  0  0  0  0  0  0  0  0  0  0
   -4.3095    5.7277  -12.4884 H   0  0  0  0  0  0  0  0  0  0  0  0
   -5.3359    7.5852  -15.8493 H   0  0  0  0  0  0  0  0  0  0  0  0
   -4.1432    4.5789  -16.4329 H   0  0  0  0  0  0  0  0  0  0  0  0
   -4.9264    5.0500  -19.0305 C   0  0  0  0  0  0  0  0  0  0  0  0
   -3.3925    4.9156  -19.0156 C   0  0  0  0  0  0  0  0  0  0  0  0
   -3.3179    5.8008  -20.1965 N   0  0  0  0  0  0  0  0  0  0  0  0
   -4.6535    6.3354  -19.8203 C   0  0  0  0  0  0  0  0  0  0  0  0
   -3.2947    5.3115  -21.0912 H   0  0  0  0  0  0  0  0  0  0  0  0
   -8.5789    6.4768  -13.8075 O   0  0  0  0  0  0  0  0  0  0  0  0
   -8.4250    5.3340  -13.9897 C   0  0  0  0  0  0  0  0  0  0  0  0
   -8.3659    4.1615  -12.9903 N   0  0  0  0  0  0  0  0  0  0  0  0
   -8.3024    3.2704  -13.4039 H   0  0  0  0  0  0  0  0  0  0  0  0
   -8.3878    4.1577  -11.5981 C   0  0  0  0  0  0  0  0  0  0  0  0
   -7.9251    5.2667  -10.8660 C   0  0  0  0  0  0  0  0  0  0  0  0
   -7.9659    5.2747   -9.4680 C   0  0  0  0  0  0  0  0  0  0  0  0
   -8.4794    4.1642   -8.8279 C   0  0  0  0  0  0  0  0  0  0  0  0
   -8.9139    3.0570   -9.5508 C   0  0  0  0  0  0  0  0  0  0  0  0
   -8.8752    3.0329  -10.9344 C   0  0  0  0  0  0  0  0  0  0  0  0
   -9.3490    1.9970   -8.5960 C   0  0  0  0  0  0  0  0  0  0  0  0
   -9.5335    2.6980   -7.2989 N   0  0  0  0  0  0  0  0  0  0  0  0
   -8.6718    3.8987   -7.3717 C   0  0  0  0  0  0  0  0  0  0  0  0
   -9.2449    2.0987   -6.5257 H   0  0  0  0  0  0  0  0  0  0  0  0
 23 24  2  0  0  0
 24 25  1  0  0  0
 25 27  1  0  0  0
 27 28  2  0  0  0
 28 29  1  0  0  0
 29 30  2  0  0  0
 30 31  1  0  0  0
 31 32  2  0  0  0
 31 33  1  0  0  0
 33 34  1  0  0  0
 34 35  1  0  0  0
 24  1  1  0  0  0
  1  2  2  0  0  0
  2  3  1  0  0  0
  3  4  1  0  0  0
  3  5  2  0  0  0
  5  6  1  0  0  0
  6  7  2  0  0  0
  7  8  1  0  0  0
  8  9  1  0  0  0
  9 10  1  0  0  0
 10 11  1  0  0  0
 11 12  1  0  0  0
  8 13  1  0  0  0
 13 14  1  0  0  0
 14 18  1  0  0  0
 18 19  1  0  0  0
 19 20  1  0  0  0
 20 21  1  0  0  0
 32 27  1  0  0  0
  7  1  1  0  0  0
 12  8  1  0  0  0
 21 18  1  0  0  0
 35 30  1  0  0  0
 14  6  1  0  0  0
 25 26  1  0  0  0
 34 36  1  0  0  0
 10 15  1  0  0  0
 12 16  1  0  0  0
 13 17  1  0  0  0
 20 22  1  0  0  0
M  END
> <minimizedAffinity>
-9.19548

> <minimizedRMSD>
0.60552

$$$$
P25768


 36 42  0  0  0  0  0  0  0  0999 V2000
   -8.3361    4.7126  -15.5404 C   0  0  0  0  0  0  0  0  0  0  0  0
   -9.2125    4.4263  -16.5802 C   0  0  0  0  0  0  0  0  0  0  0  0
   -8.7158    4.3348  -17.8795 C   0  0  0  0  0  0  0  0  0  0  0  0
   -9.5710    4.0712  -18.8780 F   0  0  0  0  0  0  0  0  0  0  0  0
   -7.3617    4.5347  -18.1594 C   0  0  0  0  0  0  0  0  0  0  0  0
   -6.4880    4.7949  -17.1115 C   0  0  0  0  0  0  0  0  0  0  0  0
   -6.9796    4.8450  -15.8149 C   0  0  0  0  0  0  0  0  0  0  0  0
   -5.8623    5.0327  -14.8478 C   0  0  0  0  0  0  0  0  0  0  0  0
   -4.6632    5.3793  -15.7793 C   0  0  0  0  0  0  0  0  0  0  0  0
   -3.4284    4.5130  -15.4189 C   0  0  0  0  0  0  0  0  0  0  0  0
   -2.4269    5.2101  -14.4939 C   0  0  0  0  0  0  0  0  0  0  0  0
   -3.1003    6.1776  -13.5322 C   0  0  0  0  0  0  0  0  0  0  0  0
   -3.8583    7.2962  -14.2550 C   0  0  0  0  0  0  0  0  0  0  0  0
   -4.3472    6.9049  -15.6618 C   0  0  0  0  0  0  0  0  0  0  0  0
   -3.3347    7.3600  -16.5713 O   0  0  0  0  0  0  0  0  0  0  0  0
   -3.4481    6.8459  -17.8831 C   0  0  0  0  0  0  0  0  0  0  0  0
   -2.2948    6.0075  -18.1715 N   0  0  0  0  0  0  0  0  0  0  0  0
   -2.6645    5.2424  -19.3454 C   0  0  0  0  0  0  0  0  0  0  0  0
   -4.1904    5.2400  -19.4304 C   0  0  0  0  0  0  0  0  0  0  0  0
   -4.6924    5.9908  -18.2243 C   0  0  0  0  0  0  0  0  0  0  0  0
   -5.0991    5.0368  -17.1732 N   0  0  0  0  0  0  0  0  0  0  0  0
   -2.0992    5.3862  -17.3866 H   0  0  0  0  0  0  0  0  0  0  0  0
   -9.4584    6.0231  -14.0744 O   0  0  0  0  0  0  0  0  0  0  0  0
   -8.8184    5.0537  -14.1864 C   0  0  0  0  0  0  0  0  0  0  0  0
   -8.2882    4.0782  -13.1188 N   0  0  0  0  0  0  0  0  0  0  0  0
   -7.8312    3.2834  -13.4775 H   0  0  0  0  0  0  0  0  0  0  0  0
   -8.3497    4.1374  -11.7298 C   0  0  0  0  0  0  0  0  0  0  0  0
   -7.9329    5.2944  -11.0482 C   0  0  0  0  0  0  0  0  0  0  0  0
   -7.9859    5.3649   -9.6547 C   0  0  0  0  0  0  0  0  0  0  0  0
   -8.4726    4.2709   -8.9667 C   0  0  0  0  0  0  0  0  0  0  0  0
   -8.8837    3.1266   -9.6379 C   0  0  0  0  0  0  0  0  0  0  0  0
   -8.8183    3.0345  -11.0189 C   0  0  0  0  0  0  0  0  0  0  0  0
   -9.3537    2.1154   -8.6497 C   0  0  0  0  0  0  0  0  0  0  0  0
   -9.3525    2.7935   -7.3247 N   0  0  0  0  0  0  0  0  0  0  0  0
   -8.6585    4.0859   -7.5008 C   0  0  0  0  0  0  0  0  0  0  0  0
   -8.8592    2.2216   -6.6391 H   0  0  0  0  0  0  0  0  0  0  0  0
 23 24  2  0  0  0
 24 25  1  0  0  0
 25 27  1  0  0  0
 27 28  2  0  0  0
 28 29  1  0  0  0
 29 30  2  0  0  0
 30 31  1  0  0  0
 31 32  2  0  0  0
 31 33  1  0  0  0
 33 34  1  0  0  0
 34 35  1  0  0  0
 24  1  1  0  0  0
  1  2  2  0  0  0
  2  3  1  0  0  0
  3  4  1  0  0  0
  3  5  2  0  0  0
  5  6  1  0  0  0
  6  7  2  0  0  0
  7  8  1  0  0  0
  9  8  1  0  0  0
  9 10  1  0  0  0
 10 11  1  0  0  0
 11 12  1  0  0  0
 12 13  1  0  0  0
 14 13  1  0  0  0
 14 15  1  0  0  0
 15 16  1  0  0  0
 16 17  1  0  0  0
 17 18  1  0  0  0
 18 19  1  0  0  0
 20 19  1  0  0  0
 20 21  1  0  0  0
 32 27  1  0  0  0
  7  1  1  0  0  0
 14  9  1  0  0  0
 20 16  1  0  0  0
 35 30  1  0  0  0
 21  6  1  0  0  0
 21  9  1  0  0  0
 25 26  1  0  0  0
 34 36  1  0  0  0
 17 22  1  0  0  0
M  END
> <minimizedAffinity>
-10.75763

> <minimizedRMSD>
1.11257

$$$$
P25774


 40 44  0  0  0  0  0  0  0  0999 V2000
   -7.2463    3.8992  -13.2549 C   0  0  0  0  0  0  0  0  0  0  0  0
   -6.5856    5.0265  -12.7069 O   0  0  0  0  0  0  0  0  0  0  0  0
   -7.0622    5.8336  -12.9566 H   0  0  0  0  0  0  0  0  0  0  0  0
   -4.6787    4.5031  -15.3186 C   0  0  0  0  0  0  0  0  0  0  0  0
   -4.0120    4.9549  -16.3821 N   0  0  0  0  0  0  0  0  0  0  0  0
   -4.9598    5.2469  -17.2813 N   0  0  0  0  0  0  0  0  0  0  0  0
   -6.2297    4.8862  -16.8809 C   0  0  0  0  0  0  0  0  0  0  0  0
   -7.4642    4.8772  -17.5469 C   0  0  0  0  0  0  0  0  0  0  0  0
   -8.5864    4.5325  -16.8162 C   0  0  0  0  0  0  0  0  0  0  0  0
   -9.7844    4.5122  -17.4164 F   0  0  0  0  0  0  0  0  0  0  0  0
   -8.5026    4.2402  -15.4656 C   0  0  0  0  0  0  0  0  0  0  0  0
   -7.2703    4.1942  -14.7651 C   0  0  0  0  0  0  0  0  0  0  0  0
   -6.0980    4.4926  -15.5376 C   0  0  0  0  0  0  0  0  0  0  0  0
   -4.5373    5.9872  -18.4758 C   0  0  0  0  0  0  0  0  0  0  0  0
   -4.7208    5.2675  -19.7988 C   0  0  0  0  0  0  0  0  0  0  0  0
   -5.2155    6.5432  -20.3747 N   0  0  0  0  0  0  0  0  0  0  0  0
   -5.5160    7.0270  -19.0125 C   0  0  0  0  0  0  0  0  0  0  0  0
   -6.0355    6.4418  -20.9729 H   0  0  0  0  0  0  0  0  0  0  0  0
   -3.1082    5.2102  -13.4825 C   0  0  0  0  0  0  0  0  0  0  0  0
   -3.8536    4.0648  -14.1519 C   0  0  0  0  0  0  0  0  0  0  0  0
   -6.5690    2.4559  -12.9267 C   0  0  0  0  0  0  0  0  0  0  0  0
   -6.7922    1.4723  -13.5205 O   0  0  0  0  0  0  0  0  0  0  0  0
   -5.7022    2.6911  -11.6526 N   0  0  0  0  0  0  0  0  0  0  0  0
   -5.6080    3.6341  -11.3861 H   0  0  0  0  0  0  0  0  0  0  0  0
   -5.0134    1.7480  -10.7980 C   0  0  0  0  0  0  0  0  0  0  0  0
   -3.5114    1.6639  -11.0327 C   0  0  0  0  0  0  0  0  0  0  0  0
   -2.9861    2.9233  -11.0853 F   0  0  0  0  0  0  0  0  0  0  0  0
   -2.9225    1.0698   -9.9610 F   0  0  0  0  0  0  0  0  0  0  0  0
   -8.6091    3.9311  -12.6592 N   0  0  0  0  0  0  0  0  0  0  0  0
   -9.4304    3.9133  -13.2017 H   0  0  0  0  0  0  0  0  0  0  0  0
   -8.6229    3.9898  -11.2339 C   0  0  0  0  0  0  0  0  0  0  0  0
   -8.1473    5.1296  -10.5468 C   0  0  0  0  0  0  0  0  0  0  0  0
   -8.0948    5.1754   -9.1501 C   0  0  0  0  0  0  0  0  0  0  0  0
   -8.5418    4.0750   -8.4472 C   0  0  0  0  0  0  0  0  0  0  0  0
   -9.0135    2.9491   -9.1079 C   0  0  0  0  0  0  0  0  0  0  0  0
   -9.0564    2.8838  -10.4904 C   0  0  0  0  0  0  0  0  0  0  0  0
   -9.4032    1.9141   -8.1114 C   0  0  0  0  0  0  0  0  0  0  0  0
   -9.3646    2.5898   -6.7875 N   0  0  0  0  0  0  0  0  0  0  0  0
   -8.6385    3.8628   -6.9759 C   0  0  0  0  0  0  0  0  0  0  0  0
   -8.8765    2.0048   -6.1093 H   0  0  0  0  0  0  0  0  0  0  0  0
 19 20  1  0  0  0
 20  4  1  0  0  0
  4  5  2  0  0  0
  5  6  1  0  0  0
  6 14  1  0  0  0
 14 15  1  0  0  0
 15 16  1  0  0  0
 16 17  1  0  0  0
  6  7  1  0  0  0
  7  8  2  0  0  0
  8  9  1  0  0  0
  9 10  1  0  0  0
  9 11  2  0  0  0
 11 12  1  0  0  0
 12  1  1  0  0  0
  1  2  1  0  0  0
  1 29  1  0  0  0
 29 31  1  0  0  0
 31 32  2  0  0  0
 32 33  1  0  0  0
 33 34  2  0  0  0
 34 35  1  0  0  0
 35 36  2  0  0  0
 35 37  1  0  0  0
 37 38  1  0  0  0
 38 39  1  0  0  0
  1 21  1  0  0  0
 21 22  2  0  0  0
 21 23  1  0  0  0
 23 25  1  0  0  0
 25 26  1  0  0  0
 26 27  1  0  0  0
 26 28  1  0  0  0
 12 13  2  0  0  0
 13  4  1  0  0  0
 17 14  1  0  0  0
 13  7  1  0  0  0
 36 31  1  0  0  0
 39 34  1  0  0  0
 16 18  1  0  0  0
  2  3  1  0  0  0
 29 30  1  0  0  0
 38 40  1  0  0  0
 23 24  1  0  0  0
M  END
> <minimizedAffinity>
-8.70107

> <minimizedRMSD>
0.42524

$$$$
P25777


 31 35  0  0  0  0  0  0  0  0999 V2000
   -8.2438    4.8718  -15.4101 C   0  0  0  0  0  0  0  0  0  0  0  0
   -9.2908    4.2825  -16.1234 C   0  0  0  0  0  0  0  0  0  0  0  0
   -9.1361    4.0287  -17.4804 C   0  0  0  0  0  0  0  0  0  0  0  0
  -10.1620    3.5233  -18.1710 F   0  0  0  0  0  0  0  0  0  0  0  0
   -7.9559    4.2981  -18.1699 C   0  0  0  0  0  0  0  0  0  0  0  0
   -6.9042    4.8623  -17.4464 C   0  0  0  0  0  0  0  0  0  0  0  0
   -7.0199    5.1804  -16.0655 C   0  0  0  0  0  0  0  0  0  0  0  0
   -5.8016    5.8364  -15.6111 C   0  0  0  0  0  0  0  0  0  0  0  0
   -4.9803    5.9218  -16.6674 N   0  0  0  0  0  0  0  0  0  0  0  0
   -3.8830    6.5157  -16.7811 O   0  0  0  0  0  0  0  0  0  0  0  0
   -5.6237    5.2571  -17.7981 N   0  0  0  0  0  0  0  0  0  0  0  0
   -4.9954    4.9310  -19.0920 C   0  0  0  0  0  0  0  0  0  0  0  0
   -3.4678    4.6840  -19.0543 C   0  0  0  0  0  0  0  0  0  0  0  0
   -3.3926    5.3833  -20.3621 N   0  0  0  0  0  0  0  0  0  0  0  0
   -4.6223    6.1418  -19.9630 C   0  0  0  0  0  0  0  0  0  0  0  0
   -3.5125    4.7780  -21.1743 H   0  0  0  0  0  0  0  0  0  0  0  0
   -8.2510    4.2570  -12.9534 N   0  0  0  0  0  0  0  0  0  0  0  0
   -8.4427    5.3596  -14.0223 C   0  0  0  0  0  0  0  0  0  0  0  0
   -8.6969    6.4940  -13.9033 O   0  0  0  0  0  0  0  0  0  0  0  0
   -8.1159    3.3514  -13.3150 H   0  0  0  0  0  0  0  0  0  0  0  0
   -9.1075    2.1415   -8.5538 C   0  0  0  0  0  0  0  0  0  0  0  0
   -8.6550    3.3099   -9.3733 C   0  0  0  0  0  0  0  0  0  0  0  0
   -8.6970    3.2599  -10.7828 C   0  0  0  0  0  0  0  0  0  0  0  0
   -8.2386    4.3378  -11.5591 C   0  0  0  0  0  0  0  0  0  0  0  0
   -7.7369    5.4812  -10.9327 C   0  0  0  0  0  0  0  0  0  0  0  0
   -7.6966    5.5226   -9.5496 C   0  0  0  0  0  0  0  0  0  0  0  0
   -8.1402    4.4551   -8.7801 C   0  0  0  0  0  0  0  0  0  0  0  0
   -7.9140    4.7726   -7.3388 C   0  0  0  0  0  0  0  0  0  0  0  0
   -7.5569    6.2156   -7.2823 N   0  0  0  0  0  0  0  0  0  0  0  0
   -7.1653    6.5965   -8.6639 C   0  0  0  0  0  0  0  0  0  0  0  0
   -6.7782    6.3629   -6.6402 H   0  0  0  0  0  0  0  0  0  0  0  0
 21 22  1  0  0  0
 22 23  2  0  0  0
 23 24  1  0  0  0
 24 17  1  0  0  0
 17 18  1  0  0  0
 18 19  2  0  0  0
 18  1  1  0  0  0
  1  2  2  0  0  0
  2  3  1  0  0  0
  3  4  1  0  0  0
  3  5  2  0  0  0
  5  6  1  0  0  0
  6  7  2  0  0  0
  7  8  1  0  0  0
  8  9  2  0  0  0
  9 10  1  0  0  0
  9 11  1  0  0  0
 11 12  1  0  0  0
 12 13  1  0  0  0
 13 14  1  0  0  0
 14 15  1  0  0  0
 24 25  2  0  0  0
 25 26  1  0  0  0
 26 27  2  0  0  0
 27 28  1  0  0  0
 28 29  1  0  0  0
 29 30  1  0  0  0
 27 22  1  0  0  0
  7  1  1  0  0  0
 15 12  1  0  0  0
 30 26  1  0  0  0
 11  6  1  0  0  0
 17 20  1  0  0  0
 14 16  1  0  0  0
 29 31  1  0  0  0
M  CHG 1   9   1
M  CHG 1  10  -1
M  END
> <minimizedAffinity>
-8.42869

> <minimizedRMSD>
0.59453

$$$$
P25779


 32 36  0  0  0  0  0  0  0  0999 V2000
   -5.3194    5.0258  -18.0228 N   0  0  0  0  0  0  0  0  0  0  0  0
   -4.3619    5.1162  -17.0669 N   0  0  0  0  0  0  0  0  0  0  0  0
   -4.9973    4.8020  -15.9392 C   0  0  0  0  0  0  0  0  0  0  0  0
   -6.3813    4.6357  -16.1250 C   0  0  0  0  0  0  0  0  0  0  0  0
   -7.4820    4.3107  -15.3130 C   0  0  0  0  0  0  0  0  0  0  0  0
   -8.7654    4.2532  -15.8659 C   0  0  0  0  0  0  0  0  0  0  0  0
   -8.9281    4.4218  -17.2277 C   0  0  0  0  0  0  0  0  0  0  0  0
  -10.1365    4.2939  -17.7815 F   0  0  0  0  0  0  0  0  0  0  0  0
   -7.8548    4.6992  -18.0629 C   0  0  0  0  0  0  0  0  0  0  0  0
   -6.5803    4.8188  -17.4963 C   0  0  0  0  0  0  0  0  0  0  0  0
   -5.8042    4.4537  -20.4948 N   0  0  0  0  0  0  0  0  0  0  0  0
   -4.9878    5.1485  -19.4702 C   0  0  0  0  0  0  0  0  0  0  0  0
   -3.4824    4.9234  -19.7983 C   0  0  0  0  0  0  0  0  0  0  0  0
   -3.5722    6.0587  -20.7633 N   0  0  0  0  0  0  0  0  0  0  0  0
   -4.6989    6.5950  -19.9387 C   0  0  0  0  0  0  0  0  0  0  0  0
   -5.9957    3.5001  -20.1877 H   0  0  0  0  0  0  0  0  0  0  0  0
   -5.2941    4.4306  -21.3778 H   0  0  0  0  0  0  0  0  0  0  0  0
   -3.8317    5.7894  -21.7123 H   0  0  0  0  0  0  0  0  0  0  0  0
   -7.2728    3.8280  -13.9346 C   0  0  0  0  0  0  0  0  0  0  0  0
   -6.5334    2.9435  -13.7679 O   0  0  0  0  0  0  0  0  0  0  0  0
   -8.1916    4.5608  -12.9414 N   0  0  0  0  0  0  0  0  0  0  0  0
   -8.7844    5.2336  -13.3477 H   0  0  0  0  0  0  0  0  0  0  0  0
   -8.3208    4.4275  -11.5644 C   0  0  0  0  0  0  0  0  0  0  0  0
   -8.5557    3.1536  -11.0141 C   0  0  0  0  0  0  0  0  0  0  0  0
   -8.6959    2.9832   -9.6369 C   0  0  0  0  0  0  0  0  0  0  0  0
   -8.5441    4.0956   -8.8326 C   0  0  0  0  0  0  0  0  0  0  0  0
   -8.2932    5.3551   -9.3739 C   0  0  0  0  0  0  0  0  0  0  0  0
   -8.2174    5.5498  -10.7440 C   0  0  0  0  0  0  0  0  0  0  0  0
   -8.1370    6.3417   -8.2657 C   0  0  0  0  0  0  0  0  0  0  0  0
   -8.0553    5.5340   -7.0152 N   0  0  0  0  0  0  0  0  0  0  0  0
   -8.6213    4.1981   -7.3506 C   0  0  0  0  0  0  0  0  0  0  0  0
   -8.6001    5.9735   -6.2733 H   0  0  0  0  0  0  0  0  0  0  0  0
 11 12  1  0  0  0
 12  1  1  0  0  0
  1  2  1  0  0  0
  2  3  2  0  0  0
  3  4  1  0  0  0
  4  5  2  0  0  0
  5 19  1  0  0  0
 19 20  2  0  0  0
 19 21  1  0  0  0
 21 23  1  0  0  0
 23 24  2  0  0  0
 24 25  1  0  0  0
 25 26  2  0  0  0
 26 27  1  0  0  0
 27 28  2  0  0  0
 27 29  1  0  0  0
 29 30  1  0  0  0
 30 31  1  0  0  0
  5  6  1  0  0  0
  6  7  2  0  0  0
  7  8  1  0  0  0
  7  9  1  0  0  0
  9 10  2  0  0  0
 12 13  1  0  0  0
 13 14  1  0  0  0
 14 15  1  0  0  0
 15 12  1  0  0  0
 10  1  1  0  0  0
 10  4  1  0  0  0
 28 23  1  0  0  0
 31 26  1  0  0  0
 11 16  1  0  0  0
 11 17  1  0  0  0
 21 22  1  0  0  0
 30 32  1  0  0  0
 14 18  1  0  0  0
M  END
> <minimizedAffinity>
-9.17992

> <minimizedRMSD>
0.44368

$$$$
P25780


 31 35  0  0  0  0  0  0  0  0999 V2000
   -8.1785    4.6332  -15.6086 C   0  0  0  0  0  0  0  0  0  0  0  0
   -9.1855    4.3249  -16.5197 C   0  0  0  0  0  0  0  0  0  0  0  0
   -8.8705    4.2197  -17.8677 C   0  0  0  0  0  0  0  0  0  0  0  0
   -9.8538    3.9424  -18.7375 F   0  0  0  0  0  0  0  0  0  0  0  0
   -7.5767    4.4551  -18.3556 C   0  0  0  0  0  0  0  0  0  0  0  0
   -6.5575    4.7170  -17.4271 C   0  0  0  0  0  0  0  0  0  0  0  0
   -6.8289    4.7401  -16.0274 C   0  0  0  0  0  0  0  0  0  0  0  0
   -5.5985    4.9079  -15.2695 C   0  0  0  0  0  0  0  0  0  0  0  0
   -4.6105    5.0004  -16.1627 N   0  0  0  0  0  0  0  0  0  0  0  0
   -3.3736    5.1305  -16.0020 O   0  0  0  0  0  0  0  0  0  0  0  0
   -5.2032    5.0249  -17.5045 N   0  0  0  0  0  0  0  0  0  0  0  0
   -4.5277    5.8766  -18.4978 C   0  0  0  0  0  0  0  0  0  0  0  0
   -4.1527    5.1354  -19.8042 C   0  0  0  0  0  0  0  0  0  0  0  0
   -4.3467    6.4461  -20.4812 N   0  0  0  0  0  0  0  0  0  0  0  0
   -5.3441    6.7617  -19.4234 C   0  0  0  0  0  0  0  0  0  0  0  0
   -4.7300    6.3863  -21.4246 H   0  0  0  0  0  0  0  0  0  0  0  0
   -8.1413    4.0760  -13.1443 N   0  0  0  0  0  0  0  0  0  0  0  0
   -8.4900    5.1011  -14.2423 C   0  0  0  0  0  0  0  0  0  0  0  0
   -8.8826    6.1977  -14.1572 O   0  0  0  0  0  0  0  0  0  0  0  0
   -7.7530    3.2339  -13.4750 H   0  0  0  0  0  0  0  0  0  0  0  0
   -8.7748    3.9383   -6.6326 O   0  0  0  0  0  0  0  0  0  0  0  0
   -8.5226    4.6474   -7.5842 C   0  0  0  0  0  0  0  0  0  0  0  0
   -8.2678    6.0037   -7.5279 N   0  0  0  0  0  0  0  0  0  0  0  0
   -8.0840    6.5982   -8.8271 C   0  0  0  0  0  0  0  0  0  0  0  0
   -8.2090    5.4239   -9.7346 C   0  0  0  0  0  0  0  0  0  0  0  0
   -8.1181    5.3786  -11.1133 C   0  0  0  0  0  0  0  0  0  0  0  0
   -8.2865    4.1474  -11.7598 C   0  0  0  0  0  0  0  0  0  0  0  0
   -8.5475    2.9853  -11.0134 C   0  0  0  0  0  0  0  0  0  0  0  0
   -8.6374    3.0358   -9.6134 C   0  0  0  0  0  0  0  0  0  0  0  0
   -8.4628    4.2641   -9.0044 C   0  0  0  0  0  0  0  0  0  0  0  0
   -8.2171    6.5120   -6.6862 H   0  0  0  0  0  0  0  0  0  0  0  0
 21 22  2  0  0  0
 22 23  1  0  0  0
 23 24  1  0  0  0
 24 25  1  0  0  0
 25 26  2  0  0  0
 26 27  1  0  0  0
 27 17  1  0  0  0
 17 18  1  0  0  0
 18 19  2  0  0  0
 18  1  1  0  0  0
  1  2  2  0  0  0
  2  3  1  0  0  0
  3  4  1  0  0  0
  3  5  2  0  0  0
  5  6  1  0  0  0
  6  7  2  0  0  0
  7  8  1  0  0  0
  8  9  2  0  0  0
  9 10  1  0  0  0
  9 11  1  0  0  0
 11 12  1  0  0  0
 12 13  1  0  0  0
 13 14  1  0  0  0
 14 15  1  0  0  0
 27 28  2  0  0  0
 28 29  1  0  0  0
 29 30  2  0  0  0
 30 22  1  0  0  0
 30 25  1  0  0  0
  7  1  1  0  0  0
 15 12  1  0  0  0
 11  6  1  0  0  0
 23 31  1  0  0  0
 17 20  1  0  0  0
 14 16  1  0  0  0
M  CHG 1   9   1
M  CHG 1  10  -1
M  END
> <minimizedAffinity>
-8.84748

> <minimizedRMSD>
0.61245

$$$$
P25794


 29 33  0  0  0  0  0  0  0  0999 V2000
   -4.9161    5.1809  -17.0811 N   0  0  0  0  0  0  0  0  0  0  0  0
   -4.5524    5.5859  -15.8479 N   0  0  0  0  0  0  0  0  0  0  0  0
   -5.6814    5.5175  -15.1418 C   0  0  0  0  0  0  0  0  0  0  0  0
   -6.7829    5.0834  -15.9102 C   0  0  0  0  0  0  0  0  0  0  0  0
   -8.1522    4.8326  -15.6740 C   0  0  0  0  0  0  0  0  0  0  0  0
   -8.9590    4.4037  -16.7327 C   0  0  0  0  0  0  0  0  0  0  0  0
   -8.4054    4.2636  -18.0002 C   0  0  0  0  0  0  0  0  0  0  0  0
   -9.1764    3.8685  -19.0163 F   0  0  0  0  0  0  0  0  0  0  0  0
   -7.0613    4.5103  -18.2655 C   0  0  0  0  0  0  0  0  0  0  0  0
   -6.2611    4.9051  -17.1907 C   0  0  0  0  0  0  0  0  0  0  0  0
   -1.7682    7.0821  -19.5063 C   0  0  0  0  0  0  0  0  0  0  0  0
   -2.4370    5.7965  -19.3137 N   0  0  0  0  0  0  0  0  0  0  0  0
   -2.5206    5.4702  -17.8579 C   0  0  0  0  0  0  0  0  0  0  0  0
   -3.9439    4.9323  -18.1570 C   0  0  0  0  0  0  0  0  0  0  0  0
   -3.9324    5.9954  -19.2726 C   0  0  0  0  0  0  0  0  0  0  0  0
   -8.7066    5.1302  -14.3309 C   0  0  0  0  0  0  0  0  0  0  0  0
   -9.4695    6.0105  -14.2492 O   0  0  0  0  0  0  0  0  0  0  0  0
   -8.1094    4.2174  -13.2361 N   0  0  0  0  0  0  0  0  0  0  0  0
   -7.5379    3.4898  -13.5726 H   0  0  0  0  0  0  0  0  0  0  0  0
   -8.2483    4.2567  -11.8488 C   0  0  0  0  0  0  0  0  0  0  0  0
   -8.4877    3.0576  -11.1594 C   0  0  0  0  0  0  0  0  0  0  0  0
   -8.5817    3.0357   -9.7645 C   0  0  0  0  0  0  0  0  0  0  0  0
   -8.4500    4.2305   -9.0834 C   0  0  0  0  0  0  0  0  0  0  0  0
   -8.2289    5.4235   -9.7615 C   0  0  0  0  0  0  0  0  0  0  0  0
   -8.1190    5.4558  -11.1432 C   0  0  0  0  0  0  0  0  0  0  0  0
   -8.0943    6.5336   -8.7754 C   0  0  0  0  0  0  0  0  0  0  0  0
   -8.5188    5.9654   -7.4638 N   0  0  0  0  0  0  0  0  0  0  0  0
   -8.4567    4.4853   -7.6171 C   0  0  0  0  0  0  0  0  0  0  0  0
   -9.4700    6.2589   -7.2417 H   0  0  0  0  0  0  0  0  0  0  0  0
 11 12  1  0  0  0
 12 13  1  0  0  0
 13 14  1  0  0  0
 14  1  1  0  0  0
  1  2  1  0  0  0
  2  3  2  0  0  0
  3  4  1  0  0  0
  4  5  2  0  0  0
  5 16  1  0  0  0
 16 17  2  0  0  0
 16 18  1  0  0  0
 18 20  1  0  0  0
 20 21  2  0  0  0
 21 22  1  0  0  0
 22 23  2  0  0  0
 23 24  1  0  0  0
 24 25  2  0  0  0
 24 26  1  0  0  0
 26 27  1  0  0  0
 27 28  1  0  0  0
  5  6  1  0  0  0
  6  7  2  0  0  0
  7  8  1  0  0  0
  7  9  1  0  0  0
  9 10  2  0  0  0
 14 15  1  0  0  0
 15 12  1  0  0  0
 10  1  1  0  0  0
 10  4  1  0  0  0
 25 20  1  0  0  0
 28 23  1  0  0  0
 18 19  1  0  0  0
 27 29  1  0  0  0
M  END
> <minimizedAffinity>
-8.78685

> <minimizedRMSD>
0.99434

$$$$
P25796


 37 42  0  0  0  0  0  0  0  0999 V2000
   -7.9824    5.0366  -15.3951 C   0  0  0  0  0  0  0  0  0  0  0  0
   -8.9599    4.4760  -16.2355 C   0  0  0  0  0  0  0  0  0  0  0  0
   -8.7133    4.1793  -17.6145 C   0  0  0  0  0  0  0  0  0  0  0  0
   -9.7283    3.6472  -18.3124 F   0  0  0  0  0  0  0  0  0  0  0  0
   -7.4873    4.3896  -18.2916 C   0  0  0  0  0  0  0  0  0  0  0  0
   -6.5168    4.8944  -17.4252 C   0  0  0  0  0  0  0  0  0  0  0  0
   -5.1756    5.1392  -17.6838 C   0  0  0  0  0  0  0  0  0  0  0  0
   -4.6175    5.5711  -16.4877 N   0  0  0  0  0  0  0  0  0  0  0  0
   -5.5892    5.6104  -15.5084 C   0  0  0  0  0  0  0  0  0  0  0  0
   -6.7667    5.1974  -16.0590 C   0  0  0  0  0  0  0  0  0  0  0  0
   -4.5046    4.8498  -19.0743 C   0  0  0  0  0  0  0  0  0  0  0  0
   -2.9870    4.5854  -19.1996 C   0  0  0  0  0  0  0  0  0  0  0  0
   -3.0311    5.2679  -20.5080 N   0  0  0  0  0  0  0  0  0  0  0  0
   -4.2038    6.0489  -19.9945 C   0  0  0  0  0  0  0  0  0  0  0  0
   -3.2406    4.6578  -21.2981 H   0  0  0  0  0  0  0  0  0  0  0  0
   -8.1752    6.6425  -13.8087 O   0  0  0  0  0  0  0  0  0  0  0  0
   -8.2037    5.4937  -14.0134 C   0  0  0  0  0  0  0  0  0  0  0  0
   -8.3419    4.3072  -13.0373 N   0  0  0  0  0  0  0  0  0  0  0  0
   -8.4172    3.4254  -13.4686 H   0  0  0  0  0  0  0  0  0  0  0  0
   -8.3775    4.2802  -11.6445 C   0  0  0  0  0  0  0  0  0  0  0  0
   -8.5238    3.0463  -10.9936 C   0  0  0  0  0  0  0  0  0  0  0  0
   -8.5301    2.9638   -9.5980 C   0  0  0  0  0  0  0  0  0  0  0  0
   -8.3746    4.1301   -8.8771 C   0  0  0  0  0  0  0  0  0  0  0  0
   -8.2269    5.3555   -9.5175 C   0  0  0  0  0  0  0  0  0  0  0  0
   -8.2352    5.4527  -10.8990 C   0  0  0  0  0  0  0  0  0  0  0  0
   -8.0964    6.4273   -8.4924 C   0  0  0  0  0  0  0  0  0  0  0  0
   -7.8417    5.7200   -7.2060 N   0  0  0  0  0  0  0  0  0  0  0  0
   -8.3602    4.3356   -7.4021 C   0  0  0  0  0  0  0  0  0  0  0  0
   -8.3361    6.1808   -6.4421 H   0  0  0  0  0  0  0  0  0  0  0  0
   -3.2300    5.8138  -16.1402 C   0  0  0  0  0  0  0  0  0  0  0  0
   -2.7737    7.2877  -16.0659 C   0  0  0  0  0  0  0  0  0  0  0  0
   -3.4676    8.2180  -17.0708 C   0  0  0  0  0  0  0  0  0  0  0  0
   -3.2722    9.6812  -16.6825 C   0  0  0  0  0  0  0  0  0  0  0  0
   -3.9007   10.0053  -15.4019 N   0  0  0  0  0  0  0  0  0  0  0  0
   -3.9707    8.8799  -14.4667 C   0  0  0  0  0  0  0  0  0  0  0  0
   -2.8299    7.8794  -14.6398 C   0  0  0  0  0  0  0  0  0  0  0  0
   -4.8504   10.3294  -15.5844 H   0  0  0  0  0  0  0  0  0  0  0  0
 16 17  2  0  0  0
 17 18  1  0  0  0
 18 20  1  0  0  0
 20 21  2  0  0  0
 21 22  1  0  0  0
 22 23  2  0  0  0
 23 24  1  0  0  0
 24 25  2  0  0  0
 24 26  1  0  0  0
 26 27  1  0  0  0
 27 28  1  0  0  0
 17  1  1  0  0  0
  1  2  2  0  0  0
  2  3  1  0  0  0
  3  4  1  0  0  0
  3  5  2  0  0  0
  5  6  1  0  0  0
  6  7  2  0  0  0
  7 11  1  0  0  0
 11 12  1  0  0  0
 12 13  1  0  0  0
 13 14  1  0  0  0
  7  8  1  0  0  0
  8 30  1  0  0  0
 30 31  1  0  0  0
 31 32  1  0  0  0
 32 33  1  0  0  0
 33 34  1  0  0  0
 34 35  1  0  0  0
 35 36  1  0  0  0
  8  9  1  0  0  0
  9 10  2  0  0  0
 25 20  1  0  0  0
 10  1  1  0  0  0
 28 23  1  0  0  0
 10  6  1  0  0  0
 14 11  1  0  0  0
 36 31  1  0  0  0
 18 19  1  0  0  0
 27 29  1  0  0  0
 13 15  1  0  0  0
 34 37  1  0  0  0
M  END
> <minimizedAffinity>
-8.29234

> <minimizedRMSD>
0.55804

$$$$
P25797


 35 40  0  0  0  0  0  0  0  0999 V2000
   -8.2578    4.8728  -15.4503 C   0  0  0  0  0  0  0  0  0  0  0  0
   -9.2729    4.4059  -16.3060 C   0  0  0  0  0  0  0  0  0  0  0  0
   -9.0529    4.1399  -17.6944 C   0  0  0  0  0  0  0  0  0  0  0  0
  -10.1023    3.7017  -18.4068 F   0  0  0  0  0  0  0  0  0  0  0  0
   -7.8224    4.3066  -18.3713 C   0  0  0  0  0  0  0  0  0  0  0  0
   -6.8191    4.7179  -17.4934 C   0  0  0  0  0  0  0  0  0  0  0  0
   -5.4878    4.9764  -17.7745 C   0  0  0  0  0  0  0  0  0  0  0  0
   -4.8829    5.2855  -16.5658 N   0  0  0  0  0  0  0  0  0  0  0  0
   -5.8323    5.3295  -15.5647 C   0  0  0  0  0  0  0  0  0  0  0  0
   -7.0344    4.9791  -16.1118 C   0  0  0  0  0  0  0  0  0  0  0  0
   -4.8973    4.9448  -19.2263 C   0  0  0  0  0  0  0  0  0  0  0  0
   -3.4178    4.6253  -19.4970 C   0  0  0  0  0  0  0  0  0  0  0  0
   -3.4234    5.6724  -20.5507 N   0  0  0  0  0  0  0  0  0  0  0  0
   -4.5335    6.3287  -19.8095 C   0  0  0  0  0  0  0  0  0  0  0  0
   -3.6737    5.3372  -21.4810 H   0  0  0  0  0  0  0  0  0  0  0  0
   -8.6953    6.4883  -13.9293 O   0  0  0  0  0  0  0  0  0  0  0  0
   -8.4729    5.3519  -14.0771 C   0  0  0  0  0  0  0  0  0  0  0  0
   -8.3186    4.2198  -13.0401 N   0  0  0  0  0  0  0  0  0  0  0  0
   -8.2068    3.3206  -13.4251 H   0  0  0  0  0  0  0  0  0  0  0  0
   -8.3116    4.2629  -11.6475 C   0  0  0  0  0  0  0  0  0  0  0  0
   -7.9870    5.4525  -10.9716 C   0  0  0  0  0  0  0  0  0  0  0  0
   -7.9770    5.5076   -9.5752 C   0  0  0  0  0  0  0  0  0  0  0  0
   -8.3083    4.3626   -8.8789 C   0  0  0  0  0  0  0  0  0  0  0  0
   -8.6242    3.1818   -9.5446 C   0  0  0  0  0  0  0  0  0  0  0  0
   -8.6233    3.1091  -10.9279 C   0  0  0  0  0  0  0  0  0  0  0  0
   -8.9246    2.1253   -8.5340 C   0  0  0  0  0  0  0  0  0  0  0  0
   -9.1490    2.8620   -7.2602 N   0  0  0  0  0  0  0  0  0  0  0  0
   -8.3962    4.1280   -7.4089 C   0  0  0  0  0  0  0  0  0  0  0  0
   -8.7941    2.3252   -6.4689 H   0  0  0  0  0  0  0  0  0  0  0  0
   -3.4701    5.4857  -16.2547 C   0  0  0  0  0  0  0  0  0  0  0  0
   -3.0056    6.9182  -16.4620 C   0  0  0  0  0  0  0  0  0  0  0  0
   -2.1920    7.5753  -15.3280 C   0  0  0  0  0  0  0  0  0  0  0  0
   -0.9491    7.2134  -16.0369 N   0  0  0  0  0  0  0  0  0  0  0  0
   -1.7129    7.0568  -17.2888 C   0  0  0  0  0  0  0  0  0  0  0  0
   -0.5143    6.3531  -15.7035 H   0  0  0  0  0  0  0  0  0  0  0  0
 16 17  2  0  0  0
 17 18  1  0  0  0
 18 20  1  0  0  0
 20 21  2  0  0  0
 21 22  1  0  0  0
 22 23  2  0  0  0
 23 24  1  0  0  0
 24 25  2  0  0  0
 24 26  1  0  0  0
 26 27  1  0  0  0
 27 28  1  0  0  0
 17  1  1  0  0  0
  1  2  2  0  0  0
  2  3  1  0  0  0
  3  4  1  0  0  0
  3  5  2  0  0  0
  5  6  1  0  0  0
  6  7  2  0  0  0
  7 11  1  0  0  0
 11 12  1  0  0  0
 12 13  1  0  0  0
 13 14  1  0  0  0
  7  8  1  0  0  0
  8 30  1  0  0  0
 30 31  1  0  0  0
 31 32  1  0  0  0
 32 33  1  0  0  0
 33 34  1  0  0  0
  8  9  1  0  0  0
  9 10  2  0  0  0
 25 20  1  0  0  0
 10  1  1  0  0  0
 28 23  1  0  0  0
 10  6  1  0  0  0
 14 11  1  0  0  0
 34 31  1  0  0  0
 18 19  1  0  0  0
 27 29  1  0  0  0
 13 15  1  0  0  0
 33 35  1  0  0  0
M  END
> <minimizedAffinity>
-8.60377

> <minimizedRMSD>
0.82977

$$$$
P25800


 34 39  0  0  0  0  0  0  0  0999 V2000
   -8.2454    4.4732  -12.8921 N   0  0  0  0  0  0  0  0  0  0  0  0
   -7.1674    5.1054  -13.8071 C   0  0  0  0  0  0  0  0  0  0  0  0
   -6.2536    5.7847  -13.5436 O   0  0  0  0  0  0  0  0  0  0  0  0
   -8.9637    3.9979  -13.3690 H   0  0  0  0  0  0  0  0  0  0  0  0
   -8.8777    8.9577  -10.1143 C   0  0  0  0  0  0  0  0  0  0  0  0
   -7.9647    7.7358  -10.0000 C   0  0  0  0  0  0  0  0  0  0  0  0
   -6.4961    8.1756  -10.0364 C   0  0  0  0  0  0  0  0  0  0  0  0
   -8.2839    6.9188   -8.7332 C   0  0  0  0  0  0  0  0  0  0  0  0
   -8.3475    5.5605   -9.3128 C   0  0  0  0  0  0  0  0  0  0  0  0
   -8.5226    4.3512   -8.6890 C   0  0  0  0  0  0  0  0  0  0  0  0
   -8.6478    3.2025   -9.4576 C   0  0  0  0  0  0  0  0  0  0  0  0
   -8.5689    3.2389  -10.8515 C   0  0  0  0  0  0  0  0  0  0  0  0
   -8.3645    4.4675  -11.4961 C   0  0  0  0  0  0  0  0  0  0  0  0
   -8.2821    5.6137  -10.7009 C   0  0  0  0  0  0  0  0  0  0  0  0
   -8.2029    6.9025  -11.1628 O   0  0  0  0  0  0  0  0  0  0  0  0
   -8.8713    2.0332   -8.5581 C   0  0  0  0  0  0  0  0  0  0  0  0
   -8.9255    2.5712   -7.1712 N   0  0  0  0  0  0  0  0  0  0  0  0
   -8.6388    4.0168   -7.2468 C   0  0  0  0  0  0  0  0  0  0  0  0
   -8.2275    2.1073   -6.5899 H   0  0  0  0  0  0  0  0  0  0  0  0
   -7.3387    4.7583  -15.2377 C   0  0  0  0  0  0  0  0  0  0  0  0
   -8.5807    4.4287  -15.7857 C   0  0  0  0  0  0  0  0  0  0  0  0
   -8.7140    4.2929  -17.1627 C   0  0  0  0  0  0  0  0  0  0  0  0
   -9.9101    3.9782  -17.6745 F   0  0  0  0  0  0  0  0  0  0  0  0
   -7.6453    4.4756  -18.0393 C   0  0  0  0  0  0  0  0  0  0  0  0
   -6.3994    4.7740  -17.4747 C   0  0  0  0  0  0  0  0  0  0  0  0
   -6.2292    4.9077  -16.0973 C   0  0  0  0  0  0  0  0  0  0  0  0
   -4.8592    5.2077  -15.9363 C   0  0  0  0  0  0  0  0  0  0  0  0
   -4.2023    5.2484  -17.0941 N   0  0  0  0  0  0  0  0  0  0  0  0
   -5.1570    5.0199  -18.0163 N   0  0  0  0  0  0  0  0  0  0  0  0
   -4.8862    5.0546  -19.4602 C   0  0  0  0  0  0  0  0  0  0  0  0
   -3.3946    5.0159  -19.8406 C   0  0  0  0  0  0  0  0  0  0  0  0
   -3.6989    6.0261  -20.8976 N   0  0  0  0  0  0  0  0  0  0  0  0
   -4.8205    6.4853  -20.0264 C   0  0  0  0  0  0  0  0  0  0  0  0
   -3.9874    5.6332  -21.7936 H   0  0  0  0  0  0  0  0  0  0  0  0
  5  6  1  0  0  0
  6  7  1  0  0  0
  6  8  1  0  0  0
  8  9  1  0  0  0
  9 10  2  0  0  0
 10 11  1  0  0  0
 11 12  2  0  0  0
 12 13  1  0  0  0
 13  1  1  0  0  0
  1  2  1  0  0  0
  2  3  2  0  0  0
  2 20  1  0  0  0
 20 21  2  0  0  0
 21 22  1  0  0  0
 22 23  1  0  0  0
 22 24  2  0  0  0
 24 25  1  0  0  0
 25 26  2  0  0  0
 26 27  1  0  0  0
 27 28  2  0  0  0
 28 29  1  0  0  0
 29 30  1  0  0  0
 30 31  1  0  0  0
 31 32  1  0  0  0
 32 33  1  0  0  0
 13 14  2  0  0  0
 14 15  1  0  0  0
 11 16  1  0  0  0
 16 17  1  0  0  0
 17 18  1  0  0  0
 15  6  1  0  0  0
 14  9  1  0  0  0
 18 10  1  0  0  0
 26 20  1  0  0  0
 33 30  1  0  0  0
 29 25  1  0  0  0
  1  4  1  0  0  0
 32 34  1  0  0  0
 17 19  1  0  0  0
M  END
> <minimizedAffinity>
-9.32748

> <minimizedRMSD>
0.54330

$$$$
P25802


 33 37  0  0  0  0  0  0  0  0999 V2000
   -4.8178    5.4625  -15.9482 N   0  0  0  0  0  0  0  0  0  0  0  0
   -5.9421    5.2549  -15.1877 C   0  0  0  0  0  0  0  0  0  0  0  0
   -6.9590    4.9396  -16.0411 C   0  0  0  0  0  0  0  0  0  0  0  0
   -8.2784    4.6968  -15.6680 C   0  0  0  0  0  0  0  0  0  0  0  0
   -9.0595    4.2784  -16.7530 C   0  0  0  0  0  0  0  0  0  0  0  0
   -8.5325    4.1880  -18.0823 C   0  0  0  0  0  0  0  0  0  0  0  0
   -9.3762    3.7816  -19.0427 F   0  0  0  0  0  0  0  0  0  0  0  0
   -7.2063    4.5167  -18.4702 C   0  0  0  0  0  0  0  0  0  0  0  0
   -6.4344    4.8818  -17.3670 C   0  0  0  0  0  0  0  0  0  0  0  0
   -5.1180    5.2999  -17.2963 C   0  0  0  0  0  0  0  0  0  0  0  0
   -4.0770    5.6177  -18.4065 C   0  0  0  0  0  0  0  0  0  0  0  0
   -3.4175    4.4968  -19.1944 C   0  0  0  0  0  0  0  0  0  0  0  0
   -3.3774    5.4347  -20.3504 N   0  0  0  0  0  0  0  0  0  0  0  0
   -4.5859    6.0896  -19.7766 C   0  0  0  0  0  0  0  0  0  0  0  0
   -3.5226    4.9957  -21.2596 H   0  0  0  0  0  0  0  0  0  0  0  0
   -8.7659    5.0807  -14.3372 C   0  0  0  0  0  0  0  0  0  0  0  0
   -9.3912    6.0614  -14.2589 O   0  0  0  0  0  0  0  0  0  0  0  0
   -8.2583    4.1324  -13.2402 N   0  0  0  0  0  0  0  0  0  0  0  0
   -7.8112    3.3204  -13.5719 H   0  0  0  0  0  0  0  0  0  0  0  0
   -8.3275    4.2342  -11.8533 C   0  0  0  0  0  0  0  0  0  0  0  0
   -8.5101    3.0719  -11.0938 C   0  0  0  0  0  0  0  0  0  0  0  0
   -8.5256    3.1247   -9.6971 C   0  0  0  0  0  0  0  0  0  0  0  0
   -8.3237    4.3485   -9.0875 C   0  0  0  0  0  0  0  0  0  0  0  0
   -8.1284    5.5032   -9.8361 C   0  0  0  0  0  0  0  0  0  0  0  0
   -8.1467    5.4683  -11.2197 C   0  0  0  0  0  0  0  0  0  0  0  0
   -7.9254    6.6605   -8.9186 C   0  0  0  0  0  0  0  0  0  0  0  0
   -7.7219    6.0630   -7.5659 N   0  0  0  0  0  0  0  0  0  0  0  0
   -8.2921    4.6884   -7.6396 C   0  0  0  0  0  0  0  0  0  0  0  0
   -8.2092    6.6123   -6.8579 H   0  0  0  0  0  0  0  0  0  0  0  0
   -3.4996    5.6728  -15.3503 C   0  0  0  0  0  0  0  0  0  0  0  0
   -3.9847    8.0732  -15.6091 C   0  0  0  0  0  0  0  0  0  0  0  0
   -3.3059    7.0392  -14.8426 N   0  0  0  0  0  0  0  0  0  0  0  0
   -3.5507    7.1907  -13.4128 C   0  0  0  0  0  0  0  0  0  0  0  0
 31 32  1  0  0  0
 32 33  1  0  0  0
 32 30  1  0  0  0
 30  1  1  0  0  0
  1  2  1  0  0  0
  2  3  2  0  0  0
  3  4  1  0  0  0
  4 16  1  0  0  0
 16 17  2  0  0  0
 16 18  1  0  0  0
 18 20  1  0  0  0
 20 21  2  0  0  0
 21 22  1  0  0  0
 22 23  2  0  0  0
 23 24  1  0  0  0
 24 25  2  0  0  0
 24 26  1  0  0  0
 26 27  1  0  0  0
 27 28  1  0  0  0
  4  5  2  0  0  0
  5  6  1  0  0  0
  6  7  1  0  0  0
  6  8  2  0  0  0
  8  9  1  0  0  0
  9 10  2  0  0  0
 10 11  1  0  0  0
 11 12  1  0  0  0
 12 13  1  0  0  0
 13 14  1  0  0  0
 10  1  1  0  0  0
 14 11  1  0  0  0
  9  3  1  0  0  0
 25 20  1  0  0  0
 28 23  1  0  0  0
 18 19  1  0  0  0
 27 29  1  0  0  0
 13 15  1  0  0  0
M  END
> <minimizedAffinity>
-8.58721

> <minimizedRMSD>
0.78994

$$$$
P25805


 30 34  0  0  0  0  0  0  0  0999 V2000
   -5.1682    4.9933  -17.8087 N   0  0  0  0  0  0  0  0  0  0  0  0
   -4.4141    5.3650  -16.7542 N   0  0  0  0  0  0  0  0  0  0  0  0
   -5.2758    5.4247  -15.7428 C   0  0  0  0  0  0  0  0  0  0  0  0
   -6.5831    5.0636  -16.1234 C   0  0  0  0  0  0  0  0  0  0  0  0
   -7.8268    4.9623  -15.4708 C   0  0  0  0  0  0  0  0  0  0  0  0
   -8.9430    4.5377  -16.1903 C   0  0  0  0  0  0  0  0  0  0  0  0
   -8.8222    4.2617  -17.5457 C   0  0  0  0  0  0  0  0  0  0  0  0
   -9.9106    3.8647  -18.2153 F   0  0  0  0  0  0  0  0  0  0  0  0
   -7.6115    4.3831  -18.2318 C   0  0  0  0  0  0  0  0  0  0  0  0
   -6.4916    4.7777  -17.4869 C   0  0  0  0  0  0  0  0  0  0  0  0
   -2.3882    6.3624  -21.2352 C   0  0  0  0  0  0  0  0  0  0  0  0
   -3.1138    6.3046  -19.8933 C   0  0  0  0  0  0  0  0  0  0  0  0
   -2.6751    7.4711  -19.0053 C   0  0  0  0  0  0  0  0  0  0  0  0
   -3.0482    4.9137  -19.2069 C   0  0  0  0  0  0  0  0  0  0  0  0
   -4.5928    4.8448  -19.1720 C   0  0  0  0  0  0  0  0  0  0  0  0
   -4.6564    6.1525  -19.9882 C   0  0  0  0  0  0  0  0  0  0  0  0
   -7.9316    5.4319  -14.0721 C   0  0  0  0  0  0  0  0  0  0  0  0
   -7.7453    6.5667  -13.8725 O   0  0  0  0  0  0  0  0  0  0  0  0
   -8.2648    4.2855  -13.0942 N   0  0  0  0  0  0  0  0  0  0  0  0
   -8.4529    3.4196  -13.5231 H   0  0  0  0  0  0  0  0  0  0  0  0
   -8.3428    4.2766  -11.7039 C   0  0  0  0  0  0  0  0  0  0  0  0
   -8.5082    3.0481  -11.0477 C   0  0  0  0  0  0  0  0  0  0  0  0
   -8.5479    2.9781   -9.6531 C   0  0  0  0  0  0  0  0  0  0  0  0
   -8.4377    4.1551   -8.9394 C   0  0  0  0  0  0  0  0  0  0  0  0
   -8.2862    5.3774   -9.5833 C   0  0  0  0  0  0  0  0  0  0  0  0
   -8.2282    5.4572  -10.9652 C   0  0  0  0  0  0  0  0  0  0  0  0
   -8.1600    6.4588   -8.5655 C   0  0  0  0  0  0  0  0  0  0  0  0
   -8.5202    5.8320   -7.2613 N   0  0  0  0  0  0  0  0  0  0  0  0
   -8.4045    4.3608   -7.4675 C   0  0  0  0  0  0  0  0  0  0  0  0
   -9.4748    6.0795   -7.0007 H   0  0  0  0  0  0  0  0  0  0  0  0
 11 12  1  0  0  0
 12 13  1  0  0  0
 12 14  1  0  0  0
 14 15  1  0  0  0
 15  1  1  0  0  0
  1  2  1  0  0  0
  2  3  2  0  0  0
  3  4  1  0  0  0
  4  5  2  0  0  0
  5 17  1  0  0  0
 17 18  2  0  0  0
 17 19  1  0  0  0
 19 21  1  0  0  0
 21 22  2  0  0  0
 22 23  1  0  0  0
 23 24  2  0  0  0
 24 25  1  0  0  0
 25 26  2  0  0  0
 25 27  1  0  0  0
 27 28  1  0  0  0
 28 29  1  0  0  0
  5  6  1  0  0  0
  6  7  2  0  0  0
  7  8  1  0  0  0
  7  9  1  0  0  0
  9 10  2  0  0  0
 15 16  1  0  0  0
 16 12  1  0  0  0
 10  1  1  0  0  0
 10  4  1  0  0  0
 26 21  1  0  0  0
 29 24  1  0  0  0
 19 20  1  0  0  0
 28 30  1  0  0  0
M  END
> <minimizedAffinity>
-8.58941

> <minimizedRMSD>
0.53235

$$$$
P25808


 30 34  0  0  0  0  0  0  0  0999 V2000
   -8.1934    4.3514  -12.9414 N   0  0  0  0  0  0  0  0  0  0  0  0
   -7.8867    5.4996  -13.9312 C   0  0  0  0  0  0  0  0  0  0  0  0
   -7.6275    6.6214  -13.7327 O   0  0  0  0  0  0  0  0  0  0  0  0
   -8.3084    3.4672  -13.3588 H   0  0  0  0  0  0  0  0  0  0  0  0
   -8.0227    6.8324   -8.6513 C   0  0  0  0  0  0  0  0  0  0  0  0
   -8.2357    5.5637   -9.4175 C   0  0  0  0  0  0  0  0  0  0  0  0
   -8.1448    5.5484  -10.8201 C   0  0  0  0  0  0  0  0  0  0  0  0
   -8.3337    4.3647  -11.5534 C   0  0  0  0  0  0  0  0  0  0  0  0
   -8.6254    3.1737  -10.8887 C   0  0  0  0  0  0  0  0  0  0  0  0
   -8.6909    3.1889   -9.5026 C   0  0  0  0  0  0  0  0  0  0  0  0
   -8.4850    4.3563   -8.7775 C   0  0  0  0  0  0  0  0  0  0  0  0
   -8.5855    4.0528   -7.3201 C   0  0  0  0  0  0  0  0  0  0  0  0
   -8.8679    2.6080   -7.1958 N   0  0  0  0  0  0  0  0  0  0  0  0
   -8.9588    2.0582   -8.5698 C   0  0  0  0  0  0  0  0  0  0  0  0
   -9.7499    2.4656   -6.7036 H   0  0  0  0  0  0  0  0  0  0  0  0
   -7.8298    5.0335  -15.3371 C   0  0  0  0  0  0  0  0  0  0  0  0
   -8.9282    4.4510  -15.9734 C   0  0  0  0  0  0  0  0  0  0  0  0
   -8.8521    4.1544  -17.3293 C   0  0  0  0  0  0  0  0  0  0  0  0
   -9.9127    3.6221  -17.9409 F   0  0  0  0  0  0  0  0  0  0  0  0
   -7.7080    4.3871  -18.0911 C   0  0  0  0  0  0  0  0  0  0  0  0
   -6.6060    4.9388  -17.4318 C   0  0  0  0  0  0  0  0  0  0  0  0
   -6.6537    5.2777  -16.0796 C   0  0  0  0  0  0  0  0  0  0  0  0
   -5.3853    5.8356  -15.8128 C   0  0  0  0  0  0  0  0  0  0  0  0
   -4.5850    5.8331  -16.8783 N   0  0  0  0  0  0  0  0  0  0  0  0
   -5.3300    5.2574  -17.8434 N   0  0  0  0  0  0  0  0  0  0  0  0
   -4.7764    4.8984  -19.1599 C   0  0  0  0  0  0  0  0  0  0  0  0
   -3.2566    4.6047  -19.1399 C   0  0  0  0  0  0  0  0  0  0  0  0
   -3.1803    5.2859  -20.4599 N   0  0  0  0  0  0  0  0  0  0  0  0
   -4.3656    6.1002  -20.0264 C   0  0  0  0  0  0  0  0  0  0  0  0
   -3.3500    4.6801  -21.2628 H   0  0  0  0  0  0  0  0  0  0  0  0
  5  6  1  0  0  0
  6  7  2  0  0  0
  7  8  1  0  0  0
  8  1  1  0  0  0
  1  2  1  0  0  0
  2  3  2  0  0  0
  2 16  1  0  0  0
 16 17  2  0  0  0
 17 18  1  0  0  0
 18 19  1  0  0  0
 18 20  2  0  0  0
 20 21  1  0  0  0
 21 22  2  0  0  0
 22 23  1  0  0  0
 23 24  2  0  0  0
 24 25  1  0  0  0
 25 26  1  0  0  0
 26 27  1  0  0  0
 27 28  1  0  0  0
 28 29  1  0  0  0
  8  9  2  0  0  0
  9 10  1  0  0  0
 10 11  2  0  0  0
 11 12  1  0  0  0
 12 13  1  0  0  0
 13 14  1  0  0  0
 11  6  1  0  0  0
 22 16  1  0  0  0
 29 26  1  0  0  0
 14 10  1  0  0  0
 25 21  1  0  0  0
  1  4  1  0  0  0
 28 30  1  0  0  0
 13 15  1  0  0  0
M  END
> <minimizedAffinity>
-8.89210

> <minimizedRMSD>
0.35431

$$$$
P25810


 30 34  0  0  0  0  0  0  0  0999 V2000
   -5.1231    5.3416  -17.2113 N   0  0  0  0  0  0  0  0  0  0  0  0
   -4.7512    5.8184  -16.0064 N   0  0  0  0  0  0  0  0  0  0  0  0
   -5.8520    5.7276  -15.2676 C   0  0  0  0  0  0  0  0  0  0  0  0
   -6.9424    5.1908  -15.9809 C   0  0  0  0  0  0  0  0  0  0  0  0
   -8.2784    4.8662  -15.6666 C   0  0  0  0  0  0  0  0  0  0  0  0
   -9.1039    4.3349  -16.6566 C   0  0  0  0  0  0  0  0  0  0  0  0
   -8.6089    4.1675  -17.9438 C   0  0  0  0  0  0  0  0  0  0  0  0
   -9.4256    3.6859  -18.8905 F   0  0  0  0  0  0  0  0  0  0  0  0
   -7.2878    4.4755  -18.2867 C   0  0  0  0  0  0  0  0  0  0  0  0
   -6.4560    4.9775  -17.2732 C   0  0  0  0  0  0  0  0  0  0  0  0
   -3.8969    7.5421  -19.0009 C   0  0  0  0  0  0  0  0  0  0  0  0
   -3.2818    6.1643  -18.7702 C   0  0  0  0  0  0  0  0  0  0  0  0
   -3.2248    5.3590  -20.0295 N   0  0  0  0  0  0  0  0  0  0  0  0
   -4.5109    4.7324  -19.6058 C   0  0  0  0  0  0  0  0  0  0  0  0
   -4.0776    4.9661  -18.1657 C   0  0  0  0  0  0  0  0  0  0  0  0
   -2.4361    4.7149  -20.0877 H   0  0  0  0  0  0  0  0  0  0  0  0
   -8.7718    5.1966  -14.3099 C   0  0  0  0  0  0  0  0  0  0  0  0
   -9.4697    6.1281  -14.2128 O   0  0  0  0  0  0  0  0  0  0  0  0
   -8.1763    4.2737  -13.2230 N   0  0  0  0  0  0  0  0  0  0  0  0
   -7.6734    3.5011  -13.5686 H   0  0  0  0  0  0  0  0  0  0  0  0
   -8.2354    4.3570  -11.8308 C   0  0  0  0  0  0  0  0  0  0  0  0
   -7.9474    5.5646  -11.1738 C   0  0  0  0  0  0  0  0  0  0  0  0
   -7.9824    5.6501   -9.7784 C   0  0  0  0  0  0  0  0  0  0  0  0
   -8.3131    4.5163   -9.0593 C   0  0  0  0  0  0  0  0  0  0  0  0
   -8.6053    3.3224   -9.7028 C   0  0  0  0  0  0  0  0  0  0  0  0
   -8.5656    3.2214  -11.0875 C   0  0  0  0  0  0  0  0  0  0  0  0
   -8.9320    2.2789   -8.6880 C   0  0  0  0  0  0  0  0  0  0  0  0
   -8.8738    2.9446   -7.3591 N   0  0  0  0  0  0  0  0  0  0  0  0
   -8.4279    4.3339   -7.5857 C   0  0  0  0  0  0  0  0  0  0  0  0
   -8.2115    2.4594   -6.7538 H   0  0  0  0  0  0  0  0  0  0  0  0
 12 11  1  0  0  0
 12 13  1  0  0  0
 13 14  1  0  0  0
 14 15  1  0  0  0
 15  1  1  0  0  0
  1  2  1  0  0  0
  2  3  2  0  0  0
  3  4  1  0  0  0
  4  5  2  0  0  0
  5 17  1  0  0  0
 17 18  2  0  0  0
 17 19  1  0  0  0
 19 21  1  0  0  0
 21 22  2  0  0  0
 22 23  1  0  0  0
 23 24  2  0  0  0
 24 25  1  0  0  0
 25 26  2  0  0  0
 25 27  1  0  0  0
 27 28  1  0  0  0
 28 29  1  0  0  0
  5  6  1  0  0  0
  6  7  2  0  0  0
  7  8  1  0  0  0
  7  9  1  0  0  0
  9 10  2  0  0  0
 15 12  1  0  0  0
 10  1  1  0  0  0
 10  4  1  0  0  0
 26 21  1  0  0  0
 29 24  1  0  0  0
 13 16  1  0  0  0
 19 20  1  0  0  0
 28 30  1  0  0  0
M  END
> <minimizedAffinity>
-9.20556

> <minimizedRMSD>
0.68172

$$$$
P25919


 37 40  0  0  0  0  0  0  0  0999 V2000
   -7.9597    3.6026  -12.1967 C   0  0  0  0  0  0  0  0  0  0  0  0
   -7.7614    4.7258  -11.1911 C   0  0  0  0  0  0  0  0  0  0  0  0
   -7.2057    5.8101  -11.7873 C   0  0  0  0  0  0  0  0  0  0  0  0
   -7.1688    5.5683  -13.2369 C   0  0  0  0  0  0  0  0  0  0  0  0
   -6.6215    6.2308  -14.3219 C   0  0  0  0  0  0  0  0  0  0  0  0
   -7.1413    5.8937  -15.5780 C   0  0  0  0  0  0  0  0  0  0  0  0
   -8.0057    4.8063  -15.7957 C   0  0  0  0  0  0  0  0  0  0  0  0
   -8.3342    4.0247  -14.7061 C   0  0  0  0  0  0  0  0  0  0  0  0
   -7.8736    4.3896  -13.4627 C   0  0  0  0  0  0  0  0  0  0  0  0
   -8.1503    4.4765   -9.7904 C   0  0  0  0  0  0  0  0  0  0  0  0
   -8.0468    5.4693   -8.7979 C   0  0  0  0  0  0  0  0  0  0  0  0
   -8.4466    5.2196   -7.4749 C   0  0  0  0  0  0  0  0  0  0  0  0
   -8.9674    3.9759   -7.1612 C   0  0  0  0  0  0  0  0  0  0  0  0
   -9.0833    2.9931   -8.1275 C   0  0  0  0  0  0  0  0  0  0  0  0
   -8.6746    3.2192   -9.4258 C   0  0  0  0  0  0  0  0  0  0  0  0
   -9.6726    1.7558   -7.5399 C   0  0  0  0  0  0  0  0  0  0  0  0
  -10.1455    2.1583   -6.1899 N   0  0  0  0  0  0  0  0  0  0  0  0
   -9.4594    3.4270   -5.8655 C   0  0  0  0  0  0  0  0  0  0  0  0
   -9.9049    1.4423   -5.5043 H   0  0  0  0  0  0  0  0  0  0  0  0
   -5.6764    2.9519  -11.2050 N   0  0  0  0  0  0  0  0  0  0  0  0
   -6.8185    2.4929  -12.1780 C   0  0  0  0  0  0  0  0  0  0  0  0
   -6.9051    1.5334  -12.8492 O   0  0  0  0  0  0  0  0  0  0  0  0
   -5.8752    3.7680  -10.6915 H   0  0  0  0  0  0  0  0  0  0  0  0
   -3.5909    2.2222  -12.2286 C   0  0  0  0  0  0  0  0  0  0  0  0
   -4.3859    2.3736  -10.9417 C   0  0  0  0  0  0  0  0  0  0  0  0
   -4.5228    1.0859  -10.1437 C   0  0  0  0  0  0  0  0  0  0  0  0
   -5.5835    7.1689  -14.2073 N   0  0  0  0  0  0  0  0  0  0  0  0
   -5.7434    8.0856  -13.8859 H   0  0  0  0  0  0  0  0  0  0  0  0
   -4.2500    6.7058  -14.5932 C   0  0  0  0  0  0  0  0  0  0  0  0
   -3.6510    5.5357  -13.9721 N   0  0  0  0  0  0  0  0  0  0  0  0
   -3.4636    5.7313  -12.9887 H   0  0  0  0  0  0  0  0  0  0  0  0
   -2.7768    5.3090  -14.4462 H   0  0  0  0  0  0  0  0  0  0  0  0
   -8.4012    4.3581  -17.0529 N   0  0  0  0  0  0  0  0  0  0  0  0
   -8.9914    3.5748  -17.1379 H   0  0  0  0  0  0  0  0  0  0  0  0
   -7.9394    5.0500  -18.2275 C   0  0  0  0  0  0  0  0  0  0  0  0
   -6.1680    4.7540  -18.5920 S   0  0  0  0  0  0  0  0  0  0  0  0
   -5.4099    5.2146  -17.5611 H   0  0  0  0  0  0  0  0  0  0  0  0
 24 25  1  0  0  0
 25 26  1  0  0  0
 25 20  1  0  0  0
 20 21  1  0  0  0
 21 22  2  0  0  0
  1 21  1  0  0  0
  1  2  1  0  0  0
  2 10  1  0  0  0
 10 11  2  0  0  0
 11 12  1  0  0  0
 12 13  2  0  0  0
 13 14  1  0  0  0
 14 15  2  0  0  0
 14 16  1  0  0  0
 16 17  1  0  0  0
 17 18  1  0  0  0
  2  3  2  0  0  0
  3  4  1  0  0  0
  4  5  2  0  0  0
  5 27  1  0  0  0
 27 29  1  0  0  0
 29 30  1  0  0  0
  5  6  1  0  0  0
  6  7  2  0  0  0
  7 33  1  0  0  0
 33 35  1  0  0  0
 35 36  1  0  0  0
  7  8  1  0  0  0
  8  9  2  0  0  0
  9  1  1  0  0  0
 15 10  1  0  0  0
  9  4  1  0  0  0
 18 13  1  0  0  0
 20 23  1  0  0  0
 17 19  1  0  0  0
 27 28  1  0  0  0
 30 31  1  0  0  0
 30 32  1  0  0  0
 33 34  1  0  0  0
 36 37  1  0  0  0
M  END
> <minimizedAffinity>
-6.82877

> <minimizedRMSD>
1.22208

$$$$
P25936


 37 42  0  0  0  0  0  0  0  0999 V2000
   -2.3506    5.0577  -20.7797 N   0  0  0  0  0  0  0  0  0  0  0  0
   -3.7000    5.6259  -20.7715 C   0  0  0  0  0  0  0  0  0  0  0  0
   -4.6284    4.8437  -19.8522 C   0  0  0  0  0  0  0  0  0  0  0  0
   -4.2196    4.9445  -18.3504 C   0  0  0  0  0  0  0  0  0  0  0  0
   -2.6631    5.0175  -18.2309 C   0  0  0  0  0  0  0  0  0  0  0  0
   -1.9712    6.3273  -17.8156 C   0  0  0  0  0  0  0  0  0  0  0  0
   -2.7192    7.5455  -18.1007 N   0  0  0  0  0  0  0  0  0  0  0  0
   -3.5358    7.9240  -16.9574 C   0  0  0  0  0  0  0  0  0  0  0  0
   -4.3484    6.7601  -16.3981 C   0  0  0  0  0  0  0  0  0  0  0  0
   -5.0914    5.9236  -17.4608 C   0  0  0  0  0  0  0  0  0  0  0  0
   -5.9967    6.8251  -18.3448 C   0  0  0  0  0  0  0  0  0  0  0  0
   -7.2898    6.1648  -18.5033 N   0  0  0  0  0  0  0  0  0  0  0  0
   -7.3671    5.2320  -17.4589 C   0  0  0  0  0  0  0  0  0  0  0  0
   -8.5184    4.5746  -17.0603 C   0  0  0  0  0  0  0  0  0  0  0  0
   -8.5093    3.9119  -15.8344 C   0  0  0  0  0  0  0  0  0  0  0  0
   -7.3359    3.8696  -15.0669 C   0  0  0  0  0  0  0  0  0  0  0  0
   -6.1486    4.4548  -15.5219 C   0  0  0  0  0  0  0  0  0  0  0  0
   -6.1835    5.1398  -16.7326 C   0  0  0  0  0  0  0  0  0  0  0  0
   -1.9842    4.4317  -19.5024 C   0  0  0  0  0  0  0  0  0  0  0  0
   -3.3238    7.3869  -18.9067 H   0  0  0  0  0  0  0  0  0  0  0  0
   -7.9657    6.3382  -19.1978 H   0  0  0  0  0  0  0  0  0  0  0  0
   -7.4090    3.2863  -13.7039 C   0  0  0  0  0  0  0  0  0  0  0  0
   -7.3505    2.1311  -13.5415 O   0  0  0  0  0  0  0  0  0  0  0  0
   -7.6018    4.4367  -12.6814 N   0  0  0  0  0  0  0  0  0  0  0  0
   -7.5401    5.3422  -13.0630 H   0  0  0  0  0  0  0  0  0  0  0  0
   -7.8484    4.3968  -11.3089 C   0  0  0  0  0  0  0  0  0  0  0  0
   -7.5846    5.5484  -10.5415 C   0  0  0  0  0  0  0  0  0  0  0  0
   -7.8139    5.5623   -9.1591 C   0  0  0  0  0  0  0  0  0  0  0  0
   -8.3360    4.4243   -8.5719 C   0  0  0  0  0  0  0  0  0  0  0  0
   -8.6381    3.3057   -9.3368 C   0  0  0  0  0  0  0  0  0  0  0  0
   -8.3829    3.2648  -10.6999 C   0  0  0  0  0  0  0  0  0  0  0  0
   -9.2760    2.2681   -8.4784 C   0  0  0  0  0  0  0  0  0  0  0  0
   -9.1539    2.7604   -7.0759 N   0  0  0  0  0  0  0  0  0  0  0  0
   -8.6889    4.1610   -7.1490 C   0  0  0  0  0  0  0  0  0  0  0  0
   -8.4786    2.1934   -6.5631 H   0  0  0  0  0  0  0  0  0  0  0  0
   -0.0162    5.9353  -20.6463 C   0  0  0  0  0  0  0  0  0  0  0  0
   -1.3836    6.0215  -21.3119 C   0  0  0  0  0  0  0  0  0  0  0  0
 36 37  1  0  0  0
 37  1  1  0  0  0
  1  2  1  0  0  0
  2  3  1  0  0  0
  4  3  1  0  0  0
  4  5  1  0  0  0
  5  6  1  0  0  0
  6  7  1  0  0  0
  7  8  1  0  0  0
  8  9  1  0  0  0
 10  9  1  0  0  0
 10 11  1  0  0  0
 11 12  1  0  0  0
 12 13  1  0  0  0
 13 14  2  0  0  0
 14 15  1  0  0  0
 15 16  2  0  0  0
 16 22  1  0  0  0
 22 23  2  0  0  0
 22 24  1  0  0  0
 24 26  1  0  0  0
 26 27  2  0  0  0
 27 28  1  0  0  0
 28 29  2  0  0  0
 29 30  1  0  0  0
 30 31  2  0  0  0
 30 32  1  0  0  0
 32 33  1  0  0  0
 33 34  1  0  0  0
 16 17  1  0  0  0
 17 18  2  0  0  0
  5 19  1  0  0  0
 19  1  1  0  0  0
 10  4  1  0  0  0
 18 13  1  0  0  0
 18 10  1  0  0  0
 31 26  1  0  0  0
 34 29  1  0  0  0
  7 20  1  0  0  0
 12 21  1  0  0  0
 24 25  1  0  0  0
 33 35  1  0  0  0
M  END
> <minimizedAffinity>
-8.81090

> <minimizedRMSD>
0.36604

$$$$
P25942


 35 39  0  0  0  0  0  0  0  0999 V2000
   -5.0571    5.0829  -17.7667 C   0  0  0  0  0  0  0  0  0  0  0  0
   -5.7169    5.4068  -18.9338 C   0  0  0  0  0  0  0  0  0  0  0  0
   -7.0539    5.1900  -18.7634 N   0  0  0  0  0  0  0  0  0  0  0  0
   -7.3077    4.7610  -17.4826 C   0  0  0  0  0  0  0  0  0  0  0  0
   -8.5250    4.4535  -16.8612 C   0  0  0  0  0  0  0  0  0  0  0  0
   -8.5063    4.0174  -15.5455 C   0  0  0  0  0  0  0  0  0  0  0  0
   -7.2915    3.8129  -14.8990 C   0  0  0  0  0  0  0  0  0  0  0  0
   -6.0478    4.0753  -15.5243 C   0  0  0  0  0  0  0  0  0  0  0  0
   -4.7589    3.7317  -14.8416 C   0  0  0  0  0  0  0  0  0  0  0  0
   -6.0718    4.6281  -16.8378 C   0  0  0  0  0  0  0  0  0  0  0  0
   -7.7384    5.3221  -19.4586 H   0  0  0  0  0  0  0  0  0  0  0  0
   -1.2121    6.3812  -18.9989 N   0  0  0  0  0  0  0  0  0  0  0  0
   -1.5204    6.6145  -17.5780 C   0  0  0  0  0  0  0  0  0  0  0  0
   -3.0194    6.5489  -17.2864 C   0  0  0  0  0  0  0  0  0  0  0  0
   -3.5579    5.1325  -17.5686 C   0  0  0  0  0  0  0  0  0  0  0  0
   -2.8118    4.4699  -18.7425 C   0  0  0  0  0  0  0  0  0  0  0  0
   -2.1872    5.5073  -19.6708 C   0  0  0  0  0  0  0  0  0  0  0  0
    0.8854    5.5797  -17.8994 C   0  0  0  0  0  0  0  0  0  0  0  0
    0.1684    5.9192  -19.2025 C   0  0  0  0  0  0  0  0  0  0  0  0
   -7.4023    3.2608  -13.5256 C   0  0  0  0  0  0  0  0  0  0  0  0
   -7.4541    2.1049  -13.3699 O   0  0  0  0  0  0  0  0  0  0  0  0
   -7.5216    4.4170  -12.5041 N   0  0  0  0  0  0  0  0  0  0  0  0
   -7.3657    5.3145  -12.8773 H   0  0  0  0  0  0  0  0  0  0  0  0
   -7.8139    4.3942  -11.1413 C   0  0  0  0  0  0  0  0  0  0  0  0
   -7.5951    5.5582  -10.3809 C   0  0  0  0  0  0  0  0  0  0  0  0
   -7.8726    5.5817   -9.0080 C   0  0  0  0  0  0  0  0  0  0  0  0
   -8.3952    4.4407   -8.4260 C   0  0  0  0  0  0  0  0  0  0  0  0
   -8.6532    3.3085   -9.1869 C   0  0  0  0  0  0  0  0  0  0  0  0
   -8.3524    3.2584  -10.5392 C   0  0  0  0  0  0  0  0  0  0  0  0
   -9.2991    2.2679   -8.3380 C   0  0  0  0  0  0  0  0  0  0  0  0
   -9.2246    2.7754   -6.9382 N   0  0  0  0  0  0  0  0  0  0  0  0
   -8.7890    4.1855   -7.0120 C   0  0  0  0  0  0  0  0  0  0  0  0
   -8.5506    2.2282   -6.4028 H   0  0  0  0  0  0  0  0  0  0  0  0
   -9.7489    4.5970  -17.5761 C   0  0  0  0  0  0  0  0  0  0  0  0
  -10.7451    4.7325  -18.1518 N   0  0  0  0  0  0  0  0  0  0  0  0
 18 19  1  0  0  0
 19 12  1  0  0  0
 12 13  1  0  0  0
 13 14  1  0  0  0
 14 15  1  0  0  0
 15  1  1  0  0  0
  1  2  2  0  0  0
  2  3  1  0  0  0
  3  4  1  0  0  0
  4  5  2  0  0  0
  5 34  1  0  0  0
 34 35  3  0  0  0
  5  6  1  0  0  0
  6  7  2  0  0  0
  7 20  1  0  0  0
 20 21  2  0  0  0
 20 22  1  0  0  0
 22 24  1  0  0  0
 24 25  2  0  0  0
 25 26  1  0  0  0
 26 27  2  0  0  0
 27 28  1  0  0  0
 28 29  2  0  0  0
 28 30  1  0  0  0
 30 31  1  0  0  0
 31 32  1  0  0  0
  7  8  1  0  0  0
  8  9  1  0  0  0
  8 10  2  0  0  0
 15 16  1  0  0  0
 16 17  1  0  0  0
 17 12  1  0  0  0
 10  1  1  0  0  0
 10  4  1  0  0  0
 29 24  1  0  0  0
 32 27  1  0  0  0
  3 11  1  0  0  0
 22 23  1  0  0  0
 31 33  1  0  0  0
M  END
> <minimizedAffinity>
-9.28399

> <minimizedRMSD>
0.97584

$$$$
P25948


 35 39  0  0  0  0  0  0  0  0999 V2000
   -5.0708    5.0743  -17.9446 C   0  0  0  0  0  0  0  0  0  0  0  0
   -5.6859    5.3947  -19.1466 C   0  0  0  0  0  0  0  0  0  0  0  0
   -7.0472    5.3194  -18.9636 N   0  0  0  0  0  0  0  0  0  0  0  0
   -7.3456    4.9008  -17.6881 C   0  0  0  0  0  0  0  0  0  0  0  0
   -8.5867    4.6631  -17.0813 C   0  0  0  0  0  0  0  0  0  0  0  0
   -8.5832    4.2103  -15.7587 C   0  0  0  0  0  0  0  0  0  0  0  0
   -7.3833    3.9932  -15.0855 C   0  0  0  0  0  0  0  0  0  0  0  0
   -6.1530    4.2567  -15.6973 C   0  0  0  0  0  0  0  0  0  0  0  0
   -6.1323    4.7262  -17.0289 C   0  0  0  0  0  0  0  0  0  0  0  0
   -7.7168    5.5358  -19.6521 H   0  0  0  0  0  0  0  0  0  0  0  0
   -1.2701    5.7001  -19.2482 N   0  0  0  0  0  0  0  0  0  0  0  0
   -2.0810    6.7892  -18.6896 C   0  0  0  0  0  0  0  0  0  0  0  0
   -2.8856    6.3680  -17.4604 C   0  0  0  0  0  0  0  0  0  0  0  0
   -3.6004    5.0171  -17.5643 C   0  0  0  0  0  0  0  0  0  0  0  0
   -2.7985    3.9744  -18.3452 C   0  0  0  0  0  0  0  0  0  0  0  0
   -2.0961    4.5299  -19.5768 C   0  0  0  0  0  0  0  0  0  0  0  0
    0.5124    7.2204  -20.1349 C   0  0  0  0  0  0  0  0  0  0  0  0
   -0.5069    6.1261  -20.4336 C   0  0  0  0  0  0  0  0  0  0  0  0
   -7.4054    3.4255  -13.7143 C   0  0  0  0  0  0  0  0  0  0  0  0
   -7.1758    2.2917  -13.5575 O   0  0  0  0  0  0  0  0  0  0  0  0
   -7.7404    4.5334  -12.6853 N   0  0  0  0  0  0  0  0  0  0  0  0
   -7.8195    5.4383  -13.0649 H   0  0  0  0  0  0  0  0  0  0  0  0
   -7.9480    4.4576  -11.3092 C   0  0  0  0  0  0  0  0  0  0  0  0
   -7.6489    5.5834  -10.5175 C   0  0  0  0  0  0  0  0  0  0  0  0
   -7.8515    5.5620   -9.1317 C   0  0  0  0  0  0  0  0  0  0  0  0
   -8.3828    4.4163   -8.5685 C   0  0  0  0  0  0  0  0  0  0  0  0
   -8.6890    3.3095   -9.3531 C   0  0  0  0  0  0  0  0  0  0  0  0
   -8.4622    3.3042  -10.7195 C   0  0  0  0  0  0  0  0  0  0  0  0
   -9.2493    2.2289   -8.4890 C   0  0  0  0  0  0  0  0  0  0  0  0
   -9.5532    2.8893   -7.1880 N   0  0  0  0  0  0  0  0  0  0  0  0
   -8.7117    4.1032   -7.1474 C   0  0  0  0  0  0  0  0  0  0  0  0
   -9.3205    2.2695   -6.4120 H   0  0  0  0  0  0  0  0  0  0  0  0
   -5.1565    5.7378  -20.3486 N   0  0  0  0  0  0  0  0  0  0  0  0
   -5.0812    4.7927  -21.4494 C   0  0  0  0  0  0  0  0  0  0  0  0
   -4.8143    6.6519  -20.4778 H   0  0  0  0  0  0  0  0  0  0  0  0
 17 18  1  0  0  0
 18 11  1  0  0  0
 11 12  1  0  0  0
 12 13  1  0  0  0
 13 14  1  0  0  0
 14  1  1  0  0  0
  1  2  2  0  0  0
  2 33  1  0  0  0
 33 34  1  0  0  0
  2  3  1  0  0  0
  3  4  1  0  0  0
  4  5  2  0  0  0
  5  6  1  0  0  0
  6  7  2  0  0  0
  7 19  1  0  0  0
 19 20  2  0  0  0
 19 21  1  0  0  0
 21 23  1  0  0  0
 23 24  2  0  0  0
 24 25  1  0  0  0
 25 26  2  0  0  0
 26 27  1  0  0  0
 27 28  2  0  0  0
 27 29  1  0  0  0
 29 30  1  0  0  0
 30 31  1  0  0  0
  7  8  1  0  0  0
  8  9  2  0  0  0
 14 15  1  0  0  0
 15 16  1  0  0  0
 16 11  1  0  0  0
  9  1  1  0  0  0
  9  4  1  0  0  0
 28 23  1  0  0  0
 31 26  1  0  0  0
 33 35  1  0  0  0
  3 10  1  0  0  0
 21 22  1  0  0  0
 30 32  1  0  0  0
M  END
> <minimizedAffinity>
-8.01255

> <minimizedRMSD>
1.64304

$$$$
P25955


 43 48  0  0  0  0  0  0  0  0999 V2000
   -5.0399    5.3727  -17.6365 C   0  0  0  0  0  0  0  0  0  0  0  0
   -5.5316    5.4104  -18.9427 C   0  0  0  0  0  0  0  0  0  0  0  0
   -6.8392    4.9840  -18.8955 N   0  0  0  0  0  0  0  0  0  0  0  0
   -7.2305    4.7177  -17.6092 C   0  0  0  0  0  0  0  0  0  0  0  0
   -8.4786    4.3345  -17.1087 C   0  0  0  0  0  0  0  0  0  0  0  0
   -9.5812    4.3059  -17.9176 O   0  0  0  0  0  0  0  0  0  0  0  0
   -8.5698    3.9756  -15.7709 C   0  0  0  0  0  0  0  0  0  0  0  0
   -7.4421    4.0361  -14.9570 C   0  0  0  0  0  0  0  0  0  0  0  0
   -6.2202    4.5325  -15.4312 C   0  0  0  0  0  0  0  0  0  0  0  0
   -6.1066    4.8742  -16.8005 C   0  0  0  0  0  0  0  0  0  0  0  0
   -7.4192    4.8832  -19.6845 H   0  0  0  0  0  0  0  0  0  0  0  0
   -9.5074    4.5503  -18.8192 H   0  0  0  0  0  0  0  0  0  0  0  0
   -1.2964    6.6276  -16.0000 N   0  0  0  0  0  0  0  0  0  0  0  0
   -1.7456    5.2876  -15.5784 C   0  0  0  0  0  0  0  0  0  0  0  0
   -3.2073    4.9743  -15.9276 C   0  0  0  0  0  0  0  0  0  0  0  0
   -3.6406    5.7258  -17.1859 C   0  0  0  0  0  0  0  0  0  0  0  0
   -3.4396    7.2440  -17.0156 C   0  0  0  0  0  0  0  0  0  0  0  0
   -2.3972    7.5897  -15.9460 C   0  0  0  0  0  0  0  0  0  0  0  0
    0.5014    8.3344  -15.7242 C   0  0  0  0  0  0  0  0  0  0  0  0
   -0.1248    7.0409  -15.2147 C   0  0  0  0  0  0  0  0  0  0  0  0
   -7.5460    3.4760  -13.5896 C   0  0  0  0  0  0  0  0  0  0  0  0
   -7.6300    2.3193  -13.4611 O   0  0  0  0  0  0  0  0  0  0  0  0
   -7.6117    4.6081  -12.5393 N   0  0  0  0  0  0  0  0  0  0  0  0
   -7.4352    5.5096  -12.8934 H   0  0  0  0  0  0  0  0  0  0  0  0
   -7.8804    4.5603  -11.1713 C   0  0  0  0  0  0  0  0  0  0  0  0
   -7.6998    5.7195  -10.3959 C   0  0  0  0  0  0  0  0  0  0  0  0
   -7.9622    5.7084   -9.0193 C   0  0  0  0  0  0  0  0  0  0  0  0
   -8.4302    4.5372   -8.4489 C   0  0  0  0  0  0  0  0  0  0  0  0
   -8.6443    3.4055   -9.2229 C   0  0  0  0  0  0  0  0  0  0  0  0
   -8.3559    3.3904  -10.5779 C   0  0  0  0  0  0  0  0  0  0  0  0
   -9.2389    2.3249   -8.3867 C   0  0  0  0  0  0  0  0  0  0  0  0
   -9.1829    2.8180   -6.9811 N   0  0  0  0  0  0  0  0  0  0  0  0
   -8.8091    4.2468   -7.0377 C   0  0  0  0  0  0  0  0  0  0  0  0
   -8.4845    2.2940   -6.4538 H   0  0  0  0  0  0  0  0  0  0  0  0
   -4.9025    5.7413  -20.2064 C   0  0  0  0  0  0  0  0  0  0  0  0
   -4.9412    4.9979  -21.1867 O   0  0  0  0  0  0  0  0  0  0  0  0
   -4.1615    7.0117  -20.3662 C   0  0  0  0  0  0  0  0  0  0  0  0
   -2.8073    6.9509  -20.7132 C   0  0  0  0  0  0  0  0  0  0  0  0
   -2.1164    8.1393  -20.8718 C   0  0  0  0  0  0  0  0  0  0  0  0
   -2.6811    9.3566  -20.7169 N   0  0  0  0  0  0  0  0  0  0  0  0
   -3.9953    9.3838  -20.3957 C   0  0  0  0  0  0  0  0  0  0  0  0
   -4.7705    8.2517  -20.2220 C   0  0  0  0  0  0  0  0  0  0  0  0
   -6.0785    8.3893  -19.9641 F   0  0  0  0  0  0  0  0  0  0  0  0
 19 20  1  0  0  0
 20 13  1  0  0  0
 13 14  1  0  0  0
 14 15  1  0  0  0
 15 16  1  0  0  0
 16  1  1  0  0  0
  1  2  2  0  0  0
  2 35  1  0  0  0
 35 36  2  0  0  0
 35 37  1  0  0  0
 37 38  2  0  0  0
 38 39  1  0  0  0
 39 40  2  0  0  0
 40 41  1  0  0  0
 41 42  2  0  0  0
 42 43  1  0  0  0
  2  3  1  0  0  0
  3  4  1  0  0  0
  4  5  2  0  0  0
  5  6  1  0  0  0
  5  7  1  0  0  0
  7  8  2  0  0  0
  8 21  1  0  0  0
 21 22  2  0  0  0
 21 23  1  0  0  0
 23 25  1  0  0  0
 25 26  2  0  0  0
 26 27  1  0  0  0
 27 28  2  0  0  0
 28 29  1  0  0  0
 29 30  2  0  0  0
 29 31  1  0  0  0
 31 32  1  0  0  0
 32 33  1  0  0  0
  8  9  1  0  0  0
  9 10  2  0  0  0
 16 17  1  0  0  0
 17 18  1  0  0  0
 18 13  1  0  0  0
 10  1  1  0  0  0
 42 37  1  0  0  0
 10  4  1  0  0  0
 30 25  1  0  0  0
 33 28  1  0  0  0
  3 11  1  0  0  0
  6 12  1  0  0  0
 23 24  1  0  0  0
 32 34  1  0  0  0
M  END
> <minimizedAffinity>
-8.11817

> <minimizedRMSD>
0.70286

$$$$
P25985


 36 40  0  0  0  0  0  0  0  0999 V2000
   -5.2237    5.0142  -18.2429 C   0  0  0  0  0  0  0  0  0  0  0  0
   -5.9982    4.7916  -19.3635 C   0  0  0  0  0  0  0  0  0  0  0  0
   -5.6913    4.7355  -20.6734 N   0  0  0  0  0  0  0  0  0  0  0  0
   -7.2909    4.5935  -18.9686 N   0  0  0  0  0  0  0  0  0  0  0  0
   -7.3611    4.5376  -17.5969 C   0  0  0  0  0  0  0  0  0  0  0  0
   -8.4442    4.2666  -16.7575 C   0  0  0  0  0  0  0  0  0  0  0  0
  -10.0216    4.0081  -17.3816 Cl  0  0  0  0  0  0  0  0  0  0  0  0
   -8.1998    4.1689  -15.3919 C   0  0  0  0  0  0  0  0  0  0  0  0
   -6.9116    4.3456  -14.8922 C   0  0  0  0  0  0  0  0  0  0  0  0
   -5.8440    4.6958  -15.7237 C   0  0  0  0  0  0  0  0  0  0  0  0
   -6.0734    4.7768  -17.1128 C   0  0  0  0  0  0  0  0  0  0  0  0
   -4.7626    4.8769  -20.9678 H   0  0  0  0  0  0  0  0  0  0  0  0
   -6.3956    4.5530  -21.3366 H   0  0  0  0  0  0  0  0  0  0  0  0
   -8.0595    4.5039  -19.5773 H   0  0  0  0  0  0  0  0  0  0  0  0
   -1.0806    5.9506  -18.8044 N   0  0  0  0  0  0  0  0  0  0  0  0
   -1.7075    4.9336  -19.6494 C   0  0  0  0  0  0  0  0  0  0  0  0
   -2.8989    4.3082  -18.9131 C   0  0  0  0  0  0  0  0  0  0  0  0
   -3.7600    5.3515  -18.1874 C   0  0  0  0  0  0  0  0  0  0  0  0
   -3.4672    6.7676  -18.6949 C   0  0  0  0  0  0  0  0  0  0  0  0
   -1.9747    7.1009  -18.5901 C   0  0  0  0  0  0  0  0  0  0  0  0
    1.3580    5.4371  -18.9302 C   0  0  0  0  0  0  0  0  0  0  0  0
    0.2296    6.3961  -19.2942 C   0  0  0  0  0  0  0  0  0  0  0  0
   -6.6575    4.0425  -13.4672 C   0  0  0  0  0  0  0  0  0  0  0  0
   -5.7853    3.3179  -13.1915 O   0  0  0  0  0  0  0  0  0  0  0  0
   -7.7035    4.7394  -12.5675 N   0  0  0  0  0  0  0  0  0  0  0  0
   -8.2957    5.3706  -13.0367 H   0  0  0  0  0  0  0  0  0  0  0  0
   -7.9447    4.6195  -11.2002 C   0  0  0  0  0  0  0  0  0  0  0  0
   -7.7716    5.7436  -10.3720 C   0  0  0  0  0  0  0  0  0  0  0  0
   -8.0254    5.6649   -8.9962 C   0  0  0  0  0  0  0  0  0  0  0  0
   -8.4869    4.4652   -8.4844 C   0  0  0  0  0  0  0  0  0  0  0  0
   -8.6737    3.3615   -9.3083 C   0  0  0  0  0  0  0  0  0  0  0  0
   -8.3852    3.4120  -10.6602 C   0  0  0  0  0  0  0  0  0  0  0  0
   -9.1954    2.2180   -8.5042 C   0  0  0  0  0  0  0  0  0  0  0  0
   -9.5914    2.8117   -7.1961 N   0  0  0  0  0  0  0  0  0  0  0  0
   -8.8469    4.0841   -7.0878 C   0  0  0  0  0  0  0  0  0  0  0  0
   -9.3382    2.1862   -6.4313 H   0  0  0  0  0  0  0  0  0  0  0  0
 21 22  1  0  0  0
 22 15  1  0  0  0
 15 16  1  0  0  0
 16 17  1  0  0  0
 17 18  1  0  0  0
 18  1  1  0  0  0
  1  2  2  0  0  0
  2  3  1  0  0  0
  2  4  1  0  0  0
  4  5  1  0  0  0
  5  6  2  0  0  0
  6  7  1  0  0  0
  6  8  1  0  0  0
  8  9  2  0  0  0
  9 23  1  0  0  0
 23 24  2  0  0  0
 23 25  1  0  0  0
 25 27  1  0  0  0
 27 28  2  0  0  0
 28 29  1  0  0  0
 29 30  2  0  0  0
 30 31  1  0  0  0
 31 32  2  0  0  0
 31 33  1  0  0  0
 33 34  1  0  0  0
 34 35  1  0  0  0
  9 10  1  0  0  0
 10 11  2  0  0  0
 18 19  1  0  0  0
 19 20  1  0  0  0
 20 15  1  0  0  0
 11  1  1  0  0  0
 11  5  1  0  0  0
 32 27  1  0  0  0
 35 30  1  0  0  0
  3 12  1  0  0  0
  3 13  1  0  0  0
  4 14  1  0  0  0
 25 26  1  0  0  0
 34 36  1  0  0  0
M  END
> <minimizedAffinity>
-8.84256

> <minimizedRMSD>
1.48304

$$$$
P25991


 33 37  0  0  0  0  0  0  0  0999 V2000
   -5.5986    6.1899  -17.1269 C   0  0  0  0  0  0  0  0  0  0  0  0
   -6.0614    6.2774  -18.4308 C   0  0  0  0  0  0  0  0  0  0  0  0
   -7.2865    5.6749  -18.5025 N   0  0  0  0  0  0  0  0  0  0  0  0
   -7.6329    5.1712  -17.2748 C   0  0  0  0  0  0  0  0  0  0  0  0
   -8.7180    4.3734  -16.8978 C   0  0  0  0  0  0  0  0  0  0  0  0
   -9.9116    3.9079  -18.0332 Cl  0  0  0  0  0  0  0  0  0  0  0  0
   -8.7814    3.9256  -15.5829 C   0  0  0  0  0  0  0  0  0  0  0  0
   -7.8242    4.3245  -14.6644 C   0  0  0  0  0  0  0  0  0  0  0  0
   -6.8041    5.1985  -15.0292 C   0  0  0  0  0  0  0  0  0  0  0  0
   -6.6534    5.5819  -16.3715 C   0  0  0  0  0  0  0  0  0  0  0  0
   -7.8384    5.6120  -19.3152 H   0  0  0  0  0  0  0  0  0  0  0  0
   -3.0518    4.5753  -14.6590 N   0  0  0  0  0  0  0  0  0  0  0  0
   -3.5847    4.1519  -15.9479 C   0  0  0  0  0  0  0  0  0  0  0  0
   -3.3331    5.2014  -17.0208 C   0  0  0  0  0  0  0  0  0  0  0  0
   -4.1590    6.4517  -16.7315 C   0  0  0  0  0  0  0  0  0  0  0  0
   -3.8591    6.9560  -15.3157 C   0  0  0  0  0  0  0  0  0  0  0  0
   -3.5155    5.9047  -14.2343 C   0  0  0  0  0  0  0  0  0  0  0  0
   -3.9484    2.2610  -14.1479 C   0  0  0  0  0  0  0  0  0  0  0  0
   -3.3588    3.5613  -13.6233 C   0  0  0  0  0  0  0  0  0  0  0  0
   -7.7493    3.6971  -13.3266 C   0  0  0  0  0  0  0  0  0  0  0  0
   -7.4183    2.5817  -13.2473 O   0  0  0  0  0  0  0  0  0  0  0  0
   -8.1006    4.7187  -12.2217 N   0  0  0  0  0  0  0  0  0  0  0  0
   -8.2790    5.6311  -12.5456 H   0  0  0  0  0  0  0  0  0  0  0  0
   -8.2057    4.5587  -10.8439 C   0  0  0  0  0  0  0  0  0  0  0  0
   -7.9610    5.6616  -10.0066 C   0  0  0  0  0  0  0  0  0  0  0  0
   -8.0949    5.5460   -8.6178 C   0  0  0  0  0  0  0  0  0  0  0  0
   -8.4997    4.3289   -8.0976 C   0  0  0  0  0  0  0  0  0  0  0  0
   -8.7552    3.2475   -8.9291 C   0  0  0  0  0  0  0  0  0  0  0  0
   -8.5915    3.3346  -10.3002 C   0  0  0  0  0  0  0  0  0  0  0  0
   -9.2604    2.0975   -8.1291 C   0  0  0  0  0  0  0  0  0  0  0  0
   -9.1433    2.5086   -6.7020 N   0  0  0  0  0  0  0  0  0  0  0  0
   -8.7843    3.9418   -6.6879 C   0  0  0  0  0  0  0  0  0  0  0  0
   -8.4170    1.9619   -6.2393 H   0  0  0  0  0  0  0  0  0  0  0  0
 18 19  1  0  0  0
 19 12  1  0  0  0
 12 13  1  0  0  0
 13 14  1  0  0  0
 14 15  1  0  0  0
 15  1  1  0  0  0
  1  2  2  0  0  0
  2  3  1  0  0  0
  3  4  1  0  0  0
  4  5  2  0  0  0
  5  6  1  0  0  0
  5  7  1  0  0  0
  7  8  2  0  0  0
  8 20  1  0  0  0
 20 21  2  0  0  0
 20 22  1  0  0  0
 22 24  1  0  0  0
 24 25  2  0  0  0
 25 26  1  0  0  0
 26 27  2  0  0  0
 27 28  1  0  0  0
 28 29  2  0  0  0
 28 30  1  0  0  0
 30 31  1  0  0  0
 31 32  1  0  0  0
  8  9  1  0  0  0
  9 10  2  0  0  0
 15 16  1  0  0  0
 16 17  1  0  0  0
 17 12  1  0  0  0
 10  1  1  0  0  0
 10  4  1  0  0  0
 29 24  1  0  0  0
 32 27  1  0  0  0
  3 11  1  0  0  0
 22 23  1  0  0  0
 31 33  1  0  0  0
M  END
> <minimizedAffinity>
-7.96770

> <minimizedRMSD>
0.37668

$$$$
P25997


 33 37  0  0  0  0  0  0  0  0999 V2000
   -5.6017    6.7440  -16.7068 C   0  0  0  0  0  0  0  0  0  0  0  0
   -5.9642    6.8619  -18.0391 C   0  0  0  0  0  0  0  0  0  0  0  0
   -7.0058    6.0051  -18.2814 N   0  0  0  0  0  0  0  0  0  0  0  0
   -7.3784    5.3776  -17.1208 C   0  0  0  0  0  0  0  0  0  0  0  0
   -8.3484    4.3971  -16.9031 C   0  0  0  0  0  0  0  0  0  0  0  0
   -9.1051    3.9310  -17.9063 F   0  0  0  0  0  0  0  0  0  0  0  0
   -8.5059    3.8894  -15.6213 C   0  0  0  0  0  0  0  0  0  0  0  0
   -7.7163    4.3589  -14.5817 C   0  0  0  0  0  0  0  0  0  0  0  0
   -6.7709    5.3624  -14.8001 C   0  0  0  0  0  0  0  0  0  0  0  0
   -6.5754    5.8800  -16.0965 C   0  0  0  0  0  0  0  0  0  0  0  0
   -7.4252    5.8611  -19.1603 H   0  0  0  0  0  0  0  0  0  0  0  0
   -3.6351    4.8066  -14.7938 N   0  0  0  0  0  0  0  0  0  0  0  0
   -3.3753    4.9102  -16.2292 C   0  0  0  0  0  0  0  0  0  0  0  0
   -3.1756    6.3367  -16.7411 C   0  0  0  0  0  0  0  0  0  0  0  0
   -4.2727    7.2321  -16.1573 C   0  0  0  0  0  0  0  0  0  0  0  0
   -4.1024    7.2587  -14.6270 C   0  0  0  0  0  0  0  0  0  0  0  0
   -3.3500    6.0301  -14.0529 C   0  0  0  0  0  0  0  0  0  0  0  0
   -4.1785    2.4855  -14.1229 C   0  0  0  0  0  0  0  0  0  0  0  0
   -3.1222    3.5736  -14.1876 C   0  0  0  0  0  0  0  0  0  0  0  0
   -7.7688    3.7072  -13.2500 C   0  0  0  0  0  0  0  0  0  0  0  0
   -7.6074    2.5541  -13.1831 O   0  0  0  0  0  0  0  0  0  0  0  0
   -8.0026    4.7530  -12.1348 N   0  0  0  0  0  0  0  0  0  0  0  0
   -8.0350    5.6866  -12.4454 H   0  0  0  0  0  0  0  0  0  0  0  0
   -8.1747    4.5889  -10.7640 C   0  0  0  0  0  0  0  0  0  0  0  0
   -7.9979    5.6963   -9.9158 C   0  0  0  0  0  0  0  0  0  0  0  0
   -8.1917    5.5752   -8.5344 C   0  0  0  0  0  0  0  0  0  0  0  0
   -8.5801    4.3451   -8.0327 C   0  0  0  0  0  0  0  0  0  0  0  0
   -8.7663    3.2579   -8.8751 C   0  0  0  0  0  0  0  0  0  0  0  0
   -8.5504    3.3537  -10.2385 C   0  0  0  0  0  0  0  0  0  0  0  0
   -9.2623    2.0896   -8.0965 C   0  0  0  0  0  0  0  0  0  0  0  0
   -9.1969    2.4959   -6.6641 N   0  0  0  0  0  0  0  0  0  0  0  0
   -8.9108    3.9454   -6.6368 C   0  0  0  0  0  0  0  0  0  0  0  0
   -8.4542    1.9835   -6.1886 H   0  0  0  0  0  0  0  0  0  0  0  0
 18 19  1  0  0  0
 19 12  1  0  0  0
 12 13  1  0  0  0
 13 14  1  0  0  0
 14 15  1  0  0  0
 15  1  1  0  0  0
  1  2  2  0  0  0
  2  3  1  0  0  0
  3  4  1  0  0  0
  4  5  2  0  0  0
  5  6  1  0  0  0
  5  7  1  0  0  0
  7  8  2  0  0  0
  8 20  1  0  0  0
 20 21  2  0  0  0
 20 22  1  0  0  0
 22 24  1  0  0  0
 24 25  2  0  0  0
 25 26  1  0  0  0
 26 27  2  0  0  0
 27 28  1  0  0  0
 28 29  2  0  0  0
 28 30  1  0  0  0
 30 31  1  0  0  0
 31 32  1  0  0  0
  8  9  1  0  0  0
  9 10  2  0  0  0
 15 16  1  0  0  0
 16 17  1  0  0  0
 17 12  1  0  0  0
 10  1  1  0  0  0
 10  4  1  0  0  0
 29 24  1  0  0  0
 32 27  1  0  0  0
  3 11  1  0  0  0
 22 23  1  0  0  0
 31 33  1  0  0  0
M  END
> <minimizedAffinity>
-7.58546

> <minimizedRMSD>
0.57237

$$$$
P26015


 42 46  0  0  0  0  0  0  0  0999 V2000
   -7.6536    3.9867  -13.6085 C   0  0  0  0  0  0  0  0  0  0  0  0
   -9.0384    3.9855  -13.3876 O   0  0  0  0  0  0  0  0  0  0  0  0
   -9.3960    4.8680  -13.5726 H   0  0  0  0  0  0  0  0  0  0  0  0
   -5.0033    4.8041  -18.0334 C   0  0  0  0  0  0  0  0  0  0  0  0
   -5.5537    4.9340  -19.2958 C   0  0  0  0  0  0  0  0  0  0  0  0
   -6.9132    4.8906  -19.1813 N   0  0  0  0  0  0  0  0  0  0  0  0
   -7.2695    4.6982  -17.8708 C   0  0  0  0  0  0  0  0  0  0  0  0
   -8.5306    4.5614  -17.3034 C   0  0  0  0  0  0  0  0  0  0  0  0
   -9.9586    4.5988  -18.2457 Cl  0  0  0  0  0  0  0  0  0  0  0  0
   -8.6107    4.3782  -15.9293 C   0  0  0  0  0  0  0  0  0  0  0  0
   -7.4739    4.3426  -15.1007 C   0  0  0  0  0  0  0  0  0  0  0  0
   -6.2088    4.4984  -15.7082 C   0  0  0  0  0  0  0  0  0  0  0  0
   -6.0991    4.6653  -17.1139 C   0  0  0  0  0  0  0  0  0  0  0  0
   -7.5457    4.9838  -19.9300 H   0  0  0  0  0  0  0  0  0  0  0  0
   -1.3138    6.6890  -18.3704 N   0  0  0  0  0  0  0  0  0  0  0  0
   -1.6366    6.3012  -16.9966 C   0  0  0  0  0  0  0  0  0  0  0  0
   -3.1275    6.0082  -16.8414 C   0  0  0  0  0  0  0  0  0  0  0  0
   -3.5348    4.7961  -17.6965 C   0  0  0  0  0  0  0  0  0  0  0  0
   -2.6510    4.6495  -18.9454 C   0  0  0  0  0  0  0  0  0  0  0  0
   -2.0726    5.9852  -19.4091 C   0  0  0  0  0  0  0  0  0  0  0  0
    0.9793    5.6330  -18.1214 C   0  0  0  0  0  0  0  0  0  0  0  0
    0.1233    6.7885  -18.6335 C   0  0  0  0  0  0  0  0  0  0  0  0
   -6.8069    2.6151  -13.3673 C   0  0  0  0  0  0  0  0  0  0  0  0
   -7.2180    1.5414  -13.5857 O   0  0  0  0  0  0  0  0  0  0  0  0
   -5.3989    3.0780  -12.8897 N   0  0  0  0  0  0  0  0  0  0  0  0
   -5.2767    4.0541  -12.8515 H   0  0  0  0  0  0  0  0  0  0  0  0
   -4.2557    2.3161  -12.4980 C   0  0  0  0  0  0  0  0  0  0  0  0
   -3.3755    2.0232  -13.7026 C   0  0  0  0  0  0  0  0  0  0  0  0
   -2.0283    1.5383  -13.2184 C   0  0  0  0  0  0  0  0  0  0  0  0
   -1.1119    2.5319  -13.3719 F   0  0  0  0  0  0  0  0  0  0  0  0
   -7.1355    5.0608  -12.7295 N   0  0  0  0  0  0  0  0  0  0  0  0
   -6.5387    5.7598  -13.0824 H   0  0  0  0  0  0  0  0  0  0  0  0
   -7.5257    5.0537  -11.3578 C   0  0  0  0  0  0  0  0  0  0  0  0
   -7.2621    6.2160  -10.6000 C   0  0  0  0  0  0  0  0  0  0  0  0
   -7.5395    6.2856   -9.2258 C   0  0  0  0  0  0  0  0  0  0  0  0
   -8.0715    5.1723   -8.6034 C   0  0  0  0  0  0  0  0  0  0  0  0
   -8.3351    4.0215   -9.3254 C   0  0  0  0  0  0  0  0  0  0  0  0
   -8.0597    3.9413  -10.6831 C   0  0  0  0  0  0  0  0  0  0  0  0
   -8.9555    2.9957   -8.4372 C   0  0  0  0  0  0  0  0  0  0  0  0
   -8.8561    3.5427   -7.0558 N   0  0  0  0  0  0  0  0  0  0  0  0
   -8.4730    4.9653   -7.1841 C   0  0  0  0  0  0  0  0  0  0  0  0
   -8.1469    3.0346   -6.5275 H   0  0  0  0  0  0  0  0  0  0  0  0
 21 22  1  0  0  0
 22 15  1  0  0  0
 15 16  1  0  0  0
 16 17  1  0  0  0
 17 18  1  0  0  0
 18  4  1  0  0  0
  4  5  2  0  0  0
  5  6  1  0  0  0
  6  7  1  0  0  0
  7  8  2  0  0  0
  8  9  1  0  0  0
  8 10  1  0  0  0
 10 11  2  0  0  0
 11  1  1  0  0  0
  1  2  1  0  0  0
  1 31  1  0  0  0
 31 33  1  0  0  0
 33 34  2  0  0  0
 34 35  1  0  0  0
 35 36  2  0  0  0
 36 37  1  0  0  0
 37 38  2  0  0  0
 37 39  1  0  0  0
 39 40  1  0  0  0
 40 41  1  0  0  0
  1 23  1  0  0  0
 23 24  2  0  0  0
 23 25  1  0  0  0
 25 27  1  0  0  0
 27 28  1  0  0  0
 28 29  1  0  0  0
 29 30  1  0  0  0
 11 12  1  0  0  0
 12 13  2  0  0  0
 18 19  1  0  0  0
 19 20  1  0  0  0
 20 15  1  0  0  0
 13  4  1  0  0  0
 13  7  1  0  0  0
 38 33  1  0  0  0
 41 36  1  0  0  0
  6 14  1  0  0  0
  2  3  1  0  0  0
 31 32  1  0  0  0
 40 42  1  0  0  0
 25 26  1  0  0  0
M  END
> <minimizedAffinity>
-8.80847

> <minimizedRMSD>
0.87743

$$$$
P26021


 42 46  0  0  0  0  0  0  0  0999 V2000
   -7.5601    3.9434  -13.4770 C   0  0  0  0  0  0  0  0  0  0  0  0
   -8.9462    3.8926  -13.2447 O   0  0  0  0  0  0  0  0  0  0  0  0
   -9.3309    4.7710  -13.3909 H   0  0  0  0  0  0  0  0  0  0  0  0
   -5.0360    5.0929  -17.9900 C   0  0  0  0  0  0  0  0  0  0  0  0
   -5.6305    4.9950  -19.2357 C   0  0  0  0  0  0  0  0  0  0  0  0
   -6.9461    4.7212  -19.0695 N   0  0  0  0  0  0  0  0  0  0  0  0
   -7.2388    4.6077  -17.7408 C   0  0  0  0  0  0  0  0  0  0  0  0
   -8.4703    4.3537  -17.1607 C   0  0  0  0  0  0  0  0  0  0  0  0
   -9.8890    4.1784  -18.0991 Cl  0  0  0  0  0  0  0  0  0  0  0  0
   -8.5253    4.2207  -15.7880 C   0  0  0  0  0  0  0  0  0  0  0  0
   -7.3922    4.3485  -14.9661 C   0  0  0  0  0  0  0  0  0  0  0  0
   -6.1530    4.6711  -15.5891 C   0  0  0  0  0  0  0  0  0  0  0  0
   -6.0610    4.7969  -17.0108 C   0  0  0  0  0  0  0  0  0  0  0  0
   -7.5972    4.6188  -19.8008 H   0  0  0  0  0  0  0  0  0  0  0  0
   -0.7038    5.3570  -17.5762 N   0  0  0  0  0  0  0  0  0  0  0  0
   -1.5508    6.0414  -16.5861 C   0  0  0  0  0  0  0  0  0  0  0  0
   -2.9583    5.4345  -16.5200 C   0  0  0  0  0  0  0  0  0  0  0  0
   -3.5901    5.4769  -17.8999 C   0  0  0  0  0  0  0  0  0  0  0  0
   -2.7093    4.7413  -18.9070 C   0  0  0  0  0  0  0  0  0  0  0  0
   -1.3151    5.3701  -18.9171 C   0  0  0  0  0  0  0  0  0  0  0  0
    1.6107    5.3177  -16.6255 C   0  0  0  0  0  0  0  0  0  0  0  0
    0.6519    5.9277  -17.6424 C   0  0  0  0  0  0  0  0  0  0  0  0
   -6.7031    2.5792  -13.2912 C   0  0  0  0  0  0  0  0  0  0  0  0
   -7.1048    1.5112  -13.5474 O   0  0  0  0  0  0  0  0  0  0  0  0
   -5.2924    3.0402  -12.8280 N   0  0  0  0  0  0  0  0  0  0  0  0
   -5.1826    4.0153  -12.7490 H   0  0  0  0  0  0  0  0  0  0  0  0
   -4.1218    2.2733  -12.4962 C   0  0  0  0  0  0  0  0  0  0  0  0
   -3.2244    2.0916  -13.7109 C   0  0  0  0  0  0  0  0  0  0  0  0
   -2.1984    1.2611  -13.3954 F   0  0  0  0  0  0  0  0  0  0  0  0
   -3.9037    1.5045  -14.7262 F   0  0  0  0  0  0  0  0  0  0  0  0
   -7.0588    4.9856  -12.5504 N   0  0  0  0  0  0  0  0  0  0  0  0
   -6.4721    5.7139  -12.8582 H   0  0  0  0  0  0  0  0  0  0  0  0
   -7.4729    4.8778  -11.1822 C   0  0  0  0  0  0  0  0  0  0  0  0
   -7.1787    5.9566  -10.3188 C   0  0  0  0  0  0  0  0  0  0  0  0
   -7.5126    5.9283   -8.9540 C   0  0  0  0  0  0  0  0  0  0  0  0
   -8.1420    4.8051   -8.4506 C   0  0  0  0  0  0  0  0  0  0  0  0
   -8.4172    3.7258   -9.2728 C   0  0  0  0  0  0  0  0  0  0  0  0
   -8.0693    3.7346  -10.6157 C   0  0  0  0  0  0  0  0  0  0  0  0
   -9.0876    2.6467   -8.4855 C   0  0  0  0  0  0  0  0  0  0  0  0
   -9.4288    3.2699   -7.1780 N   0  0  0  0  0  0  0  0  0  0  0  0
   -8.5947    4.4845   -7.0662 C   0  0  0  0  0  0  0  0  0  0  0  0
   -9.2194    2.6264   -6.4149 H   0  0  0  0  0  0  0  0  0  0  0  0
 21 22  1  0  0  0
 22 15  1  0  0  0
 15 16  1  0  0  0
 16 17  1  0  0  0
 17 18  1  0  0  0
 18  4  1  0  0  0
  4  5  2  0  0  0
  5  6  1  0  0  0
  6  7  1  0  0  0
  7  8  2  0  0  0
  8  9  1  0  0  0
  8 10  1  0  0  0
 10 11  2  0  0  0
 11  1  1  0  0  0
  1  2  1  0  0  0
  1 31  1  0  0  0
 31 33  1  0  0  0
 33 34  2  0  0  0
 34 35  1  0  0  0
 35 36  2  0  0  0
 36 37  1  0  0  0
 37 38  2  0  0  0
 37 39  1  0  0  0
 39 40  1  0  0  0
 40 41  1  0  0  0
  1 23  1  0  0  0
 23 24  2  0  0  0
 23 25  1  0  0  0
 25 27  1  0  0  0
 27 28  1  0  0  0
 28 29  1  0  0  0
 28 30  1  0  0  0
 11 12  1  0  0  0
 12 13  2  0  0  0
 18 19  1  0  0  0
 19 20  1  0  0  0
 20 15  1  0  0  0
 13  4  1  0  0  0
 13  7  1  0  0  0
 38 33  1  0  0  0
 41 36  1  0  0  0
  6 14  1  0  0  0
  2  3  1  0  0  0
 31 32  1  0  0  0
 40 42  1  0  0  0
 25 26  1  0  0  0
M  END
> <minimizedAffinity>
-9.38668

> <minimizedRMSD>
1.00727

$$$$
P26040


 30 33  0  0  0  0  0  0  0  0999 V2000
  -10.1678    4.1298  -18.0248 C   0  0  0  0  0  0  0  0  0  0  0  0
   -8.9199    4.3326  -17.2191 C   0  0  0  0  0  0  0  0  0  0  0  0
   -9.0049    4.5469  -15.8068 C   0  0  0  0  0  0  0  0  0  0  0  0
   -7.8849    4.8763  -15.0061 C   0  0  0  0  0  0  0  0  0  0  0  0
   -6.6633    4.9608  -15.7063 C   0  0  0  0  0  0  0  0  0  0  0  0
   -5.4188    5.2694  -15.3038 N   0  0  0  0  0  0  0  0  0  0  0  0
   -4.6761    5.3292  -16.4355 N   0  0  0  0  0  0  0  0  0  0  0  0
   -5.3452    4.9311  -17.5595 C   0  0  0  0  0  0  0  0  0  0  0  0
   -6.6272    4.7033  -17.1275 C   0  0  0  0  0  0  0  0  0  0  0  0
   -7.7054    4.3721  -17.9372 C   0  0  0  0  0  0  0  0  0  0  0  0
   -4.8456    4.8394  -19.0296 C   0  0  0  0  0  0  0  0  0  0  0  0
   -4.2382    6.1298  -19.6097 C   0  0  0  0  0  0  0  0  0  0  0  0
   -3.2701    5.2935  -20.3588 N   0  0  0  0  0  0  0  0  0  0  0  0
   -3.4733    4.2176  -19.3455 C   0  0  0  0  0  0  0  0  0  0  0  0
   -2.3227    5.6703  -20.3896 H   0  0  0  0  0  0  0  0  0  0  0  0
   -8.0206    5.2889  -13.5963 C   0  0  0  0  0  0  0  0  0  0  0  0
   -7.9969    6.4291  -13.3433 O   0  0  0  0  0  0  0  0  0  0  0  0
   -8.2314    4.0605  -12.6760 N   0  0  0  0  0  0  0  0  0  0  0  0
   -8.2852    3.1973  -13.1465 H   0  0  0  0  0  0  0  0  0  0  0  0
   -8.3574    3.9786  -11.2890 C   0  0  0  0  0  0  0  0  0  0  0  0
   -8.0255    5.0603  -10.4698 C   0  0  0  0  0  0  0  0  0  0  0  0
   -8.1398    4.9576   -9.0799 C   0  0  0  0  0  0  0  0  0  0  0  0
   -8.5901    3.7717   -8.5062 C   0  0  0  0  0  0  0  0  0  0  0  0
   -8.9355    2.7055   -9.3262 C   0  0  0  0  0  0  0  0  0  0  0  0
   -9.3992    1.5787   -8.7696 F   0  0  0  0  0  0  0  0  0  0  0  0
   -8.8217    2.7970  -10.7115 C   0  0  0  0  0  0  0  0  0  0  0  0
   -3.3329    5.8752  -16.3203 C   0  0  0  0  0  0  0  0  0  0  0  0
   -2.7122    5.2885  -15.1425 N   0  0  0  0  0  0  0  0  0  0  0  0
   -3.2679    5.5138  -14.3174 H   0  0  0  0  0  0  0  0  0  0  0  0
   -1.7706    5.6646  -15.0314 H   0  0  0  0  0  0  0  0  0  0  0  0
  1  2  1  0  0  0
  2  3  1  0  0  0
  3  4  2  0  0  0
  4 16  1  0  0  0
 16 17  2  0  0  0
 16 18  1  0  0  0
 18 20  1  0  0  0
 20 21  2  0  0  0
 21 22  1  0  0  0
 22 23  2  0  0  0
 23 24  1  0  0  0
 24 25  1  0  0  0
 24 26  2  0  0  0
  4  5  1  0  0  0
  5  6  2  0  0  0
  6  7  1  0  0  0
  7 27  1  0  0  0
 27 28  1  0  0  0
  7  8  1  0  0  0
  8 11  1  0  0  0
 11 12  1  0  0  0
 12 13  1  0  0  0
 13 14  1  0  0  0
  8  9  2  0  0  0
  9 10  1  0  0  0
 10  2  2  0  0  0
 26 20  1  0  0  0
  9  5  1  0  0  0
 14 11  1  0  0  0
 18 19  1  0  0  0
 28 29  1  0  0  0
 28 30  1  0  0  0
 13 15  1  0  0  0
M  END
> <minimizedAffinity>
-9.02609

> <minimizedRMSD>
0.58004

$$$$
P26045


 28 31  0  0  0  0  0  0  0  0999 V2000
   -3.8732    5.2548  -16.4068 N   0  0  0  0  0  0  0  0  0  0  0  0
   -5.2149    5.0660  -16.6960 N   0  0  0  0  0  0  0  0  0  0  0  0
   -6.0994    5.0766  -15.7111 N   0  0  0  0  0  0  0  0  0  0  0  0
   -7.2637    4.7230  -16.2785 C   0  0  0  0  0  0  0  0  0  0  0  0
   -8.5363    4.5247  -15.7131 C   0  0  0  0  0  0  0  0  0  0  0  0
   -9.5125    4.0506  -16.6119 C   0  0  0  0  0  0  0  0  0  0  0  0
   -9.2543    3.8584  -18.0063 C   0  0  0  0  0  0  0  0  0  0  0  0
   -8.0079    4.1123  -18.6228 C   0  0  0  0  0  0  0  0  0  0  0  0
   -7.0525    4.5262  -17.6967 C   0  0  0  0  0  0  0  0  0  0  0  0
   -5.7344    4.8285  -17.9298 C   0  0  0  0  0  0  0  0  0  0  0  0
   -3.7603    5.4138  -15.4056 H   0  0  0  0  0  0  0  0  0  0  0  0
   -3.5252    6.0641  -16.9209 H   0  0  0  0  0  0  0  0  0  0  0  0
   -4.9494    4.8299  -19.2676 C   0  0  0  0  0  0  0  0  0  0  0  0
   -3.5184    4.2400  -19.2523 C   0  0  0  0  0  0  0  0  0  0  0  0
   -3.0913    5.3316  -20.1566 N   0  0  0  0  0  0  0  0  0  0  0  0
   -4.2146    6.1326  -19.6115 C   0  0  0  0  0  0  0  0  0  0  0  0
   -3.1662    5.1148  -21.1505 H   0  0  0  0  0  0  0  0  0  0  0  0
   -8.8024    4.9158  -14.3202 C   0  0  0  0  0  0  0  0  0  0  0  0
   -9.3504    5.9295  -14.1318 O   0  0  0  0  0  0  0  0  0  0  0  0
   -8.2071    3.8984  -13.3215 N   0  0  0  0  0  0  0  0  0  0  0  0
   -7.8602    3.0732  -13.7313 H   0  0  0  0  0  0  0  0  0  0  0  0
   -8.0813    3.9588  -11.9329 C   0  0  0  0  0  0  0  0  0  0  0  0
   -7.3483    4.9793  -11.3200 C   0  0  0  0  0  0  0  0  0  0  0  0
   -7.1961    5.0078   -9.9303 C   0  0  0  0  0  0  0  0  0  0  0  0
   -7.7912    4.0222   -9.1477 C   0  0  0  0  0  0  0  0  0  0  0  0
   -8.5363    3.0231   -9.7604 C   0  0  0  0  0  0  0  0  0  0  0  0
   -9.1445    2.1045   -8.9986 F   0  0  0  0  0  0  0  0  0  0  0  0
   -8.6760    2.9750  -11.1453 C   0  0  0  0  0  0  0  0  0  0  0  0
  1  2  1  0  0  0
  2  3  1  0  0  0
  3  4  2  0  0  0
  4  5  1  0  0  0
  5 18  1  0  0  0
 18 19  2  0  0  0
 18 20  1  0  0  0
 20 22  1  0  0  0
 22 23  2  0  0  0
 23 24  1  0  0  0
 24 25  2  0  0  0
 25 26  1  0  0  0
 26 27  1  0  0  0
 26 28  2  0  0  0
  5  6  2  0  0  0
  6  7  1  0  0  0
  7  8  2  0  0  0
  8  9  1  0  0  0
  9 10  2  0  0  0
 10 13  1  0  0  0
 13 14  1  0  0  0
 14 15  1  0  0  0
 15 16  1  0  0  0
 10  2  1  0  0  0
 16 13  1  0  0  0
  9  4  1  0  0  0
 28 22  1  0  0  0
  1 11  1  0  0  0
  1 12  1  0  0  0
 20 21  1  0  0  0
 15 17  1  0  0  0
M  END
> <minimizedAffinity>
-9.39578

> <minimizedRMSD>
1.01239

$$$$
P26050


 29 32  0  0  0  0  0  0  0  0999 V2000
  -10.2650    4.0583  -17.8384 C   0  0  0  0  0  0  0  0  0  0  0  0
   -8.9578    4.3155  -17.1658 C   0  0  0  0  0  0  0  0  0  0  0  0
   -8.8905    4.4328  -15.7740 C   0  0  0  0  0  0  0  0  0  0  0  0
   -7.6922    4.7293  -15.0994 C   0  0  0  0  0  0  0  0  0  0  0  0
   -6.5662    4.8766  -15.9369 C   0  0  0  0  0  0  0  0  0  0  0  0
   -5.2622    5.1777  -15.6335 N   0  0  0  0  0  0  0  0  0  0  0  0
   -4.4376    5.2225  -16.6897 N   0  0  0  0  0  0  0  0  0  0  0  0
   -5.2528    4.9880  -17.7225 C   0  0  0  0  0  0  0  0  0  0  0  0
   -6.5896    4.7484  -17.3195 C   0  0  0  0  0  0  0  0  0  0  0  0
   -7.8041    4.4513  -17.9505 C   0  0  0  0  0  0  0  0  0  0  0  0
   -4.9564    5.3474  -14.7132 H   0  0  0  0  0  0  0  0  0  0  0  0
   -4.7520    4.9502  -19.1884 C   0  0  0  0  0  0  0  0  0  0  0  0
   -3.4261    4.2012  -19.4285 C   0  0  0  0  0  0  0  0  0  0  0  0
   -3.0374    5.2633  -20.3918 N   0  0  0  0  0  0  0  0  0  0  0  0
   -3.9511    6.1713  -19.6535 C   0  0  0  0  0  0  0  0  0  0  0  0
   -3.3073    5.0812  -21.3584 H   0  0  0  0  0  0  0  0  0  0  0  0
   -7.6896    4.9680  -13.6060 C   0  0  0  0  0  0  0  0  0  0  0  0
   -6.3766    5.3101  -13.2089 O   0  0  0  0  0  0  0  0  0  0  0  0
   -8.4918    6.0124  -13.2755 F   0  0  0  0  0  0  0  0  0  0  0  0
   -6.0820    6.0904  -13.7041 H   0  0  0  0  0  0  0  0  0  0  0  0
   -8.0794    3.8085  -12.8454 N   0  0  0  0  0  0  0  0  0  0  0  0
   -8.1576    2.9413  -13.3049 H   0  0  0  0  0  0  0  0  0  0  0  0
   -8.3510    3.8756  -11.4713 C   0  0  0  0  0  0  0  0  0  0  0  0
   -8.7259    2.6947  -10.8168 C   0  0  0  0  0  0  0  0  0  0  0  0
   -8.8648    2.6289   -9.4259 C   0  0  0  0  0  0  0  0  0  0  0  0
   -8.6252    3.7578   -8.6542 C   0  0  0  0  0  0  0  0  0  0  0  0
   -8.2589    4.9344   -9.2872 C   0  0  0  0  0  0  0  0  0  0  0  0
   -7.9969    6.0274   -8.5592 F   0  0  0  0  0  0  0  0  0  0  0  0
   -8.1219    5.0008  -10.6722 C   0  0  0  0  0  0  0  0  0  0  0  0
  1  2  1  0  0  0
  2  3  2  0  0  0
  3  4  1  0  0  0
  4 17  1  0  0  0
 17 18  1  0  0  0
 17 19  1  0  0  0
 17 21  1  0  0  0
 21 23  1  0  0  0
 23 24  2  0  0  0
 24 25  1  0  0  0
 25 26  2  0  0  0
 26 27  1  0  0  0
 27 28  1  0  0  0
 27 29  2  0  0  0
  4  5  2  0  0  0
  5  6  1  0  0  0
  6  7  1  0  0  0
  7  8  2  0  0  0
  8 12  1  0  0  0
 12 13  1  0  0  0
 13 14  1  0  0  0
 14 15  1  0  0  0
  8  9  1  0  0  0
  9 10  2  0  0  0
 10  2  1  0  0  0
 29 23  1  0  0  0
  9  5  1  0  0  0
 15 12  1  0  0  0
 18 20  1  0  0  0
 21 22  1  0  0  0
  6 11  1  0  0  0
 14 16  1  0  0  0
M  END
> <minimizedAffinity>
-8.94398

> <minimizedRMSD>
0.54450

$$$$
P26053


 27 30  0  0  0  0  0  0  0  0999 V2000
   -3.5770    5.9868  -15.3931 C   0  0  0  0  0  0  0  0  0  0  0  0
   -4.8346    5.4574  -15.8572 N   0  0  0  0  0  0  0  0  0  0  0  0
   -5.1692    5.2077  -17.1756 C   0  0  0  0  0  0  0  0  0  0  0  0
   -6.4828    4.7724  -17.1723 C   0  0  0  0  0  0  0  0  0  0  0  0
   -7.2959    4.3974  -18.2433 C   0  0  0  0  0  0  0  0  0  0  0  0
   -8.6161    4.0813  -17.8163 C   0  0  0  0  0  0  0  0  0  0  0  0
   -9.0826    4.1791  -16.4572 C   0  0  0  0  0  0  0  0  0  0  0  0
   -8.2573    4.5946  -15.3933 C   0  0  0  0  0  0  0  0  0  0  0  0
   -6.9521    4.8450  -15.8161 C   0  0  0  0  0  0  0  0  0  0  0  0
   -5.8955    5.2182  -15.0371 C   0  0  0  0  0  0  0  0  0  0  0  0
   -5.8840    5.3577  -13.7039 F   0  0  0  0  0  0  0  0  0  0  0  0
   -4.1496    5.4955  -18.3177 C   0  0  0  0  0  0  0  0  0  0  0  0
   -4.6512    6.2764  -19.5409 C   0  0  0  0  0  0  0  0  0  0  0  0
   -3.6680    5.5012  -20.3411 N   0  0  0  0  0  0  0  0  0  0  0  0
   -3.7879    4.4142  -19.3252 C   0  0  0  0  0  0  0  0  0  0  0  0
   -2.7422    5.9248  -20.4024 H   0  0  0  0  0  0  0  0  0  0  0  0
   -8.7333    4.9511  -14.0455 C   0  0  0  0  0  0  0  0  0  0  0  0
   -9.2846    5.9714  -13.9147 O   0  0  0  0  0  0  0  0  0  0  0  0
   -8.3074    3.9032  -12.9974 N   0  0  0  0  0  0  0  0  0  0  0  0
   -7.9194    3.0797  -13.3721 H   0  0  0  0  0  0  0  0  0  0  0  0
   -8.3825    3.9323  -11.6045 C   0  0  0  0  0  0  0  0  0  0  0  0
   -8.0382    5.0846  -10.8911 C   0  0  0  0  0  0  0  0  0  0  0  0
   -8.0680    5.0900   -9.4932 C   0  0  0  0  0  0  0  0  0  0  0  0
   -8.4671    3.9479   -8.8050 C   0  0  0  0  0  0  0  0  0  0  0  0
   -8.8337    2.8149   -9.5198 C   0  0  0  0  0  0  0  0  0  0  0  0
   -9.2670    1.7374   -8.8529 F   0  0  0  0  0  0  0  0  0  0  0  0
   -8.7775    2.7906  -10.9113 C   0  0  0  0  0  0  0  0  0  0  0  0
  1  2  1  0  0  0
  2  3  1  0  0  0
  3 12  1  0  0  0
 12 13  1  0  0  0
 13 14  1  0  0  0
 14 15  1  0  0  0
  3  4  2  0  0  0
  4  5  1  0  0  0
  5  6  2  0  0  0
  6  7  1  0  0  0
  7  8  2  0  0  0
  8 17  1  0  0  0
 17 18  2  0  0  0
 17 19  1  0  0  0
 19 21  1  0  0  0
 21 22  2  0  0  0
 22 23  1  0  0  0
 23 24  2  0  0  0
 24 25  1  0  0  0
 25 26  1  0  0  0
 25 27  2  0  0  0
  8  9  1  0  0  0
  9 10  2  0  0  0
 10 11  1  0  0  0
 10  2  1  0  0  0
 15 12  1  0  0  0
  9  4  1  0  0  0
 27 21  1  0  0  0
 14 16  1  0  0  0
 19 20  1  0  0  0
M  END
> <minimizedAffinity>
-9.79807

> <minimizedRMSD>
0.63059

$$$$
P26054


 32 35  0  0  0  0  0  0  0  0999 V2000
   -7.5985    4.8473  -14.8320 C   0  0  0  0  0  0  0  0  0  0  0  0
   -8.7290    4.5558  -15.5898 C   0  0  0  0  0  0  0  0  0  0  0  0
   -8.6054    4.4222  -16.9740 C   0  0  0  0  0  0  0  0  0  0  0  0
  -10.0272    4.2387  -17.9162 Cl  0  0  0  0  0  0  0  0  0  0  0  0
   -7.3774    4.5787  -17.6412 C   0  0  0  0  0  0  0  0  0  0  0  0
   -6.2233    4.8392  -16.8818 C   0  0  0  0  0  0  0  0  0  0  0  0
   -4.8621    5.1965  -17.0933 C   0  0  0  0  0  0  0  0  0  0  0  0
   -4.1837    5.3389  -15.9472 N   0  0  0  0  0  0  0  0  0  0  0  0
   -5.1224    5.2058  -15.0090 N   0  0  0  0  0  0  0  0  0  0  0  0
   -6.3682    4.9285  -15.5014 C   0  0  0  0  0  0  0  0  0  0  0  0
   -4.9353    5.2990  -14.0469 H   0  0  0  0  0  0  0  0  0  0  0  0
   -4.1949    5.7168  -18.3843 C   0  0  0  0  0  0  0  0  0  0  0  0
   -4.7080    5.3458  -19.7576 C   0  0  0  0  0  0  0  0  0  0  0  0
   -3.2964    5.3503  -20.2332 N   0  0  0  0  0  0  0  0  0  0  0  0
   -2.8714    5.0639  -18.8472 C   0  0  0  0  0  0  0  0  0  0  0  0
   -1.6290    5.8456  -18.4479 C   0  0  0  0  0  0  0  0  0  0  0  0
   -2.6735    3.6464  -18.7146 O   0  0  0  0  0  0  0  0  0  0  0  0
   -2.9760    6.2482  -20.5958 H   0  0  0  0  0  0  0  0  0  0  0  0
   -1.7954    3.4096  -19.0518 H   0  0  0  0  0  0  0  0  0  0  0  0
   -7.6824    4.2891  -12.3505 N   0  0  0  0  0  0  0  0  0  0  0  0
   -7.6538    5.3730  -13.4487 C   0  0  0  0  0  0  0  0  0  0  0  0
   -7.6784    6.5384  -13.3638 O   0  0  0  0  0  0  0  0  0  0  0  0
   -7.7294    3.3644  -12.6851 H   0  0  0  0  0  0  0  0  0  0  0  0
   -8.4518    3.7578   -8.7285 C   0  0  0  0  0  0  0  0  0  0  0  0
   -7.5445    4.6855   -8.1947 C   0  0  0  0  0  0  0  0  0  0  0  0
   -6.7122    5.4524   -9.0025 C   0  0  0  0  0  0  0  0  0  0  0  0
   -6.7641    5.3076  -10.3797 C   0  0  0  0  0  0  0  0  0  0  0  0
   -7.6525    4.4063  -10.9599 C   0  0  0  0  0  0  0  0  0  0  0  0
   -8.4908    3.6434  -10.1408 C   0  0  0  0  0  0  0  0  0  0  0  0
   -9.4666    3.4091   -6.4869 C   0  0  0  0  0  0  0  0  0  0  0  0
   -9.3141    3.0429   -7.8924 N   0  0  0  0  0  0  0  0  0  0  0  0
   -9.4342    1.6245   -8.1395 C   0  0  0  0  0  0  0  0  0  0  0  0
 30 31  1  0  0  0
 31 32  1  0  0  0
 31 24  1  0  0  0
 24 25  2  0  0  0
 25 26  1  0  0  0
 26 27  2  0  0  0
 27 28  1  0  0  0
 28 20  1  0  0  0
 20 21  1  0  0  0
 21 22  2  0  0  0
 21  1  1  0  0  0
  1  2  2  0  0  0
  2  3  1  0  0  0
  3  4  1  0  0  0
  3  5  2  0  0  0
  5  6  1  0  0  0
  6  7  1  0  0  0
 12  7  1  0  0  0
 12 13  1  0  0  0
 13 14  1  0  0  0
 14 15  1  0  0  0
 15 16  1  0  0  0
 15 17  1  0  0  0
  7  8  2  0  0  0
  8  9  1  0  0  0
  9 10  1  0  0  0
 28 29  2  0  0  0
 29 24  1  0  0  0
 10  1  1  0  0  0
 10  6  2  0  0  0
 15 12  1  0  0  0
 20 23  1  0  0  0
 14 18  1  0  0  0
 17 19  1  0  0  0
  9 11  1  0  0  0
M  END
> <minimizedAffinity>
-8.30995

> <minimizedRMSD>
0.56498

$$$$
P26057


 28 31  0  0  0  0  0  0  0  0999 V2000
   -5.8257    5.7741  -13.8637 N   0  0  0  0  0  0  0  0  0  0  0  0
   -5.8203    5.3663  -15.1891 N   0  0  0  0  0  0  0  0  0  0  0  0
   -4.7080    5.5193  -15.8870 N   0  0  0  0  0  0  0  0  0  0  0  0
   -5.0416    5.1898  -17.1323 C   0  0  0  0  0  0  0  0  0  0  0  0
   -6.3987    4.7815  -17.2333 C   0  0  0  0  0  0  0  0  0  0  0  0
   -7.2951    4.3700  -18.2405 C   0  0  0  0  0  0  0  0  0  0  0  0
   -8.6298    4.0779  -17.9099 C   0  0  0  0  0  0  0  0  0  0  0  0
   -9.0927    4.2083  -16.6005 C   0  0  0  0  0  0  0  0  0  0  0  0
   -8.2307    4.6456  -15.5898 C   0  0  0  0  0  0  0  0  0  0  0  0
   -6.8872    4.9113  -15.9266 C   0  0  0  0  0  0  0  0  0  0  0  0
   -4.8847    6.0586  -13.5917 H   0  0  0  0  0  0  0  0  0  0  0  0
   -6.1319    5.0020  -13.2717 H   0  0  0  0  0  0  0  0  0  0  0  0
   -3.9505    5.3873  -18.2071 C   0  0  0  0  0  0  0  0  0  0  0  0
   -4.4078    5.9693  -19.5508 C   0  0  0  0  0  0  0  0  0  0  0  0
   -3.3443    5.1496  -20.1832 N   0  0  0  0  0  0  0  0  0  0  0  0
   -3.4675    4.2070  -19.0331 C   0  0  0  0  0  0  0  0  0  0  0  0
   -2.4387    5.6131  -20.2570 H   0  0  0  0  0  0  0  0  0  0  0  0
   -8.7355    4.9744  -14.2342 C   0  0  0  0  0  0  0  0  0  0  0  0
   -9.3889    5.9371  -14.1226 O   0  0  0  0  0  0  0  0  0  0  0  0
   -8.2142    3.9877  -13.1648 N   0  0  0  0  0  0  0  0  0  0  0  0
   -7.7418    3.2023  -13.5242 H   0  0  0  0  0  0  0  0  0  0  0  0
   -8.3043    4.0289  -11.7718 C   0  0  0  0  0  0  0  0  0  0  0  0
   -8.0049    5.1986  -11.0664 C   0  0  0  0  0  0  0  0  0  0  0  0
   -8.0520    5.2186   -9.6686 C   0  0  0  0  0  0  0  0  0  0  0  0
   -8.4132    4.0701   -8.9704 C   0  0  0  0  0  0  0  0  0  0  0  0
   -8.7307    2.9164   -9.6752 C   0  0  0  0  0  0  0  0  0  0  0  0
   -9.1208    1.8288   -8.9974 F   0  0  0  0  0  0  0  0  0  0  0  0
   -8.6671    2.8814  -11.0672 C   0  0  0  0  0  0  0  0  0  0  0  0
  1  2  1  0  0  0
  2  3  1  0  0  0
  3  4  2  0  0  0
  4 13  1  0  0  0
 13 14  1  0  0  0
 14 15  1  0  0  0
 15 16  1  0  0  0
  4  5  1  0  0  0
  5  6  2  0  0  0
  6  7  1  0  0  0
  7  8  2  0  0  0
  8  9  1  0  0  0
  9 18  1  0  0  0
 18 19  2  0  0  0
 18 20  1  0  0  0
 20 22  1  0  0  0
 22 23  2  0  0  0
 23 24  1  0  0  0
 24 25  2  0  0  0
 25 26  1  0  0  0
 26 27  1  0  0  0
 26 28  2  0  0  0
  9 10  2  0  0  0
 10  2  1  0  0  0
 16 13  1  0  0  0
 10  5  1  0  0  0
 28 22  1  0  0  0
  1 11  1  0  0  0
  1 12  1  0  0  0
 15 17  1  0  0  0
 20 21  1  0  0  0
M  END
> <minimizedAffinity>
-9.52713

> <minimizedRMSD>
0.76203

$$$$
P26070


 30 34  0  0  0  0  0  0  0  0999 V2000
   -8.1374    4.5021  -15.5331 C   0  0  0  0  0  0  0  0  0  0  0  0
   -9.2182    4.1570  -16.3445 C   0  0  0  0  0  0  0  0  0  0  0  0
   -9.0909    4.0420  -17.7237 C   0  0  0  0  0  0  0  0  0  0  0  0
   -7.8625    4.2724  -18.3432 C   0  0  0  0  0  0  0  0  0  0  0  0
   -6.7421    4.6447  -17.5730 C   0  0  0  0  0  0  0  0  0  0  0  0
   -5.3746    4.9881  -17.9348 C   0  0  0  0  0  0  0  0  0  0  0  0
   -4.7559    5.3224  -16.7918 N   0  0  0  0  0  0  0  0  0  0  0  0
   -3.6191    5.7757  -16.5373 O   0  0  0  0  0  0  0  0  0  0  0  0
   -5.6885    5.1647  -15.7086 N   0  0  0  0  0  0  0  0  0  0  0  0
   -6.9141    4.7504  -16.1648 C   0  0  0  0  0  0  0  0  0  0  0  0
   -5.4751    5.3323  -14.7623 H   0  0  0  0  0  0  0  0  0  0  0  0
   -4.8002    5.0014  -19.3717 C   0  0  0  0  0  0  0  0  0  0  0  0
   -4.0119    6.2612  -19.7791 C   0  0  0  0  0  0  0  0  0  0  0  0
   -3.0423    5.3827  -20.4756 N   0  0  0  0  0  0  0  0  0  0  0  0
   -3.4621    4.2678  -19.5935 C   0  0  0  0  0  0  0  0  0  0  0  0
   -2.0674    5.6618  -20.3653 H   0  0  0  0  0  0  0  0  0  0  0  0
   -9.2482    5.3704  -13.7442 O   0  0  0  0  0  0  0  0  0  0  0  0
   -8.3606    4.6935  -14.0821 C   0  0  0  0  0  0  0  0  0  0  0  0
   -7.2912    3.9580  -13.2496 N   0  0  0  0  0  0  0  0  0  0  0  0
   -6.6873    3.3816  -13.7714 H   0  0  0  0  0  0  0  0  0  0  0  0
   -7.0288    3.9771  -11.8168 C   0  0  0  0  0  0  0  0  0  0  0  0
   -7.2054    5.3598  -11.1839 C   0  0  0  0  0  0  0  0  0  0  0  0
   -7.1531    5.2568   -9.6652 C   0  0  0  0  0  0  0  0  0  0  0  0
   -8.3885    4.5169   -9.1855 C   0  0  0  0  0  0  0  0  0  0  0  0
   -8.3548    4.0960   -7.7263 C   0  0  0  0  0  0  0  0  0  0  0  0
   -9.2462    2.9412   -7.6702 N   0  0  0  0  0  0  0  0  0  0  0  0
   -8.9870    2.1919   -8.9097 C   0  0  0  0  0  0  0  0  0  0  0  0
   -8.7377    3.2570   -9.9810 C   0  0  0  0  0  0  0  0  0  0  0  0
   -7.7301    2.8331  -11.0553 C   0  0  0  0  0  0  0  0  0  0  0  0
  -10.2198    3.2428   -7.6317 H   0  0  0  0  0  0  0  0  0  0  0  0
 17 18  2  0  0  0
 18 19  1  0  0  0
 21 19  1  0  0  0
 21 22  1  0  0  0
 22 23  1  0  0  0
 24 23  1  0  0  0
 24 25  1  0  0  0
 25 26  1  0  0  0
 26 27  1  0  0  0
 28 27  1  0  0  0
 28 29  1  0  0  0
 18  1  1  0  0  0
  1  2  2  0  0  0
  2  3  1  0  0  0
  3  4  2  0  0  0
  4  5  1  0  0  0
  5  6  1  0  0  0
  6 12  1  0  0  0
 12 13  1  0  0  0
 13 14  1  0  0  0
 14 15  1  0  0  0
  6  7  2  0  0  0
  7  8  1  0  0  0
  7  9  1  0  0  0
  9 10  1  0  0  0
 29 21  1  0  0  0
 10  1  1  0  0  0
 28 24  1  0  0  0
 10  5  2  0  0  0
 15 12  1  0  0  0
 19 20  1  0  0  0
 26 30  1  0  0  0
 14 16  1  0  0  0
  9 11  1  0  0  0
M  CHG 1   7   1
M  CHG 1   8  -1
M  END
> <minimizedAffinity>
-9.54914

> <minimizedRMSD>
0.32193

$$$$
P26076


 35 39  0  0  0  0  0  0  0  0999 V2000
   -4.9506    5.8034  -15.5424 C   0  0  0  0  0  0  0  0  0  0  0  0
   -3.8119    4.8005  -15.3288 C   0  0  0  0  0  0  0  0  0  0  0  0
   -4.6304    6.5566  -16.8657 C   0  0  0  0  0  0  0  0  0  0  0  0
   -3.7076    7.3523  -17.0231 O   0  0  0  0  0  0  0  0  0  0  0  0
   -5.6355    6.2233  -17.9527 C   0  0  0  0  0  0  0  0  0  0  0  0
   -6.5977    5.3056  -17.2466 C   0  0  0  0  0  0  0  0  0  0  0  0
   -7.7916    4.8316  -17.7749 C   0  0  0  0  0  0  0  0  0  0  0  0
   -8.7071    4.2519  -16.9171 C   0  0  0  0  0  0  0  0  0  0  0  0
   -9.8903    3.8507  -17.3993 F   0  0  0  0  0  0  0  0  0  0  0  0
   -8.4319    4.1183  -15.5580 C   0  0  0  0  0  0  0  0  0  0  0  0
   -7.2084    4.5518  -15.0119 C   0  0  0  0  0  0  0  0  0  0  0  0
   -6.2803    5.1444  -15.8780 C   0  0  0  0  0  0  0  0  0  0  0  0
   -5.0856    5.6604  -19.2434 C   0  0  0  0  0  0  0  0  0  0  0  0
   -4.2877    6.7099  -20.0586 C   0  0  0  0  0  0  0  0  0  0  0  0
   -3.4830    5.5927  -20.6042 N   0  0  0  0  0  0  0  0  0  0  0  0
   -3.7672    4.8480  -19.3425 C   0  0  0  0  0  0  0  0  0  0  0  0
   -2.4985    5.8126  -20.7545 H   0  0  0  0  0  0  0  0  0  0  0  0
   -6.9160    4.3302  -13.5464 C   0  0  0  0  0  0  0  0  0  0  0  0
   -5.8702    3.9152  -13.2481 O   0  0  0  0  0  0  0  0  0  0  0  0
   -8.1580    4.6202  -12.6832 N   0  0  0  0  0  0  0  0  0  0  0  0
   -8.9553    4.8991  -13.1889 H   0  0  0  0  0  0  0  0  0  0  0  0
   -8.3436    4.5498  -11.2534 C   0  0  0  0  0  0  0  0  0  0  0  0
   -7.2992    5.3232  -10.4435 C   0  0  0  0  0  0  0  0  0  0  0  0
   -7.2539    4.8885   -8.9707 C   0  0  0  0  0  0  0  0  0  0  0  0
   -8.6052    4.3723   -8.4820 C   0  0  0  0  0  0  0  0  0  0  0  0
   -8.5960    3.8424   -7.0526 C   0  0  0  0  0  0  0  0  0  0  0  0
   -9.2776    2.5481   -7.1001 N   0  0  0  0  0  0  0  0  0  0  0  0
   -9.0058    1.9911   -8.4361 C   0  0  0  0  0  0  0  0  0  0  0  0
   -9.1318    3.2067   -9.3271 C   0  0  0  0  0  0  0  0  0  0  0  0
   -8.5102    3.1198  -10.7235 C   0  0  0  0  0  0  0  0  0  0  0  0
  -10.2811    2.6715   -6.9656 H   0  0  0  0  0  0  0  0  0  0  0  0
   -5.2172    6.7286  -14.4951 O   0  0  0  0  0  0  0  0  0  0  0  0
   -4.4199    6.8014  -12.2294 C   0  0  0  0  0  0  0  0  0  0  0  0
   -4.1189    7.1408  -13.6842 C   0  0  0  0  0  0  0  0  0  0  0  0
   -3.9822    8.6501  -13.8552 C   0  0  0  0  0  0  0  0  0  0  0  0
 33 34  1  0  0  0
 34 35  1  0  0  0
 34 32  1  0  0  0
 32  1  1  0  0  0
  1  2  1  0  0  0
  1  3  1  0  0  0
  3  4  2  0  0  0
  3  5  1  0  0  0
  5 13  1  0  0  0
 13 14  1  0  0  0
 14 15  1  0  0  0
 15 16  1  0  0  0
  5  6  1  0  0  0
  6  7  2  0  0  0
  7  8  1  0  0  0
  8  9  1  0  0  0
  8 10  2  0  0  0
 10 11  1  0  0  0
 11 18  1  0  0  0
 18 19  2  0  0  0
 18 20  1  0  0  0
 22 20  1  0  0  0
 22 23  1  0  0  0
 23 24  1  0  0  0
 25 24  1  0  0  0
 25 26  1  0  0  0
 26 27  1  0  0  0
 27 28  1  0  0  0
 29 28  1  0  0  0
 29 30  1  0  0  0
 11 12  2  0  0  0
 12  1  1  0  0  0
 16 13  1  0  0  0
 12  6  1  0  0  0
 30 22  1  0  0  0
 29 25  1  0  0  0
 15 17  1  0  0  0
 20 21  1  0  0  0
 27 31  1  0  0  0
M  END
> <minimizedAffinity>
-8.10657

> <minimizedRMSD>
0.29333

$$$$
P26078


 31 35  0  0  0  0  0  0  0  0999 V2000
   -7.7972    4.8162  -14.9960 C   0  0  0  0  0  0  0  0  0  0  0  0
   -8.9562    4.4312  -15.6753 C   0  0  0  0  0  0  0  0  0  0  0  0
   -8.9427    4.2060  -17.0531 C   0  0  0  0  0  0  0  0  0  0  0  0
   -7.7672    4.3664  -17.7995 C   0  0  0  0  0  0  0  0  0  0  0  0
   -6.5669    4.7205  -17.1491 C   0  0  0  0  0  0  0  0  0  0  0  0
   -5.2079    4.9562  -17.6183 C   0  0  0  0  0  0  0  0  0  0  0  0
   -4.4596    5.1959  -16.5321 N   0  0  0  0  0  0  0  0  0  0  0  0
   -3.2332    5.3742  -16.3694 O   0  0  0  0  0  0  0  0  0  0  0  0
   -5.3282    5.2250  -15.3946 N   0  0  0  0  0  0  0  0  0  0  0  0
   -6.6224    4.9237  -15.7490 C   0  0  0  0  0  0  0  0  0  0  0  0
   -5.0369    5.4336  -14.4777 H   0  0  0  0  0  0  0  0  0  0  0  0
   -4.7532    4.9666  -19.0844 C   0  0  0  0  0  0  0  0  0  0  0  0
   -3.9392    6.2155  -19.4899 C   0  0  0  0  0  0  0  0  0  0  0  0
   -3.1659    5.3458  -20.4167 N   0  0  0  0  0  0  0  0  0  0  0  0
   -3.4671    4.2119  -19.4869 C   0  0  0  0  0  0  0  0  0  0  0  0
   -2.1765    5.5807  -20.4963 H   0  0  0  0  0  0  0  0  0  0  0  0
   -8.2208    4.0695  -12.6263 N   0  0  0  0  0  0  0  0  0  0  0  0
   -7.7938    5.2205  -13.5675 C   0  0  0  0  0  0  0  0  0  0  0  0
   -7.4392    6.3071  -13.3230 O   0  0  0  0  0  0  0  0  0  0  0  0
   -8.4063    3.2147  -13.0782 H   0  0  0  0  0  0  0  0  0  0  0  0
   -8.5001    4.3914   -6.1422 O   0  0  0  0  0  0  0  0  0  0  0  0
   -8.7648    3.6537   -7.0729 C   0  0  0  0  0  0  0  0  0  0  0  0
   -9.2374    2.3604   -7.0156 N   0  0  0  0  0  0  0  0  0  0  0  0
   -9.2375    1.7201   -8.3148 C   0  0  0  0  0  0  0  0  0  0  0  0
   -8.9053    2.8431   -9.2395 C   0  0  0  0  0  0  0  0  0  0  0  0
   -8.8176    2.8655  -10.6241 C   0  0  0  0  0  0  0  0  0  0  0  0
   -8.3856    4.0456  -11.2422 C   0  0  0  0  0  0  0  0  0  0  0  0
   -8.0836    5.1849  -10.4707 C   0  0  0  0  0  0  0  0  0  0  0  0
   -8.2007    5.1635   -9.0785 C   0  0  0  0  0  0  0  0  0  0  0  0
   -8.6046    3.9810   -8.4952 C   0  0  0  0  0  0  0  0  0  0  0  0
   -9.5400    1.9225   -6.1875 H   0  0  0  0  0  0  0  0  0  0  0  0
 21 22  2  0  0  0
 22 23  1  0  0  0
 23 24  1  0  0  0
 24 25  1  0  0  0
 25 26  2  0  0  0
 26 27  1  0  0  0
 27 17  1  0  0  0
 17 18  1  0  0  0
 18 19  2  0  0  0
 18  1  1  0  0  0
  1  2  2  0  0  0
  2  3  1  0  0  0
  3  4  2  0  0  0
  4  5  1  0  0  0
  5  6  1  0  0  0
  6 12  1  0  0  0
 12 13  1  0  0  0
 13 14  1  0  0  0
 14 15  1  0  0  0
  6  7  2  0  0  0
  7  8  1  0  0  0
  7  9  1  0  0  0
  9 10  1  0  0  0
 27 28  2  0  0  0
 28 29  1  0  0  0
 29 30  2  0  0  0
 30 22  1  0  0  0
 30 25  1  0  0  0
 10  1  1  0  0  0
 10  5  2  0  0  0
 15 12  1  0  0  0
 23 31  1  0  0  0
 17 20  1  0  0  0
 14 16  1  0  0  0
  9 11  1  0  0  0
M  CHG 1   7   1
M  CHG 1   8  -1
M  END
> <minimizedAffinity>
-9.82368

> <minimizedRMSD>
0.39598

$$$$
P26082


 30 34  0  0  0  0  0  0  0  0999 V2000
   -5.2749    5.3031  -17.0140 C   0  0  0  0  0  0  0  0  0  0  0  0
   -4.9062    5.5940  -15.7609 N   0  0  0  0  0  0  0  0  0  0  0  0
   -6.0140    5.3731  -15.0487 N   0  0  0  0  0  0  0  0  0  0  0  0
   -7.0651    4.9158  -15.7912 C   0  0  0  0  0  0  0  0  0  0  0  0
   -8.3842    4.6590  -15.4191 C   0  0  0  0  0  0  0  0  0  0  0  0
   -9.2632    4.1830  -16.3923 C   0  0  0  0  0  0  0  0  0  0  0  0
   -8.8212    4.0113  -17.7056 C   0  0  0  0  0  0  0  0  0  0  0  0
   -7.5017    4.3334  -18.0746 C   0  0  0  0  0  0  0  0  0  0  0  0
   -6.6008    4.7976  -17.0947 C   0  0  0  0  0  0  0  0  0  0  0  0
   -6.0681    5.5260  -14.0777 H   0  0  0  0  0  0  0  0  0  0  0  0
   -2.8155    3.8563  -19.2239 C   0  0  0  0  0  0  0  0  0  0  0  0
   -4.1071    4.6225  -19.2778 C   0  0  0  0  0  0  0  0  0  0  0  0
   -4.0248    5.7644  -20.2323 N   0  0  0  0  0  0  0  0  0  0  0  0
   -4.8115    6.5659  -19.2664 C   0  0  0  0  0  0  0  0  0  0  0  0
   -4.2936    5.6424  -18.1585 C   0  0  0  0  0  0  0  0  0  0  0  0
   -4.4894    5.6033  -21.1259 H   0  0  0  0  0  0  0  0  0  0  0  0
   -8.8281    5.1135  -14.0894 C   0  0  0  0  0  0  0  0  0  0  0  0
   -9.4876    6.0712  -14.0497 O   0  0  0  0  0  0  0  0  0  0  0  0
   -8.2945    4.2291  -12.9616 N   0  0  0  0  0  0  0  0  0  0  0  0
   -7.6878    3.5107  -13.2534 H   0  0  0  0  0  0  0  0  0  0  0  0
   -8.5348    4.2757  -11.5405 C   0  0  0  0  0  0  0  0  0  0  0  0
   -7.5664    5.2215  -10.8083 C   0  0  0  0  0  0  0  0  0  0  0  0
   -7.9295    5.3675   -9.3250 C   0  0  0  0  0  0  0  0  0  0  0  0
   -8.0353    3.9917   -8.6955 C   0  0  0  0  0  0  0  0  0  0  0  0
   -8.5488    3.9033   -7.2693 C   0  0  0  0  0  0  0  0  0  0  0  0
   -9.1673    2.5668   -7.1541 N   0  0  0  0  0  0  0  0  0  0  0  0
   -9.0925    1.9229   -8.4895 C   0  0  0  0  0  0  0  0  0  0  0  0
   -9.0193    3.1018   -9.4286 C   0  0  0  0  0  0  0  0  0  0  0  0
   -8.6123    2.8926  -10.8786 C   0  0  0  0  0  0  0  0  0  0  0  0
  -10.1414    2.6577   -6.8656 H   0  0  0  0  0  0  0  0  0  0  0  0
 12 11  1  0  0  0
 12 13  1  0  0  0
 13 14  1  0  0  0
 14 15  1  0  0  0
 15  1  1  0  0  0
  1  2  2  0  0  0
  2  3  1  0  0  0
  3  4  1  0  0  0
  4  5  2  0  0  0
  5 17  1  0  0  0
 17 18  2  0  0  0
 17 19  1  0  0  0
 21 19  1  0  0  0
 21 22  1  0  0  0
 22 23  1  0  0  0
 24 23  1  0  0  0
 24 25  1  0  0  0
 25 26  1  0  0  0
 26 27  1  0  0  0
 28 27  1  0  0  0
 28 29  1  0  0  0
  5  6  1  0  0  0
  6  7  2  0  0  0
  7  8  1  0  0  0
  8  9  2  0  0  0
 15 12  1  0  0  0
  9  1  1  0  0  0
  9  4  1  0  0  0
 29 21  1  0  0  0
 28 24  1  0  0  0
 13 16  1  0  0  0
  3 10  1  0  0  0
 19 20  1  0  0  0
 26 30  1  0  0  0
M  END
> <minimizedAffinity>
-9.44662

> <minimizedRMSD>
0.67001

$$$$
P26083


 30 34  0  0  0  0  0  0  0  0999 V2000
   -5.2870    5.1910  -18.0871 C   0  0  0  0  0  0  0  0  0  0  0  0
   -4.5505    5.7330  -17.1117 N   0  0  0  0  0  0  0  0  0  0  0  0
   -5.3245    5.6138  -16.0221 N   0  0  0  0  0  0  0  0  0  0  0  0
   -6.5375    5.0330  -16.2671 C   0  0  0  0  0  0  0  0  0  0  0  0
   -7.6017    4.7400  -15.4118 C   0  0  0  0  0  0  0  0  0  0  0  0
   -8.7497    4.1870  -15.9923 C   0  0  0  0  0  0  0  0  0  0  0  0
   -8.8071    3.9208  -17.3611 C   0  0  0  0  0  0  0  0  0  0  0  0
   -7.7120    4.1895  -18.1887 C   0  0  0  0  0  0  0  0  0  0  0  0
   -6.5581    4.7650  -17.6289 C   0  0  0  0  0  0  0  0  0  0  0  0
   -5.0444    5.9169  -15.1282 H   0  0  0  0  0  0  0  0  0  0  0  0
   -2.2068    4.9556  -18.8719 C   0  0  0  0  0  0  0  0  0  0  0  0
   -3.3407    4.5774  -19.8100 C   0  0  0  0  0  0  0  0  0  0  0  0
   -3.3580    5.4653  -21.0197 N   0  0  0  0  0  0  0  0  0  0  0  0
   -4.4046    6.2753  -20.3291 C   0  0  0  0  0  0  0  0  0  0  0  0
   -4.8105    5.0147  -19.5552 C   0  0  0  0  0  0  0  0  0  0  0  0
   -3.6697    5.0097  -21.8774 H   0  0  0  0  0  0  0  0  0  0  0  0
   -7.5278    5.1531  -13.9889 C   0  0  0  0  0  0  0  0  0  0  0  0
   -7.1087    6.2180  -13.7646 O   0  0  0  0  0  0  0  0  0  0  0  0
   -8.1201    4.0944  -13.0424 N   0  0  0  0  0  0  0  0  0  0  0  0
   -8.3357    3.2341  -13.4698 H   0  0  0  0  0  0  0  0  0  0  0  0
   -8.4116    4.1569  -11.6288 C   0  0  0  0  0  0  0  0  0  0  0  0
   -7.5357    5.1308  -10.8266 C   0  0  0  0  0  0  0  0  0  0  0  0
   -8.0211    5.2525   -9.3728 C   0  0  0  0  0  0  0  0  0  0  0  0
   -8.1246    3.8712   -8.7507 C   0  0  0  0  0  0  0  0  0  0  0  0
   -8.7646    3.7620   -7.3781 C   0  0  0  0  0  0  0  0  0  0  0  0
   -9.3035    2.3866   -7.3011 N   0  0  0  0  0  0  0  0  0  0  0  0
   -9.1281    1.7601   -8.6370 C   0  0  0  0  0  0  0  0  0  0  0  0
   -9.0119    2.9488   -9.5601 C   0  0  0  0  0  0  0  0  0  0  0  0
   -8.4897    2.7654  -10.9748 C   0  0  0  0  0  0  0  0  0  0  0  0
  -10.2935    2.4140   -7.0570 H   0  0  0  0  0  0  0  0  0  0  0  0
 12 11  1  0  0  0
 12 13  1  0  0  0
 13 14  1  0  0  0
 14 15  1  0  0  0
 15  1  1  0  0  0
  1  2  2  0  0  0
  2  3  1  0  0  0
  3  4  1  0  0  0
  4  5  2  0  0  0
  5 17  1  0  0  0
 17 18  2  0  0  0
 17 19  1  0  0  0
 21 19  1  0  0  0
 21 22  1  0  0  0
 22 23  1  0  0  0
 24 23  1  0  0  0
 24 25  1  0  0  0
 25 26  1  0  0  0
 26 27  1  0  0  0
 28 27  1  0  0  0
 28 29  1  0  0  0
  5  6  1  0  0  0
  6  7  2  0  0  0
  7  8  1  0  0  0
  8  9  2  0  0  0
 15 12  1  0  0  0
  9  1  1  0  0  0
  9  4  1  0  0  0
 29 21  1  0  0  0
 28 24  1  0  0  0
 13 16  1  0  0  0
  3 10  1  0  0  0
 19 20  1  0  0  0
 26 30  1  0  0  0
M  END
> <minimizedAffinity>
-9.38283

> <minimizedRMSD>
0.28520

$$$$
P26084


 32 36  0  0  0  0  0  0  0  0999 V2000
   -5.0138    5.0739  -16.5185 N   0  0  0  0  0  0  0  0  0  0  0  0
   -5.9430    5.1807  -15.5360 N   0  0  0  0  0  0  0  0  0  0  0  0
   -7.1050    4.8117  -16.1026 C   0  0  0  0  0  0  0  0  0  0  0  0
   -8.4064    4.6856  -15.5860 C   0  0  0  0  0  0  0  0  0  0  0  0
   -9.3830    4.2148  -16.4968 C   0  0  0  0  0  0  0  0  0  0  0  0
   -9.0970    3.9337  -17.8608 C   0  0  0  0  0  0  0  0  0  0  0  0
   -7.8206    4.1006  -18.4316 C   0  0  0  0  0  0  0  0  0  0  0  0
   -6.8674    4.5225  -17.5009 C   0  0  0  0  0  0  0  0  0  0  0  0
   -5.5433    4.7946  -17.7506 C   0  0  0  0  0  0  0  0  0  0  0  0
   -4.8791    4.8315  -19.1565 C   0  0  0  0  0  0  0  0  0  0  0  0
   -4.2203    6.1791  -19.5273 C   0  0  0  0  0  0  0  0  0  0  0  0
   -3.2512    5.4132  -20.3627 N   0  0  0  0  0  0  0  0  0  0  0  0
   -3.4718    4.2662  -19.4294 C   0  0  0  0  0  0  0  0  0  0  0  0
   -2.3016    5.7855  -20.3647 H   0  0  0  0  0  0  0  0  0  0  0  0
   -8.8260    5.2050  -14.2834 C   0  0  0  0  0  0  0  0  0  0  0  0
   -9.6024    6.0722  -14.2556 O   0  0  0  0  0  0  0  0  0  0  0  0
   -8.1967    4.3949  -13.1407 N   0  0  0  0  0  0  0  0  0  0  0  0
   -7.5002    3.7585  -13.4218 H   0  0  0  0  0  0  0  0  0  0  0  0
   -8.4597    4.4146  -11.7231 C   0  0  0  0  0  0  0  0  0  0  0  0
   -7.5558    5.3850  -10.9478 C   0  0  0  0  0  0  0  0  0  0  0  0
   -7.9638    5.4762   -9.4689 C   0  0  0  0  0  0  0  0  0  0  0  0
   -8.0215    4.0819   -8.8686 C   0  0  0  0  0  0  0  0  0  0  0  0
   -8.5721    3.9365   -7.4587 C   0  0  0  0  0  0  0  0  0  0  0  0
   -9.1710    2.5878   -7.4040 N   0  0  0  0  0  0  0  0  0  0  0  0
   -9.0038    1.9688   -8.7378 C   0  0  0  0  0  0  0  0  0  0  0  0
   -8.9445    3.1689   -9.6507 C   0  0  0  0  0  0  0  0  0  0  0  0
   -8.4908    3.0120  -11.0915 C   0  0  0  0  0  0  0  0  0  0  0  0
  -10.1624    2.6567   -7.1745 H   0  0  0  0  0  0  0  0  0  0  0  0
   -3.6139    5.2517  -16.1424 C   0  0  0  0  0  0  0  0  0  0  0  0
   -2.1096    7.0464  -16.6496 C   0  0  0  0  0  0  0  0  0  0  0  0
   -3.3648    6.6879  -16.0102 N   0  0  0  0  0  0  0  0  0  0  0  0
   -4.1262    7.2030  -16.4523 H   0  0  0  0  0  0  0  0  0  0  0  0
 30 31  1  0  0  0
 31 29  1  0  0  0
 29  1  1  0  0  0
  1  2  1  0  0  0
  2  3  2  0  0  0
  3  4  1  0  0  0
  4 15  1  0  0  0
 15 16  2  0  0  0
 15 17  1  0  0  0
 19 17  1  0  0  0
 19 20  1  0  0  0
 20 21  1  0  0  0
 22 21  1  0  0  0
 22 23  1  0  0  0
 23 24  1  0  0  0
 24 25  1  0  0  0
 26 25  1  0  0  0
 26 27  1  0  0  0
  4  5  2  0  0  0
  5  6  1  0  0  0
  6  7  2  0  0  0
  7  8  1  0  0  0
  8  9  2  0  0  0
  9 10  1  0  0  0
 10 11  1  0  0  0
 11 12  1  0  0  0
 12 13  1  0  0  0
  9  1  1  0  0  0
 13 10  1  0  0  0
  8  3  1  0  0  0
 27 19  1  0  0  0
 26 22  1  0  0  0
 31 32  1  0  0  0
 17 18  1  0  0  0
 24 28  1  0  0  0
 12 14  1  0  0  0
M  END
> <minimizedAffinity>
-9.12332

> <minimizedRMSD>
0.80345

$$$$
P26179


 36 40  0  0  0  0  0  0  0  0999 V2000
   -5.3719    5.2558  -20.2150 N   0  0  0  0  0  0  0  0  0  0  0  0
   -5.7679    5.1256  -18.9416 C   0  0  0  0  0  0  0  0  0  0  0  0
   -7.0485    4.7157  -18.6979 N   0  0  0  0  0  0  0  0  0  0  0  0
   -7.2639    4.6209  -17.3462 C   0  0  0  0  0  0  0  0  0  0  0  0
   -8.4069    4.2898  -16.6274 C   0  0  0  0  0  0  0  0  0  0  0  0
   -9.8615    3.9796  -17.4492 Cl  0  0  0  0  0  0  0  0  0  0  0  0
   -8.3599    4.3011  -15.2329 C   0  0  0  0  0  0  0  0  0  0  0  0
   -7.1800    4.6151  -14.5459 C   0  0  0  0  0  0  0  0  0  0  0  0
   -6.0494    4.9825  -15.3074 C   0  0  0  0  0  0  0  0  0  0  0  0
   -6.0828    4.9825  -16.7169 C   0  0  0  0  0  0  0  0  0  0  0  0
   -5.1355    5.3313  -17.7328 C   0  0  0  0  0  0  0  0  0  0  0  0
   -5.9967    5.0522  -20.9481 H   0  0  0  0  0  0  0  0  0  0  0  0
   -4.4561    5.5551  -20.4176 H   0  0  0  0  0  0  0  0  0  0  0  0
   -7.7188    4.5173  -19.3911 H   0  0  0  0  0  0  0  0  0  0  0  0
   -3.7563    5.8447  -17.4496 C   0  0  0  0  0  0  0  0  0  0  0  0
   -3.4963    7.2416  -18.0099 C   0  0  0  0  0  0  0  0  0  0  0  0
   -2.1627    7.7780  -17.4789 C   0  0  0  0  0  0  0  0  0  0  0  0
   -1.1456    6.7516  -17.2234 N   0  0  0  0  0  0  0  0  0  0  0  0
   -1.3165    5.5896  -18.0991 C   0  0  0  0  0  0  0  0  0  0  0  0
   -2.6439    4.8696  -17.8488 C   0  0  0  0  0  0  0  0  0  0  0  0
   -1.2193    6.4476  -16.2525 H   0  0  0  0  0  0  0  0  0  0  0  0
   -7.0955    4.6461  -13.0177 C   0  0  0  0  0  0  0  0  0  0  0  0
   -5.8407    3.9436  -12.5540 N   0  0  0  0  0  0  0  0  0  0  0  0
   -5.0576    4.7062  -11.9720 O   0  0  0  0  0  0  0  0  0  0  0  0
   -8.2833    4.0412  -12.4111 N   0  0  0  0  0  0  0  0  0  0  0  0
   -9.0061    3.6725  -12.9687 H   0  0  0  0  0  0  0  0  0  0  0  0
   -8.3594    4.0033  -11.0055 C   0  0  0  0  0  0  0  0  0  0  0  0
   -8.1392    5.1397  -10.2007 C   0  0  0  0  0  0  0  0  0  0  0  0
   -8.2418    5.0806   -8.8047 C   0  0  0  0  0  0  0  0  0  0  0  0
   -8.5960    3.8788   -8.2229 C   0  0  0  0  0  0  0  0  0  0  0  0
   -8.8470    2.7596   -9.0023 C   0  0  0  0  0  0  0  0  0  0  0  0
   -8.7509    2.8084  -10.3835 C   0  0  0  0  0  0  0  0  0  0  0  0
   -9.1739    1.6028   -8.1209 C   0  0  0  0  0  0  0  0  0  0  0  0
   -9.3744    2.1762   -6.7657 N   0  0  0  0  0  0  0  0  0  0  0  0
   -8.7776    3.5277   -6.7855 C   0  0  0  0  0  0  0  0  0  0  0  0
   -8.9100    1.5968   -6.0664 H   0  0  0  0  0  0  0  0  0  0  0  0
  1  2  1  0  0  0
  2  3  1  0  0  0
  3  4  1  0  0  0
  4  5  2  0  0  0
  5  6  1  0  0  0
  5  7  1  0  0  0
  7  8  2  0  0  0
  8 22  1  0  0  0
 22 23  1  0  0  0
 23 24  2  0  0  0
 22 25  1  0  0  0
 25 27  1  0  0  0
 27 28  2  0  0  0
 28 29  1  0  0  0
 29 30  2  0  0  0
 30 31  1  0  0  0
 31 32  2  0  0  0
 31 33  1  0  0  0
 33 34  1  0  0  0
 34 35  1  0  0  0
  8  9  1  0  0  0
  9 10  2  0  0  0
 10 11  1  0  0  0
 11 15  1  0  0  0
 15 16  1  0  0  0
 16 17  1  0  0  0
 17 18  1  0  0  0
 18 19  1  0  0  0
 19 20  1  0  0  0
 11  2  2  0  0  0
 20 15  1  0  0  0
 10  4  1  0  0  0
 32 27  1  0  0  0
 35 30  1  0  0  0
  1 12  1  0  0  0
  1 13  1  0  0  0
  3 14  1  0  0  0
 25 26  1  0  0  0
 34 36  1  0  0  0
 18 21  1  0  0  0
M  END
> <minimizedAffinity>
-9.86689

> <minimizedRMSD>
0.22161

$$$$
P26180


 35 39  0  0  0  0  0  0  0  0999 V2000
   -5.4385    5.0667  -20.4424 N   0  0  0  0  0  0  0  0  0  0  0  0
   -5.8146    4.9810  -19.1530 C   0  0  0  0  0  0  0  0  0  0  0  0
   -7.0709    4.5419  -18.8438 N   0  0  0  0  0  0  0  0  0  0  0  0
   -7.2521    4.5355  -17.4804 C   0  0  0  0  0  0  0  0  0  0  0  0
   -8.3736    4.2043  -16.7170 C   0  0  0  0  0  0  0  0  0  0  0  0
   -9.8216    3.7306  -17.4747 Cl  0  0  0  0  0  0  0  0  0  0  0  0
   -8.3324    4.3597  -15.3349 C   0  0  0  0  0  0  0  0  0  0  0  0
   -7.1712    4.8314  -14.7286 C   0  0  0  0  0  0  0  0  0  0  0  0
   -6.0338    5.1407  -15.4974 C   0  0  0  0  0  0  0  0  0  0  0  0
   -6.0698    4.9970  -16.9044 C   0  0  0  0  0  0  0  0  0  0  0  0
   -5.1556    5.2830  -17.9794 C   0  0  0  0  0  0  0  0  0  0  0  0
   -6.0618    4.7987  -21.1558 H   0  0  0  0  0  0  0  0  0  0  0  0
   -4.5401    5.3973  -20.6722 H   0  0  0  0  0  0  0  0  0  0  0  0
   -7.7496    4.2690  -19.5028 H   0  0  0  0  0  0  0  0  0  0  0  0
   -3.7720    5.8586  -17.8921 C   0  0  0  0  0  0  0  0  0  0  0  0
   -3.7738    7.2845  -17.3283 C   0  0  0  0  0  0  0  0  0  0  0  0
   -2.3559    7.8441  -17.2982 C   0  0  0  0  0  0  0  0  0  0  0  0
   -1.4566    6.9748  -16.5428 N   0  0  0  0  0  0  0  0  0  0  0  0
   -1.4065    5.6240  -17.1066 C   0  0  0  0  0  0  0  0  0  0  0  0
   -2.7872    4.9725  -17.1280 C   0  0  0  0  0  0  0  0  0  0  0  0
   -1.7844    6.9183  -15.5785 H   0  0  0  0  0  0  0  0  0  0  0  0
   -7.1780    5.1915  -13.2818 C   0  0  0  0  0  0  0  0  0  0  0  0
   -6.7208    6.2227  -12.9763 O   0  0  0  0  0  0  0  0  0  0  0  0
   -7.9067    4.1244  -12.4283 N   0  0  0  0  0  0  0  0  0  0  0  0
   -8.2698    3.3654  -12.9395 H   0  0  0  0  0  0  0  0  0  0  0  0
   -8.1325    4.0636  -11.0531 C   0  0  0  0  0  0  0  0  0  0  0  0
   -7.9780    5.2014  -10.2455 C   0  0  0  0  0  0  0  0  0  0  0  0
   -8.2090    5.1400   -8.8670 C   0  0  0  0  0  0  0  0  0  0  0  0
   -8.5889    3.9291   -8.3179 C   0  0  0  0  0  0  0  0  0  0  0  0
   -8.7438    2.8013   -9.1134 C   0  0  0  0  0  0  0  0  0  0  0  0
   -8.5300    2.8501  -10.4835 C   0  0  0  0  0  0  0  0  0  0  0  0
   -9.1084    1.6373   -8.2548 C   0  0  0  0  0  0  0  0  0  0  0  0
   -9.3747    2.1899   -6.9011 N   0  0  0  0  0  0  0  0  0  0  0  0
   -8.8709    3.5790   -6.8970 C   0  0  0  0  0  0  0  0  0  0  0  0
   -8.8875    1.6381   -6.1950 H   0  0  0  0  0  0  0  0  0  0  0  0
  1  2  1  0  0  0
  2  3  1  0  0  0
  3  4  1  0  0  0
  4  5  2  0  0  0
  5  6  1  0  0  0
  5  7  1  0  0  0
  7  8  2  0  0  0
  8 22  1  0  0  0
 22 23  2  0  0  0
 22 24  1  0  0  0
 24 26  1  0  0  0
 26 27  2  0  0  0
 27 28  1  0  0  0
 28 29  2  0  0  0
 29 30  1  0  0  0
 30 31  2  0  0  0
 30 32  1  0  0  0
 32 33  1  0  0  0
 33 34  1  0  0  0
  8  9  1  0  0  0
  9 10  2  0  0  0
 10 11  1  0  0  0
 11 15  1  0  0  0
 15 16  1  0  0  0
 16 17  1  0  0  0
 17 18  1  0  0  0
 18 19  1  0  0  0
 19 20  1  0  0  0
 11  2  2  0  0  0
 20 15  1  0  0  0
 10  4  1  0  0  0
 31 26  1  0  0  0
 34 29  1  0  0  0
  1 12  1  0  0  0
  1 13  1  0  0  0
  3 14  1  0  0  0
 24 25  1  0  0  0
 33 35  1  0  0  0
 18 21  1  0  0  0
M  END
> <minimizedAffinity>
-10.11812

> <minimizedRMSD>
0.25174

$$$$
P26191


 35 39  0  0  0  0  0  0  0  0999 V2000
   -5.5089    4.9512  -20.3744 N   0  0  0  0  0  0  0  0  0  0  0  0
   -5.9596    4.8624  -19.1171 C   0  0  0  0  0  0  0  0  0  0  0  0
   -7.2253    4.4097  -18.8834 N   0  0  0  0  0  0  0  0  0  0  0  0
   -7.4706    4.4012  -17.5340 C   0  0  0  0  0  0  0  0  0  0  0  0
   -8.6167    4.0316  -16.8304 C   0  0  0  0  0  0  0  0  0  0  0  0
   -9.6894    3.5465  -17.4689 F   0  0  0  0  0  0  0  0  0  0  0  0
   -8.6566    4.2358  -15.4551 C   0  0  0  0  0  0  0  0  0  0  0  0
   -7.5506    4.7802  -14.8042 C   0  0  0  0  0  0  0  0  0  0  0  0
   -6.3768    5.0962  -15.5090 C   0  0  0  0  0  0  0  0  0  0  0  0
   -6.3318    4.9117  -16.9049 C   0  0  0  0  0  0  0  0  0  0  0  0
   -5.3618    5.1949  -17.9231 C   0  0  0  0  0  0  0  0  0  0  0  0
   -6.0794    4.6632  -21.1233 H   0  0  0  0  0  0  0  0  0  0  0  0
   -4.6070    5.3046  -20.5503 H   0  0  0  0  0  0  0  0  0  0  0  0
   -7.8653    4.1314  -19.5779 H   0  0  0  0  0  0  0  0  0  0  0  0
   -3.9988    5.8186  -17.7960 C   0  0  0  0  0  0  0  0  0  0  0  0
   -4.0643    7.2870  -17.3604 C   0  0  0  0  0  0  0  0  0  0  0  0
   -2.6626    7.8878  -17.3145 C   0  0  0  0  0  0  0  0  0  0  0  0
   -1.7793    7.1199  -16.4384 N   0  0  0  0  0  0  0  0  0  0  0  0
   -1.6731    5.7239  -16.8685 C   0  0  0  0  0  0  0  0  0  0  0  0
   -3.0365    5.0347  -16.9034 C   0  0  0  0  0  0  0  0  0  0  0  0
   -2.1507    7.1462  -15.4888 H   0  0  0  0  0  0  0  0  0  0  0  0
   -7.6206    5.1809  -13.3739 C   0  0  0  0  0  0  0  0  0  0  0  0
   -7.3747    6.2905  -13.1051 O   0  0  0  0  0  0  0  0  0  0  0  0
   -7.9938    3.9892  -12.4645 N   0  0  0  0  0  0  0  0  0  0  0  0
   -8.0808    3.1264  -12.9307 H   0  0  0  0  0  0  0  0  0  0  0  0
   -8.2271    3.9365  -11.0924 C   0  0  0  0  0  0  0  0  0  0  0  0
   -8.0542    5.0724  -10.2850 C   0  0  0  0  0  0  0  0  0  0  0  0
   -8.2555    5.0074   -8.9024 C   0  0  0  0  0  0  0  0  0  0  0  0
   -8.6301    3.7960   -8.3514 C   0  0  0  0  0  0  0  0  0  0  0  0
   -8.8055    2.6720   -9.1486 C   0  0  0  0  0  0  0  0  0  0  0  0
   -8.6148    2.7229  -10.5209 C   0  0  0  0  0  0  0  0  0  0  0  0
   -9.1534    1.5052   -8.2878 C   0  0  0  0  0  0  0  0  0  0  0  0
   -9.4157    2.0595   -6.9346 N   0  0  0  0  0  0  0  0  0  0  0  0
   -8.8820    3.4372   -6.9268 C   0  0  0  0  0  0  0  0  0  0  0  0
   -8.9442    1.4962   -6.2270 H   0  0  0  0  0  0  0  0  0  0  0  0
  1  2  1  0  0  0
  2  3  1  0  0  0
  3  4  1  0  0  0
  4  5  2  0  0  0
  5  6  1  0  0  0
  5  7  1  0  0  0
  7  8  2  0  0  0
  8 22  1  0  0  0
 22 23  2  0  0  0
 22 24  1  0  0  0
 24 26  1  0  0  0
 26 27  2  0  0  0
 27 28  1  0  0  0
 28 29  2  0  0  0
 29 30  1  0  0  0
 30 31  2  0  0  0
 30 32  1  0  0  0
 32 33  1  0  0  0
 33 34  1  0  0  0
  8  9  1  0  0  0
  9 10  2  0  0  0
 10 11  1  0  0  0
 11 15  1  0  0  0
 15 16  1  0  0  0
 16 17  1  0  0  0
 17 18  1  0  0  0
 18 19  1  0  0  0
 19 20  1  0  0  0
 11  2  2  0  0  0
 20 15  1  0  0  0
 10  4  1  0  0  0
 31 26  1  0  0  0
 34 29  1  0  0  0
  1 12  1  0  0  0
  1 13  1  0  0  0
  3 14  1  0  0  0
 24 25  1  0  0  0
 33 35  1  0  0  0
 18 21  1  0  0  0
M  END
> <minimizedAffinity>
-10.33013

> <minimizedRMSD>
0.25400

$$$$
P26194


 32 37  0  0  0  0  0  0  0  0999 V2000
   -7.2782    4.6961  -14.1988 C   0  0  0  0  0  0  0  0  0  0  0  0
   -8.5102    4.2467  -14.7875 C   0  0  0  0  0  0  0  0  0  0  0  0
   -8.5372    4.1961  -16.1800 C   0  0  0  0  0  0  0  0  0  0  0  0
   -9.4269    3.9610  -17.2224 N   0  0  0  0  0  0  0  0  0  0  0  0
   -8.7444    4.2339  -18.3598 C   0  0  0  0  0  0  0  0  0  0  0  0
   -7.4873    4.5450  -18.0513 N   0  0  0  0  0  0  0  0  0  0  0  0
   -6.3606    4.9750  -18.6292 C   0  0  0  0  0  0  0  0  0  0  0  0
   -5.4678    5.2230  -17.5423 C   0  0  0  0  0  0  0  0  0  0  0  0
   -6.1810    4.9522  -16.3188 C   0  0  0  0  0  0  0  0  0  0  0  0
   -6.0903    5.0309  -14.9336 C   0  0  0  0  0  0  0  0  0  0  0  0
   -7.3763    4.5433  -16.7619 C   0  0  0  0  0  0  0  0  0  0  0  0
   -4.0623    5.7440  -17.5400 C   0  0  0  0  0  0  0  0  0  0  0  0
   -3.9601    7.1214  -18.2144 C   0  0  0  0  0  0  0  0  0  0  0  0
   -2.5366    7.4275  -18.6811 C   0  0  0  0  0  0  0  0  0  0  0  0
   -1.5354    6.8333  -17.8003 N   0  0  0  0  0  0  0  0  0  0  0  0
   -1.6051    5.3626  -17.8334 C   0  0  0  0  0  0  0  0  0  0  0  0
   -3.0090    4.7894  -18.0835 C   0  0  0  0  0  0  0  0  0  0  0  0
   -1.6997    7.1531  -16.8458 H   0  0  0  0  0  0  0  0  0  0  0  0
   -6.4785    5.8264  -12.3929 O   0  0  0  0  0  0  0  0  0  0  0  0
   -7.2141    4.9924  -12.7473 C   0  0  0  0  0  0  0  0  0  0  0  0
   -8.1021    4.0315  -11.9333 N   0  0  0  0  0  0  0  0  0  0  0  0
   -8.5816    3.3595  -12.4697 H   0  0  0  0  0  0  0  0  0  0  0  0
   -8.3362    3.9588  -10.5652 C   0  0  0  0  0  0  0  0  0  0  0  0
   -8.0822    5.0632   -9.7349 C   0  0  0  0  0  0  0  0  0  0  0  0
   -8.2705    4.9785   -8.3536 C   0  0  0  0  0  0  0  0  0  0  0  0
   -8.7182    3.7809   -7.8299 C   0  0  0  0  0  0  0  0  0  0  0  0
   -8.9718    2.6886   -8.6515 C   0  0  0  0  0  0  0  0  0  0  0  0
   -8.7910    2.7577  -10.0226 C   0  0  0  0  0  0  0  0  0  0  0  0
   -9.3784    1.5259   -7.8128 C   0  0  0  0  0  0  0  0  0  0  0  0
   -9.6240    2.0742   -6.4547 N   0  0  0  0  0  0  0  0  0  0  0  0
   -8.9833    3.4046   -6.4127 C   0  0  0  0  0  0  0  0  0  0  0  0
   -9.2125    1.4633   -5.7491 H   0  0  0  0  0  0  0  0  0  0  0  0
 19 20  2  0  0  0
 20 21  1  0  0  0
 21 23  1  0  0  0
 23 24  2  0  0  0
 24 25  1  0  0  0
 25 26  2  0  0  0
 26 27  1  0  0  0
 27 28  2  0  0  0
 27 29  1  0  0  0
 29 30  1  0  0  0
 30 31  1  0  0  0
 20  1  1  0  0  0
  1  2  2  0  0  0
  2  3  1  0  0  0
  3  4  1  0  0  0
  4  5  2  0  0  0
  5  6  1  0  0  0
  6  7  1  0  0  0
  7  8  2  0  0  0
  8 12  1  0  0  0
 12 13  1  0  0  0
 13 14  1  0  0  0
 14 15  1  0  0  0
 15 16  1  0  0  0
 16 17  1  0  0  0
  8  9  1  0  0  0
  9 10  2  0  0  0
  9 11  1  0  0  0
 28 23  1  0  0  0
 10  1  1  0  0  0
 31 26  1  0  0  0
 11  3  2  0  0  0
 11  6  1  0  0  0
 17 12  1  0  0  0
 21 22  1  0  0  0
 30 32  1  0  0  0
 15 18  1  0  0  0
M  END
> <minimizedAffinity>
-10.35863

> <minimizedRMSD>
0.45543

$$$$
P26195


 35 39  0  0  0  0  0  0  0  0999 V2000
   -7.6446    4.6641  -14.8094 C   0  0  0  0  0  0  0  0  0  0  0  0
   -8.7292    4.2803  -15.6081 C   0  0  0  0  0  0  0  0  0  0  0  0
   -8.6159    4.1686  -16.9965 C   0  0  0  0  0  0  0  0  0  0  0  0
   -9.6869    3.8254  -17.7213 F   0  0  0  0  0  0  0  0  0  0  0  0
   -7.4050    4.4956  -17.6045 C   0  0  0  0  0  0  0  0  0  0  0  0
   -7.0362    4.5505  -18.9270 N   0  0  0  0  0  0  0  0  0  0  0  0
   -5.7356    4.9872  -19.0290 C   0  0  0  0  0  0  0  0  0  0  0  0
   -5.2491    5.2280  -17.7599 C   0  0  0  0  0  0  0  0  0  0  0  0
   -6.3023    4.8924  -16.8560 C   0  0  0  0  0  0  0  0  0  0  0  0
   -6.4233    4.9489  -15.4540 C   0  0  0  0  0  0  0  0  0  0  0  0
   -7.6154    4.3132  -19.6870 H   0  0  0  0  0  0  0  0  0  0  0  0
   -3.9063    5.7672  -17.3544 C   0  0  0  0  0  0  0  0  0  0  0  0
   -3.6532    7.1941  -17.8386 C   0  0  0  0  0  0  0  0  0  0  0  0
   -2.3465    7.7343  -17.2467 C   0  0  0  0  0  0  0  0  0  0  0  0
   -1.3298    6.7099  -16.9942 N   0  0  0  0  0  0  0  0  0  0  0  0
   -1.4329    5.5959  -17.9337 C   0  0  0  0  0  0  0  0  0  0  0  0
   -2.7491    4.8391  -17.7496 C   0  0  0  0  0  0  0  0  0  0  0  0
   -1.4494    6.3535  -16.0460 H   0  0  0  0  0  0  0  0  0  0  0  0
   -8.8640    5.8456  -13.1850 O   0  0  0  0  0  0  0  0  0  0  0  0
   -7.7896    4.9424  -13.3232 C   0  0  0  0  0  0  0  0  0  0  0  0
   -6.6103    5.5434  -12.8501 O   0  0  0  0  0  0  0  0  0  0  0  0
   -9.7249    5.5946  -13.4567 H   0  0  0  0  0  0  0  0  0  0  0  0
   -5.8017    5.0705  -12.8729 H   0  0  0  0  0  0  0  0  0  0  0  0
   -8.0074    3.7841  -12.5091 N   0  0  0  0  0  0  0  0  0  0  0  0
   -7.9634    2.8971  -12.9340 H   0  0  0  0  0  0  0  0  0  0  0  0
   -8.2810    3.8541  -11.1325 C   0  0  0  0  0  0  0  0  0  0  0  0
   -8.0036    4.9759  -10.3167 C   0  0  0  0  0  0  0  0  0  0  0  0
   -8.2185    4.9690   -8.9320 C   0  0  0  0  0  0  0  0  0  0  0  0
   -8.6966    3.8126   -8.3580 C   0  0  0  0  0  0  0  0  0  0  0  0
   -8.9331    2.6838   -9.1316 C   0  0  0  0  0  0  0  0  0  0  0  0
   -8.7370    2.6902  -10.5029 C   0  0  0  0  0  0  0  0  0  0  0  0
   -9.3456    1.5664   -8.2352 C   0  0  0  0  0  0  0  0  0  0  0  0
   -9.7840    2.2332   -6.9811 N   0  0  0  0  0  0  0  0  0  0  0  0
   -9.0215    3.5021   -6.9358 C   0  0  0  0  0  0  0  0  0  0  0  0
   -9.5643    1.6537   -6.1710 H   0  0  0  0  0  0  0  0  0  0  0  0
 19 20  1  0  0  0
 20 21  1  0  0  0
 20 24  1  0  0  0
 24 26  1  0  0  0
 26 27  2  0  0  0
 27 28  1  0  0  0
 28 29  2  0  0  0
 29 30  1  0  0  0
 30 31  2  0  0  0
 30 32  1  0  0  0
 32 33  1  0  0  0
 33 34  1  0  0  0
 20  1  1  0  0  0
  1  2  2  0  0  0
  2  3  1  0  0  0
  3  4  1  0  0  0
  3  5  2  0  0  0
  5  6  1  0  0  0
  6  7  1  0  0  0
  7  8  2  0  0  0
  8 12  1  0  0  0
 12 13  1  0  0  0
 13 14  1  0  0  0
 14 15  1  0  0  0
 15 16  1  0  0  0
 16 17  1  0  0  0
  8  9  1  0  0  0
  9 10  2  0  0  0
 31 26  1  0  0  0
 10  1  1  0  0  0
 34 29  1  0  0  0
  9  5  1  0  0  0
 17 12  1  0  0  0
 19 22  1  0  0  0
 21 23  1  0  0  0
 24 25  1  0  0  0
 33 35  1  0  0  0
  6 11  1  0  0  0
 15 18  1  0  0  0
M  END
> <minimizedAffinity>
-10.10514

> <minimizedRMSD>
0.29977

$$$$
P26196


 36 40  0  0  0  0  0  0  0  0999 V2000
   -5.1110    5.3812  -18.9184 C   0  0  0  0  0  0  0  0  0  0  0  0
   -6.3840    4.9312  -19.2523 N   0  0  0  0  0  0  0  0  0  0  0  0
   -7.1196    4.6547  -18.1208 C   0  0  0  0  0  0  0  0  0  0  0  0
   -8.4500    4.2493  -17.9445 C   0  0  0  0  0  0  0  0  0  0  0  0
   -9.2353    4.0088  -18.9983 F   0  0  0  0  0  0  0  0  0  0  0  0
   -8.9944    4.1947  -16.6561 C   0  0  0  0  0  0  0  0  0  0  0  0
   -8.1979    4.5153  -15.5653 C   0  0  0  0  0  0  0  0  0  0  0  0
   -6.8420    4.8229  -15.7375 C   0  0  0  0  0  0  0  0  0  0  0  0
   -6.2995    4.9233  -17.0336 C   0  0  0  0  0  0  0  0  0  0  0  0
   -5.0291    5.3640  -17.5261 C   0  0  0  0  0  0  0  0  0  0  0  0
   -6.7149    4.8247  -20.1734 H   0  0  0  0  0  0  0  0  0  0  0  0
   -3.9097    5.7876  -16.6101 C   0  0  0  0  0  0  0  0  0  0  0  0
   -3.7527    7.2926  -16.4176 C   0  0  0  0  0  0  0  0  0  0  0  0
   -2.7248    7.5833  -15.3214 C   0  0  0  0  0  0  0  0  0  0  0  0
   -1.6015    6.6408  -15.2610 N   0  0  0  0  0  0  0  0  0  0  0  0
   -1.3748    5.9517  -16.5280 C   0  0  0  0  0  0  0  0  0  0  0  0
   -2.5770    5.0967  -16.9308 C   0  0  0  0  0  0  0  0  0  0  0  0
   -1.7979    5.9448  -14.5417 H   0  0  0  0  0  0  0  0  0  0  0  0
   -2.8497    4.6260  -20.4884 C   0  0  0  0  0  0  0  0  0  0  0  0
   -4.0140    5.9258  -20.2177 S   0  0  0  0  0  0  0  0  0  0  0  0
   -4.8322    5.9991  -21.4006 O   0  0  0  0  0  0  0  0  0  0  0  0
   -3.3439    7.0913  -19.6763 O   0  0  0  0  0  0  0  0  0  0  0  0
   -8.7427    4.7794  -14.2101 C   0  0  0  0  0  0  0  0  0  0  0  0
   -9.5331    5.6342  -14.1206 O   0  0  0  0  0  0  0  0  0  0  0  0
   -8.0860    3.9071  -13.1217 N   0  0  0  0  0  0  0  0  0  0  0  0
   -7.4991    3.1943  -13.4633 H   0  0  0  0  0  0  0  0  0  0  0  0
   -8.1880    3.9634  -11.7307 C   0  0  0  0  0  0  0  0  0  0  0  0
   -7.8475    5.1375  -11.0350 C   0  0  0  0  0  0  0  0  0  0  0  0
   -7.9225    5.1989   -9.6395 C   0  0  0  0  0  0  0  0  0  0  0  0
   -8.3455    4.0738   -8.9588 C   0  0  0  0  0  0  0  0  0  0  0  0
   -8.6760    2.9089   -9.6405 C   0  0  0  0  0  0  0  0  0  0  0  0
   -8.6033    2.8338  -11.0247 C   0  0  0  0  0  0  0  0  0  0  0  0
   -9.0529    1.8543   -8.6548 C   0  0  0  0  0  0  0  0  0  0  0  0
   -9.1765    2.5449   -7.3454 N   0  0  0  0  0  0  0  0  0  0  0  0
   -8.5228    3.8610   -7.4943 C   0  0  0  0  0  0  0  0  0  0  0  0
   -8.7122    2.0025   -6.6170 H   0  0  0  0  0  0  0  0  0  0  0  0
 19 20  1  0  0  0
 20 21  2  0  0  0
 20 22  2  0  0  0
 20  1  1  0  0  0
  1  2  1  0  0  0
  2  3  1  0  0  0
  3  4  2  0  0  0
  4  5  1  0  0  0
  4  6  1  0  0  0
  6  7  2  0  0  0
  7 23  1  0  0  0
 23 24  2  0  0  0
 23 25  1  0  0  0
 25 27  1  0  0  0
 27 28  2  0  0  0
 28 29  1  0  0  0
 29 30  2  0  0  0
 30 31  1  0  0  0
 31 32  2  0  0  0
 31 33  1  0  0  0
 33 34  1  0  0  0
 34 35  1  0  0  0
  7  8  1  0  0  0
  8  9  2  0  0  0
  9 10  1  0  0  0
 10 12  1  0  0  0
 12 13  1  0  0  0
 13 14  1  0  0  0
 14 15  1  0  0  0
 15 16  1  0  0  0
 16 17  1  0  0  0
 10  1  2  0  0  0
 17 12  1  0  0  0
  9  3  1  0  0  0
 32 27  1  0  0  0
 35 30  1  0  0  0
  2 11  1  0  0  0
 25 26  1  0  0  0
 34 36  1  0  0  0
 15 18  1  0  0  0
M  END
> <minimizedAffinity>
-10.70069

> <minimizedRMSD>
0.96836

$$$$
P26201


 34 38  0  0  0  0  0  0  0  0999 V2000
   -7.6018    4.7813  -14.7530 C   0  0  0  0  0  0  0  0  0  0  0  0
   -8.6792    4.3055  -15.4949 C   0  0  0  0  0  0  0  0  0  0  0  0
   -8.5583    4.1477  -16.8750 C   0  0  0  0  0  0  0  0  0  0  0  0
   -9.6085    3.7289  -17.5897 F   0  0  0  0  0  0  0  0  0  0  0  0
   -7.3608    4.4938  -17.5030 C   0  0  0  0  0  0  0  0  0  0  0  0
   -7.0244    4.5243  -18.8360 N   0  0  0  0  0  0  0  0  0  0  0  0
   -5.7325    4.9652  -18.9792 C   0  0  0  0  0  0  0  0  0  0  0  0
   -5.2197    5.2476  -17.7287 C   0  0  0  0  0  0  0  0  0  0  0  0
   -6.2542    4.9439  -16.7822 C   0  0  0  0  0  0  0  0  0  0  0  0
   -6.3765    5.0796  -15.3808 C   0  0  0  0  0  0  0  0  0  0  0  0
   -5.3129    5.5720  -14.6553 O   0  0  0  0  0  0  0  0  0  0  0  0
   -7.6206    4.2684  -19.5765 H   0  0  0  0  0  0  0  0  0  0  0  0
   -4.5030    5.7665  -15.0846 H   0  0  0  0  0  0  0  0  0  0  0  0
   -3.8651    5.7992  -17.3899 C   0  0  0  0  0  0  0  0  0  0  0  0
   -3.5938    7.1862  -17.9667 C   0  0  0  0  0  0  0  0  0  0  0  0
   -2.2845    7.7414  -17.3910 C   0  0  0  0  0  0  0  0  0  0  0  0
   -1.2650    6.7284  -17.0855 N   0  0  0  0  0  0  0  0  0  0  0  0
   -1.3989    5.5622  -17.9632 C   0  0  0  0  0  0  0  0  0  0  0  0
   -2.7252    4.8310  -17.7388 C   0  0  0  0  0  0  0  0  0  0  0  0
   -1.3724    6.4297  -16.1162 H   0  0  0  0  0  0  0  0  0  0  0  0
   -7.4674    6.2632  -13.0572 O   0  0  0  0  0  0  0  0  0  0  0  0
   -7.7505    5.1617  -13.3264 C   0  0  0  0  0  0  0  0  0  0  0  0
   -8.2344    4.0057  -12.4280 N   0  0  0  0  0  0  0  0  0  0  0  0
   -8.4830    3.1847  -12.9111 H   0  0  0  0  0  0  0  0  0  0  0  0
   -8.3770    3.9337  -11.0443 C   0  0  0  0  0  0  0  0  0  0  0  0
   -8.0667    5.0407  -10.2328 C   0  0  0  0  0  0  0  0  0  0  0  0
   -8.2215    4.9843   -8.8443 C   0  0  0  0  0  0  0  0  0  0  0  0
   -8.6844    3.8071   -8.2924 C   0  0  0  0  0  0  0  0  0  0  0  0
   -8.9612    2.7002   -9.0910 C   0  0  0  0  0  0  0  0  0  0  0  0
   -8.8223    2.7455  -10.4678 C   0  0  0  0  0  0  0  0  0  0  0  0
   -9.3639    1.5651   -8.2111 C   0  0  0  0  0  0  0  0  0  0  0  0
   -9.7485    2.2025   -6.9255 N   0  0  0  0  0  0  0  0  0  0  0  0
   -8.9680    3.4595   -6.8690 C   0  0  0  0  0  0  0  0  0  0  0  0
   -9.5096    1.5970   -6.1401 H   0  0  0  0  0  0  0  0  0  0  0  0
 21 22  2  0  0  0
 22 23  1  0  0  0
 23 25  1  0  0  0
 25 26  2  0  0  0
 26 27  1  0  0  0
 27 28  2  0  0  0
 28 29  1  0  0  0
 29 30  2  0  0  0
 29 31  1  0  0  0
 31 32  1  0  0  0
 32 33  1  0  0  0
 22  1  1  0  0  0
  1  2  2  0  0  0
  2  3  1  0  0  0
  3  4  1  0  0  0
  3  5  2  0  0  0
  5  6  1  0  0  0
  6  7  1  0  0  0
  7  8  2  0  0  0
  8 14  1  0  0  0
 14 15  1  0  0  0
 15 16  1  0  0  0
 16 17  1  0  0  0
 17 18  1  0  0  0
 18 19  1  0  0  0
  8  9  1  0  0  0
  9 10  2  0  0  0
 10 11  1  0  0  0
 30 25  1  0  0  0
 10  1  1  0  0  0
 33 28  1  0  0  0
  9  5  1  0  0  0
 19 14  1  0  0  0
 23 24  1  0  0  0
 32 34  1  0  0  0
  6 12  1  0  0  0
 17 20  1  0  0  0
 11 13  1  0  0  0
M  END
> <minimizedAffinity>
-9.96925

> <minimizedRMSD>
0.29116

$$$$
P26204


 37 42  0  0  0  0  0  0  0  0999 V2000
   -5.5421    4.0154  -13.0769 O   0  0  0  0  0  0  0  0  0  0  0  0
   -6.5847    4.9264  -13.3829 C   0  0  0  0  0  0  0  0  0  0  0  0
   -6.0138    6.2149  -13.2204 O   0  0  0  0  0  0  0  0  0  0  0  0
   -5.6987    3.0926  -13.1199 H   0  0  0  0  0  0  0  0  0  0  0  0
   -6.5327    6.9799  -13.3736 H   0  0  0  0  0  0  0  0  0  0  0  0
   -7.5515    4.7380  -12.2805 C   0  0  0  0  0  0  0  0  0  0  0  0
   -7.7741    5.5247  -11.1604 C   0  0  0  0  0  0  0  0  0  0  0  0
   -8.2300    4.6771  -10.1243 C   0  0  0  0  0  0  0  0  0  0  0  0
   -8.3599    4.8271   -8.7284 C   0  0  0  0  0  0  0  0  0  0  0  0
   -8.7633    3.7102   -8.0090 C   0  0  0  0  0  0  0  0  0  0  0  0
   -9.0716    2.5127   -8.6381 C   0  0  0  0  0  0  0  0  0  0  0  0
   -8.9848    2.3511  -10.0079 C   0  0  0  0  0  0  0  0  0  0  0  0
   -8.5149    3.4489  -10.7196 C   0  0  0  0  0  0  0  0  0  0  0  0
   -8.1928    3.5462  -12.0513 N   0  0  0  0  0  0  0  0  0  0  0  0
   -9.4069    1.4860   -7.6143 C   0  0  0  0  0  0  0  0  0  0  0  0
   -9.5812    2.2312   -6.3443 N   0  0  0  0  0  0  0  0  0  0  0  0
   -8.9066    3.5325   -6.5353 C   0  0  0  0  0  0  0  0  0  0  0  0
   -8.3910    2.8665  -12.7353 H   0  0  0  0  0  0  0  0  0  0  0  0
   -9.1525    1.7203   -5.5726 H   0  0  0  0  0  0  0  0  0  0  0  0
   -6.9708    4.7867  -14.8353 C   0  0  0  0  0  0  0  0  0  0  0  0
   -8.2072    4.3791  -15.3378 C   0  0  0  0  0  0  0  0  0  0  0  0
   -8.4028    4.2348  -16.7184 C   0  0  0  0  0  0  0  0  0  0  0  0
   -9.5948    3.8384  -17.1819 F   0  0  0  0  0  0  0  0  0  0  0  0
   -7.3539    4.5239  -17.5977 C   0  0  0  0  0  0  0  0  0  0  0  0
   -7.2813    4.4943  -18.9683 N   0  0  0  0  0  0  0  0  0  0  0  0
   -6.0270    4.8781  -19.3759 C   0  0  0  0  0  0  0  0  0  0  0  0
   -5.2754    5.2110  -18.2698 C   0  0  0  0  0  0  0  0  0  0  0  0
   -6.1116    4.9527  -17.1415 C   0  0  0  0  0  0  0  0  0  0  0  0
   -5.9332    5.0696  -15.7574 C   0  0  0  0  0  0  0  0  0  0  0  0
   -8.0176    4.2368  -19.5688 H   0  0  0  0  0  0  0  0  0  0  0  0
   -3.8723    5.7591  -18.2930 C   0  0  0  0  0  0  0  0  0  0  0  0
   -3.7777    7.1380  -17.6209 C   0  0  0  0  0  0  0  0  0  0  0  0
   -2.3448    7.6614  -17.6434 C   0  0  0  0  0  0  0  0  0  0  0  0
   -1.4197    6.7130  -17.0265 N   0  0  0  0  0  0  0  0  0  0  0  0
   -1.4414    5.4242  -17.7223 C   0  0  0  0  0  0  0  0  0  0  0  0
   -2.8339    4.7981  -17.7016 C   0  0  0  0  0  0  0  0  0  0  0  0
   -1.6892    6.5703  -16.0531 H   0  0  0  0  0  0  0  0  0  0  0  0
  1  2  1  0  0  0
  2  3  1  0  0  0
  2 20  1  0  0  0
 20 21  2  0  0  0
 21 22  1  0  0  0
 22 23  1  0  0  0
 22 24  2  0  0  0
 24 25  1  0  0  0
 25 26  1  0  0  0
 26 27  2  0  0  0
 27 31  1  0  0  0
 31 32  1  0  0  0
 32 33  1  0  0  0
 33 34  1  0  0  0
 34 35  1  0  0  0
 35 36  1  0  0  0
 27 28  1  0  0  0
 28 29  2  0  0  0
  2  6  1  0  0  0
  6  7  2  0  0  0
  7  8  1  0  0  0
  8  9  2  0  0  0
  9 10  1  0  0  0
 10 11  2  0  0  0
 11 12  1  0  0  0
 12 13  2  0  0  0
 13 14  1  0  0  0
 11 15  1  0  0  0
 15 16  1  0  0  0
 16 17  1  0  0  0
 29 20  1  0  0  0
 14  6  1  0  0  0
 28 24  1  0  0  0
 13  8  1  0  0  0
 36 31  1  0  0  0
 17 10  1  0  0  0
  1  4  1  0  0  0
  3  5  1  0  0  0
 25 30  1  0  0  0
 34 37  1  0  0  0
 14 18  1  0  0  0
 16 19  1  0  0  0
M  END
> <minimizedAffinity>
-10.74291

> <minimizedRMSD>
0.26445

$$$$
P26205


 36 40  0  0  0  0  0  0  0  0999 V2000
   -6.8428    4.7508  -13.1921 C   0  0  0  0  0  0  0  0  0  0  0  0
   -5.6687    4.9572  -12.8929 N   0  0  0  0  0  0  0  0  0  0  0  0
   -8.4522    4.0813  -16.6138 C   0  0  0  0  0  0  0  0  0  0  0  0
   -8.2921    4.1650  -15.2254 C   0  0  0  0  0  0  0  0  0  0  0  0
   -7.1044    4.6630  -14.6951 C   0  0  0  0  0  0  0  0  0  0  0  0
   -6.1116    5.1005  -15.5925 C   0  0  0  0  0  0  0  0  0  0  0  0
   -6.2970    5.0308  -16.9820 C   0  0  0  0  0  0  0  0  0  0  0  0
   -7.4823    4.5366  -17.5146 C   0  0  0  0  0  0  0  0  0  0  0  0
   -7.6015    4.2991  -18.8835 N   0  0  0  0  0  0  0  0  0  0  0  0
   -6.9093    4.6270  -19.5021 H   0  0  0  0  0  0  0  0  0  0  0  0
   -8.3778    3.8036  -19.2314 H   0  0  0  0  0  0  0  0  0  0  0  0
  -10.3218    4.4559  -17.8512 C   0  0  0  0  0  0  0  0  0  0  0  0
   -9.5969    3.4952  -17.0927 O   0  0  0  0  0  0  0  0  0  0  0  0
   -8.1541    4.6499  -12.2664 N   0  0  0  0  0  0  0  0  0  0  0  0
   -9.0068    4.7461  -12.7489 H   0  0  0  0  0  0  0  0  0  0  0  0
   -8.2815    4.4485  -10.8914 C   0  0  0  0  0  0  0  0  0  0  0  0
   -8.1193    5.4834   -9.9544 C   0  0  0  0  0  0  0  0  0  0  0  0
   -8.2387    5.2596   -8.5773 C   0  0  0  0  0  0  0  0  0  0  0  0
   -8.5647    3.9889   -8.1467 C   0  0  0  0  0  0  0  0  0  0  0  0
   -8.7548    2.9592   -9.0557 C   0  0  0  0  0  0  0  0  0  0  0  0
   -8.6068    3.1675  -10.4196 C   0  0  0  0  0  0  0  0  0  0  0  0
   -9.0960    1.7062   -8.3226 C   0  0  0  0  0  0  0  0  0  0  0  0
   -9.3046    2.1045   -6.9061 N   0  0  0  0  0  0  0  0  0  0  0  0
   -8.7697    3.4752   -6.7635 C   0  0  0  0  0  0  0  0  0  0  0  0
   -8.8062    1.4669   -6.2852 H   0  0  0  0  0  0  0  0  0  0  0  0
   -5.4185    4.9541  -11.5258 O   0  0  0  0  0  0  0  0  0  0  0  0
   -4.4801    3.9811  -11.2241 C   0  0  0  0  0  0  0  0  0  0  0  0
   -4.0108    3.0953  -12.1224 C   0  0  0  0  0  0  0  0  0  0  0  0
   -3.0365    2.0867  -11.6161 C   0  0  0  0  0  0  0  0  0  0  0  0
   -2.4885    1.1000  -12.6176 C   0  0  0  0  0  0  0  0  0  0  0  0
   -2.6285    1.9906  -10.3858 N   0  0  0  0  0  0  0  0  0  0  0  0
   -3.1414    2.8954   -9.5013 C   0  0  0  0  0  0  0  0  0  0  0  0
   -2.9017    3.0139   -8.2129 N   0  0  0  0  0  0  0  0  0  0  0  0
   -3.6681    4.0732   -7.8451 C   0  0  0  0  0  0  0  0  0  0  0  0
   -4.3857    4.6408   -8.8108 N   0  0  0  0  0  0  0  0  0  0  0  0
   -4.0570    3.8843   -9.8950 N   0  0  0  0  0  0  0  0  0  0  0  0
 12 13  1  0  0  0
 13  3  1  0  0  0
  3  4  2  0  0  0
  4  5  1  0  0  0
  5  1  1  0  0  0
  1  2  2  0  0  0
  2 26  1  0  0  0
 26 27  1  0  0  0
 27 28  2  0  0  0
 28 29  1  0  0  0
 29 30  1  0  0  0
 29 31  2  0  0  0
 31 32  1  0  0  0
 32 33  2  0  0  0
 33 34  1  0  0  0
 34 35  2  0  0  0
 35 36  1  0  0  0
  1 14  1  0  0  0
 14 16  1  0  0  0
 16 17  2  0  0  0
 17 18  1  0  0  0
 18 19  2  0  0  0
 19 20  1  0  0  0
 20 21  2  0  0  0
 20 22  1  0  0  0
 22 23  1  0  0  0
 23 24  1  0  0  0
  5  6  2  0  0  0
  6  7  1  0  0  0
  7  8  2  0  0  0
  8  9  1  0  0  0
  8  3  1  0  0  0
 36 27  1  0  0  0
 21 16  1  0  0  0
 36 32  1  0  0  0
 24 19  1  0  0  0
 14 15  1  0  0  0
 23 25  1  0  0  0
  9 10  1  0  0  0
  9 11  1  0  0  0
M  END
> <minimizedAffinity>
-8.62681

> <minimizedRMSD>
2.38647

$$$$
P26206


 33 37  0  0  0  0  0  0  0  0999 V2000
   -8.0497    4.6427  -15.3208 C   0  0  0  0  0  0  0  0  0  0  0  0
   -8.8425    4.1905  -16.3723 C   0  0  0  0  0  0  0  0  0  0  0  0
   -8.3178    4.1476  -17.6639 C   0  0  0  0  0  0  0  0  0  0  0  0
   -9.0888    3.7414  -18.6795 F   0  0  0  0  0  0  0  0  0  0  0  0
   -7.0094    4.5876  -17.8881 C   0  0  0  0  0  0  0  0  0  0  0  0
   -6.3015    4.7492  -19.0578 N   0  0  0  0  0  0  0  0  0  0  0  0
   -5.0553    5.2280  -18.7702 C   0  0  0  0  0  0  0  0  0  0  0  0
   -3.7171    5.6302  -20.0639 Br  0  0  0  0  0  0  0  0  0  0  0  0
   -4.9227    5.3993  -17.4093 C   0  0  0  0  0  0  0  0  0  0  0  0
   -6.1801    5.0051  -16.8431 C   0  0  0  0  0  0  0  0  0  0  0  0
   -6.7125    5.0160  -15.5377 C   0  0  0  0  0  0  0  0  0  0  0  0
   -6.6407    4.5507  -19.9605 H   0  0  0  0  0  0  0  0  0  0  0  0
   -3.7078    5.9439  -16.7078 C   0  0  0  0  0  0  0  0  0  0  0  0
   -3.8967    7.3861  -16.2289 C   0  0  0  0  0  0  0  0  0  0  0  0
   -2.6010    7.9022  -15.6096 C   0  0  0  0  0  0  0  0  0  0  0  0
   -2.1471    7.0374  -14.5219 N   0  0  0  0  0  0  0  0  0  0  0  0
   -1.9321    5.6600  -14.9696 C   0  0  0  0  0  0  0  0  0  0  0  0
   -3.2005    5.0567  -15.5702 C   0  0  0  0  0  0  0  0  0  0  0  0
   -2.8522    7.0378  -13.7848 H   0  0  0  0  0  0  0  0  0  0  0  0
   -9.4232    5.7559  -13.8904 O   0  0  0  0  0  0  0  0  0  0  0  0
   -8.6155    4.9158  -13.9715 C   0  0  0  0  0  0  0  0  0  0  0  0
   -8.0036    4.0063  -12.8827 N   0  0  0  0  0  0  0  0  0  0  0  0
   -7.3881    3.3161  -13.2203 H   0  0  0  0  0  0  0  0  0  0  0  0
   -8.1812    4.0039  -11.4981 C   0  0  0  0  0  0  0  0  0  0  0  0
   -7.9640    5.1695  -10.7438 C   0  0  0  0  0  0  0  0  0  0  0  0
   -8.1272    5.1695   -9.3543 C   0  0  0  0  0  0  0  0  0  0  0  0
   -8.5118    3.9924   -8.7403 C   0  0  0  0  0  0  0  0  0  0  0  0
   -8.7259    2.8369   -9.4813 C   0  0  0  0  0  0  0  0  0  0  0  0
   -8.5684    2.8230  -10.8602 C   0  0  0  0  0  0  0  0  0  0  0  0
   -9.0872    1.7212   -8.5592 C   0  0  0  0  0  0  0  0  0  0  0  0
   -9.3132    2.3451   -7.2297 N   0  0  0  0  0  0  0  0  0  0  0  0
   -8.7504    3.7093   -7.2967 C   0  0  0  0  0  0  0  0  0  0  0  0
   -8.8410    1.8058   -6.5041 H   0  0  0  0  0  0  0  0  0  0  0  0
 20 21  2  0  0  0
 21 22  1  0  0  0
 22 24  1  0  0  0
 24 25  2  0  0  0
 25 26  1  0  0  0
 26 27  2  0  0  0
 27 28  1  0  0  0
 28 29  2  0  0  0
 28 30  1  0  0  0
 30 31  1  0  0  0
 31 32  1  0  0  0
 21  1  1  0  0  0
  1  2  2  0  0  0
  2  3  1  0  0  0
  3  4  1  0  0  0
  3  5  2  0  0  0
  5  6  1  0  0  0
  6  7  1  0  0  0
  7  8  1  0  0  0
  7  9  2  0  0  0
  9 13  1  0  0  0
 13 14  1  0  0  0
 14 15  1  0  0  0
 15 16  1  0  0  0
 16 17  1  0  0  0
 17 18  1  0  0  0
  9 10  1  0  0  0
 10 11  2  0  0  0
 29 24  1  0  0  0
 11  1  1  0  0  0
 32 27  1  0  0  0
 10  5  1  0  0  0
 18 13  1  0  0  0
 22 23  1  0  0  0
 31 33  1  0  0  0
  6 12  1  0  0  0
 16 19  1  0  0  0
M  END
> <minimizedAffinity>
-10.59077

> <minimizedRMSD>
1.00906

$$$$
P26208


 35 39  0  0  0  0  0  0  0  0999 V2000
   -5.1893    5.3243  -14.8479 N   0  0  0  0  0  0  0  0  0  0  0  0
   -6.3596    4.9553  -15.5288 C   0  0  0  0  0  0  0  0  0  0  0  0
   -7.5601    4.7423  -14.7947 C   0  0  0  0  0  0  0  0  0  0  0  0
   -8.7175    4.2592  -15.3930 C   0  0  0  0  0  0  0  0  0  0  0  0
   -8.7403    4.0550  -16.7600 C   0  0  0  0  0  0  0  0  0  0  0  0
   -9.8552    3.6054  -17.3467 F   0  0  0  0  0  0  0  0  0  0  0  0
   -7.6246    4.4017  -17.5191 C   0  0  0  0  0  0  0  0  0  0  0  0
   -7.4843    4.4001  -18.8829 N   0  0  0  0  0  0  0  0  0  0  0  0
   -6.2432    4.8523  -19.2183 C   0  0  0  0  0  0  0  0  0  0  0  0
   -5.5465    5.1736  -18.0679 C   0  0  0  0  0  0  0  0  0  0  0  0
   -6.4256    4.8614  -16.9542 C   0  0  0  0  0  0  0  0  0  0  0  0
   -5.1876    5.3767  -13.8648 H   0  0  0  0  0  0  0  0  0  0  0  0
   -4.3701    5.5307  -15.3533 H   0  0  0  0  0  0  0  0  0  0  0  0
   -8.1758    4.1155  -19.5233 H   0  0  0  0  0  0  0  0  0  0  0  0
   -4.1707    5.7936  -18.1291 C   0  0  0  0  0  0  0  0  0  0  0  0
   -4.1233    7.2274  -17.5827 C   0  0  0  0  0  0  0  0  0  0  0  0
   -2.7096    7.7964  -17.6532 C   0  0  0  0  0  0  0  0  0  0  0  0
   -1.7365    6.9214  -16.9998 N   0  0  0  0  0  0  0  0  0  0  0  0
   -1.7038    5.6084  -17.6486 C   0  0  0  0  0  0  0  0  0  0  0  0
   -3.0549    4.8991  -17.5769 C   0  0  0  0  0  0  0  0  0  0  0  0
   -1.9958    6.8046  -16.0202 H   0  0  0  0  0  0  0  0  0  0  0  0
   -7.6511    5.1808  -13.3731 C   0  0  0  0  0  0  0  0  0  0  0  0
   -7.3940    6.2913  -13.1198 O   0  0  0  0  0  0  0  0  0  0  0  0
   -8.1242    4.0281  -12.4583 N   0  0  0  0  0  0  0  0  0  0  0  0
   -8.3502    3.1940  -12.9298 H   0  0  0  0  0  0  0  0  0  0  0  0
   -8.2831    3.9776  -11.0734 C   0  0  0  0  0  0  0  0  0  0  0  0
   -8.0686    5.1164  -10.2793 C   0  0  0  0  0  0  0  0  0  0  0  0
   -8.2130    5.0618   -8.8884 C   0  0  0  0  0  0  0  0  0  0  0  0
   -8.5864    3.8605   -8.3148 C   0  0  0  0  0  0  0  0  0  0  0  0
   -8.8049    2.7336   -9.0967 C   0  0  0  0  0  0  0  0  0  0  0  0
   -8.6517    2.7705  -10.4753 C   0  0  0  0  0  0  0  0  0  0  0  0
   -9.1772    1.5867   -8.2187 C   0  0  0  0  0  0  0  0  0  0  0  0
   -9.3731    2.1555   -6.8600 N   0  0  0  0  0  0  0  0  0  0  0  0
   -8.8114    3.5218   -6.8811 C   0  0  0  0  0  0  0  0  0  0  0  0
   -8.8854    1.5866   -6.1680 H   0  0  0  0  0  0  0  0  0  0  0  0
  1  2  1  0  0  0
  2  3  2  0  0  0
  3 22  1  0  0  0
 22 23  2  0  0  0
 22 24  1  0  0  0
 24 26  1  0  0  0
 26 27  2  0  0  0
 27 28  1  0  0  0
 28 29  2  0  0  0
 29 30  1  0  0  0
 30 31  2  0  0  0
 30 32  1  0  0  0
 32 33  1  0  0  0
 33 34  1  0  0  0
  3  4  1  0  0  0
  4  5  2  0  0  0
  5  6  1  0  0  0
  5  7  1  0  0  0
  7  8  1  0  0  0
  8  9  1  0  0  0
  9 10  2  0  0  0
 10 15  1  0  0  0
 15 16  1  0  0  0
 16 17  1  0  0  0
 17 18  1  0  0  0
 18 19  1  0  0  0
 19 20  1  0  0  0
 10 11  1  0  0  0
 11  2  1  0  0  0
 31 26  1  0  0  0
 11  7  2  0  0  0
 34 29  1  0  0  0
 20 15  1  0  0  0
  1 12  1  0  0  0
  1 13  1  0  0  0
 24 25  1  0  0  0
 33 35  1  0  0  0
  8 14  1  0  0  0
 18 21  1  0  0  0
M  END
> <minimizedAffinity>
-9.91489

> <minimizedRMSD>
0.25268

$$$$
P26216


 35 39  0  0  0  0  0  0  0  0999 V2000
   -5.6750    7.9184  -17.7636 C   0  0  0  0  0  0  0  0  0  0  0  0
   -5.1349    6.4810  -17.6982 C   0  0  0  0  0  0  0  0  0  0  0  0
   -6.0308    5.6418  -16.7956 C   0  0  0  0  0  0  0  0  0  0  0  0
   -6.0203    5.4316  -15.4237 C   0  0  0  0  0  0  0  0  0  0  0  0
   -7.0068    4.6008  -14.8617 C   0  0  0  0  0  0  0  0  0  0  0  0
   -7.9991    4.0279  -15.6734 C   0  0  0  0  0  0  0  0  0  0  0  0
   -8.0169    4.2658  -17.0335 C   0  0  0  0  0  0  0  0  0  0  0  0
   -8.9664    3.7106  -17.7983 F   0  0  0  0  0  0  0  0  0  0  0  0
   -7.0083    5.0230  -17.5904 C   0  0  0  0  0  0  0  0  0  0  0  0
   -6.8746    5.3407  -18.9451 N   0  0  0  0  0  0  0  0  0  0  0  0
   -5.5289    5.8476  -19.0851 C   0  0  0  0  0  0  0  0  0  0  0  0
   -4.7321    4.7457  -19.3893 O   0  0  0  0  0  0  0  0  0  0  0  0
   -7.5522    5.2404  -19.6523 H   0  0  0  0  0  0  0  0  0  0  0  0
   -4.8324    4.0733  -18.6974 H   0  0  0  0  0  0  0  0  0  0  0  0
   -3.5941    6.5046  -17.4139 C   0  0  0  0  0  0  0  0  0  0  0  0
   -3.1092    7.8464  -16.8096 C   0  0  0  0  0  0  0  0  0  0  0  0
   -1.5991    7.8774  -16.6182 C   0  0  0  0  0  0  0  0  0  0  0  0
   -1.1690    6.7901  -15.7556 N   0  0  0  0  0  0  0  0  0  0  0  0
   -1.5364    5.4941  -16.3180 C   0  0  0  0  0  0  0  0  0  0  0  0
   -3.0430    5.3565  -16.5466 C   0  0  0  0  0  0  0  0  0  0  0  0
   -1.6118    6.8944  -14.8427 H   0  0  0  0  0  0  0  0  0  0  0  0
   -6.9976    4.3584  -13.3936 C   0  0  0  0  0  0  0  0  0  0  0  0
   -6.0361    3.8400  -12.8421 O   0  0  0  0  0  0  0  0  0  0  0  0
   -8.1621    4.8505  -12.5634 C   0  0  0  0  0  0  0  0  0  0  0  0
   -8.9770    5.5897  -13.1027 O   0  0  0  0  0  0  0  0  0  0  0  0
   -8.2244    4.5868  -11.1158 C   0  0  0  0  0  0  0  0  0  0  0  0
   -8.0189    5.6726  -10.2439 C   0  0  0  0  0  0  0  0  0  0  0  0
   -8.2062    5.5196   -8.8692 C   0  0  0  0  0  0  0  0  0  0  0  0
   -8.6001    4.2800   -8.3969 C   0  0  0  0  0  0  0  0  0  0  0  0
   -8.7849    3.1998   -9.2575 C   0  0  0  0  0  0  0  0  0  0  0  0
   -8.6099    3.3320  -10.6291 C   0  0  0  0  0  0  0  0  0  0  0  0
   -9.1595    1.9987   -8.4505 C   0  0  0  0  0  0  0  0  0  0  0  0
   -9.4785    2.5090   -7.0934 N   0  0  0  0  0  0  0  0  0  0  0  0
   -8.8851    3.8558   -6.9946 C   0  0  0  0  0  0  0  0  0  0  0  0
   -9.0772    1.8956   -6.3842 H   0  0  0  0  0  0  0  0  0  0  0  0
  2  1  1  0  0  0
  2 15  1  0  0  0
 15 16  1  0  0  0
 16 17  1  0  0  0
 17 18  1  0  0  0
 18 19  1  0  0  0
 19 20  1  0  0  0
  2  3  1  0  0  0
  3  4  2  0  0  0
  4  5  1  0  0  0
  5 22  1  0  0  0
 22 23  2  0  0  0
 22 24  1  0  0  0
 24 25  2  0  0  0
 24 26  1  0  0  0
 26 27  2  0  0  0
 27 28  1  0  0  0
 28 29  2  0  0  0
 29 30  1  0  0  0
 30 31  2  0  0  0
 30 32  1  0  0  0
 32 33  1  0  0  0
 33 34  1  0  0  0
  5  6  2  0  0  0
  6  7  1  0  0  0
  7  8  1  0  0  0
  7  9  2  0  0  0
  9 10  1  0  0  0
 10 11  1  0  0  0
 11 12  1  0  0  0
 11  2  1  0  0  0
 20 15  1  0  0  0
  9  3  1  0  0  0
 31 26  1  0  0  0
 34 29  1  0  0  0
 18 21  1  0  0  0
 33 35  1  0  0  0
 10 13  1  0  0  0
 12 14  1  0  0  0
M  END
> <minimizedAffinity>
-7.91557

> <minimizedRMSD>
0.58105

$$$$
P26221


 41 45  0  0  0  0  0  0  0  0999 V2000
   -7.3462    4.5850  -13.7461 C   0  0  0  0  0  0  0  0  0  0  0  0
   -8.4248    4.1221  -14.4988 C   0  0  0  0  0  0  0  0  0  0  0  0
   -8.3670    4.1601  -15.8876 C   0  0  0  0  0  0  0  0  0  0  0  0
   -9.4122    3.7430  -16.6154 F   0  0  0  0  0  0  0  0  0  0  0  0
   -7.2449    4.7342  -16.4883 C   0  0  0  0  0  0  0  0  0  0  0  0
   -7.0148    5.0860  -17.7920 N   0  0  0  0  0  0  0  0  0  0  0  0
   -5.7962    5.7052  -17.9016 C   0  0  0  0  0  0  0  0  0  0  0  0
   -5.1849    5.7130  -16.6724 C   0  0  0  0  0  0  0  0  0  0  0  0
   -6.1351    5.1639  -15.7615 C   0  0  0  0  0  0  0  0  0  0  0  0
   -6.1820    5.0611  -14.3678 C   0  0  0  0  0  0  0  0  0  0  0  0
   -7.6330    4.9191  -18.5398 H   0  0  0  0  0  0  0  0  0  0  0  0
   -3.8290    6.2868  -16.4052 C   0  0  0  0  0  0  0  0  0  0  0  0
   -3.8785    7.5694  -15.5778 C   0  0  0  0  0  0  0  0  0  0  0  0
   -2.4739    8.1557  -15.4697 C   0  0  0  0  0  0  0  0  0  0  0  0
   -1.5233    7.1947  -14.9088 N   0  0  0  0  0  0  0  0  0  0  0  0
   -1.4609    5.9629  -15.7010 C   0  0  0  0  0  0  0  0  0  0  0  0
   -2.8288    5.2913  -15.8152 C   0  0  0  0  0  0  0  0  0  0  0  0
   -1.8117    6.9616  -13.9586 H   0  0  0  0  0  0  0  0  0  0  0  0
   -7.3576    4.6716  -12.2748 C   0  0  0  0  0  0  0  0  0  0  0  0
   -6.8720    5.6578  -11.7271 O   0  0  0  0  0  0  0  0  0  0  0  0
   -7.9253    3.5632  -11.4297 C   0  0  0  0  0  0  0  0  0  0  0  0
   -7.9679    2.4333  -11.8948 O   0  0  0  0  0  0  0  0  0  0  0  0
   -9.6244    1.5697   -7.2352 C   0  0  0  0  0  0  0  0  0  0  0  0
   -9.0797    2.7580   -7.9587 C   0  0  0  0  0  0  0  0  0  0  0  0
   -8.8086    2.6858   -9.3247 C   0  0  0  0  0  0  0  0  0  0  0  0
   -8.3095    3.7987  -10.0269 C   0  0  0  0  0  0  0  0  0  0  0  0
   -8.1372    5.0296   -9.3839 C   0  0  0  0  0  0  0  0  0  0  0  0
   -8.3815    5.0841   -8.0242 C   0  0  0  0  0  0  0  0  0  0  0  0
   -8.8230    3.9638   -7.3209 C   0  0  0  0  0  0  0  0  0  0  0  0
   -8.9846    4.3250   -5.8806 C   0  0  0  0  0  0  0  0  0  0  0  0
   -8.3206    5.6483   -5.7226 N   0  0  0  0  0  0  0  0  0  0  0  0
   -8.2658    6.2375   -7.0867 C   0  0  0  0  0  0  0  0  0  0  0  0
   -7.3791    5.5311   -5.3479 H   0  0  0  0  0  0  0  0  0  0  0  0
   -5.3864    6.2490  -19.0751 N   0  0  0  0  0  0  0  0  0  0  0  0
   -5.4434    7.2194  -19.2308 H   0  0  0  0  0  0  0  0  0  0  0  0
   -4.8522    5.3433  -20.1123 C   0  0  0  0  0  0  0  0  0  0  0  0
   -4.6864    6.1839  -21.3993 C   0  0  0  0  0  0  0  0  0  0  0  0
   -5.7965    4.1631  -20.3448 C   0  0  0  0  0  0  0  0  0  0  0  0
   -3.4318    4.8088  -19.7408 C   0  0  0  0  0  0  0  0  0  0  0  0
   -2.7592    4.2594  -20.8818 O   0  0  0  0  0  0  0  0  0  0  0  0
   -3.2712    3.5128  -21.2304 H   0  0  0  0  0  0  0  0  0  0  0  0
 23 24  1  0  0  0
 24 25  2  0  0  0
 25 26  1  0  0  0
 26 21  1  0  0  0
 21 22  2  0  0  0
 21 19  1  0  0  0
 19 20  2  0  0  0
 19  1  1  0  0  0
  1  2  2  0  0  0
  2  3  1  0  0  0
  3  4  1  0  0  0
  3  5  2  0  0  0
  5  6  1  0  0  0
  6  7  1  0  0  0
  7 34  1  0  0  0
 34 36  1  0  0  0
 36 37  1  0  0  0
 36 38  1  0  0  0
 36 39  1  0  0  0
 39 40  1  0  0  0
  7  8  2  0  0  0
  8 12  1  0  0  0
 12 13  1  0  0  0
 13 14  1  0  0  0
 14 15  1  0  0  0
 15 16  1  0  0  0
 16 17  1  0  0  0
  8  9  1  0  0  0
  9 10  2  0  0  0
 26 27  2  0  0  0
 27 28  1  0  0  0
 28 29  2  0  0  0
 29 30  1  0  0  0
 30 31  1  0  0  0
 31 32  1  0  0  0
 29 24  1  0  0  0
 10  1  1  0  0  0
 32 28  1  0  0  0
  9  5  1  0  0  0
 17 12  1  0  0  0
  6 11  1  0  0  0
 34 35  1  0  0  0
 40 41  1  0  0  0
 15 18  1  0  0  0
 31 33  1  0  0  0
M  END
> <minimizedAffinity>
-8.32183

> <minimizedRMSD>
1.01758

$$$$
P26222


 36 40  0  0  0  0  0  0  0  0999 V2000
   -8.0487    4.8408  -13.8450 C   0  0  0  0  0  0  0  0  0  0  0  0
   -9.3610    4.3798  -13.7303 O   0  0  0  0  0  0  0  0  0  0  0  0
   -8.1095    6.2067  -13.5349 O   0  0  0  0  0  0  0  0  0  0  0  0
   -9.5572    3.4787  -13.8961 H   0  0  0  0  0  0  0  0  0  0  0  0
   -7.3294    6.7256  -13.5493 H   0  0  0  0  0  0  0  0  0  0  0  0
   -7.6101    4.6905  -15.2924 C   0  0  0  0  0  0  0  0  0  0  0  0
   -8.5393    4.2425  -16.2430 C   0  0  0  0  0  0  0  0  0  0  0  0
   -8.2486    4.2042  -17.5916 C   0  0  0  0  0  0  0  0  0  0  0  0
   -9.1953    3.8375  -18.4561 F   0  0  0  0  0  0  0  0  0  0  0  0
   -7.0019    4.6253  -18.0182 C   0  0  0  0  0  0  0  0  0  0  0  0
   -6.5357    4.7602  -19.2966 N   0  0  0  0  0  0  0  0  0  0  0  0
   -5.2593    5.2363  -19.2666 C   0  0  0  0  0  0  0  0  0  0  0  0
   -4.8871    5.4437  -17.9496 C   0  0  0  0  0  0  0  0  0  0  0  0
   -6.0071    5.0503  -17.1344 C   0  0  0  0  0  0  0  0  0  0  0  0
   -6.3195    5.0633  -15.7451 C   0  0  0  0  0  0  0  0  0  0  0  0
   -7.0436    4.5464  -20.1125 H   0  0  0  0  0  0  0  0  0  0  0  0
   -3.5629    6.0446  -17.5837 C   0  0  0  0  0  0  0  0  0  0  0  0
   -3.6914    7.4536  -16.9997 C   0  0  0  0  0  0  0  0  0  0  0  0
   -2.3045    8.0404  -16.7504 C   0  0  0  0  0  0  0  0  0  0  0  0
   -1.5021    7.1862  -15.8730 N   0  0  0  0  0  0  0  0  0  0  0  0
   -1.3512    5.8401  -16.4363 C   0  0  0  0  0  0  0  0  0  0  0  0
   -2.7001    5.1635  -16.6833 C   0  0  0  0  0  0  0  0  0  0  0  0
   -1.9614    7.1173  -14.9649 H   0  0  0  0  0  0  0  0  0  0  0  0
   -7.1859    4.1374  -12.9230 N   0  0  0  0  0  0  0  0  0  0  0  0
   -6.4050    3.6429  -13.2619 H   0  0  0  0  0  0  0  0  0  0  0  0
   -5.9241    6.1818  -11.1556 C   0  0  0  0  0  0  0  0  0  0  0  0
   -6.9288    5.1610  -10.6842 C   0  0  0  0  0  0  0  0  0  0  0  0
   -7.2830    5.1966   -9.3182 C   0  0  0  0  0  0  0  0  0  0  0  0
   -8.0995    4.2063   -8.8057 C   0  0  0  0  0  0  0  0  0  0  0  0
   -8.5870    3.2009   -9.6219 C   0  0  0  0  0  0  0  0  0  0  0  0
   -8.2946    3.1696  -10.9799 C   0  0  0  0  0  0  0  0  0  0  0  0
   -7.4591    4.1570  -11.5391 C   0  0  0  0  0  0  0  0  0  0  0  0
   -9.3591    2.2260   -8.7968 C   0  0  0  0  0  0  0  0  0  0  0  0
   -9.4574    2.8149   -7.4362 N   0  0  0  0  0  0  0  0  0  0  0  0
   -8.5364    3.9704   -7.4000 C   0  0  0  0  0  0  0  0  0  0  0  0
   -9.1835    2.1262   -6.7354 H   0  0  0  0  0  0  0  0  0  0  0  0
 26 27  1  0  0  0
 27 28  2  0  0  0
 28 29  1  0  0  0
 29 30  2  0  0  0
 30 31  1  0  0  0
 31 32  2  0  0  0
 32 24  1  0  0  0
 24  1  1  0  0  0
  1  2  1  0  0  0
  1  3  1  0  0  0
  1  6  1  0  0  0
  6  7  2  0  0  0
  7  8  1  0  0  0
  8  9  1  0  0  0
  8 10  2  0  0  0
 10 11  1  0  0  0
 11 12  1  0  0  0
 12 13  2  0  0  0
 13 17  1  0  0  0
 17 18  1  0  0  0
 18 19  1  0  0  0
 19 20  1  0  0  0
 20 21  1  0  0  0
 21 22  1  0  0  0
 13 14  1  0  0  0
 14 15  2  0  0  0
 30 33  1  0  0  0
 33 34  1  0  0  0
 34 35  1  0  0  0
 32 27  1  0  0  0
 15  6  1  0  0  0
 35 29  1  0  0  0
 14 10  1  0  0  0
 22 17  1  0  0  0
 24 25  1  0  0  0
  2  4  1  0  0  0
  3  5  1  0  0  0
 11 16  1  0  0  0
 20 23  1  0  0  0
 34 36  1  0  0  0
M  END
> <minimizedAffinity>
-9.55399

> <minimizedRMSD>
0.43936

$$$$
P26224


 43 49  0  0  0  0  0  0  0  0999 V2000
   -7.3598    4.5984  -14.9083 C   0  0  0  0  0  0  0  0  0  0  0  0
   -8.5747    4.1489  -15.4261 C   0  0  0  0  0  0  0  0  0  0  0  0
   -8.7376    4.0355  -16.8060 C   0  0  0  0  0  0  0  0  0  0  0  0
   -9.9169    3.6563  -17.3195 F   0  0  0  0  0  0  0  0  0  0  0  0
   -7.6808    4.3948  -17.6452 C   0  0  0  0  0  0  0  0  0  0  0  0
   -7.6173    4.4391  -19.0142 N   0  0  0  0  0  0  0  0  0  0  0  0
   -6.3893    4.8978  -19.4048 C   0  0  0  0  0  0  0  0  0  0  0  0
   -5.6312    5.1985  -18.2886 C   0  0  0  0  0  0  0  0  0  0  0  0
   -6.4522    4.8473  -17.1587 C   0  0  0  0  0  0  0  0  0  0  0  0
   -6.2904    4.9296  -15.7610 C   0  0  0  0  0  0  0  0  0  0  0  0
   -8.3455    4.1798  -19.6239 H   0  0  0  0  0  0  0  0  0  0  0  0
   -4.2310    5.8322  -18.2903 C   0  0  0  0  0  0  0  0  0  0  0  0
   -4.3343    7.2822  -17.7841 C   0  0  0  0  0  0  0  0  0  0  0  0
   -3.0837    8.1357  -17.9769 C   0  0  0  0  0  0  0  0  0  0  0  0
   -2.0805    7.9847  -16.9357 N   0  0  0  0  0  0  0  0  0  0  0  0
   -1.3004    6.7449  -16.9207 C   0  0  0  0  0  0  0  0  0  0  0  0
   -0.3064    6.8988  -15.7193 C   0  0  0  0  0  0  0  0  0  0  0  0
    0.7307    8.0086  -15.9079 C   0  0  0  0  0  0  0  0  0  0  0  0
    1.5173    7.8198  -17.1979 C   0  0  0  0  0  0  0  0  0  0  0  0
    0.5939    7.6743  -18.4001 C   0  0  0  0  0  0  0  0  0  0  0  0
   -0.4399    6.5629  -18.1923 C   0  0  0  0  0  0  0  0  0  0  0  0
   -2.2094    5.5391  -16.5803 C   0  0  0  0  0  0  0  0  0  0  0  0
   -3.2136    4.9230  -17.5678 C   0  0  0  0  0  0  0  0  0  0  0  0
   -2.5699    4.1237  -18.6884 C   0  0  0  0  0  0  0  0  0  0  0  0
   -2.9187    4.9456  -19.8728 C   0  0  0  0  0  0  0  0  0  0  0  0
   -3.7693    5.9029  -19.7116 N   0  0  0  0  0  0  0  0  0  0  0  0
   -2.5596    8.0547  -16.0379 H   0  0  0  0  0  0  0  0  0  0  0  0
   -8.0508    3.9843  -12.5636 N   0  0  0  0  0  0  0  0  0  0  0  0
   -7.1797    4.8952  -13.4587 C   0  0  0  0  0  0  0  0  0  0  0  0
   -6.4111    5.7272  -13.1721 O   0  0  0  0  0  0  0  0  0  0  0  0
   -8.5681    3.3020  -13.0495 H   0  0  0  0  0  0  0  0  0  0  0  0
   -9.9087    1.7095   -5.9114 N   0  0  0  0  0  0  0  0  0  0  0  0
   -9.8351    2.4979   -7.0986 N   0  0  0  0  0  0  0  0  0  0  0  0
   -8.9432    3.6757   -6.9994 C   0  0  0  0  0  0  0  0  0  0  0  0
   -8.5996    3.9583   -8.4307 C   0  0  0  0  0  0  0  0  0  0  0  0
   -8.1311    5.1145   -9.0206 C   0  0  0  0  0  0  0  0  0  0  0  0
   -7.9462    5.1147  -10.4076 C   0  0  0  0  0  0  0  0  0  0  0  0
   -8.2232    3.9718  -11.1799 C   0  0  0  0  0  0  0  0  0  0  0  0
   -8.6796    2.8033  -10.5652 C   0  0  0  0  0  0  0  0  0  0  0  0
   -8.8613    2.8149   -9.1921 C   0  0  0  0  0  0  0  0  0  0  0  0
   -9.3551    1.7321   -8.2783 C   0  0  0  0  0  0  0  0  0  0  0  0
  -10.2427    2.2870   -5.1399 H   0  0  0  0  0  0  0  0  0  0  0  0
   -8.9828    1.3451   -5.6873 H   0  0  0  0  0  0  0  0  0  0  0  0
 32 33  1  0  0  0
 33 34  1  0  0  0
 34 35  1  0  0  0
 35 36  2  0  0  0
 36 37  1  0  0  0
 37 38  2  0  0  0
 38 28  1  0  0  0
 28 29  1  0  0  0
 29 30  2  0  0  0
 29  1  1  0  0  0
  1  2  2  0  0  0
  2  3  1  0  0  0
  3  4  1  0  0  0
  3  5  2  0  0  0
  5  6  1  0  0  0
  6  7  1  0  0  0
  7  8  2  0  0  0
 12  8  1  0  0  0
 12 13  1  0  0  0
 13 14  1  0  0  0
 14 15  1  0  0  0
 15 16  1  0  0  0
 16 17  1  0  0  0
 17 18  1  0  0  0
 18 19  1  0  0  0
 19 20  1  0  0  0
 20 21  1  0  0  0
 16 22  1  0  0  0
 23 22  1  0  0  0
 23 24  1  0  0  0
 24 25  1  0  0  0
 25 26  2  0  0  0
  8  9  1  0  0  0
  9 10  2  0  0  0
 38 39  1  0  0  0
 39 40  2  0  0  0
 40 41  1  0  0  0
 41 33  1  0  0  0
 40 35  1  0  0  0
 10  1  1  0  0  0
  9  5  1  0  0  0
 23 12  1  0  0  0
 26 12  1  0  0  0
 21 16  1  0  0  0
 32 42  1  0  0  0
 32 43  1  0  0  0
 28 31  1  0  0  0
  6 11  1  0  0  0
 15 27  1  0  0  0
M  END
> <minimizedAffinity>
-11.27697

> <minimizedRMSD>
0.49962

$$$$
P26225


 34 38  0  0  0  0  0  0  0  0999 V2000
   -5.4478    5.3049  -17.9715 C   0  0  0  0  0  0  0  0  0  0  0  0
   -6.0899    4.9327  -19.1408 C   0  0  0  0  0  0  0  0  0  0  0  0
   -7.3381    4.4480  -18.8523 N   0  0  0  0  0  0  0  0  0  0  0  0
   -7.5275    4.4311  -17.4960 C   0  0  0  0  0  0  0  0  0  0  0  0
   -8.6674    4.0925  -16.7574 C   0  0  0  0  0  0  0  0  0  0  0  0
   -9.8060    3.7349  -17.3739 F   0  0  0  0  0  0  0  0  0  0  0  0
   -8.6388    4.2276  -15.3719 C   0  0  0  0  0  0  0  0  0  0  0  0
   -7.4743    4.6709  -14.7482 C   0  0  0  0  0  0  0  0  0  0  0  0
   -6.3202    4.9783  -15.4977 C   0  0  0  0  0  0  0  0  0  0  0  0
   -6.3462    4.8981  -16.9078 C   0  0  0  0  0  0  0  0  0  0  0  0
   -7.9999    4.1557  -19.5199 H   0  0  0  0  0  0  0  0  0  0  0  0
   -2.4858    4.1501  -18.4166 C   0  0  0  0  0  0  0  0  0  0  0  0
   -2.9219    5.1896  -17.3915 C   0  0  0  0  0  0  0  0  0  0  0  0
   -1.6666    6.0140  -17.0167 C   0  0  0  0  0  0  0  0  0  0  0  0
   -1.9582    7.0775  -16.0634 N   0  0  0  0  0  0  0  0  0  0  0  0
   -2.9539    7.9966  -16.6024 C   0  0  0  0  0  0  0  0  0  0  0  0
   -4.2677    7.2829  -16.9099 C   0  0  0  0  0  0  0  0  0  0  0  0
   -4.1052    6.0846  -17.8912 C   0  0  0  0  0  0  0  0  0  0  0  0
   -3.7726    6.7023  -19.2874 C   0  0  0  0  0  0  0  0  0  0  0  0
   -1.1006    7.5925  -15.8641 H   0  0  0  0  0  0  0  0  0  0  0  0
   -7.4599    5.0295  -13.3023 C   0  0  0  0  0  0  0  0  0  0  0  0
   -7.0247    6.0755  -13.0149 O   0  0  0  0  0  0  0  0  0  0  0  0
   -8.0324    3.9024  -12.4108 N   0  0  0  0  0  0  0  0  0  0  0  0
   -8.2686    3.0764  -12.8917 H   0  0  0  0  0  0  0  0  0  0  0  0
   -8.2688    3.8657  -11.0349 C   0  0  0  0  0  0  0  0  0  0  0  0
   -8.0744    5.0055  -10.2371 C   0  0  0  0  0  0  0  0  0  0  0  0
   -8.2689    4.9574   -8.8520 C   0  0  0  0  0  0  0  0  0  0  0  0
   -8.6507    3.7560   -8.2844 C   0  0  0  0  0  0  0  0  0  0  0  0
   -8.8457    2.6267   -9.0685 C   0  0  0  0  0  0  0  0  0  0  0  0
   -8.6690    2.6637  -10.4450 C   0  0  0  0  0  0  0  0  0  0  0  0
   -9.1946    1.4714   -8.1915 C   0  0  0  0  0  0  0  0  0  0  0  0
   -9.4148    2.0353   -6.8338 N   0  0  0  0  0  0  0  0  0  0  0  0
   -8.8893    3.4162   -6.8531 C   0  0  0  0  0  0  0  0  0  0  0  0
   -8.9167    1.4800   -6.1382 H   0  0  0  0  0  0  0  0  0  0  0  0
 13 12  1  0  0  0
 13 14  1  0  0  0
 14 15  1  0  0  0
 15 16  1  0  0  0
 16 17  1  0  0  0
 17 18  1  0  0  0
 18 19  1  0  0  0
 18  1  1  0  0  0
  1  2  2  0  0  0
  2  3  1  0  0  0
  3  4  1  0  0  0
  4  5  2  0  0  0
  5  6  1  0  0  0
  5  7  1  0  0  0
  7  8  2  0  0  0
  8 21  1  0  0  0
 21 22  2  0  0  0
 21 23  1  0  0  0
 23 25  1  0  0  0
 25 26  2  0  0  0
 26 27  1  0  0  0
 27 28  2  0  0  0
 28 29  1  0  0  0
 29 30  2  0  0  0
 29 31  1  0  0  0
 31 32  1  0  0  0
 32 33  1  0  0  0
  8  9  1  0  0  0
  9 10  2  0  0  0
 18 13  1  0  0  0
 10  1  1  0  0  0
 10  4  1  0  0  0
 30 25  1  0  0  0
 33 28  1  0  0  0
 15 20  1  0  0  0
  3 11  1  0  0  0
 23 24  1  0  0  0
 32 34  1  0  0  0
M  END
> <minimizedAffinity>
-10.46019

> <minimizedRMSD>
0.49644

$$$$
P26227


 38 42  0  0  0  0  0  0  0  0999 V2000
   -7.2727    4.7579  -13.0818 C   0  0  0  0  0  0  0  0  0  0  0  0
   -6.0818    4.1044  -12.6941 O   0  0  0  0  0  0  0  0  0  0  0  0
   -5.9612    4.1938  -11.7357 H   0  0  0  0  0  0  0  0  0  0  0  0
   -7.3947    4.5733  -14.6079 C   0  0  0  0  0  0  0  0  0  0  0  0
   -8.5586    4.1880  -15.2946 C   0  0  0  0  0  0  0  0  0  0  0  0
   -8.5992    4.1243  -16.6979 C   0  0  0  0  0  0  0  0  0  0  0  0
   -9.7306    3.7741  -17.3306 F   0  0  0  0  0  0  0  0  0  0  0  0
   -7.4659    4.5027  -17.4195 C   0  0  0  0  0  0  0  0  0  0  0  0
   -7.2386    4.6129  -18.7713 N   0  0  0  0  0  0  0  0  0  0  0  0
   -5.9671    5.0934  -18.9932 C   0  0  0  0  0  0  0  0  0  0  0  0
   -5.3587    5.3072  -17.7737 C   0  0  0  0  0  0  0  0  0  0  0  0
   -6.2989    4.9037  -16.7800 C   0  0  0  0  0  0  0  0  0  0  0  0
   -6.2614    4.9043  -15.3749 C   0  0  0  0  0  0  0  0  0  0  0  0
   -7.8875    4.3828  -19.4750 H   0  0  0  0  0  0  0  0  0  0  0  0
   -4.0089    5.8874  -17.4724 C   0  0  0  0  0  0  0  0  0  0  0  0
   -3.7170    7.1879  -18.2155 C   0  0  0  0  0  0  0  0  0  0  0  0
   -2.4243    7.8161  -17.6806 C   0  0  0  0  0  0  0  0  0  0  0  0
   -1.4174    6.8543  -17.2138 N   0  0  0  0  0  0  0  0  0  0  0  0
   -1.5279    5.5782  -17.9259 C   0  0  0  0  0  0  0  0  0  0  0  0
   -2.8639    4.8827  -17.6512 C   0  0  0  0  0  0  0  0  0  0  0  0
   -1.5520    6.6906  -16.2161 H   0  0  0  0  0  0  0  0  0  0  0  0
   -9.2443    8.1885  -12.9591 C   0  0  0  0  0  0  0  0  0  0  0  0
   -8.6895    6.8730  -13.0730 N   0  0  0  0  0  0  0  0  0  0  0  0
   -7.2372    6.3649  -12.8367 C   0  0  0  0  0  0  0  0  0  0  0  0
   -6.2577    6.9565  -12.5885 O   0  0  0  0  0  0  0  0  0  0  0  0
   -9.3307    6.1772  -13.3449 H   0  0  0  0  0  0  0  0  0  0  0  0
   -8.3962    4.1085  -12.3778 N   0  0  0  0  0  0  0  0  0  0  0  0
   -9.1542    3.7475  -12.8920 H   0  0  0  0  0  0  0  0  0  0  0  0
   -8.3879    4.0032  -10.9674 C   0  0  0  0  0  0  0  0  0  0  0  0
   -8.1045    5.0885  -10.1112 C   0  0  0  0  0  0  0  0  0  0  0  0
   -8.1946    4.9810   -8.7172 C   0  0  0  0  0  0  0  0  0  0  0  0
   -8.5800    3.7735   -8.1768 C   0  0  0  0  0  0  0  0  0  0  0  0
   -8.8535    2.6887   -8.9947 C   0  0  0  0  0  0  0  0  0  0  0  0
   -8.7807    2.7895  -10.3779 C   0  0  0  0  0  0  0  0  0  0  0  0
   -9.1806    1.5066   -8.1459 C   0  0  0  0  0  0  0  0  0  0  0  0
   -9.3821    2.0398   -6.7728 N   0  0  0  0  0  0  0  0  0  0  0  0
   -8.7809    3.3885   -6.7516 C   0  0  0  0  0  0  0  0  0  0  0  0
   -8.9210    1.4381   -6.0904 H   0  0  0  0  0  0  0  0  0  0  0  0
 22 23  1  0  0  0
 23 24  1  0  0  0
 24 25  2  0  0  0
 24  1  1  0  0  0
  1  2  1  0  0  0
  1 27  1  0  0  0
 27 29  1  0  0  0
 29 30  2  0  0  0
 30 31  1  0  0  0
 31 32  2  0  0  0
 32 33  1  0  0  0
 33 34  2  0  0  0
 33 35  1  0  0  0
 35 36  1  0  0  0
 36 37  1  0  0  0
  1  4  1  0  0  0
  4  5  2  0  0  0
  5  6  1  0  0  0
  6  7  1  0  0  0
  6  8  2  0  0  0
  8  9  1  0  0  0
  9 10  1  0  0  0
 10 11  2  0  0  0
 11 15  1  0  0  0
 15 16  1  0  0  0
 16 17  1  0  0  0
 17 18  1  0  0  0
 18 19  1  0  0  0
 19 20  1  0  0  0
 11 12  1  0  0  0
 12 13  2  0  0  0
 34 29  1  0  0  0
 13  4  1  0  0  0
 37 32  1  0  0  0
 12  8  1  0  0  0
 20 15  1  0  0  0
 23 26  1  0  0  0
  2  3  1  0  0  0
 27 28  1  0  0  0
 36 38  1  0  0  0
  9 14  1  0  0  0
 18 21  1  0  0  0
M  END
> <minimizedAffinity>
-9.99452

> <minimizedRMSD>
0.24712

$$$$
P26228


 40 45  0  0  0  0  0  0  0  0999 V2000
   -8.3972    4.0782  -16.8238 C   0  0  0  0  0  0  0  0  0  0  0  0
   -8.4446    4.2738  -15.4177 C   0  0  0  0  0  0  0  0  0  0  0  0
   -7.3615    4.8216  -14.7109 C   0  0  0  0  0  0  0  0  0  0  0  0
   -6.1726    5.1246  -15.3828 C   0  0  0  0  0  0  0  0  0  0  0  0
   -6.1578    4.9674  -16.7667 C   0  0  0  0  0  0  0  0  0  0  0  0
   -5.0907    5.2588  -17.6405 C   0  0  0  0  0  0  0  0  0  0  0  0
   -5.5675    5.0002  -18.9104 C   0  0  0  0  0  0  0  0  0  0  0  0
   -6.8721    4.5620  -18.8030 N   0  0  0  0  0  0  0  0  0  0  0  0
   -7.2355    4.4955  -17.4745 C   0  0  0  0  0  0  0  0  0  0  0  0
   -3.7486    5.7611  -17.0863 C   0  0  0  0  0  0  0  0  0  0  0  0
   -2.6412    4.9008  -17.7873 C   0  0  0  0  0  0  0  0  0  0  0  0
   -1.2579    5.5088  -17.6883 C   0  0  0  0  0  0  0  0  0  0  0  0
   -1.1678    6.8302  -18.3040 N   0  0  0  0  0  0  0  0  0  0  0  0
   -2.4622    7.4791  -18.5060 C   0  0  0  0  0  0  0  0  0  0  0  0
   -3.4834    7.3437  -17.3341 C   0  0  0  0  0  0  0  0  0  0  0  0
   -3.7285    5.3641  -15.6272 N   0  0  0  0  0  0  0  0  0  0  0  0
   -4.9212    5.7002  -14.8018 C   0  0  0  0  0  0  0  0  0  0  0  0
   -7.4558    4.3313  -19.5615 H   0  0  0  0  0  0  0  0  0  0  0  0
   -0.7130    6.7312  -19.2117 H   0  0  0  0  0  0  0  0  0  0  0  0
   -2.9230    5.8200  -15.1985 H   0  0  0  0  0  0  0  0  0  0  0  0
   -7.5147    5.2270  -13.2843 C   0  0  0  0  0  0  0  0  0  0  0  0
   -7.3646    6.3565  -13.0250 O   0  0  0  0  0  0  0  0  0  0  0  0
   -7.8355    4.0221  -12.3685 N   0  0  0  0  0  0  0  0  0  0  0  0
   -7.8376    3.1485  -12.8224 H   0  0  0  0  0  0  0  0  0  0  0  0
   -8.1227    3.9719  -11.0015 C   0  0  0  0  0  0  0  0  0  0  0  0
   -7.8909    5.0850  -10.1748 C   0  0  0  0  0  0  0  0  0  0  0  0
   -8.1417    5.0295   -8.7985 C   0  0  0  0  0  0  0  0  0  0  0  0
   -8.6391    3.8533   -8.2720 C   0  0  0  0  0  0  0  0  0  0  0  0
   -8.8811    2.7507   -9.0855 C   0  0  0  0  0  0  0  0  0  0  0  0
   -8.6271    2.7896  -10.4497 C   0  0  0  0  0  0  0  0  0  0  0  0
   -9.3836    1.6279   -8.2367 C   0  0  0  0  0  0  0  0  0  0  0  0
   -9.7720    2.2578   -6.9465 N   0  0  0  0  0  0  0  0  0  0  0  0
   -8.9769    3.5022   -6.8614 C   0  0  0  0  0  0  0  0  0  0  0  0
   -9.5509    1.6390   -6.1664 H   0  0  0  0  0  0  0  0  0  0  0  0
  -10.4001    4.5314  -18.2174 C   0  0  0  0  0  0  0  0  0  0  0  0
   -9.5390    3.4786  -17.5712 C   0  0  0  0  0  0  0  0  0  0  0  0
   -2.9595    8.1571  -16.0903 C   0  0  0  0  0  0  0  0  0  0  0  0
   -1.7333    9.0522  -16.1836 C   0  0  0  0  0  0  0  0  0  0  0  0
   -4.8100    8.0759  -17.7846 C   0  0  0  0  0  0  0  0  0  0  0  0
   -5.0690    9.4887  -17.2618 C   0  0  0  0  0  0  0  0  0  0  0  0
 35 36  1  0  0  0
 36  1  1  0  0  0
  1  2  2  0  0  0
  2  3  1  0  0  0
  3 21  1  0  0  0
 21 22  2  0  0  0
 21 23  1  0  0  0
 23 25  1  0  0  0
 25 26  2  0  0  0
 26 27  1  0  0  0
 27 28  2  0  0  0
 28 29  1  0  0  0
 29 30  2  0  0  0
 29 31  1  0  0  0
 31 32  1  0  0  0
 32 33  1  0  0  0
  3  4  2  0  0  0
  4  5  1  0  0  0
  5  6  1  0  0  0
  6  7  2  0  0  0
  7  8  1  0  0  0
  8  9  1  0  0  0
  6 10  1  0  0  0
 10 11  1  0  0  0
 11 12  1  0  0  0
 12 13  1  0  0  0
 13 14  1  0  0  0
 14 15  1  0  0  0
 15 37  1  0  0  0
 37 38  1  0  0  0
 15 39  1  0  0  0
 39 40  1  0  0  0
 10 16  1  0  0  0
 16 17  1  0  0  0
  9  1  1  0  0  0
 15 10  1  0  0  0
 30 25  1  0  0  0
 17  4  1  0  0  0
 33 28  1  0  0  0
  9  5  2  0  0  0
 23 24  1  0  0  0
 32 34  1  0  0  0
  8 18  1  0  0  0
 13 19  1  0  0  0
 16 20  1  0  0  0
M  END
> <minimizedAffinity>
-9.47855

> <minimizedRMSD>
0.51441

$$$$
P26229


 50 56  0  0  0  0  0  0  0  0999 V2000
   -7.3741    5.1614  -12.7210 C   0  0  0  0  0  0  0  0  0  0  0  0
   -6.1446    4.9834  -12.0393 O   0  0  0  0  0  0  0  0  0  0  0  0
   -6.2444    5.2600  -11.1149 H   0  0  0  0  0  0  0  0  0  0  0  0
   -7.2229    4.7080  -14.2503 C   0  0  0  0  0  0  0  0  0  0  0  0
   -8.5853    4.7870  -15.0048 C   0  0  0  0  0  0  0  0  0  0  0  0
   -8.6048    4.2929  -16.4464 C   0  0  0  0  0  0  0  0  0  0  0  0
   -8.8528    2.9628  -16.4914 F   0  0  0  0  0  0  0  0  0  0  0  0
   -7.3293    4.6473  -17.1256 C   0  0  0  0  0  0  0  0  0  0  0  0
   -7.2129    4.5749  -18.4821 N   0  0  0  0  0  0  0  0  0  0  0  0
   -5.9694    5.0029  -18.8365 C   0  0  0  0  0  0  0  0  0  0  0  0
   -5.2419    5.3640  -17.7114 C   0  0  0  0  0  0  0  0  0  0  0  0
   -6.1316    5.1156  -16.5815 C   0  0  0  0  0  0  0  0  0  0  0  0
   -5.9626    5.3069  -15.0582 C   0  0  0  0  0  0  0  0  0  0  0  0
   -4.6721    4.6270  -14.5392 C   0  0  0  0  0  0  0  0  0  0  0  0
   -3.8072    5.6730  -13.9692 N   0  0  0  0  0  0  0  0  0  0  0  0
   -4.6624    6.7625  -13.6283 N   0  0  0  0  0  0  0  0  0  0  0  0
   -5.6824    6.7684  -14.6851 C   0  0  0  0  0  0  0  0  0  0  0  0
   -7.9116    4.2647  -19.1024 H   0  0  0  0  0  0  0  0  0  0  0  0
   -3.1140    5.9703  -14.6559 H   0  0  0  0  0  0  0  0  0  0  0  0
   -4.1437    7.6407  -13.6221 H   0  0  0  0  0  0  0  0  0  0  0  0
   -3.8263    5.9037  -17.8842 C   0  0  0  0  0  0  0  0  0  0  0  0
   -3.5706    7.3150  -17.3587 C   0  0  0  0  0  0  0  0  0  0  0  0
   -2.1868    7.8076  -17.7690 C   0  0  0  0  0  0  0  0  0  0  0  0
   -1.1474    6.9028  -17.2747 N   0  0  0  0  0  0  0  0  0  0  0  0
   -1.3330    5.5558  -17.8319 C   0  0  0  0  0  0  0  0  0  0  0  0
   -2.6951    4.9625  -17.4599 C   0  0  0  0  0  0  0  0  0  0  0  0
   -1.1992    6.8556  -16.2571 H   0  0  0  0  0  0  0  0  0  0  0  0
   -9.0302    6.9821  -13.0500 O   0  0  0  0  0  0  0  0  0  0  0  0
   -7.9981    6.6733  -12.5929 C   0  0  0  0  0  0  0  0  0  0  0  0
   -6.9695    7.5056  -11.7698 N   0  0  0  0  0  0  0  0  0  0  0  0
   -6.2017    6.9920  -11.4292 H   0  0  0  0  0  0  0  0  0  0  0  0
   -6.9598    8.8965  -11.4285 C   0  0  0  0  0  0  0  0  0  0  0  0
   -7.4859    9.1231  -10.0455 C   0  0  0  0  0  0  0  0  0  0  0  0
   -6.8659    8.5566   -8.9273 C   0  0  0  0  0  0  0  0  0  0  0  0
   -7.3925    8.7784   -7.6584 C   0  0  0  0  0  0  0  0  0  0  0  0
   -8.5278    9.5626   -7.5476 C   0  0  0  0  0  0  0  0  0  0  0  0
   -9.1587   10.1209   -8.6010 N   0  0  0  0  0  0  0  0  0  0  0  0
   -8.6354    9.8779   -9.8259 C   0  0  0  0  0  0  0  0  0  0  0  0
   -8.3286    4.2481  -12.0734 N   0  0  0  0  0  0  0  0  0  0  0  0
   -8.9487    3.7256  -12.6317 H   0  0  0  0  0  0  0  0  0  0  0  0
   -8.3755    4.1043  -10.6762 C   0  0  0  0  0  0  0  0  0  0  0  0
   -8.1697    5.1594   -9.7655 C   0  0  0  0  0  0  0  0  0  0  0  0
   -8.2693    5.0041   -8.3814 C   0  0  0  0  0  0  0  0  0  0  0  0
   -8.6306    3.7698   -7.9018 C   0  0  0  0  0  0  0  0  0  0  0  0
   -8.8724    2.7168   -8.7696 C   0  0  0  0  0  0  0  0  0  0  0  0
   -8.7640    2.8679  -10.1450 C   0  0  0  0  0  0  0  0  0  0  0  0
   -9.2037    1.5014   -7.9771 C   0  0  0  0  0  0  0  0  0  0  0  0
   -9.4130    1.9669   -6.5809 N   0  0  0  0  0  0  0  0  0  0  0  0
   -8.8439    3.3272   -6.4992 C   0  0  0  0  0  0  0  0  0  0  0  0
   -8.9354    1.3459   -5.9277 H   0  0  0  0  0  0  0  0  0  0  0  0
 28 29  2  0  0  0
 29 30  1  0  0  0
 30 32  1  0  0  0
 32 33  1  0  0  0
 33 34  2  0  0  0
 34 35  1  0  0  0
 35 36  2  0  0  0
 36 37  1  0  0  0
 37 38  2  0  0  0
 29  1  1  0  0  0
  1  2  1  0  0  0
  1 39  1  0  0  0
 39 41  1  0  0  0
 41 42  2  0  0  0
 42 43  1  0  0  0
 43 44  2  0  0  0
 44 45  1  0  0  0
 45 46  2  0  0  0
 45 47  1  0  0  0
 47 48  1  0  0  0
 48 49  1  0  0  0
  1  4  1  0  0  0
  4  5  1  0  0  0
  5  6  1  0  0  0
  6  7  1  0  0  0
  6  8  1  0  0  0
  8  9  1  0  0  0
  9 10  1  0  0  0
 10 11  2  0  0  0
 11 21  1  0  0  0
 21 22  1  0  0  0
 22 23  1  0  0  0
 23 24  1  0  0  0
 24 25  1  0  0  0
 25 26  1  0  0  0
 11 12  1  0  0  0
 12 13  1  0  0  0
 13 14  1  0  0  0
 14 15  1  0  0  0
 15 16  1  0  0  0
 16 17  1  0  0  0
 38 33  1  0  0  0
 46 41  1  0  0  0
 13  4  1  0  0  0
 49 44  1  0  0  0
 12  8  2  0  0  0
 17 13  1  0  0  0
 26 21  1  0  0  0
 30 31  1  0  0  0
  2  3  1  0  0  0
 39 40  1  0  0  0
 48 50  1  0  0  0
  9 18  1  0  0  0
 24 27  1  0  0  0
 15 19  1  0  0  0
 16 20  1  0  0  0
M  END
> <minimizedAffinity>
-9.08126

> <minimizedRMSD>
0.57489

$$$$
P26230


 32 36  0  0  0  0  0  0  0  0999 V2000
   -5.4762    5.1391  -19.8738 O   0  0  0  0  0  0  0  0  0  0  0  0
   -6.0104    4.9815  -18.7885 C   0  0  0  0  0  0  0  0  0  0  0  0
   -7.2433    4.4536  -18.5203 N   0  0  0  0  0  0  0  0  0  0  0  0
   -7.3697    4.5060  -17.2418 C   0  0  0  0  0  0  0  0  0  0  0  0
   -8.5219    4.1295  -16.4114 C   0  0  0  0  0  0  0  0  0  0  0  0
   -9.5857    3.6621  -17.0830 F   0  0  0  0  0  0  0  0  0  0  0  0
   -8.4903    4.2816  -15.0781 C   0  0  0  0  0  0  0  0  0  0  0  0
   -7.3071    4.8069  -14.4022 C   0  0  0  0  0  0  0  0  0  0  0  0
   -6.2031    5.1518  -15.0989 C   0  0  0  0  0  0  0  0  0  0  0  0
   -6.2049    5.0313  -16.5278 C   0  0  0  0  0  0  0  0  0  0  0  0
   -5.3515    5.3458  -17.5046 C   0  0  0  0  0  0  0  0  0  0  0  0
   -3.9898    5.9585  -17.5195 C   0  0  0  0  0  0  0  0  0  0  0  0
   -3.9624    7.3786  -16.9413 C   0  0  0  0  0  0  0  0  0  0  0  0
   -2.5453    7.9450  -16.9984 C   0  0  0  0  0  0  0  0  0  0  0  0
   -1.6010    7.0748  -16.2989 N   0  0  0  0  0  0  0  0  0  0  0  0
   -1.5719    5.7317  -16.8822 C   0  0  0  0  0  0  0  0  0  0  0  0
   -2.9486    5.0733  -16.8266 C   0  0  0  0  0  0  0  0  0  0  0  0
   -1.8784    7.0045  -15.3199 H   0  0  0  0  0  0  0  0  0  0  0  0
   -7.2965    5.1951  -12.9482 C   0  0  0  0  0  0  0  0  0  0  0  0
   -6.7005    6.1373  -12.5966 O   0  0  0  0  0  0  0  0  0  0  0  0
   -8.1251    4.1692  -12.1339 N   0  0  0  0  0  0  0  0  0  0  0  0
   -8.6003    3.4994  -12.6769 H   0  0  0  0  0  0  0  0  0  0  0  0
   -8.3074    4.0401  -10.7536 C   0  0  0  0  0  0  0  0  0  0  0  0
   -8.1023    5.1343   -9.8959 C   0  0  0  0  0  0  0  0  0  0  0  0
   -8.2677    5.0080   -8.5117 C   0  0  0  0  0  0  0  0  0  0  0  0
   -8.6494    3.7798   -8.0055 C   0  0  0  0  0  0  0  0  0  0  0  0
   -8.8592    2.6952   -8.8471 C   0  0  0  0  0  0  0  0  0  0  0  0
   -8.6908    2.8046  -10.2221 C   0  0  0  0  0  0  0  0  0  0  0  0
   -9.2407    1.5052   -8.0307 C   0  0  0  0  0  0  0  0  0  0  0  0
   -9.4402    2.0010   -6.6437 N   0  0  0  0  0  0  0  0  0  0  0  0
   -8.8933    3.3718   -6.5930 C   0  0  0  0  0  0  0  0  0  0  0  0
   -8.9455    1.4018   -5.9829 H   0  0  0  0  0  0  0  0  0  0  0  0
  1  2  2  0  0  0
  2  3  1  0  0  0
  3  4  2  0  0  0
  4  5  1  0  0  0
  5  6  1  0  0  0
  5  7  2  0  0  0
  7  8  1  0  0  0
  8 19  1  0  0  0
 19 20  2  0  0  0
 19 21  1  0  0  0
 21 23  1  0  0  0
 23 24  2  0  0  0
 24 25  1  0  0  0
 25 26  2  0  0  0
 26 27  1  0  0  0
 27 28  2  0  0  0
 27 29  1  0  0  0
 29 30  1  0  0  0
 30 31  1  0  0  0
  8  9  2  0  0  0
  9 10  1  0  0  0
 10 11  2  0  0  0
 11 12  1  0  0  0
 12 13  1  0  0  0
 13 14  1  0  0  0
 14 15  1  0  0  0
 15 16  1  0  0  0
 16 17  1  0  0  0
 11  2  1  0  0  0
 17 12  1  0  0  0
 10  4  1  0  0  0
 28 23  1  0  0  0
 31 26  1  0  0  0
 21 22  1  0  0  0
 30 32  1  0  0  0
 15 18  1  0  0  0
M  END
> <minimizedAffinity>
-9.79067

> <minimizedRMSD>
0.60958

$$$$
P26231


 37 41  0  0  0  0  0  0  0  0999 V2000
   -6.5556    5.1334  -15.2644 C   0  0  0  0  0  0  0  0  0  0  0  0
   -7.7762    4.7874  -14.6317 C   0  0  0  0  0  0  0  0  0  0  0  0
   -8.8416    4.2308  -15.3353 C   0  0  0  0  0  0  0  0  0  0  0  0
   -8.7417    4.0515  -16.7088 C   0  0  0  0  0  0  0  0  0  0  0  0
   -9.7910    3.5852  -17.3960 F   0  0  0  0  0  0  0  0  0  0  0  0
   -7.5682    4.4296  -17.3603 C   0  0  0  0  0  0  0  0  0  0  0  0
   -7.2659    4.4457  -18.7020 N   0  0  0  0  0  0  0  0  0  0  0  0
   -5.9843    4.8969  -18.8836 C   0  0  0  0  0  0  0  0  0  0  0  0
   -5.4361    5.1817  -17.6487 C   0  0  0  0  0  0  0  0  0  0  0  0
   -6.4607    4.9299  -16.6701 C   0  0  0  0  0  0  0  0  0  0  0  0
   -7.8780    4.1740  -19.4236 H   0  0  0  0  0  0  0  0  0  0  0  0
   -4.0610    5.7089  -17.3541 C   0  0  0  0  0  0  0  0  0  0  0  0
   -3.9513    7.2125  -17.6621 C   0  0  0  0  0  0  0  0  0  0  0  0
   -2.5139    7.6386  -17.9608 C   0  0  0  0  0  0  0  0  0  0  0  0
   -1.5501    6.8883  -17.1596 N   0  0  0  0  0  0  0  0  0  0  0  0
   -1.5683    5.4591  -17.5137 C   0  0  0  0  0  0  0  0  0  0  0  0
   -2.9222    4.9364  -18.0152 C   0  0  0  0  0  0  0  0  0  0  0  0
   -1.7858    6.9903  -16.1724 H   0  0  0  0  0  0  0  0  0  0  0  0
   -4.6298    4.7108  -13.9314 N   0  0  0  0  0  0  0  0  0  0  0  0
   -5.4803    5.6933  -14.5030 N   0  0  0  0  0  0  0  0  0  0  0  0
   -3.8870    5.1695  -13.4040 H   0  0  0  0  0  0  0  0  0  0  0  0
   -4.2197    4.1432  -14.6730 H   0  0  0  0  0  0  0  0  0  0  0  0
   -5.3443    6.6615  -14.3876 H   0  0  0  0  0  0  0  0  0  0  0  0
   -7.9699    5.2054  -13.2203 C   0  0  0  0  0  0  0  0  0  0  0  0
   -7.8843    6.3447  -12.9741 O   0  0  0  0  0  0  0  0  0  0  0  0
   -8.2333    3.9990  -12.2950 N   0  0  0  0  0  0  0  0  0  0  0  0
   -8.3368    3.1377  -12.7605 H   0  0  0  0  0  0  0  0  0  0  0  0
   -8.3487    3.9300  -10.9087 C   0  0  0  0  0  0  0  0  0  0  0  0
   -8.0788    5.0489  -10.1019 C   0  0  0  0  0  0  0  0  0  0  0  0
   -8.2036    4.9791   -8.7105 C   0  0  0  0  0  0  0  0  0  0  0  0
   -8.6242    3.7866   -8.1551 C   0  0  0  0  0  0  0  0  0  0  0  0
   -8.8826    2.6749   -8.9523 C   0  0  0  0  0  0  0  0  0  0  0  0
   -8.7388    2.7226  -10.3280 C   0  0  0  0  0  0  0  0  0  0  0  0
   -9.2941    1.5379   -8.0780 C   0  0  0  0  0  0  0  0  0  0  0  0
   -9.6582    2.1681   -6.7817 N   0  0  0  0  0  0  0  0  0  0  0  0
   -8.8839    3.4286   -6.7301 C   0  0  0  0  0  0  0  0  0  0  0  0
   -9.4025    1.5595   -6.0041 H   0  0  0  0  0  0  0  0  0  0  0  0
 19 20  1  0  0  0
 20  1  1  0  0  0
  1  2  2  0  0  0
  2 24  1  0  0  0
 24 25  2  0  0  0
 24 26  1  0  0  0
 26 28  1  0  0  0
 28 29  2  0  0  0
 29 30  1  0  0  0
 30 31  2  0  0  0
 31 32  1  0  0  0
 32 33  2  0  0  0
 32 34  1  0  0  0
 34 35  1  0  0  0
 35 36  1  0  0  0
  2  3  1  0  0  0
  3  4  2  0  0  0
  4  5  1  0  0  0
  4  6  1  0  0  0
  6  7  1  0  0  0
  7  8  1  0  0  0
  8  9  2  0  0  0
  9 12  1  0  0  0
 12 13  1  0  0  0
 13 14  1  0  0  0
 14 15  1  0  0  0
 15 16  1  0  0  0
 16 17  1  0  0  0
  9 10  1  0  0  0
 10  1  1  0  0  0
 33 28  1  0  0  0
 10  6  2  0  0  0
 36 31  1  0  0  0
 17 12  1  0  0  0
 19 21  1  0  0  0
 19 22  1  0  0  0
 20 23  1  0  0  0
 26 27  1  0  0  0
 35 37  1  0  0  0
  7 11  1  0  0  0
 15 18  1  0  0  0
M  END
> <minimizedAffinity>
-9.64013

> <minimizedRMSD>
0.34795

$$$$
P26233


 33 37  0  0  0  0  0  0  0  0999 V2000
   -7.9542    4.6610  -14.9842 C   0  0  0  0  0  0  0  0  0  0  0  0
   -8.9320    4.1820  -15.8510 C   0  0  0  0  0  0  0  0  0  0  0  0
   -8.6482    4.0681  -17.2133 C   0  0  0  0  0  0  0  0  0  0  0  0
   -9.6159    3.6864  -18.0594 F   0  0  0  0  0  0  0  0  0  0  0  0
   -7.3858    4.4605  -17.6798 C   0  0  0  0  0  0  0  0  0  0  0  0
   -6.8853    4.5740  -18.9554 N   0  0  0  0  0  0  0  0  0  0  0  0
   -5.5826    5.0227  -18.9085 C   0  0  0  0  0  0  0  0  0  0  0  0
   -5.2210    5.2218  -17.5891 C   0  0  0  0  0  0  0  0  0  0  0  0
   -6.3778    4.8872  -16.8141 C   0  0  0  0  0  0  0  0  0  0  0  0
   -6.6642    4.9632  -15.4405 C   0  0  0  0  0  0  0  0  0  0  0  0
   -7.3829    4.3659  -19.7790 H   0  0  0  0  0  0  0  0  0  0  0  0
   -3.8826    5.6584  -17.0233 C   0  0  0  0  0  0  0  0  0  0  0  0
   -2.7350    4.8677  -17.6749 C   0  0  0  0  0  0  0  0  0  0  0  0
   -1.4705    5.6972  -17.8682 C   0  0  0  0  0  0  0  0  0  0  0  0
   -1.1908    6.5321  -16.7109 N   0  0  0  0  0  0  0  0  0  0  0  0
   -2.2199    7.5345  -16.5211 C   0  0  0  0  0  0  0  0  0  0  0  0
   -2.2683    7.7429  -15.1788 F   0  0  0  0  0  0  0  0  0  0  0  0
   -3.6224    7.1704  -17.0614 C   0  0  0  0  0  0  0  0  0  0  0  0
   -0.2941    6.9987  -16.8473 H   0  0  0  0  0  0  0  0  0  0  0  0
   -8.4479    6.2196  -13.4128 O   0  0  0  0  0  0  0  0  0  0  0  0
   -8.2654    5.0816  -13.5979 C   0  0  0  0  0  0  0  0  0  0  0  0
   -8.2408    3.9003  -12.6093 N   0  0  0  0  0  0  0  0  0  0  0  0
   -8.1402    3.0149  -13.0278 H   0  0  0  0  0  0  0  0  0  0  0  0
   -8.3376    3.8809  -11.2194 C   0  0  0  0  0  0  0  0  0  0  0  0
   -8.0256    5.0263  -10.4666 C   0  0  0  0  0  0  0  0  0  0  0  0
   -8.0956    5.0103   -9.0712 C   0  0  0  0  0  0  0  0  0  0  0  0
   -8.4909    3.8399   -8.4522 C   0  0  0  0  0  0  0  0  0  0  0  0
   -8.8021    2.7066   -9.1931 C   0  0  0  0  0  0  0  0  0  0  0  0
   -8.7281    2.7055  -10.5775 C   0  0  0  0  0  0  0  0  0  0  0  0
   -9.1621    1.5943   -8.2680 C   0  0  0  0  0  0  0  0  0  0  0  0
   -9.2559    2.1999   -6.9141 N   0  0  0  0  0  0  0  0  0  0  0  0
   -8.6481    3.5435   -7.0011 C   0  0  0  0  0  0  0  0  0  0  0  0
   -8.7483    1.6286   -6.2385 H   0  0  0  0  0  0  0  0  0  0  0  0
 20 21  2  0  0  0
 21 22  1  0  0  0
 22 24  1  0  0  0
 24 25  2  0  0  0
 25 26  1  0  0  0
 26 27  2  0  0  0
 27 28  1  0  0  0
 28 29  2  0  0  0
 28 30  1  0  0  0
 30 31  1  0  0  0
 31 32  1  0  0  0
 21  1  1  0  0  0
  1  2  2  0  0  0
  2  3  1  0  0  0
  3  4  1  0  0  0
  3  5  2  0  0  0
  5  6  1  0  0  0
  6  7  1  0  0  0
  7  8  2  0  0  0
 12  8  1  0  0  0
 12 13  1  0  0  0
 13 14  1  0  0  0
 14 15  1  0  0  0
 15 16  1  0  0  0
 16 17  1  0  0  0
 16 18  1  0  0  0
  8  9  1  0  0  0
  9 10  2  0  0  0
 29 24  1  0  0  0
 10  1  1  0  0  0
 32 27  1  0  0  0
  9  5  1  0  0  0
 18 12  1  0  0  0
 22 23  1  0  0  0
 31 33  1  0  0  0
  6 11  1  0  0  0
 15 19  1  0  0  0
M  END
> <minimizedAffinity>
-10.24418

> <minimizedRMSD>
0.60828

$$$$
P26234


 33 37  0  0  0  0  0  0  0  0999 V2000
   -4.0911    5.2222  -19.9916 C   0  0  0  0  0  0  0  0  0  0  0  0
   -5.0704    5.0767  -18.8844 C   0  0  0  0  0  0  0  0  0  0  0  0
   -6.3499    4.6398  -19.1221 N   0  0  0  0  0  0  0  0  0  0  0  0
   -7.0415    4.5501  -17.9406 C   0  0  0  0  0  0  0  0  0  0  0  0
   -8.3690    4.1946  -17.7048 C   0  0  0  0  0  0  0  0  0  0  0  0
   -9.1887    3.9531  -18.7322 F   0  0  0  0  0  0  0  0  0  0  0  0
   -8.8719    4.2399  -16.4087 C   0  0  0  0  0  0  0  0  0  0  0  0
   -8.0450    4.6564  -15.3679 C   0  0  0  0  0  0  0  0  0  0  0  0
   -6.7049    5.0114  -15.6078 C   0  0  0  0  0  0  0  0  0  0  0  0
   -6.1902    4.9686  -16.9208 C   0  0  0  0  0  0  0  0  0  0  0  0
   -4.9503    5.3510  -17.5315 C   0  0  0  0  0  0  0  0  0  0  0  0
   -6.7170    4.4229  -20.0094 H   0  0  0  0  0  0  0  0  0  0  0  0
   -3.7451    5.9845  -16.8911 C   0  0  0  0  0  0  0  0  0  0  0  0
   -4.0416    7.3982  -16.3729 C   0  0  0  0  0  0  0  0  0  0  0  0
   -2.7855    8.0164  -15.7679 C   0  0  0  0  0  0  0  0  0  0  0  0
   -2.2231    7.1767  -14.7098 N   0  0  0  0  0  0  0  0  0  0  0  0
   -1.8874    5.8428  -15.2162 C   0  0  0  0  0  0  0  0  0  0  0  0
   -3.1054    5.1265  -15.7982 C   0  0  0  0  0  0  0  0  0  0  0  0
   -2.9069    7.0852  -13.9585 H   0  0  0  0  0  0  0  0  0  0  0  0
   -8.5969    4.9298  -14.0127 C   0  0  0  0  0  0  0  0  0  0  0  0
   -9.4517    5.7214  -13.9259 O   0  0  0  0  0  0  0  0  0  0  0  0
   -7.9365    4.0453  -12.9304 N   0  0  0  0  0  0  0  0  0  0  0  0
   -7.2815    3.3949  -13.2729 H   0  0  0  0  0  0  0  0  0  0  0  0
   -8.1177    4.0186  -11.5479 C   0  0  0  0  0  0  0  0  0  0  0  0
   -7.8886    5.1666  -10.7701 C   0  0  0  0  0  0  0  0  0  0  0  0
   -8.0935    5.1520   -9.3863 C   0  0  0  0  0  0  0  0  0  0  0  0
   -8.5265    3.9765   -8.8047 C   0  0  0  0  0  0  0  0  0  0  0  0
   -8.7343    2.8318   -9.5691 C   0  0  0  0  0  0  0  0  0  0  0  0
   -8.5435    2.8345  -10.9415 C   0  0  0  0  0  0  0  0  0  0  0  0
   -9.1365    1.7154   -8.6633 C   0  0  0  0  0  0  0  0  0  0  0  0
   -9.5630    2.3794   -7.4035 N   0  0  0  0  0  0  0  0  0  0  0  0
   -8.8359    3.6688   -7.3774 C   0  0  0  0  0  0  0  0  0  0  0  0
   -9.3101    1.8100   -6.5960 H   0  0  0  0  0  0  0  0  0  0  0  0
  1  2  1  0  0  0
  2  3  1  0  0  0
  3  4  1  0  0  0
  4  5  2  0  0  0
  5  6  1  0  0  0
  5  7  1  0  0  0
  7  8  2  0  0  0
  8 20  1  0  0  0
 20 21  2  0  0  0
 20 22  1  0  0  0
 22 24  1  0  0  0
 24 25  2  0  0  0
 25 26  1  0  0  0
 26 27  2  0  0  0
 27 28  1  0  0  0
 28 29  2  0  0  0
 28 30  1  0  0  0
 30 31  1  0  0  0
 31 32  1  0  0  0
  8  9  1  0  0  0
  9 10  2  0  0  0
 10 11  1  0  0  0
 11 13  1  0  0  0
 13 14  1  0  0  0
 14 15  1  0  0  0
 15 16  1  0  0  0
 16 17  1  0  0  0
 17 18  1  0  0  0
 11  2  2  0  0  0
 18 13  1  0  0  0
 10  4  1  0  0  0
 29 24  1  0  0  0
 32 27  1  0  0  0
  3 12  1  0  0  0
 22 23  1  0  0  0
 31 33  1  0  0  0
 16 19  1  0  0  0
M  END
> <minimizedAffinity>
-10.52509

> <minimizedRMSD>
1.06182

$$$$
P26237


 32 37  0  0  0  0  0  0  0  0999 V2000
   -7.1287    4.7704  -14.2838 C   0  0  0  0  0  0  0  0  0  0  0  0
   -8.3634    4.2750  -14.8291 C   0  0  0  0  0  0  0  0  0  0  0  0
   -8.4216    4.1756  -16.2171 C   0  0  0  0  0  0  0  0  0  0  0  0
   -9.2366    3.8945  -17.3505 C   0  0  0  0  0  0  0  0  0  0  0  0
   -8.5830    4.0587  -18.5409 N   0  0  0  0  0  0  0  0  0  0  0  0
   -7.4051    4.4651  -18.1368 N   0  0  0  0  0  0  0  0  0  0  0  0
   -6.3187    4.9369  -18.7387 C   0  0  0  0  0  0  0  0  0  0  0  0
   -5.4305    5.2918  -17.6804 C   0  0  0  0  0  0  0  0  0  0  0  0
   -6.1048    5.0170  -16.4376 C   0  0  0  0  0  0  0  0  0  0  0  0
   -5.9802    5.1364  -15.0557 C   0  0  0  0  0  0  0  0  0  0  0  0
   -7.2912    4.5421  -16.8471 C   0  0  0  0  0  0  0  0  0  0  0  0
   -4.0583    5.8937  -17.7272 C   0  0  0  0  0  0  0  0  0  0  0  0
   -3.7053    6.5471  -19.0574 C   0  0  0  0  0  0  0  0  0  0  0  0
   -2.3938    7.3324  -18.9186 C   0  0  0  0  0  0  0  0  0  0  0  0
   -1.4896    6.8146  -17.8856 N   0  0  0  0  0  0  0  0  0  0  0  0
   -1.5764    5.3598  -17.7706 C   0  0  0  0  0  0  0  0  0  0  0  0
   -2.9590    4.9235  -17.2815 C   0  0  0  0  0  0  0  0  0  0  0  0
   -1.7384    7.2325  -16.9890 H   0  0  0  0  0  0  0  0  0  0  0  0
   -6.3133    5.8802  -12.4602 O   0  0  0  0  0  0  0  0  0  0  0  0
   -7.0479    5.0540  -12.8317 C   0  0  0  0  0  0  0  0  0  0  0  0
   -8.0308    4.1650  -12.0466 N   0  0  0  0  0  0  0  0  0  0  0  0
   -8.6025    3.5900  -12.6050 H   0  0  0  0  0  0  0  0  0  0  0  0
   -8.2417    4.0426  -10.6806 C   0  0  0  0  0  0  0  0  0  0  0  0
   -8.0652    5.1386   -9.8204 C   0  0  0  0  0  0  0  0  0  0  0  0
   -8.3062    5.0155   -8.4504 C   0  0  0  0  0  0  0  0  0  0  0  0
   -8.7371    3.7922   -7.9765 C   0  0  0  0  0  0  0  0  0  0  0  0
   -8.8968    2.7033   -8.8300 C   0  0  0  0  0  0  0  0  0  0  0  0
   -8.6504    2.8054  -10.1846 C   0  0  0  0  0  0  0  0  0  0  0  0
   -9.3240    1.5208   -8.0303 C   0  0  0  0  0  0  0  0  0  0  0  0
   -9.8289    2.0929   -6.7570 N   0  0  0  0  0  0  0  0  0  0  0  0
   -9.0991    3.3712   -6.5915 C   0  0  0  0  0  0  0  0  0  0  0  0
   -9.6309    1.4642   -5.9786 H   0  0  0  0  0  0  0  0  0  0  0  0
 19 20  2  0  0  0
 20 21  1  0  0  0
 21 23  1  0  0  0
 23 24  2  0  0  0
 24 25  1  0  0  0
 25 26  2  0  0  0
 26 27  1  0  0  0
 27 28  2  0  0  0
 27 29  1  0  0  0
 29 30  1  0  0  0
 30 31  1  0  0  0
 20  1  1  0  0  0
  1  2  2  0  0  0
  2  3  1  0  0  0
  3  4  1  0  0  0
  4  5  2  0  0  0
  5  6  1  0  0  0
  6  7  1  0  0  0
  7  8  2  0  0  0
  8 12  1  0  0  0
 12 13  1  0  0  0
 13 14  1  0  0  0
 14 15  1  0  0  0
 15 16  1  0  0  0
 16 17  1  0  0  0
  8  9  1  0  0  0
  9 10  2  0  0  0
  9 11  1  0  0  0
 28 23  1  0  0  0
 10  1  1  0  0  0
 31 26  1  0  0  0
 11  3  2  0  0  0
 11  6  1  0  0  0
 17 12  1  0  0  0
 21 22  1  0  0  0
 30 32  1  0  0  0
 15 18  1  0  0  0
M  END
> <minimizedAffinity>
-10.44970

> <minimizedRMSD>
0.44383

$$$$
P26239


 37 42  0  0  0  0  0  0  0  0999 V2000
   -7.8204    5.2780  -14.4678 C   0  0  0  0  0  0  0  0  0  0  0  0
   -8.5600    4.0594  -15.0264 C   0  0  0  0  0  0  0  0  0  0  0  0
   -8.7309    4.1907  -16.5361 C   0  0  0  0  0  0  0  0  0  0  0  0
   -9.1937    3.0312  -17.0697 F   0  0  0  0  0  0  0  0  0  0  0  0
   -7.4368    4.6064  -17.1495 C   0  0  0  0  0  0  0  0  0  0  0  0
   -7.2247    4.4950  -18.4905 N   0  0  0  0  0  0  0  0  0  0  0  0
   -5.9773    4.9603  -18.7685 C   0  0  0  0  0  0  0  0  0  0  0  0
   -5.3453    5.3832  -17.6031 C   0  0  0  0  0  0  0  0  0  0  0  0
   -6.3207    5.1915  -16.5363 C   0  0  0  0  0  0  0  0  0  0  0  0
   -6.3368    5.4740  -15.0007 C   0  0  0  0  0  0  0  0  0  0  0  0
   -5.3266    4.5894  -14.2581 C   0  0  0  0  0  0  0  0  0  0  0  0
   -4.3789    5.5165  -13.5137 C   0  0  0  0  0  0  0  0  0  0  0  0
   -5.0625    6.7958  -13.3899 N   0  0  0  0  0  0  0  0  0  0  0  0
   -5.8903    6.9008  -14.5967 C   0  0  0  0  0  0  0  0  0  0  0  0
   -7.8656    4.1381  -19.1471 H   0  0  0  0  0  0  0  0  0  0  0  0
   -4.3884    7.5603  -13.3496 H   0  0  0  0  0  0  0  0  0  0  0  0
   -3.9118    5.8855  -17.6953 C   0  0  0  0  0  0  0  0  0  0  0  0
   -3.6519    7.3511  -17.3693 C   0  0  0  0  0  0  0  0  0  0  0  0
   -2.2207    7.7360  -17.7335 C   0  0  0  0  0  0  0  0  0  0  0  0
   -1.2627    6.9084  -16.9969 N   0  0  0  0  0  0  0  0  0  0  0  0
   -1.4619    5.4862  -17.2999 C   0  0  0  0  0  0  0  0  0  0  0  0
   -2.8826    5.0049  -16.9820 C   0  0  0  0  0  0  0  0  0  0  0  0
   -1.3911    7.0584  -15.9962 H   0  0  0  0  0  0  0  0  0  0  0  0
   -8.2222    6.7176  -12.6637 O   0  0  0  0  0  0  0  0  0  0  0  0
   -8.0365    5.6069  -12.9788 C   0  0  0  0  0  0  0  0  0  0  0  0
   -7.9425    4.3234  -12.1198 N   0  0  0  0  0  0  0  0  0  0  0  0
   -7.7008    3.5100  -12.6192 H   0  0  0  0  0  0  0  0  0  0  0  0
   -8.1435    4.1320  -10.7599 C   0  0  0  0  0  0  0  0  0  0  0  0
   -7.9590    5.2077   -9.8718 C   0  0  0  0  0  0  0  0  0  0  0  0
   -8.2091    5.0639   -8.5076 C   0  0  0  0  0  0  0  0  0  0  0  0
   -8.6856    3.8470   -8.0678 C   0  0  0  0  0  0  0  0  0  0  0  0
   -8.8691    2.7820   -8.9482 C   0  0  0  0  0  0  0  0  0  0  0  0
   -8.5746    2.8923  -10.2956 C   0  0  0  0  0  0  0  0  0  0  0  0
   -9.3968    1.6148   -8.1844 C   0  0  0  0  0  0  0  0  0  0  0  0
   -9.8829    2.1870   -6.9005 N   0  0  0  0  0  0  0  0  0  0  0  0
   -9.0842    3.4152   -6.6969 C   0  0  0  0  0  0  0  0  0  0  0  0
   -9.7302    1.5299   -6.1354 H   0  0  0  0  0  0  0  0  0  0  0  0
 24 25  2  0  0  0
 25 26  1  0  0  0
 26 28  1  0  0  0
 28 29  2  0  0  0
 29 30  1  0  0  0
 30 31  2  0  0  0
 31 32  1  0  0  0
 32 33  2  0  0  0
 32 34  1  0  0  0
 34 35  1  0  0  0
 35 36  1  0  0  0
  1 25  1  0  0  0
  1  2  1  0  0  0
  2  3  1  0  0  0
  3  4  1  0  0  0
  3  5  1  0  0  0
  5  6  1  0  0  0
  6  7  1  0  0  0
  7  8  2  0  0  0
  8 17  1  0  0  0
 17 18  1  0  0  0
 18 19  1  0  0  0
 19 20  1  0  0  0
 20 21  1  0  0  0
 21 22  1  0  0  0
  8  9  1  0  0  0
  9 10  1  0  0  0
 10 11  1  0  0  0
 11 12  1  0  0  0
 12 13  1  0  0  0
 13 14  1  0  0  0
 33 28  1  0  0  0
 10  1  1  0  0  0
 36 31  1  0  0  0
  9  5  2  0  0  0
 14 10  1  0  0  0
 22 17  1  0  0  0
 26 27  1  0  0  0
 35 37  1  0  0  0
  6 15  1  0  0  0
 20 23  1  0  0  0
 13 16  1  0  0  0
M  END
> <minimizedAffinity>
-9.56510

> <minimizedRMSD>
0.22610

$$$$
P26247


 34 38  0  0  0  0  0  0  0  0999 V2000
   -5.5505    5.1465  -18.1140 C   0  0  0  0  0  0  0  0  0  0  0  0
   -6.2955    4.8812  -19.2459 C   0  0  0  0  0  0  0  0  0  0  0  0
   -7.5444    4.4697  -18.8722 N   0  0  0  0  0  0  0  0  0  0  0  0
   -7.6283    4.4364  -17.5039 C   0  0  0  0  0  0  0  0  0  0  0  0
   -8.7035    4.0978  -16.6848 C   0  0  0  0  0  0  0  0  0  0  0  0
   -9.8658    3.7059  -17.2201 F   0  0  0  0  0  0  0  0  0  0  0  0
   -8.5737    4.2272  -15.3060 C   0  0  0  0  0  0  0  0  0  0  0  0
   -7.3672    4.6673  -14.7632 C   0  0  0  0  0  0  0  0  0  0  0  0
   -6.2684    4.9649  -15.5924 C   0  0  0  0  0  0  0  0  0  0  0  0
   -6.3998    4.8613  -16.9941 C   0  0  0  0  0  0  0  0  0  0  0  0
   -8.2726    4.2332  -19.4912 H   0  0  0  0  0  0  0  0  0  0  0  0
   -1.5429    6.5249  -17.1389 N   0  0  0  0  0  0  0  0  0  0  0  0
   -2.5420    7.5086  -17.5756 C   0  0  0  0  0  0  0  0  0  0  0  0
   -3.9680    6.9836  -17.3921 C   0  0  0  0  0  0  0  0  0  0  0  0
   -4.1424    5.6662  -18.1485 C   0  0  0  0  0  0  0  0  0  0  0  0
   -3.0978    4.6564  -17.6787 C   0  0  0  0  0  0  0  0  0  0  0  0
   -1.6952    5.2425  -17.8475 C   0  0  0  0  0  0  0  0  0  0  0  0
   -0.0529    8.3369  -17.9513 C   0  0  0  0  0  0  0  0  0  0  0  0
   -0.1457    7.0073  -17.1927 C   0  0  0  0  0  0  0  0  0  0  0  0
    0.8791    6.0173  -17.7624 C   0  0  0  0  0  0  0  0  0  0  0  0
   -7.2529    4.9923  -13.3126 C   0  0  0  0  0  0  0  0  0  0  0  0
   -6.5508    5.8764  -13.0107 O   0  0  0  0  0  0  0  0  0  0  0  0
   -8.1567    4.0868  -12.4420 N   0  0  0  0  0  0  0  0  0  0  0  0
   -8.7165    3.4545  -12.9481 H   0  0  0  0  0  0  0  0  0  0  0  0
   -8.3073    4.0205  -11.0558 C   0  0  0  0  0  0  0  0  0  0  0  0
   -8.0897    5.1503  -10.2506 C   0  0  0  0  0  0  0  0  0  0  0  0
   -8.2426    5.0834   -8.8612 C   0  0  0  0  0  0  0  0  0  0  0  0
   -8.6117    3.8753   -8.2988 C   0  0  0  0  0  0  0  0  0  0  0  0
   -8.8240    2.7541   -9.0907 C   0  0  0  0  0  0  0  0  0  0  0  0
   -8.6831    2.8082  -10.4702 C   0  0  0  0  0  0  0  0  0  0  0  0
   -9.1627    1.5915   -8.2195 C   0  0  0  0  0  0  0  0  0  0  0  0
   -9.3701    2.1464   -6.8566 N   0  0  0  0  0  0  0  0  0  0  0  0
   -8.8304    3.5219   -6.8677 C   0  0  0  0  0  0  0  0  0  0  0  0
   -8.8741    1.5804   -6.1681 H   0  0  0  0  0  0  0  0  0  0  0  0
 18 19  1  0  0  0
 19 20  1  0  0  0
 19 12  1  0  0  0
 12 13  1  0  0  0
 13 14  1  0  0  0
 14 15  1  0  0  0
 15  1  1  0  0  0
  1  2  2  0  0  0
  2  3  1  0  0  0
  3  4  1  0  0  0
  4  5  2  0  0  0
  5  6  1  0  0  0
  5  7  1  0  0  0
  7  8  2  0  0  0
  8 21  1  0  0  0
 21 22  2  0  0  0
 21 23  1  0  0  0
 23 25  1  0  0  0
 25 26  2  0  0  0
 26 27  1  0  0  0
 27 28  2  0  0  0
 28 29  1  0  0  0
 29 30  2  0  0  0
 29 31  1  0  0  0
 31 32  1  0  0  0
 32 33  1  0  0  0
  8  9  1  0  0  0
  9 10  2  0  0  0
 15 16  1  0  0  0
 16 17  1  0  0  0
 17 12  1  0  0  0
 10  1  1  0  0  0
 10  4  1  0  0  0
 30 25  1  0  0  0
 33 28  1  0  0  0
  3 11  1  0  0  0
 23 24  1  0  0  0
 32 34  1  0  0  0
M  END
> <minimizedAffinity>
-9.71675

> <minimizedRMSD>
0.73805

$$$$
P26248


 32 37  0  0  0  0  0  0  0  0999 V2000
   -9.1632    2.7832  -17.1459 F   0  0  0  0  0  0  0  0  0  0  0  0
   -8.9253    4.1209  -17.1245 C   0  0  0  0  0  0  0  0  0  0  0  0
   -9.0659    4.6245  -15.6811 C   0  0  0  0  0  0  0  0  0  0  0  0
   -7.8176    4.7606  -14.8136 C   0  0  0  0  0  0  0  0  0  0  0  0
   -6.4484    4.7954  -15.4643 C   0  0  0  0  0  0  0  0  0  0  0  0
   -6.4674    4.7722  -16.9498 C   0  0  0  0  0  0  0  0  0  0  0  0
   -5.4360    5.1270  -17.8651 C   0  0  0  0  0  0  0  0  0  0  0  0
   -5.9781    4.9691  -19.1266 C   0  0  0  0  0  0  0  0  0  0  0  0
   -7.2823    4.5439  -19.0067 N   0  0  0  0  0  0  0  0  0  0  0  0
   -7.5899    4.4467  -17.6780 C   0  0  0  0  0  0  0  0  0  0  0  0
   -7.9205    5.8891  -13.6529 N   0  0  0  0  0  0  0  0  0  0  0  0
   -7.9780    4.6721  -13.4045 C   0  0  0  0  0  0  0  0  0  0  0  0
   -7.8918    4.3434  -19.7534 H   0  0  0  0  0  0  0  0  0  0  0  0
   -4.0667    5.6264  -17.4916 C   0  0  0  0  0  0  0  0  0  0  0  0
   -3.9311    7.1384  -17.7607 C   0  0  0  0  0  0  0  0  0  0  0  0
   -2.5089    7.5461  -18.1430 C   0  0  0  0  0  0  0  0  0  0  0  0
   -1.5286    6.8089  -17.3599 N   0  0  0  0  0  0  0  0  0  0  0  0
   -1.5697    5.3685  -17.6417 C   0  0  0  0  0  0  0  0  0  0  0  0
   -2.9228    4.8522  -18.1425 C   0  0  0  0  0  0  0  0  0  0  0  0
   -1.7206    6.9562  -16.3690 H   0  0  0  0  0  0  0  0  0  0  0  0
   -8.1207    3.6363  -12.5867 N   0  0  0  0  0  0  0  0  0  0  0  0
   -8.0865    2.7360  -12.9835 H   0  0  0  0  0  0  0  0  0  0  0  0
   -8.3168    3.7260  -11.1979 C   0  0  0  0  0  0  0  0  0  0  0  0
   -8.0289    4.8929  -10.4590 C   0  0  0  0  0  0  0  0  0  0  0  0
   -8.2010    4.9414   -9.0692 C   0  0  0  0  0  0  0  0  0  0  0  0
   -8.6696    3.8102   -8.4304 C   0  0  0  0  0  0  0  0  0  0  0  0
   -8.9349    2.6476   -9.1425 C   0  0  0  0  0  0  0  0  0  0  0  0
   -8.7516    2.5860  -10.5110 C   0  0  0  0  0  0  0  0  0  0  0  0
   -9.3892    1.5847   -8.2007 C   0  0  0  0  0  0  0  0  0  0  0  0
   -9.7602    2.3148   -6.9602 N   0  0  0  0  0  0  0  0  0  0  0  0
   -8.9647    3.5643   -6.9892 C   0  0  0  0  0  0  0  0  0  0  0  0
   -9.5259    1.7612   -6.1362 H   0  0  0  0  0  0  0  0  0  0  0  0
  2  1  1  0  0  0
  2  3  1  0  0  0
  4  3  1  0  0  0
  4  5  1  0  0  0
  5  6  1  0  0  0
  6  7  1  0  0  0
  7 14  1  0  0  0
 14 15  1  0  0  0
 15 16  1  0  0  0
 16 17  1  0  0  0
 17 18  1  0  0  0
 18 19  1  0  0  0
  7  8  2  0  0  0
  8  9  1  0  0  0
  9 10  1  0  0  0
  4 11  1  0  0  0
 11 12  2  0  0  0
 12 21  1  0  0  0
 21 23  1  0  0  0
 23 24  2  0  0  0
 24 25  1  0  0  0
 25 26  2  0  0  0
 26 27  1  0  0  0
 27 28  2  0  0  0
 27 29  1  0  0  0
 29 30  1  0  0  0
 30 31  1  0  0  0
 10  2  1  0  0  0
 28 23  1  0  0  0
 12  4  1  0  0  0
 31 26  1  0  0  0
 10  6  2  0  0  0
 19 14  1  0  0  0
 17 20  1  0  0  0
  9 13  1  0  0  0
 21 22  1  0  0  0
 30 32  1  0  0  0
M  END
> <minimizedAffinity>
-9.99801

> <minimizedRMSD>
0.27647

$$$$
P26249


 42 47  0  0  0  0  0  0  0  0999 V2000
   -7.2457    4.9924  -13.0944 C   0  0  0  0  0  0  0  0  0  0  0  0
   -7.6355    6.3653  -13.0479 O   0  0  0  0  0  0  0  0  0  0  0  0
   -7.6740    6.6594  -12.1244 H   0  0  0  0  0  0  0  0  0  0  0  0
   -7.2346    4.6919  -14.6124 C   0  0  0  0  0  0  0  0  0  0  0  0
   -8.4619    4.2495  -15.2008 C   0  0  0  0  0  0  0  0  0  0  0  0
   -8.6409    4.0697  -16.5760 C   0  0  0  0  0  0  0  0  0  0  0  0
   -9.8177    3.6575  -17.0664 F   0  0  0  0  0  0  0  0  0  0  0  0
   -7.5861    4.4129  -17.4030 C   0  0  0  0  0  0  0  0  0  0  0  0
   -7.4531    4.4424  -18.7721 N   0  0  0  0  0  0  0  0  0  0  0  0
   -6.2087    4.9327  -19.1114 C   0  0  0  0  0  0  0  0  0  0  0  0
   -5.5425    5.2264  -17.9487 C   0  0  0  0  0  0  0  0  0  0  0  0
   -6.3923    4.8681  -16.8770 C   0  0  0  0  0  0  0  0  0  0  0  0
   -6.1476    4.9861  -15.4922 C   0  0  0  0  0  0  0  0  0  0  0  0
   -4.7674    5.5227  -15.1359 C   0  0  0  0  0  0  0  0  0  0  0  0
   -3.6925    5.3985  -16.2896 C   0  0  0  0  0  0  0  0  0  0  0  0
   -2.3792    6.1455  -15.9707 C   0  0  0  0  0  0  0  0  0  0  0  0
   -2.4841    7.5990  -16.0909 N   0  0  0  0  0  0  0  0  0  0  0  0
   -2.9189    7.9840  -17.4322 C   0  0  0  0  0  0  0  0  0  0  0  0
   -4.2630    7.3633  -17.7941 C   0  0  0  0  0  0  0  0  0  0  0  0
   -4.2055    5.8331  -17.6931 C   0  0  0  0  0  0  0  0  0  0  0  0
   -8.1427    4.1564  -19.4139 H   0  0  0  0  0  0  0  0  0  0  0  0
   -1.5721    8.0157  -15.9035 H   0  0  0  0  0  0  0  0  0  0  0  0
   -5.2849    5.7480  -11.8941 O   0  0  0  0  0  0  0  0  0  0  0  0
   -5.8415    4.8130  -12.3326 C   0  0  0  0  0  0  0  0  0  0  0  0
   -5.4984    3.2982  -12.2353 N   0  0  0  0  0  0  0  0  0  0  0  0
   -6.0867    2.7078  -12.7593 H   0  0  0  0  0  0  0  0  0  0  0  0
   -4.4556    2.6166  -11.5002 C   0  0  0  0  0  0  0  0  0  0  0  0
   -4.8429    2.2787  -10.0608 C   0  0  0  0  0  0  0  0  0  0  0  0
   -5.8467    1.3674  -10.0635 F   0  0  0  0  0  0  0  0  0  0  0  0
   -3.7853    1.6808   -9.4431 F   0  0  0  0  0  0  0  0  0  0  0  0
   -8.2811    4.1962  -12.4012 N   0  0  0  0  0  0  0  0  0  0  0  0
   -8.9366    3.7021  -12.9448 H   0  0  0  0  0  0  0  0  0  0  0  0
   -8.3710    4.1136  -11.0070 C   0  0  0  0  0  0  0  0  0  0  0  0
   -8.1667    5.2144  -10.1525 C   0  0  0  0  0  0  0  0  0  0  0  0
   -8.2581    5.1012   -8.7581 C   0  0  0  0  0  0  0  0  0  0  0  0
   -8.5853    3.8739   -8.2191 C   0  0  0  0  0  0  0  0  0  0  0  0
   -8.8223    2.7837   -9.0398 C   0  0  0  0  0  0  0  0  0  0  0  0
   -8.7320    2.8885  -10.4216 C   0  0  0  0  0  0  0  0  0  0  0  0
   -9.1401    1.5910   -8.2022 C   0  0  0  0  0  0  0  0  0  0  0  0
   -9.2920    2.0964   -6.8116 N   0  0  0  0  0  0  0  0  0  0  0  0
   -8.7579    3.4732   -6.7947 C   0  0  0  0  0  0  0  0  0  0  0  0
   -8.7660    1.5083   -6.1652 H   0  0  0  0  0  0  0  0  0  0  0  0
 23 24  2  0  0  0
 24 25  1  0  0  0
 25 27  1  0  0  0
 27 28  1  0  0  0
 28 29  1  0  0  0
 28 30  1  0  0  0
 24  1  1  0  0  0
  1  2  1  0  0  0
  1 31  1  0  0  0
 31 33  1  0  0  0
 33 34  2  0  0  0
 34 35  1  0  0  0
 35 36  2  0  0  0
 36 37  1  0  0  0
 37 38  2  0  0  0
 37 39  1  0  0  0
 39 40  1  0  0  0
 40 41  1  0  0  0
  1  4  1  0  0  0
  4  5  2  0  0  0
  5  6  1  0  0  0
  6  7  1  0  0  0
  6  8  2  0  0  0
  8  9  1  0  0  0
  9 10  1  0  0  0
 10 11  2  0  0  0
 11 12  1  0  0  0
 12 13  2  0  0  0
 13 14  1  0  0  0
 15 14  1  0  0  0
 15 16  1  0  0  0
 16 17  1  0  0  0
 17 18  1  0  0  0
 18 19  1  0  0  0
 20 19  1  0  0  0
 38 33  1  0  0  0
 13  4  1  0  0  0
 20 15  1  0  0  0
 41 36  1  0  0  0
 12  8  1  0  0  0
 20 11  1  0  0  0
 25 26  1  0  0  0
  2  3  1  0  0  0
 31 32  1  0  0  0
 40 42  1  0  0  0
  9 21  1  0  0  0
 17 22  1  0  0  0
M  END
> <minimizedAffinity>
-10.32041

> <minimizedRMSD>
0.32832

$$$$
P26251


 44 48  0  0  0  0  0  0  0  0999 V2000
   -7.6070    5.2350  -13.2013 C   0  0  0  0  0  0  0  0  0  0  0  0
   -6.4289    5.5261  -12.4771 O   0  0  0  0  0  0  0  0  0  0  0  0
   -5.8727    4.7326  -12.4321 H   0  0  0  0  0  0  0  0  0  0  0  0
   -6.1552    5.1233  -15.4548 C   0  0  0  0  0  0  0  0  0  0  0  0
   -7.3381    4.7979  -14.6791 C   0  0  0  0  0  0  0  0  0  0  0  0
   -8.4286    4.1653  -15.3252 C   0  0  0  0  0  0  0  0  0  0  0  0
   -8.4674    3.9572  -16.6913 C   0  0  0  0  0  0  0  0  0  0  0  0
   -9.5516    3.4087  -17.2610 F   0  0  0  0  0  0  0  0  0  0  0  0
   -7.4152    4.4357  -17.4540 C   0  0  0  0  0  0  0  0  0  0  0  0
   -7.3054    4.4491  -18.8232 N   0  0  0  0  0  0  0  0  0  0  0  0
   -6.1393    5.0517  -19.1855 C   0  0  0  0  0  0  0  0  0  0  0  0
   -5.4713    5.4445  -18.0419 C   0  0  0  0  0  0  0  0  0  0  0  0
   -6.2691    5.0239  -16.8983 C   0  0  0  0  0  0  0  0  0  0  0  0
   -7.9698    4.0789  -19.4484 H   0  0  0  0  0  0  0  0  0  0  0  0
   -4.1863    6.2127  -18.0502 C   0  0  0  0  0  0  0  0  0  0  0  0
   -4.2925    7.5874  -18.7240 C   0  0  0  0  0  0  0  0  0  0  0  0
   -2.9077    8.1556  -19.0539 C   0  0  0  0  0  0  0  0  0  0  0  0
   -1.8622    7.6635  -18.1563 N   0  0  0  0  0  0  0  0  0  0  0  0
   -1.6949    6.2050  -18.2895 C   0  0  0  0  0  0  0  0  0  0  0  0
   -2.9899    5.4417  -18.6028 C   0  0  0  0  0  0  0  0  0  0  0  0
   -2.1183    7.8834  -17.1938 H   0  0  0  0  0  0  0  0  0  0  0  0
   -3.5853    4.7989  -14.9741 C   0  0  0  0  0  0  0  0  0  0  0  0
   -4.8794    5.5950  -14.7324 C   0  0  0  0  0  0  0  0  0  0  0  0
   -4.6752    7.1114  -14.8537 C   0  0  0  0  0  0  0  0  0  0  0  0
   -8.5213    6.5749  -13.2640 C   0  0  0  0  0  0  0  0  0  0  0  0
   -9.6298    6.5803  -13.6395 O   0  0  0  0  0  0  0  0  0  0  0  0
   -7.6212    7.7417  -12.7622 N   0  0  0  0  0  0  0  0  0  0  0  0
   -6.6887    7.4903  -12.5713 H   0  0  0  0  0  0  0  0  0  0  0  0
   -7.9323    9.1336  -12.5310 C   0  0  0  0  0  0  0  0  0  0  0  0
   -6.8517   10.0947  -13.0086 C   0  0  0  0  0  0  0  0  0  0  0  0
   -5.6222    9.5867  -12.7360 F   0  0  0  0  0  0  0  0  0  0  0  0
   -6.9180   10.2639  -14.3532 F   0  0  0  0  0  0  0  0  0  0  0  0
   -8.2601    4.1720  -12.4347 N   0  0  0  0  0  0  0  0  0  0  0  0
   -8.6076    3.4044  -12.9439 H   0  0  0  0  0  0  0  0  0  0  0  0
   -8.4372    4.1439  -11.0463 C   0  0  0  0  0  0  0  0  0  0  0  0
   -8.1433    5.2190  -10.1796 C   0  0  0  0  0  0  0  0  0  0  0  0
   -8.2006    5.1025   -8.7845 C   0  0  0  0  0  0  0  0  0  0  0  0
   -8.5599    3.8874   -8.2470 C   0  0  0  0  0  0  0  0  0  0  0  0
   -8.8435    2.8100   -9.0706 C   0  0  0  0  0  0  0  0  0  0  0  0
   -8.7803    2.9190  -10.4546 C   0  0  0  0  0  0  0  0  0  0  0  0
   -9.1335    1.6141   -8.2289 C   0  0  0  0  0  0  0  0  0  0  0  0
   -9.2782    2.1223   -6.8383 N   0  0  0  0  0  0  0  0  0  0  0  0
   -8.6915    3.4767   -6.8217 C   0  0  0  0  0  0  0  0  0  0  0  0
   -8.7799    1.5149   -6.1879 H   0  0  0  0  0  0  0  0  0  0  0  0
 22 23  1  0  0  0
 23 24  1  0  0  0
 23  4  1  0  0  0
  4  5  2  0  0  0
  5  1  1  0  0  0
  1  2  1  0  0  0
  1 33  1  0  0  0
 33 35  1  0  0  0
 35 36  2  0  0  0
 36 37  1  0  0  0
 37 38  2  0  0  0
 38 39  1  0  0  0
 39 40  2  0  0  0
 39 41  1  0  0  0
 41 42  1  0  0  0
 42 43  1  0  0  0
  1 25  1  0  0  0
 25 26  2  0  0  0
 25 27  1  0  0  0
 27 29  1  0  0  0
 29 30  1  0  0  0
 30 31  1  0  0  0
 30 32  1  0  0  0
  5  6  1  0  0  0
  6  7  2  0  0  0
  7  8  1  0  0  0
  7  9  1  0  0  0
  9 10  1  0  0  0
 10 11  1  0  0  0
 11 12  2  0  0  0
 12 15  1  0  0  0
 15 16  1  0  0  0
 16 17  1  0  0  0
 17 18  1  0  0  0
 18 19  1  0  0  0
 19 20  1  0  0  0
 12 13  1  0  0  0
 13  4  1  0  0  0
 40 35  1  0  0  0
 13  9  2  0  0  0
 43 38  1  0  0  0
 20 15  1  0  0  0
  2  3  1  0  0  0
 33 34  1  0  0  0
 42 44  1  0  0  0
 27 28  1  0  0  0
 10 14  1  0  0  0
 18 21  1  0  0  0
M  END
> <minimizedAffinity>
-9.02633

> <minimizedRMSD>
0.43016

$$$$
P26252


 34 39  0  0  0  0  0  0  0  0999 V2000
   -8.1182    4.5137  -15.3642 C   0  0  0  0  0  0  0  0  0  0  0  0
   -8.9033    4.0609  -16.4187 C   0  0  0  0  0  0  0  0  0  0  0  0
   -8.4156    4.0957  -17.7307 C   0  0  0  0  0  0  0  0  0  0  0  0
   -9.2193    3.7601  -18.7460 F   0  0  0  0  0  0  0  0  0  0  0  0
   -7.1337    4.6000  -17.9589 C   0  0  0  0  0  0  0  0  0  0  0  0
   -6.4467    4.9101  -19.1360 N   0  0  0  0  0  0  0  0  0  0  0  0
   -5.2624    5.4792  -18.7744 C   0  0  0  0  0  0  0  0  0  0  0  0
   -5.1715    5.5002  -17.4199 C   0  0  0  0  0  0  0  0  0  0  0  0
   -6.3288    4.9781  -16.8764 C   0  0  0  0  0  0  0  0  0  0  0  0
   -6.8026    4.9145  -15.5664 C   0  0  0  0  0  0  0  0  0  0  0  0
   -3.9773    6.1695  -16.9174 C   0  0  0  0  0  0  0  0  0  0  0  0
   -3.1162    6.3285  -18.2228 C   0  0  0  0  0  0  0  0  0  0  0  0
   -2.4274    7.7014  -18.2083 C   0  0  0  0  0  0  0  0  0  0  0  0
   -1.4268    7.8006  -17.0511 C   0  0  0  0  0  0  0  0  0  0  0  0
   -0.4243    6.7470  -17.1252 N   0  0  0  0  0  0  0  0  0  0  0  0
   -0.9995    5.4050  -17.1536 C   0  0  0  0  0  0  0  0  0  0  0  0
   -2.0243    5.2371  -18.2718 C   0  0  0  0  0  0  0  0  0  0  0  0
   -4.1242    6.1307  -19.4574 C   0  0  0  0  0  0  0  0  0  0  0  0
   -6.7600    4.7476  -20.0551 H   0  0  0  0  0  0  0  0  0  0  0  0
    0.1846    6.8213  -16.3103 H   0  0  0  0  0  0  0  0  0  0  0  0
   -9.3536    5.7553  -13.9259 O   0  0  0  0  0  0  0  0  0  0  0  0
   -8.6544    4.8278  -14.0255 C   0  0  0  0  0  0  0  0  0  0  0  0
   -8.0874    3.8883  -12.9514 N   0  0  0  0  0  0  0  0  0  0  0  0
   -7.5761    3.1232  -13.3015 H   0  0  0  0  0  0  0  0  0  0  0  0
   -8.1782    3.9418  -11.5640 C   0  0  0  0  0  0  0  0  0  0  0  0
   -7.8600    5.1214  -10.8662 C   0  0  0  0  0  0  0  0  0  0  0  0
   -7.9605    5.1826   -9.4729 C   0  0  0  0  0  0  0  0  0  0  0  0
   -8.4158    4.0614   -8.8079 C   0  0  0  0  0  0  0  0  0  0  0  0
   -8.7174    2.8901   -9.4977 C   0  0  0  0  0  0  0  0  0  0  0  0
   -8.5826    2.8039  -10.8715 C   0  0  0  0  0  0  0  0  0  0  0  0
   -9.1731    1.8577   -8.5228 C   0  0  0  0  0  0  0  0  0  0  0  0
   -9.5161    2.6229   -7.2956 N   0  0  0  0  0  0  0  0  0  0  0  0
   -8.6874    3.8480   -7.3568 C   0  0  0  0  0  0  0  0  0  0  0  0
   -9.2914    2.0805   -6.4615 H   0  0  0  0  0  0  0  0  0  0  0  0
 21 22  2  0  0  0
 22 23  1  0  0  0
 23 25  1  0  0  0
 25 26  2  0  0  0
 26 27  1  0  0  0
 27 28  2  0  0  0
 28 29  1  0  0  0
 29 30  2  0  0  0
 29 31  1  0  0  0
 31 32  1  0  0  0
 32 33  1  0  0  0
 22  1  1  0  0  0
  1  2  2  0  0  0
  2  3  1  0  0  0
  3  4  1  0  0  0
  3  5  2  0  0  0
  5  6  1  0  0  0
  6  7  1  0  0  0
  7  8  2  0  0  0
  8  9  1  0  0  0
  9 10  2  0  0  0
  8 11  1  0  0  0
 11 12  1  0  0  0
 12 13  1  0  0  0
 13 14  1  0  0  0
 14 15  1  0  0  0
 15 16  1  0  0  0
 16 17  1  0  0  0
 12 18  1  0  0  0
 30 25  1  0  0  0
 10  1  1  0  0  0
 17 12  1  0  0  0
 33 28  1  0  0  0
  9  5  1  0  0  0
 18  7  1  0  0  0
 23 24  1  0  0  0
 32 34  1  0  0  0
  6 19  1  0  0  0
 15 20  1  0  0  0
M  END
> <minimizedAffinity>
-11.35098

> <minimizedRMSD>
0.66720

$$$$
P26253


 33 37  0  0  0  0  0  0  0  0999 V2000
   -5.3267    5.3267  -17.8256 C   0  0  0  0  0  0  0  0  0  0  0  0
   -5.9171    5.0774  -19.0492 C   0  0  0  0  0  0  0  0  0  0  0  0
   -7.1843    4.5756  -18.8389 N   0  0  0  0  0  0  0  0  0  0  0  0
   -7.4308    4.4792  -17.4881 C   0  0  0  0  0  0  0  0  0  0  0  0
   -8.5832    4.1080  -16.7825 C   0  0  0  0  0  0  0  0  0  0  0  0
   -9.7046    3.7552  -17.4289 F   0  0  0  0  0  0  0  0  0  0  0  0
   -8.5924    4.2213  -15.3883 C   0  0  0  0  0  0  0  0  0  0  0  0
   -7.4630    4.6935  -14.7250 C   0  0  0  0  0  0  0  0  0  0  0  0
   -6.2944    5.0065  -15.4323 C   0  0  0  0  0  0  0  0  0  0  0  0
   -6.2806    4.9205  -16.8362 C   0  0  0  0  0  0  0  0  0  0  0  0
   -7.8181    4.3240  -19.5490 H   0  0  0  0  0  0  0  0  0  0  0  0
   -2.5120    4.1898  -18.4317 C   0  0  0  0  0  0  0  0  0  0  0  0
   -2.8068    5.6771  -18.3947 C   0  0  0  0  0  0  0  0  0  0  0  0
   -1.5401    6.4057  -17.8720 C   0  0  0  0  0  0  0  0  0  0  0  0
   -1.7719    7.7452  -17.3291 N   0  0  0  0  0  0  0  0  0  0  0  0
   -2.9861    8.3364  -17.8728 C   0  0  0  0  0  0  0  0  0  0  0  0
   -4.2279    7.5489  -17.4617 C   0  0  0  0  0  0  0  0  0  0  0  0
   -4.0171    6.0199  -17.5124 C   0  0  0  0  0  0  0  0  0  0  0  0
   -0.9783    8.3408  -17.5654 H   0  0  0  0  0  0  0  0  0  0  0  0
   -7.4778    5.0948  -13.2942 C   0  0  0  0  0  0  0  0  0  0  0  0
   -6.8815    6.0573  -13.0076 O   0  0  0  0  0  0  0  0  0  0  0  0
   -8.2492    4.0956  -12.4079 N   0  0  0  0  0  0  0  0  0  0  0  0
   -8.7380    3.3985  -12.9022 H   0  0  0  0  0  0  0  0  0  0  0  0
   -8.3672    4.0186  -11.0191 C   0  0  0  0  0  0  0  0  0  0  0  0
   -8.1033    5.1414  -10.2146 C   0  0  0  0  0  0  0  0  0  0  0  0
   -8.2034    5.0711   -8.8212 C   0  0  0  0  0  0  0  0  0  0  0  0
   -8.5784    3.8684   -8.2537 C   0  0  0  0  0  0  0  0  0  0  0  0
   -8.8353    2.7547   -9.0441 C   0  0  0  0  0  0  0  0  0  0  0  0
   -8.7333    2.8090  -10.4272 C   0  0  0  0  0  0  0  0  0  0  0  0
   -9.1761    1.5979   -8.1663 C   0  0  0  0  0  0  0  0  0  0  0  0
   -9.3626    2.1615   -6.8041 N   0  0  0  0  0  0  0  0  0  0  0  0
   -8.7696    3.5142   -6.8187 C   0  0  0  0  0  0  0  0  0  0  0  0
   -8.8892    1.5777   -6.1145 H   0  0  0  0  0  0  0  0  0  0  0  0
 13 12  1  0  0  0
 13 14  1  0  0  0
 14 15  1  0  0  0
 15 16  1  0  0  0
 16 17  1  0  0  0
 17 18  1  0  0  0
 18  1  1  0  0  0
  1  2  2  0  0  0
  2  3  1  0  0  0
  3  4  1  0  0  0
  4  5  2  0  0  0
  5  6  1  0  0  0
  5  7  1  0  0  0
  7  8  2  0  0  0
  8 20  1  0  0  0
 20 21  2  0  0  0
 20 22  1  0  0  0
 22 24  1  0  0  0
 24 25  2  0  0  0
 25 26  1  0  0  0
 26 27  2  0  0  0
 27 28  1  0  0  0
 28 29  2  0  0  0
 28 30  1  0  0  0
 30 31  1  0  0  0
 31 32  1  0  0  0
  8  9  1  0  0  0
  9 10  2  0  0  0
 18 13  1  0  0  0
 10  1  1  0  0  0
 10  4  1  0  0  0
 29 24  1  0  0  0
 32 27  1  0  0  0
 15 19  1  0  0  0
  3 11  1  0  0  0
 22 23  1  0  0  0
 31 33  1  0  0  0
M  END
> <minimizedAffinity>
-10.26075

> <minimizedRMSD>
0.39263

$$$$
P26256


 35 40  0  0  0  0  0  0  0  0999 V2000
   -7.6225    4.7690  -14.7568 C   0  0  0  0  0  0  0  0  0  0  0  0
   -8.6931    4.2530  -15.4779 C   0  0  0  0  0  0  0  0  0  0  0  0
   -8.5957    4.1168  -16.8661 C   0  0  0  0  0  0  0  0  0  0  0  0
   -9.6607    3.7046  -17.5658 F   0  0  0  0  0  0  0  0  0  0  0  0
   -7.4116    4.4986  -17.5085 C   0  0  0  0  0  0  0  0  0  0  0  0
   -7.0667    4.5405  -18.8494 N   0  0  0  0  0  0  0  0  0  0  0  0
   -5.7547    4.9345  -18.9619 C   0  0  0  0  0  0  0  0  0  0  0  0
   -5.2914    5.2628  -17.7056 C   0  0  0  0  0  0  0  0  0  0  0  0
   -6.3151    4.9682  -16.7808 C   0  0  0  0  0  0  0  0  0  0  0  0
   -6.4164    5.0894  -15.3873 C   0  0  0  0  0  0  0  0  0  0  0  0
   -3.8863    5.7296  -17.4902 C   0  0  0  0  0  0  0  0  0  0  0  0
   -3.7586    6.9924  -16.6262 C   0  0  0  0  0  0  0  0  0  0  0  0
   -2.5377    7.8425  -17.0025 C   0  0  0  0  0  0  0  0  0  0  0  0
   -1.3840    7.0313  -17.3912 N   0  0  0  0  0  0  0  0  0  0  0  0
   -1.6739    6.1884  -18.5688 C   0  0  0  0  0  0  0  0  0  0  0  0
   -3.1883    5.9905  -18.8471 C   0  0  0  0  0  0  0  0  0  0  0  0
   -3.4950    4.9415  -19.8391 N   0  0  0  0  0  0  0  0  0  0  0  0
   -4.9365    4.9832  -20.2081 C   0  0  0  0  0  0  0  0  0  0  0  0
   -7.6647    4.3231  -19.6006 H   0  0  0  0  0  0  0  0  0  0  0  0
   -1.1266    6.4285  -16.6097 H   0  0  0  0  0  0  0  0  0  0  0  0
   -3.2760    4.0282  -19.4413 H   0  0  0  0  0  0  0  0  0  0  0  0
   -7.3660    6.2682  -13.0767 O   0  0  0  0  0  0  0  0  0  0  0  0
   -7.7389    5.1946  -13.3434 C   0  0  0  0  0  0  0  0  0  0  0  0
   -8.2761    4.0697  -12.4374 N   0  0  0  0  0  0  0  0  0  0  0  0
   -8.6014    3.2740  -12.9174 H   0  0  0  0  0  0  0  0  0  0  0  0
   -8.3767    3.9951  -11.0484 C   0  0  0  0  0  0  0  0  0  0  0  0
   -8.0887    5.1142  -10.2470 C   0  0  0  0  0  0  0  0  0  0  0  0
   -8.1714    5.0435   -8.8525 C   0  0  0  0  0  0  0  0  0  0  0  0
   -8.5555    3.8455   -8.2815 C   0  0  0  0  0  0  0  0  0  0  0  0
   -8.8337    2.7352   -9.0697 C   0  0  0  0  0  0  0  0  0  0  0  0
   -8.7442    2.7882  -10.4532 C   0  0  0  0  0  0  0  0  0  0  0  0
   -9.1818    1.5827   -8.1894 C   0  0  0  0  0  0  0  0  0  0  0  0
   -9.3560    2.1508   -6.8277 N   0  0  0  0  0  0  0  0  0  0  0  0
   -8.7376    3.4920   -6.8450 C   0  0  0  0  0  0  0  0  0  0  0  0
   -8.8927    1.5591   -6.1381 H   0  0  0  0  0  0  0  0  0  0  0  0
 22 23  2  0  0  0
 23 24  1  0  0  0
 24 26  1  0  0  0
 26 27  2  0  0  0
 27 28  1  0  0  0
 28 29  2  0  0  0
 29 30  1  0  0  0
 30 31  2  0  0  0
 30 32  1  0  0  0
 32 33  1  0  0  0
 33 34  1  0  0  0
 23  1  1  0  0  0
  1  2  2  0  0  0
  2  3  1  0  0  0
  3  4  1  0  0  0
  3  5  2  0  0  0
  5  6  1  0  0  0
  6  7  1  0  0  0
  7  8  2  0  0  0
  8  9  1  0  0  0
  9 10  2  0  0  0
  8 11  1  0  0  0
 11 12  1  0  0  0
 12 13  1  0  0  0
 13 14  1  0  0  0
 14 15  1  0  0  0
 16 15  1  0  0  0
 16 17  1  0  0  0
 17 18  1  0  0  0
 31 26  1  0  0  0
 10  1  1  0  0  0
 16 11  1  0  0  0
 34 29  1  0  0  0
  9  5  1  0  0  0
 18  7  1  0  0  0
 24 25  1  0  0  0
 33 35  1  0  0  0
  6 19  1  0  0  0
 14 20  1  0  0  0
 17 21  1  0  0  0
M  END
> <minimizedAffinity>
-10.81078

> <minimizedRMSD>
0.32230

$$$$
P26257


 38 43  0  0  0  0  0  0  0  0999 V2000
   -6.5583    5.8505  -13.0345 O   0  0  0  0  0  0  0  0  0  0  0  0
   -7.2342    4.9537  -13.3567 C   0  0  0  0  0  0  0  0  0  0  0  0
   -8.0473    3.9546  -12.5028 N   0  0  0  0  0  0  0  0  0  0  0  0
   -8.4802    3.2328  -13.0136 H   0  0  0  0  0  0  0  0  0  0  0  0
   -7.3266    4.6494  -14.8106 C   0  0  0  0  0  0  0  0  0  0  0  0
   -8.5146    4.2070  -15.3900 C   0  0  0  0  0  0  0  0  0  0  0  0
   -8.6120    4.1056  -16.7765 C   0  0  0  0  0  0  0  0  0  0  0  0
   -9.7727    3.7495  -17.3466 F   0  0  0  0  0  0  0  0  0  0  0  0
   -7.5106    4.4601  -17.5594 C   0  0  0  0  0  0  0  0  0  0  0  0
   -7.3778    4.5175  -18.9239 N   0  0  0  0  0  0  0  0  0  0  0  0
   -6.1228    4.9596  -19.2494 C   0  0  0  0  0  0  0  0  0  0  0  0
   -5.4240    5.2281  -18.0903 C   0  0  0  0  0  0  0  0  0  0  0  0
   -6.3025    4.8918  -17.0070 C   0  0  0  0  0  0  0  0  0  0  0  0
   -6.2112    4.9720  -15.6032 C   0  0  0  0  0  0  0  0  0  0  0  0
   -8.0791    4.2771  -19.5716 H   0  0  0  0  0  0  0  0  0  0  0  0
   -4.0375    5.8122  -18.0500 C   0  0  0  0  0  0  0  0  0  0  0  0
   -4.0138    7.2130  -17.4216 C   0  0  0  0  0  0  0  0  0  0  0  0
   -2.5951    7.7748  -17.4053 C   0  0  0  0  0  0  0  0  0  0  0  0
   -1.6633    6.8802  -16.7186 N   0  0  0  0  0  0  0  0  0  0  0  0
   -1.6315    5.5642  -17.3640 C   0  0  0  0  0  0  0  0  0  0  0  0
   -3.0078    4.8995  -17.3763 C   0  0  0  0  0  0  0  0  0  0  0  0
   -1.9595    6.7697  -15.7489 H   0  0  0  0  0  0  0  0  0  0  0  0
   -8.2675    3.9089  -11.1260 C   0  0  0  0  0  0  0  0  0  0  0  0
   -8.6927    2.7133  -10.5495 C   0  0  0  0  0  0  0  0  0  0  0  0
   -8.8973    2.6813   -9.1804 C   0  0  0  0  0  0  0  0  0  0  0  0
   -8.6941    3.8085   -8.3824 C   0  0  0  0  0  0  0  0  0  0  0  0
   -8.2519    5.0125   -8.9235 C   0  0  0  0  0  0  0  0  0  0  0  0
   -8.0479    5.0393  -10.3187 C   0  0  0  0  0  0  0  0  0  0  0  0
   -9.0320    3.4486   -6.9689 C   0  0  0  0  0  0  0  0  0  0  0  0
   -9.7548    2.1593   -7.0443 N   0  0  0  0  0  0  0  0  0  0  0  0
   -9.3122    1.5366   -8.3157 C   0  0  0  0  0  0  0  0  0  0  0  0
  -10.7629    2.3148   -7.0545 H   0  0  0  0  0  0  0  0  0  0  0  0
   -8.0043    6.2084   -8.1068 C   0  0  0  0  0  0  0  0  0  0  0  0
   -8.8757    7.3023   -8.1445 C   0  0  0  0  0  0  0  0  0  0  0  0
   -8.6022    8.4086   -7.3562 C   0  0  0  0  0  0  0  0  0  0  0  0
   -7.5319    8.5069   -6.5400 N   0  0  0  0  0  0  0  0  0  0  0  0
   -6.6934    7.4500   -6.5247 C   0  0  0  0  0  0  0  0  0  0  0  0
   -6.8823    6.3007   -7.2766 C   0  0  0  0  0  0  0  0  0  0  0  0
  1  2  2  0  0  0
  2  3  1  0  0  0
  3 23  1  0  0  0
 23 24  2  0  0  0
 24 25  1  0  0  0
 25 26  2  0  0  0
 26 27  1  0  0  0
 27 33  1  0  0  0
 33 34  2  0  0  0
 34 35  1  0  0  0
 35 36  2  0  0  0
 36 37  1  0  0  0
 37 38  2  0  0  0
 27 28  2  0  0  0
 26 29  1  0  0  0
 29 30  1  0  0  0
 30 31  1  0  0  0
  2  5  1  0  0  0
  5  6  2  0  0  0
  6  7  1  0  0  0
  7  8  1  0  0  0
  7  9  2  0  0  0
  9 10  1  0  0  0
 10 11  1  0  0  0
 11 12  2  0  0  0
 12 16  1  0  0  0
 16 17  1  0  0  0
 17 18  1  0  0  0
 18 19  1  0  0  0
 19 20  1  0  0  0
 20 21  1  0  0  0
 12 13  1  0  0  0
 13 14  2  0  0  0
 28 23  1  0  0  0
 14  5  1  0  0  0
 31 25  1  0  0  0
 13  9  1  0  0  0
 38 33  1  0  0  0
 21 16  1  0  0  0
  3  4  1  0  0  0
 30 32  1  0  0  0
 10 15  1  0  0  0
 19 22  1  0  0  0
M  END
> <minimizedAffinity>
-10.07389

> <minimizedRMSD>
0.31745

$$$$
P26258


 34 38  0  0  0  0  0  0  0  0999 V2000
   -7.4478    4.6846  -14.6362 C   0  0  0  0  0  0  0  0  0  0  0  0
   -8.6025    4.1940  -15.2432 C   0  0  0  0  0  0  0  0  0  0  0  0
   -8.6543    4.0678  -16.6283 C   0  0  0  0  0  0  0  0  0  0  0  0
   -9.7910    3.6846  -17.2280 F   0  0  0  0  0  0  0  0  0  0  0  0
   -7.5392    4.4395  -17.3822 C   0  0  0  0  0  0  0  0  0  0  0  0
   -7.3721    4.4841  -18.7430 N   0  0  0  0  0  0  0  0  0  0  0  0
   -6.1215    4.9547  -19.0411 C   0  0  0  0  0  0  0  0  0  0  0  0
   -5.4609    5.2546  -17.8667 C   0  0  0  0  0  0  0  0  0  0  0  0
   -6.3596    4.9124  -16.8010 C   0  0  0  0  0  0  0  0  0  0  0  0
   -6.3143    5.0239  -15.3953 C   0  0  0  0  0  0  0  0  0  0  0  0
   -8.0497    4.2177  -19.4057 H   0  0  0  0  0  0  0  0  0  0  0  0
   -4.0901    5.8721  -17.8024 C   0  0  0  0  0  0  0  0  0  0  0  0
   -4.1024    7.2664  -17.1627 C   0  0  0  0  0  0  0  0  0  0  0  0
   -2.6991    7.8660  -17.1545 C   0  0  0  0  0  0  0  0  0  0  0  0
   -1.7461    6.9881  -16.4786 N   0  0  0  0  0  0  0  0  0  0  0  0
   -1.6822    5.6719  -17.1170 C   0  0  0  0  0  0  0  0  0  0  0  0
   -3.0448    4.9810  -17.1271 C   0  0  0  0  0  0  0  0  0  0  0  0
   -2.0342    6.8716  -15.5071 H   0  0  0  0  0  0  0  0  0  0  0  0
   -8.0994    3.9846  -12.3089 N   0  0  0  0  0  0  0  0  0  0  0  0
   -7.4582    5.0717  -13.2020 C   0  0  0  0  0  0  0  0  0  0  0  0
   -7.0554    6.1345  -12.9306 O   0  0  0  0  0  0  0  0  0  0  0  0
   -8.4296    3.1943  -12.7943 H   0  0  0  0  0  0  0  0  0  0  0  0
   -9.1578    3.5854   -6.7642 C   0  0  0  0  0  0  0  0  0  0  0  0
   -9.6502    2.1807   -6.7756 N   0  0  0  0  0  0  0  0  0  0  0  0
   -9.2526    1.5810   -8.0746 C   0  0  0  0  0  0  0  0  0  0  0  0
   -8.8733    2.7259   -8.9495 C   0  0  0  0  0  0  0  0  0  0  0  0
   -8.6450    2.7358  -10.3202 C   0  0  0  0  0  0  0  0  0  0  0  0
   -8.2861    3.9413  -10.9267 C   0  0  0  0  0  0  0  0  0  0  0  0
   -8.1437    5.0993  -10.1467 C   0  0  0  0  0  0  0  0  0  0  0  0
   -8.3885    5.0766   -8.7689 C   0  0  0  0  0  0  0  0  0  0  0  0
   -8.7594    3.8808   -8.1804 C   0  0  0  0  0  0  0  0  0  0  0  0
  -10.6657    2.1665   -6.6813 H   0  0  0  0  0  0  0  0  0  0  0  0
   -8.1302    5.0707   -4.9582 C   0  0  0  0  0  0  0  0  0  0  0  0
   -8.0413    3.7568   -5.7260 C   0  0  0  0  0  0  0  0  0  0  0  0
 33 34  1  0  0  0
 23 34  1  0  0  0
 23 24  1  0  0  0
 24 25  1  0  0  0
 25 26  1  0  0  0
 26 27  2  0  0  0
 27 28  1  0  0  0
 28 19  1  0  0  0
 19 20  1  0  0  0
 20 21  2  0  0  0
 20  1  1  0  0  0
  1  2  2  0  0  0
  2  3  1  0  0  0
  3  4  1  0  0  0
  3  5  2  0  0  0
  5  6  1  0  0  0
  6  7  1  0  0  0
  7  8  2  0  0  0
  8 12  1  0  0  0
 12 13  1  0  0  0
 13 14  1  0  0  0
 14 15  1  0  0  0
 15 16  1  0  0  0
 16 17  1  0  0  0
  8  9  1  0  0  0
  9 10  2  0  0  0
 28 29  2  0  0  0
 29 30  1  0  0  0
 30 31  2  0  0  0
 31 23  1  0  0  0
 31 26  1  0  0  0
 10  1  1  0  0  0
  9  5  1  0  0  0
 17 12  1  0  0  0
 24 32  1  0  0  0
 19 22  1  0  0  0
  6 11  1  0  0  0
 15 18  1  0  0  0
M  END
> <minimizedAffinity>
-9.63944

> <minimizedRMSD>
0.42033

$$$$
P26259


 36 41  0  0  0  0  0  0  0  0999 V2000
   -7.3959    4.7644  -14.6918 C   0  0  0  0  0  0  0  0  0  0  0  0
   -8.4966    4.2553  -15.3724 C   0  0  0  0  0  0  0  0  0  0  0  0
   -8.4656    4.1475  -16.7683 C   0  0  0  0  0  0  0  0  0  0  0  0
   -9.5621    3.7453  -17.4237 F   0  0  0  0  0  0  0  0  0  0  0  0
   -7.3113    4.5401  -17.4579 C   0  0  0  0  0  0  0  0  0  0  0  0
   -7.0172    4.6052  -18.8135 N   0  0  0  0  0  0  0  0  0  0  0  0
   -5.7100    5.0059  -18.9634 C   0  0  0  0  0  0  0  0  0  0  0  0
   -5.2054    5.3083  -17.7241 C   0  0  0  0  0  0  0  0  0  0  0  0
   -6.1869    4.9988  -16.7672 C   0  0  0  0  0  0  0  0  0  0  0  0
   -6.2246    5.1083  -15.3712 C   0  0  0  0  0  0  0  0  0  0  0  0
   -3.8207    5.8342  -17.5601 C   0  0  0  0  0  0  0  0  0  0  0  0
   -3.8413    7.3665  -17.4978 C   0  0  0  0  0  0  0  0  0  0  0  0
   -2.4346    7.9319  -17.3176 C   0  0  0  0  0  0  0  0  0  0  0  0
   -1.3836    7.2441  -18.0680 N   0  0  0  0  0  0  0  0  0  0  0  0
   -1.9271    6.4682  -19.1834 C   0  0  0  0  0  0  0  0  0  0  0  0
   -2.8827    5.3356  -18.7119 C   0  0  0  0  0  0  0  0  0  0  0  0
   -3.5224    4.6489  -19.8595 N   0  0  0  0  0  0  0  0  0  0  0  0
   -4.8899    5.0821  -20.1978 C   0  0  0  0  0  0  0  0  0  0  0  0
   -7.6413    4.3986  -19.5463 H   0  0  0  0  0  0  0  0  0  0  0  0
   -0.8879    6.6132  -17.4381 H   0  0  0  0  0  0  0  0  0  0  0  0
   -3.5557    3.6520  -19.6464 H   0  0  0  0  0  0  0  0  0  0  0  0
   -6.8022    6.0769  -12.9423 O   0  0  0  0  0  0  0  0  0  0  0  0
   -7.4295    5.1465  -13.2627 C   0  0  0  0  0  0  0  0  0  0  0  0
   -8.2400    4.1482  -12.4146 N   0  0  0  0  0  0  0  0  0  0  0  0
   -8.7499    3.4852  -12.9339 H   0  0  0  0  0  0  0  0  0  0  0  0
   -8.3693    4.0305  -11.0306 C   0  0  0  0  0  0  0  0  0  0  0  0
   -8.1327    5.1339  -10.1937 C   0  0  0  0  0  0  0  0  0  0  0  0
   -8.2422    5.0028   -8.8114 C   0  0  0  0  0  0  0  0  0  0  0  0
   -8.0124    6.0557   -8.0154 F   0  0  0  0  0  0  0  0  0  0  0  0
   -8.6007    3.7882   -8.2739 C   0  0  0  0  0  0  0  0  0  0  0  0
   -8.8292    2.6942   -9.0975 C   0  0  0  0  0  0  0  0  0  0  0  0
   -8.7085    2.7931  -10.4769 C   0  0  0  0  0  0  0  0  0  0  0  0
   -9.1662    1.5121   -8.2528 C   0  0  0  0  0  0  0  0  0  0  0  0
   -9.3867    2.0451   -6.8839 N   0  0  0  0  0  0  0  0  0  0  0  0
   -8.8013    3.4026   -6.8537 C   0  0  0  0  0  0  0  0  0  0  0  0
   -8.9260    1.4488   -6.1965 H   0  0  0  0  0  0  0  0  0  0  0  0
 22 23  2  0  0  0
 23 24  1  0  0  0
 24 26  1  0  0  0
 26 27  2  0  0  0
 27 28  1  0  0  0
 28 29  1  0  0  0
 28 30  2  0  0  0
 30 31  1  0  0  0
 31 32  2  0  0  0
 31 33  1  0  0  0
 33 34  1  0  0  0
 34 35  1  0  0  0
 23  1  1  0  0  0
  1  2  2  0  0  0
  2  3  1  0  0  0
  3  4  1  0  0  0
  3  5  2  0  0  0
  5  6  1  0  0  0
  6  7  1  0  0  0
  7  8  2  0  0  0
  8  9  1  0  0  0
  9 10  2  0  0  0
  8 11  1  0  0  0
 11 12  1  0  0  0
 12 13  1  0  0  0
 13 14  1  0  0  0
 14 15  1  0  0  0
 16 15  1  0  0  0
 16 17  1  0  0  0
 17 18  1  0  0  0
 32 26  1  0  0  0
 10  1  1  0  0  0
 16 11  1  0  0  0
 35 30  1  0  0  0
  9  5  1  0  0  0
 18  7  1  0  0  0
 24 25  1  0  0  0
 34 36  1  0  0  0
  6 19  1  0  0  0
 14 20  1  0  0  0
 17 21  1  0  0  0
M  END
> <minimizedAffinity>
-10.95352

> <minimizedRMSD>
0.52406

$$$$
P26262


 37 42  0  0  0  0  0  0  0  0999 V2000
   -7.9547    4.6299  -14.9982 C   0  0  0  0  0  0  0  0  0  0  0  0
   -8.9282    4.2275  -15.9084 C   0  0  0  0  0  0  0  0  0  0  0  0
   -8.6254    4.1605  -17.2727 C   0  0  0  0  0  0  0  0  0  0  0  0
   -9.5954    3.8851  -18.1569 F   0  0  0  0  0  0  0  0  0  0  0  0
   -7.3351    4.5015  -17.6966 C   0  0  0  0  0  0  0  0  0  0  0  0
   -6.7968    4.6616  -18.9628 N   0  0  0  0  0  0  0  0  0  0  0  0
   -5.4801    5.0430  -18.8527 C   0  0  0  0  0  0  0  0  0  0  0  0
   -5.1731    5.1274  -17.5138 C   0  0  0  0  0  0  0  0  0  0  0  0
   -6.3359    4.8286  -16.7778 C   0  0  0  0  0  0  0  0  0  0  0  0
   -6.6427    4.8824  -15.4112 C   0  0  0  0  0  0  0  0  0  0  0  0
   -3.8178    5.5514  -17.0497 C   0  0  0  0  0  0  0  0  0  0  0  0
   -3.8329    7.0250  -16.5955 C   0  0  0  0  0  0  0  0  0  0  0  0
   -2.5163    7.7499  -16.8560 C   0  0  0  0  0  0  0  0  0  0  0  0
   -1.3905    6.8408  -16.6943 N   0  0  0  0  0  0  0  0  0  0  0  0
   -1.3900    5.8363  -17.7669 C   0  0  0  0  0  0  0  0  0  0  0  0
   -2.7977    5.3076  -18.1924 C   0  0  0  0  0  0  0  0  0  0  0  0
   -3.2757    5.9250  -19.4751 N   0  0  0  0  0  0  0  0  0  0  0  0
   -4.5314    5.3051  -19.9703 C   0  0  0  0  0  0  0  0  0  0  0  0
   -7.2809    4.5239  -19.8089 H   0  0  0  0  0  0  0  0  0  0  0  0
   -1.4644    6.3703  -15.7923 H   0  0  0  0  0  0  0  0  0  0  0  0
   -2.5516    5.8087  -20.1840 H   0  0  0  0  0  0  0  0  0  0  0  0
   -8.4248    6.1835  -13.4223 O   0  0  0  0  0  0  0  0  0  0  0  0
   -8.2825    5.0406  -13.6128 C   0  0  0  0  0  0  0  0  0  0  0  0
   -8.2907    3.8545  -12.6278 N   0  0  0  0  0  0  0  0  0  0  0  0
   -8.2235    2.9677  -13.0501 H   0  0  0  0  0  0  0  0  0  0  0  0
   -8.3778    3.8332  -11.2345 C   0  0  0  0  0  0  0  0  0  0  0  0
   -8.0599    4.9849  -10.4934 C   0  0  0  0  0  0  0  0  0  0  0  0
   -8.1288    4.9740   -9.1031 C   0  0  0  0  0  0  0  0  0  0  0  0
   -7.8594    6.0930   -8.4232 F   0  0  0  0  0  0  0  0  0  0  0  0
   -8.5077    3.8151   -8.4717 C   0  0  0  0  0  0  0  0  0  0  0  0
   -8.8316    2.6656   -9.1886 C   0  0  0  0  0  0  0  0  0  0  0  0
   -8.7689    2.6602  -10.5773 C   0  0  0  0  0  0  0  0  0  0  0  0
   -9.1959    1.5735   -8.2380 C   0  0  0  0  0  0  0  0  0  0  0  0
   -9.1509    2.2411   -6.9537 N   0  0  0  0  0  0  0  0  0  0  0  0
   -8.6565    3.5253   -7.0440 C   0  0  0  0  0  0  0  0  0  0  0  0
   -8.3724    4.2671   -6.1234 O   0  0  0  0  0  0  0  0  0  0  0  0
   -9.4409    1.8246   -6.1102 H   0  0  0  0  0  0  0  0  0  0  0  0
 22 23  2  0  0  0
 23 24  1  0  0  0
 24 26  1  0  0  0
 26 27  2  0  0  0
 27 28  1  0  0  0
 28 29  1  0  0  0
 28 30  2  0  0  0
 30 31  1  0  0  0
 31 32  2  0  0  0
 31 33  1  0  0  0
 33 34  1  0  0  0
 34 35  1  0  0  0
 35 36  2  0  0  0
 23  1  1  0  0  0
  1  2  2  0  0  0
  2  3  1  0  0  0
  3  4  1  0  0  0
  3  5  2  0  0  0
  5  6  1  0  0  0
  6  7  1  0  0  0
  7  8  2  0  0  0
  8  9  1  0  0  0
  9 10  2  0  0  0
  8 11  1  0  0  0
 11 12  1  0  0  0
 12 13  1  0  0  0
 13 14  1  0  0  0
 14 15  1  0  0  0
 16 15  1  0  0  0
 16 17  1  0  0  0
 17 18  1  0  0  0
 32 26  1  0  0  0
 10  1  1  0  0  0
 16 11  1  0  0  0
 35 30  1  0  0  0
  9  5  1  0  0  0
 18  7  1  0  0  0
 24 25  1  0  0  0
 34 37  1  0  0  0
  6 19  1  0  0  0
 14 20  1  0  0  0
 17 21  1  0  0  0
M  END
> <minimizedAffinity>
-11.37375

> <minimizedRMSD>
0.44267

$$$$
P26264


 36 41  0  0  0  0  0  0  0  0999 V2000
   -8.1571    4.5264  -15.5986 C   0  0  0  0  0  0  0  0  0  0  0  0
   -8.9829    4.2336  -16.6789 C   0  0  0  0  0  0  0  0  0  0  0  0
   -8.4697    4.2748  -17.9785 C   0  0  0  0  0  0  0  0  0  0  0  0
   -9.2944    4.0833  -19.0165 F   0  0  0  0  0  0  0  0  0  0  0  0
   -7.1236    4.6180  -18.1617 C   0  0  0  0  0  0  0  0  0  0  0  0
   -6.3796    4.8628  -19.3064 N   0  0  0  0  0  0  0  0  0  0  0  0
   -5.0826    5.1589  -18.9473 C   0  0  0  0  0  0  0  0  0  0  0  0
   -5.0090    5.1526  -17.5742 C   0  0  0  0  0  0  0  0  0  0  0  0
   -6.2807    4.8339  -17.0683 C   0  0  0  0  0  0  0  0  0  0  0  0
   -6.7950    4.7749  -15.7681 C   0  0  0  0  0  0  0  0  0  0  0  0
   -3.7444    5.4917  -16.8573 C   0  0  0  0  0  0  0  0  0  0  0  0
   -3.7799    6.9516  -16.3583 C   0  0  0  0  0  0  0  0  0  0  0  0
   -2.4198    7.6414  -16.4183 C   0  0  0  0  0  0  0  0  0  0  0  0
   -1.3417    6.7194  -16.0757 N   0  0  0  0  0  0  0  0  0  0  0  0
   -1.2156    5.6821  -17.1117 C   0  0  0  0  0  0  0  0  0  0  0  0
   -2.5437    5.2285  -17.7998 C   0  0  0  0  0  0  0  0  0  0  0  0
   -2.7470    5.9134  -19.1081 N   0  0  0  0  0  0  0  0  0  0  0  0
   -3.9319    5.4171  -19.8566 C   0  0  0  0  0  0  0  0  0  0  0  0
   -6.7233    4.8303  -20.2284 H   0  0  0  0  0  0  0  0  0  0  0  0
   -1.5474    6.2779  -15.1795 H   0  0  0  0  0  0  0  0  0  0  0  0
   -1.9170    5.7666  -19.6824 H   0  0  0  0  0  0  0  0  0  0  0  0
   -8.0398    3.9949  -13.1592 N   0  0  0  0  0  0  0  0  0  0  0  0
   -8.6873    4.8486  -14.2615 C   0  0  0  0  0  0  0  0  0  0  0  0
   -9.4485    5.7291  -14.1871 O   0  0  0  0  0  0  0  0  0  0  0  0
   -7.4814    3.2533  -13.4871 H   0  0  0  0  0  0  0  0  0  0  0  0
   -7.3699    4.6370   -6.6961 C   0  0  0  0  0  0  0  0  0  0  0  0
   -8.5773    4.2615   -7.5489 C   0  0  0  0  0  0  0  0  0  0  0  0
   -8.3043    4.3618   -9.0198 C   0  0  0  0  0  0  0  0  0  0  0  0
   -7.8948    5.4560   -9.7568 C   0  0  0  0  0  0  0  0  0  0  0  0
   -7.8171    5.3216  -11.1431 C   0  0  0  0  0  0  0  0  0  0  0  0
   -8.1141    4.0996  -11.7729 C   0  0  0  0  0  0  0  0  0  0  0  0
   -8.4868    2.9914  -11.0148 C   0  0  0  0  0  0  0  0  0  0  0  0
   -8.6021    3.1510   -9.6404 C   0  0  0  0  0  0  0  0  0  0  0  0
   -9.0868    2.1710   -8.6181 C   0  0  0  0  0  0  0  0  0  0  0  0
   -8.9565    2.8567   -7.3068 N   0  0  0  0  0  0  0  0  0  0  0  0
  -10.1539    2.7259   -6.4939 C   0  0  0  0  0  0  0  0  0  0  0  0
 27 26  1  0  0  0
 27 28  1  0  0  0
 28 29  2  0  0  0
 29 30  1  0  0  0
 30 31  2  0  0  0
 31 22  1  0  0  0
 22 23  1  0  0  0
 23 24  2  0  0  0
 23  1  1  0  0  0
  1  2  2  0  0  0
  2  3  1  0  0  0
  3  4  1  0  0  0
  3  5  2  0  0  0
  5  6  1  0  0  0
  6  7  1  0  0  0
  7  8  2  0  0  0
  8  9  1  0  0  0
  9 10  2  0  0  0
  8 11  1  0  0  0
 11 12  1  0  0  0
 12 13  1  0  0  0
 13 14  1  0  0  0
 14 15  1  0  0  0
 16 15  1  0  0  0
 16 17  1  0  0  0
 17 18  1  0  0  0
 31 32  1  0  0  0
 32 33  2  0  0  0
 33 34  1  0  0  0
 34 35  1  0  0  0
 35 36  1  0  0  0
 35 27  1  0  0  0
 33 28  1  0  0  0
 10  1  1  0  0  0
 16 11  1  0  0  0
  9  5  1  0  0  0
 18  7  1  0  0  0
 22 25  1  0  0  0
  6 19  1  0  0  0
 14 20  1  0  0  0
 17 21  1  0  0  0
M  END
> <minimizedAffinity>
-11.85886

> <minimizedRMSD>
0.73387

$$$$
P26265


 40 46  0  0  0  0  0  0  0  0999 V2000
   -7.2163    4.6795  -14.5175 C   0  0  0  0  0  0  0  0  0  0  0  0
   -8.3631    4.2402  -15.1740 C   0  0  0  0  0  0  0  0  0  0  0  0
   -8.3952    4.1994  -16.5723 C   0  0  0  0  0  0  0  0  0  0  0  0
   -9.5176    3.8236  -17.1979 F   0  0  0  0  0  0  0  0  0  0  0  0
   -7.2752    4.6289  -17.2932 C   0  0  0  0  0  0  0  0  0  0  0  0
   -7.0717    4.8349  -18.6479 N   0  0  0  0  0  0  0  0  0  0  0  0
   -5.7850    5.2741  -18.8543 C   0  0  0  0  0  0  0  0  0  0  0  0
   -5.1622    5.3381  -17.6295 C   0  0  0  0  0  0  0  0  0  0  0  0
   -6.0992    4.9946  -16.6382 C   0  0  0  0  0  0  0  0  0  0  0  0
   -6.0615    5.0061  -15.2375 C   0  0  0  0  0  0  0  0  0  0  0  0
   -3.7381    5.7557  -17.5063 C   0  0  0  0  0  0  0  0  0  0  0  0
   -3.6292    7.2215  -17.0447 C   0  0  0  0  0  0  0  0  0  0  0  0
   -2.3962    7.9279  -17.5990 C   0  0  0  0  0  0  0  0  0  0  0  0
   -1.2843    6.9953  -17.7205 N   0  0  0  0  0  0  0  0  0  0  0  0
   -1.5588    5.9953  -18.7674 C   0  0  0  0  0  0  0  0  0  0  0  0
   -3.0348    5.5181  -18.8706 C   0  0  0  0  0  0  0  0  0  0  0  0
   -3.7917    6.1687  -19.9894 N   0  0  0  0  0  0  0  0  0  0  0  0
   -5.1446    5.5821  -20.1658 C   0  0  0  0  0  0  0  0  0  0  0  0
   -7.7434    4.6896  -19.3529 H   0  0  0  0  0  0  0  0  0  0  0  0
   -1.1475    6.5186  -16.8291 H   0  0  0  0  0  0  0  0  0  0  0  0
   -3.2661    6.0486  -20.8552 H   0  0  0  0  0  0  0  0  0  0  0  0
   -8.1994    4.1798  -12.2464 N   0  0  0  0  0  0  0  0  0  0  0  0
   -7.1896    5.0103  -13.0707 C   0  0  0  0  0  0  0  0  0  0  0  0
   -6.4087    5.8094  -12.7294 O   0  0  0  0  0  0  0  0  0  0  0  0
   -8.8085    3.6219  -12.7820 H   0  0  0  0  0  0  0  0  0  0  0  0
   -6.6157    7.7914   -9.0572 C   0  0  0  0  0  0  0  0  0  0  0  0
   -8.0492    7.2540   -9.1227 C   0  0  0  0  0  0  0  0  0  0  0  0
   -9.0398    8.4178   -9.2051 C   0  0  0  0  0  0  0  0  0  0  0  0
   -8.3647    6.3383   -7.9239 C   0  0  0  0  0  0  0  0  0  0  0  0
   -8.4693    5.0336   -8.6074 C   0  0  0  0  0  0  0  0  0  0  0  0
   -8.7224    3.7921   -8.0819 C   0  0  0  0  0  0  0  0  0  0  0  0
   -8.8081    2.6982   -8.9338 C   0  0  0  0  0  0  0  0  0  0  0  0
   -8.6432    2.8259  -10.3131 C   0  0  0  0  0  0  0  0  0  0  0  0
   -8.3890    4.0918  -10.8602 C   0  0  0  0  0  0  0  0  0  0  0  0
   -8.3238    5.1792   -9.9827 C   0  0  0  0  0  0  0  0  0  0  0  0
   -8.1701    6.4902  -10.3476 O   0  0  0  0  0  0  0  0  0  0  0  0
   -9.0592    1.4706   -8.1231 C   0  0  0  0  0  0  0  0  0  0  0  0
   -9.3896    1.9491   -6.7559 N   0  0  0  0  0  0  0  0  0  0  0  0
   -8.9514    3.3572   -6.6789 C   0  0  0  0  0  0  0  0  0  0  0  0
   -8.8973    1.3896   -6.0595 H   0  0  0  0  0  0  0  0  0  0  0  0
 26 27  1  0  0  0
 27 28  1  0  0  0
 27 29  1  0  0  0
 29 30  1  0  0  0
 30 31  2  0  0  0
 31 32  1  0  0  0
 32 33  2  0  0  0
 33 34  1  0  0  0
 34 22  1  0  0  0
 22 23  1  0  0  0
 23 24  2  0  0  0
 23  1  1  0  0  0
  1  2  2  0  0  0
  2  3  1  0  0  0
  3  4  1  0  0  0
  3  5  2  0  0  0
  5  6  1  0  0  0
  6  7  1  0  0  0
  7  8  2  0  0  0
  8  9  1  0  0  0
  9 10  2  0  0  0
  8 11  1  0  0  0
 11 12  1  0  0  0
 12 13  1  0  0  0
 13 14  1  0  0  0
 14 15  1  0  0  0
 16 15  1  0  0  0
 16 17  1  0  0  0
 17 18  1  0  0  0
 34 35  2  0  0  0
 35 36  1  0  0  0
 32 37  1  0  0  0
 37 38  1  0  0  0
 38 39  1  0  0  0
 36 27  1  0  0  0
 35 30  1  0  0  0
 39 31  1  0  0  0
 10  1  1  0  0  0
 16 11  1  0  0  0
  9  5  1  0  0  0
 18  7  1  0  0  0
 22 25  1  0  0  0
  6 19  1  0  0  0
 14 20  1  0  0  0
 17 21  1  0  0  0
 38 40  1  0  0  0
M  END
> <minimizedAffinity>
-10.91847

> <minimizedRMSD>
0.37186

$$$$
P26266


 40 46  0  0  0  0  0  0  0  0999 V2000
   -7.7774    5.0341  -14.8857 C   0  0  0  0  0  0  0  0  0  0  0  0
   -8.6889    4.0048  -15.5167 C   0  0  0  0  0  0  0  0  0  0  0  0
   -8.7094    4.1260  -17.0624 C   0  0  0  0  0  0  0  0  0  0  0  0
   -9.0104    2.9225  -17.6036 F   0  0  0  0  0  0  0  0  0  0  0  0
   -7.4799    4.8149  -17.7489 C   0  0  0  0  0  0  0  0  0  0  0  0
   -6.8376    4.3688  -19.0197 N   0  0  0  0  0  0  0  0  0  0  0  0
   -5.6025    5.1940  -19.0797 C   0  0  0  0  0  0  0  0  0  0  0  0
   -4.5235    4.9792  -20.1546 C   0  0  0  0  0  0  0  0  0  0  0  0
   -3.2566    5.6650  -19.8054 N   0  0  0  0  0  0  0  0  0  0  0  0
   -2.7540    5.2475  -18.4697 C   0  0  0  0  0  0  0  0  0  0  0  0
   -1.3634    5.8685  -18.1489 C   0  0  0  0  0  0  0  0  0  0  0  0
   -1.3790    7.0320  -17.2413 N   0  0  0  0  0  0  0  0  0  0  0  0
   -2.5373    7.8734  -17.5342 C   0  0  0  0  0  0  0  0  0  0  0  0
   -3.8552    7.1628  -17.2100 C   0  0  0  0  0  0  0  0  0  0  0  0
   -3.7609    5.6319  -17.3701 C   0  0  0  0  0  0  0  0  0  0  0  0
   -5.0747    4.9239  -17.6718 C   0  0  0  0  0  0  0  0  0  0  0  0
   -6.2993    5.2534  -16.8495 C   0  0  0  0  0  0  0  0  0  0  0  0
   -6.3457    4.8606  -15.3843 C   0  0  0  0  0  0  0  0  0  0  0  0
   -7.4416    4.5545  -19.8204 H   0  0  0  0  0  0  0  0  0  0  0  0
   -3.4172    6.6722  -19.7980 H   0  0  0  0  0  0  0  0  0  0  0  0
   -0.5251    7.5744  -17.3715 H   0  0  0  0  0  0  0  0  0  0  0  0
   -7.5439    6.5444  -13.1347 O   0  0  0  0  0  0  0  0  0  0  0  0
   -7.8426    5.4451  -13.4063 C   0  0  0  0  0  0  0  0  0  0  0  0
   -8.3025    4.2754  -12.4983 N   0  0  0  0  0  0  0  0  0  0  0  0
   -8.5726    3.4607  -12.9806 H   0  0  0  0  0  0  0  0  0  0  0  0
   -8.3961    4.1893  -11.1018 C   0  0  0  0  0  0  0  0  0  0  0  0
   -8.2252    5.3508  -10.3280 C   0  0  0  0  0  0  0  0  0  0  0  0
   -8.3299    5.3096   -8.9395 C   0  0  0  0  0  0  0  0  0  0  0  0
   -8.1456    6.4306   -8.2291 F   0  0  0  0  0  0  0  0  0  0  0  0
   -8.6164    4.1195   -8.3096 C   0  0  0  0  0  0  0  0  0  0  0  0
   -8.7894    2.9654   -9.0712 C   0  0  0  0  0  0  0  0  0  0  0  0
   -8.6781    2.9771  -10.4646 C   0  0  0  0  0  0  0  0  0  0  0  0
   -9.0625    1.8130   -8.1620 C   0  0  0  0  0  0  0  0  0  0  0  0
   -9.0837    2.3687   -6.7833 N   0  0  0  0  0  0  0  0  0  0  0  0
   -8.6994    3.8025   -6.8534 C   0  0  0  0  0  0  0  0  0  0  0  0
   -9.6412    4.6375   -5.9674 C   0  0  0  0  0  0  0  0  0  0  0  0
   -9.1385    4.4371   -4.5327 C   0  0  0  0  0  0  0  0  0  0  0  0
   -7.6858    3.9856   -4.6541 C   0  0  0  0  0  0  0  0  0  0  0  0
   -7.3666    4.0943   -6.1385 C   0  0  0  0  0  0  0  0  0  0  0  0
   -8.4206    1.8620   -6.1968 H   0  0  0  0  0  0  0  0  0  0  0  0
 22 23  2  0  0  0
 23 24  1  0  0  0
 24 26  1  0  0  0
 26 27  2  0  0  0
 27 28  1  0  0  0
 28 29  1  0  0  0
 28 30  2  0  0  0
 30 31  1  0  0  0
 31 32  2  0  0  0
 31 33  1  0  0  0
 33 34  1  0  0  0
 34 35  1  0  0  0
 35 36  1  0  0  0
 36 37  1  0  0  0
 37 38  1  0  0  0
 38 39  1  0  0  0
  1 23  1  0  0  0
  1  2  1  0  0  0
  2  3  1  0  0  0
  3  4  1  0  0  0
  3  5  1  0  0  0
  5  6  1  0  0  0
  6  7  1  0  0  0
  7  8  1  0  0  0
  8  9  1  0  0  0
  9 10  1  0  0  0
 10 11  1  0  0  0
 11 12  1  0  0  0
 12 13  1  0  0  0
 13 14  1  0  0  0
 15 14  1  0  0  0
 15 16  1  0  0  0
 16 17  1  0  0  0
 17 18  1  0  0  0
 32 26  1  0  0  0
 39 35  1  0  0  0
 18  1  1  0  0  0
 35 30  1  0  0  0
 17  5  1  0  0  0
 16  7  1  0  0  0
 15 10  1  0  0  0
 24 25  1  0  0  0
 34 40  1  0  0  0
  6 19  1  0  0  0
  9 20  1  0  0  0
 12 21  1  0  0  0
M  END
> <minimizedAffinity>
-11.07618

> <minimizedRMSD>
0.33018

$$$$
P26267


 37 42  0  0  0  0  0  0  0  0999 V2000
   -8.1925    4.1715  -15.5478 C   0  0  0  0  0  0  0  0  0  0  0  0
   -9.2157    4.4171  -16.6484 C   0  0  0  0  0  0  0  0  0  0  0  0
   -8.7041    4.1286  -18.0567 C   0  0  0  0  0  0  0  0  0  0  0  0
   -8.6081    2.7892  -18.2025 F   0  0  0  0  0  0  0  0  0  0  0  0
   -7.3760    4.8365  -18.3679 C   0  0  0  0  0  0  0  0  0  0  0  0
   -6.4694    4.3897  -19.4425 N   0  0  0  0  0  0  0  0  0  0  0  0
   -5.2684    5.2277  -19.2206 C   0  0  0  0  0  0  0  0  0  0  0  0
   -4.0100    4.9930  -20.0665 C   0  0  0  0  0  0  0  0  0  0  0  0
   -2.7399    5.1776  -19.3432 N   0  0  0  0  0  0  0  0  0  0  0  0
   -2.8566    6.1609  -18.2638 C   0  0  0  0  0  0  0  0  0  0  0  0
   -1.5055    6.4549  -17.5523 C   0  0  0  0  0  0  0  0  0  0  0  0
   -1.6424    7.1617  -16.2585 N   0  0  0  0  0  0  0  0  0  0  0  0
   -2.8997    7.9026  -16.1757 C   0  0  0  0  0  0  0  0  0  0  0  0
   -4.1375    6.9966  -16.3071 C   0  0  0  0  0  0  0  0  0  0  0  0
   -3.8578    5.7483  -17.1651 C   0  0  0  0  0  0  0  0  0  0  0  0
   -5.0530    4.9862  -17.7350 C   0  0  0  0  0  0  0  0  0  0  0  0
   -6.4609    5.2024  -17.1928 C   0  0  0  0  0  0  0  0  0  0  0  0
   -6.7558    4.6407  -15.8200 C   0  0  0  0  0  0  0  0  0  0  0  0
   -6.8748    4.5633  -20.3622 H   0  0  0  0  0  0  0  0  0  0  0  0
   -2.0296    5.4959  -20.0023 H   0  0  0  0  0  0  0  0  0  0  0  0
   -0.8663    7.8156  -16.1556 H   0  0  0  0  0  0  0  0  0  0  0  0
   -9.3175    5.7779  -14.1959 O   0  0  0  0  0  0  0  0  0  0  0  0
   -8.6754    4.7985  -14.2244 C   0  0  0  0  0  0  0  0  0  0  0  0
   -8.0648    3.9564  -13.0621 N   0  0  0  0  0  0  0  0  0  0  0  0
   -7.4941    3.2079  -13.3509 H   0  0  0  0  0  0  0  0  0  0  0  0
   -8.1958    4.0912  -11.6835 C   0  0  0  0  0  0  0  0  0  0  0  0
   -7.8992    5.2965  -11.0318 C   0  0  0  0  0  0  0  0  0  0  0  0
   -7.9621    5.3840   -9.6372 C   0  0  0  0  0  0  0  0  0  0  0  0
   -8.3502    4.2631   -8.9232 C   0  0  0  0  0  0  0  0  0  0  0  0
   -8.6731    3.0767   -9.5684 C   0  0  0  0  0  0  0  0  0  0  0  0
   -8.5867    2.9676  -10.9465 C   0  0  0  0  0  0  0  0  0  0  0  0
   -9.0970    2.0518   -8.5639 C   0  0  0  0  0  0  0  0  0  0  0  0
   -8.9544    2.7053   -7.2429 N   0  0  0  0  0  0  0  0  0  0  0  0
   -8.5053    4.0882   -7.4493 C   0  0  0  0  0  0  0  0  0  0  0  0
  -10.1922    2.6600   -6.5094 C   0  0  0  0  0  0  0  0  0  0  0  0
  -10.0698    3.3964   -5.3723 F   0  0  0  0  0  0  0  0  0  0  0  0
  -10.4691    1.3905   -6.1382 F   0  0  0  0  0  0  0  0  0  0  0  0
 22 23  2  0  0  0
 23 24  1  0  0  0
 24 26  1  0  0  0
 26 27  2  0  0  0
 27 28  1  0  0  0
 28 29  2  0  0  0
 29 30  1  0  0  0
 30 31  2  0  0  0
 30 32  1  0  0  0
 32 33  1  0  0  0
 33 35  1  0  0  0
 35 36  1  0  0  0
 35 37  1  0  0  0
 33 34  1  0  0  0
  1 23  1  0  0  0
  1  2  1  0  0  0
  2  3  1  0  0  0
  3  4  1  0  0  0
  3  5  1  0  0  0
  5  6  1  0  0  0
  6  7  1  0  0  0
  7  8  1  0  0  0
  8  9  1  0  0  0
  9 10  1  0  0  0
 10 11  1  0  0  0
 11 12  1  0  0  0
 12 13  1  0  0  0
 13 14  1  0  0  0
 15 14  1  0  0  0
 15 16  1  0  0  0
 16 17  1  0  0  0
 17 18  1  0  0  0
 31 26  1  0  0  0
 18  1  1  0  0  0
 34 29  1  0  0  0
 17  5  1  0  0  0
 16  7  1  0  0  0
 15 10  1  0  0  0
 24 25  1  0  0  0
  6 19  1  0  0  0
  9 20  1  0  0  0
 12 21  1  0  0  0
M  END
> <minimizedAffinity>
-11.17437

> <minimizedRMSD>
0.68053

$$$$
P26268


 33 37  0  0  0  0  0  0  0  0999 V2000
   -8.3975    4.2734  -16.3270 C   0  0  0  0  0  0  0  0  0  0  0  0
   -8.2360    4.2902  -14.9392 C   0  0  0  0  0  0  0  0  0  0  0  0
   -7.0193    4.6793  -14.3849 C   0  0  0  0  0  0  0  0  0  0  0  0
   -5.9363    5.0473  -15.1997 C   0  0  0  0  0  0  0  0  0  0  0  0
   -6.0889    5.0620  -16.6035 C   0  0  0  0  0  0  0  0  0  0  0  0
   -5.2531    5.4502  -17.7025 C   0  0  0  0  0  0  0  0  0  0  0  0
   -6.0047    5.2889  -18.8484 C   0  0  0  0  0  0  0  0  0  0  0  0
   -7.2468    4.8371  -18.5013 N   0  0  0  0  0  0  0  0  0  0  0  0
   -7.3241    4.6845  -17.1341 C   0  0  0  0  0  0  0  0  0  0  0  0
   -7.9774    4.6488  -19.1337 H   0  0  0  0  0  0  0  0  0  0  0  0
   -3.8518    5.9855  -17.6831 C   0  0  0  0  0  0  0  0  0  0  0  0
   -3.7426    7.3006  -16.9023 C   0  0  0  0  0  0  0  0  0  0  0  0
   -2.3098    7.8216  -16.9331 C   0  0  0  0  0  0  0  0  0  0  0  0
   -1.3697    6.8246  -16.4249 N   0  0  0  0  0  0  0  0  0  0  0  0
   -1.4236    5.5860  -17.2045 C   0  0  0  0  0  0  0  0  0  0  0  0
   -2.8206    4.9707  -17.1840 C   0  0  0  0  0  0  0  0  0  0  0  0
   -1.6021    6.6150  -15.4541 H   0  0  0  0  0  0  0  0  0  0  0  0
   -6.9005    4.8846  -12.9183 C   0  0  0  0  0  0  0  0  0  0  0  0
   -6.1639    5.7092  -12.5418 O   0  0  0  0  0  0  0  0  0  0  0  0
   -7.8524    3.9551  -12.1299 N   0  0  0  0  0  0  0  0  0  0  0  0
   -8.3203    3.2840  -12.6775 H   0  0  0  0  0  0  0  0  0  0  0  0
   -8.1561    3.9129  -10.7689 C   0  0  0  0  0  0  0  0  0  0  0  0
   -7.9889    5.0434   -9.9517 C   0  0  0  0  0  0  0  0  0  0  0  0
   -8.2761    4.9908   -8.5830 C   0  0  0  0  0  0  0  0  0  0  0  0
   -8.7321    3.7974   -8.0569 C   0  0  0  0  0  0  0  0  0  0  0  0
   -8.8974    2.6751   -8.8627 C   0  0  0  0  0  0  0  0  0  0  0  0
   -8.6192    2.7137  -10.2197 C   0  0  0  0  0  0  0  0  0  0  0  0
   -9.3477    1.5319   -8.0139 C   0  0  0  0  0  0  0  0  0  0  0  0
   -9.8095    2.1523   -6.7441 N   0  0  0  0  0  0  0  0  0  0  0  0
   -9.0904    3.4424   -6.6523 C   0  0  0  0  0  0  0  0  0  0  0  0
   -9.5757    1.5563   -5.9501 H   0  0  0  0  0  0  0  0  0  0  0  0
   -9.4812    2.9707  -17.6399 O   0  0  0  0  0  0  0  0  0  0  0  0
   -9.6031    3.9408  -16.8855 N   0  0  0  0  0  0  0  0  0  0  0  0
 32 33  2  0  0  0
 33  1  1  0  0  0
  1  2  2  0  0  0
  2  3  1  0  0  0
  3 18  1  0  0  0
 18 19  2  0  0  0
 18 20  1  0  0  0
 20 22  1  0  0  0
 22 23  2  0  0  0
 23 24  1  0  0  0
 24 25  2  0  0  0
 25 26  1  0  0  0
 26 27  2  0  0  0
 26 28  1  0  0  0
 28 29  1  0  0  0
 29 30  1  0  0  0
  3  4  2  0  0  0
  4  5  1  0  0  0
  5  6  1  0  0  0
  6 11  1  0  0  0
 11 12  1  0  0  0
 12 13  1  0  0  0
 13 14  1  0  0  0
 14 15  1  0  0  0
 15 16  1  0  0  0
  6  7  2  0  0  0
  7  8  1  0  0  0
  8  9  1  0  0  0
  9  1  1  0  0  0
 27 22  1  0  0  0
  9  5  2  0  0  0
 30 25  1  0  0  0
 16 11  1  0  0  0
 20 21  1  0  0  0
 29 31  1  0  0  0
 14 17  1  0  0  0
  8 10  1  0  0  0
M  END
> <minimizedAffinity>
-9.39139

> <minimizedRMSD>
0.59627

$$$$
P26270


 35 39  0  0  0  0  0  0  0  0999 V2000
   -5.4761    5.3489  -18.0117 C   0  0  0  0  0  0  0  0  0  0  0  0
   -6.1769    5.0779  -19.1743 C   0  0  0  0  0  0  0  0  0  0  0  0
   -7.4121    4.5685  -18.8510 N   0  0  0  0  0  0  0  0  0  0  0  0
   -7.5366    4.4712  -17.4866 C   0  0  0  0  0  0  0  0  0  0  0  0
   -8.6068    4.0416  -16.6941 C   0  0  0  0  0  0  0  0  0  0  0  0
   -9.7418    3.5996  -17.2508 F   0  0  0  0  0  0  0  0  0  0  0  0
   -8.5208    4.1525  -15.3061 C   0  0  0  0  0  0  0  0  0  0  0  0
   -7.3686    4.6784  -14.7283 C   0  0  0  0  0  0  0  0  0  0  0  0
   -6.2762    5.0584  -15.5256 C   0  0  0  0  0  0  0  0  0  0  0  0
   -6.3552    4.9633  -16.9323 C   0  0  0  0  0  0  0  0  0  0  0  0
   -8.1050    4.3114  -19.5013 H   0  0  0  0  0  0  0  0  0  0  0  0
   -4.2866    7.1526  -17.0114 N   0  0  0  0  0  0  0  0  0  0  0  0
   -4.0920    5.9676  -17.8728 C   0  0  0  0  0  0  0  0  0  0  0  0
   -3.0994    4.9844  -17.2039 C   0  0  0  0  0  0  0  0  0  0  0  0
   -1.6344    5.2484  -17.5614 C   0  0  0  0  0  0  0  0  0  0  0  0
   -1.3832    6.6626  -17.8111 N   0  0  0  0  0  0  0  0  0  0  0  0
   -2.0869    7.0928  -19.0200 C   0  0  0  0  0  0  0  0  0  0  0  0
   -3.4688    6.4334  -19.2089 C   0  0  0  0  0  0  0  0  0  0  0  0
   -4.6978    6.8638  -16.1237 H   0  0  0  0  0  0  0  0  0  0  0  0
   -4.9104    7.8122  -17.4764 H   0  0  0  0  0  0  0  0  0  0  0  0
   -0.3814    6.8109  -17.9331 H   0  0  0  0  0  0  0  0  0  0  0  0
   -7.3109    5.0337  -13.2834 C   0  0  0  0  0  0  0  0  0  0  0  0
   -6.6430    5.9426  -12.9793 O   0  0  0  0  0  0  0  0  0  0  0  0
   -8.1817    4.0963  -12.4169 N   0  0  0  0  0  0  0  0  0  0  0  0
   -8.7163    3.4441  -12.9249 H   0  0  0  0  0  0  0  0  0  0  0  0
   -8.3335    4.0238  -11.0313 C   0  0  0  0  0  0  0  0  0  0  0  0
   -8.1035    5.1521  -10.2254 C   0  0  0  0  0  0  0  0  0  0  0  0
   -8.2356    5.0836   -8.8347 C   0  0  0  0  0  0  0  0  0  0  0  0
   -8.6044    3.8765   -8.2714 C   0  0  0  0  0  0  0  0  0  0  0  0
   -8.8355    2.7588   -9.0636 C   0  0  0  0  0  0  0  0  0  0  0  0
   -8.7064    2.8122  -10.4446 C   0  0  0  0  0  0  0  0  0  0  0  0
   -9.1821    1.5996   -8.1910 C   0  0  0  0  0  0  0  0  0  0  0  0
   -9.3589    2.1522   -6.8228 N   0  0  0  0  0  0  0  0  0  0  0  0
   -8.8066    3.5221   -6.8383 C   0  0  0  0  0  0  0  0  0  0  0  0
   -8.8561    1.5790   -6.1453 H   0  0  0  0  0  0  0  0  0  0  0  0
 12 13  1  0  0  0
 13  1  1  0  0  0
  1  2  2  0  0  0
  2  3  1  0  0  0
  3  4  1  0  0  0
  4  5  2  0  0  0
  5  6  1  0  0  0
  5  7  1  0  0  0
  7  8  2  0  0  0
  8 22  1  0  0  0
 22 23  2  0  0  0
 22 24  1  0  0  0
 24 26  1  0  0  0
 26 27  2  0  0  0
 27 28  1  0  0  0
 28 29  2  0  0  0
 29 30  1  0  0  0
 30 31  2  0  0  0
 30 32  1  0  0  0
 32 33  1  0  0  0
 33 34  1  0  0  0
  8  9  1  0  0  0
  9 10  2  0  0  0
 13 14  1  0  0  0
 14 15  1  0  0  0
 15 16  1  0  0  0
 16 17  1  0  0  0
 17 18  1  0  0  0
 18 13  1  0  0  0
 10  1  1  0  0  0
 10  4  1  0  0  0
 31 26  1  0  0  0
 34 29  1  0  0  0
 12 19  1  0  0  0
 12 20  1  0  0  0
  3 11  1  0  0  0
 24 25  1  0  0  0
 33 35  1  0  0  0
 16 21  1  0  0  0
M  END
> <minimizedAffinity>
-9.97093

> <minimizedRMSD>
0.50164

$$$$
P26274


 40 44  0  0  0  0  0  0  0  0999 V2000
   -7.4075    4.9141  -13.0492 C   0  0  0  0  0  0  0  0  0  0  0  0
   -7.9635    6.2285  -12.9748 O   0  0  0  0  0  0  0  0  0  0  0  0
   -8.0220    6.5028  -12.0463 H   0  0  0  0  0  0  0  0  0  0  0  0
   -7.3877    4.6451  -14.5575 C   0  0  0  0  0  0  0  0  0  0  0  0
   -8.5375    4.2537  -15.2688 C   0  0  0  0  0  0  0  0  0  0  0  0
   -8.5509    4.1567  -16.6658 C   0  0  0  0  0  0  0  0  0  0  0  0
   -9.6727    3.8012  -17.3071 F   0  0  0  0  0  0  0  0  0  0  0  0
   -7.4026    4.5093  -17.3716 C   0  0  0  0  0  0  0  0  0  0  0  0
   -7.1541    4.5894  -18.7216 N   0  0  0  0  0  0  0  0  0  0  0  0
   -5.8763    5.0532  -18.9316 C   0  0  0  0  0  0  0  0  0  0  0  0
   -5.2860    5.2885  -17.7060 C   0  0  0  0  0  0  0  0  0  0  0  0
   -6.2468    4.9191  -16.7163 C   0  0  0  0  0  0  0  0  0  0  0  0
   -6.2394    4.9633  -15.3059 C   0  0  0  0  0  0  0  0  0  0  0  0
   -7.7941    4.3508  -19.4307 H   0  0  0  0  0  0  0  0  0  0  0  0
   -3.9271    5.8535  -17.4062 C   0  0  0  0  0  0  0  0  0  0  0  0
   -3.6617    7.1991  -18.0775 C   0  0  0  0  0  0  0  0  0  0  0  0
   -2.3390    7.7889  -17.5750 C   0  0  0  0  0  0  0  0  0  0  0  0
   -1.3372    6.7876  -17.1985 N   0  0  0  0  0  0  0  0  0  0  0  0
   -1.4664    5.5629  -17.9840 C   0  0  0  0  0  0  0  0  0  0  0  0
   -2.7942    4.8601  -17.6974 C   0  0  0  0  0  0  0  0  0  0  0  0
   -1.4543    6.5596  -16.2112 H   0  0  0  0  0  0  0  0  0  0  0  0
   -5.4712    3.4691  -12.1024 N   0  0  0  0  0  0  0  0  0  0  0  0
   -5.9282    4.9294  -12.3897 C   0  0  0  0  0  0  0  0  0  0  0  0
   -5.3984    5.9512  -12.1599 O   0  0  0  0  0  0  0  0  0  0  0  0
   -6.0650    2.7724  -12.4647 H   0  0  0  0  0  0  0  0  0  0  0  0
   -4.7592    2.2324  -10.1279 C   0  0  0  0  0  0  0  0  0  0  0  0
   -4.3164    2.9698  -11.3899 C   0  0  0  0  0  0  0  0  0  0  0  0
   -3.4688    2.0562  -12.2652 C   0  0  0  0  0  0  0  0  0  0  0  0
   -8.3031    3.9962  -12.3443 N   0  0  0  0  0  0  0  0  0  0  0  0
   -8.8612    3.3803  -12.8719 H   0  0  0  0  0  0  0  0  0  0  0  0
   -8.3959    3.9609  -10.9506 C   0  0  0  0  0  0  0  0  0  0  0  0
   -8.1584    5.0829  -10.1294 C   0  0  0  0  0  0  0  0  0  0  0  0
   -8.2484    5.0163   -8.7330 C   0  0  0  0  0  0  0  0  0  0  0  0
   -8.6060    3.8151   -8.1583 C   0  0  0  0  0  0  0  0  0  0  0  0
   -8.8618    2.7032   -8.9457 C   0  0  0  0  0  0  0  0  0  0  0  0
   -8.7731    2.7613  -10.3291 C   0  0  0  0  0  0  0  0  0  0  0  0
   -9.1813    1.5412   -8.0683 C   0  0  0  0  0  0  0  0  0  0  0  0
   -9.3821    2.1065   -6.7085 N   0  0  0  0  0  0  0  0  0  0  0  0
   -8.7875    3.4593   -6.7232 C   0  0  0  0  0  0  0  0  0  0  0  0
   -8.9157    1.5244   -6.0127 H   0  0  0  0  0  0  0  0  0  0  0  0
 26 27  1  0  0  0
 27 28  1  0  0  0
 27 22  1  0  0  0
 22 23  1  0  0  0
 23 24  2  0  0  0
 23  1  1  0  0  0
  1  2  1  0  0  0
  1 29  1  0  0  0
 29 31  1  0  0  0
 31 32  2  0  0  0
 32 33  1  0  0  0
 33 34  2  0  0  0
 34 35  1  0  0  0
 35 36  2  0  0  0
 35 37  1  0  0  0
 37 38  1  0  0  0
 38 39  1  0  0  0
  1  4  1  0  0  0
  4  5  2  0  0  0
  5  6  1  0  0  0
  6  7  1  0  0  0
  6  8  2  0  0  0
  8  9  1  0  0  0
  9 10  1  0  0  0
 10 11  2  0  0  0
 11 15  1  0  0  0
 15 16  1  0  0  0
 16 17  1  0  0  0
 17 18  1  0  0  0
 18 19  1  0  0  0
 19 20  1  0  0  0
 11 12  1  0  0  0
 12 13  2  0  0  0
 36 31  1  0  0  0
 13  4  1  0  0  0
 39 34  1  0  0  0
 12  8  1  0  0  0
 20 15  1  0  0  0
 22 25  1  0  0  0
  2  3  1  0  0  0
 29 30  1  0  0  0
 38 40  1  0  0  0
  9 14  1  0  0  0
 18 21  1  0  0  0
M  END
> <minimizedAffinity>
-10.16359

> <minimizedRMSD>
0.38095

$$$$
P26279


 39 44  0  0  0  0  0  0  0  0999 V2000
   -3.8843    5.7439  -20.0429 C   0  0  0  0  0  0  0  0  0  0  0  0
   -5.2424    5.1354  -20.0725 N   0  0  0  0  0  0  0  0  0  0  0  0
   -5.9054    4.9934  -18.9100 C   0  0  0  0  0  0  0  0  0  0  0  0
   -7.2013    4.5580  -18.7783 N   0  0  0  0  0  0  0  0  0  0  0  0
   -7.5092    4.4690  -17.4290 C   0  0  0  0  0  0  0  0  0  0  0  0
   -8.6693    4.0794  -16.7456 C   0  0  0  0  0  0  0  0  0  0  0  0
   -9.7784    3.7037  -17.3970 F   0  0  0  0  0  0  0  0  0  0  0  0
   -8.6976    4.1814  -15.3473 C   0  0  0  0  0  0  0  0  0  0  0  0
   -7.6014    4.6894  -14.6578 C   0  0  0  0  0  0  0  0  0  0  0  0
   -6.4293    5.0251  -15.3350 C   0  0  0  0  0  0  0  0  0  0  0  0
   -6.3852    4.9174  -16.7295 C   0  0  0  0  0  0  0  0  0  0  0  0
   -5.3933    5.2461  -17.6710 C   0  0  0  0  0  0  0  0  0  0  0  0
   -4.0332    5.8069  -17.4670 C   0  0  0  0  0  0  0  0  0  0  0  0
   -4.1055    7.3211  -17.1934 C   0  0  0  0  0  0  0  0  0  0  0  0
   -2.8522    8.0728  -17.6234 C   0  0  0  0  0  0  0  0  0  0  0  0
   -1.6712    7.2244  -17.5580 N   0  0  0  0  0  0  0  0  0  0  0  0
   -1.7562    6.1545  -18.5575 C   0  0  0  0  0  0  0  0  0  0  0  0
   -3.1399    5.4597  -18.6811 C   0  0  0  0  0  0  0  0  0  0  0  0
   -5.6458    4.8439  -20.9219 H   0  0  0  0  0  0  0  0  0  0  0  0
   -7.8118    4.3440  -19.5204 H   0  0  0  0  0  0  0  0  0  0  0  0
   -1.6050    6.8111  -16.6279 H   0  0  0  0  0  0  0  0  0  0  0  0
   -3.2809    5.8888  -22.5104 N   0  0  0  0  0  0  0  0  0  0  0  0
   -3.0694    5.1760  -21.2380 C   0  0  0  0  0  0  0  0  0  0  0  0
   -2.7139    5.4573  -23.2402 H   0  0  0  0  0  0  0  0  0  0  0  0
   -3.0092    6.8660  -22.4019 H   0  0  0  0  0  0  0  0  0  0  0  0
   -7.6386    5.0956  -13.2325 C   0  0  0  0  0  0  0  0  0  0  0  0
   -7.0919    6.0882  -12.9521 O   0  0  0  0  0  0  0  0  0  0  0  0
   -8.3306    4.0493  -12.3381 N   0  0  0  0  0  0  0  0  0  0  0  0
   -8.7903    3.3289  -12.8269 H   0  0  0  0  0  0  0  0  0  0  0  0
   -8.4119    3.9562  -10.9471 C   0  0  0  0  0  0  0  0  0  0  0  0
   -8.1098    5.0648  -10.1357 C   0  0  0  0  0  0  0  0  0  0  0  0
   -8.1784    4.9799   -8.7411 C   0  0  0  0  0  0  0  0  0  0  0  0
   -8.5665    3.7790   -8.1792 C   0  0  0  0  0  0  0  0  0  0  0  0
   -8.8586    2.6785   -8.9760 C   0  0  0  0  0  0  0  0  0  0  0  0
   -8.7791    2.7449  -10.3600 C   0  0  0  0  0  0  0  0  0  0  0  0
   -9.2168    1.5224   -8.1040 C   0  0  0  0  0  0  0  0  0  0  0  0
   -9.3758    2.0794   -6.7360 N   0  0  0  0  0  0  0  0  0  0  0  0
   -8.7470    3.4158   -6.7450 C   0  0  0  0  0  0  0  0  0  0  0  0
   -8.9121    1.4775   -6.0555 H   0  0  0  0  0  0  0  0  0  0  0  0
 22 23  1  0  0  0
  1 23  1  0  0  0
  1  2  1  0  0  0
  2  3  1  0  0  0
  3  4  1  0  0  0
  4  5  1  0  0  0
  5  6  2  0  0  0
  6  7  1  0  0  0
  6  8  1  0  0  0
  8  9  2  0  0  0
  9 26  1  0  0  0
 26 27  2  0  0  0
 26 28  1  0  0  0
 28 30  1  0  0  0
 30 31  2  0  0  0
 31 32  1  0  0  0
 32 33  2  0  0  0
 33 34  1  0  0  0
 34 35  2  0  0  0
 34 36  1  0  0  0
 36 37  1  0  0  0
 37 38  1  0  0  0
  9 10  1  0  0  0
 10 11  2  0  0  0
 11 12  1  0  0  0
 12 13  1  0  0  0
 13 14  1  0  0  0
 14 15  1  0  0  0
 15 16  1  0  0  0
 16 17  1  0  0  0
 18 17  1  0  0  0
 18  1  1  0  0  0
 12  3  2  0  0  0
 18 13  1  0  0  0
 11  5  1  0  0  0
 35 30  1  0  0  0
 38 33  1  0  0  0
 22 24  1  0  0  0
 22 25  1  0  0  0
  2 19  1  0  0  0
  4 20  1  0  0  0
 28 29  1  0  0  0
 37 39  1  0  0  0
 16 21  1  0  0  0
M  END
> <minimizedAffinity>
-11.26226

> <minimizedRMSD>
0.37696

$$$$
P26312


 23 25  0  0  0  0  0  0  0  0999 V2000
   -6.9747    4.6072  -13.6161 C   0  0  0  0  0  0  0  0  0  0  0  0
   -5.9632    5.0934  -13.3008 O   0  0  0  0  0  0  0  0  0  0  0  0
   -8.1102    4.0189  -12.7574 N   0  0  0  0  0  0  0  0  0  0  0  0
   -8.8356    3.5932  -13.2691 H   0  0  0  0  0  0  0  0  0  0  0  0
   -8.2844    3.9900  -11.3201 C   0  0  0  0  0  0  0  0  0  0  0  0
   -9.0743    2.7536  -10.9074 C   0  0  0  0  0  0  0  0  0  0  0  0
   -9.3276    2.7115   -9.4072 C   0  0  0  0  0  0  0  0  0  0  0  0
   -8.0755    3.0305   -8.5915 C   0  0  0  0  0  0  0  0  0  0  0  0
   -6.8023    3.0468   -9.4479 C   0  0  0  0  0  0  0  0  0  0  0  0
   -6.9380    4.0714  -10.5852 C   0  0  0  0  0  0  0  0  0  0  0  0
   -8.1377    4.2315   -7.6011 C   0  0  0  0  0  0  0  0  0  0  0  0
   -7.5363    3.3637   -6.5595 N   0  0  0  0  0  0  0  0  0  0  0  0
   -8.0994    2.1949   -7.2748 C   0  0  0  0  0  0  0  0  0  0  0  0
   -7.9114    3.5066   -5.6217 H   0  0  0  0  0  0  0  0  0  0  0  0
   -8.1244    4.2340  -19.1745 N   0  0  0  0  0  0  0  0  0  0  0  0
   -7.8612    4.3847  -17.8089 C   0  0  0  0  0  0  0  0  0  0  0  0
   -6.5504    4.5883  -17.3714 C   0  0  0  0  0  0  0  0  0  0  0  0
   -6.2614    4.6592  -16.0066 C   0  0  0  0  0  0  0  0  0  0  0  0
   -7.2842    4.4857  -15.0711 C   0  0  0  0  0  0  0  0  0  0  0  0
   -8.5887    4.2499  -15.5086 C   0  0  0  0  0  0  0  0  0  0  0  0
   -8.8709    4.1823  -16.8716 C   0  0  0  0  0  0  0  0  0  0  0  0
   -7.4068    4.3783  -19.8329 H   0  0  0  0  0  0  0  0  0  0  0  0
   -9.0271    3.9836  -19.4771 H   0  0  0  0  0  0  0  0  0  0  0  0
 15 16  1  0  0  0
 16 17  2  0  0  0
 17 18  1  0  0  0
 18 19  2  0  0  0
 19  1  1  0  0  0
  1  2  2  0  0  0
  1  3  1  0  0  0
  3  5  1  0  0  0
  5  6  1  0  0  0
  6  7  1  0  0  0
  7  8  1  0  0  0
  8  9  1  0  0  0
  9 10  1  0  0  0
  8 11  1  0  0  0
 11 12  1  0  0  0
 12 13  1  0  0  0
 19 20  1  0  0  0
 20 21  2  0  0  0
 21 16  1  0  0  0
 10  5  1  0  0  0
 13  8  1  0  0  0
 15 22  1  0  0  0
 15 23  1  0  0  0
  3  4  1  0  0  0
 12 14  1  0  0  0
M  END
> <minimizedAffinity>
-6.54577

> <minimizedRMSD>
0.76845

$$$$
P26444


 33 37  0  0  0  0  0  0  0  0999 V2000
   -4.3584    5.6856  -17.1880 N   0  0  0  0  0  0  0  0  0  0  0  0
   -4.9939    5.6015  -15.9573 C   0  0  0  0  0  0  0  0  0  0  0  0
   -6.2554    5.0965  -16.1617 C   0  0  0  0  0  0  0  0  0  0  0  0
   -7.2807    4.8843  -15.2283 C   0  0  0  0  0  0  0  0  0  0  0  0
   -8.4666    4.4076  -15.8457 C   0  0  0  0  0  0  0  0  0  0  0  0
   -8.5738    4.1652  -17.2525 C   0  0  0  0  0  0  0  0  0  0  0  0
  -10.1255    3.7549  -17.8855 Cl  0  0  0  0  0  0  0  0  0  0  0  0
   -7.5264    4.3420  -18.1799 C   0  0  0  0  0  0  0  0  0  0  0  0
   -6.3788    4.8313  -17.5619 C   0  0  0  0  0  0  0  0  0  0  0  0
   -5.1949    5.1751  -18.1780 C   0  0  0  0  0  0  0  0  0  0  0  0
   -4.8938    5.0188  -19.7218 C   0  0  0  0  0  0  0  0  0  0  0  0
   -3.4372    4.8042  -20.1759 C   0  0  0  0  0  0  0  0  0  0  0  0
   -3.5696    5.9121  -21.1364 N   0  0  0  0  0  0  0  0  0  0  0  0
   -4.8405    6.3332  -20.5179 C   0  0  0  0  0  0  0  0  0  0  0  0
   -3.6631    5.6087  -22.1057 H   0  0  0  0  0  0  0  0  0  0  0  0
   -7.2764    5.3188  -13.8167 C   0  0  0  0  0  0  0  0  0  0  0  0
   -7.0492    6.4393  -13.5753 O   0  0  0  0  0  0  0  0  0  0  0  0
   -7.6935    4.1548  -12.8824 N   0  0  0  0  0  0  0  0  0  0  0  0
   -7.7528    3.2754  -13.3209 H   0  0  0  0  0  0  0  0  0  0  0  0
   -7.9988    4.1506  -11.5206 C   0  0  0  0  0  0  0  0  0  0  0  0
   -7.8157    5.2948  -10.7277 C   0  0  0  0  0  0  0  0  0  0  0  0
   -8.1040    5.2736   -9.3576 C   0  0  0  0  0  0  0  0  0  0  0  0
   -8.5781    4.0981   -8.8055 C   0  0  0  0  0  0  0  0  0  0  0  0
   -8.7828    2.9682   -9.5899 C   0  0  0  0  0  0  0  0  0  0  0  0
   -8.5011    2.9760  -10.9476 C   0  0  0  0  0  0  0  0  0  0  0  0
   -9.2630    1.8512   -8.7208 C   0  0  0  0  0  0  0  0  0  0  0  0
   -9.6310    2.4893   -7.4290 N   0  0  0  0  0  0  0  0  0  0  0  0
   -8.8884    3.7656   -7.3849 C   0  0  0  0  0  0  0  0  0  0  0  0
   -9.3587    1.8927   -6.6478 H   0  0  0  0  0  0  0  0  0  0  0  0
   -2.9653    6.0910  -17.4271 C   0  0  0  0  0  0  0  0  0  0  0  0
   -2.2112    8.0160  -16.2698 C   0  0  0  0  0  0  0  0  0  0  0  0
   -2.7775    7.5362  -17.5341 N   0  0  0  0  0  0  0  0  0  0  0  0
   -1.9065    7.8931  -18.6532 C   0  0  0  0  0  0  0  0  0  0  0  0
 31 32  1  0  0  0
 32 33  1  0  0  0
 32 30  1  0  0  0
 30  1  1  0  0  0
  1  2  1  0  0  0
  2  3  2  0  0  0
  3  4  1  0  0  0
  4 16  1  0  0  0
 16 17  2  0  0  0
 16 18  1  0  0  0
 18 20  1  0  0  0
 20 21  2  0  0  0
 21 22  1  0  0  0
 22 23  2  0  0  0
 23 24  1  0  0  0
 24 25  2  0  0  0
 24 26  1  0  0  0
 26 27  1  0  0  0
 27 28  1  0  0  0
  4  5  2  0  0  0
  5  6  1  0  0  0
  6  7  1  0  0  0
  6  8  2  0  0  0
  8  9  1  0  0  0
  9 10  2  0  0  0
 10 11  1  0  0  0
 11 12  1  0  0  0
 12 13  1  0  0  0
 13 14  1  0  0  0
 10  1  1  0  0  0
 14 11  1  0  0  0
  9  3  1  0  0  0
 25 20  1  0  0  0
 28 23  1  0  0  0
 18 19  1  0  0  0
 27 29  1  0  0  0
 13 15  1  0  0  0
M  END
> <minimizedAffinity>
-8.94377

> <minimizedRMSD>
0.61859

$$$$
P26451


 35 39  0  0  0  0  0  0  0  0999 V2000
   -5.6237    4.9821  -18.3089 C   0  0  0  0  0  0  0  0  0  0  0  0
   -6.4699    4.7446  -19.3766 N   0  0  0  0  0  0  0  0  0  0  0  0
   -7.7066    4.3668  -19.0524 N   0  0  0  0  0  0  0  0  0  0  0  0
   -7.7470    4.4182  -17.7190 C   0  0  0  0  0  0  0  0  0  0  0  0
   -8.8322    4.1128  -16.8618 C   0  0  0  0  0  0  0  0  0  0  0  0
  -10.0877    3.6697  -17.3043 N   0  0  0  0  0  0  0  0  0  0  0  0
   -8.5302    4.2767  -15.4989 C   0  0  0  0  0  0  0  0  0  0  0  0
   -7.2567    4.7370  -15.0313 C   0  0  0  0  0  0  0  0  0  0  0  0
   -6.1539    5.0436  -15.8685 C   0  0  0  0  0  0  0  0  0  0  0  0
   -6.4613    4.8628  -17.2160 C   0  0  0  0  0  0  0  0  0  0  0  0
   -6.1792    4.8475  -20.3116 H   0  0  0  0  0  0  0  0  0  0  0  0
  -10.2620    3.5670  -18.2677 H   0  0  0  0  0  0  0  0  0  0  0  0
  -10.7944    3.4614  -16.6512 H   0  0  0  0  0  0  0  0  0  0  0  0
   -2.5829    5.0099  -20.5541 C   0  0  0  0  0  0  0  0  0  0  0  0
   -3.8002    5.7356  -19.9581 C   0  0  0  0  0  0  0  0  0  0  0  0
   -3.5376    7.2434  -19.8615 C   0  0  0  0  0  0  0  0  0  0  0  0
   -2.5421    7.5815  -18.8481 N   0  0  0  0  0  0  0  0  0  0  0  0
   -3.0264    7.1674  -17.5318 C   0  0  0  0  0  0  0  0  0  0  0  0
   -3.2569    5.6645  -17.4657 C   0  0  0  0  0  0  0  0  0  0  0  0
   -4.1422    5.1096  -18.5841 C   0  0  0  0  0  0  0  0  0  0  0  0
   -2.3831    8.5890  -18.8504 H   0  0  0  0  0  0  0  0  0  0  0  0
   -7.0997    5.0310  -13.5809 C   0  0  0  0  0  0  0  0  0  0  0  0
   -6.3893    5.9043  -13.2693 O   0  0  0  0  0  0  0  0  0  0  0  0
   -7.9611    4.0827  -12.7158 N   0  0  0  0  0  0  0  0  0  0  0  0
   -8.4200    3.3704  -13.2171 H   0  0  0  0  0  0  0  0  0  0  0  0
   -8.1938    4.0720  -11.3422 C   0  0  0  0  0  0  0  0  0  0  0  0
   -8.0247    5.2307  -10.5680 C   0  0  0  0  0  0  0  0  0  0  0  0
   -8.2314    5.2056   -9.1846 C   0  0  0  0  0  0  0  0  0  0  0  0
   -8.6096    4.0111   -8.5994 C   0  0  0  0  0  0  0  0  0  0  0  0
   -8.7918    2.8669   -9.3648 C   0  0  0  0  0  0  0  0  0  0  0  0
   -8.5916    2.8771  -10.7371 C   0  0  0  0  0  0  0  0  0  0  0  0
   -9.1637    1.7287   -8.4766 C   0  0  0  0  0  0  0  0  0  0  0  0
   -9.3770    2.3112   -7.1249 N   0  0  0  0  0  0  0  0  0  0  0  0
   -8.8554    3.6931   -7.1648 C   0  0  0  0  0  0  0  0  0  0  0  0
   -8.8734    1.7664   -6.4249 H   0  0  0  0  0  0  0  0  0  0  0  0
 15 14  1  0  0  0
 15 16  1  0  0  0
 16 17  1  0  0  0
 17 18  1  0  0  0
 18 19  1  0  0  0
 19 20  1  0  0  0
 20  1  1  0  0  0
  1  2  1  0  0  0
  2  3  1  0  0  0
  3  4  2  0  0  0
  4  5  1  0  0  0
  5  6  1  0  0  0
  5  7  2  0  0  0
  7  8  1  0  0  0
  8 22  1  0  0  0
 22 23  2  0  0  0
 22 24  1  0  0  0
 24 26  1  0  0  0
 26 27  2  0  0  0
 27 28  1  0  0  0
 28 29  2  0  0  0
 29 30  1  0  0  0
 30 31  2  0  0  0
 30 32  1  0  0  0
 32 33  1  0  0  0
 33 34  1  0  0  0
  8  9  2  0  0  0
  9 10  1  0  0  0
 20 15  1  0  0  0
 10  1  2  0  0  0
 10  4  1  0  0  0
 31 26  1  0  0  0
 34 29  1  0  0  0
 17 21  1  0  0  0
  2 11  1  0  0  0
  6 12  1  0  0  0
  6 13  1  0  0  0
 24 25  1  0  0  0
 33 35  1  0  0  0
M  END
> <minimizedAffinity>
-9.91846

> <minimizedRMSD>
0.79610

$$$$
P26452


 33 37  0  0  0  0  0  0  0  0999 V2000
   -5.4597    4.9860  -20.2499 N   0  0  0  0  0  0  0  0  0  0  0  0
   -5.9678    4.8978  -18.9480 N   0  0  0  0  0  0  0  0  0  0  0  0
   -7.2031    4.4397  -18.7526 N   0  0  0  0  0  0  0  0  0  0  0  0
   -7.4081    4.4988  -17.4345 C   0  0  0  0  0  0  0  0  0  0  0  0
   -8.5476    4.1698  -16.6795 C   0  0  0  0  0  0  0  0  0  0  0  0
   -8.3955    4.3801  -15.2900 C   0  0  0  0  0  0  0  0  0  0  0  0
   -7.1838    4.8715  -14.7034 C   0  0  0  0  0  0  0  0  0  0  0  0
   -6.0223    5.1949  -15.4414 C   0  0  0  0  0  0  0  0  0  0  0  0
   -6.2148    4.9932  -16.8042 C   0  0  0  0  0  0  0  0  0  0  0  0
   -5.3071    5.2739  -17.8024 C   0  0  0  0  0  0  0  0  0  0  0  0
   -6.1556    4.6401  -20.9106 H   0  0  0  0  0  0  0  0  0  0  0  0
   -4.6122    4.4231  -20.3230 H   0  0  0  0  0  0  0  0  0  0  0  0
   -3.9068    5.8169  -17.7274 C   0  0  0  0  0  0  0  0  0  0  0  0
   -2.8741    4.7888  -18.1960 C   0  0  0  0  0  0  0  0  0  0  0  0
   -1.4581    5.3471  -18.0604 C   0  0  0  0  0  0  0  0  0  0  0  0
   -1.2968    6.6185  -18.7678 N   0  0  0  0  0  0  0  0  0  0  0  0
   -2.2449    7.6196  -18.2785 C   0  0  0  0  0  0  0  0  0  0  0  0
   -3.6948    7.1612  -18.4327 C   0  0  0  0  0  0  0  0  0  0  0  0
   -1.4565    6.4678  -19.7639 H   0  0  0  0  0  0  0  0  0  0  0  0
   -7.1458    5.2003  -13.2526 C   0  0  0  0  0  0  0  0  0  0  0  0
   -6.4639    6.0838  -12.9090 O   0  0  0  0  0  0  0  0  0  0  0  0
   -8.0694    4.2713  -12.4340 N   0  0  0  0  0  0  0  0  0  0  0  0
   -8.6048    3.6444  -12.9720 H   0  0  0  0  0  0  0  0  0  0  0  0
   -8.2681    4.1761  -11.0573 C   0  0  0  0  0  0  0  0  0  0  0  0
   -8.0605    5.2854  -10.2197 C   0  0  0  0  0  0  0  0  0  0  0  0
   -8.2618    5.1928   -8.8388 C   0  0  0  0  0  0  0  0  0  0  0  0
   -8.6925    3.9858   -8.3237 C   0  0  0  0  0  0  0  0  0  0  0  0
   -8.9005    2.8850   -9.1502 C   0  0  0  0  0  0  0  0  0  0  0  0
   -8.6840    2.9567  -10.5169 C   0  0  0  0  0  0  0  0  0  0  0  0
   -9.3424    1.7292   -8.3145 C   0  0  0  0  0  0  0  0  0  0  0  0
   -9.7488    2.3273   -7.0143 N   0  0  0  0  0  0  0  0  0  0  0  0
   -9.0001    3.5995   -6.9162 C   0  0  0  0  0  0  0  0  0  0  0  0
   -9.5013    1.7071   -6.2432 H   0  0  0  0  0  0  0  0  0  0  0  0
  1  2  1  0  0  0
  2  3  1  0  0  0
  3  4  2  0  0  0
  4  5  1  0  0  0
  5  6  2  0  0  0
  6  7  1  0  0  0
  7 20  1  0  0  0
 20 21  2  0  0  0
 20 22  1  0  0  0
 22 24  1  0  0  0
 24 25  2  0  0  0
 25 26  1  0  0  0
 26 27  2  0  0  0
 27 28  1  0  0  0
 28 29  2  0  0  0
 28 30  1  0  0  0
 30 31  1  0  0  0
 31 32  1  0  0  0
  7  8  2  0  0  0
  8  9  1  0  0  0
  9 10  2  0  0  0
 10 13  1  0  0  0
 13 14  1  0  0  0
 14 15  1  0  0  0
 15 16  1  0  0  0
 16 17  1  0  0  0
 17 18  1  0  0  0
 10  2  1  0  0  0
 18 13  1  0  0  0
  9  4  1  0  0  0
 29 24  1  0  0  0
 32 27  1  0  0  0
  1 11  1  0  0  0
  1 12  1  0  0  0
 22 23  1  0  0  0
 31 33  1  0  0  0
 16 19  1  0  0  0
M  END
> <minimizedAffinity>
-9.61169

> <minimizedRMSD>
0.50741

$$$$
P26453


 35 39  0  0  0  0  0  0  0  0999 V2000
   -9.4038    3.8411  -18.0986 C   0  0  0  0  0  0  0  0  0  0  0  0
   -8.4927    4.3033  -17.0208 C   0  0  0  0  0  0  0  0  0  0  0  0
   -8.8402    4.4797  -15.6671 C   0  0  0  0  0  0  0  0  0  0  0  0
   -7.9262    5.0025  -14.6886 C   0  0  0  0  0  0  0  0  0  0  0  0
   -6.5865    5.3808  -14.9548 C   0  0  0  0  0  0  0  0  0  0  0  0
   -6.2785    5.2204  -16.2983 C   0  0  0  0  0  0  0  0  0  0  0  0
   -5.1296    5.6107  -16.9588 C   0  0  0  0  0  0  0  0  0  0  0  0
   -5.3884    5.2356  -18.2565 N   0  0  0  0  0  0  0  0  0  0  0  0
   -6.5631    4.6474  -18.4656 N   0  0  0  0  0  0  0  0  0  0  0  0
   -7.1754    4.6846  -17.2916 C   0  0  0  0  0  0  0  0  0  0  0  0
   -3.8263    6.2892  -16.6337 C   0  0  0  0  0  0  0  0  0  0  0  0
   -3.9105    7.7198  -16.0915 C   0  0  0  0  0  0  0  0  0  0  0  0
   -2.6873    8.0802  -15.2400 C   0  0  0  0  0  0  0  0  0  0  0  0
   -1.4751    7.4669  -15.7706 N   0  0  0  0  0  0  0  0  0  0  0  0
   -1.5140    6.0042  -15.6878 C   0  0  0  0  0  0  0  0  0  0  0  0
   -2.9300    5.4188  -15.7524 C   0  0  0  0  0  0  0  0  0  0  0  0
   -0.6748    7.8052  -15.2364 H   0  0  0  0  0  0  0  0  0  0  0  0
   -8.4240    5.3137  -13.3231 C   0  0  0  0  0  0  0  0  0  0  0  0
   -9.0204    6.3049  -13.1669 O   0  0  0  0  0  0  0  0  0  0  0  0
   -8.0518    4.2018  -12.3202 N   0  0  0  0  0  0  0  0  0  0  0  0
   -7.6041    3.4206  -12.7184 H   0  0  0  0  0  0  0  0  0  0  0  0
   -8.2456    4.1234  -10.9463 C   0  0  0  0  0  0  0  0  0  0  0  0
   -7.9925    5.2330  -10.1234 C   0  0  0  0  0  0  0  0  0  0  0  0
   -8.1786    5.1559   -8.7416 C   0  0  0  0  0  0  0  0  0  0  0  0
   -8.6241    3.9608   -8.2107 C   0  0  0  0  0  0  0  0  0  0  0  0
   -8.8760    2.8633   -9.0263 C   0  0  0  0  0  0  0  0  0  0  0  0
   -8.6943    2.9223  -10.3973 C   0  0  0  0  0  0  0  0  0  0  0  0
   -9.2882    1.7082   -8.1817 C   0  0  0  0  0  0  0  0  0  0  0  0
   -9.5355    2.2637   -6.8274 N   0  0  0  0  0  0  0  0  0  0  0  0
   -8.8955    3.5943   -6.7916 C   0  0  0  0  0  0  0  0  0  0  0  0
   -9.1248    1.6567   -6.1180 H   0  0  0  0  0  0  0  0  0  0  0  0
   -4.5437    5.3720  -19.4185 C   0  0  0  0  0  0  0  0  0  0  0  0
   -5.2192    6.2422  -20.3801 N   0  0  0  0  0  0  0  0  0  0  0  0
   -6.1163    5.8315  -20.6386 H   0  0  0  0  0  0  0  0  0  0  0  0
   -4.6391    6.3436  -21.2129 H   0  0  0  0  0  0  0  0  0  0  0  0
  1  2  1  0  0  0
  2  3  2  0  0  0
  3  4  1  0  0  0
  4 18  1  0  0  0
 18 19  2  0  0  0
 18 20  1  0  0  0
 20 22  1  0  0  0
 22 23  2  0  0  0
 23 24  1  0  0  0
 24 25  2  0  0  0
 25 26  1  0  0  0
 26 27  2  0  0  0
 26 28  1  0  0  0
 28 29  1  0  0  0
 29 30  1  0  0  0
  4  5  2  0  0  0
  5  6  1  0  0  0
  6  7  2  0  0  0
  7 11  1  0  0  0
 11 12  1  0  0  0
 12 13  1  0  0  0
 13 14  1  0  0  0
 14 15  1  0  0  0
 15 16  1  0  0  0
  7  8  1  0  0  0
  8 32  1  0  0  0
 32 33  1  0  0  0
  8  9  1  0  0  0
  9 10  2  0  0  0
 10  2  1  0  0  0
 27 22  1  0  0  0
 10  6  1  0  0  0
 30 25  1  0  0  0
 16 11  1  0  0  0
 20 21  1  0  0  0
 29 31  1  0  0  0
 14 17  1  0  0  0
 33 34  1  0  0  0
 33 35  1  0  0  0
M  END
> <minimizedAffinity>
-9.57442

> <minimizedRMSD>
0.91391

$$$$
P26458


 33 37  0  0  0  0  0  0  0  0999 V2000
   -5.8595    5.2377  -18.6474 N   0  0  0  0  0  0  0  0  0  0  0  0
   -7.0726    4.6956  -18.5015 N   0  0  0  0  0  0  0  0  0  0  0  0
   -7.2985    4.6782  -17.1880 C   0  0  0  0  0  0  0  0  0  0  0  0
   -8.4615    4.3441  -16.4758 C   0  0  0  0  0  0  0  0  0  0  0  0
   -8.3366    4.5113  -15.0798 C   0  0  0  0  0  0  0  0  0  0  0  0
   -7.1259    4.9477  -14.4519 C   0  0  0  0  0  0  0  0  0  0  0  0
   -5.9273    5.2302  -15.1432 C   0  0  0  0  0  0  0  0  0  0  0  0
   -6.0977    5.0896  -16.5143 C   0  0  0  0  0  0  0  0  0  0  0  0
   -5.1398    5.3386  -17.4762 C   0  0  0  0  0  0  0  0  0  0  0  0
   -3.6769    5.6814  -17.3243 C   0  0  0  0  0  0  0  0  0  0  0  0
   -3.4544    7.1995  -17.2722 C   0  0  0  0  0  0  0  0  0  0  0  0
   -1.9784    7.5296  -17.0659 C   0  0  0  0  0  0  0  0  0  0  0  0
   -1.1328    6.9109  -18.0847 N   0  0  0  0  0  0  0  0  0  0  0  0
   -1.2685    5.4530  -18.0622 C   0  0  0  0  0  0  0  0  0  0  0  0
   -2.7113    5.0207  -18.3226 C   0  0  0  0  0  0  0  0  0  0  0  0
   -0.1595    7.1584  -17.9062 H   0  0  0  0  0  0  0  0  0  0  0  0
   -7.1230    5.2598  -13.0014 C   0  0  0  0  0  0  0  0  0  0  0  0
   -6.4560    6.1445  -12.6339 O   0  0  0  0  0  0  0  0  0  0  0  0
   -8.0519    4.3126  -12.2132 N   0  0  0  0  0  0  0  0  0  0  0  0
   -8.5714    3.6880  -12.7694 H   0  0  0  0  0  0  0  0  0  0  0  0
   -8.2749    4.1975  -10.8447 C   0  0  0  0  0  0  0  0  0  0  0  0
   -8.0816    5.2926   -9.9863 C   0  0  0  0  0  0  0  0  0  0  0  0
   -8.2928    5.1707   -8.6098 C   0  0  0  0  0  0  0  0  0  0  0  0
   -8.6997    3.9451   -8.1179 C   0  0  0  0  0  0  0  0  0  0  0  0
   -8.8885    2.8608   -8.9666 C   0  0  0  0  0  0  0  0  0  0  0  0
   -8.6818    2.9650  -10.3324 C   0  0  0  0  0  0  0  0  0  0  0  0
   -9.2743    1.6679   -8.1619 C   0  0  0  0  0  0  0  0  0  0  0  0
   -9.5707    2.1765   -6.7990 N   0  0  0  0  0  0  0  0  0  0  0  0
   -8.9872    3.5307   -6.7148 C   0  0  0  0  0  0  0  0  0  0  0  0
   -9.1492    1.5678   -6.0974 H   0  0  0  0  0  0  0  0  0  0  0  0
   -5.5661    7.0563  -20.1124 C   0  0  0  0  0  0  0  0  0  0  0  0
   -5.4311    5.6150  -19.9261 N   0  0  0  0  0  0  0  0  0  0  0  0
   -4.4521    5.3529  -20.0418 H   0  0  0  0  0  0  0  0  0  0  0  0
 31 32  1  0  0  0
 32  1  1  0  0  0
  1  2  1  0  0  0
  2  3  2  0  0  0
  3  4  1  0  0  0
  4  5  2  0  0  0
  5  6  1  0  0  0
  6 17  1  0  0  0
 17 18  2  0  0  0
 17 19  1  0  0  0
 19 21  1  0  0  0
 21 22  2  0  0  0
 22 23  1  0  0  0
 23 24  2  0  0  0
 24 25  1  0  0  0
 25 26  2  0  0  0
 25 27  1  0  0  0
 27 28  1  0  0  0
 28 29  1  0  0  0
  6  7  2  0  0  0
  7  8  1  0  0  0
  8  9  2  0  0  0
  9 10  1  0  0  0
 10 11  1  0  0  0
 11 12  1  0  0  0
 12 13  1  0  0  0
 13 14  1  0  0  0
 14 15  1  0  0  0
  9  1  1  0  0  0
 15 10  1  0  0  0
  8  3  1  0  0  0
 26 21  1  0  0  0
 29 24  1  0  0  0
 32 33  1  0  0  0
 19 20  1  0  0  0
 28 30  1  0  0  0
 13 16  1  0  0  0
M  END
> <minimizedAffinity>
-9.12353

> <minimizedRMSD>
0.41925

$$$$
P26462


 38 43  0  0  0  0  0  0  0  0999 V2000
   -9.3739    3.8799  -17.5067 C   0  0  0  0  0  0  0  0  0  0  0  0
   -8.2130    4.3221  -16.6913 C   0  0  0  0  0  0  0  0  0  0  0  0
   -8.2221    4.3422  -15.2733 C   0  0  0  0  0  0  0  0  0  0  0  0
   -7.1154    4.7764  -14.4672 C   0  0  0  0  0  0  0  0  0  0  0  0
   -5.9134    5.2596  -15.0569 C   0  0  0  0  0  0  0  0  0  0  0  0
   -5.9189    5.2466  -16.4473 C   0  0  0  0  0  0  0  0  0  0  0  0
   -4.9146    5.6798  -17.3015 C   0  0  0  0  0  0  0  0  0  0  0  0
   -5.5188    5.5746  -18.5365 N   0  0  0  0  0  0  0  0  0  0  0  0
   -6.6660    4.8914  -18.5306 N   0  0  0  0  0  0  0  0  0  0  0  0
   -7.0102    4.7828  -17.2506 C   0  0  0  0  0  0  0  0  0  0  0  0
   -5.0583    6.0261  -19.8322 C   0  0  0  0  0  0  0  0  0  0  0  0
   -4.2186    7.2849  -19.8257 C   0  0  0  0  0  0  0  0  0  0  0  0
   -2.7971    6.9652  -19.4059 C   0  0  0  0  0  0  0  0  0  0  0  0
   -2.6863    6.0277  -18.3061 N   0  0  0  0  0  0  0  0  0  0  0  0
   -3.5149    6.2245  -17.0898 C   0  0  0  0  0  0  0  0  0  0  0  0
   -2.7408    5.3850  -16.0402 C   0  0  0  0  0  0  0  0  0  0  0  0
   -1.5848    6.1782  -15.4393 C   0  0  0  0  0  0  0  0  0  0  0  0
   -2.0496    7.3266  -14.6572 N   0  0  0  0  0  0  0  0  0  0  0  0
   -3.3013    7.9073  -15.1395 C   0  0  0  0  0  0  0  0  0  0  0  0
   -3.5451    7.7144  -16.6354 C   0  0  0  0  0  0  0  0  0  0  0  0
   -1.7116    6.0372  -18.0056 H   0  0  0  0  0  0  0  0  0  0  0  0
   -1.3289    8.0478  -14.6872 H   0  0  0  0  0  0  0  0  0  0  0  0
   -7.1153    4.7220  -12.9439 C   0  0  0  0  0  0  0  0  0  0  0  0
   -6.7555    6.0091  -12.4864 O   0  0  0  0  0  0  0  0  0  0  0  0
   -6.1348    3.9033  -12.4787 F   0  0  0  0  0  0  0  0  0  0  0  0
   -5.9109    6.2699  -12.8859 H   0  0  0  0  0  0  0  0  0  0  0  0
   -8.3727    4.3006  -12.3667 N   0  0  0  0  0  0  0  0  0  0  0  0
   -9.1647    4.1126  -12.9205 H   0  0  0  0  0  0  0  0  0  0  0  0
   -8.3952    4.1751  -10.9583 C   0  0  0  0  0  0  0  0  0  0  0  0
   -8.1665    5.2853  -10.1152 C   0  0  0  0  0  0  0  0  0  0  0  0
   -8.2389    5.1819   -8.7223 C   0  0  0  0  0  0  0  0  0  0  0  0
   -8.5978    3.9642   -8.1839 C   0  0  0  0  0  0  0  0  0  0  0  0
   -8.8330    2.8622   -8.9992 C   0  0  0  0  0  0  0  0  0  0  0  0
   -8.7218    2.9425  -10.3769 C   0  0  0  0  0  0  0  0  0  0  0  0
   -9.2157    1.7008   -8.1455 C   0  0  0  0  0  0  0  0  0  0  0  0
   -9.5872    2.2983   -6.8358 N   0  0  0  0  0  0  0  0  0  0  0  0
   -8.8508    3.5790   -6.7652 C   0  0  0  0  0  0  0  0  0  0  0  0
   -9.3081    1.6835   -6.0712 H   0  0  0  0  0  0  0  0  0  0  0  0
  1  2  1  0  0  0
  2  3  2  0  0  0
  3  4  1  0  0  0
  4 23  1  0  0  0
 23 24  1  0  0  0
 23 25  1  0  0  0
 23 27  1  0  0  0
 27 29  1  0  0  0
 29 30  2  0  0  0
 30 31  1  0  0  0
 31 32  2  0  0  0
 32 33  1  0  0  0
 33 34  2  0  0  0
 33 35  1  0  0  0
 35 36  1  0  0  0
 36 37  1  0  0  0
  4  5  2  0  0  0
  5  6  1  0  0  0
  6  7  2  0  0  0
  7  8  1  0  0  0
  8  9  1  0  0  0
  9 10  2  0  0  0
  8 11  1  0  0  0
 11 12  1  0  0  0
 12 13  1  0  0  0
 13 14  1  0  0  0
 14 15  1  0  0  0
 15 16  1  0  0  0
 16 17  1  0  0  0
 17 18  1  0  0  0
 18 19  1  0  0  0
 19 20  1  0  0  0
 10  2  1  0  0  0
 20 15  1  0  0  0
 34 29  1  0  0  0
 10  6  1  0  0  0
 37 32  1  0  0  0
 15  7  1  0  0  0
 24 26  1  0  0  0
 27 28  1  0  0  0
 36 38  1  0  0  0
 14 21  1  0  0  0
 18 22  1  0  0  0
M  END
> <minimizedAffinity>
-9.74988

> <minimizedRMSD>
0.33916

$$$$
P26476


 35 39  0  0  0  0  0  0  0  0999 V2000
   -8.0105    4.4937  -12.1755 N   0  0  0  0  0  0  0  0  0  0  0  0
   -6.8282    4.9243  -13.0666 C   0  0  0  0  0  0  0  0  0  0  0  0
   -5.7767    5.3415  -12.7795 O   0  0  0  0  0  0  0  0  0  0  0  0
   -8.7704    4.0994  -12.6617 H   0  0  0  0  0  0  0  0  0  0  0  0
   -7.7273    7.0811  -10.4291 C   0  0  0  0  0  0  0  0  0  0  0  0
   -8.0218    5.6944   -9.9466 C   0  0  0  0  0  0  0  0  0  0  0  0
   -8.1781    5.5337   -8.5511 C   0  0  0  0  0  0  0  0  0  0  0  0
   -8.5742    4.3126   -8.0335 C   0  0  0  0  0  0  0  0  0  0  0  0
   -8.7984    3.2278   -8.8621 C   0  0  0  0  0  0  0  0  0  0  0  0
   -8.5464    3.3156  -10.2220 C   0  0  0  0  0  0  0  0  0  0  0  0
   -8.8677    2.2403  -11.0952 N   0  0  0  0  0  0  0  0  0  0  0  0
   -8.1805    4.5720  -10.7832 C   0  0  0  0  0  0  0  0  0  0  0  0
   -9.2902    2.0814   -8.0451 C   0  0  0  0  0  0  0  0  0  0  0  0
   -9.4823    2.5990   -6.6652 N   0  0  0  0  0  0  0  0  0  0  0  0
   -8.8463    3.9299   -6.6190 C   0  0  0  0  0  0  0  0  0  0  0  0
   -9.1229    1.3647  -10.7246 H   0  0  0  0  0  0  0  0  0  0  0  0
   -8.8351    2.3715  -12.0704 H   0  0  0  0  0  0  0  0  0  0  0  0
   -9.0401    1.9745   -5.9907 H   0  0  0  0  0  0  0  0  0  0  0  0
   -7.1347    4.7240  -14.5029 C   0  0  0  0  0  0  0  0  0  0  0  0
   -8.4602    4.3481  -14.8973 C   0  0  0  0  0  0  0  0  0  0  0  0
   -8.8750    4.2962  -16.2463 C   0  0  0  0  0  0  0  0  0  0  0  0
   -7.8741    4.6711  -17.1572 C   0  0  0  0  0  0  0  0  0  0  0  0
   -7.9122    4.7662  -18.4895 N   0  0  0  0  0  0  0  0  0  0  0  0
   -6.7316    5.3071  -18.8381 N   0  0  0  0  0  0  0  0  0  0  0  0
   -5.8077    5.3438  -17.8208 C   0  0  0  0  0  0  0  0  0  0  0  0
   -6.5534    5.0247  -16.7104 C   0  0  0  0  0  0  0  0  0  0  0  0
   -6.0988    5.0525  -15.4005 C   0  0  0  0  0  0  0  0  0  0  0  0
   -6.5450    5.6473  -19.7430 H   0  0  0  0  0  0  0  0  0  0  0  0
   -4.3488    5.6546  -17.9743 C   0  0  0  0  0  0  0  0  0  0  0  0
   -4.0630    7.1544  -17.8512 C   0  0  0  0  0  0  0  0  0  0  0  0
   -2.5603    7.4131  -17.9342 C   0  0  0  0  0  0  0  0  0  0  0  0
   -2.0055    6.8910  -19.1826 N   0  0  0  0  0  0  0  0  0  0  0  0
   -2.2261    5.4506  -19.3144 C   0  0  0  0  0  0  0  0  0  0  0  0
   -3.7162    5.1104  -19.2607 C   0  0  0  0  0  0  0  0  0  0  0  0
   -1.0023    7.0744  -19.2004 H   0  0  0  0  0  0  0  0  0  0  0  0
  5  6  1  0  0  0
  6  7  2  0  0  0
  7  8  1  0  0  0
  8  9  2  0  0  0
  9 10  1  0  0  0
 10 11  1  0  0  0
 10 12  2  0  0  0
 12  1  1  0  0  0
  1  2  1  0  0  0
  2  3  2  0  0  0
  2 19  1  0  0  0
 19 20  1  0  0  0
 20 21  2  0  0  0
 21 22  1  0  0  0
 22 23  2  0  0  0
 23 24  1  0  0  0
 24 25  1  0  0  0
 25 29  1  0  0  0
 29 30  1  0  0  0
 30 31  1  0  0  0
 31 32  1  0  0  0
 32 33  1  0  0  0
 33 34  1  0  0  0
 25 26  2  0  0  0
 26 27  1  0  0  0
  9 13  1  0  0  0
 13 14  1  0  0  0
 14 15  1  0  0  0
 12  6  1  0  0  0
 27 19  2  0  0  0
 15  8  1  0  0  0
 26 22  1  0  0  0
 34 29  1  0  0  0
 11 16  1  0  0  0
 11 17  1  0  0  0
  1  4  1  0  0  0
 24 28  1  0  0  0
 32 35  1  0  0  0
 14 18  1  0  0  0
M  END
> <minimizedAffinity>
-9.56938

> <minimizedRMSD>
0.71436

$$$$
P26495


 34 38  0  0  0  0  0  0  0  0999 V2000
   -7.1659    4.7114  -14.6608 C   0  0  0  0  0  0  0  0  0  0  0  0
   -8.4226    4.2768  -15.1891 C   0  0  0  0  0  0  0  0  0  0  0  0
   -8.6650    4.1690  -16.5731 C   0  0  0  0  0  0  0  0  0  0  0  0
   -9.8436    3.7426  -17.0371 F   0  0  0  0  0  0  0  0  0  0  0  0
   -7.6063    4.5719  -17.4073 C   0  0  0  0  0  0  0  0  0  0  0  0
   -7.4766    4.6056  -18.7389 N   0  0  0  0  0  0  0  0  0  0  0  0
   -6.3097    5.2293  -18.9705 N   0  0  0  0  0  0  0  0  0  0  0  0
   -5.5292    5.3898  -17.8510 C   0  0  0  0  0  0  0  0  0  0  0  0
   -6.3749    5.0302  -16.8280 C   0  0  0  0  0  0  0  0  0  0  0  0
   -6.0739    5.1007  -15.4757 C   0  0  0  0  0  0  0  0  0  0  0  0
   -6.0378    5.5436  -19.8630 H   0  0  0  0  0  0  0  0  0  0  0  0
   -4.1000    5.8442  -17.8296 C   0  0  0  0  0  0  0  0  0  0  0  0
   -3.9690    7.3253  -18.2040 C   0  0  0  0  0  0  0  0  0  0  0  0
   -2.5122    7.7694  -18.0958 C   0  0  0  0  0  0  0  0  0  0  0  0
   -1.6383    6.9554  -18.9408 N   0  0  0  0  0  0  0  0  0  0  0  0
   -1.7196    5.5367  -18.5887 C   0  0  0  0  0  0  0  0  0  0  0  0
   -3.1512    5.0050  -18.6931 C   0  0  0  0  0  0  0  0  0  0  0  0
   -0.6756    7.2713  -18.8231 H   0  0  0  0  0  0  0  0  0  0  0  0
   -8.1375    4.4417  -12.3272 N   0  0  0  0  0  0  0  0  0  0  0  0
   -6.9417    4.9046  -13.1970 C   0  0  0  0  0  0  0  0  0  0  0  0
   -5.9327    5.4097  -12.8908 O   0  0  0  0  0  0  0  0  0  0  0  0
   -8.9128    4.1102  -12.8354 H   0  0  0  0  0  0  0  0  0  0  0  0
   -8.1758    5.5474  -10.0675 C   0  0  0  0  0  0  0  0  0  0  0  0
   -8.2669    5.3548   -8.6759 C   0  0  0  0  0  0  0  0  0  0  0  0
   -8.5900    4.1040   -8.1832 C   0  0  0  0  0  0  0  0  0  0  0  0
   -8.7796    3.0259   -9.0332 C   0  0  0  0  0  0  0  0  0  0  0  0
   -8.6273    3.1590  -10.3995 C   0  0  0  0  0  0  0  0  0  0  0  0
   -8.2955    4.4180  -10.9311 C   0  0  0  0  0  0  0  0  0  0  0  0
   -9.1209    1.8226   -8.2203 C   0  0  0  0  0  0  0  0  0  0  0  0
   -9.5209    2.3621   -6.8951 N   0  0  0  0  0  0  0  0  0  0  0  0
   -8.8351    3.6659   -6.7777 C   0  0  0  0  0  0  0  0  0  0  0  0
   -9.2223    1.7336   -6.1492 H   0  0  0  0  0  0  0  0  0  0  0  0
   -9.2210    8.1763   -9.6498 C   0  0  0  0  0  0  0  0  0  0  0  0
   -8.0966    7.2313  -10.7101 S   0  0  0  0  0  0  0  0  0  0  0  0
 33 34  1  0  0  0
 34 23  1  0  0  0
 23 24  2  0  0  0
 24 25  1  0  0  0
 25 26  2  0  0  0
 26 27  1  0  0  0
 27 28  2  0  0  0
 28 19  1  0  0  0
 19 20  1  0  0  0
 20 21  2  0  0  0
 20  1  1  0  0  0
  1  2  1  0  0  0
  2  3  2  0  0  0
  3  4  1  0  0  0
  3  5  1  0  0  0
  5  6  2  0  0  0
  6  7  1  0  0  0
  7  8  1  0  0  0
  8 12  1  0  0  0
 12 13  1  0  0  0
 13 14  1  0  0  0
 14 15  1  0  0  0
 15 16  1  0  0  0
 16 17  1  0  0  0
  8  9  2  0  0  0
  9 10  1  0  0  0
 26 29  1  0  0  0
 29 30  1  0  0  0
 30 31  1  0  0  0
 28 23  1  0  0  0
 10  1  2  0  0  0
 31 25  1  0  0  0
  9  5  1  0  0  0
 17 12  1  0  0  0
 19 22  1  0  0  0
  7 11  1  0  0  0
 15 18  1  0  0  0
 30 32  1  0  0  0
M  END
> <minimizedAffinity>
-8.93958

> <minimizedRMSD>
0.44613

$$$$
P26496


 40 44  0  0  0  0  0  0  0  0999 V2000
   -5.7045    5.1964  -18.1807 C   0  0  0  0  0  0  0  0  0  0  0  0
   -6.3559    4.7630  -19.3144 N   0  0  0  0  0  0  0  0  0  0  0  0
   -7.4981    4.0972  -19.0871 N   0  0  0  0  0  0  0  0  0  0  0  0
   -7.7557    4.2799  -17.7859 C   0  0  0  0  0  0  0  0  0  0  0  0
   -8.8379    3.8879  -16.9758 C   0  0  0  0  0  0  0  0  0  0  0  0
   -9.8923    3.2104  -17.4381 F   0  0  0  0  0  0  0  0  0  0  0  0
   -8.7527    4.2624  -15.6215 C   0  0  0  0  0  0  0  0  0  0  0  0
   -7.6583    5.0125  -15.1079 C   0  0  0  0  0  0  0  0  0  0  0  0
   -6.5658    5.4328  -15.8874 C   0  0  0  0  0  0  0  0  0  0  0  0
   -6.6629    5.0150  -17.2073 C   0  0  0  0  0  0  0  0  0  0  0  0
   -6.0101    4.9290  -20.2211 H   0  0  0  0  0  0  0  0  0  0  0  0
   -4.2738    5.7463  -18.1354 C   0  0  0  0  0  0  0  0  0  0  0  0
   -4.3574    7.2799  -18.2927 C   0  0  0  0  0  0  0  0  0  0  0  0
   -3.0142    7.9507  -18.5621 C   0  0  0  0  0  0  0  0  0  0  0  0
   -2.2979    7.3643  -19.6970 N   0  0  0  0  0  0  0  0  0  0  0  0
   -2.1253    5.9209  -19.5448 C   0  0  0  0  0  0  0  0  0  0  0  0
   -3.4631    5.2126  -19.3586 C   0  0  0  0  0  0  0  0  0  0  0  0
   -1.3787    7.8007  -19.7681 H   0  0  0  0  0  0  0  0  0  0  0  0
   -3.6911    5.1673  -16.9211 N   0  0  0  0  0  0  0  0  0  0  0  0
   -4.4611    4.6486  -16.4988 H   0  0  0  0  0  0  0  0  0  0  0  0
   -3.0398    5.8170  -15.7927 C   0  0  0  0  0  0  0  0  0  0  0  0
   -1.5330    5.9988  -16.0368 C   0  0  0  0  0  0  0  0  0  0  0  0
   -3.1727    4.8206  -14.6144 C   0  0  0  0  0  0  0  0  0  0  0  0
   -3.6651    7.0580  -15.5051 O   0  0  0  0  0  0  0  0  0  0  0  0
   -4.5396    8.7707  -14.1143 C   0  0  0  0  0  0  0  0  0  0  0  0
   -3.7987    7.4468  -14.1446 C   0  0  0  0  0  0  0  0  0  0  0  0
   -7.6301    5.4559  -13.6920 C   0  0  0  0  0  0  0  0  0  0  0  0
   -7.1122    6.4706  -13.4392 O   0  0  0  0  0  0  0  0  0  0  0  0
   -8.2644    4.3986  -12.7648 N   0  0  0  0  0  0  0  0  0  0  0  0
   -8.7101    3.6553  -13.2318 H   0  0  0  0  0  0  0  0  0  0  0  0
   -8.3092    4.3243  -11.3752 C   0  0  0  0  0  0  0  0  0  0  0  0
   -8.0598    5.4569  -10.5805 C   0  0  0  0  0  0  0  0  0  0  0  0
   -8.1446    5.3889   -9.1866 C   0  0  0  0  0  0  0  0  0  0  0  0
   -8.5099    4.1850   -8.6171 C   0  0  0  0  0  0  0  0  0  0  0  0
   -8.7410    3.0587   -9.4025 C   0  0  0  0  0  0  0  0  0  0  0  0
   -8.6255    3.1015  -10.7809 C   0  0  0  0  0  0  0  0  0  0  0  0
   -9.1060    1.9164   -8.5152 C   0  0  0  0  0  0  0  0  0  0  0  0
   -9.4689    2.5437   -7.2168 N   0  0  0  0  0  0  0  0  0  0  0  0
   -8.7414    3.8312   -7.1862 C   0  0  0  0  0  0  0  0  0  0  0  0
   -9.1775    1.9504   -6.4399 H   0  0  0  0  0  0  0  0  0  0  0  0
 25 26  1  0  0  0
 26 24  1  0  0  0
 24 21  1  0  0  0
 21 22  1  0  0  0
 21 23  1  0  0  0
 21 19  1  0  0  0
 19 12  1  0  0  0
 12  1  1  0  0  0
  1  2  1  0  0  0
  2  3  1  0  0  0
  3  4  2  0  0  0
  4  5  1  0  0  0
  5  6  1  0  0  0
  5  7  2  0  0  0
  7  8  1  0  0  0
  8 27  1  0  0  0
 27 28  2  0  0  0
 27 29  1  0  0  0
 29 31  1  0  0  0
 31 32  2  0  0  0
 32 33  1  0  0  0
 33 34  2  0  0  0
 34 35  1  0  0  0
 35 36  2  0  0  0
 35 37  1  0  0  0
 37 38  1  0  0  0
 38 39  1  0  0  0
  8  9  2  0  0  0
  9 10  1  0  0  0
 12 13  1  0  0  0
 13 14  1  0  0  0
 14 15  1  0  0  0
 15 16  1  0  0  0
 16 17  1  0  0  0
 17 12  1  0  0  0
 10  1  2  0  0  0
 10  4  1  0  0  0
 36 31  1  0  0  0
 39 34  1  0  0  0
 19 20  1  0  0  0
  2 11  1  0  0  0
 29 30  1  0  0  0
 38 40  1  0  0  0
 15 18  1  0  0  0
M  END
> <minimizedAffinity>
-8.41724

> <minimizedRMSD>
0.64718

$$$$
P26498


 34 38  0  0  0  0  0  0  0  0999 V2000
   -7.4064    4.7862  -14.7659 C   0  0  0  0  0  0  0  0  0  0  0  0
   -8.6303    4.2652  -15.2837 C   0  0  0  0  0  0  0  0  0  0  0  0
   -8.8375    4.0674  -16.6605 C   0  0  0  0  0  0  0  0  0  0  0  0
   -9.9940    3.5844  -17.1235 F   0  0  0  0  0  0  0  0  0  0  0  0
   -7.7685    4.4435  -17.4946 C   0  0  0  0  0  0  0  0  0  0  0  0
   -7.6187    4.4028  -18.8242 N   0  0  0  0  0  0  0  0  0  0  0  0
   -6.4521    5.0182  -19.0704 N   0  0  0  0  0  0  0  0  0  0  0  0
   -5.6886    5.2444  -17.9497 C   0  0  0  0  0  0  0  0  0  0  0  0
   -6.5548    4.9627  -16.9185 C   0  0  0  0  0  0  0  0  0  0  0  0
   -6.2935    5.1422  -15.5651 C   0  0  0  0  0  0  0  0  0  0  0  0
   -6.1678    5.2845  -19.9746 H   0  0  0  0  0  0  0  0  0  0  0  0
   -4.2516    5.6757  -17.9501 C   0  0  0  0  0  0  0  0  0  0  0  0
   -4.1099    7.1959  -18.0792 C   0  0  0  0  0  0  0  0  0  0  0  0
   -2.6379    7.5968  -18.0069 C   0  0  0  0  0  0  0  0  0  0  0  0
   -1.8448    6.9265  -19.0368 N   0  0  0  0  0  0  0  0  0  0  0  0
   -1.9356    5.4701  -18.9227 C   0  0  0  0  0  0  0  0  0  0  0  0
   -3.3837    4.9833  -19.0103 C   0  0  0  0  0  0  0  0  0  0  0  0
   -0.8689    7.2062  -18.9376 H   0  0  0  0  0  0  0  0  0  0  0  0
   -8.1863    4.1741  -12.4590 N   0  0  0  0  0  0  0  0  0  0  0  0
   -7.2773    5.0836  -13.3155 C   0  0  0  0  0  0  0  0  0  0  0  0
   -6.4893    5.8836  -12.9950 O   0  0  0  0  0  0  0  0  0  0  0  0
   -8.7165    3.5215  -12.9712 H   0  0  0  0  0  0  0  0  0  0  0  0
   -8.7749    3.6001   -6.8662 C   0  0  0  0  0  0  0  0  0  0  0  0
   -9.5126    2.3065   -6.9169 N   0  0  0  0  0  0  0  0  0  0  0  0
   -9.1843    1.7133   -8.2330 C   0  0  0  0  0  0  0  0  0  0  0  0
   -8.8731    2.8823   -9.1065 C   0  0  0  0  0  0  0  0  0  0  0  0
   -8.7401    2.9189  -10.4871 C   0  0  0  0  0  0  0  0  0  0  0  0
   -8.3778    4.1270  -11.0809 C   0  0  0  0  0  0  0  0  0  0  0  0
   -8.1641    5.2633  -10.2872 C   0  0  0  0  0  0  0  0  0  0  0  0
   -8.2868    5.2053   -8.8942 C   0  0  0  0  0  0  0  0  0  0  0  0
   -8.6499    4.0078   -8.3078 C   0  0  0  0  0  0  0  0  0  0  0  0
  -10.5170    2.4659   -6.8386 H   0  0  0  0  0  0  0  0  0  0  0  0
   -8.5446    5.5009   -5.1511 C   0  0  0  0  0  0  0  0  0  0  0  0
   -9.4746    4.5422   -5.8800 C   0  0  0  0  0  0  0  0  0  0  0  0
 33 34  1  0  0  0
 23 34  1  0  0  0
 23 24  1  0  0  0
 24 25  1  0  0  0
 25 26  1  0  0  0
 26 27  2  0  0  0
 27 28  1  0  0  0
 28 19  1  0  0  0
 19 20  1  0  0  0
 20 21  2  0  0  0
 20  1  1  0  0  0
  1  2  1  0  0  0
  2  3  2  0  0  0
  3  4  1  0  0  0
  3  5  1  0  0  0
  5  6  2  0  0  0
  6  7  1  0  0  0
  7  8  1  0  0  0
  8 12  1  0  0  0
 12 13  1  0  0  0
 13 14  1  0  0  0
 14 15  1  0  0  0
 15 16  1  0  0  0
 16 17  1  0  0  0
  8  9  2  0  0  0
  9 10  1  0  0  0
 28 29  2  0  0  0
 29 30  1  0  0  0
 30 31  2  0  0  0
 31 23  1  0  0  0
 31 26  1  0  0  0
 10  1  2  0  0  0
  9  5  1  0  0  0
 17 12  1  0  0  0
 24 32  1  0  0  0
 19 22  1  0  0  0
  7 11  1  0  0  0
 15 18  1  0  0  0
M  END
> <minimizedAffinity>
-9.42058

> <minimizedRMSD>
0.47344

$$$$
P26501


 35 39  0  0  0  0  0  0  0  0999 V2000
   -5.4604    5.4090  -18.3473 N   0  0  0  0  0  0  0  0  0  0  0  0
   -6.5989    4.6975  -18.4897 N   0  0  0  0  0  0  0  0  0  0  0  0
   -7.1600    4.6588  -17.2776 C   0  0  0  0  0  0  0  0  0  0  0  0
   -8.4105    4.2030  -16.8251 C   0  0  0  0  0  0  0  0  0  0  0  0
   -9.4877    3.5581  -17.9513 Cl  0  0  0  0  0  0  0  0  0  0  0  0
   -8.7014    4.4102  -15.4702 C   0  0  0  0  0  0  0  0  0  0  0  0
   -7.7517    5.0149  -14.5927 C   0  0  0  0  0  0  0  0  0  0  0  0
   -6.4495    5.4179  -14.9808 C   0  0  0  0  0  0  0  0  0  0  0  0
   -6.2303    5.2269  -16.3417 C   0  0  0  0  0  0  0  0  0  0  0  0
   -5.0826    5.5670  -17.0294 C   0  0  0  0  0  0  0  0  0  0  0  0
   -3.7555    6.0519  -16.5064 C   0  0  0  0  0  0  0  0  0  0  0  0
   -3.6614    7.5818  -16.5347 C   0  0  0  0  0  0  0  0  0  0  0  0
   -2.3136    8.0584  -16.0058 C   0  0  0  0  0  0  0  0  0  0  0  0
   -1.2010    7.4341  -16.7208 N   0  0  0  0  0  0  0  0  0  0  0  0
   -1.2278    5.9812  -16.5441 C   0  0  0  0  0  0  0  0  0  0  0  0
   -2.5120    5.3760  -17.1051 C   0  0  0  0  0  0  0  0  0  0  0  0
   -0.3210    7.8001  -16.3574 H   0  0  0  0  0  0  0  0  0  0  0  0
   -8.1623    5.3942  -13.2158 C   0  0  0  0  0  0  0  0  0  0  0  0
   -8.5148    6.4927  -13.0381 O   0  0  0  0  0  0  0  0  0  0  0  0
   -8.0496    4.2084  -12.2345 N   0  0  0  0  0  0  0  0  0  0  0  0
   -7.7949    3.3528  -12.6495 H   0  0  0  0  0  0  0  0  0  0  0  0
   -8.2494    4.1517  -10.8588 C   0  0  0  0  0  0  0  0  0  0  0  0
   -7.9778    5.2667  -10.0487 C   0  0  0  0  0  0  0  0  0  0  0  0
   -8.1557    5.2069   -8.6642 C   0  0  0  0  0  0  0  0  0  0  0  0
   -8.6100    4.0228   -8.1161 C   0  0  0  0  0  0  0  0  0  0  0  0
   -8.8835    2.9208   -8.9181 C   0  0  0  0  0  0  0  0  0  0  0  0
   -8.7137    2.9643  -10.2923 C   0  0  0  0  0  0  0  0  0  0  0  0
   -9.3025    1.7792   -8.0578 C   0  0  0  0  0  0  0  0  0  0  0  0
   -9.5201    2.3481   -6.7042 N   0  0  0  0  0  0  0  0  0  0  0  0
   -8.8695    3.6738   -6.6902 C   0  0  0  0  0  0  0  0  0  0  0  0
   -9.1011    1.7436   -5.9975 H   0  0  0  0  0  0  0  0  0  0  0  0
   -4.7926    5.8102  -19.5885 C   0  0  0  0  0  0  0  0  0  0  0  0
   -5.4009    8.0895  -19.9794 C   0  0  0  0  0  0  0  0  0  0  0  0
   -5.6285    6.7087  -20.3883 N   0  0  0  0  0  0  0  0  0  0  0  0
   -5.3906    6.6041  -21.3747 H   0  0  0  0  0  0  0  0  0  0  0  0
 33 34  1  0  0  0
 34 32  1  0  0  0
 32  1  1  0  0  0
  1  2  1  0  0  0
  2  3  2  0  0  0
  3  4  1  0  0  0
  4  5  1  0  0  0
  4  6  2  0  0  0
  6  7  1  0  0  0
  7 18  1  0  0  0
 18 19  2  0  0  0
 18 20  1  0  0  0
 20 22  1  0  0  0
 22 23  2  0  0  0
 23 24  1  0  0  0
 24 25  2  0  0  0
 25 26  1  0  0  0
 26 27  2  0  0  0
 26 28  1  0  0  0
 28 29  1  0  0  0
 29 30  1  0  0  0
  7  8  2  0  0  0
  8  9  1  0  0  0
  9 10  2  0  0  0
 10 11  1  0  0  0
 11 12  1  0  0  0
 12 13  1  0  0  0
 13 14  1  0  0  0
 14 15  1  0  0  0
 15 16  1  0  0  0
 10  1  1  0  0  0
 16 11  1  0  0  0
  9  3  1  0  0  0
 27 22  1  0  0  0
 30 25  1  0  0  0
 34 35  1  0  0  0
 20 21  1  0  0  0
 29 31  1  0  0  0
 14 17  1  0  0  0
M  END
> <minimizedAffinity>
-9.02329

> <minimizedRMSD>
0.74718

$$$$
P26502


 40 45  0  0  0  0  0  0  0  0999 V2000
   -5.3441    5.2423  -18.2800 N   0  0  0  0  0  0  0  0  0  0  0  0
   -6.5045    4.6068  -18.5002 N   0  0  0  0  0  0  0  0  0  0  0  0
   -7.1647    4.6602  -17.3411 C   0  0  0  0  0  0  0  0  0  0  0  0
   -8.4936    4.3431  -17.0096 C   0  0  0  0  0  0  0  0  0  0  0  0
   -9.5185    3.8148  -18.2458 Cl  0  0  0  0  0  0  0  0  0  0  0  0
   -8.8928    4.5981  -15.6912 C   0  0  0  0  0  0  0  0  0  0  0  0
   -7.9730    5.0926  -14.7162 C   0  0  0  0  0  0  0  0  0  0  0  0
   -6.6075    5.3729  -14.9936 C   0  0  0  0  0  0  0  0  0  0  0  0
   -6.2664    5.1682  -16.3290 C   0  0  0  0  0  0  0  0  0  0  0  0
   -5.0742    5.4945  -16.9475 C   0  0  0  0  0  0  0  0  0  0  0  0
   -3.7550    6.0988  -16.5359 C   0  0  0  0  0  0  0  0  0  0  0  0
   -3.7911    7.5452  -16.0584 C   0  0  0  0  0  0  0  0  0  0  0  0
   -2.3629    8.0875  -15.9091 C   0  0  0  0  0  0  0  0  0  0  0  0
   -1.3623    7.0822  -15.5302 N   0  0  0  0  0  0  0  0  0  0  0  0
   -1.9608    6.0273  -14.7169 C   0  0  0  0  0  0  0  0  0  0  0  0
   -3.0068    5.2319  -15.5026 C   0  0  0  0  0  0  0  0  0  0  0  0
   -0.6206    7.5348  -14.9959 H   0  0  0  0  0  0  0  0  0  0  0  0
   -8.4451    5.5209  -13.3626 C   0  0  0  0  0  0  0  0  0  0  0  0
   -9.1035    6.4807  -13.3162 O   0  0  0  0  0  0  0  0  0  0  0  0
   -8.0092    4.5571  -12.2479 N   0  0  0  0  0  0  0  0  0  0  0  0
   -7.3822    3.8538  -12.5334 H   0  0  0  0  0  0  0  0  0  0  0  0
   -8.3743    4.5139  -10.8305 C   0  0  0  0  0  0  0  0  0  0  0  0
   -8.5684    3.0314  -10.4251 C   0  0  0  0  0  0  0  0  0  0  0  0
   -8.8162    2.8780   -8.9721 C   0  0  0  0  0  0  0  0  0  0  0  0
   -8.6257    3.8281   -8.0610 C   0  0  0  0  0  0  0  0  0  0  0  0
   -8.9553    3.3263   -6.7056 C   0  0  0  0  0  0  0  0  0  0  0  0
   -9.5148    1.9805   -6.9136 N   0  0  0  0  0  0  0  0  0  0  0  0
   -9.2616    1.6221   -8.3285 C   0  0  0  0  0  0  0  0  0  0  0  0
   -8.1129    5.1846   -8.3605 C   0  0  0  0  0  0  0  0  0  0  0  0
   -7.5238    5.3030   -9.7999 C   0  0  0  0  0  0  0  0  0  0  0  0
   -6.0402    4.9166   -9.8062 C   0  0  0  0  0  0  0  0  0  0  0  0
   -5.2948    6.1447   -9.2858 C   0  0  0  0  0  0  0  0  0  0  0  0
   -6.0641    7.3523   -9.8086 C   0  0  0  0  0  0  0  0  0  0  0  0
   -7.4503    6.7999  -10.0522 C   0  0  0  0  0  0  0  0  0  0  0  0
   -8.4129    7.5034  -10.3425 O   0  0  0  0  0  0  0  0  0  0  0  0
  -10.5177    1.9851   -6.7271 H   0  0  0  0  0  0  0  0  0  0  0  0
   -4.5440    5.6124  -19.4474 C   0  0  0  0  0  0  0  0  0  0  0  0
   -5.3979    7.7599  -20.0466 C   0  0  0  0  0  0  0  0  0  0  0  0
   -5.3881    6.3467  -20.4013 N   0  0  0  0  0  0  0  0  0  0  0  0
   -5.0143    6.2345  -21.3437 H   0  0  0  0  0  0  0  0  0  0  0  0
 38 39  1  0  0  0
 39 37  1  0  0  0
 37  1  1  0  0  0
  1  2  1  0  0  0
  2  3  2  0  0  0
  3  4  1  0  0  0
  4  5  1  0  0  0
  4  6  2  0  0  0
  6  7  1  0  0  0
  7 18  1  0  0  0
 18 19  2  0  0  0
 18 20  1  0  0  0
 22 20  1  0  0  0
 22 23  1  0  0  0
 23 24  1  0  0  0
 24 25  2  0  0  0
 25 26  1  0  0  0
 26 27  1  0  0  0
 27 28  1  0  0  0
 25 29  1  0  0  0
 30 29  1  0  0  0
 30 31  1  0  0  0
 31 32  1  0  0  0
 32 33  1  0  0  0
 33 34  1  0  0  0
 34 35  2  0  0  0
  7  8  2  0  0  0
  8  9  1  0  0  0
  9 10  2  0  0  0
 10 11  1  0  0  0
 11 12  1  0  0  0
 12 13  1  0  0  0
 13 14  1  0  0  0
 14 15  1  0  0  0
 15 16  1  0  0  0
 10  1  1  0  0  0
 16 11  1  0  0  0
  9  3  1  0  0  0
 30 22  1  0  0  0
 28 24  1  0  0  0
 34 30  1  0  0  0
 39 40  1  0  0  0
 20 21  1  0  0  0
 27 36  1  0  0  0
 14 17  1  0  0  0
M  END
> <minimizedAffinity>
-9.25415

> <minimizedRMSD>
1.12105

$$$$
P26504


 38 42  0  0  0  0  0  0  0  0999 V2000
   -5.3663    5.2986  -18.3841 N   0  0  0  0  0  0  0  0  0  0  0  0
   -6.5500    4.7423  -18.6883 N   0  0  0  0  0  0  0  0  0  0  0  0
   -7.2193    4.6732  -17.5357 C   0  0  0  0  0  0  0  0  0  0  0  0
   -8.5482    4.3160  -17.2368 C   0  0  0  0  0  0  0  0  0  0  0  0
   -9.6016    3.9294  -18.5009 Cl  0  0  0  0  0  0  0  0  0  0  0  0
   -8.9396    4.4512  -15.9028 C   0  0  0  0  0  0  0  0  0  0  0  0
   -8.0163    4.9019  -14.9180 C   0  0  0  0  0  0  0  0  0  0  0  0
   -6.6540    5.2042  -15.1389 C   0  0  0  0  0  0  0  0  0  0  0  0
   -6.3238    5.0943  -16.4765 C   0  0  0  0  0  0  0  0  0  0  0  0
   -5.1214    5.4514  -17.0406 C   0  0  0  0  0  0  0  0  0  0  0  0
   -3.7917    5.9691  -16.5731 C   0  0  0  0  0  0  0  0  0  0  0  0
   -3.7248    7.4283  -16.1455 C   0  0  0  0  0  0  0  0  0  0  0  0
   -2.2593    7.8466  -15.9517 C   0  0  0  0  0  0  0  0  0  0  0  0
   -1.3445    6.7183  -15.7466 N   0  0  0  0  0  0  0  0  0  0  0  0
   -1.9224    5.7081  -14.8673 C   0  0  0  0  0  0  0  0  0  0  0  0
   -3.2014    5.1006  -15.4534 C   0  0  0  0  0  0  0  0  0  0  0  0
   -0.4807    7.0648  -15.3291 H   0  0  0  0  0  0  0  0  0  0  0  0
   -8.4931    5.2365  -13.5695 C   0  0  0  0  0  0  0  0  0  0  0  0
   -9.0757    6.2365  -13.4278 O   0  0  0  0  0  0  0  0  0  0  0  0
   -8.0264    4.1996  -12.5353 N   0  0  0  0  0  0  0  0  0  0  0  0
   -7.4795    3.4682  -12.9031 H   0  0  0  0  0  0  0  0  0  0  0  0
   -8.2493    4.1267  -11.1732 C   0  0  0  0  0  0  0  0  0  0  0  0
   -8.0193    5.2679  -10.3859 C   0  0  0  0  0  0  0  0  0  0  0  0
   -8.1658    5.2200   -9.0104 C   0  0  0  0  0  0  0  0  0  0  0  0
   -8.5543    4.0197   -8.4583 C   0  0  0  0  0  0  0  0  0  0  0  0
   -8.8100    2.8909   -9.2309 C   0  0  0  0  0  0  0  0  0  0  0  0
   -8.6571    2.9212  -10.6029 C   0  0  0  0  0  0  0  0  0  0  0  0
   -9.2653    1.7760   -8.3470 C   0  0  0  0  0  0  0  0  0  0  0  0
   -9.1981    2.3186   -6.9686 N   0  0  0  0  0  0  0  0  0  0  0  0
   -8.8386    3.7381   -7.0307 C   0  0  0  0  0  0  0  0  0  0  0  0
  -10.4018    2.0337   -6.1878 C   0  0  0  0  0  0  0  0  0  0  0  0
  -10.8666    3.1178   -5.2097 C   0  0  0  0  0  0  0  0  0  0  0  0
  -10.0334    3.3054   -4.1602 F   0  0  0  0  0  0  0  0  0  0  0  0
  -10.9228    4.3207   -5.8408 F   0  0  0  0  0  0  0  0  0  0  0  0
   -4.4648    5.6269  -19.4795 C   0  0  0  0  0  0  0  0  0  0  0  0
   -5.3670    7.7996  -20.1333 C   0  0  0  0  0  0  0  0  0  0  0  0
   -5.1493    6.4172  -20.4947 N   0  0  0  0  0  0  0  0  0  0  0  0
   -4.5889    6.3953  -21.3467 H   0  0  0  0  0  0  0  0  0  0  0  0
 36 37  1  0  0  0
 37 35  1  0  0  0
 35  1  1  0  0  0
  1  2  1  0  0  0
  2  3  2  0  0  0
  3  4  1  0  0  0
  4  5  1  0  0  0
  4  6  2  0  0  0
  6  7  1  0  0  0
  7 18  1  0  0  0
 18 19  2  0  0  0
 18 20  1  0  0  0
 20 22  1  0  0  0
 22 23  2  0  0  0
 23 24  1  0  0  0
 24 25  2  0  0  0
 25 26  1  0  0  0
 26 27  2  0  0  0
 26 28  1  0  0  0
 28 29  1  0  0  0
 29 31  1  0  0  0
 31 32  1  0  0  0
 32 33  1  0  0  0
 32 34  1  0  0  0
 29 30  1  0  0  0
  7  8  2  0  0  0
  8  9  1  0  0  0
  9 10  2  0  0  0
 10 11  1  0  0  0
 11 12  1  0  0  0
 12 13  1  0  0  0
 13 14  1  0  0  0
 14 15  1  0  0  0
 15 16  1  0  0  0
 10  1  1  0  0  0
 16 11  1  0  0  0
  9  3  1  0  0  0
 27 22  1  0  0  0
 30 25  1  0  0  0
 37 38  1  0  0  0
 20 21  1  0  0  0
 14 17  1  0  0  0
M  END
> <minimizedAffinity>
-8.97452

> <minimizedRMSD>
0.95720

$$$$
P26505


 35 39  0  0  0  0  0  0  0  0999 V2000
   -5.2640    5.5239  -18.6551 N   0  0  0  0  0  0  0  0  0  0  0  0
   -6.3254    4.7728  -19.0191 N   0  0  0  0  0  0  0  0  0  0  0  0
   -7.0636    4.6454  -17.9070 C   0  0  0  0  0  0  0  0  0  0  0  0
   -8.4018    4.2239  -17.7055 C   0  0  0  0  0  0  0  0  0  0  0  0
   -9.2214    3.8528  -18.6985 F   0  0  0  0  0  0  0  0  0  0  0  0
   -8.8879    4.3197  -16.3869 C   0  0  0  0  0  0  0  0  0  0  0  0
   -8.0642    4.7633  -15.3117 C   0  0  0  0  0  0  0  0  0  0  0  0
   -6.6990    5.1278  -15.4573 C   0  0  0  0  0  0  0  0  0  0  0  0
   -6.2580    5.0825  -16.7795 C   0  0  0  0  0  0  0  0  0  0  0  0
   -5.0677    5.5828  -17.2769 C   0  0  0  0  0  0  0  0  0  0  0  0
   -3.8131    6.2561  -16.7549 C   0  0  0  0  0  0  0  0  0  0  0  0
   -3.9636    7.6000  -16.0415 C   0  0  0  0  0  0  0  0  0  0  0  0
   -4.0668    7.4906  -14.5268 C   0  0  0  0  0  0  0  0  0  0  0  0
   -2.9904    6.6716  -13.9780 N   0  0  0  0  0  0  0  0  0  0  0  0
   -3.1035    5.3133  -14.4972 C   0  0  0  0  0  0  0  0  0  0  0  0
   -2.8975    5.2781  -15.9932 C   0  0  0  0  0  0  0  0  0  0  0  0
   -3.0608    6.6542  -12.9605 H   0  0  0  0  0  0  0  0  0  0  0  0
   -8.6587    5.0484  -13.9726 C   0  0  0  0  0  0  0  0  0  0  0  0
   -9.5481    5.8053  -13.9369 O   0  0  0  0  0  0  0  0  0  0  0  0
   -7.9224    4.3133  -12.8300 N   0  0  0  0  0  0  0  0  0  0  0  0
   -7.1465    3.7793  -13.1162 H   0  0  0  0  0  0  0  0  0  0  0  0
   -8.1783    4.2833  -11.4590 C   0  0  0  0  0  0  0  0  0  0  0  0
   -8.0054    5.4344  -10.6710 C   0  0  0  0  0  0  0  0  0  0  0  0
   -8.1916    5.3948   -9.2853 C   0  0  0  0  0  0  0  0  0  0  0  0
   -8.5624    4.1949   -8.7100 C   0  0  0  0  0  0  0  0  0  0  0  0
   -8.7573    3.0602   -9.4878 C   0  0  0  0  0  0  0  0  0  0  0  0
   -8.5699    3.0826  -10.8630 C   0  0  0  0  0  0  0  0  0  0  0  0
   -9.1220    1.9155   -8.6050 C   0  0  0  0  0  0  0  0  0  0  0  0
   -9.3364    2.4889   -7.2511 N   0  0  0  0  0  0  0  0  0  0  0  0
   -8.7909    3.8608   -7.2754 C   0  0  0  0  0  0  0  0  0  0  0  0
   -8.8481    1.9295   -6.5518 H   0  0  0  0  0  0  0  0  0  0  0  0
   -4.6732    6.4735  -19.6159 C   0  0  0  0  0  0  0  0  0  0  0  0
   -2.5004    6.7527  -20.5878 C   0  0  0  0  0  0  0  0  0  0  0  0
   -3.6208    5.8341  -20.4142 N   0  0  0  0  0  0  0  0  0  0  0  0
   -3.2975    4.9932  -19.9359 H   0  0  0  0  0  0  0  0  0  0  0  0
 33 34  1  0  0  0
 34 32  1  0  0  0
 32  1  1  0  0  0
  1  2  1  0  0  0
  2  3  2  0  0  0
  3  4  1  0  0  0
  4  5  1  0  0  0
  4  6  2  0  0  0
  6  7  1  0  0  0
  7 18  1  0  0  0
 18 19  2  0  0  0
 18 20  1  0  0  0
 20 22  1  0  0  0
 22 23  2  0  0  0
 23 24  1  0  0  0
 24 25  2  0  0  0
 25 26  1  0  0  0
 26 27  2  0  0  0
 26 28  1  0  0  0
 28 29  1  0  0  0
 29 30  1  0  0  0
  7  8  2  0  0  0
  8  9  1  0  0  0
  9 10  2  0  0  0
 10 11  1  0  0  0
 11 12  1  0  0  0
 12 13  1  0  0  0
 13 14  1  0  0  0
 14 15  1  0  0  0
 15 16  1  0  0  0
 10  1  1  0  0  0
 16 11  1  0  0  0
  9  3  1  0  0  0
 27 22  1  0  0  0
 30 25  1  0  0  0
 34 35  1  0  0  0
 20 21  1  0  0  0
 29 31  1  0  0  0
 14 17  1  0  0  0
M  END
> <minimizedAffinity>
-9.55843

> <minimizedRMSD>
1.35716

$$$$
P26545


 37 42  0  0  0  0  0  0  0  0999 V2000
   -7.7064    4.3810  -12.7824 N   0  0  0  0  0  0  0  0  0  0  0  0
   -7.2236    5.5107  -13.7054 C   0  0  0  0  0  0  0  0  0  0  0  0
   -6.9788    6.6249  -13.4706 O   0  0  0  0  0  0  0  0  0  0  0  0
   -7.7692    3.4970  -13.2112 H   0  0  0  0  0  0  0  0  0  0  0  0
   -8.5866    7.3986   -8.0366 C   0  0  0  0  0  0  0  0  0  0  0  0
   -8.6007    6.3483   -9.1554 C   0  0  0  0  0  0  0  0  0  0  0  0
   -7.4530    5.3109   -9.0954 C   0  0  0  0  0  0  0  0  0  0  0  0
   -6.2787    5.9348   -8.2811 C   0  0  0  0  0  0  0  0  0  0  0  0
   -6.1743    7.4483   -8.4721 C   0  0  0  0  0  0  0  0  0  0  0  0
   -7.3644    8.1955   -8.0582 N   0  0  0  0  0  0  0  0  0  0  0  0
   -6.9766    5.0326  -10.5395 C   0  0  0  0  0  0  0  0  0  0  0  0
   -8.0834    4.4047  -11.3861 C   0  0  0  0  0  0  0  0  0  0  0  0
   -8.4988    3.0264  -10.8853 C   0  0  0  0  0  0  0  0  0  0  0  0
   -8.2802    2.7780   -9.3944 C   0  0  0  0  0  0  0  0  0  0  0  0
   -9.4852    2.1721   -8.6796 C   0  0  0  0  0  0  0  0  0  0  0  0
   -9.2668    2.4866   -7.2632 N   0  0  0  0  0  0  0  0  0  0  0  0
   -8.7714    3.8706   -7.2824 C   0  0  0  0  0  0  0  0  0  0  0  0
   -7.8170    3.9301   -8.4775 C   0  0  0  0  0  0  0  0  0  0  0  0
   -7.4983    8.9709   -8.7072 H   0  0  0  0  0  0  0  0  0  0  0  0
   -8.5746    1.8588   -6.8543 H   0  0  0  0  0  0  0  0  0  0  0  0
   -9.8527    7.1973   -6.0504 C   0  0  0  0  0  0  0  0  0  0  0  0
   -8.7239    6.7489   -6.7811 O   0  0  0  0  0  0  0  0  0  0  0  0
   -7.1681    5.0810  -15.1157 C   0  0  0  0  0  0  0  0  0  0  0  0
   -8.3144    4.5766  -15.7314 C   0  0  0  0  0  0  0  0  0  0  0  0
   -8.3049    4.3641  -17.0992 C   0  0  0  0  0  0  0  0  0  0  0  0
   -9.7198    3.7774  -17.8443 Cl  0  0  0  0  0  0  0  0  0  0  0  0
   -7.1977    4.6658  -17.8968 C   0  0  0  0  0  0  0  0  0  0  0  0
   -6.0414    5.1444  -17.2629 C   0  0  0  0  0  0  0  0  0  0  0  0
   -6.0110    5.3349  -15.8777 C   0  0  0  0  0  0  0  0  0  0  0  0
   -4.7074    5.7938  -15.6073 C   0  0  0  0  0  0  0  0  0  0  0  0
   -3.9582    5.8886  -16.7039 N   0  0  0  0  0  0  0  0  0  0  0  0
   -4.8009    5.5680  -17.7122 N   0  0  0  0  0  0  0  0  0  0  0  0
   -4.3897    5.9376  -19.0829 C   0  0  0  0  0  0  0  0  0  0  0  0
   -4.7847    5.0408  -20.2500 C   0  0  0  0  0  0  0  0  0  0  0  0
   -5.1787    6.2507  -21.0043 N   0  0  0  0  0  0  0  0  0  0  0  0
   -5.3101    6.9752  -19.7238 C   0  0  0  0  0  0  0  0  0  0  0  0
   -6.0509    6.1557  -21.5245 H   0  0  0  0  0  0  0  0  0  0  0  0
 21 22  1  0  0  0
  5 22  1  0  0  0
  5  6  1  0  0  0
  7  6  1  0  0  0
  7  8  1  0  0  0
  8  9  1  0  0  0
  9 10  1  0  0  0
  7 11  1  0  0  0
 11 12  1  0  0  0
 12  1  1  0  0  0
  1  2  1  0  0  0
  2  3  2  0  0  0
  2 23  1  0  0  0
 23 24  2  0  0  0
 24 25  1  0  0  0
 25 26  1  0  0  0
 25 27  2  0  0  0
 27 28  1  0  0  0
 28 29  2  0  0  0
 29 30  1  0  0  0
 30 31  2  0  0  0
 31 32  1  0  0  0
 32 33  1  0  0  0
 33 34  1  0  0  0
 34 35  1  0  0  0
 35 36  1  0  0  0
 12 13  1  0  0  0
 14 13  1  0  0  0
 14 15  1  0  0  0
 15 16  1  0  0  0
 16 17  1  0  0  0
 18 17  1  0  0  0
 10  5  1  0  0  0
 29 23  1  0  0  0
 36 33  1  0  0  0
 18 14  1  0  0  0
 18  7  1  0  0  0
 32 28  1  0  0  0
 10 19  1  0  0  0
  1  4  1  0  0  0
 35 37  1  0  0  0
 16 20  1  0  0  0
M  END
> <minimizedAffinity>
-8.63703

> <minimizedRMSD>
0.24886

$$$$
P26581


 33 37  0  0  0  0  0  0  0  0999 V2000
   -4.2025    5.7243  -16.4724 N   0  0  0  0  0  0  0  0  0  0  0  0
   -4.9938    5.6730  -15.3387 C   0  0  0  0  0  0  0  0  0  0  0  0
   -6.2330    5.2446  -15.7156 C   0  0  0  0  0  0  0  0  0  0  0  0
   -7.3351    5.0488  -14.8933 C   0  0  0  0  0  0  0  0  0  0  0  0
   -8.4464    4.5578  -15.6011 C   0  0  0  0  0  0  0  0  0  0  0  0
   -8.4150    4.3402  -17.0150 C   0  0  0  0  0  0  0  0  0  0  0  0
   -9.8575    3.7795  -17.7532 Cl  0  0  0  0  0  0  0  0  0  0  0  0
   -7.3045    4.5819  -17.8580 C   0  0  0  0  0  0  0  0  0  0  0  0
   -6.2100    5.0244  -17.1188 C   0  0  0  0  0  0  0  0  0  0  0  0
   -4.9504    5.3512  -17.5821 C   0  0  0  0  0  0  0  0  0  0  0  0
   -4.5571    5.3299  -19.0903 C   0  0  0  0  0  0  0  0  0  0  0  0
   -4.3533    6.7075  -19.7404 C   0  0  0  0  0  0  0  0  0  0  0  0
   -3.3133    6.0937  -20.6115 N   0  0  0  0  0  0  0  0  0  0  0  0
   -3.1255    5.0470  -19.5629 C   0  0  0  0  0  0  0  0  0  0  0  0
   -2.4959    6.6818  -20.7738 H   0  0  0  0  0  0  0  0  0  0  0  0
   -7.4074    5.4683  -13.4945 C   0  0  0  0  0  0  0  0  0  0  0  0
   -7.2446    6.5928  -13.2447 O   0  0  0  0  0  0  0  0  0  0  0  0
   -7.7831    4.2931  -12.5862 N   0  0  0  0  0  0  0  0  0  0  0  0
   -7.7860    3.4142  -13.0297 H   0  0  0  0  0  0  0  0  0  0  0  0
   -8.1320    4.2646  -11.1924 C   0  0  0  0  0  0  0  0  0  0  0  0
   -7.0433    4.9047  -10.3205 C   0  0  0  0  0  0  0  0  0  0  0  0
   -7.1172    4.4676   -8.8535 C   0  0  0  0  0  0  0  0  0  0  0  0
   -8.5472    4.1469   -8.4355 C   0  0  0  0  0  0  0  0  0  0  0  0
   -8.6958    3.6082   -7.0152 C   0  0  0  0  0  0  0  0  0  0  0  0
   -9.6068    2.4640   -7.1228 N   0  0  0  0  0  0  0  0  0  0  0  0
   -9.2920    1.8610   -8.4290 C   0  0  0  0  0  0  0  0  0  0  0  0
   -9.1987    3.0767   -9.3217 C   0  0  0  0  0  0  0  0  0  0  0  0
   -8.5260    2.8838  -10.6774 C   0  0  0  0  0  0  0  0  0  0  0  0
  -10.5784    2.7732   -7.0937 H   0  0  0  0  0  0  0  0  0  0  0  0
   -2.7836    6.0752  -16.3778 C   0  0  0  0  0  0  0  0  0  0  0  0
   -2.3623    8.2524  -15.3814 C   0  0  0  0  0  0  0  0  0  0  0  0
   -2.6181    7.5122  -16.6195 N   0  0  0  0  0  0  0  0  0  0  0  0
   -1.5187    7.7273  -17.5610 C   0  0  0  0  0  0  0  0  0  0  0  0
 31 32  1  0  0  0
 32 33  1  0  0  0
 32 30  1  0  0  0
 30  1  1  0  0  0
  1  2  1  0  0  0
  2  3  2  0  0  0
  3  4  1  0  0  0
  4 16  1  0  0  0
 16 17  2  0  0  0
 16 18  1  0  0  0
 20 18  1  0  0  0
 20 21  1  0  0  0
 21 22  1  0  0  0
 23 22  1  0  0  0
 23 24  1  0  0  0
 24 25  1  0  0  0
 25 26  1  0  0  0
 27 26  1  0  0  0
 27 28  1  0  0  0
  4  5  2  0  0  0
  5  6  1  0  0  0
  6  7  1  0  0  0
  6  8  2  0  0  0
  8  9  1  0  0  0
  9 10  2  0  0  0
 10 11  1  0  0  0
 11 12  1  0  0  0
 12 13  1  0  0  0
 13 14  1  0  0  0
 10  1  1  0  0  0
 14 11  1  0  0  0
  9  3  1  0  0  0
 28 20  1  0  0  0
 27 23  1  0  0  0
 18 19  1  0  0  0
 25 29  1  0  0  0
 13 15  1  0  0  0
M  END
> <minimizedAffinity>
-7.72168

> <minimizedRMSD>
0.60324

$$$$
P26596


 25 27  0  0  0  0  0  0  0  0999 V2000
   -7.4375    5.2864  -13.4549 C   0  0  0  0  0  0  0  0  0  0  0  0
   -7.2427    6.4079  -13.2016 O   0  0  0  0  0  0  0  0  0  0  0  0
   -7.9112    4.1259  -12.5557 N   0  0  0  0  0  0  0  0  0  0  0  0
   -7.9256    3.2444  -12.9939 H   0  0  0  0  0  0  0  0  0  0  0  0
   -8.3375    4.1220  -11.1734 C   0  0  0  0  0  0  0  0  0  0  0  0
   -7.4997    4.9998  -10.2343 C   0  0  0  0  0  0  0  0  0  0  0  0
   -8.2293    5.2096   -8.8981 C   0  0  0  0  0  0  0  0  0  0  0  0
   -8.7738    3.9302   -8.3693 C   0  0  0  0  0  0  0  0  0  0  0  0
   -8.7919    3.4522   -7.1233 C   0  0  0  0  0  0  0  0  0  0  0  0
   -9.2538    2.1672   -7.0378 N   0  0  0  0  0  0  0  0  0  0  0  0
   -9.4464    1.8031   -8.2695 C   0  0  0  0  0  0  0  0  0  0  0  0
   -9.3448    2.8993   -9.2929 C   0  0  0  0  0  0  0  0  0  0  0  0
   -8.5315    2.7201  -10.5618 C   0  0  0  0  0  0  0  0  0  0  0  0
   -6.1893    5.0353  -17.0308 C   0  0  0  0  0  0  0  0  0  0  0  0
   -7.3502    4.5683  -17.6423 C   0  0  0  0  0  0  0  0  0  0  0  0
   -8.4613    4.2414  -16.8810 C   0  0  0  0  0  0  0  0  0  0  0  0
   -9.8632    3.7535  -17.6994 Cl  0  0  0  0  0  0  0  0  0  0  0  0
   -8.4635    4.3745  -15.5016 C   0  0  0  0  0  0  0  0  0  0  0  0
   -7.3194    4.8709  -14.8769 C   0  0  0  0  0  0  0  0  0  0  0  0
   -6.1933    5.2158  -15.6377 C   0  0  0  0  0  0  0  0  0  0  0  0
   -5.1409    5.4559  -17.8831 N   0  0  0  0  0  0  0  0  0  0  0  0
   -5.3331    5.7753  -18.7943 H   0  0  0  0  0  0  0  0  0  0  0  0
   -3.1582    6.6495  -17.7876 C   0  0  0  0  0  0  0  0  0  0  0  0
   -3.8278    5.4095  -17.4074 N   0  0  0  0  0  0  0  0  0  0  0  0
   -3.8321    5.3174  -16.3915 H   0  0  0  0  0  0  0  0  0  0  0  0
 23 24  1  0  0  0
 24 21  1  0  0  0
 21 14  1  0  0  0
 14 15  2  0  0  0
 15 16  1  0  0  0
 16 17  1  0  0  0
 16 18  2  0  0  0
 18 19  1  0  0  0
 19  1  1  0  0  0
  1  2  2  0  0  0
  1  3  1  0  0  0
  5  3  1  0  0  0
  5  6  1  0  0  0
  6  7  1  0  0  0
  7  8  1  0  0  0
  8  9  2  0  0  0
  9 10  1  0  0  0
 10 11  2  0  0  0
 11 12  1  0  0  0
 12 13  1  0  0  0
 19 20  2  0  0  0
 20 14  1  0  0  0
 13  5  1  0  0  0
 12  8  1  0  0  0
 24 25  1  0  0  0
 21 22  1  0  0  0
  3  4  1  0  0  0
M  END
> <minimizedAffinity>
-6.73713

> <minimizedRMSD>
0.49174

$$$$
P26672


 39 44  0  0  0  0  0  0  0  0999 V2000
   -7.2739    5.1258  -14.9453 C   0  0  0  0  0  0  0  0  0  0  0  0
   -8.5127    4.9253  -15.6299 C   0  0  0  0  0  0  0  0  0  0  0  0
   -8.6185    4.7272  -17.0505 C   0  0  0  0  0  0  0  0  0  0  0  0
  -10.1797    4.5299  -17.7743 Cl  0  0  0  0  0  0  0  0  0  0  0  0
   -7.5270    4.7473  -17.9326 C   0  0  0  0  0  0  0  0  0  0  0  0
   -6.3355    4.9066  -17.2421 C   0  0  0  0  0  0  0  0  0  0  0  0
   -5.0975    5.0150  -17.8064 C   0  0  0  0  0  0  0  0  0  0  0  0
   -4.2396    5.1502  -16.7593 N   0  0  0  0  0  0  0  0  0  0  0  0
   -4.8294    5.1173  -15.5562 N   0  0  0  0  0  0  0  0  0  0  0  0
   -6.1534    5.0548  -15.8076 C   0  0  0  0  0  0  0  0  0  0  0  0
   -3.2684    5.2627  -16.8753 H   0  0  0  0  0  0  0  0  0  0  0  0
   -4.6795    5.0443  -19.3084 C   0  0  0  0  0  0  0  0  0  0  0  0
   -3.2080    4.6499  -19.5785 C   0  0  0  0  0  0  0  0  0  0  0  0
   -2.8332    6.0829  -19.4146 N   0  0  0  0  0  0  0  0  0  0  0  0
   -4.2317    6.4343  -19.8227 C   0  0  0  0  0  0  0  0  0  0  0  0
   -1.8637    6.4876  -20.4513 C   0  0  0  0  0  0  0  0  0  0  0  0
   -0.4918    5.8423  -20.1749 C   0  0  0  0  0  0  0  0  0  0  0  0
    0.6497    6.6160  -20.8268 C   0  0  0  0  0  0  0  0  0  0  0  0
    0.1753    7.3531  -21.9475 O   0  0  0  0  0  0  0  0  0  0  0  0
   -0.7010    8.4150  -21.5659 C   0  0  0  0  0  0  0  0  0  0  0  0
   -1.6934    8.0090  -20.4762 C   0  0  0  0  0  0  0  0  0  0  0  0
   -6.6185    6.4963  -13.0903 N   0  0  0  0  0  0  0  0  0  0  0  0
   -7.1920    5.4838  -13.4517 C   0  0  0  0  0  0  0  0  0  0  0  0
   -6.3344    8.3693  -14.4213 O   0  0  0  0  0  0  0  0  0  0  0  0
   -5.9260    7.4100  -13.7896 C   0  0  0  0  0  0  0  0  0  0  0  0
   -4.6022    7.2132  -13.6478 O   0  0  0  0  0  0  0  0  0  0  0  0
   -4.2875    6.4761  -13.1624 H   0  0  0  0  0  0  0  0  0  0  0  0
   -7.9987    4.3976  -12.6102 N   0  0  0  0  0  0  0  0  0  0  0  0
   -8.3374    3.6376  -13.1364 H   0  0  0  0  0  0  0  0  0  0  0  0
   -8.3035    4.3471  -11.2501 C   0  0  0  0  0  0  0  0  0  0  0  0
   -8.0988    5.4994  -10.4572 C   0  0  0  0  0  0  0  0  0  0  0  0
   -8.2799    5.4979   -9.0724 C   0  0  0  0  0  0  0  0  0  0  0  0
   -8.6583    4.3164   -8.4751 C   0  0  0  0  0  0  0  0  0  0  0  0
   -8.8614    3.1677   -9.2314 C   0  0  0  0  0  0  0  0  0  0  0  0
   -8.6963    3.1670  -10.6152 C   0  0  0  0  0  0  0  0  0  0  0  0
   -9.1751    2.0388   -8.3045 C   0  0  0  0  0  0  0  0  0  0  0  0
   -9.4462    2.6602   -6.9820 N   0  0  0  0  0  0  0  0  0  0  0  0
   -8.8609    4.0130   -7.0304 C   0  0  0  0  0  0  0  0  0  0  0  0
   -9.0104    2.1136   -6.2393 H   0  0  0  0  0  0  0  0  0  0  0  0
 24 25  2  0  0  0
 25 26  1  0  0  0
 25 22  1  0  0  0
 22 23  2  0  0  0
 23 28  1  0  0  0
 28 30  1  0  0  0
 30 31  2  0  0  0
 31 32  1  0  0  0
 32 33  2  0  0  0
 33 34  1  0  0  0
 34 35  2  0  0  0
 34 36  1  0  0  0
 36 37  1  0  0  0
 37 38  1  0  0  0
 23  1  1  0  0  0
  1  2  2  0  0  0
  2  3  1  0  0  0
  3  4  1  0  0  0
  3  5  2  0  0  0
  5  6  1  0  0  0
  6  7  2  0  0  0
  7 12  1  0  0  0
 12 13  1  0  0  0
 13 14  1  0  0  0
 14 16  1  0  0  0
 16 17  1  0  0  0
 17 18  1  0  0  0
 18 19  1  0  0  0
 19 20  1  0  0  0
 20 21  1  0  0  0
 14 15  1  0  0  0
  7  8  1  0  0  0
  8  9  1  0  0  0
  9 10  2  0  0  0
 35 30  1  0  0  0
 10  1  1  0  0  0
 38 33  1  0  0  0
 10  6  1  0  0  0
 15 12  1  0  0  0
 21 16  1  0  0  0
 26 27  1  0  0  0
 28 29  1  0  0  0
 37 39  1  0  0  0
  8 11  1  0  0  0
M  END
> <minimizedAffinity>
-7.57654

> <minimizedRMSD>
0.33819

$$$$
P26686


 50 57  0  0  0  0  0  0  0  0999 V2000
   -7.3272    4.7477  -15.0644 C   0  0  0  0  0  0  0  0  0  0  0  0
   -8.4357    4.2352  -15.7817 C   0  0  0  0  0  0  0  0  0  0  0  0
   -8.5683    4.4088  -17.1712 C   0  0  0  0  0  0  0  0  0  0  0  0
   -9.9932    3.8770  -17.9793 Cl  0  0  0  0  0  0  0  0  0  0  0  0
   -7.5930    5.0716  -17.9081 C   0  0  0  0  0  0  0  0  0  0  0  0
   -6.5105    5.5778  -17.2178 C   0  0  0  0  0  0  0  0  0  0  0  0
   -6.3708    5.4235  -15.8217 C   0  0  0  0  0  0  0  0  0  0  0  0
   -5.2309    6.1450  -15.3110 N   0  0  0  0  0  0  0  0  0  0  0  0
   -4.4243    6.4020  -16.5341 C   0  0  0  0  0  0  0  0  0  0  0  0
   -3.4235    5.2171  -16.6410 C   0  0  0  0  0  0  0  0  0  0  0  0
   -2.4234    5.1956  -15.4696 C   0  0  0  0  0  0  0  0  0  0  0  0
   -2.3006    6.5079  -14.7017 C   0  0  0  0  0  0  0  0  0  0  0  0
   -2.3772    7.7213  -15.6139 C   0  0  0  0  0  0  0  0  0  0  0  0
   -3.5682    7.6998  -16.5852 C   0  0  0  0  0  0  0  0  0  0  0  0
   -2.9898    7.8625  -17.9224 O   0  0  0  0  0  0  0  0  0  0  0  0
   -3.9660    7.8905  -18.9549 C   0  0  0  0  0  0  0  0  0  0  0  0
   -4.7975    6.6056  -18.9994 C   0  0  0  0  0  0  0  0  0  0  0  0
   -5.5994    6.8316  -20.2633 C   0  0  0  0  0  0  0  0  0  0  0  0
   -4.5979    7.5629  -21.1740 C   0  0  0  0  0  0  0  0  0  0  0  0
   -3.4429    7.8869  -20.3106 N   0  0  0  0  0  0  0  0  0  0  0  0
   -5.4857    6.5480  -17.6654 C   0  0  0  0  0  0  0  0  0  0  0  0
   -5.0350    6.4038  -14.3815 H   0  0  0  0  0  0  0  0  0  0  0  0
   -2.6343    9.0509  -20.6855 C   0  0  0  0  0  0  0  0  0  0  0  0
   -2.2247    8.9856  -22.1674 C   0  0  0  0  0  0  0  0  0  0  0  0
   -1.3511   10.1788  -22.5302 C   0  0  0  0  0  0  0  0  0  0  0  0
   -2.0227   11.4030  -22.2375 O   0  0  0  0  0  0  0  0  0  0  0  0
   -2.3090   11.5370  -20.8478 C   0  0  0  0  0  0  0  0  0  0  0  0
   -3.2442   10.4293  -20.3761 C   0  0  0  0  0  0  0  0  0  0  0  0
   -7.1669    4.4491  -13.5700 C   0  0  0  0  0  0  0  0  0  0  0  0
   -6.5692    5.5715  -12.9175 O   0  0  0  0  0  0  0  0  0  0  0  0
   -6.4688    5.3801  -11.9718 H   0  0  0  0  0  0  0  0  0  0  0  0
   -4.9027    3.5231  -13.1249 N   0  0  0  0  0  0  0  0  0  0  0  0
   -6.2604    3.1095  -13.4317 C   0  0  0  0  0  0  0  0  0  0  0  0
   -6.7368    2.0140  -13.5485 O   0  0  0  0  0  0  0  0  0  0  0  0
   -4.7533    4.4955  -13.1624 H   0  0  0  0  0  0  0  0  0  0  0  0
   -3.3213    1.8460  -13.9263 C   0  0  0  0  0  0  0  0  0  0  0  0
   -3.7330    2.7494  -12.7736 C   0  0  0  0  0  0  0  0  0  0  0  0
   -3.9625    1.9513  -11.4928 C   0  0  0  0  0  0  0  0  0  0  0  0
   -8.5002    4.3263  -12.9385 N   0  0  0  0  0  0  0  0  0  0  0  0
   -9.3181    4.2387  -13.4793 H   0  0  0  0  0  0  0  0  0  0  0  0
   -8.5486    4.3401  -11.5285 C   0  0  0  0  0  0  0  0  0  0  0  0
   -8.2639    5.5347  -10.8246 C   0  0  0  0  0  0  0  0  0  0  0  0
   -8.2315    5.5722   -9.4277 C   0  0  0  0  0  0  0  0  0  0  0  0
   -8.5199    4.4086   -8.7433 C   0  0  0  0  0  0  0  0  0  0  0  0
   -8.8040    3.2264   -9.4209 C   0  0  0  0  0  0  0  0  0  0  0  0
   -8.8012    3.1688  -10.8066 C   0  0  0  0  0  0  0  0  0  0  0  0
   -9.0843    2.1489   -8.4228 C   0  0  0  0  0  0  0  0  0  0  0  0
   -9.3051    2.8686   -7.1360 N   0  0  0  0  0  0  0  0  0  0  0  0
   -8.5979    4.1569   -7.2750 C   0  0  0  0  0  0  0  0  0  0  0  0
   -8.9200    2.3332   -6.3579 H   0  0  0  0  0  0  0  0  0  0  0  0
 36 37  1  0  0  0
 37 38  1  0  0  0
 37 32  1  0  0  0
 32 33  1  0  0  0
 33 34  2  0  0  0
 33 29  1  0  0  0
 29 30  1  0  0  0
 29 39  1  0  0  0
 39 41  1  0  0  0
 41 42  2  0  0  0
 42 43  1  0  0  0
 43 44  2  0  0  0
 44 45  1  0  0  0
 45 46  2  0  0  0
 45 47  1  0  0  0
 47 48  1  0  0  0
 48 49  1  0  0  0
 29  1  1  0  0  0
  1  2  2  0  0  0
  2  3  1  0  0  0
  3  4  1  0  0  0
  3  5  2  0  0  0
  5  6  1  0  0  0
  6  7  2  0  0  0
  7  8  1  0  0  0
  8  9  1  0  0  0
  9 10  1  0  0  0
 10 11  1  0  0  0
 11 12  1  0  0  0
 12 13  1  0  0  0
 14 13  1  0  0  0
 14 15  1  0  0  0
 16 15  1  0  0  0
 16 17  1  0  0  0
 17 18  1  0  0  0
 18 19  1  0  0  0
 19 20  1  0  0  0
 20 23  1  0  0  0
 23 24  1  0  0  0
 24 25  1  0  0  0
 25 26  1  0  0  0
 26 27  1  0  0  0
 27 28  1  0  0  0
 17 21  1  0  0  0
 46 41  1  0  0  0
  7  1  1  0  0  0
 14  9  1  0  0  0
 20 16  1  0  0  0
 28 23  1  0  0  0
 49 44  1  0  0  0
 21  6  1  0  0  0
 21  9  1  0  0  0
 32 35  1  0  0  0
 30 31  1  0  0  0
 39 40  1  0  0  0
 48 50  1  0  0  0
  8 22  1  0  0  0
M  END
> <minimizedAffinity>
-8.99660

> <minimizedRMSD>
0.52269

$$$$
P26707


 35 39  0  0  0  0  0  0  0  0999 V2000
   -5.3811    5.4794  -14.4376 N   0  0  0  0  0  0  0  0  0  0  0  0
   -6.4455    5.0986  -15.2959 C   0  0  0  0  0  0  0  0  0  0  0  0
   -7.7468    4.8592  -14.7761 C   0  0  0  0  0  0  0  0  0  0  0  0
   -8.7998    4.4593  -15.5972 C   0  0  0  0  0  0  0  0  0  0  0  0
   -8.5918    4.3291  -16.9665 C   0  0  0  0  0  0  0  0  0  0  0  0
   -9.8918    3.9670  -18.0079 Cl  0  0  0  0  0  0  0  0  0  0  0  0
   -7.3318    4.6041  -17.4968 C   0  0  0  0  0  0  0  0  0  0  0  0
   -6.9126    4.6234  -18.8079 N   0  0  0  0  0  0  0  0  0  0  0  0
   -5.5856    4.9403  -18.8678 C   0  0  0  0  0  0  0  0  0  0  0  0
   -5.1329    5.1819  -17.5852 C   0  0  0  0  0  0  0  0  0  0  0  0
   -6.2484    4.9713  -16.6981 C   0  0  0  0  0  0  0  0  0  0  0  0
   -5.5357    5.5626  -13.4689 H   0  0  0  0  0  0  0  0  0  0  0  0
   -4.4883    5.6602  -14.8110 H   0  0  0  0  0  0  0  0  0  0  0  0
   -7.4847    4.4366  -19.5870 H   0  0  0  0  0  0  0  0  0  0  0  0
   -3.7380    5.5902  -17.1983 C   0  0  0  0  0  0  0  0  0  0  0  0
   -3.5303    7.1081  -17.2042 C   0  0  0  0  0  0  0  0  0  0  0  0
   -2.1282    7.4540  -16.6940 C   0  0  0  0  0  0  0  0  0  0  0  0
   -1.0920    6.4889  -17.0680 N   0  0  0  0  0  0  0  0  0  0  0  0
   -1.4341    5.7564  -18.2838 C   0  0  0  0  0  0  0  0  0  0  0  0
   -2.6809    4.8967  -18.0742 C   0  0  0  0  0  0  0  0  0  0  0  0
   -0.9732    5.8222  -16.3052 H   0  0  0  0  0  0  0  0  0  0  0  0
   -8.0377    5.2502  -13.3659 C   0  0  0  0  0  0  0  0  0  0  0  0
   -8.1493    6.3917  -13.1393 O   0  0  0  0  0  0  0  0  0  0  0  0
   -8.1523    4.0261  -12.4279 N   0  0  0  0  0  0  0  0  0  0  0  0
   -8.0916    3.1535  -12.8797 H   0  0  0  0  0  0  0  0  0  0  0  0
   -8.3278    3.9572  -11.0458 C   0  0  0  0  0  0  0  0  0  0  0  0
   -8.0750    5.0787  -10.2370 C   0  0  0  0  0  0  0  0  0  0  0  0
   -8.2261    5.0150   -8.8487 C   0  0  0  0  0  0  0  0  0  0  0  0
   -8.6381    3.8198   -8.2909 C   0  0  0  0  0  0  0  0  0  0  0  0
   -8.8948    2.7106   -9.0865 C   0  0  0  0  0  0  0  0  0  0  0  0
   -8.7478    2.7583  -10.4660 C   0  0  0  0  0  0  0  0  0  0  0  0
   -9.2850    1.5617   -8.2200 C   0  0  0  0  0  0  0  0  0  0  0  0
   -9.4294    2.1066   -6.8442 N   0  0  0  0  0  0  0  0  0  0  0  0
   -8.8701    3.4744   -6.8605 C   0  0  0  0  0  0  0  0  0  0  0  0
   -8.9154    1.5259   -6.1817 H   0  0  0  0  0  0  0  0  0  0  0  0
  1  2  1  0  0  0
  2  3  2  0  0  0
  3 22  1  0  0  0
 22 23  2  0  0  0
 22 24  1  0  0  0
 24 26  1  0  0  0
 26 27  2  0  0  0
 27 28  1  0  0  0
 28 29  2  0  0  0
 29 30  1  0  0  0
 30 31  2  0  0  0
 30 32  1  0  0  0
 32 33  1  0  0  0
 33 34  1  0  0  0
  3  4  1  0  0  0
  4  5  2  0  0  0
  5  6  1  0  0  0
  5  7  1  0  0  0
  7  8  1  0  0  0
  8  9  1  0  0  0
  9 10  2  0  0  0
 10 15  1  0  0  0
 15 16  1  0  0  0
 16 17  1  0  0  0
 17 18  1  0  0  0
 18 19  1  0  0  0
 19 20  1  0  0  0
 10 11  1  0  0  0
 11  2  1  0  0  0
 31 26  1  0  0  0
 11  7  2  0  0  0
 34 29  1  0  0  0
 20 15  1  0  0  0
  1 12  1  0  0  0
  1 13  1  0  0  0
 24 25  1  0  0  0
 33 35  1  0  0  0
  8 14  1  0  0  0
 18 21  1  0  0  0
M  END
> <minimizedAffinity>
-9.72161

> <minimizedRMSD>
0.70638

$$$$
P26719


 42 48  0  0  0  0  0  0  0  0999 V2000
   -7.3329    4.7615  -14.7629 C   0  0  0  0  0  0  0  0  0  0  0  0
   -8.4579    4.1706  -15.3366 C   0  0  0  0  0  0  0  0  0  0  0  0
   -8.5289    4.0244  -16.7193 C   0  0  0  0  0  0  0  0  0  0  0  0
   -9.9266    3.3959  -17.4614 Cl  0  0  0  0  0  0  0  0  0  0  0  0
   -7.4806    4.4885  -17.5117 C   0  0  0  0  0  0  0  0  0  0  0  0
   -7.3597    4.5135  -18.8800 N   0  0  0  0  0  0  0  0  0  0  0  0
   -6.1803    5.0999  -19.2295 C   0  0  0  0  0  0  0  0  0  0  0  0
   -5.5253    5.4962  -18.0824 C   0  0  0  0  0  0  0  0  0  0  0  0
   -6.3421    5.0860  -16.9742 C   0  0  0  0  0  0  0  0  0  0  0  0
   -6.2649    5.2070  -15.5682 C   0  0  0  0  0  0  0  0  0  0  0  0
   -8.0256    4.1606  -19.5133 H   0  0  0  0  0  0  0  0  0  0  0  0
   -4.2161    6.2400  -18.0984 C   0  0  0  0  0  0  0  0  0  0  0  0
   -4.3626    7.6455  -17.5048 C   0  0  0  0  0  0  0  0  0  0  0  0
   -3.0812    8.4808  -17.5932 C   0  0  0  0  0  0  0  0  0  0  0  0
   -2.8698    9.1215  -18.9859 C   0  0  0  0  0  0  0  0  0  0  0  0
   -1.3655    8.9947  -19.2547 C   0  0  0  0  0  0  0  0  0  0  0  0
   -0.5804   10.1467  -18.6002 C   0  0  0  0  0  0  0  0  0  0  0  0
    0.7070    9.7393  -17.8873 C   0  0  0  0  0  0  0  0  0  0  0  0
    0.5426    8.8126  -16.6722 C   0  0  0  0  0  0  0  0  0  0  0  0
   -0.8937    8.4797  -16.2527 C   0  0  0  0  0  0  0  0  0  0  0  0
   -1.7732    7.6809  -17.2850 C   0  0  0  0  0  0  0  0  0  0  0  0
   -1.1020    7.6112  -18.6705 C   0  0  0  0  0  0  0  0  0  0  0  0
   -2.0902    6.2944  -16.6790 C   0  0  0  0  0  0  0  0  0  0  0  0
   -3.0759    5.4165  -17.4735 C   0  0  0  0  0  0  0  0  0  0  0  0
   -2.4090    4.5917  -18.5611 C   0  0  0  0  0  0  0  0  0  0  0  0
   -2.9346    4.1408  -19.5665 O   0  0  0  0  0  0  0  0  0  0  0  0
   -1.1066    4.3703  -18.3212 O   0  0  0  0  0  0  0  0  0  0  0  0
   -0.7068    4.7180  -17.5484 H   0  0  0  0  0  0  0  0  0  0  0  0
   -6.8286    6.1284  -13.0079 O   0  0  0  0  0  0  0  0  0  0  0  0
   -7.3142    5.1089  -13.3102 C   0  0  0  0  0  0  0  0  0  0  0  0
   -8.0547    4.0549  -12.4492 N   0  0  0  0  0  0  0  0  0  0  0  0
   -8.4429    3.3064  -12.9575 H   0  0  0  0  0  0  0  0  0  0  0  0
   -8.2610    3.9939  -11.0696 C   0  0  0  0  0  0  0  0  0  0  0  0
   -8.0468    5.1207  -10.2579 C   0  0  0  0  0  0  0  0  0  0  0  0
   -8.2798    5.0712   -8.8787 C   0  0  0  0  0  0  0  0  0  0  0  0
   -8.7287    3.8833   -8.3346 C   0  0  0  0  0  0  0  0  0  0  0  0
   -8.9321    2.7611   -9.1324 C   0  0  0  0  0  0  0  0  0  0  0  0
   -8.7105    2.7977  -10.5011 C   0  0  0  0  0  0  0  0  0  0  0  0
   -9.3626    1.6249   -8.2637 C   0  0  0  0  0  0  0  0  0  0  0  0
   -9.7850    2.2542   -6.9847 N   0  0  0  0  0  0  0  0  0  0  0  0
   -9.0539    3.5393   -6.9191 C   0  0  0  0  0  0  0  0  0  0  0  0
   -9.5340    1.6600   -6.1946 H   0  0  0  0  0  0  0  0  0  0  0  0
 29 30  2  0  0  0
 30 31  1  0  0  0
 31 33  1  0  0  0
 33 34  2  0  0  0
 34 35  1  0  0  0
 35 36  2  0  0  0
 36 37  1  0  0  0
 37 38  2  0  0  0
 37 39  1  0  0  0
 39 40  1  0  0  0
 40 41  1  0  0  0
 30  1  1  0  0  0
  1  2  2  0  0  0
  2  3  1  0  0  0
  3  4  1  0  0  0
  3  5  2  0  0  0
  5  6  1  0  0  0
  6  7  1  0  0  0
  7  8  2  0  0  0
 12  8  1  0  0  0
 12 13  1  0  0  0
 14 13  1  0  0  0
 14 15  1  0  0  0
 16 15  1  0  0  0
 16 17  1  0  0  0
 17 18  1  0  0  0
 18 19  1  0  0  0
 19 20  1  0  0  0
 21 20  1  0  0  0
 21 22  1  0  0  0
 21 23  1  0  0  0
 23 24  1  0  0  0
 24 25  1  0  0  0
 25 26  2  0  0  0
 25 27  1  0  0  0
  8  9  1  0  0  0
  9 10  2  0  0  0
 38 33  1  0  0  0
 10  1  1  0  0  0
 41 36  1  0  0  0
  9  5  1  0  0  0
 24 12  1  0  0  0
 21 14  1  0  0  0
 22 16  1  0  0  0
 31 32  1  0  0  0
 40 42  1  0  0  0
  6 11  1  0  0  0
 27 28  1  0  0  0
M  END
> <minimizedAffinity>
-9.61989

> <minimizedRMSD>
0.48757

$$$$
P26720


 33 37  0  0  0  0  0  0  0  0999 V2000
   -7.1232    5.3162  -14.8216 C   0  0  0  0  0  0  0  0  0  0  0  0
   -8.1821    4.6448  -15.4397 C   0  0  0  0  0  0  0  0  0  0  0  0
   -8.1349    4.3796  -16.8103 C   0  0  0  0  0  0  0  0  0  0  0  0
   -9.4501    3.6439  -17.6103 Cl  0  0  0  0  0  0  0  0  0  0  0  0
   -7.0259    4.8034  -17.5432 C   0  0  0  0  0  0  0  0  0  0  0  0
   -6.7813    4.7692  -18.8980 N   0  0  0  0  0  0  0  0  0  0  0  0
   -5.5371    5.2779  -19.1570 C   0  0  0  0  0  0  0  0  0  0  0  0
   -4.9765    5.6921  -17.9650 C   0  0  0  0  0  0  0  0  0  0  0  0
   -5.9341    5.4203  -16.9387 C   0  0  0  0  0  0  0  0  0  0  0  0
   -5.9827    5.6749  -15.5519 C   0  0  0  0  0  0  0  0  0  0  0  0
   -7.4071    4.4299  -19.5780 H   0  0  0  0  0  0  0  0  0  0  0  0
   -3.6281    6.3134  -17.7644 C   0  0  0  0  0  0  0  0  0  0  0  0
   -3.3454    7.4679  -18.7261 C   0  0  0  0  0  0  0  0  0  0  0  0
   -2.0151    8.1366  -18.3667 C   0  0  0  0  0  0  0  0  0  0  0  0
   -0.9866    7.2246  -17.8541 N   0  0  0  0  0  0  0  0  0  0  0  0
   -1.1875    5.8575  -18.3383 C   0  0  0  0  0  0  0  0  0  0  0  0
   -2.5013    5.2682  -17.8226 C   0  0  0  0  0  0  0  0  0  0  0  0
   -1.0238    7.2233  -16.8347 H   0  0  0  0  0  0  0  0  0  0  0  0
   -7.7701    4.6766  -12.5002 N   0  0  0  0  0  0  0  0  0  0  0  0
   -7.2281    5.7963  -13.4090 C   0  0  0  0  0  0  0  0  0  0  0  0
   -6.9622    6.9059  -13.1655 O   0  0  0  0  0  0  0  0  0  0  0  0
   -7.9879    3.8371  -12.9660 H   0  0  0  0  0  0  0  0  0  0  0  0
   -8.5537    2.1788  -11.2522 C   0  0  0  0  0  0  0  0  0  0  0  0
   -8.4143    3.4567  -10.5101 C   0  0  0  0  0  0  0  0  0  0  0  0
   -8.0040    4.6582  -11.1176 C   0  0  0  0  0  0  0  0  0  0  0  0
   -7.8586    5.8103  -10.3335 C   0  0  0  0  0  0  0  0  0  0  0  0
   -8.0904    5.7763   -8.9500 C   0  0  0  0  0  0  0  0  0  0  0  0
   -8.4849    4.5842   -8.3690 C   0  0  0  0  0  0  0  0  0  0  0  0
   -8.6502    3.4428   -9.1368 C   0  0  0  0  0  0  0  0  0  0  0  0
   -9.0690    2.3078   -8.2524 C   0  0  0  0  0  0  0  0  0  0  0  0
   -9.4259    2.9320   -6.9522 N   0  0  0  0  0  0  0  0  0  0  0  0
   -8.7677    4.2549   -6.9425 C   0  0  0  0  0  0  0  0  0  0  0  0
   -9.0850    2.3606   -6.1791 H   0  0  0  0  0  0  0  0  0  0  0  0
 23 24  1  0  0  0
 24 25  2  0  0  0
 25 19  1  0  0  0
 19 20  1  0  0  0
 20 21  2  0  0  0
 20  1  1  0  0  0
  1  2  2  0  0  0
  2  3  1  0  0  0
  3  4  1  0  0  0
  3  5  2  0  0  0
  5  6  1  0  0  0
  6  7  1  0  0  0
  7  8  2  0  0  0
  8 12  1  0  0  0
 12 13  1  0  0  0
 13 14  1  0  0  0
 14 15  1  0  0  0
 15 16  1  0  0  0
 16 17  1  0  0  0
  8  9  1  0  0  0
  9 10  2  0  0  0
 25 26  1  0  0  0
 26 27  2  0  0  0
 27 28  1  0  0  0
 28 29  2  0  0  0
 29 30  1  0  0  0
 30 31  1  0  0  0
 31 32  1  0  0  0
 29 24  1  0  0  0
 10  1  1  0  0  0
 32 28  1  0  0  0
  9  5  1  0  0  0
 17 12  1  0  0  0
 19 22  1  0  0  0
  6 11  1  0  0  0
 15 18  1  0  0  0
 31 33  1  0  0  0
M  END
> <minimizedAffinity>
-8.56206

> <minimizedRMSD>
0.06606

$$$$
P26722


 32 36  0  0  0  0  0  0  0  0999 V2000
   -5.1812    5.0662  -19.9104 O   0  0  0  0  0  0  0  0  0  0  0  0
   -5.7606    4.9731  -18.8425 C   0  0  0  0  0  0  0  0  0  0  0  0
   -7.0105    4.4728  -18.6092 N   0  0  0  0  0  0  0  0  0  0  0  0
   -7.1997    4.5672  -17.3398 C   0  0  0  0  0  0  0  0  0  0  0  0
   -8.3837    4.2097  -16.5339 C   0  0  0  0  0  0  0  0  0  0  0  0
   -9.7535    3.6471  -17.3646 Cl  0  0  0  0  0  0  0  0  0  0  0  0
   -8.3707    4.3940  -15.2038 C   0  0  0  0  0  0  0  0  0  0  0  0
   -7.2192    4.9552  -14.5101 C   0  0  0  0  0  0  0  0  0  0  0  0
   -6.1093    5.3139  -15.1843 C   0  0  0  0  0  0  0  0  0  0  0  0
   -6.0681    5.1311  -16.6036 C   0  0  0  0  0  0  0  0  0  0  0  0
   -5.1669    5.3988  -17.5489 C   0  0  0  0  0  0  0  0  0  0  0  0
   -3.8025    5.9887  -17.4304 C   0  0  0  0  0  0  0  0  0  0  0  0
   -3.6472    7.3346  -18.1468 C   0  0  0  0  0  0  0  0  0  0  0  0
   -2.2526    7.9211  -17.8953 C   0  0  0  0  0  0  0  0  0  0  0  0
   -1.2036    6.9157  -17.7046 N   0  0  0  0  0  0  0  0  0  0  0  0
   -1.4812    5.6917  -18.4517 C   0  0  0  0  0  0  0  0  0  0  0  0
   -2.7198    4.9960  -17.8881 C   0  0  0  0  0  0  0  0  0  0  0  0
   -1.1402    6.6892  -16.7121 H   0  0  0  0  0  0  0  0  0  0  0  0
   -7.2707    5.3477  -13.0620 C   0  0  0  0  0  0  0  0  0  0  0  0
   -6.8093    6.3585  -12.7003 O   0  0  0  0  0  0  0  0  0  0  0  0
   -8.0074    4.2389  -12.2686 N   0  0  0  0  0  0  0  0  0  0  0  0
   -8.3729    3.5104  -12.8208 H   0  0  0  0  0  0  0  0  0  0  0  0
   -8.2367    4.1054  -10.8999 C   0  0  0  0  0  0  0  0  0  0  0  0
   -8.0596    5.1949  -10.0317 C   0  0  0  0  0  0  0  0  0  0  0  0
   -8.2769    5.0604   -8.6571 C   0  0  0  0  0  0  0  0  0  0  0  0
   -8.6788    3.8290   -8.1750 C   0  0  0  0  0  0  0  0  0  0  0  0
   -8.8611    2.7505   -9.0310 C   0  0  0  0  0  0  0  0  0  0  0  0
   -8.6463    2.8674  -10.3968 C   0  0  0  0  0  0  0  0  0  0  0  0
   -9.2639    1.5530   -8.2391 C   0  0  0  0  0  0  0  0  0  0  0  0
   -9.4908    2.0295   -6.8497 N   0  0  0  0  0  0  0  0  0  0  0  0
   -8.9730    3.4115   -6.7753 C   0  0  0  0  0  0  0  0  0  0  0  0
   -8.9925    1.4329   -6.1893 H   0  0  0  0  0  0  0  0  0  0  0  0
  1  2  2  0  0  0
  2  3  1  0  0  0
  3  4  2  0  0  0
  4  5  1  0  0  0
  5  6  1  0  0  0
  5  7  2  0  0  0
  7  8  1  0  0  0
  8 19  1  0  0  0
 19 20  2  0  0  0
 19 21  1  0  0  0
 21 23  1  0  0  0
 23 24  2  0  0  0
 24 25  1  0  0  0
 25 26  2  0  0  0
 26 27  1  0  0  0
 27 28  2  0  0  0
 27 29  1  0  0  0
 29 30  1  0  0  0
 30 31  1  0  0  0
  8  9  2  0  0  0
  9 10  1  0  0  0
 10 11  2  0  0  0
 11 12  1  0  0  0
 12 13  1  0  0  0
 13 14  1  0  0  0
 14 15  1  0  0  0
 15 16  1  0  0  0
 16 17  1  0  0  0
 11  2  1  0  0  0
 17 12  1  0  0  0
 10  4  1  0  0  0
 28 23  1  0  0  0
 31 26  1  0  0  0
 21 22  1  0  0  0
 30 32  1  0  0  0
 15 18  1  0  0  0
M  END
> <minimizedAffinity>
-9.54003

> <minimizedRMSD>
0.34365

$$$$
P26724


 35 39  0  0  0  0  0  0  0  0999 V2000
   -5.0220    5.4143  -18.2875 C   0  0  0  0  0  0  0  0  0  0  0  0
   -5.7720    5.1054  -19.4075 C   0  0  0  0  0  0  0  0  0  0  0  0
   -7.0007    4.6602  -19.0242 N   0  0  0  0  0  0  0  0  0  0  0  0
   -7.0787    4.6245  -17.6572 C   0  0  0  0  0  0  0  0  0  0  0  0
   -8.1475    4.2417  -16.8464 C   0  0  0  0  0  0  0  0  0  0  0  0
   -9.6120    3.7265  -17.5520 Cl  0  0  0  0  0  0  0  0  0  0  0  0
   -8.0297    4.3532  -15.4675 C   0  0  0  0  0  0  0  0  0  0  0  0
   -6.8406    4.8266  -14.9171 C   0  0  0  0  0  0  0  0  0  0  0  0
   -5.7528    5.1924  -15.7409 C   0  0  0  0  0  0  0  0  0  0  0  0
   -5.8663    5.0985  -17.1506 C   0  0  0  0  0  0  0  0  0  0  0  0
   -7.7255    4.4024  -19.6387 H   0  0  0  0  0  0  0  0  0  0  0  0
   -3.3091    6.6211  -19.7276 C   0  0  0  0  0  0  0  0  0  0  0  0
   -3.5860    5.9713  -18.3319 C   0  0  0  0  0  0  0  0  0  0  0  0
   -3.4024    7.0695  -17.2590 C   0  0  0  0  0  0  0  0  0  0  0  0
   -1.9496    7.5270  -17.1231 C   0  0  0  0  0  0  0  0  0  0  0  0
   -1.0595    6.4046  -16.8458 N   0  0  0  0  0  0  0  0  0  0  0  0
   -1.1338    5.3764  -17.8862 C   0  0  0  0  0  0  0  0  0  0  0  0
   -2.5573    4.8303  -18.0874 C   0  0  0  0  0  0  0  0  0  0  0  0
   -2.5327    3.9203  -19.1884 O   0  0  0  0  0  0  0  0  0  0  0  0
   -1.3222    5.9887  -15.9522 H   0  0  0  0  0  0  0  0  0  0  0  0
   -2.2465    4.3884  -19.9883 H   0  0  0  0  0  0  0  0  0  0  0  0
   -6.7752    5.1196  -13.4561 C   0  0  0  0  0  0  0  0  0  0  0  0
   -6.2071    6.0861  -13.1236 O   0  0  0  0  0  0  0  0  0  0  0  0
   -7.5846    4.0921  -12.6220 N   0  0  0  0  0  0  0  0  0  0  0  0
   -7.9076    3.3126  -13.1291 H   0  0  0  0  0  0  0  0  0  0  0  0
   -7.9297    4.0931  -11.2683 C   0  0  0  0  0  0  0  0  0  0  0  0
   -7.7898    5.2479  -10.4831 C   0  0  0  0  0  0  0  0  0  0  0  0
   -8.1178    5.2372   -9.1223 C   0  0  0  0  0  0  0  0  0  0  0  0
   -8.5693    4.0557   -8.5634 C   0  0  0  0  0  0  0  0  0  0  0  0
   -8.7200    2.9135   -9.3368 C   0  0  0  0  0  0  0  0  0  0  0  0
   -8.4197    2.9151  -10.6927 C   0  0  0  0  0  0  0  0  0  0  0  0
   -9.2070    1.7943   -8.4809 C   0  0  0  0  0  0  0  0  0  0  0  0
   -9.2852    2.3233   -7.0919 N   0  0  0  0  0  0  0  0  0  0  0  0
   -8.9558    3.7638   -7.1554 C   0  0  0  0  0  0  0  0  0  0  0  0
   -8.6162    1.8375   -6.4945 H   0  0  0  0  0  0  0  0  0  0  0  0
 13 12  1  0  0  0
 13  1  1  0  0  0
  1  2  2  0  0  0
  2  3  1  0  0  0
  3  4  1  0  0  0
  4  5  2  0  0  0
  5  6  1  0  0  0
  5  7  1  0  0  0
  7  8  2  0  0  0
  8 22  1  0  0  0
 22 23  2  0  0  0
 22 24  1  0  0  0
 24 26  1  0  0  0
 26 27  2  0  0  0
 27 28  1  0  0  0
 28 29  2  0  0  0
 29 30  1  0  0  0
 30 31  2  0  0  0
 30 32  1  0  0  0
 32 33  1  0  0  0
 33 34  1  0  0  0
  8  9  1  0  0  0
  9 10  2  0  0  0
 13 14  1  0  0  0
 14 15  1  0  0  0
 15 16  1  0  0  0
 16 17  1  0  0  0
 17 18  1  0  0  0
 18 19  1  0  0  0
 18 13  1  0  0  0
 10  1  1  0  0  0
 10  4  1  0  0  0
 31 26  1  0  0  0
 34 29  1  0  0  0
  3 11  1  0  0  0
 24 25  1  0  0  0
 33 35  1  0  0  0
 16 20  1  0  0  0
 19 21  1  0  0  0
M  END
> <minimizedAffinity>
-9.96148

> <minimizedRMSD>
0.48896

$$$$
P26725


 37 41  0  0  0  0  0  0  0  0999 V2000
   -6.1983    5.3142  -15.3394 C   0  0  0  0  0  0  0  0  0  0  0  0
   -7.3936    4.9176  -14.6828 C   0  0  0  0  0  0  0  0  0  0  0  0
   -8.4533    4.3343  -15.3734 C   0  0  0  0  0  0  0  0  0  0  0  0
   -8.3639    4.1664  -16.7499 C   0  0  0  0  0  0  0  0  0  0  0  0
   -9.6783    3.5238  -17.6226 Cl  0  0  0  0  0  0  0  0  0  0  0  0
   -7.2212    4.6025  -17.4211 C   0  0  0  0  0  0  0  0  0  0  0  0
   -6.9461    4.6226  -18.7696 N   0  0  0  0  0  0  0  0  0  0  0  0
   -5.6928    5.1217  -18.9817 C   0  0  0  0  0  0  0  0  0  0  0  0
   -5.1471    5.4760  -17.7630 C   0  0  0  0  0  0  0  0  0  0  0  0
   -6.1259    5.1544  -16.7536 C   0  0  0  0  0  0  0  0  0  0  0  0
   -7.5617    4.3218  -19.4766 H   0  0  0  0  0  0  0  0  0  0  0  0
   -3.7895    6.0868  -17.5504 C   0  0  0  0  0  0  0  0  0  0  0  0
   -3.4773    7.2214  -18.5310 C   0  0  0  0  0  0  0  0  0  0  0  0
   -2.1377    7.8747  -18.1755 C   0  0  0  0  0  0  0  0  0  0  0  0
   -1.1452    6.9522  -17.6171 N   0  0  0  0  0  0  0  0  0  0  0  0
   -1.3439    5.5845  -18.0872 C   0  0  0  0  0  0  0  0  0  0  0  0
   -2.6761    5.0253  -17.5885 C   0  0  0  0  0  0  0  0  0  0  0  0
   -1.2197    6.9648  -16.5999 H   0  0  0  0  0  0  0  0  0  0  0  0
   -4.1772    4.8604  -14.1634 N   0  0  0  0  0  0  0  0  0  0  0  0
   -5.1085    5.8413  -14.5858 N   0  0  0  0  0  0  0  0  0  0  0  0
   -3.4294    5.3075  -13.6331 H   0  0  0  0  0  0  0  0  0  0  0  0
   -3.7825    4.3926  -14.9794 H   0  0  0  0  0  0  0  0  0  0  0  0
   -5.0121    6.7988  -14.3780 H   0  0  0  0  0  0  0  0  0  0  0  0
   -7.5889    5.3181  -13.2625 C   0  0  0  0  0  0  0  0  0  0  0  0
   -7.4501    6.4490  -12.9998 O   0  0  0  0  0  0  0  0  0  0  0  0
   -7.9985    4.1250  -12.3698 N   0  0  0  0  0  0  0  0  0  0  0  0
   -8.1207    3.2741  -12.8496 H   0  0  0  0  0  0  0  0  0  0  0  0
   -8.2230    4.0575  -10.9960 C   0  0  0  0  0  0  0  0  0  0  0  0
   -7.9981    5.1757  -10.1737 C   0  0  0  0  0  0  0  0  0  0  0  0
   -8.2244    5.1143   -8.7950 C   0  0  0  0  0  0  0  0  0  0  0  0
   -8.6926    3.9279   -8.2662 C   0  0  0  0  0  0  0  0  0  0  0  0
   -8.9129    2.8178   -9.0775 C   0  0  0  0  0  0  0  0  0  0  0  0
   -8.6802    2.8600  -10.4425 C   0  0  0  0  0  0  0  0  0  0  0  0
   -9.3786    1.6843   -8.2257 C   0  0  0  0  0  0  0  0  0  0  0  0
   -9.8076    2.3148   -6.9493 N   0  0  0  0  0  0  0  0  0  0  0  0
   -9.0340    3.5732   -6.8573 C   0  0  0  0  0  0  0  0  0  0  0  0
   -9.5938    1.7052   -6.1599 H   0  0  0  0  0  0  0  0  0  0  0  0
 19 20  1  0  0  0
 20  1  1  0  0  0
  1  2  2  0  0  0
  2 24  1  0  0  0
 24 25  2  0  0  0
 24 26  1  0  0  0
 26 28  1  0  0  0
 28 29  2  0  0  0
 29 30  1  0  0  0
 30 31  2  0  0  0
 31 32  1  0  0  0
 32 33  2  0  0  0
 32 34  1  0  0  0
 34 35  1  0  0  0
 35 36  1  0  0  0
  2  3  1  0  0  0
  3  4  2  0  0  0
  4  5  1  0  0  0
  4  6  1  0  0  0
  6  7  1  0  0  0
  7  8  1  0  0  0
  8  9  2  0  0  0
  9 12  1  0  0  0
 12 13  1  0  0  0
 13 14  1  0  0  0
 14 15  1  0  0  0
 15 16  1  0  0  0
 16 17  1  0  0  0
  9 10  1  0  0  0
 10  1  1  0  0  0
 33 28  1  0  0  0
 10  6  2  0  0  0
 36 31  1  0  0  0
 17 12  1  0  0  0
 19 21  1  0  0  0
 19 22  1  0  0  0
 20 23  1  0  0  0
 26 27  1  0  0  0
 35 37  1  0  0  0
  7 11  1  0  0  0
 15 18  1  0  0  0
M  END
> <minimizedAffinity>
-9.21503

> <minimizedRMSD>
0.29603

$$$$
P26726


 33 37  0  0  0  0  0  0  0  0999 V2000
   -7.0848    4.9097  -14.8664 C   0  0  0  0  0  0  0  0  0  0  0  0
   -8.2497    4.4084  -15.4443 C   0  0  0  0  0  0  0  0  0  0  0  0
   -8.3183    4.2368  -16.8200 C   0  0  0  0  0  0  0  0  0  0  0  0
   -9.7735    3.7376  -17.5517 Cl  0  0  0  0  0  0  0  0  0  0  0  0
   -7.2169    4.5734  -17.6043 C   0  0  0  0  0  0  0  0  0  0  0  0
   -7.0804    4.5440  -18.9696 N   0  0  0  0  0  0  0  0  0  0  0  0
   -5.8384    4.9758  -19.3161 C   0  0  0  0  0  0  0  0  0  0  0  0
   -5.1474    5.3315  -18.1738 C   0  0  0  0  0  0  0  0  0  0  0  0
   -6.0277    5.0709  -17.0657 C   0  0  0  0  0  0  0  0  0  0  0  0
   -5.9682    5.2433  -15.6618 C   0  0  0  0  0  0  0  0  0  0  0  0
   -7.7765    4.2541  -19.6026 H   0  0  0  0  0  0  0  0  0  0  0  0
   -3.7621    5.9156  -18.2198 C   0  0  0  0  0  0  0  0  0  0  0  0
   -3.3737    5.9401  -19.5436 F   0  0  0  0  0  0  0  0  0  0  0  0
   -3.7424    7.3695  -17.7472 C   0  0  0  0  0  0  0  0  0  0  0  0
   -2.3287    7.9338  -17.8124 C   0  0  0  0  0  0  0  0  0  0  0  0
   -1.3834    7.1148  -17.0552 N   0  0  0  0  0  0  0  0  0  0  0  0
   -1.3511    5.7467  -17.5811 C   0  0  0  0  0  0  0  0  0  0  0  0
   -2.7192    5.0736  -17.4925 C   0  0  0  0  0  0  0  0  0  0  0  0
   -1.6691    7.0913  -16.0763 H   0  0  0  0  0  0  0  0  0  0  0  0
   -6.6016    6.2889  -13.1100 O   0  0  0  0  0  0  0  0  0  0  0  0
   -7.0852    5.2700  -13.4178 C   0  0  0  0  0  0  0  0  0  0  0  0
   -7.8485    4.2220  -12.5668 N   0  0  0  0  0  0  0  0  0  0  0  0
   -8.2292    3.4728  -13.0797 H   0  0  0  0  0  0  0  0  0  0  0  0
   -8.0832    4.1682  -11.1928 C   0  0  0  0  0  0  0  0  0  0  0  0
   -7.9091    5.3014  -10.3842 C   0  0  0  0  0  0  0  0  0  0  0  0
   -8.1757    5.2507   -9.0115 C   0  0  0  0  0  0  0  0  0  0  0  0
   -8.6020    4.0524   -8.4678 C   0  0  0  0  0  0  0  0  0  0  0  0
   -8.7718    2.9281   -9.2634 C   0  0  0  0  0  0  0  0  0  0  0  0
   -8.5319    2.9687  -10.6296 C   0  0  0  0  0  0  0  0  0  0  0  0
   -9.1927    1.7769   -8.4152 C   0  0  0  0  0  0  0  0  0  0  0  0
   -9.3840    2.3121   -7.0405 N   0  0  0  0  0  0  0  0  0  0  0  0
   -8.9341    3.7209   -7.0544 C   0  0  0  0  0  0  0  0  0  0  0  0
   -8.8284    1.7742   -6.3754 H   0  0  0  0  0  0  0  0  0  0  0  0
 20 21  2  0  0  0
 21 22  1  0  0  0
 22 24  1  0  0  0
 24 25  2  0  0  0
 25 26  1  0  0  0
 26 27  2  0  0  0
 27 28  1  0  0  0
 28 29  2  0  0  0
 28 30  1  0  0  0
 30 31  1  0  0  0
 31 32  1  0  0  0
 21  1  1  0  0  0
  1  2  2  0  0  0
  2  3  1  0  0  0
  3  4  1  0  0  0
  3  5  2  0  0  0
  5  6  1  0  0  0
  6  7  1  0  0  0
  7  8  2  0  0  0
  8 12  1  0  0  0
 12 13  1  0  0  0
 12 14  1  0  0  0
 14 15  1  0  0  0
 15 16  1  0  0  0
 16 17  1  0  0  0
 17 18  1  0  0  0
  8  9  1  0  0  0
  9 10  2  0  0  0
 29 24  1  0  0  0
 10  1  1  0  0  0
 32 27  1  0  0  0
  9  5  1  0  0  0
 18 12  1  0  0  0
 22 23  1  0  0  0
 31 33  1  0  0  0
  6 11  1  0  0  0
 16 19  1  0  0  0
M  END
> <minimizedAffinity>
-9.53975

> <minimizedRMSD>
0.19291

$$$$
P26728


 54 60  0  0  0  0  0  0  0  0999 V2000
   -7.4525    5.9679  -13.2511 C   0  0  0  0  0  0  0  0  0  0  0  0
   -6.2107    5.8897  -12.6000 O   0  0  0  0  0  0  0  0  0  0  0  0
   -6.3265    6.0889  -11.6577 H   0  0  0  0  0  0  0  0  0  0  0  0
   -7.2870    5.6420  -14.8134 C   0  0  0  0  0  0  0  0  0  0  0  0
   -8.0634    4.3727  -15.2949 C   0  0  0  0  0  0  0  0  0  0  0  0
   -8.0652    4.0857  -16.8078 C   0  0  0  0  0  0  0  0  0  0  0  0
   -9.6413    4.2667  -17.5838 Cl  0  0  0  0  0  0  0  0  0  0  0  0
   -6.9743    4.7877  -17.5154 C   0  0  0  0  0  0  0  0  0  0  0  0
   -6.8335    4.7892  -18.8773 N   0  0  0  0  0  0  0  0  0  0  0  0
   -5.6010    5.2896  -19.1883 C   0  0  0  0  0  0  0  0  0  0  0  0
   -4.9664    5.6763  -18.0233 C   0  0  0  0  0  0  0  0  0  0  0  0
   -5.9047    5.4625  -16.9514 C   0  0  0  0  0  0  0  0  0  0  0  0
   -5.8148    5.7694  -15.4439 C   0  0  0  0  0  0  0  0  0  0  0  0
   -5.2545    7.1873  -15.1893 C   0  0  0  0  0  0  0  0  0  0  0  0
   -3.9945    7.0848  -14.4430 N   0  0  0  0  0  0  0  0  0  0  0  0
   -3.9425    5.7519  -13.8900 N   0  0  0  0  0  0  0  0  0  0  0  0
   -4.7509    4.8952  -14.7740 C   0  0  0  0  0  0  0  0  0  0  0  0
   -7.5081    4.4809  -19.5247 H   0  0  0  0  0  0  0  0  0  0  0  0
   -3.9732    7.7766  -13.6938 H   0  0  0  0  0  0  0  0  0  0  0  0
   -4.3296    5.7476  -12.9462 H   0  0  0  0  0  0  0  0  0  0  0  0
   -3.5578    6.1868  -17.9397 C   0  0  0  0  0  0  0  0  0  0  0  0
   -3.1106    6.9528  -19.1829 C   0  0  0  0  0  0  0  0  0  0  0  0
   -1.7598    7.6276  -18.9205 C   0  0  0  0  0  0  0  0  0  0  0  0
   -0.8902    6.9160  -17.9784 N   0  0  0  0  0  0  0  0  0  0  0  0
   -1.1166    5.4694  -18.0195 C   0  0  0  0  0  0  0  0  0  0  0  0
   -2.5384    5.0883  -17.5962 C   0  0  0  0  0  0  0  0  0  0  0  0
   -1.0790    7.2536  -17.0346 H   0  0  0  0  0  0  0  0  0  0  0  0
   -9.6273    7.3395  -13.3608 N   0  0  0  0  0  0  0  0  0  0  0  0
   -8.0966    7.4635  -13.1424 C   0  0  0  0  0  0  0  0  0  0  0  0
   -7.4327    8.4065  -12.9554 O   0  0  0  0  0  0  0  0  0  0  0  0
   -9.9614    6.4154  -13.4223 H   0  0  0  0  0  0  0  0  0  0  0  0
  -10.6589    8.3760  -13.4908 C   0  0  0  0  0  0  0  0  0  0  0  0
  -10.4972    9.9877  -12.7063 S   0  0  0  0  0  0  0  0  0  0  0  0
   -9.5854    9.8935  -11.5847 O   0  0  0  0  0  0  0  0  0  0  0  0
  -11.8374   10.5272  -12.5272 O   0  0  0  0  0  0  0  0  0  0  0  0
   -7.9696   13.4132  -17.0392 C   0  0  0  0  0  0  0  0  0  0  0  0
   -8.5802   12.5390  -15.9835 C   0  0  0  0  0  0  0  0  0  0  0  0
   -9.8753   12.0288  -16.1455 C   0  0  0  0  0  0  0  0  0  0  0  0
  -10.4557   11.2482  -15.1449 C   0  0  0  0  0  0  0  0  0  0  0  0
   -9.7376   10.9793  -13.9746 C   0  0  0  0  0  0  0  0  0  0  0  0
   -8.4648   11.5126  -13.7837 C   0  0  0  0  0  0  0  0  0  0  0  0
   -7.8874   12.2870  -14.7910 C   0  0  0  0  0  0  0  0  0  0  0  0
   -8.3285    4.9735  -12.5989 N   0  0  0  0  0  0  0  0  0  0  0  0
   -8.9472    4.4354  -13.1439 H   0  0  0  0  0  0  0  0  0  0  0  0
   -8.2852    4.7878  -11.1923 C   0  0  0  0  0  0  0  0  0  0  0  0
   -8.0943    5.8307  -10.2628 C   0  0  0  0  0  0  0  0  0  0  0  0
   -8.1170    5.6053   -8.8797 C   0  0  0  0  0  0  0  0  0  0  0  0
   -8.4115    4.3370   -8.4277 C   0  0  0  0  0  0  0  0  0  0  0  0
   -8.6412    3.2993   -9.3209 C   0  0  0  0  0  0  0  0  0  0  0  0
   -8.5833    3.5040  -10.6911 C   0  0  0  0  0  0  0  0  0  0  0  0
   -8.9501    2.0592   -8.5486 C   0  0  0  0  0  0  0  0  0  0  0  0
   -9.3041    2.5403   -7.1863 N   0  0  0  0  0  0  0  0  0  0  0  0
   -8.5968    3.8322   -7.0359 C   0  0  0  0  0  0  0  0  0  0  0  0
   -8.9898    1.8758   -6.4792 H   0  0  0  0  0  0  0  0  0  0  0  0
 36 37  1  0  0  0
 37 38  2  0  0  0
 38 39  1  0  0  0
 39 40  2  0  0  0
 40 33  1  0  0  0
 33 34  2  0  0  0
 33 35  2  0  0  0
 33 32  1  0  0  0
 32 28  1  0  0  0
 28 29  1  0  0  0
 29 30  2  0  0  0
 29  1  1  0  0  0
  1  2  1  0  0  0
  1 43  1  0  0  0
 43 45  1  0  0  0
 45 46  2  0  0  0
 46 47  1  0  0  0
 47 48  2  0  0  0
 48 49  1  0  0  0
 49 50  2  0  0  0
 49 51  1  0  0  0
 51 52  1  0  0  0
 52 53  1  0  0  0
  1  4  1  0  0  0
  4  5  1  0  0  0
  5  6  1  0  0  0
  6  7  1  0  0  0
  6  8  1  0  0  0
  8  9  1  0  0  0
  9 10  1  0  0  0
 10 11  2  0  0  0
 11 21  1  0  0  0
 21 22  1  0  0  0
 22 23  1  0  0  0
 23 24  1  0  0  0
 24 25  1  0  0  0
 25 26  1  0  0  0
 11 12  1  0  0  0
 12 13  1  0  0  0
 13 14  1  0  0  0
 14 15  1  0  0  0
 15 16  1  0  0  0
 16 17  1  0  0  0
 40 41  1  0  0  0
 41 42  2  0  0  0
 42 37  1  0  0  0
 50 45  1  0  0  0
 13  4  1  0  0  0
 53 48  1  0  0  0
 12  8  2  0  0  0
 17 13  1  0  0  0
 26 21  1  0  0  0
 28 31  1  0  0  0
  2  3  1  0  0  0
 43 44  1  0  0  0
 52 54  1  0  0  0
  9 18  1  0  0  0
 24 27  1  0  0  0
 15 19  1  0  0  0
 16 20  1  0  0  0
M  END
> <minimizedAffinity>
-8.80324

> <minimizedRMSD>
0.58692

$$$$
P26729


 39 43  0  0  0  0  0  0  0  0999 V2000
   -5.4036    5.9590  -18.0165 C   0  0  0  0  0  0  0  0  0  0  0  0
   -6.1631    5.6310  -19.1283 C   0  0  0  0  0  0  0  0  0  0  0  0
   -7.2934    4.9831  -18.7345 N   0  0  0  0  0  0  0  0  0  0  0  0
   -7.2845    4.8209  -17.3754 C   0  0  0  0  0  0  0  0  0  0  0  0
   -8.2367    4.2156  -16.5565 C   0  0  0  0  0  0  0  0  0  0  0  0
   -9.6392    3.5468  -17.2533 Cl  0  0  0  0  0  0  0  0  0  0  0  0
   -8.0617    4.2275  -15.1783 C   0  0  0  0  0  0  0  0  0  0  0  0
   -6.9305    4.8325  -14.6378 C   0  0  0  0  0  0  0  0  0  0  0  0
   -5.9652    5.4300  -15.4744 C   0  0  0  0  0  0  0  0  0  0  0  0
   -6.1338    5.4356  -16.8799 C   0  0  0  0  0  0  0  0  0  0  0  0
   -8.0097    4.6771  -19.3366 H   0  0  0  0  0  0  0  0  0  0  0  0
   -2.8564    5.5768  -18.0754 C   0  0  0  0  0  0  0  0  0  0  0  0
   -2.8418    4.8980  -16.8174 O   0  0  0  0  0  0  0  0  0  0  0  0
   -1.4671    6.2890  -18.1231 C   0  0  0  0  0  0  0  0  0  0  0  0
   -1.2817    7.2030  -16.9787 N   0  0  0  0  0  0  0  0  0  0  0  0
   -2.3368    8.2156  -16.9184 C   0  0  0  0  0  0  0  0  0  0  0  0
   -3.7720    7.6367  -16.8872 C   0  0  0  0  0  0  0  0  0  0  0  0
   -4.7722    8.7971  -16.7926 C   0  0  0  0  0  0  0  0  0  0  0  0
   -4.0183    6.6652  -18.0881 C   0  0  0  0  0  0  0  0  0  0  0  0
   -3.9615    7.5060  -19.4137 C   0  0  0  0  0  0  0  0  0  0  0  0
   -2.1324    4.2364  -16.8152 H   0  0  0  0  0  0  0  0  0  0  0  0
   -0.3799    7.6704  -17.0717 H   0  0  0  0  0  0  0  0  0  0  0  0
   -2.7158    4.7535  -20.3797 C   0  0  0  0  0  0  0  0  0  0  0  0
   -3.0668    4.4913  -19.0110 N   0  0  0  0  0  0  0  0  0  0  0  0
   -2.5117    3.6963  -18.6945 H   0  0  0  0  0  0  0  0  0  0  0  0
   -6.7931    5.0000  -13.1607 C   0  0  0  0  0  0  0  0  0  0  0  0
   -5.9855    5.7496  -12.7709 O   0  0  0  0  0  0  0  0  0  0  0  0
   -7.8173    4.1342  -12.3847 N   0  0  0  0  0  0  0  0  0  0  0  0
   -8.3448    3.5193  -12.9440 H   0  0  0  0  0  0  0  0  0  0  0  0
   -8.1136    4.0844  -11.0225 C   0  0  0  0  0  0  0  0  0  0  0  0
   -7.9579    5.2154  -10.2041 C   0  0  0  0  0  0  0  0  0  0  0  0
   -8.2528    5.1616   -8.8371 C   0  0  0  0  0  0  0  0  0  0  0  0
   -8.7131    3.9682   -8.3146 C   0  0  0  0  0  0  0  0  0  0  0  0
   -8.8720    2.8458   -9.1219 C   0  0  0  0  0  0  0  0  0  0  0  0
   -8.5774    2.8829  -10.4762 C   0  0  0  0  0  0  0  0  0  0  0  0
   -9.3443    1.7075   -8.2778 C   0  0  0  0  0  0  0  0  0  0  0  0
   -9.8174    2.3317   -7.0146 N   0  0  0  0  0  0  0  0  0  0  0  0
   -9.0907    3.6167   -6.9140 C   0  0  0  0  0  0  0  0  0  0  0  0
   -9.5979    1.7344   -6.2175 H   0  0  0  0  0  0  0  0  0  0  0  0
 23 24  1  0  0  0
 24 12  1  0  0  0
 12 13  1  0  0  0
 12 14  1  0  0  0
 14 15  1  0  0  0
 15 16  1  0  0  0
 16 17  1  0  0  0
 17 18  1  0  0  0
 17 19  1  0  0  0
 19 20  1  0  0  0
 19  1  1  0  0  0
  1  2  2  0  0  0
  2  3  1  0  0  0
  3  4  1  0  0  0
  4  5  2  0  0  0
  5  6  1  0  0  0
  5  7  1  0  0  0
  7  8  2  0  0  0
  8 26  1  0  0  0
 26 27  2  0  0  0
 26 28  1  0  0  0
 28 30  1  0  0  0
 30 31  2  0  0  0
 31 32  1  0  0  0
 32 33  2  0  0  0
 33 34  1  0  0  0
 34 35  2  0  0  0
 34 36  1  0  0  0
 36 37  1  0  0  0
 37 38  1  0  0  0
  8  9  1  0  0  0
  9 10  2  0  0  0
 19 12  1  0  0  0
 10  1  1  0  0  0
 10  4  1  0  0  0
 35 30  1  0  0  0
 38 33  1  0  0  0
 24 25  1  0  0  0
 13 21  1  0  0  0
 15 22  1  0  0  0
  3 11  1  0  0  0
 28 29  1  0  0  0
 37 39  1  0  0  0
M  END
> <minimizedAffinity>
-9.06395

> <minimizedRMSD>
0.68130

$$$$
P26735


 43 47  0  0  0  0  0  0  0  0999 V2000
   -7.1181    4.9696  -13.0376 C   0  0  0  0  0  0  0  0  0  0  0  0
   -7.5576    6.3150  -12.9941 O   0  0  0  0  0  0  0  0  0  0  0  0
   -8.3425    6.4171  -13.5548 H   0  0  0  0  0  0  0  0  0  0  0  0
   -5.8254    5.1603  -15.3433 C   0  0  0  0  0  0  0  0  0  0  0  0
   -6.9678    4.7373  -14.5709 C   0  0  0  0  0  0  0  0  0  0  0  0
   -8.1158    4.2859  -15.2698 C   0  0  0  0  0  0  0  0  0  0  0  0
   -8.1794    4.2267  -16.6584 C   0  0  0  0  0  0  0  0  0  0  0  0
   -9.6294    3.7556  -17.4422 Cl  0  0  0  0  0  0  0  0  0  0  0  0
   -7.0788    4.6637  -17.3854 C   0  0  0  0  0  0  0  0  0  0  0  0
   -6.9320    4.7688  -18.7480 N   0  0  0  0  0  0  0  0  0  0  0  0
   -5.7074    5.2830  -19.0509 C   0  0  0  0  0  0  0  0  0  0  0  0
   -5.0468    5.5727  -17.8745 C   0  0  0  0  0  0  0  0  0  0  0  0
   -5.9109    5.1410  -16.7843 C   0  0  0  0  0  0  0  0  0  0  0  0
   -7.6135    4.5097  -19.4097 H   0  0  0  0  0  0  0  0  0  0  0  0
   -3.6931    6.2303  -17.8074 C   0  0  0  0  0  0  0  0  0  0  0  0
   -3.4282    7.2481  -18.9215 C   0  0  0  0  0  0  0  0  0  0  0  0
   -2.1233    8.0028  -18.6313 C   0  0  0  0  0  0  0  0  0  0  0  0
   -1.1280    7.2144  -17.8972 N   0  0  0  0  0  0  0  0  0  0  0  0
   -1.2168    5.7939  -18.2248 C   0  0  0  0  0  0  0  0  0  0  0  0
   -2.5494    5.2026  -17.7604 C   0  0  0  0  0  0  0  0  0  0  0  0
   -1.2847    7.3334  -16.8963 H   0  0  0  0  0  0  0  0  0  0  0  0
   -4.5620    7.2070  -14.5427 C   0  0  0  0  0  0  0  0  0  0  0  0
   -4.5686    5.6914  -14.6834 C   0  0  0  0  0  0  0  0  0  0  0  0
   -5.7950    4.6563  -12.1318 C   0  0  0  0  0  0  0  0  0  0  0  0
   -5.2748    5.4931  -11.4951 O   0  0  0  0  0  0  0  0  0  0  0  0
   -5.4999    3.1234  -12.2236 N   0  0  0  0  0  0  0  0  0  0  0  0
   -6.1331    2.6140  -12.7794 H   0  0  0  0  0  0  0  0  0  0  0  0
   -4.4458    2.3313  -11.6236 C   0  0  0  0  0  0  0  0  0  0  0  0
   -4.8494    1.6523  -10.3118 C   0  0  0  0  0  0  0  0  0  0  0  0
   -3.7285    1.3144   -9.6172 F   0  0  0  0  0  0  0  0  0  0  0  0
   -5.5254    2.5229   -9.5177 F   0  0  0  0  0  0  0  0  0  0  0  0
   -8.2541    4.1978  -12.4646 N   0  0  0  0  0  0  0  0  0  0  0  0
   -8.9052    3.7486  -13.0507 H   0  0  0  0  0  0  0  0  0  0  0  0
   -8.3756    4.1250  -11.0539 C   0  0  0  0  0  0  0  0  0  0  0  0
   -8.1738    5.2387  -10.2057 C   0  0  0  0  0  0  0  0  0  0  0  0
   -8.2821    5.1401   -8.8139 C   0  0  0  0  0  0  0  0  0  0  0  0
   -8.6254    3.9217   -8.2694 C   0  0  0  0  0  0  0  0  0  0  0  0
   -8.8488    2.8193   -9.0801 C   0  0  0  0  0  0  0  0  0  0  0  0
   -8.7483    2.9063  -10.4639 C   0  0  0  0  0  0  0  0  0  0  0  0
   -9.1495    1.6361   -8.2227 C   0  0  0  0  0  0  0  0  0  0  0  0
   -9.3344    2.1607   -6.8445 N   0  0  0  0  0  0  0  0  0  0  0  0
   -8.8246    3.5479   -6.8420 C   0  0  0  0  0  0  0  0  0  0  0  0
   -8.8094    1.5927   -6.1795 H   0  0  0  0  0  0  0  0  0  0  0  0
 22 23  1  0  0  0
 23  4  1  0  0  0
  4  5  2  0  0  0
  5  1  1  0  0  0
  1  2  1  0  0  0
  1 32  1  0  0  0
 32 34  1  0  0  0
 34 35  2  0  0  0
 35 36  1  0  0  0
 36 37  2  0  0  0
 37 38  1  0  0  0
 38 39  2  0  0  0
 38 40  1  0  0  0
 40 41  1  0  0  0
 41 42  1  0  0  0
  1 24  1  0  0  0
 24 25  2  0  0  0
 24 26  1  0  0  0
 26 28  1  0  0  0
 28 29  1  0  0  0
 29 30  1  0  0  0
 29 31  1  0  0  0
  5  6  1  0  0  0
  6  7  2  0  0  0
  7  8  1  0  0  0
  7  9  1  0  0  0
  9 10  1  0  0  0
 10 11  1  0  0  0
 11 12  2  0  0  0
 12 15  1  0  0  0
 15 16  1  0  0  0
 16 17  1  0  0  0
 17 18  1  0  0  0
 18 19  1  0  0  0
 19 20  1  0  0  0
 12 13  1  0  0  0
 13  4  1  0  0  0
 39 34  1  0  0  0
 13  9  2  0  0  0
 42 37  1  0  0  0
 20 15  1  0  0  0
  2  3  1  0  0  0
 32 33  1  0  0  0
 41 43  1  0  0  0
 26 27  1  0  0  0
 10 14  1  0  0  0
 18 21  1  0  0  0
M  END
> <minimizedAffinity>
-9.21234

> <minimizedRMSD>
0.49376

$$$$
P26736


 43 48  0  0  0  0  0  0  0  0999 V2000
   -7.0103    4.8705  -13.1379 C   0  0  0  0  0  0  0  0  0  0  0  0
   -7.4810    6.2075  -12.9878 O   0  0  0  0  0  0  0  0  0  0  0  0
   -7.5561    6.4198  -12.0443 H   0  0  0  0  0  0  0  0  0  0  0  0
   -6.9434    4.6825  -14.6738 C   0  0  0  0  0  0  0  0  0  0  0  0
   -8.1412    4.2985  -15.3354 C   0  0  0  0  0  0  0  0  0  0  0  0
   -8.2728    4.2513  -16.7302 C   0  0  0  0  0  0  0  0  0  0  0  0
   -9.7582    3.8683  -17.4626 Cl  0  0  0  0  0  0  0  0  0  0  0  0
   -7.1861    4.6246  -17.4999 C   0  0  0  0  0  0  0  0  0  0  0  0
   -7.0147    4.7734  -18.8573 N   0  0  0  0  0  0  0  0  0  0  0  0
   -5.7367    5.2095  -19.1226 C   0  0  0  0  0  0  0  0  0  0  0  0
   -5.0732    5.3380  -17.9240 C   0  0  0  0  0  0  0  0  0  0  0  0
   -5.9990    4.9869  -16.9052 C   0  0  0  0  0  0  0  0  0  0  0  0
   -5.8356    5.0197  -15.5023 C   0  0  0  0  0  0  0  0  0  0  0  0
   -4.4935    5.5323  -15.0686 C   0  0  0  0  0  0  0  0  0  0  0  0
   -3.3698    5.3218  -16.1184 C   0  0  0  0  0  0  0  0  0  0  0  0
   -3.6797    5.8116  -17.5808 C   0  0  0  0  0  0  0  0  0  0  0  0
   -3.6335    7.3529  -17.6783 C   0  0  0  0  0  0  0  0  0  0  0  0
   -2.2424    7.9267  -17.3986 C   0  0  0  0  0  0  0  0  0  0  0  0
   -1.1277    7.0911  -17.8439 N   0  0  0  0  0  0  0  0  0  0  0  0
   -1.5176    6.2040  -18.9355 C   0  0  0  0  0  0  0  0  0  0  0  0
   -2.6084    5.2076  -18.5333 C   0  0  0  0  0  0  0  0  0  0  0  0
   -7.7038    4.5944  -19.5373 H   0  0  0  0  0  0  0  0  0  0  0  0
   -0.8044    6.5260  -17.0586 H   0  0  0  0  0  0  0  0  0  0  0  0
   -5.0455    5.5924  -11.8869 O   0  0  0  0  0  0  0  0  0  0  0  0
   -5.6138    4.6855  -12.3678 C   0  0  0  0  0  0  0  0  0  0  0  0
   -5.2682    3.1641  -12.3730 N   0  0  0  0  0  0  0  0  0  0  0  0
   -5.8700    2.6063  -12.9170 H   0  0  0  0  0  0  0  0  0  0  0  0
   -4.2090    2.4414  -11.7095 C   0  0  0  0  0  0  0  0  0  0  0  0
   -2.9367    2.2672  -12.5330 C   0  0  0  0  0  0  0  0  0  0  0  0
   -2.9336    1.0667  -13.1651 F   0  0  0  0  0  0  0  0  0  0  0  0
   -2.8318    3.2181  -13.4929 F   0  0  0  0  0  0  0  0  0  0  0  0
   -7.9795    3.9579  -12.5059 N   0  0  0  0  0  0  0  0  0  0  0  0
   -8.4300    3.2893  -13.0710 H   0  0  0  0  0  0  0  0  0  0  0  0
   -8.2918    3.9949  -11.1391 C   0  0  0  0  0  0  0  0  0  0  0  0
   -8.0926    5.1156  -10.3015 C   0  0  0  0  0  0  0  0  0  0  0  0
   -8.3039    5.0681   -8.9171 C   0  0  0  0  0  0  0  0  0  0  0  0
   -8.7283    3.8798   -8.3678 C   0  0  0  0  0  0  0  0  0  0  0  0
   -8.9222    2.7604   -9.1665 C   0  0  0  0  0  0  0  0  0  0  0  0
   -8.7100    2.8002  -10.5366 C   0  0  0  0  0  0  0  0  0  0  0  0
   -9.3153    1.6149   -8.2955 C   0  0  0  0  0  0  0  0  0  0  0  0
   -9.7635    2.2408   -7.0229 N   0  0  0  0  0  0  0  0  0  0  0  0
   -9.0411    3.5303   -6.9520 C   0  0  0  0  0  0  0  0  0  0  0  0
   -9.5201    1.6498   -6.2280 H   0  0  0  0  0  0  0  0  0  0  0  0
 24 25  2  0  0  0
 25 26  1  0  0  0
 26 28  1  0  0  0
 28 29  1  0  0  0
 29 30  1  0  0  0
 29 31  1  0  0  0
 25  1  1  0  0  0
  1  2  1  0  0  0
  1 32  1  0  0  0
 32 34  1  0  0  0
 34 35  2  0  0  0
 35 36  1  0  0  0
 36 37  2  0  0  0
 37 38  1  0  0  0
 38 39  2  0  0  0
 38 40  1  0  0  0
 40 41  1  0  0  0
 41 42  1  0  0  0
  1  4  1  0  0  0
  4  5  2  0  0  0
  5  6  1  0  0  0
  6  7  1  0  0  0
  6  8  2  0  0  0
  8  9  1  0  0  0
  9 10  1  0  0  0
 10 11  2  0  0  0
 11 12  1  0  0  0
 12 13  2  0  0  0
 13 14  1  0  0  0
 14 15  1  0  0  0
 15 16  1  0  0  0
 16 17  1  0  0  0
 17 18  1  0  0  0
 18 19  1  0  0  0
 19 20  1  0  0  0
 20 21  1  0  0  0
 39 34  1  0  0  0
 13  4  1  0  0  0
 21 16  1  0  0  0
 42 37  1  0  0  0
 12  8  1  0  0  0
 16 11  1  0  0  0
 26 27  1  0  0  0
  2  3  1  0  0  0
 32 33  1  0  0  0
 41 43  1  0  0  0
  9 22  1  0  0  0
 19 23  1  0  0  0
M  END
> <minimizedAffinity>
-10.39580

> <minimizedRMSD>
0.71458

$$$$
P26737


 33 37  0  0  0  0  0  0  0  0999 V2000
   -7.3145    5.1025  -14.8548 C   0  0  0  0  0  0  0  0  0  0  0  0
   -8.3405    4.6063  -15.6433 C   0  0  0  0  0  0  0  0  0  0  0  0
   -8.1051    4.4114  -17.0087 C   0  0  0  0  0  0  0  0  0  0  0  0
   -9.4487    3.8795  -17.9544 Cl  0  0  0  0  0  0  0  0  0  0  0  0
   -6.8536    4.6940  -17.6192 C   0  0  0  0  0  0  0  0  0  0  0  0
   -5.7992    5.0770  -16.7673 C   0  0  0  0  0  0  0  0  0  0  0  0
   -6.0538    5.3198  -15.4054 C   0  0  0  0  0  0  0  0  0  0  0  0
   -4.3604    5.1548  -17.2200 C   0  0  0  0  0  0  0  0  0  0  0  0
   -3.9855    6.2324  -18.2689 C   0  0  0  0  0  0  0  0  0  0  0  0
   -3.7827    7.6193  -17.6011 C   0  0  0  0  0  0  0  0  0  0  0  0
   -2.3216    8.0804  -17.5734 C   0  0  0  0  0  0  0  0  0  0  0  0
   -1.4273    7.0288  -17.1060 N   0  0  0  0  0  0  0  0  0  0  0  0
   -1.4516    5.8499  -17.9745 C   0  0  0  0  0  0  0  0  0  0  0  0
   -2.6445    5.7954  -18.9331 C   0  0  0  0  0  0  0  0  0  0  0  0
   -5.0827    6.3538  -19.3579 C   0  0  0  0  0  0  0  0  0  0  0  0
   -5.5958    4.9928  -19.8009 C   0  0  0  0  0  0  0  0  0  0  0  0
   -6.6959    4.4949  -18.9892 N   0  0  0  0  0  0  0  0  0  0  0  0
   -1.7118    6.7500  -16.1670 H   0  0  0  0  0  0  0  0  0  0  0  0
   -7.3908    3.9705  -19.4489 H   0  0  0  0  0  0  0  0  0  0  0  0
   -7.2742    6.6086  -13.1539 O   0  0  0  0  0  0  0  0  0  0  0  0
   -7.5251    5.5065  -13.4459 C   0  0  0  0  0  0  0  0  0  0  0  0
   -8.0191    4.3291  -12.5786 N   0  0  0  0  0  0  0  0  0  0  0  0
   -8.2337    3.5095  -13.0800 H   0  0  0  0  0  0  0  0  0  0  0  0
   -8.2110    4.2374  -11.1999 C   0  0  0  0  0  0  0  0  0  0  0  0
   -7.9929    5.3481  -10.3662 C   0  0  0  0  0  0  0  0  0  0  0  0
   -8.1692    5.2546   -8.9819 C   0  0  0  0  0  0  0  0  0  0  0  0
   -8.5733    4.0422   -8.4552 C   0  0  0  0  0  0  0  0  0  0  0  0
   -8.7871    2.9412   -9.2758 C   0  0  0  0  0  0  0  0  0  0  0  0
   -8.6089    3.0168  -10.6495 C   0  0  0  0  0  0  0  0  0  0  0  0
   -9.1742    1.7696   -8.4382 C   0  0  0  0  0  0  0  0  0  0  0  0
   -9.4076    2.3014   -7.0710 N   0  0  0  0  0  0  0  0  0  0  0  0
   -8.8384    3.6654   -7.0375 C   0  0  0  0  0  0  0  0  0  0  0  0
   -8.9435    1.7107   -6.3810 H   0  0  0  0  0  0  0  0  0  0  0  0
 20 21  2  0  0  0
 21 22  1  0  0  0
 22 24  1  0  0  0
 24 25  2  0  0  0
 25 26  1  0  0  0
 26 27  2  0  0  0
 27 28  1  0  0  0
 28 29  2  0  0  0
 28 30  1  0  0  0
 30 31  1  0  0  0
 31 32  1  0  0  0
 21  1  1  0  0  0
  1  2  2  0  0  0
  2  3  1  0  0  0
  3  4  1  0  0  0
  3  5  2  0  0  0
  5  6  1  0  0  0
  6  7  2  0  0  0
  6  8  1  0  0  0
  8  9  1  0  0  0
  9 10  1  0  0  0
 10 11  1  0  0  0
 11 12  1  0  0  0
 12 13  1  0  0  0
 13 14  1  0  0  0
  9 15  1  0  0  0
 15 16  1  0  0  0
 16 17  1  0  0  0
 29 24  1  0  0  0
  7  1  1  0  0  0
 14  9  1  0  0  0
 32 27  1  0  0  0
 17  5  1  0  0  0
 22 23  1  0  0  0
 31 33  1  0  0  0
 12 18  1  0  0  0
 17 19  1  0  0  0
M  END
> <minimizedAffinity>
-9.66623

> <minimizedRMSD>
0.16053

$$$$
P26738


 33 37  0  0  0  0  0  0  0  0999 V2000
   -7.2092    4.9091  -14.5153 C   0  0  0  0  0  0  0  0  0  0  0  0
   -8.3449    4.3339  -15.2173 C   0  0  0  0  0  0  0  0  0  0  0  0
   -8.3426    4.1740  -16.5499 C   0  0  0  0  0  0  0  0  0  0  0  0
   -9.6840    3.5849  -17.4028 Cl  0  0  0  0  0  0  0  0  0  0  0  0
   -7.1655    4.5731  -17.3466 C   0  0  0  0  0  0  0  0  0  0  0  0
   -6.0281    5.1197  -16.5983 C   0  0  0  0  0  0  0  0  0  0  0  0
   -6.0951    5.2823  -15.1752 C   0  0  0  0  0  0  0  0  0  0  0  0
   -5.1353    5.4139  -17.5469 C   0  0  0  0  0  0  0  0  0  0  0  0
   -5.7549    5.0456  -18.8533 C   0  0  0  0  0  0  0  0  0  0  0  0
   -5.2050    5.2222  -19.9277 O   0  0  0  0  0  0  0  0  0  0  0  0
   -6.9944    4.5246  -18.6216 N   0  0  0  0  0  0  0  0  0  0  0  0
   -3.7570    5.9963  -17.5542 C   0  0  0  0  0  0  0  0  0  0  0  0
   -2.7342    5.3370  -16.6233 C   0  0  0  0  0  0  0  0  0  0  0  0
   -1.3422    5.9378  -16.8558 C   0  0  0  0  0  0  0  0  0  0  0  0
   -1.3586    7.3699  -17.1582 N   0  0  0  0  0  0  0  0  0  0  0  0
   -2.5329    8.0479  -16.6324 C   0  0  0  0  0  0  0  0  0  0  0  0
   -3.8116    7.5146  -17.2824 C   0  0  0  0  0  0  0  0  0  0  0  0
   -1.3411    7.4885  -18.1711 H   0  0  0  0  0  0  0  0  0  0  0  0
   -8.0016    4.2028  -12.2697 N   0  0  0  0  0  0  0  0  0  0  0  0
   -7.2857    5.3172  -13.0742 C   0  0  0  0  0  0  0  0  0  0  0  0
   -6.8608    6.3487  -12.7262 O   0  0  0  0  0  0  0  0  0  0  0  0
   -8.3360    3.4526  -12.8124 H   0  0  0  0  0  0  0  0  0  0  0  0
   -8.0579    6.2567   -7.7615 C   0  0  0  0  0  0  0  0  0  0  0  0
   -8.2939    5.0842   -8.6616 C   0  0  0  0  0  0  0  0  0  0  0  0
   -8.0660    5.1879  -10.0440 C   0  0  0  0  0  0  0  0  0  0  0  0
   -8.2491    4.0899  -10.9017 C   0  0  0  0  0  0  0  0  0  0  0  0
   -8.6661    2.8623  -10.3845 C   0  0  0  0  0  0  0  0  0  0  0  0
   -8.8763    2.7614   -9.0164 C   0  0  0  0  0  0  0  0  0  0  0  0
   -8.6908    3.8483   -8.1684 C   0  0  0  0  0  0  0  0  0  0  0  0
   -8.9733    3.4280   -6.7640 C   0  0  0  0  0  0  0  0  0  0  0  0
   -9.4664    2.0369   -6.8237 N   0  0  0  0  0  0  0  0  0  0  0  0
   -9.2703    1.5651   -8.2179 C   0  0  0  0  0  0  0  0  0  0  0  0
  -10.4562    2.0055   -6.5795 H   0  0  0  0  0  0  0  0  0  0  0  0
 23 24  1  0  0  0
 24 25  2  0  0  0
 25 26  1  0  0  0
 26 19  1  0  0  0
 19 20  1  0  0  0
 20 21  2  0  0  0
 20  1  1  0  0  0
  1  2  1  0  0  0
  2  3  2  0  0  0
  3  4  1  0  0  0
  3  5  1  0  0  0
  5  6  1  0  0  0
  6  7  1  0  0  0
  6  8  2  0  0  0
  8 12  1  0  0  0
 12 13  1  0  0  0
 13 14  1  0  0  0
 14 15  1  0  0  0
 15 16  1  0  0  0
 16 17  1  0  0  0
  8  9  1  0  0  0
  9 10  2  0  0  0
  9 11  1  0  0  0
 26 27  2  0  0  0
 27 28  1  0  0  0
 28 29  2  0  0  0
 29 30  1  0  0  0
 30 31  1  0  0  0
 31 32  1  0  0  0
 29 24  1  0  0  0
  7  1  2  0  0  0
 17 12  1  0  0  0
 32 28  1  0  0  0
 11  5  2  0  0  0
 19 22  1  0  0  0
 15 18  1  0  0  0
 31 33  1  0  0  0
M  END
> <minimizedAffinity>
-9.62678

> <minimizedRMSD>
0.52453

$$$$
P26739


 34 38  0  0  0  0  0  0  0  0999 V2000
   -7.9891    4.8911  -14.8222 C   0  0  0  0  0  0  0  0  0  0  0  0
   -8.9168    4.4331  -15.7531 C   0  0  0  0  0  0  0  0  0  0  0  0
   -8.5389    4.2963  -17.0911 C   0  0  0  0  0  0  0  0  0  0  0  0
   -9.6934    3.8712  -18.2746 Cl  0  0  0  0  0  0  0  0  0  0  0  0
   -7.2298    4.6142  -17.4678 C   0  0  0  0  0  0  0  0  0  0  0  0
   -6.6331    4.6496  -18.7082 N   0  0  0  0  0  0  0  0  0  0  0  0
   -5.3209    5.0256  -18.5843 C   0  0  0  0  0  0  0  0  0  0  0  0
   -5.0601    5.2813  -17.2533 C   0  0  0  0  0  0  0  0  0  0  0  0
   -6.2755    5.0290  -16.5423 C   0  0  0  0  0  0  0  0  0  0  0  0
   -6.6638    5.1637  -15.1959 C   0  0  0  0  0  0  0  0  0  0  0  0
   -7.0823    4.4365  -19.5580 H   0  0  0  0  0  0  0  0  0  0  0  0
   -3.7664    5.7462  -16.6522 C   0  0  0  0  0  0  0  0  0  0  0  0
   -3.7292    7.2519  -16.3841 C   0  0  0  0  0  0  0  0  0  0  0  0
   -2.4427    7.6238  -15.6398 C   0  0  0  0  0  0  0  0  0  0  0  0
   -1.2682    6.8234  -16.0029 N   0  0  0  0  0  0  0  0  0  0  0  0
   -1.3788    6.2912  -17.3625 C   0  0  0  0  0  0  0  0  0  0  0  0
   -2.5514    5.3165  -17.4911 C   0  0  0  0  0  0  0  0  0  0  0  0
   -1.1826    6.0455  -15.3487 H   0  0  0  0  0  0  0  0  0  0  0  0
   -7.8841    4.3441  -12.3629 N   0  0  0  0  0  0  0  0  0  0  0  0
   -8.4014    5.3067  -13.4581 C   0  0  0  0  0  0  0  0  0  0  0  0
   -9.0190    6.2936  -13.3684 O   0  0  0  0  0  0  0  0  0  0  0  0
   -7.3149    3.6119  -12.6932 H   0  0  0  0  0  0  0  0  0  0  0  0
   -7.8949    5.3901  -10.0218 C   0  0  0  0  0  0  0  0  0  0  0  0
   -8.1722    5.1693   -8.6517 C   0  0  0  0  0  0  0  0  0  0  0  0
   -8.6115    3.9345   -8.2234 C   0  0  0  0  0  0  0  0  0  0  0  0
   -8.7815    2.9037   -9.1224 C   0  0  0  0  0  0  0  0  0  0  0  0
   -8.5452    3.0919  -10.4771 C   0  0  0  0  0  0  0  0  0  0  0  0
   -8.0961    4.3445  -10.9619 C   0  0  0  0  0  0  0  0  0  0  0  0
   -9.1688    1.6675   -8.3846 C   0  0  0  0  0  0  0  0  0  0  0  0
   -9.4060    2.0787   -6.9752 N   0  0  0  0  0  0  0  0  0  0  0  0
   -8.9229    3.4685   -6.8450 C   0  0  0  0  0  0  0  0  0  0  0  0
   -8.8915    1.4679   -6.3406 H   0  0  0  0  0  0  0  0  0  0  0  0
   -8.6966    7.9943  -10.2393 C   0  0  0  0  0  0  0  0  0  0  0  0
   -7.1807    7.0099  -10.2864 S   0  0  0  0  0  0  0  0  0  0  0  0
 33 34  1  0  0  0
 34 23  1  0  0  0
 23 24  2  0  0  0
 24 25  1  0  0  0
 25 26  2  0  0  0
 26 27  1  0  0  0
 27 28  2  0  0  0
 28 19  1  0  0  0
 19 20  1  0  0  0
 20 21  2  0  0  0
 20  1  1  0  0  0
  1  2  2  0  0  0
  2  3  1  0  0  0
  3  4  1  0  0  0
  3  5  2  0  0  0
  5  6  1  0  0  0
  6  7  1  0  0  0
  7  8  2  0  0  0
  8 12  1  0  0  0
 12 13  1  0  0  0
 13 14  1  0  0  0
 14 15  1  0  0  0
 15 16  1  0  0  0
 16 17  1  0  0  0
  8  9  1  0  0  0
  9 10  2  0  0  0
 26 29  1  0  0  0
 29 30  1  0  0  0
 30 31  1  0  0  0
 28 23  1  0  0  0
 10  1  1  0  0  0
 31 25  1  0  0  0
  9  5  1  0  0  0
 17 12  1  0  0  0
 19 22  1  0  0  0
  6 11  1  0  0  0
 15 18  1  0  0  0
 30 32  1  0  0  0
M  END
> <minimizedAffinity>
-8.99928

> <minimizedRMSD>
0.99486

$$$$
P26741


 38 42  0  0  0  0  0  0  0  0999 V2000
   -5.2446    5.4377  -17.9394 C   0  0  0  0  0  0  0  0  0  0  0  0
   -5.8617    5.0364  -19.1111 C   0  0  0  0  0  0  0  0  0  0  0  0
   -7.1181    4.5734  -18.8126 N   0  0  0  0  0  0  0  0  0  0  0  0
   -7.2951    4.5550  -17.4482 C   0  0  0  0  0  0  0  0  0  0  0  0
   -8.3865    4.1514  -16.6734 C   0  0  0  0  0  0  0  0  0  0  0  0
   -9.8035    3.5667  -17.4176 Cl  0  0  0  0  0  0  0  0  0  0  0  0
   -8.3323    4.2934  -15.2864 C   0  0  0  0  0  0  0  0  0  0  0  0
   -7.2120    4.8697  -14.6990 C   0  0  0  0  0  0  0  0  0  0  0  0
   -6.1265    5.2845  -15.4827 C   0  0  0  0  0  0  0  0  0  0  0  0
   -6.1491    5.1032  -16.8787 C   0  0  0  0  0  0  0  0  0  0  0  0
   -7.7917    4.2960  -19.4749 H   0  0  0  0  0  0  0  0  0  0  0  0
   -2.7877    5.2987  -17.1318 C   0  0  0  0  0  0  0  0  0  0  0  0
   -1.7942    4.9069  -18.2433 C   0  0  0  0  0  0  0  0  0  0  0  0
   -1.1219    6.0433  -18.8696 N   0  0  0  0  0  0  0  0  0  0  0  0
   -2.0001    7.1863  -19.1064 C   0  0  0  0  0  0  0  0  0  0  0  0
   -3.4813    6.8344  -19.0970 C   0  0  0  0  0  0  0  0  0  0  0  0
   -3.9212    6.1696  -17.7716 C   0  0  0  0  0  0  0  0  0  0  0  0
   -0.7409    5.7386  -19.7654 H   0  0  0  0  0  0  0  0  0  0  0  0
   -2.1118    5.9841  -15.8507 C   0  0  0  0  0  0  0  0  0  0  0  0
   -0.5708    5.9545  -15.8803 C   0  0  0  0  0  0  0  0  0  0  0  0
   -2.5807    5.2247  -14.5923 C   0  0  0  0  0  0  0  0  0  0  0  0
   -2.5645    7.3518  -15.7790 O   0  0  0  0  0  0  0  0  0  0  0  0
   -4.4485    8.5116  -14.9172 C   0  0  0  0  0  0  0  0  0  0  0  0
   -3.1483    7.8117  -14.5662 C   0  0  0  0  0  0  0  0  0  0  0  0
   -7.1726    5.2017  -13.2513 C   0  0  0  0  0  0  0  0  0  0  0  0
   -6.4868    6.0849  -12.9140 O   0  0  0  0  0  0  0  0  0  0  0  0
   -8.0827    4.2675  -12.4228 N   0  0  0  0  0  0  0  0  0  0  0  0
   -8.6252    3.6420  -12.9554 H   0  0  0  0  0  0  0  0  0  0  0  0
   -8.2606    4.1662  -11.0439 C   0  0  0  0  0  0  0  0  0  0  0  0
   -8.0586    5.2769  -10.2083 C   0  0  0  0  0  0  0  0  0  0  0  0
   -8.2222    5.1733   -8.8235 C   0  0  0  0  0  0  0  0  0  0  0  0
   -8.6024    3.9520   -8.2992 C   0  0  0  0  0  0  0  0  0  0  0  0
   -8.8073    2.8529   -9.1232 C   0  0  0  0  0  0  0  0  0  0  0  0
   -8.6368    2.9371  -10.4972 C   0  0  0  0  0  0  0  0  0  0  0  0
   -9.1800    1.6730   -8.2922 C   0  0  0  0  0  0  0  0  0  0  0  0
   -9.3722    2.1831   -6.9082 N   0  0  0  0  0  0  0  0  0  0  0  0
   -8.8492    3.5655   -6.8820 C   0  0  0  0  0  0  0  0  0  0  0  0
   -8.8590    1.6016   -6.2458 H   0  0  0  0  0  0  0  0  0  0  0  0
 23 24  1  0  0  0
 24 22  1  0  0  0
 22 19  1  0  0  0
 19 20  1  0  0  0
 19 21  1  0  0  0
 12 19  1  0  0  0
 12 13  1  0  0  0
 13 14  1  0  0  0
 14 15  1  0  0  0
 15 16  1  0  0  0
 16 17  1  0  0  0
 17  1  1  0  0  0
  1  2  2  0  0  0
  2  3  1  0  0  0
  3  4  1  0  0  0
  4  5  2  0  0  0
  5  6  1  0  0  0
  5  7  1  0  0  0
  7  8  2  0  0  0
  8 25  1  0  0  0
 25 26  2  0  0  0
 25 27  1  0  0  0
 27 29  1  0  0  0
 29 30  2  0  0  0
 30 31  1  0  0  0
 31 32  2  0  0  0
 32 33  1  0  0  0
 33 34  2  0  0  0
 33 35  1  0  0  0
 35 36  1  0  0  0
 36 37  1  0  0  0
  8  9  1  0  0  0
  9 10  2  0  0  0
 17 12  1  0  0  0
 10  1  1  0  0  0
 10  4  1  0  0  0
 34 29  1  0  0  0
 37 32  1  0  0  0
 14 18  1  0  0  0
  3 11  1  0  0  0
 27 28  1  0  0  0
 36 38  1  0  0  0
M  END
> <minimizedAffinity>
-9.01486

> <minimizedRMSD>
0.74306

$$$$
P26743


 32 37  0  0  0  0  0  0  0  0999 V2000
   -7.0161    4.9162  -14.5840 C   0  0  0  0  0  0  0  0  0  0  0  0
   -8.1946    4.3869  -15.2537 C   0  0  0  0  0  0  0  0  0  0  0  0
   -8.2745    4.2654  -16.5928 C   0  0  0  0  0  0  0  0  0  0  0  0
   -9.7105    3.7574  -17.3593 Cl  0  0  0  0  0  0  0  0  0  0  0  0
   -7.1048    4.6271  -17.4362 C   0  0  0  0  0  0  0  0  0  0  0  0
   -5.9242    5.0961  -16.6786 C   0  0  0  0  0  0  0  0  0  0  0  0
   -5.9112    5.2533  -15.2684 C   0  0  0  0  0  0  0  0  0  0  0  0
   -5.0472    5.3630  -17.6244 C   0  0  0  0  0  0  0  0  0  0  0  0
   -5.6343    4.9850  -18.8904 C   0  0  0  0  0  0  0  0  0  0  0  0
   -4.8703    5.0303  -19.9309 N   0  0  0  0  0  0  0  0  0  0  0  0
   -3.5031    5.2681  -19.3226 C   0  0  0  0  0  0  0  0  0  0  0  0
   -2.6611    6.1936  -20.2073 C   0  0  0  0  0  0  0  0  0  0  0  0
   -1.6626    6.9177  -19.4109 N   0  0  0  0  0  0  0  0  0  0  0  0
   -2.2863    7.8577  -18.4828 C   0  0  0  0  0  0  0  0  0  0  0  0
   -3.6387    7.3835  -17.9450 C   0  0  0  0  0  0  0  0  0  0  0  0
   -3.7026    5.8566  -17.9024 C   0  0  0  0  0  0  0  0  0  0  0  0
   -6.9315    4.6149  -18.7226 N   0  0  0  0  0  0  0  0  0  0  0  0
   -1.0490    7.4341  -20.0412 H   0  0  0  0  0  0  0  0  0  0  0  0
   -6.2565    6.1072  -12.7434 O   0  0  0  0  0  0  0  0  0  0  0  0
   -6.9919    5.2920  -13.1402 C   0  0  0  0  0  0  0  0  0  0  0  0
   -7.9886    4.3869  -12.3810 N   0  0  0  0  0  0  0  0  0  0  0  0
   -8.5580    3.8270  -12.9569 H   0  0  0  0  0  0  0  0  0  0  0  0
   -8.2122    4.2345  -11.0152 C   0  0  0  0  0  0  0  0  0  0  0  0
   -8.0340    5.3159  -10.1341 C   0  0  0  0  0  0  0  0  0  0  0  0
   -8.2554    5.1703   -8.7619 C   0  0  0  0  0  0  0  0  0  0  0  0
   -8.6836    3.9413   -8.3020 C   0  0  0  0  0  0  0  0  0  0  0  0
   -8.8554    2.8676   -9.1724 C   0  0  0  0  0  0  0  0  0  0  0  0
   -8.6115    2.9883  -10.5300 C   0  0  0  0  0  0  0  0  0  0  0  0
   -9.3020    1.6796   -8.3874 C   0  0  0  0  0  0  0  0  0  0  0  0
   -9.7757    2.2344   -7.0927 N   0  0  0  0  0  0  0  0  0  0  0  0
   -9.0391    3.5058   -6.9194 C   0  0  0  0  0  0  0  0  0  0  0  0
   -9.5634    1.5917   -6.3296 H   0  0  0  0  0  0  0  0  0  0  0  0
 19 20  2  0  0  0
 20 21  1  0  0  0
 21 23  1  0  0  0
 23 24  2  0  0  0
 24 25  1  0  0  0
 25 26  2  0  0  0
 26 27  1  0  0  0
 27 28  2  0  0  0
 27 29  1  0  0  0
 29 30  1  0  0  0
 30 31  1  0  0  0
 20  1  1  0  0  0
  1  2  1  0  0  0
  2  3  2  0  0  0
  3  4  1  0  0  0
  3  5  1  0  0  0
  5  6  1  0  0  0
  6  7  1  0  0  0
  6  8  2  0  0  0
  8  9  1  0  0  0
  9 10  2  0  0  0
 10 11  1  0  0  0
 11 12  1  0  0  0
 12 13  1  0  0  0
 13 14  1  0  0  0
 14 15  1  0  0  0
 16 15  1  0  0  0
  9 17  1  0  0  0
 28 23  1  0  0  0
  7  1  2  0  0  0
 16  8  1  0  0  0
 31 26  1  0  0  0
 17  5  2  0  0  0
 16 11  1  0  0  0
 21 22  1  0  0  0
 30 32  1  0  0  0
 13 18  1  0  0  0
M  END
> <minimizedAffinity>
-9.87137

> <minimizedRMSD>
0.57188

$$$$
P26745


 34 38  0  0  0  0  0  0  0  0999 V2000
   -7.0157    4.8314  -14.7711 C   0  0  0  0  0  0  0  0  0  0  0  0
   -8.1867    4.3236  -15.3342 C   0  0  0  0  0  0  0  0  0  0  0  0
   -8.2879    4.1934  -16.7154 C   0  0  0  0  0  0  0  0  0  0  0  0
   -9.7265    3.6259  -17.4401 Cl  0  0  0  0  0  0  0  0  0  0  0  0
   -7.2195    4.5914  -17.5177 C   0  0  0  0  0  0  0  0  0  0  0  0
   -7.1249    4.6233  -18.8884 N   0  0  0  0  0  0  0  0  0  0  0  0
   -5.8954    5.0793  -19.2554 C   0  0  0  0  0  0  0  0  0  0  0  0
   -5.1755    5.3816  -18.1161 C   0  0  0  0  0  0  0  0  0  0  0  0
   -6.0240    5.0853  -16.9930 C   0  0  0  0  0  0  0  0  0  0  0  0
   -5.9259    5.2084  -15.5851 C   0  0  0  0  0  0  0  0  0  0  0  0
   -7.8389    4.3565  -19.5115 H   0  0  0  0  0  0  0  0  0  0  0  0
   -3.7822    5.9305  -18.1663 C   0  0  0  0  0  0  0  0  0  0  0  0
   -3.6482    7.2976  -17.4974 C   0  0  0  0  0  0  0  0  0  0  0  0
   -2.2232    7.8215  -17.6552 C   0  0  0  0  0  0  0  0  0  0  0  0
   -1.2416    6.8705  -17.1359 N   0  0  0  0  0  0  0  0  0  0  0  0
   -1.3344    5.5710  -17.8056 C   0  0  0  0  0  0  0  0  0  0  0  0
   -2.7246    4.9587  -17.6463 C   0  0  0  0  0  0  0  0  0  0  0  0
   -1.4051    6.7396  -16.1376 H   0  0  0  0  0  0  0  0  0  0  0  0
   -7.6718    4.0386  -12.4677 N   0  0  0  0  0  0  0  0  0  0  0  0
   -6.9811    5.1436  -13.3104 C   0  0  0  0  0  0  0  0  0  0  0  0
   -6.5222    6.1688  -12.9852 O   0  0  0  0  0  0  0  0  0  0  0  0
   -7.9078    3.2248  -12.9691 H   0  0  0  0  0  0  0  0  0  0  0  0
   -9.2421    3.6515   -7.0323 C   0  0  0  0  0  0  0  0  0  0  0  0
   -9.7582    2.2562   -7.0858 N   0  0  0  0  0  0  0  0  0  0  0  0
   -9.3233    1.6683   -8.3781 C   0  0  0  0  0  0  0  0  0  0  0  0
   -8.8389    2.8090   -9.2064 C   0  0  0  0  0  0  0  0  0  0  0  0
   -8.4831    2.8188  -10.5513 C   0  0  0  0  0  0  0  0  0  0  0  0
   -8.0134    4.0108  -11.1125 C   0  0  0  0  0  0  0  0  0  0  0  0
   -7.9241    5.1629  -10.3172 C   0  0  0  0  0  0  0  0  0  0  0  0
   -8.3024    5.1418   -8.9677 C   0  0  0  0  0  0  0  0  0  0  0  0
   -8.7523    3.9531   -8.4188 C   0  0  0  0  0  0  0  0  0  0  0  0
  -10.7766    2.2592   -7.0298 H   0  0  0  0  0  0  0  0  0  0  0  0
   -8.3133    5.1199   -5.1621 C   0  0  0  0  0  0  0  0  0  0  0  0
   -8.1895    3.8058   -5.9259 C   0  0  0  0  0  0  0  0  0  0  0  0
 33 34  1  0  0  0
 23 34  1  0  0  0
 23 24  1  0  0  0
 24 25  1  0  0  0
 25 26  1  0  0  0
 26 27  2  0  0  0
 27 28  1  0  0  0
 28 19  1  0  0  0
 19 20  1  0  0  0
 20 21  2  0  0  0
 20  1  1  0  0  0
  1  2  2  0  0  0
  2  3  1  0  0  0
  3  4  1  0  0  0
  3  5  2  0  0  0
  5  6  1  0  0  0
  6  7  1  0  0  0
  7  8  2  0  0  0
  8 12  1  0  0  0
 12 13  1  0  0  0
 13 14  1  0  0  0
 14 15  1  0  0  0
 15 16  1  0  0  0
 16 17  1  0  0  0
  8  9  1  0  0  0
  9 10  2  0  0  0
 28 29  2  0  0  0
 29 30  1  0  0  0
 30 31  2  0  0  0
 31 23  1  0  0  0
 31 26  1  0  0  0
 10  1  1  0  0  0
  9  5  1  0  0  0
 17 12  1  0  0  0
 24 32  1  0  0  0
 19 22  1  0  0  0
  6 11  1  0  0  0
 15 18  1  0  0  0
M  END
> <minimizedAffinity>
-9.16412

> <minimizedRMSD>
0.36787

$$$$
P26746


 34 38  0  0  0  0  0  0  0  0999 V2000
   -5.6070    5.0924  -18.9293 C   0  0  0  0  0  0  0  0  0  0  0  0
   -6.9016    4.6728  -18.7432 N   0  0  0  0  0  0  0  0  0  0  0  0
   -7.2136    4.6314  -17.4014 C   0  0  0  0  0  0  0  0  0  0  0  0
   -8.3805    4.2143  -16.7447 C   0  0  0  0  0  0  0  0  0  0  0  0
   -9.7184    3.6122  -17.6234 Cl  0  0  0  0  0  0  0  0  0  0  0  0
   -8.4824    4.3770  -15.3616 C   0  0  0  0  0  0  0  0  0  0  0  0
   -7.4276    4.9478  -14.6542 C   0  0  0  0  0  0  0  0  0  0  0  0
   -6.2432    5.3291  -15.3136 C   0  0  0  0  0  0  0  0  0  0  0  0
   -6.1251    5.1661  -16.7123 C   0  0  0  0  0  0  0  0  0  0  0  0
   -5.1117    5.4687  -17.6849 C   0  0  0  0  0  0  0  0  0  0  0  0
   -7.5220    4.4341  -19.4693 H   0  0  0  0  0  0  0  0  0  0  0  0
   -3.7663    6.1119  -17.4803 C   0  0  0  0  0  0  0  0  0  0  0  0
   -3.8490    7.5711  -17.0339 C   0  0  0  0  0  0  0  0  0  0  0  0
   -2.4465    8.1721  -16.9745 C   0  0  0  0  0  0  0  0  0  0  0  0
   -1.5683    7.3879  -16.1088 N   0  0  0  0  0  0  0  0  0  0  0  0
   -1.4585    5.9940  -16.5421 C   0  0  0  0  0  0  0  0  0  0  0  0
   -2.8259    5.3116  -16.5848 C   0  0  0  0  0  0  0  0  0  0  0  0
   -1.9411    7.4076  -15.1596 H   0  0  0  0  0  0  0  0  0  0  0  0
   -7.5898    5.3331  -13.2226 C   0  0  0  0  0  0  0  0  0  0  0  0
   -7.5142    6.4701  -12.9620 O   0  0  0  0  0  0  0  0  0  0  0  0
   -7.8480    4.1089  -12.3093 N   0  0  0  0  0  0  0  0  0  0  0  0
   -7.7892    3.2369  -12.7625 H   0  0  0  0  0  0  0  0  0  0  0  0
   -8.1507    4.0410  -10.9471 C   0  0  0  0  0  0  0  0  0  0  0  0
   -7.9686    5.1554  -10.1119 C   0  0  0  0  0  0  0  0  0  0  0  0
   -8.2327    5.0795   -8.7395 C   0  0  0  0  0  0  0  0  0  0  0  0
   -8.6695    3.8751   -8.2202 C   0  0  0  0  0  0  0  0  0  0  0  0
   -8.8629    2.7732   -9.0415 C   0  0  0  0  0  0  0  0  0  0  0  0
   -8.6214    2.8390  -10.4084 C   0  0  0  0  0  0  0  0  0  0  0  0
   -9.3039    1.6117   -8.2172 C   0  0  0  0  0  0  0  0  0  0  0  0
   -9.4250    2.1028   -6.8177 N   0  0  0  0  0  0  0  0  0  0  0  0
   -8.9869    3.5148   -6.8106 C   0  0  0  0  0  0  0  0  0  0  0  0
   -8.8307    1.5494   -6.2005 H   0  0  0  0  0  0  0  0  0  0  0  0
   -4.8769    6.0925  -20.9818 O   0  0  0  0  0  0  0  0  0  0  0  0
   -4.9334    5.1390  -20.2114 C   0  0  0  0  0  0  0  0  0  0  0  0
 33 34  2  0  0  0
 34  1  1  0  0  0
  1  2  1  0  0  0
  2  3  1  0  0  0
  3  4  2  0  0  0
  4  5  1  0  0  0
  4  6  1  0  0  0
  6  7  2  0  0  0
  7 19  1  0  0  0
 19 20  2  0  0  0
 19 21  1  0  0  0
 21 23  1  0  0  0
 23 24  2  0  0  0
 24 25  1  0  0  0
 25 26  2  0  0  0
 26 27  1  0  0  0
 27 28  2  0  0  0
 27 29  1  0  0  0
 29 30  1  0  0  0
 30 31  1  0  0  0
  7  8  1  0  0  0
  8  9  2  0  0  0
  9 10  1  0  0  0
 10 12  1  0  0  0
 12 13  1  0  0  0
 13 14  1  0  0  0
 14 15  1  0  0  0
 15 16  1  0  0  0
 16 17  1  0  0  0
 10  1  2  0  0  0
 17 12  1  0  0  0
  9  3  1  0  0  0
 28 23  1  0  0  0
 31 26  1  0  0  0
  2 11  1  0  0  0
 21 22  1  0  0  0
 30 32  1  0  0  0
 15 18  1  0  0  0
M  END
> <minimizedAffinity>
-9.41059

> <minimizedRMSD>
0.64234

$$$$
P26747


 32 36  0  0  0  0  0  0  0  0999 V2000
   -5.1621    5.3596  -18.0587 C   0  0  0  0  0  0  0  0  0  0  0  0
   -5.8345    5.0193  -19.2150 C   0  0  0  0  0  0  0  0  0  0  0  0
   -7.0790    4.5697  -18.8861 N   0  0  0  0  0  0  0  0  0  0  0  0
   -7.2321    4.5720  -17.5218 C   0  0  0  0  0  0  0  0  0  0  0  0
   -8.3391    4.2137  -16.7513 C   0  0  0  0  0  0  0  0  0  0  0  0
   -9.7920    3.7095  -17.4932 Cl  0  0  0  0  0  0  0  0  0  0  0  0
   -8.2813    4.3729  -15.3723 C   0  0  0  0  0  0  0  0  0  0  0  0
   -7.1263    4.8812  -14.7798 C   0  0  0  0  0  0  0  0  0  0  0  0
   -6.0047    5.2286  -15.5594 C   0  0  0  0  0  0  0  0  0  0  0  0
   -6.0521    5.0725  -16.9651 C   0  0  0  0  0  0  0  0  0  0  0  0
   -7.7660    4.2855  -19.5314 H   0  0  0  0  0  0  0  0  0  0  0  0
   -1.3516    7.1097  -15.5290 C   0  0  0  0  0  0  0  0  0  0  0  0
   -1.2936    7.0848  -16.9896 N   0  0  0  0  0  0  0  0  0  0  0  0
   -2.3195    7.9364  -17.6018 C   0  0  0  0  0  0  0  0  0  0  0  0
   -3.7375    7.3708  -17.5109 C   0  0  0  0  0  0  0  0  0  0  0  0
   -3.7815    5.9481  -18.0697 C   0  0  0  0  0  0  0  0  0  0  0  0
   -2.7273    5.0573  -17.4148 C   0  0  0  0  0  0  0  0  0  0  0  0
   -1.3476    5.7145  -17.5209 C   0  0  0  0  0  0  0  0  0  0  0  0
   -7.1570    5.2495  -13.3353 C   0  0  0  0  0  0  0  0  0  0  0  0
   -6.7380    6.2985  -13.0334 O   0  0  0  0  0  0  0  0  0  0  0  0
   -7.8592    4.1634  -12.4798 N   0  0  0  0  0  0  0  0  0  0  0  0
   -8.1909    3.3885  -12.9886 H   0  0  0  0  0  0  0  0  0  0  0  0
   -8.0974    4.1058  -11.1067 C   0  0  0  0  0  0  0  0  0  0  0  0
   -7.8969    5.2265  -10.2844 C   0  0  0  0  0  0  0  0  0  0  0  0
   -8.1872    5.1761   -8.9155 C   0  0  0  0  0  0  0  0  0  0  0  0
   -8.6699    3.9915   -8.3924 C   0  0  0  0  0  0  0  0  0  0  0  0
   -8.8506    2.8729   -9.1998 C   0  0  0  0  0  0  0  0  0  0  0  0
   -8.5803    2.9127  -10.5586 C   0  0  0  0  0  0  0  0  0  0  0  0
   -9.3142    1.7350   -8.3512 C   0  0  0  0  0  0  0  0  0  0  0  0
   -9.7827    2.3616   -7.0872 N   0  0  0  0  0  0  0  0  0  0  0  0
   -9.0529    3.6461   -6.9916 C   0  0  0  0  0  0  0  0  0  0  0  0
   -9.5615    1.7653   -6.2898 H   0  0  0  0  0  0  0  0  0  0  0  0
 12 13  1  0  0  0
 13 14  1  0  0  0
 14 15  1  0  0  0
 15 16  1  0  0  0
 16  1  1  0  0  0
  1  2  2  0  0  0
  2  3  1  0  0  0
  3  4  1  0  0  0
  4  5  2  0  0  0
  5  6  1  0  0  0
  5  7  1  0  0  0
  7  8  2  0  0  0
  8 19  1  0  0  0
 19 20  2  0  0  0
 19 21  1  0  0  0
 21 23  1  0  0  0
 23 24  2  0  0  0
 24 25  1  0  0  0
 25 26  2  0  0  0
 26 27  1  0  0  0
 27 28  2  0  0  0
 27 29  1  0  0  0
 29 30  1  0  0  0
 30 31  1  0  0  0
  8  9  1  0  0  0
  9 10  2  0  0  0
 16 17  1  0  0  0
 17 18  1  0  0  0
 18 13  1  0  0  0
 10  1  1  0  0  0
 10  4  1  0  0  0
 28 23  1  0  0  0
 31 26  1  0  0  0
  3 11  1  0  0  0
 21 22  1  0  0  0
 30 32  1  0  0  0
M  END
> <minimizedAffinity>
-9.45841

> <minimizedRMSD>
0.27160

$$$$
P26748


 33 37  0  0  0  0  0  0  0  0999 V2000
   -6.9532    4.7248  -14.6543 C   0  0  0  0  0  0  0  0  0  0  0  0
   -8.1920    4.3177  -15.1743 C   0  0  0  0  0  0  0  0  0  0  0  0
   -8.3946    4.2948  -16.5530 C   0  0  0  0  0  0  0  0  0  0  0  0
   -9.9351    3.9349  -17.1766 Cl  0  0  0  0  0  0  0  0  0  0  0  0
   -7.3763    4.6735  -17.4026 C   0  0  0  0  0  0  0  0  0  0  0  0
   -6.1398    5.0974  -16.9031 C   0  0  0  0  0  0  0  0  0  0  0  0
   -5.9166    5.1268  -15.5250 C   0  0  0  0  0  0  0  0  0  0  0  0
   -5.3233    5.4714  -18.0598 C   0  0  0  0  0  0  0  0  0  0  0  0
   -6.0793    5.2566  -19.1542 C   0  0  0  0  0  0  0  0  0  0  0  0
   -7.4274    4.7146  -18.8733 N   0  0  0  0  0  0  0  0  0  0  0  0
   -7.4790    3.4707  -19.3661 O   0  0  0  0  0  0  0  0  0  0  0  0
   -6.8004    5.4698  -18.9486 H   0  0  0  0  0  0  0  0  0  0  0  0
   -3.9151    5.9648  -18.1113 C   0  0  0  0  0  0  0  0  0  0  0  0
   -3.6911    7.2496  -17.3105 C   0  0  0  0  0  0  0  0  0  0  0  0
   -2.2522    7.7347  -17.4817 C   0  0  0  0  0  0  0  0  0  0  0  0
   -1.2906    6.6997  -17.1089 N   0  0  0  0  0  0  0  0  0  0  0  0
   -1.4639    5.4841  -17.9084 C   0  0  0  0  0  0  0  0  0  0  0  0
   -2.8702    4.9057  -17.7492 C   0  0  0  0  0  0  0  0  0  0  0  0
   -1.4196    6.4683  -16.1238 H   0  0  0  0  0  0  0  0  0  0  0  0
   -5.9688    5.6419  -12.8051 O   0  0  0  0  0  0  0  0  0  0  0  0
   -6.8127    4.9196  -13.1734 C   0  0  0  0  0  0  0  0  0  0  0  0
   -7.9197    4.1737  -12.3756 N   0  0  0  0  0  0  0  0  0  0  0  0
   -8.5648    3.6783  -12.9303 H   0  0  0  0  0  0  0  0  0  0  0  0
   -8.1481    4.0921  -10.9955 C   0  0  0  0  0  0  0  0  0  0  0  0
   -7.9978    5.2113  -10.1617 C   0  0  0  0  0  0  0  0  0  0  0  0
   -8.2620    5.1298   -8.7865 C   0  0  0  0  0  0  0  0  0  0  0  0
   -8.6644    3.9151   -8.2603 C   0  0  0  0  0  0  0  0  0  0  0  0
   -8.8108    2.8027   -9.0768 C   0  0  0  0  0  0  0  0  0  0  0  0
   -8.5714    2.8746  -10.4453 C   0  0  0  0  0  0  0  0  0  0  0  0
   -9.2044    1.6285   -8.2442 C   0  0  0  0  0  0  0  0  0  0  0  0
   -9.4507    2.1482   -6.8749 N   0  0  0  0  0  0  0  0  0  0  0  0
   -8.9874    3.5505   -6.8513 C   0  0  0  0  0  0  0  0  0  0  0  0
   -8.9305    1.5966   -6.1926 H   0  0  0  0  0  0  0  0  0  0  0  0
 20 21  2  0  0  0
 21 22  1  0  0  0
 22 24  1  0  0  0
 24 25  2  0  0  0
 25 26  1  0  0  0
 26 27  2  0  0  0
 27 28  1  0  0  0
 28 29  2  0  0  0
 28 30  1  0  0  0
 30 31  1  0  0  0
 31 32  1  0  0  0
 21  1  1  0  0  0
  1  2  2  0  0  0
  2  3  1  0  0  0
  3  4  1  0  0  0
  3  5  2  0  0  0
  5  6  1  0  0  0
  6  7  2  0  0  0
  6  8  1  0  0  0
  8 13  1  0  0  0
 13 14  1  0  0  0
 14 15  1  0  0  0
 15 16  1  0  0  0
 16 17  1  0  0  0
 17 18  1  0  0  0
  8  9  2  0  0  0
  9 10  1  0  0  0
 10 11  1  0  0  0
 29 24  1  0  0  0
  7  1  1  0  0  0
 18 13  1  0  0  0
 32 27  1  0  0  0
 10  5  1  0  0  0
 22 23  1  0  0  0
 31 33  1  0  0  0
 16 19  1  0  0  0
 10 12  1  0  0  0
M  CHG 1  10   1
M  CHG 1  11  -1
M  END
> <minimizedAffinity>
-9.44224

> <minimizedRMSD>
0.50320

$$$$
P26749


 37 41  0  0  0  0  0  0  0  0999 V2000
   -5.6811    5.4135  -19.3777 C   0  0  0  0  0  0  0  0  0  0  0  0
   -6.8908    4.8315  -19.0845 N   0  0  0  0  0  0  0  0  0  0  0  0
   -7.0800    4.7562  -17.7261 C   0  0  0  0  0  0  0  0  0  0  0  0
   -8.1862    4.3106  -16.9942 C   0  0  0  0  0  0  0  0  0  0  0  0
   -9.6001    3.7552  -17.7775 Cl  0  0  0  0  0  0  0  0  0  0  0  0
   -8.1701    4.4261  -15.6079 C   0  0  0  0  0  0  0  0  0  0  0  0
   -7.0525    4.9619  -14.9723 C   0  0  0  0  0  0  0  0  0  0  0  0
   -5.9259    5.3698  -15.7104 C   0  0  0  0  0  0  0  0  0  0  0  0
   -5.9401    5.2830  -17.1204 C   0  0  0  0  0  0  0  0  0  0  0  0
   -5.0447    5.6871  -18.1713 C   0  0  0  0  0  0  0  0  0  0  0  0
   -7.5348    4.5118  -19.7571 H   0  0  0  0  0  0  0  0  0  0  0  0
   -3.6918    6.3351  -18.0638 C   0  0  0  0  0  0  0  0  0  0  0  0
   -3.6644    7.6429  -17.2792 C   0  0  0  0  0  0  0  0  0  0  0  0
   -2.2656    8.2547  -17.3624 C   0  0  0  0  0  0  0  0  0  0  0  0
   -1.2388    7.3249  -16.8894 N   0  0  0  0  0  0  0  0  0  0  0  0
   -1.2472    6.0682  -17.6444 C   0  0  0  0  0  0  0  0  0  0  0  0
   -2.6075    5.3780  -17.5698 C   0  0  0  0  0  0  0  0  0  0  0  0
   -1.4091    7.1189  -15.9050 H   0  0  0  0  0  0  0  0  0  0  0  0
   -7.1194    5.3083  -13.5260 C   0  0  0  0  0  0  0  0  0  0  0  0
   -6.7479    6.3697  -13.2080 O   0  0  0  0  0  0  0  0  0  0  0  0
   -7.7872    4.1874  -12.6921 N   0  0  0  0  0  0  0  0  0  0  0  0
   -8.0802    3.4051  -13.2130 H   0  0  0  0  0  0  0  0  0  0  0  0
   -8.0412    4.1059  -11.3235 C   0  0  0  0  0  0  0  0  0  0  0  0
   -7.9060    5.2406  -10.5103 C   0  0  0  0  0  0  0  0  0  0  0  0
   -8.1930    5.1768   -9.1451 C   0  0  0  0  0  0  0  0  0  0  0  0
   -8.0334    6.7374   -8.1011 Br  0  0  0  0  0  0  0  0  0  0  0  0
   -8.6071    3.9762   -8.6037 C   0  0  0  0  0  0  0  0  0  0  0  0
   -8.7332    2.8475   -9.4108 C   0  0  0  0  0  0  0  0  0  0  0  0
   -8.4633    2.8937  -10.7713 C   0  0  0  0  0  0  0  0  0  0  0  0
   -9.1477    1.6892   -8.5638 C   0  0  0  0  0  0  0  0  0  0  0  0
   -9.6337    2.2909   -7.2967 N   0  0  0  0  0  0  0  0  0  0  0  0
   -8.9637    3.6075   -7.2023 C   0  0  0  0  0  0  0  0  0  0  0  0
   -9.3793    1.7035   -6.5025 H   0  0  0  0  0  0  0  0  0  0  0  0
   -5.3267    5.7345  -20.7959 C   0  0  0  0  0  0  0  0  0  0  0  0
   -3.4752    6.2538  -22.2252 C   0  0  0  0  0  0  0  0  0  0  0  0
   -3.9201    5.4669  -21.0897 N   0  0  0  0  0  0  0  0  0  0  0  0
   -3.3560    5.7067  -20.2744 H   0  0  0  0  0  0  0  0  0  0  0  0
 35 36  1  0  0  0
 36 34  1  0  0  0
 34  1  1  0  0  0
  1  2  1  0  0  0
  2  3  1  0  0  0
  3  4  2  0  0  0
  4  5  1  0  0  0
  4  6  1  0  0  0
  6  7  2  0  0  0
  7 19  1  0  0  0
 19 20  2  0  0  0
 19 21  1  0  0  0
 21 23  1  0  0  0
 23 24  2  0  0  0
 24 25  1  0  0  0
 25 26  1  0  0  0
 25 27  2  0  0  0
 27 28  1  0  0  0
 28 29  2  0  0  0
 28 30  1  0  0  0
 30 31  1  0  0  0
 31 32  1  0  0  0
  7  8  1  0  0  0
  8  9  2  0  0  0
  9 10  1  0  0  0
 10 12  1  0  0  0
 12 13  1  0  0  0
 13 14  1  0  0  0
 14 15  1  0  0  0
 15 16  1  0  0  0
 16 17  1  0  0  0
 10  1  2  0  0  0
 17 12  1  0  0  0
  9  3  1  0  0  0
 29 23  1  0  0  0
 32 27  1  0  0  0
 36 37  1  0  0  0
  2 11  1  0  0  0
 21 22  1  0  0  0
 31 33  1  0  0  0
 15 18  1  0  0  0
M  END
> <minimizedAffinity>
-8.72994

> <minimizedRMSD>
0.05713

$$$$
P26751


 42 46  0  0  0  0  0  0  0  0999 V2000
   -7.0349    5.0956  -13.1427 C   0  0  0  0  0  0  0  0  0  0  0  0
   -5.8047    4.5335  -12.7320 O   0  0  0  0  0  0  0  0  0  0  0  0
   -5.7015    4.6460  -11.7741 H   0  0  0  0  0  0  0  0  0  0  0  0
   -7.1167    4.8736  -14.6702 C   0  0  0  0  0  0  0  0  0  0  0  0
   -8.2705    4.3695  -15.2900 C   0  0  0  0  0  0  0  0  0  0  0  0
   -8.3328    4.2059  -16.6728 C   0  0  0  0  0  0  0  0  0  0  0  0
   -9.7490    3.6222  -17.4272 Cl  0  0  0  0  0  0  0  0  0  0  0  0
   -7.2401    4.5802  -17.4494 C   0  0  0  0  0  0  0  0  0  0  0  0
   -7.0977    4.5653  -18.8140 N   0  0  0  0  0  0  0  0  0  0  0  0
   -5.8604    5.0173  -19.1510 C   0  0  0  0  0  0  0  0  0  0  0  0
   -5.1826    5.3772  -18.0027 C   0  0  0  0  0  0  0  0  0  0  0  0
   -6.0633    5.0899  -16.9011 C   0  0  0  0  0  0  0  0  0  0  0  0
   -6.0096    5.2264  -15.4918 C   0  0  0  0  0  0  0  0  0  0  0  0
   -7.7871    4.2719  -19.4526 H   0  0  0  0  0  0  0  0  0  0  0  0
   -3.8067    5.9835  -18.0413 C   0  0  0  0  0  0  0  0  0  0  0  0
   -3.5832    6.4110  -19.3389 F   0  0  0  0  0  0  0  0  0  0  0  0
   -3.7157    7.2458  -17.1810 C   0  0  0  0  0  0  0  0  0  0  0  0
   -2.3306    7.8738  -17.3009 C   0  0  0  0  0  0  0  0  0  0  0  0
   -1.2817    6.9236  -16.9323 N   0  0  0  0  0  0  0  0  0  0  0  0
   -1.3366    5.7276  -17.7854 C   0  0  0  0  0  0  0  0  0  0  0  0
   -2.6829    5.0051  -17.7038 C   0  0  0  0  0  0  0  0  0  0  0  0
   -2.6665    3.9778  -18.6012 F   0  0  0  0  0  0  0  0  0  0  0  0
   -1.4089    6.6462  -15.9591 H   0  0  0  0  0  0  0  0  0  0  0  0
   -8.6220    7.1180  -12.9986 N   0  0  0  0  0  0  0  0  0  0  0  0
   -7.1201    6.6959  -12.8885 C   0  0  0  0  0  0  0  0  0  0  0  0
   -6.1677    7.3344  -12.6389 O   0  0  0  0  0  0  0  0  0  0  0  0
   -9.2300    6.4044  -13.2992 H   0  0  0  0  0  0  0  0  0  0  0  0
   -8.3705    9.5955  -13.0182 C   0  0  0  0  0  0  0  0  0  0  0  0
   -9.2669    8.3955  -12.7285 C   0  0  0  0  0  0  0  0  0  0  0  0
  -10.5987    8.5403  -13.4635 C   0  0  0  0  0  0  0  0  0  0  0  0
   -8.1042    4.3285  -12.4610 N   0  0  0  0  0  0  0  0  0  0  0  0
   -8.7866    3.8880  -13.0174 H   0  0  0  0  0  0  0  0  0  0  0  0
   -8.1993    4.1938  -11.0619 C   0  0  0  0  0  0  0  0  0  0  0  0
   -7.9928    5.2522  -10.1540 C   0  0  0  0  0  0  0  0  0  0  0  0
   -8.2343    5.1151   -8.7788 C   0  0  0  0  0  0  0  0  0  0  0  0
   -8.6876    3.9015   -8.3102 C   0  0  0  0  0  0  0  0  0  0  0  0
   -8.8760    2.8351   -9.1773 C   0  0  0  0  0  0  0  0  0  0  0  0
   -8.6641    2.9701  -10.5423 C   0  0  0  0  0  0  0  0  0  0  0  0
   -9.2929    1.6404   -8.3844 C   0  0  0  0  0  0  0  0  0  0  0  0
   -9.7623    2.1893   -7.0846 N   0  0  0  0  0  0  0  0  0  0  0  0
   -9.0485    3.4766   -6.9259 C   0  0  0  0  0  0  0  0  0  0  0  0
   -9.5273    1.5537   -6.3222 H   0  0  0  0  0  0  0  0  0  0  0  0
 28 29  1  0  0  0
 29 30  1  0  0  0
 29 24  1  0  0  0
 24 25  1  0  0  0
 25 26  2  0  0  0
 25  1  1  0  0  0
  1  2  1  0  0  0
  1 31  1  0  0  0
 31 33  1  0  0  0
 33 34  2  0  0  0
 34 35  1  0  0  0
 35 36  2  0  0  0
 36 37  1  0  0  0
 37 38  2  0  0  0
 37 39  1  0  0  0
 39 40  1  0  0  0
 40 41  1  0  0  0
  1  4  1  0  0  0
  4  5  2  0  0  0
  5  6  1  0  0  0
  6  7  1  0  0  0
  6  8  2  0  0  0
  8  9  1  0  0  0
  9 10  1  0  0  0
 10 11  2  0  0  0
 11 15  1  0  0  0
 15 16  1  0  0  0
 15 17  1  0  0  0
 17 18  1  0  0  0
 18 19  1  0  0  0
 19 20  1  0  0  0
 20 21  1  0  0  0
 21 22  1  0  0  0
 11 12  1  0  0  0
 12 13  2  0  0  0
 38 33  1  0  0  0
 13  4  1  0  0  0
 41 36  1  0  0  0
 12  8  1  0  0  0
 21 15  1  0  0  0
 24 27  1  0  0  0
  2  3  1  0  0  0
 31 32  1  0  0  0
 40 42  1  0  0  0
  9 14  1  0  0  0
 19 23  1  0  0  0
M  END
> <minimizedAffinity>
-9.67204

> <minimizedRMSD>
0.33627

$$$$
P26752


 34 39  0  0  0  0  0  0  0  0999 V2000
   -7.7609    4.7615  -14.7051 C   0  0  0  0  0  0  0  0  0  0  0  0
   -8.7694    4.1772  -15.4647 C   0  0  0  0  0  0  0  0  0  0  0  0
   -8.6127    4.0388  -16.8488 C   0  0  0  0  0  0  0  0  0  0  0  0
   -9.9026    3.4611  -17.7965 Cl  0  0  0  0  0  0  0  0  0  0  0  0
   -7.4348    4.4889  -17.4508 C   0  0  0  0  0  0  0  0  0  0  0  0
   -7.0563    4.5843  -18.7932 N   0  0  0  0  0  0  0  0  0  0  0  0
   -5.8202    5.1446  -18.8257 C   0  0  0  0  0  0  0  0  0  0  0  0
   -5.4081    5.4047  -17.5562 C   0  0  0  0  0  0  0  0  0  0  0  0
   -6.4012    5.0214  -16.6688 C   0  0  0  0  0  0  0  0  0  0  0  0
   -6.5529    5.1488  -15.2855 C   0  0  0  0  0  0  0  0  0  0  0  0
   -4.0959    6.0488  -17.5042 C   0  0  0  0  0  0  0  0  0  0  0  0
   -3.5630    5.8100  -18.9734 C   0  0  0  0  0  0  0  0  0  0  0  0
   -2.7434    7.0249  -19.4287 C   0  0  0  0  0  0  0  0  0  0  0  0
   -1.4657    7.1683  -18.5972 C   0  0  0  0  0  0  0  0  0  0  0  0
   -0.6502    5.9652  -18.6810 N   0  0  0  0  0  0  0  0  0  0  0  0
   -1.3616    4.7696  -18.2371 C   0  0  0  0  0  0  0  0  0  0  0  0
   -2.6560    4.5575  -19.0136 C   0  0  0  0  0  0  0  0  0  0  0  0
   -4.8592    5.5496  -19.8714 C   0  0  0  0  0  0  0  0  0  0  0  0
   -7.5878    4.2981  -19.5709 H   0  0  0  0  0  0  0  0  0  0  0  0
    0.1758    6.0895  -18.0956 H   0  0  0  0  0  0  0  0  0  0  0  0
   -7.9002    6.3338  -13.0788 O   0  0  0  0  0  0  0  0  0  0  0  0
   -7.9761    5.1917  -13.3063 C   0  0  0  0  0  0  0  0  0  0  0  0
   -8.2450    4.0017  -12.3660 N   0  0  0  0  0  0  0  0  0  0  0  0
   -8.3375    3.1320  -12.8180 H   0  0  0  0  0  0  0  0  0  0  0  0
   -8.3786    3.9557  -10.9820 C   0  0  0  0  0  0  0  0  0  0  0  0
   -8.0833    5.0857  -10.1993 C   0  0  0  0  0  0  0  0  0  0  0  0
   -8.1934    5.0452   -8.8074 C   0  0  0  0  0  0  0  0  0  0  0  0
   -8.6115    3.8657   -8.2228 C   0  0  0  0  0  0  0  0  0  0  0  0
   -8.9007    2.7467   -8.9950 C   0  0  0  0  0  0  0  0  0  0  0  0
   -8.7869    2.7687  -10.3760 C   0  0  0  0  0  0  0  0  0  0  0  0
   -9.2741    1.6151   -8.1009 C   0  0  0  0  0  0  0  0  0  0  0  0
   -9.4324    2.1992   -6.7437 N   0  0  0  0  0  0  0  0  0  0  0  0
   -8.8182    3.5429   -6.7832 C   0  0  0  0  0  0  0  0  0  0  0  0
   -8.9587    1.6167   -6.0533 H   0  0  0  0  0  0  0  0  0  0  0  0
 21 22  2  0  0  0
 22 23  1  0  0  0
 23 25  1  0  0  0
 25 26  2  0  0  0
 26 27  1  0  0  0
 27 28  2  0  0  0
 28 29  1  0  0  0
 29 30  2  0  0  0
 29 31  1  0  0  0
 31 32  1  0  0  0
 32 33  1  0  0  0
 22  1  1  0  0  0
  1  2  2  0  0  0
  2  3  1  0  0  0
  3  4  1  0  0  0
  3  5  2  0  0  0
  5  6  1  0  0  0
  6  7  1  0  0  0
  7  8  2  0  0  0
  8  9  1  0  0  0
  9 10  2  0  0  0
  8 11  1  0  0  0
 11 12  1  0  0  0
 12 13  1  0  0  0
 13 14  1  0  0  0
 14 15  1  0  0  0
 15 16  1  0  0  0
 16 17  1  0  0  0
 12 18  1  0  0  0
 30 25  1  0  0  0
 10  1  1  0  0  0
 17 12  1  0  0  0
 33 28  1  0  0  0
  9  5  1  0  0  0
 18  7  1  0  0  0
 23 24  1  0  0  0
 32 34  1  0  0  0
  6 19  1  0  0  0
 15 20  1  0  0  0
M  END
> <minimizedAffinity>
-10.58134

> <minimizedRMSD>
0.47020

$$$$
P26755


 37 41  0  0  0  0  0  0  0  0999 V2000
   -5.5376    5.1823  -18.9318 C   0  0  0  0  0  0  0  0  0  0  0  0
   -6.7971    4.6349  -18.7954 N   0  0  0  0  0  0  0  0  0  0  0  0
   -7.1875    4.6080  -17.4796 C   0  0  0  0  0  0  0  0  0  0  0  0
   -8.3864    4.1769  -16.8959 C   0  0  0  0  0  0  0  0  0  0  0  0
   -9.6645    3.5841  -17.8707 Cl  0  0  0  0  0  0  0  0  0  0  0  0
   -8.5697    4.3430  -15.5215 C   0  0  0  0  0  0  0  0  0  0  0  0
   -7.5618    4.9311  -14.7612 C   0  0  0  0  0  0  0  0  0  0  0  0
   -6.3476    5.3255  -15.3529 C   0  0  0  0  0  0  0  0  0  0  0  0
   -6.1537    5.1732  -16.7403 C   0  0  0  0  0  0  0  0  0  0  0  0
   -5.1051    5.5358  -17.6556 C   0  0  0  0  0  0  0  0  0  0  0  0
   -7.3446    4.3063  -19.5447 H   0  0  0  0  0  0  0  0  0  0  0  0
   -3.7952    6.1923  -17.3185 C   0  0  0  0  0  0  0  0  0  0  0  0
   -3.9147    7.6083  -16.7650 C   0  0  0  0  0  0  0  0  0  0  0  0
   -2.5122    8.2045  -16.6222 C   0  0  0  0  0  0  0  0  0  0  0  0
   -1.6362    7.3752  -15.7872 N   0  0  0  0  0  0  0  0  0  0  0  0
   -1.5244    6.0085  -16.3091 C   0  0  0  0  0  0  0  0  0  0  0  0
   -2.8919    5.3385  -16.4256 C   0  0  0  0  0  0  0  0  0  0  0  0
   -2.0185    7.3380  -14.8423 H   0  0  0  0  0  0  0  0  0  0  0  0
   -7.7978    5.3592  -13.3557 C   0  0  0  0  0  0  0  0  0  0  0  0
   -7.9004    6.5081  -13.1656 O   0  0  0  0  0  0  0  0  0  0  0  0
   -7.8584    4.1695  -12.3676 N   0  0  0  0  0  0  0  0  0  0  0  0
   -7.6650    3.2911  -12.7678 H   0  0  0  0  0  0  0  0  0  0  0  0
   -8.1426    4.1394  -11.0014 C   0  0  0  0  0  0  0  0  0  0  0  0
   -7.9303    5.2855  -10.2163 C   0  0  0  0  0  0  0  0  0  0  0  0
   -8.1872    5.2815   -8.8436 C   0  0  0  0  0  0  0  0  0  0  0  0
   -8.6473    4.1133   -8.2666 C   0  0  0  0  0  0  0  0  0  0  0  0
   -8.8643    2.9736   -9.0396 C   0  0  0  0  0  0  0  0  0  0  0  0
   -8.6279    2.9690  -10.4106 C   0  0  0  0  0  0  0  0  0  0  0  0
   -9.3768    1.8724   -8.1641 C   0  0  0  0  0  0  0  0  0  0  0  0
   -9.2928    2.3961   -6.7803 N   0  0  0  0  0  0  0  0  0  0  0  0
  -10.4440    2.0446   -5.9699 C   0  0  0  0  0  0  0  0  0  0  0  0
   -9.0304    3.8433   -6.8413 C   0  0  0  0  0  0  0  0  0  0  0  0
   -7.9450    4.2367   -5.8445 C   0  0  0  0  0  0  0  0  0  0  0  0
   -4.9811    5.3213  -20.3198 C   0  0  0  0  0  0  0  0  0  0  0  0
   -4.9698    6.4891  -22.4644 C   0  0  0  0  0  0  0  0  0  0  0  0
   -5.3603    6.5213  -21.0637 N   0  0  0  0  0  0  0  0  0  0  0  0
   -6.3740    6.6237  -21.0144 H   0  0  0  0  0  0  0  0  0  0  0  0
 35 36  1  0  0  0
 36 34  1  0  0  0
 34  1  1  0  0  0
  1  2  1  0  0  0
  2  3  1  0  0  0
  3  4  2  0  0  0
  4  5  1  0  0  0
  4  6  1  0  0  0
  6  7  2  0  0  0
  7 19  1  0  0  0
 19 20  2  0  0  0
 19 21  1  0  0  0
 21 23  1  0  0  0
 23 24  2  0  0  0
 24 25  1  0  0  0
 25 26  2  0  0  0
 26 27  1  0  0  0
 27 28  2  0  0  0
 27 29  1  0  0  0
 29 30  1  0  0  0
 30 31  1  0  0  0
 30 32  1  0  0  0
 32 33  1  0  0  0
  7  8  1  0  0  0
  8  9  2  0  0  0
  9 10  1  0  0  0
 10 12  1  0  0  0
 12 13  1  0  0  0
 13 14  1  0  0  0
 14 15  1  0  0  0
 15 16  1  0  0  0
 16 17  1  0  0  0
 10  1  2  0  0  0
 17 12  1  0  0  0
  9  3  1  0  0  0
 28 23  1  0  0  0
 32 26  1  0  0  0
 36 37  1  0  0  0
  2 11  1  0  0  0
 21 22  1  0  0  0
 15 18  1  0  0  0
M  END
> <minimizedAffinity>
-9.40703

> <minimizedRMSD>
0.78376

$$$$
P26756


 38 42  0  0  0  0  0  0  0  0999 V2000
   -5.4925    5.0611  -18.8683 C   0  0  0  0  0  0  0  0  0  0  0  0
   -6.7753    4.5980  -18.7307 N   0  0  0  0  0  0  0  0  0  0  0  0
   -7.1552    4.6216  -17.4119 C   0  0  0  0  0  0  0  0  0  0  0  0
   -8.3477    4.1998  -16.8189 C   0  0  0  0  0  0  0  0  0  0  0  0
   -9.6092    3.5422  -17.7661 Cl  0  0  0  0  0  0  0  0  0  0  0  0
   -8.5302    4.3991  -15.4544 C   0  0  0  0  0  0  0  0  0  0  0  0
   -7.5237    5.0028  -14.7020 C   0  0  0  0  0  0  0  0  0  0  0  0
   -6.3116    5.4007  -15.3012 C   0  0  0  0  0  0  0  0  0  0  0  0
   -6.1161    5.2072  -16.6883 C   0  0  0  0  0  0  0  0  0  0  0  0
   -5.0598    5.4940  -17.6221 C   0  0  0  0  0  0  0  0  0  0  0  0
   -7.3442    4.2914  -19.4734 H   0  0  0  0  0  0  0  0  0  0  0  0
   -3.7133    6.1183  -17.3885 C   0  0  0  0  0  0  0  0  0  0  0  0
   -3.7750    7.5966  -17.0106 C   0  0  0  0  0  0  0  0  0  0  0  0
   -2.3607    8.1688  -16.9470 C   0  0  0  0  0  0  0  0  0  0  0  0
   -1.5225    7.4143  -16.0171 N   0  0  0  0  0  0  0  0  0  0  0  0
   -1.4413    5.9955  -16.3707 C   0  0  0  0  0  0  0  0  0  0  0  0
   -2.8250    5.3451  -16.4187 C   0  0  0  0  0  0  0  0  0  0  0  0
   -1.9156    7.4970  -15.0795 H   0  0  0  0  0  0  0  0  0  0  0  0
   -7.7942    5.3992  -13.2898 C   0  0  0  0  0  0  0  0  0  0  0  0
   -7.9236    6.5385  -13.0639 O   0  0  0  0  0  0  0  0  0  0  0  0
   -7.9567    4.1670  -12.3640 N   0  0  0  0  0  0  0  0  0  0  0  0
   -7.8664    3.2971  -12.8160 H   0  0  0  0  0  0  0  0  0  0  0  0
   -8.2102    4.0900  -10.9942 C   0  0  0  0  0  0  0  0  0  0  0  0
   -8.0850    5.2176  -10.1645 C   0  0  0  0  0  0  0  0  0  0  0  0
   -8.3727    5.1350   -8.7937 C   0  0  0  0  0  0  0  0  0  0  0  0
   -8.7894    3.9180   -8.2810 C   0  0  0  0  0  0  0  0  0  0  0  0
   -8.8909    2.7964   -9.0986 C   0  0  0  0  0  0  0  0  0  0  0  0
   -8.6136    2.8638  -10.4551 C   0  0  0  0  0  0  0  0  0  0  0  0
   -9.2762    1.6225   -8.2603 C   0  0  0  0  0  0  0  0  0  0  0  0
   -9.7972    2.2055   -6.9998 N   0  0  0  0  0  0  0  0  0  0  0  0
   -9.1648    3.5368   -6.8849 C   0  0  0  0  0  0  0  0  0  0  0  0
   -9.5413    1.6201   -6.2046 H   0  0  0  0  0  0  0  0  0  0  0  0
   -8.2337    6.2741   -7.9393 C   0  0  0  0  0  0  0  0  0  0  0  0
   -8.1717    7.2080   -7.2523 N   0  0  0  0  0  0  0  0  0  0  0  0
   -4.7921    4.9739  -20.1836 C   0  0  0  0  0  0  0  0  0  0  0  0
   -5.1470    7.2416  -21.0265 C   0  0  0  0  0  0  0  0  0  0  0  0
   -5.3563    5.8235  -21.2255 N   0  0  0  0  0  0  0  0  0  0  0  0
   -4.9312    5.5610  -22.1147 H   0  0  0  0  0  0  0  0  0  0  0  0
 36 37  1  0  0  0
 37 35  1  0  0  0
 35  1  1  0  0  0
  1  2  1  0  0  0
  2  3  1  0  0  0
  3  4  2  0  0  0
  4  5  1  0  0  0
  4  6  1  0  0  0
  6  7  2  0  0  0
  7 19  1  0  0  0
 19 20  2  0  0  0
 19 21  1  0  0  0
 21 23  1  0  0  0
 23 24  2  0  0  0
 24 25  1  0  0  0
 25 33  1  0  0  0
 33 34  3  0  0  0
 25 26  2  0  0  0
 26 27  1  0  0  0
 27 28  2  0  0  0
 27 29  1  0  0  0
 29 30  1  0  0  0
 30 31  1  0  0  0
  7  8  1  0  0  0
  8  9  2  0  0  0
  9 10  1  0  0  0
 10 12  1  0  0  0
 12 13  1  0  0  0
 13 14  1  0  0  0
 14 15  1  0  0  0
 15 16  1  0  0  0
 16 17  1  0  0  0
 10  1  2  0  0  0
 17 12  1  0  0  0
  9  3  1  0  0  0
 28 23  1  0  0  0
 31 26  1  0  0  0
 37 38  1  0  0  0
  2 11  1  0  0  0
 21 22  1  0  0  0
 30 32  1  0  0  0
 15 18  1  0  0  0
M  END
> <minimizedAffinity>
-9.13428

> <minimizedRMSD>
0.55290

$$$$
P26757


 38 42  0  0  0  0  0  0  0  0999 V2000
   -5.3450    5.3178  -19.0483 C   0  0  0  0  0  0  0  0  0  0  0  0
   -6.6017    4.7426  -18.9487 N   0  0  0  0  0  0  0  0  0  0  0  0
   -6.9935    4.6571  -17.6310 C   0  0  0  0  0  0  0  0  0  0  0  0
   -8.2068    4.2770  -17.0406 C   0  0  0  0  0  0  0  0  0  0  0  0
   -9.5285    3.7409  -17.9751 Cl  0  0  0  0  0  0  0  0  0  0  0  0
   -8.3730    4.4474  -15.6647 C   0  0  0  0  0  0  0  0  0  0  0  0
   -7.3216    4.9479  -14.9042 C   0  0  0  0  0  0  0  0  0  0  0  0
   -6.0769    5.2158  -15.4795 C   0  0  0  0  0  0  0  0  0  0  0  0
   -5.9192    5.1028  -16.8716 C   0  0  0  0  0  0  0  0  0  0  0  0
   -4.8452    5.4473  -17.7569 C   0  0  0  0  0  0  0  0  0  0  0  0
   -7.1403    4.4372  -19.7142 H   0  0  0  0  0  0  0  0  0  0  0  0
   -3.5039    5.9253  -17.2520 C   0  0  0  0  0  0  0  0  0  0  0  0
   -3.1308    7.3669  -17.5811 C   0  0  0  0  0  0  0  0  0  0  0  0
   -1.8013    7.7310  -16.9218 C   0  0  0  0  0  0  0  0  0  0  0  0
   -0.7484    6.7201  -17.0519 N   0  0  0  0  0  0  0  0  0  0  0  0
   -1.0801    5.6569  -17.9984 C   0  0  0  0  0  0  0  0  0  0  0  0
   -2.3720    4.9419  -17.6085 C   0  0  0  0  0  0  0  0  0  0  0  0
   -0.5883    6.3000  -16.1363 H   0  0  0  0  0  0  0  0  0  0  0  0
   -7.5098    5.3905  -13.5033 C   0  0  0  0  0  0  0  0  0  0  0  0
   -7.2811    6.5037  -13.2430 O   0  0  0  0  0  0  0  0  0  0  0  0
   -7.9968    4.2376  -12.6102 N   0  0  0  0  0  0  0  0  0  0  0  0
   -8.1905    3.3992  -13.0887 H   0  0  0  0  0  0  0  0  0  0  0  0
   -8.2076    4.1860  -11.2401 C   0  0  0  0  0  0  0  0  0  0  0  0
   -7.9243    5.2907  -10.4163 C   0  0  0  0  0  0  0  0  0  0  0  0
   -8.1026    5.2182   -9.0320 C   0  0  0  0  0  0  0  0  0  0  0  0
   -8.5710    4.0325   -8.5032 C   0  0  0  0  0  0  0  0  0  0  0  0
   -8.8612    2.9470   -9.3296 C   0  0  0  0  0  0  0  0  0  0  0  0
   -8.6888    2.9999  -10.6967 C   0  0  0  0  0  0  0  0  0  0  0  0
   -9.3089    1.8012   -8.4954 C   0  0  0  0  0  0  0  0  0  0  0  0
   -9.5781    2.3770   -7.1690 N   0  0  0  0  0  0  0  0  0  0  0  0
   -9.1881    1.4910   -6.2028 F   0  0  0  0  0  0  0  0  0  0  0  0
   -8.8154    3.6271   -7.0864 C   0  0  0  0  0  0  0  0  0  0  0  0
   -9.5712    4.5951   -6.3848 O   0  0  0  0  0  0  0  0  0  0  0  0
  -10.4228    4.7256   -6.8304 H   0  0  0  0  0  0  0  0  0  0  0  0
   -4.8263    5.7400  -20.3843 C   0  0  0  0  0  0  0  0  0  0  0  0
   -2.6077    5.8377  -21.3846 C   0  0  0  0  0  0  0  0  0  0  0  0
   -3.6564    5.0044  -20.8330 N   0  0  0  0  0  0  0  0  0  0  0  0
   -3.2743    4.4943  -20.0367 H   0  0  0  0  0  0  0  0  0  0  0  0
 36 37  1  0  0  0
 37 35  1  0  0  0
 35  1  1  0  0  0
  1  2  1  0  0  0
  2  3  1  0  0  0
  3  4  2  0  0  0
  4  5  1  0  0  0
  4  6  1  0  0  0
  6  7  2  0  0  0
  7 19  1  0  0  0
 19 20  2  0  0  0
 19 21  1  0  0  0
 21 23  1  0  0  0
 23 24  2  0  0  0
 24 25  1  0  0  0
 25 26  2  0  0  0
 26 27  1  0  0  0
 27 28  2  0  0  0
 27 29  1  0  0  0
 29 30  1  0  0  0
 30 31  1  0  0  0
 30 32  1  0  0  0
 32 33  1  0  0  0
  7  8  1  0  0  0
  8  9  2  0  0  0
  9 10  1  0  0  0
 10 12  1  0  0  0
 12 13  1  0  0  0
 13 14  1  0  0  0
 14 15  1  0  0  0
 15 16  1  0  0  0
 16 17  1  0  0  0
 10  1  2  0  0  0
 17 12  1  0  0  0
  9  3  1  0  0  0
 28 23  1  0  0  0
 32 26  1  0  0  0
 37 38  1  0  0  0
  2 11  1  0  0  0
 21 22  1  0  0  0
 33 34  1  0  0  0
 15 18  1  0  0  0
M  END
> <minimizedAffinity>
-9.47967

> <minimizedRMSD>
0.50045

$$$$
P26758


 37 42  0  0  0  0  0  0  0  0999 V2000
   -7.3725    4.9142  -14.6746 C   0  0  0  0  0  0  0  0  0  0  0  0
   -8.3572    4.3365  -15.4883 C   0  0  0  0  0  0  0  0  0  0  0  0
   -8.1551    4.2679  -16.8761 C   0  0  0  0  0  0  0  0  0  0  0  0
   -9.4460    3.7000  -17.8583 Cl  0  0  0  0  0  0  0  0  0  0  0  0
   -6.9886    4.7927  -17.4393 C   0  0  0  0  0  0  0  0  0  0  0  0
   -6.0055    5.3253  -16.6080 C   0  0  0  0  0  0  0  0  0  0  0  0
   -6.1771    5.3864  -15.2328 C   0  0  0  0  0  0  0  0  0  0  0  0
   -5.0243    6.1069  -17.4305 C   0  0  0  0  0  0  0  0  0  0  0  0
   -5.3898    5.7051  -18.8921 C   0  0  0  0  0  0  0  0  0  0  0  0
   -4.4022    4.9867  -19.8229 C   0  0  0  0  0  0  0  0  0  0  0  0
   -4.2340    5.8756  -21.0510 C   0  0  0  0  0  0  0  0  0  0  0  0
   -5.4483    6.6867  -21.0947 N   0  0  0  0  0  0  0  0  0  0  0  0
   -5.6447    7.0013  -19.6779 C   0  0  0  0  0  0  0  0  0  0  0  0
   -6.6292    4.8665  -18.8020 N   0  0  0  0  0  0  0  0  0  0  0  0
   -6.2353    6.1581  -21.4710 H   0  0  0  0  0  0  0  0  0  0  0  0
   -7.1044    4.4452  -19.5543 H   0  0  0  0  0  0  0  0  0  0  0  0
   -3.5758    6.2607  -16.9534 C   0  0  0  0  0  0  0  0  0  0  0  0
   -2.9838    7.5888  -17.4578 C   0  0  0  0  0  0  0  0  0  0  0  0
   -1.5827    7.8150  -16.9015 C   0  0  0  0  0  0  0  0  0  0  0  0
   -0.7155    6.6421  -16.9638 N   0  0  0  0  0  0  0  0  0  0  0  0
   -1.2729    5.5601  -17.7744 C   0  0  0  0  0  0  0  0  0  0  0  0
   -2.6222    5.0868  -17.2143 C   0  0  0  0  0  0  0  0  0  0  0  0
   -0.5693    6.2955  -16.0157 H   0  0  0  0  0  0  0  0  0  0  0  0
   -7.5217    6.4210  -12.9850 O   0  0  0  0  0  0  0  0  0  0  0  0
   -7.6388    5.2911  -13.2584 C   0  0  0  0  0  0  0  0  0  0  0  0
   -8.0337    4.0843  -12.3795 N   0  0  0  0  0  0  0  0  0  0  0  0
   -8.1377    3.2356  -12.8676 H   0  0  0  0  0  0  0  0  0  0  0  0
   -8.2672    4.0007  -11.0058 C   0  0  0  0  0  0  0  0  0  0  0  0
   -8.0537    5.1182  -10.1795 C   0  0  0  0  0  0  0  0  0  0  0  0
   -8.2453    5.0418   -8.7967 C   0  0  0  0  0  0  0  0  0  0  0  0
   -8.6568    3.8368   -8.2610 C   0  0  0  0  0  0  0  0  0  0  0  0
   -8.8785    2.7321   -9.0733 C   0  0  0  0  0  0  0  0  0  0  0  0
   -8.6932    2.7936  -10.4485 C   0  0  0  0  0  0  0  0  0  0  0  0
   -9.2761    1.5706   -8.2270 C   0  0  0  0  0  0  0  0  0  0  0  0
   -9.4520    2.0974   -6.8475 N   0  0  0  0  0  0  0  0  0  0  0  0
   -8.9193    3.4756   -6.8399 C   0  0  0  0  0  0  0  0  0  0  0  0
   -8.9370    1.5192   -6.1835 H   0  0  0  0  0  0  0  0  0  0  0  0
 24 25  2  0  0  0
 25 26  1  0  0  0
 26 28  1  0  0  0
 28 29  2  0  0  0
 29 30  1  0  0  0
 30 31  2  0  0  0
 31 32  1  0  0  0
 32 33  2  0  0  0
 32 34  1  0  0  0
 34 35  1  0  0  0
 35 36  1  0  0  0
 25  1  1  0  0  0
  1  2  2  0  0  0
  2  3  1  0  0  0
  3  4  1  0  0  0
  3  5  2  0  0  0
  5  6  1  0  0  0
  6  7  2  0  0  0
  6  8  1  0  0  0
  8 17  1  0  0  0
 17 18  1  0  0  0
 18 19  1  0  0  0
 19 20  1  0  0  0
 20 21  1  0  0  0
 21 22  1  0  0  0
  8  9  1  0  0  0
  9 10  1  0  0  0
 10 11  1  0  0  0
 11 12  1  0  0  0
 12 13  1  0  0  0
  9 14  1  0  0  0
 33 28  1  0  0  0
  7  1  1  0  0  0
 22 17  1  0  0  0
 13  9  1  0  0  0
 36 31  1  0  0  0
 14  5  1  0  0  0
 26 27  1  0  0  0
 35 37  1  0  0  0
 20 23  1  0  0  0
 12 15  1  0  0  0
 14 16  1  0  0  0
M  END
> <minimizedAffinity>
-10.42510

> <minimizedRMSD>
0.40670

$$$$
P26760


 32 37  0  0  0  0  0  0  0  0999 V2000
   -6.8668    4.9221  -14.5998 C   0  0  0  0  0  0  0  0  0  0  0  0
   -8.0674    4.2001  -15.3129 C   0  0  0  0  0  0  0  0  0  0  0  0
   -8.2873    4.7065  -16.7534 C   0  0  0  0  0  0  0  0  0  0  0  0
   -9.7752    3.9392  -17.6398 Br  0  0  0  0  0  0  0  0  0  0  0  0
   -7.0474    4.7226  -17.5998 C   0  0  0  0  0  0  0  0  0  0  0  0
   -6.8658    5.3886  -18.8985 N   0  0  0  0  0  0  0  0  0  0  0  0
   -5.5483    6.0797  -18.8300 C   0  0  0  0  0  0  0  0  0  0  0  0
   -4.9273    5.5234  -17.6221 N   0  0  0  0  0  0  0  0  0  0  0  0
   -6.0844    5.4869  -16.7903 C   0  0  0  0  0  0  0  0  0  0  0  0
   -5.6231    4.9038  -15.5069 C   0  0  0  0  0  0  0  0  0  0  0  0
   -4.3791    5.8075  -15.3670 C   0  0  0  0  0  0  0  0  0  0  0  0
   -4.0240    6.2927  -16.7896 N   0  0  0  0  0  0  0  0  0  0  0  0
   -7.6124    6.0654  -19.0563 H   0  0  0  0  0  0  0  0  0  0  0  0
   -2.6586    5.8328  -17.1640 C   0  0  0  0  0  0  0  0  0  0  0  0
   -1.6148    6.2368  -16.1023 C   0  0  0  0  0  0  0  0  0  0  0  0
   -1.4738    7.5616  -16.7527 N   0  0  0  0  0  0  0  0  0  0  0  0
   -1.9687    6.9380  -18.0082 C   0  0  0  0  0  0  0  0  0  0  0  0
   -0.5164    7.9101  -16.8014 H   0  0  0  0  0  0  0  0  0  0  0  0
   -5.4646    4.7303  -12.7343 O   0  0  0  0  0  0  0  0  0  0  0  0
   -6.5685    4.6271  -13.1155 C   0  0  0  0  0  0  0  0  0  0  0  0
   -7.8828    4.3234  -12.3338 N   0  0  0  0  0  0  0  0  0  0  0  0
   -8.6816    4.2112  -12.8981 H   0  0  0  0  0  0  0  0  0  0  0  0
   -8.1106    4.1849  -10.9648 C   0  0  0  0  0  0  0  0  0  0  0  0
   -7.9003    5.2637  -10.0906 C   0  0  0  0  0  0  0  0  0  0  0  0
   -8.2054    5.1567   -8.7288 C   0  0  0  0  0  0  0  0  0  0  0  0
   -8.6988    3.9540   -8.2613 C   0  0  0  0  0  0  0  0  0  0  0  0
   -8.8809    2.8732   -9.1185 C   0  0  0  0  0  0  0  0  0  0  0  0
   -8.6146    2.9741  -10.4763 C   0  0  0  0  0  0  0  0  0  0  0  0
   -9.3284    1.6957   -8.3157 C   0  0  0  0  0  0  0  0  0  0  0  0
   -9.7920    2.2596   -7.0220 N   0  0  0  0  0  0  0  0  0  0  0  0
   -9.0818    3.5496   -6.8759 C   0  0  0  0  0  0  0  0  0  0  0  0
   -9.5535    1.6324   -6.2538 H   0  0  0  0  0  0  0  0  0  0  0  0
 19 20  2  0  0  0
 20 21  1  0  0  0
 21 23  1  0  0  0
 23 24  2  0  0  0
 24 25  1  0  0  0
 25 26  2  0  0  0
 26 27  1  0  0  0
 27 28  2  0  0  0
 27 29  1  0  0  0
 29 30  1  0  0  0
 30 31  1  0  0  0
  1 20  1  0  0  0
  1  2  1  0  0  0
  2  3  1  0  0  0
  3  4  1  0  0  0
  3  5  1  0  0  0
  5  6  1  0  0  0
  6  7  1  0  0  0
  7  8  1  0  0  0
  9  8  1  0  0  0
  9 10  1  0  0  0
 10 11  1  0  0  0
 11 12  1  0  0  0
 12 14  1  0  0  0
 14 15  1  0  0  0
 15 16  1  0  0  0
 16 17  1  0  0  0
 28 23  1  0  0  0
 10  1  1  0  0  0
 17 14  1  0  0  0
 31 26  1  0  0  0
  9  5  1  0  0  0
 12  8  1  0  0  0
 21 22  1  0  0  0
 30 32  1  0  0  0
  6 13  1  0  0  0
 16 18  1  0  0  0
M  END
> <minimizedAffinity>
-8.16418

> <minimizedRMSD>
0.64258

$$$$
P26763


 34 39  0  0  0  0  0  0  0  0999 V2000
   -6.9279    4.8407  -15.2291 C   0  0  0  0  0  0  0  0  0  0  0  0
   -8.1460    4.3964  -15.7385 C   0  0  0  0  0  0  0  0  0  0  0  0
   -8.3223    4.3164  -17.1215 C   0  0  0  0  0  0  0  0  0  0  0  0
  -10.0358    3.9599  -17.7627 Br  0  0  0  0  0  0  0  0  0  0  0  0
   -7.3169    4.6525  -18.0236 C   0  0  0  0  0  0  0  0  0  0  0  0
   -6.1189    5.1181  -17.5121 C   0  0  0  0  0  0  0  0  0  0  0  0
   -5.9316    5.2030  -16.1321 C   0  0  0  0  0  0  0  0  0  0  0  0
   -4.5758    5.7485  -15.8566 C   0  0  0  0  0  0  0  0  0  0  0  0
   -3.9673    6.0766  -17.1756 N   0  0  0  0  0  0  0  0  0  0  0  0
   -4.9378    5.7133  -18.2376 C   0  0  0  0  0  0  0  0  0  0  0  0
   -5.3559    7.0083  -18.9643 C   0  0  0  0  0  0  0  0  0  0  0  0
   -4.7545    6.9034  -20.3474 C   0  0  0  0  0  0  0  0  0  0  0  0
   -4.7575    5.4164  -20.5815 C   0  0  0  0  0  0  0  0  0  0  0  0
   -4.4140    4.8348  -19.2809 N   0  0  0  0  0  0  0  0  0  0  0  0
   -3.4006    4.7595  -19.1928 H   0  0  0  0  0  0  0  0  0  0  0  0
   -2.6132    5.5137  -17.2548 C   0  0  0  0  0  0  0  0  0  0  0  0
   -1.8151    5.8311  -15.9598 C   0  0  0  0  0  0  0  0  0  0  0  0
   -0.6654    6.2308  -16.8071 N   0  0  0  0  0  0  0  0  0  0  0  0
   -1.6263    6.5255  -17.8953 C   0  0  0  0  0  0  0  0  0  0  0  0
   -0.0108    5.4765  -17.0143 H   0  0  0  0  0  0  0  0  0  0  0  0
   -6.1451    6.0258  -13.4400 O   0  0  0  0  0  0  0  0  0  0  0  0
   -6.7980    5.1153  -13.7709 C   0  0  0  0  0  0  0  0  0  0  0  0
   -7.6594    4.1406  -12.9313 N   0  0  0  0  0  0  0  0  0  0  0  0
   -8.0590    3.3996  -13.4417 H   0  0  0  0  0  0  0  0  0  0  0  0
   -7.9611    4.1416  -11.5710 C   0  0  0  0  0  0  0  0  0  0  0  0
   -7.8306    5.3077  -10.8001 C   0  0  0  0  0  0  0  0  0  0  0  0
   -8.1102    5.2961   -9.4294 C   0  0  0  0  0  0  0  0  0  0  0  0
   -8.5109    4.1049   -8.8526 C   0  0  0  0  0  0  0  0  0  0  0  0
   -8.6614    2.9539   -9.6170 C   0  0  0  0  0  0  0  0  0  0  0  0
   -8.4032    2.9545  -10.9793 C   0  0  0  0  0  0  0  0  0  0  0  0
   -9.0725    1.8223   -8.7350 C   0  0  0  0  0  0  0  0  0  0  0  0
   -9.3673    2.4270   -7.4129 N   0  0  0  0  0  0  0  0  0  0  0  0
   -8.8031    3.7918   -7.4245 C   0  0  0  0  0  0  0  0  0  0  0  0
   -8.9347    1.8757   -6.6717 H   0  0  0  0  0  0  0  0  0  0  0  0
 21 22  2  0  0  0
 22 23  1  0  0  0
 23 25  1  0  0  0
 25 26  2  0  0  0
 26 27  1  0  0  0
 27 28  2  0  0  0
 28 29  1  0  0  0
 29 30  2  0  0  0
 29 31  1  0  0  0
 31 32  1  0  0  0
 32 33  1  0  0  0
 22  1  1  0  0  0
  1  2  2  0  0  0
  2  3  1  0  0  0
  3  4  1  0  0  0
  3  5  2  0  0  0
  5  6  1  0  0  0
  6  7  2  0  0  0
  7  8  1  0  0  0
  8  9  1  0  0  0
  9 16  1  0  0  0
 16 17  1  0  0  0
 17 18  1  0  0  0
 18 19  1  0  0  0
  9 10  1  0  0  0
 10 11  1  0  0  0
 11 12  1  0  0  0
 12 13  1  0  0  0
 13 14  1  0  0  0
 30 25  1  0  0  0
  7  1  1  0  0  0
 19 16  1  0  0  0
 14 10  1  0  0  0
 33 28  1  0  0  0
 10  6  1  0  0  0
 23 24  1  0  0  0
 32 34  1  0  0  0
 18 20  1  0  0  0
 14 15  1  0  0  0
M  END
> <minimizedAffinity>
-9.12116

> <minimizedRMSD>
0.27854

$$$$
P26768


 29 33  0  0  0  0  0  0  0  0999 V2000
   -7.0780    4.9311  -15.1555 C   0  0  0  0  0  0  0  0  0  0  0  0
   -8.2685    4.5222  -15.7719 C   0  0  0  0  0  0  0  0  0  0  0  0
   -8.3742    4.3430  -17.1787 C   0  0  0  0  0  0  0  0  0  0  0  0
  -10.0971    4.0220  -17.8316 Br  0  0  0  0  0  0  0  0  0  0  0  0
   -7.3304    4.5179  -18.1066 C   0  0  0  0  0  0  0  0  0  0  0  0
   -6.1329    4.9149  -17.5017 C   0  0  0  0  0  0  0  0  0  0  0  0
   -4.9411    5.1867  -18.0554 N   0  0  0  0  0  0  0  0  0  0  0  0
   -4.1414    5.4968  -17.0206 N   0  0  0  0  0  0  0  0  0  0  0  0
   -4.7646    5.4903  -15.8050 C   0  0  0  0  0  0  0  0  0  0  0  0
   -6.0490    5.1125  -16.0736 C   0  0  0  0  0  0  0  0  0  0  0  0
   -2.6984    5.7227  -17.1467 C   0  0  0  0  0  0  0  0  0  0  0  0
   -2.0140    5.0711  -18.3565 C   0  0  0  0  0  0  0  0  0  0  0  0
   -1.2585    6.3447  -18.5513 N   0  0  0  0  0  0  0  0  0  0  0  0
   -2.3736    7.0432  -17.8660 C   0  0  0  0  0  0  0  0  0  0  0  0
   -1.1242    6.6137  -19.5260 H   0  0  0  0  0  0  0  0  0  0  0  0
   -6.6527    6.3665  -13.4470 O   0  0  0  0  0  0  0  0  0  0  0  0
   -7.0371    5.3028  -13.7368 C   0  0  0  0  0  0  0  0  0  0  0  0
   -7.6368    4.1806  -12.8590 N   0  0  0  0  0  0  0  0  0  0  0  0
   -7.8162    3.3372  -13.3341 H   0  0  0  0  0  0  0  0  0  0  0  0
   -7.9641    4.1685  -11.5076 C   0  0  0  0  0  0  0  0  0  0  0  0
   -7.8209    5.3201  -10.7191 C   0  0  0  0  0  0  0  0  0  0  0  0
   -8.1114    5.2894   -9.3536 C   0  0  0  0  0  0  0  0  0  0  0  0
   -8.5239    4.0915   -8.8010 C   0  0  0  0  0  0  0  0  0  0  0  0
   -8.6920    2.9572   -9.5847 C   0  0  0  0  0  0  0  0  0  0  0  0
   -8.4323    2.9784  -10.9447 C   0  0  0  0  0  0  0  0  0  0  0  0
   -9.1584    1.8272   -8.7328 C   0  0  0  0  0  0  0  0  0  0  0  0
   -9.1108    2.3178   -7.3290 N   0  0  0  0  0  0  0  0  0  0  0  0
   -8.8423    3.7702   -7.3836 C   0  0  0  0  0  0  0  0  0  0  0  0
   -8.3663    1.8435   -6.8179 H   0  0  0  0  0  0  0  0  0  0  0  0
 16 17  2  0  0  0
 17 18  1  0  0  0
 18 20  1  0  0  0
 20 21  2  0  0  0
 21 22  1  0  0  0
 22 23  2  0  0  0
 23 24  1  0  0  0
 24 25  2  0  0  0
 24 26  1  0  0  0
 26 27  1  0  0  0
 27 28  1  0  0  0
 17  1  1  0  0  0
  1  2  2  0  0  0
  2  3  1  0  0  0
  3  4  1  0  0  0
  3  5  2  0  0  0
  5  6  1  0  0  0
  6  7  2  0  0  0
  7  8  1  0  0  0
  8 11  1  0  0  0
 11 12  1  0  0  0
 12 13  1  0  0  0
 13 14  1  0  0  0
  8  9  1  0  0  0
  9 10  2  0  0  0
 25 20  1  0  0  0
 10  1  1  0  0  0
 28 23  1  0  0  0
 10  6  1  0  0  0
 14 11  1  0  0  0
 18 19  1  0  0  0
 27 29  1  0  0  0
 13 15  1  0  0  0
M  END
> <minimizedAffinity>
-8.22219

> <minimizedRMSD>
0.41286

$$$$
P26770


 31 35  0  0  0  0  0  0  0  0999 V2000
   -8.4403    4.0250  -16.6923 C   0  0  0  0  0  0  0  0  0  0  0  0
   -7.4541    4.7209  -17.6322 C   0  0  0  0  0  0  0  0  0  0  0  0
   -6.2599    5.1741  -16.8706 C   0  0  0  0  0  0  0  0  0  0  0  0
   -6.1298    5.0906  -15.5385 C   0  0  0  0  0  0  0  0  0  0  0  0
   -4.7061    5.3322  -15.2025 C   0  0  0  0  0  0  0  0  0  0  0  0
   -4.0388    5.2817  -16.5398 N   0  0  0  0  0  0  0  0  0  0  0  0
   -5.0756    5.5360  -17.4796 N   0  0  0  0  0  0  0  0  0  0  0  0
   -7.1595    4.5701  -14.5973 C   0  0  0  0  0  0  0  0  0  0  0  0
   -8.5339    4.5846  -15.2693 C   0  0  0  0  0  0  0  0  0  0  0  0
   -4.9691    5.8997  -18.3882 H   0  0  0  0  0  0  0  0  0  0  0  0
   -2.9621    6.2666  -16.5911 C   0  0  0  0  0  0  0  0  0  0  0  0
   -1.8596    5.8343  -17.5747 C   0  0  0  0  0  0  0  0  0  0  0  0
   -0.8511    6.1466  -16.5208 N   0  0  0  0  0  0  0  0  0  0  0  0
   -1.9153    5.9061  -15.5135 C   0  0  0  0  0  0  0  0  0  0  0  0
   -0.4959    7.1025  -16.5430 H   0  0  0  0  0  0  0  0  0  0  0  0
   -7.2543    5.2113  -13.1909 C   0  0  0  0  0  0  0  0  0  0  0  0
   -6.9710    6.3230  -12.9448 O   0  0  0  0  0  0  0  0  0  0  0  0
   -7.7574    4.0558  -12.2486 N   0  0  0  0  0  0  0  0  0  0  0  0
   -7.8558    3.1796  -12.6866 H   0  0  0  0  0  0  0  0  0  0  0  0
   -8.0869    4.0721  -10.8920 C   0  0  0  0  0  0  0  0  0  0  0  0
   -7.8937    5.1940  -10.0762 C   0  0  0  0  0  0  0  0  0  0  0  0
   -8.1968    5.1402   -8.7064 C   0  0  0  0  0  0  0  0  0  0  0  0
   -8.6976    3.9596   -8.1817 C   0  0  0  0  0  0  0  0  0  0  0  0
   -8.8968    2.8474   -8.9902 C   0  0  0  0  0  0  0  0  0  0  0  0
   -8.5956    2.8852  -10.3415 C   0  0  0  0  0  0  0  0  0  0  0  0
   -9.4102    1.7175   -8.1579 C   0  0  0  0  0  0  0  0  0  0  0  0
   -9.8433    2.3463   -6.8812 N   0  0  0  0  0  0  0  0  0  0  0  0
   -9.0747    3.6073   -6.7806 C   0  0  0  0  0  0  0  0  0  0  0  0
   -9.6305    1.7353   -6.0927 H   0  0  0  0  0  0  0  0  0  0  0  0
  -10.0136    4.3883  -18.3944 C   0  0  0  0  0  0  0  0  0  0  0  0
   -9.7450    3.8100  -17.2896 N   0  0  0  0  0  0  0  0  0  0  0  0
 30 31  2  0  0  0
  1 31  1  0  0  0
  1  2  1  0  0  0
  2  3  1  0  0  0
  3  4  2  0  0  0
  4  5  1  0  0  0
  5  6  1  0  0  0
  6 11  1  0  0  0
 11 12  1  0  0  0
 12 13  1  0  0  0
 13 14  1  0  0  0
  6  7  1  0  0  0
  4  8  1  0  0  0
  8 16  1  0  0  0
 16 17  2  0  0  0
 16 18  1  0  0  0
 18 20  1  0  0  0
 20 21  2  0  0  0
 21 22  1  0  0  0
 22 23  2  0  0  0
 23 24  1  0  0  0
 24 25  2  0  0  0
 24 26  1  0  0  0
 26 27  1  0  0  0
 27 28  1  0  0  0
  8  9  1  0  0  0
  9  1  1  0  0  0
  7  3  1  0  0  0
 25 20  1  0  0  0
 14 11  1  0  0  0
 28 23  1  0  0  0
 13 15  1  0  0  0
  7 10  1  0  0  0
 18 19  1  0  0  0
 27 29  1  0  0  0
M  END
> <minimizedAffinity>
-7.82325

> <minimizedRMSD>
0.92716

$$$$
P26776


 24 26  0  0  0  0  0  0  0  0999 V2000
   -7.0321    4.8730  -14.0234 C   0  0  0  0  0  0  0  0  0  0  0  0
   -6.0104    5.3771  -13.7648 O   0  0  0  0  0  0  0  0  0  0  0  0
   -8.1761    4.3935  -13.0989 N   0  0  0  0  0  0  0  0  0  0  0  0
   -8.9766    4.0663  -13.5694 H   0  0  0  0  0  0  0  0  0  0  0  0
   -8.2581    4.3492  -11.7042 C   0  0  0  0  0  0  0  0  0  0  0  0
   -7.9804    5.4869  -10.9281 C   0  0  0  0  0  0  0  0  0  0  0  0
   -8.0458    5.4405   -9.5306 C   0  0  0  0  0  0  0  0  0  0  0  0
   -8.3991    4.2468   -8.9286 C   0  0  0  0  0  0  0  0  0  0  0  0
   -8.6795    3.1202   -9.6895 C   0  0  0  0  0  0  0  0  0  0  0  0
   -8.6122    3.1505  -11.0768 C   0  0  0  0  0  0  0  0  0  0  0  0
   -9.0171    1.9831   -8.7855 C   0  0  0  0  0  0  0  0  0  0  0  0
   -9.0423    2.5349   -7.4049 N   0  0  0  0  0  0  0  0  0  0  0  0
   -8.5487    3.9259   -7.4819 C   0  0  0  0  0  0  0  0  0  0  0  0
   -8.4378    1.9826   -6.7966 H   0  0  0  0  0  0  0  0  0  0  0  0
   -4.9861    5.3813  -16.1023 C   0  0  0  0  0  0  0  0  0  0  0  0
   -6.3721    4.9127  -16.4506 C   0  0  0  0  0  0  0  0  0  0  0  0
   -6.7396    4.8231  -17.8027 C   0  0  0  0  0  0  0  0  0  0  0  0
   -8.0211    4.4111  -18.1640 C   0  0  0  0  0  0  0  0  0  0  0  0
   -8.9399    4.0756  -17.1754 C   0  0  0  0  0  0  0  0  0  0  0  0
   -8.6037    4.1525  -15.8254 C   0  0  0  0  0  0  0  0  0  0  0  0
   -7.3282    4.5992  -15.4606 C   0  0  0  0  0  0  0  0  0  0  0  0
  -10.1888    3.6684  -17.5647 O   0  0  0  0  0  0  0  0  0  0  0  0
  -10.8270    4.8406  -18.1416 O   0  0  0  0  0  0  0  0  0  0  0  0
  -11.7215    4.6092  -18.4369 H   0  0  0  0  0  0  0  0  0  0  0  0
 15 16  1  0  0  0
 16 17  2  0  0  0
 17 18  1  0  0  0
 18 19  2  0  0  0
 19 22  1  0  0  0
 22 23  1  0  0  0
 19 20  1  0  0  0
 20 21  2  0  0  0
 21  1  1  0  0  0
  1  2  2  0  0  0
  1  3  1  0  0  0
  3  5  1  0  0  0
  5  6  2  0  0  0
  6  7  1  0  0  0
  7  8  2  0  0  0
  8  9  1  0  0  0
  9 10  2  0  0  0
  9 11  1  0  0  0
 11 12  1  0  0  0
 12 13  1  0  0  0
 21 16  1  0  0  0
 10  5  1  0  0  0
 13  8  1  0  0  0
 23 24  1  0  0  0
  3  4  1  0  0  0
 12 14  1  0  0  0
M  END
> <minimizedAffinity>
-9.22144

> <minimizedRMSD>
0.67427

$$$$
P26787


 30 34  0  0  0  0  0  0  0  0999 V2000
   -7.5327    4.8608  -15.6083 C   0  0  0  0  0  0  0  0  0  0  0  0
   -8.7766    4.5594  -16.2054 C   0  0  0  0  0  0  0  0  0  0  0  0
   -8.9274    4.3306  -17.5992 C   0  0  0  0  0  0  0  0  0  0  0  0
  -10.6759    4.1920  -18.2904 Br  0  0  0  0  0  0  0  0  0  0  0  0
   -7.8718    4.3315  -18.5200 C   0  0  0  0  0  0  0  0  0  0  0  0
   -6.6250    4.6196  -17.9548 C   0  0  0  0  0  0  0  0  0  0  0  0
   -5.4473    4.7271  -18.5799 N   0  0  0  0  0  0  0  0  0  0  0  0
   -4.5696    5.0504  -17.6208 N   0  0  0  0  0  0  0  0  0  0  0  0
   -5.1293    5.1332  -16.3685 C   0  0  0  0  0  0  0  0  0  0  0  0
   -4.1586    5.5235  -14.7929 Br  0  0  0  0  0  0  0  0  0  0  0  0
   -6.4699    4.8806  -16.5334 C   0  0  0  0  0  0  0  0  0  0  0  0
   -3.1559    5.3935  -17.9221 C   0  0  0  0  0  0  0  0  0  0  0  0
   -2.6680    5.0426  -19.3363 C   0  0  0  0  0  0  0  0  0  0  0  0
   -3.0547    6.4006  -19.7898 N   0  0  0  0  0  0  0  0  0  0  0  0
   -3.0234    6.8552  -18.3828 C   0  0  0  0  0  0  0  0  0  0  0  0
   -3.9751    6.4508  -20.2265 H   0  0  0  0  0  0  0  0  0  0  0  0
   -7.2202    6.4236  -13.9799 O   0  0  0  0  0  0  0  0  0  0  0  0
   -7.5115    5.3160  -14.2064 C   0  0  0  0  0  0  0  0  0  0  0  0
   -7.9346    4.1748  -13.2509 N   0  0  0  0  0  0  0  0  0  0  0  0
   -8.0572    3.2991  -13.6836 H   0  0  0  0  0  0  0  0  0  0  0  0
   -8.1707    4.1851  -11.8763 C   0  0  0  0  0  0  0  0  0  0  0  0
   -8.5329    2.9760  -11.2586 C   0  0  0  0  0  0  0  0  0  0  0  0
   -8.7138    2.8945   -9.8748 C   0  0  0  0  0  0  0  0  0  0  0  0
   -8.5331    4.0409   -9.1285 C   0  0  0  0  0  0  0  0  0  0  0  0
   -8.2193    5.2516   -9.7382 C   0  0  0  0  0  0  0  0  0  0  0  0
   -8.0340    5.3446  -11.1108 C   0  0  0  0  0  0  0  0  0  0  0  0
   -8.1438    6.3128   -8.6939 C   0  0  0  0  0  0  0  0  0  0  0  0
   -8.0668    5.5886   -7.3941 N   0  0  0  0  0  0  0  0  0  0  0  0
   -8.6207    4.2295   -7.6534 C   0  0  0  0  0  0  0  0  0  0  0  0
   -8.6220    6.0693   -6.6862 H   0  0  0  0  0  0  0  0  0  0  0  0
 17 18  2  0  0  0
 18 19  1  0  0  0
 19 21  1  0  0  0
 21 22  2  0  0  0
 22 23  1  0  0  0
 23 24  2  0  0  0
 24 25  1  0  0  0
 25 26  2  0  0  0
 25 27  1  0  0  0
 27 28  1  0  0  0
 28 29  1  0  0  0
 18  1  1  0  0  0
  1  2  2  0  0  0
  2  3  1  0  0  0
  3  4  1  0  0  0
  3  5  2  0  0  0
  5  6  1  0  0  0
  6  7  2  0  0  0
  7  8  1  0  0  0
  8 12  1  0  0  0
 12 13  1  0  0  0
 13 14  1  0  0  0
 14 15  1  0  0  0
  8  9  1  0  0  0
  9 10  1  0  0  0
  9 11  2  0  0  0
 26 21  1  0  0  0
 11  1  1  0  0  0
 29 24  1  0  0  0
 11  6  1  0  0  0
 15 12  1  0  0  0
 19 20  1  0  0  0
 28 30  1  0  0  0
 14 16  1  0  0  0
M  END
> <minimizedAffinity>
-7.85652

> <minimizedRMSD>
0.37153

$$$$
P26799


 38 42  0  0  0  0  0  0  0  0999 V2000
   -7.1703    5.0712  -14.0853 C   0  0  0  0  0  0  0  0  0  0  0  0
   -7.0964    6.4928  -14.0141 O   0  0  0  0  0  0  0  0  0  0  0  0
   -7.0114    6.7662  -13.0873 H   0  0  0  0  0  0  0  0  0  0  0  0
   -7.3007    4.7628  -15.5748 C   0  0  0  0  0  0  0  0  0  0  0  0
   -8.5811    4.5098  -16.1664 C   0  0  0  0  0  0  0  0  0  0  0  0
   -8.8298    4.3290  -17.5640 C   0  0  0  0  0  0  0  0  0  0  0  0
  -10.6216    4.1547  -18.1447 Br  0  0  0  0  0  0  0  0  0  0  0  0
   -7.8387    4.3758  -18.5490 C   0  0  0  0  0  0  0  0  0  0  0  0
   -6.5710    4.6486  -18.0320 C   0  0  0  0  0  0  0  0  0  0  0  0
   -5.4225    4.8094  -18.7036 N   0  0  0  0  0  0  0  0  0  0  0  0
   -4.5183    5.1358  -17.7778 N   0  0  0  0  0  0  0  0  0  0  0  0
   -5.0111    5.1484  -16.4990 C   0  0  0  0  0  0  0  0  0  0  0  0
   -6.3411    4.8321  -16.6066 C   0  0  0  0  0  0  0  0  0  0  0  0
   -3.1156    5.4459  -18.0847 C   0  0  0  0  0  0  0  0  0  0  0  0
   -2.4539    4.5628  -19.1603 C   0  0  0  0  0  0  0  0  0  0  0  0
   -1.8389    5.8047  -19.7222 N   0  0  0  0  0  0  0  0  0  0  0  0
   -2.9680    6.5652  -19.1280 C   0  0  0  0  0  0  0  0  0  0  0  0
   -1.7972    5.8340  -20.7409 H   0  0  0  0  0  0  0  0  0  0  0  0
   -5.0277    5.1295  -12.9549 O   0  0  0  0  0  0  0  0  0  0  0  0
   -5.8480    4.4400  -13.4304 C   0  0  0  0  0  0  0  0  0  0  0  0
   -5.9053    2.8935  -13.5716 N   0  0  0  0  0  0  0  0  0  0  0  0
   -6.6748    2.5545  -14.0837 H   0  0  0  0  0  0  0  0  0  0  0  0
   -5.0114    1.8707  -13.0727 C   0  0  0  0  0  0  0  0  0  0  0  0
   -3.6285    1.8520  -13.7039 C   0  0  0  0  0  0  0  0  0  0  0  0
   -3.6604    2.5185  -14.8889 F   0  0  0  0  0  0  0  0  0  0  0  0
   -2.7588    2.5215  -12.9025 F   0  0  0  0  0  0  0  0  0  0  0  0
   -8.3713    4.6410  -13.3524 N   0  0  0  0  0  0  0  0  0  0  0  0
   -9.1752    4.3892  -13.8618 H   0  0  0  0  0  0  0  0  0  0  0  0
   -8.4082    4.5782  -11.9580 C   0  0  0  0  0  0  0  0  0  0  0  0
   -8.5902    3.3219  -11.3438 C   0  0  0  0  0  0  0  0  0  0  0  0
   -8.5662    3.1614   -9.9544 C   0  0  0  0  0  0  0  0  0  0  0  0
   -8.3882    4.2832   -9.1752 C   0  0  0  0  0  0  0  0  0  0  0  0
   -8.2501    5.5366   -9.7534 C   0  0  0  0  0  0  0  0  0  0  0  0
   -8.2628    5.7005  -11.1312 C   0  0  0  0  0  0  0  0  0  0  0  0
   -8.0672    6.5532   -8.6782 C   0  0  0  0  0  0  0  0  0  0  0  0
   -8.4145    5.8579   -7.4056 N   0  0  0  0  0  0  0  0  0  0  0  0
   -8.2845    4.4021   -7.6955 C   0  0  0  0  0  0  0  0  0  0  0  0
   -9.3699    6.0815   -7.1270 H   0  0  0  0  0  0  0  0  0  0  0  0
 19 20  2  0  0  0
 20 21  1  0  0  0
 21 23  1  0  0  0
 23 24  1  0  0  0
 24 25  1  0  0  0
 24 26  1  0  0  0
 20  1  1  0  0  0
  1  2  1  0  0  0
  1 27  1  0  0  0
 27 29  1  0  0  0
 29 30  2  0  0  0
 30 31  1  0  0  0
 31 32  2  0  0  0
 32 33  1  0  0  0
 33 34  2  0  0  0
 33 35  1  0  0  0
 35 36  1  0  0  0
 36 37  1  0  0  0
  1  4  1  0  0  0
  4  5  2  0  0  0
  5  6  1  0  0  0
  6  7  1  0  0  0
  6  8  2  0  0  0
  8  9  1  0  0  0
  9 10  2  0  0  0
 10 11  1  0  0  0
 11 14  1  0  0  0
 14 15  1  0  0  0
 15 16  1  0  0  0
 16 17  1  0  0  0
 11 12  1  0  0  0
 12 13  2  0  0  0
 34 29  1  0  0  0
 13  4  1  0  0  0
 37 32  1  0  0  0
 13  9  1  0  0  0
 17 14  1  0  0  0
 21 22  1  0  0  0
  2  3  1  0  0  0
 27 28  1  0  0  0
 36 38  1  0  0  0
 16 18  1  0  0  0
M  END
> <minimizedAffinity>
-7.67471

> <minimizedRMSD>
0.86767

$$$$
P26802


 40 45  0  0  0  0  0  0  0  0999 V2000
   -7.2886    5.0711  -13.6428 C   0  0  0  0  0  0  0  0  0  0  0  0
   -6.0978    4.4059  -13.2689 O   0  0  0  0  0  0  0  0  0  0  0  0
   -5.9723    4.4820  -12.3100 H   0  0  0  0  0  0  0  0  0  0  0  0
   -7.3809    4.8863  -15.1581 C   0  0  0  0  0  0  0  0  0  0  0  0
   -8.5689    4.5265  -15.8628 C   0  0  0  0  0  0  0  0  0  0  0  0
   -8.6629    4.3794  -17.2885 C   0  0  0  0  0  0  0  0  0  0  0  0
  -10.3706    4.0846  -18.0565 Br  0  0  0  0  0  0  0  0  0  0  0  0
   -7.5926    4.5567  -18.1777 C   0  0  0  0  0  0  0  0  0  0  0  0
   -6.4171    4.9507  -17.5356 C   0  0  0  0  0  0  0  0  0  0  0  0
   -5.2422    5.3034  -18.0794 N   0  0  0  0  0  0  0  0  0  0  0  0
   -4.4692    5.6606  -17.0410 N   0  0  0  0  0  0  0  0  0  0  0  0
   -5.0868    5.5477  -15.8274 C   0  0  0  0  0  0  0  0  0  0  0  0
   -6.3508    5.0923  -16.0972 C   0  0  0  0  0  0  0  0  0  0  0  0
   -3.2030    6.3799  -17.2468 C   0  0  0  0  0  0  0  0  0  0  0  0
   -2.1231    6.1027  -16.1856 C   0  0  0  0  0  0  0  0  0  0  0  0
   -1.1315    6.0558  -17.2877 N   0  0  0  0  0  0  0  0  0  0  0  0
   -2.2353    5.6563  -18.2031 C   0  0  0  0  0  0  0  0  0  0  0  0
   -0.4031    5.3513  -17.1712 H   0  0  0  0  0  0  0  0  0  0  0  0
   -6.2929    7.2845  -13.1825 O   0  0  0  0  0  0  0  0  0  0  0  0
   -7.2858    6.6747  -13.3262 C   0  0  0  0  0  0  0  0  0  0  0  0
   -8.7821    7.1334  -13.2280 N   0  0  0  0  0  0  0  0  0  0  0  0
   -9.4417    6.4434  -13.4689 H   0  0  0  0  0  0  0  0  0  0  0  0
   -9.3549    8.4168  -12.8377 C   0  0  0  0  0  0  0  0  0  0  0  0
  -10.7426    8.6539  -13.4332 C   0  0  0  0  0  0  0  0  0  0  0  0
  -11.3629    9.9202  -12.8431 C   0  0  0  0  0  0  0  0  0  0  0  0
  -10.3875   10.8778  -12.4175 O   0  0  0  0  0  0  0  0  0  0  0  0
   -9.2436   10.9115  -13.2607 C   0  0  0  0  0  0  0  0  0  0  0  0
   -8.4477    9.6165  -13.1331 C   0  0  0  0  0  0  0  0  0  0  0  0
   -8.4043    4.3826  -12.9529 N   0  0  0  0  0  0  0  0  0  0  0  0
   -9.1615    4.0277  -13.4724 H   0  0  0  0  0  0  0  0  0  0  0  0
   -8.3795    4.2359  -11.5435 C   0  0  0  0  0  0  0  0  0  0  0  0
   -8.7310    2.9835  -10.9962 C   0  0  0  0  0  0  0  0  0  0  0  0
   -8.7972    2.7599   -9.6151 C   0  0  0  0  0  0  0  0  0  0  0  0
   -8.5362    3.8155   -8.7719 C   0  0  0  0  0  0  0  0  0  0  0  0
   -8.2211    5.0642   -9.2826 C   0  0  0  0  0  0  0  0  0  0  0  0
   -8.1412    5.2897  -10.6486 C   0  0  0  0  0  0  0  0  0  0  0  0
   -8.0586    6.0245   -8.1546 C   0  0  0  0  0  0  0  0  0  0  0  0
   -7.9359    5.1814   -6.9344 N   0  0  0  0  0  0  0  0  0  0  0  0
   -8.5807    3.8812   -7.2842 C   0  0  0  0  0  0  0  0  0  0  0  0
   -8.4176    5.6185   -6.1487 H   0  0  0  0  0  0  0  0  0  0  0  0
 19 20  2  0  0  0
 20 21  1  0  0  0
 21 23  1  0  0  0
 23 24  1  0  0  0
 24 25  1  0  0  0
 25 26  1  0  0  0
 26 27  1  0  0  0
 27 28  1  0  0  0
 20  1  1  0  0  0
  1  2  1  0  0  0
  1 29  1  0  0  0
 29 31  1  0  0  0
 31 32  2  0  0  0
 32 33  1  0  0  0
 33 34  2  0  0  0
 34 35  1  0  0  0
 35 36  2  0  0  0
 35 37  1  0  0  0
 37 38  1  0  0  0
 38 39  1  0  0  0
  1  4  1  0  0  0
  4  5  2  0  0  0
  5  6  1  0  0  0
  6  7  1  0  0  0
  6  8  2  0  0  0
  8  9  1  0  0  0
  9 10  2  0  0  0
 10 11  1  0  0  0
 11 14  1  0  0  0
 14 15  1  0  0  0
 15 16  1  0  0  0
 16 17  1  0  0  0
 11 12  1  0  0  0
 12 13  2  0  0  0
 28 23  1  0  0  0
 36 31  1  0  0  0
 13  4  1  0  0  0
 39 34  1  0  0  0
 13  9  1  0  0  0
 17 14  1  0  0  0
 21 22  1  0  0  0
  2  3  1  0  0  0
 29 30  1  0  0  0
 38 40  1  0  0  0
 16 18  1  0  0  0
M  END
> <minimizedAffinity>
-8.06861

> <minimizedRMSD>
0.26806

$$$$
P26804


 35 40  0  0  0  0  0  0  0  0999 V2000
   -7.5962    4.9383  -15.5123 C   0  0  0  0  0  0  0  0  0  0  0  0
   -8.8304    4.6024  -16.0829 C   0  0  0  0  0  0  0  0  0  0  0  0
   -8.9215    4.3531  -17.4569 C   0  0  0  0  0  0  0  0  0  0  0  0
  -10.6128    4.0947  -18.2385 Br  0  0  0  0  0  0  0  0  0  0  0  0
   -7.7992    4.3911  -18.2731 C   0  0  0  0  0  0  0  0  0  0  0  0
   -6.5865    4.6856  -17.6854 C   0  0  0  0  0  0  0  0  0  0  0  0
   -6.4635    4.9758  -16.3241 C   0  0  0  0  0  0  0  0  0  0  0  0
   -4.9896    5.2718  -16.0633 C   0  0  0  0  0  0  0  0  0  0  0  0
   -4.4398    4.3701  -14.9432 C   0  0  0  0  0  0  0  0  0  0  0  0
   -3.6721    5.3056  -14.0252 C   0  0  0  0  0  0  0  0  0  0  0  0
   -4.3631    6.5940  -14.1067 N   0  0  0  0  0  0  0  0  0  0  0  0
   -4.7273    6.7106  -15.5341 C   0  0  0  0  0  0  0  0  0  0  0  0
   -4.3302    4.9106  -17.3687 N   0  0  0  0  0  0  0  0  0  0  0  0
   -5.3426    4.6167  -18.3076 N   0  0  0  0  0  0  0  0  0  0  0  0
   -3.7454    7.3557  -13.8262 H   0  0  0  0  0  0  0  0  0  0  0  0
   -5.1924    4.3971  -19.2555 H   0  0  0  0  0  0  0  0  0  0  0  0
   -3.2118    5.7489  -17.8391 C   0  0  0  0  0  0  0  0  0  0  0  0
   -2.3514    5.0029  -18.8907 C   0  0  0  0  0  0  0  0  0  0  0  0
   -3.1425    5.6514  -19.9710 N   0  0  0  0  0  0  0  0  0  0  0  0
   -3.5815    6.6862  -19.0154 C   0  0  0  0  0  0  0  0  0  0  0  0
   -3.8990    5.0744  -20.3387 H   0  0  0  0  0  0  0  0  0  0  0  0
   -7.2254    6.4987  -13.9094 O   0  0  0  0  0  0  0  0  0  0  0  0
   -7.5909    5.4083  -14.1079 C   0  0  0  0  0  0  0  0  0  0  0  0
   -8.1267    4.3387  -13.1313 N   0  0  0  0  0  0  0  0  0  0  0  0
   -8.4456    3.5118  -13.5601 H   0  0  0  0  0  0  0  0  0  0  0  0
   -8.2324    4.3535  -11.7402 C   0  0  0  0  0  0  0  0  0  0  0  0
   -7.9096    5.5169  -11.0189 C   0  0  0  0  0  0  0  0  0  0  0  0
   -7.9926    5.5480   -9.6241 C   0  0  0  0  0  0  0  0  0  0  0  0
   -8.4028    4.4025   -8.9719 C   0  0  0  0  0  0  0  0  0  0  0  0
   -8.7249    3.2478   -9.6792 C   0  0  0  0  0  0  0  0  0  0  0  0
   -8.6511    3.2054  -11.0645 C   0  0  0  0  0  0  0  0  0  0  0  0
   -9.0843    2.1741   -8.7030 C   0  0  0  0  0  0  0  0  0  0  0  0
   -9.3209    2.8830   -7.4133 N   0  0  0  0  0  0  0  0  0  0  0  0
   -8.5514    4.1410   -7.5114 C   0  0  0  0  0  0  0  0  0  0  0  0
   -8.9875    2.3206   -6.6304 H   0  0  0  0  0  0  0  0  0  0  0  0
 22 23  2  0  0  0
 23 24  1  0  0  0
 24 26  1  0  0  0
 26 27  2  0  0  0
 27 28  1  0  0  0
 28 29  2  0  0  0
 29 30  1  0  0  0
 30 31  2  0  0  0
 30 32  1  0  0  0
 32 33  1  0  0  0
 33 34  1  0  0  0
 23  1  1  0  0  0
  1  2  2  0  0  0
  2  3  1  0  0  0
  3  4  1  0  0  0
  3  5  2  0  0  0
  5  6  1  0  0  0
  6  7  2  0  0  0
  7  8  1  0  0  0
  8  9  1  0  0  0
  9 10  1  0  0  0
 10 11  1  0  0  0
 11 12  1  0  0  0
  8 13  1  0  0  0
 13 17  1  0  0  0
 17 18  1  0  0  0
 18 19  1  0  0  0
 19 20  1  0  0  0
 13 14  1  0  0  0
 31 26  1  0  0  0
  7  1  1  0  0  0
 12  8  1  0  0  0
 20 17  1  0  0  0
 34 29  1  0  0  0
 14  6  1  0  0  0
 24 25  1  0  0  0
 33 35  1  0  0  0
 11 15  1  0  0  0
 19 21  1  0  0  0
 14 16  1  0  0  0
M  END
> <minimizedAffinity>
-8.69302

> <minimizedRMSD>
0.33130

$$$$
P26805


 33 38  0  0  0  0  0  0  0  0999 V2000
   -8.0840    5.5091  -14.6065 C   0  0  0  0  0  0  0  0  0  0  0  0
   -8.8407    4.4320  -15.3597 C   0  0  0  0  0  0  0  0  0  0  0  0
   -8.5910    4.4346  -16.8930 C   0  0  0  0  0  0  0  0  0  0  0  0
   -7.1140    4.7018  -17.3513 C   0  0  0  0  0  0  0  0  0  0  0  0
   -6.2031    5.0937  -16.2481 C   0  0  0  0  0  0  0  0  0  0  0  0
   -4.8889    5.2603  -16.4192 N   0  0  0  0  0  0  0  0  0  0  0  0
   -4.4614    5.6895  -15.2156 N   0  0  0  0  0  0  0  0  0  0  0  0
   -5.4778    5.8108  -14.3012 C   0  0  0  0  0  0  0  0  0  0  0  0
   -6.6338    5.4557  -14.9570 C   0  0  0  0  0  0  0  0  0  0  0  0
   -9.5892    5.2312  -17.7348 C   0  0  0  0  0  0  0  0  0  0  0  0
  -10.3828    4.3090  -18.5546 C   0  0  0  0  0  0  0  0  0  0  0  0
  -11.4664    3.9355  -17.8661 F   0  0  0  0  0  0  0  0  0  0  0  0
   -9.4447    3.1743  -18.6031 C   0  0  0  0  0  0  0  0  0  0  0  0
   -8.9563    3.1174  -17.2762 O   0  0  0  0  0  0  0  0  0  0  0  0
   -3.1450    6.3231  -15.0450 C   0  0  0  0  0  0  0  0  0  0  0  0
   -2.1167    5.4690  -14.2922 C   0  0  0  0  0  0  0  0  0  0  0  0
   -1.0951    5.9054  -15.2777 N   0  0  0  0  0  0  0  0  0  0  0  0
   -2.2017    6.1545  -16.2447 C   0  0  0  0  0  0  0  0  0  0  0  0
   -0.4421    5.1749  -15.5614 H   0  0  0  0  0  0  0  0  0  0  0  0
   -8.7607    6.8793  -12.8223 O   0  0  0  0  0  0  0  0  0  0  0  0
   -8.3624    5.8178  -13.1215 C   0  0  0  0  0  0  0  0  0  0  0  0
   -8.0756    4.5646  -12.2449 N   0  0  0  0  0  0  0  0  0  0  0  0
   -7.6689    3.8086  -12.7269 H   0  0  0  0  0  0  0  0  0  0  0  0
   -8.3003    4.3391  -10.8924 C   0  0  0  0  0  0  0  0  0  0  0  0
   -8.7622    3.0780  -10.4894 C   0  0  0  0  0  0  0  0  0  0  0  0
   -8.9705    2.7929   -9.1376 C   0  0  0  0  0  0  0  0  0  0  0  0
   -8.7291    3.7921   -8.2154 C   0  0  0  0  0  0  0  0  0  0  0  0
   -8.2918    5.0501   -8.6138 C   0  0  0  0  0  0  0  0  0  0  0  0
   -8.0663    5.3415   -9.9481 C   0  0  0  0  0  0  0  0  0  0  0  0
   -8.0869    5.9006   -7.4064 C   0  0  0  0  0  0  0  0  0  0  0  0
   -8.7417    5.1667   -6.2849 N   0  0  0  0  0  0  0  0  0  0  0  0
   -8.8157    3.7458   -6.7295 C   0  0  0  0  0  0  0  0  0  0  0  0
   -9.6770    5.5363   -6.1148 H   0  0  0  0  0  0  0  0  0  0  0  0
 20 21  2  0  0  0
 21 22  1  0  0  0
 22 24  1  0  0  0
 24 25  2  0  0  0
 25 26  1  0  0  0
 26 27  2  0  0  0
 27 28  1  0  0  0
 28 29  2  0  0  0
 28 30  1  0  0  0
 30 31  1  0  0  0
 31 32  1  0  0  0
  1 21  1  0  0  0
  1  2  1  0  0  0
  3  2  1  0  0  0
  3  4  1  0  0  0
  4  5  1  0  0  0
  5  6  2  0  0  0
  6  7  1  0  0  0
  7 15  1  0  0  0
 15 16  1  0  0  0
 16 17  1  0  0  0
 17 18  1  0  0  0
  7  8  1  0  0  0
  8  9  2  0  0  0
  3 10  1  0  0  0
 10 11  1  0  0  0
 11 12  1  0  0  0
 11 13  1  0  0  0
 13 14  1  0  0  0
 29 24  1  0  0  0
  9  1  1  0  0  0
 32 27  1  0  0  0
 14  3  1  0  0  0
  9  5  1  0  0  0
 18 15  1  0  0  0
 22 23  1  0  0  0
 31 33  1  0  0  0
 17 19  1  0  0  0
M  END
> <minimizedAffinity>
-4.64584

> <minimizedRMSD>
1.19831

$$$$
P26806


 38 43  0  0  0  0  0  0  0  0999 V2000
   -7.4845    5.2946  -13.6197 C   0  0  0  0  0  0  0  0  0  0  0  0
   -7.4507    4.9593  -15.1042 C   0  0  0  0  0  0  0  0  0  0  0  0
   -8.5905    4.6030  -15.8800 C   0  0  0  0  0  0  0  0  0  0  0  0
   -8.5763    4.3830  -17.2980 C   0  0  0  0  0  0  0  0  0  0  0  0
  -10.2272    4.0576  -18.1692 Br  0  0  0  0  0  0  0  0  0  0  0  0
   -7.4347    4.4951  -18.1081 C   0  0  0  0  0  0  0  0  0  0  0  0
   -6.2974    4.8751  -17.3903 C   0  0  0  0  0  0  0  0  0  0  0  0
   -5.0669    5.1688  -17.8446 N   0  0  0  0  0  0  0  0  0  0  0  0
   -4.3923    5.5941  -16.7605 N   0  0  0  0  0  0  0  0  0  0  0  0
   -5.0949    5.5014  -15.5925 C   0  0  0  0  0  0  0  0  0  0  0  0
   -6.3417    5.0705  -15.9570 C   0  0  0  0  0  0  0  0  0  0  0  0
   -3.1590    6.3800  -16.8927 C   0  0  0  0  0  0  0  0  0  0  0  0
   -2.1615    5.7969  -17.9096 C   0  0  0  0  0  0  0  0  0  0  0  0
   -1.0762    6.1520  -16.9579 N   0  0  0  0  0  0  0  0  0  0  0  0
   -2.0664    6.0673  -15.8573 C   0  0  0  0  0  0  0  0  0  0  0  0
   -0.6797    7.0813  -17.0980 H   0  0  0  0  0  0  0  0  0  0  0  0
   -6.8676    7.6268  -13.3627 O   0  0  0  0  0  0  0  0  0  0  0  0
   -7.7426    6.8555  -13.4512 C   0  0  0  0  0  0  0  0  0  0  0  0
   -9.2781    7.0710  -13.4264 N   0  0  0  0  0  0  0  0  0  0  0  0
   -9.8108    6.2432  -13.4428 H   0  0  0  0  0  0  0  0  0  0  0  0
  -10.0535    8.2880  -13.3832 C   0  0  0  0  0  0  0  0  0  0  0  0
   -9.4158    9.3608  -12.4807 C   0  0  0  0  0  0  0  0  0  0  0  0
  -10.2636   10.6191  -12.3958 C   0  0  0  0  0  0  0  0  0  0  0  0
  -11.2624   10.2719  -11.3177 C   0  0  0  0  0  0  0  0  0  0  0  0
  -10.4693    9.3692  -10.3942 C   0  0  0  0  0  0  0  0  0  0  0  0
   -9.3317    8.8869  -11.1251 O   0  0  0  0  0  0  0  0  0  0  0  0
   -8.4797    4.4429  -12.9050 N   0  0  0  0  0  0  0  0  0  0  0  0
   -9.2043    3.9918  -13.3955 H   0  0  0  0  0  0  0  0  0  0  0  0
   -8.3530    4.3010  -11.4987 C   0  0  0  0  0  0  0  0  0  0  0  0
   -8.7006    3.0582  -10.9265 C   0  0  0  0  0  0  0  0  0  0  0  0
   -8.7799    2.8627   -9.5430 C   0  0  0  0  0  0  0  0  0  0  0  0
   -8.5272    3.9367   -8.7226 C   0  0  0  0  0  0  0  0  0  0  0  0
   -8.1770    5.1678   -9.2563 C   0  0  0  0  0  0  0  0  0  0  0  0
   -8.0868    5.3658  -10.6271 C   0  0  0  0  0  0  0  0  0  0  0  0
   -7.9819    6.1390   -8.1414 C   0  0  0  0  0  0  0  0  0  0  0  0
   -7.8798    5.3052   -6.9088 N   0  0  0  0  0  0  0  0  0  0  0  0
   -8.6012    4.0416   -7.2390 C   0  0  0  0  0  0  0  0  0  0  0  0
   -8.3229    5.7757   -6.1197 H   0  0  0  0  0  0  0  0  0  0  0  0
 17 18  2  0  0  0
 18 19  1  0  0  0
 19 21  1  0  0  0
 22 21  1  0  0  0
 22 23  1  0  0  0
 23 24  1  0  0  0
 24 25  1  0  0  0
 25 26  1  0  0  0
 18  1  1  0  0  0
  1 27  1  0  0  0
 27 29  1  0  0  0
 29 30  2  0  0  0
 30 31  1  0  0  0
 31 32  2  0  0  0
 32 33  1  0  0  0
 33 34  2  0  0  0
 33 35  1  0  0  0
 35 36  1  0  0  0
 36 37  1  0  0  0
  1  2  1  0  0  0
  2  3  2  0  0  0
  3  4  1  0  0  0
  4  5  1  0  0  0
  4  6  2  0  0  0
  6  7  1  0  0  0
  7  8  2  0  0  0
  8  9  1  0  0  0
  9 12  1  0  0  0
 12 13  1  0  0  0
 13 14  1  0  0  0
 14 15  1  0  0  0
  9 10  1  0  0  0
 10 11  2  0  0  0
 26 22  1  0  0  0
 34 29  1  0  0  0
 11  2  1  0  0  0
 37 32  1  0  0  0
 11  7  1  0  0  0
 15 12  1  0  0  0
 19 20  1  0  0  0
 27 28  1  0  0  0
 36 38  1  0  0  0
 14 16  1  0  0  0
M  END
> <minimizedAffinity>
-7.45910

> <minimizedRMSD>
0.75268

$$$$
P26814


 31 36  0  0  0  0  0  0  0  0999 V2000
   -4.5325    5.0785  -19.0395 O   0  0  0  0  0  0  0  0  0  0  0  0
   -5.0120    4.9740  -17.8855 N   0  0  0  0  0  0  0  0  0  0  0  0
   -6.2570    4.7071  -17.4525 C   0  0  0  0  0  0  0  0  0  0  0  0
   -7.4012    4.4291  -18.1965 C   0  0  0  0  0  0  0  0  0  0  0  0
   -8.5414    4.4016  -17.3851 C   0  0  0  0  0  0  0  0  0  0  0  0
  -10.2216    4.1462  -18.2186 Br  0  0  0  0  0  0  0  0  0  0  0  0
   -8.4551    4.6261  -15.9832 C   0  0  0  0  0  0  0  0  0  0  0  0
   -7.3285    4.7688  -15.1670 C   0  0  0  0  0  0  0  0  0  0  0  0
   -6.1997    4.8481  -15.9663 C   0  0  0  0  0  0  0  0  0  0  0  0
   -4.9310    5.2166  -15.5320 C   0  0  0  0  0  0  0  0  0  0  0  0
   -4.2092    5.3554  -16.7041 N   0  0  0  0  0  0  0  0  0  0  0  0
   -7.7838    5.0788  -13.7656 C   0  0  0  0  0  0  0  0  0  0  0  0
   -9.1733    5.5598  -13.9501 N   0  0  0  0  0  0  0  0  0  0  0  0
   -9.4861    5.2032  -15.1586 C   0  0  0  0  0  0  0  0  0  0  0  0
   -2.8439    5.8841  -16.8463 C   0  0  0  0  0  0  0  0  0  0  0  0
   -2.8148    7.4230  -16.9600 C   0  0  0  0  0  0  0  0  0  0  0  0
   -1.6010    7.4191  -16.1027 N   0  0  0  0  0  0  0  0  0  0  0  0
   -2.0527    6.1185  -15.5475 C   0  0  0  0  0  0  0  0  0  0  0  0
   -1.5614    8.1781  -15.4225 H   0  0  0  0  0  0  0  0  0  0  0  0
   -7.7604    3.8903  -12.9425 N   0  0  0  0  0  0  0  0  0  0  0  0
   -7.5320    3.0153  -13.3318 H   0  0  0  0  0  0  0  0  0  0  0  0
   -8.0712    4.0075  -11.5699 C   0  0  0  0  0  0  0  0  0  0  0  0
   -8.6899    2.9004  -10.9496 C   0  0  0  0  0  0  0  0  0  0  0  0
   -8.9339    2.8530   -9.5738 C   0  0  0  0  0  0  0  0  0  0  0  0
   -8.5192    3.9187   -8.8076 C   0  0  0  0  0  0  0  0  0  0  0  0
   -7.9110    5.0228   -9.3898 C   0  0  0  0  0  0  0  0  0  0  0  0
   -7.6750    5.0811  -10.7582 C   0  0  0  0  0  0  0  0  0  0  0  0
   -7.6010    6.0194   -8.3256 C   0  0  0  0  0  0  0  0  0  0  0  0
   -7.7338    5.2817   -7.0355 N   0  0  0  0  0  0  0  0  0  0  0  0
   -8.5973    4.1033   -7.3351 C   0  0  0  0  0  0  0  0  0  0  0  0
   -8.1718    5.8740   -6.3300 H   0  0  0  0  0  0  0  0  0  0  0  0
  1  2  1  0  0  0
  2  3  2  0  0  0
  3  4  1  0  0  0
  4  5  2  0  0  0
  5  6  1  0  0  0
  5  7  1  0  0  0
  7  8  2  0  0  0
  8  9  1  0  0  0
  9 10  2  0  0  0
 10 11  1  0  0  0
 11 15  1  0  0  0
 15 16  1  0  0  0
 16 17  1  0  0  0
 17 18  1  0  0  0
  8 12  1  0  0  0
 12 20  1  0  0  0
 20 22  1  0  0  0
 22 23  2  0  0  0
 23 24  1  0  0  0
 24 25  2  0  0  0
 25 26  1  0  0  0
 26 27  2  0  0  0
 26 28  1  0  0  0
 28 29  1  0  0  0
 29 30  1  0  0  0
 12 13  1  0  0  0
 13 14  2  0  0  0
 11  2  1  0  0  0
 18 15  1  0  0  0
 27 22  1  0  0  0
  9  3  1  0  0  0
 30 25  1  0  0  0
 14  7  1  0  0  0
 17 19  1  0  0  0
 20 21  1  0  0  0
 29 31  1  0  0  0
M  CHG 1   1  -1
M  CHG 1   2   1
M  END
> <minimizedAffinity>
-7.48968

> <minimizedRMSD>
0.75347

$$$$
P26818


 30 34  0  0  0  0  0  0  0  0999 V2000
   -7.6113    4.8430  -15.4485 C   0  0  0  0  0  0  0  0  0  0  0  0
   -8.8102    4.5154  -16.1104 C   0  0  0  0  0  0  0  0  0  0  0  0
   -8.9070    4.3135  -17.5320 C   0  0  0  0  0  0  0  0  0  0  0  0
  -10.6253    4.1572  -18.2961 Br  0  0  0  0  0  0  0  0  0  0  0  0
   -7.8361    4.3590  -18.4431 C   0  0  0  0  0  0  0  0  0  0  0  0
   -6.6568    4.6539  -17.7875 C   0  0  0  0  0  0  0  0  0  0  0  0
   -6.5319    4.8924  -16.3350 C   0  0  0  0  0  0  0  0  0  0  0  0
   -5.2218    5.1972  -15.9785 C   0  0  0  0  0  0  0  0  0  0  0  0
   -4.5424    5.1895  -17.1728 N   0  0  0  0  0  0  0  0  0  0  0  0
   -5.4226    4.8266  -18.2920 N   0  0  0  0  0  0  0  0  0  0  0  0
   -4.9675    4.7859  -19.4590 O   0  0  0  0  0  0  0  0  0  0  0  0
   -3.1377    5.5542  -17.3978 C   0  0  0  0  0  0  0  0  0  0  0  0
   -2.3593    6.0652  -16.1811 C   0  0  0  0  0  0  0  0  0  0  0  0
   -2.7370    7.4513  -16.5350 N   0  0  0  0  0  0  0  0  0  0  0  0
   -3.0026    6.9987  -17.9210 C   0  0  0  0  0  0  0  0  0  0  0  0
   -1.9777    8.1274  -16.4524 H   0  0  0  0  0  0  0  0  0  0  0  0
   -7.0697    6.3747  -13.8738 O   0  0  0  0  0  0  0  0  0  0  0  0
   -7.5533    5.3268  -14.0552 C   0  0  0  0  0  0  0  0  0  0  0  0
   -8.0953    4.2860  -13.0495 N   0  0  0  0  0  0  0  0  0  0  0  0
   -8.3878    3.4368  -13.4527 H   0  0  0  0  0  0  0  0  0  0  0  0
   -8.2375    4.3539  -11.6624 C   0  0  0  0  0  0  0  0  0  0  0  0
   -7.9423    5.5351  -10.9632 C   0  0  0  0  0  0  0  0  0  0  0  0
   -8.0255    5.5854   -9.5669 C   0  0  0  0  0  0  0  0  0  0  0  0
   -8.3894    4.4372   -8.8881 C   0  0  0  0  0  0  0  0  0  0  0  0
   -8.6857    3.2679   -9.5733 C   0  0  0  0  0  0  0  0  0  0  0  0
   -8.6304    3.2138  -10.9600 C   0  0  0  0  0  0  0  0  0  0  0  0
   -8.9819    2.1838   -8.5920 C   0  0  0  0  0  0  0  0  0  0  0  0
   -9.0220    2.8295   -7.2539 N   0  0  0  0  0  0  0  0  0  0  0  0
   -8.5038    4.2021   -7.4217 C   0  0  0  0  0  0  0  0  0  0  0  0
   -8.4373    2.3121   -6.5975 H   0  0  0  0  0  0  0  0  0  0  0  0
 17 18  2  0  0  0
 18 19  1  0  0  0
 19 21  1  0  0  0
 21 22  2  0  0  0
 22 23  1  0  0  0
 23 24  2  0  0  0
 24 25  1  0  0  0
 25 26  2  0  0  0
 25 27  1  0  0  0
 27 28  1  0  0  0
 28 29  1  0  0  0
 18  1  1  0  0  0
  1  2  2  0  0  0
  2  3  1  0  0  0
  3  4  1  0  0  0
  3  5  2  0  0  0
  5  6  1  0  0  0
  6  7  1  0  0  0
  7  8  2  0  0  0
  8  9  1  0  0  0
  9 12  1  0  0  0
 12 13  1  0  0  0
 13 14  1  0  0  0
 14 15  1  0  0  0
  9 10  1  0  0  0
 10 11  1  0  0  0
 26 21  1  0  0  0
  7  1  1  0  0  0
 15 12  1  0  0  0
 29 24  1  0  0  0
 10  6  2  0  0  0
 19 20  1  0  0  0
 28 30  1  0  0  0
 14 16  1  0  0  0
M  CHG 1  10   1
M  CHG 1  11  -1
M  END
> <minimizedAffinity>
-8.33982

> <minimizedRMSD>
0.18991

$$$$
P26821


 31 35  0  0  0  0  0  0  0  0999 V2000
   -7.4912    4.8319  -15.5382 C   0  0  0  0  0  0  0  0  0  0  0  0
   -8.7329    4.5344  -16.1480 C   0  0  0  0  0  0  0  0  0  0  0  0
   -8.8902    4.3166  -17.5584 C   0  0  0  0  0  0  0  0  0  0  0  0
  -10.6523    4.1755  -18.2321 Br  0  0  0  0  0  0  0  0  0  0  0  0
   -7.8496    4.3263  -18.5068 C   0  0  0  0  0  0  0  0  0  0  0  0
   -6.6325    4.6199  -17.9124 C   0  0  0  0  0  0  0  0  0  0  0  0
   -6.4372    4.8731  -16.4677 C   0  0  0  0  0  0  0  0  0  0  0  0
   -5.1134    5.2159  -16.1944 C   0  0  0  0  0  0  0  0  0  0  0  0
   -4.4839    5.2098  -17.4276 N   0  0  0  0  0  0  0  0  0  0  0  0
   -5.4266    4.7956  -18.4921 N   0  0  0  0  0  0  0  0  0  0  0  0
   -5.0707    4.7432  -19.6929 O   0  0  0  0  0  0  0  0  0  0  0  0
   -3.1527    5.8169  -17.6256 C   0  0  0  0  0  0  0  0  0  0  0  0
   -3.1873    7.0706  -18.5215 C   0  0  0  0  0  0  0  0  0  0  0  0
   -1.9384    6.5986  -19.1544 N   0  0  0  0  0  0  0  0  0  0  0  0
   -2.2624    5.2158  -18.7267 C   0  0  0  0  0  0  0  0  0  0  0  0
   -1.0884    6.9776  -18.7368 H   0  0  0  0  0  0  0  0  0  0  0  0
   -8.1195    4.3343  -13.1607 N   0  0  0  0  0  0  0  0  0  0  0  0
   -7.4040    5.2996  -14.1388 C   0  0  0  0  0  0  0  0  0  0  0  0
   -6.8714    6.3209  -13.9409 O   0  0  0  0  0  0  0  0  0  0  0  0
   -8.5603    3.5652  -13.5892 H   0  0  0  0  0  0  0  0  0  0  0  0
   -8.3819    5.0151   -6.6918 O   0  0  0  0  0  0  0  0  0  0  0  0
   -8.5829    4.2066   -7.5777 C   0  0  0  0  0  0  0  0  0  0  0  0
   -8.9650    2.8907   -7.4393 N   0  0  0  0  0  0  0  0  0  0  0  0
   -8.9623    2.1806   -8.7000 C   0  0  0  0  0  0  0  0  0  0  0  0
   -8.6872    3.2652   -9.6912 C   0  0  0  0  0  0  0  0  0  0  0  0
   -8.6133    3.2176  -11.0772 C   0  0  0  0  0  0  0  0  0  0  0  0
   -8.2410    4.3777  -11.7699 C   0  0  0  0  0  0  0  0  0  0  0  0
   -7.9810    5.5698  -11.0671 C   0  0  0  0  0  0  0  0  0  0  0  0
   -8.0883    5.6213   -9.6732 C   0  0  0  0  0  0  0  0  0  0  0  0
   -8.4377    4.4577   -9.0177 C   0  0  0  0  0  0  0  0  0  0  0  0
   -9.2121    2.4795   -6.5796 H   0  0  0  0  0  0  0  0  0  0  0  0
 21 22  2  0  0  0
 22 23  1  0  0  0
 23 24  1  0  0  0
 24 25  1  0  0  0
 25 26  2  0  0  0
 26 27  1  0  0  0
 27 17  1  0  0  0
 17 18  1  0  0  0
 18 19  2  0  0  0
 18  1  1  0  0  0
  1  2  2  0  0  0
  2  3  1  0  0  0
  3  4  1  0  0  0
  3  5  2  0  0  0
  5  6  1  0  0  0
  6  7  1  0  0  0
  7  8  2  0  0  0
  8  9  1  0  0  0
  9 12  1  0  0  0
 12 13  1  0  0  0
 13 14  1  0  0  0
 14 15  1  0  0  0
  9 10  1  0  0  0
 10 11  1  0  0  0
 27 28  2  0  0  0
 28 29  1  0  0  0
 29 30  2  0  0  0
 30 22  1  0  0  0
 30 25  1  0  0  0
  7  1  1  0  0  0
 15 12  1  0  0  0
 10  6  2  0  0  0
 23 31  1  0  0  0
 17 20  1  0  0  0
 14 16  1  0  0  0
M  CHG 1  10   1
M  CHG 1  11  -1
M  END
> <minimizedAffinity>
-8.63703

> <minimizedRMSD>
0.30477

$$$$
P26823


 33 37  0  0  0  0  0  0  0  0999 V2000
   -5.3669    5.0253  -18.1573 C   0  0  0  0  0  0  0  0  0  0  0  0
   -6.6139    4.7896  -17.5974 C   0  0  0  0  0  0  0  0  0  0  0  0
   -7.7706    4.4456  -18.2890 C   0  0  0  0  0  0  0  0  0  0  0  0
   -8.8710    4.3363  -17.4114 C   0  0  0  0  0  0  0  0  0  0  0  0
  -10.5647    4.0827  -18.2187 Br  0  0  0  0  0  0  0  0  0  0  0  0
   -8.8175    4.5340  -15.9902 C   0  0  0  0  0  0  0  0  0  0  0  0
   -7.6340    4.9005  -15.3142 C   0  0  0  0  0  0  0  0  0  0  0  0
   -6.5511    5.0057  -16.1931 C   0  0  0  0  0  0  0  0  0  0  0  0
   -5.2633    5.3599  -15.9041 C   0  0  0  0  0  0  0  0  0  0  0  0
   -4.5467    5.3832  -17.0897 N   0  0  0  0  0  0  0  0  0  0  0  0
   -3.1225    5.8224  -17.0109 C   0  0  0  0  0  0  0  0  0  0  0  0
   -2.9886    7.3576  -17.0831 C   0  0  0  0  0  0  0  0  0  0  0  0
   -2.4996    7.2243  -18.4702 N   0  0  0  0  0  0  0  0  0  0  0  0
   -2.1877    5.8048  -18.2202 C   0  0  0  0  0  0  0  0  0  0  0  0
   -1.6841    7.7993  -18.6818 H   0  0  0  0  0  0  0  0  0  0  0  0
   -7.6127    5.3647  -13.9147 C   0  0  0  0  0  0  0  0  0  0  0  0
   -7.2174    6.4462  -13.7131 O   0  0  0  0  0  0  0  0  0  0  0  0
   -8.1832    4.3066  -12.9389 N   0  0  0  0  0  0  0  0  0  0  0  0
   -8.5232    3.4893  -13.3698 H   0  0  0  0  0  0  0  0  0  0  0  0
   -8.2940    4.3230  -11.5469 C   0  0  0  0  0  0  0  0  0  0  0  0
   -7.9811    5.4808  -10.8163 C   0  0  0  0  0  0  0  0  0  0  0  0
   -8.0561    5.4953   -9.4193 C   0  0  0  0  0  0  0  0  0  0  0  0
   -8.4269    4.3331   -8.7696 C   0  0  0  0  0  0  0  0  0  0  0  0
   -8.7368    3.1847   -9.4839 C   0  0  0  0  0  0  0  0  0  0  0  0
   -8.6925    3.1663  -10.8732 C   0  0  0  0  0  0  0  0  0  0  0  0
   -9.0412    2.0796   -8.5287 C   0  0  0  0  0  0  0  0  0  0  0  0
   -9.0511    2.6862   -7.1705 N   0  0  0  0  0  0  0  0  0  0  0  0
   -8.5416    4.0652   -7.3093 C   0  0  0  0  0  0  0  0  0  0  0  0
   -8.4492    2.1518   -6.5439 H   0  0  0  0  0  0  0  0  0  0  0  0
   -4.9653    4.9004  -19.5909 C   0  0  0  0  0  0  0  0  0  0  0  0
   -4.2252    6.2654  -21.3980 C   0  0  0  0  0  0  0  0  0  0  0  0
   -5.1952    6.1457  -20.3175 N   0  0  0  0  0  0  0  0  0  0  0  0
   -6.1382    6.1430  -20.7063 H   0  0  0  0  0  0  0  0  0  0  0  0
 31 32  1  0  0  0
 32 30  1  0  0  0
 30  1  1  0  0  0
  1  2  2  0  0  0
  2  3  1  0  0  0
  3  4  2  0  0  0
  4  5  1  0  0  0
  4  6  1  0  0  0
  6  7  2  0  0  0
  7 16  1  0  0  0
 16 17  2  0  0  0
 16 18  1  0  0  0
 18 20  1  0  0  0
 20 21  2  0  0  0
 21 22  1  0  0  0
 22 23  2  0  0  0
 23 24  1  0  0  0
 24 25  2  0  0  0
 24 26  1  0  0  0
 26 27  1  0  0  0
 27 28  1  0  0  0
  7  8  1  0  0  0
  8  9  2  0  0  0
  9 10  1  0  0  0
 10 11  1  0  0  0
 11 12  1  0  0  0
 12 13  1  0  0  0
 13 14  1  0  0  0
 10  1  1  0  0  0
 14 11  1  0  0  0
  8  2  1  0  0  0
 25 20  1  0  0  0
 28 23  1  0  0  0
 32 33  1  0  0  0
 18 19  1  0  0  0
 27 29  1  0  0  0
 13 15  1  0  0  0
M  END
> <minimizedAffinity>
-8.33214

> <minimizedRMSD>
0.19707

$$$$
P26825


 33 38  0  0  0  0  0  0  0  0999 V2000
   -7.2898    4.3449  -15.4895 C   0  0  0  0  0  0  0  0  0  0  0  0
   -8.5751    4.2107  -16.0845 C   0  0  0  0  0  0  0  0  0  0  0  0
   -8.8081    4.3248  -17.4942 C   0  0  0  0  0  0  0  0  0  0  0  0
  -10.5618    4.1863  -18.1769 Br  0  0  0  0  0  0  0  0  0  0  0  0
   -7.8175    4.5625  -18.4552 C   0  0  0  0  0  0  0  0  0  0  0  0
   -6.5989    4.7709  -17.8460 C   0  0  0  0  0  0  0  0  0  0  0  0
   -5.4459    5.0626  -18.5161 C   0  0  0  0  0  0  0  0  0  0  0  0
   -4.5290    5.4020  -17.5489 N   0  0  0  0  0  0  0  0  0  0  0  0
   -5.0004    5.0746  -16.2885 C   0  0  0  0  0  0  0  0  0  0  0  0
   -6.3189    4.6946  -16.4421 C   0  0  0  0  0  0  0  0  0  0  0  0
   -3.3550    6.1711  -17.9170 C   0  0  0  0  0  0  0  0  0  0  0  0
   -2.0863    5.3510  -18.0381 C   0  0  0  0  0  0  0  0  0  0  0  0
   -1.2767    6.1001  -19.0740 C   0  0  0  0  0  0  0  0  0  0  0  0
   -2.2555    6.5298  -20.0676 N   0  0  0  0  0  0  0  0  0  0  0  0
   -3.4726    6.8438  -19.3289 C   0  0  0  0  0  0  0  0  0  0  0  0
   -4.5627    6.4899  -20.2174 N   0  0  0  0  0  0  0  0  0  0  0  0
   -5.0741    5.1519  -19.9474 C   0  0  0  0  0  0  0  0  0  0  0  0
   -2.4316    5.7811  -20.7376 H   0  0  0  0  0  0  0  0  0  0  0  0
   -4.2281    6.5266  -21.1803 H   0  0  0  0  0  0  0  0  0  0  0  0
   -6.6396    2.8052  -13.9358 O   0  0  0  0  0  0  0  0  0  0  0  0
   -7.0966    3.8666  -14.1033 C   0  0  0  0  0  0  0  0  0  0  0  0
   -7.6602    4.8885  -13.0855 N   0  0  0  0  0  0  0  0  0  0  0  0
   -7.9209    5.7551  -13.4730 H   0  0  0  0  0  0  0  0  0  0  0  0
   -7.8591    4.7805  -11.7049 C   0  0  0  0  0  0  0  0  0  0  0  0
   -7.6986    5.9342  -10.9192 C   0  0  0  0  0  0  0  0  0  0  0  0
   -7.8935    5.8964   -9.5332 C   0  0  0  0  0  0  0  0  0  0  0  0
   -8.3388    4.7181   -8.9645 C   0  0  0  0  0  0  0  0  0  0  0  0
   -8.5767    3.5921   -9.7452 C   0  0  0  0  0  0  0  0  0  0  0  0
   -8.2917    3.5867  -11.1097 C   0  0  0  0  0  0  0  0  0  0  0  0
   -9.1623    2.5225   -8.8757 C   0  0  0  0  0  0  0  0  0  0  0  0
   -9.4277    3.1675   -7.5571 N   0  0  0  0  0  0  0  0  0  0  0  0
   -8.6238    4.3991   -7.5361 C   0  0  0  0  0  0  0  0  0  0  0  0
   -9.1464    2.5481   -6.7971 H   0  0  0  0  0  0  0  0  0  0  0  0
 20 21  2  0  0  0
 21 22  1  0  0  0
 22 24  1  0  0  0
 24 25  2  0  0  0
 25 26  1  0  0  0
 26 27  2  0  0  0
 27 28  1  0  0  0
 28 29  2  0  0  0
 28 30  1  0  0  0
 30 31  1  0  0  0
 31 32  1  0  0  0
 21  1  1  0  0  0
  1  2  2  0  0  0
  2  3  1  0  0  0
  3  4  1  0  0  0
  3  5  2  0  0  0
  5  6  1  0  0  0
  6  7  2  0  0  0
  7  8  1  0  0  0
  8  9  1  0  0  0
  9 10  2  0  0  0
  8 11  1  0  0  0
 11 12  1  0  0  0
 12 13  1  0  0  0
 13 14  1  0  0  0
 15 14  1  0  0  0
 15 16  1  0  0  0
 16 17  1  0  0  0
 29 24  1  0  0  0
 10  1  1  0  0  0
 15 11  1  0  0  0
 32 27  1  0  0  0
 10  6  1  0  0  0
 17  7  1  0  0  0
 22 23  1  0  0  0
 31 33  1  0  0  0
 14 18  1  0  0  0
 16 19  1  0  0  0
M  END
> <minimizedAffinity>
-9.37061

> <minimizedRMSD>
0.29104

$$$$
P26828


 34 38  0  0  0  0  0  0  0  0999 V2000
   -5.3801    5.0249  -18.5679 C   0  0  0  0  0  0  0  0  0  0  0  0
   -6.5688    4.7506  -17.9168 C   0  0  0  0  0  0  0  0  0  0  0  0
   -7.7651    4.3998  -18.5264 C   0  0  0  0  0  0  0  0  0  0  0  0
   -8.7967    4.2941  -17.5701 C   0  0  0  0  0  0  0  0  0  0  0  0
  -10.5486    4.1073  -18.2553 Br  0  0  0  0  0  0  0  0  0  0  0  0
   -8.6378    4.4708  -16.1539 C   0  0  0  0  0  0  0  0  0  0  0  0
   -7.4113    4.8352  -15.5592 C   0  0  0  0  0  0  0  0  0  0  0  0
   -6.4007    4.9643  -16.5172 C   0  0  0  0  0  0  0  0  0  0  0  0
   -5.1134    5.3905  -16.3305 C   0  0  0  0  0  0  0  0  0  0  0  0
   -4.5058    5.4361  -17.5686 N   0  0  0  0  0  0  0  0  0  0  0  0
   -3.2255    6.1506  -17.7697 C   0  0  0  0  0  0  0  0  0  0  0  0
   -2.0678    5.3466  -18.3830 C   0  0  0  0  0  0  0  0  0  0  0  0
   -1.1547    5.9859  -17.3989 N   0  0  0  0  0  0  0  0  0  0  0  0
   -2.3257    6.1933  -16.5158 C   0  0  0  0  0  0  0  0  0  0  0  0
   -0.7149    6.8458  -17.7268 H   0  0  0  0  0  0  0  0  0  0  0  0
   -7.2963    5.2834  -14.1581 C   0  0  0  0  0  0  0  0  0  0  0  0
   -6.6482    6.2335  -13.9491 O   0  0  0  0  0  0  0  0  0  0  0  0
   -8.1285    4.4037  -13.1924 N   0  0  0  0  0  0  0  0  0  0  0  0
   -8.6536    3.6949  -13.6295 H   0  0  0  0  0  0  0  0  0  0  0  0
   -8.2554    4.4526  -11.8016 C   0  0  0  0  0  0  0  0  0  0  0  0
   -8.0797    5.6582  -11.1055 C   0  0  0  0  0  0  0  0  0  0  0  0
   -8.1737    5.6968   -9.7101 C   0  0  0  0  0  0  0  0  0  0  0  0
   -7.9253    7.3358   -8.8031 Br  0  0  0  0  0  0  0  0  0  0  0  0
   -8.4289    4.5267   -9.0205 C   0  0  0  0  0  0  0  0  0  0  0  0
   -8.6005    3.3313   -9.7079 C   0  0  0  0  0  0  0  0  0  0  0  0
   -8.5328    3.2795  -11.0958 C   0  0  0  0  0  0  0  0  0  0  0  0
   -8.7847    2.2222   -8.7253 C   0  0  0  0  0  0  0  0  0  0  0  0
   -8.9673    2.8710   -7.4032 N   0  0  0  0  0  0  0  0  0  0  0  0
   -8.5291    4.2733   -7.5551 C   0  0  0  0  0  0  0  0  0  0  0  0
   -8.3997    2.3997   -6.6988 H   0  0  0  0  0  0  0  0  0  0  0  0
   -5.0326    4.8970  -20.0171 C   0  0  0  0  0  0  0  0  0  0  0  0
   -4.0914    6.5894  -21.4038 C   0  0  0  0  0  0  0  0  0  0  0  0
   -5.3142    6.1262  -20.7550 N   0  0  0  0  0  0  0  0  0  0  0  0
   -6.0269    5.9440  -21.4615 H   0  0  0  0  0  0  0  0  0  0  0  0
 32 33  1  0  0  0
 33 31  1  0  0  0
 31  1  1  0  0  0
  1  2  2  0  0  0
  2  3  1  0  0  0
  3  4  2  0  0  0
  4  5  1  0  0  0
  4  6  1  0  0  0
  6  7  2  0  0  0
  7 16  1  0  0  0
 16 17  2  0  0  0
 16 18  1  0  0  0
 18 20  1  0  0  0
 20 21  2  0  0  0
 21 22  1  0  0  0
 22 23  1  0  0  0
 22 24  2  0  0  0
 24 25  1  0  0  0
 25 26  2  0  0  0
 25 27  1  0  0  0
 27 28  1  0  0  0
 28 29  1  0  0  0
  7  8  1  0  0  0
  8  9  2  0  0  0
  9 10  1  0  0  0
 10 11  1  0  0  0
 11 12  1  0  0  0
 12 13  1  0  0  0
 13 14  1  0  0  0
 10  1  1  0  0  0
 14 11  1  0  0  0
  8  2  1  0  0  0
 26 20  1  0  0  0
 29 24  1  0  0  0
 33 34  1  0  0  0
 18 19  1  0  0  0
 28 30  1  0  0  0
 13 15  1  0  0  0
M  END
> <minimizedAffinity>
-8.50337

> <minimizedRMSD>
0.47309

$$$$
P26834


 35 40  0  0  0  0  0  0  0  0999 V2000
   -2.7678    4.0231  -19.3775 C   0  0  0  0  0  0  0  0  0  0  0  0
   -2.6628    5.4535  -19.1269 N   0  0  0  0  0  0  0  0  0  0  0  0
   -3.8050    6.1765  -19.6720 C   0  0  0  0  0  0  0  0  0  0  0  0
   -5.2139    5.7794  -19.2490 C   0  0  0  0  0  0  0  0  0  0  0  0
   -5.5895    5.6612  -17.7952 C   0  0  0  0  0  0  0  0  0  0  0  0
   -6.7273    5.0339  -17.3107 C   0  0  0  0  0  0  0  0  0  0  0  0
   -7.7315    4.5031  -18.1066 C   0  0  0  0  0  0  0  0  0  0  0  0
   -8.8950    4.2734  -17.3445 C   0  0  0  0  0  0  0  0  0  0  0  0
  -10.4655    3.9795  -18.3626 Br  0  0  0  0  0  0  0  0  0  0  0  0
   -9.0061    4.4540  -15.9207 C   0  0  0  0  0  0  0  0  0  0  0  0
   -7.9443    4.9486  -15.1258 C   0  0  0  0  0  0  0  0  0  0  0  0
   -6.8199    5.2344  -15.9112 C   0  0  0  0  0  0  0  0  0  0  0  0
   -5.6734    5.8794  -15.5358 C   0  0  0  0  0  0  0  0  0  0  0  0
   -5.0046    6.2716  -16.6919 N   0  0  0  0  0  0  0  0  0  0  0  0
   -4.0116    7.3253  -16.6224 C   0  0  0  0  0  0  0  0  0  0  0  0
   -4.3954    8.6554  -17.2706 C   0  0  0  0  0  0  0  0  0  0  0  0
   -3.0452    9.3265  -17.4643 C   0  0  0  0  0  0  0  0  0  0  0  0
   -2.1767    8.2299  -17.8738 N   0  0  0  0  0  0  0  0  0  0  0  0
   -2.5659    7.0514  -17.0672 C   0  0  0  0  0  0  0  0  0  0  0  0
   -2.3217    5.6774  -17.7191 C   0  0  0  0  0  0  0  0  0  0  0  0
   -1.2012    8.4698  -17.6968 H   0  0  0  0  0  0  0  0  0  0  0  0
   -8.1009    5.4194  -13.7292 C   0  0  0  0  0  0  0  0  0  0  0  0
   -8.1065    6.5737  -13.5493 O   0  0  0  0  0  0  0  0  0  0  0  0
   -8.1498    4.2477  -12.7215 N   0  0  0  0  0  0  0  0  0  0  0  0
   -8.0553    3.3541  -13.1236 H   0  0  0  0  0  0  0  0  0  0  0  0
   -8.3063    4.2510  -11.3343 C   0  0  0  0  0  0  0  0  0  0  0  0
   -7.9796    5.3929  -10.5808 C   0  0  0  0  0  0  0  0  0  0  0  0
   -8.0807    5.3932   -9.1855 C   0  0  0  0  0  0  0  0  0  0  0  0
   -8.5108    4.2376   -8.5642 C   0  0  0  0  0  0  0  0  0  0  0  0
   -8.8343    3.1035   -9.3029 C   0  0  0  0  0  0  0  0  0  0  0  0
   -8.7470    3.0955  -10.6883 C   0  0  0  0  0  0  0  0  0  0  0  0
   -9.2053    2.0071   -8.3566 C   0  0  0  0  0  0  0  0  0  0  0  0
   -9.4684    2.6874   -7.0608 N   0  0  0  0  0  0  0  0  0  0  0  0
   -8.6903    3.9432   -7.1127 C   0  0  0  0  0  0  0  0  0  0  0  0
   -9.1568    2.1062   -6.2827 H   0  0  0  0  0  0  0  0  0  0  0  0
  1  2  1  0  0  0
  2  3  1  0  0  0
  3  4  1  0  0  0
  4  5  1  0  0  0
  5  6  2  0  0  0
  6  7  1  0  0  0
  7  8  2  0  0  0
  8  9  1  0  0  0
  8 10  1  0  0  0
 10 11  2  0  0  0
 11 22  1  0  0  0
 22 23  2  0  0  0
 22 24  1  0  0  0
 24 26  1  0  0  0
 26 27  2  0  0  0
 27 28  1  0  0  0
 28 29  2  0  0  0
 29 30  1  0  0  0
 30 31  2  0  0  0
 30 32  1  0  0  0
 32 33  1  0  0  0
 33 34  1  0  0  0
 11 12  1  0  0  0
 12 13  2  0  0  0
 13 14  1  0  0  0
 14 15  1  0  0  0
 15 16  1  0  0  0
 16 17  1  0  0  0
 17 18  1  0  0  0
 18 19  1  0  0  0
 19 20  1  0  0  0
 20  2  1  0  0  0
 14  5  1  0  0  0
 19 15  1  0  0  0
 12  6  1  0  0  0
 31 26  1  0  0  0
 34 29  1  0  0  0
 24 25  1  0  0  0
 33 35  1  0  0  0
 18 21  1  0  0  0
M  END
> <minimizedAffinity>
-9.27803

> <minimizedRMSD>
0.46811

$$$$
P26837


 33 37  0  0  0  0  0  0  0  0999 V2000
   -5.3323    4.9554  -18.4704 C   0  0  0  0  0  0  0  0  0  0  0  0
   -6.5480    4.7355  -17.8582 C   0  0  0  0  0  0  0  0  0  0  0  0
   -7.7343    4.3967  -18.4944 C   0  0  0  0  0  0  0  0  0  0  0  0
   -8.7919    4.3199  -17.5630 C   0  0  0  0  0  0  0  0  0  0  0  0
  -10.5328    4.0956  -18.2690 Br  0  0  0  0  0  0  0  0  0  0  0  0
   -8.6664    4.5266  -16.1474 C   0  0  0  0  0  0  0  0  0  0  0  0
   -7.4434    4.8701  -15.5291 C   0  0  0  0  0  0  0  0  0  0  0  0
   -6.4044    4.9626  -16.4596 C   0  0  0  0  0  0  0  0  0  0  0  0
   -5.0927    5.2935  -16.2325 C   0  0  0  0  0  0  0  0  0  0  0  0
   -4.4693    5.3535  -17.4588 N   0  0  0  0  0  0  0  0  0  0  0  0
   -3.0481    5.7118  -17.6664 C   0  0  0  0  0  0  0  0  0  0  0  0
   -2.2429    6.0752  -16.3961 C   0  0  0  0  0  0  0  0  0  0  0  0
   -1.6038    7.1596  -17.1798 N   0  0  0  0  0  0  0  0  0  0  0  0
   -2.8259    7.1988  -18.0251 C   0  0  0  0  0  0  0  0  0  0  0  0
   -0.7558    6.8819  -17.6739 H   0  0  0  0  0  0  0  0  0  0  0  0
   -7.3456    5.3178  -14.1296 C   0  0  0  0  0  0  0  0  0  0  0  0
   -6.8293    6.3452  -13.9222 O   0  0  0  0  0  0  0  0  0  0  0  0
   -8.0354    4.3287  -13.1608 N   0  0  0  0  0  0  0  0  0  0  0  0
   -8.4659    3.5579  -13.5963 H   0  0  0  0  0  0  0  0  0  0  0  0
   -8.1466    4.3513  -11.7718 C   0  0  0  0  0  0  0  0  0  0  0  0
   -7.7485    5.4812  -11.0353 C   0  0  0  0  0  0  0  0  0  0  0  0
   -7.8605    5.5115   -9.6407 C   0  0  0  0  0  0  0  0  0  0  0  0
   -8.3688    4.3961   -9.0057 C   0  0  0  0  0  0  0  0  0  0  0  0
   -8.7556    3.2695   -9.7334 C   0  0  0  0  0  0  0  0  0  0  0  0
   -8.6587    3.2314  -11.1150 C   0  0  0  0  0  0  0  0  0  0  0  0
   -9.2370    2.2253   -8.7722 C   0  0  0  0  0  0  0  0  0  0  0  0
   -9.5581    3.0075   -7.5571 N   0  0  0  0  0  0  0  0  0  0  0  0
   -9.5367    2.2031   -6.3534 C   0  0  0  0  0  0  0  0  0  0  0  0
   -8.6085    4.1340   -7.5488 C   0  0  0  0  0  0  0  0  0  0  0  0
   -4.9310    4.8404  -19.8995 C   0  0  0  0  0  0  0  0  0  0  0  0
   -4.2328    6.5331  -21.4289 C   0  0  0  0  0  0  0  0  0  0  0  0
   -5.3338    6.0553  -20.6037 N   0  0  0  0  0  0  0  0  0  0  0  0
   -6.1386    5.8523  -21.1966 H   0  0  0  0  0  0  0  0  0  0  0  0
 31 32  1  0  0  0
 32 30  1  0  0  0
 30  1  1  0  0  0
  1  2  2  0  0  0
  2  3  1  0  0  0
  3  4  2  0  0  0
  4  5  1  0  0  0
  4  6  1  0  0  0
  6  7  2  0  0  0
  7 16  1  0  0  0
 16 17  2  0  0  0
 16 18  1  0  0  0
 18 20  1  0  0  0
 20 21  2  0  0  0
 21 22  1  0  0  0
 22 23  2  0  0  0
 23 24  1  0  0  0
 24 25  2  0  0  0
 24 26  1  0  0  0
 26 27  1  0  0  0
 27 28  1  0  0  0
 27 29  1  0  0  0
  7  8  1  0  0  0
  8  9  2  0  0  0
  9 10  1  0  0  0
 10 11  1  0  0  0
 11 12  1  0  0  0
 12 13  1  0  0  0
 13 14  1  0  0  0
 10  1  1  0  0  0
 14 11  1  0  0  0
  8  2  1  0  0  0
 25 20  1  0  0  0
 29 23  1  0  0  0
 32 33  1  0  0  0
 18 19  1  0  0  0
 13 15  1  0  0  0
M  END
> <minimizedAffinity>
-8.50295

> <minimizedRMSD>
0.28200

$$$$
P26838


 34 38  0  0  0  0  0  0  0  0999 V2000
   -5.3431    5.0315  -18.6531 C   0  0  0  0  0  0  0  0  0  0  0  0
   -6.5037    4.7476  -17.9566 C   0  0  0  0  0  0  0  0  0  0  0  0
   -7.7361    4.4333  -18.5162 C   0  0  0  0  0  0  0  0  0  0  0  0
   -8.7236    4.3039  -17.5158 C   0  0  0  0  0  0  0  0  0  0  0  0
  -10.5130    4.1294  -18.1083 Br  0  0  0  0  0  0  0  0  0  0  0  0
   -8.4942    4.4304  -16.1037 C   0  0  0  0  0  0  0  0  0  0  0  0
   -7.2301    4.7520  -15.5605 C   0  0  0  0  0  0  0  0  0  0  0  0
   -6.2620    4.9048  -16.5613 C   0  0  0  0  0  0  0  0  0  0  0  0
   -4.9553    5.2944  -16.4231 C   0  0  0  0  0  0  0  0  0  0  0  0
   -4.4071    5.3805  -17.6863 N   0  0  0  0  0  0  0  0  0  0  0  0
   -3.1198    6.0782  -17.9295 C   0  0  0  0  0  0  0  0  0  0  0  0
   -1.9958    5.2434  -18.5698 C   0  0  0  0  0  0  0  0  0  0  0  0
   -1.0384    5.8764  -17.6269 N   0  0  0  0  0  0  0  0  0  0  0  0
   -2.1759    6.1199  -16.7078 C   0  0  0  0  0  0  0  0  0  0  0  0
   -0.5926    6.7225  -17.9814 H   0  0  0  0  0  0  0  0  0  0  0  0
   -7.0224    5.0991  -14.1407 C   0  0  0  0  0  0  0  0  0  0  0  0
   -6.1502    5.8320  -13.8805 O   0  0  0  0  0  0  0  0  0  0  0  0
   -8.0186    4.3567  -13.2166 N   0  0  0  0  0  0  0  0  0  0  0  0
   -8.6197    3.7285  -13.6786 H   0  0  0  0  0  0  0  0  0  0  0  0
   -8.2030    4.4331  -11.8357 C   0  0  0  0  0  0  0  0  0  0  0  0
   -8.0256    5.6487  -11.1579 C   0  0  0  0  0  0  0  0  0  0  0  0
   -8.1348    5.6992   -9.7704 C   0  0  0  0  0  0  0  0  0  0  0  0
   -7.9388    6.8551   -9.1228 F   0  0  0  0  0  0  0  0  0  0  0  0
   -8.4130    4.5478   -9.0690 C   0  0  0  0  0  0  0  0  0  0  0  0
   -8.6035    3.3458   -9.7350 C   0  0  0  0  0  0  0  0  0  0  0  0
   -8.5149    3.2716  -11.1201 C   0  0  0  0  0  0  0  0  0  0  0  0
   -8.8246    2.2653   -8.7286 C   0  0  0  0  0  0  0  0  0  0  0  0
   -8.9925    2.9510   -7.4199 N   0  0  0  0  0  0  0  0  0  0  0  0
   -8.5100    4.3366   -7.6014 C   0  0  0  0  0  0  0  0  0  0  0  0
   -8.4427    2.4784   -6.7023 H   0  0  0  0  0  0  0  0  0  0  0  0
   -5.0789    4.9784  -20.1212 C   0  0  0  0  0  0  0  0  0  0  0  0
   -4.1984    6.6523  -21.5633 C   0  0  0  0  0  0  0  0  0  0  0  0
   -5.3486    6.2683  -20.7546 N   0  0  0  0  0  0  0  0  0  0  0  0
   -6.1737    6.1909  -21.3493 H   0  0  0  0  0  0  0  0  0  0  0  0
 32 33  1  0  0  0
 33 31  1  0  0  0
 31  1  1  0  0  0
  1  2  2  0  0  0
  2  3  1  0  0  0
  3  4  2  0  0  0
  4  5  1  0  0  0
  4  6  1  0  0  0
  6  7  2  0  0  0
  7 16  1  0  0  0
 16 17  2  0  0  0
 16 18  1  0  0  0
 18 20  1  0  0  0
 20 21  2  0  0  0
 21 22  1  0  0  0
 22 23  1  0  0  0
 22 24  2  0  0  0
 24 25  1  0  0  0
 25 26  2  0  0  0
 25 27  1  0  0  0
 27 28  1  0  0  0
 28 29  1  0  0  0
  7  8  1  0  0  0
  8  9  2  0  0  0
  9 10  1  0  0  0
 10 11  1  0  0  0
 11 12  1  0  0  0
 12 13  1  0  0  0
 13 14  1  0  0  0
 10  1  1  0  0  0
 14 11  1  0  0  0
  8  2  1  0  0  0
 26 20  1  0  0  0
 29 24  1  0  0  0
 33 34  1  0  0  0
 18 19  1  0  0  0
 28 30  1  0  0  0
 13 15  1  0  0  0
M  END
> <minimizedAffinity>
-8.46376

> <minimizedRMSD>
0.43464

$$$$
P26840


 35 39  0  0  0  0  0  0  0  0999 V2000
   -5.3718    4.9538  -18.3909 C   0  0  0  0  0  0  0  0  0  0  0  0
   -6.5926    4.7401  -17.7877 C   0  0  0  0  0  0  0  0  0  0  0  0
   -7.7688    4.3892  -18.4342 C   0  0  0  0  0  0  0  0  0  0  0  0
   -8.8356    4.3145  -17.5144 C   0  0  0  0  0  0  0  0  0  0  0  0
  -10.5658    4.0778  -18.2423 Br  0  0  0  0  0  0  0  0  0  0  0  0
   -8.7271    4.5345  -16.0988 C   0  0  0  0  0  0  0  0  0  0  0  0
   -7.5145    4.8933  -15.4680 C   0  0  0  0  0  0  0  0  0  0  0  0
   -6.4646    4.9827  -16.3894 C   0  0  0  0  0  0  0  0  0  0  0  0
   -5.1551    5.3213  -16.1553 C   0  0  0  0  0  0  0  0  0  0  0  0
   -4.5178    5.3592  -17.3753 N   0  0  0  0  0  0  0  0  0  0  0  0
   -3.0908    5.6908  -17.5809 C   0  0  0  0  0  0  0  0  0  0  0  0
   -2.8434    7.1658  -17.9626 C   0  0  0  0  0  0  0  0  0  0  0  0
   -1.6156    7.1277  -17.1185 N   0  0  0  0  0  0  0  0  0  0  0  0
   -2.2723    6.0554  -16.3239 C   0  0  0  0  0  0  0  0  0  0  0  0
   -1.4286    7.9865  -16.6010 H   0  0  0  0  0  0  0  0  0  0  0  0
   -7.4340    5.3486  -14.0669 C   0  0  0  0  0  0  0  0  0  0  0  0
   -6.8488    6.3367  -13.8524 O   0  0  0  0  0  0  0  0  0  0  0  0
   -8.1943    4.4037  -13.1048 N   0  0  0  0  0  0  0  0  0  0  0  0
   -8.6756    3.6667  -13.5456 H   0  0  0  0  0  0  0  0  0  0  0  0
   -8.3082    4.4268  -11.7146 C   0  0  0  0  0  0  0  0  0  0  0  0
   -8.0764    5.6181  -11.0060 C   0  0  0  0  0  0  0  0  0  0  0  0
   -8.1255    5.6422   -9.6064 C   0  0  0  0  0  0  0  0  0  0  0  0
   -8.4129    4.4634   -8.9382 C   0  0  0  0  0  0  0  0  0  0  0  0
   -8.6489    3.2853   -9.6381 C   0  0  0  0  0  0  0  0  0  0  0  0
   -8.6134    3.2507  -11.0261 C   0  0  0  0  0  0  0  0  0  0  0  0
   -8.8452    2.1703   -8.6643 C   0  0  0  0  0  0  0  0  0  0  0  0
   -8.9784    2.8124   -7.3332 N   0  0  0  0  0  0  0  0  0  0  0  0
   -8.4704    4.1900   -7.4711 C   0  0  0  0  0  0  0  0  0  0  0  0
   -8.4287    2.3032   -6.6412 H   0  0  0  0  0  0  0  0  0  0  0  0
   -7.8311    6.8424   -8.8842 C   0  0  0  0  0  0  0  0  0  0  0  0
   -7.5680    7.7899   -8.2668 N   0  0  0  0  0  0  0  0  0  0  0  0
   -4.9556    4.8202  -19.8145 C   0  0  0  0  0  0  0  0  0  0  0  0
   -4.2507    6.4960  -21.3615 C   0  0  0  0  0  0  0  0  0  0  0  0
   -5.3557    6.0240  -20.5389 N   0  0  0  0  0  0  0  0  0  0  0  0
   -6.1546    5.8099  -21.1358 H   0  0  0  0  0  0  0  0  0  0  0  0
 33 34  1  0  0  0
 34 32  1  0  0  0
 32  1  1  0  0  0
  1  2  2  0  0  0
  2  3  1  0  0  0
  3  4  2  0  0  0
  4  5  1  0  0  0
  4  6  1  0  0  0
  6  7  2  0  0  0
  7 16  1  0  0  0
 16 17  2  0  0  0
 16 18  1  0  0  0
 18 20  1  0  0  0
 20 21  2  0  0  0
 21 22  1  0  0  0
 22 30  1  0  0  0
 30 31  3  0  0  0
 22 23  2  0  0  0
 23 24  1  0  0  0
 24 25  2  0  0  0
 24 26  1  0  0  0
 26 27  1  0  0  0
 27 28  1  0  0  0
  7  8  1  0  0  0
  8  9  2  0  0  0
  9 10  1  0  0  0
 10 11  1  0  0  0
 11 12  1  0  0  0
 12 13  1  0  0  0
 13 14  1  0  0  0
 10  1  1  0  0  0
 14 11  1  0  0  0
  8  2  1  0  0  0
 25 20  1  0  0  0
 28 23  1  0  0  0
 34 35  1  0  0  0
 18 19  1  0  0  0
 27 29  1  0  0  0
 13 15  1  0  0  0
M  END
> <minimizedAffinity>
-8.13797

> <minimizedRMSD>
0.28092

$$$$
P26841


 33 37  0  0  0  0  0  0  0  0999 V2000
   -5.3305    4.9685  -18.5270 C   0  0  0  0  0  0  0  0  0  0  0  0
   -6.5141    4.7190  -17.8630 C   0  0  0  0  0  0  0  0  0  0  0  0
   -7.7236    4.3877  -18.4588 C   0  0  0  0  0  0  0  0  0  0  0  0
   -8.7507    4.3195  -17.4949 C   0  0  0  0  0  0  0  0  0  0  0  0
  -10.5176    4.1564  -18.1511 Br  0  0  0  0  0  0  0  0  0  0  0  0
   -8.5748    4.5064  -16.0828 C   0  0  0  0  0  0  0  0  0  0  0  0
   -7.3302    4.8409  -15.5019 C   0  0  0  0  0  0  0  0  0  0  0  0
   -6.3235    4.9458  -16.4692 C   0  0  0  0  0  0  0  0  0  0  0  0
   -5.0262    5.3586  -16.3042 C   0  0  0  0  0  0  0  0  0  0  0  0
   -4.4383    5.3983  -17.5534 N   0  0  0  0  0  0  0  0  0  0  0  0
   -3.1793    6.1421  -17.8082 C   0  0  0  0  0  0  0  0  0  0  0  0
   -2.2323    6.2261  -16.5912 C   0  0  0  0  0  0  0  0  0  0  0  0
   -1.0890    6.0237  -17.5134 N   0  0  0  0  0  0  0  0  0  0  0  0
   -2.0281    5.3446  -18.4459 C   0  0  0  0  0  0  0  0  0  0  0  0
   -0.3495    5.4247  -17.1462 H   0  0  0  0  0  0  0  0  0  0  0  0
   -7.1895    5.2563  -14.0931 C   0  0  0  0  0  0  0  0  0  0  0  0
   -6.4648    6.1411  -13.8528 O   0  0  0  0  0  0  0  0  0  0  0  0
   -8.0995    4.4219  -13.1578 N   0  0  0  0  0  0  0  0  0  0  0  0
   -8.6797    3.7733  -13.6183 H   0  0  0  0  0  0  0  0  0  0  0  0
   -8.2306    4.4399  -11.7689 C   0  0  0  0  0  0  0  0  0  0  0  0
   -7.9239    5.6025  -11.0410 C   0  0  0  0  0  0  0  0  0  0  0  0
   -8.0236    5.6286   -9.6465 C   0  0  0  0  0  0  0  0  0  0  0  0
   -8.4299    4.4767   -9.0019 C   0  0  0  0  0  0  0  0  0  0  0  0
   -8.7420    3.3213   -9.7176 C   0  0  0  0  0  0  0  0  0  0  0  0
   -8.6556    3.2872  -11.1022 C   0  0  0  0  0  0  0  0  0  0  0  0
   -9.1106    2.2415   -8.7442 C   0  0  0  0  0  0  0  0  0  0  0  0
   -9.3789    2.9608   -7.4791 N   0  0  0  0  0  0  0  0  0  0  0  0
   -9.0845    2.2023   -6.3696 F   0  0  0  0  0  0  0  0  0  0  0  0
   -8.5891    4.2019   -7.5405 C   0  0  0  0  0  0  0  0  0  0  0  0
   -5.0037    4.8612  -19.9751 C   0  0  0  0  0  0  0  0  0  0  0  0
   -4.2318    6.5833  -21.4312 C   0  0  0  0  0  0  0  0  0  0  0  0
   -5.3614    6.1104  -20.6427 N   0  0  0  0  0  0  0  0  0  0  0  0
   -6.1606    5.9509  -21.2560 H   0  0  0  0  0  0  0  0  0  0  0  0
 31 32  1  0  0  0
 32 30  1  0  0  0
 30  1  1  0  0  0
  1  2  2  0  0  0
  2  3  1  0  0  0
  3  4  2  0  0  0
  4  5  1  0  0  0
  4  6  1  0  0  0
  6  7  2  0  0  0
  7 16  1  0  0  0
 16 17  2  0  0  0
 16 18  1  0  0  0
 18 20  1  0  0  0
 20 21  2  0  0  0
 21 22  1  0  0  0
 22 23  2  0  0  0
 23 24  1  0  0  0
 24 25  2  0  0  0
 24 26  1  0  0  0
 26 27  1  0  0  0
 27 28  1  0  0  0
 27 29  1  0  0  0
  7  8  1  0  0  0
  8  9  2  0  0  0
  9 10  1  0  0  0
 10 11  1  0  0  0
 11 12  1  0  0  0
 12 13  1  0  0  0
 13 14  1  0  0  0
 10  1  1  0  0  0
 14 11  1  0  0  0
  8  2  1  0  0  0
 25 20  1  0  0  0
 29 23  1  0  0  0
 32 33  1  0  0  0
 18 19  1  0  0  0
 13 15  1  0  0  0
M  END
> <minimizedAffinity>
-8.66307

> <minimizedRMSD>
0.29905

$$$$
P26843


 34 39  0  0  0  0  0  0  0  0999 V2000
   -5.0374    7.6684  -21.0117 C   0  0  0  0  0  0  0  0  0  0  0  0
   -4.5463    6.2510  -20.7453 C   0  0  0  0  0  0  0  0  0  0  0  0
   -5.5956    5.4496  -20.1275 N   0  0  0  0  0  0  0  0  0  0  0  0
   -5.7298    5.3500  -18.7834 C   0  0  0  0  0  0  0  0  0  0  0  0
   -6.7549    4.8753  -18.0115 C   0  0  0  0  0  0  0  0  0  0  0  0
   -7.9295    4.3606  -18.5222 C   0  0  0  0  0  0  0  0  0  0  0  0
   -8.8809    4.2169  -17.5059 C   0  0  0  0  0  0  0  0  0  0  0  0
  -10.6425    3.9134  -18.1113 Br  0  0  0  0  0  0  0  0  0  0  0  0
   -8.6441    4.4635  -16.1114 C   0  0  0  0  0  0  0  0  0  0  0  0
   -7.4040    4.9393  -15.6004 C   0  0  0  0  0  0  0  0  0  0  0  0
   -6.4796    5.1586  -16.6388 C   0  0  0  0  0  0  0  0  0  0  0  0
   -5.2274    5.7356  -16.6068 C   0  0  0  0  0  0  0  0  0  0  0  0
   -4.7713    5.8182  -17.9168 N   0  0  0  0  0  0  0  0  0  0  0  0
   -3.5641    6.4833  -18.3858 C   0  0  0  0  0  0  0  0  0  0  0  0
   -2.2982    5.9306  -17.7564 C   0  0  0  0  0  0  0  0  0  0  0  0
   -1.8320    4.8476  -18.7188 C   0  0  0  0  0  0  0  0  0  0  0  0
   -2.5717    4.9907  -19.9502 N   0  0  0  0  0  0  0  0  0  0  0  0
   -3.2787    6.2685  -19.8892 C   0  0  0  0  0  0  0  0  0  0  0  0
   -6.2274    4.9648  -20.7063 H   0  0  0  0  0  0  0  0  0  0  0  0
   -3.2404    4.2265  -20.0461 H   0  0  0  0  0  0  0  0  0  0  0  0
   -7.2508    5.3751  -14.1900 C   0  0  0  0  0  0  0  0  0  0  0  0
   -6.7096    6.3906  -13.9795 O   0  0  0  0  0  0  0  0  0  0  0  0
   -7.9126    4.3649  -13.2112 N   0  0  0  0  0  0  0  0  0  0  0  0
   -8.2385    3.5366  -13.6317 H   0  0  0  0  0  0  0  0  0  0  0  0
   -8.1202    4.4416  -11.8305 C   0  0  0  0  0  0  0  0  0  0  0  0
   -7.9863    5.6502  -11.1307 C   0  0  0  0  0  0  0  0  0  0  0  0
   -8.1616    5.7005   -9.7387 C   0  0  0  0  0  0  0  0  0  0  0  0
   -8.4490    4.5271   -9.0622 C   0  0  0  0  0  0  0  0  0  0  0  0
   -8.5933    3.3342   -9.7525 C   0  0  0  0  0  0  0  0  0  0  0  0
   -8.4527    3.2755  -11.1339 C   0  0  0  0  0  0  0  0  0  0  0  0
   -8.8295    2.2322   -8.7765 C   0  0  0  0  0  0  0  0  0  0  0  0
   -9.0171    2.8681   -7.4536 N   0  0  0  0  0  0  0  0  0  0  0  0
   -8.6041    4.2749   -7.5975 C   0  0  0  0  0  0  0  0  0  0  0  0
   -8.4391    2.4019   -6.7544 H   0  0  0  0  0  0  0  0  0  0  0  0
  2  1  1  0  0  0
  2  3  1  0  0  0
  3  4  1  0  0  0
  4  5  2  0  0  0
  5  6  1  0  0  0
  6  7  2  0  0  0
  7  8  1  0  0  0
  7  9  1  0  0  0
  9 10  2  0  0  0
 10 21  1  0  0  0
 21 22  2  0  0  0
 21 23  1  0  0  0
 23 25  1  0  0  0
 25 26  2  0  0  0
 26 27  1  0  0  0
 27 28  2  0  0  0
 28 29  1  0  0  0
 29 30  2  0  0  0
 29 31  1  0  0  0
 31 32  1  0  0  0
 32 33  1  0  0  0
 10 11  1  0  0  0
 11 12  2  0  0  0
 12 13  1  0  0  0
 13 14  1  0  0  0
 14 15  1  0  0  0
 15 16  1  0  0  0
 16 17  1  0  0  0
 18 17  1  0  0  0
 18  2  1  0  0  0
 13  4  1  0  0  0
 18 14  1  0  0  0
 11  5  1  0  0  0
 30 25  1  0  0  0
 33 28  1  0  0  0
  3 19  1  0  0  0
 23 24  1  0  0  0
 32 34  1  0  0  0
 17 20  1  0  0  0
M  END
> <minimizedAffinity>
-9.54429

> <minimizedRMSD>
0.19134

$$$$
P26844


 34 38  0  0  0  0  0  0  0  0999 V2000
   -5.4769    5.2037  -17.8898 C   0  0  0  0  0  0  0  0  0  0  0  0
   -6.7097    4.8254  -17.3942 C   0  0  0  0  0  0  0  0  0  0  0  0
   -7.7810    4.3991  -18.1620 C   0  0  0  0  0  0  0  0  0  0  0  0
   -8.9423    4.2853  -17.3708 C   0  0  0  0  0  0  0  0  0  0  0  0
  -10.5550    4.0512  -18.3337 Br  0  0  0  0  0  0  0  0  0  0  0  0
   -9.0070    4.5052  -15.9506 C   0  0  0  0  0  0  0  0  0  0  0  0
   -7.8919    4.9220  -15.1867 C   0  0  0  0  0  0  0  0  0  0  0  0
   -6.7564    5.0786  -15.9931 C   0  0  0  0  0  0  0  0  0  0  0  0
   -5.5238    5.5625  -15.6382 C   0  0  0  0  0  0  0  0  0  0  0  0
   -4.8029    5.7438  -16.7992 N   0  0  0  0  0  0  0  0  0  0  0  0
   -3.5156    6.4860  -16.8857 C   0  0  0  0  0  0  0  0  0  0  0  0
   -3.6933    7.9077  -17.4692 C   0  0  0  0  0  0  0  0  0  0  0  0
   -3.7613    8.4477  -16.0893 N   0  0  0  0  0  0  0  0  0  0  0  0
   -3.0389    7.2415  -15.6261 C   0  0  0  0  0  0  0  0  0  0  0  0
   -4.7070    8.5418  -15.7189 H   0  0  0  0  0  0  0  0  0  0  0  0
   -7.9935    5.4064  -13.7916 C   0  0  0  0  0  0  0  0  0  0  0  0
   -7.9467    6.5614  -13.6174 O   0  0  0  0  0  0  0  0  0  0  0  0
   -8.1102    4.2420  -12.7765 N   0  0  0  0  0  0  0  0  0  0  0  0
   -8.0534    3.3425  -13.1727 H   0  0  0  0  0  0  0  0  0  0  0  0
   -8.2830    4.2607  -11.3890 C   0  0  0  0  0  0  0  0  0  0  0  0
   -7.9900    5.4135  -10.6389 C   0  0  0  0  0  0  0  0  0  0  0  0
   -8.1292    5.4368   -9.2390 C   0  0  0  0  0  0  0  0  0  0  0  0
   -7.8011    6.6685   -8.4547 C   0  0  0  0  0  0  0  0  0  0  0  0
   -8.5440    4.2675   -8.6164 C   0  0  0  0  0  0  0  0  0  0  0  0
   -8.8270    3.1205   -9.3541 C   0  0  0  0  0  0  0  0  0  0  0  0
   -8.7189    3.1056  -10.7384 C   0  0  0  0  0  0  0  0  0  0  0  0
   -9.1765    2.0127   -8.4123 C   0  0  0  0  0  0  0  0  0  0  0  0
   -9.4637    2.6791   -7.1158 N   0  0  0  0  0  0  0  0  0  0  0  0
   -8.7321    3.9626   -7.1647 C   0  0  0  0  0  0  0  0  0  0  0  0
   -9.1307    2.1078   -6.3392 H   0  0  0  0  0  0  0  0  0  0  0  0
   -4.9881    5.2213  -19.3049 C   0  0  0  0  0  0  0  0  0  0  0  0
   -2.8134    5.2319  -20.3130 C   0  0  0  0  0  0  0  0  0  0  0  0
   -3.7359    4.4924  -19.4654 N   0  0  0  0  0  0  0  0  0  0  0  0
   -3.3100    4.3533  -18.5490 H   0  0  0  0  0  0  0  0  0  0  0  0
 32 33  1  0  0  0
 33 31  1  0  0  0
 31  1  1  0  0  0
  1  2  2  0  0  0
  2  3  1  0  0  0
  3  4  2  0  0  0
  4  5  1  0  0  0
  4  6  1  0  0  0
  6  7  2  0  0  0
  7 16  1  0  0  0
 16 17  2  0  0  0
 16 18  1  0  0  0
 18 20  1  0  0  0
 20 21  2  0  0  0
 21 22  1  0  0  0
 22 23  1  0  0  0
 22 24  2  0  0  0
 24 25  1  0  0  0
 25 26  2  0  0  0
 25 27  1  0  0  0
 27 28  1  0  0  0
 28 29  1  0  0  0
  7  8  1  0  0  0
  8  9  2  0  0  0
  9 10  1  0  0  0
 10 11  1  0  0  0
 11 12  1  0  0  0
 12 13  1  0  0  0
 13 14  1  0  0  0
 10  1  1  0  0  0
 14 11  1  0  0  0
  8  2  1  0  0  0
 26 20  1  0  0  0
 29 24  1  0  0  0
 33 34  1  0  0  0
 18 19  1  0  0  0
 28 30  1  0  0  0
 13 15  1  0  0  0
M  END
> <minimizedAffinity>
-7.86486

> <minimizedRMSD>
0.51067

$$$$
P26846


 32 37  0  0  0  0  0  0  0  0999 V2000
   -7.4668    4.8979  -15.4352 C   0  0  0  0  0  0  0  0  0  0  0  0
   -8.7087    4.5692  -16.0480 C   0  0  0  0  0  0  0  0  0  0  0  0
   -8.8544    4.3327  -17.4589 C   0  0  0  0  0  0  0  0  0  0  0  0
  -10.5787    4.1640  -18.2177 Br  0  0  0  0  0  0  0  0  0  0  0  0
   -7.8074    4.3569  -18.3910 C   0  0  0  0  0  0  0  0  0  0  0  0
   -6.6191    4.6969  -17.7761 C   0  0  0  0  0  0  0  0  0  0  0  0
   -6.4302    4.9647  -16.3871 C   0  0  0  0  0  0  0  0  0  0  0  0
   -5.1027    5.3097  -16.2358 C   0  0  0  0  0  0  0  0  0  0  0  0
   -4.4930    5.2695  -17.4879 N   0  0  0  0  0  0  0  0  0  0  0  0
   -3.1861    5.5381  -17.8694 C   0  0  0  0  0  0  0  0  0  0  0  0
   -2.8073    5.4300  -19.1508 C   0  0  0  0  0  0  0  0  0  0  0  0
   -3.7558    5.0574  -20.1589 C   0  0  0  0  0  0  0  0  0  0  0  0
   -5.0306    4.7987  -19.8123 C   0  0  0  0  0  0  0  0  0  0  0  0
   -5.4399    4.8898  -18.4426 C   0  0  0  0  0  0  0  0  0  0  0  0
   -1.4637    5.6766  -19.3263 N   0  0  0  0  0  0  0  0  0  0  0  0
   -0.8454    5.8300  -17.9990 C   0  0  0  0  0  0  0  0  0  0  0  0
   -2.0403    5.9527  -17.0136 C   0  0  0  0  0  0  0  0  0  0  0  0
   -0.9969    5.7394  -20.1908 H   0  0  0  0  0  0  0  0  0  0  0  0
   -6.8700    6.3697  -13.8083 O   0  0  0  0  0  0  0  0  0  0  0  0
   -7.3601    5.3284  -14.0198 C   0  0  0  0  0  0  0  0  0  0  0  0
   -7.9612    4.2803  -13.0407 N   0  0  0  0  0  0  0  0  0  0  0  0
   -8.2475    3.4383  -13.4629 H   0  0  0  0  0  0  0  0  0  0  0  0
   -8.1614    4.3397  -11.6558 C   0  0  0  0  0  0  0  0  0  0  0  0
   -7.9320    5.5271  -10.9427 C   0  0  0  0  0  0  0  0  0  0  0  0
   -8.0936    5.5792   -9.5512 C   0  0  0  0  0  0  0  0  0  0  0  0
   -8.4574    4.4237   -8.8845 C   0  0  0  0  0  0  0  0  0  0  0  0
   -8.6909    3.2465   -9.5805 C   0  0  0  0  0  0  0  0  0  0  0  0
   -8.5728    3.1930  -10.9668 C   0  0  0  0  0  0  0  0  0  0  0  0
   -9.0019    2.1565   -8.6084 C   0  0  0  0  0  0  0  0  0  0  0  0
   -9.0886    2.7955   -7.2685 N   0  0  0  0  0  0  0  0  0  0  0  0
   -8.6279    4.1899   -7.4226 C   0  0  0  0  0  0  0  0  0  0  0  0
   -8.4917    2.3009   -6.6056 H   0  0  0  0  0  0  0  0  0  0  0  0
 19 20  2  0  0  0
 20 21  1  0  0  0
 21 23  1  0  0  0
 23 24  2  0  0  0
 24 25  1  0  0  0
 25 26  2  0  0  0
 26 27  1  0  0  0
 27 28  2  0  0  0
 27 29  1  0  0  0
 29 30  1  0  0  0
 30 31  1  0  0  0
 20  1  1  0  0  0
  1  2  2  0  0  0
  2  3  1  0  0  0
  3  4  1  0  0  0
  3  5  2  0  0  0
  5  6  1  0  0  0
  6  7  1  0  0  0
  7  8  2  0  0  0
  8  9  1  0  0  0
  9 10  1  0  0  0
 10 11  2  0  0  0
 11 12  1  0  0  0
 12 13  2  0  0  0
 13 14  1  0  0  0
 11 15  1  0  0  0
 15 16  1  0  0  0
 16 17  1  0  0  0
 28 23  1  0  0  0
  7  1  1  0  0  0
 14  9  1  0  0  0
 31 26  1  0  0  0
 14  6  2  0  0  0
 17 10  1  0  0  0
 21 22  1  0  0  0
 30 32  1  0  0  0
 15 18  1  0  0  0
M  END
> <minimizedAffinity>
-10.02863

> <minimizedRMSD>
0.27773

$$$$
P26847


 33 38  0  0  0  0  0  0  0  0999 V2000
   -7.6501    4.5430  -15.4778 C   0  0  0  0  0  0  0  0  0  0  0  0
   -8.9327    4.0356  -16.1816 C   0  0  0  0  0  0  0  0  0  0  0  0
   -8.9598    4.1561  -17.7231 C   0  0  0  0  0  0  0  0  0  0  0  0
  -10.7824    4.3651  -18.3841 Br  0  0  0  0  0  0  0  0  0  0  0  0
   -8.0122    5.1070  -18.4550 C   0  0  0  0  0  0  0  0  0  0  0  0
   -7.0114    5.7222  -17.5075 C   0  0  0  0  0  0  0  0  0  0  0  0
   -6.5147    4.6611  -16.5139 C   0  0  0  0  0  0  0  0  0  0  0  0
   -5.1078    5.1555  -16.1742 C   0  0  0  0  0  0  0  0  0  0  0  0
   -4.7316    5.8468  -17.4254 N   0  0  0  0  0  0  0  0  0  0  0  0
   -3.9255    5.3064  -18.4274 C   0  0  0  0  0  0  0  0  0  0  0  0
   -4.0508    5.5033  -19.7590 C   0  0  0  0  0  0  0  0  0  0  0  0
   -3.1217    4.8163  -20.4895 N   0  0  0  0  0  0  0  0  0  0  0  0
   -2.1171    4.2788  -19.5723 C   0  0  0  0  0  0  0  0  0  0  0  0
   -2.7761    4.4028  -18.1783 C   0  0  0  0  0  0  0  0  0  0  0  0
   -5.0178    6.3067  -20.2822 N   0  0  0  0  0  0  0  0  0  0  0  0
   -5.7576    7.0344  -19.2636 C   0  0  0  0  0  0  0  0  0  0  0  0
   -5.8765    6.5357  -17.8972 N   0  0  0  0  0  0  0  0  0  0  0  0
   -3.1277    4.7026  -21.4674 H   0  0  0  0  0  0  0  0  0  0  0  0
   -5.1968    6.3863  -21.2470 H   0  0  0  0  0  0  0  0  0  0  0  0
   -6.1491    3.6090  -13.9324 O   0  0  0  0  0  0  0  0  0  0  0  0
   -7.2250    4.0497  -14.0766 C   0  0  0  0  0  0  0  0  0  0  0  0
   -8.3460    4.3393  -13.0323 N   0  0  0  0  0  0  0  0  0  0  0  0
   -9.1998    4.6426  -13.4172 H   0  0  0  0  0  0  0  0  0  0  0  0
   -8.3354    4.2387  -11.6444 C   0  0  0  0  0  0  0  0  0  0  0  0
   -7.9239    5.3600  -10.9038 C   0  0  0  0  0  0  0  0  0  0  0  0
   -8.0505    5.3889   -9.5147 C   0  0  0  0  0  0  0  0  0  0  0  0
   -8.5181    4.2559   -8.8813 C   0  0  0  0  0  0  0  0  0  0  0  0
   -8.8612    3.1166   -9.6022 C   0  0  0  0  0  0  0  0  0  0  0  0
   -8.8282    3.1060  -10.9929 C   0  0  0  0  0  0  0  0  0  0  0  0
   -9.2478    2.0417   -8.6386 C   0  0  0  0  0  0  0  0  0  0  0  0
   -8.9396    2.5651   -7.2778 N   0  0  0  0  0  0  0  0  0  0  0  0
   -8.7601    4.0232   -7.4295 C   0  0  0  0  0  0  0  0  0  0  0  0
   -8.0848    2.1388   -6.9199 H   0  0  0  0  0  0  0  0  0  0  0  0
 20 21  2  0  0  0
 21 22  1  0  0  0
 22 24  1  0  0  0
 24 25  2  0  0  0
 25 26  1  0  0  0
 26 27  2  0  0  0
 27 28  1  0  0  0
 28 29  2  0  0  0
 28 30  1  0  0  0
 30 31  1  0  0  0
 31 32  1  0  0  0
  1 21  1  0  0  0
  1  2  1  0  0  0
  2  3  1  0  0  0
  3  4  1  0  0  0
  3  5  1  0  0  0
  6  5  1  0  0  0
  6  7  1  0  0  0
  7  8  1  0  0  0
  8  9  1  0  0  0
  9 10  1  0  0  0
 10 11  2  0  0  0
 11 12  1  0  0  0
 12 13  1  0  0  0
 13 14  1  0  0  0
 11 15  1  0  0  0
 15 16  1  0  0  0
 16 17  1  0  0  0
 29 24  1  0  0  0
  7  1  1  0  0  0
 17  9  1  0  0  0
 32 27  1  0  0  0
 17  6  1  0  0  0
 14 10  1  0  0  0
 22 23  1  0  0  0
 31 33  1  0  0  0
 12 18  1  0  0  0
 15 19  1  0  0  0
M  END
> <minimizedAffinity>
-8.38052

> <minimizedRMSD>
0.67012

$$$$
P26848


 37 42  0  0  0  0  0  0  0  0999 V2000
   -4.0257    6.4155  -20.1606 C   0  0  0  0  0  0  0  0  0  0  0  0
   -5.2329    5.7293  -19.6959 N   0  0  0  0  0  0  0  0  0  0  0  0
   -5.4729    5.4696  -18.3923 C   0  0  0  0  0  0  0  0  0  0  0  0
   -6.5592    4.9193  -17.7683 C   0  0  0  0  0  0  0  0  0  0  0  0
   -7.7025    4.4905  -18.4141 C   0  0  0  0  0  0  0  0  0  0  0  0
   -8.7387    4.2984  -17.4849 C   0  0  0  0  0  0  0  0  0  0  0  0
  -10.4550    4.0704  -18.2444 Br  0  0  0  0  0  0  0  0  0  0  0  0
   -8.6164    4.4533  -16.0592 C   0  0  0  0  0  0  0  0  0  0  0  0
   -7.4144    4.8576  -15.4246 C   0  0  0  0  0  0  0  0  0  0  0  0
   -6.3991    5.0832  -16.3639 C   0  0  0  0  0  0  0  0  0  0  0  0
   -5.1308    5.5755  -16.1578 C   0  0  0  0  0  0  0  0  0  0  0  0
   -4.5994    5.8647  -17.3983 N   0  0  0  0  0  0  0  0  0  0  0  0
   -3.3796    6.6163  -17.6724 C   0  0  0  0  0  0  0  0  0  0  0  0
   -3.1774    7.8303  -16.7696 C   0  0  0  0  0  0  0  0  0  0  0  0
   -4.0182    8.9260  -17.4103 C   0  0  0  0  0  0  0  0  0  0  0  0
   -4.2849    8.5242  -18.8017 N   0  0  0  0  0  0  0  0  0  0  0  0
   -3.4382    7.3065  -19.0449 C   0  0  0  0  0  0  0  0  0  0  0  0
   -5.8988    5.4448  -20.3629 H   0  0  0  0  0  0  0  0  0  0  0  0
   -4.0240    9.2725  -19.4439 H   0  0  0  0  0  0  0  0  0  0  0  0
   -3.0857    4.0629  -20.1322 N   0  0  0  0  0  0  0  0  0  0  0  0
   -3.0102    5.3957  -20.7236 C   0  0  0  0  0  0  0  0  0  0  0  0
   -2.3836    3.4602  -20.5614 H   0  0  0  0  0  0  0  0  0  0  0  0
   -4.0138    3.6716  -20.2930 H   0  0  0  0  0  0  0  0  0  0  0  0
   -7.3527    5.3086  -14.0169 C   0  0  0  0  0  0  0  0  0  0  0  0
   -6.8629    6.3484  -13.8049 O   0  0  0  0  0  0  0  0  0  0  0  0
   -7.9627    4.2700  -13.0450 N   0  0  0  0  0  0  0  0  0  0  0  0
   -8.2467    3.4273  -13.4673 H   0  0  0  0  0  0  0  0  0  0  0  0
   -8.1755    4.3339  -11.6675 C   0  0  0  0  0  0  0  0  0  0  0  0
   -7.9406    5.5248  -10.9613 C   0  0  0  0  0  0  0  0  0  0  0  0
   -8.0852    5.5768   -9.5706 C   0  0  0  0  0  0  0  0  0  0  0  0
   -8.4467    4.4203   -8.9034 C   0  0  0  0  0  0  0  0  0  0  0  0
   -8.6935    3.2444   -9.5972 C   0  0  0  0  0  0  0  0  0  0  0  0
   -8.5815    3.1879  -10.9814 C   0  0  0  0  0  0  0  0  0  0  0  0
   -9.0103    2.1548   -8.6266 C   0  0  0  0  0  0  0  0  0  0  0  0
   -9.0459    2.7835   -7.2782 N   0  0  0  0  0  0  0  0  0  0  0  0
   -8.6046    4.1836   -7.4402 C   0  0  0  0  0  0  0  0  0  0  0  0
   -8.4170    2.2894   -6.6451 H   0  0  0  0  0  0  0  0  0  0  0  0
 20 21  1  0  0  0
  1 21  1  0  0  0
  1  2  1  0  0  0
  2  3  1  0  0  0
  3  4  2  0  0  0
  4  5  1  0  0  0
  5  6  2  0  0  0
  6  7  1  0  0  0
  6  8  1  0  0  0
  8  9  2  0  0  0
  9 24  1  0  0  0
 24 25  2  0  0  0
 24 26  1  0  0  0
 26 28  1  0  0  0
 28 29  2  0  0  0
 29 30  1  0  0  0
 30 31  2  0  0  0
 31 32  1  0  0  0
 32 33  2  0  0  0
 32 34  1  0  0  0
 34 35  1  0  0  0
 35 36  1  0  0  0
  9 10  1  0  0  0
 10 11  2  0  0  0
 11 12  1  0  0  0
 12 13  1  0  0  0
 13 14  1  0  0  0
 14 15  1  0  0  0
 15 16  1  0  0  0
 17 16  1  0  0  0
 17  1  1  0  0  0
 12  3  1  0  0  0
 17 13  1  0  0  0
 10  4  1  0  0  0
 33 28  1  0  0  0
 36 31  1  0  0  0
 20 22  1  0  0  0
 20 23  1  0  0  0
  2 18  1  0  0  0
 26 27  1  0  0  0
 35 37  1  0  0  0
 16 19  1  0  0  0
M  END
> <minimizedAffinity>
-9.28630

> <minimizedRMSD>
0.18781

$$$$
P26944


 36 39  0  0  0  0  0  0  0  0999 V2000
   -7.1445    5.0524  -13.9933 C   0  0  0  0  0  0  0  0  0  0  0  0
   -7.3943    4.7667  -15.4810 C   0  0  0  0  0  0  0  0  0  0  0  0
   -8.7267    4.5399  -15.8930 C   0  0  0  0  0  0  0  0  0  0  0  0
   -9.0544    4.4376  -17.2369 C   0  0  0  0  0  0  0  0  0  0  0  0
  -10.6841    4.3368  -17.7106 Cl  0  0  0  0  0  0  0  0  0  0  0  0
   -8.0833    4.5497  -18.2080 C   0  0  0  0  0  0  0  0  0  0  0  0
   -6.7706    4.8093  -17.8318 C   0  0  0  0  0  0  0  0  0  0  0  0
   -5.8106    4.9991  -18.8293 C   0  0  0  0  0  0  0  0  0  0  0  0
   -4.5066    5.2832  -18.4770 C   0  0  0  0  0  0  0  0  0  0  0  0
   -4.2200    5.3666  -17.1297 C   0  0  0  0  0  0  0  0  0  0  0  0
   -5.1302    5.1967  -16.1414 N   0  0  0  0  0  0  0  0  0  0  0  0
   -6.4026    4.9185  -16.4647 C   0  0  0  0  0  0  0  0  0  0  0  0
   -5.7661    4.6064  -13.3864 C   0  0  0  0  0  0  0  0  0  0  0  0
   -5.0837    5.3795  -12.8354 O   0  0  0  0  0  0  0  0  0  0  0  0
   -5.5726    3.0886  -13.6251 N   0  0  0  0  0  0  0  0  0  0  0  0
   -6.2612    2.6690  -14.1900 H   0  0  0  0  0  0  0  0  0  0  0  0
   -4.5446    2.1873  -13.1532 C   0  0  0  0  0  0  0  0  0  0  0  0
   -3.2907    2.0888  -13.9967 C   0  0  0  0  0  0  0  0  0  0  0  0
   -2.7577    3.3266  -14.1694 F   0  0  0  0  0  0  0  0  0  0  0  0
   -2.3531    1.3656  -13.3311 F   0  0  0  0  0  0  0  0  0  0  0  0
   -8.2898    4.5751  -13.1747 N   0  0  0  0  0  0  0  0  0  0  0  0
   -9.0462    4.1702  -13.6575 H   0  0  0  0  0  0  0  0  0  0  0  0
   -8.2605    5.7807  -10.9421 C   0  0  0  0  0  0  0  0  0  0  0  0
   -8.2908    5.6412   -9.5309 C   0  0  0  0  0  0  0  0  0  0  0  0
   -8.5562    4.4088   -8.9698 C   0  0  0  0  0  0  0  0  0  0  0  0
   -8.7840    3.3128   -9.7722 C   0  0  0  0  0  0  0  0  0  0  0  0
   -8.6833    3.4105  -11.1518 C   0  0  0  0  0  0  0  0  0  0  0  0
   -8.3917    4.6481  -11.7863 C   0  0  0  0  0  0  0  0  0  0  0  0
   -9.1421    2.1372   -8.9264 C   0  0  0  0  0  0  0  0  0  0  0  0
   -9.2327    2.6467   -7.5340 N   0  0  0  0  0  0  0  0  0  0  0  0
   -8.7262    4.0326   -7.5389 C   0  0  0  0  0  0  0  0  0  0  0  0
   -8.6644    2.0698   -6.9138 H   0  0  0  0  0  0  0  0  0  0  0  0
   -6.8022    8.1301  -11.6814 C   0  0  0  0  0  0  0  0  0  0  0  0
   -8.4359    7.4900  -11.4786 S   0  0  0  0  0  0  0  0  0  0  0  0
   -9.1234    7.5281  -12.7563 O   0  0  0  0  0  0  0  0  0  0  0  0
   -9.0080    8.2246  -10.3591 O   0  0  0  0  0  0  0  0  0  0  0  0
 33 34  1  0  0  0
 34 35  2  0  0  0
 34 36  2  0  0  0
 34 23  1  0  0  0
 23 24  2  0  0  0
 24 25  1  0  0  0
 25 26  2  0  0  0
 26 27  1  0  0  0
 27 28  2  0  0  0
 28 21  1  0  0  0
  1 21  1  0  0  0
  1 13  1  0  0  0
 13 14  2  0  0  0
 13 15  1  0  0  0
 15 17  1  0  0  0
 17 18  1  0  0  0
 18 19  1  0  0  0
 18 20  1  0  0  0
  1  2  1  0  0  0
  2  3  2  0  0  0
  3  4  1  0  0  0
  4  5  1  0  0  0
  4  6  2  0  0  0
  6  7  1  0  0  0
  7  8  2  0  0  0
  8  9  1  0  0  0
  9 10  2  0  0  0
 10 11  1  0  0  0
 11 12  2  0  0  0
 26 29  1  0  0  0
 29 30  1  0  0  0
 30 31  1  0  0  0
 28 23  1  0  0  0
 12  2  1  0  0  0
 31 25  1  0  0  0
 12  7  1  0  0  0
 21 22  1  0  0  0
 15 16  1  0  0  0
 30 32  1  0  0  0
M  END
> <minimizedAffinity>
-8.55840

> <minimizedRMSD>
0.63869

$$$$
P26946


 32 35  0  0  0  0  0  0  0  0999 V2000
   -7.1407    4.8699  -13.6659 C   0  0  0  0  0  0  0  0  0  0  0  0
   -7.2377    4.7221  -15.1897 C   0  0  0  0  0  0  0  0  0  0  0  0
   -8.5325    4.5240  -15.7122 C   0  0  0  0  0  0  0  0  0  0  0  0
   -8.7565    4.5173  -17.0802 C   0  0  0  0  0  0  0  0  0  0  0  0
  -10.3457    4.4815  -17.6808 Cl  0  0  0  0  0  0  0  0  0  0  0  0
   -7.7140    4.6808  -17.9663 C   0  0  0  0  0  0  0  0  0  0  0  0
   -6.4285    4.8813  -17.4791 C   0  0  0  0  0  0  0  0  0  0  0  0
   -5.3965    5.1039  -18.3961 C   0  0  0  0  0  0  0  0  0  0  0  0
   -4.1094    5.3059  -17.9427 C   0  0  0  0  0  0  0  0  0  0  0  0
   -3.9120    5.2733  -16.5786 C   0  0  0  0  0  0  0  0  0  0  0  0
   -4.8955    5.0781  -15.6673 N   0  0  0  0  0  0  0  0  0  0  0  0
   -6.1595    4.8887  -16.0846 C   0  0  0  0  0  0  0  0  0  0  0  0
   -5.0425    5.2544  -12.5373 O   0  0  0  0  0  0  0  0  0  0  0  0
   -5.7596    4.4726  -13.0329 C   0  0  0  0  0  0  0  0  0  0  0  0
   -5.5802    2.9448  -13.2627 N   0  0  0  0  0  0  0  0  0  0  0  0
   -6.3033    2.5174  -13.7762 H   0  0  0  0  0  0  0  0  0  0  0  0
   -4.5273    2.0533  -12.8462 C   0  0  0  0  0  0  0  0  0  0  0  0
   -3.1986    2.3070  -13.5499 C   0  0  0  0  0  0  0  0  0  0  0  0
   -3.2359    1.8201  -14.8193 F   0  0  0  0  0  0  0  0  0  0  0  0
   -2.2133    1.6144  -12.9148 F   0  0  0  0  0  0  0  0  0  0  0  0
   -8.2630    4.1634  -12.9933 N   0  0  0  0  0  0  0  0  0  0  0  0
   -8.8660    3.6035  -13.5338 H   0  0  0  0  0  0  0  0  0  0  0  0
   -8.4897    4.2695  -11.6134 C   0  0  0  0  0  0  0  0  0  0  0  0
   -8.2042    5.4210  -10.8503 C   0  0  0  0  0  0  0  0  0  0  0  0
   -8.2883    5.4259   -9.4497 C   0  0  0  0  0  0  0  0  0  0  0  0
   -8.6528    4.2598   -8.8086 C   0  0  0  0  0  0  0  0  0  0  0  0
   -8.9498    3.1200   -9.5359 C   0  0  0  0  0  0  0  0  0  0  0  0
   -8.8673    3.1081  -10.9216 C   0  0  0  0  0  0  0  0  0  0  0  0
   -9.2627    1.9999   -8.6030 C   0  0  0  0  0  0  0  0  0  0  0  0
   -9.3083    2.5981   -7.2416 N   0  0  0  0  0  0  0  0  0  0  0  0
   -8.7472    3.9604   -7.3524 C   0  0  0  0  0  0  0  0  0  0  0  0
   -8.7506    2.0406   -6.5946 H   0  0  0  0  0  0  0  0  0  0  0  0
 13 14  2  0  0  0
 14 15  1  0  0  0
 15 17  1  0  0  0
 17 18  1  0  0  0
 18 19  1  0  0  0
 18 20  1  0  0  0
 14  1  1  0  0  0
  1 21  1  0  0  0
 21 23  1  0  0  0
 23 24  2  0  0  0
 24 25  1  0  0  0
 25 26  2  0  0  0
 26 27  1  0  0  0
 27 28  2  0  0  0
 27 29  1  0  0  0
 29 30  1  0  0  0
 30 31  1  0  0  0
  1  2  1  0  0  0
  2  3  2  0  0  0
  3  4  1  0  0  0
  4  5  1  0  0  0
  4  6  2  0  0  0
  6  7  1  0  0  0
  7  8  2  0  0  0
  8  9  1  0  0  0
  9 10  2  0  0  0
 10 11  1  0  0  0
 11 12  2  0  0  0
 28 23  1  0  0  0
 12  2  1  0  0  0
 31 26  1  0  0  0
 12  7  1  0  0  0
 15 16  1  0  0  0
 21 22  1  0  0  0
 30 32  1  0  0  0
M  END
> <minimizedAffinity>
-8.51811

> <minimizedRMSD>
1.26986

$$$$
P26948


 39 42  0  0  0  0  0  0  0  0999 V2000
   -7.2708    4.8152  -13.9496 C   0  0  0  0  0  0  0  0  0  0  0  0
   -4.4003    5.1321  -18.2735 C   0  0  0  0  0  0  0  0  0  0  0  0
   -4.1950    5.2027  -16.9018 C   0  0  0  0  0  0  0  0  0  0  0  0
   -5.1433    4.9570  -15.9549 N   0  0  0  0  0  0  0  0  0  0  0  0
   -6.3894    4.6554  -16.3555 C   0  0  0  0  0  0  0  0  0  0  0  0
   -7.4637    4.5590  -15.4529 C   0  0  0  0  0  0  0  0  0  0  0  0
   -8.7677    4.4305  -15.9815 C   0  0  0  0  0  0  0  0  0  0  0  0
   -8.9882    4.3395  -17.3502 C   0  0  0  0  0  0  0  0  0  0  0  0
  -10.5548    4.4429  -18.0016 Cl  0  0  0  0  0  0  0  0  0  0  0  0
   -7.9364    4.3144  -18.2310 C   0  0  0  0  0  0  0  0  0  0  0  0
   -6.6602    4.5200  -17.7419 C   0  0  0  0  0  0  0  0  0  0  0  0
   -5.6581    4.7193  -18.6787 C   0  0  0  0  0  0  0  0  0  0  0  0
   -3.3681    5.5896  -19.2692 C   0  0  0  0  0  0  0  0  0  0  0  0
   -3.9802    6.4866  -20.2286 N   0  0  0  0  0  0  0  0  0  0  0  0
   -4.6947    5.9845  -20.7557 H   0  0  0  0  0  0  0  0  0  0  0  0
   -3.2679    6.8365  -20.8694 H   0  0  0  0  0  0  0  0  0  0  0  0
   -1.9535    3.6546  -19.3330 C   0  0  0  0  0  0  0  0  0  0  0  0
   -2.8197    4.5417  -20.1061 N   0  0  0  0  0  0  0  0  0  0  0  0
   -3.5851    3.9973  -20.5038 H   0  0  0  0  0  0  0  0  0  0  0  0
   -5.9478    4.2304  -13.3225 C   0  0  0  0  0  0  0  0  0  0  0  0
   -5.1617    4.9099  -12.7828 O   0  0  0  0  0  0  0  0  0  0  0  0
   -6.0009    2.6824  -13.4840 N   0  0  0  0  0  0  0  0  0  0  0  0
   -6.7330    2.3522  -14.0534 H   0  0  0  0  0  0  0  0  0  0  0  0
   -5.1496    1.6516  -12.9335 C   0  0  0  0  0  0  0  0  0  0  0  0
   -3.6603    1.8549  -13.1779 C   0  0  0  0  0  0  0  0  0  0  0  0
   -3.2729    1.1389  -14.2659 F   0  0  0  0  0  0  0  0  0  0  0  0
   -2.9465    1.3547  -12.1317 F   0  0  0  0  0  0  0  0  0  0  0  0
   -8.4616    4.3359  -13.1720 N   0  0  0  0  0  0  0  0  0  0  0  0
   -9.2602    3.9999  -13.6394 H   0  0  0  0  0  0  0  0  0  0  0  0
   -8.4214    4.3733  -11.7654 C   0  0  0  0  0  0  0  0  0  0  0  0
   -8.1466    5.5514  -11.0456 C   0  0  0  0  0  0  0  0  0  0  0  0
   -8.1740    5.5758   -9.6434 C   0  0  0  0  0  0  0  0  0  0  0  0
   -8.4882    4.4105   -8.9702 C   0  0  0  0  0  0  0  0  0  0  0  0
   -8.7514    3.2371   -9.6630 C   0  0  0  0  0  0  0  0  0  0  0  0
   -8.7348    3.2056  -11.0474 C   0  0  0  0  0  0  0  0  0  0  0  0
   -9.0061    2.1362   -8.6865 C   0  0  0  0  0  0  0  0  0  0  0  0
   -9.2678    2.8258   -7.3938 N   0  0  0  0  0  0  0  0  0  0  0  0
   -8.6029    4.1435   -7.5074 C   0  0  0  0  0  0  0  0  0  0  0  0
   -8.8729    2.2928   -6.6190 H   0  0  0  0  0  0  0  0  0  0  0  0
 17 18  1  0  0  0
 18 13  1  0  0  0
 13 14  1  0  0  0
 13  2  1  0  0  0
  2  3  2  0  0  0
  3  4  1  0  0  0
  4  5  2  0  0  0
  5  6  1  0  0  0
  6  1  1  0  0  0
  1 28  1  0  0  0
 28 30  1  0  0  0
 30 31  2  0  0  0
 31 32  1  0  0  0
 32 33  2  0  0  0
 33 34  1  0  0  0
 34 35  2  0  0  0
 34 36  1  0  0  0
 36 37  1  0  0  0
 37 38  1  0  0  0
  1 20  1  0  0  0
 20 21  2  0  0  0
 20 22  1  0  0  0
 22 24  1  0  0  0
 24 25  1  0  0  0
 25 26  1  0  0  0
 25 27  1  0  0  0
  6  7  2  0  0  0
  7  8  1  0  0  0
  8  9  1  0  0  0
  8 10  2  0  0  0
 10 11  1  0  0  0
 11 12  2  0  0  0
 12  2  1  0  0  0
 11  5  1  0  0  0
 35 30  1  0  0  0
 38 33  1  0  0  0
 18 19  1  0  0  0
 14 15  1  0  0  0
 14 16  1  0  0  0
 28 29  1  0  0  0
 37 39  1  0  0  0
 22 23  1  0  0  0
M  END
> <minimizedAffinity>
-8.53962

> <minimizedRMSD>
0.76668

$$$$
P26959


 34 37  0  0  0  0  0  0  0  0999 V2000
   -7.1839    5.1248  -13.6529 C   0  0  0  0  0  0  0  0  0  0  0  0
   -7.4609    4.9228  -15.1642 C   0  0  0  0  0  0  0  0  0  0  0  0
   -8.7650    4.6617  -15.6391 C   0  0  0  0  0  0  0  0  0  0  0  0
   -9.0017    4.4985  -17.0022 C   0  0  0  0  0  0  0  0  0  0  0  0
  -10.5802    4.2858  -17.6134 Cl  0  0  0  0  0  0  0  0  0  0  0  0
   -7.9754    4.6026  -17.9188 C   0  0  0  0  0  0  0  0  0  0  0  0
   -6.6915    4.8790  -17.4726 C   0  0  0  0  0  0  0  0  0  0  0  0
   -5.6713    5.0165  -18.4167 C   0  0  0  0  0  0  0  0  0  0  0  0
   -4.3879    5.2933  -17.9936 C   0  0  0  0  0  0  0  0  0  0  0  0
   -4.1837    5.4187  -16.6333 C   0  0  0  0  0  0  0  0  0  0  0  0
   -5.1525    5.2948  -15.6945 N   0  0  0  0  0  0  0  0  0  0  0  0
   -6.4087    5.0337  -16.0895 C   0  0  0  0  0  0  0  0  0  0  0  0
   -7.4902    6.6204  -13.2801 C   0  0  0  0  0  0  0  0  0  0  0  0
   -6.6232    7.3788  -13.0798 O   0  0  0  0  0  0  0  0  0  0  0  0
   -9.0271    6.8221  -13.2530 N   0  0  0  0  0  0  0  0  0  0  0  0
   -9.5508    6.0377  -13.5351 H   0  0  0  0  0  0  0  0  0  0  0  0
   -9.8186    7.9785  -12.8796 C   0  0  0  0  0  0  0  0  0  0  0  0
   -9.5056    8.6069  -11.5204 C   0  0  0  0  0  0  0  0  0  0  0  0
   -8.6853    9.6774  -11.6680 F   0  0  0  0  0  0  0  0  0  0  0  0
  -10.6603    9.0948  -10.9870 F   0  0  0  0  0  0  0  0  0  0  0  0
   -7.8802    4.0445  -12.8153 N   0  0  0  0  0  0  0  0  0  0  0  0
   -8.1133    4.1055  -11.4140 C   0  0  0  0  0  0  0  0  0  0  0  0
   -7.7083    5.1771  -10.5930 C   0  0  0  0  0  0  0  0  0  0  0  0
   -7.9489    5.1983   -9.2067 C   0  0  0  0  0  0  0  0  0  0  0  0
   -8.5363    4.0986   -8.6173 C   0  0  0  0  0  0  0  0  0  0  0  0
   -8.9116    3.0116   -9.3832 C   0  0  0  0  0  0  0  0  0  0  0  0
   -8.7570    3.0222  -10.7624 C   0  0  0  0  0  0  0  0  0  0  0  0
   -9.4605    1.9451   -8.4981 C   0  0  0  0  0  0  0  0  0  0  0  0
   -9.1853    2.3900   -7.1057 N   0  0  0  0  0  0  0  0  0  0  0  0
   -8.8675    3.8330   -7.1893 C   0  0  0  0  0  0  0  0  0  0  0  0
   -8.3938    1.8753   -6.7199 H   0  0  0  0  0  0  0  0  0  0  0  0
   -6.2057    2.3254  -13.0706 C   0  0  0  0  0  0  0  0  0  0  0  0
   -7.5915    2.7164  -13.3112 N   0  0  0  0  0  0  0  0  0  0  0  0
   -8.2064    2.0505  -12.8434 H   0  0  0  0  0  0  0  0  0  0  0  0
 32 33  1  0  0  0
 33 21  1  0  0  0
 21 22  1  0  0  0
 22 23  2  0  0  0
 23 24  1  0  0  0
 24 25  2  0  0  0
 25 26  1  0  0  0
 26 27  2  0  0  0
 26 28  1  0  0  0
 28 29  1  0  0  0
 29 30  1  0  0  0
  1 21  1  0  0  0
  1 13  1  0  0  0
 13 14  2  0  0  0
 13 15  1  0  0  0
 15 17  1  0  0  0
 17 18  1  0  0  0
 18 19  1  0  0  0
 18 20  1  0  0  0
  1  2  1  0  0  0
  2  3  2  0  0  0
  3  4  1  0  0  0
  4  5  1  0  0  0
  4  6  2  0  0  0
  6  7  1  0  0  0
  7  8  2  0  0  0
  8  9  1  0  0  0
  9 10  2  0  0  0
 10 11  1  0  0  0
 11 12  2  0  0  0
 27 22  1  0  0  0
 12  2  1  0  0  0
 30 25  1  0  0  0
 12  7  1  0  0  0
 33 34  1  0  0  0
 29 31  1  0  0  0
 15 16  1  0  0  0
M  END
> <minimizedAffinity>
-8.35856

> <minimizedRMSD>
0.66569

$$$$
P26960


 40 44  0  0  0  0  0  0  0  0999 V2000
   -7.1703    4.1735  -13.2199 C   0  0  0  0  0  0  0  0  0  0  0  0
   -7.2395    4.5796  -14.7027 C   0  0  0  0  0  0  0  0  0  0  0  0
   -8.4196    4.3277  -15.4227 C   0  0  0  0  0  0  0  0  0  0  0  0
   -8.4746    4.5109  -16.7928 C   0  0  0  0  0  0  0  0  0  0  0  0
   -9.9530    4.2443  -17.6109 Cl  0  0  0  0  0  0  0  0  0  0  0  0
   -7.3512    4.9166  -17.4958 C   0  0  0  0  0  0  0  0  0  0  0  0
   -6.1453    5.1795  -16.8251 C   0  0  0  0  0  0  0  0  0  0  0  0
   -6.1104    5.1028  -15.4038 C   0  0  0  0  0  0  0  0  0  0  0  0
   -4.9828    5.5658  -14.6830 N   0  0  0  0  0  0  0  0  0  0  0  0
   -3.6783    5.6076  -15.3744 C   0  0  0  0  0  0  0  0  0  0  0  0
   -3.6865    5.0273  -16.7766 C   0  0  0  0  0  0  0  0  0  0  0  0
   -4.8809    5.5261  -17.6084 C   0  0  0  0  0  0  0  0  0  0  0  0
   -4.7759    4.8977  -19.0276 C   0  0  0  0  0  0  0  0  0  0  0  0
   -4.7853    6.0675  -19.9981 C   0  0  0  0  0  0  0  0  0  0  0  0
   -4.1296    7.1169  -19.2347 N   0  0  0  0  0  0  0  0  0  0  0  0
   -4.7802    7.0325  -17.9209 C   0  0  0  0  0  0  0  0  0  0  0  0
   -4.2840    8.0304  -19.6613 H   0  0  0  0  0  0  0  0  0  0  0  0
   -5.2741    6.8167  -13.9562 C   0  0  0  0  0  0  0  0  0  0  0  0
   -4.5984    7.9134  -14.5470 O   0  0  0  0  0  0  0  0  0  0  0  0
   -3.6413    7.7593  -14.5140 H   0  0  0  0  0  0  0  0  0  0  0  0
   -6.7391    1.7915  -13.4684 O   0  0  0  0  0  0  0  0  0  0  0  0
   -6.3726    2.8163  -13.0359 C   0  0  0  0  0  0  0  0  0  0  0  0
   -5.1524    3.1489  -12.1239 N   0  0  0  0  0  0  0  0  0  0  0  0
   -5.1004    4.0872  -11.8305 H   0  0  0  0  0  0  0  0  0  0  0  0
   -4.0859    2.3037  -11.6398 C   0  0  0  0  0  0  0  0  0  0  0  0
   -4.4293    1.5055  -10.3863 C   0  0  0  0  0  0  0  0  0  0  0  0
   -3.6949    1.9971   -9.3478 F   0  0  0  0  0  0  0  0  0  0  0  0
   -5.7312    1.7413  -10.0548 F   0  0  0  0  0  0  0  0  0  0  0  0
   -8.5384    4.0582  -12.6382 N   0  0  0  0  0  0  0  0  0  0  0  0
   -9.3518    3.9940  -13.1891 H   0  0  0  0  0  0  0  0  0  0  0  0
   -8.5630    4.0493  -11.2232 C   0  0  0  0  0  0  0  0  0  0  0  0
   -8.1879    5.1870  -10.4838 C   0  0  0  0  0  0  0  0  0  0  0  0
   -8.2344    5.1889   -9.0832 C   0  0  0  0  0  0  0  0  0  0  0  0
   -8.6582    4.0404   -8.4382 C   0  0  0  0  0  0  0  0  0  0  0  0
   -9.0173    2.9117   -9.1597 C   0  0  0  0  0  0  0  0  0  0  0  0
   -8.9736    2.8974  -10.5420 C   0  0  0  0  0  0  0  0  0  0  0  0
   -9.3921    1.8137   -8.2261 C   0  0  0  0  0  0  0  0  0  0  0  0
   -9.4794    2.4425   -6.8819 N   0  0  0  0  0  0  0  0  0  0  0  0
   -8.8110    3.7568   -6.9823 C   0  0  0  0  0  0  0  0  0  0  0  0
   -9.0072    1.8601   -6.1903 H   0  0  0  0  0  0  0  0  0  0  0  0
 21 22  2  0  0  0
 22 23  1  0  0  0
 23 25  1  0  0  0
 25 26  1  0  0  0
 26 27  1  0  0  0
 26 28  1  0  0  0
 22  1  1  0  0  0
  1 29  1  0  0  0
 29 31  1  0  0  0
 31 32  2  0  0  0
 32 33  1  0  0  0
 33 34  2  0  0  0
 34 35  1  0  0  0
 35 36  2  0  0  0
 35 37  1  0  0  0
 37 38  1  0  0  0
 38 39  1  0  0  0
  1  2  1  0  0  0
  2  3  2  0  0  0
  3  4  1  0  0  0
  4  5  1  0  0  0
  4  6  2  0  0  0
  6  7  1  0  0  0
  7  8  2  0  0  0
  8  9  1  0  0  0
  9 18  1  0  0  0
 18 19  1  0  0  0
  9 10  1  0  0  0
 10 11  1  0  0  0
 12 11  1  0  0  0
 12 13  1  0  0  0
 13 14  1  0  0  0
 14 15  1  0  0  0
 15 16  1  0  0  0
 36 31  1  0  0  0
  8  2  1  0  0  0
 16 12  1  0  0  0
 39 34  1  0  0  0
 12  7  1  0  0  0
 23 24  1  0  0  0
 29 30  1  0  0  0
 38 40  1  0  0  0
 19 20  1  0  0  0
 15 17  1  0  0  0
M  END
> <minimizedAffinity>
-9.47772

> <minimizedRMSD>
0.89714

$$$$
P26963


 36 39  0  0  0  0  0  0  0  0999 V2000
   -7.2019    5.0449  -13.6742 C   0  0  0  0  0  0  0  0  0  0  0  0
   -4.4450    5.4780  -18.1350 C   0  0  0  0  0  0  0  0  0  0  0  0
   -4.1844    5.4845  -16.7708 C   0  0  0  0  0  0  0  0  0  0  0  0
   -5.0961    5.2094  -15.7888 N   0  0  0  0  0  0  0  0  0  0  0  0
   -6.3552    4.9199  -16.1388 C   0  0  0  0  0  0  0  0  0  0  0  0
   -7.4004    4.7621  -15.1986 C   0  0  0  0  0  0  0  0  0  0  0  0
   -8.7124    4.5536  -15.6906 C   0  0  0  0  0  0  0  0  0  0  0  0
   -8.9637    4.4704  -17.0563 C   0  0  0  0  0  0  0  0  0  0  0  0
  -10.5454    4.4670  -17.6838 Cl  0  0  0  0  0  0  0  0  0  0  0  0
   -7.9438    4.5613  -17.9700 C   0  0  0  0  0  0  0  0  0  0  0  0
   -6.6659    4.8283  -17.5238 C   0  0  0  0  0  0  0  0  0  0  0  0
   -5.7109    5.0917  -18.5037 C   0  0  0  0  0  0  0  0  0  0  0  0
   -3.8601    6.2622  -20.3002 C   0  0  0  0  0  0  0  0  0  0  0  0
   -3.4593    5.8718  -18.9896 O   0  0  0  0  0  0  0  0  0  0  0  0
   -5.8301    4.5249  -13.0772 C   0  0  0  0  0  0  0  0  0  0  0  0
   -5.1232    5.2004  -12.4340 O   0  0  0  0  0  0  0  0  0  0  0  0
   -5.7297    3.0093  -13.4340 N   0  0  0  0  0  0  0  0  0  0  0  0
   -6.4987    2.6512  -13.9336 H   0  0  0  0  0  0  0  0  0  0  0  0
   -4.6920    2.0471  -13.1503 C   0  0  0  0  0  0  0  0  0  0  0  0
   -3.3101    2.4990  -13.5965 C   0  0  0  0  0  0  0  0  0  0  0  0
   -2.4575    1.4396  -13.5841 F   0  0  0  0  0  0  0  0  0  0  0  0
   -3.3772    2.9157  -14.8887 F   0  0  0  0  0  0  0  0  0  0  0  0
   -7.3601    6.5697  -13.5093 C   0  0  0  0  0  0  0  0  0  0  0  0
   -6.5527    7.4406  -13.8266 O   0  0  0  0  0  0  0  0  0  0  0  0
   -8.3290    4.3719  -12.8993 N   0  0  0  0  0  0  0  0  0  0  0  0
   -9.0594    3.9494  -13.4065 H   0  0  0  0  0  0  0  0  0  0  0  0
   -8.3754    4.3256  -11.4925 C   0  0  0  0  0  0  0  0  0  0  0  0
   -8.1109    5.4265  -10.6518 C   0  0  0  0  0  0  0  0  0  0  0  0
   -8.2929    5.3661   -9.2598 C   0  0  0  0  0  0  0  0  0  0  0  0
   -8.7325    4.1848   -8.7035 C   0  0  0  0  0  0  0  0  0  0  0  0
   -8.9645    3.0763   -9.5024 C   0  0  0  0  0  0  0  0  0  0  0  0
   -8.8206    3.1383  -10.8819 C   0  0  0  0  0  0  0  0  0  0  0  0
   -9.3159    1.9187   -8.6276 C   0  0  0  0  0  0  0  0  0  0  0  0
   -9.6912    2.5194   -7.3228 N   0  0  0  0  0  0  0  0  0  0  0  0
   -9.0125    3.8335   -7.2803 C   0  0  0  0  0  0  0  0  0  0  0  0
   -9.3728    1.9291   -6.5543 H   0  0  0  0  0  0  0  0  0  0  0  0
 13 14  1  0  0  0
 14  2  1  0  0  0
  2  3  2  0  0  0
  3  4  1  0  0  0
  4  5  2  0  0  0
  5  6  1  0  0  0
  6  1  1  0  0  0
  1 23  1  0  0  0
 23 24  2  0  0  0
  1 25  1  0  0  0
 25 27  1  0  0  0
 27 28  2  0  0  0
 28 29  1  0  0  0
 29 30  2  0  0  0
 30 31  1  0  0  0
 31 32  2  0  0  0
 31 33  1  0  0  0
 33 34  1  0  0  0
 34 35  1  0  0  0
  1 15  1  0  0  0
 15 16  2  0  0  0
 15 17  1  0  0  0
 17 19  1  0  0  0
 19 20  1  0  0  0
 20 21  1  0  0  0
 20 22  1  0  0  0
  6  7  2  0  0  0
  7  8  1  0  0  0
  8  9  1  0  0  0
  8 10  2  0  0  0
 10 11  1  0  0  0
 11 12  2  0  0  0
 12  2  1  0  0  0
 11  5  1  0  0  0
 32 27  1  0  0  0
 35 30  1  0  0  0
 25 26  1  0  0  0
 34 36  1  0  0  0
 17 18  1  0  0  0
M  END
> <minimizedAffinity>
-8.19704

> <minimizedRMSD>
0.34173

$$$$
P26964


 37 40  0  0  0  0  0  0  0  0999 V2000
   -6.8900    4.6274  -13.9233 C   0  0  0  0  0  0  0  0  0  0  0  0
   -4.6267    5.4674  -18.5863 C   0  0  0  0  0  0  0  0  0  0  0  0
   -4.2343    5.4606  -17.2550 C   0  0  0  0  0  0  0  0  0  0  0  0
   -5.0363    5.1220  -16.2017 N   0  0  0  0  0  0  0  0  0  0  0  0
   -6.3227    4.7872  -16.4534 C   0  0  0  0  0  0  0  0  0  0  0  0
   -7.2725    4.5614  -15.4307 C   0  0  0  0  0  0  0  0  0  0  0  0
   -8.6350    4.4216  -15.7897 C   0  0  0  0  0  0  0  0  0  0  0  0
   -9.0273    4.4237  -17.1201 C   0  0  0  0  0  0  0  0  0  0  0  0
  -10.6659    4.5556  -17.5573 Cl  0  0  0  0  0  0  0  0  0  0  0  0
   -8.0953    4.5043  -18.1255 C   0  0  0  0  0  0  0  0  0  0  0  0
   -6.7716    4.7385  -17.7985 C   0  0  0  0  0  0  0  0  0  0  0  0
   -5.9097    5.0350  -18.8470 C   0  0  0  0  0  0  0  0  0  0  0  0
   -3.7611    5.9428  -19.7158 C   0  0  0  0  0  0  0  0  0  0  0  0
   -1.4418    5.5476  -19.8491 C   0  0  0  0  0  0  0  0  0  0  0  0
   -2.7376    4.9920  -20.0414 O   0  0  0  0  0  0  0  0  0  0  0  0
   -6.1918    6.0571  -13.6787 C   0  0  0  0  0  0  0  0  0  0  0  0
   -6.8201    7.0450  -13.7211 O   0  0  0  0  0  0  0  0  0  0  0  0
   -4.6816    5.8333  -13.3505 N   0  0  0  0  0  0  0  0  0  0  0  0
   -4.3697    4.9055  -13.4560 H   0  0  0  0  0  0  0  0  0  0  0  0
   -3.6652    6.7692  -12.9161 C   0  0  0  0  0  0  0  0  0  0  0  0
   -2.6127    7.1024  -13.9680 C   0  0  0  0  0  0  0  0  0  0  0  0
   -3.1545    7.8079  -14.9930 F   0  0  0  0  0  0  0  0  0  0  0  0
   -2.1029    5.9626  -14.5016 F   0  0  0  0  0  0  0  0  0  0  0  0
   -5.9952    3.4627  -13.4715 C   0  0  0  0  0  0  0  0  0  0  0  0
   -6.2714    2.2661  -13.5555 O   0  0  0  0  0  0  0  0  0  0  0  0
   -8.1641    4.4733  -13.1041 N   0  0  0  0  0  0  0  0  0  0  0  0
   -9.0128    4.4048  -13.5983 H   0  0  0  0  0  0  0  0  0  0  0  0
   -8.2294    4.4207  -11.7016 C   0  0  0  0  0  0  0  0  0  0  0  0
   -7.9988    5.5155  -10.8477 C   0  0  0  0  0  0  0  0  0  0  0  0
   -8.2203    5.4533   -9.4625 C   0  0  0  0  0  0  0  0  0  0  0  0
   -8.6714    4.2713   -8.9214 C   0  0  0  0  0  0  0  0  0  0  0  0
   -8.8824    3.1653   -9.7279 C   0  0  0  0  0  0  0  0  0  0  0  0
   -8.6880    3.2304  -11.1026 C   0  0  0  0  0  0  0  0  0  0  0  0
   -9.3074    2.0201   -8.8665 C   0  0  0  0  0  0  0  0  0  0  0  0
   -9.7166    2.6336   -7.5744 N   0  0  0  0  0  0  0  0  0  0  0  0
   -9.0044    3.9275   -7.5090 C   0  0  0  0  0  0  0  0  0  0  0  0
   -9.4436    2.0364   -6.7939 H   0  0  0  0  0  0  0  0  0  0  0  0
 14 15  1  0  0  0
 15 13  1  0  0  0
 13  2  1  0  0  0
  2  3  2  0  0  0
  3  4  1  0  0  0
  4  5  2  0  0  0
  5  6  1  0  0  0
  6  1  1  0  0  0
  1 24  1  0  0  0
 24 25  2  0  0  0
  1 26  1  0  0  0
 26 28  1  0  0  0
 28 29  2  0  0  0
 29 30  1  0  0  0
 30 31  2  0  0  0
 31 32  1  0  0  0
 32 33  2  0  0  0
 32 34  1  0  0  0
 34 35  1  0  0  0
 35 36  1  0  0  0
  1 16  1  0  0  0
 16 17  2  0  0  0
 16 18  1  0  0  0
 18 20  1  0  0  0
 20 21  1  0  0  0
 21 22  1  0  0  0
 21 23  1  0  0  0
  6  7  2  0  0  0
  7  8  1  0  0  0
  8  9  1  0  0  0
  8 10  2  0  0  0
 10 11  1  0  0  0
 11 12  2  0  0  0
 12  2  1  0  0  0
 11  5  1  0  0  0
 33 28  1  0  0  0
 36 31  1  0  0  0
 26 27  1  0  0  0
 35 37  1  0  0  0
 18 19  1  0  0  0
M  END
> <minimizedAffinity>
-7.44625

> <minimizedRMSD>
1.38103

$$$$
P26967


 38 41  0  0  0  0  0  0  0  0999 V2000
   -6.9837    5.2415  -14.0303 C   0  0  0  0  0  0  0  0  0  0  0  0
   -7.1601    6.6270  -14.2179 O   0  0  0  0  0  0  0  0  0  0  0  0
   -7.0834    7.0812  -13.3642 H   0  0  0  0  0  0  0  0  0  0  0  0
   -7.1494    4.7716  -15.4996 C   0  0  0  0  0  0  0  0  0  0  0  0
   -8.4730    4.4659  -15.9098 C   0  0  0  0  0  0  0  0  0  0  0  0
   -8.8195    4.4332  -17.2481 C   0  0  0  0  0  0  0  0  0  0  0  0
  -10.4685    4.4077  -17.6803 Cl  0  0  0  0  0  0  0  0  0  0  0  0
   -7.8597    4.6066  -18.2212 C   0  0  0  0  0  0  0  0  0  0  0  0
   -6.5385    4.8487  -17.8520 C   0  0  0  0  0  0  0  0  0  0  0  0
   -5.5946    5.0842  -18.8589 C   0  0  0  0  0  0  0  0  0  0  0  0
   -4.2793    5.3408  -18.5262 C   0  0  0  0  0  0  0  0  0  0  0  0
   -3.9606    5.3389  -17.1862 C   0  0  0  0  0  0  0  0  0  0  0  0
   -4.8530    5.1197  -16.1921 N   0  0  0  0  0  0  0  0  0  0  0  0
   -6.1491    4.9058  -16.4875 C   0  0  0  0  0  0  0  0  0  0  0  0
   -5.5842    4.7442  -13.3649 C   0  0  0  0  0  0  0  0  0  0  0  0
   -4.7949    5.4798  -12.9059 O   0  0  0  0  0  0  0  0  0  0  0  0
   -5.5318    3.1947  -13.5558 N   0  0  0  0  0  0  0  0  0  0  0  0
   -6.2983    2.8129  -14.0417 H   0  0  0  0  0  0  0  0  0  0  0  0
   -4.5424    2.2324  -13.1357 C   0  0  0  0  0  0  0  0  0  0  0  0
   -4.2829    2.1941  -11.6348 C   0  0  0  0  0  0  0  0  0  0  0  0
   -3.3556    1.2305  -11.3722 F   0  0  0  0  0  0  0  0  0  0  0  0
   -5.4118    1.8140  -10.9806 F   0  0  0  0  0  0  0  0  0  0  0  0
   -8.1140    4.8173  -13.1871 N   0  0  0  0  0  0  0  0  0  0  0  0
   -8.8406    4.3721  -13.6802 H   0  0  0  0  0  0  0  0  0  0  0  0
   -8.1852    6.0065  -10.8798 C   0  0  0  0  0  0  0  0  0  0  0  0
   -8.2726    5.7736   -9.4786 C   0  0  0  0  0  0  0  0  0  0  0  0
   -8.5691    4.5266   -8.9886 C   0  0  0  0  0  0  0  0  0  0  0  0
   -8.7424    3.4750   -9.8512 C   0  0  0  0  0  0  0  0  0  0  0  0
   -8.6207    3.6571  -11.2226 C   0  0  0  0  0  0  0  0  0  0  0  0
   -8.3421    4.9331  -11.8083 C   0  0  0  0  0  0  0  0  0  0  0  0
   -8.9697    2.2285   -9.0643 C   0  0  0  0  0  0  0  0  0  0  0  0
   -9.1085    2.6556   -7.6460 N   0  0  0  0  0  0  0  0  0  0  0  0
   -8.7056    4.0730   -7.5789 C   0  0  0  0  0  0  0  0  0  0  0  0
   -8.5032    2.0911   -7.0498 H   0  0  0  0  0  0  0  0  0  0  0  0
   -8.3368    8.5845   -9.6714 C   0  0  0  0  0  0  0  0  0  0  0  0
   -7.9028    7.7503  -11.1797 S   0  0  0  0  0  0  0  0  0  0  0  0
   -6.4783    7.9284  -11.3840 O   0  0  0  0  0  0  0  0  0  0  0  0
   -8.8521    8.2608  -12.1441 O   0  0  0  0  0  0  0  0  0  0  0  0
 35 36  1  0  0  0
 36 37  2  0  0  0
 36 38  2  0  0  0
 36 25  1  0  0  0
 25 26  2  0  0  0
 26 27  1  0  0  0
 27 28  2  0  0  0
 28 29  1  0  0  0
 29 30  2  0  0  0
 30 23  1  0  0  0
 23  1  1  0  0  0
  1  2  1  0  0  0
  1 15  1  0  0  0
 15 16  2  0  0  0
 15 17  1  0  0  0
 17 19  1  0  0  0
 19 20  1  0  0  0
 20 21  1  0  0  0
 20 22  1  0  0  0
  1  4  1  0  0  0
  4  5  2  0  0  0
  5  6  1  0  0  0
  6  7  1  0  0  0
  6  8  2  0  0  0
  8  9  1  0  0  0
  9 10  2  0  0  0
 10 11  1  0  0  0
 11 12  2  0  0  0
 12 13  1  0  0  0
 13 14  2  0  0  0
 28 31  1  0  0  0
 31 32  1  0  0  0
 32 33  1  0  0  0
 30 25  1  0  0  0
 14  4  1  0  0  0
 33 27  1  0  0  0
 14  9  1  0  0  0
 23 24  1  0  0  0
  2  3  1  0  0  0
 17 18  1  0  0  0
 32 34  1  0  0  0
M  END
> <minimizedAffinity>
-8.01139

> <minimizedRMSD>
1.49425

$$$$
P26971


 34 37  0  0  0  0  0  0  0  0999 V2000
   -7.1370    4.3546  -13.9140 C   0  0  0  0  0  0  0  0  0  0  0  0
   -6.6329    3.0425  -13.7547 O   0  0  0  0  0  0  0  0  0  0  0  0
   -6.4511    2.8778  -12.8162 H   0  0  0  0  0  0  0  0  0  0  0  0
   -7.4026    4.5447  -15.4282 C   0  0  0  0  0  0  0  0  0  0  0  0
   -8.7197    4.4445  -15.9357 C   0  0  0  0  0  0  0  0  0  0  0  0
   -8.9787    4.5275  -17.2937 C   0  0  0  0  0  0  0  0  0  0  0  0
  -10.5915    4.5167  -17.8516 Cl  0  0  0  0  0  0  0  0  0  0  0  0
   -7.9465    4.7034  -18.1887 C   0  0  0  0  0  0  0  0  0  0  0  0
   -6.6442    4.8513  -17.7205 C   0  0  0  0  0  0  0  0  0  0  0  0
   -5.6205    5.0817  -18.6447 C   0  0  0  0  0  0  0  0  0  0  0  0
   -4.3205    5.2302  -18.2041 C   0  0  0  0  0  0  0  0  0  0  0  0
   -4.1017    5.1492  -16.8441 C   0  0  0  0  0  0  0  0  0  0  0  0
   -5.0731    4.9380  -15.9235 N   0  0  0  0  0  0  0  0  0  0  0  0
   -6.3455    4.7744  -16.3343 C   0  0  0  0  0  0  0  0  0  0  0  0
   -5.2255    5.1994  -12.6442 O   0  0  0  0  0  0  0  0  0  0  0  0
   -6.1299    5.4777  -13.3367 C   0  0  0  0  0  0  0  0  0  0  0  0
   -6.6097    6.8672  -13.8638 N   0  0  0  0  0  0  0  0  0  0  0  0
   -7.4509    6.8464  -14.3749 H   0  0  0  0  0  0  0  0  0  0  0  0
   -6.0199    8.1768  -13.7232 C   0  0  0  0  0  0  0  0  0  0  0  0
   -5.1786    8.5903  -14.9262 C   0  0  0  0  0  0  0  0  0  0  0  0
   -5.3070    9.9293  -15.1257 F   0  0  0  0  0  0  0  0  0  0  0  0
   -5.6672    7.9981  -16.0504 F   0  0  0  0  0  0  0  0  0  0  0  0
   -8.4375    4.3756  -13.1902 N   0  0  0  0  0  0  0  0  0  0  0  0
   -9.2881    4.4089  -13.6847 H   0  0  0  0  0  0  0  0  0  0  0  0
   -8.4241    4.3468  -11.7774 C   0  0  0  0  0  0  0  0  0  0  0  0
   -8.1794    5.5145  -11.0308 C   0  0  0  0  0  0  0  0  0  0  0  0
   -8.2261    5.5117   -9.6323 C   0  0  0  0  0  0  0  0  0  0  0  0
   -8.5485    4.3309   -8.9931 C   0  0  0  0  0  0  0  0  0  0  0  0
   -8.7865    3.1680   -9.7147 C   0  0  0  0  0  0  0  0  0  0  0  0
   -8.7080    3.1525  -11.0968 C   0  0  0  0  0  0  0  0  0  0  0  0
   -9.1166    2.0589   -8.7700 C   0  0  0  0  0  0  0  0  0  0  0  0
   -9.3884    2.7293   -7.4694 N   0  0  0  0  0  0  0  0  0  0  0  0
   -8.7096    4.0418   -7.5396 C   0  0  0  0  0  0  0  0  0  0  0  0
   -9.0119    2.1759   -6.6996 H   0  0  0  0  0  0  0  0  0  0  0  0
 15 16  2  0  0  0
 16 17  1  0  0  0
 17 19  1  0  0  0
 19 20  1  0  0  0
 20 21  1  0  0  0
 20 22  1  0  0  0
 16  1  1  0  0  0
  1  2  1  0  0  0
  1 23  1  0  0  0
 23 25  1  0  0  0
 25 26  2  0  0  0
 26 27  1  0  0  0
 27 28  2  0  0  0
 28 29  1  0  0  0
 29 30  2  0  0  0
 29 31  1  0  0  0
 31 32  1  0  0  0
 32 33  1  0  0  0
  1  4  1  0  0  0
  4  5  2  0  0  0
  5  6  1  0  0  0
  6  7  1  0  0  0
  6  8  2  0  0  0
  8  9  1  0  0  0
  9 10  2  0  0  0
 10 11  1  0  0  0
 11 12  2  0  0  0
 12 13  1  0  0  0
 13 14  2  0  0  0
 30 25  1  0  0  0
 14  4  1  0  0  0
 33 28  1  0  0  0
 14  9  1  0  0  0
 17 18  1  0  0  0
  2  3  1  0  0  0
 23 24  1  0  0  0
 32 34  1  0  0  0
M  END
> <minimizedAffinity>
-8.22519

> <minimizedRMSD>
0.37641

$$$$
P26974


 38 41  0  0  0  0  0  0  0  0999 V2000
   -7.0678    4.5015  -14.0013 C   0  0  0  0  0  0  0  0  0  0  0  0
   -6.6038    3.1773  -13.8696 O   0  0  0  0  0  0  0  0  0  0  0  0
   -6.3725    3.0064  -12.9432 H   0  0  0  0  0  0  0  0  0  0  0  0
   -7.3971    4.6318  -15.5189 C   0  0  0  0  0  0  0  0  0  0  0  0
   -8.7311    4.5026  -15.9825 C   0  0  0  0  0  0  0  0  0  0  0  0
   -9.0299    4.5303  -17.3394 C   0  0  0  0  0  0  0  0  0  0  0  0
  -10.6466    4.4839  -17.8848 Cl  0  0  0  0  0  0  0  0  0  0  0  0
   -8.0281    4.6794  -18.2731 C   0  0  0  0  0  0  0  0  0  0  0  0
   -6.7145    4.8364  -17.8508 C   0  0  0  0  0  0  0  0  0  0  0  0
   -5.7255    5.0296  -18.8193 C   0  0  0  0  0  0  0  0  0  0  0  0
   -4.4102    5.1804  -18.4315 C   0  0  0  0  0  0  0  0  0  0  0  0
   -4.1432    5.1371  -17.0787 C   0  0  0  0  0  0  0  0  0  0  0  0
   -5.0818    4.9703  -16.1165 N   0  0  0  0  0  0  0  0  0  0  0  0
   -6.3700    4.8073  -16.4725 C   0  0  0  0  0  0  0  0  0  0  0  0
   -5.9776    5.5853  -13.4918 C   0  0  0  0  0  0  0  0  0  0  0  0
   -5.1246    5.2988  -12.7397 O   0  0  0  0  0  0  0  0  0  0  0  0
   -6.2570    6.9278  -14.2405 N   0  0  0  0  0  0  0  0  0  0  0  0
   -7.0009    6.8938  -14.8845 H   0  0  0  0  0  0  0  0  0  0  0  0
   -5.6019    8.2093  -14.1411 C   0  0  0  0  0  0  0  0  0  0  0  0
   -5.1089    8.7288  -15.4867 C   0  0  0  0  0  0  0  0  0  0  0  0
   -5.6977    8.0242  -16.4924 F   0  0  0  0  0  0  0  0  0  0  0  0
   -5.5156   10.0166  -15.6486 F   0  0  0  0  0  0  0  0  0  0  0  0
   -8.3374    4.6063  -13.2181 N   0  0  0  0  0  0  0  0  0  0  0  0
   -9.2011    4.6606  -13.6875 H   0  0  0  0  0  0  0  0  0  0  0  0
   -8.3614    7.1886  -11.6577 C   0  0  0  0  0  0  0  0  0  0  0  0
   -8.3070    5.8246  -11.0369 C   0  0  0  0  0  0  0  0  0  0  0  0
   -8.3408    5.7675   -9.6263 C   0  0  0  0  0  0  0  0  0  0  0  0
   -8.4954    4.5456   -8.9970 C   0  0  0  0  0  0  0  0  0  0  0  0
   -8.5406    3.3693   -9.7260 C   0  0  0  0  0  0  0  0  0  0  0  0
   -8.3474    3.3829  -11.0961 C   0  0  0  0  0  0  0  0  0  0  0  0
   -8.4430    2.2002  -11.8508 N   0  0  0  0  0  0  0  0  0  0  0  0
   -8.2994    4.6279  -11.7870 C   0  0  0  0  0  0  0  0  0  0  0  0
   -8.8287    2.2315   -8.7989 C   0  0  0  0  0  0  0  0  0  0  0  0
   -9.2212    2.8606   -7.5097 N   0  0  0  0  0  0  0  0  0  0  0  0
   -8.6712    4.2305   -7.5501 C   0  0  0  0  0  0  0  0  0  0  0  0
   -8.4778    1.3276  -11.3962 H   0  0  0  0  0  0  0  0  0  0  0  0
   -8.4752    2.2447  -12.8338 H   0  0  0  0  0  0  0  0  0  0  0  0
   -8.8259    2.3415   -6.7257 H   0  0  0  0  0  0  0  0  0  0  0  0
 25 26  1  0  0  0
 26 27  2  0  0  0
 27 28  1  0  0  0
 28 29  2  0  0  0
 29 30  1  0  0  0
 30 31  1  0  0  0
 30 32  2  0  0  0
 32 23  1  0  0  0
 23  1  1  0  0  0
  1  2  1  0  0  0
  1 15  1  0  0  0
 15 16  2  0  0  0
 15 17  1  0  0  0
 17 19  1  0  0  0
 19 20  1  0  0  0
 20 21  1  0  0  0
 20 22  1  0  0  0
  1  4  1  0  0  0
  4  5  2  0  0  0
  5  6  1  0  0  0
  6  7  1  0  0  0
  6  8  2  0  0  0
  8  9  1  0  0  0
  9 10  2  0  0  0
 10 11  1  0  0  0
 11 12  2  0  0  0
 12 13  1  0  0  0
 13 14  2  0  0  0
 29 33  1  0  0  0
 33 34  1  0  0  0
 34 35  1  0  0  0
 32 26  1  0  0  0
 14  4  1  0  0  0
 35 28  1  0  0  0
 14  9  1  0  0  0
 31 36  1  0  0  0
 31 37  1  0  0  0
 23 24  1  0  0  0
  2  3  1  0  0  0
 17 18  1  0  0  0
 34 38  1  0  0  0
M  END
> <minimizedAffinity>
-8.57334

> <minimizedRMSD>
0.53136

$$$$
P27014


 41 45  0  0  0  0  0  0  0  0999 V2000
   -2.3931    5.7822  -16.8498 C   0  0  0  0  0  0  0  0  0  0  0  0
   -3.7797    5.2125  -17.1622 C   0  0  0  0  0  0  0  0  0  0  0  0
   -4.2192    5.6374  -18.5778 C   0  0  0  0  0  0  0  0  0  0  0  0
   -4.3732    7.0534  -18.6883 O   0  0  0  0  0  0  0  0  0  0  0  0
   -5.5379    4.9726  -18.9088 C   0  0  0  0  0  0  0  0  0  0  0  0
   -6.5842    5.1849  -17.8052 C   0  0  0  0  0  0  0  0  0  0  0  0
   -7.8281    4.3993  -18.1860 C   0  0  0  0  0  0  0  0  0  0  0  0
   -8.8924    4.3265  -17.1155 C   0  0  0  0  0  0  0  0  0  0  0  0
  -10.1352    3.2121  -17.6961 Cl  0  0  0  0  0  0  0  0  0  0  0  0
   -8.4227    4.0864  -15.6998 C   0  0  0  0  0  0  0  0  0  0  0  0
   -7.2494    5.0340  -15.3134 C   0  0  0  0  0  0  0  0  0  0  0  0
   -6.0819    4.8565  -16.3698 C   0  0  0  0  0  0  0  0  0  0  0  0
   -4.7833    5.5210  -16.1059 N   0  0  0  0  0  0  0  0  0  0  0  0
   -4.9779    6.9529  -16.1004 O   0  0  0  0  0  0  0  0  0  0  0  0
   -5.3009    7.4262  -14.7738 O   0  0  0  0  0  0  0  0  0  0  0  0
   -4.0905    7.6192  -14.0668 C   0  0  0  0  0  0  0  0  0  0  0  0
   -4.3053    8.6873  -13.2415 F   0  0  0  0  0  0  0  0  0  0  0  0
   -3.6987    6.4076  -13.1868 C   0  0  0  0  0  0  0  0  0  0  0  0
   -4.8075    5.7172  -12.4631 N   0  0  0  0  0  0  0  0  0  0  0  0
   -5.4364    4.6556  -13.3025 C   0  0  0  0  0  0  0  0  0  0  0  0
   -5.3204    3.3563  -12.6979 O   0  0  0  0  0  0  0  0  0  0  0  0
   -6.9552    5.0145  -13.7423 C   0  0  0  0  0  0  0  0  0  0  0  0
   -7.2519    6.3711  -13.3639 O   0  0  0  0  0  0  0  0  0  0  0  0
   -5.0627    7.3525  -18.0750 H   0  0  0  0  0  0  0  0  0  0  0  0
   -5.8133    3.3432  -11.8625 H   0  0  0  0  0  0  0  0  0  0  0  0
   -7.1062    6.4802  -12.4111 H   0  0  0  0  0  0  0  0  0  0  0  0
   -4.3324    5.2311  -11.1752 C   0  0  0  0  0  0  0  0  0  0  0  0
   -3.0831    4.5781  -11.2935 O   0  0  0  0  0  0  0  0  0  0  0  0
   -3.1733    3.8114  -11.8807 H   0  0  0  0  0  0  0  0  0  0  0  0
   -7.9207    4.1482  -13.0098 N   0  0  0  0  0  0  0  0  0  0  0  0
   -8.4412    3.5029  -13.5408 H   0  0  0  0  0  0  0  0  0  0  0  0
   -8.1494    4.1759  -11.6287 C   0  0  0  0  0  0  0  0  0  0  0  0
   -8.0648    5.3334  -10.8314 C   0  0  0  0  0  0  0  0  0  0  0  0
   -8.2027    5.2984   -9.4372 C   0  0  0  0  0  0  0  0  0  0  0  0
   -8.4908    4.0912   -8.8422 C   0  0  0  0  0  0  0  0  0  0  0  0
   -8.6549    2.9475   -9.6100 C   0  0  0  0  0  0  0  0  0  0  0  0
   -8.4999    2.9737  -10.9884 C   0  0  0  0  0  0  0  0  0  0  0  0
   -8.9659    1.8010   -8.7065 C   0  0  0  0  0  0  0  0  0  0  0  0
   -9.3423    2.4222   -7.4081 N   0  0  0  0  0  0  0  0  0  0  0  0
   -8.6906    3.7493   -7.4051 C   0  0  0  0  0  0  0  0  0  0  0  0
   -9.0034    1.8563   -6.6300 H   0  0  0  0  0  0  0  0  0  0  0  0
  2  1  1  0  0  0
  2  3  1  0  0  0
  3  4  1  0  0  0
  3  5  1  0  0  0
  6  5  1  0  0  0
  6  7  1  0  0  0
  7  8  1  0  0  0
  8  9  1  0  0  0
  8 10  1  0  0  0
 11 10  1  0  0  0
 11 12  1  0  0  0
 12 13  1  0  0  0
 13 14  1  0  0  0
 14 15  1  0  0  0
 15 16  1  0  0  0
 16 17  1  0  0  0
 16 18  1  0  0  0
 18 19  1  0  0  0
 19 27  1  0  0  0
 27 28  1  0  0  0
 19 20  1  0  0  0
 20 21  1  0  0  0
 20 22  1  0  0  0
 22 23  1  0  0  0
 22 30  1  0  0  0
 30 32  1  0  0  0
 32 33  2  0  0  0
 33 34  1  0  0  0
 34 35  2  0  0  0
 35 36  1  0  0  0
 36 37  2  0  0  0
 36 38  1  0  0  0
 38 39  1  0  0  0
 39 40  1  0  0  0
 13  2  1  0  0  0
 37 32  1  0  0  0
 12  6  1  0  0  0
 40 35  1  0  0  0
 22 11  1  0  0  0
  4 24  1  0  0  0
 28 29  1  0  0  0
 21 25  1  0  0  0
 23 26  1  0  0  0
 30 31  1  0  0  0
 39 41  1  0  0  0
M  END
> <minimizedAffinity>
-9.73229

> <minimizedRMSD>
0.77922

$$$$
P27026


 38 41  0  0  0  0  0  0  0  0999 V2000
   -8.2392    5.0642  -13.8214 C   0  0  0  0  0  0  0  0  0  0  0  0
   -9.3963    4.2618  -13.7349 O   0  0  0  0  0  0  0  0  0  0  0  0
   -9.1550    3.3314  -13.8652 H   0  0  0  0  0  0  0  0  0  0  0  0
   -4.5591    5.3959  -17.1772 C   0  0  0  0  0  0  0  0  0  0  0  0
   -3.8054    5.9435  -16.1459 C   0  0  0  0  0  0  0  0  0  0  0  0
   -4.3106    5.9497  -14.8751 C   0  0  0  0  0  0  0  0  0  0  0  0
   -5.5478    5.5324  -14.5649 N   0  0  0  0  0  0  0  0  0  0  0  0
   -6.3590    5.1229  -15.5587 C   0  0  0  0  0  0  0  0  0  0  0  0
   -7.6951    4.8618  -15.2450 C   0  0  0  0  0  0  0  0  0  0  0  0
   -8.5707    4.4621  -16.2740 C   0  0  0  0  0  0  0  0  0  0  0  0
   -8.1326    4.3240  -17.5770 C   0  0  0  0  0  0  0  0  0  0  0  0
   -9.2637    3.9028  -18.7874 Cl  0  0  0  0  0  0  0  0  0  0  0  0
   -6.8103    4.5880  -17.9002 C   0  0  0  0  0  0  0  0  0  0  0  0
   -5.9006    5.0118  -16.9068 C   0  0  0  0  0  0  0  0  0  0  0  0
   -3.8512    5.2887  -18.5060 C   0  0  0  0  0  0  0  0  0  0  0  0
   -1.9358    6.6177  -19.3704 C   0  0  0  0  0  0  0  0  0  0  0  0
   -2.4367    5.6336  -18.4325 N   0  0  0  0  0  0  0  0  0  0  0  0
   -2.2577    5.9887  -17.4932 H   0  0  0  0  0  0  0  0  0  0  0  0
   -8.7249    6.6038  -13.5931 C   0  0  0  0  0  0  0  0  0  0  0  0
   -9.8454    6.9014  -13.7521 O   0  0  0  0  0  0  0  0  0  0  0  0
   -7.4924    7.4795  -13.2395 N   0  0  0  0  0  0  0  0  0  0  0  0
   -6.6330    6.9993  -13.2352 H   0  0  0  0  0  0  0  0  0  0  0  0
   -7.4018    8.8851  -12.9157 C   0  0  0  0  0  0  0  0  0  0  0  0
   -8.2651    9.3296  -11.7391 C   0  0  0  0  0  0  0  0  0  0  0  0
   -8.2606   10.6888  -11.6815 F   0  0  0  0  0  0  0  0  0  0  0  0
   -7.6943    8.9034  -10.5799 F   0  0  0  0  0  0  0  0  0  0  0  0
   -7.3001    4.5375  -12.8175 N   0  0  0  0  0  0  0  0  0  0  0  0
   -6.4104    4.2235  -13.0990 H   0  0  0  0  0  0  0  0  0  0  0  0
   -7.6615    4.4788  -11.4633 C   0  0  0  0  0  0  0  0  0  0  0  0
   -7.4045    5.5356  -10.5725 C   0  0  0  0  0  0  0  0  0  0  0  0
   -7.7154    5.4479   -9.2090 C   0  0  0  0  0  0  0  0  0  0  0  0
   -8.2696    4.2750   -8.7376 C   0  0  0  0  0  0  0  0  0  0  0  0
   -8.5248    3.2176   -9.5979 C   0  0  0  0  0  0  0  0  0  0  0  0
   -8.2377    3.3051  -10.9549 C   0  0  0  0  0  0  0  0  0  0  0  0
   -9.0501    2.0617   -8.8153 C   0  0  0  0  0  0  0  0  0  0  0  0
   -9.2974    2.5701   -7.4401 N   0  0  0  0  0  0  0  0  0  0  0  0
   -8.6326    3.8868   -7.3454 C   0  0  0  0  0  0  0  0  0  0  0  0
   -8.9041    1.9278   -6.7523 H   0  0  0  0  0  0  0  0  0  0  0  0
 16 17  1  0  0  0
 17 15  1  0  0  0
 15  4  1  0  0  0
  4  5  2  0  0  0
  5  6  1  0  0  0
  6  7  2  0  0  0
  7  8  1  0  0  0
  8  9  2  0  0  0
  9  1  1  0  0  0
  1  2  1  0  0  0
  1 27  1  0  0  0
 27 29  1  0  0  0
 29 30  2  0  0  0
 30 31  1  0  0  0
 31 32  2  0  0  0
 32 33  1  0  0  0
 33 34  2  0  0  0
 33 35  1  0  0  0
 35 36  1  0  0  0
 36 37  1  0  0  0
  1 19  1  0  0  0
 19 20  2  0  0  0
 19 21  1  0  0  0
 21 23  1  0  0  0
 23 24  1  0  0  0
 24 25  1  0  0  0
 24 26  1  0  0  0
  9 10  1  0  0  0
 10 11  2  0  0  0
 11 12  1  0  0  0
 11 13  1  0  0  0
 13 14  2  0  0  0
 14  4  1  0  0  0
 14  8  1  0  0  0
 34 29  1  0  0  0
 37 32  1  0  0  0
 17 18  1  0  0  0
  2  3  1  0  0  0
 27 28  1  0  0  0
 36 38  1  0  0  0
 21 22  1  0  0  0
M  END
> <minimizedAffinity>
-7.95537

> <minimizedRMSD>
0.51152

$$$$
P27032


 37 40  0  0  0  0  0  0  0  0999 V2000
   -7.2535    5.0663  -13.7089 C   0  0  0  0  0  0  0  0  0  0  0  0
   -7.8902    6.3422  -13.6085 O   0  0  0  0  0  0  0  0  0  0  0  0
   -8.7811    6.2898  -13.9887 H   0  0  0  0  0  0  0  0  0  0  0  0
   -3.4027    5.9585  -19.0248 N   0  0  0  0  0  0  0  0  0  0  0  0
   -4.2971    5.5334  -18.0442 C   0  0  0  0  0  0  0  0  0  0  0  0
   -4.1230    5.7610  -16.6875 C   0  0  0  0  0  0  0  0  0  0  0  0
   -5.0542    5.4957  -15.7329 N   0  0  0  0  0  0  0  0  0  0  0  0
   -6.2493    5.0007  -16.1072 C   0  0  0  0  0  0  0  0  0  0  0  0
   -7.3076    4.7470  -15.2140 C   0  0  0  0  0  0  0  0  0  0  0  0
   -8.5552    4.3388  -15.7597 C   0  0  0  0  0  0  0  0  0  0  0  0
   -8.7454    4.1778  -17.1279 C   0  0  0  0  0  0  0  0  0  0  0  0
  -10.2845    3.9653  -17.8316 Cl  0  0  0  0  0  0  0  0  0  0  0  0
   -7.7006    4.3578  -17.9937 C   0  0  0  0  0  0  0  0  0  0  0  0
   -6.4897    4.7857  -17.4912 C   0  0  0  0  0  0  0  0  0  0  0  0
   -5.5240    5.0657  -18.4370 C   0  0  0  0  0  0  0  0  0  0  0  0
   -2.5154    6.2986  -18.7675 H   0  0  0  0  0  0  0  0  0  0  0  0
   -3.6583    5.9187  -19.9747 H   0  0  0  0  0  0  0  0  0  0  0  0
   -5.7811    5.1693  -13.0759 C   0  0  0  0  0  0  0  0  0  0  0  0
   -5.3134    6.2035  -12.7788 O   0  0  0  0  0  0  0  0  0  0  0  0
   -5.2073    3.7279  -12.9449 N   0  0  0  0  0  0  0  0  0  0  0  0
   -5.7689    3.0230  -13.3412 H   0  0  0  0  0  0  0  0  0  0  0  0
   -3.9855    3.2571  -12.3368 C   0  0  0  0  0  0  0  0  0  0  0  0
   -4.0123    3.2229  -10.8121 C   0  0  0  0  0  0  0  0  0  0  0  0
   -5.2904    3.2209  -10.3596 F   0  0  0  0  0  0  0  0  0  0  0  0
   -3.4575    2.0551  -10.3829 F   0  0  0  0  0  0  0  0  0  0  0  0
   -8.0397    4.0924  -12.9302 N   0  0  0  0  0  0  0  0  0  0  0  0
   -8.4539    3.3477  -13.4234 H   0  0  0  0  0  0  0  0  0  0  0  0
   -8.2448    4.1403  -11.5488 C   0  0  0  0  0  0  0  0  0  0  0  0
   -8.0355    5.2805  -10.7462 C   0  0  0  0  0  0  0  0  0  0  0  0
   -8.1804    5.2504   -9.3507 C   0  0  0  0  0  0  0  0  0  0  0  0
   -8.5168    4.0546   -8.7535 C   0  0  0  0  0  0  0  0  0  0  0  0
   -8.6940    2.9095   -9.5151 C   0  0  0  0  0  0  0  0  0  0  0  0
   -8.5601    2.9367  -10.8955 C   0  0  0  0  0  0  0  0  0  0  0  0
   -8.9763    1.7591   -8.6053 C   0  0  0  0  0  0  0  0  0  0  0  0
   -9.3402    2.3781   -7.3018 N   0  0  0  0  0  0  0  0  0  0  0  0
   -8.7099    3.7167   -7.3142 C   0  0  0  0  0  0  0  0  0  0  0  0
   -8.9785    1.8202   -6.5283 H   0  0  0  0  0  0  0  0  0  0  0  0
  4  5  1  0  0  0
  5  6  2  0  0  0
  6  7  1  0  0  0
  7  8  2  0  0  0
  8  9  1  0  0  0
  9  1  1  0  0  0
  1  2  1  0  0  0
  1 26  1  0  0  0
 26 28  1  0  0  0
 28 29  2  0  0  0
 29 30  1  0  0  0
 30 31  2  0  0  0
 31 32  1  0  0  0
 32 33  2  0  0  0
 32 34  1  0  0  0
 34 35  1  0  0  0
 35 36  1  0  0  0
  1 18  1  0  0  0
 18 19  2  0  0  0
 18 20  1  0  0  0
 20 22  1  0  0  0
 22 23  1  0  0  0
 23 24  1  0  0  0
 23 25  1  0  0  0
  9 10  2  0  0  0
 10 11  1  0  0  0
 11 12  1  0  0  0
 11 13  2  0  0  0
 13 14  1  0  0  0
 14 15  2  0  0  0
 15  5  1  0  0  0
 14  8  1  0  0  0
 33 28  1  0  0  0
 36 31  1  0  0  0
  4 16  1  0  0  0
  4 17  1  0  0  0
  2  3  1  0  0  0
 26 27  1  0  0  0
 35 37  1  0  0  0
 20 21  1  0  0  0
M  END
> <minimizedAffinity>
-8.90290

> <minimizedRMSD>
0.76248

$$$$
P27103


 39 43  0  0  0  0  0  0  0  0999 V2000
   -5.0133    5.7292  -17.3320 C   0  0  0  0  0  0  0  0  0  0  0  0
   -4.4286    5.8966  -15.9307 C   0  0  0  0  0  0  0  0  0  0  0  0
   -3.3451    6.4181  -15.6819 O   0  0  0  0  0  0  0  0  0  0  0  0
   -5.4470    5.4816  -14.8433 C   0  0  0  0  0  0  0  0  0  0  0  0
   -4.8307    4.2839  -14.1170 C   0  0  0  0  0  0  0  0  0  0  0  0
   -6.6532    5.0587  -15.6660 C   0  0  0  0  0  0  0  0  0  0  0  0
   -7.9305    4.6734  -15.2401 C   0  0  0  0  0  0  0  0  0  0  0  0
   -8.8411    4.1540  -16.1708 C   0  0  0  0  0  0  0  0  0  0  0  0
   -8.4766    4.0512  -17.5125 C   0  0  0  0  0  0  0  0  0  0  0  0
   -9.3650    3.5769  -18.3971 F   0  0  0  0  0  0  0  0  0  0  0  0
   -7.2400    4.5093  -17.9660 C   0  0  0  0  0  0  0  0  0  0  0  0
   -6.3350    5.0309  -17.0449 C   0  0  0  0  0  0  0  0  0  0  0  0
   -3.7688    8.3601  -20.2614 C   0  0  0  0  0  0  0  0  0  0  0  0
   -2.9710    7.1411  -20.2227 N   0  0  0  0  0  0  0  0  0  0  0  0
   -3.6790    5.9828  -20.7673 C   0  0  0  0  0  0  0  0  0  0  0  0
   -4.6679    5.3395  -19.7966 C   0  0  0  0  0  0  0  0  0  0  0  0
   -4.1013    5.0719  -18.3867 C   0  0  0  0  0  0  0  0  0  0  0  0
   -2.6154    5.4741  -18.3692 C   0  0  0  0  0  0  0  0  0  0  0  0
   -2.4024    6.9004  -18.8854 C   0  0  0  0  0  0  0  0  0  0  0  0
   -8.4502    5.0406  -13.9002 C   0  0  0  0  0  0  0  0  0  0  0  0
   -9.3033    5.8345  -13.8566 O   0  0  0  0  0  0  0  0  0  0  0  0
   -7.7632    4.2492  -12.7700 N   0  0  0  0  0  0  0  0  0  0  0  0
   -7.0088    3.6872  -13.0602 H   0  0  0  0  0  0  0  0  0  0  0  0
   -8.0364    4.1995  -11.4033 C   0  0  0  0  0  0  0  0  0  0  0  0
   -7.9012    5.3521  -10.6099 C   0  0  0  0  0  0  0  0  0  0  0  0
   -8.1129    5.3062   -9.2288 C   0  0  0  0  0  0  0  0  0  0  0  0
   -8.4939    4.1033   -8.6665 C   0  0  0  0  0  0  0  0  0  0  0  0
   -8.6703    2.9722   -9.4528 C   0  0  0  0  0  0  0  0  0  0  0  0
   -8.4282    2.9941  -10.8197 C   0  0  0  0  0  0  0  0  0  0  0  0
   -9.0986    1.8338   -8.5908 C   0  0  0  0  0  0  0  0  0  0  0  0
   -9.2979    2.3929   -7.2267 N   0  0  0  0  0  0  0  0  0  0  0  0
   -8.7492    3.7639   -7.2390 C   0  0  0  0  0  0  0  0  0  0  0  0
   -8.8041    1.8240   -6.5391 H   0  0  0  0  0  0  0  0  0  0  0  0
   -5.6335    6.4545  -13.8380 O   0  0  0  0  0  0  0  0  0  0  0  0
   -5.9700    7.7774  -14.2296 C   0  0  0  0  0  0  0  0  0  0  0  0
   -5.4105    8.7657  -13.2071 C   0  0  0  0  0  0  0  0  0  0  0  0
   -3.9000    8.9610  -13.3193 C   0  0  0  0  0  0  0  0  0  0  0  0
   -3.1799    7.7614  -13.0934 O   0  0  0  0  0  0  0  0  0  0  0  0
   -3.3549    7.4437  -12.1938 H   0  0  0  0  0  0  0  0  0  0  0  0
 13 14  1  0  0  0
 14 15  1  0  0  0
 15 16  1  0  0  0
 16 17  1  0  0  0
  1 17  1  0  0  0
  1  2  1  0  0  0
  2  3  2  0  0  0
  2  4  1  0  0  0
  4  5  1  0  0  0
  4 34  1  0  0  0
 34 35  1  0  0  0
 35 36  1  0  0  0
 36 37  1  0  0  0
 37 38  1  0  0  0
  4  6  1  0  0  0
  6  7  2  0  0  0
  7 20  1  0  0  0
 20 21  2  0  0  0
 20 22  1  0  0  0
 22 24  1  0  0  0
 24 25  2  0  0  0
 25 26  1  0  0  0
 26 27  2  0  0  0
 27 28  1  0  0  0
 28 29  2  0  0  0
 28 30  1  0  0  0
 30 31  1  0  0  0
 31 32  1  0  0  0
  7  8  1  0  0  0
  8  9  2  0  0  0
  9 10  1  0  0  0
  9 11  1  0  0  0
 11 12  2  0  0  0
 17 18  1  0  0  0
 18 19  1  0  0  0
 19 14  1  0  0  0
 12  1  1  0  0  0
 12  6  1  0  0  0
 29 24  1  0  0  0
 32 27  1  0  0  0
 38 39  1  0  0  0
 22 23  1  0  0  0
 31 33  1  0  0  0
M  END
> <minimizedAffinity>
-8.85505

> <minimizedRMSD>
0.99613

$$$$
P27107


 32 37  0  0  0  0  0  0  0  0999 V2000
   -5.5797    5.3373  -14.0068 C   0  0  0  0  0  0  0  0  0  0  0  0
   -5.8999    5.1765  -15.4484 C   0  0  0  0  0  0  0  0  0  0  0  0
   -7.0387    4.7605  -16.1222 C   0  0  0  0  0  0  0  0  0  0  0  0
   -8.2764    4.4242  -15.5702 C   0  0  0  0  0  0  0  0  0  0  0  0
   -9.1703    3.9289  -16.5467 C   0  0  0  0  0  0  0  0  0  0  0  0
   -8.8594    3.8534  -17.9521 C   0  0  0  0  0  0  0  0  0  0  0  0
   -7.6401    4.2937  -18.5219 C   0  0  0  0  0  0  0  0  0  0  0  0
   -6.7611    4.7251  -17.5379 C   0  0  0  0  0  0  0  0  0  0  0  0
   -5.5468    5.3200  -17.6975 C   0  0  0  0  0  0  0  0  0  0  0  0
   -5.0034    5.4330  -16.4334 N   0  0  0  0  0  0  0  0  0  0  0  0
   -3.6204    5.8958  -16.4432 C   0  0  0  0  0  0  0  0  0  0  0  0
   -3.2677    5.6906  -17.9141 C   0  0  0  0  0  0  0  0  0  0  0  0
   -2.1876    6.5954  -18.4764 C   0  0  0  0  0  0  0  0  0  0  0  0
   -2.3728    6.7991  -19.9244 N   0  0  0  0  0  0  0  0  0  0  0  0
   -1.1067    7.1326  -20.5693 C   0  0  0  0  0  0  0  0  0  0  0  0
   -3.0516    5.6761  -20.5912 C   0  0  0  0  0  0  0  0  0  0  0  0
   -4.4953    5.4696  -20.0854 C   0  0  0  0  0  0  0  0  0  0  0  0
   -4.6052    5.9217  -18.6562 C   0  0  0  0  0  0  0  0  0  0  0  0
   -8.6858    4.8319  -14.2161 C   0  0  0  0  0  0  0  0  0  0  0  0
   -9.2341    5.8549  -14.0981 O   0  0  0  0  0  0  0  0  0  0  0  0
   -8.2265    3.8179  -13.1539 N   0  0  0  0  0  0  0  0  0  0  0  0
   -7.8491    2.9840  -13.5164 H   0  0  0  0  0  0  0  0  0  0  0  0
   -8.2576    3.8876  -11.7616 C   0  0  0  0  0  0  0  0  0  0  0  0
   -7.9552    5.0893  -11.0955 C   0  0  0  0  0  0  0  0  0  0  0  0
   -7.9921    5.1701   -9.6999 C   0  0  0  0  0  0  0  0  0  0  0  0
   -8.3689    4.0443   -8.9950 C   0  0  0  0  0  0  0  0  0  0  0  0
   -8.6665    2.8532   -9.6505 C   0  0  0  0  0  0  0  0  0  0  0  0
   -8.5933    2.7490  -11.0299 C   0  0  0  0  0  0  0  0  0  0  0  0
   -9.0370    1.8217   -8.6371 C   0  0  0  0  0  0  0  0  0  0  0  0
   -9.3015    2.5856   -7.3876 N   0  0  0  0  0  0  0  0  0  0  0  0
   -8.5381    3.8453   -7.5268 C   0  0  0  0  0  0  0  0  0  0  0  0
   -8.9794    2.0614   -6.5741 H   0  0  0  0  0  0  0  0  0  0  0  0
  1  2  1  0  0  0
  2  3  2  0  0  0
  3  4  1  0  0  0
  4 19  1  0  0  0
 19 20  2  0  0  0
 19 21  1  0  0  0
 21 23  1  0  0  0
 23 24  2  0  0  0
 24 25  1  0  0  0
 25 26  2  0  0  0
 26 27  1  0  0  0
 27 28  2  0  0  0
 27 29  1  0  0  0
 29 30  1  0  0  0
 30 31  1  0  0  0
  4  5  2  0  0  0
  5  6  1  0  0  0
  6  7  2  0  0  0
  7  8  1  0  0  0
  8  9  2  0  0  0
  9 10  1  0  0  0
 10 11  1  0  0  0
 12 11  1  0  0  0
 12 13  1  0  0  0
 13 14  1  0  0  0
 14 15  1  0  0  0
 14 16  1  0  0  0
 16 17  1  0  0  0
 18 17  1  0  0  0
 10  2  1  0  0  0
 18 12  1  0  0  0
  8  3  1  0  0  0
 18  9  1  0  0  0
 28 23  1  0  0  0
 31 26  1  0  0  0
 21 22  1  0  0  0
 30 32  1  0  0  0
M  END
> <minimizedAffinity>
-11.31956

> <minimizedRMSD>
0.51020

$$$$
P27108


 32 37  0  0  0  0  0  0  0  0999 V2000
   -5.3476    5.4760  -14.2070 C   0  0  0  0  0  0  0  0  0  0  0  0
   -5.7449    5.2297  -15.6183 C   0  0  0  0  0  0  0  0  0  0  0  0
   -6.9541    4.8960  -16.2083 C   0  0  0  0  0  0  0  0  0  0  0  0
   -8.1830    4.6889  -15.5767 C   0  0  0  0  0  0  0  0  0  0  0  0
   -9.1416    4.1759  -16.4761 C   0  0  0  0  0  0  0  0  0  0  0  0
   -8.9056    3.9865  -17.8859 C   0  0  0  0  0  0  0  0  0  0  0  0
   -7.6874    4.2840  -18.5385 C   0  0  0  0  0  0  0  0  0  0  0  0
   -6.7400    4.7164  -17.6223 C   0  0  0  0  0  0  0  0  0  0  0  0
   -5.4403    5.0462  -17.8704 C   0  0  0  0  0  0  0  0  0  0  0  0
   -4.8572    5.2461  -16.6490 N   0  0  0  0  0  0  0  0  0  0  0  0
   -3.4178    5.3447  -16.6975 C   0  0  0  0  0  0  0  0  0  0  0  0
   -3.0982    5.2856  -18.1997 C   0  0  0  0  0  0  0  0  0  0  0  0
   -2.3171    6.5377  -18.5941 C   0  0  0  0  0  0  0  0  0  0  0  0
   -2.1785    6.6846  -20.0360 N   0  0  0  0  0  0  0  0  0  0  0  0
   -1.1276    5.8390  -20.5948 C   0  0  0  0  0  0  0  0  0  0  0  0
   -3.4497    6.5661  -20.7687 C   0  0  0  0  0  0  0  0  0  0  0  0
   -4.6858    6.3489  -19.8877 C   0  0  0  0  0  0  0  0  0  0  0  0
   -4.4572    5.1544  -18.9681 C   0  0  0  0  0  0  0  0  0  0  0  0
   -8.4916    5.1845  -14.2243 C   0  0  0  0  0  0  0  0  0  0  0  0
   -8.8506    6.2925  -14.1341 O   0  0  0  0  0  0  0  0  0  0  0  0
   -8.1854    4.1396  -13.1304 N   0  0  0  0  0  0  0  0  0  0  0  0
   -7.9688    3.2406  -13.4682 H   0  0  0  0  0  0  0  0  0  0  0  0
   -8.1655    4.2619  -11.7381 C   0  0  0  0  0  0  0  0  0  0  0  0
   -7.7147    5.4432  -11.1248 C   0  0  0  0  0  0  0  0  0  0  0  0
   -7.6710    5.5636   -9.7302 C   0  0  0  0  0  0  0  0  0  0  0  0
   -8.0986    4.4946   -8.9666 C   0  0  0  0  0  0  0  0  0  0  0  0
   -8.5445    3.3220   -9.5650 C   0  0  0  0  0  0  0  0  0  0  0  0
   -8.5745    3.1870  -10.9474 C   0  0  0  0  0  0  0  0  0  0  0  0
   -8.9182    2.3482   -8.4938 C   0  0  0  0  0  0  0  0  0  0  0  0
   -9.0106    3.1526   -7.2450 N   0  0  0  0  0  0  0  0  0  0  0  0
   -8.1703    4.3467   -7.4839 C   0  0  0  0  0  0  0  0  0  0  0  0
   -8.6563    2.6201   -6.4504 H   0  0  0  0  0  0  0  0  0  0  0  0
  1  2  1  0  0  0
  2  3  2  0  0  0
  3  4  1  0  0  0
  4 19  1  0  0  0
 19 20  2  0  0  0
 19 21  1  0  0  0
 21 23  1  0  0  0
 23 24  2  0  0  0
 24 25  1  0  0  0
 25 26  2  0  0  0
 26 27  1  0  0  0
 27 28  2  0  0  0
 27 29  1  0  0  0
 29 30  1  0  0  0
 30 31  1  0  0  0
  4  5  2  0  0  0
  5  6  1  0  0  0
  6  7  2  0  0  0
  7  8  1  0  0  0
  8  9  2  0  0  0
  9 10  1  0  0  0
 10 11  1  0  0  0
 12 11  1  0  0  0
 12 13  1  0  0  0
 13 14  1  0  0  0
 14 15  1  0  0  0
 14 16  1  0  0  0
 16 17  1  0  0  0
 18 17  1  0  0  0
 10  2  1  0  0  0
 18 12  1  0  0  0
  8  3  1  0  0  0
 18  9  1  0  0  0
 28 23  1  0  0  0
 31 26  1  0  0  0
 21 22  1  0  0  0
 30 32  1  0  0  0
M  END
> <minimizedAffinity>
-9.93872

> <minimizedRMSD>
0.38233

$$$$
P27148


 30 33  0  0  0  0  0  0  0  0999 V2000
   -5.0226    5.2778  -17.5249 N   0  0  0  0  0  0  0  0  0  0  0  0
   -5.0967    5.1700  -18.9516 C   0  0  0  0  0  0  0  0  0  0  0  0
   -4.1916    5.3414  -19.7525 O   0  0  0  0  0  0  0  0  0  0  0  0
   -6.4201    4.7864  -19.2508 N   0  0  0  0  0  0  0  0  0  0  0  0
   -7.1130    4.5666  -18.0648 C   0  0  0  0  0  0  0  0  0  0  0  0
   -8.4018    4.1181  -17.8611 C   0  0  0  0  0  0  0  0  0  0  0  0
   -8.8722    4.1121  -16.5386 C   0  0  0  0  0  0  0  0  0  0  0  0
   -8.0351    4.5375  -15.4819 C   0  0  0  0  0  0  0  0  0  0  0  0
   -6.6987    4.8836  -15.7007 C   0  0  0  0  0  0  0  0  0  0  0  0
   -6.2686    4.8946  -17.0053 C   0  0  0  0  0  0  0  0  0  0  0  0
   -6.7946    4.6895  -20.1561 H   0  0  0  0  0  0  0  0  0  0  0  0
   -8.5934    4.8537  -14.1475 C   0  0  0  0  0  0  0  0  0  0  0  0
   -9.3698    5.7224  -14.0807 O   0  0  0  0  0  0  0  0  0  0  0  0
   -8.0046    3.9531  -13.0449 N   0  0  0  0  0  0  0  0  0  0  0  0
   -7.4167    3.2338  -13.3706 H   0  0  0  0  0  0  0  0  0  0  0  0
   -8.1687    3.9909  -11.6608 C   0  0  0  0  0  0  0  0  0  0  0  0
   -7.9133    5.1718  -10.9402 C   0  0  0  0  0  0  0  0  0  0  0  0
   -8.0622    5.2165   -9.5503 C   0  0  0  0  0  0  0  0  0  0  0  0
   -8.4810    4.0699   -8.9057 C   0  0  0  0  0  0  0  0  0  0  0  0
   -8.7270    2.8975   -9.6152 C   0  0  0  0  0  0  0  0  0  0  0  0
   -8.5755    2.8364  -10.9910 C   0  0  0  0  0  0  0  0  0  0  0  0
   -9.1088    1.8254   -8.6504 C   0  0  0  0  0  0  0  0  0  0  0  0
   -9.4807    2.5444   -7.4034 N   0  0  0  0  0  0  0  0  0  0  0  0
   -8.7360    3.8232   -7.4561 C   0  0  0  0  0  0  0  0  0  0  0  0
   -9.2058    2.0039   -6.5832 H   0  0  0  0  0  0  0  0  0  0  0  0
   -3.8439    5.0084  -16.8101 N   0  0  0  0  0  0  0  0  0  0  0  0
   -4.1081    4.5783  -15.9237 H   0  0  0  0  0  0  0  0  0  0  0  0
   -3.7225    7.4986  -16.6104 C   0  0  0  0  0  0  0  0  0  0  0  0
   -2.9950    6.1636  -16.5118 C   0  0  0  0  0  0  0  0  0  0  0  0
   -1.7066    6.1698  -17.3272 C   0  0  0  0  0  0  0  0  0  0  0  0
 28 29  1  0  0  0
 29 30  1  0  0  0
 29 26  1  0  0  0
 26  1  1  0  0  0
  1  2  1  0  0  0
  2  3  2  0  0  0
  2  4  1  0  0  0
  4  5  1  0  0  0
  5  6  2  0  0  0
  6  7  1  0  0  0
  7  8  2  0  0  0
  8 12  1  0  0  0
 12 13  2  0  0  0
 12 14  1  0  0  0
 14 16  1  0  0  0
 16 17  2  0  0  0
 17 18  1  0  0  0
 18 19  2  0  0  0
 19 20  1  0  0  0
 20 21  2  0  0  0
 20 22  1  0  0  0
 22 23  1  0  0  0
 23 24  1  0  0  0
  8  9  1  0  0  0
  9 10  2  0  0  0
 10  1  1  0  0  0
 10  5  1  0  0  0
 21 16  1  0  0  0
 24 19  1  0  0  0
 26 27  1  0  0  0
  4 11  1  0  0  0
 14 15  1  0  0  0
 23 25  1  0  0  0
M  END
> <minimizedAffinity>
-9.28940

> <minimizedRMSD>
0.80543

$$$$
P27154


 31 34  0  0  0  0  0  0  0  0999 V2000
   -7.1038    4.3969  -13.7592 C   0  0  0  0  0  0  0  0  0  0  0  0
   -6.6181    5.7079  -13.5220 O   0  0  0  0  0  0  0  0  0  0  0  0
   -6.4910    5.8382  -12.5693 H   0  0  0  0  0  0  0  0  0  0  0  0
   -7.2536    4.3417  -15.2922 C   0  0  0  0  0  0  0  0  0  0  0  0
   -8.5867    4.2333  -15.9004 C   0  0  0  0  0  0  0  0  0  0  0  0
   -8.8116    4.2008  -17.2217 C   0  0  0  0  0  0  0  0  0  0  0  0
  -10.3653    4.2018  -17.9107 Cl  0  0  0  0  0  0  0  0  0  0  0  0
   -7.6747    4.2768  -18.1294 C   0  0  0  0  0  0  0  0  0  0  0  0
   -6.3364    4.5002  -17.5469 C   0  0  0  0  0  0  0  0  0  0  0  0
   -6.1723    4.5160  -16.0884 C   0  0  0  0  0  0  0  0  0  0  0  0
   -5.4760    4.6456  -18.4916 N   0  0  0  0  0  0  0  0  0  0  0  0
   -6.2374    4.4469  -19.6452 C   0  0  0  0  0  0  0  0  0  0  0  0
   -5.7618    4.4536  -20.7726 O   0  0  0  0  0  0  0  0  0  0  0  0
   -7.5767    4.2141  -19.4057 N   0  0  0  0  0  0  0  0  0  0  0  0
   -3.7481    3.3613  -11.9713 C   0  0  0  0  0  0  0  0  0  0  0  0
   -4.8861    3.9069  -12.6464 N   0  0  0  0  0  0  0  0  0  0  0  0
   -6.1380    3.2016  -13.2513 C   0  0  0  0  0  0  0  0  0  0  0  0
   -6.3898    2.0628  -13.3570 O   0  0  0  0  0  0  0  0  0  0  0  0
   -4.8769    4.8864  -12.7448 H   0  0  0  0  0  0  0  0  0  0  0  0
   -8.4068    4.3070  -13.0727 N   0  0  0  0  0  0  0  0  0  0  0  0
   -9.2492    4.2428  -13.5782 H   0  0  0  0  0  0  0  0  0  0  0  0
   -8.3953    4.3169  -11.6488 C   0  0  0  0  0  0  0  0  0  0  0  0
   -8.0625    5.4654  -10.8990 C   0  0  0  0  0  0  0  0  0  0  0  0
   -8.1072    5.4722   -9.4977 C   0  0  0  0  0  0  0  0  0  0  0  0
   -8.4972    4.3199   -8.8469 C   0  0  0  0  0  0  0  0  0  0  0  0
   -8.8280    3.1806   -9.5627 C   0  0  0  0  0  0  0  0  0  0  0  0
   -8.7880    3.1623  -10.9505 C   0  0  0  0  0  0  0  0  0  0  0  0
   -9.1795    2.0845   -8.6144 C   0  0  0  0  0  0  0  0  0  0  0  0
   -9.2487    2.7126   -7.2687 N   0  0  0  0  0  0  0  0  0  0  0  0
   -8.6454    4.0549   -7.3882 C   0  0  0  0  0  0  0  0  0  0  0  0
   -8.7276    2.1531   -6.5936 H   0  0  0  0  0  0  0  0  0  0  0  0
 15 16  1  0  0  0
 16 17  1  0  0  0
 17 18  2  0  0  0
 17  1  1  0  0  0
  1  2  1  0  0  0
  1 20  1  0  0  0
 20 22  1  0  0  0
 22 23  2  0  0  0
 23 24  1  0  0  0
 24 25  2  0  0  0
 25 26  1  0  0  0
 26 27  2  0  0  0
 26 28  1  0  0  0
 28 29  1  0  0  0
 29 30  1  0  0  0
  1  4  1  0  0  0
  4  5  1  0  0  0
  5  6  2  0  0  0
  6  7  1  0  0  0
  6  8  1  0  0  0
  8  9  1  0  0  0
  9 10  1  0  0  0
  9 11  2  0  0  0
 11 12  1  0  0  0
 12 13  2  0  0  0
 12 14  1  0  0  0
 27 22  1  0  0  0
 10  4  2  0  0  0
 30 25  1  0  0  0
 14  8  2  0  0  0
 16 19  1  0  0  0
  2  3  1  0  0  0
 20 21  1  0  0  0
 29 31  1  0  0  0
M  END
> <minimizedAffinity>
-8.21998

> <minimizedRMSD>
0.32171

$$$$
P27157


 31 35  0  0  0  0  0  0  0  0999 V2000
   -5.9193    4.1300  -20.8977 O   0  0  0  0  0  0  0  0  0  0  0  0
   -6.3649    4.2699  -19.7669 C   0  0  0  0  0  0  0  0  0  0  0  0
   -7.6808    4.0020  -19.4465 N   0  0  0  0  0  0  0  0  0  0  0  0
   -7.7600    4.2717  -18.1877 C   0  0  0  0  0  0  0  0  0  0  0  0
   -6.4174    4.6555  -17.6887 C   0  0  0  0  0  0  0  0  0  0  0  0
   -5.5842    4.6517  -18.6813 N   0  0  0  0  0  0  0  0  0  0  0  0
   -6.1873    5.0445  -16.2431 C   0  0  0  0  0  0  0  0  0  0  0  0
   -4.7982    4.5772  -15.7681 C   0  0  0  0  0  0  0  0  0  0  0  0
   -4.1053    5.8095  -15.3663 N   0  0  0  0  0  0  0  0  0  0  0  0
   -4.6441    6.7982  -16.2767 C   0  0  0  0  0  0  0  0  0  0  0  0
   -6.0753    6.5315  -16.2514 N   0  0  0  0  0  0  0  0  0  0  0  0
   -7.3279    4.4956  -15.3284 C   0  0  0  0  0  0  0  0  0  0  0  0
   -8.7143    4.7930  -15.9202 C   0  0  0  0  0  0  0  0  0  0  0  0
   -8.9158    4.1216  -17.2721 C   0  0  0  0  0  0  0  0  0  0  0  0
  -10.3629    4.7295  -18.0771 Cl  0  0  0  0  0  0  0  0  0  0  0  0
   -3.0961    5.7167  -15.4814 H   0  0  0  0  0  0  0  0  0  0  0  0
   -6.5278    6.9210  -17.0784 H   0  0  0  0  0  0  0  0  0  0  0  0
   -7.2799    5.0805  -13.8962 C   0  0  0  0  0  0  0  0  0  0  0  0
   -6.7698    6.1091  -13.6663 O   0  0  0  0  0  0  0  0  0  0  0  0
   -8.0488    4.1014  -12.9561 N   0  0  0  0  0  0  0  0  0  0  0  0
   -8.4549    3.3277  -13.4097 H   0  0  0  0  0  0  0  0  0  0  0  0
   -8.2541    4.1443  -11.5776 C   0  0  0  0  0  0  0  0  0  0  0  0
   -7.9800    5.3066  -10.8373 C   0  0  0  0  0  0  0  0  0  0  0  0
   -8.1711    5.3363   -9.4506 C   0  0  0  0  0  0  0  0  0  0  0  0
   -8.6278    4.1895   -8.8292 C   0  0  0  0  0  0  0  0  0  0  0  0
   -8.8896    3.0350   -9.5597 C   0  0  0  0  0  0  0  0  0  0  0  0
   -8.7233    2.9973  -10.9340 C   0  0  0  0  0  0  0  0  0  0  0  0
   -9.2826    1.9441   -8.6188 C   0  0  0  0  0  0  0  0  0  0  0  0
   -9.6257    2.6363   -7.3492 N   0  0  0  0  0  0  0  0  0  0  0  0
   -8.8861    3.9172   -7.3847 C   0  0  0  0  0  0  0  0  0  0  0  0
   -9.3324    2.0774   -6.5479 H   0  0  0  0  0  0  0  0  0  0  0  0
  1  2  2  0  0  0
  2  3  1  0  0  0
  3  4  2  0  0  0
  4  5  1  0  0  0
  5  6  2  0  0  0
  5  7  1  0  0  0
  7  8  1  0  0  0
  8  9  1  0  0  0
  9 10  1  0  0  0
 10 11  1  0  0  0
  7 12  1  0  0  0
 12 18  1  0  0  0
 18 19  2  0  0  0
 18 20  1  0  0  0
 20 22  1  0  0  0
 22 23  2  0  0  0
 23 24  1  0  0  0
 24 25  2  0  0  0
 25 26  1  0  0  0
 26 27  2  0  0  0
 26 28  1  0  0  0
 28 29  1  0  0  0
 29 30  1  0  0  0
 12 13  1  0  0  0
 13 14  1  0  0  0
 14 15  1  0  0  0
  6  2  1  0  0  0
 11  7  1  0  0  0
 27 22  1  0  0  0
 14  4  1  0  0  0
 30 25  1  0  0  0
  9 16  1  0  0  0
 11 17  1  0  0  0
 20 21  1  0  0  0
 29 31  1  0  0  0
M  END
> <minimizedAffinity>
-8.36998

> <minimizedRMSD>
0.12345

$$$$
P27158


 40 44  0  0  0  0  0  0  0  0999 V2000
   -6.9328    4.3780  -13.0858 C   0  0  0  0  0  0  0  0  0  0  0  0
   -6.3143    3.1250  -12.8305 O   0  0  0  0  0  0  0  0  0  0  0  0
   -6.2408    2.9898  -11.8728 H   0  0  0  0  0  0  0  0  0  0  0  0
   -6.9899    4.4705  -14.6786 C   0  0  0  0  0  0  0  0  0  0  0  0
   -8.1992    5.2657  -15.2482 C   0  0  0  0  0  0  0  0  0  0  0  0
   -8.4960    4.9175  -16.7057 C   0  0  0  0  0  0  0  0  0  0  0  0
   -9.3295    3.4081  -16.8478 Cl  0  0  0  0  0  0  0  0  0  0  0  0
   -7.2984    4.7769  -17.5476 C   0  0  0  0  0  0  0  0  0  0  0  0
   -7.2401    4.6821  -18.8301 N   0  0  0  0  0  0  0  0  0  0  0  0
   -5.8921    4.5891  -19.0935 C   0  0  0  0  0  0  0  0  0  0  0  0
   -5.4484    4.5245  -20.2306 O   0  0  0  0  0  0  0  0  0  0  0  0
   -5.0930    4.6166  -17.9530 N   0  0  0  0  0  0  0  0  0  0  0  0
   -5.9359    4.6977  -16.9733 C   0  0  0  0  0  0  0  0  0  0  0  0
   -5.6803    4.8572  -15.4884 C   0  0  0  0  0  0  0  0  0  0  0  0
   -4.4282    4.0589  -15.0902 C   0  0  0  0  0  0  0  0  0  0  0  0
   -3.3644    5.0522  -14.8840 N   0  0  0  0  0  0  0  0  0  0  0  0
   -4.0287    6.2585  -14.5018 N   0  0  0  0  0  0  0  0  0  0  0  0
   -5.2179    6.3123  -15.3334 C   0  0  0  0  0  0  0  0  0  0  0  0
   -2.8384    5.1940  -15.7463 H   0  0  0  0  0  0  0  0  0  0  0  0
   -3.4322    7.0672  -14.6767 H   0  0  0  0  0  0  0  0  0  0  0  0
   -6.7941    6.8945  -12.6055 N   0  0  0  0  0  0  0  0  0  0  0  0
   -6.1010    5.5245  -12.3406 C   0  0  0  0  0  0  0  0  0  0  0  0
   -5.1312    5.2694  -11.7354 O   0  0  0  0  0  0  0  0  0  0  0  0
   -7.5658    6.8552  -13.2155 H   0  0  0  0  0  0  0  0  0  0  0  0
   -6.4885    8.2100  -12.1024 C   0  0  0  0  0  0  0  0  0  0  0  0
   -9.0149    8.4701  -12.2114 C   0  0  0  0  0  0  0  0  0  0  0  0
   -7.7042    9.0174  -11.6445 C   0  0  0  0  0  0  0  0  0  0  0  0
   -7.7674    9.0415  -10.1164 C   0  0  0  0  0  0  0  0  0  0  0  0
   -8.3177    4.2604  -12.5511 N   0  0  0  0  0  0  0  0  0  0  0  0
   -9.0984    4.2551  -13.1509 H   0  0  0  0  0  0  0  0  0  0  0  0
   -8.4692    4.1560  -11.1404 C   0  0  0  0  0  0  0  0  0  0  0  0
   -8.2381    5.2583  -10.2934 C   0  0  0  0  0  0  0  0  0  0  0  0
   -8.3726    5.1765   -8.9033 C   0  0  0  0  0  0  0  0  0  0  0  0
   -8.7856    3.9792   -8.3649 C   0  0  0  0  0  0  0  0  0  0  0  0
   -9.0278    2.8780   -9.1780 C   0  0  0  0  0  0  0  0  0  0  0  0
   -8.8569    2.9404  -10.5549 C   0  0  0  0  0  0  0  0  0  0  0  0
   -9.4617    1.7369   -8.3163 C   0  0  0  0  0  0  0  0  0  0  0  0
   -9.8393    2.3579   -7.0163 N   0  0  0  0  0  0  0  0  0  0  0  0
   -9.0634    3.6131   -6.9462 C   0  0  0  0  0  0  0  0  0  0  0  0
   -9.5939    1.7420   -6.2412 H   0  0  0  0  0  0  0  0  0  0  0  0
 26 27  1  0  0  0
 27 28  1  0  0  0
 27 25  1  0  0  0
 25 21  1  0  0  0
 21 22  1  0  0  0
 22 23  2  0  0  0
 22  1  1  0  0  0
  1  2  1  0  0  0
  1 29  1  0  0  0
 29 31  1  0  0  0
 31 32  2  0  0  0
 32 33  1  0  0  0
 33 34  2  0  0  0
 34 35  1  0  0  0
 35 36  2  0  0  0
 35 37  1  0  0  0
 37 38  1  0  0  0
 38 39  1  0  0  0
  1  4  1  0  0  0
  4  5  1  0  0  0
  5  6  1  0  0  0
  6  7  1  0  0  0
  6  8  1  0  0  0
  8  9  2  0  0  0
  9 10  1  0  0  0
 10 11  2  0  0  0
 10 12  1  0  0  0
 12 13  2  0  0  0
 13 14  1  0  0  0
 14 15  1  0  0  0
 15 16  1  0  0  0
 16 17  1  0  0  0
 17 18  1  0  0  0
 36 31  1  0  0  0
 14  4  1  0  0  0
 39 34  1  0  0  0
 13  8  1  0  0  0
 18 14  1  0  0  0
 21 24  1  0  0  0
  2  3  1  0  0  0
 29 30  1  0  0  0
 38 40  1  0  0  0
 16 19  1  0  0  0
 17 20  1  0  0  0
M  END
> <minimizedAffinity>
-7.27115

> <minimizedRMSD>
0.72487

$$$$
P27168


 30 34  0  0  0  0  0  0  0  0999 V2000
   -6.6049    4.8979  -14.1019 C   0  0  0  0  0  0  0  0  0  0  0  0
   -5.7400    5.6684  -13.9452 O   0  0  0  0  0  0  0  0  0  0  0  0
   -7.4947    4.1622  -13.0666 N   0  0  0  0  0  0  0  0  0  0  0  0
   -8.1100    3.4967  -13.4508 H   0  0  0  0  0  0  0  0  0  0  0  0
   -7.5682    4.2970  -11.6081 C   0  0  0  0  0  0  0  0  0  0  0  0
   -7.9343    5.7556  -11.3067 C   0  0  0  0  0  0  0  0  0  0  0  0
   -8.1909    5.9701   -9.8713 C   0  0  0  0  0  0  0  0  0  0  0  0
   -8.4761    5.0213   -8.9728 C   0  0  0  0  0  0  0  0  0  0  0  0
   -8.5472    5.6939   -7.6369 C   0  0  0  0  0  0  0  0  0  0  0  0
   -8.0770    7.0858   -7.8273 N   0  0  0  0  0  0  0  0  0  0  0  0
   -8.1060    7.3245   -9.2743 C   0  0  0  0  0  0  0  0  0  0  0  0
   -8.6596    3.5349   -9.3117 C   0  0  0  0  0  0  0  0  0  0  0  0
   -7.6494    2.6554   -8.6138 C   0  0  0  0  0  0  0  0  0  0  0  0
   -7.9548    2.4380   -7.0865 C   0  0  0  0  0  0  0  0  0  0  0  0
   -9.2469    1.9767   -6.7676 O   0  0  0  0  0  0  0  0  0  0  0  0
  -10.1421    2.9055   -7.2876 C   0  0  0  0  0  0  0  0  0  0  0  0
   -9.9267    2.8621   -8.7937 C   0  0  0  0  0  0  0  0  0  0  0  0
   -8.5334    3.3278  -10.8905 C   0  0  0  0  0  0  0  0  0  0  0  0
   -7.1279    7.1919   -7.4690 H   0  0  0  0  0  0  0  0  0  0  0  0
   -6.0763    4.1191  -21.0946 O   0  0  0  0  0  0  0  0  0  0  0  0
   -6.4503    4.2712  -19.9385 C   0  0  0  0  0  0  0  0  0  0  0  0
   -5.5839    4.6224  -18.9003 N   0  0  0  0  0  0  0  0  0  0  0  0
   -6.3319    4.5552  -17.8566 C   0  0  0  0  0  0  0  0  0  0  0  0
   -6.0200    4.7392  -16.4347 C   0  0  0  0  0  0  0  0  0  0  0  0
   -7.0061    4.5700  -15.5269 C   0  0  0  0  0  0  0  0  0  0  0  0
   -8.3799    4.3132  -15.9344 C   0  0  0  0  0  0  0  0  0  0  0  0
   -8.7257    4.1425  -17.2168 C   0  0  0  0  0  0  0  0  0  0  0  0
   -9.9881    3.9134  -17.6074 F   0  0  0  0  0  0  0  0  0  0  0  0
   -7.7138    4.2177  -18.2634 C   0  0  0  0  0  0  0  0  0  0  0  0
   -7.7564    4.0477  -19.5325 N   0  0  0  0  0  0  0  0  0  0  0  0
 20 21  2  0  0  0
 21 22  1  0  0  0
 22 23  2  0  0  0
 23 24  1  0  0  0
 24 25  2  0  0  0
 25  1  1  0  0  0
  1  2  2  0  0  0
  1  3  1  0  0  0
  5  3  1  0  0  0
  5  6  1  0  0  0
  6  7  1  0  0  0
  7  8  2  0  0  0
  8  9  1  0  0  0
  9 10  1  0  0  0
 10 11  1  0  0  0
  8 12  1  0  0  0
 12 13  1  0  0  0
 13 14  1  0  0  0
 14 15  1  0  0  0
 15 16  1  0  0  0
 16 17  1  0  0  0
 12 18  1  0  0  0
 25 26  1  0  0  0
 26 27  2  0  0  0
 27 28  1  0  0  0
 27 29  1  0  0  0
 29 30  2  0  0  0
 30 21  1  0  0  0
 29 23  1  0  0  0
 18  5  1  0  0  0
 11  7  1  0  0  0
 17 12  1  0  0  0
  3  4  1  0  0  0
 10 19  1  0  0  0
M  END
> <minimizedAffinity>
-4.15006

> <minimizedRMSD>
0.56439

$$$$
P27173


 26 30  0  0  0  0  0  0  0  0999 V2000
   -6.1478    4.0218  -20.8793 O   0  0  0  0  0  0  0  0  0  0  0  0
   -6.6167    4.1674  -19.7532 C   0  0  0  0  0  0  0  0  0  0  0  0
   -7.9699    4.0052  -19.4746 N   0  0  0  0  0  0  0  0  0  0  0  0
   -8.0720    4.2280  -18.2069 C   0  0  0  0  0  0  0  0  0  0  0  0
   -9.2751    4.2254  -17.3632 C   0  0  0  0  0  0  0  0  0  0  0  0
   -9.1226    4.4149  -16.0417 C   0  0  0  0  0  0  0  0  0  0  0  0
   -7.8439    4.6668  -15.4213 C   0  0  0  0  0  0  0  0  0  0  0  0
   -6.7161    4.7294  -16.1301 C   0  0  0  0  0  0  0  0  0  0  0  0
   -6.7646    4.5193  -17.5509 C   0  0  0  0  0  0  0  0  0  0  0  0
   -5.8807    4.5195  -18.4934 N   0  0  0  0  0  0  0  0  0  0  0  0
   -4.6395    4.7661  -18.3815 O   0  0  0  0  0  0  0  0  0  0  0  0
   -5.7237    5.0848  -15.1443 C   0  0  0  0  0  0  0  0  0  0  0  0
   -6.1445    5.2894  -13.9308 N   0  0  0  0  0  0  0  0  0  0  0  0
   -7.6030    4.9976  -13.9691 C   0  0  0  0  0  0  0  0  0  0  0  0
   -8.0339    3.8987  -13.1298 N   0  0  0  0  0  0  0  0  0  0  0  0
   -8.1756    3.0122  -13.5339 H   0  0  0  0  0  0  0  0  0  0  0  0
   -8.2542    4.0677  -11.7535 C   0  0  0  0  0  0  0  0  0  0  0  0
   -7.9380    5.2402  -11.0397 C   0  0  0  0  0  0  0  0  0  0  0  0
   -8.1175    5.3347   -9.6485 C   0  0  0  0  0  0  0  0  0  0  0  0
   -8.5888    4.2295   -8.9671 C   0  0  0  0  0  0  0  0  0  0  0  0
   -8.8616    3.0493   -9.6416 C   0  0  0  0  0  0  0  0  0  0  0  0
   -8.6929    2.9537  -11.0153 C   0  0  0  0  0  0  0  0  0  0  0  0
   -9.2644    2.0022   -8.6554 C   0  0  0  0  0  0  0  0  0  0  0  0
   -9.5764    2.7482   -7.4061 N   0  0  0  0  0  0  0  0  0  0  0  0
   -8.8297    4.0217   -7.5096 C   0  0  0  0  0  0  0  0  0  0  0  0
   -9.2692    2.2201   -6.5893 H   0  0  0  0  0  0  0  0  0  0  0  0
  1  2  2  0  0  0
  2  3  1  0  0  0
  3  4  2  0  0  0
  4  5  1  0  0  0
  5  6  2  0  0  0
  6  7  1  0  0  0
  7  8  2  0  0  0
  8  9  1  0  0  0
  9 10  2  0  0  0
 10 11  1  0  0  0
  8 12  1  0  0  0
 12 13  2  0  0  0
 13 14  1  0  0  0
 14 15  1  0  0  0
 15 17  1  0  0  0
 17 18  2  0  0  0
 18 19  1  0  0  0
 19 20  2  0  0  0
 20 21  1  0  0  0
 21 22  2  0  0  0
 21 23  1  0  0  0
 23 24  1  0  0  0
 24 25  1  0  0  0
 10  2  1  0  0  0
 22 17  1  0  0  0
  9  4  1  0  0  0
 25 20  1  0  0  0
 14  7  1  0  0  0
 15 16  1  0  0  0
 24 26  1  0  0  0
M  CHG 1  10   1
M  CHG 1  11  -1
M  END
> <minimizedAffinity>
-7.98810

> <minimizedRMSD>
0.27133

$$$$
P27174


 35 39  0  0  0  0  0  0  0  0999 V2000
   -5.3024    3.9625  -13.7200 C   0  0  0  0  0  0  0  0  0  0  0  0
   -5.5549    5.0866  -14.7244 C   0  0  0  0  0  0  0  0  0  0  0  0
   -4.4352    5.0061  -15.8608 C   0  0  0  0  0  0  0  0  0  0  0  0
   -3.2322    5.1357  -15.6891 O   0  0  0  0  0  0  0  0  0  0  0  0
   -5.0536    4.7827  -17.1479 C   0  0  0  0  0  0  0  0  0  0  0  0
   -6.3239    4.6670  -16.8604 C   0  0  0  0  0  0  0  0  0  0  0  0
   -6.8063    4.8082  -15.5487 C   0  0  0  0  0  0  0  0  0  0  0  0
   -8.1425    4.7373  -15.4043 C   0  0  0  0  0  0  0  0  0  0  0  0
   -8.9857    4.4333  -16.5801 C   0  0  0  0  0  0  0  0  0  0  0  0
   -8.4967    4.3182  -17.8348 C   0  0  0  0  0  0  0  0  0  0  0  0
   -9.2764    4.0286  -18.8887 F   0  0  0  0  0  0  0  0  0  0  0  0
   -7.0444    4.4699  -18.0795 C   0  0  0  0  0  0  0  0  0  0  0  0
   -6.2441    4.4533  -19.0938 N   0  0  0  0  0  0  0  0  0  0  0  0
   -4.9591    4.6921  -18.5865 C   0  0  0  0  0  0  0  0  0  0  0  0
   -3.9248    4.8123  -19.2194 O   0  0  0  0  0  0  0  0  0  0  0  0
   -8.7518    5.0982  -14.0889 C   0  0  0  0  0  0  0  0  0  0  0  0
   -9.5512    5.9454  -14.0092 O   0  0  0  0  0  0  0  0  0  0  0  0
   -8.1422    4.1868  -12.9944 N   0  0  0  0  0  0  0  0  0  0  0  0
   -7.5342    3.4892  -13.3304 H   0  0  0  0  0  0  0  0  0  0  0  0
   -8.3146    4.1941  -11.6099 C   0  0  0  0  0  0  0  0  0  0  0  0
   -8.0681    5.3528  -10.8550 C   0  0  0  0  0  0  0  0  0  0  0  0
   -8.2061    5.3465   -9.4623 C   0  0  0  0  0  0  0  0  0  0  0  0
   -8.6016    4.1731   -8.8473 C   0  0  0  0  0  0  0  0  0  0  0  0
   -8.8591    3.0291   -9.5908 C   0  0  0  0  0  0  0  0  0  0  0  0
   -8.7151    3.0173  -10.9710 C   0  0  0  0  0  0  0  0  0  0  0  0
   -9.2441    1.9177   -8.6741 C   0  0  0  0  0  0  0  0  0  0  0  0
   -9.3753    2.5227   -7.3217 N   0  0  0  0  0  0  0  0  0  0  0  0
   -8.8008    3.8816   -7.3996 C   0  0  0  0  0  0  0  0  0  0  0  0
   -8.8645    1.9651   -6.6373 H   0  0  0  0  0  0  0  0  0  0  0  0
   -5.7035    6.2846  -13.9878 O   0  0  0  0  0  0  0  0  0  0  0  0
   -5.4626    7.4890  -14.7129 C   0  0  0  0  0  0  0  0  0  0  0  0
   -6.1734    8.6301  -13.9951 C   0  0  0  0  0  0  0  0  0  0  0  0
   -6.9118    8.1559  -12.7536 C   0  0  0  0  0  0  0  0  0  0  0  0
   -6.0332    8.0967  -11.6342 O   0  0  0  0  0  0  0  0  0  0  0  0
   -5.3156    7.4709  -11.8192 H   0  0  0  0  0  0  0  0  0  0  0  0
  2  1  1  0  0  0
  2 30  1  0  0  0
 30 31  1  0  0  0
 31 32  1  0  0  0
 32 33  1  0  0  0
 33 34  1  0  0  0
  2  3  1  0  0  0
  3  4  2  0  0  0
  3  5  1  0  0  0
  5  6  2  0  0  0
  6  7  1  0  0  0
  7  8  2  0  0  0
  8 16  1  0  0  0
 16 17  2  0  0  0
 16 18  1  0  0  0
 18 20  1  0  0  0
 20 21  2  0  0  0
 21 22  1  0  0  0
 22 23  2  0  0  0
 23 24  1  0  0  0
 24 25  2  0  0  0
 24 26  1  0  0  0
 26 27  1  0  0  0
 27 28  1  0  0  0
  8  9  1  0  0  0
  9 10  2  0  0  0
 10 11  1  0  0  0
 10 12  1  0  0  0
 12 13  2  0  0  0
 13 14  1  0  0  0
 14 15  2  0  0  0
  7  2  1  0  0  0
 25 20  1  0  0  0
 14  5  1  0  0  0
 12  6  1  0  0  0
 28 23  1  0  0  0
 34 35  1  0  0  0
 18 19  1  0  0  0
 27 29  1  0  0  0
M  END
> <minimizedAffinity>
-8.67522

> <minimizedRMSD>
1.57390

$$$$
P27176


 28 32  0  0  0  0  0  0  0  0999 V2000
   -6.1868    5.4912  -13.7551 O   0  0  0  0  0  0  0  0  0  0  0  0
   -7.0613    4.7549  -14.0023 C   0  0  0  0  0  0  0  0  0  0  0  0
   -8.0547    4.0188  -13.0605 N   0  0  0  0  0  0  0  0  0  0  0  0
   -8.6588    3.3859  -13.5120 H   0  0  0  0  0  0  0  0  0  0  0  0
   -7.3635    4.5040  -15.4303 C   0  0  0  0  0  0  0  0  0  0  0  0
   -8.7169    4.2337  -15.8506 C   0  0  0  0  0  0  0  0  0  0  0  0
   -9.0747    4.0830  -17.2088 C   0  0  0  0  0  0  0  0  0  0  0  0
  -10.3395    3.8763  -17.5798 F   0  0  0  0  0  0  0  0  0  0  0  0
   -8.0908    4.1606  -18.1444 C   0  0  0  0  0  0  0  0  0  0  0  0
   -7.9010    4.0364  -19.5246 N   0  0  0  0  0  0  0  0  0  0  0  0
   -6.5272    4.2565  -19.8712 C   0  0  0  0  0  0  0  0  0  0  0  0
   -5.9588    4.2190  -20.9477 O   0  0  0  0  0  0  0  0  0  0  0  0
   -5.9245    4.5230  -18.6201 N   0  0  0  0  0  0  0  0  0  0  0  0
   -4.7226    4.8405  -18.0971 N   0  0  0  0  0  0  0  0  0  0  0  0
   -5.0091    4.9080  -16.7586 C   0  0  0  0  0  0  0  0  0  0  0  0
   -6.3809    4.6366  -16.4348 C   0  0  0  0  0  0  0  0  0  0  0  0
   -6.8610    4.4379  -17.6748 C   0  0  0  0  0  0  0  0  0  0  0  0
   -8.6139    3.8263  -20.1703 H   0  0  0  0  0  0  0  0  0  0  0  0
   -8.2301    4.1094  -11.6753 C   0  0  0  0  0  0  0  0  0  0  0  0
   -7.9539    5.2904  -10.9691 C   0  0  0  0  0  0  0  0  0  0  0  0
   -8.1543    5.3636   -9.5827 C   0  0  0  0  0  0  0  0  0  0  0  0
   -8.6146    4.2390   -8.9218 C   0  0  0  0  0  0  0  0  0  0  0  0
   -8.8702    3.0606   -9.6128 C   0  0  0  0  0  0  0  0  0  0  0  0
   -8.6997    2.9829  -10.9875 C   0  0  0  0  0  0  0  0  0  0  0  0
   -9.2659    2.0005   -8.6363 C   0  0  0  0  0  0  0  0  0  0  0  0
   -9.5958    2.7286   -7.3834 N   0  0  0  0  0  0  0  0  0  0  0  0
   -8.8763    4.0182   -7.4687 C   0  0  0  0  0  0  0  0  0  0  0  0
   -9.2809    2.1987   -6.5707 H   0  0  0  0  0  0  0  0  0  0  0  0
  1  2  2  0  0  0
  2  3  1  0  0  0
  3 19  1  0  0  0
 19 20  2  0  0  0
 20 21  1  0  0  0
 21 22  2  0  0  0
 22 23  1  0  0  0
 23 24  2  0  0  0
 23 25  1  0  0  0
 25 26  1  0  0  0
 26 27  1  0  0  0
  2  5  1  0  0  0
  5  6  2  0  0  0
  6  7  1  0  0  0
  7  8  1  0  0  0
  7  9  2  0  0  0
  9 10  1  0  0  0
 10 11  1  0  0  0
 11 12  2  0  0  0
 11 13  1  0  0  0
 13 14  1  0  0  0
 14 15  2  0  0  0
 15 16  1  0  0  0
 16 17  2  0  0  0
 24 19  1  0  0  0
 16  5  1  0  0  0
 27 22  1  0  0  0
 17  9  1  0  0  0
 17 13  1  0  0  0
  3  4  1  0  0  0
 26 28  1  0  0  0
 10 18  1  0  0  0
M  END
> <minimizedAffinity>
-9.09123

> <minimizedRMSD>
0.34616

$$$$
P27177


 38 41  0  0  0  0  0  0  0  0999 V2000
   -7.0643    3.9158  -13.8341 C   0  0  0  0  0  0  0  0  0  0  0  0
   -7.8380    2.7359  -13.7180 O   0  0  0  0  0  0  0  0  0  0  0  0
   -8.7613    2.9314  -13.9419 H   0  0  0  0  0  0  0  0  0  0  0  0
   -6.1976    4.7972  -16.1159 C   0  0  0  0  0  0  0  0  0  0  0  0
   -7.2008    4.3456  -15.3218 C   0  0  0  0  0  0  0  0  0  0  0  0
   -8.5542    4.2248  -15.9106 C   0  0  0  0  0  0  0  0  0  0  0  0
   -8.8136    4.2495  -17.2233 C   0  0  0  0  0  0  0  0  0  0  0  0
  -10.3690    4.3870  -17.8849 Cl  0  0  0  0  0  0  0  0  0  0  0  0
   -7.6906    4.2922  -18.1400 C   0  0  0  0  0  0  0  0  0  0  0  0
   -6.3710    4.6398  -17.5865 C   0  0  0  0  0  0  0  0  0  0  0  0
   -5.5187    4.7197  -18.5500 N   0  0  0  0  0  0  0  0  0  0  0  0
   -6.2624    4.3576  -19.6691 C   0  0  0  0  0  0  0  0  0  0  0  0
   -5.7781    4.2506  -20.7873 O   0  0  0  0  0  0  0  0  0  0  0  0
   -7.5923    4.1012  -19.4038 N   0  0  0  0  0  0  0  0  0  0  0  0
   -4.9841    5.2580  -15.6514 O   0  0  0  0  0  0  0  0  0  0  0  0
   -3.3098    6.9657  -15.9610 C   0  0  0  0  0  0  0  0  0  0  0  0
   -4.8011    6.6574  -15.9609 C   0  0  0  0  0  0  0  0  0  0  0  0
   -5.5646    7.4993  -14.9436 C   0  0  0  0  0  0  0  0  0  0  0  0
   -5.5545    3.5233  -13.4517 C   0  0  0  0  0  0  0  0  0  0  0  0
   -5.1488    2.4467  -13.6676 O   0  0  0  0  0  0  0  0  0  0  0  0
   -4.8348    4.7721  -12.8793 N   0  0  0  0  0  0  0  0  0  0  0  0
   -5.3807    5.5913  -12.8633 H   0  0  0  0  0  0  0  0  0  0  0  0
   -3.4902    4.9291  -12.3644 C   0  0  0  0  0  0  0  0  0  0  0  0
   -2.4090    4.4997  -13.3570 C   0  0  0  0  0  0  0  0  0  0  0  0
   -2.0933    3.1926  -13.1757 F   0  0  0  0  0  0  0  0  0  0  0  0
   -1.2628    5.1877  -13.1065 F   0  0  0  0  0  0  0  0  0  0  0  0
   -7.6909    4.9432  -12.9687 N   0  0  0  0  0  0  0  0  0  0  0  0
   -7.9812    5.8010  -13.3547 H   0  0  0  0  0  0  0  0  0  0  0  0
   -7.8731    4.6902  -11.5804 C   0  0  0  0  0  0  0  0  0  0  0  0
   -7.6378    5.7674  -10.6986 C   0  0  0  0  0  0  0  0  0  0  0  0
   -7.8502    5.6526   -9.3202 C   0  0  0  0  0  0  0  0  0  0  0  0
   -8.3474    4.4601   -8.8320 C   0  0  0  0  0  0  0  0  0  0  0  0
   -8.6354    3.4085   -9.6880 C   0  0  0  0  0  0  0  0  0  0  0  0
   -8.4030    3.5025  -11.0561 C   0  0  0  0  0  0  0  0  0  0  0  0
   -9.2029    2.2701   -8.9070 C   0  0  0  0  0  0  0  0  0  0  0  0
   -9.2995    2.7359   -7.4961 N   0  0  0  0  0  0  0  0  0  0  0  0
   -8.6726    4.0707   -7.4317 C   0  0  0  0  0  0  0  0  0  0  0  0
   -8.8073    2.0888   -6.8802 H   0  0  0  0  0  0  0  0  0  0  0  0
 16 17  1  0  0  0
 17 18  1  0  0  0
 17 15  1  0  0  0
 15  4  1  0  0  0
  4  5  2  0  0  0
  5  1  1  0  0  0
  1  2  1  0  0  0
  1 27  1  0  0  0
 27 29  1  0  0  0
 29 30  2  0  0  0
 30 31  1  0  0  0
 31 32  2  0  0  0
 32 33  1  0  0  0
 33 34  2  0  0  0
 33 35  1  0  0  0
 35 36  1  0  0  0
 36 37  1  0  0  0
  1 19  1  0  0  0
 19 20  2  0  0  0
 19 21  1  0  0  0
 21 23  1  0  0  0
 23 24  1  0  0  0
 24 25  1  0  0  0
 24 26  1  0  0  0
  5  6  1  0  0  0
  6  7  2  0  0  0
  7  8  1  0  0  0
  7  9  1  0  0  0
  9 10  1  0  0  0
 10 11  2  0  0  0
 11 12  1  0  0  0
 12 13  2  0  0  0
 12 14  1  0  0  0
 10  4  1  0  0  0
 34 29  1  0  0  0
 14  9  2  0  0  0
 37 32  1  0  0  0
  2  3  1  0  0  0
 27 28  1  0  0  0
 36 38  1  0  0  0
 21 22  1  0  0  0
M  END
> <minimizedAffinity>
-7.27475

> <minimizedRMSD>
0.68960

$$$$
P27181


 36 39  0  0  0  0  0  0  0  0999 V2000
   -7.1280    4.7425  -13.0929 C   0  0  0  0  0  0  0  0  0  0  0  0
   -6.0951    3.8736  -12.6586 O   0  0  0  0  0  0  0  0  0  0  0  0
   -6.2978    2.9665  -12.9359 H   0  0  0  0  0  0  0  0  0  0  0  0
   -5.9423    4.9132  -15.3273 C   0  0  0  0  0  0  0  0  0  0  0  0
   -7.1062    4.7312  -14.6438 C   0  0  0  0  0  0  0  0  0  0  0  0
   -8.3796    4.5714  -15.3858 C   0  0  0  0  0  0  0  0  0  0  0  0
   -8.4908    4.5231  -16.7224 C   0  0  0  0  0  0  0  0  0  0  0  0
   -9.9551    4.3670  -17.5875 Cl  0  0  0  0  0  0  0  0  0  0  0  0
   -7.2837    4.6966  -17.5104 C   0  0  0  0  0  0  0  0  0  0  0  0
   -6.0144    4.9101  -16.7950 C   0  0  0  0  0  0  0  0  0  0  0  0
   -5.0705    5.0923  -17.6446 N   0  0  0  0  0  0  0  0  0  0  0  0
   -5.7227    5.0160  -18.8609 C   0  0  0  0  0  0  0  0  0  0  0  0
   -5.1278    5.2292  -19.8963 O   0  0  0  0  0  0  0  0  0  0  0  0
   -7.0727    4.7369  -18.7748 N   0  0  0  0  0  0  0  0  0  0  0  0
   -4.0730    6.5659  -14.8777 C   0  0  0  0  0  0  0  0  0  0  0  0
   -4.5354    5.1134  -14.8035 C   0  0  0  0  0  0  0  0  0  0  0  0
   -6.9007    6.2952  -12.6866 C   0  0  0  0  0  0  0  0  0  0  0  0
   -7.5454    7.1760  -13.1123 O   0  0  0  0  0  0  0  0  0  0  0  0
   -5.6618    6.3164  -11.7367 N   0  0  0  0  0  0  0  0  0  0  0  0
   -5.2445    5.4380  -11.5834 H   0  0  0  0  0  0  0  0  0  0  0  0
   -5.0274    7.4177  -11.0453 C   0  0  0  0  0  0  0  0  0  0  0  0
   -5.9441    8.1975  -10.1088 C   0  0  0  0  0  0  0  0  0  0  0  0
   -5.9619    7.6050   -8.8866 F   0  0  0  0  0  0  0  0  0  0  0  0
   -5.4308    9.4419   -9.9186 F   0  0  0  0  0  0  0  0  0  0  0  0
   -8.3842    4.2183  -12.5331 N   0  0  0  0  0  0  0  0  0  0  0  0
   -9.1151    3.9163  -13.1194 H   0  0  0  0  0  0  0  0  0  0  0  0
   -8.5069    4.1626  -11.1250 C   0  0  0  0  0  0  0  0  0  0  0  0
   -8.2960    5.2926  -10.3126 C   0  0  0  0  0  0  0  0  0  0  0  0
   -8.2841    5.2066   -8.9156 C   0  0  0  0  0  0  0  0  0  0  0  0
   -8.5417    3.9827   -8.3332 C   0  0  0  0  0  0  0  0  0  0  0  0
   -8.8042    2.8655   -9.1127 C   0  0  0  0  0  0  0  0  0  0  0  0
   -8.7807    2.9359  -10.4989 C   0  0  0  0  0  0  0  0  0  0  0  0
   -9.0634    1.6945   -8.2219 C   0  0  0  0  0  0  0  0  0  0  0  0
   -9.1825    2.2543   -6.8536 N   0  0  0  0  0  0  0  0  0  0  0  0
   -8.6036    3.6110   -6.8910 C   0  0  0  0  0  0  0  0  0  0  0  0
   -8.6694    1.6726   -6.1913 H   0  0  0  0  0  0  0  0  0  0  0  0
 15 16  1  0  0  0
 16  4  1  0  0  0
  4  5  2  0  0  0
  5  1  1  0  0  0
  1  2  1  0  0  0
  1 25  1  0  0  0
 25 27  1  0  0  0
 27 28  2  0  0  0
 28 29  1  0  0  0
 29 30  2  0  0  0
 30 31  1  0  0  0
 31 32  2  0  0  0
 31 33  1  0  0  0
 33 34  1  0  0  0
 34 35  1  0  0  0
  1 17  1  0  0  0
 17 18  2  0  0  0
 17 19  1  0  0  0
 19 21  1  0  0  0
 21 22  1  0  0  0
 22 23  1  0  0  0
 22 24  1  0  0  0
  5  6  1  0  0  0
  6  7  2  0  0  0
  7  8  1  0  0  0
  7  9  1  0  0  0
  9 10  1  0  0  0
 10 11  2  0  0  0
 11 12  1  0  0  0
 12 13  2  0  0  0
 12 14  1  0  0  0
 10  4  1  0  0  0
 32 27  1  0  0  0
 14  9  2  0  0  0
 35 30  1  0  0  0
  2  3  1  0  0  0
 25 26  1  0  0  0
 34 36  1  0  0  0
 19 20  1  0  0  0
M  END
> <minimizedAffinity>
-6.87848

> <minimizedRMSD>
0.43223

$$$$
P27182


 32 37  0  0  0  0  0  0  0  0999 V2000
   -6.0940    4.1131  -20.9322 O   0  0  0  0  0  0  0  0  0  0  0  0
   -6.6162    4.2119  -19.8330 C   0  0  0  0  0  0  0  0  0  0  0  0
   -7.9769    4.0262  -19.5318 N   0  0  0  0  0  0  0  0  0  0  0  0
   -8.0877    4.1707  -18.2557 C   0  0  0  0  0  0  0  0  0  0  0  0
   -9.1259    4.2013  -17.2128 C   0  0  0  0  0  0  0  0  0  0  0  0
  -10.3950    4.1066  -17.6348 F   0  0  0  0  0  0  0  0  0  0  0  0
   -8.7832    4.3752  -15.9112 C   0  0  0  0  0  0  0  0  0  0  0  0
   -7.3791    4.6189  -15.4409 C   0  0  0  0  0  0  0  0  0  0  0  0
   -6.4086    4.6962  -16.3746 C   0  0  0  0  0  0  0  0  0  0  0  0
   -6.8260    4.3820  -17.6738 C   0  0  0  0  0  0  0  0  0  0  0  0
   -5.9049    4.5102  -18.5895 C   0  0  0  0  0  0  0  0  0  0  0  0
   -4.7371    4.9911  -17.9130 C   0  0  0  0  0  0  0  0  0  0  0  0
   -4.9971    5.0635  -16.5686 C   0  0  0  0  0  0  0  0  0  0  0  0
   -3.5569    5.4925  -18.6341 C   0  0  0  0  0  0  0  0  0  0  0  0
   -3.8405    6.6145  -19.6666 C   0  0  0  0  0  0  0  0  0  0  0  0
   -3.3937    7.6066  -18.6654 N   0  0  0  0  0  0  0  0  0  0  0  0
   -2.6410    6.5420  -17.9690 C   0  0  0  0  0  0  0  0  0  0  0  0
   -4.1489    8.0144  -18.1142 H   0  0  0  0  0  0  0  0  0  0  0  0
   -7.0843    4.9668  -14.0058 C   0  0  0  0  0  0  0  0  0  0  0  0
   -6.1915    5.6714  -13.7291 O   0  0  0  0  0  0  0  0  0  0  0  0
   -8.0988    4.2140  -13.0907 N   0  0  0  0  0  0  0  0  0  0  0  0
   -8.7184    3.6152  -13.5671 H   0  0  0  0  0  0  0  0  0  0  0  0
   -8.2712    4.2517  -11.7014 C   0  0  0  0  0  0  0  0  0  0  0  0
   -8.0342    5.4226  -10.9651 C   0  0  0  0  0  0  0  0  0  0  0  0
   -8.1833    5.4406   -9.5711 C   0  0  0  0  0  0  0  0  0  0  0  0
   -8.5636    4.2751   -8.9297 C   0  0  0  0  0  0  0  0  0  0  0  0
   -8.8112    3.1163   -9.6500 C   0  0  0  0  0  0  0  0  0  0  0  0
   -8.6761    3.0870  -11.0340 C   0  0  0  0  0  0  0  0  0  0  0  0
   -9.2011    2.0228   -8.7121 C   0  0  0  0  0  0  0  0  0  0  0  0
   -9.1545    2.6006   -7.3421 N   0  0  0  0  0  0  0  0  0  0  0  0
   -8.7728    4.0211   -7.4767 C   0  0  0  0  0  0  0  0  0  0  0  0
   -8.4638    2.1055   -6.7779 H   0  0  0  0  0  0  0  0  0  0  0  0
  1  2  2  0  0  0
  2  3  1  0  0  0
  3  4  2  0  0  0
  4  5  1  0  0  0
  5  6  1  0  0  0
  5  7  2  0  0  0
  7  8  1  0  0  0
  8 19  1  0  0  0
 19 20  2  0  0  0
 19 21  1  0  0  0
 21 23  1  0  0  0
 23 24  2  0  0  0
 24 25  1  0  0  0
 25 26  2  0  0  0
 26 27  1  0  0  0
 27 28  2  0  0  0
 27 29  1  0  0  0
 29 30  1  0  0  0
 30 31  1  0  0  0
  8  9  2  0  0  0
  9 10  1  0  0  0
 10 11  2  0  0  0
 11 12  1  0  0  0
 12 14  1  0  0  0
 14 15  1  0  0  0
 15 16  1  0  0  0
 16 17  1  0  0  0
 12 13  2  0  0  0
 11  2  1  0  0  0
 17 14  1  0  0  0
 10  4  1  0  0  0
 28 23  1  0  0  0
 13  9  1  0  0  0
 31 26  1  0  0  0
 21 22  1  0  0  0
 30 32  1  0  0  0
 16 18  1  0  0  0
M  END
> <minimizedAffinity>
-9.21771

> <minimizedRMSD>
0.65898

$$$$
P27183


 36 39  0  0  0  0  0  0  0  0999 V2000
   -7.1265    4.9478  -13.6931 C   0  0  0  0  0  0  0  0  0  0  0  0
   -7.2524    6.3554  -13.6587 O   0  0  0  0  0  0  0  0  0  0  0  0
   -8.0526    6.6203  -14.1386 H   0  0  0  0  0  0  0  0  0  0  0  0
   -6.0828    4.7871  -16.0750 C   0  0  0  0  0  0  0  0  0  0  0  0
   -7.1445    4.6489  -15.2257 C   0  0  0  0  0  0  0  0  0  0  0  0
   -8.4910    4.4043  -15.7939 C   0  0  0  0  0  0  0  0  0  0  0  0
   -8.7609    4.2338  -17.0932 C   0  0  0  0  0  0  0  0  0  0  0  0
  -10.3316    4.1319  -17.7309 Cl  0  0  0  0  0  0  0  0  0  0  0  0
   -7.6640    4.2645  -18.0400 C   0  0  0  0  0  0  0  0  0  0  0  0
   -6.3199    4.5927  -17.5327 C   0  0  0  0  0  0  0  0  0  0  0  0
   -5.5087    4.6711  -18.5310 N   0  0  0  0  0  0  0  0  0  0  0  0
   -6.3019    4.3471  -19.6260 C   0  0  0  0  0  0  0  0  0  0  0  0
   -5.8721    4.2823  -20.7698 O   0  0  0  0  0  0  0  0  0  0  0  0
   -7.6174    4.0827  -19.3089 N   0  0  0  0  0  0  0  0  0  0  0  0
   -4.4791    6.6955  -15.7418 C   0  0  0  0  0  0  0  0  0  0  0  0
   -4.6532    5.1837  -15.7816 C   0  0  0  0  0  0  0  0  0  0  0  0
   -5.8294    4.3360  -12.9300 C   0  0  0  0  0  0  0  0  0  0  0  0
   -4.9833    5.0148  -12.4839 O   0  0  0  0  0  0  0  0  0  0  0  0
   -5.9523    2.7761  -12.9884 N   0  0  0  0  0  0  0  0  0  0  0  0
   -6.7315    2.4421  -13.4891 H   0  0  0  0  0  0  0  0  0  0  0  0
   -5.1098    1.7501  -12.4280 C   0  0  0  0  0  0  0  0  0  0  0  0
   -5.4420    1.4926  -10.9661 C   0  0  0  0  0  0  0  0  0  0  0  0
   -4.2826    0.8089  -10.2676 C   0  0  0  0  0  0  0  0  0  0  0  0
   -3.2524    1.6913  -10.1548 F   0  0  0  0  0  0  0  0  0  0  0  0
   -8.3472    4.4446  -13.0127 N   0  0  0  0  0  0  0  0  0  0  0  0
   -9.1187    4.1380  -13.5419 H   0  0  0  0  0  0  0  0  0  0  0  0
   -8.3940    4.4088  -11.5952 C   0  0  0  0  0  0  0  0  0  0  0  0
   -8.1314    5.5363  -10.7829 C   0  0  0  0  0  0  0  0  0  0  0  0
   -8.2305    5.4894   -9.3861 C   0  0  0  0  0  0  0  0  0  0  0  0
   -8.5893    4.2980   -8.7946 C   0  0  0  0  0  0  0  0  0  0  0  0
   -8.8440    3.1752   -9.5655 C   0  0  0  0  0  0  0  0  0  0  0  0
   -8.7771    3.2185  -10.9540 C   0  0  0  0  0  0  0  0  0  0  0  0
   -9.1251    2.0203   -8.6642 C   0  0  0  0  0  0  0  0  0  0  0  0
   -9.2769    2.5886   -7.3001 N   0  0  0  0  0  0  0  0  0  0  0  0
   -8.7511    3.9681   -7.3512 C   0  0  0  0  0  0  0  0  0  0  0  0
   -8.7456    2.0350   -6.6280 H   0  0  0  0  0  0  0  0  0  0  0  0
 15 16  1  0  0  0
 16  4  1  0  0  0
  4  5  2  0  0  0
  5  1  1  0  0  0
  1  2  1  0  0  0
  1 25  1  0  0  0
 25 27  1  0  0  0
 27 28  2  0  0  0
 28 29  1  0  0  0
 29 30  2  0  0  0
 30 31  1  0  0  0
 31 32  2  0  0  0
 31 33  1  0  0  0
 33 34  1  0  0  0
 34 35  1  0  0  0
  1 17  1  0  0  0
 17 18  2  0  0  0
 17 19  1  0  0  0
 19 21  1  0  0  0
 21 22  1  0  0  0
 22 23  1  0  0  0
 23 24  1  0  0  0
  5  6  1  0  0  0
  6  7  2  0  0  0
  7  8  1  0  0  0
  7  9  1  0  0  0
  9 10  1  0  0  0
 10 11  2  0  0  0
 11 12  1  0  0  0
 12 13  2  0  0  0
 12 14  1  0  0  0
 10  4  1  0  0  0
 32 27  1  0  0  0
 14  9  2  0  0  0
 35 30  1  0  0  0
  2  3  1  0  0  0
 25 26  1  0  0  0
 34 36  1  0  0  0
 19 20  1  0  0  0
M  END
> <minimizedAffinity>
-7.50103

> <minimizedRMSD>
0.29250

$$$$
P27184


 36 39  0  0  0  0  0  0  0  0999 V2000
   -7.2460    3.7392  -13.4619 C   0  0  0  0  0  0  0  0  0  0  0  0
   -7.4695    2.3457  -13.4163 O   0  0  0  0  0  0  0  0  0  0  0  0
   -8.3343    2.1440  -13.8066 H   0  0  0  0  0  0  0  0  0  0  0  0
   -5.1675    4.8491  -17.9957 C   0  0  0  0  0  0  0  0  0  0  0  0
   -6.0938    4.5794  -17.0729 C   0  0  0  0  0  0  0  0  0  0  0  0
   -6.0800    4.4255  -15.6456 C   0  0  0  0  0  0  0  0  0  0  0  0
   -7.2219    4.1454  -14.9664 C   0  0  0  0  0  0  0  0  0  0  0  0
   -8.4879    4.2025  -15.7212 C   0  0  0  0  0  0  0  0  0  0  0  0
   -8.5598    4.3260  -17.0561 C   0  0  0  0  0  0  0  0  0  0  0  0
  -10.0364    4.5651  -17.8732 Cl  0  0  0  0  0  0  0  0  0  0  0  0
   -7.3217    4.4147  -17.8466 C   0  0  0  0  0  0  0  0  0  0  0  0
   -7.1538    4.4196  -19.1231 N   0  0  0  0  0  0  0  0  0  0  0  0
   -5.8196    4.6539  -19.3195 C   0  0  0  0  0  0  0  0  0  0  0  0
   -5.2338    4.6804  -20.3910 O   0  0  0  0  0  0  0  0  0  0  0  0
   -2.6876    4.3047  -18.2439 C   0  0  0  0  0  0  0  0  0  0  0  0
   -3.7595    5.2961  -17.8316 C   0  0  0  0  0  0  0  0  0  0  0  0
   -5.8277    4.1176  -12.8270 C   0  0  0  0  0  0  0  0  0  0  0  0
   -5.0627    3.2980  -12.4869 O   0  0  0  0  0  0  0  0  0  0  0  0
   -5.6949    5.6677  -12.8627 N   0  0  0  0  0  0  0  0  0  0  0  0
   -6.4596    6.1379  -13.2670 H   0  0  0  0  0  0  0  0  0  0  0  0
   -4.6401    6.5220  -12.4025 C   0  0  0  0  0  0  0  0  0  0  0  0
   -4.7577    6.8536  -10.9182 C   0  0  0  0  0  0  0  0  0  0  0  0
   -4.1211    5.8243  -10.0024 C   0  0  0  0  0  0  0  0  0  0  0  0
   -5.0094    4.8564   -9.6846 F   0  0  0  0  0  0  0  0  0  0  0  0
   -8.4007    4.3959  -12.7992 N   0  0  0  0  0  0  0  0  0  0  0  0
   -9.0916    4.8687  -13.3173 H   0  0  0  0  0  0  0  0  0  0  0  0
   -8.4623    4.3101  -11.3804 C   0  0  0  0  0  0  0  0  0  0  0  0
   -8.2106    5.4564  -10.6035 C   0  0  0  0  0  0  0  0  0  0  0  0
   -8.2410    5.4173   -9.2033 C   0  0  0  0  0  0  0  0  0  0  0  0
   -8.5736    4.2253   -8.5911 C   0  0  0  0  0  0  0  0  0  0  0  0
   -8.8688    3.0986   -9.3441 C   0  0  0  0  0  0  0  0  0  0  0  0
   -8.7942    3.1143  -10.7290 C   0  0  0  0  0  0  0  0  0  0  0  0
   -9.2447    1.9776   -8.4364 C   0  0  0  0  0  0  0  0  0  0  0  0
   -9.3115    2.5610   -7.0689 N   0  0  0  0  0  0  0  0  0  0  0  0
   -8.6913    3.8987   -7.1432 C   0  0  0  0  0  0  0  0  0  0  0  0
   -8.7995    1.9729   -6.4113 H   0  0  0  0  0  0  0  0  0  0  0  0
 15 16  1  0  0  0
 16  4  1  0  0  0
  4  5  2  0  0  0
  5  6  1  0  0  0
  6  7  2  0  0  0
  7  1  1  0  0  0
  1  2  1  0  0  0
  1 25  1  0  0  0
 25 27  1  0  0  0
 27 28  2  0  0  0
 28 29  1  0  0  0
 29 30  2  0  0  0
 30 31  1  0  0  0
 31 32  2  0  0  0
 31 33  1  0  0  0
 33 34  1  0  0  0
 34 35  1  0  0  0
  1 17  1  0  0  0
 17 18  2  0  0  0
 17 19  1  0  0  0
 19 21  1  0  0  0
 21 22  1  0  0  0
 22 23  1  0  0  0
 23 24  1  0  0  0
  7  8  1  0  0  0
  8  9  2  0  0  0
  9 10  1  0  0  0
  9 11  1  0  0  0
 11 12  2  0  0  0
 12 13  1  0  0  0
 13 14  2  0  0  0
 13  4  1  0  0  0
 11  5  1  0  0  0
 32 27  1  0  0  0
 35 30  1  0  0  0
  2  3  1  0  0  0
 25 26  1  0  0  0
 34 36  1  0  0  0
 19 20  1  0  0  0
M  END
> <minimizedAffinity>
-8.05833

> <minimizedRMSD>
0.54316

$$$$
P27187


 29 33  0  0  0  0  0  0  0  0999 V2000
   -7.3453    4.4754  -15.3688 C   0  0  0  0  0  0  0  0  0  0  0  0
   -8.6954    4.2162  -15.7919 C   0  0  0  0  0  0  0  0  0  0  0  0
   -9.0553    4.0875  -17.1589 C   0  0  0  0  0  0  0  0  0  0  0  0
  -10.3241    3.8852  -17.5271 F   0  0  0  0  0  0  0  0  0  0  0  0
   -8.0673    4.1925  -18.0829 C   0  0  0  0  0  0  0  0  0  0  0  0
   -7.9178    4.0421  -19.4612 N   0  0  0  0  0  0  0  0  0  0  0  0
   -6.5200    4.2556  -19.8091 C   0  0  0  0  0  0  0  0  0  0  0  0
   -6.0399    4.1179  -20.9231 O   0  0  0  0  0  0  0  0  0  0  0  0
   -5.9056    4.6032  -18.5768 N   0  0  0  0  0  0  0  0  0  0  0  0
   -6.8336    4.4864  -17.6011 C   0  0  0  0  0  0  0  0  0  0  0  0
   -6.3733    4.6254  -16.3354 C   0  0  0  0  0  0  0  0  0  0  0  0
   -4.9043    4.8943  -16.5063 C   0  0  0  0  0  0  0  0  0  0  0  0
   -4.6299    4.7847  -18.0293 N   0  0  0  0  0  0  0  0  0  0  0  0
   -8.6394    3.8269  -20.0954 H   0  0  0  0  0  0  0  0  0  0  0  0
   -4.0276    3.9877  -18.2352 H   0  0  0  0  0  0  0  0  0  0  0  0
   -6.0926    5.3418  -13.6764 O   0  0  0  0  0  0  0  0  0  0  0  0
   -7.0492    4.7183  -13.9301 C   0  0  0  0  0  0  0  0  0  0  0  0
   -8.1627    4.1601  -13.0013 N   0  0  0  0  0  0  0  0  0  0  0  0
   -8.9121    3.7269  -13.4704 H   0  0  0  0  0  0  0  0  0  0  0  0
   -8.2735    4.1731  -11.6075 C   0  0  0  0  0  0  0  0  0  0  0  0
   -7.9802    5.3274  -10.8640 C   0  0  0  0  0  0  0  0  0  0  0  0
   -8.1633    5.3540   -9.4743 C   0  0  0  0  0  0  0  0  0  0  0  0
   -8.6231    4.2094   -8.8488 C   0  0  0  0  0  0  0  0  0  0  0  0
   -8.8829    3.0534   -9.5760 C   0  0  0  0  0  0  0  0  0  0  0  0
   -8.7305    3.0219  -10.9545 C   0  0  0  0  0  0  0  0  0  0  0  0
   -9.2766    1.9648   -8.6308 C   0  0  0  0  0  0  0  0  0  0  0  0
   -9.6179    2.6583   -7.3612 N   0  0  0  0  0  0  0  0  0  0  0  0
   -8.8946    3.9482   -7.4045 C   0  0  0  0  0  0  0  0  0  0  0  0
   -9.3122    2.1055   -6.5603 H   0  0  0  0  0  0  0  0  0  0  0  0
 16 17  2  0  0  0
 17 18  1  0  0  0
 18 20  1  0  0  0
 20 21  2  0  0  0
 21 22  1  0  0  0
 22 23  2  0  0  0
 23 24  1  0  0  0
 24 25  2  0  0  0
 24 26  1  0  0  0
 26 27  1  0  0  0
 27 28  1  0  0  0
 17  1  1  0  0  0
  1  2  2  0  0  0
  2  3  1  0  0  0
  3  4  1  0  0  0
  3  5  2  0  0  0
  5  6  1  0  0  0
  6  7  1  0  0  0
  7  8  2  0  0  0
  7  9  1  0  0  0
  9 10  1  0  0  0
 10 11  2  0  0  0
 11 12  1  0  0  0
 12 13  1  0  0  0
 25 20  1  0  0  0
 11  1  1  0  0  0
 28 23  1  0  0  0
 10  5  1  0  0  0
 13  9  1  0  0  0
 18 19  1  0  0  0
 27 29  1  0  0  0
  6 14  1  0  0  0
 13 15  1  0  0  0
M  END
> <minimizedAffinity>
-9.14111

> <minimizedRMSD>
0.37129

$$$$
P27188


 29 33  0  0  0  0  0  0  0  0999 V2000
   -7.3412    4.6652  -15.3797 C   0  0  0  0  0  0  0  0  0  0  0  0
   -8.6783    4.4683  -15.8551 C   0  0  0  0  0  0  0  0  0  0  0  0
   -8.9684    4.3031  -17.2360 C   0  0  0  0  0  0  0  0  0  0  0  0
  -10.5581    4.3311  -17.8206 Cl  0  0  0  0  0  0  0  0  0  0  0  0
   -7.9279    4.2467  -18.1069 C   0  0  0  0  0  0  0  0  0  0  0  0
   -7.7326    4.1157  -19.4835 N   0  0  0  0  0  0  0  0  0  0  0  0
   -6.3223    4.3136  -19.7794 C   0  0  0  0  0  0  0  0  0  0  0  0
   -5.8243    4.2976  -20.8932 O   0  0  0  0  0  0  0  0  0  0  0  0
   -5.7258    4.4945  -18.5019 N   0  0  0  0  0  0  0  0  0  0  0  0
   -6.7038    4.4551  -17.5713 C   0  0  0  0  0  0  0  0  0  0  0  0
   -6.3204    4.7207  -16.3020 C   0  0  0  0  0  0  0  0  0  0  0  0
   -4.8584    5.0240  -16.4147 C   0  0  0  0  0  0  0  0  0  0  0  0
   -4.5232    4.9210  -17.9295 N   0  0  0  0  0  0  0  0  0  0  0  0
   -8.4348    3.9212  -20.1455 H   0  0  0  0  0  0  0  0  0  0  0  0
   -3.7804    4.2414  -18.0931 H   0  0  0  0  0  0  0  0  0  0  0  0
   -6.2459    5.6955  -13.6681 O   0  0  0  0  0  0  0  0  0  0  0  0
   -7.0945    4.9389  -13.9420 C   0  0  0  0  0  0  0  0  0  0  0  0
   -8.0659    4.1417  -13.0284 N   0  0  0  0  0  0  0  0  0  0  0  0
   -8.6471    3.5037  -13.5020 H   0  0  0  0  0  0  0  0  0  0  0  0
   -8.2488    4.1832  -11.6441 C   0  0  0  0  0  0  0  0  0  0  0  0
   -8.0034    5.3558  -10.9135 C   0  0  0  0  0  0  0  0  0  0  0  0
   -8.1890    5.3910   -9.5262 C   0  0  0  0  0  0  0  0  0  0  0  0
   -8.5945    4.2345   -8.8867 C   0  0  0  0  0  0  0  0  0  0  0  0
   -8.8390    3.0703   -9.6029 C   0  0  0  0  0  0  0  0  0  0  0  0
   -8.6908    3.0300  -10.9832 C   0  0  0  0  0  0  0  0  0  0  0  0
   -9.2716    1.9973   -8.6611 C   0  0  0  0  0  0  0  0  0  0  0  0
   -9.0737    2.5414   -7.2908 N   0  0  0  0  0  0  0  0  0  0  0  0
   -8.8565    3.9957   -7.4396 C   0  0  0  0  0  0  0  0  0  0  0  0
   -8.2606    2.1073   -6.8541 H   0  0  0  0  0  0  0  0  0  0  0  0
 16 17  2  0  0  0
 17 18  1  0  0  0
 18 20  1  0  0  0
 20 21  2  0  0  0
 21 22  1  0  0  0
 22 23  2  0  0  0
 23 24  1  0  0  0
 24 25  2  0  0  0
 24 26  1  0  0  0
 26 27  1  0  0  0
 27 28  1  0  0  0
 17  1  1  0  0  0
  1  2  2  0  0  0
  2  3  1  0  0  0
  3  4  1  0  0  0
  3  5  2  0  0  0
  5  6  1  0  0  0
  6  7  1  0  0  0
  7  8  2  0  0  0
  7  9  1  0  0  0
  9 10  1  0  0  0
 10 11  2  0  0  0
 11 12  1  0  0  0
 12 13  1  0  0  0
 25 20  1  0  0  0
 11  1  1  0  0  0
 28 23  1  0  0  0
 10  5  1  0  0  0
 13  9  1  0  0  0
 18 19  1  0  0  0
 27 29  1  0  0  0
  6 14  1  0  0  0
 13 15  1  0  0  0
M  END
> <minimizedAffinity>
-8.89471

> <minimizedRMSD>
0.27286

$$$$
P27189


 31 35  0  0  0  0  0  0  0  0999 V2000
   -6.0034    4.1857  -20.8937 O   0  0  0  0  0  0  0  0  0  0  0  0
   -6.4435    4.2861  -19.7591 C   0  0  0  0  0  0  0  0  0  0  0  0
   -7.7439    4.1334  -19.3658 N   0  0  0  0  0  0  0  0  0  0  0  0
   -7.7470    4.3016  -18.0892 C   0  0  0  0  0  0  0  0  0  0  0  0
   -8.8826    4.3488  -17.1495 C   0  0  0  0  0  0  0  0  0  0  0  0
  -10.4431    4.4525  -17.8158 Cl  0  0  0  0  0  0  0  0  0  0  0  0
   -8.6560    4.4659  -15.8316 C   0  0  0  0  0  0  0  0  0  0  0  0
   -7.3195    4.6151  -15.2775 C   0  0  0  0  0  0  0  0  0  0  0  0
   -6.2430    4.6699  -16.0861 C   0  0  0  0  0  0  0  0  0  0  0  0
   -6.4243    4.5156  -17.5005 C   0  0  0  0  0  0  0  0  0  0  0  0
   -5.6187    4.5956  -18.5605 C   0  0  0  0  0  0  0  0  0  0  0  0
   -7.1112    5.0044  -13.8408 C   0  0  0  0  0  0  0  0  0  0  0  0
   -6.3081    5.8052  -13.5568 O   0  0  0  0  0  0  0  0  0  0  0  0
   -8.1267    4.2389  -12.9509 N   0  0  0  0  0  0  0  0  0  0  0  0
   -8.7564    3.6649  -13.4442 H   0  0  0  0  0  0  0  0  0  0  0  0
   -8.2921    4.2319  -11.5652 C   0  0  0  0  0  0  0  0  0  0  0  0
   -8.0451    5.3918  -10.8116 C   0  0  0  0  0  0  0  0  0  0  0  0
   -8.2138    5.3982   -9.4235 C   0  0  0  0  0  0  0  0  0  0  0  0
   -8.6106    4.2270   -8.8078 C   0  0  0  0  0  0  0  0  0  0  0  0
   -8.8542    3.0769   -9.5472 C   0  0  0  0  0  0  0  0  0  0  0  0
   -8.7164    3.0625  -10.9286 C   0  0  0  0  0  0  0  0  0  0  0  0
   -9.2678    1.9791   -8.6277 C   0  0  0  0  0  0  0  0  0  0  0  0
   -9.1244    2.5104   -7.2459 N   0  0  0  0  0  0  0  0  0  0  0  0
   -8.8672    3.9602   -7.3655 C   0  0  0  0  0  0  0  0  0  0  0  0
   -8.3437    2.0538   -6.7742 H   0  0  0  0  0  0  0  0  0  0  0  0
   -4.1730    4.9141  -18.6450 C   0  0  0  0  0  0  0  0  0  0  0  0
   -3.9904    6.4033  -18.8847 C   0  0  0  0  0  0  0  0  0  0  0  0
   -2.5888    6.9831  -18.5906 C   0  0  0  0  0  0  0  0  0  0  0  0
   -2.7839    7.8808  -19.7540 N   0  0  0  0  0  0  0  0  0  0  0  0
   -3.7042    6.8747  -20.3335 C   0  0  0  0  0  0  0  0  0  0  0  0
   -1.9410    8.0466  -20.3039 H   0  0  0  0  0  0  0  0  0  0  0  0
  1  2  2  0  0  0
  2  3  1  0  0  0
  3  4  2  0  0  0
  4  5  1  0  0  0
  5  6  1  0  0  0
  5  7  2  0  0  0
  7  8  1  0  0  0
  8 12  1  0  0  0
 12 13  2  0  0  0
 12 14  1  0  0  0
 14 16  1  0  0  0
 16 17  2  0  0  0
 17 18  1  0  0  0
 18 19  2  0  0  0
 19 20  1  0  0  0
 20 21  2  0  0  0
 20 22  1  0  0  0
 22 23  1  0  0  0
 23 24  1  0  0  0
  8  9  2  0  0  0
  9 10  1  0  0  0
 10 11  2  0  0  0
 11 26  1  0  0  0
 26 27  1  0  0  0
 27 28  1  0  0  0
 28 29  1  0  0  0
 29 30  1  0  0  0
 11  2  1  0  0  0
 30 27  1  0  0  0
 10  4  1  0  0  0
 21 16  1  0  0  0
 24 19  1  0  0  0
 14 15  1  0  0  0
 23 25  1  0  0  0
 29 31  1  0  0  0
M  END
> <minimizedAffinity>
-8.40737

> <minimizedRMSD>
0.53655

$$$$
P27193


 34 39  0  0  0  0  0  0  0  0999 V2000
   -8.1200    4.3314  -13.0650 N   0  0  0  0  0  0  0  0  0  0  0  0
   -7.0266    4.9848  -13.9589 C   0  0  0  0  0  0  0  0  0  0  0  0
   -6.1439    5.6991  -13.6769 O   0  0  0  0  0  0  0  0  0  0  0  0
   -8.8058    3.8244  -13.5568 H   0  0  0  0  0  0  0  0  0  0  0  0
   -8.6152    8.8841  -10.3960 C   0  0  0  0  0  0  0  0  0  0  0  0
   -7.8066    7.6019  -10.1918 C   0  0  0  0  0  0  0  0  0  0  0  0
   -6.3120    7.9346  -10.1045 C   0  0  0  0  0  0  0  0  0  0  0  0
   -8.2941    6.8302   -8.9490 C   0  0  0  0  0  0  0  0  0  0  0  0
   -8.3684    5.4646   -9.5087 C   0  0  0  0  0  0  0  0  0  0  0  0
   -8.6491    4.2748   -8.8837 C   0  0  0  0  0  0  0  0  0  0  0  0
   -8.7761    3.1224   -9.6467 C   0  0  0  0  0  0  0  0  0  0  0  0
   -8.6159    3.1410  -11.0339 C   0  0  0  0  0  0  0  0  0  0  0  0
   -8.2869    4.3473  -11.6750 C   0  0  0  0  0  0  0  0  0  0  0  0
   -8.1894    5.4947  -10.8889 C   0  0  0  0  0  0  0  0  0  0  0  0
   -8.0071    6.7696  -11.3626 O   0  0  0  0  0  0  0  0  0  0  0  0
   -9.1105    1.9755   -8.7525 C   0  0  0  0  0  0  0  0  0  0  0  0
   -9.1010    2.5068   -7.3622 N   0  0  0  0  0  0  0  0  0  0  0  0
   -8.9045    3.9682   -7.4530 C   0  0  0  0  0  0  0  0  0  0  0  0
   -8.3390    2.0842   -6.8320 H   0  0  0  0  0  0  0  0  0  0  0  0
   -7.2474    4.6835  -15.3937 C   0  0  0  0  0  0  0  0  0  0  0  0
   -8.5817    4.5101  -15.8829 C   0  0  0  0  0  0  0  0  0  0  0  0
   -8.8607    4.3521  -17.2636 C   0  0  0  0  0  0  0  0  0  0  0  0
  -10.4465    4.4471  -17.8596 Cl  0  0  0  0  0  0  0  0  0  0  0  0
   -7.8073    4.2614  -18.1190 C   0  0  0  0  0  0  0  0  0  0  0  0
   -7.6108    4.2077  -19.5001 N   0  0  0  0  0  0  0  0  0  0  0  0
   -6.2024    4.4112  -19.7812 C   0  0  0  0  0  0  0  0  0  0  0  0
   -5.7145    4.5404  -20.8923 O   0  0  0  0  0  0  0  0  0  0  0  0
   -5.5853    4.4386  -18.4945 N   0  0  0  0  0  0  0  0  0  0  0  0
   -6.5770    4.4029  -17.5708 C   0  0  0  0  0  0  0  0  0  0  0  0
   -6.2148    4.7097  -16.3034 C   0  0  0  0  0  0  0  0  0  0  0  0
   -4.7601    5.0459  -16.4029 C   0  0  0  0  0  0  0  0  0  0  0  0
   -4.4234    4.9907  -17.9185 N   0  0  0  0  0  0  0  0  0  0  0  0
   -8.3132    4.0564  -20.1732 H   0  0  0  0  0  0  0  0  0  0  0  0
   -3.6132    4.3954  -18.0905 H   0  0  0  0  0  0  0  0  0  0  0  0
  5  6  1  0  0  0
  6  7  1  0  0  0
  6  8  1  0  0  0
  8  9  1  0  0  0
  9 10  2  0  0  0
 10 11  1  0  0  0
 11 12  2  0  0  0
 12 13  1  0  0  0
 13  1  1  0  0  0
  1  2  1  0  0  0
  2  3  2  0  0  0
  2 20  1  0  0  0
 20 21  2  0  0  0
 21 22  1  0  0  0
 22 23  1  0  0  0
 22 24  2  0  0  0
 24 25  1  0  0  0
 25 26  1  0  0  0
 26 27  2  0  0  0
 26 28  1  0  0  0
 28 29  1  0  0  0
 29 30  2  0  0  0
 30 31  1  0  0  0
 31 32  1  0  0  0
 13 14  2  0  0  0
 14 15  1  0  0  0
 11 16  1  0  0  0
 16 17  1  0  0  0
 17 18  1  0  0  0
 15  6  1  0  0  0
 14  9  1  0  0  0
 18 10  1  0  0  0
 30 20  1  0  0  0
 29 24  1  0  0  0
 32 28  1  0  0  0
  1  4  1  0  0  0
 25 33  1  0  0  0
 32 34  1  0  0  0
 17 19  1  0  0  0
M  END
> <minimizedAffinity>
-9.06098

> <minimizedRMSD>
0.30107

$$$$
P27194


 32 36  0  0  0  0  0  0  0  0999 V2000
   -6.5691    6.3454  -13.8387 O   0  0  0  0  0  0  0  0  0  0  0  0
   -7.1562    5.3624  -14.0699 C   0  0  0  0  0  0  0  0  0  0  0  0
   -7.8941    4.3860  -13.1192 N   0  0  0  0  0  0  0  0  0  0  0  0
   -8.3829    3.6609  -13.5715 H   0  0  0  0  0  0  0  0  0  0  0  0
   -7.3577    4.9610  -15.4784 C   0  0  0  0  0  0  0  0  0  0  0  0
   -8.6968    4.7299  -15.9400 C   0  0  0  0  0  0  0  0  0  0  0  0
   -8.9822    4.4313  -17.2936 C   0  0  0  0  0  0  0  0  0  0  0  0
  -10.5766    4.3931  -17.8701 Cl  0  0  0  0  0  0  0  0  0  0  0  0
   -7.9322    4.2880  -18.1434 C   0  0  0  0  0  0  0  0  0  0  0  0
   -7.7395    4.0719  -19.5082 N   0  0  0  0  0  0  0  0  0  0  0  0
   -6.3343    4.2638  -19.8174 C   0  0  0  0  0  0  0  0  0  0  0  0
   -5.8484    4.2302  -20.9362 O   0  0  0  0  0  0  0  0  0  0  0  0
   -5.7207    4.4680  -18.5481 N   0  0  0  0  0  0  0  0  0  0  0  0
   -6.7033    4.5157  -17.6198 C   0  0  0  0  0  0  0  0  0  0  0  0
   -6.3269    4.9167  -16.3841 C   0  0  0  0  0  0  0  0  0  0  0  0
   -4.8687    5.2209  -16.5185 C   0  0  0  0  0  0  0  0  0  0  0  0
   -4.5465    5.0319  -18.0266 N   0  0  0  0  0  0  0  0  0  0  0  0
   -8.4410    3.8293  -20.1550 H   0  0  0  0  0  0  0  0  0  0  0  0
   -3.7534    4.4031  -18.1533 H   0  0  0  0  0  0  0  0  0  0  0  0
   -7.9782    4.3673  -11.7299 C   0  0  0  0  0  0  0  0  0  0  0  0
   -7.6147    5.4754  -10.9486 C   0  0  0  0  0  0  0  0  0  0  0  0
   -7.8191    5.4729   -9.5632 C   0  0  0  0  0  0  0  0  0  0  0  0
   -8.3796    4.3484   -8.9899 C   0  0  0  0  0  0  0  0  0  0  0  0
   -8.7045    3.2311   -9.7624 C   0  0  0  0  0  0  0  0  0  0  0  0
   -8.5148    3.2234  -11.1303 C   0  0  0  0  0  0  0  0  0  0  0  0
   -9.2884    2.1793   -8.8730 C   0  0  0  0  0  0  0  0  0  0  0  0
   -9.7237    2.9669   -7.7109 N   0  0  0  0  0  0  0  0  0  0  0  0
   -8.7821    4.0835   -7.5715 C   0  0  0  0  0  0  0  0  0  0  0  0
   -9.9969    2.1796   -6.5197 C   0  0  0  0  0  0  0  0  0  0  0  0
  -10.7599    2.9088   -5.4032 C   0  0  0  0  0  0  0  0  0  0  0  0
  -11.8498    2.1921   -5.0319 F   0  0  0  0  0  0  0  0  0  0  0  0
  -11.2432    4.1129   -5.8192 F   0  0  0  0  0  0  0  0  0  0  0  0
  1  2  2  0  0  0
  2  3  1  0  0  0
  3 20  1  0  0  0
 20 21  2  0  0  0
 21 22  1  0  0  0
 22 23  2  0  0  0
 23 24  1  0  0  0
 24 25  2  0  0  0
 24 26  1  0  0  0
 26 27  1  0  0  0
 27 29  1  0  0  0
 29 30  1  0  0  0
 30 31  1  0  0  0
 30 32  1  0  0  0
 27 28  1  0  0  0
  2  5  1  0  0  0
  5  6  2  0  0  0
  6  7  1  0  0  0
  7  8  1  0  0  0
  7  9  2  0  0  0
  9 10  1  0  0  0
 10 11  1  0  0  0
 11 12  2  0  0  0
 11 13  1  0  0  0
 13 14  1  0  0  0
 14 15  2  0  0  0
 15 16  1  0  0  0
 16 17  1  0  0  0
 25 20  1  0  0  0
 15  5  1  0  0  0
 28 23  1  0  0  0
 14  9  1  0  0  0
 17 13  1  0  0  0
  3  4  1  0  0  0
 10 18  1  0  0  0
 17 19  1  0  0  0
M  END
> <minimizedAffinity>
-9.22772

> <minimizedRMSD>
0.22239

$$$$
P27195


 32 36  0  0  0  0  0  0  0  0999 V2000
   -7.3058    4.6987  -15.2957 C   0  0  0  0  0  0  0  0  0  0  0  0
   -8.5349    4.2280  -15.7837 C   0  0  0  0  0  0  0  0  0  0  0  0
   -8.7114    4.0444  -17.1503 C   0  0  0  0  0  0  0  0  0  0  0  0
   -9.8895    3.6360  -17.6311 F   0  0  0  0  0  0  0  0  0  0  0  0
   -7.6551    4.2997  -17.9966 C   0  0  0  0  0  0  0  0  0  0  0  0
   -6.4354    4.7835  -17.5312 C   0  0  0  0  0  0  0  0  0  0  0  0
   -6.2467    4.9908  -16.1731 C   0  0  0  0  0  0  0  0  0  0  0  0
   -5.5218    5.0224  -18.7171 C   0  0  0  0  0  0  0  0  0  0  0  0
   -5.2879    6.5036  -18.9681 C   0  0  0  0  0  0  0  0  0  0  0  0
   -4.0532    6.8113  -18.2201 N   0  0  0  0  0  0  0  0  0  0  0  0
   -3.2163    5.6495  -18.4087 N   0  0  0  0  0  0  0  0  0  0  0  0
   -4.1084    4.4858  -18.5659 C   0  0  0  0  0  0  0  0  0  0  0  0
   -6.3428    4.4078  -19.8769 C   0  0  0  0  0  0  0  0  0  0  0  0
   -5.9963    4.2316  -21.0366 O   0  0  0  0  0  0  0  0  0  0  0  0
   -7.6011    4.1011  -19.3667 N   0  0  0  0  0  0  0  0  0  0  0  0
   -4.2568    6.9520  -17.2306 H   0  0  0  0  0  0  0  0  0  0  0  0
   -2.6125    5.5191  -17.5971 H   0  0  0  0  0  0  0  0  0  0  0  0
   -8.3574    3.7831  -19.9108 H   0  0  0  0  0  0  0  0  0  0  0  0
   -6.3125    5.8019  -13.5696 O   0  0  0  0  0  0  0  0  0  0  0  0
   -7.1282    5.0139  -13.8523 C   0  0  0  0  0  0  0  0  0  0  0  0
   -8.0679    4.1748  -12.9517 N   0  0  0  0  0  0  0  0  0  0  0  0
   -8.6207    3.5172  -13.4326 H   0  0  0  0  0  0  0  0  0  0  0  0
   -8.2586    4.1991  -11.5704 C   0  0  0  0  0  0  0  0  0  0  0  0
   -8.0085    5.3604  -10.8202 C   0  0  0  0  0  0  0  0  0  0  0  0
   -8.2034    5.3769   -9.4340 C   0  0  0  0  0  0  0  0  0  0  0  0
   -8.6432    4.2184   -8.8220 C   0  0  0  0  0  0  0  0  0  0  0  0
   -8.8755    3.0619   -9.5594 C   0  0  0  0  0  0  0  0  0  0  0  0
   -8.6977    3.0349  -10.9332 C   0  0  0  0  0  0  0  0  0  0  0  0
   -9.2693    1.9640   -8.6267 C   0  0  0  0  0  0  0  0  0  0  0  0
   -9.6413    2.6486   -7.3607 N   0  0  0  0  0  0  0  0  0  0  0  0
   -8.9201    3.9402   -7.3822 C   0  0  0  0  0  0  0  0  0  0  0  0
   -9.3519    2.0922   -6.5563 H   0  0  0  0  0  0  0  0  0  0  0  0
 19 20  2  0  0  0
 20 21  1  0  0  0
 21 23  1  0  0  0
 23 24  2  0  0  0
 24 25  1  0  0  0
 25 26  2  0  0  0
 26 27  1  0  0  0
 27 28  2  0  0  0
 27 29  1  0  0  0
 29 30  1  0  0  0
 30 31  1  0  0  0
 20  1  1  0  0  0
  1  2  2  0  0  0
  2  3  1  0  0  0
  3  4  1  0  0  0
  3  5  2  0  0  0
  5  6  1  0  0  0
  6  7  2  0  0  0
  6  8  1  0  0  0
  8  9  1  0  0  0
  9 10  1  0  0  0
 10 11  1  0  0  0
 11 12  1  0  0  0
  8 13  1  0  0  0
 13 14  2  0  0  0
 13 15  1  0  0  0
 28 23  1  0  0  0
  7  1  1  0  0  0
 12  8  1  0  0  0
 31 26  1  0  0  0
 15  5  1  0  0  0
 21 22  1  0  0  0
 30 32  1  0  0  0
 10 16  1  0  0  0
 11 17  1  0  0  0
 15 18  1  0  0  0
M  END
> <minimizedAffinity>
-9.36054

> <minimizedRMSD>
0.31257

$$$$
P27198


 29 32  0  0  0  0  0  0  0  0999 V2000
   -5.6489    4.6309  -18.6557 C   0  0  0  0  0  0  0  0  0  0  0  0
   -6.4081    4.5602  -17.5592 C   0  0  0  0  0  0  0  0  0  0  0  0
   -6.1953    4.7484  -16.1494 C   0  0  0  0  0  0  0  0  0  0  0  0
   -7.2440    4.6670  -15.3061 C   0  0  0  0  0  0  0  0  0  0  0  0
   -8.5931    4.4902  -15.8204 C   0  0  0  0  0  0  0  0  0  0  0  0
   -8.8540    4.3432  -17.1274 C   0  0  0  0  0  0  0  0  0  0  0  0
  -10.4331    4.4364  -17.7485 Cl  0  0  0  0  0  0  0  0  0  0  0  0
   -7.7448    4.2864  -18.0966 C   0  0  0  0  0  0  0  0  0  0  0  0
   -7.7849    4.0702  -19.3655 N   0  0  0  0  0  0  0  0  0  0  0  0
   -6.5045    4.2395  -19.8079 C   0  0  0  0  0  0  0  0  0  0  0  0
   -6.0996    4.0970  -20.9520 O   0  0  0  0  0  0  0  0  0  0  0  0
   -7.0205    5.0328  -13.8630 C   0  0  0  0  0  0  0  0  0  0  0  0
   -6.2251    5.8374  -13.5664 O   0  0  0  0  0  0  0  0  0  0  0  0
   -8.0423    4.2558  -12.9866 N   0  0  0  0  0  0  0  0  0  0  0  0
   -8.6631    3.6804  -13.4894 H   0  0  0  0  0  0  0  0  0  0  0  0
   -8.2228    4.2413  -11.6019 C   0  0  0  0  0  0  0  0  0  0  0  0
   -7.9882    5.3917  -10.8302 C   0  0  0  0  0  0  0  0  0  0  0  0
   -8.2004    5.3863   -9.4463 C   0  0  0  0  0  0  0  0  0  0  0  0
   -8.6406    4.2169   -8.8563 C   0  0  0  0  0  0  0  0  0  0  0  0
   -8.8570    3.0698   -9.6131 C   0  0  0  0  0  0  0  0  0  0  0  0
   -8.6647    3.0652  -10.9867 C   0  0  0  0  0  0  0  0  0  0  0  0
   -9.2546    1.9568   -8.6988 C   0  0  0  0  0  0  0  0  0  0  0  0
   -9.6420    2.6204   -7.4263 N   0  0  0  0  0  0  0  0  0  0  0  0
   -8.9324    3.9179   -7.4235 C   0  0  0  0  0  0  0  0  0  0  0  0
   -9.3539    2.0550   -6.6277 H   0  0  0  0  0  0  0  0  0  0  0  0
   -4.2458    5.0277  -18.9174 C   0  0  0  0  0  0  0  0  0  0  0  0
   -3.0004    5.8939  -20.7879 C   0  0  0  0  0  0  0  0  0  0  0  0
   -4.1156    6.1288  -19.8797 N   0  0  0  0  0  0  0  0  0  0  0  0
   -4.9772    6.2038  -20.4206 H   0  0  0  0  0  0  0  0  0  0  0  0
 27 28  1  0  0  0
 28 26  1  0  0  0
 26  1  1  0  0  0
  1  2  2  0  0  0
  2  3  1  0  0  0
  3  4  2  0  0  0
  4 12  1  0  0  0
 12 13  2  0  0  0
 12 14  1  0  0  0
 14 16  1  0  0  0
 16 17  2  0  0  0
 17 18  1  0  0  0
 18 19  2  0  0  0
 19 20  1  0  0  0
 20 21  2  0  0  0
 20 22  1  0  0  0
 22 23  1  0  0  0
 23 24  1  0  0  0
  4  5  1  0  0  0
  5  6  2  0  0  0
  6  7  1  0  0  0
  6  8  1  0  0  0
  8  9  2  0  0  0
  9 10  1  0  0  0
 10 11  2  0  0  0
 10  1  1  0  0  0
  8  2  1  0  0  0
 21 16  1  0  0  0
 24 19  1  0  0  0
 28 29  1  0  0  0
 14 15  1  0  0  0
 23 25  1  0  0  0
M  END
> <minimizedAffinity>
-7.87592

> <minimizedRMSD>
0.77569

$$$$
P27200


 29 33  0  0  0  0  0  0  0  0999 V2000
   -7.3169    4.5565  -15.3910 C   0  0  0  0  0  0  0  0  0  0  0  0
   -8.6654    4.2762  -15.8037 C   0  0  0  0  0  0  0  0  0  0  0  0
   -9.0242    4.1000  -17.1664 C   0  0  0  0  0  0  0  0  0  0  0  0
  -10.2955    3.8996  -17.5197 F   0  0  0  0  0  0  0  0  0  0  0  0
   -8.0381    4.1697  -18.0953 C   0  0  0  0  0  0  0  0  0  0  0  0
   -7.8722    4.0458  -19.4738 N   0  0  0  0  0  0  0  0  0  0  0  0
   -6.4795    4.2897  -19.7953 C   0  0  0  0  0  0  0  0  0  0  0  0
   -5.9901    4.2512  -20.9129 O   0  0  0  0  0  0  0  0  0  0  0  0
   -5.8648    4.5539  -18.5781 N   0  0  0  0  0  0  0  0  0  0  0  0
   -6.8038    4.4447  -17.6135 C   0  0  0  0  0  0  0  0  0  0  0  0
   -6.3422    4.6601  -16.3595 C   0  0  0  0  0  0  0  0  0  0  0  0
   -4.9439    4.8916  -16.4195 N   0  0  0  0  0  0  0  0  0  0  0  0
   -4.6233    4.9122  -17.9214 C   0  0  0  0  0  0  0  0  0  0  0  0
   -8.5818    3.8291  -20.1209 H   0  0  0  0  0  0  0  0  0  0  0  0
   -4.3197    5.0120  -15.6678 H   0  0  0  0  0  0  0  0  0  0  0  0
   -6.2138    5.6251  -13.7008 O   0  0  0  0  0  0  0  0  0  0  0  0
   -7.0471    4.8455  -13.9598 C   0  0  0  0  0  0  0  0  0  0  0  0
   -8.0119    4.0569  -13.0313 N   0  0  0  0  0  0  0  0  0  0  0  0
   -8.5779    3.3955  -13.4912 H   0  0  0  0  0  0  0  0  0  0  0  0
   -8.2068    4.1339  -11.6499 C   0  0  0  0  0  0  0  0  0  0  0  0
   -7.9594    5.3152  -10.9334 C   0  0  0  0  0  0  0  0  0  0  0  0
   -8.1755    5.3758   -9.5494 C   0  0  0  0  0  0  0  0  0  0  0  0
   -8.6296    4.2403   -8.9031 C   0  0  0  0  0  0  0  0  0  0  0  0
   -8.8629    3.0639   -9.6059 C   0  0  0  0  0  0  0  0  0  0  0  0
   -8.6692    2.9960  -10.9774 C   0  0  0  0  0  0  0  0  0  0  0  0
   -9.2690    1.9946   -8.6443 C   0  0  0  0  0  0  0  0  0  0  0  0
   -9.6279    2.7134   -7.3931 N   0  0  0  0  0  0  0  0  0  0  0  0
   -8.9097    4.0052   -7.4561 C   0  0  0  0  0  0  0  0  0  0  0  0
   -9.3287    2.1792   -6.5773 H   0  0  0  0  0  0  0  0  0  0  0  0
 16 17  2  0  0  0
 17 18  1  0  0  0
 18 20  1  0  0  0
 20 21  2  0  0  0
 21 22  1  0  0  0
 22 23  2  0  0  0
 23 24  1  0  0  0
 24 25  2  0  0  0
 24 26  1  0  0  0
 26 27  1  0  0  0
 27 28  1  0  0  0
 17  1  1  0  0  0
  1  2  2  0  0  0
  2  3  1  0  0  0
  3  4  1  0  0  0
  3  5  2  0  0  0
  5  6  1  0  0  0
  6  7  1  0  0  0
  7  8  2  0  0  0
  7  9  1  0  0  0
  9 10  1  0  0  0
 10 11  2  0  0  0
 11 12  1  0  0  0
 12 13  1  0  0  0
 25 20  1  0  0  0
 11  1  1  0  0  0
 28 23  1  0  0  0
 10  5  1  0  0  0
 13  9  1  0  0  0
 18 19  1  0  0  0
 27 29  1  0  0  0
  6 14  1  0  0  0
 12 15  1  0  0  0
M  END
> <minimizedAffinity>
-8.83793

> <minimizedRMSD>
0.29728

$$$$
P27204


 31 34  0  0  0  0  0  0  0  0999 V2000
   -6.3525    4.8228  -16.1692 C   0  0  0  0  0  0  0  0  0  0  0  0
   -7.4677    4.8572  -15.4039 C   0  0  0  0  0  0  0  0  0  0  0  0
   -8.8027    4.6628  -15.9595 C   0  0  0  0  0  0  0  0  0  0  0  0
   -9.0454    4.4189  -17.2516 C   0  0  0  0  0  0  0  0  0  0  0  0
  -10.6019    4.3830  -17.9228 Cl  0  0  0  0  0  0  0  0  0  0  0  0
   -7.9134    4.3218  -18.1574 C   0  0  0  0  0  0  0  0  0  0  0  0
   -6.5623    4.5603  -17.6130 C   0  0  0  0  0  0  0  0  0  0  0  0
   -5.7103    4.5214  -18.5813 N   0  0  0  0  0  0  0  0  0  0  0  0
   -6.4890    4.2263  -19.6911 C   0  0  0  0  0  0  0  0  0  0  0  0
   -6.0202    4.0904  -20.8137 O   0  0  0  0  0  0  0  0  0  0  0  0
   -7.8293    4.0788  -19.4129 N   0  0  0  0  0  0  0  0  0  0  0  0
   -7.3887    5.3288  -13.9682 C   0  0  0  0  0  0  0  0  0  0  0  0
   -6.9607    6.3879  -13.7188 O   0  0  0  0  0  0  0  0  0  0  0  0
   -8.0333    4.2585  -13.0416 N   0  0  0  0  0  0  0  0  0  0  0  0
   -8.3886    3.4684  -13.5093 H   0  0  0  0  0  0  0  0  0  0  0  0
   -8.1903    4.2364  -11.6503 C   0  0  0  0  0  0  0  0  0  0  0  0
   -7.9046    5.3719  -10.8729 C   0  0  0  0  0  0  0  0  0  0  0  0
   -8.1060    5.3685   -9.4856 C   0  0  0  0  0  0  0  0  0  0  0  0
   -8.5840    4.2147   -8.8939 C   0  0  0  0  0  0  0  0  0  0  0  0
   -8.8504    3.0808   -9.6536 C   0  0  0  0  0  0  0  0  0  0  0  0
   -8.6730    3.0773  -11.0312 C   0  0  0  0  0  0  0  0  0  0  0  0
   -9.2762    1.9774   -8.7383 C   0  0  0  0  0  0  0  0  0  0  0  0
   -9.6145    2.6446   -7.4539 N   0  0  0  0  0  0  0  0  0  0  0  0
   -8.8663    3.9198   -7.4580 C   0  0  0  0  0  0  0  0  0  0  0  0
   -9.3263    2.0654   -6.6653 H   0  0  0  0  0  0  0  0  0  0  0  0
   -4.9170    5.0124  -15.7528 C   0  0  0  0  0  0  0  0  0  0  0  0
   -3.1993    5.8276  -17.1952 N   0  0  0  0  0  0  0  0  0  0  0  0
   -4.3032    6.2180  -16.3497 N   0  0  0  0  0  0  0  0  0  0  0  0
   -2.7758    6.6591  -17.6071 H   0  0  0  0  0  0  0  0  0  0  0  0
   -3.5392    5.2161  -17.9375 H   0  0  0  0  0  0  0  0  0  0  0  0
   -4.9993    6.7137  -16.9066 H   0  0  0  0  0  0  0  0  0  0  0  0
 27 28  1  0  0  0
 28 26  1  0  0  0
 26  1  1  0  0  0
  1  2  2  0  0  0
  2 12  1  0  0  0
 12 13  2  0  0  0
 12 14  1  0  0  0
 14 16  1  0  0  0
 16 17  2  0  0  0
 17 18  1  0  0  0
 18 19  2  0  0  0
 19 20  1  0  0  0
 20 21  2  0  0  0
 20 22  1  0  0  0
 22 23  1  0  0  0
 23 24  1  0  0  0
  2  3  1  0  0  0
  3  4  2  0  0  0
  4  5  1  0  0  0
  4  6  1  0  0  0
  6  7  1  0  0  0
  7  8  2  0  0  0
  8  9  1  0  0  0
  9 10  2  0  0  0
  9 11  1  0  0  0
  7  1  1  0  0  0
 21 16  1  0  0  0
 11  6  2  0  0  0
 24 19  1  0  0  0
 27 29  1  0  0  0
 27 30  1  0  0  0
 28 31  1  0  0  0
 14 15  1  0  0  0
 23 25  1  0  0  0
M  END
> <minimizedAffinity>
-7.25253

> <minimizedRMSD>
0.28745

$$$$
P27207


 35 37  0  0  0  0  0  0  0  0999 V2000
   -7.1774    4.7843  -14.0621 C   0  0  0  0  0  0  0  0  0  0  0  0
   -7.4474    4.5519  -15.5643 C   0  0  0  0  0  0  0  0  0  0  0  0
   -8.7507    4.4668  -16.0496 C   0  0  0  0  0  0  0  0  0  0  0  0
   -8.9561    4.3771  -17.4200 C   0  0  0  0  0  0  0  0  0  0  0  0
  -10.5142    4.3824  -18.1113 Cl  0  0  0  0  0  0  0  0  0  0  0  0
   -7.9006    4.3747  -18.2957 C   0  0  0  0  0  0  0  0  0  0  0  0
   -6.6306    4.5212  -17.7796 C   0  0  0  0  0  0  0  0  0  0  0  0
   -6.3955    4.6143  -16.4329 N   0  0  0  0  0  0  0  0  0  0  0  0
   -5.5588    4.7700  -18.8246 C   0  0  0  0  0  0  0  0  0  0  0  0
   -5.8636    4.2160  -20.0376 F   0  0  0  0  0  0  0  0  0  0  0  0
   -4.3109    4.3379  -18.5108 F   0  0  0  0  0  0  0  0  0  0  0  0
   -5.4317    6.1119  -19.0657 F   0  0  0  0  0  0  0  0  0  0  0  0
   -5.9540    2.6676  -13.3742 N   0  0  0  0  0  0  0  0  0  0  0  0
   -5.7871    4.1956  -13.6111 C   0  0  0  0  0  0  0  0  0  0  0  0
   -4.8590    4.8912  -13.4497 O   0  0  0  0  0  0  0  0  0  0  0  0
   -6.8666    2.3260  -13.5145 H   0  0  0  0  0  0  0  0  0  0  0  0
   -3.6691    1.8062  -13.7410 C   0  0  0  0  0  0  0  0  0  0  0  0
   -4.9841    1.6642  -12.9802 C   0  0  0  0  0  0  0  0  0  0  0  0
   -4.7255    1.7546  -11.4791 C   0  0  0  0  0  0  0  0  0  0  0  0
   -8.3251    4.3854  -13.1888 N   0  0  0  0  0  0  0  0  0  0  0  0
   -9.1062    3.9910  -13.6400 H   0  0  0  0  0  0  0  0  0  0  0  0
   -8.4040    4.5143  -11.8000 C   0  0  0  0  0  0  0  0  0  0  0  0
   -8.6647    3.3043  -11.1048 C   0  0  0  0  0  0  0  0  0  0  0  0
   -8.7068    3.2600   -9.7201 C   0  0  0  0  0  0  0  0  0  0  0  0
   -8.4877    4.3945   -8.9659 C   0  0  0  0  0  0  0  0  0  0  0  0
   -8.2421    5.6022   -9.5837 C   0  0  0  0  0  0  0  0  0  0  0  0
   -8.2238    5.6715  -11.0017 C   0  0  0  0  0  0  0  0  0  0  0  0
   -8.6150    4.0550   -7.5184 C   0  0  0  0  0  0  0  0  0  0  0  0
   -9.2566    2.7227   -7.4863 N   0  0  0  0  0  0  0  0  0  0  0  0
   -8.9579    2.1061   -8.8059 C   0  0  0  0  0  0  0  0  0  0  0  0
  -10.2640    2.8151   -7.3558 H   0  0  0  0  0  0  0  0  0  0  0  0
   -8.2294    7.3459  -11.6345 S   0  0  0  0  0  0  0  0  0  0  0  0
   -6.5138    7.6910  -11.9325 C   0  0  0  0  0  0  0  0  0  0  0  0
   -8.9573    7.3946  -12.8898 O   0  0  0  0  0  0  0  0  0  0  0  0
   -8.6435    8.2266  -10.5538 O   0  0  0  0  0  0  0  0  0  0  0  0
 17 18  1  0  0  0
 18 19  1  0  0  0
 18 13  1  0  0  0
 13 14  1  0  0  0
 14 15  2  0  0  0
 14  1  1  0  0  0
  1 20  1  0  0  0
 20 22  1  0  0  0
 22 23  2  0  0  0
 23 24  1  0  0  0
 24 25  2  0  0  0
 25 26  1  0  0  0
 26 27  2  0  0  0
 27 32  1  0  0  0
 32 33  1  0  0  0
 32 34  2  0  0  0
 32 35  2  0  0  0
 25 28  1  0  0  0
 28 29  1  0  0  0
 29 30  1  0  0  0
  1  2  1  0  0  0
  2  3  2  0  0  0
  3  4  1  0  0  0
  4  5  1  0  0  0
  4  6  2  0  0  0
  6  7  1  0  0  0
  7  9  1  0  0  0
  9 10  1  0  0  0
  9 11  1  0  0  0
  9 12  1  0  0  0
  7  8  2  0  0  0
 27 22  1  0  0  0
  8  2  1  0  0  0
 30 24  1  0  0  0
 13 16  1  0  0  0
 20 21  1  0  0  0
 29 31  1  0  0  0
M  END
> <minimizedAffinity>
-8.07686

> <minimizedRMSD>
0.63489

$$$$
P27208


 33 36  0  0  0  0  0  0  0  0999 V2000
   -7.0253    3.8647  -13.2730 C   0  0  0  0  0  0  0  0  0  0  0  0
   -7.0830    4.1831  -14.7890 C   0  0  0  0  0  0  0  0  0  0  0  0
   -8.3140    4.2068  -15.4532 C   0  0  0  0  0  0  0  0  0  0  0  0
   -8.3387    4.3780  -16.8240 C   0  0  0  0  0  0  0  0  0  0  0  0
   -9.7554    4.5739  -17.7248 Cl  0  0  0  0  0  0  0  0  0  0  0  0
   -7.1515    4.4778  -17.5263 C   0  0  0  0  0  0  0  0  0  0  0  0
   -6.7178    4.5446  -18.8632 C   0  0  0  0  0  0  0  0  0  0  0  0
   -5.4003    4.7474  -18.9686 N   0  0  0  0  0  0  0  0  0  0  0  0
   -5.0259    4.8803  -17.6860 N   0  0  0  0  0  0  0  0  0  0  0  0
   -5.9995    4.5719  -16.7654 C   0  0  0  0  0  0  0  0  0  0  0  0
   -5.8974    4.4678  -15.4148 N   0  0  0  0  0  0  0  0  0  0  0  0
   -3.9233    5.6829  -17.4370 O   0  0  0  0  0  0  0  0  0  0  0  0
   -2.7753    4.9439  -17.7595 C   0  0  0  0  0  0  0  0  0  0  0  0
   -1.8608    5.2395  -16.7929 F   0  0  0  0  0  0  0  0  0  0  0  0
   -4.8253    2.8359  -12.5723 N   0  0  0  0  0  0  0  0  0  0  0  0
   -6.2789    2.4980  -13.0175 C   0  0  0  0  0  0  0  0  0  0  0  0
   -6.8160    1.4661  -13.1271 O   0  0  0  0  0  0  0  0  0  0  0  0
   -4.5855    3.7886  -12.6354 H   0  0  0  0  0  0  0  0  0  0  0  0
   -2.8936    2.7098  -11.0751 C   0  0  0  0  0  0  0  0  0  0  0  0
   -3.7712    1.9773  -12.0814 C   0  0  0  0  0  0  0  0  0  0  0  0
   -2.9461    1.4351  -13.2434 C   0  0  0  0  0  0  0  0  0  0  0  0
   -8.3964    3.7905  -12.6843 N   0  0  0  0  0  0  0  0  0  0  0  0
   -9.2010    3.6806  -13.2408 H   0  0  0  0  0  0  0  0  0  0  0  0
   -8.4623    3.8883  -11.2788 C   0  0  0  0  0  0  0  0  0  0  0  0
   -8.1124    5.0779  -10.6114 C   0  0  0  0  0  0  0  0  0  0  0  0
   -8.2123    5.1794   -9.2185 C   0  0  0  0  0  0  0  0  0  0  0  0
   -8.6773    4.0831   -8.5145 C   0  0  0  0  0  0  0  0  0  0  0  0
   -9.0076    2.8999   -9.1640 C   0  0  0  0  0  0  0  0  0  0  0  0
   -8.9015    2.7831  -10.5359 C   0  0  0  0  0  0  0  0  0  0  0  0
   -9.4503    1.8880   -8.1610 C   0  0  0  0  0  0  0  0  0  0  0  0
   -9.7310    2.6760   -6.9304 N   0  0  0  0  0  0  0  0  0  0  0  0
   -8.9237    3.9094   -7.0534 C   0  0  0  0  0  0  0  0  0  0  0  0
   -9.4545    2.1510   -6.1008 H   0  0  0  0  0  0  0  0  0  0  0  0
 19 20  1  0  0  0
 20 21  1  0  0  0
 20 15  1  0  0  0
 15 16  1  0  0  0
 16 17  2  0  0  0
 16  1  1  0  0  0
  1 22  1  0  0  0
 22 24  1  0  0  0
 24 25  2  0  0  0
 25 26  1  0  0  0
 26 27  2  0  0  0
 27 28  1  0  0  0
 28 29  2  0  0  0
 28 30  1  0  0  0
 30 31  1  0  0  0
 31 32  1  0  0  0
  1  2  1  0  0  0
  2  3  2  0  0  0
  3  4  1  0  0  0
  4  5  1  0  0  0
  4  6  2  0  0  0
  6  7  1  0  0  0
  7  8  2  0  0  0
  8  9  1  0  0  0
  9 12  1  0  0  0
 12 13  1  0  0  0
 13 14  1  0  0  0
  9 10  1  0  0  0
 10 11  2  0  0  0
 29 24  1  0  0  0
 11  2  1  0  0  0
 32 27  1  0  0  0
 10  6  1  0  0  0
 15 18  1  0  0  0
 22 23  1  0  0  0
 31 33  1  0  0  0
M  END
> <minimizedAffinity>
-8.44226

> <minimizedRMSD>
0.96921

$$$$
P27209


 34 36  0  0  0  0  0  0  0  0999 V2000
   -7.1366    3.9541  -13.3103 C   0  0  0  0  0  0  0  0  0  0  0  0
   -8.7020    4.2259  -16.8310 C   0  0  0  0  0  0  0  0  0  0  0  0
   -8.4960    4.0434  -15.4645 C   0  0  0  0  0  0  0  0  0  0  0  0
   -7.2470    4.2008  -14.8336 C   0  0  0  0  0  0  0  0  0  0  0  0
   -6.1482    4.5771  -15.6508 C   0  0  0  0  0  0  0  0  0  0  0  0
   -4.7883    4.8520  -15.0638 C   0  0  0  0  0  0  0  0  0  0  0  0
   -6.3152    4.6394  -17.0636 C   0  0  0  0  0  0  0  0  0  0  0  0
   -7.5913    4.4615  -17.6236 C   0  0  0  0  0  0  0  0  0  0  0  0
   -5.1869    4.9221  -18.0329 C   0  0  0  0  0  0  0  0  0  0  0  0
   -5.4752    4.6028  -19.3288 F   0  0  0  0  0  0  0  0  0  0  0  0
   -4.8566    6.2486  -18.0514 F   0  0  0  0  0  0  0  0  0  0  0  0
   -4.0205    4.2789  -17.7409 F   0  0  0  0  0  0  0  0  0  0  0  0
  -10.3363    4.7582  -18.5361 C   0  0  0  0  0  0  0  0  0  0  0  0
   -9.9871    4.0290  -17.3425 N   0  0  0  0  0  0  0  0  0  0  0  0
  -10.6258    3.4192  -16.9073 H   0  0  0  0  0  0  0  0  0  0  0  0
   -6.3941    2.5943  -12.9898 C   0  0  0  0  0  0  0  0  0  0  0  0
   -6.8833    1.5515  -13.1897 O   0  0  0  0  0  0  0  0  0  0  0  0
   -4.9691    2.9580  -12.4816 N   0  0  0  0  0  0  0  0  0  0  0  0
   -4.7698    3.9220  -12.4678 H   0  0  0  0  0  0  0  0  0  0  0  0
   -3.8947    2.1134  -12.0283 C   0  0  0  0  0  0  0  0  0  0  0  0
   -2.9622    2.8675  -11.0916 C   0  0  0  0  0  0  0  0  0  0  0  0
   -3.1508    1.5811  -13.2486 C   0  0  0  0  0  0  0  0  0  0  0  0
   -8.4811    3.9132  -12.6743 N   0  0  0  0  0  0  0  0  0  0  0  0
   -9.3159    3.8411  -13.1913 H   0  0  0  0  0  0  0  0  0  0  0  0
   -8.4553    3.9868  -11.2632 C   0  0  0  0  0  0  0  0  0  0  0  0
   -8.0326    5.1552  -10.6028 C   0  0  0  0  0  0  0  0  0  0  0  0
   -8.0580    5.2434   -9.2064 C   0  0  0  0  0  0  0  0  0  0  0  0
   -8.5068    4.1495   -8.4882 C   0  0  0  0  0  0  0  0  0  0  0  0
   -8.9207    2.9929   -9.1319 C   0  0  0  0  0  0  0  0  0  0  0  0
   -8.9005    2.8926  -10.5101 C   0  0  0  0  0  0  0  0  0  0  0  0
   -9.4025    2.0013   -8.1325 C   0  0  0  0  0  0  0  0  0  0  0  0
   -9.0692    2.5715   -6.7991 N   0  0  0  0  0  0  0  0  0  0  0  0
   -8.6966    3.9853   -7.0206 C   0  0  0  0  0  0  0  0  0  0  0  0
   -8.2879    2.0630   -6.3851 H   0  0  0  0  0  0  0  0  0  0  0  0
 13 14  1  0  0  0
 14  2  1  0  0  0
  2  3  2  0  0  0
  3  4  1  0  0  0
  4  1  1  0  0  0
  1 23  1  0  0  0
 23 25  1  0  0  0
 25 26  2  0  0  0
 26 27  1  0  0  0
 27 28  2  0  0  0
 28 29  1  0  0  0
 29 30  2  0  0  0
 29 31  1  0  0  0
 31 32  1  0  0  0
 32 33  1  0  0  0
  1 16  1  0  0  0
 16 17  2  0  0  0
 16 18  1  0  0  0
 18 20  1  0  0  0
 20 21  1  0  0  0
 20 22  1  0  0  0
  4  5  2  0  0  0
  5  6  1  0  0  0
  5  7  1  0  0  0
  7  9  1  0  0  0
  9 10  1  0  0  0
  9 11  1  0  0  0
  9 12  1  0  0  0
  7  8  2  0  0  0
  8  2  1  0  0  0
 30 25  1  0  0  0
 33 28  1  0  0  0
 14 15  1  0  0  0
 23 24  1  0  0  0
 32 34  1  0  0  0
 18 19  1  0  0  0
M  END
> <minimizedAffinity>
-9.25496

> <minimizedRMSD>
0.45673

$$$$
P27210


 35 37  0  0  0  0  0  0  0  0999 V2000
   -6.9870    4.2224  -13.3902 C   0  0  0  0  0  0  0  0  0  0  0  0
   -7.1964    4.3003  -14.9278 C   0  0  0  0  0  0  0  0  0  0  0  0
   -8.4542    4.1880  -15.5086 C   0  0  0  0  0  0  0  0  0  0  0  0
   -8.5698    4.2930  -16.8924 C   0  0  0  0  0  0  0  0  0  0  0  0
  -10.0906    4.2400  -17.6689 Cl  0  0  0  0  0  0  0  0  0  0  0  0
   -7.4627    4.4971  -17.6893 C   0  0  0  0  0  0  0  0  0  0  0  0
   -6.2376    4.6060  -17.0676 C   0  0  0  0  0  0  0  0  0  0  0  0
   -6.1049    4.5273  -15.7087 N   0  0  0  0  0  0  0  0  0  0  0  0
   -5.0169    4.8700  -17.9223 C   0  0  0  0  0  0  0  0  0  0  0  0
   -5.1363    4.3865  -19.1940 F   0  0  0  0  0  0  0  0  0  0  0  0
   -4.7506    6.2017  -18.0668 F   0  0  0  0  0  0  0  0  0  0  0  0
   -3.8762    4.3342  -17.4012 F   0  0  0  0  0  0  0  0  0  0  0  0
   -5.7330    3.2208  -13.0039 C   0  0  0  0  0  0  0  0  0  0  0  0
   -4.4846    3.6999  -13.5518 N   0  0  0  0  0  0  0  0  0  0  0  0
   -5.9302    1.9430  -13.5482 O   0  0  0  0  0  0  0  0  0  0  0  0
   -3.7329    3.0600  -13.2953 H   0  0  0  0  0  0  0  0  0  0  0  0
   -4.2835    4.6277  -13.1788 H   0  0  0  0  0  0  0  0  0  0  0  0
   -5.1836    1.3713  -13.3100 H   0  0  0  0  0  0  0  0  0  0  0  0
   -5.3554    3.1453  -11.6054 N   0  0  0  0  0  0  0  0  0  0  0  0
   -4.7522    3.9435  -11.4070 H   0  0  0  0  0  0  0  0  0  0  0  0
   -5.5019    1.0756  -10.2262 C   0  0  0  0  0  0  0  0  0  0  0  0
   -4.6454    1.9330  -11.1642 C   0  0  0  0  0  0  0  0  0  0  0  0
   -3.3925    2.3960  -10.4143 C   0  0  0  0  0  0  0  0  0  0  0  0
   -8.2729    3.8579  -12.7268 N   0  0  0  0  0  0  0  0  0  0  0  0
   -9.0146    3.5133  -13.2748 H   0  0  0  0  0  0  0  0  0  0  0  0
   -8.4512    3.9933  -11.3473 C   0  0  0  0  0  0  0  0  0  0  0  0
   -8.1921    5.1886  -10.6475 C   0  0  0  0  0  0  0  0  0  0  0  0
   -8.2606    5.2478   -9.2486 C   0  0  0  0  0  0  0  0  0  0  0  0
   -8.6212    4.1063   -8.5587 C   0  0  0  0  0  0  0  0  0  0  0  0
   -8.9522    2.9454   -9.2369 C   0  0  0  0  0  0  0  0  0  0  0  0
   -8.8939    2.8792  -10.6192 C   0  0  0  0  0  0  0  0  0  0  0  0
   -9.3405    1.8860   -8.2660 C   0  0  0  0  0  0  0  0  0  0  0  0
   -9.0876    2.4507   -6.9121 N   0  0  0  0  0  0  0  0  0  0  0  0
   -8.7581    3.8807   -7.0939 C   0  0  0  0  0  0  0  0  0  0  0  0
   -8.3072    1.9649   -6.4703 H   0  0  0  0  0  0  0  0  0  0  0  0
 21 22  1  0  0  0
 22 23  1  0  0  0
 22 19  1  0  0  0
 19 13  1  0  0  0
 13 14  1  0  0  0
 13 15  1  0  0  0
 13  1  1  0  0  0
  1 24  1  0  0  0
 24 26  1  0  0  0
 26 27  2  0  0  0
 27 28  1  0  0  0
 28 29  2  0  0  0
 29 30  1  0  0  0
 30 31  2  0  0  0
 30 32  1  0  0  0
 32 33  1  0  0  0
 33 34  1  0  0  0
  1  2  1  0  0  0
  2  3  2  0  0  0
  3  4  1  0  0  0
  4  5  1  0  0  0
  4  6  2  0  0  0
  6  7  1  0  0  0
  7  9  1  0  0  0
  9 10  1  0  0  0
  9 11  1  0  0  0
  9 12  1  0  0  0
  7  8  2  0  0  0
 31 26  1  0  0  0
  8  2  1  0  0  0
 34 29  1  0  0  0
 19 20  1  0  0  0
 14 16  1  0  0  0
 14 17  1  0  0  0
 15 18  1  0  0  0
 24 25  1  0  0  0
 33 35  1  0  0  0
M  END
> <minimizedAffinity>
-8.15192

> <minimizedRMSD>
0.80826

$$$$
P27211


 36 39  0  0  0  0  0  0  0  0999 V2000
   -7.0829    3.9370  -12.9525 C   0  0  0  0  0  0  0  0  0  0  0  0
   -6.1185    4.9799  -12.4826 N   0  0  0  0  0  0  0  0  0  0  0  0
   -6.0283    4.9271  -11.4680 H   0  0  0  0  0  0  0  0  0  0  0  0
   -6.4618    5.9037  -12.7458 H   0  0  0  0  0  0  0  0  0  0  0  0
   -7.1511    4.0987  -14.5052 C   0  0  0  0  0  0  0  0  0  0  0  0
   -8.3546    4.0412  -15.1920 C   0  0  0  0  0  0  0  0  0  0  0  0
   -8.2931    4.2330  -16.5666 C   0  0  0  0  0  0  0  0  0  0  0  0
   -9.5775    4.3372  -17.6855 S   0  0  0  0  0  0  0  0  0  0  0  0
   -8.4509    4.5489  -18.9411 C   0  0  0  0  0  0  0  0  0  0  0  0
   -7.1892    4.5463  -18.6045 N   0  0  0  0  0  0  0  0  0  0  0  0
   -7.0938    4.4310  -17.2399 C   0  0  0  0  0  0  0  0  0  0  0  0
   -5.9188    4.5506  -16.5018 C   0  0  0  0  0  0  0  0  0  0  0  0
   -5.9765    4.4116  -15.1323 N   0  0  0  0  0  0  0  0  0  0  0  0
   -4.6611    5.0189  -17.1758 C   0  0  0  0  0  0  0  0  0  0  0  0
   -4.2897    4.3297  -18.2924 F   0  0  0  0  0  0  0  0  0  0  0  0
   -3.5750    4.9790  -16.3494 F   0  0  0  0  0  0  0  0  0  0  0  0
   -4.7603    6.3292  -17.5670 F   0  0  0  0  0  0  0  0  0  0  0  0
   -5.2273    2.6654  -11.7482 N   0  0  0  0  0  0  0  0  0  0  0  0
   -6.4652    2.4554  -12.6693 C   0  0  0  0  0  0  0  0  0  0  0  0
   -6.9637    1.4694  -13.0564 O   0  0  0  0  0  0  0  0  0  0  0  0
   -5.0499    3.6022  -11.5029 H   0  0  0  0  0  0  0  0  0  0  0  0
   -3.0714    1.5955  -12.0913 C   0  0  0  0  0  0  0  0  0  0  0  0
   -4.2994    1.7112  -11.1968 C   0  0  0  0  0  0  0  0  0  0  0  0
   -3.9197    2.0940   -9.7726 C   0  0  0  0  0  0  0  0  0  0  0  0
   -8.4447    3.9736  -12.3686 N   0  0  0  0  0  0  0  0  0  0  0  0
   -9.2548    3.9935  -12.9278 H   0  0  0  0  0  0  0  0  0  0  0  0
   -8.5044    3.9781  -10.9528 C   0  0  0  0  0  0  0  0  0  0  0  0
   -8.1680    5.1196  -10.1977 C   0  0  0  0  0  0  0  0  0  0  0  0
   -8.2451    5.1232   -8.8006 C   0  0  0  0  0  0  0  0  0  0  0  0
   -8.6936    3.9797   -8.1699 C   0  0  0  0  0  0  0  0  0  0  0  0
   -9.0409    2.8530   -8.9014 C   0  0  0  0  0  0  0  0  0  0  0  0
   -8.9474    2.8299  -10.2820 C   0  0  0  0  0  0  0  0  0  0  0  0
   -9.4678    1.7689   -7.9745 C   0  0  0  0  0  0  0  0  0  0  0  0
   -9.6151    2.4152   -6.6435 N   0  0  0  0  0  0  0  0  0  0  0  0
   -8.8999    3.7060   -6.7199 C   0  0  0  0  0  0  0  0  0  0  0  0
   -9.2033    1.8270   -5.9190 H   0  0  0  0  0  0  0  0  0  0  0  0
 22 23  1  0  0  0
 23 24  1  0  0  0
 23 18  1  0  0  0
 18 19  1  0  0  0
 19 20  2  0  0  0
 19  1  1  0  0  0
  1  2  1  0  0  0
  1 25  1  0  0  0
 25 27  1  0  0  0
 27 28  2  0  0  0
 28 29  1  0  0  0
 29 30  2  0  0  0
 30 31  1  0  0  0
 31 32  2  0  0  0
 31 33  1  0  0  0
 33 34  1  0  0  0
 34 35  1  0  0  0
  1  5  1  0  0  0
  5  6  2  0  0  0
  6  7  1  0  0  0
  7  8  1  0  0  0
  8  9  1  0  0  0
  9 10  2  0  0  0
 10 11  1  0  0  0
 11 12  1  0  0  0
 12 14  1  0  0  0
 14 15  1  0  0  0
 14 16  1  0  0  0
 14 17  1  0  0  0
 12 13  2  0  0  0
 32 27  1  0  0  0
 13  5  1  0  0  0
 35 30  1  0  0  0
 11  7  2  0  0  0
 18 21  1  0  0  0
  2  3  1  0  0  0
  2  4  1  0  0  0
 25 26  1  0  0  0
 34 36  1  0  0  0
M  END
> <minimizedAffinity>
-8.42075

> <minimizedRMSD>
0.96985

$$$$
P27213


 37 40  0  0  0  0  0  0  0  0999 V2000
   -7.8047    5.2890  -13.5623 C   0  0  0  0  0  0  0  0  0  0  0  0
   -7.6041    4.8857  -15.0275 C   0  0  0  0  0  0  0  0  0  0  0  0
   -8.6946    4.4953  -15.7813 C   0  0  0  0  0  0  0  0  0  0  0  0
   -8.5483    4.3124  -17.1438 C   0  0  0  0  0  0  0  0  0  0  0  0
   -9.9795    4.0909  -18.0553 Cl  0  0  0  0  0  0  0  0  0  0  0  0
   -7.3014    4.3949  -17.7447 C   0  0  0  0  0  0  0  0  0  0  0  0
   -7.1498    4.0424  -19.4178 Cl  0  0  0  0  0  0  0  0  0  0  0  0
   -6.2237    4.7474  -16.9417 C   0  0  0  0  0  0  0  0  0  0  0  0
   -6.3766    5.0193  -15.5931 N   0  0  0  0  0  0  0  0  0  0  0  0
   -4.8335    4.9180  -17.5337 C   0  0  0  0  0  0  0  0  0  0  0  0
   -4.6392    4.4151  -18.7848 F   0  0  0  0  0  0  0  0  0  0  0  0
   -3.8475    4.3645  -16.7705 F   0  0  0  0  0  0  0  0  0  0  0  0
   -4.5262    6.3152  -17.5534 O   0  0  0  0  0  0  0  0  0  0  0  0
   -4.4651    6.8810  -18.8522 C   0  0  0  0  0  0  0  0  0  0  0  0
   -3.6443    8.1455  -18.7651 C   0  0  0  0  0  0  0  0  0  0  0  0
   -4.6474    9.1324  -18.2106 C   0  0  0  0  0  0  0  0  0  0  0  0
   -5.9296    8.7696  -18.7456 O   0  0  0  0  0  0  0  0  0  0  0  0
   -5.8355    7.4200  -19.2510 C   0  0  0  0  0  0  0  0  0  0  0  0
   -7.9695    7.7615  -13.0260 N   0  0  0  0  0  0  0  0  0  0  0  0
   -8.7887    6.5265  -13.5266 C   0  0  0  0  0  0  0  0  0  0  0  0
   -9.9159    6.4389  -13.8394 O   0  0  0  0  0  0  0  0  0  0  0  0
   -7.0078    7.5942  -12.8984 H   0  0  0  0  0  0  0  0  0  0  0  0
   -9.0907    9.1430  -11.3635 C   0  0  0  0  0  0  0  0  0  0  0  0
   -8.3959    9.1090  -12.7204 C   0  0  0  0  0  0  0  0  0  0  0  0
   -7.2153   10.0693  -12.7610 C   0  0  0  0  0  0  0  0  0  0  0  0
   -8.3101    4.1541  -12.7674 N   0  0  0  0  0  0  0  0  0  0  0  0
   -8.5846    3.3352  -13.2401 H   0  0  0  0  0  0  0  0  0  0  0  0
   -8.4173    4.1871  -11.3749 C   0  0  0  0  0  0  0  0  0  0  0  0
   -7.9841    5.2543  -10.5645 C   0  0  0  0  0  0  0  0  0  0  0  0
   -8.1210    5.2370   -9.1686 C   0  0  0  0  0  0  0  0  0  0  0  0
   -8.6335    4.1030   -8.5789 C   0  0  0  0  0  0  0  0  0  0  0  0
   -8.9713    3.0010   -9.3498 C   0  0  0  0  0  0  0  0  0  0  0  0
   -8.8771    3.0292  -10.7315 C   0  0  0  0  0  0  0  0  0  0  0  0
   -9.3455    1.8766   -8.4456 C   0  0  0  0  0  0  0  0  0  0  0  0
   -9.6395    2.5192   -7.1379 N   0  0  0  0  0  0  0  0  0  0  0  0
   -8.8691    3.7829   -7.1415 C   0  0  0  0  0  0  0  0  0  0  0  0
   -9.3386    1.9195   -6.3696 H   0  0  0  0  0  0  0  0  0  0  0  0
 23 24  1  0  0  0
 24 25  1  0  0  0
 24 19  1  0  0  0
 19 20  1  0  0  0
 20 21  2  0  0  0
 20  1  1  0  0  0
  1 26  1  0  0  0
 26 28  1  0  0  0
 28 29  2  0  0  0
 29 30  1  0  0  0
 30 31  2  0  0  0
 31 32  1  0  0  0
 32 33  2  0  0  0
 32 34  1  0  0  0
 34 35  1  0  0  0
 35 36  1  0  0  0
  1  2  1  0  0  0
  2  3  2  0  0  0
  3  4  1  0  0  0
  4  5  1  0  0  0
  4  6  2  0  0  0
  6  7  1  0  0  0
  6  8  1  0  0  0
  8 10  1  0  0  0
 10 11  1  0  0  0
 10 12  1  0  0  0
 10 13  1  0  0  0
 14 13  1  0  0  0
 14 15  1  0  0  0
 15 16  1  0  0  0
 16 17  1  0  0  0
 17 18  1  0  0  0
  8  9  2  0  0  0
 33 28  1  0  0  0
  9  2  1  0  0  0
 36 31  1  0  0  0
 18 14  1  0  0  0
 19 22  1  0  0  0
 26 27  1  0  0  0
 35 37  1  0  0  0
M  END
> <minimizedAffinity>
-7.82168

> <minimizedRMSD>
0.39040

$$$$
P27222


 36 38  0  0  0  0  0  0  0  0999 V2000
   -7.1622    5.3182  -13.8195 C   0  0  0  0  0  0  0  0  0  0  0  0
   -7.2046    6.7275  -14.0514 O   0  0  0  0  0  0  0  0  0  0  0  0
   -8.0516    6.9623  -14.4618 H   0  0  0  0  0  0  0  0  0  0  0  0
   -6.2848    4.6903  -17.4333 C   0  0  0  0  0  0  0  0  0  0  0  0
   -7.4867    4.3220  -18.0066 C   0  0  0  0  0  0  0  0  0  0  0  0
   -8.5810    4.2022  -17.1809 C   0  0  0  0  0  0  0  0  0  0  0  0
  -10.1007    3.9121  -17.9010 Cl  0  0  0  0  0  0  0  0  0  0  0  0
   -8.4721    4.4124  -15.8129 C   0  0  0  0  0  0  0  0  0  0  0  0
   -7.2421    4.7816  -15.2744 C   0  0  0  0  0  0  0  0  0  0  0  0
   -6.1580    4.9376  -16.0889 N   0  0  0  0  0  0  0  0  0  0  0  0
   -5.1003    4.8991  -18.3684 C   0  0  0  0  0  0  0  0  0  0  0  0
   -5.3152    4.3374  -19.5919 F   0  0  0  0  0  0  0  0  0  0  0  0
   -3.9347    4.3723  -17.8997 F   0  0  0  0  0  0  0  0  0  0  0  0
   -4.8558    6.2755  -18.6559 O   0  0  0  0  0  0  0  0  0  0  0  0
   -4.0271    7.7765  -17.0231 C   0  0  0  0  0  0  0  0  0  0  0  0
   -3.6562    6.7620  -18.0875 C   0  0  0  0  0  0  0  0  0  0  0  0
   -5.7570    4.9408  -13.1405 C   0  0  0  0  0  0  0  0  0  0  0  0
   -5.0719    5.7833  -12.6936 O   0  0  0  0  0  0  0  0  0  0  0  0
   -5.5648    3.3937  -13.1723 N   0  0  0  0  0  0  0  0  0  0  0  0
   -6.2520    2.9032  -13.6787 H   0  0  0  0  0  0  0  0  0  0  0  0
   -4.5407    2.5620  -12.5785 C   0  0  0  0  0  0  0  0  0  0  0  0
   -3.7982    1.7678  -13.6450 C   0  0  0  0  0  0  0  0  0  0  0  0
   -5.1301    1.6462  -11.5124 C   0  0  0  0  0  0  0  0  0  0  0  0
   -8.3347    4.9284  -12.9990 N   0  0  0  0  0  0  0  0  0  0  0  0
   -9.1699    4.7089  -13.4718 H   0  0  0  0  0  0  0  0  0  0  0  0
   -8.3404    4.8496  -11.5944 C   0  0  0  0  0  0  0  0  0  0  0  0
   -8.5994    3.5703  -11.0413 C   0  0  0  0  0  0  0  0  0  0  0  0
   -8.6550    3.3906   -9.6682 C   0  0  0  0  0  0  0  0  0  0  0  0
   -8.4643    4.4514   -8.8041 C   0  0  0  0  0  0  0  0  0  0  0  0
   -8.1977    5.7115   -9.2911 C   0  0  0  0  0  0  0  0  0  0  0  0
   -8.1629    5.9321  -10.6899 C   0  0  0  0  0  0  0  0  0  0  0  0
   -8.0104    7.3697  -11.0993 C   0  0  0  0  0  0  0  0  0  0  0  0
   -8.6271    3.9805   -7.3990 C   0  0  0  0  0  0  0  0  0  0  0  0
   -9.2481    2.6424   -7.5075 N   0  0  0  0  0  0  0  0  0  0  0  0
   -8.8908    2.1542   -8.8659 C   0  0  0  0  0  0  0  0  0  0  0  0
  -10.2609    2.7091   -7.4067 H   0  0  0  0  0  0  0  0  0  0  0  0
 15 16  1  0  0  0
 16 14  1  0  0  0
 14 11  1  0  0  0
 11 12  1  0  0  0
 11 13  1  0  0  0
 11  4  1  0  0  0
  4  5  2  0  0  0
  5  6  1  0  0  0
  6  7  1  0  0  0
  6  8  2  0  0  0
  8  9  1  0  0  0
  9  1  1  0  0  0
  1  2  1  0  0  0
  1 24  1  0  0  0
 24 26  1  0  0  0
 26 27  2  0  0  0
 27 28  1  0  0  0
 28 29  2  0  0  0
 29 30  1  0  0  0
 30 31  2  0  0  0
 31 32  1  0  0  0
 29 33  1  0  0  0
 33 34  1  0  0  0
 34 35  1  0  0  0
  1 17  1  0  0  0
 17 18  2  0  0  0
 17 19  1  0  0  0
 19 21  1  0  0  0
 21 22  1  0  0  0
 21 23  1  0  0  0
  9 10  2  0  0  0
 10  4  1  0  0  0
 31 26  1  0  0  0
 35 28  1  0  0  0
  2  3  1  0  0  0
 24 25  1  0  0  0
 34 36  1  0  0  0
 19 20  1  0  0  0
M  END
> <minimizedAffinity>
-7.22498

> <minimizedRMSD>
0.67358

$$$$
P27224


 37 39  0  0  0  0  0  0  0  0999 V2000
   -7.0388    4.1846  -13.5784 C   0  0  0  0  0  0  0  0  0  0  0  0
   -6.1335    5.2590  -13.2736 O   0  0  0  0  0  0  0  0  0  0  0  0
   -5.9593    5.2742  -12.3195 H   0  0  0  0  0  0  0  0  0  0  0  0
   -7.2410    4.2604  -15.1218 C   0  0  0  0  0  0  0  0  0  0  0  0
   -8.5047    4.1577  -15.6972 C   0  0  0  0  0  0  0  0  0  0  0  0
   -8.6409    4.3466  -17.0636 C   0  0  0  0  0  0  0  0  0  0  0  0
  -10.1885    4.3638  -17.7822 Cl  0  0  0  0  0  0  0  0  0  0  0  0
   -7.5420    4.5800  -17.8604 C   0  0  0  0  0  0  0  0  0  0  0  0
   -6.3027    4.6647  -17.2502 C   0  0  0  0  0  0  0  0  0  0  0  0
   -6.1462    4.5694  -15.8882 N   0  0  0  0  0  0  0  0  0  0  0  0
   -5.1044    4.8794  -18.1579 C   0  0  0  0  0  0  0  0  0  0  0  0
   -5.2964    4.3685  -19.4096 F   0  0  0  0  0  0  0  0  0  0  0  0
   -4.8162    6.1965  -18.3661 F   0  0  0  0  0  0  0  0  0  0  0  0
   -3.9525    4.3300  -17.6802 F   0  0  0  0  0  0  0  0  0  0  0  0
   -6.3645    2.7882  -13.1691 C   0  0  0  0  0  0  0  0  0  0  0  0
   -6.8992    1.7522  -13.2584 O   0  0  0  0  0  0  0  0  0  0  0  0
   -4.9455    3.1496  -12.6300 N   0  0  0  0  0  0  0  0  0  0  0  0
   -4.7535    4.1143  -12.5879 H   0  0  0  0  0  0  0  0  0  0  0  0
   -3.8705    2.3000  -12.1838 C   0  0  0  0  0  0  0  0  0  0  0  0
   -2.8552    3.0985  -11.3778 C   0  0  0  0  0  0  0  0  0  0  0  0
   -3.2194    1.6061  -13.3741 C   0  0  0  0  0  0  0  0  0  0  0  0
   -8.3285    4.3868  -12.8719 N   0  0  0  0  0  0  0  0  0  0  0  0
   -9.1792    4.4384  -13.3647 H   0  0  0  0  0  0  0  0  0  0  0  0
   -7.7013    6.9930  -11.4994 C   0  0  0  0  0  0  0  0  0  0  0  0
   -7.9967    5.7097  -10.7778 C   0  0  0  0  0  0  0  0  0  0  0  0
   -8.0191    5.7333   -9.3687 C   0  0  0  0  0  0  0  0  0  0  0  0
   -8.4124    4.6005   -8.6704 C   0  0  0  0  0  0  0  0  0  0  0  0
   -8.7406    3.4287   -9.3292 C   0  0  0  0  0  0  0  0  0  0  0  0
   -8.6061    3.3353  -10.7001 C   0  0  0  0  0  0  0  0  0  0  0  0
   -8.9827    2.1741  -11.3956 N   0  0  0  0  0  0  0  0  0  0  0  0
   -8.2868    4.5035  -11.4489 C   0  0  0  0  0  0  0  0  0  0  0  0
   -9.2616    2.4297   -8.3520 C   0  0  0  0  0  0  0  0  0  0  0  0
   -9.1095    3.0410   -7.0046 N   0  0  0  0  0  0  0  0  0  0  0  0
   -8.6102    4.4178   -7.2057 C   0  0  0  0  0  0  0  0  0  0  0  0
   -9.2080    1.3543  -10.8992 H   0  0  0  0  0  0  0  0  0  0  0  0
   -9.0213    2.1802  -12.3793 H   0  0  0  0  0  0  0  0  0  0  0  0
   -8.4424    2.5044   -6.4502 H   0  0  0  0  0  0  0  0  0  0  0  0
 24 25  1  0  0  0
 25 26  2  0  0  0
 26 27  1  0  0  0
 27 28  2  0  0  0
 28 29  1  0  0  0
 29 30  1  0  0  0
 29 31  2  0  0  0
 31 22  1  0  0  0
 22  1  1  0  0  0
  1  2  1  0  0  0
  1 15  1  0  0  0
 15 16  2  0  0  0
 15 17  1  0  0  0
 17 19  1  0  0  0
 19 20  1  0  0  0
 19 21  1  0  0  0
  1  4  1  0  0  0
  4  5  2  0  0  0
  5  6  1  0  0  0
  6  7  1  0  0  0
  6  8  2  0  0  0
  8  9  1  0  0  0
  9 11  1  0  0  0
 11 12  1  0  0  0
 11 13  1  0  0  0
 11 14  1  0  0  0
  9 10  2  0  0  0
 28 32  1  0  0  0
 32 33  1  0  0  0
 33 34  1  0  0  0
 31 25  1  0  0  0
 10  4  1  0  0  0
 34 27  1  0  0  0
 30 35  1  0  0  0
 30 36  1  0  0  0
 22 23  1  0  0  0
  2  3  1  0  0  0
 17 18  1  0  0  0
 33 37  1  0  0  0
M  END
> <minimizedAffinity>
-9.17887

> <minimizedRMSD>
0.89752

$$$$
P27234


 45 48  0  0  0  0  0  0  0  0999 V2000
   -7.2364    5.0502  -13.9194 C   0  0  0  0  0  0  0  0  0  0  0  0
   -7.5645    6.4434  -13.8610 O   0  0  0  0  0  0  0  0  0  0  0  0
   -7.5321    6.7449  -12.9396 H   0  0  0  0  0  0  0  0  0  0  0  0
   -7.3268    4.7122  -15.4289 C   0  0  0  0  0  0  0  0  0  0  0  0
   -8.5807    4.5013  -15.9986 C   0  0  0  0  0  0  0  0  0  0  0  0
   -8.6873    4.3756  -17.3734 C   0  0  0  0  0  0  0  0  0  0  0  0
  -10.2135    4.2470  -18.1228 Cl  0  0  0  0  0  0  0  0  0  0  0  0
   -7.5713    4.4360  -18.1759 C   0  0  0  0  0  0  0  0  0  0  0  0
   -6.3430    4.6484  -17.5723 C   0  0  0  0  0  0  0  0  0  0  0  0
   -6.2154    4.8079  -16.2160 N   0  0  0  0  0  0  0  0  0  0  0  0
   -5.1400    4.8043  -18.4967 C   0  0  0  0  0  0  0  0  0  0  0  0
   -5.4097    4.3564  -19.7582 F   0  0  0  0  0  0  0  0  0  0  0  0
   -4.0294    4.1479  -18.0660 F   0  0  0  0  0  0  0  0  0  0  0  0
   -4.8429    6.1924  -18.5712 O   0  0  0  0  0  0  0  0  0  0  0  0
   -4.3174    6.5568  -19.7504 C   0  0  0  0  0  0  0  0  0  0  0  0
   -3.2052    6.2944  -20.1795 O   0  0  0  0  0  0  0  0  0  0  0  0
   -5.2598    7.2792  -20.4090 O   0  0  0  0  0  0  0  0  0  0  0  0
   -4.7645    8.3290  -21.2452 C   0  0  0  0  0  0  0  0  0  0  0  0
   -5.3239    8.1822  -22.6381 C   0  0  0  0  0  0  0  0  0  0  0  0
   -5.2205    6.9600  -23.3192 C   0  0  0  0  0  0  0  0  0  0  0  0
   -5.7213    6.8243  -24.6148 C   0  0  0  0  0  0  0  0  0  0  0  0
   -6.3319    7.9077  -25.2419 C   0  0  0  0  0  0  0  0  0  0  0  0
   -6.4495    9.1243  -24.5722 C   0  0  0  0  0  0  0  0  0  0  0  0
   -5.9533    9.2607  -23.2745 C   0  0  0  0  0  0  0  0  0  0  0  0
   -5.4385    3.3147  -13.2798 N   0  0  0  0  0  0  0  0  0  0  0  0
   -5.7420    4.8425  -13.3643 C   0  0  0  0  0  0  0  0  0  0  0  0
   -5.0877    5.7663  -13.0530 O   0  0  0  0  0  0  0  0  0  0  0  0
   -6.1261    2.7349  -13.6802 H   0  0  0  0  0  0  0  0  0  0  0  0
   -3.6336    1.7319  -13.7493 C   0  0  0  0  0  0  0  0  0  0  0  0
   -4.3117    2.6121  -12.7089 C   0  0  0  0  0  0  0  0  0  0  0  0
   -4.7425    1.8052  -11.4893 C   0  0  0  0  0  0  0  0  0  0  0  0
   -8.2372    4.2985  -13.1382 N   0  0  0  0  0  0  0  0  0  0  0  0
   -8.8858    3.7464  -13.6318 H   0  0  0  0  0  0  0  0  0  0  0  0
   -8.3246    4.3187  -11.7473 C   0  0  0  0  0  0  0  0  0  0  0  0
   -8.0827    5.4632  -10.9607 C   0  0  0  0  0  0  0  0  0  0  0  0
   -8.1964    5.4447   -9.5614 C   0  0  0  0  0  0  0  0  0  0  0  0
   -8.5631    4.2634   -8.9533 C   0  0  0  0  0  0  0  0  0  0  0  0
   -8.7984    3.1217   -9.7135 C   0  0  0  0  0  0  0  0  0  0  0  0
   -8.6944    3.1350  -11.0924 C   0  0  0  0  0  0  0  0  0  0  0  0
   -9.1533    1.9910   -8.8029 C   0  0  0  0  0  0  0  0  0  0  0  0
   -9.5872    2.6826   -7.5592 N   0  0  0  0  0  0  0  0  0  0  0  0
   -9.4202    1.8416   -6.4191 N   0  0  0  0  0  0  0  0  0  0  0  0
   -8.7977    3.9391   -7.5092 C   0  0  0  0  0  0  0  0  0  0  0  0
   -9.9915    1.0037   -6.5280 H   0  0  0  0  0  0  0  0  0  0  0  0
   -9.7104    2.3443   -5.5803 H   0  0  0  0  0  0  0  0  0  0  0  0
 29 30  1  0  0  0
 30 31  1  0  0  0
 30 25  1  0  0  0
 25 26  1  0  0  0
 26 27  2  0  0  0
 26  1  1  0  0  0
  1  2  1  0  0  0
  1 32  1  0  0  0
 32 34  1  0  0  0
 34 35  2  0  0  0
 35 36  1  0  0  0
 36 37  2  0  0  0
 37 38  1  0  0  0
 38 39  2  0  0  0
 38 40  1  0  0  0
 40 41  1  0  0  0
 41 42  1  0  0  0
 41 43  1  0  0  0
  1  4  1  0  0  0
  4  5  2  0  0  0
  5  6  1  0  0  0
  6  7  1  0  0  0
  6  8  2  0  0  0
  8  9  1  0  0  0
  9 11  1  0  0  0
 11 12  1  0  0  0
 11 13  1  0  0  0
 11 14  1  0  0  0
 14 15  1  0  0  0
 15 16  2  0  0  0
 15 17  1  0  0  0
 17 18  1  0  0  0
 18 19  1  0  0  0
 19 20  2  0  0  0
 20 21  1  0  0  0
 21 22  2  0  0  0
 22 23  1  0  0  0
 23 24  2  0  0  0
  9 10  2  0  0  0
 39 34  1  0  0  0
 10  4  1  0  0  0
 43 37  1  0  0  0
 24 19  1  0  0  0
 25 28  1  0  0  0
  2  3  1  0  0  0
 32 33  1  0  0  0
 42 44  1  0  0  0
 42 45  1  0  0  0
M  END
> <minimizedAffinity>
-8.68303

> <minimizedRMSD>
0.49920

$$$$
P27237


 32 34  0  0  0  0  0  0  0  0999 V2000
   -7.1066    3.9734  -13.4017 C   0  0  0  0  0  0  0  0  0  0  0  0
   -6.1597    4.6136  -16.9998 C   0  0  0  0  0  0  0  0  0  0  0  0
   -7.3739    4.6042  -17.6621 C   0  0  0  0  0  0  0  0  0  0  0  0
   -8.5136    4.3854  -16.9328 C   0  0  0  0  0  0  0  0  0  0  0  0
  -10.0046    4.5332  -17.7461 Cl  0  0  0  0  0  0  0  0  0  0  0  0
   -8.4442    4.1451  -15.5728 C   0  0  0  0  0  0  0  0  0  0  0  0
   -7.2025    4.1371  -14.9379 C   0  0  0  0  0  0  0  0  0  0  0  0
   -6.0586    4.3985  -15.6485 N   0  0  0  0  0  0  0  0  0  0  0  0
   -5.1524    4.8812  -19.3215 C   0  0  0  0  0  0  0  0  0  0  0  0
   -4.9516    5.0280  -17.8225 C   0  0  0  0  0  0  0  0  0  0  0  0
   -3.8026    4.3606  -17.5100 F   0  0  0  0  0  0  0  0  0  0  0  0
   -6.3513    2.6522  -12.9781 C   0  0  0  0  0  0  0  0  0  0  0  0
   -6.7767    1.5914  -13.2319 O   0  0  0  0  0  0  0  0  0  0  0  0
   -5.1048    3.0653  -12.1373 N   0  0  0  0  0  0  0  0  0  0  0  0
   -4.9994    4.0353  -12.0053 H   0  0  0  0  0  0  0  0  0  0  0  0
   -4.0709    2.2490  -11.5154 C   0  0  0  0  0  0  0  0  0  0  0  0
   -3.1854    1.6187  -12.5815 C   0  0  0  0  0  0  0  0  0  0  0  0
   -4.6489    1.1710  -10.5809 C   0  0  0  0  0  0  0  0  0  0  0  0
   -3.7444    0.8811   -9.6021 F   0  0  0  0  0  0  0  0  0  0  0  0
   -5.7285    1.6919   -9.9327 F   0  0  0  0  0  0  0  0  0  0  0  0
   -8.4649    3.9608  -12.7691 N   0  0  0  0  0  0  0  0  0  0  0  0
   -9.2953    3.9274  -13.2970 H   0  0  0  0  0  0  0  0  0  0  0  0
   -8.4623    4.0008  -11.3539 C   0  0  0  0  0  0  0  0  0  0  0  0
   -8.0744    5.1592  -10.6572 C   0  0  0  0  0  0  0  0  0  0  0  0
   -8.1572    5.2208   -9.2595 C   0  0  0  0  0  0  0  0  0  0  0  0
   -8.6288    4.1119   -8.5786 C   0  0  0  0  0  0  0  0  0  0  0  0
   -8.9749    2.9501   -9.2559 C   0  0  0  0  0  0  0  0  0  0  0  0
   -8.8948    2.8764  -10.6332 C   0  0  0  0  0  0  0  0  0  0  0  0
   -9.4015    1.9108   -8.2734 C   0  0  0  0  0  0  0  0  0  0  0  0
   -9.6695    2.6658   -7.0187 N   0  0  0  0  0  0  0  0  0  0  0  0
   -8.8591    3.9006   -7.1198 C   0  0  0  0  0  0  0  0  0  0  0  0
   -9.3859    2.1188   -6.2058 H   0  0  0  0  0  0  0  0  0  0  0  0
 10  9  1  0  0  0
 10 11  1  0  0  0
 10  2  1  0  0  0
  2  3  2  0  0  0
  3  4  1  0  0  0
  4  5  1  0  0  0
  4  6  2  0  0  0
  6  7  1  0  0  0
  7  1  1  0  0  0
  1 21  1  0  0  0
 21 23  1  0  0  0
 23 24  2  0  0  0
 24 25  1  0  0  0
 25 26  2  0  0  0
 26 27  1  0  0  0
 27 28  2  0  0  0
 27 29  1  0  0  0
 29 30  1  0  0  0
 30 31  1  0  0  0
  1 12  1  0  0  0
 12 13  2  0  0  0
 12 14  1  0  0  0
 14 16  1  0  0  0
 16 17  1  0  0  0
 16 18  1  0  0  0
 18 19  1  0  0  0
 18 20  1  0  0  0
  7  8  2  0  0  0
  8  2  1  0  0  0
 28 23  1  0  0  0
 31 26  1  0  0  0
 21 22  1  0  0  0
 30 32  1  0  0  0
 14 15  1  0  0  0
M  END
> <minimizedAffinity>
-8.62914

> <minimizedRMSD>
0.76543

$$$$
P27239


 35 37  0  0  0  0  0  0  0  0999 V2000
   -7.2546    3.8000  -13.4665 C   0  0  0  0  0  0  0  0  0  0  0  0
   -7.3636    2.3870  -13.4616 O   0  0  0  0  0  0  0  0  0  0  0  0
   -7.4158    2.0699  -12.5464 H   0  0  0  0  0  0  0  0  0  0  0  0
   -7.1773    4.2139  -14.9657 C   0  0  0  0  0  0  0  0  0  0  0  0
   -8.2832    4.2002  -15.8048 C   0  0  0  0  0  0  0  0  0  0  0  0
   -8.1018    4.3838  -17.1789 C   0  0  0  0  0  0  0  0  0  0  0  0
   -9.5103    4.4048  -18.1621 Cl  0  0  0  0  0  0  0  0  0  0  0  0
   -6.8312    4.5492  -17.7212 C   0  0  0  0  0  0  0  0  0  0  0  0
   -5.7801    4.6834  -16.8251 C   0  0  0  0  0  0  0  0  0  0  0  0
   -5.9544    4.5197  -15.4756 N   0  0  0  0  0  0  0  0  0  0  0  0
   -4.3772    5.0077  -17.3114 C   0  0  0  0  0  0  0  0  0  0  0  0
   -4.2856    6.2217  -17.9273 F   0  0  0  0  0  0  0  0  0  0  0  0
   -3.8738    4.1017  -18.1918 F   0  0  0  0  0  0  0  0  0  0  0  0
   -3.4725    5.0676  -16.2905 F   0  0  0  0  0  0  0  0  0  0  0  0
   -6.5685    4.4627  -19.1266 C   0  0  0  0  0  0  0  0  0  0  0  0
   -6.4091    4.2182  -20.2510 N   0  0  0  0  0  0  0  0  0  0  0  0
   -5.8246    5.8665  -12.9617 N   0  0  0  0  0  0  0  0  0  0  0  0
   -5.9138    4.3199  -12.7451 C   0  0  0  0  0  0  0  0  0  0  0  0
   -5.1729    3.5837  -12.2109 O   0  0  0  0  0  0  0  0  0  0  0  0
   -6.5449    6.2480  -13.5138 H   0  0  0  0  0  0  0  0  0  0  0  0
   -5.4888    7.8167  -11.5150 C   0  0  0  0  0  0  0  0  0  0  0  0
   -4.8565    6.8257  -12.4828 C   0  0  0  0  0  0  0  0  0  0  0  0
   -4.2112    7.5452  -13.6624 C   0  0  0  0  0  0  0  0  0  0  0  0
   -8.4839    4.3335  -12.8249 N   0  0  0  0  0  0  0  0  0  0  0  0
   -9.2299    4.7139  -13.3425 H   0  0  0  0  0  0  0  0  0  0  0  0
   -8.4994    4.2518  -11.4017 C   0  0  0  0  0  0  0  0  0  0  0  0
   -8.1814    5.3769  -10.6162 C   0  0  0  0  0  0  0  0  0  0  0  0
   -8.2282    5.3335   -9.2187 C   0  0  0  0  0  0  0  0  0  0  0  0
   -8.6246    4.1569   -8.6177 C   0  0  0  0  0  0  0  0  0  0  0  0
   -8.9205    3.0300   -9.3759 C   0  0  0  0  0  0  0  0  0  0  0  0
   -8.8408    3.0507  -10.7594 C   0  0  0  0  0  0  0  0  0  0  0  0
   -9.3039    1.9187   -8.4538 C   0  0  0  0  0  0  0  0  0  0  0  0
   -9.6068    2.5848   -7.1557 N   0  0  0  0  0  0  0  0  0  0  0  0
   -8.8281    3.8413   -7.1737 C   0  0  0  0  0  0  0  0  0  0  0  0
   -9.3170    1.9956   -6.3751 H   0  0  0  0  0  0  0  0  0  0  0  0
 21 22  1  0  0  0
 22 23  1  0  0  0
 22 17  1  0  0  0
 17 18  1  0  0  0
 18 19  2  0  0  0
 18  1  1  0  0  0
  1  2  1  0  0  0
  1 24  1  0  0  0
 24 26  1  0  0  0
 26 27  2  0  0  0
 27 28  1  0  0  0
 28 29  2  0  0  0
 29 30  1  0  0  0
 30 31  2  0  0  0
 30 32  1  0  0  0
 32 33  1  0  0  0
 33 34  1  0  0  0
  1  4  1  0  0  0
  4  5  2  0  0  0
  5  6  1  0  0  0
  6  7  1  0  0  0
  6  8  2  0  0  0
  8 15  1  0  0  0
 15 16  3  0  0  0
  8  9  1  0  0  0
  9 11  1  0  0  0
 11 12  1  0  0  0
 11 13  1  0  0  0
 11 14  1  0  0  0
  9 10  2  0  0  0
 31 26  1  0  0  0
 10  4  1  0  0  0
 34 29  1  0  0  0
 17 20  1  0  0  0
  2  3  1  0  0  0
 24 25  1  0  0  0
 33 35  1  0  0  0
M  END
> <minimizedAffinity>
-7.65917

> <minimizedRMSD>
0.85245

$$$$
P27240


 37 40  0  0  0  0  0  0  0  0999 V2000
   -7.8556    4.1558  -13.6440 C   0  0  0  0  0  0  0  0  0  0  0  0
   -9.2531    4.2338  -13.6014 O   0  0  0  0  0  0  0  0  0  0  0  0
   -9.5649    3.9715  -12.7211 H   0  0  0  0  0  0  0  0  0  0  0  0
   -7.4603    4.5906  -15.0781 C   0  0  0  0  0  0  0  0  0  0  0  0
   -8.3304    4.4044  -16.1506 C   0  0  0  0  0  0  0  0  0  0  0  0
   -7.8936    4.6529  -17.4552 C   0  0  0  0  0  0  0  0  0  0  0  0
   -9.0576    4.4277  -18.7148 Cl  0  0  0  0  0  0  0  0  0  0  0  0
   -6.5800    5.0693  -17.7053 C   0  0  0  0  0  0  0  0  0  0  0  0
   -5.8030    5.2962  -16.5699 C   0  0  0  0  0  0  0  0  0  0  0  0
   -6.2177    5.0756  -15.2883 N   0  0  0  0  0  0  0  0  0  0  0  0
   -4.4364    5.8890  -16.6842 C   0  0  0  0  0  0  0  0  0  0  0  0
   -4.4208    7.0553  -17.3876 F   0  0  0  0  0  0  0  0  0  0  0  0
   -3.5905    4.9584  -17.3332 O   0  0  0  0  0  0  0  0  0  0  0  0
   -3.6030    5.2046  -18.7098 C   0  0  0  0  0  0  0  0  0  0  0  0
   -4.8681    5.6345  -19.4841 C   0  0  0  0  0  0  0  0  0  0  0  0
   -4.7195    6.2363  -20.5514 O   0  0  0  0  0  0  0  0  0  0  0  0
   -6.1251    5.3292  -19.0231 N   0  0  0  0  0  0  0  0  0  0  0  0
   -6.8210    5.2834  -19.7180 H   0  0  0  0  0  0  0  0  0  0  0  0
   -5.5264    3.1556  -13.1860 N   0  0  0  0  0  0  0  0  0  0  0  0
   -7.0185    2.7619  -13.3881 C   0  0  0  0  0  0  0  0  0  0  0  0
   -7.5329    1.7125  -13.3737 O   0  0  0  0  0  0  0  0  0  0  0  0
   -5.3299    4.1107  -13.3220 H   0  0  0  0  0  0  0  0  0  0  0  0
   -3.5620    1.9987  -14.0670 C   0  0  0  0  0  0  0  0  0  0  0  0
   -4.3838    2.3476  -12.8316 C   0  0  0  0  0  0  0  0  0  0  0  0
   -3.5363    3.0619  -11.7866 C   0  0  0  0  0  0  0  0  0  0  0  0
   -7.4331    5.1353  -12.6323 N   0  0  0  0  0  0  0  0  0  0  0  0
   -6.8839    5.9118  -12.8865 H   0  0  0  0  0  0  0  0  0  0  0  0
   -7.8291    4.9435  -11.2868 C   0  0  0  0  0  0  0  0  0  0  0  0
   -7.4819    5.9581  -10.3711 C   0  0  0  0  0  0  0  0  0  0  0  0
   -7.7159    5.8276   -8.9970 C   0  0  0  0  0  0  0  0  0  0  0  0
   -8.2849    4.6573   -8.5351 C   0  0  0  0  0  0  0  0  0  0  0  0
   -8.6360    3.6459   -9.4121 C   0  0  0  0  0  0  0  0  0  0  0  0
   -8.4161    3.7701  -10.7762 C   0  0  0  0  0  0  0  0  0  0  0  0
   -9.2577    2.5181   -8.6582 C   0  0  0  0  0  0  0  0  0  0  0  0
   -9.0843    2.8473   -7.2172 N   0  0  0  0  0  0  0  0  0  0  0  0
   -8.6433    4.2555   -7.1472 C   0  0  0  0  0  0  0  0  0  0  0  0
   -8.3799    2.2383   -6.8009 H   0  0  0  0  0  0  0  0  0  0  0  0
 23 24  1  0  0  0
 24 25  1  0  0  0
 24 19  1  0  0  0
 19 20  1  0  0  0
 20 21  2  0  0  0
 20  1  1  0  0  0
  1  2  1  0  0  0
  1 26  1  0  0  0
 26 28  1  0  0  0
 28 29  2  0  0  0
 29 30  1  0  0  0
 30 31  2  0  0  0
 31 32  1  0  0  0
 32 33  2  0  0  0
 32 34  1  0  0  0
 34 35  1  0  0  0
 35 36  1  0  0  0
  1  4  1  0  0  0
  4  5  2  0  0  0
  5  6  1  0  0  0
  6  7  1  0  0  0
  6  8  2  0  0  0
  8  9  1  0  0  0
  9 10  2  0  0  0
  9 11  1  0  0  0
 11 12  1  0  0  0
 11 13  1  0  0  0
 13 14  1  0  0  0
 14 15  1  0  0  0
 15 16  2  0  0  0
 15 17  1  0  0  0
 33 28  1  0  0  0
 10  4  1  0  0  0
 36 31  1  0  0  0
 17  8  1  0  0  0
 19 22  1  0  0  0
  2  3  1  0  0  0
 26 27  1  0  0  0
 35 37  1  0  0  0
 17 18  1  0  0  0
M  END
> <minimizedAffinity>
-9.31501

> <minimizedRMSD>
0.41536

$$$$
P27242


 38 41  0  0  0  0  0  0  0  0999 V2000
   -7.3498    4.3006  -13.5661 C   0  0  0  0  0  0  0  0  0  0  0  0
   -6.6187    5.4044  -13.0372 O   0  0  0  0  0  0  0  0  0  0  0  0
   -6.5218    5.2983  -12.0779 H   0  0  0  0  0  0  0  0  0  0  0  0
   -7.4660    4.5307  -15.0792 C   0  0  0  0  0  0  0  0  0  0  0  0
   -8.7066    4.4031  -15.7578 C   0  0  0  0  0  0  0  0  0  0  0  0
   -8.8138    4.4522  -17.1523 C   0  0  0  0  0  0  0  0  0  0  0  0
  -10.3601    4.3153  -17.8940 Cl  0  0  0  0  0  0  0  0  0  0  0  0
   -7.6978    4.6128  -17.9625 C   0  0  0  0  0  0  0  0  0  0  0  0
   -6.4880    4.7653  -17.3015 C   0  0  0  0  0  0  0  0  0  0  0  0
   -5.2880    4.9211  -17.9275 O   0  0  0  0  0  0  0  0  0  0  0  0
   -4.3560    5.0693  -16.9574 C   0  0  0  0  0  0  0  0  0  0  0  0
   -4.9449    5.0278  -15.7157 C   0  0  0  0  0  0  0  0  0  0  0  0
   -4.3120    5.2273  -14.5324 N   0  0  0  0  0  0  0  0  0  0  0  0
   -6.3343    4.7702  -15.9145 C   0  0  0  0  0  0  0  0  0  0  0  0
   -3.3426    5.3979  -14.5153 H   0  0  0  0  0  0  0  0  0  0  0  0
   -4.8222    5.2015  -13.6908 H   0  0  0  0  0  0  0  0  0  0  0  0
   -3.1262    5.2486  -17.4108 O   0  0  0  0  0  0  0  0  0  0  0  0
   -2.9452    6.4439  -18.1477 C   0  0  0  0  0  0  0  0  0  0  0  0
   -3.4852    7.4790  -17.4467 F   0  0  0  0  0  0  0  0  0  0  0  0
   -5.4552    3.1292  -12.3222 N   0  0  0  0  0  0  0  0  0  0  0  0
   -6.6155    2.8679  -13.3233 C   0  0  0  0  0  0  0  0  0  0  0  0
   -6.9860    1.8706  -13.8101 O   0  0  0  0  0  0  0  0  0  0  0  0
   -5.2932    4.0785  -12.1175 H   0  0  0  0  0  0  0  0  0  0  0  0
   -3.2175    2.8303  -11.4130 C   0  0  0  0  0  0  0  0  0  0  0  0
   -4.5800    2.2095  -11.6465 C   0  0  0  0  0  0  0  0  0  0  0  0
   -5.2072    1.7352  -10.3408 C   0  0  0  0  0  0  0  0  0  0  0  0
   -8.6711    4.2815  -12.8944 N   0  0  0  0  0  0  0  0  0  0  0  0
   -9.5204    4.2704  -13.3922 H   0  0  0  0  0  0  0  0  0  0  0  0
   -8.6139    4.2803  -11.4739 C   0  0  0  0  0  0  0  0  0  0  0  0
   -8.1858    5.4334  -10.7784 C   0  0  0  0  0  0  0  0  0  0  0  0
   -8.0591    5.4427   -9.3865 C   0  0  0  0  0  0  0  0  0  0  0  0
   -8.3966    4.2938   -8.6964 C   0  0  0  0  0  0  0  0  0  0  0  0
   -8.8355    3.1606   -9.3655 C   0  0  0  0  0  0  0  0  0  0  0  0
   -8.9311    3.1285  -10.7468 C   0  0  0  0  0  0  0  0  0  0  0  0
   -9.1947    2.0990   -8.3845 C   0  0  0  0  0  0  0  0  0  0  0  0
   -8.9199    2.6688   -7.0366 N   0  0  0  0  0  0  0  0  0  0  0  0
   -8.4279    4.0472   -7.2291 C   0  0  0  0  0  0  0  0  0  0  0  0
   -8.2122    2.1098   -6.5600 H   0  0  0  0  0  0  0  0  0  0  0  0
 24 25  1  0  0  0
 25 26  1  0  0  0
 25 20  1  0  0  0
 20 21  1  0  0  0
 21 22  2  0  0  0
 21  1  1  0  0  0
  1  2  1  0  0  0
  1 27  1  0  0  0
 27 29  1  0  0  0
 29 30  2  0  0  0
 30 31  1  0  0  0
 31 32  2  0  0  0
 32 33  1  0  0  0
 33 34  2  0  0  0
 33 35  1  0  0  0
 35 36  1  0  0  0
 36 37  1  0  0  0
  1  4  1  0  0  0
  4  5  2  0  0  0
  5  6  1  0  0  0
  6  7  1  0  0  0
  6  8  2  0  0  0
  8  9  1  0  0  0
  9 10  1  0  0  0
 10 11  1  0  0  0
 11 17  1  0  0  0
 17 18  1  0  0  0
 18 19  1  0  0  0
 11 12  2  0  0  0
 12 13  1  0  0  0
 12 14  1  0  0  0
 34 29  1  0  0  0
 14  4  1  0  0  0
 37 32  1  0  0  0
 14  9  2  0  0  0
 20 23  1  0  0  0
  2  3  1  0  0  0
 27 28  1  0  0  0
 36 38  1  0  0  0
 13 15  1  0  0  0
 13 16  1  0  0  0
M  END
> <minimizedAffinity>
-8.45189

> <minimizedRMSD>
0.70816

$$$$
P27248


 40 44  0  0  0  0  0  0  0  0999 V2000
   -7.3651    4.2982  -13.9668 C   0  0  0  0  0  0  0  0  0  0  0  0
   -6.5766    5.4399  -13.6278 O   0  0  0  0  0  0  0  0  0  0  0  0
   -6.3644    5.4169  -12.6816 H   0  0  0  0  0  0  0  0  0  0  0  0
   -7.6601    4.4094  -15.4872 C   0  0  0  0  0  0  0  0  0  0  0  0
   -8.9497    4.1478  -16.0012 C   0  0  0  0  0  0  0  0  0  0  0  0
   -9.2437    4.2642  -17.3721 C   0  0  0  0  0  0  0  0  0  0  0  0
  -10.8349    4.0074  -17.9581 Cl  0  0  0  0  0  0  0  0  0  0  0  0
   -8.2718    4.6445  -18.2843 C   0  0  0  0  0  0  0  0  0  0  0  0
   -7.0051    4.8987  -17.8102 C   0  0  0  0  0  0  0  0  0  0  0  0
   -6.6984    4.7734  -16.4455 C   0  0  0  0  0  0  0  0  0  0  0  0
   -5.2422    5.0904  -16.2821 C   0  0  0  0  0  0  0  0  0  0  0  0
   -4.7899    5.2758  -17.7353 C   0  0  0  0  0  0  0  0  0  0  0  0
   -4.0449    4.2319  -18.1630 F   0  0  0  0  0  0  0  0  0  0  0  0
   -4.0121    6.3789  -17.8503 F   0  0  0  0  0  0  0  0  0  0  0  0
   -5.9509    5.4292  -18.5844 N   0  0  0  0  0  0  0  0  0  0  0  0
   -5.9953    5.8134  -19.4897 H   0  0  0  0  0  0  0  0  0  0  0  0
   -5.1768    3.3413  -13.1991 N   0  0  0  0  0  0  0  0  0  0  0  0
   -6.6052    2.9146  -13.6489 C   0  0  0  0  0  0  0  0  0  0  0  0
   -7.0889    1.8530  -13.7267 O   0  0  0  0  0  0  0  0  0  0  0  0
   -4.9842    4.3021  -13.2946 H   0  0  0  0  0  0  0  0  0  0  0  0
   -3.2785    1.9650  -13.8074 C   0  0  0  0  0  0  0  0  0  0  0  0
   -4.0900    2.5572  -12.6653 C   0  0  0  0  0  0  0  0  0  0  0  0
   -3.2232    3.3963  -11.7362 C   0  0  0  0  0  0  0  0  0  0  0  0
   -8.5995    4.4076  -13.1774 N   0  0  0  0  0  0  0  0  0  0  0  0
   -9.1944    3.6286  -13.4594 H   0  0  0  0  0  0  0  0  0  0  0  0
   -8.5605    4.3936  -11.7006 C   0  0  0  0  0  0  0  0  0  0  0  0
   -8.7128    3.0143  -11.0134 C   0  0  0  0  0  0  0  0  0  0  0  0
   -8.7756    3.1961   -9.5334 C   0  0  0  0  0  0  0  0  0  0  0  0
   -8.3818    4.2870   -8.8679 C   0  0  0  0  0  0  0  0  0  0  0  0
   -8.6478    4.0941   -7.4116 C   0  0  0  0  0  0  0  0  0  0  0  0
   -9.3942    2.8349   -7.2996 N   0  0  0  0  0  0  0  0  0  0  0  0
   -9.2632    2.1463   -8.6001 C   0  0  0  0  0  0  0  0  0  0  0  0
   -7.7091    5.4916   -9.4927 C   0  0  0  0  0  0  0  0  0  0  0  0
   -8.6015    6.7497   -9.3251 C   0  0  0  0  0  0  0  0  0  0  0  0
   -7.7664    8.0246   -9.2980 C   0  0  0  0  0  0  0  0  0  0  0  0
   -6.8428    8.0698   -8.2104 O   0  0  0  0  0  0  0  0  0  0  0  0
   -6.4234    6.7955   -7.7220 C   0  0  0  0  0  0  0  0  0  0  0  0
   -6.3268    5.7560   -8.8299 C   0  0  0  0  0  0  0  0  0  0  0  0
   -7.4482    5.2186  -11.0213 C   0  0  0  0  0  0  0  0  0  0  0  0
  -10.3762    3.0249   -7.0999 H   0  0  0  0  0  0  0  0  0  0  0  0
 21 22  1  0  0  0
 22 23  1  0  0  0
 22 17  1  0  0  0
 17 18  1  0  0  0
 18 19  2  0  0  0
 18  1  1  0  0  0
  1  2  1  0  0  0
  1 24  1  0  0  0
 26 24  1  0  0  0
 26 27  1  0  0  0
 27 28  1  0  0  0
 28 29  2  0  0  0
 29 30  1  0  0  0
 30 31  1  0  0  0
 31 32  1  0  0  0
 29 33  1  0  0  0
 33 34  1  0  0  0
 34 35  1  0  0  0
 35 36  1  0  0  0
 36 37  1  0  0  0
 37 38  1  0  0  0
 33 39  1  0  0  0
  1  4  1  0  0  0
  4  5  2  0  0  0
  5  6  1  0  0  0
  6  7  1  0  0  0
  6  8  2  0  0  0
  8  9  1  0  0  0
  9 10  2  0  0  0
 10 11  1  0  0  0
 11 12  1  0  0  0
 12 13  1  0  0  0
 12 14  1  0  0  0
 12 15  1  0  0  0
 39 26  1  0  0  0
 10  4  1  0  0  0
 32 28  1  0  0  0
 38 33  1  0  0  0
 15  9  1  0  0  0
 17 20  1  0  0  0
  2  3  1  0  0  0
 24 25  1  0  0  0
 31 40  1  0  0  0
 15 16  1  0  0  0
M  END
> <minimizedAffinity>
-10.12286

> <minimizedRMSD>
0.26509

$$$$
P27250


 37 41  0  0  0  0  0  0  0  0999 V2000
   -7.2746    4.1566  -13.6445 C   0  0  0  0  0  0  0  0  0  0  0  0
   -6.5705    5.3805  -13.4459 O   0  0  0  0  0  0  0  0  0  0  0  0
   -6.4077    5.5098  -12.4985 H   0  0  0  0  0  0  0  0  0  0  0  0
   -7.5207    3.9828  -15.2032 C   0  0  0  0  0  0  0  0  0  0  0  0
   -8.7387    4.7133  -15.8008 C   0  0  0  0  0  0  0  0  0  0  0  0
   -8.7892    4.3355  -17.2716 C   0  0  0  0  0  0  0  0  0  0  0  0
  -10.3286    4.6726  -18.0953 Cl  0  0  0  0  0  0  0  0  0  0  0  0
   -7.5771    4.8488  -18.0388 C   0  0  0  0  0  0  0  0  0  0  0  0
   -6.3039    5.0292  -17.1799 C   0  0  0  0  0  0  0  0  0  0  0  0
   -5.0553    4.8422  -18.0494 C   0  0  0  0  0  0  0  0  0  0  0  0
   -3.9633    5.5431  -17.2782 C   0  0  0  0  0  0  0  0  0  0  0  0
   -4.5894    6.6395  -16.6177 O   0  0  0  0  0  0  0  0  0  0  0  0
   -6.0049    6.4899  -16.7920 C   0  0  0  0  0  0  0  0  0  0  0  0
   -6.5660    6.8098  -15.6038 F   0  0  0  0  0  0  0  0  0  0  0  0
   -6.2446    4.2140  -15.9465 N   0  0  0  0  0  0  0  0  0  0  0  0
   -5.5990    4.6766  -15.3066 H   0  0  0  0  0  0  0  0  0  0  0  0
   -5.0272    3.4185  -12.8176 N   0  0  0  0  0  0  0  0  0  0  0  0
   -6.4179    2.8612  -13.2513 C   0  0  0  0  0  0  0  0  0  0  0  0
   -6.8060    1.7577  -13.3173 O   0  0  0  0  0  0  0  0  0  0  0  0
   -4.9719    4.4005  -12.7736 H   0  0  0  0  0  0  0  0  0  0  0  0
   -3.3156    1.9329  -13.6714 C   0  0  0  0  0  0  0  0  0  0  0  0
   -3.8098    2.7291  -12.4708 C   0  0  0  0  0  0  0  0  0  0  0  0
   -4.0006    1.8574  -11.2356 C   0  0  0  0  0  0  0  0  0  0  0  0
   -8.5305    4.2490  -12.9034 N   0  0  0  0  0  0  0  0  0  0  0  0
   -9.0642    3.4073  -13.1206 H   0  0  0  0  0  0  0  0  0  0  0  0
   -8.5071    4.3719  -11.4400 C   0  0  0  0  0  0  0  0  0  0  0  0
   -8.7028    3.0254  -10.7011 C   0  0  0  0  0  0  0  0  0  0  0  0
   -8.9839    3.3751   -9.2560 C   0  0  0  0  0  0  0  0  0  0  0  0
   -9.2612    2.3228   -8.2128 C   0  0  0  0  0  0  0  0  0  0  0  0
   -9.1919    3.1258   -6.9599 N   0  0  0  0  0  0  0  0  0  0  0  0
   -8.2391    4.2434   -7.1975 C   0  0  0  0  0  0  0  0  0  0  0  0
   -8.8355    5.6504   -7.0337 C   0  0  0  0  0  0  0  0  0  0  0  0
   -8.4851    6.6083   -8.5519 S   0  0  0  0  0  0  0  0  0  0  0  0
   -7.3950    5.3640   -9.2895 C   0  0  0  0  0  0  0  0  0  0  0  0
   -7.4055    5.2679  -10.8237 C   0  0  0  0  0  0  0  0  0  0  0  0
   -7.7906    4.0653   -8.6354 C   0  0  0  0  0  0  0  0  0  0  0  0
   -8.8607    2.5434   -6.1908 H   0  0  0  0  0  0  0  0  0  0  0  0
 21 22  1  0  0  0
 22 23  1  0  0  0
 22 17  1  0  0  0
 17 18  1  0  0  0
 18 19  2  0  0  0
 18  1  1  0  0  0
  1  2  1  0  0  0
  1 24  1  0  0  0
 26 24  1  0  0  0
 26 27  1  0  0  0
 28 27  1  0  0  0
 28 29  1  0  0  0
 29 30  1  0  0  0
 30 31  1  0  0  0
 31 32  1  0  0  0
 32 33  1  0  0  0
 33 34  1  0  0  0
 34 35  1  0  0  0
 36 34  1  0  0  0
  1  4  1  0  0  0
  4  5  1  0  0  0
  5  6  1  0  0  0
  6  7  1  0  0  0
  6  8  1  0  0  0
  9  8  1  0  0  0
  9 10  1  0  0  0
 10 11  1  0  0  0
 11 12  1  0  0  0
 12 13  1  0  0  0
 13 14  1  0  0  0
  9 15  1  0  0  0
 35 26  1  0  0  0
 15  4  1  0  0  0
 36 28  1  0  0  0
 13  9  1  0  0  0
 36 31  1  0  0  0
 17 20  1  0  0  0
  2  3  1  0  0  0
 24 25  1  0  0  0
 30 37  1  0  0  0
 15 16  1  0  0  0
M  END
> <minimizedAffinity>
-8.21073

> <minimizedRMSD>
0.27762

$$$$
P27251


 37 40  0  0  0  0  0  0  0  0999 V2000
   -7.7077    4.2396  -13.1166 C   0  0  0  0  0  0  0  0  0  0  0  0
   -9.0900    4.0282  -12.8984 O   0  0  0  0  0  0  0  0  0  0  0  0
   -9.2117    3.4644  -12.1185 H   0  0  0  0  0  0  0  0  0  0  0  0
   -7.6496    5.1699  -14.4114 C   0  0  0  0  0  0  0  0  0  0  0  0
   -8.6561    4.7728  -15.5107 C   0  0  0  0  0  0  0  0  0  0  0  0
   -7.8540    4.3563  -16.7194 C   0  0  0  0  0  0  0  0  0  0  0  0
   -8.5935    4.7900  -18.2551 Cl  0  0  0  0  0  0  0  0  0  0  0  0
   -6.4133    4.7411  -16.3999 C   0  0  0  0  0  0  0  0  0  0  0  0
   -5.4940    5.3826  -17.4500 C   0  0  0  0  0  0  0  0  0  0  0  0
   -4.1063    5.4696  -16.9296 N   0  0  0  0  0  0  0  0  0  0  0  0
   -4.0564    6.1139  -15.6246 C   0  0  0  0  0  0  0  0  0  0  0  0
   -4.0977    7.4558  -15.8333 F   0  0  0  0  0  0  0  0  0  0  0  0
   -2.8394    5.8491  -15.0771 F   0  0  0  0  0  0  0  0  0  0  0  0
   -5.1628    5.7102  -14.5933 C   0  0  0  0  0  0  0  0  0  0  0  0
   -6.4914    5.5971  -15.1990 N   0  0  0  0  0  0  0  0  0  0  0  0
   -3.5411    6.0087  -17.5856 H   0  0  0  0  0  0  0  0  0  0  0  0
   -5.3771    3.2136  -12.8691 N   0  0  0  0  0  0  0  0  0  0  0  0
   -6.8555    2.8761  -13.2044 C   0  0  0  0  0  0  0  0  0  0  0  0
   -7.3675    1.8482  -13.4131 O   0  0  0  0  0  0  0  0  0  0  0  0
   -5.2078    4.1603  -12.6584 H   0  0  0  0  0  0  0  0  0  0  0  0
   -3.6789    2.0444  -14.2090 C   0  0  0  0  0  0  0  0  0  0  0  0
   -4.2085    2.3627  -12.8161 C   0  0  0  0  0  0  0  0  0  0  0  0
   -3.1310    2.9989  -11.9474 C   0  0  0  0  0  0  0  0  0  0  0  0
   -7.2516    5.0172  -11.9399 N   0  0  0  0  0  0  0  0  0  0  0  0
   -6.5795    5.7286  -12.0464 H   0  0  0  0  0  0  0  0  0  0  0  0
   -7.7927    4.7278  -10.6526 C   0  0  0  0  0  0  0  0  0  0  0  0
   -8.3155    3.4652  -10.3012 C   0  0  0  0  0  0  0  0  0  0  0  0
   -8.7661    3.2354   -9.0111 C   0  0  0  0  0  0  0  0  0  0  0  0
   -8.6753    4.2095   -8.0316 C   0  0  0  0  0  0  0  0  0  0  0  0
   -8.1228    5.4424   -8.3112 C   0  0  0  0  0  0  0  0  0  0  0  0
   -7.6773    5.6991   -9.6187 C   0  0  0  0  0  0  0  0  0  0  0  0
   -9.2231    3.6693   -6.7542 C   0  0  0  0  0  0  0  0  0  0  0  0
   -9.9286    2.4248   -7.1181 N   0  0  0  0  0  0  0  0  0  0  0  0
   -9.3646    1.9979   -8.4250 C   0  0  0  0  0  0  0  0  0  0  0  0
  -10.9301    2.5980   -7.2045 H   0  0  0  0  0  0  0  0  0  0  0  0
   -7.0967    6.9864   -9.8770 C   0  0  0  0  0  0  0  0  0  0  0  0
   -6.6356    8.0278  -10.1058 N   0  0  0  0  0  0  0  0  0  0  0  0
 21 22  1  0  0  0
 22 23  1  0  0  0
 22 17  1  0  0  0
 17 18  1  0  0  0
 18 19  2  0  0  0
 18  1  1  0  0  0
  1  2  1  0  0  0
  1 24  1  0  0  0
 24 26  1  0  0  0
 26 27  2  0  0  0
 27 28  1  0  0  0
 28 29  2  0  0  0
 29 30  1  0  0  0
 30 31  2  0  0  0
 31 36  1  0  0  0
 36 37  3  0  0  0
 29 32  1  0  0  0
 32 33  1  0  0  0
 33 34  1  0  0  0
  1  4  1  0  0  0
  4  5  1  0  0  0
  5  6  1  0  0  0
  6  7  1  0  0  0
  6  8  1  0  0  0
  8  9  1  0  0  0
  9 10  1  0  0  0
 10 11  1  0  0  0
 11 12  1  0  0  0
 11 13  1  0  0  0
 11 14  1  0  0  0
 14 15  1  0  0  0
 31 26  1  0  0  0
 15  4  1  0  0  0
 34 28  1  0  0  0
 15  8  1  0  0  0
 17 20  1  0  0  0
  2  3  1  0  0  0
 24 25  1  0  0  0
 33 35  1  0  0  0
 10 16  1  0  0  0
M  END
> <minimizedAffinity>
-7.74072

> <minimizedRMSD>
0.65535

$$$$
P27252


 37 40  0  0  0  0  0  0  0  0999 V2000
   -7.2628    4.1895  -13.8990 C   0  0  0  0  0  0  0  0  0  0  0  0
   -6.4162    5.2668  -13.4960 O   0  0  0  0  0  0  0  0  0  0  0  0
   -6.2419    5.2024  -12.5440 H   0  0  0  0  0  0  0  0  0  0  0  0
   -7.4916    4.3601  -15.4096 C   0  0  0  0  0  0  0  0  0  0  0  0
   -8.7668    4.2116  -15.9992 C   0  0  0  0  0  0  0  0  0  0  0  0
   -8.9806    4.3892  -17.3773 C   0  0  0  0  0  0  0  0  0  0  0  0
  -10.5457    4.1930  -18.0547 Cl  0  0  0  0  0  0  0  0  0  0  0  0
   -7.9514    4.7843  -18.2141 C   0  0  0  0  0  0  0  0  0  0  0  0
   -6.7072    4.9629  -17.6605 C   0  0  0  0  0  0  0  0  0  0  0  0
   -6.4659    4.7023  -16.3031 C   0  0  0  0  0  0  0  0  0  0  0  0
   -4.9984    4.8713  -16.0744 C   0  0  0  0  0  0  0  0  0  0  0  0
   -4.5000    5.1618  -17.4980 C   0  0  0  0  0  0  0  0  0  0  0  0
   -3.5825    6.1516  -17.4500 F   0  0  0  0  0  0  0  0  0  0  0  0
   -3.9005    4.1020  -18.0809 F   0  0  0  0  0  0  0  0  0  0  0  0
   -5.6068    5.5396  -18.3423 N   0  0  0  0  0  0  0  0  0  0  0  0
   -5.5996    6.0627  -19.1762 H   0  0  0  0  0  0  0  0  0  0  0  0
   -5.1197    3.1304  -13.0776 N   0  0  0  0  0  0  0  0  0  0  0  0
   -6.5622    2.7789  -13.5601 C   0  0  0  0  0  0  0  0  0  0  0  0
   -7.1098    1.7460  -13.6234 O   0  0  0  0  0  0  0  0  0  0  0  0
   -4.8645    4.0741  -13.1934 H   0  0  0  0  0  0  0  0  0  0  0  0
   -3.0728    1.9286  -13.5477 C   0  0  0  0  0  0  0  0  0  0  0  0
   -4.1007    2.2968  -12.4898 C   0  0  0  0  0  0  0  0  0  0  0  0
   -3.4550    3.0036  -11.3054 C   0  0  0  0  0  0  0  0  0  0  0  0
   -8.5444    4.2975  -13.1531 N   0  0  0  0  0  0  0  0  0  0  0  0
   -9.4043    4.3176  -13.6320 H   0  0  0  0  0  0  0  0  0  0  0  0
   -8.5025    4.3712  -11.7372 C   0  0  0  0  0  0  0  0  0  0  0  0
   -8.6945    3.1974  -10.9880 C   0  0  0  0  0  0  0  0  0  0  0  0
   -8.6955    3.2660   -9.6055 C   0  0  0  0  0  0  0  0  0  0  0  0
   -8.4507    4.4596   -8.9408 C   0  0  0  0  0  0  0  0  0  0  0  0
   -8.2137    5.6278   -9.6401 C   0  0  0  0  0  0  0  0  0  0  0  0
   -8.2698    5.5924  -11.0453 C   0  0  0  0  0  0  0  0  0  0  0  0
   -8.5400    4.2225   -7.4705 C   0  0  0  0  0  0  0  0  0  0  0  0
   -9.1944    2.9082   -7.3236 N   0  0  0  0  0  0  0  0  0  0  0  0
   -8.9606    2.1874   -8.6043 C   0  0  0  0  0  0  0  0  0  0  0  0
  -10.1944    3.0265   -7.1611 H   0  0  0  0  0  0  0  0  0  0  0  0
   -8.1623    6.8449  -11.7444 C   0  0  0  0  0  0  0  0  0  0  0  0
   -8.0580    7.8252  -12.3595 N   0  0  0  0  0  0  0  0  0  0  0  0
 21 22  1  0  0  0
 22 23  1  0  0  0
 22 17  1  0  0  0
 17 18  1  0  0  0
 18 19  2  0  0  0
 18  1  1  0  0  0
  1  2  1  0  0  0
  1 24  1  0  0  0
 24 26  1  0  0  0
 26 27  2  0  0  0
 27 28  1  0  0  0
 28 29  2  0  0  0
 29 30  1  0  0  0
 30 31  2  0  0  0
 31 36  1  0  0  0
 36 37  3  0  0  0
 29 32  1  0  0  0
 32 33  1  0  0  0
 33 34  1  0  0  0
  1  4  1  0  0  0
  4  5  2  0  0  0
  5  6  1  0  0  0
  6  7  1  0  0  0
  6  8  2  0  0  0
  8  9  1  0  0  0
  9 10  2  0  0  0
 10 11  1  0  0  0
 11 12  1  0  0  0
 12 13  1  0  0  0
 12 14  1  0  0  0
 12 15  1  0  0  0
 31 26  1  0  0  0
 10  4  1  0  0  0
 34 28  1  0  0  0
 15  9  1  0  0  0
 17 20  1  0  0  0
  2  3  1  0  0  0
 24 25  1  0  0  0
 33 35  1  0  0  0
 15 16  1  0  0  0
M  END
> <minimizedAffinity>
-9.45700

> <minimizedRMSD>
0.20774

$$$$
P27256


 37 40  0  0  0  0  0  0  0  0999 V2000
   -7.1530    4.2261  -13.3753 C   0  0  0  0  0  0  0  0  0  0  0  0
   -7.2579    4.4976  -14.9001 C   0  0  0  0  0  0  0  0  0  0  0  0
   -8.4503    4.4143  -15.6370 C   0  0  0  0  0  0  0  0  0  0  0  0
   -8.4148    4.5221  -17.0334 C   0  0  0  0  0  0  0  0  0  0  0  0
   -9.8652    4.4812  -17.9511 Cl  0  0  0  0  0  0  0  0  0  0  0  0
   -7.1983    4.6916  -17.6541 C   0  0  0  0  0  0  0  0  0  0  0  0
   -6.1006    4.8969  -16.8437 C   0  0  0  0  0  0  0  0  0  0  0  0
   -6.0719    4.7923  -15.5048 N   0  0  0  0  0  0  0  0  0  0  0  0
   -4.9349    5.2135  -17.7294 C   0  0  0  0  0  0  0  0  0  0  0  0
   -4.5186    6.5123  -17.6524 F   0  0  0  0  0  0  0  0  0  0  0  0
   -3.8405    4.4450  -17.4742 F   0  0  0  0  0  0  0  0  0  0  0  0
   -5.5899    4.9268  -19.0638 C   0  0  0  0  0  0  0  0  0  0  0  0
   -6.8613    4.6545  -19.0157 N   0  0  0  0  0  0  0  0  0  0  0  0
   -4.9113    3.0411  -12.7816 N   0  0  0  0  0  0  0  0  0  0  0  0
   -6.3923    2.8166  -13.2050 C   0  0  0  0  0  0  0  0  0  0  0  0
   -6.9646    1.8294  -13.4653 O   0  0  0  0  0  0  0  0  0  0  0  0
   -4.6472    3.9851  -12.6901 H   0  0  0  0  0  0  0  0  0  0  0  0
   -3.0280    1.8834  -13.7713 C   0  0  0  0  0  0  0  0  0  0  0  0
   -3.8605    2.0881  -12.5008 C   0  0  0  0  0  0  0  0  0  0  0  0
   -3.0030    2.5439  -11.3302 C   0  0  0  0  0  0  0  0  0  0  0  0
   -6.3451    5.4511  -12.8762 C   0  0  0  0  0  0  0  0  0  0  0  0
   -6.5468    6.6369  -13.1421 O   0  0  0  0  0  0  0  0  0  0  0  0
   -8.5155    4.1043  -12.7521 N   0  0  0  0  0  0  0  0  0  0  0  0
   -9.3361    3.9739  -13.2800 H   0  0  0  0  0  0  0  0  0  0  0  0
   -8.5149    4.1936  -11.3389 C   0  0  0  0  0  0  0  0  0  0  0  0
   -8.3407    5.4411  -10.7063 C   0  0  0  0  0  0  0  0  0  0  0  0
   -8.3187    5.5642   -9.3171 C   0  0  0  0  0  0  0  0  0  0  0  0
   -8.5025    4.4211   -8.5707 C   0  0  0  0  0  0  0  0  0  0  0  0
   -8.6697    3.1783   -9.1760 C   0  0  0  0  0  0  0  0  0  0  0  0
   -8.6633    3.0431  -10.5545 C   0  0  0  0  0  0  0  0  0  0  0  0
   -8.7897    2.1512   -8.1020 C   0  0  0  0  0  0  0  0  0  0  0  0
   -9.9093    1.2713   -8.2271 N   0  0  0  0  0  0  0  0  0  0  0  0
   -9.0942    2.8868   -6.8799 N   0  0  0  0  0  0  0  0  0  0  0  0
   -8.5841    4.2526   -7.0924 C   0  0  0  0  0  0  0  0  0  0  0  0
  -10.7727    1.8137   -8.1992 H   0  0  0  0  0  0  0  0  0  0  0  0
   -9.9032    0.6019   -7.4576 H   0  0  0  0  0  0  0  0  0  0  0  0
   -8.6297    2.4550   -6.0810 H   0  0  0  0  0  0  0  0  0  0  0  0
 18 19  1  0  0  0
 19 20  1  0  0  0
 19 14  1  0  0  0
 14 15  1  0  0  0
 15 16  2  0  0  0
 15  1  1  0  0  0
  1 21  1  0  0  0
 21 22  2  0  0  0
  1 23  1  0  0  0
 23 25  1  0  0  0
 25 26  2  0  0  0
 26 27  1  0  0  0
 27 28  2  0  0  0
 28 29  1  0  0  0
 29 30  2  0  0  0
 29 31  1  0  0  0
 31 32  1  0  0  0
 31 33  1  0  0  0
 33 34  1  0  0  0
  1  2  1  0  0  0
  2  3  2  0  0  0
  3  4  1  0  0  0
  4  5  1  0  0  0
  4  6  2  0  0  0
  6  7  1  0  0  0
  7  8  2  0  0  0
  7  9  1  0  0  0
  9 10  1  0  0  0
  9 11  1  0  0  0
  9 12  1  0  0  0
 12 13  2  0  0  0
 30 25  1  0  0  0
  8  2  1  0  0  0
 34 28  1  0  0  0
 13  6  1  0  0  0
 14 17  1  0  0  0
 23 24  1  0  0  0
 32 35  1  0  0  0
 32 36  1  0  0  0
 33 37  1  0  0  0
M  END
> <minimizedAffinity>
-8.92872

> <minimizedRMSD>
0.67064

$$$$
P27257


 33 36  0  0  0  0  0  0  0  0999 V2000
   -7.3856    4.1839  -13.7091 C   0  0  0  0  0  0  0  0  0  0  0  0
   -7.4871    4.3892  -15.2309 C   0  0  0  0  0  0  0  0  0  0  0  0
   -8.7316    4.2984  -15.8861 C   0  0  0  0  0  0  0  0  0  0  0  0
   -8.8323    4.4364  -17.2676 C   0  0  0  0  0  0  0  0  0  0  0  0
  -10.3652    4.3025  -18.0359 Cl  0  0  0  0  0  0  0  0  0  0  0  0
   -7.7040    4.6962  -18.0319 C   0  0  0  0  0  0  0  0  0  0  0  0
   -6.4487    4.8201  -17.4251 C   0  0  0  0  0  0  0  0  0  0  0  0
   -5.3111    5.0828  -18.2073 C   0  0  0  0  0  0  0  0  0  0  0  0
   -5.4113    5.2370  -19.5366 F   0  0  0  0  0  0  0  0  0  0  0  0
   -4.0459    5.1946  -17.6472 C   0  0  0  0  0  0  0  0  0  0  0  0
   -3.8939    5.0446  -16.2797 C   0  0  0  0  0  0  0  0  0  0  0  0
   -5.0119    4.7869  -15.4812 C   0  0  0  0  0  0  0  0  0  0  0  0
   -6.3188    4.6641  -16.0165 C   0  0  0  0  0  0  0  0  0  0  0  0
   -5.3413    3.3983  -12.4489 N   0  0  0  0  0  0  0  0  0  0  0  0
   -6.5257    2.9042  -13.3373 C   0  0  0  0  0  0  0  0  0  0  0  0
   -6.7963    1.8278  -13.7095 O   0  0  0  0  0  0  0  0  0  0  0  0
   -5.3757    4.3526  -12.2092 H   0  0  0  0  0  0  0  0  0  0  0  0
   -4.6453    1.6867  -10.8540 C   0  0  0  0  0  0  0  0  0  0  0  0
   -4.1991    2.6799  -11.9197 C   0  0  0  0  0  0  0  0  0  0  0  0
   -3.4209    2.0062  -13.0554 C   0  0  0  0  0  0  0  0  0  0  0  0
   -2.8036    2.9754  -13.8012 F   0  0  0  0  0  0  0  0  0  0  0  0
   -8.7120    4.0843  -13.0492 N   0  0  0  0  0  0  0  0  0  0  0  0
   -9.5630    3.9705  -13.5310 H   0  0  0  0  0  0  0  0  0  0  0  0
   -8.5999    4.1738  -11.6369 C   0  0  0  0  0  0  0  0  0  0  0  0
   -8.0978    5.3428  -11.0301 C   0  0  0  0  0  0  0  0  0  0  0  0
   -7.9692    5.4375   -9.6406 C   0  0  0  0  0  0  0  0  0  0  0  0
   -8.3494    4.3515   -8.8726 C   0  0  0  0  0  0  0  0  0  0  0  0
   -8.8400    3.1949   -9.4612 C   0  0  0  0  0  0  0  0  0  0  0  0
   -8.9638    3.0849  -10.8352 C   0  0  0  0  0  0  0  0  0  0  0  0
   -9.2327    2.2173   -8.4079 C   0  0  0  0  0  0  0  0  0  0  0  0
   -8.8183    2.8199   -7.1118 N   0  0  0  0  0  0  0  0  0  0  0  0
   -8.3891    4.2052   -7.3915 C   0  0  0  0  0  0  0  0  0  0  0  0
   -8.0454    2.2888   -6.7107 H   0  0  0  0  0  0  0  0  0  0  0  0
 19 18  1  0  0  0
 19 20  1  0  0  0
 20 21  1  0  0  0
 19 14  1  0  0  0
 14 15  1  0  0  0
 15 16  2  0  0  0
 15  1  1  0  0  0
  1 22  1  0  0  0
 22 24  1  0  0  0
 24 25  2  0  0  0
 25 26  1  0  0  0
 26 27  2  0  0  0
 27 28  1  0  0  0
 28 29  2  0  0  0
 28 30  1  0  0  0
 30 31  1  0  0  0
 31 32  1  0  0  0
  1  2  1  0  0  0
  2  3  2  0  0  0
  3  4  1  0  0  0
  4  5  1  0  0  0
  4  6  2  0  0  0
  6  7  1  0  0  0
  7  8  2  0  0  0
  8  9  1  0  0  0
  8 10  1  0  0  0
 10 11  2  0  0  0
 11 12  1  0  0  0
 12 13  2  0  0  0
 29 24  1  0  0  0
 13  2  1  0  0  0
 32 27  1  0  0  0
 13  7  1  0  0  0
 14 17  1  0  0  0
 22 23  1  0  0  0
 31 33  1  0  0  0
M  END
> <minimizedAffinity>
-9.47674

> <minimizedRMSD>
0.20708

$$$$
P27259


 37 41  0  0  0  0  0  0  0  0999 V2000
   -7.4203    4.3363  -13.9944 C   0  0  0  0  0  0  0  0  0  0  0  0
   -6.7544    5.5529  -13.6420 O   0  0  0  0  0  0  0  0  0  0  0  0
   -6.5430    5.5433  -12.6953 H   0  0  0  0  0  0  0  0  0  0  0  0
   -7.7347    4.3915  -15.4883 C   0  0  0  0  0  0  0  0  0  0  0  0
   -8.9597    4.3214  -16.0613 C   0  0  0  0  0  0  0  0  0  0  0  0
   -9.1099    4.4086  -17.5044 C   0  0  0  0  0  0  0  0  0  0  0  0
  -10.6935    4.3596  -18.1625 Cl  0  0  0  0  0  0  0  0  0  0  0  0
   -8.0530    4.5790  -18.3142 C   0  0  0  0  0  0  0  0  0  0  0  0
   -6.7664    4.7227  -17.7437 C   0  0  0  0  0  0  0  0  0  0  0  0
   -5.5284    5.0251  -18.2197 C   0  0  0  0  0  0  0  0  0  0  0  0
   -4.7082    5.0582  -17.1037 C   0  0  0  0  0  0  0  0  0  0  0  0
   -5.3146    4.7725  -15.9614 N   0  0  0  0  0  0  0  0  0  0  0  0
   -6.6343    4.5844  -16.3468 N   0  0  0  0  0  0  0  0  0  0  0  0
   -3.3098    5.3952  -17.4238 C   0  0  0  0  0  0  0  0  0  0  0  0
   -3.4346    5.8499  -18.9298 C   0  0  0  0  0  0  0  0  0  0  0  0
   -4.8177    5.3396  -19.4663 C   0  0  0  0  0  0  0  0  0  0  0  0
   -2.6985    6.4660  -16.5388 C   0  0  0  0  0  0  0  0  0  0  0  0
   -3.5244    7.5454  -16.4553 F   0  0  0  0  0  0  0  0  0  0  0  0
   -5.1357    3.5452  -13.2160 N   0  0  0  0  0  0  0  0  0  0  0  0
   -6.5373    3.0207  -13.6545 C   0  0  0  0  0  0  0  0  0  0  0  0
   -6.9565    1.9285  -13.7046 O   0  0  0  0  0  0  0  0  0  0  0  0
   -5.0522    4.5257  -13.1893 H   0  0  0  0  0  0  0  0  0  0  0  0
   -3.5030    1.9043  -13.9769 C   0  0  0  0  0  0  0  0  0  0  0  0
   -3.9412    2.8262  -12.8428 C   0  0  0  0  0  0  0  0  0  0  0  0
   -4.1571    2.0598  -11.5427 C   0  0  0  0  0  0  0  0  0  0  0  0
   -8.6856    4.2389  -13.2224 N   0  0  0  0  0  0  0  0  0  0  0  0
   -9.5625    4.1457  -13.6601 H   0  0  0  0  0  0  0  0  0  0  0  0
   -8.5450    4.2892  -11.8098 C   0  0  0  0  0  0  0  0  0  0  0  0
   -8.1088    5.4626  -11.1672 C   0  0  0  0  0  0  0  0  0  0  0  0
   -8.0070    5.5353   -9.7727 C   0  0  0  0  0  0  0  0  0  0  0  0
   -8.3496    4.4206   -9.0287 C   0  0  0  0  0  0  0  0  0  0  0  0
   -8.7720    3.2538   -9.6462 C   0  0  0  0  0  0  0  0  0  0  0  0
   -8.8676    3.1674  -11.0275 C   0  0  0  0  0  0  0  0  0  0  0  0
   -9.1157    2.2334   -8.6153 C   0  0  0  0  0  0  0  0  0  0  0  0
   -8.8195    2.8557   -7.2951 N   0  0  0  0  0  0  0  0  0  0  0  0
   -8.3923    4.2462   -7.5513 C   0  0  0  0  0  0  0  0  0  0  0  0
   -8.0733    2.3419   -6.8266 H   0  0  0  0  0  0  0  0  0  0  0  0
 23 24  1  0  0  0
 24 25  1  0  0  0
 24 19  1  0  0  0
 19 20  1  0  0  0
 20 21  2  0  0  0
 20  1  1  0  0  0
  1  2  1  0  0  0
  1 26  1  0  0  0
 26 28  1  0  0  0
 28 29  2  0  0  0
 29 30  1  0  0  0
 30 31  2  0  0  0
 31 32  1  0  0  0
 32 33  2  0  0  0
 32 34  1  0  0  0
 34 35  1  0  0  0
 35 36  1  0  0  0
  1  4  1  0  0  0
  4  5  2  0  0  0
  5  6  1  0  0  0
  6  7  1  0  0  0
  6  8  2  0  0  0
  8  9  1  0  0  0
  9 10  2  0  0  0
 10 11  1  0  0  0
 11 12  2  0  0  0
 12 13  1  0  0  0
 11 14  1  0  0  0
 14 17  1  0  0  0
 17 18  1  0  0  0
 14 15  1  0  0  0
 15 16  1  0  0  0
 33 28  1  0  0  0
 13  4  1  0  0  0
 36 31  1  0  0  0
 13  9  1  0  0  0
 16 10  1  0  0  0
 19 22  1  0  0  0
  2  3  1  0  0  0
 26 27  1  0  0  0
 35 37  1  0  0  0
M  END
> <minimizedAffinity>
-9.71573

> <minimizedRMSD>
0.38692

$$$$
P27260


 38 41  0  0  0  0  0  0  0  0999 V2000
   -7.3164    4.2318  -13.7668 C   0  0  0  0  0  0  0  0  0  0  0  0
   -6.5916    5.3892  -13.3861 O   0  0  0  0  0  0  0  0  0  0  0  0
   -6.4175    5.3624  -12.4322 H   0  0  0  0  0  0  0  0  0  0  0  0
   -7.5432    4.3599  -15.2729 C   0  0  0  0  0  0  0  0  0  0  0  0
   -8.7606    4.2839  -15.8650 C   0  0  0  0  0  0  0  0  0  0  0  0
   -8.9035    4.4379  -17.3042 C   0  0  0  0  0  0  0  0  0  0  0  0
  -10.4739    4.3239  -17.9977 Cl  0  0  0  0  0  0  0  0  0  0  0  0
   -7.8480    4.7022  -18.0905 C   0  0  0  0  0  0  0  0  0  0  0  0
   -6.5607    4.8193  -17.5088 C   0  0  0  0  0  0  0  0  0  0  0  0
   -5.3206    5.1134  -18.0166 C   0  0  0  0  0  0  0  0  0  0  0  0
   -5.0365    5.4081  -19.2876 F   0  0  0  0  0  0  0  0  0  0  0  0
   -4.4121    5.0469  -16.9703 C   0  0  0  0  0  0  0  0  0  0  0  0
   -3.1015    5.2720  -17.0268 F   0  0  0  0  0  0  0  0  0  0  0  0
   -5.0842    4.7039  -15.8299 C   0  0  0  0  0  0  0  0  0  0  0  0
   -6.4330    4.6044  -16.1273 N   0  0  0  0  0  0  0  0  0  0  0  0
   -5.1743    3.1961  -12.8725 N   0  0  0  0  0  0  0  0  0  0  0  0
   -6.5725    2.8188  -13.4598 C   0  0  0  0  0  0  0  0  0  0  0  0
   -7.0601    1.7700  -13.6422 O   0  0  0  0  0  0  0  0  0  0  0  0
   -5.0261    4.1614  -12.7478 H   0  0  0  0  0  0  0  0  0  0  0  0
   -3.2569    1.9694  -13.7168 C   0  0  0  0  0  0  0  0  0  0  0  0
   -4.0645    2.3582  -12.4832 C   0  0  0  0  0  0  0  0  0  0  0  0
   -3.1986    3.0620  -11.4480 C   0  0  0  0  0  0  0  0  0  0  0  0
   -8.5874    4.3673  -13.0275 N   0  0  0  0  0  0  0  0  0  0  0  0
   -9.4456    4.4704  -13.4988 H   0  0  0  0  0  0  0  0  0  0  0  0
   -8.5222    4.3430  -11.6159 C   0  0  0  0  0  0  0  0  0  0  0  0
   -8.0684    5.4785  -10.9039 C   0  0  0  0  0  0  0  0  0  0  0  0
   -7.9402    5.4711   -9.5108 C   0  0  0  0  0  0  0  0  0  0  0  0
   -8.3182    4.3316   -8.8258 C   0  0  0  0  0  0  0  0  0  0  0  0
   -8.7776    3.2099   -9.5149 C   0  0  0  0  0  0  0  0  0  0  0  0
   -8.8543    3.1877  -10.9015 C   0  0  0  0  0  0  0  0  0  0  0  0
   -9.1390    2.1397   -8.5338 C   0  0  0  0  0  0  0  0  0  0  0  0
   -9.1965    2.8249   -7.2164 N   0  0  0  0  0  0  0  0  0  0  0  0
   -8.3207    4.0283   -7.3554 C   0  0  0  0  0  0  0  0  0  0  0  0
   -8.8465    2.2121   -6.4800 H   0  0  0  0  0  0  0  0  0  0  0  0
   -8.8228    5.1663   -6.4683 C   0  0  0  0  0  0  0  0  0  0  0  0
   -9.9547    5.3434   -6.0399 O   0  0  0  0  0  0  0  0  0  0  0  0
   -7.8648    6.0783   -6.1727 O   0  0  0  0  0  0  0  0  0  0  0  0
   -6.9915    5.9606   -6.4914 H   0  0  0  0  0  0  0  0  0  0  0  0
 20 21  1  0  0  0
 21 22  1  0  0  0
 21 16  1  0  0  0
 16 17  1  0  0  0
 17 18  2  0  0  0
 17  1  1  0  0  0
  1  2  1  0  0  0
  1 23  1  0  0  0
 23 25  1  0  0  0
 25 26  2  0  0  0
 26 27  1  0  0  0
 27 28  2  0  0  0
 28 29  1  0  0  0
 29 30  2  0  0  0
 29 31  1  0  0  0
 31 32  1  0  0  0
 32 33  1  0  0  0
 33 35  1  0  0  0
 35 36  2  0  0  0
 35 37  1  0  0  0
  1  4  1  0  0  0
  4  5  2  0  0  0
  5  6  1  0  0  0
  6  7  1  0  0  0
  6  8  2  0  0  0
  8  9  1  0  0  0
  9 10  2  0  0  0
 10 11  1  0  0  0
 10 12  1  0  0  0
 12 13  1  0  0  0
 12 14  2  0  0  0
 14 15  1  0  0  0
 30 25  1  0  0  0
 15  4  1  0  0  0
 33 28  1  0  0  0
 15  9  1  0  0  0
 16 19  1  0  0  0
  2  3  1  0  0  0
 23 24  1  0  0  0
 32 34  1  0  0  0
 37 38  1  0  0  0
M  END
> <minimizedAffinity>
-9.43327

> <minimizedRMSD>
0.30233

$$$$
P27263


 36 39  0  0  0  0  0  0  0  0999 V2000
   -7.7812    4.0495  -13.5945 C   0  0  0  0  0  0  0  0  0  0  0  0
   -9.1597    3.9837  -13.3483 O   0  0  0  0  0  0  0  0  0  0  0  0
   -9.3114    3.7332  -12.4235 H   0  0  0  0  0  0  0  0  0  0  0  0
   -7.6736    4.4488  -15.0682 C   0  0  0  0  0  0  0  0  0  0  0  0
   -8.8207    4.3625  -15.9414 C   0  0  0  0  0  0  0  0  0  0  0  0
   -8.8428    4.5154  -17.3688 C   0  0  0  0  0  0  0  0  0  0  0  0
  -10.3603    4.3771  -18.1718 Cl  0  0  0  0  0  0  0  0  0  0  0  0
   -7.7094    4.7756  -18.1385 C   0  0  0  0  0  0  0  0  0  0  0  0
   -6.6097    4.8857  -17.3106 C   0  0  0  0  0  0  0  0  0  0  0  0
   -5.3378    5.0953  -17.7508 C   0  0  0  0  0  0  0  0  0  0  0  0
   -4.9650    5.2385  -19.0235 F   0  0  0  0  0  0  0  0  0  0  0  0
   -4.5462    5.0964  -16.6502 N   0  0  0  0  0  0  0  0  0  0  0  0
   -3.1880    5.2696  -16.6691 F   0  0  0  0  0  0  0  0  0  0  0  0
   -5.2597    4.9054  -15.4969 C   0  0  0  0  0  0  0  0  0  0  0  0
   -6.5715    4.7440  -15.8772 C   0  0  0  0  0  0  0  0  0  0  0  0
   -6.8449    2.7110  -13.3865 C   0  0  0  0  0  0  0  0  0  0  0  0
   -7.2413    1.6301  -13.5867 O   0  0  0  0  0  0  0  0  0  0  0  0
   -5.4443    3.1995  -12.9209 N   0  0  0  0  0  0  0  0  0  0  0  0
   -5.3353    4.1777  -12.8981 H   0  0  0  0  0  0  0  0  0  0  0  0
   -4.2769    2.4510  -12.5163 C   0  0  0  0  0  0  0  0  0  0  0  0
   -3.4630    2.0363  -13.7383 C   0  0  0  0  0  0  0  0  0  0  0  0
   -3.4341    3.2594  -11.5385 C   0  0  0  0  0  0  0  0  0  0  0  0
   -7.3405    5.1007  -12.6688 N   0  0  0  0  0  0  0  0  0  0  0  0
   -6.8043    5.8678  -12.9740 H   0  0  0  0  0  0  0  0  0  0  0  0
   -8.4326    4.3319   -7.1095 C   0  0  0  0  0  0  0  0  0  0  0  0
   -9.2651    3.1120   -7.2140 N   0  0  0  0  0  0  0  0  0  0  0  0
   -9.0647    2.5701   -8.5795 C   0  0  0  0  0  0  0  0  0  0  0  0
   -8.5145    3.7104   -9.3713 C   0  0  0  0  0  0  0  0  0  0  0  0
   -8.2828    3.7826  -10.7365 C   0  0  0  0  0  0  0  0  0  0  0  0
   -7.7314    4.9522  -11.2975 C   0  0  0  0  0  0  0  0  0  0  0  0
   -7.4314    6.0180  -10.4267 C   0  0  0  0  0  0  0  0  0  0  0  0
   -7.6560    5.9291   -9.0439 C   0  0  0  0  0  0  0  0  0  0  0  0
   -8.1899    4.7618   -8.5271 C   0  0  0  0  0  0  0  0  0  0  0  0
  -10.2477    3.3444   -7.0695 H   0  0  0  0  0  0  0  0  0  0  0  0
  -10.1971    4.8062   -5.3353 C   0  0  0  0  0  0  0  0  0  0  0  0
   -9.0886    5.3836   -6.2079 C   0  0  0  0  0  0  0  0  0  0  0  0
 35 36  1  0  0  0
 25 36  1  0  0  0
 25 26  1  0  0  0
 26 27  1  0  0  0
 27 28  1  0  0  0
 28 29  2  0  0  0
 29 30  1  0  0  0
 30 23  1  0  0  0
 23  1  1  0  0  0
  1  2  1  0  0  0
  1 16  1  0  0  0
 16 17  2  0  0  0
 16 18  1  0  0  0
 18 20  1  0  0  0
 20 21  1  0  0  0
 20 22  1  0  0  0
  1  4  1  0  0  0
  4  5  2  0  0  0
  5  6  1  0  0  0
  6  7  1  0  0  0
  6  8  2  0  0  0
  8  9  1  0  0  0
  9 10  2  0  0  0
 10 11  1  0  0  0
 10 12  1  0  0  0
 12 13  1  0  0  0
 12 14  1  0  0  0
 14 15  2  0  0  0
 30 31  2  0  0  0
 31 32  1  0  0  0
 32 33  2  0  0  0
 33 25  1  0  0  0
 33 28  1  0  0  0
 15  4  1  0  0  0
 15  9  1  0  0  0
 26 34  1  0  0  0
 23 24  1  0  0  0
  2  3  1  0  0  0
 18 19  1  0  0  0
M  END
> <minimizedAffinity>
-9.67401

> <minimizedRMSD>
0.40108

$$$$
P27270


 33 36  0  0  0  0  0  0  0  0999 V2000
   -7.4150    4.0871  -13.8247 C   0  0  0  0  0  0  0  0  0  0  0  0
   -7.5958    4.3226  -15.3293 C   0  0  0  0  0  0  0  0  0  0  0  0
   -8.8336    4.1780  -15.9816 C   0  0  0  0  0  0  0  0  0  0  0  0
   -8.9715    4.3847  -17.3654 C   0  0  0  0  0  0  0  0  0  0  0  0
  -10.5133    4.2150  -18.1007 Cl  0  0  0  0  0  0  0  0  0  0  0  0
   -7.8928    4.7836  -18.1440 C   0  0  0  0  0  0  0  0  0  0  0  0
   -6.6814    4.9852  -17.5180 C   0  0  0  0  0  0  0  0  0  0  0  0
   -6.5305    4.7210  -16.1456 C   0  0  0  0  0  0  0  0  0  0  0  0
   -5.1007    4.9562  -15.7890 C   0  0  0  0  0  0  0  0  0  0  0  0
   -4.4713    5.1903  -17.1706 C   0  0  0  0  0  0  0  0  0  0  0  0
   -3.5823    6.2100  -17.0702 F   0  0  0  0  0  0  0  0  0  0  0  0
   -3.7659    4.1004  -17.5625 F   0  0  0  0  0  0  0  0  0  0  0  0
   -5.5196    5.5349  -18.1223 N   0  0  0  0  0  0  0  0  0  0  0  0
   -5.3383    4.7497  -19.3146 F   0  0  0  0  0  0  0  0  0  0  0  0
   -5.2257    3.1852  -12.9301 N   0  0  0  0  0  0  0  0  0  0  0  0
   -6.6104    2.7593  -13.5057 C   0  0  0  0  0  0  0  0  0  0  0  0
   -7.0656    1.6947  -13.6746 O   0  0  0  0  0  0  0  0  0  0  0  0
   -5.1071    4.1560  -12.8167 H   0  0  0  0  0  0  0  0  0  0  0  0
   -3.2753    2.0005  -13.7678 C   0  0  0  0  0  0  0  0  0  0  0  0
   -4.0877    2.3861  -12.5360 C   0  0  0  0  0  0  0  0  0  0  0  0
   -3.2374    3.1274  -11.5145 C   0  0  0  0  0  0  0  0  0  0  0  0
   -8.7168    4.0506  -13.1131 N   0  0  0  0  0  0  0  0  0  0  0  0
   -9.5865    3.9580  -13.5651 H   0  0  0  0  0  0  0  0  0  0  0  0
   -8.5646    4.1646  -11.7062 C   0  0  0  0  0  0  0  0  0  0  0  0
   -8.0367    5.3377  -11.1326 C   0  0  0  0  0  0  0  0  0  0  0  0
   -7.8995    5.4656   -9.7454 C   0  0  0  0  0  0  0  0  0  0  0  0
   -8.2930    4.4069   -8.9459 C   0  0  0  0  0  0  0  0  0  0  0  0
   -8.8030    3.2432   -9.5016 C   0  0  0  0  0  0  0  0  0  0  0  0
   -8.9376    3.1019  -10.8725 C   0  0  0  0  0  0  0  0  0  0  0  0
   -9.2020    2.2976   -8.4211 C   0  0  0  0  0  0  0  0  0  0  0  0
   -8.7760    2.9290   -7.1420 N   0  0  0  0  0  0  0  0  0  0  0  0
   -8.3247    4.2991   -7.4612 C   0  0  0  0  0  0  0  0  0  0  0  0
   -8.0111    2.3968   -6.7271 H   0  0  0  0  0  0  0  0  0  0  0  0
 19 20  1  0  0  0
 20 21  1  0  0  0
 20 15  1  0  0  0
 15 16  1  0  0  0
 16 17  2  0  0  0
 16  1  1  0  0  0
  1 22  1  0  0  0
 22 24  1  0  0  0
 24 25  2  0  0  0
 25 26  1  0  0  0
 26 27  2  0  0  0
 27 28  1  0  0  0
 28 29  2  0  0  0
 28 30  1  0  0  0
 30 31  1  0  0  0
 31 32  1  0  0  0
  1  2  1  0  0  0
  2  3  2  0  0  0
  3  4  1  0  0  0
  4  5  1  0  0  0
  4  6  2  0  0  0
  6  7  1  0  0  0
  7  8  2  0  0  0
  8  9  1  0  0  0
  9 10  1  0  0  0
 10 11  1  0  0  0
 10 12  1  0  0  0
 10 13  1  0  0  0
 13 14  1  0  0  0
 29 24  1  0  0  0
  8  2  1  0  0  0
 32 27  1  0  0  0
 13  7  1  0  0  0
 15 18  1  0  0  0
 22 23  1  0  0  0
 31 33  1  0  0  0
M  END
> <minimizedAffinity>
-9.87909

> <minimizedRMSD>
0.23804

$$$$
P27271


 32 34  0  0  0  0  0  0  0  0999 V2000
   -7.8305    3.7910  -13.8008 C   0  0  0  0  0  0  0  0  0  0  0  0
   -7.8006    4.2142  -15.2791 C   0  0  0  0  0  0  0  0  0  0  0  0
   -9.0108    4.2577  -15.9648 C   0  0  0  0  0  0  0  0  0  0  0  0
   -9.0176    4.4863  -17.3302 C   0  0  0  0  0  0  0  0  0  0  0  0
  -10.5054    4.4925  -18.1834 Cl  0  0  0  0  0  0  0  0  0  0  0  0
   -7.8359    4.7207  -18.0032 C   0  0  0  0  0  0  0  0  0  0  0  0
   -6.6569    4.7546  -17.2679 C   0  0  0  0  0  0  0  0  0  0  0  0
   -6.6312    4.5274  -15.9070 N   0  0  0  0  0  0  0  0  0  0  0  0
   -5.3831    5.1434  -18.0114 C   0  0  0  0  0  0  0  0  0  0  0  0
   -4.2433    4.6020  -17.4960 F   0  0  0  0  0  0  0  0  0  0  0  0
   -5.3857    4.7988  -19.3320 F   0  0  0  0  0  0  0  0  0  0  0  0
   -5.1839    6.4989  -17.9971 F   0  0  0  0  0  0  0  0  0  0  0  0
   -5.4058    3.5167  -13.1831 N   0  0  0  0  0  0  0  0  0  0  0  0
   -6.7192    2.7436  -13.4552 C   0  0  0  0  0  0  0  0  0  0  0  0
   -6.9486    1.5995  -13.4029 O   0  0  0  0  0  0  0  0  0  0  0  0
   -5.4490    4.4820  -13.3715 H   0  0  0  0  0  0  0  0  0  0  0  0
   -3.2452    4.2212  -12.2800 C   0  0  0  0  0  0  0  0  0  0  0  0
   -4.1255    3.0513  -12.6971 C   0  0  0  0  0  0  0  0  0  0  0  0
   -3.4278    2.1478  -13.7141 C   0  0  0  0  0  0  0  0  0  0  0  0
   -3.7969    2.5025  -14.9777 F   0  0  0  0  0  0  0  0  0  0  0  0
   -7.8202    4.9498  -12.8824 N   0  0  0  0  0  0  0  0  0  0  0  0
   -7.5825    5.8440  -13.2186 H   0  0  0  0  0  0  0  0  0  0  0  0
   -8.1511    4.7708  -11.5267 C   0  0  0  0  0  0  0  0  0  0  0  0
   -7.8614    5.8358  -10.6470 C   0  0  0  0  0  0  0  0  0  0  0  0
   -7.9974    5.7106   -9.2580 C   0  0  0  0  0  0  0  0  0  0  0  0
   -8.4324    4.5032   -8.7482 C   0  0  0  0  0  0  0  0  0  0  0  0
   -8.7287    3.4431   -9.5910 C   0  0  0  0  0  0  0  0  0  0  0  0
   -8.5848    3.5550  -10.9670 C   0  0  0  0  0  0  0  0  0  0  0  0
   -9.1370    2.2592   -8.7738 C   0  0  0  0  0  0  0  0  0  0  0  0
   -9.3655    2.7915   -7.4035 N   0  0  0  0  0  0  0  0  0  0  0  0
   -8.6289    4.0697   -7.3347 C   0  0  0  0  0  0  0  0  0  0  0  0
   -9.0084    2.1388   -6.7057 H   0  0  0  0  0  0  0  0  0  0  0  0
 18 17  1  0  0  0
 18 19  1  0  0  0
 19 20  1  0  0  0
 18 13  1  0  0  0
 13 14  1  0  0  0
 14 15  2  0  0  0
 14  1  1  0  0  0
  1 21  1  0  0  0
 21 23  1  0  0  0
 23 24  2  0  0  0
 24 25  1  0  0  0
 25 26  2  0  0  0
 26 27  1  0  0  0
 27 28  2  0  0  0
 27 29  1  0  0  0
 29 30  1  0  0  0
 30 31  1  0  0  0
  1  2  1  0  0  0
  2  3  2  0  0  0
  3  4  1  0  0  0
  4  5  1  0  0  0
  4  6  2  0  0  0
  6  7  1  0  0  0
  7  9  1  0  0  0
  9 10  1  0  0  0
  9 11  1  0  0  0
  9 12  1  0  0  0
  7  8  2  0  0  0
 28 23  1  0  0  0
  8  2  1  0  0  0
 31 26  1  0  0  0
 13 16  1  0  0  0
 21 22  1  0  0  0
 30 32  1  0  0  0
M  END
> <minimizedAffinity>
-8.27562

> <minimizedRMSD>
0.51765

$$$$
P27274


 42 46  0  0  0  0  0  0  0  0999 V2000
   -7.4426    3.3846  -13.3872 C   0  0  0  0  0  0  0  0  0  0  0  0
   -7.7105    2.0094  -13.4913 O   0  0  0  0  0  0  0  0  0  0  0  0
   -7.6722    1.6050  -12.6105 H   0  0  0  0  0  0  0  0  0  0  0  0
   -7.5086    4.0080  -14.7992 C   0  0  0  0  0  0  0  0  0  0  0  0
   -8.7386    4.0604  -15.4680 C   0  0  0  0  0  0  0  0  0  0  0  0
   -8.7936    4.4343  -16.8016 C   0  0  0  0  0  0  0  0  0  0  0  0
  -10.2677    4.3831  -17.6748 Cl  0  0  0  0  0  0  0  0  0  0  0  0
   -7.5902    4.7964  -17.3867 C   0  0  0  0  0  0  0  0  0  0  0  0
   -7.2538    5.1444  -18.6647 N   0  0  0  0  0  0  0  0  0  0  0  0
   -5.9145    5.4338  -18.7408 C   0  0  0  0  0  0  0  0  0  0  0  0
   -5.3552    5.2614  -17.4888 C   0  0  0  0  0  0  0  0  0  0  0  0
   -6.4216    4.8374  -16.6413 C   0  0  0  0  0  0  0  0  0  0  0  0
   -6.3679    4.5145  -15.3261 N   0  0  0  0  0  0  0  0  0  0  0  0
   -7.8819    5.1820  -19.4219 H   0  0  0  0  0  0  0  0  0  0  0  0
   -3.9256    5.4237  -17.0418 C   0  0  0  0  0  0  0  0  0  0  0  0
   -3.6496    4.4133  -16.1501 F   0  0  0  0  0  0  0  0  0  0  0  0
   -3.7402    6.7483  -16.2655 C   0  0  0  0  0  0  0  0  0  0  0  0
   -2.5005    7.5269  -16.6977 C   0  0  0  0  0  0  0  0  0  0  0  0
   -2.5261    7.7968  -18.1346 N   0  0  0  0  0  0  0  0  0  0  0  0
   -2.7217    6.5874  -18.9460 C   0  0  0  0  0  0  0  0  0  0  0  0
   -2.8602    5.2946  -18.1446 C   0  0  0  0  0  0  0  0  0  0  0  0
   -3.0902    4.2506  -18.9876 F   0  0  0  0  0  0  0  0  0  0  0  0
   -1.6396    8.2256  -18.4000 H   0  0  0  0  0  0  0  0  0  0  0  0
   -5.5204    4.8938  -12.6012 N   0  0  0  0  0  0  0  0  0  0  0  0
   -5.9599    3.4145  -12.7996 C   0  0  0  0  0  0  0  0  0  0  0  0
   -5.3765    2.4168  -12.6056 O   0  0  0  0  0  0  0  0  0  0  0  0
   -6.1723    5.5629  -12.9118 H   0  0  0  0  0  0  0  0  0  0  0  0
   -3.0984    5.0209  -12.8650 C   0  0  0  0  0  0  0  0  0  0  0  0
   -4.3138    5.4435  -12.0364 C   0  0  0  0  0  0  0  0  0  0  0  0
   -4.1607    4.9990  -10.5867 C   0  0  0  0  0  0  0  0  0  0  0  0
   -8.4781    4.0230  -12.5608 N   0  0  0  0  0  0  0  0  0  0  0  0
   -9.1987    4.5125  -13.0194 H   0  0  0  0  0  0  0  0  0  0  0  0
   -8.5016    3.9773  -11.1683 C   0  0  0  0  0  0  0  0  0  0  0  0
   -8.2057    5.1685  -10.4665 C   0  0  0  0  0  0  0  0  0  0  0  0
   -8.2364    5.2364   -9.0690 C   0  0  0  0  0  0  0  0  0  0  0  0
   -8.6196    4.1097   -8.3714 C   0  0  0  0  0  0  0  0  0  0  0  0
   -8.9719    2.9506   -9.0415 C   0  0  0  0  0  0  0  0  0  0  0  0
   -8.9032    2.8619  -10.4242 C   0  0  0  0  0  0  0  0  0  0  0  0
   -9.4415    1.9257   -8.0658 C   0  0  0  0  0  0  0  0  0  0  0  0
   -9.1869    2.4984   -6.7142 N   0  0  0  0  0  0  0  0  0  0  0  0
   -8.7777    3.9042   -6.9060 C   0  0  0  0  0  0  0  0  0  0  0  0
   -8.4431    1.9783   -6.2487 H   0  0  0  0  0  0  0  0  0  0  0  0
 28 29  1  0  0  0
 29 30  1  0  0  0
 29 24  1  0  0  0
 24 25  1  0  0  0
 25 26  2  0  0  0
 25  1  1  0  0  0
  1  2  1  0  0  0
  1 31  1  0  0  0
 31 33  1  0  0  0
 33 34  2  0  0  0
 34 35  1  0  0  0
 35 36  2  0  0  0
 36 37  1  0  0  0
 37 38  2  0  0  0
 37 39  1  0  0  0
 39 40  1  0  0  0
 40 41  1  0  0  0
  1  4  1  0  0  0
  4  5  2  0  0  0
  5  6  1  0  0  0
  6  7  1  0  0  0
  6  8  2  0  0  0
  8  9  1  0  0  0
  9 10  1  0  0  0
 10 11  2  0  0  0
 11 15  1  0  0  0
 15 16  1  0  0  0
 15 17  1  0  0  0
 17 18  1  0  0  0
 18 19  1  0  0  0
 19 20  1  0  0  0
 20 21  1  0  0  0
 21 22  1  0  0  0
 11 12  1  0  0  0
 12 13  2  0  0  0
 38 33  1  0  0  0
 13  4  1  0  0  0
 41 36  1  0  0  0
 12  8  1  0  0  0
 21 15  1  0  0  0
 24 27  1  0  0  0
  2  3  1  0  0  0
 31 32  1  0  0  0
 40 42  1  0  0  0
  9 14  1  0  0  0
 19 23  1  0  0  0
M  END
> <minimizedAffinity>
-9.44491

> <minimizedRMSD>
0.80315

$$$$
P27275


 42 46  0  0  0  0  0  0  0  0999 V2000
   -7.2676    4.1440  -13.6668 C   0  0  0  0  0  0  0  0  0  0  0  0
   -6.5431    5.2947  -13.2276 O   0  0  0  0  0  0  0  0  0  0  0  0
   -6.3830    5.2311  -12.2731 H   0  0  0  0  0  0  0  0  0  0  0  0
   -7.4972    4.2851  -15.1705 C   0  0  0  0  0  0  0  0  0  0  0  0
   -8.6995    4.3091  -15.7976 C   0  0  0  0  0  0  0  0  0  0  0  0
   -8.7812    4.4876  -17.2381 C   0  0  0  0  0  0  0  0  0  0  0  0
  -10.3257    4.4718  -17.9901 Cl  0  0  0  0  0  0  0  0  0  0  0  0
   -7.6851    4.7293  -17.9741 C   0  0  0  0  0  0  0  0  0  0  0  0
   -6.4302    4.8177  -17.3256 C   0  0  0  0  0  0  0  0  0  0  0  0
   -5.1791    5.2841  -17.6595 C   0  0  0  0  0  0  0  0  0  0  0  0
   -4.3339    5.0419  -16.6120 N   0  0  0  0  0  0  0  0  0  0  0  0
   -5.0423    4.5456  -15.6031 N   0  0  0  0  0  0  0  0  0  0  0  0
   -6.3562    4.4894  -15.9726 N   0  0  0  0  0  0  0  0  0  0  0  0
   -4.7680    6.0017  -18.9123 C   0  0  0  0  0  0  0  0  0  0  0  0
   -4.0870    5.0645  -19.9060 C   0  0  0  0  0  0  0  0  0  0  0  0
   -2.6386    4.7610  -19.5196 C   0  0  0  0  0  0  0  0  0  0  0  0
   -1.8523    5.9972  -19.4196 N   0  0  0  0  0  0  0  0  0  0  0  0
   -0.4577    5.6916  -19.0984 C   0  0  0  0  0  0  0  0  0  0  0  0
   -2.4312    6.8862  -18.4023 C   0  0  0  0  0  0  0  0  0  0  0  0
   -3.8941    7.2551  -18.7174 C   0  0  0  0  0  0  0  0  0  0  0  0
   -4.4183    8.1071  -17.6908 O   0  0  0  0  0  0  0  0  0  0  0  0
   -4.8667    9.3555  -18.1798 C   0  0  0  0  0  0  0  0  0  0  0  0
   -5.8128    9.1181  -19.1289 F   0  0  0  0  0  0  0  0  0  0  0  0
   -5.0778    3.0896  -12.9245 N   0  0  0  0  0  0  0  0  0  0  0  0
   -6.5262    2.7373  -13.3647 C   0  0  0  0  0  0  0  0  0  0  0  0
   -7.0413    1.6977  -13.5128 O   0  0  0  0  0  0  0  0  0  0  0  0
   -4.8614    4.0497  -12.9488 H   0  0  0  0  0  0  0  0  0  0  0  0
   -3.1159    1.8830  -13.6809 C   0  0  0  0  0  0  0  0  0  0  0  0
   -3.9982    2.2373  -12.4858 C   0  0  0  0  0  0  0  0  0  0  0  0
   -3.1932    2.9001  -11.3773 C   0  0  0  0  0  0  0  0  0  0  0  0
   -8.5773    4.1200  -12.9720 N   0  0  0  0  0  0  0  0  0  0  0  0
   -9.4320    4.0777  -13.4587 H   0  0  0  0  0  0  0  0  0  0  0  0
   -8.5102    4.1623  -11.5565 C   0  0  0  0  0  0  0  0  0  0  0  0
   -8.1042    5.3327  -10.8852 C   0  0  0  0  0  0  0  0  0  0  0  0
   -8.0790    5.4009   -9.4875 C   0  0  0  0  0  0  0  0  0  0  0  0
   -8.4737    4.2853   -8.7737 C   0  0  0  0  0  0  0  0  0  0  0  0
   -8.8469    3.1144   -9.4226 C   0  0  0  0  0  0  0  0  0  0  0  0
   -8.8621    3.0326  -10.8041 C   0  0  0  0  0  0  0  0  0  0  0  0
   -9.1938    2.0762   -8.4069 C   0  0  0  0  0  0  0  0  0  0  0  0
   -9.3674    2.8301   -7.1343 N   0  0  0  0  0  0  0  0  0  0  0  0
   -8.5958    4.0805   -7.3019 C   0  0  0  0  0  0  0  0  0  0  0  0
   -9.0040    2.2904   -6.3487 H   0  0  0  0  0  0  0  0  0  0  0  0
 28 29  1  0  0  0
 29 30  1  0  0  0
 29 24  1  0  0  0
 24 25  1  0  0  0
 25 26  2  0  0  0
 25  1  1  0  0  0
  1  2  1  0  0  0
  1 31  1  0  0  0
 31 33  1  0  0  0
 33 34  2  0  0  0
 34 35  1  0  0  0
 35 36  2  0  0  0
 36 37  1  0  0  0
 37 38  2  0  0  0
 37 39  1  0  0  0
 39 40  1  0  0  0
 40 41  1  0  0  0
  1  4  1  0  0  0
  4  5  2  0  0  0
  5  6  1  0  0  0
  6  7  1  0  0  0
  6  8  2  0  0  0
  8  9  1  0  0  0
  9 10  2  0  0  0
 14 10  1  0  0  0
 14 15  1  0  0  0
 15 16  1  0  0  0
 16 17  1  0  0  0
 17 18  1  0  0  0
 17 19  1  0  0  0
 19 20  1  0  0  0
 20 21  1  0  0  0
 21 22  1  0  0  0
 22 23  1  0  0  0
 10 11  1  0  0  0
 11 12  2  0  0  0
 12 13  1  0  0  0
 38 33  1  0  0  0
 13  4  1  0  0  0
 41 36  1  0  0  0
 13  9  1  0  0  0
 20 14  1  0  0  0
 24 27  1  0  0  0
  2  3  1  0  0  0
 31 32  1  0  0  0
 40 42  1  0  0  0
M  END
> <minimizedAffinity>
-9.32431

> <minimizedRMSD>
0.49871

$$$$
P27278


 39 43  0  0  0  0  0  0  0  0999 V2000
   -7.2908    4.1457  -13.5971 C   0  0  0  0  0  0  0  0  0  0  0  0
   -6.4896    5.2589  -13.2088 O   0  0  0  0  0  0  0  0  0  0  0  0
   -6.4034    5.2739  -12.2427 H   0  0  0  0  0  0  0  0  0  0  0  0
   -7.3954    4.1769  -15.2068 C   0  0  0  0  0  0  0  0  0  0  0  0
   -8.7684    4.6346  -15.7445 C   0  0  0  0  0  0  0  0  0  0  0  0
   -8.8927    4.7205  -17.2828 C   0  0  0  0  0  0  0  0  0  0  0  0
   -9.8281    3.4064  -17.9834 Cl  0  0  0  0  0  0  0  0  0  0  0  0
   -7.6070    5.0317  -18.0718 C   0  0  0  0  0  0  0  0  0  0  0  0
   -6.3366    4.6521  -17.3333 C   0  0  0  0  0  0  0  0  0  0  0  0
   -5.0099    5.0978  -17.8233 N   0  0  0  0  0  0  0  0  0  0  0  0
   -4.1372    4.8748  -16.6556 N   0  0  0  0  0  0  0  0  0  0  0  0
   -5.0064    4.7075  -15.5005 C   0  0  0  0  0  0  0  0  0  0  0  0
   -4.8828    3.4073  -15.1524 F   0  0  0  0  0  0  0  0  0  0  0  0
   -6.3659    4.9974  -15.9183 N   0  0  0  0  0  0  0  0  0  0  0  0
   -3.5233    5.6778  -16.5186 H   0  0  0  0  0  0  0  0  0  0  0  0
   -4.9466    6.5405  -18.1362 C   0  0  0  0  0  0  0  0  0  0  0  0
   -3.4946    7.0909  -17.9975 C   0  0  0  0  0  0  0  0  0  0  0  0
   -3.6780    7.7977  -19.2920 N   0  0  0  0  0  0  0  0  0  0  0  0
   -4.6687    6.7378  -19.6448 C   0  0  0  0  0  0  0  0  0  0  0  0
   -2.8492    7.8218  -19.8861 H   0  0  0  0  0  0  0  0  0  0  0  0
   -5.5573    2.9904  -12.1602 N   0  0  0  0  0  0  0  0  0  0  0  0
   -6.7142    2.7048  -13.1554 C   0  0  0  0  0  0  0  0  0  0  0  0
   -7.1103    1.6922  -13.5863 O   0  0  0  0  0  0  0  0  0  0  0  0
   -5.3687    3.9450  -12.0102 H   0  0  0  0  0  0  0  0  0  0  0  0
   -3.2855    2.1744  -11.9529 C   0  0  0  0  0  0  0  0  0  0  0  0
   -4.7140    2.0843  -11.4195 C   0  0  0  0  0  0  0  0  0  0  0  0
   -4.7764    2.3794   -9.9284 C   0  0  0  0  0  0  0  0  0  0  0  0
   -8.6076    4.3433  -12.9392 N   0  0  0  0  0  0  0  0  0  0  0  0
   -9.4477    4.4690  -13.4370 H   0  0  0  0  0  0  0  0  0  0  0  0
   -8.5344    4.3330  -11.5118 C   0  0  0  0  0  0  0  0  0  0  0  0
   -8.0832    5.4670  -10.8029 C   0  0  0  0  0  0  0  0  0  0  0  0
   -7.9990    5.4695   -9.4057 C   0  0  0  0  0  0  0  0  0  0  0  0
   -8.3826    4.3289   -8.7275 C   0  0  0  0  0  0  0  0  0  0  0  0
   -8.8089    3.1970   -9.4122 C   0  0  0  0  0  0  0  0  0  0  0  0
   -8.8795    3.1769  -10.7947 C   0  0  0  0  0  0  0  0  0  0  0  0
   -9.1326    2.1201   -8.4285 C   0  0  0  0  0  0  0  0  0  0  0  0
   -9.2369    2.8215   -7.1181 N   0  0  0  0  0  0  0  0  0  0  0  0
   -8.4347    4.0541   -7.2621 C   0  0  0  0  0  0  0  0  0  0  0  0
   -8.8614    2.2376   -6.3708 H   0  0  0  0  0  0  0  0  0  0  0  0
 25 26  1  0  0  0
 26 27  1  0  0  0
 26 21  1  0  0  0
 21 22  1  0  0  0
 22 23  2  0  0  0
 22  1  1  0  0  0
  1  2  1  0  0  0
  1 28  1  0  0  0
 28 30  1  0  0  0
 30 31  2  0  0  0
 31 32  1  0  0  0
 32 33  2  0  0  0
 33 34  1  0  0  0
 34 35  2  0  0  0
 34 36  1  0  0  0
 36 37  1  0  0  0
 37 38  1  0  0  0
  1  4  1  0  0  0
  4  5  1  0  0  0
  5  6  1  0  0  0
  6  7  1  0  0  0
  6  8  1  0  0  0
  9  8  1  0  0  0
  9 10  1  0  0  0
 10 16  1  0  0  0
 16 17  1  0  0  0
 17 18  1  0  0  0
 18 19  1  0  0  0
 10 11  1  0  0  0
 11 12  1  0  0  0
 12 13  1  0  0  0
 12 14  1  0  0  0
 35 30  1  0  0  0
 14  4  1  0  0  0
 38 33  1  0  0  0
 14  9  1  0  0  0
 19 16  1  0  0  0
 21 24  1  0  0  0
  2  3  1  0  0  0
 28 29  1  0  0  0
 37 39  1  0  0  0
 18 20  1  0  0  0
 11 15  1  0  0  0
M  END
> <minimizedAffinity>
-8.43350

> <minimizedRMSD>
0.52828

$$$$
P27280


 44 49  0  0  0  0  0  0  0  0999 V2000
   -7.2168    4.2356  -13.9064 C   0  0  0  0  0  0  0  0  0  0  0  0
   -6.4755    5.4168  -13.6341 O   0  0  0  0  0  0  0  0  0  0  0  0
   -6.2914    5.4711  -12.6833 H   0  0  0  0  0  0  0  0  0  0  0  0
   -7.4335    4.2850  -15.4443 C   0  0  0  0  0  0  0  0  0  0  0  0
   -8.7334    4.1510  -15.9816 C   0  0  0  0  0  0  0  0  0  0  0  0
   -8.9717    4.2464  -17.3508 C   0  0  0  0  0  0  0  0  0  0  0  0
  -10.5513    4.0894  -17.9932 Cl  0  0  0  0  0  0  0  0  0  0  0  0
   -7.9400    4.5207  -18.2239 C   0  0  0  0  0  0  0  0  0  0  0  0
   -6.6468    4.7088  -17.7475 C   0  0  0  0  0  0  0  0  0  0  0  0
   -6.3650    4.5321  -16.3736 C   0  0  0  0  0  0  0  0  0  0  0  0
   -4.9114    4.6037  -15.9451 C   0  0  0  0  0  0  0  0  0  0  0  0
   -4.5785    3.5122  -15.2291 F   0  0  0  0  0  0  0  0  0  0  0  0
   -3.9303    4.5630  -17.0244 N   0  0  0  0  0  0  0  0  0  0  0  0
   -4.2437    5.5041  -18.0986 C   0  0  0  0  0  0  0  0  0  0  0  0
   -5.5729    5.0655  -18.7520 C   0  0  0  0  0  0  0  0  0  0  0  0
   -4.2477    6.9559  -17.5800 C   0  0  0  0  0  0  0  0  0  0  0  0
   -3.6981    7.8316  -18.7095 C   0  0  0  0  0  0  0  0  0  0  0  0
   -4.5872    8.2859  -19.8801 C   0  0  0  0  0  0  0  0  0  0  0  0
   -4.1080    7.1520  -20.6762 N   0  0  0  0  0  0  0  0  0  0  0  0
   -3.0262    6.8900  -19.7156 C   0  0  0  0  0  0  0  0  0  0  0  0
   -3.0748    5.4944  -19.1081 C   0  0  0  0  0  0  0  0  0  0  0  0
   -3.9082    3.6196  -17.4115 H   0  0  0  0  0  0  0  0  0  0  0  0
   -3.7787    7.4120  -21.6059 H   0  0  0  0  0  0  0  0  0  0  0  0
   -5.3975    3.3165  -12.4241 N   0  0  0  0  0  0  0  0  0  0  0  0
   -6.5214    2.8702  -13.4140 C   0  0  0  0  0  0  0  0  0  0  0  0
   -6.8794    1.7974  -13.7221 O   0  0  0  0  0  0  0  0  0  0  0  0
   -5.3399    4.2882  -12.2765 H   0  0  0  0  0  0  0  0  0  0  0  0
   -3.5087    1.8096  -12.6643 C   0  0  0  0  0  0  0  0  0  0  0  0
   -4.4304    2.5352  -11.6914 C   0  0  0  0  0  0  0  0  0  0  0  0
   -5.1169    1.5804  -10.7218 C   0  0  0  0  0  0  0  0  0  0  0  0
   -8.5003    4.3979  -13.1534 N   0  0  0  0  0  0  0  0  0  0  0  0
   -9.3657    4.4909  -13.6133 H   0  0  0  0  0  0  0  0  0  0  0  0
   -8.3965    4.4101  -11.7299 C   0  0  0  0  0  0  0  0  0  0  0  0
   -7.9570    5.5593  -11.0425 C   0  0  0  0  0  0  0  0  0  0  0  0
   -7.8455    5.5789   -9.6422 C   0  0  0  0  0  0  0  0  0  0  0  0
   -8.1971    4.4432   -8.9344 C   0  0  0  0  0  0  0  0  0  0  0  0
   -8.6277    3.3025   -9.5960 C   0  0  0  0  0  0  0  0  0  0  0  0
   -8.7226    3.2662  -10.9815 C   0  0  0  0  0  0  0  0  0  0  0  0
   -8.9134    2.2260   -8.6017 C   0  0  0  0  0  0  0  0  0  0  0  0
   -8.7937    2.8639   -7.2659 N   0  0  0  0  0  0  0  0  0  0  0  0
   -8.1897    4.1946   -7.4645 C   0  0  0  0  0  0  0  0  0  0  0  0
   -8.1985    2.2977   -6.6613 H   0  0  0  0  0  0  0  0  0  0  0  0
   -7.3674    6.7485   -8.9709 C   0  0  0  0  0  0  0  0  0  0  0  0
   -6.9546    7.6867   -8.4256 N   0  0  0  0  0  0  0  0  0  0  0  0
 28 29  1  0  0  0
 29 30  1  0  0  0
 29 24  1  0  0  0
 24 25  1  0  0  0
 25 26  2  0  0  0
 25  1  1  0  0  0
  1  2  1  0  0  0
  1 31  1  0  0  0
 31 33  1  0  0  0
 33 34  2  0  0  0
 34 35  1  0  0  0
 35 43  1  0  0  0
 43 44  3  0  0  0
 35 36  2  0  0  0
 36 37  1  0  0  0
 37 38  2  0  0  0
 37 39  1  0  0  0
 39 40  1  0  0  0
 40 41  1  0  0  0
  1  4  1  0  0  0
  4  5  2  0  0  0
  5  6  1  0  0  0
  6  7  1  0  0  0
  6  8  2  0  0  0
  8  9  1  0  0  0
  9 10  2  0  0  0
 10 11  1  0  0  0
 11 12  1  0  0  0
 11 13  1  0  0  0
 13 14  1  0  0  0
 14 15  1  0  0  0
 14 16  1  0  0  0
 17 16  1  0  0  0
 17 18  1  0  0  0
 18 19  1  0  0  0
 19 20  1  0  0  0
 20 21  1  0  0  0
 38 33  1  0  0  0
 10  4  1  0  0  0
 21 14  1  0  0  0
 41 36  1  0  0  0
 15  9  1  0  0  0
 20 17  1  0  0  0
 24 27  1  0  0  0
  2  3  1  0  0  0
 31 32  1  0  0  0
 40 42  1  0  0  0
 13 22  1  0  0  0
 19 23  1  0  0  0
M  END
> <minimizedAffinity>
-10.11924

> <minimizedRMSD>
0.23227

$$$$
P27281


 42 46  0  0  0  0  0  0  0  0999 V2000
   -7.9503    4.2530  -13.7409 C   0  0  0  0  0  0  0  0  0  0  0  0
   -9.3399    4.2075  -13.6584 O   0  0  0  0  0  0  0  0  0  0  0  0
   -9.6026    3.9720  -12.7548 H   0  0  0  0  0  0  0  0  0  0  0  0
   -7.6311    4.6331  -15.2061 C   0  0  0  0  0  0  0  0  0  0  0  0
   -8.6193    4.4297  -16.2119 C   0  0  0  0  0  0  0  0  0  0  0  0
   -8.3196    4.5030  -17.5676 C   0  0  0  0  0  0  0  0  0  0  0  0
   -9.4516    4.2839  -18.8054 Cl  0  0  0  0  0  0  0  0  0  0  0  0
   -6.9754    4.7583  -17.8538 C   0  0  0  0  0  0  0  0  0  0  0  0
   -6.2877    4.8247  -19.0035 N   0  0  0  0  0  0  0  0  0  0  0  0
   -5.0205    5.0856  -18.6451 N   0  0  0  0  0  0  0  0  0  0  0  0
   -4.8246    5.2538  -17.2995 C   0  0  0  0  0  0  0  0  0  0  0  0
   -6.0599    5.0119  -16.7735 C   0  0  0  0  0  0  0  0  0  0  0  0
   -6.3471    5.0060  -15.4568 N   0  0  0  0  0  0  0  0  0  0  0  0
   -4.2878    5.1511  -19.2994 H   0  0  0  0  0  0  0  0  0  0  0  0
   -3.6210    5.5684  -16.8173 O   0  0  0  0  0  0  0  0  0  0  0  0
   -3.5601    6.2770  -15.5715 C   0  0  0  0  0  0  0  0  0  0  0  0
   -3.0841    7.7198  -15.7594 C   0  0  0  0  0  0  0  0  0  0  0  0
   -3.0005    8.4245  -14.4085 C   0  0  0  0  0  0  0  0  0  0  0  0
   -2.0929    7.7344  -13.4926 N   0  0  0  0  0  0  0  0  0  0  0  0
   -2.4526    6.3198  -13.3146 C   0  0  0  0  0  0  0  0  0  0  0  0
   -2.5882    5.5521  -14.6357 C   0  0  0  0  0  0  0  0  0  0  0  0
   -1.3587    5.4584  -15.2230 F   0  0  0  0  0  0  0  0  0  0  0  0
   -2.1268    8.1986  -12.5850 H   0  0  0  0  0  0  0  0  0  0  0  0
   -5.5636    3.5418  -13.1014 N   0  0  0  0  0  0  0  0  0  0  0  0
   -6.9739    2.9564  -13.4409 C   0  0  0  0  0  0  0  0  0  0  0  0
   -7.3422    1.8449  -13.4909 O   0  0  0  0  0  0  0  0  0  0  0  0
   -5.4872    4.5182  -13.2019 H   0  0  0  0  0  0  0  0  0  0  0  0
   -3.7571    2.0390  -13.7833 C   0  0  0  0  0  0  0  0  0  0  0  0
   -4.3555    2.8822  -12.6642 C   0  0  0  0  0  0  0  0  0  0  0  0
   -4.6023    2.0795  -11.3922 C   0  0  0  0  0  0  0  0  0  0  0  0
   -7.5969    5.3226  -12.7893 N   0  0  0  0  0  0  0  0  0  0  0  0
   -7.1747    6.1612  -13.0857 H   0  0  0  0  0  0  0  0  0  0  0  0
   -7.8983    5.0788  -11.4195 C   0  0  0  0  0  0  0  0  0  0  0  0
   -7.5827    6.0988  -10.5008 C   0  0  0  0  0  0  0  0  0  0  0  0
   -7.7603    5.9252   -9.1224 C   0  0  0  0  0  0  0  0  0  0  0  0
   -8.2558    4.7174   -8.6682 C   0  0  0  0  0  0  0  0  0  0  0  0
   -8.5556    3.6950   -9.5520 C   0  0  0  0  0  0  0  0  0  0  0  0
   -8.3693    3.8511  -10.9129 C   0  0  0  0  0  0  0  0  0  0  0  0
   -9.0442    2.5014   -8.7995 C   0  0  0  0  0  0  0  0  0  0  0  0
   -9.3081    2.9961   -7.4234 N   0  0  0  0  0  0  0  0  0  0  0  0
   -8.5381    4.2498   -7.2809 C   0  0  0  0  0  0  0  0  0  0  0  0
   -8.9974    2.3102   -6.7354 H   0  0  0  0  0  0  0  0  0  0  0  0
 28 29  1  0  0  0
 29 30  1  0  0  0
 29 24  1  0  0  0
 24 25  1  0  0  0
 25 26  2  0  0  0
 25  1  1  0  0  0
  1  2  1  0  0  0
  1 31  1  0  0  0
 31 33  1  0  0  0
 33 34  2  0  0  0
 34 35  1  0  0  0
 35 36  2  0  0  0
 36 37  1  0  0  0
 37 38  2  0  0  0
 37 39  1  0  0  0
 39 40  1  0  0  0
 40 41  1  0  0  0
  1  4  1  0  0  0
  4  5  1  0  0  0
  5  6  2  0  0  0
  6  7  1  0  0  0
  6  8  1  0  0  0
  8  9  2  0  0  0
  9 10  1  0  0  0
 10 11  1  0  0  0
 11 15  1  0  0  0
 16 15  1  0  0  0
 16 17  1  0  0  0
 17 18  1  0  0  0
 18 19  1  0  0  0
 19 20  1  0  0  0
 20 21  1  0  0  0
 21 22  1  0  0  0
 11 12  2  0  0  0
 12 13  1  0  0  0
 38 33  1  0  0  0
 13  4  2  0  0  0
 41 36  1  0  0  0
 12  8  1  0  0  0
 21 16  1  0  0  0
 24 27  1  0  0  0
  2  3  1  0  0  0
 31 32  1  0  0  0
 40 42  1  0  0  0
 10 14  1  0  0  0
 19 23  1  0  0  0
M  END
> <minimizedAffinity>
-8.41860

> <minimizedRMSD>
0.74976

$$$$
P27290


 42 46  0  0  0  0  0  0  0  0999 V2000
   -7.1881    4.0763  -13.4672 C   0  0  0  0  0  0  0  0  0  0  0  0
   -6.4411    5.1762  -12.9098 O   0  0  0  0  0  0  0  0  0  0  0  0
   -6.3760    5.0683  -11.9480 H   0  0  0  0  0  0  0  0  0  0  0  0
   -7.2235    4.3569  -14.9841 C   0  0  0  0  0  0  0  0  0  0  0  0
   -8.3913    4.3112  -15.7523 C   0  0  0  0  0  0  0  0  0  0  0  0
   -8.3106    4.4957  -17.1331 C   0  0  0  0  0  0  0  0  0  0  0  0
   -9.7464    4.4762  -18.0836 Cl  0  0  0  0  0  0  0  0  0  0  0  0
   -7.0762    4.7279  -17.7100 C   0  0  0  0  0  0  0  0  0  0  0  0
   -5.9877    4.8613  -16.8676 C   0  0  0  0  0  0  0  0  0  0  0  0
   -6.0108    4.6960  -15.5294 N   0  0  0  0  0  0  0  0  0  0  0  0
   -4.8374    5.4232  -17.6565 C   0  0  0  0  0  0  0  0  0  0  0  0
   -3.6221    4.8629  -17.4333 F   0  0  0  0  0  0  0  0  0  0  0  0
   -4.6802    6.7656  -17.4537 F   0  0  0  0  0  0  0  0  0  0  0  0
   -5.3096    5.1191  -19.1264 C   0  0  0  0  0  0  0  0  0  0  0  0
   -6.7457    4.7854  -19.0691 N   0  0  0  0  0  0  0  0  0  0  0  0
   -7.3492    4.6338  -19.8321 H   0  0  0  0  0  0  0  0  0  0  0  0
   -4.9064    6.1397  -20.1089 N   0  0  0  0  0  0  0  0  0  0  0  0
   -5.1187    7.0644  -19.7345 H   0  0  0  0  0  0  0  0  0  0  0  0
   -3.4716    6.0581  -20.3974 C   0  0  0  0  0  0  0  0  0  0  0  0
   -2.7381    7.3131  -19.8754 C   0  0  0  0  0  0  0  0  0  0  0  0
   -2.0571    7.4173  -21.1934 N   0  0  0  0  0  0  0  0  0  0  0  0
   -3.1961    6.6700  -21.7912 C   0  0  0  0  0  0  0  0  0  0  0  0
   -1.1606    6.9335  -21.2452 H   0  0  0  0  0  0  0  0  0  0  0  0
   -4.9718    3.0375  -12.8372 N   0  0  0  0  0  0  0  0  0  0  0  0
   -6.4327    2.6732  -13.2337 C   0  0  0  0  0  0  0  0  0  0  0  0
   -6.9377    1.6286  -13.3905 O   0  0  0  0  0  0  0  0  0  0  0  0
   -4.7709    4.0013  -12.8438 H   0  0  0  0  0  0  0  0  0  0  0  0
   -3.0269    1.8861  -13.7011 C   0  0  0  0  0  0  0  0  0  0  0  0
   -3.8646    2.1921  -12.4619 C   0  0  0  0  0  0  0  0  0  0  0  0
   -3.0279    2.8413  -11.3685 C   0  0  0  0  0  0  0  0  0  0  0  0
   -8.5372    4.0304  -12.8758 N   0  0  0  0  0  0  0  0  0  0  0  0
   -9.3625    3.9735  -13.4095 H   0  0  0  0  0  0  0  0  0  0  0  0
   -8.5238    4.0767  -11.4569 C   0  0  0  0  0  0  0  0  0  0  0  0
   -8.1567    5.2600  -10.7832 C   0  0  0  0  0  0  0  0  0  0  0  0
   -8.1609    5.3342   -9.3872 C   0  0  0  0  0  0  0  0  0  0  0  0
   -8.5465    4.2118   -8.6802 C   0  0  0  0  0  0  0  0  0  0  0  0
   -8.8762    3.0290   -9.3329 C   0  0  0  0  0  0  0  0  0  0  0  0
   -8.8597    2.9391  -10.7126 C   0  0  0  0  0  0  0  0  0  0  0  0
   -9.2191    1.9874   -8.3213 C   0  0  0  0  0  0  0  0  0  0  0  0
   -9.4546    2.7447   -7.0617 N   0  0  0  0  0  0  0  0  0  0  0  0
   -8.7056    4.0112   -7.2115 C   0  0  0  0  0  0  0  0  0  0  0  0
   -9.1072    2.2185   -6.2599 H   0  0  0  0  0  0  0  0  0  0  0  0
 28 29  1  0  0  0
 29 30  1  0  0  0
 29 24  1  0  0  0
 24 25  1  0  0  0
 25 26  2  0  0  0
 25  1  1  0  0  0
  1  2  1  0  0  0
  1 31  1  0  0  0
 31 33  1  0  0  0
 33 34  2  0  0  0
 34 35  1  0  0  0
 35 36  2  0  0  0
 36 37  1  0  0  0
 37 38  2  0  0  0
 37 39  1  0  0  0
 39 40  1  0  0  0
 40 41  1  0  0  0
  1  4  1  0  0  0
  4  5  2  0  0  0
  5  6  1  0  0  0
  6  7  1  0  0  0
  6  8  2  0  0  0
  8  9  1  0  0  0
  9 10  2  0  0  0
  9 11  1  0  0  0
 11 12  1  0  0  0
 11 13  1  0  0  0
 11 14  1  0  0  0
 14 17  1  0  0  0
 17 19  1  0  0  0
 19 20  1  0  0  0
 20 21  1  0  0  0
 21 22  1  0  0  0
 14 15  1  0  0  0
 38 33  1  0  0  0
 10  4  1  0  0  0
 22 19  1  0  0  0
 41 36  1  0  0  0
 15  8  1  0  0  0
 24 27  1  0  0  0
  2  3  1  0  0  0
 31 32  1  0  0  0
 40 42  1  0  0  0
 17 18  1  0  0  0
 21 23  1  0  0  0
 15 16  1  0  0  0
M  END
> <minimizedAffinity>
-9.36103

> <minimizedRMSD>
0.60947

$$$$
P27299


 38 42  0  0  0  0  0  0  0  0999 V2000
   -5.8766    5.4172  -17.7528 C   0  0  0  0  0  0  0  0  0  0  0  0
   -6.3251    5.0150  -18.9909 N   0  0  0  0  0  0  0  0  0  0  0  0
   -7.5198    4.4121  -18.9936 N   0  0  0  0  0  0  0  0  0  0  0  0
   -8.0047    4.5727  -17.7617 C   0  0  0  0  0  0  0  0  0  0  0  0
   -9.2592    4.2855  -17.1955 C   0  0  0  0  0  0  0  0  0  0  0  0
  -10.5404    3.9090  -18.2350 Cl  0  0  0  0  0  0  0  0  0  0  0  0
   -9.3916    4.4938  -15.8165 C   0  0  0  0  0  0  0  0  0  0  0  0
   -8.3494    5.0787  -15.0558 C   0  0  0  0  0  0  0  0  0  0  0  0
   -7.1021    5.4646  -15.5930 C   0  0  0  0  0  0  0  0  0  0  0  0
   -6.9721    5.1614  -16.9464 C   0  0  0  0  0  0  0  0  0  0  0  0
   -5.8049    5.1603  -19.8140 H   0  0  0  0  0  0  0  0  0  0  0  0
   -8.5654    5.4747  -13.6443 C   0  0  0  0  0  0  0  0  0  0  0  0
   -8.6929    6.6129  -13.4190 O   0  0  0  0  0  0  0  0  0  0  0  0
   -8.4986    4.2676  -12.6874 N   0  0  0  0  0  0  0  0  0  0  0  0
   -8.4633    3.3903  -13.1326 H   0  0  0  0  0  0  0  0  0  0  0  0
   -8.4800    4.2163  -11.2965 C   0  0  0  0  0  0  0  0  0  0  0  0
   -8.0443    5.3243  -10.5469 C   0  0  0  0  0  0  0  0  0  0  0  0
   -8.0370    5.2902   -9.1504 C   0  0  0  0  0  0  0  0  0  0  0  0
   -8.4841    4.1414   -8.5290 C   0  0  0  0  0  0  0  0  0  0  0  0
   -8.8955    3.0359   -9.2684 C   0  0  0  0  0  0  0  0  0  0  0  0
   -8.8917    3.0496  -10.6532 C   0  0  0  0  0  0  0  0  0  0  0  0
   -9.2859    1.9434   -8.3287 C   0  0  0  0  0  0  0  0  0  0  0  0
   -9.4512    2.6105   -7.0099 N   0  0  0  0  0  0  0  0  0  0  0  0
   -8.6284    3.8363   -7.0763 C   0  0  0  0  0  0  0  0  0  0  0  0
   -9.1231    2.0020   -6.2599 H   0  0  0  0  0  0  0  0  0  0  0  0
   -4.7044    7.5685  -17.3258 C   0  0  0  0  0  0  0  0  0  0  0  0
   -4.4972    6.0396  -17.4901 C   0  0  0  0  0  0  0  0  0  0  0  0
   -3.4007    5.8090  -18.6126 C   0  0  0  0  0  0  0  0  0  0  0  0
   -3.2933    4.3581  -19.0571 C   0  0  0  0  0  0  0  0  0  0  0  0
   -2.1028    4.1240  -19.9718 C   0  0  0  0  0  0  0  0  0  0  0  0
   -2.2012    4.9219  -21.1957 N   0  0  0  0  0  0  0  0  0  0  0  0
   -2.3184    6.3505  -20.8611 C   0  0  0  0  0  0  0  0  0  0  0  0
   -3.4701    6.6792  -19.8906 C   0  0  0  0  0  0  0  0  0  0  0  0
   -3.0242    4.6304  -21.7230 H   0  0  0  0  0  0  0  0  0  0  0  0
   -3.8996    5.5223  -16.1120 C   0  0  0  0  0  0  0  0  0  0  0  0
   -4.0346    4.0984  -15.8122 N   0  0  0  0  0  0  0  0  0  0  0  0
   -5.0226    3.8626  -15.7197 H   0  0  0  0  0  0  0  0  0  0  0  0
   -3.5515    3.8875  -14.9390 H   0  0  0  0  0  0  0  0  0  0  0  0
 27 26  1  0  0  0
 27 35  1  0  0  0
 35 36  1  0  0  0
 27  1  1  0  0  0
  1  2  1  0  0  0
  2  3  1  0  0  0
  3  4  2  0  0  0
  4  5  1  0  0  0
  5  6  1  0  0  0
  5  7  2  0  0  0
  7  8  1  0  0  0
  8 12  1  0  0  0
 12 13  2  0  0  0
 12 14  1  0  0  0
 14 16  1  0  0  0
 16 17  2  0  0  0
 17 18  1  0  0  0
 18 19  2  0  0  0
 19 20  1  0  0  0
 20 21  2  0  0  0
 20 22  1  0  0  0
 22 23  1  0  0  0
 23 24  1  0  0  0
  8  9  2  0  0  0
  9 10  1  0  0  0
 27 28  1  0  0  0
 28 29  1  0  0  0
 29 30  1  0  0  0
 30 31  1  0  0  0
 31 32  1  0  0  0
 32 33  1  0  0  0
 10  1  2  0  0  0
 33 28  1  0  0  0
 10  4  1  0  0  0
 21 16  1  0  0  0
 24 19  1  0  0  0
 36 37  1  0  0  0
 36 38  1  0  0  0
  2 11  1  0  0  0
 14 15  1  0  0  0
 23 25  1  0  0  0
 31 34  1  0  0  0
M  END
> <minimizedAffinity>
-8.93890

> <minimizedRMSD>
0.35776

$$$$
P27316


 31 34  0  0  0  0  0  0  0  0999 V2000
   -8.2005    4.9514  -13.7526 C   0  0  0  0  0  0  0  0  0  0  0  0
   -7.9578    6.0856  -14.1960 N   0  0  0  0  0  0  0  0  0  0  0  0
   -7.7523    4.8160  -15.0956 C   0  0  0  0  0  0  0  0  0  0  0  0
   -6.3574    4.3061  -15.2326 C   0  0  0  0  0  0  0  0  0  0  0  0
   -8.5391    3.9933  -12.9031 N   0  0  0  0  0  0  0  0  0  0  0  0
   -8.8473    3.1403  -13.2861 H   0  0  0  0  0  0  0  0  0  0  0  0
   -7.7287    6.6365   -8.7608 C   0  0  0  0  0  0  0  0  0  0  0  0
   -8.0846    5.3517   -9.4405 C   0  0  0  0  0  0  0  0  0  0  0  0
   -8.0946    5.2653  -10.8424 C   0  0  0  0  0  0  0  0  0  0  0  0
   -8.4964    4.0898  -11.5086 C   0  0  0  0  0  0  0  0  0  0  0  0
   -8.8736    2.9728  -10.7556 C   0  0  0  0  0  0  0  0  0  0  0  0
   -8.8735    3.0612   -9.3788 C   0  0  0  0  0  0  0  0  0  0  0  0
   -8.4951    4.2314   -8.7291 C   0  0  0  0  0  0  0  0  0  0  0  0
   -8.6281    4.0131   -7.2572 C   0  0  0  0  0  0  0  0  0  0  0  0
   -9.4044    2.7650   -7.0967 N   0  0  0  0  0  0  0  0  0  0  0  0
   -9.2543    2.0242   -8.3760 C   0  0  0  0  0  0  0  0  0  0  0  0
  -10.3868    2.9781   -6.9233 H   0  0  0  0  0  0  0  0  0  0  0  0
   -8.8062    4.4603  -16.1131 C   0  0  0  0  0  0  0  0  0  0  0  0
   -8.3415    4.2611  -17.5526 C   0  0  0  0  0  0  0  0  0  0  0  0
   -9.7924    4.1686  -18.6004 Cl  0  0  0  0  0  0  0  0  0  0  0  0
   -7.3342    5.2896  -18.0696 C   0  0  0  0  0  0  0  0  0  0  0  0
   -6.4319    4.7737  -19.1167 N   0  0  0  0  0  0  0  0  0  0  0  0
   -6.9678    4.5691  -19.9602 H   0  0  0  0  0  0  0  0  0  0  0  0
   -5.4440    5.7643  -19.4047 N   0  0  0  0  0  0  0  0  0  0  0  0
   -5.4179    6.2374  -20.2677 H   0  0  0  0  0  0  0  0  0  0  0  0
   -4.5459    6.0155  -18.4242 C   0  0  0  0  0  0  0  0  0  0  0  0
   -4.3177    7.2486  -17.7827 C   0  0  0  0  0  0  0  0  0  0  0  0
   -3.4027    7.0209  -16.7780 C   0  0  0  0  0  0  0  0  0  0  0  0
   -3.0186    5.7082  -16.8491 N   0  0  0  0  0  0  0  0  0  0  0  0
   -3.7132    5.0889  -17.8509 C   0  0  0  0  0  0  0  0  0  0  0  0
   -2.3481    5.2784  -16.2703 H   0  0  0  0  0  0  0  0  0  0  0  0
  7  8  1  0  0  0
  8  9  2  0  0  0
  9 10  1  0  0  0
 10  5  1  0  0  0
  5  1  1  0  0  0
  1  2  2  0  0  0
  2  3  1  0  0  0
  3  4  1  0  0  0
  3 18  1  0  0  0
 18 19  1  0  0  0
 19 20  1  0  0  0
 19 21  1  0  0  0
 21 22  1  0  0  0
 22 24  1  0  0  0
 24 26  1  0  0  0
 26 27  1  0  0  0
 27 28  2  0  0  0
 28 29  1  0  0  0
 29 30  1  0  0  0
 10 11  2  0  0  0
 11 12  1  0  0  0
 12 13  2  0  0  0
 13 14  1  0  0  0
 14 15  1  0  0  0
 15 16  1  0  0  0
 13  8  1  0  0  0
  3  1  1  0  0  0
 30 26  2  0  0  0
 16 12  1  0  0  0
  5  6  1  0  0  0
 22 23  1  0  0  0
 24 25  1  0  0  0
 29 31  1  0  0  0
 15 17  1  0  0  0
M  END
> <minimizedAffinity>
-6.50487

> <minimizedRMSD>
0.48540

$$$$
P27333


 36 40  0  0  0  0  0  0  0  0999 V2000
   -4.8724    7.0985  -17.8933 C   0  0  0  0  0  0  0  0  0  0  0  0
   -4.9841    5.5751  -17.7581 C   0  0  0  0  0  0  0  0  0  0  0  0
   -6.2958    5.2576  -17.0771 C   0  0  0  0  0  0  0  0  0  0  0  0
   -6.6808    5.3773  -15.7591 C   0  0  0  0  0  0  0  0  0  0  0  0
   -7.9712    5.0052  -15.3922 C   0  0  0  0  0  0  0  0  0  0  0  0
   -8.9060    4.6106  -16.3457 C   0  0  0  0  0  0  0  0  0  0  0  0
   -8.5234    4.5629  -17.6914 C   0  0  0  0  0  0  0  0  0  0  0  0
   -9.7269    4.2205  -18.8494 Cl  0  0  0  0  0  0  0  0  0  0  0  0
   -7.2090    4.8464  -18.0486 C   0  0  0  0  0  0  0  0  0  0  0  0
   -6.5723    4.7711  -19.3067 N   0  0  0  0  0  0  0  0  0  0  0  0
   -5.1852    4.9134  -19.0999 N   0  0  0  0  0  0  0  0  0  0  0  0
   -4.4908    5.6161  -20.1477 O   0  0  0  0  0  0  0  0  0  0  0  0
   -7.0183    4.6420  -20.1748 H   0  0  0  0  0  0  0  0  0  0  0  0
   -4.6408    5.1657  -20.9936 H   0  0  0  0  0  0  0  0  0  0  0  0
   -8.3172    5.1717  -13.9777 C   0  0  0  0  0  0  0  0  0  0  0  0
   -8.8601    6.2171  -13.6488 O   0  0  0  0  0  0  0  0  0  0  0  0
   -7.8670    4.1182  -12.9789 C   0  0  0  0  0  0  0  0  0  0  0  0
   -7.1990    3.1802  -13.4043 O   0  0  0  0  0  0  0  0  0  0  0  0
   -8.1415    4.2341  -11.5211 C   0  0  0  0  0  0  0  0  0  0  0  0
   -7.8274    5.3793  -10.7603 C   0  0  0  0  0  0  0  0  0  0  0  0
   -8.0252    5.4027   -9.3745 C   0  0  0  0  0  0  0  0  0  0  0  0
   -8.5462    4.2762   -8.7690 C   0  0  0  0  0  0  0  0  0  0  0  0
   -8.8647    3.1439   -9.5100 C   0  0  0  0  0  0  0  0  0  0  0  0
   -8.6622    3.1014  -10.8779 C   0  0  0  0  0  0  0  0  0  0  0  0
   -9.3600    2.0774   -8.5900 C   0  0  0  0  0  0  0  0  0  0  0  0
   -9.6585    2.7835   -7.3144 N   0  0  0  0  0  0  0  0  0  0  0  0
   -8.8183    4.0028   -7.3282 C   0  0  0  0  0  0  0  0  0  0  0  0
   -9.4185    2.1947   -6.5169 H   0  0  0  0  0  0  0  0  0  0  0  0
   -3.7659    4.8613  -17.1311 C   0  0  0  0  0  0  0  0  0  0  0  0
   -2.8023    5.4513  -16.0744 C   0  0  0  0  0  0  0  0  0  0  0  0
   -3.3903    5.9414  -14.7495 C   0  0  0  0  0  0  0  0  0  0  0  0
   -3.4217    7.4590  -14.5964 C   0  0  0  0  0  0  0  0  0  0  0  0
   -2.1080    8.0363  -14.8707 N   0  0  0  0  0  0  0  0  0  0  0  0
   -1.7367    7.8177  -16.2639 C   0  0  0  0  0  0  0  0  0  0  0  0
   -1.6606    6.3340  -16.6152 C   0  0  0  0  0  0  0  0  0  0  0  0
   -1.4148    7.5966  -14.2653 H   0  0  0  0  0  0  0  0  0  0  0  0
  2  1  1  0  0  0
  2 29  1  0  0  0
 29 30  1  0  0  0
 30 31  1  0  0  0
 31 32  1  0  0  0
 32 33  1  0  0  0
 33 34  1  0  0  0
 34 35  1  0  0  0
  2  3  1  0  0  0
  3  4  2  0  0  0
  4  5  1  0  0  0
  5 15  1  0  0  0
 15 16  2  0  0  0
 15 17  1  0  0  0
 17 18  2  0  0  0
 17 19  1  0  0  0
 19 20  2  0  0  0
 20 21  1  0  0  0
 21 22  2  0  0  0
 22 23  1  0  0  0
 23 24  2  0  0  0
 23 25  1  0  0  0
 25 26  1  0  0  0
 26 27  1  0  0  0
  5  6  2  0  0  0
  6  7  1  0  0  0
  7  8  1  0  0  0
  7  9  2  0  0  0
  9 10  1  0  0  0
 10 11  1  0  0  0
 11 12  1  0  0  0
 11  2  1  0  0  0
 35 30  1  0  0  0
  9  3  1  0  0  0
 24 19  1  0  0  0
 27 22  1  0  0  0
 33 36  1  0  0  0
 26 28  1  0  0  0
 10 13  1  0  0  0
 12 14  1  0  0  0
M  END
> <minimizedAffinity>
-8.58272

> <minimizedRMSD>
0.41222

$$$$
P27344


 42 46  0  0  0  0  0  0  0  0999 V2000
   -7.3132    4.0164  -13.1795 C   0  0  0  0  0  0  0  0  0  0  0  0
   -6.5351    5.0830  -12.6158 O   0  0  0  0  0  0  0  0  0  0  0  0
   -6.4369    4.9420  -11.6612 H   0  0  0  0  0  0  0  0  0  0  0  0
   -7.4036    4.3395  -14.6778 C   0  0  0  0  0  0  0  0  0  0  0  0
   -8.5931    4.2588  -15.4212 C   0  0  0  0  0  0  0  0  0  0  0  0
   -8.6133    4.4637  -16.8110 C   0  0  0  0  0  0  0  0  0  0  0  0
  -10.0790    4.3194  -17.6924 Cl  0  0  0  0  0  0  0  0  0  0  0  0
   -7.4122    4.7817  -17.4460 C   0  0  0  0  0  0  0  0  0  0  0  0
   -7.0894    5.0661  -18.7459 N   0  0  0  0  0  0  0  0  0  0  0  0
   -5.7765    5.3120  -18.9403 N   0  0  0  0  0  0  0  0  0  0  0  0
   -5.2340    5.1790  -17.7284 C   0  0  0  0  0  0  0  0  0  0  0  0
   -6.2161    4.8730  -16.7533 C   0  0  0  0  0  0  0  0  0  0  0  0
   -6.2091    4.6504  -15.3684 C   0  0  0  0  0  0  0  0  0  0  0  0
   -7.7538    5.0891  -19.4720 H   0  0  0  0  0  0  0  0  0  0  0  0
   -3.7691    5.3404  -17.4741 C   0  0  0  0  0  0  0  0  0  0  0  0
   -2.8784    5.6265  -18.6876 C   0  0  0  0  0  0  0  0  0  0  0  0
   -1.4187    5.8218  -18.2523 C   0  0  0  0  0  0  0  0  0  0  0  0
   -0.5274    6.1990  -19.4417 C   0  0  0  0  0  0  0  0  0  0  0  0
   -0.9348    5.5999  -20.7116 N   0  0  0  0  0  0  0  0  0  0  0  0
   -1.6322    4.3349  -20.5244 C   0  0  0  0  0  0  0  0  0  0  0  0
   -2.9511    4.5279  -19.7698 C   0  0  0  0  0  0  0  0  0  0  0  0
   -0.1033    5.4357  -21.2791 H   0  0  0  0  0  0  0  0  0  0  0  0
   -6.9723    1.5738  -13.3701 O   0  0  0  0  0  0  0  0  0  0  0  0
   -6.5482    2.6087  -13.0269 C   0  0  0  0  0  0  0  0  0  0  0  0
   -5.1527    2.9844  -12.4443 N   0  0  0  0  0  0  0  0  0  0  0  0
   -5.0642    3.9221  -12.1577 H   0  0  0  0  0  0  0  0  0  0  0  0
   -3.9721    2.1828  -12.2571 C   0  0  0  0  0  0  0  0  0  0  0  0
   -3.1741    2.1411  -13.5497 C   0  0  0  0  0  0  0  0  0  0  0  0
   -2.0636    1.3864  -13.3948 F   0  0  0  0  0  0  0  0  0  0  0  0
   -3.8898    1.6051  -14.5649 F   0  0  0  0  0  0  0  0  0  0  0  0
   -8.6280    3.9743  -12.5291 N   0  0  0  0  0  0  0  0  0  0  0  0
   -9.4669    3.9302  -13.0425 H   0  0  0  0  0  0  0  0  0  0  0  0
   -8.6092    4.0015  -11.1121 C   0  0  0  0  0  0  0  0  0  0  0  0
   -8.1973    5.1697  -10.4297 C   0  0  0  0  0  0  0  0  0  0  0  0
   -8.1179    5.2139   -9.0351 C   0  0  0  0  0  0  0  0  0  0  0  0
   -8.5023    4.0894   -8.3324 C   0  0  0  0  0  0  0  0  0  0  0  0
   -8.9078    2.9341   -8.9923 C   0  0  0  0  0  0  0  0  0  0  0  0
   -8.9430    2.8635  -10.3735 C   0  0  0  0  0  0  0  0  0  0  0  0
   -9.2688    1.8941   -7.9847 C   0  0  0  0  0  0  0  0  0  0  0  0
   -9.4170    2.6397   -6.7058 N   0  0  0  0  0  0  0  0  0  0  0  0
   -8.6103    3.8676   -6.8609 C   0  0  0  0  0  0  0  0  0  0  0  0
   -9.0684    2.0815   -5.9266 H   0  0  0  0  0  0  0  0  0  0  0  0
 23 24  2  0  0  0
 24 25  1  0  0  0
 25 27  1  0  0  0
 27 28  1  0  0  0
 28 29  1  0  0  0
 28 30  1  0  0  0
 24  1  1  0  0  0
  1  2  1  0  0  0
  1 31  1  0  0  0
 31 33  1  0  0  0
 33 34  2  0  0  0
 34 35  1  0  0  0
 35 36  2  0  0  0
 36 37  1  0  0  0
 37 38  2  0  0  0
 37 39  1  0  0  0
 39 40  1  0  0  0
 40 41  1  0  0  0
  1  4  1  0  0  0
  4  5  2  0  0  0
  5  6  1  0  0  0
  6  7  1  0  0  0
  6  8  2  0  0  0
  8  9  1  0  0  0
  9 10  1  0  0  0
 10 11  2  0  0  0
 11 15  1  0  0  0
 15 16  1  0  0  0
 16 17  1  0  0  0
 17 18  1  0  0  0
 18 19  1  0  0  0
 19 20  1  0  0  0
 20 21  1  0  0  0
 11 12  1  0  0  0
 12 13  2  0  0  0
 38 33  1  0  0  0
 13  4  1  0  0  0
 41 36  1  0  0  0
 12  8  1  0  0  0
 21 16  1  0  0  0
 25 26  1  0  0  0
  2  3  1  0  0  0
 31 32  1  0  0  0
 40 42  1  0  0  0
  9 14  1  0  0  0
 19 22  1  0  0  0
M  END
> <minimizedAffinity>
-9.58069

> <minimizedRMSD>
0.58682

$$$$
P27354


 26 28  0  0  0  0  0  0  0  0999 V2000
   -6.7953    5.0235  -13.3620 C   0  0  0  0  0  0  0  0  0  0  0  0
   -5.8506    5.6001  -12.9906 O   0  0  0  0  0  0  0  0  0  0  0  0
   -7.9712    4.4127  -12.5693 N   0  0  0  0  0  0  0  0  0  0  0  0
   -8.6930    4.0393  -13.1250 H   0  0  0  0  0  0  0  0  0  0  0  0
   -8.1768    4.3039  -11.1961 C   0  0  0  0  0  0  0  0  0  0  0  0
   -7.9797    5.4112  -10.3548 C   0  0  0  0  0  0  0  0  0  0  0  0
   -8.1545    5.3030   -8.9728 C   0  0  0  0  0  0  0  0  0  0  0  0
   -8.5305    4.0776   -8.4568 C   0  0  0  0  0  0  0  0  0  0  0  0
   -8.7265    2.9794   -9.2868 C   0  0  0  0  0  0  0  0  0  0  0  0
   -8.5596    3.0722  -10.6601 C   0  0  0  0  0  0  0  0  0  0  0  0
   -9.0715    1.7921   -8.4530 C   0  0  0  0  0  0  0  0  0  0  0  0
   -9.3473    2.3205   -7.0939 N   0  0  0  0  0  0  0  0  0  0  0  0
   -8.7741    3.6797   -7.0410 C   0  0  0  0  0  0  0  0  0  0  0  0
   -8.9083    1.7266   -6.3903 H   0  0  0  0  0  0  0  0  0  0  0  0
   -7.1462    4.5159  -17.6152 C   0  0  0  0  0  0  0  0  0  0  0  0
   -5.9520    4.9453  -17.0073 C   0  0  0  0  0  0  0  0  0  0  0  0
   -5.8384    5.0729  -15.6267 C   0  0  0  0  0  0  0  0  0  0  0  0
   -6.9262    4.7678  -14.8142 C   0  0  0  0  0  0  0  0  0  0  0  0
   -8.1289    4.3502  -15.3774 C   0  0  0  0  0  0  0  0  0  0  0  0
   -8.2472    4.2558  -16.7714 C   0  0  0  0  0  0  0  0  0  0  0  0
   -9.8298    3.8960  -17.3598 Cl  0  0  0  0  0  0  0  0  0  0  0  0
   -7.5427    3.4356  -19.7967 N   0  0  0  0  0  0  0  0  0  0  0  0
   -7.1315    4.5202  -19.0268 N   0  0  0  0  0  0  0  0  0  0  0  0
   -7.4453    3.6644  -20.7860 H   0  0  0  0  0  0  0  0  0  0  0  0
   -8.5190    3.2235  -19.5913 H   0  0  0  0  0  0  0  0  0  0  0  0
   -6.8150    5.3296  -19.4894 H   0  0  0  0  0  0  0  0  0  0  0  0
 22 23  1  0  0  0
 23 15  1  0  0  0
 15 16  2  0  0  0
 16 17  1  0  0  0
 17 18  2  0  0  0
 18  1  1  0  0  0
  1  2  2  0  0  0
  1  3  1  0  0  0
  3  5  1  0  0  0
  5  6  2  0  0  0
  6  7  1  0  0  0
  7  8  2  0  0  0
  8  9  1  0  0  0
  9 10  2  0  0  0
  9 11  1  0  0  0
 11 12  1  0  0  0
 12 13  1  0  0  0
 18 19  1  0  0  0
 19 20  2  0  0  0
 20 21  1  0  0  0
 20 15  1  0  0  0
 10  5  1  0  0  0
 13  8  1  0  0  0
 22 24  1  0  0  0
 22 25  1  0  0  0
 23 26  1  0  0  0
  3  4  1  0  0  0
 12 14  1  0  0  0
M  END
> <minimizedAffinity>
-8.22505

> <minimizedRMSD>
0.44867

$$$$
P27427


 35 39  0  0  0  0  0  0  0  0999 V2000
   -5.6379    4.7200  -18.6119 C   0  0  0  0  0  0  0  0  0  0  0  0
   -6.3183    4.3529  -19.7483 C   0  0  0  0  0  0  0  0  0  0  0  0
   -7.5920    4.0021  -19.3783 N   0  0  0  0  0  0  0  0  0  0  0  0
   -7.7262    4.1020  -18.0156 C   0  0  0  0  0  0  0  0  0  0  0  0
   -8.8145    3.7924  -17.2016 C   0  0  0  0  0  0  0  0  0  0  0  0
   -9.9406    3.2968  -17.7254 F   0  0  0  0  0  0  0  0  0  0  0  0
   -8.7270    4.0361  -15.8369 C   0  0  0  0  0  0  0  0  0  0  0  0
   -7.5654    4.5908  -15.3133 C   0  0  0  0  0  0  0  0  0  0  0  0
   -6.4497    4.8507  -16.1250 C   0  0  0  0  0  0  0  0  0  0  0  0
   -6.5258    4.6022  -17.5076 C   0  0  0  0  0  0  0  0  0  0  0  0
   -8.3037    3.7208  -19.9976 H   0  0  0  0  0  0  0  0  0  0  0  0
   -2.0807    7.3955  -17.2779 C   0  0  0  0  0  0  0  0  0  0  0  0
   -2.4818    6.1954  -17.9850 N   0  0  0  0  0  0  0  0  0  0  0  0
   -3.4500    5.3788  -17.2283 C   0  0  0  0  0  0  0  0  0  0  0  0
   -4.1209    5.0298  -18.5692 C   0  0  0  0  0  0  0  0  0  0  0  0
   -3.5176    6.3771  -19.0859 C   0  0  0  0  0  0  0  0  0  0  0  0
   -2.8069    6.1959  -20.4406 C   0  0  0  0  0  0  0  0  0  0  0  0
   -4.6047    7.8793  -19.1523 S   0  0  0  0  0  0  0  0  0  0  0  0
   -5.3191    8.1384  -17.5597 C   0  0  0  0  0  0  0  0  0  0  0  0
   -3.7756    9.0527  -19.3936 O   0  0  0  0  0  0  0  0  0  0  0  0
   -5.7120    7.6385  -20.0644 O   0  0  0  0  0  0  0  0  0  0  0  0
   -7.5068    5.0602  -13.9096 C   0  0  0  0  0  0  0  0  0  0  0  0
   -7.0323    6.1083  -13.7086 O   0  0  0  0  0  0  0  0  0  0  0  0
   -8.0780    4.0152  -12.9275 N   0  0  0  0  0  0  0  0  0  0  0  0
   -8.3547    3.1668  -13.3434 H   0  0  0  0  0  0  0  0  0  0  0  0
   -8.2658    4.0771  -11.5483 C   0  0  0  0  0  0  0  0  0  0  0  0
   -7.9920    5.2517  -10.8287 C   0  0  0  0  0  0  0  0  0  0  0  0
   -8.1367    5.2911   -9.4377 C   0  0  0  0  0  0  0  0  0  0  0  0
   -8.5497    4.1416   -8.7899 C   0  0  0  0  0  0  0  0  0  0  0  0
   -8.8246    2.9804   -9.5007 C   0  0  0  0  0  0  0  0  0  0  0  0
   -8.6953    2.9296  -10.8795 C   0  0  0  0  0  0  0  0  0  0  0  0
   -9.1886    1.8914   -8.5508 C   0  0  0  0  0  0  0  0  0  0  0  0
   -9.3475    2.5437   -7.2238 N   0  0  0  0  0  0  0  0  0  0  0  0
   -8.7419    3.8873   -7.3343 C   0  0  0  0  0  0  0  0  0  0  0  0
   -8.8683    2.0004   -6.5057 H   0  0  0  0  0  0  0  0  0  0  0  0
 12 13  1  0  0  0
 13 14  1  0  0  0
 14 15  1  0  0  0
 15  1  1  0  0  0
  1  2  2  0  0  0
  2  3  1  0  0  0
  3  4  1  0  0  0
  4  5  2  0  0  0
  5  6  1  0  0  0
  5  7  1  0  0  0
  7  8  2  0  0  0
  8 22  1  0  0  0
 22 23  2  0  0  0
 22 24  1  0  0  0
 24 26  1  0  0  0
 26 27  2  0  0  0
 27 28  1  0  0  0
 28 29  2  0  0  0
 29 30  1  0  0  0
 30 31  2  0  0  0
 30 32  1  0  0  0
 32 33  1  0  0  0
 33 34  1  0  0  0
  8  9  1  0  0  0
  9 10  2  0  0  0
 15 16  1  0  0  0
 16 17  1  0  0  0
 16 18  1  0  0  0
 18 19  1  0  0  0
 18 20  2  0  0  0
 18 21  2  0  0  0
 16 13  1  0  0  0
 10  1  1  0  0  0
 10  4  1  0  0  0
 31 26  1  0  0  0
 34 29  1  0  0  0
  3 11  1  0  0  0
 24 25  1  0  0  0
 33 35  1  0  0  0
M  END
> <minimizedAffinity>
-9.62742

> <minimizedRMSD>
0.49933

$$$$
P27437


 39 43  0  0  0  0  0  0  0  0999 V2000
   -6.9561    4.9269  -13.1919 C   0  0  0  0  0  0  0  0  0  0  0  0
   -6.9187    6.3420  -13.0743 O   0  0  0  0  0  0  0  0  0  0  0  0
   -7.7140    6.7213  -13.4800 H   0  0  0  0  0  0  0  0  0  0  0  0
   -5.2113    5.2133  -18.0542 C   0  0  0  0  0  0  0  0  0  0  0  0
   -5.8884    4.9018  -19.2087 C   0  0  0  0  0  0  0  0  0  0  0  0
   -7.1361    4.4673  -18.8491 N   0  0  0  0  0  0  0  0  0  0  0  0
   -7.2634    4.4710  -17.4810 C   0  0  0  0  0  0  0  0  0  0  0  0
   -8.3625    4.1589  -16.6841 C   0  0  0  0  0  0  0  0  0  0  0  0
   -9.8727    3.8131  -17.4065 Cl  0  0  0  0  0  0  0  0  0  0  0  0
   -8.2307    4.2519  -15.2985 C   0  0  0  0  0  0  0  0  0  0  0  0
   -7.0345    4.6910  -14.7035 C   0  0  0  0  0  0  0  0  0  0  0  0
   -5.9582    5.0418  -15.5493 C   0  0  0  0  0  0  0  0  0  0  0  0
   -6.0581    4.9231  -16.9503 C   0  0  0  0  0  0  0  0  0  0  0  0
   -7.8402    4.1919  -19.4797 H   0  0  0  0  0  0  0  0  0  0  0  0
   -1.1581    7.0076  -17.4843 C   0  0  0  0  0  0  0  0  0  0  0  0
   -2.2834    6.5048  -16.6946 N   0  0  0  0  0  0  0  0  0  0  0  0
   -2.7007    5.1700  -17.1901 C   0  0  0  0  0  0  0  0  0  0  0  0
   -3.7842    5.8301  -18.0578 C   0  0  0  0  0  0  0  0  0  0  0  0
   -3.5632    7.0764  -17.1785 C   0  0  0  0  0  0  0  0  0  0  0  0
   -5.6676    4.2097  -12.5417 C   0  0  0  0  0  0  0  0  0  0  0  0
   -5.5871    3.0634  -12.3213 O   0  0  0  0  0  0  0  0  0  0  0  0
   -4.6095    5.3449  -12.3855 N   0  0  0  0  0  0  0  0  0  0  0  0
   -4.8993    6.2268  -12.7133 H   0  0  0  0  0  0  0  0  0  0  0  0
   -3.2726    5.3119  -11.8376 C   0  0  0  0  0  0  0  0  0  0  0  0
   -2.3094    4.4261  -12.6168 C   0  0  0  0  0  0  0  0  0  0  0  0
   -2.3790    3.1425  -12.1836 F   0  0  0  0  0  0  0  0  0  0  0  0
   -2.6593    4.4090  -13.9300 F   0  0  0  0  0  0  0  0  0  0  0  0
   -8.1884    4.4926  -12.5318 N   0  0  0  0  0  0  0  0  0  0  0  0
   -8.9797    4.2985  -13.0845 H   0  0  0  0  0  0  0  0  0  0  0  0
   -8.2829    4.3424  -11.1356 C   0  0  0  0  0  0  0  0  0  0  0  0
   -8.1163    5.3972  -10.2122 C   0  0  0  0  0  0  0  0  0  0  0  0
   -8.2932    5.2148   -8.8348 C   0  0  0  0  0  0  0  0  0  0  0  0
   -8.6520    3.9636   -8.3824 C   0  0  0  0  0  0  0  0  0  0  0  0
   -8.8579    2.9218   -9.2721 C   0  0  0  0  0  0  0  0  0  0  0  0
   -8.7028    3.0983  -10.6387 C   0  0  0  0  0  0  0  0  0  0  0  0
   -9.2662    1.7021   -8.5221 C   0  0  0  0  0  0  0  0  0  0  0  0
   -9.0932    2.0285   -7.0785 N   0  0  0  0  0  0  0  0  0  0  0  0
   -8.9160    3.4940   -6.9959 C   0  0  0  0  0  0  0  0  0  0  0  0
   -8.2713    1.5530   -6.7061 H   0  0  0  0  0  0  0  0  0  0  0  0
 15 16  1  0  0  0
 16 17  1  0  0  0
 17 18  1  0  0  0
 18  4  1  0  0  0
  4  5  2  0  0  0
  5  6  1  0  0  0
  6  7  1  0  0  0
  7  8  2  0  0  0
  8  9  1  0  0  0
  8 10  1  0  0  0
 10 11  2  0  0  0
 11  1  1  0  0  0
  1  2  1  0  0  0
  1 28  1  0  0  0
 28 30  1  0  0  0
 30 31  2  0  0  0
 31 32  1  0  0  0
 32 33  2  0  0  0
 33 34  1  0  0  0
 34 35  2  0  0  0
 34 36  1  0  0  0
 36 37  1  0  0  0
 37 38  1  0  0  0
  1 20  1  0  0  0
 20 21  2  0  0  0
 20 22  1  0  0  0
 22 24  1  0  0  0
 24 25  1  0  0  0
 25 26  1  0  0  0
 25 27  1  0  0  0
 11 12  1  0  0  0
 12 13  2  0  0  0
 18 19  1  0  0  0
 19 16  1  0  0  0
 13  4  1  0  0  0
 13  7  1  0  0  0
 35 30  1  0  0  0
 38 33  1  0  0  0
  6 14  1  0  0  0
  2  3  1  0  0  0
 28 29  1  0  0  0
 37 39  1  0  0  0
 22 23  1  0  0  0
M  END
> <minimizedAffinity>
-8.67886

> <minimizedRMSD>
1.83355

$$$$
P27438


 41 45  0  0  0  0  0  0  0  0999 V2000
   -5.2559    5.3244  -17.7522 C   0  0  0  0  0  0  0  0  0  0  0  0
   -5.3952    4.9362  -19.0621 C   0  0  0  0  0  0  0  0  0  0  0  0
   -6.6189    4.3249  -19.1837 N   0  0  0  0  0  0  0  0  0  0  0  0
   -7.2548    4.3015  -17.9659 C   0  0  0  0  0  0  0  0  0  0  0  0
   -8.5151    3.8170  -17.6230 C   0  0  0  0  0  0  0  0  0  0  0  0
   -9.2983    3.2329  -18.5369 F   0  0  0  0  0  0  0  0  0  0  0  0
   -8.9668    3.9781  -16.3181 C   0  0  0  0  0  0  0  0  0  0  0  0
   -8.1526    4.6050  -15.3736 C   0  0  0  0  0  0  0  0  0  0  0  0
   -6.8725    5.0749  -15.7203 C   0  0  0  0  0  0  0  0  0  0  0  0
   -6.4175    4.9253  -17.0426 C   0  0  0  0  0  0  0  0  0  0  0  0
   -6.9863    3.9576  -20.0200 H   0  0  0  0  0  0  0  0  0  0  0  0
   -0.8615    5.4904  -17.5295 C   0  0  0  0  0  0  0  0  0  0  0  0
   -1.9851    6.2735  -17.0059 N   0  0  0  0  0  0  0  0  0  0  0  0
   -2.9946    5.3416  -16.4314 C   0  0  0  0  0  0  0  0  0  0  0  0
   -4.0922    6.1605  -17.1414 C   0  0  0  0  0  0  0  0  0  0  0  0
   -2.9343    6.5997  -18.0916 C   0  0  0  0  0  0  0  0  0  0  0  0
   -3.0632    8.0416  -18.2846 N   0  0  0  0  0  0  0  0  0  0  0  0
   -2.4283    8.5185  -17.6443 H   0  0  0  0  0  0  0  0  0  0  0  0
   -2.7426    8.4337  -19.6409 C   0  0  0  0  0  0  0  0  0  0  0  0
   -3.1231    7.3533  -20.5371 N   0  0  0  0  0  0  0  0  0  0  0  0
   -3.7295    7.7076  -21.2768 H   0  0  0  0  0  0  0  0  0  0  0  0
   -1.8870    6.8254  -21.1094 O   0  0  0  0  0  0  0  0  0  0  0  0
   -2.1236    5.4743  -21.5191 C   0  0  0  0  0  0  0  0  0  0  0  0
   -1.9678    5.3825  -23.0333 C   0  0  0  0  0  0  0  0  0  0  0  0
   -3.2104    5.8534  -23.7766 C   0  0  0  0  0  0  0  0  0  0  0  0
   -4.2682    6.0712  -22.8526 O   0  0  0  0  0  0  0  0  0  0  0  0
   -4.4677    5.2432  -22.3884 H   0  0  0  0  0  0  0  0  0  0  0  0
   -8.6482    4.9089  -14.0026 C   0  0  0  0  0  0  0  0  0  0  0  0
   -9.4708    5.7778  -13.9292 O   0  0  0  0  0  0  0  0  0  0  0  0
   -8.0618    4.0840  -12.9859 N   0  0  0  0  0  0  0  0  0  0  0  0
   -7.4574    3.3851  -13.3256 H   0  0  0  0  0  0  0  0  0  0  0  0
   -8.2016    4.1032  -11.5986 C   0  0  0  0  0  0  0  0  0  0  0  0
   -7.9038    5.2532  -10.8472 C   0  0  0  0  0  0  0  0  0  0  0  0
   -8.0496    5.2609   -9.4567 C   0  0  0  0  0  0  0  0  0  0  0  0
   -8.4902    4.1051   -8.8412 C   0  0  0  0  0  0  0  0  0  0  0  0
   -8.7928    2.9685   -9.5813 C   0  0  0  0  0  0  0  0  0  0  0  0
   -8.6573    2.9468  -10.9600 C   0  0  0  0  0  0  0  0  0  0  0  0
   -9.2876    1.8999   -8.6682 C   0  0  0  0  0  0  0  0  0  0  0  0
   -9.0415    2.3961   -7.2869 N   0  0  0  0  0  0  0  0  0  0  0  0
   -8.7605    3.8439   -7.4007 C   0  0  0  0  0  0  0  0  0  0  0  0
   -8.2417    1.9137   -6.8771 H   0  0  0  0  0  0  0  0  0  0  0  0
 12 13  1  0  0  0
 13 14  1  0  0  0
 14 15  1  0  0  0
 15  1  1  0  0  0
  1  2  2  0  0  0
  2  3  1  0  0  0
  3  4  1  0  0  0
  4  5  2  0  0  0
  5  6  1  0  0  0
  5  7  1  0  0  0
  7  8  2  0  0  0
  8 28  1  0  0  0
 28 29  2  0  0  0
 28 30  1  0  0  0
 30 32  1  0  0  0
 32 33  2  0  0  0
 33 34  1  0  0  0
 34 35  2  0  0  0
 35 36  1  0  0  0
 36 37  2  0  0  0
 36 38  1  0  0  0
 38 39  1  0  0  0
 39 40  1  0  0  0
  8  9  1  0  0  0
  9 10  2  0  0  0
 15 16  1  0  0  0
 16 17  1  0  0  0
 17 19  1  0  0  0
 19 20  1  0  0  0
 20 22  1  0  0  0
 22 23  1  0  0  0
 23 24  1  0  0  0
 24 25  1  0  0  0
 25 26  1  0  0  0
 16 13  1  0  0  0
 10  1  1  0  0  0
 10  4  1  0  0  0
 37 32  1  0  0  0
 40 35  1  0  0  0
  3 11  1  0  0  0
 30 31  1  0  0  0
 39 41  1  0  0  0
 17 18  1  0  0  0
 20 21  1  0  0  0
 26 27  1  0  0  0
M  END
> <minimizedAffinity>
-8.34105

> <minimizedRMSD>
2.62930

$$$$
P27444


 35 39  0  0  0  0  0  0  0  0999 V2000
   -7.1755    5.2875  -13.5964 C   0  0  0  0  0  0  0  0  0  0  0  0
   -6.5795    6.2482  -13.3105 O   0  0  0  0  0  0  0  0  0  0  0  0
   -8.0523    4.3623  -12.7322 N   0  0  0  0  0  0  0  0  0  0  0  0
   -8.5156    3.6505  -13.2302 H   0  0  0  0  0  0  0  0  0  0  0  0
   -5.1977    5.1540  -18.2532 C   0  0  0  0  0  0  0  0  0  0  0  0
   -5.8127    4.7505  -19.4140 C   0  0  0  0  0  0  0  0  0  0  0  0
   -7.0552    4.2823  -19.0760 N   0  0  0  0  0  0  0  0  0  0  0  0
   -7.2362    4.3656  -17.7152 C   0  0  0  0  0  0  0  0  0  0  0  0
   -8.3545    4.0730  -16.9373 C   0  0  0  0  0  0  0  0  0  0  0  0
   -9.8393    3.6790  -17.6673 Cl  0  0  0  0  0  0  0  0  0  0  0  0
   -8.2937    4.2706  -15.5650 C   0  0  0  0  0  0  0  0  0  0  0  0
   -7.1603    4.8337  -15.0026 C   0  0  0  0  0  0  0  0  0  0  0  0
   -6.0437    5.1410  -15.7805 C   0  0  0  0  0  0  0  0  0  0  0  0
   -6.0727    4.9010  -17.1660 C   0  0  0  0  0  0  0  0  0  0  0  0
   -7.7209    3.9369  -19.7138 H   0  0  0  0  0  0  0  0  0  0  0  0
   -1.4110    5.9490  -15.9338 C   0  0  0  0  0  0  0  0  0  0  0  0
   -2.7034    5.5327  -16.4369 N   0  0  0  0  0  0  0  0  0  0  0  0
   -3.5143    6.6643  -16.9261 C   0  0  0  0  0  0  0  0  0  0  0  0
   -3.8110    5.8611  -18.2123 C   0  0  0  0  0  0  0  0  0  0  0  0
   -2.5868    5.0161  -17.8115 C   0  0  0  0  0  0  0  0  0  0  0  0
   -8.2956    4.3684  -11.3674 C   0  0  0  0  0  0  0  0  0  0  0  0
   -8.0748    5.5165  -10.5877 C   0  0  0  0  0  0  0  0  0  0  0  0
   -8.2291    5.4801   -9.1988 C   0  0  0  0  0  0  0  0  0  0  0  0
   -8.6005    4.2818   -8.6210 C   0  0  0  0  0  0  0  0  0  0  0  0
   -8.8490    3.1536   -9.4063 C   0  0  0  0  0  0  0  0  0  0  0  0
   -8.7134    3.1791  -10.7788 C   0  0  0  0  0  0  0  0  0  0  0  0
   -9.1293    1.9777   -8.5367 C   0  0  0  0  0  0  0  0  0  0  0  0
   -9.2905    2.5401   -7.1817 N   0  0  0  0  0  0  0  0  0  0  0  0
   -8.5887    3.8519   -7.1909 C   0  0  0  0  0  0  0  0  0  0  0  0
   -8.8714    1.9197   -6.4890 H   0  0  0  0  0  0  0  0  0  0  0  0
   -9.1182    4.7716   -6.1050 C   0  0  0  0  0  0  0  0  0  0  0  0
   -8.7770    4.0758   -4.8143 C   0  0  0  0  0  0  0  0  0  0  0  0
   -7.6635    4.0315   -4.3013 O   0  0  0  0  0  0  0  0  0  0  0  0
   -9.8261    3.4022   -4.3061 O   0  0  0  0  0  0  0  0  0  0  0  0
  -10.6640    3.4570   -4.7219 H   0  0  0  0  0  0  0  0  0  0  0  0
 16 17  1  0  0  0
 17 18  1  0  0  0
 18 19  1  0  0  0
 19  5  1  0  0  0
  5  6  2  0  0  0
  6  7  1  0  0  0
  7  8  1  0  0  0
  8  9  2  0  0  0
  9 10  1  0  0  0
  9 11  1  0  0  0
 11 12  2  0  0  0
 12  1  1  0  0  0
  1  2  2  0  0  0
  1  3  1  0  0  0
  3 21  1  0  0  0
 21 22  2  0  0  0
 22 23  1  0  0  0
 23 24  2  0  0  0
 24 25  1  0  0  0
 25 26  2  0  0  0
 25 27  1  0  0  0
 27 28  1  0  0  0
 28 29  1  0  0  0
 29 31  1  0  0  0
 31 32  1  0  0  0
 32 33  2  0  0  0
 32 34  1  0  0  0
 12 13  1  0  0  0
 13 14  2  0  0  0
 19 20  1  0  0  0
 20 17  1  0  0  0
 14  5  1  0  0  0
 14  8  1  0  0  0
 26 21  1  0  0  0
 29 24  1  0  0  0
  7 15  1  0  0  0
  3  4  1  0  0  0
 28 30  1  0  0  0
 34 35  1  0  0  0
M  END
> <minimizedAffinity>
-9.36374

> <minimizedRMSD>
0.55494

$$$$
P27446


 30 34  0  0  0  0  0  0  0  0999 V2000
   -5.9570    4.9693  -18.7049 C   0  0  0  0  0  0  0  0  0  0  0  0
   -6.5525    4.2756  -19.7300 C   0  0  0  0  0  0  0  0  0  0  0  0
   -7.7398    3.7971  -19.2457 N   0  0  0  0  0  0  0  0  0  0  0  0
   -7.8183    4.0380  -17.8949 C   0  0  0  0  0  0  0  0  0  0  0  0
   -8.8664    3.7852  -17.0177 C   0  0  0  0  0  0  0  0  0  0  0  0
   -8.6696    4.0976  -15.6728 C   0  0  0  0  0  0  0  0  0  0  0  0
   -7.4625    4.6302  -15.2205 C   0  0  0  0  0  0  0  0  0  0  0  0
   -6.4472    4.9506  -16.1353 C   0  0  0  0  0  0  0  0  0  0  0  0
   -6.6381    4.6639  -17.5013 C   0  0  0  0  0  0  0  0  0  0  0  0
   -8.4321    3.3487  -19.7831 H   0  0  0  0  0  0  0  0  0  0  0  0
   -2.6504    4.2086  -19.6838 C   0  0  0  0  0  0  0  0  0  0  0  0
   -2.8600    5.6361  -19.4456 N   0  0  0  0  0  0  0  0  0  0  0  0
   -3.5377    5.8148  -18.1492 C   0  0  0  0  0  0  0  0  0  0  0  0
   -4.8696    6.0709  -18.8540 C   0  0  0  0  0  0  0  0  0  0  0  0
   -4.0577    6.1069  -20.1620 C   0  0  0  0  0  0  0  0  0  0  0  0
   -7.2736    4.9877  -13.7818 C   0  0  0  0  0  0  0  0  0  0  0  0
   -6.5018    5.8276  -13.5236 O   0  0  0  0  0  0  0  0  0  0  0  0
   -8.2202    4.1732  -12.8595 N   0  0  0  0  0  0  0  0  0  0  0  0
   -8.8368    3.5687  -13.3324 H   0  0  0  0  0  0  0  0  0  0  0  0
   -8.3393    4.1588  -11.4693 C   0  0  0  0  0  0  0  0  0  0  0  0
   -8.0750    5.3078  -10.7015 C   0  0  0  0  0  0  0  0  0  0  0  0
   -8.2041    5.2852   -9.3081 C   0  0  0  0  0  0  0  0  0  0  0  0
   -8.5950    4.0974   -8.7223 C   0  0  0  0  0  0  0  0  0  0  0  0
   -8.8579    2.9484   -9.4633 C   0  0  0  0  0  0  0  0  0  0  0  0
   -8.7358    2.9657  -10.8448 C   0  0  0  0  0  0  0  0  0  0  0  0
   -9.2300    1.8321   -8.5445 C   0  0  0  0  0  0  0  0  0  0  0  0
   -9.2636    2.4832   -7.2515 N   0  0  0  0  0  0  0  0  0  0  0  0
   -8.8066    3.7820   -7.3036 C   0  0  0  0  0  0  0  0  0  0  0  0
   -8.6005    4.5343   -6.3700 O   0  0  0  0  0  0  0  0  0  0  0  0
   -9.5781    2.0466   -6.4271 H   0  0  0  0  0  0  0  0  0  0  0  0
 11 12  1  0  0  0
 12 13  1  0  0  0
 13 14  1  0  0  0
 14  1  1  0  0  0
  1  2  2  0  0  0
  2  3  1  0  0  0
  3  4  1  0  0  0
  4  5  2  0  0  0
  5  6  1  0  0  0
  6  7  2  0  0  0
  7 16  1  0  0  0
 16 17  2  0  0  0
 16 18  1  0  0  0
 18 20  1  0  0  0
 20 21  2  0  0  0
 21 22  1  0  0  0
 22 23  2  0  0  0
 23 24  1  0  0  0
 24 25  2  0  0  0
 24 26  1  0  0  0
 26 27  1  0  0  0
 27 28  1  0  0  0
 28 29  2  0  0  0
  7  8  1  0  0  0
  8  9  2  0  0  0
 14 15  1  0  0  0
 15 12  1  0  0  0
  9  1  1  0  0  0
  9  4  1  0  0  0
 25 20  1  0  0  0
 28 23  1  0  0  0
  3 10  1  0  0  0
 18 19  1  0  0  0
 27 30  1  0  0  0
M  END
> <minimizedAffinity>
-9.55778

> <minimizedRMSD>
0.53797

$$$$
P27450


 39 45  0  0  0  0  0  0  0  0999 V2000
   -3.7483    8.3903  -19.7756 C   0  0  0  0  0  0  0  0  0  0  0  0
   -4.5548    7.1950  -19.5942 N   0  0  0  0  0  0  0  0  0  0  0  0
   -5.2210    7.1947  -18.2765 C   0  0  0  0  0  0  0  0  0  0  0  0
   -4.9649    5.6647  -18.1731 C   0  0  0  0  0  0  0  0  0  0  0  0
   -4.4695    5.3774  -16.7793 N   0  0  0  0  0  0  0  0  0  0  0  0
   -5.5286    5.5214  -15.7608 N   0  0  0  0  0  0  0  0  0  0  0  0
   -6.7362    4.8277  -16.0155 C   0  0  0  0  0  0  0  0  0  0  0  0
   -7.7810    4.5854  -15.1109 C   0  0  0  0  0  0  0  0  0  0  0  0
   -8.9933    4.0090  -15.5498 C   0  0  0  0  0  0  0  0  0  0  0  0
   -9.2167    3.6532  -16.8901 C   0  0  0  0  0  0  0  0  0  0  0  0
   -8.1749    3.9058  -17.7722 C   0  0  0  0  0  0  0  0  0  0  0  0
   -8.0488    3.7416  -19.1342 N   0  0  0  0  0  0  0  0  0  0  0  0
   -6.8390    4.2606  -19.5649 C   0  0  0  0  0  0  0  0  0  0  0  0
   -6.2118    4.7792  -18.4680 C   0  0  0  0  0  0  0  0  0  0  0  0
   -6.9987    4.4846  -17.3457 C   0  0  0  0  0  0  0  0  0  0  0  0
   -3.7998    5.9287  -19.2217 C   0  0  0  0  0  0  0  0  0  0  0  0
   -2.3800    6.1622  -18.6533 C   0  0  0  0  0  0  0  0  0  0  0  0
   -1.6700    4.8256  -18.4113 C   0  0  0  0  0  0  0  0  0  0  0  0
   -1.9301    3.8173  -19.4385 N   0  0  0  0  0  0  0  0  0  0  0  0
   -2.3703    4.4223  -20.6872 C   0  0  0  0  0  0  0  0  0  0  0  0
   -3.7453    5.0312  -20.4793 C   0  0  0  0  0  0  0  0  0  0  0  0
   -3.7147    6.0276  -16.5602 H   0  0  0  0  0  0  0  0  0  0  0  0
   -5.4024    6.0678  -14.9517 H   0  0  0  0  0  0  0  0  0  0  0  0
   -8.7202    3.3175  -19.7161 H   0  0  0  0  0  0  0  0  0  0  0  0
   -2.6563    3.1841  -19.1038 H   0  0  0  0  0  0  0  0  0  0  0  0
   -7.6578    5.0374  -13.6960 C   0  0  0  0  0  0  0  0  0  0  0  0
   -7.1380    6.0633  -13.4895 O   0  0  0  0  0  0  0  0  0  0  0  0
   -8.3262    4.0363  -12.7208 N   0  0  0  0  0  0  0  0  0  0  0  0
   -8.7656    3.2694  -13.1545 H   0  0  0  0  0  0  0  0  0  0  0  0
   -8.4064    4.0445  -11.3309 C   0  0  0  0  0  0  0  0  0  0  0  0
   -8.0982    5.2010  -10.5964 C   0  0  0  0  0  0  0  0  0  0  0  0
   -8.1918    5.2110   -9.2019 C   0  0  0  0  0  0  0  0  0  0  0  0
   -8.5814    4.0483   -8.5655 C   0  0  0  0  0  0  0  0  0  0  0  0
   -8.8864    2.9019   -9.2891 C   0  0  0  0  0  0  0  0  0  0  0  0
   -8.8131    2.8813  -10.6727 C   0  0  0  0  0  0  0  0  0  0  0  0
   -9.3010    1.8215   -8.3507 C   0  0  0  0  0  0  0  0  0  0  0  0
   -9.0156    2.3327   -6.9826 N   0  0  0  0  0  0  0  0  0  0  0  0
   -8.7838    3.7873   -7.1141 C   0  0  0  0  0  0  0  0  0  0  0  0
   -8.1857    1.8771   -6.6029 H   0  0  0  0  0  0  0  0  0  0  0  0
  1  2  1  0  0  0
  2  3  1  0  0  0
  4  3  1  0  0  0
  4  5  1  0  0  0
  5  6  1  0  0  0
  6  7  1  0  0  0
  7  8  2  0  0  0
  8 26  1  0  0  0
 26 27  2  0  0  0
 26 28  1  0  0  0
 28 30  1  0  0  0
 30 31  2  0  0  0
 31 32  1  0  0  0
 32 33  2  0  0  0
 33 34  1  0  0  0
 34 35  2  0  0  0
 34 36  1  0  0  0
 36 37  1  0  0  0
 37 38  1  0  0  0
  8  9  1  0  0  0
  9 10  2  0  0  0
 10 11  1  0  0  0
 11 12  1  0  0  0
 12 13  1  0  0  0
 13 14  2  0  0  0
 14 15  1  0  0  0
  4 16  1  0  0  0
 16 17  1  0  0  0
 17 18  1  0  0  0
 18 19  1  0  0  0
 19 20  1  0  0  0
 20 21  1  0  0  0
 16  2  1  0  0  0
 14  4  1  0  0  0
 21 16  1  0  0  0
 15  7  1  0  0  0
 35 30  1  0  0  0
 15 11  2  0  0  0
 38 33  1  0  0  0
  5 22  1  0  0  0
  6 23  1  0  0  0
 28 29  1  0  0  0
 37 39  1  0  0  0
 12 24  1  0  0  0
 19 25  1  0  0  0
M  END
> <minimizedAffinity>
-11.32751

> <minimizedRMSD>
0.49478

$$$$
P27451


 33 38  0  0  0  0  0  0  0  0999 V2000
   -1.1824    7.0814  -18.3090 C   0  0  0  0  0  0  0  0  0  0  0  0
   -1.9390    6.4981  -17.2076 N   0  0  0  0  0  0  0  0  0  0  0  0
   -3.3461    6.9917  -17.2007 C   0  0  0  0  0  0  0  0  0  0  0  0
   -3.8123    5.5397  -16.9582 C   0  0  0  0  0  0  0  0  0  0  0  0
   -2.4580    5.1502  -17.5995 C   0  0  0  0  0  0  0  0  0  0  0  0
   -3.7782    5.2274  -15.4910 N   0  0  0  0  0  0  0  0  0  0  0  0
   -5.0168    5.6370  -14.7743 C   0  0  0  0  0  0  0  0  0  0  0  0
   -6.2763    5.1380  -15.4317 C   0  0  0  0  0  0  0  0  0  0  0  0
   -7.5307    4.9592  -14.8353 C   0  0  0  0  0  0  0  0  0  0  0  0
   -8.6397    4.5397  -15.5919 C   0  0  0  0  0  0  0  0  0  0  0  0
   -8.5353    4.3440  -16.9749 C   0  0  0  0  0  0  0  0  0  0  0  0
  -10.0477    4.0330  -18.0216 Br  0  0  0  0  0  0  0  0  0  0  0  0
   -7.2976    4.5497  -17.5684 C   0  0  0  0  0  0  0  0  0  0  0  0
   -6.8548    4.5280  -18.8749 N   0  0  0  0  0  0  0  0  0  0  0  0
   -5.5129    4.8684  -18.9321 C   0  0  0  0  0  0  0  0  0  0  0  0
   -5.1152    5.0982  -17.6437 C   0  0  0  0  0  0  0  0  0  0  0  0
   -6.2153    4.9240  -16.8072 C   0  0  0  0  0  0  0  0  0  0  0  0
   -2.9860    5.7162  -15.0740 H   0  0  0  0  0  0  0  0  0  0  0  0
   -7.4122    4.3029  -19.6546 H   0  0  0  0  0  0  0  0  0  0  0  0
   -7.7449    5.3881  -13.4309 C   0  0  0  0  0  0  0  0  0  0  0  0
   -7.7471    6.5322  -13.1970 O   0  0  0  0  0  0  0  0  0  0  0  0
   -8.0043    4.1768  -12.5080 N   0  0  0  0  0  0  0  0  0  0  0  0
   -8.0201    3.3056  -12.9662 H   0  0  0  0  0  0  0  0  0  0  0  0
   -8.2195    4.1166  -11.1334 C   0  0  0  0  0  0  0  0  0  0  0  0
   -7.9271    5.2140  -10.3066 C   0  0  0  0  0  0  0  0  0  0  0  0
   -8.1591    5.1559   -8.9283 C   0  0  0  0  0  0  0  0  0  0  0  0
   -8.6775    3.9877   -8.4032 C   0  0  0  0  0  0  0  0  0  0  0  0
   -8.9528    2.8947   -9.2192 C   0  0  0  0  0  0  0  0  0  0  0  0
   -8.7421    2.9429  -10.5868 C   0  0  0  0  0  0  0  0  0  0  0  0
   -9.4278    1.7630   -8.3708 C   0  0  0  0  0  0  0  0  0  0  0  0
   -9.7932    2.3818   -7.0695 N   0  0  0  0  0  0  0  0  0  0  0  0
   -9.0094    3.6349   -6.9922 C   0  0  0  0  0  0  0  0  0  0  0  0
   -9.5486    1.7605   -6.2984 H   0  0  0  0  0  0  0  0  0  0  0  0
  1  2  1  0  0  0
  2  3  1  0  0  0
  3  4  1  0  0  0
  4  5  1  0  0  0
  4  6  1  0  0  0
  6  7  1  0  0  0
  7  8  1  0  0  0
  8  9  2  0  0  0
  9 20  1  0  0  0
 20 21  2  0  0  0
 20 22  1  0  0  0
 22 24  1  0  0  0
 24 25  2  0  0  0
 25 26  1  0  0  0
 26 27  2  0  0  0
 27 28  1  0  0  0
 28 29  2  0  0  0
 28 30  1  0  0  0
 30 31  1  0  0  0
 31 32  1  0  0  0
  9 10  1  0  0  0
 10 11  2  0  0  0
 11 12  1  0  0  0
 11 13  1  0  0  0
 13 14  1  0  0  0
 14 15  1  0  0  0
 15 16  2  0  0  0
 16 17  1  0  0  0
  5  2  1  0  0  0
 17  8  1  0  0  0
 16  4  1  0  0  0
 29 24  1  0  0  0
 17 13  2  0  0  0
 32 27  1  0  0  0
  6 18  1  0  0  0
 22 23  1  0  0  0
 31 33  1  0  0  0
 14 19  1  0  0  0
M  END
> <minimizedAffinity>
-9.62669

> <minimizedRMSD>
0.56029

$$$$
P27453


 33 38  0  0  0  0  0  0  0  0999 V2000
   -1.5554    7.7570  -17.3876 C   0  0  0  0  0  0  0  0  0  0  0  0
   -1.7436    6.3231  -17.5832 N   0  0  0  0  0  0  0  0  0  0  0  0
   -1.8102    5.6141  -16.2759 C   0  0  0  0  0  0  0  0  0  0  0  0
   -3.2213    5.0181  -16.1217 C   0  0  0  0  0  0  0  0  0  0  0  0
   -4.0225    5.8315  -17.1066 C   0  0  0  0  0  0  0  0  0  0  0  0
   -5.2721    5.2967  -17.6815 C   0  0  0  0  0  0  0  0  0  0  0  0
   -5.5134    5.4601  -19.0269 C   0  0  0  0  0  0  0  0  0  0  0  0
   -6.7064    4.8478  -19.3210 N   0  0  0  0  0  0  0  0  0  0  0  0
   -7.3453    4.5220  -18.1382 C   0  0  0  0  0  0  0  0  0  0  0  0
   -8.6409    4.0487  -17.8979 C   0  0  0  0  0  0  0  0  0  0  0  0
   -9.0793    4.0446  -16.5655 C   0  0  0  0  0  0  0  0  0  0  0  0
   -8.2427    4.4686  -15.5338 C   0  0  0  0  0  0  0  0  0  0  0  0
   -6.9069    4.7865  -15.7763 C   0  0  0  0  0  0  0  0  0  0  0  0
   -6.4643    4.8376  -17.0999 C   0  0  0  0  0  0  0  0  0  0  0  0
   -4.6398    6.2055  -19.9854 C   0  0  0  0  0  0  0  0  0  0  0  0
   -3.4531    6.8200  -19.3223 N   0  0  0  0  0  0  0  0  0  0  0  0
   -2.9937    5.9421  -18.2502 C   0  0  0  0  0  0  0  0  0  0  0  0
   -7.0509    4.6697  -20.2259 H   0  0  0  0  0  0  0  0  0  0  0  0
   -3.7113    7.7270  -18.9335 H   0  0  0  0  0  0  0  0  0  0  0  0
   -8.7597    4.8499  -14.1979 C   0  0  0  0  0  0  0  0  0  0  0  0
   -9.5173    5.7369  -14.1553 O   0  0  0  0  0  0  0  0  0  0  0  0
   -8.1463    4.0061  -13.0666 N   0  0  0  0  0  0  0  0  0  0  0  0
   -7.5846    3.2566  -13.3696 H   0  0  0  0  0  0  0  0  0  0  0  0
   -8.2564    4.1300  -11.6848 C   0  0  0  0  0  0  0  0  0  0  0  0
   -7.8712    5.3196  -11.0410 C   0  0  0  0  0  0  0  0  0  0  0  0
   -7.9630    5.4486   -9.6529 C   0  0  0  0  0  0  0  0  0  0  0  0
   -8.4468    4.3743   -8.9332 C   0  0  0  0  0  0  0  0  0  0  0  0
   -8.8091    3.1891   -9.5667 C   0  0  0  0  0  0  0  0  0  0  0  0
   -8.7287    3.0517  -10.9422 C   0  0  0  0  0  0  0  0  0  0  0  0
   -9.2123    2.1931   -8.5313 C   0  0  0  0  0  0  0  0  0  0  0  0
   -9.4668    2.9941   -7.3058 N   0  0  0  0  0  0  0  0  0  0  0  0
   -8.6685    4.2297   -7.4653 C   0  0  0  0  0  0  0  0  0  0  0  0
   -9.1672    2.4812   -6.4766 H   0  0  0  0  0  0  0  0  0  0  0  0
  1  2  1  0  0  0
  2  3  1  0  0  0
  3  4  1  0  0  0
  5  4  1  0  0  0
  5  6  1  0  0  0
  6  7  2  0  0  0
  7  8  1  0  0  0
  8  9  1  0  0  0
  9 10  2  0  0  0
 10 11  1  0  0  0
 11 12  2  0  0  0
 12 20  1  0  0  0
 20 21  2  0  0  0
 20 22  1  0  0  0
 22 24  1  0  0  0
 24 25  2  0  0  0
 25 26  1  0  0  0
 26 27  2  0  0  0
 27 28  1  0  0  0
 28 29  2  0  0  0
 28 30  1  0  0  0
 30 31  1  0  0  0
 31 32  1  0  0  0
 12 13  1  0  0  0
 13 14  2  0  0  0
  7 15  1  0  0  0
 15 16  1  0  0  0
 17 16  1  0  0  0
 17  2  1  0  0  0
 17  5  1  0  0  0
 14  6  1  0  0  0
 14  9  1  0  0  0
 29 24  1  0  0  0
 32 27  1  0  0  0
  8 18  1  0  0  0
 22 23  1  0  0  0
 31 33  1  0  0  0
 16 19  1  0  0  0
M  END
> <minimizedAffinity>
-9.80731

> <minimizedRMSD>
0.94686

$$$$
P27457


 30 34  0  0  0  0  0  0  0  0999 V2000
   -6.0272    4.7354  -18.7694 C   0  0  0  0  0  0  0  0  0  0  0  0
   -6.7488    4.1593  -19.7864 C   0  0  0  0  0  0  0  0  0  0  0  0
   -7.9522    3.7711  -19.2703 N   0  0  0  0  0  0  0  0  0  0  0  0
   -7.9736    4.0047  -17.9155 C   0  0  0  0  0  0  0  0  0  0  0  0
   -8.9980    3.7720  -17.0016 C   0  0  0  0  0  0  0  0  0  0  0  0
   -8.7401    4.0601  -15.6626 C   0  0  0  0  0  0  0  0  0  0  0  0
   -7.5112    4.5862  -15.2602 C   0  0  0  0  0  0  0  0  0  0  0  0
   -6.5128    4.8723  -16.2042 C   0  0  0  0  0  0  0  0  0  0  0  0
   -6.7462    4.5670  -17.5593 C   0  0  0  0  0  0  0  0  0  0  0  0
   -8.6927    3.3825  -19.7899 H   0  0  0  0  0  0  0  0  0  0  0  0
   -3.6071    4.8748  -20.6471 N   0  0  0  0  0  0  0  0  0  0  0  0
   -3.4052    4.7134  -19.1829 C   0  0  0  0  0  0  0  0  0  0  0  0
   -4.6946    5.5225  -18.9440 C   0  0  0  0  0  0  0  0  0  0  0  0
   -4.4387    6.0746  -20.3673 C   0  0  0  0  0  0  0  0  0  0  0  0
   -2.2693    4.6036  -22.6818 C   0  0  0  0  0  0  0  0  0  0  0  0
   -2.3444    5.2293  -21.2954 C   0  0  0  0  0  0  0  0  0  0  0  0
   -7.2779    4.9530  -13.8331 C   0  0  0  0  0  0  0  0  0  0  0  0
   -6.4735    5.7674  -13.5948 O   0  0  0  0  0  0  0  0  0  0  0  0
   -8.2337    4.1782  -12.8894 N   0  0  0  0  0  0  0  0  0  0  0  0
   -8.8790    3.5921  -13.3469 H   0  0  0  0  0  0  0  0  0  0  0  0
   -8.3278    4.1766  -11.4988 C   0  0  0  0  0  0  0  0  0  0  0  0
   -8.0605    5.3330  -10.7505 C   0  0  0  0  0  0  0  0  0  0  0  0
   -8.1854    5.3294   -9.3574 C   0  0  0  0  0  0  0  0  0  0  0  0
   -8.5656    4.1542   -8.7364 C   0  0  0  0  0  0  0  0  0  0  0  0
   -8.8300    3.0067   -9.4733 C   0  0  0  0  0  0  0  0  0  0  0  0
   -8.7240    2.9993  -10.8552 C   0  0  0  0  0  0  0  0  0  0  0  0
   -9.2525    1.9140   -8.5518 C   0  0  0  0  0  0  0  0  0  0  0  0
   -9.0025    2.4196   -7.1743 N   0  0  0  0  0  0  0  0  0  0  0  0
   -8.7992    3.8800   -7.2918 C   0  0  0  0  0  0  0  0  0  0  0  0
   -8.1701    1.9786   -6.7830 H   0  0  0  0  0  0  0  0  0  0  0  0
 15 16  1  0  0  0
 16 11  1  0  0  0
 11 12  1  0  0  0
 12 13  1  0  0  0
 13  1  1  0  0  0
  1  2  2  0  0  0
  2  3  1  0  0  0
  3  4  1  0  0  0
  4  5  2  0  0  0
  5  6  1  0  0  0
  6  7  2  0  0  0
  7 17  1  0  0  0
 17 18  2  0  0  0
 17 19  1  0  0  0
 19 21  1  0  0  0
 21 22  2  0  0  0
 22 23  1  0  0  0
 23 24  2  0  0  0
 24 25  1  0  0  0
 25 26  2  0  0  0
 25 27  1  0  0  0
 27 28  1  0  0  0
 28 29  1  0  0  0
  7  8  1  0  0  0
  8  9  2  0  0  0
 13 14  1  0  0  0
 14 11  1  0  0  0
  9  1  1  0  0  0
  9  4  1  0  0  0
 26 21  1  0  0  0
 29 24  1  0  0  0
  3 10  1  0  0  0
 19 20  1  0  0  0
 28 30  1  0  0  0
M  END
> <minimizedAffinity>
-9.38418

> <minimizedRMSD>
0.36538

$$$$
P27465


 34 39  0  0  0  0  0  0  0  0999 V2000
   -2.1012    7.5797  -20.1839 C   0  0  0  0  0  0  0  0  0  0  0  0
   -3.1585    7.1947  -19.2563 N   0  0  0  0  0  0  0  0  0  0  0  0
   -3.0105    7.8658  -17.9636 C   0  0  0  0  0  0  0  0  0  0  0  0
   -3.9448    7.0903  -17.0470 C   0  0  0  0  0  0  0  0  0  0  0  0
   -3.9195    5.6489  -17.5716 C   0  0  0  0  0  0  0  0  0  0  0  0
   -5.2889    5.0850  -17.7597 C   0  0  0  0  0  0  0  0  0  0  0  0
   -5.7574    4.7820  -19.0156 C   0  0  0  0  0  0  0  0  0  0  0  0
   -7.0508    4.3532  -18.9008 N   0  0  0  0  0  0  0  0  0  0  0  0
   -7.4310    4.3812  -17.5746 C   0  0  0  0  0  0  0  0  0  0  0  0
   -8.6641    4.1049  -16.9801 C   0  0  0  0  0  0  0  0  0  0  0  0
  -10.0148    3.7026  -17.9390 Cl  0  0  0  0  0  0  0  0  0  0  0  0
   -8.8116    4.2946  -15.6082 C   0  0  0  0  0  0  0  0  0  0  0  0
   -7.7432    4.7849  -14.8620 C   0  0  0  0  0  0  0  0  0  0  0  0
   -6.5003    5.0521  -15.4561 C   0  0  0  0  0  0  0  0  0  0  0  0
   -6.3404    4.8441  -16.8372 C   0  0  0  0  0  0  0  0  0  0  0  0
   -5.0306    5.0184  -20.2858 C   0  0  0  0  0  0  0  0  0  0  0  0
   -3.5789    4.9534  -20.0631 N   0  0  0  0  0  0  0  0  0  0  0  0
   -3.1309    5.7658  -18.9258 C   0  0  0  0  0  0  0  0  0  0  0  0
   -7.6229    4.0682  -19.6496 H   0  0  0  0  0  0  0  0  0  0  0  0
   -3.1069    5.2851  -20.9042 H   0  0  0  0  0  0  0  0  0  0  0  0
   -7.9493    5.2342  -13.4645 C   0  0  0  0  0  0  0  0  0  0  0  0
   -7.9790    6.3850  -13.2667 O   0  0  0  0  0  0  0  0  0  0  0  0
   -8.1572    4.0458  -12.4985 N   0  0  0  0  0  0  0  0  0  0  0  0
   -8.1575    3.1602  -12.9286 H   0  0  0  0  0  0  0  0  0  0  0  0
   -8.3441    4.0239  -11.1195 C   0  0  0  0  0  0  0  0  0  0  0  0
   -8.0758    5.1631  -10.3424 C   0  0  0  0  0  0  0  0  0  0  0  0
   -8.2501    5.1450   -8.9564 C   0  0  0  0  0  0  0  0  0  0  0  0
   -8.6718    3.9684   -8.3698 C   0  0  0  0  0  0  0  0  0  0  0  0
   -8.9385    2.8395   -9.1357 C   0  0  0  0  0  0  0  0  0  0  0  0
   -8.7969    2.8503  -10.5142 C   0  0  0  0  0  0  0  0  0  0  0  0
   -9.3850    1.7340   -8.2428 C   0  0  0  0  0  0  0  0  0  0  0  0
   -9.1583    2.2107   -6.8516 N   0  0  0  0  0  0  0  0  0  0  0  0
   -8.9413    3.6710   -6.9364 C   0  0  0  0  0  0  0  0  0  0  0  0
   -8.3374    1.7553   -6.4527 H   0  0  0  0  0  0  0  0  0  0  0  0
  1  2  1  0  0  0
  2  3  1  0  0  0
  3  4  1  0  0  0
  5  4  1  0  0  0
  5  6  1  0  0  0
  6  7  2  0  0  0
  7  8  1  0  0  0
  8  9  1  0  0  0
  9 10  2  0  0  0
 10 11  1  0  0  0
 10 12  1  0  0  0
 12 13  2  0  0  0
 13 21  1  0  0  0
 21 22  2  0  0  0
 21 23  1  0  0  0
 23 25  1  0  0  0
 25 26  2  0  0  0
 26 27  1  0  0  0
 27 28  2  0  0  0
 28 29  1  0  0  0
 29 30  2  0  0  0
 29 31  1  0  0  0
 31 32  1  0  0  0
 32 33  1  0  0  0
 13 14  1  0  0  0
 14 15  2  0  0  0
  7 16  1  0  0  0
 16 17  1  0  0  0
 18 17  1  0  0  0
 18  2  1  0  0  0
 18  5  1  0  0  0
 15  6  1  0  0  0
 15  9  1  0  0  0
 30 25  1  0  0  0
 33 28  1  0  0  0
  8 19  1  0  0  0
 23 24  1  0  0  0
 32 34  1  0  0  0
 17 20  1  0  0  0
M  END
> <minimizedAffinity>
-10.59881

> <minimizedRMSD>
0.55214

$$$$
P27471


 33 37  0  0  0  0  0  0  0  0999 V2000
   -5.3267    4.9817  -18.2646 C   0  0  0  0  0  0  0  0  0  0  0  0
   -5.9674    4.6400  -19.4330 C   0  0  0  0  0  0  0  0  0  0  0  0
   -7.2451    4.2755  -19.1070 N   0  0  0  0  0  0  0  0  0  0  0  0
   -7.4228    4.3517  -17.7450 C   0  0  0  0  0  0  0  0  0  0  0  0
   -8.5630    4.1107  -16.9799 C   0  0  0  0  0  0  0  0  0  0  0  0
  -10.0541    3.8019  -17.7501 Cl  0  0  0  0  0  0  0  0  0  0  0  0
   -8.4929    4.2678  -15.5998 C   0  0  0  0  0  0  0  0  0  0  0  0
   -7.3273    4.7528  -15.0216 C   0  0  0  0  0  0  0  0  0  0  0  0
   -6.1974    5.0382  -15.7966 C   0  0  0  0  0  0  0  0  0  0  0  0
   -6.2294    4.8058  -17.1845 C   0  0  0  0  0  0  0  0  0  0  0  0
   -7.9356    3.9993  -19.7521 H   0  0  0  0  0  0  0  0  0  0  0  0
   -2.1396    7.4548  -16.1526 C   0  0  0  0  0  0  0  0  0  0  0  0
   -3.3457    6.7632  -16.5920 N   0  0  0  0  0  0  0  0  0  0  0  0
   -3.0462    5.3544  -16.9387 C   0  0  0  0  0  0  0  0  0  0  0  0
   -3.8636    5.5314  -18.2342 C   0  0  0  0  0  0  0  0  0  0  0  0
   -3.6340    7.0543  -18.0000 C   0  0  0  0  0  0  0  0  0  0  0  0
   -4.8641    7.8205  -18.0744 N   0  0  0  0  0  0  0  0  0  0  0  0
   -5.5760    7.3778  -17.4932 H   0  0  0  0  0  0  0  0  0  0  0  0
   -5.1866    7.8528  -19.0415 H   0  0  0  0  0  0  0  0  0  0  0  0
   -7.3044    5.1420  -13.5932 C   0  0  0  0  0  0  0  0  0  0  0  0
   -6.8105    6.1598  -13.3058 O   0  0  0  0  0  0  0  0  0  0  0  0
   -7.9570    4.0606  -12.7060 N   0  0  0  0  0  0  0  0  0  0  0  0
   -8.2365    3.2476  -13.1857 H   0  0  0  0  0  0  0  0  0  0  0  0
   -8.2149    4.0477  -11.3376 C   0  0  0  0  0  0  0  0  0  0  0  0
   -7.9821    5.1833  -10.5437 C   0  0  0  0  0  0  0  0  0  0  0  0
   -8.2262    5.1591   -9.1666 C   0  0  0  0  0  0  0  0  0  0  0  0
   -8.7002    3.9867   -8.6101 C   0  0  0  0  0  0  0  0  0  0  0  0
   -8.9192    2.8577   -9.3936 C   0  0  0  0  0  0  0  0  0  0  0  0
   -8.6888    2.8695  -10.7584 C   0  0  0  0  0  0  0  0  0  0  0  0
   -9.3606    1.7353   -8.5155 C   0  0  0  0  0  0  0  0  0  0  0  0
   -9.7702    2.3814   -7.2405 N   0  0  0  0  0  0  0  0  0  0  0  0
   -9.0310    3.6628   -7.1921 C   0  0  0  0  0  0  0  0  0  0  0  0
   -9.5177    1.7938   -6.4459 H   0  0  0  0  0  0  0  0  0  0  0  0
 12 13  1  0  0  0
 13 14  1  0  0  0
 14 15  1  0  0  0
 15  1  1  0  0  0
  1  2  2  0  0  0
  2  3  1  0  0  0
  3  4  1  0  0  0
  4  5  2  0  0  0
  5  6  1  0  0  0
  5  7  1  0  0  0
  7  8  2  0  0  0
  8 20  1  0  0  0
 20 21  2  0  0  0
 20 22  1  0  0  0
 22 24  1  0  0  0
 24 25  2  0  0  0
 25 26  1  0  0  0
 26 27  2  0  0  0
 27 28  1  0  0  0
 28 29  2  0  0  0
 28 30  1  0  0  0
 30 31  1  0  0  0
 31 32  1  0  0  0
  8  9  1  0  0  0
  9 10  2  0  0  0
 15 16  1  0  0  0
 16 17  1  0  0  0
 16 13  1  0  0  0
 10  1  1  0  0  0
 10  4  1  0  0  0
 29 24  1  0  0  0
 32 27  1  0  0  0
  3 11  1  0  0  0
 22 23  1  0  0  0
 31 33  1  0  0  0
 17 18  1  0  0  0
 17 19  1  0  0  0
M  END
> <minimizedAffinity>
-9.21200

> <minimizedRMSD>
0.23048

$$$$
P27473


 33 37  0  0  0  0  0  0  0  0999 V2000
   -5.7587    4.8225  -18.8055 C   0  0  0  0  0  0  0  0  0  0  0  0
   -6.3604    4.2389  -19.8968 C   0  0  0  0  0  0  0  0  0  0  0  0
   -7.5807    3.7596  -19.4927 N   0  0  0  0  0  0  0  0  0  0  0  0
   -7.7453    3.9798  -18.1479 C   0  0  0  0  0  0  0  0  0  0  0  0
   -8.8209    3.6660  -17.3249 C   0  0  0  0  0  0  0  0  0  0  0  0
   -9.9106    3.0807  -17.8324 F   0  0  0  0  0  0  0  0  0  0  0  0
   -8.7563    3.9955  -15.9768 C   0  0  0  0  0  0  0  0  0  0  0  0
   -7.6321    4.6494  -15.4773 C   0  0  0  0  0  0  0  0  0  0  0  0
   -6.5515    4.9775  -16.3150 C   0  0  0  0  0  0  0  0  0  0  0  0
   -6.6073    4.6334  -17.6797 C   0  0  0  0  0  0  0  0  0  0  0  0
   -8.2398    3.3231  -20.0795 H   0  0  0  0  0  0  0  0  0  0  0  0
   -5.2999    7.7377  -20.6815 C   0  0  0  0  0  0  0  0  0  0  0  0
   -4.0988    7.3919  -19.9274 N   0  0  0  0  0  0  0  0  0  0  0  0
   -4.4390    7.0984  -18.5135 C   0  0  0  0  0  0  0  0  0  0  0  0
   -4.4009    5.5779  -18.7994 C   0  0  0  0  0  0  0  0  0  0  0  0
   -3.4063    4.9252  -17.9411 N   0  0  0  0  0  0  0  0  0  0  0  0
   -3.7488    5.9681  -20.1482 C   0  0  0  0  0  0  0  0  0  0  0  0
   -3.8387    4.6693  -17.0534 H   0  0  0  0  0  0  0  0  0  0  0  0
   -2.6319    5.5665  -17.7696 H   0  0  0  0  0  0  0  0  0  0  0  0
   -7.5930    5.1392  -14.0749 C   0  0  0  0  0  0  0  0  0  0  0  0
   -7.1729    6.2127  -13.8855 O   0  0  0  0  0  0  0  0  0  0  0  0
   -8.1727    4.1005  -13.0862 N   0  0  0  0  0  0  0  0  0  0  0  0
   -8.5350    3.2879  -13.5075 H   0  0  0  0  0  0  0  0  0  0  0  0
   -8.2655    4.1279  -11.6956 C   0  0  0  0  0  0  0  0  0  0  0  0
   -7.9152    5.2745  -10.9635 C   0  0  0  0  0  0  0  0  0  0  0  0
   -8.0296    5.2993   -9.5687 C   0  0  0  0  0  0  0  0  0  0  0  0
   -8.4944    4.1644   -8.9313 C   0  0  0  0  0  0  0  0  0  0  0  0
   -8.8222    3.0205   -9.6520 C   0  0  0  0  0  0  0  0  0  0  0  0
   -8.7184    2.9842  -11.0327 C   0  0  0  0  0  0  0  0  0  0  0  0
   -9.2333    1.9468   -8.6996 C   0  0  0  0  0  0  0  0  0  0  0  0
   -9.5009    2.6492   -7.4167 N   0  0  0  0  0  0  0  0  0  0  0  0
   -8.7188    3.9043   -7.4799 C   0  0  0  0  0  0  0  0  0  0  0  0
   -9.1958    2.0789   -6.6281 H   0  0  0  0  0  0  0  0  0  0  0  0
 12 13  1  0  0  0
 13 14  1  0  0  0
 14 15  1  0  0  0
 15 16  1  0  0  0
 15  1  1  0  0  0
  1  2  2  0  0  0
  2  3  1  0  0  0
  3  4  1  0  0  0
  4  5  2  0  0  0
  5  6  1  0  0  0
  5  7  1  0  0  0
  7  8  2  0  0  0
  8 20  1  0  0  0
 20 21  2  0  0  0
 20 22  1  0  0  0
 22 24  1  0  0  0
 24 25  2  0  0  0
 25 26  1  0  0  0
 26 27  2  0  0  0
 27 28  1  0  0  0
 28 29  2  0  0  0
 28 30  1  0  0  0
 30 31  1  0  0  0
 31 32  1  0  0  0
  8  9  1  0  0  0
  9 10  2  0  0  0
 15 17  1  0  0  0
 17 13  1  0  0  0
 10  1  1  0  0  0
 10  4  1  0  0  0
 29 24  1  0  0  0
 32 27  1  0  0  0
 16 18  1  0  0  0
 16 19  1  0  0  0
  3 11  1  0  0  0
 22 23  1  0  0  0
 31 33  1  0  0  0
M  END
> <minimizedAffinity>
-9.67272

> <minimizedRMSD>
0.44300

$$$$
P27474


 34 38  0  0  0  0  0  0  0  0999 V2000
   -5.3242    5.2186  -18.9551 C   0  0  0  0  0  0  0  0  0  0  0  0
   -6.5383    4.5874  -19.1588 N   0  0  0  0  0  0  0  0  0  0  0  0
   -7.1952    4.3993  -17.9623 C   0  0  0  0  0  0  0  0  0  0  0  0
   -8.4716    3.8920  -17.6926 C   0  0  0  0  0  0  0  0  0  0  0  0
   -9.2461    3.4276  -18.6790 F   0  0  0  0  0  0  0  0  0  0  0  0
   -8.9677    3.9393  -16.3898 C   0  0  0  0  0  0  0  0  0  0  0  0
   -8.1732    4.4574  -15.3785 C   0  0  0  0  0  0  0  0  0  0  0  0
   -6.8581    4.8653  -15.6354 C   0  0  0  0  0  0  0  0  0  0  0  0
   -6.3658    4.8833  -16.9527 C   0  0  0  0  0  0  0  0  0  0  0  0
   -5.1949    5.3832  -17.5850 C   0  0  0  0  0  0  0  0  0  0  0  0
   -6.8851    4.3107  -20.0376 H   0  0  0  0  0  0  0  0  0  0  0  0
   -4.0105    6.1670  -16.9139 C   0  0  0  0  0  0  0  0  0  0  0  0
   -2.7026    5.3824  -16.6858 C   0  0  0  0  0  0  0  0  0  0  0  0
   -3.1151    5.1725  -15.2759 N   0  0  0  0  0  0  0  0  0  0  0  0
   -2.0099    5.4360  -14.3629 C   0  0  0  0  0  0  0  0  0  0  0  0
   -3.9976    6.3591  -15.3852 C   0  0  0  0  0  0  0  0  0  0  0  0
   -8.7062    4.8100  -14.0407 C   0  0  0  0  0  0  0  0  0  0  0  0
   -9.3916    5.7527  -13.9742 O   0  0  0  0  0  0  0  0  0  0  0  0
   -8.1804    3.8767  -12.9328 N   0  0  0  0  0  0  0  0  0  0  0  0
   -7.6750    3.0965  -13.2568 H   0  0  0  0  0  0  0  0  0  0  0  0
   -8.3039    3.9573  -11.5463 C   0  0  0  0  0  0  0  0  0  0  0  0
   -7.9722    5.1410  -10.8628 C   0  0  0  0  0  0  0  0  0  0  0  0
   -8.0677    5.2211   -9.4697 C   0  0  0  0  0  0  0  0  0  0  0  0
   -8.4996    4.1039   -8.7811 C   0  0  0  0  0  0  0  0  0  0  0  0
   -8.8249    2.9318   -9.4531 C   0  0  0  0  0  0  0  0  0  0  0  0
   -8.7324    2.8382  -10.8336 C   0  0  0  0  0  0  0  0  0  0  0  0
   -9.2173    1.8888   -8.4635 C   0  0  0  0  0  0  0  0  0  0  0  0
   -9.3455    2.5911   -7.1600 N   0  0  0  0  0  0  0  0  0  0  0  0
   -8.6865    3.9042   -7.3165 C   0  0  0  0  0  0  0  0  0  0  0  0
   -8.8867    2.0533   -6.4247 H   0  0  0  0  0  0  0  0  0  0  0  0
   -4.4853    5.7316  -20.0831 C   0  0  0  0  0  0  0  0  0  0  0  0
   -4.0422    4.2390  -21.8980 C   0  0  0  0  0  0  0  0  0  0  0  0
   -4.9255    5.2834  -21.3983 N   0  0  0  0  0  0  0  0  0  0  0  0
   -5.8747    4.9164  -21.3285 H   0  0  0  0  0  0  0  0  0  0  0  0
 32 33  1  0  0  0
 33 31  1  0  0  0
 31  1  1  0  0  0
  1  2  1  0  0  0
  2  3  1  0  0  0
  3  4  2  0  0  0
  4  5  1  0  0  0
  4  6  1  0  0  0
  6  7  2  0  0  0
  7 17  1  0  0  0
 17 18  2  0  0  0
 17 19  1  0  0  0
 19 21  1  0  0  0
 21 22  2  0  0  0
 22 23  1  0  0  0
 23 24  2  0  0  0
 24 25  1  0  0  0
 25 26  2  0  0  0
 25 27  1  0  0  0
 27 28  1  0  0  0
 28 29  1  0  0  0
  7  8  1  0  0  0
  8  9  2  0  0  0
  9 10  1  0  0  0
 10 12  1  0  0  0
 12 13  1  0  0  0
 13 14  1  0  0  0
 14 15  1  0  0  0
 14 16  1  0  0  0
 10  1  2  0  0  0
 16 12  1  0  0  0
  9  3  1  0  0  0
 26 21  1  0  0  0
 29 24  1  0  0  0
 33 34  1  0  0  0
  2 11  1  0  0  0
 19 20  1  0  0  0
 28 30  1  0  0  0
M  END
> <minimizedAffinity>
-10.09124

> <minimizedRMSD>
0.69967

$$$$
P27475


 34 38  0  0  0  0  0  0  0  0999 V2000
   -5.6610    4.6993  -19.2684 C   0  0  0  0  0  0  0  0  0  0  0  0
   -6.9443    4.2492  -19.0430 N   0  0  0  0  0  0  0  0  0  0  0  0
   -7.2863    4.3927  -17.7194 C   0  0  0  0  0  0  0  0  0  0  0  0
   -8.4890    4.1295  -17.0652 C   0  0  0  0  0  0  0  0  0  0  0  0
   -9.8583    3.6611  -17.9603 Cl  0  0  0  0  0  0  0  0  0  0  0  0
   -8.5827    4.3729  -15.6987 C   0  0  0  0  0  0  0  0  0  0  0  0
   -7.4988    4.9280  -15.0233 C   0  0  0  0  0  0  0  0  0  0  0  0
   -6.3059    5.2369  -15.6943 C   0  0  0  0  0  0  0  0  0  0  0  0
   -6.1939    4.9519  -17.0673 C   0  0  0  0  0  0  0  0  0  0  0  0
   -5.2035    5.1871  -18.0585 C   0  0  0  0  0  0  0  0  0  0  0  0
   -7.5356    3.8758  -19.7359 H   0  0  0  0  0  0  0  0  0  0  0  0
   -3.9231    6.0246  -17.7754 C   0  0  0  0  0  0  0  0  0  0  0  0
   -2.8004    6.0993  -18.8318 C   0  0  0  0  0  0  0  0  0  0  0  0
   -1.8309    6.1390  -17.6968 N   0  0  0  0  0  0  0  0  0  0  0  0
   -0.6598    5.3290  -18.0166 C   0  0  0  0  0  0  0  0  0  0  0  0
   -2.8275    5.3560  -16.9077 C   0  0  0  0  0  0  0  0  0  0  0  0
   -7.6351    5.3624  -13.6112 C   0  0  0  0  0  0  0  0  0  0  0  0
   -7.4200    6.4815  -13.3566 O   0  0  0  0  0  0  0  0  0  0  0  0
   -8.0878    4.1975  -12.7026 N   0  0  0  0  0  0  0  0  0  0  0  0
   -8.2765    3.3551  -13.1757 H   0  0  0  0  0  0  0  0  0  0  0  0
   -8.2723    4.1454  -11.3238 C   0  0  0  0  0  0  0  0  0  0  0  0
   -8.0505    5.2774  -10.5240 C   0  0  0  0  0  0  0  0  0  0  0  0
   -8.2309    5.2215   -9.1394 C   0  0  0  0  0  0  0  0  0  0  0  0
   -8.6322    4.0226   -8.5800 C   0  0  0  0  0  0  0  0  0  0  0  0
   -8.8520    2.9013   -9.3696 C   0  0  0  0  0  0  0  0  0  0  0  0
   -8.6816    2.9426  -10.7441 C   0  0  0  0  0  0  0  0  0  0  0  0
   -9.2257    1.7496   -8.5008 C   0  0  0  0  0  0  0  0  0  0  0  0
   -9.4360    2.3117   -7.1408 N   0  0  0  0  0  0  0  0  0  0  0  0
   -8.8755    3.6789   -7.1512 C   0  0  0  0  0  0  0  0  0  0  0  0
   -8.9545    1.7402   -6.4466 H   0  0  0  0  0  0  0  0  0  0  0  0
   -5.0867    4.6764  -20.6417 C   0  0  0  0  0  0  0  0  0  0  0  0
   -4.9570    5.9837  -22.6680 C   0  0  0  0  0  0  0  0  0  0  0  0
   -5.3490    5.9653  -21.2718 N   0  0  0  0  0  0  0  0  0  0  0  0
   -6.3474    6.1645  -21.2085 H   0  0  0  0  0  0  0  0  0  0  0  0
 32 33  1  0  0  0
 33 31  1  0  0  0
 31  1  1  0  0  0
  1  2  1  0  0  0
  2  3  1  0  0  0
  3  4  2  0  0  0
  4  5  1  0  0  0
  4  6  1  0  0  0
  6  7  2  0  0  0
  7 17  1  0  0  0
 17 18  2  0  0  0
 17 19  1  0  0  0
 19 21  1  0  0  0
 21 22  2  0  0  0
 22 23  1  0  0  0
 23 24  2  0  0  0
 24 25  1  0  0  0
 25 26  2  0  0  0
 25 27  1  0  0  0
 27 28  1  0  0  0
 28 29  1  0  0  0
  7  8  1  0  0  0
  8  9  2  0  0  0
  9 10  1  0  0  0
 10 12  1  0  0  0
 12 13  1  0  0  0
 13 14  1  0  0  0
 14 15  1  0  0  0
 14 16  1  0  0  0
 10  1  2  0  0  0
 16 12  1  0  0  0
  9  3  1  0  0  0
 26 21  1  0  0  0
 29 24  1  0  0  0
 33 34  1  0  0  0
  2 11  1  0  0  0
 19 20  1  0  0  0
 28 30  1  0  0  0
M  END
> <minimizedAffinity>
-9.22085

> <minimizedRMSD>
0.21645

$$$$
P27476


 38 42  0  0  0  0  0  0  0  0999 V2000
   -7.5993    5.1050  -13.5027 C   0  0  0  0  0  0  0  0  0  0  0  0
   -6.3165    5.3525  -12.9457 O   0  0  0  0  0  0  0  0  0  0  0  0
   -6.4100    5.5811  -12.0077 H   0  0  0  0  0  0  0  0  0  0  0  0
   -7.4145    4.7482  -14.9798 C   0  0  0  0  0  0  0  0  0  0  0  0
   -8.4697    4.1613  -15.6931 C   0  0  0  0  0  0  0  0  0  0  0  0
   -8.4032    3.9719  -17.0703 C   0  0  0  0  0  0  0  0  0  0  0  0
   -9.7684    3.4138  -17.9296 Cl  0  0  0  0  0  0  0  0  0  0  0  0
   -7.2398    4.3411  -17.7376 C   0  0  0  0  0  0  0  0  0  0  0  0
   -6.9316    4.2776  -19.0741 N   0  0  0  0  0  0  0  0  0  0  0  0
   -5.6650    4.7511  -19.2914 C   0  0  0  0  0  0  0  0  0  0  0  0
   -5.1681    5.1574  -18.0775 C   0  0  0  0  0  0  0  0  0  0  0  0
   -6.1498    4.9047  -17.0812 C   0  0  0  0  0  0  0  0  0  0  0  0
   -6.2436    5.1106  -15.6884 C   0  0  0  0  0  0  0  0  0  0  0  0
   -7.5344    3.9401  -19.7755 H   0  0  0  0  0  0  0  0  0  0  0  0
   -3.7628    5.7639  -17.8195 C   0  0  0  0  0  0  0  0  0  0  0  0
   -2.8354    5.9684  -19.0385 C   0  0  0  0  0  0  0  0  0  0  0  0
   -2.5083    7.3330  -18.5564 N   0  0  0  0  0  0  0  0  0  0  0  0
   -1.2872    7.3051  -17.7484 C   0  0  0  0  0  0  0  0  0  0  0  0
   -3.7144    7.2995  -17.6956 C   0  0  0  0  0  0  0  0  0  0  0  0
   -7.6991    7.5694  -12.9367 N   0  0  0  0  0  0  0  0  0  0  0  0
   -8.5843    6.3833  -13.4374 C   0  0  0  0  0  0  0  0  0  0  0  0
   -9.7183    6.3544  -13.7330 O   0  0  0  0  0  0  0  0  0  0  0  0
   -6.7449    7.3540  -12.8263 H   0  0  0  0  0  0  0  0  0  0  0  0
   -8.6174    9.0033  -11.1950 C   0  0  0  0  0  0  0  0  0  0  0  0
   -8.0539    8.9303  -12.6098 C   0  0  0  0  0  0  0  0  0  0  0  0
   -6.8546    9.8523  -12.7791 C   0  0  0  0  0  0  0  0  0  0  0  0
   -8.1320    3.9869  -12.7264 N   0  0  0  0  0  0  0  0  0  0  0  0
   -8.3468    3.1492  -13.1969 H   0  0  0  0  0  0  0  0  0  0  0  0
   -8.3519    4.0517  -11.3408 C   0  0  0  0  0  0  0  0  0  0  0  0
   -8.0312    5.1662  -10.5352 C   0  0  0  0  0  0  0  0  0  0  0  0
   -8.2013    5.1664   -9.1466 C   0  0  0  0  0  0  0  0  0  0  0  0
   -8.6294    4.0049   -8.5489 C   0  0  0  0  0  0  0  0  0  0  0  0
   -8.8987    2.8772   -9.3081 C   0  0  0  0  0  0  0  0  0  0  0  0
   -8.7808    2.8868  -10.6908 C   0  0  0  0  0  0  0  0  0  0  0  0
   -9.2989    1.7647   -8.4042 C   0  0  0  0  0  0  0  0  0  0  0  0
   -9.0577    2.2487   -7.0178 N   0  0  0  0  0  0  0  0  0  0  0  0
   -8.8784    3.7123   -7.1123 C   0  0  0  0  0  0  0  0  0  0  0  0
   -8.2184    1.8146   -6.6336 H   0  0  0  0  0  0  0  0  0  0  0  0
 24 25  1  0  0  0
 25 26  1  0  0  0
 25 20  1  0  0  0
 20 21  1  0  0  0
 21 22  2  0  0  0
 21  1  1  0  0  0
  1  2  1  0  0  0
  1 27  1  0  0  0
 27 29  1  0  0  0
 29 30  2  0  0  0
 30 31  1  0  0  0
 31 32  2  0  0  0
 32 33  1  0  0  0
 33 34  2  0  0  0
 33 35  1  0  0  0
 35 36  1  0  0  0
 36 37  1  0  0  0
  1  4  1  0  0  0
  4  5  2  0  0  0
  5  6  1  0  0  0
  6  7  1  0  0  0
  6  8  2  0  0  0
  8  9  1  0  0  0
  9 10  1  0  0  0
 10 11  2  0  0  0
 11 15  1  0  0  0
 15 16  1  0  0  0
 16 17  1  0  0  0
 17 18  1  0  0  0
 17 19  1  0  0  0
 11 12  1  0  0  0
 12 13  2  0  0  0
 34 29  1  0  0  0
 13  4  1  0  0  0
 37 32  1  0  0  0
 12  8  1  0  0  0
 19 15  1  0  0  0
 20 23  1  0  0  0
  2  3  1  0  0  0
 27 28  1  0  0  0
 36 38  1  0  0  0
  9 14  1  0  0  0
M  END
> <minimizedAffinity>
-9.31421

> <minimizedRMSD>
0.39149

$$$$
P27477


 33 37  0  0  0  0  0  0  0  0999 V2000
   -5.1810    5.1360  -17.9649 C   0  0  0  0  0  0  0  0  0  0  0  0
   -5.8041    4.8197  -19.1478 C   0  0  0  0  0  0  0  0  0  0  0  0
   -5.4270    4.8974  -20.4441 N   0  0  0  0  0  0  0  0  0  0  0  0
   -7.0729    4.4166  -18.8524 N   0  0  0  0  0  0  0  0  0  0  0  0
   -7.2997    4.5058  -17.5018 C   0  0  0  0  0  0  0  0  0  0  0  0
   -8.4761    4.2916  -16.7875 C   0  0  0  0  0  0  0  0  0  0  0  0
  -10.0792    4.0085  -17.7122 Br  0  0  0  0  0  0  0  0  0  0  0  0
   -8.4696    4.4658  -15.4100 C   0  0  0  0  0  0  0  0  0  0  0  0
   -7.3047    4.8994  -14.7803 C   0  0  0  0  0  0  0  0  0  0  0  0
   -6.1287    5.1515  -15.5103 C   0  0  0  0  0  0  0  0  0  0  0  0
   -6.1175    4.9424  -16.9049 C   0  0  0  0  0  0  0  0  0  0  0  0
   -4.5146    5.1866  -20.6748 H   0  0  0  0  0  0  0  0  0  0  0  0
   -6.0647    4.6649  -21.1571 H   0  0  0  0  0  0  0  0  0  0  0  0
   -7.7325    4.1059  -19.5139 H   0  0  0  0  0  0  0  0  0  0  0  0
   -1.1582    6.9174  -17.1646 C   0  0  0  0  0  0  0  0  0  0  0  0
   -2.4168    6.6202  -16.4784 N   0  0  0  0  0  0  0  0  0  0  0  0
   -2.8278    5.2208  -16.7447 C   0  0  0  0  0  0  0  0  0  0  0  0
   -3.7357    5.7029  -17.8836 C   0  0  0  0  0  0  0  0  0  0  0  0
   -3.5746    7.1045  -17.2665 C   0  0  0  0  0  0  0  0  0  0  0  0
   -7.3460    5.2871  -13.3471 C   0  0  0  0  0  0  0  0  0  0  0  0
   -6.9348    6.3396  -13.0507 O   0  0  0  0  0  0  0  0  0  0  0  0
   -8.0246    4.1965  -12.4847 N   0  0  0  0  0  0  0  0  0  0  0  0
   -8.3544    3.4181  -12.9892 H   0  0  0  0  0  0  0  0  0  0  0  0
   -8.2447    4.1368  -11.1111 C   0  0  0  0  0  0  0  0  0  0  0  0
   -8.0238    5.2629  -10.3020 C   0  0  0  0  0  0  0  0  0  0  0  0
   -8.2434    5.2103   -8.9234 C   0  0  0  0  0  0  0  0  0  0  0  0
   -8.6653    4.0144   -8.3761 C   0  0  0  0  0  0  0  0  0  0  0  0
   -8.8885    2.8985   -9.1743 C   0  0  0  0  0  0  0  0  0  0  0  0
   -8.6991    2.9424  -10.5467 C   0  0  0  0  0  0  0  0  0  0  0  0
   -9.3515    1.7684   -8.3211 C   0  0  0  0  0  0  0  0  0  0  0  0
   -9.1777    2.2174   -6.9125 N   0  0  0  0  0  0  0  0  0  0  0  0
   -8.9772    3.6819   -6.9592 C   0  0  0  0  0  0  0  0  0  0  0  0
   -8.3647    1.7637   -6.4960 H   0  0  0  0  0  0  0  0  0  0  0  0
 15 16  1  0  0  0
 16 17  1  0  0  0
 17 18  1  0  0  0
 18  1  1  0  0  0
  1  2  2  0  0  0
  2  3  1  0  0  0
  2  4  1  0  0  0
  4  5  1  0  0  0
  5  6  2  0  0  0
  6  7  1  0  0  0
  6  8  1  0  0  0
  8  9  2  0  0  0
  9 20  1  0  0  0
 20 21  2  0  0  0
 20 22  1  0  0  0
 22 24  1  0  0  0
 24 25  2  0  0  0
 25 26  1  0  0  0
 26 27  2  0  0  0
 27 28  1  0  0  0
 28 29  2  0  0  0
 28 30  1  0  0  0
 30 31  1  0  0  0
 31 32  1  0  0  0
  9 10  1  0  0  0
 10 11  2  0  0  0
 18 19  1  0  0  0
 19 16  1  0  0  0
 11  1  1  0  0  0
 11  5  1  0  0  0
 29 24  1  0  0  0
 32 27  1  0  0  0
  3 12  1  0  0  0
  3 13  1  0  0  0
  4 14  1  0  0  0
 22 23  1  0  0  0
 31 33  1  0  0  0
M  END
> <minimizedAffinity>
-9.55091

> <minimizedRMSD>
0.40917

$$$$
P27478


 30 35  0  0  0  0  0  0  0  0999 V2000
   -7.7476    4.8110  -14.8246 C   0  0  0  0  0  0  0  0  0  0  0  0
   -8.8281    4.3096  -15.5722 C   0  0  0  0  0  0  0  0  0  0  0  0
   -8.6997    4.0740  -16.9484 C   0  0  0  0  0  0  0  0  0  0  0  0
   -9.7706    3.7049  -17.6617 F   0  0  0  0  0  0  0  0  0  0  0  0
   -7.4824    4.2896  -17.5574 C   0  0  0  0  0  0  0  0  0  0  0  0
   -6.4288    4.7822  -16.7606 C   0  0  0  0  0  0  0  0  0  0  0  0
   -6.5159    5.0460  -15.4201 C   0  0  0  0  0  0  0  0  0  0  0  0
   -5.3950    5.0138  -17.6923 C   0  0  0  0  0  0  0  0  0  0  0  0
   -4.1632    5.4281  -17.8953 C   0  0  0  0  0  0  0  0  0  0  0  0
   -3.0159    5.8985  -17.1038 C   0  0  0  0  0  0  0  0  0  0  0  0
   -1.8647    5.6396  -18.0953 C   0  0  0  0  0  0  0  0  0  0  0  0
   -2.4591    5.7477  -19.5161 C   0  0  0  0  0  0  0  0  0  0  0  0
   -3.8636    5.3279  -19.2969 C   0  0  0  0  0  0  0  0  0  0  0  0
   -4.8810    4.8420  -20.0220 C   0  0  0  0  0  0  0  0  0  0  0  0
   -5.9203    4.6111  -19.0081 C   0  0  0  0  0  0  0  0  0  0  0  0
   -7.1268    4.1433  -18.9407 N   0  0  0  0  0  0  0  0  0  0  0  0
   -7.5012    6.3183  -13.1468 O   0  0  0  0  0  0  0  0  0  0  0  0
   -7.8664    5.2435  -13.4157 C   0  0  0  0  0  0  0  0  0  0  0  0
   -8.3824    4.1097  -12.5121 N   0  0  0  0  0  0  0  0  0  0  0  0
   -8.7054    3.3139  -12.9934 H   0  0  0  0  0  0  0  0  0  0  0  0
   -8.4670    4.0260  -11.1260 C   0  0  0  0  0  0  0  0  0  0  0  0
   -8.1155    5.1193  -10.3141 C   0  0  0  0  0  0  0  0  0  0  0  0
   -8.2194    5.0431   -8.9226 C   0  0  0  0  0  0  0  0  0  0  0  0
   -8.6909    3.8675   -8.3728 C   0  0  0  0  0  0  0  0  0  0  0  0
   -9.0174    2.7777   -9.1756 C   0  0  0  0  0  0  0  0  0  0  0  0
   -8.9049    2.8337  -10.5526 C   0  0  0  0  0  0  0  0  0  0  0  0
   -9.4521    1.6477   -8.3056 C   0  0  0  0  0  0  0  0  0  0  0  0
   -9.7569    2.2737   -6.9924 N   0  0  0  0  0  0  0  0  0  0  0  0
   -8.9447    3.5100   -6.9475 C   0  0  0  0  0  0  0  0  0  0  0  0
   -9.4967    1.6480   -6.2300 H   0  0  0  0  0  0  0  0  0  0  0  0
 17 18  2  0  0  0
 18 19  1  0  0  0
 19 21  1  0  0  0
 21 22  2  0  0  0
 22 23  1  0  0  0
 23 24  2  0  0  0
 24 25  1  0  0  0
 25 26  2  0  0  0
 25 27  1  0  0  0
 27 28  1  0  0  0
 28 29  1  0  0  0
 18  1  1  0  0  0
  1  2  2  0  0  0
  2  3  1  0  0  0
  3  4  1  0  0  0
  3  5  2  0  0  0
  5  6  1  0  0  0
  6  7  2  0  0  0
  6  8  1  0  0  0
  8  9  2  0  0  0
  9 10  1  0  0  0
 10 11  1  0  0  0
 11 12  1  0  0  0
 12 13  1  0  0  0
 13 14  2  0  0  0
 14 15  1  0  0  0
 15 16  2  0  0  0
 26 21  1  0  0  0
  7  1  1  0  0  0
 15  8  1  0  0  0
 29 24  1  0  0  0
 16  5  1  0  0  0
 13  9  1  0  0  0
 19 20  1  0  0  0
 28 30  1  0  0  0
M  END
> <minimizedAffinity>
-10.19448

> <minimizedRMSD>
0.40492

$$$$
P27484


 31 35  0  0  0  0  0  0  0  0999 V2000
   -7.4115    4.6331  -15.3337 C   0  0  0  0  0  0  0  0  0  0  0  0
   -8.6687    4.1956  -15.7505 C   0  0  0  0  0  0  0  0  0  0  0  0
   -8.9204    3.9609  -17.0949 C   0  0  0  0  0  0  0  0  0  0  0  0
  -10.4903    3.7167  -17.6918 Cl  0  0  0  0  0  0  0  0  0  0  0  0
   -7.8782    4.0760  -17.9922 C   0  0  0  0  0  0  0  0  0  0  0  0
   -7.8351    3.8334  -19.3352 N   0  0  0  0  0  0  0  0  0  0  0  0
   -6.6381    4.0758  -19.8759 N   0  0  0  0  0  0  0  0  0  0  0  0
   -5.9546    4.6531  -18.8790 C   0  0  0  0  0  0  0  0  0  0  0  0
   -6.6322    4.5631  -17.6317 C   0  0  0  0  0  0  0  0  0  0  0  0
   -6.3901    4.8797  -16.2728 C   0  0  0  0  0  0  0  0  0  0  0  0
   -8.6084    3.5122  -19.8528 H   0  0  0  0  0  0  0  0  0  0  0  0
   -6.6408    5.9859  -13.6555 O   0  0  0  0  0  0  0  0  0  0  0  0
   -7.2571    5.0224  -13.9009 C   0  0  0  0  0  0  0  0  0  0  0  0
   -8.0668    4.0799  -12.9672 N   0  0  0  0  0  0  0  0  0  0  0  0
   -8.5664    3.3698  -13.4312 H   0  0  0  0  0  0  0  0  0  0  0  0
   -8.2010    4.0766  -11.5756 C   0  0  0  0  0  0  0  0  0  0  0  0
   -7.9078    5.2080  -10.7996 C   0  0  0  0  0  0  0  0  0  0  0  0
   -8.1280    5.2066   -9.4138 C   0  0  0  0  0  0  0  0  0  0  0  0
   -8.6239    4.0574   -8.8242 C   0  0  0  0  0  0  0  0  0  0  0  0
   -8.8836    2.9232   -9.5836 C   0  0  0  0  0  0  0  0  0  0  0  0
   -8.6930    2.9195  -10.9577 C   0  0  0  0  0  0  0  0  0  0  0  0
   -9.3252    1.8215   -8.6770 C   0  0  0  0  0  0  0  0  0  0  0  0
   -9.6860    2.4891   -7.3979 N   0  0  0  0  0  0  0  0  0  0  0  0
   -8.9401    3.7686   -7.3941 C   0  0  0  0  0  0  0  0  0  0  0  0
   -9.4080    1.9122   -6.6040 H   0  0  0  0  0  0  0  0  0  0  0  0
   -4.6450    5.2702  -19.1768 C   0  0  0  0  0  0  0  0  0  0  0  0
   -4.3704    5.3866  -20.6782 C   0  0  0  0  0  0  0  0  0  0  0  0
   -2.9100    5.7009  -21.0552 C   0  0  0  0  0  0  0  0  0  0  0  0
   -3.2648    7.1301  -21.1737 N   0  0  0  0  0  0  0  0  0  0  0  0
   -4.6867    6.7468  -21.3342 C   0  0  0  0  0  0  0  0  0  0  0  0
   -2.8621    7.5954  -21.9872 H   0  0  0  0  0  0  0  0  0  0  0  0
 12 13  2  0  0  0
 13 14  1  0  0  0
 14 16  1  0  0  0
 16 17  2  0  0  0
 17 18  1  0  0  0
 18 19  2  0  0  0
 19 20  1  0  0  0
 20 21  2  0  0  0
 20 22  1  0  0  0
 22 23  1  0  0  0
 23 24  1  0  0  0
 13  1  1  0  0  0
  1  2  2  0  0  0
  2  3  1  0  0  0
  3  4  1  0  0  0
  3  5  2  0  0  0
  5  6  1  0  0  0
  6  7  1  0  0  0
  7  8  2  0  0  0
  8 26  1  0  0  0
 26 27  1  0  0  0
 27 28  1  0  0  0
 28 29  1  0  0  0
 29 30  1  0  0  0
  8  9  1  0  0  0
  9 10  2  0  0  0
 21 16  1  0  0  0
 10  1  1  0  0  0
 24 19  1  0  0  0
  9  5  1  0  0  0
 30 27  1  0  0  0
 14 15  1  0  0  0
 23 25  1  0  0  0
  6 11  1  0  0  0
 29 31  1  0  0  0
M  END
> <minimizedAffinity>
-8.85644

> <minimizedRMSD>
0.26596

$$$$
P27486


 35 39  0  0  0  0  0  0  0  0999 V2000
   -5.8592    4.8153  -18.4626 C   0  0  0  0  0  0  0  0  0  0  0  0
   -6.5903    4.3533  -19.5340 N   0  0  0  0  0  0  0  0  0  0  0  0
   -7.7780    3.8331  -19.2294 N   0  0  0  0  0  0  0  0  0  0  0  0
   -7.9371    4.0854  -17.9244 C   0  0  0  0  0  0  0  0  0  0  0  0
   -9.0673    4.0146  -17.0941 C   0  0  0  0  0  0  0  0  0  0  0  0
  -10.5735    3.8893  -17.8432 Cl  0  0  0  0  0  0  0  0  0  0  0  0
   -8.8836    4.3044  -15.7395 C   0  0  0  0  0  0  0  0  0  0  0  0
   -7.6043    4.6737  -15.2286 C   0  0  0  0  0  0  0  0  0  0  0  0
   -6.4383    4.8285  -16.0294 C   0  0  0  0  0  0  0  0  0  0  0  0
   -6.6706    4.5352  -17.3785 C   0  0  0  0  0  0  0  0  0  0  0  0
   -6.2587    4.4039  -20.4596 H   0  0  0  0  0  0  0  0  0  0  0  0
   -7.5290    5.1197  -13.8087 C   0  0  0  0  0  0  0  0  0  0  0  0
   -7.1983    6.2204  -13.5965 O   0  0  0  0  0  0  0  0  0  0  0  0
   -7.9923    4.0060  -12.8375 N   0  0  0  0  0  0  0  0  0  0  0  0
   -8.1460    3.1295  -13.2588 H   0  0  0  0  0  0  0  0  0  0  0  0
   -8.2273    4.0426  -11.4621 C   0  0  0  0  0  0  0  0  0  0  0  0
   -7.9772    5.1980  -10.7052 C   0  0  0  0  0  0  0  0  0  0  0  0
   -8.1949    5.2113   -9.3218 C   0  0  0  0  0  0  0  0  0  0  0  0
   -8.6651    4.0584   -8.7204 C   0  0  0  0  0  0  0  0  0  0  0  0
   -8.9206    2.9139   -9.4676 C   0  0  0  0  0  0  0  0  0  0  0  0
   -8.7119    2.8878  -10.8376 C   0  0  0  0  0  0  0  0  0  0  0  0
   -9.3611    1.8199   -8.5510 C   0  0  0  0  0  0  0  0  0  0  0  0
   -9.6882    2.4945   -7.2655 N   0  0  0  0  0  0  0  0  0  0  0  0
   -8.9373    3.7690   -7.2825 C   0  0  0  0  0  0  0  0  0  0  0  0
   -9.3945    1.9187   -6.4764 H   0  0  0  0  0  0  0  0  0  0  0  0
   -4.5697    5.5678  -18.7334 C   0  0  0  0  0  0  0  0  0  0  0  0
   -3.7593    4.9177  -19.8656 C   0  0  0  0  0  0  0  0  0  0  0  0
   -2.4180    4.2131  -19.5943 C   0  0  0  0  0  0  0  0  0  0  0  0
   -1.9096    4.7217  -20.8829 N   0  0  0  0  0  0  0  0  0  0  0  0
   -2.9393    5.7788  -20.8612 C   0  0  0  0  0  0  0  0  0  0  0  0
   -2.0021    4.0643  -21.6573 H   0  0  0  0  0  0  0  0  0  0  0  0
   -3.8362    7.2804  -17.0622 N   0  0  0  0  0  0  0  0  0  0  0  0
   -3.7538    5.8697  -17.4585 C   0  0  0  0  0  0  0  0  0  0  0  0
   -3.2831    7.4294  -16.2182 H   0  0  0  0  0  0  0  0  0  0  0  0
   -4.8092    7.5257  -16.8788 H   0  0  0  0  0  0  0  0  0  0  0  0
 32 33  1  0  0  0
 26 33  1  0  0  0
 26  1  1  0  0  0
  1  2  1  0  0  0
  2  3  1  0  0  0
  3  4  2  0  0  0
  4  5  1  0  0  0
  5  6  1  0  0  0
  5  7  2  0  0  0
  7  8  1  0  0  0
  8 12  1  0  0  0
 12 13  2  0  0  0
 12 14  1  0  0  0
 14 16  1  0  0  0
 16 17  2  0  0  0
 17 18  1  0  0  0
 18 19  2  0  0  0
 19 20  1  0  0  0
 20 21  2  0  0  0
 20 22  1  0  0  0
 22 23  1  0  0  0
 23 24  1  0  0  0
  8  9  2  0  0  0
  9 10  1  0  0  0
 26 27  1  0  0  0
 27 28  1  0  0  0
 28 29  1  0  0  0
 29 30  1  0  0  0
 10  1  2  0  0  0
 30 27  1  0  0  0
 10  4  1  0  0  0
 21 16  1  0  0  0
 24 19  1  0  0  0
 32 34  1  0  0  0
 32 35  1  0  0  0
  2 11  1  0  0  0
 14 15  1  0  0  0
 23 25  1  0  0  0
 29 31  1  0  0  0
M  END
> <minimizedAffinity>
-9.12034

> <minimizedRMSD>
0.97451

$$$$
P27487


 33 37  0  0  0  0  0  0  0  0999 V2000
   -8.4081    3.9477  -16.8718 C   0  0  0  0  0  0  0  0  0  0  0  0
   -8.4210    4.2367  -15.4825 C   0  0  0  0  0  0  0  0  0  0  0  0
   -7.3441    4.8888  -14.8106 C   0  0  0  0  0  0  0  0  0  0  0  0
   -6.1511    5.2878  -15.4422 C   0  0  0  0  0  0  0  0  0  0  0  0
   -6.1739    4.9870  -16.7940 C   0  0  0  0  0  0  0  0  0  0  0  0
   -5.1657    5.2787  -17.6721 C   0  0  0  0  0  0  0  0  0  0  0  0
   -5.6515    4.8450  -18.8792 N   0  0  0  0  0  0  0  0  0  0  0  0
   -6.8698    4.2707  -18.8232 N   0  0  0  0  0  0  0  0  0  0  0  0
   -7.2229    4.3507  -17.5284 C   0  0  0  0  0  0  0  0  0  0  0  0
   -5.1499    4.9453  -19.7204 H   0  0  0  0  0  0  0  0  0  0  0  0
   -7.4695    5.2862  -13.3870 C   0  0  0  0  0  0  0  0  0  0  0  0
   -6.9872    6.2976  -13.0589 O   0  0  0  0  0  0  0  0  0  0  0  0
   -8.1793    4.1993  -12.5529 N   0  0  0  0  0  0  0  0  0  0  0  0
   -8.5714    3.4660  -13.0799 H   0  0  0  0  0  0  0  0  0  0  0  0
   -8.3555    4.0869  -11.1765 C   0  0  0  0  0  0  0  0  0  0  0  0
   -8.1213    5.1853  -10.3319 C   0  0  0  0  0  0  0  0  0  0  0  0
   -8.2739    5.0726   -8.9479 C   0  0  0  0  0  0  0  0  0  0  0  0
   -8.6591    3.8501   -8.4334 C   0  0  0  0  0  0  0  0  0  0  0  0
   -8.8965    2.7637   -9.2667 C   0  0  0  0  0  0  0  0  0  0  0  0
   -8.7525    2.8608  -10.6416 C   0  0  0  0  0  0  0  0  0  0  0  0
   -9.3250    1.5958   -8.4485 C   0  0  0  0  0  0  0  0  0  0  0  0
   -9.1615    2.0024   -7.0263 N   0  0  0  0  0  0  0  0  0  0  0  0
   -8.9283    3.4623   -7.0221 C   0  0  0  0  0  0  0  0  0  0  0  0
   -8.3647    1.5186   -6.6123 H   0  0  0  0  0  0  0  0  0  0  0  0
  -10.3426    4.4378  -18.0939 C   0  0  0  0  0  0  0  0  0  0  0  0
   -9.5100    3.3774  -17.5303 N   0  0  0  0  0  0  0  0  0  0  0  0
   -9.6930    2.4126  -17.6012 H   0  0  0  0  0  0  0  0  0  0  0  0
   -3.8445    5.9073  -17.4168 C   0  0  0  0  0  0  0  0  0  0  0  0
   -2.6032    5.5115  -18.2011 C   0  0  0  0  0  0  0  0  0  0  0  0
   -2.4530    5.9400  -19.6723 C   0  0  0  0  0  0  0  0  0  0  0  0
   -2.8507    4.5729  -20.0769 N   0  0  0  0  0  0  0  0  0  0  0  0
   -2.4344    4.0793  -18.7417 C   0  0  0  0  0  0  0  0  0  0  0  0
   -2.3096    4.1910  -20.8526 H   0  0  0  0  0  0  0  0  0  0  0  0
 25 26  1  0  0  0
 26  1  1  0  0  0
  1  2  2  0  0  0
  2  3  1  0  0  0
  3 11  1  0  0  0
 11 12  2  0  0  0
 11 13  1  0  0  0
 13 15  1  0  0  0
 15 16  2  0  0  0
 16 17  1  0  0  0
 17 18  2  0  0  0
 18 19  1  0  0  0
 19 20  2  0  0  0
 19 21  1  0  0  0
 21 22  1  0  0  0
 22 23  1  0  0  0
  3  4  2  0  0  0
  4  5  1  0  0  0
  5  6  2  0  0  0
  6 28  1  0  0  0
 28 29  1  0  0  0
 29 30  1  0  0  0
 30 31  1  0  0  0
 31 32  1  0  0  0
  6  7  1  0  0  0
  7  8  1  0  0  0
  8  9  2  0  0  0
  9  1  1  0  0  0
 20 15  1  0  0  0
  9  5  1  0  0  0
 23 18  1  0  0  0
 32 29  1  0  0  0
 26 27  1  0  0  0
 13 14  1  0  0  0
 22 24  1  0  0  0
 31 33  1  0  0  0
  7 10  1  0  0  0
M  END
> <minimizedAffinity>
-8.72190

> <minimizedRMSD>
0.42874

$$$$
P27488


 34 38  0  0  0  0  0  0  0  0999 V2000
   -5.2039    4.7512  -14.7681 C   0  0  0  0  0  0  0  0  0  0  0  0
   -6.3000    5.4508  -15.5552 C   0  0  0  0  0  0  0  0  0  0  0  0
   -6.3220    5.0602  -16.9992 C   0  0  0  0  0  0  0  0  0  0  0  0
   -7.3692    4.5538  -17.6629 C   0  0  0  0  0  0  0  0  0  0  0  0
   -8.6648    4.2105  -16.9942 C   0  0  0  0  0  0  0  0  0  0  0  0
   -9.3842    2.7450  -17.6330 Cl  0  0  0  0  0  0  0  0  0  0  0  0
   -8.4893    4.0926  -15.4617 C   0  0  0  0  0  0  0  0  0  0  0  0
   -7.7120    5.2994  -14.9325 C   0  0  0  0  0  0  0  0  0  0  0  0
   -7.0925    4.4781  -19.0186 N   0  0  0  0  0  0  0  0  0  0  0  0
   -7.4899    3.3965  -19.7788 O   0  0  0  0  0  0  0  0  0  0  0  0
   -5.7849    4.9195  -19.2813 N   0  0  0  0  0  0  0  0  0  0  0  0
   -5.1775    5.1709  -17.9527 C   0  0  0  0  0  0  0  0  0  0  0  0
   -8.3980    3.1511  -19.5421 H   0  0  0  0  0  0  0  0  0  0  0  0
   -5.8023    5.7770  -19.8334 H   0  0  0  0  0  0  0  0  0  0  0  0
   -7.7092    5.6651  -13.4424 C   0  0  0  0  0  0  0  0  0  0  0  0
   -7.3342    6.7260  -13.1195 O   0  0  0  0  0  0  0  0  0  0  0  0
   -8.2335    4.4810  -12.5877 N   0  0  0  0  0  0  0  0  0  0  0  0
   -8.5640    3.7126  -13.1069 H   0  0  0  0  0  0  0  0  0  0  0  0
   -8.3127    4.3285  -11.2063 C   0  0  0  0  0  0  0  0  0  0  0  0
   -8.0287    5.4077  -10.3494 C   0  0  0  0  0  0  0  0  0  0  0  0
   -8.1828    5.2881   -8.9655 C   0  0  0  0  0  0  0  0  0  0  0  0
   -8.6392    4.0842   -8.4672 C   0  0  0  0  0  0  0  0  0  0  0  0
   -8.8954    3.0063   -9.3110 C   0  0  0  0  0  0  0  0  0  0  0  0
   -8.7252    3.1029  -10.6823 C   0  0  0  0  0  0  0  0  0  0  0  0
   -9.3511    1.8481   -8.4867 C   0  0  0  0  0  0  0  0  0  0  0  0
   -9.7344    2.4359   -7.1758 N   0  0  0  0  0  0  0  0  0  0  0  0
   -8.9502    3.6860   -7.0634 C   0  0  0  0  0  0  0  0  0  0  0  0
   -9.4997    1.7975   -6.4157 H   0  0  0  0  0  0  0  0  0  0  0  0
   -4.4524    6.5130  -17.9338 C   0  0  0  0  0  0  0  0  0  0  0  0
   -2.9802    6.3300  -18.2950 C   0  0  0  0  0  0  0  0  0  0  0  0
   -2.3816    4.9168  -18.1097 C   0  0  0  0  0  0  0  0  0  0  0  0
   -1.1589    5.5448  -17.5639 N   0  0  0  0  0  0  0  0  0  0  0  0
   -1.9552    6.7432  -17.2189 C   0  0  0  0  0  0  0  0  0  0  0  0
   -0.4282    5.7115  -18.2558 H   0  0  0  0  0  0  0  0  0  0  0  0
  2  1  1  0  0  0
  2  3  1  0  0  0
  3  4  2  0  0  0
  4  5  1  0  0  0
  5  6  1  0  0  0
  5  7  1  0  0  0
  7  8  1  0  0  0
  8 15  1  0  0  0
 15 16  2  0  0  0
 15 17  1  0  0  0
 17 19  1  0  0  0
 19 20  2  0  0  0
 20 21  1  0  0  0
 21 22  2  0  0  0
 22 23  1  0  0  0
 23 24  2  0  0  0
 23 25  1  0  0  0
 25 26  1  0  0  0
 26 27  1  0  0  0
  4  9  1  0  0  0
  9 10  1  0  0  0
  9 11  1  0  0  0
 11 12  1  0  0  0
 12 29  1  0  0  0
 29 30  1  0  0  0
 30 31  1  0  0  0
 31 32  1  0  0  0
 32 33  1  0  0  0
  8  2  1  0  0  0
 24 19  1  0  0  0
 33 30  1  0  0  0
 12  3  1  0  0  0
 27 22  1  0  0  0
 17 18  1  0  0  0
 26 28  1  0  0  0
 10 13  1  0  0  0
 11 14  1  0  0  0
 32 34  1  0  0  0
M  END
> <minimizedAffinity>
-8.88757

> <minimizedRMSD>
0.54117

$$$$
P27492


 35 39  0  0  0  0  0  0  0  0999 V2000
   -7.2796    5.0062  -13.5413 C   0  0  0  0  0  0  0  0  0  0  0  0
   -6.0194    4.5662  -13.0785 O   0  0  0  0  0  0  0  0  0  0  0  0
   -5.9326    4.7702  -12.1341 H   0  0  0  0  0  0  0  0  0  0  0  0
   -7.3317    4.6442  -15.0409 C   0  0  0  0  0  0  0  0  0  0  0  0
   -8.5394    4.1714  -15.6526 C   0  0  0  0  0  0  0  0  0  0  0  0
   -8.6616    3.9554  -17.0369 C   0  0  0  0  0  0  0  0  0  0  0  0
  -10.1206    3.6813  -17.8331 Cl  0  0  0  0  0  0  0  0  0  0  0  0
   -7.5261    4.2065  -17.8219 C   0  0  0  0  0  0  0  0  0  0  0  0
   -7.2785    4.0964  -19.1372 N   0  0  0  0  0  0  0  0  0  0  0  0
   -6.0972    4.6979  -19.3201 N   0  0  0  0  0  0  0  0  0  0  0  0
   -5.4760    5.1084  -18.1662 C   0  0  0  0  0  0  0  0  0  0  0  0
   -6.3507    4.7261  -17.1836 C   0  0  0  0  0  0  0  0  0  0  0  0
   -6.1907    4.9648  -15.8282 C   0  0  0  0  0  0  0  0  0  0  0  0
   -5.7042    4.8355  -20.2122 H   0  0  0  0  0  0  0  0  0  0  0  0
   -4.2281    5.9136  -18.1695 C   0  0  0  0  0  0  0  0  0  0  0  0
   -2.9835    5.2493  -17.6131 C   0  0  0  0  0  0  0  0  0  0  0  0
   -2.3098    5.7612  -16.3148 C   0  0  0  0  0  0  0  0  0  0  0  0
   -1.0039    5.6333  -16.9935 N   0  0  0  0  0  0  0  0  0  0  0  0
   -1.6885    5.7750  -18.2897 C   0  0  0  0  0  0  0  0  0  0  0  0
   -0.5466    4.7319  -16.8569 H   0  0  0  0  0  0  0  0  0  0  0  0
   -6.2391    7.1868  -13.0693 C   0  0  0  0  0  0  0  0  0  0  0  0
   -7.4098    6.4520  -13.5041 N   0  0  0  0  0  0  0  0  0  0  0  0
   -7.6443    6.7680  -14.4451 H   0  0  0  0  0  0  0  0  0  0  0  0
   -8.2542    4.2442  -12.7960 N   0  0  0  0  0  0  0  0  0  0  0  0
   -8.9099    3.7130  -13.3032 H   0  0  0  0  0  0  0  0  0  0  0  0
   -8.3260    4.2131  -11.3977 C   0  0  0  0  0  0  0  0  0  0  0  0
   -8.0441    5.3224  -10.5694 C   0  0  0  0  0  0  0  0  0  0  0  0
   -8.1899    5.2830   -9.1773 C   0  0  0  0  0  0  0  0  0  0  0  0
   -8.6172    4.1078   -8.6070 C   0  0  0  0  0  0  0  0  0  0  0  0
   -8.8703    2.9921   -9.3932 C   0  0  0  0  0  0  0  0  0  0  0  0
   -8.7557    3.0334  -10.7748 C   0  0  0  0  0  0  0  0  0  0  0  0
   -9.2127    1.8490   -8.4994 C   0  0  0  0  0  0  0  0  0  0  0  0
   -9.5896    2.4752   -7.2057 N   0  0  0  0  0  0  0  0  0  0  0  0
   -8.8767    3.7712   -7.1779 C   0  0  0  0  0  0  0  0  0  0  0  0
   -9.2948    1.8883   -6.4253 H   0  0  0  0  0  0  0  0  0  0  0  0
 21 22  1  0  0  0
 22  1  1  0  0  0
  1  2  1  0  0  0
  1 24  1  0  0  0
 24 26  1  0  0  0
 26 27  2  0  0  0
 27 28  1  0  0  0
 28 29  2  0  0  0
 29 30  1  0  0  0
 30 31  2  0  0  0
 30 32  1  0  0  0
 32 33  1  0  0  0
 33 34  1  0  0  0
  1  4  1  0  0  0
  4  5  1  0  0  0
  5  6  2  0  0  0
  6  7  1  0  0  0
  6  8  1  0  0  0
  8  9  2  0  0  0
  9 10  1  0  0  0
 10 11  1  0  0  0
 11 15  1  0  0  0
 15 16  1  0  0  0
 16 17  1  0  0  0
 17 18  1  0  0  0
 18 19  1  0  0  0
 11 12  2  0  0  0
 12 13  1  0  0  0
 31 26  1  0  0  0
 13  4  2  0  0  0
 34 29  1  0  0  0
 12  8  1  0  0  0
 19 16  1  0  0  0
 22 23  1  0  0  0
  2  3  1  0  0  0
 24 25  1  0  0  0
 33 35  1  0  0  0
 10 14  1  0  0  0
 18 20  1  0  0  0
M  END
> <minimizedAffinity>
-8.16820

> <minimizedRMSD>
0.41550

$$$$
P27499


 42 46  0  0  0  0  0  0  0  0999 V2000
   -7.3148    4.7203  -15.3742 C   0  0  0  0  0  0  0  0  0  0  0  0
   -8.5803    4.2703  -15.8510 C   0  0  0  0  0  0  0  0  0  0  0  0
   -8.7860    3.9850  -17.2079 C   0  0  0  0  0  0  0  0  0  0  0  0
  -10.3004    3.8083  -17.9322 Cl  0  0  0  0  0  0  0  0  0  0  0  0
   -7.6816    4.1195  -18.0634 C   0  0  0  0  0  0  0  0  0  0  0  0
   -7.5288    3.8941  -19.3763 N   0  0  0  0  0  0  0  0  0  0  0  0
   -6.3638    4.4688  -19.6881 N   0  0  0  0  0  0  0  0  0  0  0  0
   -5.6284    4.8875  -18.6107 C   0  0  0  0  0  0  0  0  0  0  0  0
   -6.4368    4.6145  -17.5339 C   0  0  0  0  0  0  0  0  0  0  0  0
   -6.1775    4.9288  -16.2033 C   0  0  0  0  0  0  0  0  0  0  0  0
   -6.0584    4.5822  -20.6172 H   0  0  0  0  0  0  0  0  0  0  0  0
   -8.0002    4.4239  -12.9449 N   0  0  0  0  0  0  0  0  0  0  0  0
   -7.2142    5.2558  -13.9931 C   0  0  0  0  0  0  0  0  0  0  0  0
   -6.5542    6.2131  -13.8612 O   0  0  0  0  0  0  0  0  0  0  0  0
   -8.4220    3.6076  -13.2985 H   0  0  0  0  0  0  0  0  0  0  0  0
   -8.6019    2.9877   -8.1118 C   0  0  0  0  0  0  0  0  0  0  0  0
   -8.0392    3.8103   -7.0189 N   0  0  0  0  0  0  0  0  0  0  0  0
   -8.2920    5.2035   -7.3928 C   0  0  0  0  0  0  0  0  0  0  0  0
   -8.3402    5.1976   -8.8757 C   0  0  0  0  0  0  0  0  0  0  0  0
   -8.2043    6.2435   -9.7538 C   0  0  0  0  0  0  0  0  0  0  0  0
   -8.1088    7.5384   -9.3508 O   0  0  0  0  0  0  0  0  0  0  0  0
   -8.1167    5.9651  -11.1061 C   0  0  0  0  0  0  0  0  0  0  0  0
   -8.2065    4.6452  -11.5809 C   0  0  0  0  0  0  0  0  0  0  0  0
   -8.4418    3.5854  -10.6886 C   0  0  0  0  0  0  0  0  0  0  0  0
   -8.4933    3.8804   -9.3255 C   0  0  0  0  0  0  0  0  0  0  0  0
   -7.0369    3.6435   -6.9293 H   0  0  0  0  0  0  0  0  0  0  0  0
   -8.1653    7.7509   -8.4400 H   0  0  0  0  0  0  0  0  0  0  0  0
  -10.0403    2.0144   -6.4534 C   0  0  0  0  0  0  0  0  0  0  0  0
   -9.9662    2.7394   -7.7165 N   0  0  0  0  0  0  0  0  0  0  0  0
  -10.4478    3.6326   -7.6133 H   0  0  0  0  0  0  0  0  0  0  0  0
   -4.3223    5.5720  -18.7821 C   0  0  0  0  0  0  0  0  0  0  0  0
   -3.1645    4.5927  -18.9511 C   0  0  0  0  0  0  0  0  0  0  0  0
   -2.6022    4.4414  -20.3822 C   0  0  0  0  0  0  0  0  0  0  0  0
   -1.5326    5.3898  -20.0395 N   0  0  0  0  0  0  0  0  0  0  0  0
   -1.7127    5.0693  -18.6050 C   0  0  0  0  0  0  0  0  0  0  0  0
   -1.7419    6.3587  -20.2796 H   0  0  0  0  0  0  0  0  0  0  0  0
   -1.5488    6.2758  -17.6834 C   0  0  0  0  0  0  0  0  0  0  0  0
   -1.1779    5.8756  -16.2393 C   0  0  0  0  0  0  0  0  0  0  0  0
    0.3324    5.9460  -15.9940 C   0  0  0  0  0  0  0  0  0  0  0  0
   -1.9170    6.7703  -15.2313 C   0  0  0  0  0  0  0  0  0  0  0  0
   -3.2904    6.8958  -15.5740 O   0  0  0  0  0  0  0  0  0  0  0  0
   -3.3689    7.3010  -16.4518 H   0  0  0  0  0  0  0  0  0  0  0  0
 28 29  1  0  0  0
 16 29  1  0  0  0
 16 17  1  0  0  0
 17 18  1  0  0  0
 18 19  1  0  0  0
 19 20  2  0  0  0
 20 21  1  0  0  0
 20 22  1  0  0  0
 22 23  2  0  0  0
 23 12  1  0  0  0
 12 13  1  0  0  0
 13 14  2  0  0  0
 13  1  1  0  0  0
  1  2  1  0  0  0
  2  3  2  0  0  0
  3  4  1  0  0  0
  3  5  1  0  0  0
  5  6  2  0  0  0
  6  7  1  0  0  0
  7  8  1  0  0  0
  8 31  1  0  0  0
 32 31  1  0  0  0
 32 33  1  0  0  0
 33 34  1  0  0  0
 34 35  1  0  0  0
 35 37  1  0  0  0
 37 38  1  0  0  0
 38 39  1  0  0  0
 38 40  1  0  0  0
 40 41  1  0  0  0
  8  9  2  0  0  0
  9 10  1  0  0  0
 23 24  1  0  0  0
 24 25  2  0  0  0
 25 16  1  0  0  0
 25 19  1  0  0  0
 10  1  2  0  0  0
  9  5  1  0  0  0
 35 32  1  0  0  0
 29 30  1  0  0  0
 17 26  1  0  0  0
 21 27  1  0  0  0
 12 15  1  0  0  0
  7 11  1  0  0  0
 34 36  1  0  0  0
 41 42  1  0  0  0
M  END
> <minimizedAffinity>
-8.21514

> <minimizedRMSD>
1.42667

$$$$
P27512


 39 44  0  0  0  0  0  0  0  0999 V2000
   -7.4096    4.6862  -15.2755 C   0  0  0  0  0  0  0  0  0  0  0  0
   -8.6575    4.1663  -15.7332 C   0  0  0  0  0  0  0  0  0  0  0  0
   -8.8828    3.8652  -17.0817 C   0  0  0  0  0  0  0  0  0  0  0  0
  -10.4006    3.5537  -17.7505 Cl  0  0  0  0  0  0  0  0  0  0  0  0
   -7.8039    4.0575  -17.9569 C   0  0  0  0  0  0  0  0  0  0  0  0
   -7.6676    3.8408  -19.2727 N   0  0  0  0  0  0  0  0  0  0  0  0
   -6.4968    4.3958  -19.5921 N   0  0  0  0  0  0  0  0  0  0  0  0
   -5.7566    4.8433  -18.5293 C   0  0  0  0  0  0  0  0  0  0  0  0
   -6.5707    4.6138  -17.4463 C   0  0  0  0  0  0  0  0  0  0  0  0
   -6.3067    4.9594  -16.1209 C   0  0  0  0  0  0  0  0  0  0  0  0
   -6.1875    4.4777  -20.5231 H   0  0  0  0  0  0  0  0  0  0  0  0
   -4.4560    5.5000  -18.7480 C   0  0  0  0  0  0  0  0  0  0  0  0
   -4.0433    5.1991  -20.0625 O   0  0  0  0  0  0  0  0  0  0  0  0
   -3.5055    4.9106  -17.8892 O   0  0  0  0  0  0  0  0  0  0  0  0
   -4.5458    5.5033  -20.7925 H   0  0  0  0  0  0  0  0  0  0  0  0
   -3.5975    4.9946  -16.9605 H   0  0  0  0  0  0  0  0  0  0  0  0
   -4.5405    7.0056  -18.5272 C   0  0  0  0  0  0  0  0  0  0  0  0
   -5.7501    7.7646  -19.1400 C   0  0  0  0  0  0  0  0  0  0  0  0
   -4.7979    8.9742  -19.4165 C   0  0  0  0  0  0  0  0  0  0  0  0
   -4.9544    9.6217  -20.8024 C   0  0  0  0  0  0  0  0  0  0  0  0
   -5.7285   10.9418  -20.7450 C   0  0  0  0  0  0  0  0  0  0  0  0
   -6.7498   10.9695  -19.6176 C   0  0  0  0  0  0  0  0  0  0  0  0
   -6.0904   10.7893  -18.2482 C   0  0  0  0  0  0  0  0  0  0  0  0
   -4.7635   10.0266  -18.3027 C   0  0  0  0  0  0  0  0  0  0  0  0
   -3.6284    7.9400  -19.3664 C   0  0  0  0  0  0  0  0  0  0  0  0
   -6.7127    6.0962  -13.6157 O   0  0  0  0  0  0  0  0  0  0  0  0
   -7.3065    5.1191  -13.8546 C   0  0  0  0  0  0  0  0  0  0  0  0
   -8.0988    4.1731  -12.9209 N   0  0  0  0  0  0  0  0  0  0  0  0
   -8.5808    3.4484  -13.3810 H   0  0  0  0  0  0  0  0  0  0  0  0
   -8.2410    4.1801  -11.5345 C   0  0  0  0  0  0  0  0  0  0  0  0
   -7.9643    5.3317  -10.7804 C   0  0  0  0  0  0  0  0  0  0  0  0
   -8.1349    5.3373   -9.3914 C   0  0  0  0  0  0  0  0  0  0  0  0
   -8.5775    4.1779   -8.7823 C   0  0  0  0  0  0  0  0  0  0  0  0
   -8.8353    3.0306   -9.5256 C   0  0  0  0  0  0  0  0  0  0  0  0
   -8.6832    3.0146  -10.9020 C   0  0  0  0  0  0  0  0  0  0  0  0
   -9.2282    1.9283   -8.5990 C   0  0  0  0  0  0  0  0  0  0  0  0
   -9.5636    2.6016   -7.3162 N   0  0  0  0  0  0  0  0  0  0  0  0
   -8.8368    3.8906   -7.3416 C   0  0  0  0  0  0  0  0  0  0  0  0
   -9.2562    2.0350   -6.5257 H   0  0  0  0  0  0  0  0  0  0  0  0
 26 27  2  0  0  0
 27 28  1  0  0  0
 28 30  1  0  0  0
 30 31  2  0  0  0
 31 32  1  0  0  0
 32 33  2  0  0  0
 33 34  1  0  0  0
 34 35  2  0  0  0
 34 36  1  0  0  0
 36 37  1  0  0  0
 37 38  1  0  0  0
 27  1  1  0  0  0
  1  2  1  0  0  0
  2  3  2  0  0  0
  3  4  1  0  0  0
  3  5  1  0  0  0
  5  6  2  0  0  0
  6  7  1  0  0  0
  7  8  1  0  0  0
  8 12  1  0  0  0
 12 13  1  0  0  0
 12 14  1  0  0  0
 12 17  1  0  0  0
 17 18  1  0  0  0
 18 19  1  0  0  0
 19 20  1  0  0  0
 20 21  1  0  0  0
 21 22  1  0  0  0
 22 23  1  0  0  0
 23 24  1  0  0  0
 19 25  1  0  0  0
  8  9  2  0  0  0
  9 10  1  0  0  0
 35 30  1  0  0  0
 10  1  2  0  0  0
 38 33  1  0  0  0
  9  5  1  0  0  0
 25 17  1  0  0  0
 24 19  1  0  0  0
 28 29  1  0  0  0
 37 39  1  0  0  0
  7 11  1  0  0  0
 13 15  1  0  0  0
 14 16  1  0  0  0
M  END
> <minimizedAffinity>
-9.54630

> <minimizedRMSD>
0.74490

$$$$
P27517


 36 40  0  0  0  0  0  0  0  0999 V2000
   -6.5005    4.9711  -16.2166 C   0  0  0  0  0  0  0  0  0  0  0  0
   -7.6157    4.7142  -15.3429 C   0  0  0  0  0  0  0  0  0  0  0  0
   -8.8445    4.2539  -15.8073 C   0  0  0  0  0  0  0  0  0  0  0  0
   -9.0081    3.9977  -17.1528 C   0  0  0  0  0  0  0  0  0  0  0  0
  -10.5536    3.6946  -17.7962 Cl  0  0  0  0  0  0  0  0  0  0  0  0
   -7.9132    4.1172  -17.9939 C   0  0  0  0  0  0  0  0  0  0  0  0
   -7.8203    3.8457  -19.3260 N   0  0  0  0  0  0  0  0  0  0  0  0
   -6.6065    4.0482  -19.8375 N   0  0  0  0  0  0  0  0  0  0  0  0
   -5.9147    4.5999  -18.8310 C   0  0  0  0  0  0  0  0  0  0  0  0
   -6.6687    4.6043  -17.5939 C   0  0  0  0  0  0  0  0  0  0  0  0
   -8.5820    3.5282  -19.8627 H   0  0  0  0  0  0  0  0  0  0  0  0
   -4.9274    6.7973  -15.7790 N   0  0  0  0  0  0  0  0  0  0  0  0
   -5.3168    5.4823  -15.5923 N   0  0  0  0  0  0  0  0  0  0  0  0
   -4.0678    6.9744  -15.2592 H   0  0  0  0  0  0  0  0  0  0  0  0
   -5.6620    7.4204  -15.4434 H   0  0  0  0  0  0  0  0  0  0  0  0
   -4.7734    4.8907  -15.0233 H   0  0  0  0  0  0  0  0  0  0  0  0
   -7.5735    5.1586  -13.9157 C   0  0  0  0  0  0  0  0  0  0  0  0
   -7.2274    6.2576  -13.7093 O   0  0  0  0  0  0  0  0  0  0  0  0
   -8.1092    4.0739  -12.9443 N   0  0  0  0  0  0  0  0  0  0  0  0
   -8.4084    3.2428  -13.3790 H   0  0  0  0  0  0  0  0  0  0  0  0
   -8.2358    4.0846  -11.5543 C   0  0  0  0  0  0  0  0  0  0  0  0
   -7.9103    5.2237  -10.8001 C   0  0  0  0  0  0  0  0  0  0  0  0
   -8.0723    5.2360   -9.4089 C   0  0  0  0  0  0  0  0  0  0  0  0
   -8.5489    4.0933   -8.7940 C   0  0  0  0  0  0  0  0  0  0  0  0
   -8.8511    2.9557   -9.5342 C   0  0  0  0  0  0  0  0  0  0  0  0
   -8.7143    2.9369  -10.9138 C   0  0  0  0  0  0  0  0  0  0  0  0
   -9.2627    1.8643   -8.6011 C   0  0  0  0  0  0  0  0  0  0  0  0
   -9.5529    2.5433   -7.3103 N   0  0  0  0  0  0  0  0  0  0  0  0
   -8.7976    3.8151   -7.3495 C   0  0  0  0  0  0  0  0  0  0  0  0
   -9.2410    1.9682   -6.5277 H   0  0  0  0  0  0  0  0  0  0  0  0
   -4.5172    5.0559  -19.0907 C   0  0  0  0  0  0  0  0  0  0  0  0
   -3.9390    5.1961  -20.4990 C   0  0  0  0  0  0  0  0  0  0  0  0
   -4.3236    4.3297  -21.7148 C   0  0  0  0  0  0  0  0  0  0  0  0
   -5.3155    5.3662  -22.0936 N   0  0  0  0  0  0  0  0  0  0  0  0
   -4.5191    6.3534  -21.3360 C   0  0  0  0  0  0  0  0  0  0  0  0
   -6.2528    5.2077  -21.7237 H   0  0  0  0  0  0  0  0  0  0  0  0
 12 13  1  0  0  0
 13  1  1  0  0  0
  1  2  2  0  0  0
  2 17  1  0  0  0
 17 18  2  0  0  0
 17 19  1  0  0  0
 19 21  1  0  0  0
 21 22  2  0  0  0
 22 23  1  0  0  0
 23 24  2  0  0  0
 24 25  1  0  0  0
 25 26  2  0  0  0
 25 27  1  0  0  0
 27 28  1  0  0  0
 28 29  1  0  0  0
  2  3  1  0  0  0
  3  4  2  0  0  0
  4  5  1  0  0  0
  4  6  1  0  0  0
  6  7  1  0  0  0
  7  8  1  0  0  0
  8  9  2  0  0  0
  9 31  1  0  0  0
 31 32  1  0  0  0
 32 33  1  0  0  0
 33 34  1  0  0  0
 34 35  1  0  0  0
  9 10  1  0  0  0
 10  1  1  0  0  0
 26 21  1  0  0  0
 10  6  2  0  0  0
 29 24  1  0  0  0
 35 32  1  0  0  0
 12 14  1  0  0  0
 12 15  1  0  0  0
 13 16  1  0  0  0
 19 20  1  0  0  0
 28 30  1  0  0  0
  7 11  1  0  0  0
 34 36  1  0  0  0
M  END
> <minimizedAffinity>
-9.13775

> <minimizedRMSD>
0.34030

$$$$
P27531


 31 36  0  0  0  0  0  0  0  0999 V2000
  -10.2006    4.5398  -17.8830 Cl  0  0  0  0  0  0  0  0  0  0  0  0
   -8.8160    4.1141  -16.8645 C   0  0  0  0  0  0  0  0  0  0  0  0
   -8.9506    4.5760  -15.4097 C   0  0  0  0  0  0  0  0  0  0  0  0
   -7.6622    4.3648  -14.6122 C   0  0  0  0  0  0  0  0  0  0  0  0
   -6.3775    4.9360  -15.2066 C   0  0  0  0  0  0  0  0  0  0  0  0
   -6.4100    4.9582  -16.6931 C   0  0  0  0  0  0  0  0  0  0  0  0
   -5.4464    5.2811  -17.6744 C   0  0  0  0  0  0  0  0  0  0  0  0
   -5.9282    5.0948  -18.9056 N   0  0  0  0  0  0  0  0  0  0  0  0
   -7.2039    4.7063  -18.7190 N   0  0  0  0  0  0  0  0  0  0  0  0
   -7.5321    4.6038  -17.4106 C   0  0  0  0  0  0  0  0  0  0  0  0
   -7.5212    3.0448  -13.7752 N   0  0  0  0  0  0  0  0  0  0  0  0
   -7.7710    4.1243  -13.2145 C   0  0  0  0  0  0  0  0  0  0  0  0
   -7.8299    4.5174  -19.4550 H   0  0  0  0  0  0  0  0  0  0  0  0
   -8.0374    4.9702  -12.2285 N   0  0  0  0  0  0  0  0  0  0  0  0
   -8.1123    5.9213  -12.4716 H   0  0  0  0  0  0  0  0  0  0  0  0
   -8.2236    4.6513  -10.8762 C   0  0  0  0  0  0  0  0  0  0  0  0
   -7.9667    5.6621   -9.9192 C   0  0  0  0  0  0  0  0  0  0  0  0
   -8.1310    5.4395   -8.5504 C   0  0  0  0  0  0  0  0  0  0  0  0
   -8.5792    4.1990   -8.1502 C   0  0  0  0  0  0  0  0  0  0  0  0
   -8.8117    3.1861   -9.0765 C   0  0  0  0  0  0  0  0  0  0  0  0
   -8.6094    3.3805  -10.4352 C   0  0  0  0  0  0  0  0  0  0  0  0
   -9.2835    1.9688   -8.3506 C   0  0  0  0  0  0  0  0  0  0  0  0
   -9.6774    2.4560   -6.9989 N   0  0  0  0  0  0  0  0  0  0  0  0
   -8.8999    3.6925   -6.7840 C   0  0  0  0  0  0  0  0  0  0  0  0
   -9.4465    1.7616   -6.2883 H   0  0  0  0  0  0  0  0  0  0  0  0
   -4.0617    5.7905  -17.5343 C   0  0  0  0  0  0  0  0  0  0  0  0
   -3.8996    7.3128  -17.6403 C   0  0  0  0  0  0  0  0  0  0  0  0
   -5.0432    8.2039  -17.1170 C   0  0  0  0  0  0  0  0  0  0  0  0
   -5.5398    8.3434  -18.5118 N   0  0  0  0  0  0  0  0  0  0  0  0
   -4.1581    8.0432  -18.9802 C   0  0  0  0  0  0  0  0  0  0  0  0
   -5.8744    9.2768  -18.7507 H   0  0  0  0  0  0  0  0  0  0  0  0
  2  1  1  0  0  0
  2  3  1  0  0  0
  4  3  1  0  0  0
  4  5  1  0  0  0
  5  6  1  0  0  0
  6  7  1  0  0  0
  7 26  1  0  0  0
 26 27  1  0  0  0
 27 28  1  0  0  0
 28 29  1  0  0  0
 29 30  1  0  0  0
  7  8  2  0  0  0
  8  9  1  0  0  0
  9 10  1  0  0  0
  4 11  1  0  0  0
 11 12  2  0  0  0
 12 14  1  0  0  0
 14 16  1  0  0  0
 16 17  2  0  0  0
 17 18  1  0  0  0
 18 19  2  0  0  0
 19 20  1  0  0  0
 20 21  2  0  0  0
 20 22  1  0  0  0
 22 23  1  0  0  0
 23 24  1  0  0  0
 10  2  1  0  0  0
 21 16  1  0  0  0
 12  4  1  0  0  0
 24 19  1  0  0  0
 10  6  2  0  0  0
 30 27  1  0  0  0
 29 31  1  0  0  0
  9 13  1  0  0  0
 14 15  1  0  0  0
 23 25  1  0  0  0
M  END
> <minimizedAffinity>
-7.83900

> <minimizedRMSD>
0.29172

$$$$
P27533


 40 44  0  0  0  0  0  0  0  0999 V2000
   -7.0251    4.3153  -13.3393 C   0  0  0  0  0  0  0  0  0  0  0  0
   -6.1266    5.2937  -12.7994 O   0  0  0  0  0  0  0  0  0  0  0  0
   -6.0143    5.1397  -11.8483 H   0  0  0  0  0  0  0  0  0  0  0  0
   -7.1725    4.5981  -14.8457 C   0  0  0  0  0  0  0  0  0  0  0  0
   -8.4070    4.2460  -15.5150 C   0  0  0  0  0  0  0  0  0  0  0  0
   -8.5663    4.3033  -16.9060 C   0  0  0  0  0  0  0  0  0  0  0  0
   -9.9849    4.0303  -17.7916 Cl  0  0  0  0  0  0  0  0  0  0  0  0
   -7.4259    4.6815  -17.6167 C   0  0  0  0  0  0  0  0  0  0  0  0
   -7.1831    4.7263  -18.9247 N   0  0  0  0  0  0  0  0  0  0  0  0
   -5.9832    5.2823  -19.0602 N   0  0  0  0  0  0  0  0  0  0  0  0
   -5.3760    5.5940  -17.8723 C   0  0  0  0  0  0  0  0  0  0  0  0
   -6.2444    5.1128  -16.9250 C   0  0  0  0  0  0  0  0  0  0  0  0
   -6.0487    5.1161  -15.5518 C   0  0  0  0  0  0  0  0  0  0  0  0
   -5.5679    5.4547  -19.9361 H   0  0  0  0  0  0  0  0  0  0  0  0
   -4.0970    6.3307  -17.8306 C   0  0  0  0  0  0  0  0  0  0  0  0
   -2.9677    5.4775  -17.2860 C   0  0  0  0  0  0  0  0  0  0  0  0
   -2.4061    5.8786  -15.9059 C   0  0  0  0  0  0  0  0  0  0  0  0
   -1.0463    5.7119  -16.4507 N   0  0  0  0  0  0  0  0  0  0  0  0
   -1.5793    5.8883  -17.8144 C   0  0  0  0  0  0  0  0  0  0  0  0
   -0.6370    4.7938  -16.2779 H   0  0  0  0  0  0  0  0  0  0  0  0
   -6.9403    1.8399  -13.5657 O   0  0  0  0  0  0  0  0  0  0  0  0
   -6.4254    2.8197  -13.1843 C   0  0  0  0  0  0  0  0  0  0  0  0
   -5.0426    3.0305  -12.4851 N   0  0  0  0  0  0  0  0  0  0  0  0
   -4.8666    3.9526  -12.1884 H   0  0  0  0  0  0  0  0  0  0  0  0
   -3.9843    2.0935  -12.2047 C   0  0  0  0  0  0  0  0  0  0  0  0
   -3.0150    1.9675  -13.3706 C   0  0  0  0  0  0  0  0  0  0  0  0
   -2.0961    0.9992  -13.1087 F   0  0  0  0  0  0  0  0  0  0  0  0
   -3.6513    1.5949  -14.5058 F   0  0  0  0  0  0  0  0  0  0  0  0
   -8.3064    4.5474  -12.6748 N   0  0  0  0  0  0  0  0  0  0  0  0
   -9.1141    4.7762  -13.1891 H   0  0  0  0  0  0  0  0  0  0  0  0
   -8.3427    4.4319  -11.2745 C   0  0  0  0  0  0  0  0  0  0  0  0
   -8.0015    5.5446  -10.4684 C   0  0  0  0  0  0  0  0  0  0  0  0
   -8.0285    5.4724   -9.0741 C   0  0  0  0  0  0  0  0  0  0  0  0
   -8.4384    4.2864   -8.5006 C   0  0  0  0  0  0  0  0  0  0  0  0
   -8.7539    3.1798   -9.2840 C   0  0  0  0  0  0  0  0  0  0  0  0
   -8.6813    3.2227  -10.6654 C   0  0  0  0  0  0  0  0  0  0  0  0
   -9.1865    2.0602   -8.3965 C   0  0  0  0  0  0  0  0  0  0  0  0
   -9.4770    2.7069   -7.0864 N   0  0  0  0  0  0  0  0  0  0  0  0
   -8.6742    3.9459   -7.0673 C   0  0  0  0  0  0  0  0  0  0  0  0
   -9.2036    2.0938   -6.3184 H   0  0  0  0  0  0  0  0  0  0  0  0
 21 22  2  0  0  0
 22 23  1  0  0  0
 23 25  1  0  0  0
 25 26  1  0  0  0
 26 27  1  0  0  0
 26 28  1  0  0  0
 22  1  1  0  0  0
  1  2  1  0  0  0
  1 29  1  0  0  0
 29 31  1  0  0  0
 31 32  2  0  0  0
 32 33  1  0  0  0
 33 34  2  0  0  0
 34 35  1  0  0  0
 35 36  2  0  0  0
 35 37  1  0  0  0
 37 38  1  0  0  0
 38 39  1  0  0  0
  1  4  1  0  0  0
  4  5  1  0  0  0
  5  6  2  0  0  0
  6  7  1  0  0  0
  6  8  1  0  0  0
  8  9  2  0  0  0
  9 10  1  0  0  0
 10 11  1  0  0  0
 11 15  1  0  0  0
 15 16  1  0  0  0
 16 17  1  0  0  0
 17 18  1  0  0  0
 18 19  1  0  0  0
 11 12  2  0  0  0
 12 13  1  0  0  0
 36 31  1  0  0  0
 13  4  2  0  0  0
 39 34  1  0  0  0
 12  8  1  0  0  0
 19 16  1  0  0  0
 23 24  1  0  0  0
  2  3  1  0  0  0
 29 30  1  0  0  0
 38 40  1  0  0  0
 10 14  1  0  0  0
 18 20  1  0  0  0
M  END
> <minimizedAffinity>
-8.23793

> <minimizedRMSD>
0.28994

$$$$
P27541


 36 40  0  0  0  0  0  0  0  0999 V2000
   -6.0742    4.4822  -15.2674 C   0  0  0  0  0  0  0  0  0  0  0  0
   -7.3377    4.0777  -14.7623 C   0  0  0  0  0  0  0  0  0  0  0  0
   -8.5120    4.1373  -15.5254 C   0  0  0  0  0  0  0  0  0  0  0  0
   -8.4731    4.4994  -16.8624 C   0  0  0  0  0  0  0  0  0  0  0  0
   -9.8976    4.4912  -17.8163 Cl  0  0  0  0  0  0  0  0  0  0  0  0
   -7.2265    4.7792  -17.4093 C   0  0  0  0  0  0  0  0  0  0  0  0
   -6.8621    5.0739  -18.6951 N   0  0  0  0  0  0  0  0  0  0  0  0
   -5.5381    5.2270  -18.8597 N   0  0  0  0  0  0  0  0  0  0  0  0
   -5.0273    4.9497  -17.6543 C   0  0  0  0  0  0  0  0  0  0  0  0
   -6.0461    4.7560  -16.6685 C   0  0  0  0  0  0  0  0  0  0  0  0
   -7.5100    5.1652  -19.4307 H   0  0  0  0  0  0  0  0  0  0  0  0
   -7.5171    3.4415  -13.4353 C   0  0  0  0  0  0  0  0  0  0  0  0
   -7.5685    2.2767  -13.3730 O   0  0  0  0  0  0  0  0  0  0  0  0
   -7.6657    4.5106  -12.3314 N   0  0  0  0  0  0  0  0  0  0  0  0
   -7.5039    5.4351  -12.6286 H   0  0  0  0  0  0  0  0  0  0  0  0
   -7.9906    4.3804  -10.9870 C   0  0  0  0  0  0  0  0  0  0  0  0
   -7.7542    5.4711  -10.1318 C   0  0  0  0  0  0  0  0  0  0  0  0
   -8.0294    5.3776   -8.7638 C   0  0  0  0  0  0  0  0  0  0  0  0
   -8.5760    4.1997   -8.2886 C   0  0  0  0  0  0  0  0  0  0  0  0
   -8.8344    3.1325   -9.1427 C   0  0  0  0  0  0  0  0  0  0  0  0
   -8.5311    3.1952  -10.4903 C   0  0  0  0  0  0  0  0  0  0  0  0
   -9.4240    2.0055   -8.3634 C   0  0  0  0  0  0  0  0  0  0  0  0
   -9.8119    2.6038   -7.0549 N   0  0  0  0  0  0  0  0  0  0  0  0
   -8.9688    3.8081   -6.9037 C   0  0  0  0  0  0  0  0  0  0  0  0
   -9.6333    1.9464   -6.2958 H   0  0  0  0  0  0  0  0  0  0  0  0
   -4.8891    4.5825  -14.4826 N   0  0  0  0  0  0  0  0  0  0  0  0
   -3.3080    6.3043  -13.6788 C   0  0  0  0  0  0  0  0  0  0  0  0
   -4.7689    5.9369  -13.9010 C   0  0  0  0  0  0  0  0  0  0  0  0
   -4.6695    3.6396  -13.4676 O   0  0  0  0  0  0  0  0  0  0  0  0
   -3.9493    2.5541  -14.0413 C   0  0  0  0  0  0  0  0  0  0  0  0
   -3.5513    4.7906  -17.5133 C   0  0  0  0  0  0  0  0  0  0  0  0
   -2.7190    6.0749  -17.4212 C   0  0  0  0  0  0  0  0  0  0  0  0
   -2.1666    6.6870  -18.7292 C   0  0  0  0  0  0  0  0  0  0  0  0
   -3.2882    7.6569  -18.7141 N   0  0  0  0  0  0  0  0  0  0  0  0
   -3.4052    7.4494  -17.2521 C   0  0  0  0  0  0  0  0  0  0  0  0
   -4.1062    7.3627  -19.2477 H   0  0  0  0  0  0  0  0  0  0  0  0
 27 28  1  0  0  0
 28 26  1  0  0  0
 26 29  1  0  0  0
 29 30  1  0  0  0
 26  1  1  0  0  0
  1  2  2  0  0  0
  2 12  1  0  0  0
 12 13  2  0  0  0
 12 14  1  0  0  0
 14 16  1  0  0  0
 16 17  2  0  0  0
 17 18  1  0  0  0
 18 19  2  0  0  0
 19 20  1  0  0  0
 20 21  2  0  0  0
 20 22  1  0  0  0
 22 23  1  0  0  0
 23 24  1  0  0  0
  2  3  1  0  0  0
  3  4  2  0  0  0
  4  5  1  0  0  0
  4  6  1  0  0  0
  6  7  1  0  0  0
  7  8  1  0  0  0
  8  9  2  0  0  0
  9 31  1  0  0  0
 31 32  1  0  0  0
 32 33  1  0  0  0
 33 34  1  0  0  0
 34 35  1  0  0  0
  9 10  1  0  0  0
 10  1  1  0  0  0
 21 16  1  0  0  0
 10  6  2  0  0  0
 24 19  1  0  0  0
 35 32  1  0  0  0
 14 15  1  0  0  0
 23 25  1  0  0  0
  7 11  1  0  0  0
 34 36  1  0  0  0
M  END
> <minimizedAffinity>
-7.84756

> <minimizedRMSD>
0.52258

$$$$
P27544


 42 47  0  0  0  0  0  0  0  0999 V2000
   -7.2176    4.0795  -13.2441 C   0  0  0  0  0  0  0  0  0  0  0  0
   -6.5239    5.1465  -12.6204 O   0  0  0  0  0  0  0  0  0  0  0  0
   -6.4197    4.9557  -11.6751 H   0  0  0  0  0  0  0  0  0  0  0  0
   -7.3329    4.4708  -14.7266 C   0  0  0  0  0  0  0  0  0  0  0  0
   -8.6079    4.3321  -15.4494 C   0  0  0  0  0  0  0  0  0  0  0  0
   -8.7456    4.4393  -16.8673 C   0  0  0  0  0  0  0  0  0  0  0  0
  -10.1975    4.4807  -17.7292 Cl  0  0  0  0  0  0  0  0  0  0  0  0
   -7.5323    4.6033  -17.5440 C   0  0  0  0  0  0  0  0  0  0  0  0
   -7.0755    4.6765  -18.8110 N   0  0  0  0  0  0  0  0  0  0  0  0
   -5.7736    5.0918  -18.7352 N   0  0  0  0  0  0  0  0  0  0  0  0
   -5.3363    5.1604  -17.4568 C   0  0  0  0  0  0  0  0  0  0  0  0
   -6.4127    4.7803  -16.7516 C   0  0  0  0  0  0  0  0  0  0  0  0
   -6.1631    4.8410  -15.4248 C   0  0  0  0  0  0  0  0  0  0  0  0
   -4.7485    5.2675  -15.1491 C   0  0  0  0  0  0  0  0  0  0  0  0
   -4.6795    6.3901  -14.3745 F   0  0  0  0  0  0  0  0  0  0  0  0
   -4.2275    5.6711  -16.6259 C   0  0  0  0  0  0  0  0  0  0  0  0
   -5.2205    5.3143  -19.5186 H   0  0  0  0  0  0  0  0  0  0  0  0
   -2.8222    5.2334  -16.9777 C   0  0  0  0  0  0  0  0  0  0  0  0
   -1.5873    6.0442  -16.5463 C   0  0  0  0  0  0  0  0  0  0  0  0
   -1.6480    6.7503  -17.8413 N   0  0  0  0  0  0  0  0  0  0  0  0
   -2.3694    5.6002  -18.4145 C   0  0  0  0  0  0  0  0  0  0  0  0
   -0.7372    6.9270  -18.2651 H   0  0  0  0  0  0  0  0  0  0  0  0
   -6.8718    1.6717  -13.6497 O   0  0  0  0  0  0  0  0  0  0  0  0
   -6.4508    2.6592  -13.1848 C   0  0  0  0  0  0  0  0  0  0  0  0
   -5.1052    2.9370  -12.4636 N   0  0  0  0  0  0  0  0  0  0  0  0
   -5.0167    3.8439  -12.0908 H   0  0  0  0  0  0  0  0  0  0  0  0
   -3.9649    2.0837  -12.2510 C   0  0  0  0  0  0  0  0  0  0  0  0
   -3.0390    2.0357  -13.4602 C   0  0  0  0  0  0  0  0  0  0  0  0
   -3.6879    1.6554  -14.5850 F   0  0  0  0  0  0  0  0  0  0  0  0
   -2.5341    3.2746  -13.7021 F   0  0  0  0  0  0  0  0  0  0  0  0
   -8.5352    3.9554  -12.6027 N   0  0  0  0  0  0  0  0  0  0  0  0
   -9.3745    3.8539  -13.1071 H   0  0  0  0  0  0  0  0  0  0  0  0
   -8.4776    3.9965  -11.1757 C   0  0  0  0  0  0  0  0  0  0  0  0
   -8.0657    5.1669  -10.5035 C   0  0  0  0  0  0  0  0  0  0  0  0
   -8.0409    5.2368   -9.1067 C   0  0  0  0  0  0  0  0  0  0  0  0
   -8.4572    4.1312   -8.3917 C   0  0  0  0  0  0  0  0  0  0  0  0
   -8.8540    2.9698   -9.0397 C   0  0  0  0  0  0  0  0  0  0  0  0
   -8.8475    2.8733  -10.4218 C   0  0  0  0  0  0  0  0  0  0  0  0
   -9.2725    1.9534   -8.0342 C   0  0  0  0  0  0  0  0  0  0  0  0
   -9.2944    2.6619   -6.7240 N   0  0  0  0  0  0  0  0  0  0  0  0
   -8.5995    3.9504   -6.9206 C   0  0  0  0  0  0  0  0  0  0  0  0
   -8.8112    2.1072   -6.0173 H   0  0  0  0  0  0  0  0  0  0  0  0
 23 24  2  0  0  0
 24 25  1  0  0  0
 25 27  1  0  0  0
 27 28  1  0  0  0
 28 29  1  0  0  0
 28 30  1  0  0  0
 24  1  1  0  0  0
  1  2  1  0  0  0
  1 31  1  0  0  0
 31 33  1  0  0  0
 33 34  2  0  0  0
 34 35  1  0  0  0
 35 36  2  0  0  0
 36 37  1  0  0  0
 37 38  2  0  0  0
 37 39  1  0  0  0
 39 40  1  0  0  0
 40 41  1  0  0  0
  1  4  1  0  0  0
  4  5  1  0  0  0
  5  6  2  0  0  0
  6  7  1  0  0  0
  6  8  1  0  0  0
  8  9  2  0  0  0
  9 10  1  0  0  0
 10 11  1  0  0  0
 11 12  2  0  0  0
 12 13  1  0  0  0
 13 14  1  0  0  0
 14 15  1  0  0  0
 14 16  1  0  0  0
 16 18  1  0  0  0
 18 19  1  0  0  0
 19 20  1  0  0  0
 20 21  1  0  0  0
 38 33  1  0  0  0
 13  4  2  0  0  0
 21 18  1  0  0  0
 41 36  1  0  0  0
 12  8  1  0  0  0
 16 11  1  0  0  0
 25 26  1  0  0  0
  2  3  1  0  0  0
 31 32  1  0  0  0
 40 42  1  0  0  0
 10 17  1  0  0  0
 20 22  1  0  0  0
M  END
> <minimizedAffinity>
-8.95171

> <minimizedRMSD>
0.91854

$$$$
P27547


 33 37  0  0  0  0  0  0  0  0999 V2000
   -5.0204    5.2717  -19.8986 N   0  0  0  0  0  0  0  0  0  0  0  0
   -5.7409    5.1139  -18.7233 N   0  0  0  0  0  0  0  0  0  0  0  0
   -7.0573    5.0380  -18.7541 N   0  0  0  0  0  0  0  0  0  0  0  0
   -7.4415    4.7338  -17.5112 C   0  0  0  0  0  0  0  0  0  0  0  0
   -8.7002    4.4757  -16.9422 C   0  0  0  0  0  0  0  0  0  0  0  0
  -10.1040    4.5635  -17.8889 Cl  0  0  0  0  0  0  0  0  0  0  0  0
   -8.6786    4.1179  -15.5927 C   0  0  0  0  0  0  0  0  0  0  0  0
   -7.4608    4.0006  -14.8576 C   0  0  0  0  0  0  0  0  0  0  0  0
   -6.1799    4.3304  -15.3444 C   0  0  0  0  0  0  0  0  0  0  0  0
   -6.2534    4.6835  -16.6851 C   0  0  0  0  0  0  0  0  0  0  0  0
   -5.1894    5.0377  -17.4766 C   0  0  0  0  0  0  0  0  0  0  0  0
   -5.6631    5.2998  -20.6902 H   0  0  0  0  0  0  0  0  0  0  0  0
   -4.3769    4.4884  -20.0107 H   0  0  0  0  0  0  0  0  0  0  0  0
   -7.5462    3.3914  -13.5178 C   0  0  0  0  0  0  0  0  0  0  0  0
   -7.3627    2.2467  -13.3966 O   0  0  0  0  0  0  0  0  0  0  0  0
   -7.9578    4.4533  -12.4788 N   0  0  0  0  0  0  0  0  0  0  0  0
   -8.1247    5.3498  -12.8497 H   0  0  0  0  0  0  0  0  0  0  0  0
   -8.1315    4.3510  -11.1053 C   0  0  0  0  0  0  0  0  0  0  0  0
   -7.8648    5.4688  -10.2985 C   0  0  0  0  0  0  0  0  0  0  0  0
   -8.0409    5.4002   -8.9128 C   0  0  0  0  0  0  0  0  0  0  0  0
   -8.5257    4.2221   -8.3713 C   0  0  0  0  0  0  0  0  0  0  0  0
   -8.8228    3.1337   -9.1793 C   0  0  0  0  0  0  0  0  0  0  0  0
   -8.6069    3.1674  -10.5441 C   0  0  0  0  0  0  0  0  0  0  0  0
   -9.3749    2.0236   -8.3561 C   0  0  0  0  0  0  0  0  0  0  0  0
   -9.5119    2.5662   -6.9750 N   0  0  0  0  0  0  0  0  0  0  0  0
   -8.8208    3.8720   -6.9535 C   0  0  0  0  0  0  0  0  0  0  0  0
   -9.0803    1.9304   -6.3044 H   0  0  0  0  0  0  0  0  0  0  0  0
   -3.7471    5.2610  -17.2113 C   0  0  0  0  0  0  0  0  0  0  0  0
   -3.3658    6.6335  -16.6741 C   0  0  0  0  0  0  0  0  0  0  0  0
   -3.5363    6.9561  -15.1745 C   0  0  0  0  0  0  0  0  0  0  0  0
   -3.8390    8.3600  -15.5541 N   0  0  0  0  0  0  0  0  0  0  0  0
   -4.2703    7.8689  -16.8885 C   0  0  0  0  0  0  0  0  0  0  0  0
   -3.0260    8.9757  -15.5742 H   0  0  0  0  0  0  0  0  0  0  0  0
  1  2  1  0  0  0
  2  3  1  0  0  0
  3  4  2  0  0  0
  4  5  1  0  0  0
  5  6  1  0  0  0
  5  7  2  0  0  0
  7  8  1  0  0  0
  8 14  1  0  0  0
 14 15  2  0  0  0
 14 16  1  0  0  0
 16 18  1  0  0  0
 18 19  2  0  0  0
 19 20  1  0  0  0
 20 21  2  0  0  0
 21 22  1  0  0  0
 22 23  2  0  0  0
 22 24  1  0  0  0
 24 25  1  0  0  0
 25 26  1  0  0  0
  8  9  2  0  0  0
  9 10  1  0  0  0
 10 11  2  0  0  0
 11 28  1  0  0  0
 28 29  1  0  0  0
 29 30  1  0  0  0
 30 31  1  0  0  0
 31 32  1  0  0  0
 11  2  1  0  0  0
 32 29  1  0  0  0
 10  4  1  0  0  0
 23 18  1  0  0  0
 26 21  1  0  0  0
  1 12  1  0  0  0
  1 13  1  0  0  0
 16 17  1  0  0  0
 25 27  1  0  0  0
 31 33  1  0  0  0
M  END
> <minimizedAffinity>
-8.10232

> <minimizedRMSD>
0.68454

$$$$
P27550


 37 42  0  0  0  0  0  0  0  0999 V2000
   -7.4242    2.2375  -13.3744 O   0  0  0  0  0  0  0  0  0  0  0  0
   -7.5418    3.3938  -13.4640 C   0  0  0  0  0  0  0  0  0  0  0  0
   -7.8983    4.4479  -12.3971 N   0  0  0  0  0  0  0  0  0  0  0  0
   -8.0119    5.3625  -12.7433 H   0  0  0  0  0  0  0  0  0  0  0  0
   -7.4440    4.0262  -14.7932 C   0  0  0  0  0  0  0  0  0  0  0  0
   -8.6072    4.1473  -15.5563 C   0  0  0  0  0  0  0  0  0  0  0  0
   -8.5337    4.5104  -16.8978 C   0  0  0  0  0  0  0  0  0  0  0  0
   -9.9431    4.5274  -17.8741 Cl  0  0  0  0  0  0  0  0  0  0  0  0
   -7.2696    4.7827  -17.4188 C   0  0  0  0  0  0  0  0  0  0  0  0
   -6.8531    5.0869  -18.6852 N   0  0  0  0  0  0  0  0  0  0  0  0
   -5.5177    5.2557  -18.7946 N   0  0  0  0  0  0  0  0  0  0  0  0
   -5.0590    4.9854  -17.5688 C   0  0  0  0  0  0  0  0  0  0  0  0
   -6.1078    4.7160  -16.6558 C   0  0  0  0  0  0  0  0  0  0  0  0
   -6.1837    4.3432  -15.3035 C   0  0  0  0  0  0  0  0  0  0  0  0
   -7.4701    5.1748  -19.4473 H   0  0  0  0  0  0  0  0  0  0  0  0
   -3.5950    4.9431  -17.3143 C   0  0  0  0  0  0  0  0  0  0  0  0
   -3.1633    6.1060  -16.4389 C   0  0  0  0  0  0  0  0  0  0  0  0
   -3.3745    7.5341  -16.9944 C   0  0  0  0  0  0  0  0  0  0  0  0
   -2.0662    7.8971  -16.3970 N   0  0  0  0  0  0  0  0  0  0  0  0
   -1.6643    6.4749  -16.4998 C   0  0  0  0  0  0  0  0  0  0  0  0
   -2.1229    8.2509  -15.4420 H   0  0  0  0  0  0  0  0  0  0  0  0
   -8.0854    4.3172  -11.0262 C   0  0  0  0  0  0  0  0  0  0  0  0
   -8.5954    3.1339  -10.4979 C   0  0  0  0  0  0  0  0  0  0  0  0
   -8.8589    3.0855   -9.1430 C   0  0  0  0  0  0  0  0  0  0  0  0
   -8.5589    4.1558   -8.3030 C   0  0  0  0  0  0  0  0  0  0  0  0
   -7.9875    5.3278   -8.7939 C   0  0  0  0  0  0  0  0  0  0  0  0
   -7.7977    5.4072  -10.1879 C   0  0  0  0  0  0  0  0  0  0  0  0
   -8.9504    3.7770   -6.9100 C   0  0  0  0  0  0  0  0  0  0  0  0
   -9.8077    2.5798   -7.0396 N   0  0  0  0  0  0  0  0  0  0  0  0
   -9.4548    1.9711   -8.3500 C   0  0  0  0  0  0  0  0  0  0  0  0
  -10.7927    2.8445   -7.0243 H   0  0  0  0  0  0  0  0  0  0  0  0
   -7.5649    6.4235   -7.9160 C   0  0  0  0  0  0  0  0  0  0  0  0
   -6.3059    6.3975   -7.3049 C   0  0  0  0  0  0  0  0  0  0  0  0
   -5.9271    7.4576   -6.4977 C   0  0  0  0  0  0  0  0  0  0  0  0
   -6.7055    8.5314   -6.2555 N   0  0  0  0  0  0  0  0  0  0  0  0
   -7.9169    8.5430   -6.8529 C   0  0  0  0  0  0  0  0  0  0  0  0
   -8.3814    7.5322   -7.6817 C   0  0  0  0  0  0  0  0  0  0  0  0
  1  2  2  0  0  0
  2  3  1  0  0  0
  3 22  1  0  0  0
 22 23  2  0  0  0
 23 24  1  0  0  0
 24 25  2  0  0  0
 25 26  1  0  0  0
 26 32  1  0  0  0
 32 33  2  0  0  0
 33 34  1  0  0  0
 34 35  2  0  0  0
 35 36  1  0  0  0
 36 37  2  0  0  0
 26 27  2  0  0  0
 25 28  1  0  0  0
 28 29  1  0  0  0
 29 30  1  0  0  0
  2  5  1  0  0  0
  5  6  2  0  0  0
  6  7  1  0  0  0
  7  8  1  0  0  0
  7  9  2  0  0  0
  9 10  1  0  0  0
 10 11  1  0  0  0
 11 12  2  0  0  0
 12 16  1  0  0  0
 16 17  1  0  0  0
 17 18  1  0  0  0
 18 19  1  0  0  0
 19 20  1  0  0  0
 12 13  1  0  0  0
 13 14  2  0  0  0
 27 22  1  0  0  0
 14  5  1  0  0  0
 30 24  1  0  0  0
 13  9  1  0  0  0
 37 32  1  0  0  0
 20 17  1  0  0  0
  3  4  1  0  0  0
 29 31  1  0  0  0
 10 15  1  0  0  0
 19 21  1  0  0  0
M  END
> <minimizedAffinity>
-8.44872

> <minimizedRMSD>
0.54111

$$$$
P27551


 33 37  0  0  0  0  0  0  0  0999 V2000
   -8.2214    4.6399  -15.3259 C   0  0  0  0  0  0  0  0  0  0  0  0
   -9.0749    4.4004  -16.4017 C   0  0  0  0  0  0  0  0  0  0  0  0
   -8.5699    4.4243  -17.7045 C   0  0  0  0  0  0  0  0  0  0  0  0
   -9.6138    4.2383  -19.0535 Cl  0  0  0  0  0  0  0  0  0  0  0  0
   -7.2049    4.6767  -17.8672 C   0  0  0  0  0  0  0  0  0  0  0  0
   -6.4313    4.8831  -18.9756 N   0  0  0  0  0  0  0  0  0  0  0  0
   -5.1148    5.0208  -18.7159 N   0  0  0  0  0  0  0  0  0  0  0  0
   -5.0506    4.9678  -17.3817 C   0  0  0  0  0  0  0  0  0  0  0  0
   -6.3315    4.8164  -16.7976 C   0  0  0  0  0  0  0  0  0  0  0  0
   -6.8407    4.8014  -15.4952 C   0  0  0  0  0  0  0  0  0  0  0  0
   -6.8035    4.9275  -19.8860 H   0  0  0  0  0  0  0  0  0  0  0  0
   -8.1274    4.0891  -12.8834 N   0  0  0  0  0  0  0  0  0  0  0  0
   -8.7471    4.9650  -13.9880 C   0  0  0  0  0  0  0  0  0  0  0  0
   -9.5125    5.8431  -13.9173 O   0  0  0  0  0  0  0  0  0  0  0  0
   -7.5584    3.3551  -13.2102 H   0  0  0  0  0  0  0  0  0  0  0  0
   -8.7587    4.1841   -7.2763 C   0  0  0  0  0  0  0  0  0  0  0  0
   -9.0190    2.7368   -7.0792 N   0  0  0  0  0  0  0  0  0  0  0  0
   -9.2845    2.1598   -8.4252 C   0  0  0  0  0  0  0  0  0  0  0  0
   -8.7843    3.1642   -9.4045 C   0  0  0  0  0  0  0  0  0  0  0  0
   -8.6681    3.0500  -10.7820 C   0  0  0  0  0  0  0  0  0  0  0  0
   -8.2407    4.1660  -11.4984 C   0  0  0  0  0  0  0  0  0  0  0  0
   -7.9272    5.3602  -10.8263 C   0  0  0  0  0  0  0  0  0  0  0  0
   -8.0430    5.4579   -9.4382 C   0  0  0  0  0  0  0  0  0  0  0  0
   -8.4723    4.3462   -8.7383 C   0  0  0  0  0  0  0  0  0  0  0  0
   -9.8299    2.6051   -6.4746 H   0  0  0  0  0  0  0  0  0  0  0  0
   -7.7984    4.3167   -4.9166 C   0  0  0  0  0  0  0  0  0  0  0  0
   -7.6452    4.7331   -6.3727 C   0  0  0  0  0  0  0  0  0  0  0  0
   -3.7386    5.0633  -16.6897 C   0  0  0  0  0  0  0  0  0  0  0  0
   -3.1576    6.4620  -16.8154 C   0  0  0  0  0  0  0  0  0  0  0  0
   -2.1906    6.8959  -15.6912 C   0  0  0  0  0  0  0  0  0  0  0  0
   -2.7756    8.2527  -15.7866 N   0  0  0  0  0  0  0  0  0  0  0  0
   -4.0172    7.6486  -16.3194 C   0  0  0  0  0  0  0  0  0  0  0  0
   -2.2959    8.8725  -16.4393 H   0  0  0  0  0  0  0  0  0  0  0  0
 26 27  1  0  0  0
 16 27  1  0  0  0
 16 17  1  0  0  0
 17 18  1  0  0  0
 18 19  1  0  0  0
 19 20  2  0  0  0
 20 21  1  0  0  0
 21 12  1  0  0  0
 12 13  1  0  0  0
 13 14  2  0  0  0
 13  1  1  0  0  0
  1  2  2  0  0  0
  2  3  1  0  0  0
  3  4  1  0  0  0
  3  5  2  0  0  0
  5  6  1  0  0  0
  6  7  1  0  0  0
  7  8  2  0  0  0
  8 28  1  0  0  0
 28 29  1  0  0  0
 29 30  1  0  0  0
 30 31  1  0  0  0
 31 32  1  0  0  0
  8  9  1  0  0  0
  9 10  2  0  0  0
 21 22  2  0  0  0
 22 23  1  0  0  0
 23 24  2  0  0  0
 24 16  1  0  0  0
 24 19  1  0  0  0
 10  1  1  0  0  0
  9  5  1  0  0  0
 32 29  1  0  0  0
 17 25  1  0  0  0
 12 15  1  0  0  0
  6 11  1  0  0  0
 31 33  1  0  0  0
M  END
> <minimizedAffinity>
-8.76684

> <minimizedRMSD>
0.75834

$$$$
P27553


 40 44  0  0  0  0  0  0  0  0999 V2000
   -6.9947    4.2156  -13.3470 C   0  0  0  0  0  0  0  0  0  0  0  0
   -6.0754    5.1914  -12.8440 O   0  0  0  0  0  0  0  0  0  0  0  0
   -6.0136    5.1104  -11.8793 H   0  0  0  0  0  0  0  0  0  0  0  0
   -7.0211    4.4246  -14.8671 C   0  0  0  0  0  0  0  0  0  0  0  0
   -8.1989    4.4182  -15.6396 C   0  0  0  0  0  0  0  0  0  0  0  0
   -8.1647    4.5615  -17.0339 C   0  0  0  0  0  0  0  0  0  0  0  0
   -9.6126    4.5585  -17.9626 Cl  0  0  0  0  0  0  0  0  0  0  0  0
   -6.9160    4.7311  -17.6314 C   0  0  0  0  0  0  0  0  0  0  0  0
   -6.5319    4.9149  -18.9233 N   0  0  0  0  0  0  0  0  0  0  0  0
   -5.2101    5.1001  -19.1033 N   0  0  0  0  0  0  0  0  0  0  0  0
   -4.7174    5.0330  -17.8652 C   0  0  0  0  0  0  0  0  0  0  0  0
   -5.7327    4.7660  -16.9141 C   0  0  0  0  0  0  0  0  0  0  0  0
   -5.7827    4.5848  -15.5293 C   0  0  0  0  0  0  0  0  0  0  0  0
   -7.1723    4.9127  -19.6709 H   0  0  0  0  0  0  0  0  0  0  0  0
   -3.2697    5.2730  -17.6442 C   0  0  0  0  0  0  0  0  0  0  0  0
   -2.9744    6.7454  -17.4155 C   0  0  0  0  0  0  0  0  0  0  0  0
   -3.1075    7.2964  -15.9751 C   0  0  0  0  0  0  0  0  0  0  0  0
   -1.8981    8.1106  -16.2381 N   0  0  0  0  0  0  0  0  0  0  0  0
   -1.4802    7.1029  -17.2394 C   0  0  0  0  0  0  0  0  0  0  0  0
   -1.2681    8.1988  -15.4409 H   0  0  0  0  0  0  0  0  0  0  0  0
   -7.0372    1.7522  -13.4641 O   0  0  0  0  0  0  0  0  0  0  0  0
   -6.5171    2.7113  -13.0351 C   0  0  0  0  0  0  0  0  0  0  0  0
   -5.2995    2.8546  -12.0662 N   0  0  0  0  0  0  0  0  0  0  0  0
   -5.0979    3.7781  -11.7909 H   0  0  0  0  0  0  0  0  0  0  0  0
   -4.4303    1.8614  -11.5144 C   0  0  0  0  0  0  0  0  0  0  0  0
   -3.0782    1.8738  -12.2153 C   0  0  0  0  0  0  0  0  0  0  0  0
   -3.2266    1.8967  -13.7159 C   0  0  0  0  0  0  0  0  0  0  0  0
   -3.0633    3.1718  -14.1604 F   0  0  0  0  0  0  0  0  0  0  0  0
   -8.3194    4.4659  -12.7442 N   0  0  0  0  0  0  0  0  0  0  0  0
   -9.1175    4.6670  -13.2844 H   0  0  0  0  0  0  0  0  0  0  0  0
   -8.3551    4.3946  -11.3225 C   0  0  0  0  0  0  0  0  0  0  0  0
   -8.0016    5.5232  -10.5470 C   0  0  0  0  0  0  0  0  0  0  0  0
   -8.0033    5.4803   -9.1499 C   0  0  0  0  0  0  0  0  0  0  0  0
   -8.4145    4.3107   -8.5419 C   0  0  0  0  0  0  0  0  0  0  0  0
   -8.7655    3.1936   -9.2938 C   0  0  0  0  0  0  0  0  0  0  0  0
   -8.7118    3.2049  -10.6762 C   0  0  0  0  0  0  0  0  0  0  0  0
   -9.2032    2.1003   -8.3758 C   0  0  0  0  0  0  0  0  0  0  0  0
   -9.4441    2.7768   -7.0712 N   0  0  0  0  0  0  0  0  0  0  0  0
   -8.6166    4.0000   -7.0971 C   0  0  0  0  0  0  0  0  0  0  0  0
   -9.1616    2.1725   -6.2996 H   0  0  0  0  0  0  0  0  0  0  0  0
 21 22  2  0  0  0
 22 23  1  0  0  0
 23 25  1  0  0  0
 25 26  1  0  0  0
 26 27  1  0  0  0
 27 28  1  0  0  0
 22  1  1  0  0  0
  1  2  1  0  0  0
  1 29  1  0  0  0
 29 31  1  0  0  0
 31 32  2  0  0  0
 32 33  1  0  0  0
 33 34  2  0  0  0
 34 35  1  0  0  0
 35 36  2  0  0  0
 35 37  1  0  0  0
 37 38  1  0  0  0
 38 39  1  0  0  0
  1  4  1  0  0  0
  4  5  2  0  0  0
  5  6  1  0  0  0
  6  7  1  0  0  0
  6  8  2  0  0  0
  8  9  1  0  0  0
  9 10  1  0  0  0
 10 11  2  0  0  0
 11 15  1  0  0  0
 15 16  1  0  0  0
 16 17  1  0  0  0
 17 18  1  0  0  0
 18 19  1  0  0  0
 11 12  1  0  0  0
 12 13  2  0  0  0
 36 31  1  0  0  0
 13  4  1  0  0  0
 39 34  1  0  0  0
 12  8  1  0  0  0
 19 16  1  0  0  0
 23 24  1  0  0  0
  2  3  1  0  0  0
 29 30  1  0  0  0
 38 40  1  0  0  0
  9 14  1  0  0  0
 18 20  1  0  0  0
M  END
> <minimizedAffinity>
-8.03747

> <minimizedRMSD>
0.81413

$$$$
P27568


 35 39  0  0  0  0  0  0  0  0999 V2000
   -5.7801    5.2808  -18.3954 N   0  0  0  0  0  0  0  0  0  0  0  0
   -6.9614    4.6832  -18.5427 N   0  0  0  0  0  0  0  0  0  0  0  0
   -7.5265    4.6779  -17.3299 C   0  0  0  0  0  0  0  0  0  0  0  0
   -8.8248    4.3641  -16.8759 C   0  0  0  0  0  0  0  0  0  0  0  0
  -10.0297    4.0090  -18.0196 Cl  0  0  0  0  0  0  0  0  0  0  0  0
   -9.0573    4.5345  -15.4988 C   0  0  0  0  0  0  0  0  0  0  0  0
   -8.0285    5.0004  -14.6246 C   0  0  0  0  0  0  0  0  0  0  0  0
   -6.7004    5.2843  -15.0208 C   0  0  0  0  0  0  0  0  0  0  0  0
   -6.5339    5.1254  -16.3864 C   0  0  0  0  0  0  0  0  0  0  0  0
   -5.4150    5.4929  -17.0927 C   0  0  0  0  0  0  0  0  0  0  0  0
   -8.3396    5.4024  -13.2339 C   0  0  0  0  0  0  0  0  0  0  0  0
   -8.6404    6.5146  -13.0511 O   0  0  0  0  0  0  0  0  0  0  0  0
   -8.1040    4.2547  -12.2350 N   0  0  0  0  0  0  0  0  0  0  0  0
   -7.7798    3.4172  -12.6385 H   0  0  0  0  0  0  0  0  0  0  0  0
   -8.2745    4.2084  -10.8550 C   0  0  0  0  0  0  0  0  0  0  0  0
   -7.9433    5.3170  -10.0543 C   0  0  0  0  0  0  0  0  0  0  0  0
   -8.0752    5.2660   -8.6639 C   0  0  0  0  0  0  0  0  0  0  0  0
   -8.5536    4.0993   -8.1025 C   0  0  0  0  0  0  0  0  0  0  0  0
   -8.8779    3.0015   -8.8952 C   0  0  0  0  0  0  0  0  0  0  0  0
   -8.7402    3.0324  -10.2719 C   0  0  0  0  0  0  0  0  0  0  0  0
   -9.3268    1.8848   -8.0151 C   0  0  0  0  0  0  0  0  0  0  0  0
   -9.6205    2.5208   -6.7040 N   0  0  0  0  0  0  0  0  0  0  0  0
   -8.8088    3.7564   -6.6731 C   0  0  0  0  0  0  0  0  0  0  0  0
   -9.3544    1.9003   -5.9394 H   0  0  0  0  0  0  0  0  0  0  0  0
   -5.1210    5.8749  -19.4895 N   0  0  0  0  0  0  0  0  0  0  0  0
   -5.8141    6.3137  -20.0956 H   0  0  0  0  0  0  0  0  0  0  0  0
   -4.6446    5.0832  -21.7371 C   0  0  0  0  0  0  0  0  0  0  0  0
   -4.3712    4.8880  -20.2625 C   0  0  0  0  0  0  0  0  0  0  0  0
   -2.8737    5.0518  -19.9978 C   0  0  0  0  0  0  0  0  0  0  0  0
   -4.0821    6.0129  -16.6930 C   0  0  0  0  0  0  0  0  0  0  0  0
   -3.8456    7.5256  -16.5794 C   0  0  0  0  0  0  0  0  0  0  0  0
   -3.0451    8.3252  -17.6387 C   0  0  0  0  0  0  0  0  0  0  0  0
   -4.3349    8.6598  -18.2933 N   0  0  0  0  0  0  0  0  0  0  0  0
   -4.9772    8.5080  -16.9539 C   0  0  0  0  0  0  0  0  0  0  0  0
   -4.6448    7.9853  -18.9929 H   0  0  0  0  0  0  0  0  0  0  0  0
 27 28  1  0  0  0
 28 29  1  0  0  0
 28 25  1  0  0  0
 25  1  1  0  0  0
  1  2  1  0  0  0
  2  3  2  0  0  0
  3  4  1  0  0  0
  4  5  1  0  0  0
  4  6  2  0  0  0
  6  7  1  0  0  0
  7 11  1  0  0  0
 11 12  2  0  0  0
 11 13  1  0  0  0
 13 15  1  0  0  0
 15 16  2  0  0  0
 16 17  1  0  0  0
 17 18  2  0  0  0
 18 19  1  0  0  0
 19 20  2  0  0  0
 19 21  1  0  0  0
 21 22  1  0  0  0
 22 23  1  0  0  0
  7  8  2  0  0  0
  8  9  1  0  0  0
  9 10  2  0  0  0
 10 30  1  0  0  0
 30 31  1  0  0  0
 31 32  1  0  0  0
 32 33  1  0  0  0
 33 34  1  0  0  0
 10  1  1  0  0  0
 34 31  1  0  0  0
  9  3  1  0  0  0
 20 15  1  0  0  0
 23 18  1  0  0  0
 25 26  1  0  0  0
 13 14  1  0  0  0
 22 24  1  0  0  0
 33 35  1  0  0  0
M  END
> <minimizedAffinity>
-7.71035

> <minimizedRMSD>
0.71903

$$$$
P27570


 39 43  0  0  0  0  0  0  0  0999 V2000
   -7.7170    3.9253  -13.3510 C   0  0  0  0  0  0  0  0  0  0  0  0
   -9.0842    3.8254  -13.1184 O   0  0  0  0  0  0  0  0  0  0  0  0
   -9.2361    3.5038  -12.2159 H   0  0  0  0  0  0  0  0  0  0  0  0
   -7.6020    4.4441  -14.8113 C   0  0  0  0  0  0  0  0  0  0  0  0
   -8.7758    4.3973  -15.6584 C   0  0  0  0  0  0  0  0  0  0  0  0
   -8.7522    4.5476  -17.0508 C   0  0  0  0  0  0  0  0  0  0  0  0
  -10.1158    4.4636  -18.0450 Cl  0  0  0  0  0  0  0  0  0  0  0  0
   -7.4808    4.7220  -17.6084 C   0  0  0  0  0  0  0  0  0  0  0  0
   -7.0405    4.7667  -18.8727 N   0  0  0  0  0  0  0  0  0  0  0  0
   -5.7208    4.9362  -18.7945 N   0  0  0  0  0  0  0  0  0  0  0  0
   -5.2239    4.9908  -17.5230 C   0  0  0  0  0  0  0  0  0  0  0  0
   -6.3424    4.8519  -16.7379 C   0  0  0  0  0  0  0  0  0  0  0  0
   -6.3305    4.7664  -15.3473 C   0  0  0  0  0  0  0  0  0  0  0  0
   -5.1482    5.0159  -19.5914 H   0  0  0  0  0  0  0  0  0  0  0  0
   -3.7926    5.0930  -17.1445 C   0  0  0  0  0  0  0  0  0  0  0  0
   -2.7242    5.4000  -18.1753 C   0  0  0  0  0  0  0  0  0  0  0  0
   -2.9142    6.4964  -19.2485 C   0  0  0  0  0  0  0  0  0  0  0  0
   -2.1322    5.6524  -20.1725 N   0  0  0  0  0  0  0  0  0  0  0  0
   -2.4605    4.4560  -19.3681 C   0  0  0  0  0  0  0  0  0  0  0  0
   -1.1373    5.8757  -20.1981 H   0  0  0  0  0  0  0  0  0  0  0  0
   -5.3105    3.2660  -12.7689 N   0  0  0  0  0  0  0  0  0  0  0  0
   -6.6695    2.6441  -13.2530 C   0  0  0  0  0  0  0  0  0  0  0  0
   -6.9330    1.5437  -13.5658 O   0  0  0  0  0  0  0  0  0  0  0  0
   -5.3645    4.2086  -12.4896 H   0  0  0  0  0  0  0  0  0  0  0  0
   -3.6028    1.9717  -13.9538 C   0  0  0  0  0  0  0  0  0  0  0  0
   -3.9971    2.6800  -12.6673 C   0  0  0  0  0  0  0  0  0  0  0  0
   -3.8772    1.7742  -11.4557 C   0  0  0  0  0  0  0  0  0  0  0  0
   -7.2909    4.9363  -12.3744 N   0  0  0  0  0  0  0  0  0  0  0  0
   -6.7485    5.7170  -12.6304 H   0  0  0  0  0  0  0  0  0  0  0  0
   -7.7164    4.7118  -11.0242 C   0  0  0  0  0  0  0  0  0  0  0  0
   -7.4697    5.7454  -10.0982 C   0  0  0  0  0  0  0  0  0  0  0  0
   -7.8153    5.6205   -8.7461 C   0  0  0  0  0  0  0  0  0  0  0  0
   -8.4172    4.4504   -8.3246 C   0  0  0  0  0  0  0  0  0  0  0  0
   -8.6527    3.4146   -9.2132 C   0  0  0  0  0  0  0  0  0  0  0  0
   -8.2894    3.5159  -10.5454 C   0  0  0  0  0  0  0  0  0  0  0  0
   -9.3047    2.2774   -8.4967 C   0  0  0  0  0  0  0  0  0  0  0  0
   -9.7227    2.8375   -7.1841 N   0  0  0  0  0  0  0  0  0  0  0  0
   -8.8914    4.0401   -6.9714 C   0  0  0  0  0  0  0  0  0  0  0  0
   -9.5601    2.1582   -6.4408 H   0  0  0  0  0  0  0  0  0  0  0  0
 25 26  1  0  0  0
 26 27  1  0  0  0
 26 21  1  0  0  0
 21 22  1  0  0  0
 22 23  2  0  0  0
 22  1  1  0  0  0
  1  2  1  0  0  0
  1 28  1  0  0  0
 28 30  1  0  0  0
 30 31  2  0  0  0
 31 32  1  0  0  0
 32 33  2  0  0  0
 33 34  1  0  0  0
 34 35  2  0  0  0
 34 36  1  0  0  0
 36 37  1  0  0  0
 37 38  1  0  0  0
  1  4  1  0  0  0
  4  5  1  0  0  0
  5  6  2  0  0  0
  6  7  1  0  0  0
  6  8  1  0  0  0
  8  9  2  0  0  0
  9 10  1  0  0  0
 10 11  1  0  0  0
 11 15  1  0  0  0
 15 16  1  0  0  0
 16 17  1  0  0  0
 17 18  1  0  0  0
 18 19  1  0  0  0
 11 12  2  0  0  0
 12 13  1  0  0  0
 35 30  1  0  0  0
 13  4  2  0  0  0
 38 33  1  0  0  0
 12  8  1  0  0  0
 19 16  1  0  0  0
 21 24  1  0  0  0
  2  3  1  0  0  0
 28 29  1  0  0  0
 37 39  1  0  0  0
 10 14  1  0  0  0
 18 20  1  0  0  0
M  END
> <minimizedAffinity>
-8.98288

> <minimizedRMSD>
0.42305

$$$$
P27576


 30 33  0  0  0  0  0  0  0  0999 V2000
   -9.6536    4.4584  -17.7678 C   0  0  0  0  0  0  0  0  0  0  0  0
   -8.4333    4.4824  -16.9022 C   0  0  0  0  0  0  0  0  0  0  0  0
   -8.4832    3.9985  -15.5915 C   0  0  0  0  0  0  0  0  0  0  0  0
   -7.3330    3.9590  -14.7757 C   0  0  0  0  0  0  0  0  0  0  0  0
   -6.1108    4.4776  -15.2120 C   0  0  0  0  0  0  0  0  0  0  0  0
   -6.0792    5.0144  -16.4892 C   0  0  0  0  0  0  0  0  0  0  0  0
   -7.2193    5.0051  -17.3019 C   0  0  0  0  0  0  0  0  0  0  0  0
   -6.9358    5.6615  -18.4840 N   0  0  0  0  0  0  0  0  0  0  0  0
   -5.6734    6.2216  -18.4758 C   0  0  0  0  0  0  0  0  0  0  0  0
   -5.2117    6.9948  -19.3016 O   0  0  0  0  0  0  0  0  0  0  0  0
   -4.9527    5.6896  -17.2342 C   0  0  0  0  0  0  0  0  0  0  0  0
   -7.5601    5.7227  -19.2428 H   0  0  0  0  0  0  0  0  0  0  0  0
   -7.4741    3.3329  -13.4381 C   0  0  0  0  0  0  0  0  0  0  0  0
   -7.4429    2.1714  -13.3295 O   0  0  0  0  0  0  0  0  0  0  0  0
   -7.7497    4.4301  -12.3862 N   0  0  0  0  0  0  0  0  0  0  0  0
   -7.7954    5.3449  -12.7471 H   0  0  0  0  0  0  0  0  0  0  0  0
   -7.9439    4.3358  -11.0104 C   0  0  0  0  0  0  0  0  0  0  0  0
   -7.6165    5.4511  -10.2195 C   0  0  0  0  0  0  0  0  0  0  0  0
   -7.8386    5.4416   -8.8393 C   0  0  0  0  0  0  0  0  0  0  0  0
   -8.4334    4.3258   -8.2803 C   0  0  0  0  0  0  0  0  0  0  0  0
   -8.7887    3.2346   -9.0666 C   0  0  0  0  0  0  0  0  0  0  0  0
   -8.5234    3.2072  -10.4289 C   0  0  0  0  0  0  0  0  0  0  0  0
   -9.5031    2.2238   -8.2250 C   0  0  0  0  0  0  0  0  0  0  0  0
   -9.4144    2.7349   -6.8386 N   0  0  0  0  0  0  0  0  0  0  0  0
  -10.6518    2.6296   -6.0946 C   0  0  0  0  0  0  0  0  0  0  0  0
   -8.8309    4.0782   -6.8609 C   0  0  0  0  0  0  0  0  0  0  0  0
   -3.8895    4.7021  -17.7093 C   0  0  0  0  0  0  0  0  0  0  0  0
   -2.8281    5.3145  -18.5199 N   0  0  0  0  0  0  0  0  0  0  0  0
   -3.2332    5.7079  -19.3693 H   0  0  0  0  0  0  0  0  0  0  0  0
   -2.1385    4.6054  -18.7689 H   0  0  0  0  0  0  0  0  0  0  0  0
  1  2  1  0  0  0
  2  3  2  0  0  0
  3  4  1  0  0  0
  4 13  1  0  0  0
 13 14  2  0  0  0
 13 15  1  0  0  0
 15 17  1  0  0  0
 17 18  2  0  0  0
 18 19  1  0  0  0
 19 20  2  0  0  0
 20 21  1  0  0  0
 21 22  2  0  0  0
 21 23  1  0  0  0
 23 24  1  0  0  0
 24 25  1  0  0  0
 24 26  1  0  0  0
  4  5  2  0  0  0
  5  6  1  0  0  0
  6  7  2  0  0  0
  7  8  1  0  0  0
  8  9  1  0  0  0
  9 10  2  0  0  0
  9 11  1  0  0  0
 11 27  1  0  0  0
 27 28  1  0  0  0
  7  2  1  0  0  0
 22 17  1  0  0  0
 11  6  1  0  0  0
 26 20  1  0  0  0
 15 16  1  0  0  0
  8 12  1  0  0  0
 28 29  1  0  0  0
 28 30  1  0  0  0
M  END
> <minimizedAffinity>
-8.69452

> <minimizedRMSD>
0.35436

$$$$
P27591


 34 38  0  0  0  0  0  0  0  0999 V2000
   -9.6485    4.3733  -17.8029 C   0  0  0  0  0  0  0  0  0  0  0  0
   -8.4303    4.4372  -16.9280 C   0  0  0  0  0  0  0  0  0  0  0  0
   -8.5007    4.0326  -15.5855 C   0  0  0  0  0  0  0  0  0  0  0  0
   -7.3608    4.0500  -14.7423 C   0  0  0  0  0  0  0  0  0  0  0  0
   -6.1424    4.5501  -15.2355 C   0  0  0  0  0  0  0  0  0  0  0  0
   -6.0635    4.9439  -16.5526 C   0  0  0  0  0  0  0  0  0  0  0  0
   -7.1819    4.8327  -17.3810 C   0  0  0  0  0  0  0  0  0  0  0  0
   -6.8052    5.1429  -18.6730 N   0  0  0  0  0  0  0  0  0  0  0  0
   -5.4562    5.4363  -18.7778 C   0  0  0  0  0  0  0  0  0  0  0  0
   -4.8475    5.6547  -19.8145 O   0  0  0  0  0  0  0  0  0  0  0  0
   -4.9039    5.5213  -17.3383 C   0  0  0  0  0  0  0  0  0  0  0  0
   -3.5648    4.7931  -17.1942 C   0  0  0  0  0  0  0  0  0  0  0  0
   -2.7603    5.2366  -15.9665 C   0  0  0  0  0  0  0  0  0  0  0  0
   -2.7146    6.7527  -15.8015 C   0  0  0  0  0  0  0  0  0  0  0  0
   -4.0531    7.3431  -15.7847 N   0  0  0  0  0  0  0  0  0  0  0  0
   -4.7462    7.0332  -17.0452 C   0  0  0  0  0  0  0  0  0  0  0  0
   -7.4276    5.1541  -19.4357 H   0  0  0  0  0  0  0  0  0  0  0  0
   -3.9764    8.3547  -15.6794 H   0  0  0  0  0  0  0  0  0  0  0  0
   -7.3298    3.3988  -13.3663 C   0  0  0  0  0  0  0  0  0  0  0  0
   -7.0456    2.0241  -13.5606 O   0  0  0  0  0  0  0  0  0  0  0  0
   -6.3258    3.9122  -12.6063 F   0  0  0  0  0  0  0  0  0  0  0  0
   -6.1934    1.9311  -14.0143 H   0  0  0  0  0  0  0  0  0  0  0  0
   -8.6015    3.4972  -12.6906 N   0  0  0  0  0  0  0  0  0  0  0  0
   -9.4667    3.3938  -13.1488 H   0  0  0  0  0  0  0  0  0  0  0  0
   -8.4817    3.7574  -11.3016 C   0  0  0  0  0  0  0  0  0  0  0  0
   -7.9378    4.9733  -10.8434 C   0  0  0  0  0  0  0  0  0  0  0  0
   -7.9030    5.2826   -9.4780 C   0  0  0  0  0  0  0  0  0  0  0  0
   -8.4122    4.3590   -8.5819 C   0  0  0  0  0  0  0  0  0  0  0  0
   -8.9033    3.1368   -9.0215 C   0  0  0  0  0  0  0  0  0  0  0  0
   -8.9348    2.8163  -10.3686 C   0  0  0  0  0  0  0  0  0  0  0  0
   -9.3939    2.3365   -7.8591 C   0  0  0  0  0  0  0  0  0  0  0  0
   -9.1443    3.1759   -6.6682 N   0  0  0  0  0  0  0  0  0  0  0  0
  -10.2744    3.2585   -5.7673 C   0  0  0  0  0  0  0  0  0  0  0  0
   -8.5914    4.4642   -7.1016 C   0  0  0  0  0  0  0  0  0  0  0  0
  1  2  1  0  0  0
  2  3  2  0  0  0
  3  4  1  0  0  0
  4 19  1  0  0  0
 19 20  1  0  0  0
 19 21  1  0  0  0
 19 23  1  0  0  0
 23 25  1  0  0  0
 25 26  2  0  0  0
 26 27  1  0  0  0
 27 28  2  0  0  0
 28 29  1  0  0  0
 29 30  2  0  0  0
 29 31  1  0  0  0
 31 32  1  0  0  0
 32 33  1  0  0  0
 32 34  1  0  0  0
  4  5  2  0  0  0
  5  6  1  0  0  0
  6  7  2  0  0  0
  7  8  1  0  0  0
  8  9  1  0  0  0
  9 10  2  0  0  0
  9 11  1  0  0  0
 11 12  1  0  0  0
 12 13  1  0  0  0
 13 14  1  0  0  0
 14 15  1  0  0  0
 15 16  1  0  0  0
  7  2  1  0  0  0
 16 11  1  0  0  0
 30 25  1  0  0  0
 11  6  1  0  0  0
 34 28  1  0  0  0
 20 22  1  0  0  0
 23 24  1  0  0  0
  8 17  1  0  0  0
 15 18  1  0  0  0
M  END
> <minimizedAffinity>
-9.68166

> <minimizedRMSD>
0.57026

$$$$
P27620


 27 31  0  0  0  0  0  0  0  0999 V2000
   -7.6103    4.3782  -12.5005 N   0  0  0  0  0  0  0  0  0  0  0  0
   -7.3847    3.2600  -13.5456 C   0  0  0  0  0  0  0  0  0  0  0  0
   -7.3214    2.1027  -13.4131 O   0  0  0  0  0  0  0  0  0  0  0  0
   -7.5462    5.2939  -12.8563 H   0  0  0  0  0  0  0  0  0  0  0  0
   -7.3046    3.9099  -14.8711 C   0  0  0  0  0  0  0  0  0  0  0  0
   -8.5130    4.0635  -15.7220 C   0  0  0  0  0  0  0  0  0  0  0  0
   -8.5052    4.6365  -16.9531 C   0  0  0  0  0  0  0  0  0  0  0  0
   -9.8929    4.6587  -17.9509 Cl  0  0  0  0  0  0  0  0  0  0  0  0
   -7.2258    5.2354  -17.4333 C   0  0  0  0  0  0  0  0  0  0  0  0
   -6.1429    4.7907  -16.6463 C   0  0  0  0  0  0  0  0  0  0  0  0
   -6.1210    4.3102  -15.3401 C   0  0  0  0  0  0  0  0  0  0  0  0
   -4.6776    4.5253  -15.0389 C   0  0  0  0  0  0  0  0  0  0  0  0
   -4.0354    5.1673  -16.0044 N   0  0  0  0  0  0  0  0  0  0  0  0
   -4.9949    5.3100  -16.9935 C   0  0  0  0  0  0  0  0  0  0  0  0
   -5.4060    6.2283  -18.0898 C   0  0  0  0  0  0  0  0  0  0  0  0
   -4.6708    7.0383  -18.6303 O   0  0  0  0  0  0  0  0  0  0  0  0
   -6.7946    6.0954  -18.2925 N   0  0  0  0  0  0  0  0  0  0  0  0
  -10.0960    1.9453   -6.1538 C   0  0  0  0  0  0  0  0  0  0  0  0
   -9.9257    2.8233   -7.2842 N   0  0  0  0  0  0  0  0  0  0  0  0
   -8.9391    3.8924   -7.0654 C   0  0  0  0  0  0  0  0  0  0  0  0
   -8.4923    4.2281   -8.4536 C   0  0  0  0  0  0  0  0  0  0  0  0
   -7.9215    5.3781   -8.9612 C   0  0  0  0  0  0  0  0  0  0  0  0
   -7.6444    5.4204  -10.3310 C   0  0  0  0  0  0  0  0  0  0  0  0
   -7.8880    4.3004  -11.1449 C   0  0  0  0  0  0  0  0  0  0  0  0
   -8.4457    3.1396  -10.6166 C   0  0  0  0  0  0  0  0  0  0  0  0
   -8.7743    3.1390   -9.2790 C   0  0  0  0  0  0  0  0  0  0  0  0
   -9.4764    2.0859   -8.4866 C   0  0  0  0  0  0  0  0  0  0  0  0
 18 19  1  0  0  0
 19 20  1  0  0  0
 20 21  1  0  0  0
 21 22  2  0  0  0
 22 23  1  0  0  0
 23 24  2  0  0  0
 24  1  1  0  0  0
  1  2  1  0  0  0
  2  3  2  0  0  0
  2  5  1  0  0  0
  5  6  1  0  0  0
  6  7  2  0  0  0
  7  8  1  0  0  0
  7  9  1  0  0  0
  9 10  1  0  0  0
 10 11  1  0  0  0
 11 12  1  0  0  0
 12 13  2  0  0  0
 13 14  1  0  0  0
 14 15  1  0  0  0
 15 16  2  0  0  0
 15 17  1  0  0  0
 24 25  1  0  0  0
 25 26  2  0  0  0
 26 27  1  0  0  0
 27 19  1  0  0  0
 26 21  1  0  0  0
 11  5  2  0  0  0
 17  9  2  0  0  0
 14 10  2  0  0  0
  1  4  1  0  0  0
M  END
> <minimizedAffinity>
-8.43910

> <minimizedRMSD>
0.27370

$$$$
P27622


 27 30  0  0  0  0  0  0  0  0999 V2000
   -7.7379    4.4834  -12.3807 N   0  0  0  0  0  0  0  0  0  0  0  0
   -7.5193    3.3955  -13.4551 C   0  0  0  0  0  0  0  0  0  0  0  0
   -7.4360    2.2366  -13.3518 O   0  0  0  0  0  0  0  0  0  0  0  0
   -7.6953    5.4081  -12.7158 H   0  0  0  0  0  0  0  0  0  0  0  0
   -7.4062    4.0335  -14.7887 C   0  0  0  0  0  0  0  0  0  0  0  0
   -8.5415    4.0950  -15.6204 C   0  0  0  0  0  0  0  0  0  0  0  0
   -8.4371    4.5780  -16.9266 C   0  0  0  0  0  0  0  0  0  0  0  0
   -7.1958    5.0168  -17.3366 C   0  0  0  0  0  0  0  0  0  0  0  0
   -6.0784    5.0158  -16.5003 C   0  0  0  0  0  0  0  0  0  0  0  0
   -6.1635    4.5170  -15.2115 C   0  0  0  0  0  0  0  0  0  0  0  0
   -4.8952    5.5860  -17.2467 C   0  0  0  0  0  0  0  0  0  0  0  0
   -3.7449    4.5968  -17.3698 C   0  0  0  0  0  0  0  0  0  0  0  0
   -4.4299    6.9013  -16.6291 C   0  0  0  0  0  0  0  0  0  0  0  0
   -5.5055    5.8653  -18.6386 C   0  0  0  0  0  0  0  0  0  0  0  0
   -4.9270    6.3408  -19.6034 O   0  0  0  0  0  0  0  0  0  0  0  0
   -6.8455    5.5134  -18.5785 N   0  0  0  0  0  0  0  0  0  0  0  0
   -7.4733    5.6062  -19.3313 H   0  0  0  0  0  0  0  0  0  0  0  0
  -10.5582    2.3963   -6.0873 C   0  0  0  0  0  0  0  0  0  0  0  0
   -9.3699    2.6160   -6.8819 N   0  0  0  0  0  0  0  0  0  0  0  0
   -8.8570    3.9878   -6.8726 C   0  0  0  0  0  0  0  0  0  0  0  0
   -8.4674    4.2817   -8.2856 C   0  0  0  0  0  0  0  0  0  0  0  0
   -7.8879    5.4200   -8.8152 C   0  0  0  0  0  0  0  0  0  0  0  0
   -7.6602    5.4642  -10.1938 C   0  0  0  0  0  0  0  0  0  0  0  0
   -7.9854    4.3692  -11.0152 C   0  0  0  0  0  0  0  0  0  0  0  0
   -8.5662    3.2253  -10.4664 C   0  0  0  0  0  0  0  0  0  0  0  0
   -8.8139    3.2078   -9.1012 C   0  0  0  0  0  0  0  0  0  0  0  0
   -9.4937    2.1552   -8.2831 C   0  0  0  0  0  0  0  0  0  0  0  0
 18 19  1  0  0  0
 19 20  1  0  0  0
 20 21  1  0  0  0
 21 22  2  0  0  0
 22 23  1  0  0  0
 23 24  2  0  0  0
 24  1  1  0  0  0
  1  2  1  0  0  0
  2  3  2  0  0  0
  2  5  1  0  0  0
  5  6  2  0  0  0
  6  7  1  0  0  0
  7  8  2  0  0  0
  8  9  1  0  0  0
  9 10  2  0  0  0
  9 11  1  0  0  0
 11 12  1  0  0  0
 11 13  1  0  0  0
 11 14  1  0  0  0
 14 15  2  0  0  0
 14 16  1  0  0  0
 24 25  1  0  0  0
 25 26  2  0  0  0
 26 27  1  0  0  0
 27 19  1  0  0  0
 26 21  1  0  0  0
 10  5  1  0  0  0
 16  8  1  0  0  0
  1  4  1  0  0  0
 16 17  1  0  0  0
M  END
> <minimizedAffinity>
-8.63958

> <minimizedRMSD>
0.27610

$$$$
P27657


 29 33  0  0  0  0  0  0  0  0999 V2000
   -8.1149    4.6589  -15.1431 C   0  0  0  0  0  0  0  0  0  0  0  0
   -8.8655    4.2822  -16.3153 C   0  0  0  0  0  0  0  0  0  0  0  0
   -8.3305    4.2915  -17.6916 C   0  0  0  0  0  0  0  0  0  0  0  0
   -9.4093    3.9177  -18.9765 Cl  0  0  0  0  0  0  0  0  0  0  0  0
   -7.0202    4.6788  -17.9618 C   0  0  0  0  0  0  0  0  0  0  0  0
   -6.4003    4.9198  -16.7893 C   0  0  0  0  0  0  0  0  0  0  0  0
   -5.1757    5.4211  -17.0042 C   0  0  0  0  0  0  0  0  0  0  0  0
   -4.6856    5.7234  -15.7666 N   0  0  0  0  0  0  0  0  0  0  0  0
   -5.7012    5.4648  -14.8148 C   0  0  0  0  0  0  0  0  0  0  0  0
   -6.8008    4.9635  -15.4845 C   0  0  0  0  0  0  0  0  0  0  0  0
   -4.9192    5.5196  -18.4059 C   0  0  0  0  0  0  0  0  0  0  0  0
   -3.9277    6.0064  -18.9145 O   0  0  0  0  0  0  0  0  0  0  0  0
   -6.1203    5.0125  -18.9951 N   0  0  0  0  0  0  0  0  0  0  0  0
   -3.7824    6.0623  -15.5699 H   0  0  0  0  0  0  0  0  0  0  0  0
   -6.2901    4.9132  -19.9598 H   0  0  0  0  0  0  0  0  0  0  0  0
   -8.1652    4.0361  -12.7383 N   0  0  0  0  0  0  0  0  0  0  0  0
   -8.6679    4.9908  -13.8356 C   0  0  0  0  0  0  0  0  0  0  0  0
   -9.3363    5.9440  -13.7609 O   0  0  0  0  0  0  0  0  0  0  0  0
   -7.6720    3.2510  -13.0695 H   0  0  0  0  0  0  0  0  0  0  0  0
  -10.3497    2.7185   -6.1823 C   0  0  0  0  0  0  0  0  0  0  0  0
   -9.1028    2.7087   -6.9257 N   0  0  0  0  0  0  0  0  0  0  0  0
   -8.5628    4.0648   -7.1239 C   0  0  0  0  0  0  0  0  0  0  0  0
   -8.4282    4.2486   -8.5969 C   0  0  0  0  0  0  0  0  0  0  0  0
   -8.0010    5.3628   -9.2892 C   0  0  0  0  0  0  0  0  0  0  0  0
   -7.9483    5.2862  -10.6793 C   0  0  0  0  0  0  0  0  0  0  0  0
   -8.2941    4.1017  -11.3544 C   0  0  0  0  0  0  0  0  0  0  0  0
   -8.7219    2.9815  -10.6411 C   0  0  0  0  0  0  0  0  0  0  0  0
   -8.7984    3.0831   -9.2595 C   0  0  0  0  0  0  0  0  0  0  0  0
   -9.2205    2.0592   -8.2561 C   0  0  0  0  0  0  0  0  0  0  0  0
 20 21  1  0  0  0
 21 22  1  0  0  0
 22 23  1  0  0  0
 23 24  2  0  0  0
 24 25  1  0  0  0
 25 26  2  0  0  0
 26 16  1  0  0  0
 16 17  1  0  0  0
 17 18  2  0  0  0
 17  1  1  0  0  0
  1  2  2  0  0  0
  2  3  1  0  0  0
  3  4  1  0  0  0
  3  5  2  0  0  0
  5  6  1  0  0  0
  6  7  2  0  0  0
  7  8  1  0  0  0
  8  9  1  0  0  0
  9 10  2  0  0  0
  7 11  1  0  0  0
 11 12  2  0  0  0
 11 13  1  0  0  0
 26 27  1  0  0  0
 27 28  2  0  0  0
 28 29  1  0  0  0
 29 21  1  0  0  0
 28 23  1  0  0  0
 10  1  1  0  0  0
 13  5  1  0  0  0
 10  6  1  0  0  0
 16 19  1  0  0  0
  8 14  1  0  0  0
 13 15  1  0  0  0
M  END
> <minimizedAffinity>
-9.90954

> <minimizedRMSD>
0.62862

$$$$
P27669


 35 39  0  0  0  0  0  0  0  0999 V2000
   -5.0953    5.7187  -17.5999 C   0  0  0  0  0  0  0  0  0  0  0  0
   -4.0662    5.3452  -16.6131 N   0  0  0  0  0  0  0  0  0  0  0  0
   -4.3881    6.0293  -15.2812 N   0  0  0  0  0  0  0  0  0  0  0  0
   -5.7214    5.6310  -14.7208 C   0  0  0  0  0  0  0  0  0  0  0  0
   -6.7700    5.2442  -15.7359 C   0  0  0  0  0  0  0  0  0  0  0  0
   -8.0366    4.7273  -15.4291 C   0  0  0  0  0  0  0  0  0  0  0  0
   -8.8097    4.0762  -16.4160 C   0  0  0  0  0  0  0  0  0  0  0  0
   -8.3073    3.9133  -17.7087 C   0  0  0  0  0  0  0  0  0  0  0  0
   -9.0045    3.2354  -18.6304 F   0  0  0  0  0  0  0  0  0  0  0  0
   -7.0888    4.4784  -18.0059 C   0  0  0  0  0  0  0  0  0  0  0  0
   -6.3946    5.2109  -17.0615 C   0  0  0  0  0  0  0  0  0  0  0  0
   -6.2982    4.3568  -19.1356 N   0  0  0  0  0  0  0  0  0  0  0  0
   -5.0484    4.9614  -18.9522 C   0  0  0  0  0  0  0  0  0  0  0  0
   -4.1254    4.9662  -19.7533 O   0  0  0  0  0  0  0  0  0  0  0  0
   -3.1497    5.6490  -16.9418 H   0  0  0  0  0  0  0  0  0  0  0  0
   -4.3857    7.0390  -15.4262 H   0  0  0  0  0  0  0  0  0  0  0  0
   -6.5788    3.9028  -19.9629 H   0  0  0  0  0  0  0  0  0  0  0  0
   -8.6178    5.0150  -14.0990 C   0  0  0  0  0  0  0  0  0  0  0  0
   -9.5512    5.7169  -14.0737 O   0  0  0  0  0  0  0  0  0  0  0  0
   -7.8563    4.3195  -12.9486 N   0  0  0  0  0  0  0  0  0  0  0  0
   -7.0454    3.8346  -13.2252 H   0  0  0  0  0  0  0  0  0  0  0  0
   -8.1307    4.2669  -11.5816 C   0  0  0  0  0  0  0  0  0  0  0  0
   -7.9869    5.4239  -10.7953 C   0  0  0  0  0  0  0  0  0  0  0  0
   -8.2155    5.3966   -9.4193 C   0  0  0  0  0  0  0  0  0  0  0  0
   -8.5879    4.1980   -8.8474 C   0  0  0  0  0  0  0  0  0  0  0  0
   -8.7483    3.0499   -9.6199 C   0  0  0  0  0  0  0  0  0  0  0  0
   -8.5230    3.0623  -10.9913 C   0  0  0  0  0  0  0  0  0  0  0  0
   -9.1972    1.9276   -8.7360 C   0  0  0  0  0  0  0  0  0  0  0  0
   -9.1310    2.4577   -7.3617 N   0  0  0  0  0  0  0  0  0  0  0  0
  -10.2298    2.0693   -6.5059 C   0  0  0  0  0  0  0  0  0  0  0  0
   -8.8915    3.9001   -7.4158 C   0  0  0  0  0  0  0  0  0  0  0  0
   -5.0747    7.2268  -17.9889 C   0  0  0  0  0  0  0  0  0  0  0  0
   -3.6098    8.5001  -19.4198 C   0  0  0  0  0  0  0  0  0  0  0  0
   -3.7371    7.8611  -18.1216 N   0  0  0  0  0  0  0  0  0  0  0  0
   -3.6224    8.5614  -17.3890 H   0  0  0  0  0  0  0  0  0  0  0  0
 33 34  1  0  0  0
 34 32  1  0  0  0
  1 32  1  0  0  0
  1  2  1  0  0  0
  2  3  1  0  0  0
  3  4  1  0  0  0
  4  5  1  0  0  0
  5  6  2  0  0  0
  6 18  1  0  0  0
 18 19  2  0  0  0
 18 20  1  0  0  0
 20 22  1  0  0  0
 22 23  2  0  0  0
 23 24  1  0  0  0
 24 25  2  0  0  0
 25 26  1  0  0  0
 26 27  2  0  0  0
 26 28  1  0  0  0
 28 29  1  0  0  0
 29 30  1  0  0  0
 29 31  1  0  0  0
  6  7  1  0  0  0
  7  8  2  0  0  0
  8  9  1  0  0  0
  8 10  1  0  0  0
 10 11  2  0  0  0
 10 12  1  0  0  0
 12 13  1  0  0  0
 13 14  2  0  0  0
 11  1  1  0  0  0
 13  1  1  0  0  0
 11  5  1  0  0  0
 27 22  1  0  0  0
 31 25  1  0  0  0
 34 35  1  0  0  0
  2 15  1  0  0  0
  3 16  1  0  0  0
 20 21  1  0  0  0
 12 17  1  0  0  0
M  END
> <minimizedAffinity>
-9.06898

> <minimizedRMSD>
0.91012

$$$$
P27814


 36 41  0  0  0  0  0  0  0  0999 V2000
   -8.0348    4.1035  -13.0736 N   0  0  0  0  0  0  0  0  0  0  0  0
   -7.1080    4.9935  -13.9325 C   0  0  0  0  0  0  0  0  0  0  0  0
   -6.3006    5.7748  -13.6140 O   0  0  0  0  0  0  0  0  0  0  0  0
   -8.5817    3.4639  -13.5847 H   0  0  0  0  0  0  0  0  0  0  0  0
   -8.1984    5.3802   -9.4997 C   0  0  0  0  0  0  0  0  0  0  0  0
   -8.0328    5.2605  -10.9117 C   0  0  0  0  0  0  0  0  0  0  0  0
   -8.2230    4.0587  -11.6890 C   0  0  0  0  0  0  0  0  0  0  0  0
   -8.5883    2.8190  -11.1241 C   0  0  0  0  0  0  0  0  0  0  0  0
   -8.7540    2.9436   -9.7519 C   0  0  0  0  0  0  0  0  0  0  0  0
   -9.1410    1.9456   -8.8971 C   0  0  0  0  0  0  0  0  0  0  0  0
   -9.2299    2.5094   -7.6448 N   0  0  0  0  0  0  0  0  0  0  0  0
   -9.7137    1.8189   -6.4741 C   0  0  0  0  0  0  0  0  0  0  0  0
   -8.8478    3.8328   -7.6790 C   0  0  0  0  0  0  0  0  0  0  0  0
   -8.5716    4.1343   -8.9900 C   0  0  0  0  0  0  0  0  0  0  0  0
   -6.5866   10.5494   -8.6462 C   0  0  0  0  0  0  0  0  0  0  0  0
   -6.3933    9.1953   -9.1584 N   0  0  0  0  0  0  0  0  0  0  0  0
   -7.4944    8.7795  -10.0415 C   0  0  0  0  0  0  0  0  0  0  0  0
   -8.5555    7.9314   -9.3397 C   0  0  0  0  0  0  0  0  0  0  0  0
   -7.9587    6.6503   -8.7217 C   0  0  0  0  0  0  0  0  0  0  0  0
   -6.4543    6.8120   -8.4391 C   0  0  0  0  0  0  0  0  0  0  0  0
   -6.1331    8.2553   -8.0590 C   0  0  0  0  0  0  0  0  0  0  0  0
   -7.2779    4.7332  -15.3774 C   0  0  0  0  0  0  0  0  0  0  0  0
   -8.4972    4.2963  -15.9060 C   0  0  0  0  0  0  0  0  0  0  0  0
   -8.6476    4.1911  -17.2868 C   0  0  0  0  0  0  0  0  0  0  0  0
  -10.1716    3.7426  -17.9291 Cl  0  0  0  0  0  0  0  0  0  0  0  0
   -7.6108    4.4916  -18.1759 C   0  0  0  0  0  0  0  0  0  0  0  0
   -6.3967    4.9154  -17.6204 C   0  0  0  0  0  0  0  0  0  0  0  0
   -6.2147    5.0446  -16.2456 C   0  0  0  0  0  0  0  0  0  0  0  0
   -4.8902    5.5106  -16.1018 C   0  0  0  0  0  0  0  0  0  0  0  0
   -4.2679    5.6587  -17.2704 N   0  0  0  0  0  0  0  0  0  0  0  0
   -5.1974    5.2983  -18.1795 N   0  0  0  0  0  0  0  0  0  0  0  0
   -4.9313    5.2987  -19.6320 C   0  0  0  0  0  0  0  0  0  0  0  0
   -3.4424    5.2887  -20.0196 C   0  0  0  0  0  0  0  0  0  0  0  0
   -3.4566    6.7747  -20.0344 N   0  0  0  0  0  0  0  0  0  0  0  0
   -4.9255    6.7196  -20.2251 C   0  0  0  0  0  0  0  0  0  0  0  0
   -2.9457    7.1937  -20.8115 H   0  0  0  0  0  0  0  0  0  0  0  0
 15 16  1  0  0  0
 16 17  1  0  0  0
 17 18  1  0  0  0
 18 19  1  0  0  0
 19  5  1  0  0  0
  5  6  2  0  0  0
  6  7  1  0  0  0
  7  1  1  0  0  0
  1  2  1  0  0  0
  2  3  2  0  0  0
  2 22  1  0  0  0
 22 23  2  0  0  0
 23 24  1  0  0  0
 24 25  1  0  0  0
 24 26  2  0  0  0
 26 27  1  0  0  0
 27 28  2  0  0  0
 28 29  1  0  0  0
 29 30  2  0  0  0
 30 31  1  0  0  0
 31 32  1  0  0  0
 32 33  1  0  0  0
 33 34  1  0  0  0
 34 35  1  0  0  0
  7  8  2  0  0  0
  8  9  1  0  0  0
  9 10  2  0  0  0
 10 11  1  0  0  0
 11 12  1  0  0  0
 11 13  1  0  0  0
 13 14  2  0  0  0
 19 20  1  0  0  0
 20 21  1  0  0  0
 21 16  1  0  0  0
 14  5  1  0  0  0
 28 22  1  0  0  0
 35 32  1  0  0  0
 14  9  1  0  0  0
 31 27  1  0  0  0
  1  4  1  0  0  0
 34 36  1  0  0  0
M  END
> <minimizedAffinity>
-9.07999

> <minimizedRMSD>
0.82680

$$$$
P27869


 44 49  0  0  0  0  0  0  0  0999 V2000
   -7.6892    4.4974  -12.5334 N   0  0  0  0  0  0  0  0  0  0  0  0
   -8.3863    5.3046  -13.6543 C   0  0  0  0  0  0  0  0  0  0  0  0
   -9.1600    6.1786  -13.5899 O   0  0  0  0  0  0  0  0  0  0  0  0
   -7.0125    3.8552  -12.8479 H   0  0  0  0  0  0  0  0  0  0  0  0
   -7.9244    4.9135  -14.9975 C   0  0  0  0  0  0  0  0  0  0  0  0
   -8.8385    4.3879  -15.9096 C   0  0  0  0  0  0  0  0  0  0  0  0
   -8.4654    4.2456  -17.2402 C   0  0  0  0  0  0  0  0  0  0  0  0
   -9.6249    3.7124  -18.3829 Cl  0  0  0  0  0  0  0  0  0  0  0  0
   -7.1882    4.5855  -17.6987 C   0  0  0  0  0  0  0  0  0  0  0  0
   -6.2823    5.1190  -16.7706 C   0  0  0  0  0  0  0  0  0  0  0  0
   -6.6334    5.2812  -15.4264 C   0  0  0  0  0  0  0  0  0  0  0  0
   -5.4930    5.8504  -14.8287 C   0  0  0  0  0  0  0  0  0  0  0  0
   -4.5118    6.0843  -15.6966 N   0  0  0  0  0  0  0  0  0  0  0  0
   -4.9890    5.5966  -16.8660 N   0  0  0  0  0  0  0  0  0  0  0  0
   -4.0956    5.5752  -18.0642 C   0  0  0  0  0  0  0  0  0  0  0  0
   -2.7194    5.1586  -17.8129 O   0  0  0  0  0  0  0  0  0  0  0  0
   -4.7688    4.9916  -19.3347 C   0  0  0  0  0  0  0  0  0  0  0  0
   -4.2657    6.1412  -20.0410 N   0  0  0  0  0  0  0  0  0  0  0  0
   -4.2326    6.9270  -18.8349 C   0  0  0  0  0  0  0  0  0  0  0  0
   -2.7193    4.3155  -17.3332 H   0  0  0  0  0  0  0  0  0  0  0  0
   -4.6711    6.5627  -21.3243 C   0  0  0  0  0  0  0  0  0  0  0  0
   -4.7254    5.6531  -22.3898 C   0  0  0  0  0  0  0  0  0  0  0  0
   -5.1256    6.0591  -23.6656 C   0  0  0  0  0  0  0  0  0  0  0  0
   -5.4697    7.3878  -23.8965 C   0  0  0  0  0  0  0  0  0  0  0  0
   -5.4047    8.3091  -22.8540 C   0  0  0  0  0  0  0  0  0  0  0  0
   -5.0027    7.8989  -21.5792 C   0  0  0  0  0  0  0  0  0  0  0  0
   -8.7060    3.3252   -9.1503 C   0  0  0  0  0  0  0  0  0  0  0  0
   -8.4021    3.3746  -10.5314 C   0  0  0  0  0  0  0  0  0  0  0  0
   -7.8648    4.5318  -11.1376 C   0  0  0  0  0  0  0  0  0  0  0  0
   -7.5901    5.6561  -10.3330 C   0  0  0  0  0  0  0  0  0  0  0  0
   -7.8895    5.6015   -8.9686 C   0  0  0  0  0  0  0  0  0  0  0  0
   -8.4106    4.4512   -8.3936 C   0  0  0  0  0  0  0  0  0  0  0  0
   -8.6056    4.4773   -7.0699 F   0  0  0  0  0  0  0  0  0  0  0  0
   -6.8874    6.8034  -10.7559 N   0  0  0  0  0  0  0  0  0  0  0  0
   -7.5400    8.0704  -10.9806 C   0  0  0  0  0  0  0  0  0  0  0  0
   -6.3910    9.0555  -11.0578 C   0  0  0  0  0  0  0  0  0  0  0  0
   -5.2405    8.2289  -11.6113 C   0  0  0  0  0  0  0  0  0  0  0  0
   -5.5366    6.8406  -11.0938 C   0  0  0  0  0  0  0  0  0  0  0  0
   -4.6998    5.9552  -10.9978 O   0  0  0  0  0  0  0  0  0  0  0  0
   -9.3316    2.0714   -8.5775 C   0  0  0  0  0  0  0  0  0  0  0  0
  -10.6540    2.2421   -6.3855 N   0  0  0  0  0  0  0  0  0  0  0  0
   -9.4075    1.8471   -7.0503 C   0  0  0  0  0  0  0  0  0  0  0  0
  -10.5835    2.0466   -5.3869 H   0  0  0  0  0  0  0  0  0  0  0  0
  -11.4322    1.7144   -6.7811 H   0  0  0  0  0  0  0  0  0  0  0  0
 41 42  1  0  0  0
 42 40  1  0  0  0
 40 27  1  0  0  0
 27 28  2  0  0  0
 28 29  1  0  0  0
 29  1  1  0  0  0
  1  2  1  0  0  0
  2  3  2  0  0  0
  2  5  1  0  0  0
  5  6  2  0  0  0
  6  7  1  0  0  0
  7  8  1  0  0  0
  7  9  2  0  0  0
  9 10  1  0  0  0
 10 11  2  0  0  0
 11 12  1  0  0  0
 12 13  2  0  0  0
 13 14  1  0  0  0
 14 15  1  0  0  0
 15 16  1  0  0  0
 15 17  1  0  0  0
 17 18  1  0  0  0
 18 21  1  0  0  0
 21 22  2  0  0  0
 22 23  1  0  0  0
 23 24  2  0  0  0
 24 25  1  0  0  0
 25 26  2  0  0  0
 18 19  1  0  0  0
 29 30  2  0  0  0
 30 34  1  0  0  0
 34 35  1  0  0  0
 35 36  1  0  0  0
 36 37  1  0  0  0
 37 38  1  0  0  0
 38 39  2  0  0  0
 30 31  1  0  0  0
 31 32  2  0  0  0
 32 33  1  0  0  0
 32 27  1  0  0  0
 11  5  1  0  0  0
 19 15  1  0  0  0
 38 34  1  0  0  0
 14 10  1  0  0  0
 26 21  1  0  0  0
 41 43  1  0  0  0
 41 44  1  0  0  0
  1  4  1  0  0  0
 16 20  1  0  0  0
M  END
> <minimizedAffinity>
-9.14098

> <minimizedRMSD>
0.96940

$$$$
P27972


 38 44  0  0  0  0  0  0  0  0999 V2000
   -8.2667    4.8005  -15.4471 C   0  0  0  0  0  0  0  0  0  0  0  0
   -9.1344    4.4713  -16.4809 C   0  0  0  0  0  0  0  0  0  0  0  0
   -8.6426    4.4160  -17.7889 C   0  0  0  0  0  0  0  0  0  0  0  0
   -9.7388    4.1997  -19.0947 Cl  0  0  0  0  0  0  0  0  0  0  0  0
   -7.2870    4.6201  -18.0652 C   0  0  0  0  0  0  0  0  0  0  0  0
   -6.4192    4.8987  -17.0195 C   0  0  0  0  0  0  0  0  0  0  0  0
   -6.9212    5.0017  -15.7309 C   0  0  0  0  0  0  0  0  0  0  0  0
   -5.8479    5.4120  -14.7836 C   0  0  0  0  0  0  0  0  0  0  0  0
   -4.5939    5.4935  -15.6980 C   0  0  0  0  0  0  0  0  0  0  0  0
   -3.5330    4.4797  -15.2210 C   0  0  0  0  0  0  0  0  0  0  0  0
   -2.9236    4.8805  -13.8753 C   0  0  0  0  0  0  0  0  0  0  0  0
   -2.3673    6.2345  -13.8946 N   0  0  0  0  0  0  0  0  0  0  0  0
   -3.3822    7.2244  -14.2947 C   0  0  0  0  0  0  0  0  0  0  0  0
   -3.9754    6.9141  -15.6835 C   0  0  0  0  0  0  0  0  0  0  0  0
   -2.8833    7.0036  -16.6165 O   0  0  0  0  0  0  0  0  0  0  0  0
   -3.2554    6.7433  -17.9588 C   0  0  0  0  0  0  0  0  0  0  0  0
   -2.1511    6.0195  -18.6002 N   0  0  0  0  0  0  0  0  0  0  0  0
   -2.6944    4.7143  -18.9636 C   0  0  0  0  0  0  0  0  0  0  0  0
   -4.1237    5.0278  -19.3319 C   0  0  0  0  0  0  0  0  0  0  0  0
   -4.5660    5.9382  -18.2120 C   0  0  0  0  0  0  0  0  0  0  0  0
   -5.0333    5.1226  -17.0786 N   0  0  0  0  0  0  0  0  0  0  0  0
   -1.5928    6.2661  -14.5576 H   0  0  0  0  0  0  0  0  0  0  0  0
   -1.3714    5.9123  -17.9514 H   0  0  0  0  0  0  0  0  0  0  0  0
   -8.1677    4.1184  -13.0428 N   0  0  0  0  0  0  0  0  0  0  0  0
   -8.7443    5.1006  -14.0815 C   0  0  0  0  0  0  0  0  0  0  0  0
   -9.4108    6.0481  -13.9386 O   0  0  0  0  0  0  0  0  0  0  0  0
   -7.5654    3.4335  -13.4134 H   0  0  0  0  0  0  0  0  0  0  0  0
   -9.4072    5.7344   -6.1514 C   0  0  0  0  0  0  0  0  0  0  0  0
   -8.4022    5.2039   -7.1757 C   0  0  0  0  0  0  0  0  0  0  0  0
   -7.0369    5.0902   -6.4951 C   0  0  0  0  0  0  0  0  0  0  0  0
   -8.3285    6.0917   -8.4408 C   0  0  0  0  0  0  0  0  0  0  0  0
   -8.3996    5.0537   -9.4948 C   0  0  0  0  0  0  0  0  0  0  0  0
   -8.2624    5.1870  -10.8672 C   0  0  0  0  0  0  0  0  0  0  0  0
   -8.3602    4.0419  -11.6653 C   0  0  0  0  0  0  0  0  0  0  0  0
   -8.6000    2.7918  -11.0755 C   0  0  0  0  0  0  0  0  0  0  0  0
   -8.7618    2.6777   -9.6894 C   0  0  0  0  0  0  0  0  0  0  0  0
   -8.6599    3.8221   -8.9253 C   0  0  0  0  0  0  0  0  0  0  0  0
   -8.8100    3.8632   -7.5646 O   0  0  0  0  0  0  0  0  0  0  0  0
 28 29  1  0  0  0
 29 30  1  0  0  0
 29 31  1  0  0  0
 31 32  1  0  0  0
 32 33  2  0  0  0
 33 34  1  0  0  0
 34 24  1  0  0  0
 24 25  1  0  0  0
 25 26  2  0  0  0
 25  1  1  0  0  0
  1  2  2  0  0  0
  2  3  1  0  0  0
  3  4  1  0  0  0
  3  5  2  0  0  0
  5  6  1  0  0  0
  6  7  2  0  0  0
  7  8  1  0  0  0
  9  8  1  0  0  0
  9 10  1  0  0  0
 10 11  1  0  0  0
 11 12  1  0  0  0
 12 13  1  0  0  0
 14 13  1  0  0  0
 14 15  1  0  0  0
 15 16  1  0  0  0
 16 17  1  0  0  0
 17 18  1  0  0  0
 18 19  1  0  0  0
 20 19  1  0  0  0
 20 21  1  0  0  0
 34 35  2  0  0  0
 35 36  1  0  0  0
 36 37  2  0  0  0
 37 38  1  0  0  0
 38 29  1  0  0  0
 37 32  1  0  0  0
  7  1  1  0  0  0
 14  9  1  0  0  0
 20 16  1  0  0  0
 21  6  1  0  0  0
 21  9  1  0  0  0
 24 27  1  0  0  0
 12 22  1  0  0  0
 17 23  1  0  0  0
M  END
> <minimizedAffinity>
-10.67494

> <minimizedRMSD>
0.95365

$$$$
P27983


 33 37  0  0  0  0  0  0  0  0999 V2000
   -6.9234    4.8968  -15.2281 C   0  0  0  0  0  0  0  0  0  0  0  0
   -8.1441    4.4999  -15.7583 C   0  0  0  0  0  0  0  0  0  0  0  0
   -8.3050    4.5020  -17.1348 C   0  0  0  0  0  0  0  0  0  0  0  0
   -9.8578    4.1517  -17.7560 Cl  0  0  0  0  0  0  0  0  0  0  0  0
   -7.2833    4.8947  -18.0127 C   0  0  0  0  0  0  0  0  0  0  0  0
   -6.0381    5.2488  -17.4688 C   0  0  0  0  0  0  0  0  0  0  0  0
   -5.8518    5.2169  -16.0801 C   0  0  0  0  0  0  0  0  0  0  0  0
   -4.5066    5.5576  -15.8788 C   0  0  0  0  0  0  0  0  0  0  0  0
   -3.8617    5.7690  -17.0182 N   0  0  0  0  0  0  0  0  0  0  0  0
   -4.8254    5.6994  -17.9781 N   0  0  0  0  0  0  0  0  0  0  0  0
   -4.4938    6.4137  -19.2237 C   0  0  0  0  0  0  0  0  0  0  0  0
   -5.5553    7.3289  -19.8135 C   0  0  0  0  0  0  0  0  0  0  0  0
   -4.9499    7.0414  -21.1469 N   0  0  0  0  0  0  0  0  0  0  0  0
   -4.4074    5.7835  -20.6001 C   0  0  0  0  0  0  0  0  0  0  0  0
   -5.3645    4.7576  -20.9269 N   0  0  0  0  0  0  0  0  0  0  0  0
   -4.2401    7.7129  -21.4396 H   0  0  0  0  0  0  0  0  0  0  0  0
   -6.3053    5.0911  -20.7171 H   0  0  0  0  0  0  0  0  0  0  0  0
   -5.1691    3.9221  -20.3753 H   0  0  0  0  0  0  0  0  0  0  0  0
   -7.7832    4.3337  -12.9481 N   0  0  0  0  0  0  0  0  0  0  0  0
   -6.7867    5.1626  -13.7865 C   0  0  0  0  0  0  0  0  0  0  0  0
   -5.9771    5.9353  -13.4543 O   0  0  0  0  0  0  0  0  0  0  0  0
   -8.3183    3.6879  -13.4637 H   0  0  0  0  0  0  0  0  0  0  0  0
   -9.2506    8.7370  -10.2785 C   0  0  0  0  0  0  0  0  0  0  0  0
   -8.1968    7.6396  -10.1200 C   0  0  0  0  0  0  0  0  0  0  0  0
   -6.7954    8.2624  -10.1019 C   0  0  0  0  0  0  0  0  0  0  0  0
   -8.4601    6.7917   -8.8603 C   0  0  0  0  0  0  0  0  0  0  0  0
   -8.3407    5.4296   -9.4284 C   0  0  0  0  0  0  0  0  0  0  0  0
   -8.3721    4.2153   -8.7662 C   0  0  0  0  0  0  0  0  0  0  0  0
   -8.2650    3.0519   -9.5238 C   0  0  0  0  0  0  0  0  0  0  0  0
   -8.1092    3.1193  -10.9178 C   0  0  0  0  0  0  0  0  0  0  0  0
   -8.0491    4.3507  -11.5777 C   0  0  0  0  0  0  0  0  0  0  0  0
   -8.2017    5.4954  -10.8098 C   0  0  0  0  0  0  0  0  0  0  0  0
   -8.2801    6.7788  -11.2832 O   0  0  0  0  0  0  0  0  0  0  0  0
 23 24  1  0  0  0
 24 25  1  0  0  0
 24 26  1  0  0  0
 26 27  1  0  0  0
 27 28  2  0  0  0
 28 29  1  0  0  0
 29 30  2  0  0  0
 30 31  1  0  0  0
 31 19  1  0  0  0
 19 20  1  0  0  0
 20 21  2  0  0  0
 20  1  1  0  0  0
  1  2  2  0  0  0
  2  3  1  0  0  0
  3  4  1  0  0  0
  3  5  2  0  0  0
  5  6  1  0  0  0
  6  7  2  0  0  0
  7  8  1  0  0  0
  8  9  2  0  0  0
  9 10  1  0  0  0
 11 10  1  0  0  0
 11 12  1  0  0  0
 12 13  1  0  0  0
 13 14  1  0  0  0
 14 15  1  0  0  0
 31 32  2  0  0  0
 32 33  1  0  0  0
 33 24  1  0  0  0
 32 27  1  0  0  0
  7  1  1  0  0  0
 14 11  1  0  0  0
 10  6  1  0  0  0
 19 22  1  0  0  0
 13 16  1  0  0  0
 15 17  1  0  0  0
 15 18  1  0  0  0
M  END
> <minimizedAffinity>
-8.41774

> <minimizedRMSD>
0.40271

$$$$
P27995


 32 36  0  0  0  0  0  0  0  0999 V2000
   -7.0923    4.3262  -13.8227 C   0  0  0  0  0  0  0  0  0  0  0  0
   -6.1276    5.3319  -13.1796 C   0  0  0  0  0  0  0  0  0  0  0  0
   -6.5566    3.0205  -13.6493 O   0  0  0  0  0  0  0  0  0  0  0  0
   -6.5050    2.8153  -12.7027 H   0  0  0  0  0  0  0  0  0  0  0  0
   -7.1305    4.5480  -15.3400 C   0  0  0  0  0  0  0  0  0  0  0  0
   -8.3069    4.4681  -16.1170 C   0  0  0  0  0  0  0  0  0  0  0  0
   -8.2842    4.6181  -17.5085 C   0  0  0  0  0  0  0  0  0  0  0  0
   -9.7472    4.3794  -18.3963 Cl  0  0  0  0  0  0  0  0  0  0  0  0
   -7.1146    4.9737  -18.1945 C   0  0  0  0  0  0  0  0  0  0  0  0
   -5.9361    5.0740  -17.4417 C   0  0  0  0  0  0  0  0  0  0  0  0
   -5.9321    4.7769  -16.0742 C   0  0  0  0  0  0  0  0  0  0  0  0
   -4.5599    4.7124  -15.7417 C   0  0  0  0  0  0  0  0  0  0  0  0
   -3.7645    5.0752  -16.7351 N   0  0  0  0  0  0  0  0  0  0  0  0
   -4.6209    5.4029  -17.7254 N   0  0  0  0  0  0  0  0  0  0  0  0
   -4.0213    6.1447  -18.8341 C   0  0  0  0  0  0  0  0  0  0  0  0
   -4.8957    6.6437  -19.9787 C   0  0  0  0  0  0  0  0  0  0  0  0
   -3.7238    6.3763  -20.8743 N   0  0  0  0  0  0  0  0  0  0  0  0
   -3.3407    5.3020  -19.8960 C   0  0  0  0  0  0  0  0  0  0  0  0
   -3.0576    7.1450  -20.9502 H   0  0  0  0  0  0  0  0  0  0  0  0
   -8.4220    4.3631  -13.2007 N   0  0  0  0  0  0  0  0  0  0  0  0
   -9.2405    4.4766  -13.7359 H   0  0  0  0  0  0  0  0  0  0  0  0
   -9.4459    8.4804   -9.9598 C   0  0  0  0  0  0  0  0  0  0  0  0
   -8.3630    7.4058  -10.0773 C   0  0  0  0  0  0  0  0  0  0  0  0
   -6.9964    8.0829  -10.2490 C   0  0  0  0  0  0  0  0  0  0  0  0
   -8.3724    6.4644   -8.8559 C   0  0  0  0  0  0  0  0  0  0  0  0
   -8.3655    5.1490   -9.5327 C   0  0  0  0  0  0  0  0  0  0  0  0
   -8.2528    3.8930   -8.9662 C   0  0  0  0  0  0  0  0  0  0  0  0
   -8.2489    2.7893   -9.8143 C   0  0  0  0  0  0  0  0  0  0  0  0
   -8.3475    2.9570  -11.2053 C   0  0  0  0  0  0  0  0  0  0  0  0
   -8.4674    4.2271  -11.7904 C   0  0  0  0  0  0  0  0  0  0  0  0
   -8.4907    5.3089  -10.9071 C   0  0  0  0  0  0  0  0  0  0  0  0
   -8.6259    6.6278  -11.2783 O   0  0  0  0  0  0  0  0  0  0  0  0
 22 23  1  0  0  0
 23 24  1  0  0  0
 23 25  1  0  0  0
 25 26  1  0  0  0
 26 27  2  0  0  0
 27 28  1  0  0  0
 28 29  2  0  0  0
 29 30  1  0  0  0
 30 20  1  0  0  0
 20  1  1  0  0  0
  1  2  1  0  0  0
  1  3  1  0  0  0
  1  5  1  0  0  0
  5  6  2  0  0  0
  6  7  1  0  0  0
  7  8  1  0  0  0
  7  9  2  0  0  0
  9 10  1  0  0  0
 10 11  2  0  0  0
 11 12  1  0  0  0
 12 13  2  0  0  0
 13 14  1  0  0  0
 14 15  1  0  0  0
 15 16  1  0  0  0
 16 17  1  0  0  0
 17 18  1  0  0  0
 30 31  2  0  0  0
 31 32  1  0  0  0
 32 23  1  0  0  0
 31 26  1  0  0  0
 11  5  1  0  0  0
 18 15  1  0  0  0
 14 10  1  0  0  0
 20 21  1  0  0  0
  3  4  1  0  0  0
 17 19  1  0  0  0
M  END
> <minimizedAffinity>
-8.25820

> <minimizedRMSD>
0.30094

$$$$
P28005


 39 43  0  0  0  0  0  0  0  0999 V2000
   -6.9474    4.9198  -13.9533 C   0  0  0  0  0  0  0  0  0  0  0  0
   -5.8158    5.0085  -13.6625 O   0  0  0  0  0  0  0  0  0  0  0  0
   -8.2275    5.1118  -13.0912 N   0  0  0  0  0  0  0  0  0  0  0  0
   -9.0713    4.9046  -13.5541 H   0  0  0  0  0  0  0  0  0  0  0  0
   -8.3748    5.5320  -11.7621 C   0  0  0  0  0  0  0  0  0  0  0  0
   -8.1254    4.7069  -10.6476 C   0  0  0  0  0  0  0  0  0  0  0  0
   -8.2336    5.2089   -9.3034 C   0  0  0  0  0  0  0  0  0  0  0  0
   -8.5800    6.5623   -9.1419 C   0  0  0  0  0  0  0  0  0  0  0  0
   -8.7045    7.1458   -7.9198 O   0  0  0  0  0  0  0  0  0  0  0  0
   -8.8607    7.3508  -10.2380 C   0  0  0  0  0  0  0  0  0  0  0  0
   -8.7807    6.8357  -11.5120 C   0  0  0  0  0  0  0  0  0  0  0  0
   -9.2474    7.7184  -12.4581 O   0  0  0  0  0  0  0  0  0  0  0  0
   -9.3124    9.0028  -11.7966 C   0  0  0  0  0  0  0  0  0  0  0  0
   -8.0764    9.8150  -12.2041 C   0  0  0  0  0  0  0  0  0  0  0  0
  -10.5800    9.7083  -12.2808 C   0  0  0  0  0  0  0  0  0  0  0  0
   -9.3608    8.7456  -10.2826 C   0  0  0  0  0  0  0  0  0  0  0  0
   -8.5250    6.6516   -7.1442 H   0  0  0  0  0  0  0  0  0  0  0  0
   -8.0365    4.2351   -8.1241 C   0  0  0  0  0  0  0  0  0  0  0  0
   -9.2020    4.0338   -7.2260 N   0  0  0  0  0  0  0  0  0  0  0  0
   -8.8765    4.2557   -5.8183 C   0  0  0  0  0  0  0  0  0  0  0  0
   -9.7604    2.6928   -7.3288 C   0  0  0  0  0  0  0  0  0  0  0  0
   -5.0833    5.1916  -18.1966 N   0  0  0  0  0  0  0  0  0  0  0  0
   -4.0824    5.2221  -17.2911 N   0  0  0  0  0  0  0  0  0  0  0  0
   -4.7054    5.0694  -16.1245 C   0  0  0  0  0  0  0  0  0  0  0  0
   -6.0913    4.8405  -16.2695 C   0  0  0  0  0  0  0  0  0  0  0  0
   -7.1763    4.6322  -15.3874 C   0  0  0  0  0  0  0  0  0  0  0  0
   -8.4566    4.4475  -15.9189 C   0  0  0  0  0  0  0  0  0  0  0  0
   -8.6467    4.5028  -17.3017 C   0  0  0  0  0  0  0  0  0  0  0  0
  -10.2372    4.4098  -17.9494 Cl  0  0  0  0  0  0  0  0  0  0  0  0
   -7.5900    4.7313  -18.1909 C   0  0  0  0  0  0  0  0  0  0  0  0
   -6.3135    4.9034  -17.6431 C   0  0  0  0  0  0  0  0  0  0  0  0
   -5.1800    8.0730  -18.9556 C   0  0  0  0  0  0  0  0  0  0  0  0
   -4.9787    6.9844  -20.0030 C   0  0  0  0  0  0  0  0  0  0  0  0
   -4.8726    5.4873  -19.6282 C   0  0  0  0  0  0  0  0  0  0  0  0
   -3.4037    5.5697  -20.0483 C   0  0  0  0  0  0  0  0  0  0  0  0
   -3.5709    6.9688  -20.4799 N   0  0  0  0  0  0  0  0  0  0  0  0
   -3.5255    7.1170  -21.9215 C   0  0  0  0  0  0  0  0  0  0  0  0
   -2.2981    6.6060  -22.4293 O   0  0  0  0  0  0  0  0  0  0  0  0
   -1.5577    7.0974  -22.0404 H   0  0  0  0  0  0  0  0  0  0  0  0
 33 32  1  0  0  0
 33 34  1  0  0  0
 34 22  1  0  0  0
 22 23  1  0  0  0
 23 24  2  0  0  0
 24 25  1  0  0  0
 25 26  2  0  0  0
 26  1  1  0  0  0
  1  2  2  0  0  0
  1  3  1  0  0  0
  3  5  1  0  0  0
  5  6  2  0  0  0
  6  7  1  0  0  0
  7 18  1  0  0  0
 18 19  1  0  0  0
 19 20  1  0  0  0
 19 21  1  0  0  0
  7  8  2  0  0  0
  8  9  1  0  0  0
  8 10  1  0  0  0
 10 11  2  0  0  0
 11 12  1  0  0  0
 12 13  1  0  0  0
 13 14  1  0  0  0
 13 15  1  0  0  0
 13 16  1  0  0  0
 26 27  1  0  0  0
 27 28  2  0  0  0
 28 29  1  0  0  0
 28 30  1  0  0  0
 30 31  2  0  0  0
 34 35  1  0  0  0
 35 36  1  0  0  0
 36 37  1  0  0  0
 37 38  1  0  0  0
 36 33  1  0  0  0
 31 22  1  0  0  0
 31 25  1  0  0  0
 11  5  1  0  0  0
 16 10  1  0  0  0
  3  4  1  0  0  0
  9 17  1  0  0  0
 38 39  1  0  0  0
M  END
> <minimizedAffinity>
-8.16532

> <minimizedRMSD>
1.20763

$$$$
P28028


 34 36  0  0  0  0  0  0  0  0999 V2000
   -8.1435    4.3527  -13.4350 N   0  0  0  0  0  0  0  0  0  0  0  0
   -7.2965    5.2011  -14.4175 C   0  0  0  0  0  0  0  0  0  0  0  0
   -6.5171    6.0473  -14.2103 O   0  0  0  0  0  0  0  0  0  0  0  0
   -8.6771    3.6420  -13.8585 H   0  0  0  0  0  0  0  0  0  0  0  0
   -6.8060    8.0716  -10.5646 C   0  0  0  0  0  0  0  0  0  0  0  0
   -8.3014    7.7074  -10.5838 C   0  0  0  0  0  0  0  0  0  0  0  0
   -9.1239    8.9905  -10.6751 C   0  0  0  0  0  0  0  0  0  0  0  0
   -8.7244    6.9047   -9.3509 C   0  0  0  0  0  0  0  0  0  0  0  0
   -8.5193    5.5264   -9.8649 C   0  0  0  0  0  0  0  0  0  0  0  0
   -8.4448    4.3263   -9.1638 C   0  0  0  0  0  0  0  0  0  0  0  0
   -8.2813    3.1679   -9.9363 C   0  0  0  0  0  0  0  0  0  0  0  0
   -8.1978    3.2227  -11.3396 C   0  0  0  0  0  0  0  0  0  0  0  0
   -8.2736    4.4328  -12.0386 C   0  0  0  0  0  0  0  0  0  0  0  0
   -8.4397    5.5781  -11.2704 C   0  0  0  0  0  0  0  0  0  0  0  0
   -8.5487    6.8698  -11.7416 O   0  0  0  0  0  0  0  0  0  0  0  0
   -8.5724    4.1849   -7.6637 C   0  0  0  0  0  0  0  0  0  0  0  0
   -7.4194    4.7716   -6.8381 C   0  0  0  0  0  0  0  0  0  0  0  0
   -7.2657    4.1353   -5.5240 N   0  0  0  0  0  0  0  0  0  0  0  0
   -8.1115    4.2834   -4.9735 H   0  0  0  0  0  0  0  0  0  0  0  0
   -6.4679    4.5457   -5.0387 H   0  0  0  0  0  0  0  0  0  0  0  0
   -7.5319    4.7975  -15.8407 C   0  0  0  0  0  0  0  0  0  0  0  0
   -8.8300    4.4462  -16.2251 C   0  0  0  0  0  0  0  0  0  0  0  0
   -9.1271    4.2604  -17.5727 C   0  0  0  0  0  0  0  0  0  0  0  0
  -10.7379    3.9692  -18.0820 Cl  0  0  0  0  0  0  0  0  0  0  0  0
   -8.1476    4.4142  -18.5416 C   0  0  0  0  0  0  0  0  0  0  0  0
   -6.8576    4.7949  -18.1781 C   0  0  0  0  0  0  0  0  0  0  0  0
   -5.8723    4.8753  -19.1806 N   0  0  0  0  0  0  0  0  0  0  0  0
   -6.5154    4.9211  -16.8119 C   0  0  0  0  0  0  0  0  0  0  0  0
   -6.1254    4.7856  -20.1278 H   0  0  0  0  0  0  0  0  0  0  0  0
   -4.9304    5.0211  -18.9344 H   0  0  0  0  0  0  0  0  0  0  0  0
   -5.0721    5.1351  -16.4259 C   0  0  0  0  0  0  0  0  0  0  0  0
   -4.6410    6.5135  -16.6737 N   0  0  0  0  0  0  0  0  0  0  0  0
   -4.7248    6.7223  -17.6686 H   0  0  0  0  0  0  0  0  0  0  0  0
   -3.6692    6.6231  -16.3840 H   0  0  0  0  0  0  0  0  0  0  0  0
  5  6  1  0  0  0
  6  7  1  0  0  0
  6  8  1  0  0  0
  8  9  1  0  0  0
  9 10  2  0  0  0
 10 16  1  0  0  0
 16 17  1  0  0  0
 17 18  1  0  0  0
 10 11  1  0  0  0
 11 12  2  0  0  0
 12 13  1  0  0  0
 13  1  1  0  0  0
  1  2  1  0  0  0
  2  3  2  0  0  0
  2 21  1  0  0  0
 21 22  2  0  0  0
 22 23  1  0  0  0
 23 24  1  0  0  0
 23 25  2  0  0  0
 25 26  1  0  0  0
 26 27  1  0  0  0
 26 28  2  0  0  0
 28 31  1  0  0  0
 31 32  1  0  0  0
 13 14  2  0  0  0
 14 15  1  0  0  0
 15  6  1  0  0  0
 14  9  1  0  0  0
 28 21  1  0  0  0
 18 19  1  0  0  0
 18 20  1  0  0  0
  1  4  1  0  0  0
 27 29  1  0  0  0
 27 30  1  0  0  0
 32 33  1  0  0  0
 32 34  1  0  0  0
M  END
> <minimizedAffinity>
-7.71058

> <minimizedRMSD>
0.84302

$$$$
P28058


 35 40  0  0  0  0  0  0  0  0999 V2000
   -7.5729    4.1818  -13.2881 N   0  0  0  0  0  0  0  0  0  0  0  0
   -6.8088    5.0230  -14.3285 C   0  0  0  0  0  0  0  0  0  0  0  0
   -5.9858    5.8371  -14.1855 O   0  0  0  0  0  0  0  0  0  0  0  0
   -8.2819    3.6096  -13.6611 H   0  0  0  0  0  0  0  0  0  0  0  0
   -6.8817    8.3755  -10.7162 C   0  0  0  0  0  0  0  0  0  0  0  0
   -8.1408    7.5072  -10.5614 C   0  0  0  0  0  0  0  0  0  0  0  0
   -9.3632    8.4131  -10.6711 C   0  0  0  0  0  0  0  0  0  0  0  0
   -8.1515    6.6783   -9.2849 C   0  0  0  0  0  0  0  0  0  0  0  0
   -7.2649    5.4816   -9.6227 C   0  0  0  0  0  0  0  0  0  0  0  0
   -7.5490    4.1528   -8.9015 C   0  0  0  0  0  0  0  0  0  0  0  0
   -8.4381    4.1809   -7.6538 C   0  0  0  0  0  0  0  0  0  0  0  0
   -8.8576    2.7960   -7.5056 N   0  0  0  0  0  0  0  0  0  0  0  0
   -9.1460    2.3268   -8.8555 C   0  0  0  0  0  0  0  0  0  0  0  0
   -8.0595    2.9585   -9.7232 C   0  0  0  0  0  0  0  0  0  0  0  0
   -8.5035    3.2948  -11.1442 C   0  0  0  0  0  0  0  0  0  0  0  0
   -7.4168    4.0952  -11.8408 C   0  0  0  0  0  0  0  0  0  0  0  0
   -7.2301    5.4640  -11.1620 C   0  0  0  0  0  0  0  0  0  0  0  0
   -8.1828    6.4787  -11.5712 O   0  0  0  0  0  0  0  0  0  0  0  0
   -9.6924    2.7374   -6.9225 H   0  0  0  0  0  0  0  0  0  0  0  0
   -7.1228    4.6447  -15.7446 C   0  0  0  0  0  0  0  0  0  0  0  0
   -8.4016    4.2542  -16.1728 C   0  0  0  0  0  0  0  0  0  0  0  0
   -8.6483    4.0387  -17.5323 C   0  0  0  0  0  0  0  0  0  0  0  0
  -10.2354    3.6645  -18.0834 Cl  0  0  0  0  0  0  0  0  0  0  0  0
   -7.6537    4.1834  -18.5041 C   0  0  0  0  0  0  0  0  0  0  0  0
   -6.3809    4.5598  -18.0715 C   0  0  0  0  0  0  0  0  0  0  0  0
   -6.0787    4.7935  -16.7031 C   0  0  0  0  0  0  0  0  0  0  0  0
   -4.6789    5.1862  -16.5714 C   0  0  0  0  0  0  0  0  0  0  0  0
   -4.1593    5.2282  -17.8040 N   0  0  0  0  0  0  0  0  0  0  0  0
   -3.0215    5.5958  -18.1806 O   0  0  0  0  0  0  0  0  0  0  0  0
   -5.2022    4.8281  -18.7484 N   0  0  0  0  0  0  0  0  0  0  0  0
   -5.0815    4.8206  -20.2206 C   0  0  0  0  0  0  0  0  0  0  0  0
   -4.7633    6.2033  -20.8103 C   0  0  0  0  0  0  0  0  0  0  0  0
   -3.7339    5.5765  -21.6612 N   0  0  0  0  0  0  0  0  0  0  0  0
   -3.7170    4.3902  -20.7822 C   0  0  0  0  0  0  0  0  0  0  0  0
   -2.8507    6.0860  -21.6880 H   0  0  0  0  0  0  0  0  0  0  0  0
  5  6  1  0  0  0
  6  7  1  0  0  0
  6  8  1  0  0  0
  9  8  1  0  0  0
  9 10  1  0  0  0
 10 11  1  0  0  0
 11 12  1  0  0  0
 12 13  1  0  0  0
 14 13  1  0  0  0
 14 15  1  0  0  0
 15 16  1  0  0  0
 16  1  1  0  0  0
  1  2  1  0  0  0
  2  3  2  0  0  0
  2 20  1  0  0  0
 20 21  2  0  0  0
 21 22  1  0  0  0
 22 23  1  0  0  0
 22 24  2  0  0  0
 24 25  1  0  0  0
 25 26  2  0  0  0
 26 27  1  0  0  0
 27 28  2  0  0  0
 28 29  1  0  0  0
 28 30  1  0  0  0
 30 31  1  0  0  0
 31 32  1  0  0  0
 32 33  1  0  0  0
 33 34  1  0  0  0
 16 17  1  0  0  0
 17 18  1  0  0  0
 18  6  1  0  0  0
 17  9  1  0  0  0
 14 10  1  0  0  0
 26 20  1  0  0  0
 34 31  1  0  0  0
 30 25  1  0  0  0
 12 19  1  0  0  0
  1  4  1  0  0  0
 33 35  1  0  0  0
M  CHG 1  28   1
M  CHG 1  29  -1
M  END
> <minimizedAffinity>
-9.22861

> <minimizedRMSD>
0.46626

$$$$
P28081


 38 44  0  0  0  0  0  0  0  0999 V2000
   -8.1738    4.0325  -12.4933 N   0  0  0  0  0  0  0  0  0  0  0  0
   -7.0884    4.7869  -13.2982 C   0  0  0  0  0  0  0  0  0  0  0  0
   -6.1915    5.4407  -12.9327 O   0  0  0  0  0  0  0  0  0  0  0  0
   -8.7832    3.4832  -13.0375 H   0  0  0  0  0  0  0  0  0  0  0  0
   -7.2510    4.6360  -14.7512 C   0  0  0  0  0  0  0  0  0  0  0  0
   -8.5217    4.4640  -15.3459 C   0  0  0  0  0  0  0  0  0  0  0  0
   -8.6668    4.4843  -16.7327 C   0  0  0  0  0  0  0  0  0  0  0  0
  -10.2154    4.4448  -17.4829 Cl  0  0  0  0  0  0  0  0  0  0  0  0
   -7.5452    4.6272  -17.5334 C   0  0  0  0  0  0  0  0  0  0  0  0
   -6.3255    4.8188  -16.9259 C   0  0  0  0  0  0  0  0  0  0  0  0
   -6.1251    4.8312  -15.5695 C   0  0  0  0  0  0  0  0  0  0  0  0
   -4.7339    5.0669  -15.4481 C   0  0  0  0  0  0  0  0  0  0  0  0
   -4.1161    5.1799  -16.6359 N   0  0  0  0  0  0  0  0  0  0  0  0
   -5.1242    5.0313  -17.5173 N   0  0  0  0  0  0  0  0  0  0  0  0
   -5.0933    5.2003  -18.9842 C   0  0  0  0  0  0  0  0  0  0  0  0
   -4.8441    6.6947  -19.3369 C   0  0  0  0  0  0  0  0  0  0  0  0
   -3.8979    6.2543  -20.3920 N   0  0  0  0  0  0  0  0  0  0  0  0
   -3.6818    5.0201  -19.5908 C   0  0  0  0  0  0  0  0  0  0  0  0
   -6.4024    4.5184  -19.6634 C   0  0  0  0  0  0  0  0  0  0  0  0
   -6.5428    3.9733  -20.7591 O   0  0  0  0  0  0  0  0  0  0  0  0
   -7.5583    4.5176  -18.9077 N   0  0  0  0  0  0  0  0  0  0  0  0
   -3.0722    6.8440  -20.4961 H   0  0  0  0  0  0  0  0  0  0  0  0
   -8.4247    4.4357  -19.3679 H   0  0  0  0  0  0  0  0  0  0  0  0
   -9.9742    1.8156   -5.8510 C   0  0  0  0  0  0  0  0  0  0  0  0
   -9.5254    2.4639   -7.0592 N   0  0  0  0  0  0  0  0  0  0  0  0
   -9.4113    1.8736   -8.3042 C   0  0  0  0  0  0  0  0  0  0  0  0
   -8.9939    2.8531   -9.1712 C   0  0  0  0  0  0  0  0  0  0  0  0
   -8.7918    2.7500  -10.5515 C   0  0  0  0  0  0  0  0  0  0  0  0
   -8.4296    4.0040  -11.1189 C   0  0  0  0  0  0  0  0  0  0  0  0
   -8.3349    5.1959  -10.3266 C   0  0  0  0  0  0  0  0  0  0  0  0
   -8.5072    5.2719   -8.9410 C   0  0  0  0  0  0  0  0  0  0  0  0
   -8.8417    4.0476   -8.4124 C   0  0  0  0  0  0  0  0  0  0  0  0
   -9.1576    3.7897   -7.1086 C   0  0  0  0  0  0  0  0  0  0  0  0
   -8.4042    6.6542   -8.4428 C   0  0  0  0  0  0  0  0  0  0  0  0
   -7.9240    7.3471   -9.7314 C   0  0  0  0  0  0  0  0  0  0  0  0
   -6.4203    7.6475   -9.6913 C   0  0  0  0  0  0  0  0  0  0  0  0
   -8.7054    8.6376   -9.9852 C   0  0  0  0  0  0  0  0  0  0  0  0
   -8.1705    6.4628  -10.8565 O   0  0  0  0  0  0  0  0  0  0  0  0
 24 25  1  0  0  0
 25 26  1  0  0  0
 26 27  2  0  0  0
 27 28  1  0  0  0
 28 29  2  0  0  0
 29  1  1  0  0  0
  1  2  1  0  0  0
  2  3  2  0  0  0
  2  5  1  0  0  0
  5  6  2  0  0  0
  6  7  1  0  0  0
  7  8  1  0  0  0
  7  9  2  0  0  0
  9 10  1  0  0  0
 10 11  2  0  0  0
 11 12  1  0  0  0
 12 13  2  0  0  0
 13 14  1  0  0  0
 14 15  1  0  0  0
 15 16  1  0  0  0
 16 17  1  0  0  0
 17 18  1  0  0  0
 15 19  1  0  0  0
 19 20  2  0  0  0
 19 21  1  0  0  0
 29 30  1  0  0  0
 30 31  2  0  0  0
 31 32  1  0  0  0
 32 33  2  0  0  0
 31 34  1  0  0  0
 34 35  1  0  0  0
 35 36  1  0  0  0
 35 37  1  0  0  0
 35 38  1  0  0  0
 33 25  1  0  0  0
 32 27  1  0  0  0
 11  5  1  0  0  0
 18 15  1  0  0  0
 38 30  1  0  0  0
 21  9  1  0  0  0
 14 10  1  0  0  0
  1  4  1  0  0  0
 17 22  1  0  0  0
 21 23  1  0  0  0
M  END
> <minimizedAffinity>
-8.42365

> <minimizedRMSD>
0.55446

$$$$
P28082


 36 41  0  0  0  0  0  0  0  0999 V2000
   -7.1309    5.3530  -13.3713 N   0  0  0  0  0  0  0  0  0  0  0  0
   -8.3475    5.3113  -14.2981 C   0  0  0  0  0  0  0  0  0  0  0  0
   -9.4630    5.5717  -14.0915 O   0  0  0  0  0  0  0  0  0  0  0  0
   -6.2719    5.1558  -13.8100 H   0  0  0  0  0  0  0  0  0  0  0  0
   -3.8968    2.0002  -11.2631 C   0  0  0  0  0  0  0  0  0  0  0  0
   -5.3234    2.5370  -11.3221 C   0  0  0  0  0  0  0  0  0  0  0  0
   -6.2010    1.6340  -12.1931 C   0  0  0  0  0  0  0  0  0  0  0  0
   -5.9244    2.7175   -9.9195 C   0  0  0  0  0  0  0  0  0  0  0  0
   -6.7877    3.8975  -10.1455 C   0  0  0  0  0  0  0  0  0  0  0  0
   -6.3831    4.4722  -11.2842 C   0  0  0  0  0  0  0  0  0  0  0  0
   -5.3130    3.8480  -11.9321 O   0  0  0  0  0  0  0  0  0  0  0  0
   -7.0366    5.6352  -11.9542 C   0  0  0  0  0  0  0  0  0  0  0  0
   -8.4202    5.8901  -11.3501 C   0  0  0  0  0  0  0  0  0  0  0  0
   -8.3976    5.7501   -9.8349 C   0  0  0  0  0  0  0  0  0  0  0  0
   -7.5273    6.6900   -9.3664 F   0  0  0  0  0  0  0  0  0  0  0  0
   -7.9939    4.3339   -9.3649 C   0  0  0  0  0  0  0  0  0  0  0  0
   -9.1276    3.3110   -9.6047 C   0  0  0  0  0  0  0  0  0  0  0  0
   -9.1656    2.4129   -8.3785 C   0  0  0  0  0  0  0  0  0  0  0  0
   -8.9416    3.3680   -7.2240 C   0  0  0  0  0  0  0  0  0  0  0  0
   -7.9582    4.3498   -7.8220 C   0  0  0  0  0  0  0  0  0  0  0  0
   -7.2922    5.1081   -7.1220 O   0  0  0  0  0  0  0  0  0  0  0  0
   -8.0126    4.8682  -15.6717 C   0  0  0  0  0  0  0  0  0  0  0  0
   -9.0931    4.4964  -16.4811 C   0  0  0  0  0  0  0  0  0  0  0  0
   -8.9499    4.3798  -17.8512 C   0  0  0  0  0  0  0  0  0  0  0  0
  -10.3418    4.1642  -18.8171 Cl  0  0  0  0  0  0  0  0  0  0  0  0
   -7.7158    4.5469  -18.4634 C   0  0  0  0  0  0  0  0  0  0  0  0
   -6.6225    4.8441  -17.6385 C   0  0  0  0  0  0  0  0  0  0  0  0
   -6.7374    5.0087  -16.2556 C   0  0  0  0  0  0  0  0  0  0  0  0
   -5.4301    5.3601  -15.8498 C   0  0  0  0  0  0  0  0  0  0  0  0
   -4.5524    5.3758  -16.8594 N   0  0  0  0  0  0  0  0  0  0  0  0
   -5.3035    5.0890  -17.9396 N   0  0  0  0  0  0  0  0  0  0  0  0
   -4.8126    5.0851  -19.3248 C   0  0  0  0  0  0  0  0  0  0  0  0
   -4.5153    6.4988  -19.8583 C   0  0  0  0  0  0  0  0  0  0  0  0
   -3.3992    5.8850  -20.6445 N   0  0  0  0  0  0  0  0  0  0  0  0
   -3.3079    4.8705  -19.5391 C   0  0  0  0  0  0  0  0  0  0  0  0
   -2.5752    6.4761  -20.7542 H   0  0  0  0  0  0  0  0  0  0  0  0
  5  6  1  0  0  0
  6  7  1  0  0  0
  6  8  1  0  0  0
  8  9  1  0  0  0
  9 10  2  0  0  0
 10 11  1  0  0  0
 10 12  1  0  0  0
 12  1  1  0  0  0
  1  2  1  0  0  0
  2  3  2  0  0  0
  2 22  1  0  0  0
 22 23  2  0  0  0
 23 24  1  0  0  0
 24 25  1  0  0  0
 24 26  2  0  0  0
 26 27  1  0  0  0
 27 28  2  0  0  0
 28 29  1  0  0  0
 29 30  2  0  0  0
 30 31  1  0  0  0
 31 32  1  0  0  0
 32 33  1  0  0  0
 33 34  1  0  0  0
 34 35  1  0  0  0
 12 13  1  0  0  0
 13 14  1  0  0  0
 14 15  1  0  0  0
 14 16  1  0  0  0
 16 17  1  0  0  0
 17 18  1  0  0  0
 18 19  1  0  0  0
 19 20  1  0  0  0
 20 21  2  0  0  0
 11  6  1  0  0  0
 28 22  1  0  0  0
 35 32  1  0  0  0
 20 16  1  0  0  0
 16  9  1  0  0  0
 31 27  1  0  0  0
  1  4  1  0  0  0
 34 36  1  0  0  0
M  END
> <minimizedAffinity>
-9.47284

> <minimizedRMSD>
0.50636

$$$$
P28083


 36 41  0  0  0  0  0  0  0  0999 V2000
   -7.5490    4.3559  -13.5458 N   0  0  0  0  0  0  0  0  0  0  0  0
   -6.5651    5.2751  -14.2714 C   0  0  0  0  0  0  0  0  0  0  0  0
   -5.8989    6.1364  -13.8657 O   0  0  0  0  0  0  0  0  0  0  0  0
   -8.0544    3.7482  -14.1327 H   0  0  0  0  0  0  0  0  0  0  0  0
   -3.6937    3.9976  -10.9313 C   0  0  0  0  0  0  0  0  0  0  0  0
   -4.6993    2.8412  -10.9904 C   0  0  0  0  0  0  0  0  0  0  0  0
   -3.9722    1.5285  -11.2708 C   0  0  0  0  0  0  0  0  0  0  0  0
   -5.5499    2.7464   -9.7043 C   0  0  0  0  0  0  0  0  0  0  0  0
   -6.8083    3.3815  -10.1286 C   0  0  0  0  0  0  0  0  0  0  0  0
   -6.7681    3.5119  -11.4541 C   0  0  0  0  0  0  0  0  0  0  0  0
   -5.6065    3.1052  -12.0868 O   0  0  0  0  0  0  0  0  0  0  0  0
   -7.8516    4.2362  -12.1674 C   0  0  0  0  0  0  0  0  0  0  0  0
   -8.0512    5.5373  -11.4141 C   0  0  0  0  0  0  0  0  0  0  0  0
   -8.4093    5.2602   -9.9439 C   0  0  0  0  0  0  0  0  0  0  0  0
   -7.8697    6.2784   -9.2177 F   0  0  0  0  0  0  0  0  0  0  0  0
   -8.0127    3.8641   -9.3743 C   0  0  0  0  0  0  0  0  0  0  0  0
   -9.1416    2.8096   -9.6097 C   0  0  0  0  0  0  0  0  0  0  0  0
   -9.1030    1.8902   -8.4057 C   0  0  0  0  0  0  0  0  0  0  0  0
   -8.9421    2.8472   -7.2472 C   0  0  0  0  0  0  0  0  0  0  0  0
   -8.0395    3.9074   -7.8328 C   0  0  0  0  0  0  0  0  0  0  0  0
   -7.4771    4.7305   -7.1158 O   0  0  0  0  0  0  0  0  0  0  0  0
   -6.6222    4.9927  -15.7148 C   0  0  0  0  0  0  0  0  0  0  0  0
   -7.8458    4.6524  -16.2974 C   0  0  0  0  0  0  0  0  0  0  0  0
   -7.9280    4.4367  -17.6585 C   0  0  0  0  0  0  0  0  0  0  0  0
   -9.4740    4.1606  -18.3041 Cl  0  0  0  0  0  0  0  0  0  0  0  0
   -6.8235    4.5622  -18.4961 C   0  0  0  0  0  0  0  0  0  0  0  0
   -5.6114    4.9229  -17.8900 C   0  0  0  0  0  0  0  0  0  0  0  0
   -5.4875    5.1334  -16.5195 C   0  0  0  0  0  0  0  0  0  0  0  0
   -4.1316    5.4616  -16.3238 C   0  0  0  0  0  0  0  0  0  0  0  0
   -3.4397    5.4733  -17.4646 N   0  0  0  0  0  0  0  0  0  0  0  0
   -4.3591    5.1673  -18.3973 N   0  0  0  0  0  0  0  0  0  0  0  0
   -4.0730    5.0985  -19.8291 C   0  0  0  0  0  0  0  0  0  0  0  0
   -4.0385    6.4779  -20.5037 C   0  0  0  0  0  0  0  0  0  0  0  0
   -2.9364    5.9541  -21.3669 N   0  0  0  0  0  0  0  0  0  0  0  0
   -2.5913    5.0446  -20.2262 C   0  0  0  0  0  0  0  0  0  0  0  0
   -2.2164    6.6368  -21.6032 H   0  0  0  0  0  0  0  0  0  0  0  0
  5  6  1  0  0  0
  6  7  1  0  0  0
  6  8  1  0  0  0
  8  9  1  0  0  0
  9 10  2  0  0  0
 10 11  1  0  0  0
 10 12  1  0  0  0
 12  1  1  0  0  0
  1  2  1  0  0  0
  2  3  2  0  0  0
  2 22  1  0  0  0
 22 23  2  0  0  0
 23 24  1  0  0  0
 24 25  1  0  0  0
 24 26  2  0  0  0
 26 27  1  0  0  0
 27 28  2  0  0  0
 28 29  1  0  0  0
 29 30  2  0  0  0
 30 31  1  0  0  0
 31 32  1  0  0  0
 32 33  1  0  0  0
 33 34  1  0  0  0
 34 35  1  0  0  0
 12 13  1  0  0  0
 13 14  1  0  0  0
 14 15  1  0  0  0
 14 16  1  0  0  0
 16 17  1  0  0  0
 17 18  1  0  0  0
 18 19  1  0  0  0
 19 20  1  0  0  0
 20 21  2  0  0  0
 11  6  1  0  0  0
 28 22  1  0  0  0
 35 32  1  0  0  0
 20 16  1  0  0  0
 16  9  1  0  0  0
 31 27  1  0  0  0
  1  4  1  0  0  0
 34 36  1  0  0  0
M  END
> <minimizedAffinity>
-9.63225

> <minimizedRMSD>
0.58304

$$$$
P28084


 35 40  0  0  0  0  0  0  0  0999 V2000
   -8.0424    4.5196  -12.7316 N   0  0  0  0  0  0  0  0  0  0  0  0
   -6.8935    4.9948  -13.6712 C   0  0  0  0  0  0  0  0  0  0  0  0
   -5.8986    5.5636  -13.4264 O   0  0  0  0  0  0  0  0  0  0  0  0
   -8.7440    3.9889  -13.1737 H   0  0  0  0  0  0  0  0  0  0  0  0
  -10.2671    3.7386   -5.8646 C   0  0  0  0  0  0  0  0  0  0  0  0
   -9.0629    4.0077   -6.7684 C   0  0  0  0  0  0  0  0  0  0  0  0
   -7.8520    4.1089   -5.8434 C   0  0  0  0  0  0  0  0  0  0  0  0
   -9.0088    2.9994   -7.9605 C   0  0  0  0  0  0  0  0  0  0  0  0
   -8.6925    3.9111   -9.0984 C   0  0  0  0  0  0  0  0  0  0  0  0
   -8.4740    3.6500  -10.4667 C   0  0  0  0  0  0  0  0  0  0  0  0
   -8.2401    4.7264  -11.3507 C   0  0  0  0  0  0  0  0  0  0  0  0
   -8.2496    6.0158  -10.8057 C   0  0  0  0  0  0  0  0  0  0  0  0
   -8.4903    6.2599   -9.4613 C   0  0  0  0  0  0  0  0  0  0  0  0
   -8.7402    5.2095   -8.6254 C   0  0  0  0  0  0  0  0  0  0  0  0
   -9.1650    5.3436   -7.3321 O   0  0  0  0  0  0  0  0  0  0  0  0
   -8.5412    7.7092   -9.1889 C   0  0  0  0  0  0  0  0  0  0  0  0
   -8.0444    8.2459  -10.5440 C   0  0  0  0  0  0  0  0  0  0  0  0
   -8.9063    9.4142  -11.0257 C   0  0  0  0  0  0  0  0  0  0  0  0
   -6.5724    8.6736  -10.4857 C   0  0  0  0  0  0  0  0  0  0  0  0
   -8.1617    7.1839  -11.5253 O   0  0  0  0  0  0  0  0  0  0  0  0
   -7.1093    4.7207  -15.1211 C   0  0  0  0  0  0  0  0  0  0  0  0
   -8.3857    4.5106  -15.6645 C   0  0  0  0  0  0  0  0  0  0  0  0
   -8.5708    4.5281  -17.0519 C   0  0  0  0  0  0  0  0  0  0  0  0
  -10.1483    4.4157  -17.7352 Cl  0  0  0  0  0  0  0  0  0  0  0  0
   -7.5126    4.7296  -17.9393 C   0  0  0  0  0  0  0  0  0  0  0  0
   -6.2439    4.9199  -17.3861 C   0  0  0  0  0  0  0  0  0  0  0  0
   -6.0240    4.9211  -16.0100 C   0  0  0  0  0  0  0  0  0  0  0  0
   -4.6398    5.1860  -15.8867 C   0  0  0  0  0  0  0  0  0  0  0  0
   -4.0193    5.2901  -17.0640 N   0  0  0  0  0  0  0  0  0  0  0  0
   -5.0156    5.1621  -17.9603 N   0  0  0  0  0  0  0  0  0  0  0  0
   -4.8245    5.2708  -19.4130 C   0  0  0  0  0  0  0  0  0  0  0  0
   -4.8268    6.7286  -19.9102 C   0  0  0  0  0  0  0  0  0  0  0  0
   -3.8040    6.3117  -20.9202 N   0  0  0  0  0  0  0  0  0  0  0  0
   -3.3681    5.2874  -19.9141 C   0  0  0  0  0  0  0  0  0  0  0  0
   -3.1050    7.0209  -21.1415 H   0  0  0  0  0  0  0  0  0  0  0  0
  5  6  1  0  0  0
  6  7  1  0  0  0
  6  8  1  0  0  0
  8  9  1  0  0  0
  9 10  2  0  0  0
 10 11  1  0  0  0
 11  1  1  0  0  0
  1  2  1  0  0  0
  2  3  2  0  0  0
  2 21  1  0  0  0
 21 22  2  0  0  0
 22 23  1  0  0  0
 23 24  1  0  0  0
 23 25  2  0  0  0
 25 26  1  0  0  0
 26 27  2  0  0  0
 27 28  1  0  0  0
 28 29  2  0  0  0
 29 30  1  0  0  0
 30 31  1  0  0  0
 31 32  1  0  0  0
 32 33  1  0  0  0
 33 34  1  0  0  0
 11 12  2  0  0  0
 12 13  1  0  0  0
 13 14  2  0  0  0
 14 15  1  0  0  0
 13 16  1  0  0  0
 16 17  1  0  0  0
 17 18  1  0  0  0
 17 19  1  0  0  0
 17 20  1  0  0  0
 15  6  1  0  0  0
 14  9  1  0  0  0
 27 21  1  0  0  0
 34 31  1  0  0  0
 20 12  1  0  0  0
 30 26  1  0  0  0
  1  4  1  0  0  0
 33 35  1  0  0  0
M  END
> <minimizedAffinity>
-8.70128

> <minimizedRMSD>
0.48149

$$$$
P28086


 34 39  0  0  0  0  0  0  0  0999 V2000
   -8.1257    4.0877  -13.0669 N   0  0  0  0  0  0  0  0  0  0  0  0
   -7.0204    4.7875  -13.9014 C   0  0  0  0  0  0  0  0  0  0  0  0
   -6.0965    5.4182  -13.5588 O   0  0  0  0  0  0  0  0  0  0  0  0
   -8.7598    3.5483  -13.5926 H   0  0  0  0  0  0  0  0  0  0  0  0
   -9.6648    2.0324   -6.2728 C   0  0  0  0  0  0  0  0  0  0  0  0
   -9.3070    2.6609   -7.5244 N   0  0  0  0  0  0  0  0  0  0  0  0
   -9.2150    2.0371   -8.7564 C   0  0  0  0  0  0  0  0  0  0  0  0
   -8.8615    2.9997   -9.6708 C   0  0  0  0  0  0  0  0  0  0  0  0
   -8.6862    2.8593  -11.0559 C   0  0  0  0  0  0  0  0  0  0  0  0
   -8.3688    4.0985  -11.6827 C   0  0  0  0  0  0  0  0  0  0  0  0
   -8.2943    5.3167  -10.9277 C   0  0  0  0  0  0  0  0  0  0  0  0
   -8.4473    5.4370   -9.5391 C   0  0  0  0  0  0  0  0  0  0  0  0
   -8.7314    4.2235   -8.9559 C   0  0  0  0  0  0  0  0  0  0  0  0
   -8.9957    3.9988   -7.6335 C   0  0  0  0  0  0  0  0  0  0  0  0
   -8.3754    6.8396   -9.0939 C   0  0  0  0  0  0  0  0  0  0  0  0
   -7.9078    7.4908  -10.4094 C   0  0  0  0  0  0  0  0  0  0  0  0
   -8.6919    8.7724  -10.6973 C   0  0  0  0  0  0  0  0  0  0  0  0
   -6.4038    7.7937  -10.3942 C   0  0  0  0  0  0  0  0  0  0  0  0
   -8.1662    6.5695  -11.5024 O   0  0  0  0  0  0  0  0  0  0  0  0
   -7.1785    4.6144  -15.3637 C   0  0  0  0  0  0  0  0  0  0  0  0
   -8.4370    4.4647  -15.9604 C   0  0  0  0  0  0  0  0  0  0  0  0
   -8.5623    4.5421  -17.3471 C   0  0  0  0  0  0  0  0  0  0  0  0
  -10.1197    4.5057  -18.0732 Cl  0  0  0  0  0  0  0  0  0  0  0  0
   -7.4572    4.7409  -18.1780 C   0  0  0  0  0  0  0  0  0  0  0  0
   -6.2048    4.8678  -17.5652 C   0  0  0  0  0  0  0  0  0  0  0  0
   -6.0461    4.8066  -16.1841 C   0  0  0  0  0  0  0  0  0  0  0  0
   -4.6609    5.0025  -15.9811 C   0  0  0  0  0  0  0  0  0  0  0  0
   -3.9842    5.1411  -17.1227 N   0  0  0  0  0  0  0  0  0  0  0  0
   -4.9430    5.0952  -18.0667 N   0  0  0  0  0  0  0  0  0  0  0  0
   -4.6805    5.2916  -19.4961 C   0  0  0  0  0  0  0  0  0  0  0  0
   -4.5147    6.7758  -19.8736 C   0  0  0  0  0  0  0  0  0  0  0  0
   -3.4948    6.3341  -20.8759 N   0  0  0  0  0  0  0  0  0  0  0  0
   -3.2096    5.1948  -19.9418 C   0  0  0  0  0  0  0  0  0  0  0  0
   -2.7188    6.9817  -21.0128 H   0  0  0  0  0  0  0  0  0  0  0  0
  5  6  1  0  0  0
  6  7  1  0  0  0
  7  8  2  0  0  0
  8  9  1  0  0  0
  9 10  2  0  0  0
 10  1  1  0  0  0
  1  2  1  0  0  0
  2  3  2  0  0  0
  2 20  1  0  0  0
 20 21  2  0  0  0
 21 22  1  0  0  0
 22 23  1  0  0  0
 22 24  2  0  0  0
 24 25  1  0  0  0
 25 26  2  0  0  0
 26 27  1  0  0  0
 27 28  2  0  0  0
 28 29  1  0  0  0
 29 30  1  0  0  0
 30 31  1  0  0  0
 31 32  1  0  0  0
 32 33  1  0  0  0
 10 11  1  0  0  0
 11 12  2  0  0  0
 12 13  1  0  0  0
 13 14  2  0  0  0
 12 15  1  0  0  0
 15 16  1  0  0  0
 16 17  1  0  0  0
 16 18  1  0  0  0
 16 19  1  0  0  0
 14  6  1  0  0  0
 13  8  1  0  0  0
 26 20  1  0  0  0
 33 30  1  0  0  0
 19 11  1  0  0  0
 29 25  1  0  0  0
  1  4  1  0  0  0
 32 34  1  0  0  0
M  END
> <minimizedAffinity>
-9.35372

> <minimizedRMSD>
0.40769

$$$$
P28093


 37 42  0  0  0  0  0  0  0  0999 V2000
   -7.8602    4.2233  -13.3244 N   0  0  0  0  0  0  0  0  0  0  0  0
   -6.6950    4.9052  -14.0803 C   0  0  0  0  0  0  0  0  0  0  0  0
   -5.8040    5.5477  -13.6792 O   0  0  0  0  0  0  0  0  0  0  0  0
   -8.4478    3.6686  -13.8868 H   0  0  0  0  0  0  0  0  0  0  0  0
   -6.4112    8.0546  -10.7968 C   0  0  0  0  0  0  0  0  0  0  0  0
   -7.9111    7.7338  -10.8538 C   0  0  0  0  0  0  0  0  0  0  0  0
   -8.6938    8.9928  -11.2301 C   0  0  0  0  0  0  0  0  0  0  0  0
   -8.4219    7.1367   -9.5303 C   0  0  0  0  0  0  0  0  0  0  0  0
   -8.4347    5.7145   -9.9121 C   0  0  0  0  0  0  0  0  0  0  0  0
   -8.2212    5.5278  -11.2773 C   0  0  0  0  0  0  0  0  0  0  0  0
   -8.2154    4.2669  -11.9687 C   0  0  0  0  0  0  0  0  0  0  0  0
   -8.5161    3.0436  -11.3001 C   0  0  0  0  0  0  0  0  0  0  0  0
   -8.7528    3.2531   -9.9329 C   0  0  0  0  0  0  0  0  0  0  0  0
   -9.0666    2.3318   -8.9603 C   0  0  0  0  0  0  0  0  0  0  0  0
   -9.1816    3.0288   -7.7644 N   0  0  0  0  0  0  0  0  0  0  0  0
   -9.0179    4.3761   -7.9801 C   0  0  0  0  0  0  0  0  0  0  0  0
   -8.6993    4.5207   -9.2942 C   0  0  0  0  0  0  0  0  0  0  0  0
   -8.1224    6.7573  -11.9081 O   0  0  0  0  0  0  0  0  0  0  0  0
   -9.3784    2.4505   -6.4440 C   0  0  0  0  0  0  0  0  0  0  0  0
   -9.0725    3.4279   -5.3165 C   0  0  0  0  0  0  0  0  0  0  0  0
   -7.8310    3.9744   -5.4329 F   0  0  0  0  0  0  0  0  0  0  0  0
   -9.9557    4.4656   -5.3202 F   0  0  0  0  0  0  0  0  0  0  0  0
   -6.6881    4.6750  -15.5359 C   0  0  0  0  0  0  0  0  0  0  0  0
   -7.8585    4.5278  -16.2750 C   0  0  0  0  0  0  0  0  0  0  0  0
   -7.7997    4.6517  -17.6632 C   0  0  0  0  0  0  0  0  0  0  0  0
   -9.2605    4.5267  -18.5619 Cl  0  0  0  0  0  0  0  0  0  0  0  0
   -6.6081    4.9529  -18.3469 C   0  0  0  0  0  0  0  0  0  0  0  0
   -5.4356    5.0619  -17.5835 C   0  0  0  0  0  0  0  0  0  0  0  0
   -5.4633    4.8809  -16.2006 C   0  0  0  0  0  0  0  0  0  0  0  0
   -4.1277    5.0248  -15.7858 C   0  0  0  0  0  0  0  0  0  0  0  0
   -3.3008    5.2723  -16.7934 N   0  0  0  0  0  0  0  0  0  0  0  0
   -4.1207    5.3906  -17.8595 N   0  0  0  0  0  0  0  0  0  0  0  0
   -3.6111    6.1489  -19.0072 C   0  0  0  0  0  0  0  0  0  0  0  0
   -4.5834    6.4813  -20.1183 C   0  0  0  0  0  0  0  0  0  0  0  0
   -3.5304    6.0962  -21.1130 N   0  0  0  0  0  0  0  0  0  0  0  0
   -2.9634    5.2196  -20.0597 C   0  0  0  0  0  0  0  0  0  0  0  0
   -2.9210    6.8597  -21.4067 H   0  0  0  0  0  0  0  0  0  0  0  0
  5  6  1  0  0  0
  6  7  1  0  0  0
  6  8  1  0  0  0
  8  9  1  0  0  0
  9 10  2  0  0  0
 10 11  1  0  0  0
 11  1  1  0  0  0
  1  2  1  0  0  0
  2  3  2  0  0  0
  2 23  1  0  0  0
 23 24  2  0  0  0
 24 25  1  0  0  0
 25 26  1  0  0  0
 25 27  2  0  0  0
 27 28  1  0  0  0
 28 29  2  0  0  0
 29 30  1  0  0  0
 30 31  2  0  0  0
 31 32  1  0  0  0
 32 33  1  0  0  0
 33 34  1  0  0  0
 34 35  1  0  0  0
 35 36  1  0  0  0
 11 12  2  0  0  0
 12 13  1  0  0  0
 13 14  2  0  0  0
 14 15  1  0  0  0
 15 19  1  0  0  0
 19 20  1  0  0  0
 20 21  1  0  0  0
 20 22  1  0  0  0
 15 16  1  0  0  0
 16 17  2  0  0  0
 10 18  1  0  0  0
 18  6  1  0  0  0
 17  9  1  0  0  0
 29 23  1  0  0  0
 36 33  1  0  0  0
 17 13  1  0  0  0
 32 28  1  0  0  0
  1  4  1  0  0  0
 35 37  1  0  0  0
M  END
> <minimizedAffinity>
-8.55663

> <minimizedRMSD>
0.70009

$$$$
P28097


 40 46  0  0  0  0  0  0  0  0999 V2000
   -7.2097    4.8406  -15.1123 C   0  0  0  0  0  0  0  0  0  0  0  0
   -8.3919    4.5616  -15.8426 C   0  0  0  0  0  0  0  0  0  0  0  0
   -8.4295    4.4793  -17.2758 C   0  0  0  0  0  0  0  0  0  0  0  0
   -9.9458    4.1575  -18.0380 Cl  0  0  0  0  0  0  0  0  0  0  0  0
   -7.3227    4.6875  -18.1251 C   0  0  0  0  0  0  0  0  0  0  0  0
   -6.1734    4.9572  -17.3896 C   0  0  0  0  0  0  0  0  0  0  0  0
   -4.9105    5.2043  -17.8935 C   0  0  0  0  0  0  0  0  0  0  0  0
   -4.0846    5.3906  -16.8022 N   0  0  0  0  0  0  0  0  0  0  0  0
   -4.8186    5.2890  -15.6362 C   0  0  0  0  0  0  0  0  0  0  0  0
   -6.1197    5.0256  -15.9707 C   0  0  0  0  0  0  0  0  0  0  0  0
   -4.6183    5.2389  -19.4279 C   0  0  0  0  0  0  0  0  0  0  0  0
   -4.3670    6.6445  -20.0162 C   0  0  0  0  0  0  0  0  0  0  0  0
   -3.4993    5.9926  -21.0423 N   0  0  0  0  0  0  0  0  0  0  0  0
   -3.2405    4.9246  -20.0301 C   0  0  0  0  0  0  0  0  0  0  0  0
   -2.6776    6.5331  -21.3127 H   0  0  0  0  0  0  0  0  0  0  0  0
   -8.1782    4.2287  -12.8757 N   0  0  0  0  0  0  0  0  0  0  0  0
   -7.1406    5.0667  -13.6501 C   0  0  0  0  0  0  0  0  0  0  0  0
   -6.3755    5.8612  -13.2708 O   0  0  0  0  0  0  0  0  0  0  0  0
   -8.6596    3.5639  -13.4194 H   0  0  0  0  0  0  0  0  0  0  0  0
   -7.0731    8.2641   -9.9253 C   0  0  0  0  0  0  0  0  0  0  0  0
   -8.4446    7.5824   -9.9690 C   0  0  0  0  0  0  0  0  0  0  0  0
   -9.5413    8.6286  -10.1457 C   0  0  0  0  0  0  0  0  0  0  0  0
   -8.6902    6.6964   -8.7568 C   0  0  0  0  0  0  0  0  0  0  0  0
   -8.0781    5.3609   -9.1443 C   0  0  0  0  0  0  0  0  0  0  0  0
   -8.9151    4.1662   -8.7352 C   0  0  0  0  0  0  0  0  0  0  0  0
   -9.0041    3.8400   -7.2609 C   0  0  0  0  0  0  0  0  0  0  0  0
   -9.4202    2.4284   -7.2304 N   0  0  0  0  0  0  0  0  0  0  0  0
   -9.0881    1.8341   -8.5488 C   0  0  0  0  0  0  0  0  0  0  0  0
   -8.3299    2.9019   -9.3181 C   0  0  0  0  0  0  0  0  0  0  0  0
   -8.4111    2.8640  -10.8411 C   0  0  0  0  0  0  0  0  0  0  0  0
   -8.5623    4.2607  -11.4696 C   0  0  0  0  0  0  0  0  0  0  0  0
   -7.9085    5.4171  -10.6710 C   0  0  0  0  0  0  0  0  0  0  0  0
   -8.4925    6.6776  -11.0782 O   0  0  0  0  0  0  0  0  0  0  0  0
  -10.4245    2.3654   -7.0636 H   0  0  0  0  0  0  0  0  0  0  0  0
   -2.6431    5.6084  -16.7686 C   0  0  0  0  0  0  0  0  0  0  0  0
   -2.2530    7.0583  -17.0040 C   0  0  0  0  0  0  0  0  0  0  0  0
   -0.7341    7.3133  -17.0286 C   0  0  0  0  0  0  0  0  0  0  0  0
   -0.8055    7.7730  -15.6288 N   0  0  0  0  0  0  0  0  0  0  0  0
   -2.2565    8.0031  -15.7846 C   0  0  0  0  0  0  0  0  0  0  0  0
   -0.2669    8.6182  -15.4392 H   0  0  0  0  0  0  0  0  0  0  0  0
 20 21  1  0  0  0
 21 22  1  0  0  0
 21 23  1  0  0  0
 24 23  1  0  0  0
 24 25  1  0  0  0
 25 26  1  0  0  0
 26 27  1  0  0  0
 27 28  1  0  0  0
 29 28  1  0  0  0
 29 30  1  0  0  0
 30 31  1  0  0  0
 31 16  1  0  0  0
 16 17  1  0  0  0
 17 18  2  0  0  0
 17  1  1  0  0  0
  1  2  2  0  0  0
  2  3  1  0  0  0
  3  4  1  0  0  0
  3  5  2  0  0  0
  5  6  1  0  0  0
  6  7  2  0  0  0
  7 11  1  0  0  0
 11 12  1  0  0  0
 12 13  1  0  0  0
 13 14  1  0  0  0
  7  8  1  0  0  0
  8 35  1  0  0  0
 35 36  1  0  0  0
 36 37  1  0  0  0
 37 38  1  0  0  0
 38 39  1  0  0  0
  8  9  1  0  0  0
  9 10  2  0  0  0
 31 32  1  0  0  0
 32 33  1  0  0  0
 33 21  1  0  0  0
 32 24  1  0  0  0
 29 25  1  0  0  0
 10  1  1  0  0  0
 10  6  1  0  0  0
 14 11  1  0  0  0
 39 36  1  0  0  0
 27 34  1  0  0  0
 16 19  1  0  0  0
 13 15  1  0  0  0
 38 40  1  0  0  0
M  END
> <minimizedAffinity>
-8.64165

> <minimizedRMSD>
0.34087

$$$$
P28110


 40 45  0  0  0  0  0  0  0  0999 V2000
   -7.0142    4.4684  -13.7860 C   0  0  0  0  0  0  0  0  0  0  0  0
   -5.7960    5.3378  -13.3594 C   0  0  0  0  0  0  0  0  0  0  0  0
   -7.2601    4.6373  -15.3044 C   0  0  0  0  0  0  0  0  0  0  0  0
   -8.5414    4.4766  -15.9032 C   0  0  0  0  0  0  0  0  0  0  0  0
   -8.7327    4.6215  -17.2780 C   0  0  0  0  0  0  0  0  0  0  0  0
  -10.2877    4.5406  -18.0089 Cl  0  0  0  0  0  0  0  0  0  0  0  0
   -7.6759    4.9320  -18.1204 C   0  0  0  0  0  0  0  0  0  0  0  0
   -6.3963    5.0216  -17.5696 C   0  0  0  0  0  0  0  0  0  0  0  0
   -6.1757    4.8633  -16.2048 C   0  0  0  0  0  0  0  0  0  0  0  0
   -4.7671    4.9542  -16.0787 C   0  0  0  0  0  0  0  0  0  0  0  0
   -4.1521    5.2276  -17.2220 N   0  0  0  0  0  0  0  0  0  0  0  0
   -5.1489    5.2361  -18.1253 N   0  0  0  0  0  0  0  0  0  0  0  0
   -4.8840    5.4015  -19.5703 C   0  0  0  0  0  0  0  0  0  0  0  0
   -5.7541    4.7005  -20.5395 N   0  0  0  0  0  0  0  0  0  0  0  0
   -3.3948    5.2616  -19.9870 C   0  0  0  0  0  0  0  0  0  0  0  0
   -3.5970    6.4080  -20.9304 N   0  0  0  0  0  0  0  0  0  0  0  0
   -4.6845    6.8687  -20.0126 C   0  0  0  0  0  0  0  0  0  0  0  0
   -5.8826    3.7329  -20.2432 H   0  0  0  0  0  0  0  0  0  0  0  0
   -5.3192    4.7186  -21.4620 H   0  0  0  0  0  0  0  0  0  0  0  0
   -3.9099    6.1427  -21.8643 H   0  0  0  0  0  0  0  0  0  0  0  0
   -8.1544    4.9540  -12.9754 N   0  0  0  0  0  0  0  0  0  0  0  0
   -8.3276    5.9311  -13.2116 H   0  0  0  0  0  0  0  0  0  0  0  0
   -7.3026    9.2410   -9.8394 C   0  0  0  0  0  0  0  0  0  0  0  0
   -8.4264    8.2268  -10.0253 C   0  0  0  0  0  0  0  0  0  0  0  0
   -9.7215    8.9970  -10.2869 C   0  0  0  0  0  0  0  0  0  0  0  0
   -8.5296    7.3260   -8.7855 C   0  0  0  0  0  0  0  0  0  0  0  0
   -8.4848    5.9876   -9.4006 C   0  0  0  0  0  0  0  0  0  0  0  0
   -8.2221    6.0787  -10.6980 C   0  0  0  0  0  0  0  0  0  0  0  0
   -8.1231    7.3807  -11.1863 O   0  0  0  0  0  0  0  0  0  0  0  0
   -7.9163    4.8578  -11.5278 C   0  0  0  0  0  0  0  0  0  0  0  0
   -8.7576    3.6819  -11.0373 C   0  0  0  0  0  0  0  0  0  0  0  0
   -8.6862    3.4483   -9.5207 C   0  0  0  0  0  0  0  0  0  0  0  0
   -9.8669    2.5774   -9.0804 C   0  0  0  0  0  0  0  0  0  0  0  0
   -9.3694    1.9400   -7.8183 C   0  0  0  0  0  0  0  0  0  0  0  0
   -7.9938    1.6575   -8.1526 N   0  0  0  0  0  0  0  0  0  0  0  0
   -7.4950    2.5546   -9.1750 C   0  0  0  0  0  0  0  0  0  0  0  0
   -8.6370    4.7300   -8.6358 C   0  0  0  0  0  0  0  0  0  0  0  0
   -7.9268    0.6984   -8.4932 H   0  0  0  0  0  0  0  0  0  0  0  0
   -6.7349    2.9736  -13.6222 N   0  0  0  0  0  0  0  0  0  0  0  0
   -5.5483    2.6931  -13.4096 O   0  0  0  0  0  0  0  0  0  0  0  0
 23 24  1  0  0  0
 24 25  1  0  0  0
 24 26  1  0  0  0
 26 27  1  0  0  0
 27 28  2  0  0  0
 28 29  1  0  0  0
 28 30  1  0  0  0
 30 21  1  0  0  0
 21  1  1  0  0  0
  1  2  1  0  0  0
  1 39  1  0  0  0
 39 40  2  0  0  0
  1  3  1  0  0  0
  3  4  2  0  0  0
  4  5  1  0  0  0
  5  6  1  0  0  0
  5  7  2  0  0  0
  7  8  1  0  0  0
  8  9  2  0  0  0
  9 10  1  0  0  0
 10 11  2  0  0  0
 11 12  1  0  0  0
 12 13  1  0  0  0
 13 14  1  0  0  0
 13 15  1  0  0  0
 15 16  1  0  0  0
 16 17  1  0  0  0
 30 31  1  0  0  0
 32 31  1  0  0  0
 32 33  1  0  0  0
 33 34  1  0  0  0
 34 35  1  0  0  0
 35 36  1  0  0  0
 32 37  1  0  0  0
 29 24  1  0  0  0
  9  3  1  0  0  0
 17 13  1  0  0  0
 36 32  1  0  0  0
 37 27  1  0  0  0
 12  8  1  0  0  0
 21 22  1  0  0  0
 14 18  1  0  0  0
 14 19  1  0  0  0
 16 20  1  0  0  0
 35 38  1  0  0  0
M  END
> <minimizedAffinity>
-8.57501

> <minimizedRMSD>
0.75668

$$$$
P28114


 30 34  0  0  0  0  0  0  0  0999 V2000
   -3.2460    5.5091  -16.3609 C   0  0  0  0  0  0  0  0  0  0  0  0
   -4.6667    5.3403  -16.5313 N   0  0  0  0  0  0  0  0  0  0  0  0
   -5.5501    5.3882  -15.4724 C   0  0  0  0  0  0  0  0  0  0  0  0
   -6.8018    5.1201  -15.9609 C   0  0  0  0  0  0  0  0  0  0  0  0
   -8.0053    5.0575  -15.2468 C   0  0  0  0  0  0  0  0  0  0  0  0
   -9.0868    4.7329  -16.0945 C   0  0  0  0  0  0  0  0  0  0  0  0
   -8.9403    4.5395  -17.5136 C   0  0  0  0  0  0  0  0  0  0  0  0
  -10.3687    4.2769  -18.4486 Cl  0  0  0  0  0  0  0  0  0  0  0  0
   -7.7219    4.6269  -18.2242 C   0  0  0  0  0  0  0  0  0  0  0  0
   -6.6677    4.9162  -17.3665 C   0  0  0  0  0  0  0  0  0  0  0  0
   -5.3418    5.0912  -17.7090 C   0  0  0  0  0  0  0  0  0  0  0  0
   -4.7827    5.0186  -19.1879 C   0  0  0  0  0  0  0  0  0  0  0  0
   -3.2688    5.1319  -19.4621 C   0  0  0  0  0  0  0  0  0  0  0  0
   -3.4340    6.5783  -19.7021 N   0  0  0  0  0  0  0  0  0  0  0  0
   -4.8728    6.3516  -19.9652 C   0  0  0  0  0  0  0  0  0  0  0  0
   -2.9122    6.9322  -20.5038 H   0  0  0  0  0  0  0  0  0  0  0  0
   -8.1476    5.5139  -13.8481 C   0  0  0  0  0  0  0  0  0  0  0  0
   -8.1482    6.6710  -13.6767 O   0  0  0  0  0  0  0  0  0  0  0  0
   -8.2674    4.3473  -12.8329 N   0  0  0  0  0  0  0  0  0  0  0  0
   -8.3176    3.4516  -13.2383 H   0  0  0  0  0  0  0  0  0  0  0  0
   -8.3158    4.3613  -11.4342 C   0  0  0  0  0  0  0  0  0  0  0  0
   -7.7586    5.4298  -10.7334 C   0  0  0  0  0  0  0  0  0  0  0  0
   -7.7540    5.4439   -9.3377 C   0  0  0  0  0  0  0  0  0  0  0  0
   -8.3273    4.3973   -8.6097 C   0  0  0  0  0  0  0  0  0  0  0  0
   -8.9167    3.3287   -9.3023 C   0  0  0  0  0  0  0  0  0  0  0  0
   -8.9013    3.3154  -10.7176 C   0  0  0  0  0  0  0  0  0  0  0  0
   -9.6567    2.2514   -8.5499 C   0  0  0  0  0  0  0  0  0  0  0  0
   -9.3844    2.1795   -7.0495 C   0  0  0  0  0  0  0  0  0  0  0  0
   -9.2760    3.5509   -6.4055 C   0  0  0  0  0  0  0  0  0  0  0  0
   -8.2276    4.4094   -7.1047 C   0  0  0  0  0  0  0  0  0  0  0  0
  1  2  1  0  0  0
  2  3  1  0  0  0
  3  4  2  0  0  0
  4  5  1  0  0  0
  5 17  1  0  0  0
 17 18  2  0  0  0
 17 19  1  0  0  0
 19 21  1  0  0  0
 21 22  2  0  0  0
 22 23  1  0  0  0
 23 24  2  0  0  0
 24 25  1  0  0  0
 25 26  2  0  0  0
 25 27  1  0  0  0
 27 28  1  0  0  0
 28 29  1  0  0  0
 29 30  1  0  0  0
  5  6  2  0  0  0
  6  7  1  0  0  0
  7  8  1  0  0  0
  7  9  2  0  0  0
  9 10  1  0  0  0
 10 11  2  0  0  0
 11 12  1  0  0  0
 12 13  1  0  0  0
 13 14  1  0  0  0
 14 15  1  0  0  0
 11  2  1  0  0  0
 15 12  1  0  0  0
 10  4  1  0  0  0
 26 21  1  0  0  0
 30 24  1  0  0  0
 19 20  1  0  0  0
 14 16  1  0  0  0
M  END
> <minimizedAffinity>
-9.15756

> <minimizedRMSD>
0.50017

$$$$
P28115


 33 37  0  0  0  0  0  0  0  0999 V2000
   -4.7374    5.2484  -16.4434 N   0  0  0  0  0  0  0  0  0  0  0  0
   -5.6846    5.3721  -15.4375 C   0  0  0  0  0  0  0  0  0  0  0  0
   -6.9169    5.1326  -15.9907 C   0  0  0  0  0  0  0  0  0  0  0  0
   -8.1494    5.0359  -15.3312 C   0  0  0  0  0  0  0  0  0  0  0  0
   -9.1850    4.6677  -16.2195 C   0  0  0  0  0  0  0  0  0  0  0  0
   -8.9741    4.4766  -17.6310 C   0  0  0  0  0  0  0  0  0  0  0  0
  -10.3466    4.0945  -18.6132 Cl  0  0  0  0  0  0  0  0  0  0  0  0
   -7.7333    4.6340  -18.2925 C   0  0  0  0  0  0  0  0  0  0  0  0
   -6.7210    4.9465  -17.3888 C   0  0  0  0  0  0  0  0  0  0  0  0
   -5.3791    5.1233  -17.6660 C   0  0  0  0  0  0  0  0  0  0  0  0
   -4.7833    5.1048  -19.1141 C   0  0  0  0  0  0  0  0  0  0  0  0
   -3.3106    4.7318  -19.3819 C   0  0  0  0  0  0  0  0  0  0  0  0
   -3.2880    5.7806  -20.4412 N   0  0  0  0  0  0  0  0  0  0  0  0
   -4.3316    6.4880  -19.6449 C   0  0  0  0  0  0  0  0  0  0  0  0
   -3.5929    5.4655  -21.3621 H   0  0  0  0  0  0  0  0  0  0  0  0
   -2.6099    6.2678  -16.1732 N   0  0  0  0  0  0  0  0  0  0  0  0
   -3.3266    5.0100  -16.1397 C   0  0  0  0  0  0  0  0  0  0  0  0
   -1.6256    6.1040  -15.9617 H   0  0  0  0  0  0  0  0  0  0  0  0
   -3.0054    6.9031  -15.4802 H   0  0  0  0  0  0  0  0  0  0  0  0
   -8.3543    5.4746  -13.9366 C   0  0  0  0  0  0  0  0  0  0  0  0
   -8.5782    6.6117  -13.7797 O   0  0  0  0  0  0  0  0  0  0  0  0
   -8.2233    4.3246  -12.9050 N   0  0  0  0  0  0  0  0  0  0  0  0
   -8.1051    3.4298  -13.2981 H   0  0  0  0  0  0  0  0  0  0  0  0
   -8.2457    4.3520  -11.5064 C   0  0  0  0  0  0  0  0  0  0  0  0
   -7.6086    5.3895  -10.8275 C   0  0  0  0  0  0  0  0  0  0  0  0
   -7.5739    5.4150   -9.4328 C   0  0  0  0  0  0  0  0  0  0  0  0
   -8.1946    4.4113   -8.6839 C   0  0  0  0  0  0  0  0  0  0  0  0
   -8.8625    3.3749   -9.3542 C   0  0  0  0  0  0  0  0  0  0  0  0
   -8.8805    3.3502  -10.7694 C   0  0  0  0  0  0  0  0  0  0  0  0
   -9.6444    2.3469   -8.5753 C   0  0  0  0  0  0  0  0  0  0  0  0
   -9.3495    2.2759   -7.0788 C   0  0  0  0  0  0  0  0  0  0  0  0
   -9.1490    3.6454   -6.4536 C   0  0  0  0  0  0  0  0  0  0  0  0
   -8.0632    4.4304   -7.1812 C   0  0  0  0  0  0  0  0  0  0  0  0
 16 17  1  0  0  0
 17  1  1  0  0  0
  1  2  1  0  0  0
  2  3  2  0  0  0
  3  4  1  0  0  0
  4 20  1  0  0  0
 20 21  2  0  0  0
 20 22  1  0  0  0
 22 24  1  0  0  0
 24 25  2  0  0  0
 25 26  1  0  0  0
 26 27  2  0  0  0
 27 28  1  0  0  0
 28 29  2  0  0  0
 28 30  1  0  0  0
 30 31  1  0  0  0
 31 32  1  0  0  0
 32 33  1  0  0  0
  4  5  2  0  0  0
  5  6  1  0  0  0
  6  7  1  0  0  0
  6  8  2  0  0  0
  8  9  1  0  0  0
  9 10  2  0  0  0
 10 11  1  0  0  0
 11 12  1  0  0  0
 12 13  1  0  0  0
 13 14  1  0  0  0
 10  1  1  0  0  0
 14 11  1  0  0  0
  9  3  1  0  0  0
 29 24  1  0  0  0
 33 27  1  0  0  0
 16 18  1  0  0  0
 16 19  1  0  0  0
 22 23  1  0  0  0
 13 15  1  0  0  0
M  END
> <minimizedAffinity>
-8.93744

> <minimizedRMSD>
0.64114

$$$$
P28116


 32 36  0  0  0  0  0  0  0  0999 V2000
   -8.7457    4.9719  -16.7467 C   0  0  0  0  0  0  0  0  0  0  0  0
   -7.4823    5.2965  -17.6057 C   0  0  0  0  0  0  0  0  0  0  0  0
   -6.1914    5.0905  -16.8922 C   0  0  0  0  0  0  0  0  0  0  0  0
   -6.1008    4.7123  -15.6160 C   0  0  0  0  0  0  0  0  0  0  0  0
   -4.6669    4.5255  -15.2803 C   0  0  0  0  0  0  0  0  0  0  0  0
   -3.9460    4.7400  -16.5640 N   0  0  0  0  0  0  0  0  0  0  0  0
   -4.9404    5.2117  -17.4829 N   0  0  0  0  0  0  0  0  0  0  0  0
   -7.2504    4.4252  -14.7087 C   0  0  0  0  0  0  0  0  0  0  0  0
   -8.5329    5.0763  -15.2336 C   0  0  0  0  0  0  0  0  0  0  0  0
   -3.5394    3.8654  -16.8958 H   0  0  0  0  0  0  0  0  0  0  0  0
   -4.7135    5.1091  -18.9085 C   0  0  0  0  0  0  0  0  0  0  0  0
   -3.2672    4.7903  -19.3580 C   0  0  0  0  0  0  0  0  0  0  0  0
   -3.4385    5.7809  -20.4619 N   0  0  0  0  0  0  0  0  0  0  0  0
   -4.4302    6.4691  -19.5851 C   0  0  0  0  0  0  0  0  0  0  0  0
   -3.8248    5.3969  -21.3243 H   0  0  0  0  0  0  0  0  0  0  0  0
   -7.0349    4.9625  -13.2787 C   0  0  0  0  0  0  0  0  0  0  0  0
   -6.2236    5.7661  -13.0111 O   0  0  0  0  0  0  0  0  0  0  0  0
   -8.1144    4.2712  -12.3775 N   0  0  0  0  0  0  0  0  0  0  0  0
   -8.7363    3.6792  -12.8591 H   0  0  0  0  0  0  0  0  0  0  0  0
   -8.3363    4.3587  -11.0065 C   0  0  0  0  0  0  0  0  0  0  0  0
   -8.0310    5.5219  -10.3086 C   0  0  0  0  0  0  0  0  0  0  0  0
   -8.2248    5.5820   -8.9282 C   0  0  0  0  0  0  0  0  0  0  0  0
   -8.7215    4.4781   -8.2234 C   0  0  0  0  0  0  0  0  0  0  0  0
   -9.0337    3.3027   -8.9227 C   0  0  0  0  0  0  0  0  0  0  0  0
   -8.8552    3.2591  -10.3200 C   0  0  0  0  0  0  0  0  0  0  0  0
   -9.6219    2.1100   -8.2107 C   0  0  0  0  0  0  0  0  0  0  0  0
   -9.5398    2.1463   -6.6852 C   0  0  0  0  0  0  0  0  0  0  0  0
   -9.7947    3.5344   -6.1212 C   0  0  0  0  0  0  0  0  0  0  0  0
   -8.8318    4.5549   -6.7209 C   0  0  0  0  0  0  0  0  0  0  0  0
  -10.2026    3.7736  -18.1518 C   0  0  0  0  0  0  0  0  0  0  0  0
   -9.2725    3.6587  -17.0440 N   0  0  0  0  0  0  0  0  0  0  0  0
   -8.5094    3.0319  -17.2994 H   0  0  0  0  0  0  0  0  0  0  0  0
 30 31  1  0  0  0
  1 31  1  0  0  0
  1  2  1  0  0  0
  2  3  1  0  0  0
  3  4  2  0  0  0
  4  5  1  0  0  0
  5  6  1  0  0  0
  6  7  1  0  0  0
  7 11  1  0  0  0
 11 12  1  0  0  0
 12 13  1  0  0  0
 13 14  1  0  0  0
  4  8  1  0  0  0
  8 16  1  0  0  0
 16 17  2  0  0  0
 16 18  1  0  0  0
 18 20  1  0  0  0
 20 21  2  0  0  0
 21 22  1  0  0  0
 22 23  2  0  0  0
 23 24  1  0  0  0
 24 25  2  0  0  0
 24 26  1  0  0  0
 26 27  1  0  0  0
 27 28  1  0  0  0
 28 29  1  0  0  0
  8  9  1  0  0  0
  9  1  1  0  0  0
  7  3  1  0  0  0
 14 11  1  0  0  0
 25 20  1  0  0  0
 29 23  1  0  0  0
 31 32  1  0  0  0
  6 10  1  0  0  0
 13 15  1  0  0  0
 18 19  1  0  0  0
M  END
> <minimizedAffinity>
-8.27154

> <minimizedRMSD>
0.50896

$$$$
P28120


 32 36  0  0  0  0  0  0  0  0999 V2000
   -8.0060    4.7916  -15.2361 C   0  0  0  0  0  0  0  0  0  0  0  0
   -8.9691    4.5777  -16.2417 C   0  0  0  0  0  0  0  0  0  0  0  0
   -8.6391    4.5352  -17.6434 C   0  0  0  0  0  0  0  0  0  0  0  0
   -9.9412    4.3431  -18.7651 Cl  0  0  0  0  0  0  0  0  0  0  0  0
   -7.3436    4.7413  -18.1889 C   0  0  0  0  0  0  0  0  0  0  0  0
   -6.4006    4.9456  -17.1865 C   0  0  0  0  0  0  0  0  0  0  0  0
   -5.0797    5.3344  -17.2954 C   0  0  0  0  0  0  0  0  0  0  0  0
   -4.6057    5.4084  -16.0154 N   0  0  0  0  0  0  0  0  0  0  0  0
   -3.3631    5.8986  -15.6947 F   0  0  0  0  0  0  0  0  0  0  0  0
   -5.5481    5.1003  -15.0995 C   0  0  0  0  0  0  0  0  0  0  0  0
   -5.3479    5.0067  -13.7833 F   0  0  0  0  0  0  0  0  0  0  0  0
   -6.7218    4.9259  -15.7797 C   0  0  0  0  0  0  0  0  0  0  0  0
   -4.1697    5.8056  -18.4539 C   0  0  0  0  0  0  0  0  0  0  0  0
   -3.3635    4.6853  -19.1541 C   0  0  0  0  0  0  0  0  0  0  0  0
   -3.4291    5.5118  -20.3825 N   0  0  0  0  0  0  0  0  0  0  0  0
   -4.6943    6.0900  -19.8554 C   0  0  0  0  0  0  0  0  0  0  0  0
   -3.5330    4.9801  -21.2468 H   0  0  0  0  0  0  0  0  0  0  0  0
   -8.1114    4.2110  -12.7639 N   0  0  0  0  0  0  0  0  0  0  0  0
   -8.3240    5.2692  -13.8729 C   0  0  0  0  0  0  0  0  0  0  0  0
   -8.6191    6.3982  -13.7968 O   0  0  0  0  0  0  0  0  0  0  0  0
   -7.7883    3.3378  -13.0839 H   0  0  0  0  0  0  0  0  0  0  0  0
   -7.5181    6.7874   -8.6225 C   0  0  0  0  0  0  0  0  0  0  0  0
   -7.9832    5.5236   -9.2914 C   0  0  0  0  0  0  0  0  0  0  0  0
   -7.8958    5.4354  -10.6912 C   0  0  0  0  0  0  0  0  0  0  0  0
   -8.3040    4.2935  -11.3794 C   0  0  0  0  0  0  0  0  0  0  0  0
   -8.8460    3.2354  -10.6547 C   0  0  0  0  0  0  0  0  0  0  0  0
   -8.9551    3.3015   -9.2430 C   0  0  0  0  0  0  0  0  0  0  0  0
   -8.5173    4.4476   -8.5543 C   0  0  0  0  0  0  0  0  0  0  0  0
   -8.5507    4.4899   -7.0415 C   0  0  0  0  0  0  0  0  0  0  0  0
   -9.5994    3.5857   -6.4031 C   0  0  0  0  0  0  0  0  0  0  0  0
   -9.5455    2.1874   -6.9801 C   0  0  0  0  0  0  0  0  0  0  0  0
   -9.6042    2.1542   -8.5060 C   0  0  0  0  0  0  0  0  0  0  0  0
 22 23  1  0  0  0
 23 24  2  0  0  0
 24 25  1  0  0  0
 25 18  1  0  0  0
 18 19  1  0  0  0
 19 20  2  0  0  0
 19  1  1  0  0  0
  1  2  2  0  0  0
  2  3  1  0  0  0
  3  4  1  0  0  0
  3  5  2  0  0  0
  5  6  1  0  0  0
  6  7  2  0  0  0
  7 13  1  0  0  0
 13 14  1  0  0  0
 14 15  1  0  0  0
 15 16  1  0  0  0
  7  8  1  0  0  0
  8  9  1  0  0  0
  8 10  1  0  0  0
 10 11  1  0  0  0
 10 12  2  0  0  0
 25 26  2  0  0  0
 26 27  1  0  0  0
 27 28  2  0  0  0
 28 29  1  0  0  0
 29 30  1  0  0  0
 30 31  1  0  0  0
 31 32  1  0  0  0
 28 23  1  0  0  0
 12  1  1  0  0  0
 32 27  1  0  0  0
 12  6  1  0  0  0
 16 13  1  0  0  0
 18 21  1  0  0  0
 15 17  1  0  0  0
M  END
> <minimizedAffinity>
-9.80359

> <minimizedRMSD>
0.67393

$$$$
P28123


 30 34  0  0  0  0  0  0  0  0999 V2000
   -8.2522    4.7876  -12.9332 N   0  0  0  0  0  0  0  0  0  0  0  0
   -7.0397    5.1666  -13.8201 C   0  0  0  0  0  0  0  0  0  0  0  0
   -6.0198    5.6632  -13.5371 O   0  0  0  0  0  0  0  0  0  0  0  0
   -9.0329    4.4463  -13.4264 H   0  0  0  0  0  0  0  0  0  0  0  0
   -8.0358    7.3816  -11.2493 C   0  0  0  0  0  0  0  0  0  0  0  0
   -8.2530    5.9899  -10.7323 C   0  0  0  0  0  0  0  0  0  0  0  0
   -8.3117    5.8511   -9.3258 C   0  0  0  0  0  0  0  0  0  0  0  0
   -8.6039    4.6302   -8.7123 C   0  0  0  0  0  0  0  0  0  0  0  0
   -8.8555    3.5246   -9.5153 C   0  0  0  0  0  0  0  0  0  0  0  0
   -8.7607    3.6417  -10.9148 C   0  0  0  0  0  0  0  0  0  0  0  0
   -8.4194    4.8519  -11.5370 C   0  0  0  0  0  0  0  0  0  0  0  0
   -9.1455    2.1844   -8.9074 C   0  0  0  0  0  0  0  0  0  0  0  0
   -9.4771    2.1215   -7.4212 C   0  0  0  0  0  0  0  0  0  0  0  0
   -9.5904    3.4568   -6.7164 C   0  0  0  0  0  0  0  0  0  0  0  0
   -8.5808    4.4810   -7.2162 C   0  0  0  0  0  0  0  0  0  0  0  0
   -7.2378    4.8401  -15.2564 C   0  0  0  0  0  0  0  0  0  0  0  0
   -8.5108    4.6312  -15.8000 C   0  0  0  0  0  0  0  0  0  0  0  0
   -8.6744    4.5737  -17.1845 C   0  0  0  0  0  0  0  0  0  0  0  0
  -10.2562    4.4745  -17.8468 Cl  0  0  0  0  0  0  0  0  0  0  0  0
   -7.5953    4.6889  -18.0654 C   0  0  0  0  0  0  0  0  0  0  0  0
   -6.3244    4.8611  -17.5053 C   0  0  0  0  0  0  0  0  0  0  0  0
   -6.1293    4.9352  -16.1270 C   0  0  0  0  0  0  0  0  0  0  0  0
   -4.7398    5.1405  -15.9805 C   0  0  0  0  0  0  0  0  0  0  0  0
   -4.0962    5.1822  -17.1467 N   0  0  0  0  0  0  0  0  0  0  0  0
   -5.0748    5.0309  -18.0628 N   0  0  0  0  0  0  0  0  0  0  0  0
   -4.8303    5.1248  -19.5144 C   0  0  0  0  0  0  0  0  0  0  0  0
   -3.3446    5.2118  -19.9195 C   0  0  0  0  0  0  0  0  0  0  0  0
   -3.7110    6.3021  -20.8548 N   0  0  0  0  0  0  0  0  0  0  0  0
   -4.9049    6.5760  -20.0239 C   0  0  0  0  0  0  0  0  0  0  0  0
   -3.9213    5.9897  -21.8028 H   0  0  0  0  0  0  0  0  0  0  0  0
  5  6  1  0  0  0
  6  7  2  0  0  0
  7  8  1  0  0  0
  8  9  2  0  0  0
  9 10  1  0  0  0
 10 11  2  0  0  0
 11  1  1  0  0  0
  1  2  1  0  0  0
  2  3  2  0  0  0
  2 16  1  0  0  0
 16 17  2  0  0  0
 17 18  1  0  0  0
 18 19  1  0  0  0
 18 20  2  0  0  0
 20 21  1  0  0  0
 21 22  2  0  0  0
 22 23  1  0  0  0
 23 24  2  0  0  0
 24 25  1  0  0  0
 25 26  1  0  0  0
 26 27  1  0  0  0
 27 28  1  0  0  0
 28 29  1  0  0  0
  9 12  1  0  0  0
 12 13  1  0  0  0
 13 14  1  0  0  0
 14 15  1  0  0  0
 11  6  1  0  0  0
 22 16  1  0  0  0
 29 26  1  0  0  0
 15  8  1  0  0  0
 25 21  1  0  0  0
  1  4  1  0  0  0
 28 30  1  0  0  0
M  END
> <minimizedAffinity>
-8.58934

> <minimizedRMSD>
0.45851

$$$$
P28124


 32 36  0  0  0  0  0  0  0  0999 V2000
   -4.7917    5.4091  -16.6069 N   0  0  0  0  0  0  0  0  0  0  0  0
   -5.6159    5.3750  -15.5122 C   0  0  0  0  0  0  0  0  0  0  0  0
   -6.8792    5.0964  -15.9657 C   0  0  0  0  0  0  0  0  0  0  0  0
   -8.0601    5.0292  -15.2179 C   0  0  0  0  0  0  0  0  0  0  0  0
   -9.1673    4.7089  -16.0321 C   0  0  0  0  0  0  0  0  0  0  0  0
   -9.0654    4.5186  -17.4551 C   0  0  0  0  0  0  0  0  0  0  0  0
  -10.5274    4.2772  -18.3420 Cl  0  0  0  0  0  0  0  0  0  0  0  0
   -7.8681    4.6024  -18.2034 C   0  0  0  0  0  0  0  0  0  0  0  0
   -6.7888    4.8962  -17.3781 C   0  0  0  0  0  0  0  0  0  0  0  0
   -5.4785    5.0991  -17.7585 C   0  0  0  0  0  0  0  0  0  0  0  0
   -4.9314    5.0306  -19.2258 C   0  0  0  0  0  0  0  0  0  0  0  0
   -3.4260    4.7922  -19.4649 C   0  0  0  0  0  0  0  0  0  0  0  0
   -3.4446    5.8662  -20.4798 N   0  0  0  0  0  0  0  0  0  0  0  0
   -4.6800    6.4044  -19.8811 C   0  0  0  0  0  0  0  0  0  0  0  0
   -3.5560    5.5332  -21.4374 H   0  0  0  0  0  0  0  0  0  0  0  0
   -8.1698    5.5123  -13.8282 C   0  0  0  0  0  0  0  0  0  0  0  0
   -8.0954    6.6684  -13.6695 O   0  0  0  0  0  0  0  0  0  0  0  0
   -8.3554    4.3680  -12.8012 N   0  0  0  0  0  0  0  0  0  0  0  0
   -8.4660    3.4732  -13.1965 H   0  0  0  0  0  0  0  0  0  0  0  0
   -8.3914    4.3992  -11.4033 C   0  0  0  0  0  0  0  0  0  0  0  0
   -7.8544    5.4820  -10.7106 C   0  0  0  0  0  0  0  0  0  0  0  0
   -7.8202    5.5092   -9.3053 C   0  0  0  0  0  0  0  0  0  0  0  0
   -7.2302    6.7115   -8.6236 C   0  0  0  0  0  0  0  0  0  0  0  0
   -8.3468    4.4275   -8.5714 C   0  0  0  0  0  0  0  0  0  0  0  0
   -8.9097    3.3437   -9.2656 C   0  0  0  0  0  0  0  0  0  0  0  0
   -8.9320    3.3400  -10.6798 C   0  0  0  0  0  0  0  0  0  0  0  0
   -9.4873    2.1602   -8.5318 C   0  0  0  0  0  0  0  0  0  0  0  0
   -9.5306    2.2096   -7.0055 C   0  0  0  0  0  0  0  0  0  0  0  0
   -9.3664    3.5905   -6.4030 C   0  0  0  0  0  0  0  0  0  0  0  0
   -8.2401    4.3731   -7.0641 C   0  0  0  0  0  0  0  0  0  0  0  0
   -3.2171    7.0742  -16.4565 C   0  0  0  0  0  0  0  0  0  0  0  0
   -3.4240    5.6672  -16.5214 O   0  0  0  0  0  0  0  0  0  0  0  0
 31 32  1  0  0  0
 32  1  1  0  0  0
  1  2  1  0  0  0
  2  3  2  0  0  0
  3  4  1  0  0  0
  4 16  1  0  0  0
 16 17  2  0  0  0
 16 18  1  0  0  0
 18 20  1  0  0  0
 20 21  2  0  0  0
 21 22  1  0  0  0
 22 23  1  0  0  0
 22 24  2  0  0  0
 24 25  1  0  0  0
 25 26  2  0  0  0
 25 27  1  0  0  0
 27 28  1  0  0  0
 28 29  1  0  0  0
 29 30  1  0  0  0
  4  5  2  0  0  0
  5  6  1  0  0  0
  6  7  1  0  0  0
  6  8  2  0  0  0
  8  9  1  0  0  0
  9 10  2  0  0  0
 10 11  1  0  0  0
 11 12  1  0  0  0
 12 13  1  0  0  0
 13 14  1  0  0  0
 10  1  1  0  0  0
 14 11  1  0  0  0
  9  3  1  0  0  0
 26 20  1  0  0  0
 30 24  1  0  0  0
 18 19  1  0  0  0
 13 15  1  0  0  0
M  END
> <minimizedAffinity>
-9.15329

> <minimizedRMSD>
0.52069

$$$$
P28125


 33 37  0  0  0  0  0  0  0  0999 V2000
   -4.7244    5.4573  -16.5507 N   0  0  0  0  0  0  0  0  0  0  0  0
   -5.5883    5.4172  -15.4878 C   0  0  0  0  0  0  0  0  0  0  0  0
   -6.8266    5.1053  -15.9807 C   0  0  0  0  0  0  0  0  0  0  0  0
   -8.0212    5.0034  -15.2644 C   0  0  0  0  0  0  0  0  0  0  0  0
   -9.0918    4.6765  -16.1197 C   0  0  0  0  0  0  0  0  0  0  0  0
   -8.9454    4.5215  -17.5450 C   0  0  0  0  0  0  0  0  0  0  0  0
  -10.3733    4.3143  -18.4899 Cl  0  0  0  0  0  0  0  0  0  0  0  0
   -7.7298    4.6288  -18.2553 C   0  0  0  0  0  0  0  0  0  0  0  0
   -6.6875    4.9252  -17.3889 C   0  0  0  0  0  0  0  0  0  0  0  0
   -5.3677    5.1423  -17.7239 C   0  0  0  0  0  0  0  0  0  0  0  0
   -4.7793    5.0473  -19.1709 C   0  0  0  0  0  0  0  0  0  0  0  0
   -3.2773    4.7650  -19.3988 C   0  0  0  0  0  0  0  0  0  0  0  0
   -3.3295    5.7082  -20.5549 N   0  0  0  0  0  0  0  0  0  0  0  0
   -4.4530    6.3915  -19.8540 C   0  0  0  0  0  0  0  0  0  0  0  0
   -3.5810    5.2780  -21.4449 H   0  0  0  0  0  0  0  0  0  0  0  0
   -8.1636    5.4643  -13.8698 C   0  0  0  0  0  0  0  0  0  0  0  0
   -8.1262    6.6217  -13.7049 O   0  0  0  0  0  0  0  0  0  0  0  0
   -8.2988    4.3083  -12.8473 N   0  0  0  0  0  0  0  0  0  0  0  0
   -8.3838    3.4125  -13.2467 H   0  0  0  0  0  0  0  0  0  0  0  0
   -8.3199    4.3305  -11.4475 C   0  0  0  0  0  0  0  0  0  0  0  0
   -7.7507    5.4039  -10.7645 C   0  0  0  0  0  0  0  0  0  0  0  0
   -7.7256    5.4533   -9.3607 C   0  0  0  0  0  0  0  0  0  0  0  0
   -7.1105    6.6537   -8.6974 C   0  0  0  0  0  0  0  0  0  0  0  0
   -8.3079    4.4104   -8.6131 C   0  0  0  0  0  0  0  0  0  0  0  0
   -8.8965    3.3293   -9.2953 C   0  0  0  0  0  0  0  0  0  0  0  0
   -8.8935    3.2963  -10.7117 C   0  0  0  0  0  0  0  0  0  0  0  0
   -9.6196    2.2383   -8.5420 C   0  0  0  0  0  0  0  0  0  0  0  0
   -9.4700    2.2288   -7.0227 C   0  0  0  0  0  0  0  0  0  0  0  0
   -9.3540    3.6141   -6.4228 C   0  0  0  0  0  0  0  0  0  0  0  0
   -8.2495    4.4171   -7.1004 C   0  0  0  0  0  0  0  0  0  0  0  0
   -3.0963    7.1678  -16.4202 C   0  0  0  0  0  0  0  0  0  0  0  0
   -3.3585    5.7347  -16.3956 N   0  0  0  0  0  0  0  0  0  0  0  0
   -3.0430    5.3557  -15.5027 H   0  0  0  0  0  0  0  0  0  0  0  0
 31 32  1  0  0  0
 32  1  1  0  0  0
  1  2  1  0  0  0
  2  3  2  0  0  0
  3  4  1  0  0  0
  4 16  1  0  0  0
 16 17  2  0  0  0
 16 18  1  0  0  0
 18 20  1  0  0  0
 20 21  2  0  0  0
 21 22  1  0  0  0
 22 23  1  0  0  0
 22 24  2  0  0  0
 24 25  1  0  0  0
 25 26  2  0  0  0
 25 27  1  0  0  0
 27 28  1  0  0  0
 28 29  1  0  0  0
 29 30  1  0  0  0
  4  5  2  0  0  0
  5  6  1  0  0  0
  6  7  1  0  0  0
  6  8  2  0  0  0
  8  9  1  0  0  0
  9 10  2  0  0  0
 10 11  1  0  0  0
 11 12  1  0  0  0
 12 13  1  0  0  0
 13 14  1  0  0  0
 10  1  1  0  0  0
 14 11  1  0  0  0
  9  3  1  0  0  0
 26 20  1  0  0  0
 30 24  1  0  0  0
 32 33  1  0  0  0
 18 19  1  0  0  0
 13 15  1  0  0  0
M  END
> <minimizedAffinity>
-9.20185

> <minimizedRMSD>
0.46632

$$$$
P28126


 29 33  0  0  0  0  0  0  0  0999 V2000
   -7.7736    5.1357  -15.3353 C   0  0  0  0  0  0  0  0  0  0  0  0
   -8.9361    4.7553  -16.0173 C   0  0  0  0  0  0  0  0  0  0  0  0
   -8.8896    4.5092  -17.3897 C   0  0  0  0  0  0  0  0  0  0  0  0
  -10.3414    4.1777  -18.2456 Cl  0  0  0  0  0  0  0  0  0  0  0  0
   -7.7025    4.6054  -18.1197 C   0  0  0  0  0  0  0  0  0  0  0  0
   -6.5447    4.9623  -17.4200 C   0  0  0  0  0  0  0  0  0  0  0  0
   -6.5588    5.2268  -16.0522 C   0  0  0  0  0  0  0  0  0  0  0  0
   -5.2203    5.5644  -15.7493 C   0  0  0  0  0  0  0  0  0  0  0  0
   -4.4161    5.5019  -16.8110 N   0  0  0  0  0  0  0  0  0  0  0  0
   -5.2396    5.1554  -17.8184 N   0  0  0  0  0  0  0  0  0  0  0  0
   -4.7867    4.9831  -19.2067 C   0  0  0  0  0  0  0  0  0  0  0  0
   -3.2627    4.8483  -19.3990 C   0  0  0  0  0  0  0  0  0  0  0  0
   -3.4023    5.7116  -20.6106 N   0  0  0  0  0  0  0  0  0  0  0  0
   -4.5939    6.3169  -19.9492 C   0  0  0  0  0  0  0  0  0  0  0  0
   -3.6037    5.2065  -21.4736 H   0  0  0  0  0  0  0  0  0  0  0  0
   -7.4664    6.7094  -13.7394 O   0  0  0  0  0  0  0  0  0  0  0  0
   -7.7989    5.6040  -13.9248 C   0  0  0  0  0  0  0  0  0  0  0  0
   -8.2523    4.5114  -12.9257 N   0  0  0  0  0  0  0  0  0  0  0  0
   -8.5578    3.6733  -13.3420 H   0  0  0  0  0  0  0  0  0  0  0  0
   -8.2984    4.5217  -11.5304 C   0  0  0  0  0  0  0  0  0  0  0  0
   -7.7564    5.5827  -10.8077 C   0  0  0  0  0  0  0  0  0  0  0  0
   -7.7425    5.5544   -9.4110 C   0  0  0  0  0  0  0  0  0  0  0  0
   -8.2969    4.4763   -8.7137 C   0  0  0  0  0  0  0  0  0  0  0  0
   -8.8938    3.4343   -9.4359 C   0  0  0  0  0  0  0  0  0  0  0  0
   -8.8755    3.4554  -10.8430 C   0  0  0  0  0  0  0  0  0  0  0  0
   -9.6542    2.3614   -8.7055 C   0  0  0  0  0  0  0  0  0  0  0  0
   -9.1506    2.1030   -7.2962 C   0  0  0  0  0  0  0  0  0  0  0  0
   -9.0790    3.4064   -6.5195 C   0  0  0  0  0  0  0  0  0  0  0  0
   -8.1591    4.4055   -7.2134 C   0  0  0  0  0  0  0  0  0  0  0  0
 16 17  2  0  0  0
 17 18  1  0  0  0
 18 20  1  0  0  0
 20 21  2  0  0  0
 21 22  1  0  0  0
 22 23  2  0  0  0
 23 24  1  0  0  0
 24 25  2  0  0  0
 24 26  1  0  0  0
 26 27  1  0  0  0
 27 28  1  0  0  0
 28 29  1  0  0  0
 17  1  1  0  0  0
  1  2  2  0  0  0
  2  3  1  0  0  0
  3  4  1  0  0  0
  3  5  2  0  0  0
  5  6  1  0  0  0
  6  7  2  0  0  0
  7  8  1  0  0  0
  8  9  2  0  0  0
  9 10  1  0  0  0
 10 11  1  0  0  0
 11 12  1  0  0  0
 12 13  1  0  0  0
 13 14  1  0  0  0
 25 20  1  0  0  0
  7  1  1  0  0  0
 14 11  1  0  0  0
 29 23  1  0  0  0
 10  6  1  0  0  0
 18 19  1  0  0  0
 13 15  1  0  0  0
M  END
> <minimizedAffinity>
-8.61454

> <minimizedRMSD>
0.35111

$$$$
P28128


 36 40  0  0  0  0  0  0  0  0999 V2000
   -5.5259    5.0612  -15.4870 C   0  0  0  0  0  0  0  0  0  0  0  0
   -4.6951    5.1065  -16.5424 N   0  0  0  0  0  0  0  0  0  0  0  0
   -5.4731    4.9784  -17.6215 N   0  0  0  0  0  0  0  0  0  0  0  0
   -6.8122    4.8182  -17.3199 C   0  0  0  0  0  0  0  0  0  0  0  0
   -7.9572    4.5490  -18.1019 C   0  0  0  0  0  0  0  0  0  0  0  0
   -9.2040    4.5358  -17.4654 C   0  0  0  0  0  0  0  0  0  0  0  0
  -10.6587    4.3581  -18.3734 Cl  0  0  0  0  0  0  0  0  0  0  0  0
   -9.3155    4.7381  -16.0906 C   0  0  0  0  0  0  0  0  0  0  0  0
   -8.1731    4.9582  -15.3124 C   0  0  0  0  0  0  0  0  0  0  0  0
   -6.8906    4.9681  -15.9243 C   0  0  0  0  0  0  0  0  0  0  0  0
   -4.8976    4.9741  -18.9787 C   0  0  0  0  0  0  0  0  0  0  0  0
   -3.3588    4.9477  -19.0642 C   0  0  0  0  0  0  0  0  0  0  0  0
   -3.4687    5.9054  -20.2065 N   0  0  0  0  0  0  0  0  0  0  0  0
   -4.7378    6.3795  -19.5861 C   0  0  0  0  0  0  0  0  0  0  0  0
   -3.5779    5.4680  -21.1215 H   0  0  0  0  0  0  0  0  0  0  0  0
   -8.3320    5.4361  -13.9181 C   0  0  0  0  0  0  0  0  0  0  0  0
   -8.4120    6.5957  -13.7821 O   0  0  0  0  0  0  0  0  0  0  0  0
   -8.3448    4.2964  -12.8644 N   0  0  0  0  0  0  0  0  0  0  0  0
   -8.3400    3.3868  -13.2409 H   0  0  0  0  0  0  0  0  0  0  0  0
   -8.3621    4.3518  -11.4652 C   0  0  0  0  0  0  0  0  0  0  0  0
   -7.7850    5.4291  -10.7982 C   0  0  0  0  0  0  0  0  0  0  0  0
   -7.7196    5.4526   -9.4031 C   0  0  0  0  0  0  0  0  0  0  0  0
   -8.2660    4.4146   -8.6413 C   0  0  0  0  0  0  0  0  0  0  0  0
   -8.8987    3.3495   -9.2977 C   0  0  0  0  0  0  0  0  0  0  0  0
   -8.9322    3.3204  -10.7128 C   0  0  0  0  0  0  0  0  0  0  0  0
   -9.6231    2.2868   -8.5091 C   0  0  0  0  0  0  0  0  0  0  0  0
   -9.3434    2.2510   -7.0075 C   0  0  0  0  0  0  0  0  0  0  0  0
   -9.1446    3.6241   -6.3899 C   0  0  0  0  0  0  0  0  0  0  0  0
   -8.0934    4.4304   -7.1436 C   0  0  0  0  0  0  0  0  0  0  0  0
   -4.9570    5.0266  -14.1264 C   0  0  0  0  0  0  0  0  0  0  0  0
   -4.2012    5.8869  -13.6844 O   0  0  0  0  0  0  0  0  0  0  0  0
   -5.2848    3.8870  -13.4522 O   0  0  0  0  0  0  0  0  0  0  0  0
   -5.2161    2.4857  -11.4422 C   0  0  0  0  0  0  0  0  0  0  0  0
   -4.6943    3.7211  -12.1542 C   0  0  0  0  0  0  0  0  0  0  0  0
   -7.7964    4.1582  -19.4684 C   0  0  0  0  0  0  0  0  0  0  0  0
   -7.6555    3.7071  -20.5317 N   0  0  0  0  0  0  0  0  0  0  0  0
 33 34  1  0  0  0
 34 32  1  0  0  0
 32 30  1  0  0  0
 30 31  2  0  0  0
 30  1  1  0  0  0
  1  2  2  0  0  0
  2  3  1  0  0  0
  3 11  1  0  0  0
 11 12  1  0  0  0
 12 13  1  0  0  0
 13 14  1  0  0  0
  3  4  1  0  0  0
  4  5  2  0  0  0
  5 35  1  0  0  0
 35 36  3  0  0  0
  5  6  1  0  0  0
  6  7  1  0  0  0
  6  8  2  0  0  0
  8  9  1  0  0  0
  9 16  1  0  0  0
 16 17  2  0  0  0
 16 18  1  0  0  0
 18 20  1  0  0  0
 20 21  2  0  0  0
 21 22  1  0  0  0
 22 23  2  0  0  0
 23 24  1  0  0  0
 24 25  2  0  0  0
 24 26  1  0  0  0
 26 27  1  0  0  0
 27 28  1  0  0  0
 28 29  1  0  0  0
  9 10  2  0  0  0
 10  1  1  0  0  0
 14 11  1  0  0  0
 10  4  1  0  0  0
 25 20  1  0  0  0
 29 23  1  0  0  0
 13 15  1  0  0  0
 18 19  1  0  0  0
M  END
> <minimizedAffinity>
-7.11207

> <minimizedRMSD>
0.94031

$$$$
P28129


 32 36  0  0  0  0  0  0  0  0999 V2000
   -4.7703    5.7567  -14.4844 N   0  0  0  0  0  0  0  0  0  0  0  0
   -5.2309    5.4528  -15.7084 C   0  0  0  0  0  0  0  0  0  0  0  0
   -4.4426    5.4065  -16.7744 N   0  0  0  0  0  0  0  0  0  0  0  0
   -5.2733    5.1057  -17.7862 N   0  0  0  0  0  0  0  0  0  0  0  0
   -6.5819    4.9339  -17.3939 C   0  0  0  0  0  0  0  0  0  0  0  0
   -7.7473    4.6336  -18.1086 C   0  0  0  0  0  0  0  0  0  0  0  0
   -8.9379    4.5414  -17.3858 C   0  0  0  0  0  0  0  0  0  0  0  0
  -10.3969    4.2917  -18.2560 Cl  0  0  0  0  0  0  0  0  0  0  0  0
   -8.9816    4.7398  -16.0071 C   0  0  0  0  0  0  0  0  0  0  0  0
   -7.8138    5.0786  -15.3134 C   0  0  0  0  0  0  0  0  0  0  0  0
   -6.5870    5.1585  -16.0172 C   0  0  0  0  0  0  0  0  0  0  0  0
   -3.8139    5.9487  -14.3520 H   0  0  0  0  0  0  0  0  0  0  0  0
   -5.3891    5.7875  -13.7192 H   0  0  0  0  0  0  0  0  0  0  0  0
   -4.8282    4.9778  -19.1828 C   0  0  0  0  0  0  0  0  0  0  0  0
   -3.3066    4.8349  -19.3882 C   0  0  0  0  0  0  0  0  0  0  0  0
   -3.4430    5.7438  -20.5662 N   0  0  0  0  0  0  0  0  0  0  0  0
   -4.6264    6.3353  -19.8789 C   0  0  0  0  0  0  0  0  0  0  0  0
   -3.6521    5.2729  -21.4465 H   0  0  0  0  0  0  0  0  0  0  0  0
   -7.8741    5.5565  -13.9091 C   0  0  0  0  0  0  0  0  0  0  0  0
   -7.5529    6.6668  -13.7273 O   0  0  0  0  0  0  0  0  0  0  0  0
   -8.3397    4.4689  -12.9080 N   0  0  0  0  0  0  0  0  0  0  0  0
   -8.6311    3.6248  -13.3225 H   0  0  0  0  0  0  0  0  0  0  0  0
   -8.4131    4.4917  -11.5122 C   0  0  0  0  0  0  0  0  0  0  0  0
   -7.9516    5.6047  -10.8094 C   0  0  0  0  0  0  0  0  0  0  0  0
   -7.9125    5.6000   -9.4146 C   0  0  0  0  0  0  0  0  0  0  0  0
   -8.3421    4.4808   -8.6993 C   0  0  0  0  0  0  0  0  0  0  0  0
   -8.8552    3.3757   -9.3915 C   0  0  0  0  0  0  0  0  0  0  0  0
   -8.8881    3.3874  -10.8026 C   0  0  0  0  0  0  0  0  0  0  0  0
   -9.2686    2.1428   -8.6297 C   0  0  0  0  0  0  0  0  0  0  0  0
   -9.6126    2.3245   -7.1440 C   0  0  0  0  0  0  0  0  0  0  0  0
   -9.3378    3.6999   -6.5472 C   0  0  0  0  0  0  0  0  0  0  0  0
   -8.1715    4.4171   -7.2058 C   0  0  0  0  0  0  0  0  0  0  0  0
  1  2  1  0  0  0
  2  3  2  0  0  0
  3  4  1  0  0  0
  4 14  1  0  0  0
 14 15  1  0  0  0
 15 16  1  0  0  0
 16 17  1  0  0  0
  4  5  1  0  0  0
  5  6  2  0  0  0
  6  7  1  0  0  0
  7  8  1  0  0  0
  7  9  2  0  0  0
  9 10  1  0  0  0
 10 19  1  0  0  0
 19 20  2  0  0  0
 19 21  1  0  0  0
 21 23  1  0  0  0
 23 24  2  0  0  0
 24 25  1  0  0  0
 25 26  2  0  0  0
 26 27  1  0  0  0
 27 28  2  0  0  0
 27 29  1  0  0  0
 29 30  1  0  0  0
 30 31  1  0  0  0
 31 32  1  0  0  0
 10 11  2  0  0  0
 11  2  1  0  0  0
 17 14  1  0  0  0
 11  5  1  0  0  0
 28 23  1  0  0  0
 32 26  1  0  0  0
  1 12  1  0  0  0
  1 13  1  0  0  0
 16 18  1  0  0  0
 21 22  1  0  0  0
M  END
> <minimizedAffinity>
-9.05333

> <minimizedRMSD>
0.37855

$$$$
P28135


 33 37  0  0  0  0  0  0  0  0999 V2000
   -7.0365    4.9406  -13.3654 C   0  0  0  0  0  0  0  0  0  0  0  0
   -6.1069    4.1089  -12.7334 O   0  0  0  0  0  0  0  0  0  0  0  0
   -6.6206    6.2779  -13.3855 O   0  0  0  0  0  0  0  0  0  0  0  0
   -6.2751    3.1902  -12.6583 H   0  0  0  0  0  0  0  0  0  0  0  0
   -7.1619    6.9310  -13.7834 H   0  0  0  0  0  0  0  0  0  0  0  0
   -7.0822    4.6473  -14.8566 C   0  0  0  0  0  0  0  0  0  0  0  0
   -8.3197    4.5439  -15.5348 C   0  0  0  0  0  0  0  0  0  0  0  0
   -8.3991    4.6216  -16.9242 C   0  0  0  0  0  0  0  0  0  0  0  0
   -9.9372    4.5269  -17.6935 Cl  0  0  0  0  0  0  0  0  0  0  0  0
   -7.2704    4.8580  -17.7109 C   0  0  0  0  0  0  0  0  0  0  0  0
   -6.0291    4.9209  -17.0667 C   0  0  0  0  0  0  0  0  0  0  0  0
   -5.9217    4.7569  -15.6800 C   0  0  0  0  0  0  0  0  0  0  0  0
   -4.5286    4.8117  -15.4381 C   0  0  0  0  0  0  0  0  0  0  0  0
   -3.8098    4.9820  -16.5437 N   0  0  0  0  0  0  0  0  0  0  0  0
   -4.7396    5.1872  -17.4980 N   0  0  0  0  0  0  0  0  0  0  0  0
   -4.3192    5.9882  -18.6574 C   0  0  0  0  0  0  0  0  0  0  0  0
   -3.0414    5.4266  -19.3174 C   0  0  0  0  0  0  0  0  0  0  0  0
   -3.5977    5.8898  -20.6133 N   0  0  0  0  0  0  0  0  0  0  0  0
   -4.9503    5.7376  -20.0179 C   0  0  0  0  0  0  0  0  0  0  0  0
   -3.4088    5.2712  -21.4020 H   0  0  0  0  0  0  0  0  0  0  0  0
   -8.2845    4.9235  -12.6457 N   0  0  0  0  0  0  0  0  0  0  0  0
   -9.1214    4.9034  -13.1639 H   0  0  0  0  0  0  0  0  0  0  0  0
   -7.9459    7.4870  -10.7824 C   0  0  0  0  0  0  0  0  0  0  0  0
   -8.2223    6.0608  -10.3779 C   0  0  0  0  0  0  0  0  0  0  0  0
   -8.3587    5.9076   -8.9815 C   0  0  0  0  0  0  0  0  0  0  0  0
   -8.6479    4.6872   -8.3834 C   0  0  0  0  0  0  0  0  0  0  0  0
   -8.8215    3.5722   -9.2002 C   0  0  0  0  0  0  0  0  0  0  0  0
   -8.6810    3.7037  -10.6008 C   0  0  0  0  0  0  0  0  0  0  0  0
   -8.3710    4.9342  -11.2292 C   0  0  0  0  0  0  0  0  0  0  0  0
   -9.1228    2.2319   -8.5885 C   0  0  0  0  0  0  0  0  0  0  0  0
   -9.6972    2.3135   -7.1735 C   0  0  0  0  0  0  0  0  0  0  0  0
   -8.9184    3.2718   -6.2885 C   0  0  0  0  0  0  0  0  0  0  0  0
   -8.8504    4.6625   -6.8903 C   0  0  0  0  0  0  0  0  0  0  0  0
 23 24  1  0  0  0
 24 25  2  0  0  0
 25 26  1  0  0  0
 26 27  2  0  0  0
 27 28  1  0  0  0
 28 29  2  0  0  0
 29 21  1  0  0  0
 21  1  1  0  0  0
  1  2  1  0  0  0
  1  3  1  0  0  0
  1  6  1  0  0  0
  6  7  2  0  0  0
  7  8  1  0  0  0
  8  9  1  0  0  0
  8 10  2  0  0  0
 10 11  1  0  0  0
 11 12  2  0  0  0
 12 13  1  0  0  0
 13 14  2  0  0  0
 14 15  1  0  0  0
 15 16  1  0  0  0
 16 17  1  0  0  0
 17 18  1  0  0  0
 18 19  1  0  0  0
 27 30  1  0  0  0
 30 31  1  0  0  0
 31 32  1  0  0  0
 32 33  1  0  0  0
 29 24  1  0  0  0
 12  6  1  0  0  0
 19 16  1  0  0  0
 33 26  1  0  0  0
 15 11  1  0  0  0
 21 22  1  0  0  0
  2  4  1  0  0  0
  3  5  1  0  0  0
 18 20  1  0  0  0
M  END
> <minimizedAffinity>
-8.04865

> <minimizedRMSD>
0.62356

$$$$
P28136


 32 36  0  0  0  0  0  0  0  0999 V2000
   -4.9849    5.3444  -17.0425 N   0  0  0  0  0  0  0  0  0  0  0  0
   -4.4951    5.4309  -15.7847 N   0  0  0  0  0  0  0  0  0  0  0  0
   -5.5645    5.3231  -15.0076 C   0  0  0  0  0  0  0  0  0  0  0  0
   -6.7386    5.0547  -15.7353 C   0  0  0  0  0  0  0  0  0  0  0  0
   -8.0965    4.8773  -15.3856 C   0  0  0  0  0  0  0  0  0  0  0  0
   -9.0187    4.5608  -16.3803 C   0  0  0  0  0  0  0  0  0  0  0  0
   -8.5992    4.5072  -17.7105 C   0  0  0  0  0  0  0  0  0  0  0  0
   -9.7734    4.2166  -18.9368 Cl  0  0  0  0  0  0  0  0  0  0  0  0
   -7.2710    4.7696  -18.0930 C   0  0  0  0  0  0  0  0  0  0  0  0
   -6.3350    5.0268  -17.0772 C   0  0  0  0  0  0  0  0  0  0  0  0
   -4.7129    6.2392  -19.4105 C   0  0  0  0  0  0  0  0  0  0  0  0
   -3.6104    5.5537  -20.1451 N   0  0  0  0  0  0  0  0  0  0  0  0
   -3.4014    4.6753  -18.9629 C   0  0  0  0  0  0  0  0  0  0  0  0
   -4.0522    5.7411  -18.1097 C   0  0  0  0  0  0  0  0  0  0  0  0
   -2.8167    6.1547  -20.3670 H   0  0  0  0  0  0  0  0  0  0  0  0
   -5.2769    8.0986  -21.0232 C   0  0  0  0  0  0  0  0  0  0  0  0
   -4.7161    7.7589  -19.6420 C   0  0  0  0  0  0  0  0  0  0  0  0
   -5.5585    8.4478  -18.5678 C   0  0  0  0  0  0  0  0  0  0  0  0
   -8.5076    5.2801  -14.0160 C   0  0  0  0  0  0  0  0  0  0  0  0
   -8.9462    6.3607  -13.9261 O   0  0  0  0  0  0  0  0  0  0  0  0
   -8.2113    4.2233  -12.9240 N   0  0  0  0  0  0  0  0  0  0  0  0
   -7.9113    3.3502  -13.2659 H   0  0  0  0  0  0  0  0  0  0  0  0
   -8.3006    4.3075  -11.5280 C   0  0  0  0  0  0  0  0  0  0  0  0
   -7.8008    5.4303  -10.8677 C   0  0  0  0  0  0  0  0  0  0  0  0
   -7.8166    5.5057   -9.4729 C   0  0  0  0  0  0  0  0  0  0  0  0
   -8.3490    4.4641   -8.7067 C   0  0  0  0  0  0  0  0  0  0  0  0
   -8.8747    3.3392   -9.3550 C   0  0  0  0  0  0  0  0  0  0  0  0
   -8.8449    3.2685  -10.7699 C   0  0  0  0  0  0  0  0  0  0  0  0
   -9.4689    2.2016   -8.5585 C   0  0  0  0  0  0  0  0  0  0  0  0
   -9.5399    2.3603   -7.0355 C   0  0  0  0  0  0  0  0  0  0  0  0
   -9.4334    3.7875   -6.5324 C   0  0  0  0  0  0  0  0  0  0  0  0
   -8.2870    4.5295   -7.2035 C   0  0  0  0  0  0  0  0  0  0  0  0
 16 17  1  0  0  0
 17 18  1  0  0  0
 11 17  1  0  0  0
 11 12  1  0  0  0
 12 13  1  0  0  0
 13 14  1  0  0  0
 14  1  1  0  0  0
  1  2  1  0  0  0
  2  3  2  0  0  0
  3  4  1  0  0  0
  4  5  2  0  0  0
  5 19  1  0  0  0
 19 20  2  0  0  0
 19 21  1  0  0  0
 21 23  1  0  0  0
 23 24  2  0  0  0
 24 25  1  0  0  0
 25 26  2  0  0  0
 26 27  1  0  0  0
 27 28  2  0  0  0
 27 29  1  0  0  0
 29 30  1  0  0  0
 30 31  1  0  0  0
 31 32  1  0  0  0
  5  6  1  0  0  0
  6  7  2  0  0  0
  7  8  1  0  0  0
  7  9  1  0  0  0
  9 10  2  0  0  0
 14 11  1  0  0  0
 10  1  1  0  0  0
 10  4  1  0  0  0
 28 23  1  0  0  0
 32 26  1  0  0  0
 12 15  1  0  0  0
 21 22  1  0  0  0
M  END
> <minimizedAffinity>
-9.17078

> <minimizedRMSD>
0.79229

$$$$
P28137


 31 33  0  0  0  0  0  0  0  0999 V2000
   -8.6767    5.2251  -14.0651 C   0  0  0  0  0  0  0  0  0  0  0  0
   -9.4670    6.0842  -14.0203 O   0  0  0  0  0  0  0  0  0  0  0  0
   -8.0694    4.3622  -12.9349 N   0  0  0  0  0  0  0  0  0  0  0  0
   -7.4714    3.6428  -13.2417 H   0  0  0  0  0  0  0  0  0  0  0  0
   -8.2306    4.4372  -11.5539 C   0  0  0  0  0  0  0  0  0  0  0  0
   -7.7966    5.5658  -10.8611 C   0  0  0  0  0  0  0  0  0  0  0  0
   -7.8565    5.6063   -9.4706 C   0  0  0  0  0  0  0  0  0  0  0  0
   -8.3821    4.5291   -8.7529 C   0  0  0  0  0  0  0  0  0  0  0  0
   -8.8985    3.4265   -9.4511 C   0  0  0  0  0  0  0  0  0  0  0  0
   -8.7992    3.3761  -10.8528 C   0  0  0  0  0  0  0  0  0  0  0  0
   -9.6453    2.3598   -8.7090 C   0  0  0  0  0  0  0  0  0  0  0  0
   -9.1253    2.1388   -7.3039 C   0  0  0  0  0  0  0  0  0  0  0  0
   -9.0659    3.4482   -6.5157 C   0  0  0  0  0  0  0  0  0  0  0  0
   -8.4642    3.1989   -5.1899 N   0  0  0  0  0  0  0  0  0  0  0  0
   -8.2720    4.5429   -7.2485 C   0  0  0  0  0  0  0  0  0  0  0  0
   -7.5090    2.8612   -5.3080 H   0  0  0  0  0  0  0  0  0  0  0  0
   -9.0138    2.4976   -4.6935 H   0  0  0  0  0  0  0  0  0  0  0  0
   -6.7318    5.1025  -15.6643 C   0  0  0  0  0  0  0  0  0  0  0  0
   -6.3090    5.0992  -17.0087 C   0  0  0  0  0  0  0  0  0  0  0  0
   -4.9624    5.2785  -17.3683 N   0  0  0  0  0  0  0  0  0  0  0  0
   -7.2104    4.7592  -18.0232 C   0  0  0  0  0  0  0  0  0  0  0  0
   -8.5449    4.5080  -17.7350 C   0  0  0  0  0  0  0  0  0  0  0  0
   -9.6446    4.2344  -19.0221 Cl  0  0  0  0  0  0  0  0  0  0  0  0
   -9.0093    4.5773  -16.4301 C   0  0  0  0  0  0  0  0  0  0  0  0
   -8.1147    4.8970  -15.4053 C   0  0  0  0  0  0  0  0  0  0  0  0
   -4.2976    5.5182  -16.6829 H   0  0  0  0  0  0  0  0  0  0  0  0
   -4.6838    5.1644  -18.3056 H   0  0  0  0  0  0  0  0  0  0  0  0
   -4.9468    4.3159  -14.0553 N   0  0  0  0  0  0  0  0  0  0  0  0
   -5.8052    5.4213  -14.5001 C   0  0  0  0  0  0  0  0  0  0  0  0
   -4.3671    4.6279  -13.2762 H   0  0  0  0  0  0  0  0  0  0  0  0
   -4.3487    4.0184  -14.8262 H   0  0  0  0  0  0  0  0  0  0  0  0
 28 29  1  0  0  0
 29 18  1  0  0  0
 18 19  2  0  0  0
 19 20  1  0  0  0
 19 21  1  0  0  0
 21 22  2  0  0  0
 22 23  1  0  0  0
 22 24  1  0  0  0
 24 25  2  0  0  0
 25  1  1  0  0  0
  1  2  2  0  0  0
  1  3  1  0  0  0
  3  5  1  0  0  0
  5  6  2  0  0  0
  6  7  1  0  0  0
  7  8  2  0  0  0
  8  9  1  0  0  0
  9 10  2  0  0  0
  9 11  1  0  0  0
 11 12  1  0  0  0
 12 13  1  0  0  0
 13 14  1  0  0  0
 13 15  1  0  0  0
 25 18  1  0  0  0
 10  5  1  0  0  0
 15  8  1  0  0  0
 28 30  1  0  0  0
 28 31  1  0  0  0
 20 26  1  0  0  0
 20 27  1  0  0  0
  3  4  1  0  0  0
 14 16  1  0  0  0
 14 17  1  0  0  0
M  END
> <minimizedAffinity>
-8.71085

> <minimizedRMSD>
0.98204

$$$$
P28138


 38 43  0  0  0  0  0  0  0  0999 V2000
   -8.0721    5.0385  -15.3537 C   0  0  0  0  0  0  0  0  0  0  0  0
   -9.1721    4.7240  -16.1765 C   0  0  0  0  0  0  0  0  0  0  0  0
   -9.0462    4.5321  -17.5914 C   0  0  0  0  0  0  0  0  0  0  0  0
  -10.4947    4.3222  -18.5032 Cl  0  0  0  0  0  0  0  0  0  0  0  0
   -7.8348    4.5979  -18.3170 C   0  0  0  0  0  0  0  0  0  0  0  0
   -6.7653    4.9085  -17.4844 C   0  0  0  0  0  0  0  0  0  0  0  0
   -5.4542    5.1346  -17.8550 C   0  0  0  0  0  0  0  0  0  0  0  0
   -4.7789    5.5246  -16.7025 N   0  0  0  0  0  0  0  0  0  0  0  0
   -5.6327    5.4271  -15.6143 C   0  0  0  0  0  0  0  0  0  0  0  0
   -6.8801    5.1149  -16.0816 C   0  0  0  0  0  0  0  0  0  0  0  0
   -4.9171    5.0068  -19.3340 C   0  0  0  0  0  0  0  0  0  0  0  0
   -3.4023    4.8522  -19.5426 C   0  0  0  0  0  0  0  0  0  0  0  0
   -3.4064    5.9970  -20.4644 N   0  0  0  0  0  0  0  0  0  0  0  0
   -4.7963    6.3254  -20.1113 C   0  0  0  0  0  0  0  0  0  0  0  0
   -3.2813    5.7373  -21.4428 H   0  0  0  0  0  0  0  0  0  0  0  0
   -8.3670    4.2750  -12.9853 N   0  0  0  0  0  0  0  0  0  0  0  0
   -8.2005    5.4702  -13.9539 C   0  0  0  0  0  0  0  0  0  0  0  0
   -8.1610    6.6182  -13.7404 O   0  0  0  0  0  0  0  0  0  0  0  0
   -8.4469    3.3972  -13.4237 H   0  0  0  0  0  0  0  0  0  0  0  0
   -7.0674    7.6151   -9.3119 N   0  0  0  0  0  0  0  0  0  0  0  0
   -7.3388    6.3713   -8.5918 C   0  0  0  0  0  0  0  0  0  0  0  0
   -8.3057    6.6422   -7.4374 C   0  0  0  0  0  0  0  0  0  0  0  0
   -8.6596    5.3720   -6.6363 C   0  0  0  0  0  0  0  0  0  0  0  0
   -8.2831    4.0436   -7.2983 C   0  0  0  0  0  0  0  0  0  0  0  0
   -8.3886    4.1132   -8.7968 C   0  0  0  0  0  0  0  0  0  0  0  0
   -8.8770    3.0383   -9.5443 C   0  0  0  0  0  0  0  0  0  0  0  0
   -8.9010    3.1078  -10.9402 C   0  0  0  0  0  0  0  0  0  0  0  0
   -8.4221    4.2392  -11.5942 C   0  0  0  0  0  0  0  0  0  0  0  0
   -7.9440    5.3151  -10.8476 C   0  0  0  0  0  0  0  0  0  0  0  0
   -7.9125    5.2654   -9.4502 C   0  0  0  0  0  0  0  0  0  0  0  0
   -6.6848    8.3055   -8.6658 H   0  0  0  0  0  0  0  0  0  0  0  0
   -7.9342    7.9706   -9.7152 H   0  0  0  0  0  0  0  0  0  0  0  0
   -3.3821    5.9617  -16.5829 C   0  0  0  0  0  0  0  0  0  0  0  0
   -3.3221    7.3857  -16.2473 N   0  0  0  0  0  0  0  0  0  0  0  0
   -2.1508    7.7091  -15.4359 C   0  0  0  0  0  0  0  0  0  0  0  0
   -2.0865    9.2269  -15.5124 C   0  0  0  0  0  0  0  0  0  0  0  0
   -2.8031    9.5915  -16.8081 C   0  0  0  0  0  0  0  0  0  0  0  0
   -3.2279    8.2627  -17.4152 C   0  0  0  0  0  0  0  0  0  0  0  0
 21 20  1  0  0  0
 21 22  1  0  0  0
 22 23  1  0  0  0
 23 24  1  0  0  0
 24 25  1  0  0  0
 25 26  2  0  0  0
 26 27  1  0  0  0
 27 28  2  0  0  0
 28 16  1  0  0  0
 16 17  1  0  0  0
 17 18  2  0  0  0
 17  1  1  0  0  0
  1  2  2  0  0  0
  2  3  1  0  0  0
  3  4  1  0  0  0
  3  5  2  0  0  0
  5  6  1  0  0  0
  6  7  2  0  0  0
  7 11  1  0  0  0
 11 12  1  0  0  0
 12 13  1  0  0  0
 13 14  1  0  0  0
  7  8  1  0  0  0
  8 33  1  0  0  0
 33 34  1  0  0  0
 34 35  1  0  0  0
 35 36  1  0  0  0
 36 37  1  0  0  0
 37 38  1  0  0  0
  8  9  1  0  0  0
  9 10  2  0  0  0
 28 29  1  0  0  0
 29 30  2  0  0  0
 30 21  1  0  0  0
 30 25  1  0  0  0
 10  1  1  0  0  0
 10  6  1  0  0  0
 14 11  1  0  0  0
 38 34  1  0  0  0
 20 31  1  0  0  0
 20 32  1  0  0  0
 16 19  1  0  0  0
 13 15  1  0  0  0
M  END
> <minimizedAffinity>
-8.09444

> <minimizedRMSD>
0.69238

$$$$
P28139


 35 39  0  0  0  0  0  0  0  0999 V2000
   -4.5858    5.8279  -16.5746 C   0  0  0  0  0  0  0  0  0  0  0  0
   -5.4790    5.6780  -15.5239 C   0  0  0  0  0  0  0  0  0  0  0  0
   -6.7171    5.2044  -16.0030 C   0  0  0  0  0  0  0  0  0  0  0  0
   -7.9831    5.0013  -15.3988 C   0  0  0  0  0  0  0  0  0  0  0  0
   -9.0559    4.5600  -16.1690 C   0  0  0  0  0  0  0  0  0  0  0  0
   -8.8808    4.3855  -17.5369 C   0  0  0  0  0  0  0  0  0  0  0  0
  -10.2520    4.0367  -18.5095 Cl  0  0  0  0  0  0  0  0  0  0  0  0
   -7.6441    4.5920  -18.1632 C   0  0  0  0  0  0  0  0  0  0  0  0
   -6.5544    5.0043  -17.3726 C   0  0  0  0  0  0  0  0  0  0  0  0
   -5.2345    5.3367  -17.7019 N   0  0  0  0  0  0  0  0  0  0  0  0
   -4.7907    5.1825  -19.1113 C   0  0  0  0  0  0  0  0  0  0  0  0
   -3.3279    4.9349  -19.4786 C   0  0  0  0  0  0  0  0  0  0  0  0
   -3.4942    5.8862  -20.6103 N   0  0  0  0  0  0  0  0  0  0  0  0
   -4.6143    6.5111  -19.8599 C   0  0  0  0  0  0  0  0  0  0  0  0
   -3.7665    5.4512  -21.4918 H   0  0  0  0  0  0  0  0  0  0  0  0
   -8.2106    5.5656  -14.0466 C   0  0  0  0  0  0  0  0  0  0  0  0
   -8.2060    6.7335  -13.9826 O   0  0  0  0  0  0  0  0  0  0  0  0
   -8.3878    4.4998  -12.9360 N   0  0  0  0  0  0  0  0  0  0  0  0
   -8.4302    3.5708  -13.2590 H   0  0  0  0  0  0  0  0  0  0  0  0
   -8.4975    4.6432  -11.5484 C   0  0  0  0  0  0  0  0  0  0  0  0
   -8.3284    5.9159  -11.0050 C   0  0  0  0  0  0  0  0  0  0  0  0
   -8.3433    6.1123   -9.6305 C   0  0  0  0  0  0  0  0  0  0  0  0
   -8.5029    5.0308   -8.7621 C   0  0  0  0  0  0  0  0  0  0  0  0
   -8.7182    3.7361   -9.2821 C   0  0  0  0  0  0  0  0  0  0  0  0
   -8.7153    3.5573  -10.6923 C   0  0  0  0  0  0  0  0  0  0  0  0
   -8.7826    2.5565   -8.3195 C   0  0  0  0  0  0  0  0  0  0  0  0
   -9.8042    1.5763   -8.6458 N   0  0  0  0  0  0  0  0  0  0  0  0
   -9.0224    2.9427   -6.8519 C   0  0  0  0  0  0  0  0  0  0  0  0
   -8.1223    4.0946   -6.4485 C   0  0  0  0  0  0  0  0  0  0  0  0
   -8.4741    5.3139   -7.2813 C   0  0  0  0  0  0  0  0  0  0  0  0
  -10.7269    1.9946   -8.5271 H   0  0  0  0  0  0  0  0  0  0  0  0
   -9.7134    0.7714   -8.0260 H   0  0  0  0  0  0  0  0  0  0  0  0
   -2.9976    7.7847  -17.0975 C   0  0  0  0  0  0  0  0  0  0  0  0
   -3.2283    6.4639  -16.3731 C   0  0  0  0  0  0  0  0  0  0  0  0
   -2.0783    5.4669  -16.4331 C   0  0  0  0  0  0  0  0  0  0  0  0
 33 34  1  0  0  0
 34 35  1  0  0  0
 34  1  1  0  0  0
  1  2  2  0  0  0
  2  3  1  0  0  0
  3  4  2  0  0  0
  4 16  1  0  0  0
 16 17  2  0  0  0
 16 18  1  0  0  0
 18 20  1  0  0  0
 20 21  2  0  0  0
 21 22  1  0  0  0
 22 23  2  0  0  0
 23 24  1  0  0  0
 24 25  2  0  0  0
 24 26  1  0  0  0
 26 27  1  0  0  0
 26 28  1  0  0  0
 28 29  1  0  0  0
 29 30  1  0  0  0
  4  5  1  0  0  0
  5  6  2  0  0  0
  6  7  1  0  0  0
  6  8  1  0  0  0
  8  9  2  0  0  0
  9 10  1  0  0  0
 10 11  1  0  0  0
 11 12  1  0  0  0
 12 13  1  0  0  0
 13 14  1  0  0  0
 10  1  1  0  0  0
 14 11  1  0  0  0
  9  3  1  0  0  0
 25 20  1  0  0  0
 30 23  1  0  0  0
 18 19  1  0  0  0
 27 31  1  0  0  0
 27 32  1  0  0  0
 13 15  1  0  0  0
M  END
> <minimizedAffinity>
-8.74448

> <minimizedRMSD>
0.39192

$$$$
P28141


 32 36  0  0  0  0  0  0  0  0999 V2000
   -7.1555    4.6978  -13.5236 C   0  0  0  0  0  0  0  0  0  0  0  0
   -6.2955    3.6323  -13.1256 O   0  0  0  0  0  0  0  0  0  0  0  0
   -6.2156    3.6252  -12.1589 H   0  0  0  0  0  0  0  0  0  0  0  0
   -7.2236    4.6335  -15.0599 C   0  0  0  0  0  0  0  0  0  0  0  0
   -8.4304    4.5694  -15.7884 C   0  0  0  0  0  0  0  0  0  0  0  0
   -8.4502    4.6520  -17.1829 C   0  0  0  0  0  0  0  0  0  0  0  0
   -9.9464    4.5041  -18.0218 Cl  0  0  0  0  0  0  0  0  0  0  0  0
   -7.2925    4.9063  -17.9234 C   0  0  0  0  0  0  0  0  0  0  0  0
   -6.0820    4.9692  -17.2237 C   0  0  0  0  0  0  0  0  0  0  0  0
   -6.0359    4.7706  -15.8399 C   0  0  0  0  0  0  0  0  0  0  0  0
   -4.6562    4.7927  -15.5300 C   0  0  0  0  0  0  0  0  0  0  0  0
   -3.8899    5.0191  -16.5893 N   0  0  0  0  0  0  0  0  0  0  0  0
   -4.7708    5.2305  -17.5901 N   0  0  0  0  0  0  0  0  0  0  0  0
   -4.2929    6.0320  -18.7286 C   0  0  0  0  0  0  0  0  0  0  0  0
   -3.0581    5.3985  -19.4083 C   0  0  0  0  0  0  0  0  0  0  0  0
   -3.5912    5.9093  -20.6941 N   0  0  0  0  0  0  0  0  0  0  0  0
   -4.9458    5.8550  -20.0903 C   0  0  0  0  0  0  0  0  0  0  0  0
   -3.4554    5.2836  -21.4881 H   0  0  0  0  0  0  0  0  0  0  0  0
   -6.0520    7.0759  -13.0144 N   0  0  0  0  0  0  0  0  0  0  0  0
   -6.5416    6.0366  -13.2105 C   0  0  0  0  0  0  0  0  0  0  0  0
   -8.4516    4.4658  -12.8663 N   0  0  0  0  0  0  0  0  0  0  0  0
   -9.2603    4.2797  -13.3960 H   0  0  0  0  0  0  0  0  0  0  0  0
   -8.5056    4.5171  -11.4527 C   0  0  0  0  0  0  0  0  0  0  0  0
   -8.2732    5.6978  -10.7420 C   0  0  0  0  0  0  0  0  0  0  0  0
   -8.2821    5.7298   -9.3448 C   0  0  0  0  0  0  0  0  0  0  0  0
   -8.5788    4.5853   -8.6033 C   0  0  0  0  0  0  0  0  0  0  0  0
   -8.8707    3.3995   -9.2871 C   0  0  0  0  0  0  0  0  0  0  0  0
   -8.8060    3.3712  -10.7008 C   0  0  0  0  0  0  0  0  0  0  0  0
   -9.2315    2.1511   -8.5199 C   0  0  0  0  0  0  0  0  0  0  0  0
   -9.7730    2.4295   -7.1195 C   0  0  0  0  0  0  0  0  0  0  0  0
   -8.8892    3.3969   -6.3531 C   0  0  0  0  0  0  0  0  0  0  0  0
   -8.6890    4.7055   -7.1042 C   0  0  0  0  0  0  0  0  0  0  0  0
 19 20  3  0  0  0
 20  1  1  0  0  0
  1  2  1  0  0  0
  1 21  1  0  0  0
 21 23  1  0  0  0
 23 24  2  0  0  0
 24 25  1  0  0  0
 25 26  2  0  0  0
 26 27  1  0  0  0
 27 28  2  0  0  0
 27 29  1  0  0  0
 29 30  1  0  0  0
 30 31  1  0  0  0
 31 32  1  0  0  0
  1  4  1  0  0  0
  4  5  2  0  0  0
  5  6  1  0  0  0
  6  7  1  0  0  0
  6  8  2  0  0  0
  8  9  1  0  0  0
  9 10  2  0  0  0
 10 11  1  0  0  0
 11 12  2  0  0  0
 12 13  1  0  0  0
 13 14  1  0  0  0
 14 15  1  0  0  0
 15 16  1  0  0  0
 16 17  1  0  0  0
 28 23  1  0  0  0
 10  4  1  0  0  0
 17 14  1  0  0  0
 32 26  1  0  0  0
 13  9  1  0  0  0
  2  3  1  0  0  0
 21 22  1  0  0  0
 16 18  1  0  0  0
M  END
> <minimizedAffinity>
-8.25666

> <minimizedRMSD>
0.33247

$$$$
P28143


 38 42  0  0  0  0  0  0  0  0999 V2000
   -7.3512    5.2146  -13.5029 C   0  0  0  0  0  0  0  0  0  0  0  0
   -6.1550    4.5685  -13.1115 O   0  0  0  0  0  0  0  0  0  0  0  0
   -6.0156    4.6949  -12.1599 H   0  0  0  0  0  0  0  0  0  0  0  0
   -7.4788    4.9548  -15.0208 C   0  0  0  0  0  0  0  0  0  0  0  0
   -8.7163    4.6973  -15.6613 C   0  0  0  0  0  0  0  0  0  0  0  0
   -8.8205    4.5616  -17.0533 C   0  0  0  0  0  0  0  0  0  0  0  0
  -10.3458    4.3246  -17.8150 Cl  0  0  0  0  0  0  0  0  0  0  0  0
   -7.7132    4.6848  -17.8872 C   0  0  0  0  0  0  0  0  0  0  0  0
   -6.4866    4.9399  -17.2752 C   0  0  0  0  0  0  0  0  0  0  0  0
   -6.3534    5.0692  -15.8924 C   0  0  0  0  0  0  0  0  0  0  0  0
   -4.9711    5.3265  -15.7137 C   0  0  0  0  0  0  0  0  0  0  0  0
   -4.2842    5.3411  -16.8549 N   0  0  0  0  0  0  0  0  0  0  0  0
   -5.2208    5.1224  -17.7933 N   0  0  0  0  0  0  0  0  0  0  0  0
   -4.9036    5.0668  -19.2304 C   0  0  0  0  0  0  0  0  0  0  0  0
   -3.3979    4.9824  -19.5703 C   0  0  0  0  0  0  0  0  0  0  0  0
   -3.6647    5.9224  -20.7009 N   0  0  0  0  0  0  0  0  0  0  0  0
   -4.7928    6.4569  -19.8828 C   0  0  0  0  0  0  0  0  0  0  0  0
   -3.9442    5.4737  -21.5732 H   0  0  0  0  0  0  0  0  0  0  0  0
   -6.3081    7.4480  -13.3051 O   0  0  0  0  0  0  0  0  0  0  0  0
   -7.3124    6.8452  -13.3335 C   0  0  0  0  0  0  0  0  0  0  0  0
   -8.7853    7.3281  -13.1592 N   0  0  0  0  0  0  0  0  0  0  0  0
   -9.4670    6.6326  -13.3032 H   0  0  0  0  0  0  0  0  0  0  0  0
   -9.3154    8.6400  -12.8183 C   0  0  0  0  0  0  0  0  0  0  0  0
  -10.7657    8.9107  -13.2272 C   0  0  0  0  0  0  0  0  0  0  0  0
  -10.8298    9.9563  -14.0885 F   0  0  0  0  0  0  0  0  0  0  0  0
  -11.2835    7.8294  -13.8634 F   0  0  0  0  0  0  0  0  0  0  0  0
   -8.4411    4.6012  -12.7029 N   0  0  0  0  0  0  0  0  0  0  0  0
   -9.2238    4.2230  -13.1651 H   0  0  0  0  0  0  0  0  0  0  0  0
   -8.3786    4.5485  -11.2866 C   0  0  0  0  0  0  0  0  0  0  0  0
   -8.0030    5.6359  -10.4876 C   0  0  0  0  0  0  0  0  0  0  0  0
   -8.1019    5.6064   -9.0919 C   0  0  0  0  0  0  0  0  0  0  0  0
   -8.5579    4.4701   -8.4280 C   0  0  0  0  0  0  0  0  0  0  0  0
   -8.9062    3.3504   -9.1877 C   0  0  0  0  0  0  0  0  0  0  0  0
   -8.8321    3.4070  -10.6034 C   0  0  0  0  0  0  0  0  0  0  0  0
   -9.2923    2.0701   -8.4907 C   0  0  0  0  0  0  0  0  0  0  0  0
   -9.8812    2.2743   -7.0985 C   0  0  0  0  0  0  0  0  0  0  0  0
   -9.0251    3.1914   -6.2477 C   0  0  0  0  0  0  0  0  0  0  0  0
   -8.7467    4.5237   -6.9331 C   0  0  0  0  0  0  0  0  0  0  0  0
 19 20  2  0  0  0
 20 21  1  0  0  0
 21 23  1  0  0  0
 23 24  1  0  0  0
 24 25  1  0  0  0
 24 26  1  0  0  0
 20  1  1  0  0  0
  1  2  1  0  0  0
  1 27  1  0  0  0
 27 29  1  0  0  0
 29 30  2  0  0  0
 30 31  1  0  0  0
 31 32  2  0  0  0
 32 33  1  0  0  0
 33 34  2  0  0  0
 33 35  1  0  0  0
 35 36  1  0  0  0
 36 37  1  0  0  0
 37 38  1  0  0  0
  1  4  1  0  0  0
  4  5  2  0  0  0
  5  6  1  0  0  0
  6  7  1  0  0  0
  6  8  2  0  0  0
  8  9  1  0  0  0
  9 10  2  0  0  0
 10 11  1  0  0  0
 11 12  2  0  0  0
 12 13  1  0  0  0
 13 14  1  0  0  0
 14 15  1  0  0  0
 15 16  1  0  0  0
 16 17  1  0  0  0
 34 29  1  0  0  0
 10  4  1  0  0  0
 17 14  1  0  0  0
 38 32  1  0  0  0
 13  9  1  0  0  0
 21 22  1  0  0  0
  2  3  1  0  0  0
 27 28  1  0  0  0
 16 18  1  0  0  0
M  END
> <minimizedAffinity>
-8.60198

> <minimizedRMSD>
0.27425

$$$$
P28144


 35 39  0  0  0  0  0  0  0  0999 V2000
   -7.2093    4.5554  -13.4584 C   0  0  0  0  0  0  0  0  0  0  0  0
   -6.4554    3.3952  -13.1343 O   0  0  0  0  0  0  0  0  0  0  0  0
   -6.3581    3.3313  -12.1713 H   0  0  0  0  0  0  0  0  0  0  0  0
   -7.3164    4.5816  -14.9918 C   0  0  0  0  0  0  0  0  0  0  0  0
   -8.5446    4.5259  -15.6912 C   0  0  0  0  0  0  0  0  0  0  0  0
   -8.6065    4.6332  -17.0847 C   0  0  0  0  0  0  0  0  0  0  0  0
  -10.1209    4.4956  -17.8943 Cl  0  0  0  0  0  0  0  0  0  0  0  0
   -7.4719    4.8878  -17.8540 C   0  0  0  0  0  0  0  0  0  0  0  0
   -6.2530    4.9677  -17.1773 C   0  0  0  0  0  0  0  0  0  0  0  0
   -6.1568    4.7717  -15.7983 C   0  0  0  0  0  0  0  0  0  0  0  0
   -4.7705    4.8661  -15.5374 C   0  0  0  0  0  0  0  0  0  0  0  0
   -4.0542    5.1751  -16.6135 N   0  0  0  0  0  0  0  0  0  0  0  0
   -4.9726    5.2703  -17.5949 N   0  0  0  0  0  0  0  0  0  0  0  0
   -4.6312    5.9789  -18.8394 C   0  0  0  0  0  0  0  0  0  0  0  0
   -3.1108    5.9868  -19.1122 C   0  0  0  0  0  0  0  0  0  0  0  0
   -3.4093    5.7593  -20.5411 N   0  0  0  0  0  0  0  0  0  0  0  0
   -4.7050    5.1608  -20.1239 C   0  0  0  0  0  0  0  0  0  0  0  0
   -2.7747    5.1116  -21.0082 H   0  0  0  0  0  0  0  0  0  0  0  0
   -4.2529    6.2747  -11.4699 C   0  0  0  0  0  0  0  0  0  0  0  0
   -5.2175    5.4903  -12.1786 N   0  0  0  0  0  0  0  0  0  0  0  0
   -6.4480    5.9284  -13.0367 C   0  0  0  0  0  0  0  0  0  0  0  0
   -6.8100    6.9973  -13.3546 O   0  0  0  0  0  0  0  0  0  0  0  0
   -5.0843    4.5169  -12.1154 H   0  0  0  0  0  0  0  0  0  0  0  0
   -8.5073    4.4141  -12.7699 N   0  0  0  0  0  0  0  0  0  0  0  0
   -9.3308    4.2782  -13.2921 H   0  0  0  0  0  0  0  0  0  0  0  0
   -8.5645    4.4744  -11.3620 C   0  0  0  0  0  0  0  0  0  0  0  0
   -8.3273    5.6539  -10.6543 C   0  0  0  0  0  0  0  0  0  0  0  0
   -8.3217    5.6856   -9.2563 C   0  0  0  0  0  0  0  0  0  0  0  0
   -8.6024    4.5390   -8.5107 C   0  0  0  0  0  0  0  0  0  0  0  0
   -8.9043    3.3542   -9.1914 C   0  0  0  0  0  0  0  0  0  0  0  0
   -8.8579    3.3283  -10.6058 C   0  0  0  0  0  0  0  0  0  0  0  0
   -9.2544    2.1035   -8.4227 C   0  0  0  0  0  0  0  0  0  0  0  0
   -9.7532    2.3731   -7.0048 C   0  0  0  0  0  0  0  0  0  0  0  0
   -8.8477    3.3377   -6.2609 C   0  0  0  0  0  0  0  0  0  0  0  0
   -8.6824    4.6528   -7.0093 C   0  0  0  0  0  0  0  0  0  0  0  0
 19 20  1  0  0  0
 20 21  1  0  0  0
 21 22  2  0  0  0
 21  1  1  0  0  0
  1  2  1  0  0  0
  1 24  1  0  0  0
 24 26  1  0  0  0
 26 27  2  0  0  0
 27 28  1  0  0  0
 28 29  2  0  0  0
 29 30  1  0  0  0
 30 31  2  0  0  0
 30 32  1  0  0  0
 32 33  1  0  0  0
 33 34  1  0  0  0
 34 35  1  0  0  0
  1  4  1  0  0  0
  4  5  2  0  0  0
  5  6  1  0  0  0
  6  7  1  0  0  0
  6  8  2  0  0  0
  8  9  1  0  0  0
  9 10  2  0  0  0
 10 11  1  0  0  0
 11 12  2  0  0  0
 12 13  1  0  0  0
 13 14  1  0  0  0
 14 15  1  0  0  0
 15 16  1  0  0  0
 16 17  1  0  0  0
 31 26  1  0  0  0
 10  4  1  0  0  0
 17 14  1  0  0  0
 35 29  1  0  0  0
 13  9  1  0  0  0
 20 23  1  0  0  0
  2  3  1  0  0  0
 24 25  1  0  0  0
 16 18  1  0  0  0
M  END
> <minimizedAffinity>
-8.16325

> <minimizedRMSD>
0.44180

$$$$
P28145


 33 37  0  0  0  0  0  0  0  0999 V2000
   -8.3017    4.9547  -15.2089 C   0  0  0  0  0  0  0  0  0  0  0  0
   -9.3729    4.5273  -15.9982 C   0  0  0  0  0  0  0  0  0  0  0  0
   -9.2005    4.3795  -17.3766 C   0  0  0  0  0  0  0  0  0  0  0  0
  -10.5527    3.9795  -18.3620 Cl  0  0  0  0  0  0  0  0  0  0  0  0
   -7.9813    4.6538  -18.0101 C   0  0  0  0  0  0  0  0  0  0  0  0
   -6.9142    5.0608  -17.1993 C   0  0  0  0  0  0  0  0  0  0  0  0
   -7.0463    5.1767  -15.8161 C   0  0  0  0  0  0  0  0  0  0  0  0
   -5.7700    5.5791  -15.3672 C   0  0  0  0  0  0  0  0  0  0  0  0
   -4.8953    5.7258  -16.3593 N   0  0  0  0  0  0  0  0  0  0  0  0
   -5.6397    5.5241  -17.4722 N   0  0  0  0  0  0  0  0  0  0  0  0
   -5.2137    6.0933  -18.7759 C   0  0  0  0  0  0  0  0  0  0  0  0
   -3.7138    6.4856  -18.8369 C   0  0  0  0  0  0  0  0  0  0  0  0
   -3.6415    5.8835  -20.1863 N   0  0  0  0  0  0  0  0  0  0  0  0
   -4.8221    5.0528  -19.8312 C   0  0  0  0  0  0  0  0  0  0  0  0
   -2.7898    5.3520  -20.3667 H   0  0  0  0  0  0  0  0  0  0  0  0
   -6.0657    7.1313  -19.4196 N   0  0  0  0  0  0  0  0  0  0  0  0
   -6.0359    8.3078  -18.5702 O   0  0  0  0  0  0  0  0  0  0  0  0
   -7.0228    6.7902  -19.5087 H   0  0  0  0  0  0  0  0  0  0  0  0
   -5.1230    8.6260  -18.4904 H   0  0  0  0  0  0  0  0  0  0  0  0
   -8.6573    6.5827  -13.6956 O   0  0  0  0  0  0  0  0  0  0  0  0
   -8.4823    5.4331  -13.8152 C   0  0  0  0  0  0  0  0  0  0  0  0
   -8.3053    4.3295  -12.7463 N   0  0  0  0  0  0  0  0  0  0  0  0
   -8.0928    3.4379  -13.1056 H   0  0  0  0  0  0  0  0  0  0  0  0
   -8.3980    4.3921  -11.3529 C   0  0  0  0  0  0  0  0  0  0  0  0
   -7.9251    5.5151  -10.6745 C   0  0  0  0  0  0  0  0  0  0  0  0
   -7.9538    5.5694   -9.2803 C   0  0  0  0  0  0  0  0  0  0  0  0
   -8.4463    4.4944   -8.5320 C   0  0  0  0  0  0  0  0  0  0  0  0
   -8.9454    3.3682   -9.2051 C   0  0  0  0  0  0  0  0  0  0  0  0
   -8.9141    3.3245  -10.6179 C   0  0  0  0  0  0  0  0  0  0  0  0
   -9.4475    2.1746   -8.4280 C   0  0  0  0  0  0  0  0  0  0  0  0
   -9.8333    2.4867   -6.9839 C   0  0  0  0  0  0  0  0  0  0  0  0
   -8.7764    3.3202   -6.2821 C   0  0  0  0  0  0  0  0  0  0  0  0
   -8.4859    4.6148   -7.0287 C   0  0  0  0  0  0  0  0  0  0  0  0
 20 21  2  0  0  0
 21 22  1  0  0  0
 22 24  1  0  0  0
 24 25  2  0  0  0
 25 26  1  0  0  0
 26 27  2  0  0  0
 27 28  1  0  0  0
 28 29  2  0  0  0
 28 30  1  0  0  0
 30 31  1  0  0  0
 31 32  1  0  0  0
 32 33  1  0  0  0
 21  1  1  0  0  0
  1  2  2  0  0  0
  2  3  1  0  0  0
  3  4  1  0  0  0
  3  5  2  0  0  0
  5  6  1  0  0  0
  6  7  2  0  0  0
  7  8  1  0  0  0
  8  9  2  0  0  0
  9 10  1  0  0  0
 10 11  1  0  0  0
 11 16  1  0  0  0
 16 17  1  0  0  0
 11 12  1  0  0  0
 12 13  1  0  0  0
 13 14  1  0  0  0
 29 24  1  0  0  0
  7  1  1  0  0  0
 14 11  1  0  0  0
 33 27  1  0  0  0
 10  6  1  0  0  0
 22 23  1  0  0  0
 16 18  1  0  0  0
 17 19  1  0  0  0
 13 15  1  0  0  0
M  END
> <minimizedAffinity>
-8.71331

> <minimizedRMSD>
0.56499

$$$$
P28146


 32 37  0  0  0  0  0  0  0  0999 V2000
   -7.4505    5.5338  -14.7455 C   0  0  0  0  0  0  0  0  0  0  0  0
   -8.5686    4.5912  -15.2196 C   0  0  0  0  0  0  0  0  0  0  0  0
   -8.6581    4.5424  -16.7250 C   0  0  0  0  0  0  0  0  0  0  0  0
   -7.6273    4.7403  -17.5778 C   0  0  0  0  0  0  0  0  0  0  0  0
   -7.9339    4.5966  -18.9059 N   0  0  0  0  0  0  0  0  0  0  0  0
   -9.3273    4.2557  -19.1536 C   0  0  0  0  0  0  0  0  0  0  0  0
  -10.1633    4.3204  -17.5515 S   0  0  0  0  0  0  0  0  0  0  0  0
   -6.4005    5.0682  -16.9711 C   0  0  0  0  0  0  0  0  0  0  0  0
   -6.2458    5.3948  -15.6341 C   0  0  0  0  0  0  0  0  0  0  0  0
   -4.8705    5.5874  -15.4716 C   0  0  0  0  0  0  0  0  0  0  0  0
   -4.1983    5.4152  -16.6141 N   0  0  0  0  0  0  0  0  0  0  0  0
   -5.1525    5.1145  -17.5366 N   0  0  0  0  0  0  0  0  0  0  0  0
   -7.2728    4.7133  -19.6260 H   0  0  0  0  0  0  0  0  0  0  0  0
   -4.8374    4.9733  -18.9738 C   0  0  0  0  0  0  0  0  0  0  0  0
   -3.3355    4.8266  -19.2994 C   0  0  0  0  0  0  0  0  0  0  0  0
   -3.5173    5.8161  -20.3890 N   0  0  0  0  0  0  0  0  0  0  0  0
   -4.7020    6.3400  -19.6734 C   0  0  0  0  0  0  0  0  0  0  0  0
   -3.7233    5.4059  -21.2998 H   0  0  0  0  0  0  0  0  0  0  0  0
   -6.4235    6.6026  -12.9362 O   0  0  0  0  0  0  0  0  0  0  0  0
   -7.1478    5.7322  -13.2475 C   0  0  0  0  0  0  0  0  0  0  0  0
   -7.9826    4.7466  -12.3676 N   0  0  0  0  0  0  0  0  0  0  0  0
   -8.4595    4.0476  -12.8708 H   0  0  0  0  0  0  0  0  0  0  0  0
   -8.1612    4.6967  -10.9882 C   0  0  0  0  0  0  0  0  0  0  0  0
   -7.8996    5.8246  -10.2159 C   0  0  0  0  0  0  0  0  0  0  0  0
   -8.1322    5.8051   -8.8421 C   0  0  0  0  0  0  0  0  0  0  0  0
   -8.5963    4.6453   -8.2109 C   0  0  0  0  0  0  0  0  0  0  0  0
   -8.8546    3.5014   -8.9824 C   0  0  0  0  0  0  0  0  0  0  0  0
   -8.6457    3.5389  -10.3770 C   0  0  0  0  0  0  0  0  0  0  0  0
   -9.2755    2.2118   -8.3203 C   0  0  0  0  0  0  0  0  0  0  0  0
   -9.8727    2.3879   -6.9264 C   0  0  0  0  0  0  0  0  0  0  0  0
   -9.0477    3.3276   -6.0664 C   0  0  0  0  0  0  0  0  0  0  0  0
   -8.8724    4.6877   -6.7287 C   0  0  0  0  0  0  0  0  0  0  0  0
 19 20  2  0  0  0
 20 21  1  0  0  0
 21 23  1  0  0  0
 23 24  2  0  0  0
 24 25  1  0  0  0
 25 26  2  0  0  0
 26 27  1  0  0  0
 27 28  2  0  0  0
 27 29  1  0  0  0
 29 30  1  0  0  0
 30 31  1  0  0  0
 31 32  1  0  0  0
  1 20  1  0  0  0
  1  2  1  0  0  0
  2  3  1  0  0  0
  3  4  2  0  0  0
  4  5  1  0  0  0
  5  6  1  0  0  0
  6  7  1  0  0  0
  4  8  1  0  0  0
  8  9  2  0  0  0
  9 10  1  0  0  0
 10 11  2  0  0  0
 11 12  1  0  0  0
 12 14  1  0  0  0
 14 15  1  0  0  0
 15 16  1  0  0  0
 16 17  1  0  0  0
 28 23  1  0  0  0
  9  1  1  0  0  0
 17 14  1  0  0  0
 32 26  1  0  0  0
  7  3  1  0  0  0
 12  8  1  0  0  0
 21 22  1  0  0  0
  5 13  1  0  0  0
 16 18  1  0  0  0
M  END
> <minimizedAffinity>
-8.51175

> <minimizedRMSD>
0.34020

$$$$
P28147


 41 46  0  0  0  0  0  0  0  0999 V2000
   -7.8723    5.2235  -13.6670 C   0  0  0  0  0  0  0  0  0  0  0  0
   -6.5856    5.4511  -13.1063 O   0  0  0  0  0  0  0  0  0  0  0  0
   -6.6757    5.6557  -12.1624 H   0  0  0  0  0  0  0  0  0  0  0  0
   -7.6736    4.9050  -15.1567 C   0  0  0  0  0  0  0  0  0  0  0  0
   -8.7922    4.6590  -15.9906 C   0  0  0  0  0  0  0  0  0  0  0  0
   -8.6852    4.5852  -17.3801 C   0  0  0  0  0  0  0  0  0  0  0  0
  -10.0973    4.3693  -18.3369 Cl  0  0  0  0  0  0  0  0  0  0  0  0
   -7.4666    4.7761  -18.0257 C   0  0  0  0  0  0  0  0  0  0  0  0
   -6.3423    4.9677  -17.2174 C   0  0  0  0  0  0  0  0  0  0  0  0
   -6.4166    4.9721  -15.8214 C   0  0  0  0  0  0  0  0  0  0  0  0
   -5.0662    5.0973  -15.4153 C   0  0  0  0  0  0  0  0  0  0  0  0
   -4.2227    5.2525  -16.4296 N   0  0  0  0  0  0  0  0  0  0  0  0
   -5.0225    5.2520  -17.5123 N   0  0  0  0  0  0  0  0  0  0  0  0
   -4.5660    5.9140  -18.7467 C   0  0  0  0  0  0  0  0  0  0  0  0
   -3.0312    5.8603  -18.9216 C   0  0  0  0  0  0  0  0  0  0  0  0
   -3.2483    5.5928  -20.3581 N   0  0  0  0  0  0  0  0  0  0  0  0
   -4.5885    5.0554  -20.0019 C   0  0  0  0  0  0  0  0  0  0  0  0
   -2.6106    4.9069  -20.7624 H   0  0  0  0  0  0  0  0  0  0  0  0
   -9.9495    6.5553  -13.8503 O   0  0  0  0  0  0  0  0  0  0  0  0
   -8.8232    6.5282  -13.5275 C   0  0  0  0  0  0  0  0  0  0  0  0
   -7.9288    7.6347  -12.8861 N   0  0  0  0  0  0  0  0  0  0  0  0
   -6.9821    7.3877  -12.7769 H   0  0  0  0  0  0  0  0  0  0  0  0
   -8.2628    8.9548  -12.4294 C   0  0  0  0  0  0  0  0  0  0  0  0
   -7.6425   10.0282  -13.2719 C   0  0  0  0  0  0  0  0  0  0  0  0
   -6.3246    9.9490  -13.7338 C   0  0  0  0  0  0  0  0  0  0  0  0
   -5.7981   10.9795  -14.5075 C   0  0  0  0  0  0  0  0  0  0  0  0
   -6.6072   12.0661  -14.7917 C   0  0  0  0  0  0  0  0  0  0  0  0
   -7.8800   12.1867  -14.3587 N   0  0  0  0  0  0  0  0  0  0  0  0
   -8.3609   11.1746  -13.5995 C   0  0  0  0  0  0  0  0  0  0  0  0
   -8.4212    4.1025  -12.9110 N   0  0  0  0  0  0  0  0  0  0  0  0
   -8.7188    3.2985  -13.3951 H   0  0  0  0  0  0  0  0  0  0  0  0
   -8.5372    4.1392  -11.5069 C   0  0  0  0  0  0  0  0  0  0  0  0
   -9.0272    3.0095  -10.8480 C   0  0  0  0  0  0  0  0  0  0  0  0
   -9.0303    2.9037   -9.4509 C   0  0  0  0  0  0  0  0  0  0  0  0
   -8.5575    3.9531   -8.6693 C   0  0  0  0  0  0  0  0  0  0  0  0
   -8.0694    5.0986   -9.2980 C   0  0  0  0  0  0  0  0  0  0  0  0
   -8.0347    5.1634  -10.6940 C   0  0  0  0  0  0  0  0  0  0  0  0
   -7.5144    6.2130   -8.4553 C   0  0  0  0  0  0  0  0  0  0  0  0
   -8.4153    6.4553   -7.2532 C   0  0  0  0  0  0  0  0  0  0  0  0
   -8.7753    5.1743   -6.4768 C   0  0  0  0  0  0  0  0  0  0  0  0
   -8.4485    3.8519   -7.1763 C   0  0  0  0  0  0  0  0  0  0  0  0
 19 20  2  0  0  0
 20 21  1  0  0  0
 21 23  1  0  0  0
 23 24  1  0  0  0
 24 25  2  0  0  0
 25 26  1  0  0  0
 26 27  2  0  0  0
 27 28  1  0  0  0
 28 29  2  0  0  0
 20  1  1  0  0  0
  1  2  1  0  0  0
  1 30  1  0  0  0
 30 32  1  0  0  0
 32 33  2  0  0  0
 33 34  1  0  0  0
 34 35  2  0  0  0
 35 36  1  0  0  0
 36 37  2  0  0  0
 36 38  1  0  0  0
 38 39  1  0  0  0
 39 40  1  0  0  0
 40 41  1  0  0  0
  1  4  1  0  0  0
  4  5  2  0  0  0
  5  6  1  0  0  0
  6  7  1  0  0  0
  6  8  2  0  0  0
  8  9  1  0  0  0
  9 10  2  0  0  0
 10 11  1  0  0  0
 11 12  2  0  0  0
 12 13  1  0  0  0
 13 14  1  0  0  0
 14 15  1  0  0  0
 15 16  1  0  0  0
 16 17  1  0  0  0
 29 24  1  0  0  0
 37 32  1  0  0  0
 10  4  1  0  0  0
 17 14  1  0  0  0
 41 35  1  0  0  0
 13  9  1  0  0  0
 21 22  1  0  0  0
  2  3  1  0  0  0
 30 31  1  0  0  0
 16 18  1  0  0  0
M  END
> <minimizedAffinity>
-7.87703

> <minimizedRMSD>
0.33656

$$$$
P28149


 30 34  0  0  0  0  0  0  0  0999 V2000
   -8.2989    4.7364  -15.4934 C   0  0  0  0  0  0  0  0  0  0  0  0
   -9.2158    4.5117  -16.5201 C   0  0  0  0  0  0  0  0  0  0  0  0
   -8.7798    4.4935  -17.8455 C   0  0  0  0  0  0  0  0  0  0  0  0
   -9.9411    4.3051  -19.1012 Cl  0  0  0  0  0  0  0  0  0  0  0  0
   -7.4412    4.7196  -18.1989 C   0  0  0  0  0  0  0  0  0  0  0  0
   -6.5196    4.8942  -17.1618 C   0  0  0  0  0  0  0  0  0  0  0  0
   -6.9159    4.8582  -15.7932 C   0  0  0  0  0  0  0  0  0  0  0  0
   -5.7556    5.0149  -14.9311 C   0  0  0  0  0  0  0  0  0  0  0  0
   -4.6975    5.1660  -15.7314 N   0  0  0  0  0  0  0  0  0  0  0  0
   -3.4915    5.3426  -15.4470 O   0  0  0  0  0  0  0  0  0  0  0  0
   -5.1614    5.1761  -17.1164 N   0  0  0  0  0  0  0  0  0  0  0  0
   -4.3827    5.8858  -18.1492 C   0  0  0  0  0  0  0  0  0  0  0  0
   -3.8841    4.9501  -19.2797 C   0  0  0  0  0  0  0  0  0  0  0  0
   -4.1549    6.0379  -20.2336 N   0  0  0  0  0  0  0  0  0  0  0  0
   -5.1580    6.5673  -19.2717 C   0  0  0  0  0  0  0  0  0  0  0  0
   -4.5444    5.7315  -21.1251 H   0  0  0  0  0  0  0  0  0  0  0  0
   -9.3292    6.1321  -14.0634 O   0  0  0  0  0  0  0  0  0  0  0  0
   -8.7372    5.1253  -14.1265 C   0  0  0  0  0  0  0  0  0  0  0  0
   -8.2704    4.1640  -13.0065 N   0  0  0  0  0  0  0  0  0  0  0  0
   -7.8502    3.3327  -13.3254 H   0  0  0  0  0  0  0  0  0  0  0  0
   -8.3488    4.2844  -11.6134 C   0  0  0  0  0  0  0  0  0  0  0  0
   -7.8933    5.4492  -10.9949 C   0  0  0  0  0  0  0  0  0  0  0  0
   -7.9087    5.5748   -9.6045 C   0  0  0  0  0  0  0  0  0  0  0  0
   -8.4078    4.5463   -8.8003 C   0  0  0  0  0  0  0  0  0  0  0  0
   -8.8956    3.3809   -9.4091 C   0  0  0  0  0  0  0  0  0  0  0  0
   -8.8531    3.2533  -10.8188 C   0  0  0  0  0  0  0  0  0  0  0  0
   -9.5625    2.3137   -8.5767 C   0  0  0  0  0  0  0  0  0  0  0  0
   -9.3511    2.4020   -7.0676 C   0  0  0  0  0  0  0  0  0  0  0  0
   -9.3628    3.8299   -6.5546 C   0  0  0  0  0  0  0  0  0  0  0  0
   -8.3448    4.6843   -7.2999 C   0  0  0  0  0  0  0  0  0  0  0  0
 17 18  2  0  0  0
 18 19  1  0  0  0
 19 21  1  0  0  0
 21 22  2  0  0  0
 22 23  1  0  0  0
 23 24  2  0  0  0
 24 25  1  0  0  0
 25 26  2  0  0  0
 25 27  1  0  0  0
 27 28  1  0  0  0
 28 29  1  0  0  0
 29 30  1  0  0  0
 18  1  1  0  0  0
  1  2  2  0  0  0
  2  3  1  0  0  0
  3  4  1  0  0  0
  3  5  2  0  0  0
  5  6  1  0  0  0
  6  7  2  0  0  0
  7  8  1  0  0  0
  8  9  2  0  0  0
  9 10  1  0  0  0
  9 11  1  0  0  0
 11 12  1  0  0  0
 12 13  1  0  0  0
 13 14  1  0  0  0
 14 15  1  0  0  0
 26 21  1  0  0  0
  7  1  1  0  0  0
 15 12  1  0  0  0
 30 24  1  0  0  0
 11  6  1  0  0  0
 19 20  1  0  0  0
 14 16  1  0  0  0
M  CHG 1   9   1
M  CHG 1  10  -1
M  END
> <minimizedAffinity>
-9.42842

> <minimizedRMSD>
0.80973

$$$$
P28152


 33 37  0  0  0  0  0  0  0  0999 V2000
   -8.2273    4.8041  -15.4355 C   0  0  0  0  0  0  0  0  0  0  0  0
   -9.1007    4.4999  -16.4747 C   0  0  0  0  0  0  0  0  0  0  0  0
   -8.6262    4.5134  -17.7819 C   0  0  0  0  0  0  0  0  0  0  0  0
   -9.7445    4.2715  -19.0672 Cl  0  0  0  0  0  0  0  0  0  0  0  0
   -7.2894    4.8192  -18.0909 C   0  0  0  0  0  0  0  0  0  0  0  0
   -6.3990    5.0860  -17.0333 C   0  0  0  0  0  0  0  0  0  0  0  0
   -6.8593    5.0540  -15.7077 C   0  0  0  0  0  0  0  0  0  0  0  0
   -5.7643    5.3843  -14.8739 C   0  0  0  0  0  0  0  0  0  0  0  0
   -4.6815    5.6827  -15.6691 C   0  0  0  0  0  0  0  0  0  0  0  0
   -5.0621    5.4722  -16.9810 N   0  0  0  0  0  0  0  0  0  0  0  0
   -4.2290    5.9377  -18.1193 C   0  0  0  0  0  0  0  0  0  0  0  0
   -3.7643    4.7892  -19.0518 C   0  0  0  0  0  0  0  0  0  0  0  0
   -3.9337    5.7021  -20.1883 N   0  0  0  0  0  0  0  0  0  0  0  0
   -4.9321    6.4491  -19.3795 C   0  0  0  0  0  0  0  0  0  0  0  0
   -4.3120    5.2654  -21.0289 H   0  0  0  0  0  0  0  0  0  0  0  0
   -9.4289    6.1054  -14.0424 O   0  0  0  0  0  0  0  0  0  0  0  0
   -8.7342    5.1665  -14.0890 C   0  0  0  0  0  0  0  0  0  0  0  0
   -8.1951    4.2617  -12.9575 N   0  0  0  0  0  0  0  0  0  0  0  0
   -7.6833    3.4786  -13.2643 H   0  0  0  0  0  0  0  0  0  0  0  0
   -8.3162    4.3744  -11.5693 C   0  0  0  0  0  0  0  0  0  0  0  0
   -7.9378    5.5560  -10.9322 C   0  0  0  0  0  0  0  0  0  0  0  0
   -8.0217    5.6756   -9.5442 C   0  0  0  0  0  0  0  0  0  0  0  0
   -8.4850    4.6128   -8.7608 C   0  0  0  0  0  0  0  0  0  0  0  0
   -8.8854    3.4249   -9.3927 C   0  0  0  0  0  0  0  0  0  0  0  0
   -8.7851    3.3101  -10.7985 C   0  0  0  0  0  0  0  0  0  0  0  0
   -9.3693    2.2509   -8.5745 C   0  0  0  0  0  0  0  0  0  0  0  0
   -9.8550    2.6244   -7.1759 C   0  0  0  0  0  0  0  0  0  0  0  0
   -8.8836    3.5498   -6.4658 C   0  0  0  0  0  0  0  0  0  0  0  0
   -8.6116    4.8125   -7.2706 C   0  0  0  0  0  0  0  0  0  0  0  0
   -3.3616    6.1992  -15.2346 C   0  0  0  0  0  0  0  0  0  0  0  0
   -3.1754    7.4936  -15.5950 F   0  0  0  0  0  0  0  0  0  0  0  0
   -2.3405    5.4804  -15.7595 F   0  0  0  0  0  0  0  0  0  0  0  0
   -3.2159    6.1519  -13.8859 F   0  0  0  0  0  0  0  0  0  0  0  0
 16 17  2  0  0  0
 17 18  1  0  0  0
 18 20  1  0  0  0
 20 21  2  0  0  0
 21 22  1  0  0  0
 22 23  2  0  0  0
 23 24  1  0  0  0
 24 25  2  0  0  0
 24 26  1  0  0  0
 26 27  1  0  0  0
 27 28  1  0  0  0
 28 29  1  0  0  0
 17  1  1  0  0  0
  1  2  2  0  0  0
  2  3  1  0  0  0
  3  4  1  0  0  0
  3  5  2  0  0  0
  5  6  1  0  0  0
  6  7  2  0  0  0
  7  8  1  0  0  0
  8  9  2  0  0  0
  9 30  1  0  0  0
 30 31  1  0  0  0
 30 32  1  0  0  0
 30 33  1  0  0  0
  9 10  1  0  0  0
 10 11  1  0  0  0
 11 12  1  0  0  0
 12 13  1  0  0  0
 13 14  1  0  0  0
 25 20  1  0  0  0
  7  1  1  0  0  0
 14 11  1  0  0  0
 29 23  1  0  0  0
 10  6  1  0  0  0
 18 19  1  0  0  0
 13 15  1  0  0  0
M  END
> <minimizedAffinity>
-9.27198

> <minimizedRMSD>
0.86551

$$$$
P28153


 38 42  0  0  0  0  0  0  0  0999 V2000
   -7.1479    4.6013  -13.6089 C   0  0  0  0  0  0  0  0  0  0  0  0
   -6.4385    5.7536  -13.1415 O   0  0  0  0  0  0  0  0  0  0  0  0
   -6.3664    5.7188  -12.1748 H   0  0  0  0  0  0  0  0  0  0  0  0
   -7.2328    4.7089  -15.1499 C   0  0  0  0  0  0  0  0  0  0  0  0
   -8.4865    4.5936  -15.8029 C   0  0  0  0  0  0  0  0  0  0  0  0
   -8.6158    4.5810  -17.1922 C   0  0  0  0  0  0  0  0  0  0  0  0
  -10.1678    4.4928  -17.9263 Cl  0  0  0  0  0  0  0  0  0  0  0  0
   -7.5071    4.6763  -18.0227 C   0  0  0  0  0  0  0  0  0  0  0  0
   -6.2676    4.8416  -17.4061 C   0  0  0  0  0  0  0  0  0  0  0  0
   -6.1183    4.8892  -16.0169 C   0  0  0  0  0  0  0  0  0  0  0  0
   -4.7442    5.1783  -15.8488 C   0  0  0  0  0  0  0  0  0  0  0  0
   -4.0713    5.2691  -16.9936 N   0  0  0  0  0  0  0  0  0  0  0  0
   -5.0004    4.9965  -17.9265 N   0  0  0  0  0  0  0  0  0  0  0  0
   -4.6926    5.1088  -19.3605 C   0  0  0  0  0  0  0  0  0  0  0  0
   -4.4155    6.5564  -19.8179 C   0  0  0  0  0  0  0  0  0  0  0  0
   -3.2781    6.0491  -20.6119 N   0  0  0  0  0  0  0  0  0  0  0  0
   -3.2202    4.8819  -19.6970 C   0  0  0  0  0  0  0  0  0  0  0  0
   -2.4496    6.6437  -20.5916 H   0  0  0  0  0  0  0  0  0  0  0  0
   -5.1810    3.7419  -12.3047 N   0  0  0  0  0  0  0  0  0  0  0  0
   -6.3469    3.2552  -13.2034 C   0  0  0  0  0  0  0  0  0  0  0  0
   -6.6086    2.1862  -13.5868 O   0  0  0  0  0  0  0  0  0  0  0  0
   -5.2214    4.6938  -12.0564 H   0  0  0  0  0  0  0  0  0  0  0  0
   -4.0541    3.0311  -11.7767 C   0  0  0  0  0  0  0  0  0  0  0  0
   -5.1397    1.3787  -10.2284 C   0  0  0  0  0  0  0  0  0  0  0  0
   -4.2499    2.6135  -10.3213 C   0  0  0  0  0  0  0  0  0  0  0  0
   -4.8538    3.7301   -9.4732 C   0  0  0  0  0  0  0  0  0  0  0  0
   -8.4981    4.6859  -13.0260 N   0  0  0  0  0  0  0  0  0  0  0  0
   -9.2975    4.8523  -13.5760 H   0  0  0  0  0  0  0  0  0  0  0  0
   -8.5703    4.5131  -11.6290 C   0  0  0  0  0  0  0  0  0  0  0  0
   -8.8036    3.2670  -11.0488 C   0  0  0  0  0  0  0  0  0  0  0  0
   -8.7526    3.1036   -9.6618 C   0  0  0  0  0  0  0  0  0  0  0  0
   -8.4420    4.1860   -8.8301 C   0  0  0  0  0  0  0  0  0  0  0  0
   -8.1945    5.4425   -9.4080 C   0  0  0  0  0  0  0  0  0  0  0  0
   -8.2695    5.5936  -10.7945 C   0  0  0  0  0  0  0  0  0  0  0  0
   -7.7864    6.6346   -8.5880 C   0  0  0  0  0  0  0  0  0  0  0  0
   -8.2223    6.4974   -7.1441 C   0  0  0  0  0  0  0  0  0  0  0  0
   -7.7916    5.1469   -6.5775 C   0  0  0  0  0  0  0  0  0  0  0  0
   -8.4632    3.9985   -7.3337 C   0  0  0  0  0  0  0  0  0  0  0  0
 24 25  1  0  0  0
 25 26  1  0  0  0
 25 23  1  0  0  0
 23 19  1  0  0  0
 19 20  1  0  0  0
 20 21  2  0  0  0
 20  1  1  0  0  0
  1  2  1  0  0  0
  1 27  1  0  0  0
 27 29  1  0  0  0
 29 30  2  0  0  0
 30 31  1  0  0  0
 31 32  2  0  0  0
 32 33  1  0  0  0
 33 34  2  0  0  0
 33 35  1  0  0  0
 35 36  1  0  0  0
 36 37  1  0  0  0
 37 38  1  0  0  0
  1  4  1  0  0  0
  4  5  2  0  0  0
  5  6  1  0  0  0
  6  7  1  0  0  0
  6  8  2  0  0  0
  8  9  1  0  0  0
  9 10  2  0  0  0
 10 11  1  0  0  0
 11 12  2  0  0  0
 12 13  1  0  0  0
 13 14  1  0  0  0
 14 15  1  0  0  0
 15 16  1  0  0  0
 16 17  1  0  0  0
 34 29  1  0  0  0
 10  4  1  0  0  0
 17 14  1  0  0  0
 38 32  1  0  0  0
 13  9  1  0  0  0
 19 22  1  0  0  0
  2  3  1  0  0  0
 27 28  1  0  0  0
 16 18  1  0  0  0
M  END
> <minimizedAffinity>
-8.49393

> <minimizedRMSD>
1.46965

$$$$
P28155


 30 34  0  0  0  0  0  0  0  0999 V2000
   -7.9274    5.0791  -13.8682 C   0  0  0  0  0  0  0  0  0  0  0  0
   -7.6668    4.8251  -15.3599 C   0  0  0  0  0  0  0  0  0  0  0  0
   -8.6908    4.6406  -16.3104 C   0  0  0  0  0  0  0  0  0  0  0  0
   -8.4134    4.5715  -17.6774 C   0  0  0  0  0  0  0  0  0  0  0  0
   -9.7026    4.3200  -18.7918 Cl  0  0  0  0  0  0  0  0  0  0  0  0
   -7.1223    4.7649  -18.1758 C   0  0  0  0  0  0  0  0  0  0  0  0
   -6.0870    4.9317  -17.2478 C   0  0  0  0  0  0  0  0  0  0  0  0
   -6.3382    4.8950  -15.8725 C   0  0  0  0  0  0  0  0  0  0  0  0
   -5.0586    4.9977  -15.2804 C   0  0  0  0  0  0  0  0  0  0  0  0
   -4.0820    5.1084  -16.1715 N   0  0  0  0  0  0  0  0  0  0  0  0
   -4.7286    5.1848  -17.3564 N   0  0  0  0  0  0  0  0  0  0  0  0
   -4.0206    5.8693  -18.4498 C   0  0  0  0  0  0  0  0  0  0  0  0
   -3.4086    4.8743  -19.4602 C   0  0  0  0  0  0  0  0  0  0  0  0
   -3.7002    5.8782  -20.5130 N   0  0  0  0  0  0  0  0  0  0  0  0
   -4.8042    6.3739  -19.6520 C   0  0  0  0  0  0  0  0  0  0  0  0
   -4.0012    5.4837  -21.4042 H   0  0  0  0  0  0  0  0  0  0  0  0
   -9.9349    6.8217  -13.8092 N   0  0  0  0  0  0  0  0  0  0  0  0
   -9.0664    6.0464  -13.8073 C   0  0  0  0  0  0  0  0  0  0  0  0
   -8.1429    3.8391  -13.0753 N   0  0  0  0  0  0  0  0  0  0  0  0
   -8.2987    2.9611  -13.4927 H   0  0  0  0  0  0  0  0  0  0  0  0
   -8.1056    4.0245  -11.6629 C   0  0  0  0  0  0  0  0  0  0  0  0
   -7.4344    5.1026  -11.0731 C   0  0  0  0  0  0  0  0  0  0  0  0
   -7.3670    5.2574   -9.6843 C   0  0  0  0  0  0  0  0  0  0  0  0
   -8.0300    4.3698   -8.8383 C   0  0  0  0  0  0  0  0  0  0  0  0
   -8.7798    3.3314   -9.3968 C   0  0  0  0  0  0  0  0  0  0  0  0
   -8.7919    3.1532  -10.8017 C   0  0  0  0  0  0  0  0  0  0  0  0
   -9.5404    2.3856   -8.4986 C   0  0  0  0  0  0  0  0  0  0  0  0
   -9.7957    2.8313   -7.0514 C   0  0  0  0  0  0  0  0  0  0  0  0
   -9.2388    4.1909   -6.6583 C   0  0  0  0  0  0  0  0  0  0  0  0
   -7.9189    4.4983   -7.3441 C   0  0  0  0  0  0  0  0  0  0  0  0
 17 18  3  0  0  0
  1 18  1  0  0  0
  1 19  1  0  0  0
 19 21  1  0  0  0
 21 22  2  0  0  0
 22 23  1  0  0  0
 23 24  2  0  0  0
 24 25  1  0  0  0
 25 26  2  0  0  0
 25 27  1  0  0  0
 27 28  1  0  0  0
 28 29  1  0  0  0
 29 30  1  0  0  0
  1  2  1  0  0  0
  2  3  2  0  0  0
  3  4  1  0  0  0
  4  5  1  0  0  0
  4  6  2  0  0  0
  6  7  1  0  0  0
  7  8  2  0  0  0
  8  9  1  0  0  0
  9 10  2  0  0  0
 10 11  1  0  0  0
 11 12  1  0  0  0
 12 13  1  0  0  0
 13 14  1  0  0  0
 14 15  1  0  0  0
 26 21  1  0  0  0
  8  2  1  0  0  0
 15 12  1  0  0  0
 30 24  1  0  0  0
 11  7  1  0  0  0
 19 20  1  0  0  0
 14 16  1  0  0  0
M  END
> <minimizedAffinity>
-8.74379

> <minimizedRMSD>
0.95930

$$$$
P28159


 35 40  0  0  0  0  0  0  0  0999 V2000
   -8.0807    5.0241  -15.2586 C   0  0  0  0  0  0  0  0  0  0  0  0
   -9.1284    4.7093  -16.1271 C   0  0  0  0  0  0  0  0  0  0  0  0
   -8.8722    4.5326  -17.4948 C   0  0  0  0  0  0  0  0  0  0  0  0
  -10.1823    4.2251  -18.5672 Cl  0  0  0  0  0  0  0  0  0  0  0  0
   -7.5831    4.6545  -18.0169 C   0  0  0  0  0  0  0  0  0  0  0  0
   -6.5430    4.9123  -17.1431 C   0  0  0  0  0  0  0  0  0  0  0  0
   -6.7862    5.1008  -15.7748 C   0  0  0  0  0  0  0  0  0  0  0  0
   -5.4547    5.3678  -15.1239 C   0  0  0  0  0  0  0  0  0  0  0  0
   -5.2059    6.8548  -14.8073 C   0  0  0  0  0  0  0  0  0  0  0  0
   -4.5807    6.8493  -13.4219 C   0  0  0  0  0  0  0  0  0  0  0  0
   -5.1671    5.6924  -12.7419 N   0  0  0  0  0  0  0  0  0  0  0  0
   -5.2026    4.6443  -13.7821 C   0  0  0  0  0  0  0  0  0  0  0  0
   -4.4766    4.8888  -16.1460 N   0  0  0  0  0  0  0  0  0  0  0  0
   -5.1516    4.9634  -17.4257 N   0  0  0  0  0  0  0  0  0  0  0  0
   -6.1079    5.9056  -12.4103 H   0  0  0  0  0  0  0  0  0  0  0  0
   -4.2021    3.9266  -15.9477 H   0  0  0  0  0  0  0  0  0  0  0  0
   -4.5491    5.8630  -18.3901 C   0  0  0  0  0  0  0  0  0  0  0  0
   -3.2427    5.2904  -18.9942 C   0  0  0  0  0  0  0  0  0  0  0  0
   -3.6338    5.8991  -20.2883 N   0  0  0  0  0  0  0  0  0  0  0  0
   -5.0474    5.8222  -19.8360 C   0  0  0  0  0  0  0  0  0  0  0  0
   -3.4190    5.3294  -21.1067 H   0  0  0  0  0  0  0  0  0  0  0  0
   -8.6161    6.6214  -13.7574 O   0  0  0  0  0  0  0  0  0  0  0  0
   -8.3833    5.4833  -13.8800 C   0  0  0  0  0  0  0  0  0  0  0  0
   -8.3199    4.3541  -12.8254 N   0  0  0  0  0  0  0  0  0  0  0  0
   -8.1770    3.4527  -13.1948 H   0  0  0  0  0  0  0  0  0  0  0  0
   -8.4325    4.4049  -11.4316 C   0  0  0  0  0  0  0  0  0  0  0  0
   -8.1182    5.5800  -10.7500 C   0  0  0  0  0  0  0  0  0  0  0  0
   -8.2002    5.6390   -9.3575 C   0  0  0  0  0  0  0  0  0  0  0  0
   -8.5950    4.5207   -8.6137 C   0  0  0  0  0  0  0  0  0  0  0  0
   -8.9352    3.3391   -9.2903 C   0  0  0  0  0  0  0  0  0  0  0  0
   -8.8420    3.2877  -10.7008 C   0  0  0  0  0  0  0  0  0  0  0  0
   -9.3342    2.1048   -8.5161 C   0  0  0  0  0  0  0  0  0  0  0  0
   -9.8200    2.3873   -7.0961 C   0  0  0  0  0  0  0  0  0  0  0  0
   -8.8942    3.3393   -6.3606 C   0  0  0  0  0  0  0  0  0  0  0  0
   -8.7052    4.6482   -7.1142 C   0  0  0  0  0  0  0  0  0  0  0  0
 22 23  2  0  0  0
 23 24  1  0  0  0
 24 26  1  0  0  0
 26 27  2  0  0  0
 27 28  1  0  0  0
 28 29  2  0  0  0
 29 30  1  0  0  0
 30 31  2  0  0  0
 30 32  1  0  0  0
 32 33  1  0  0  0
 33 34  1  0  0  0
 34 35  1  0  0  0
 23  1  1  0  0  0
  1  2  2  0  0  0
  2  3  1  0  0  0
  3  4  1  0  0  0
  3  5  2  0  0  0
  5  6  1  0  0  0
  6  7  2  0  0  0
  7  8  1  0  0  0
  8  9  1  0  0  0
  9 10  1  0  0  0
 10 11  1  0  0  0
 11 12  1  0  0  0
  8 13  1  0  0  0
 13 14  1  0  0  0
 14 17  1  0  0  0
 17 18  1  0  0  0
 18 19  1  0  0  0
 19 20  1  0  0  0
 31 26  1  0  0  0
  7  1  1  0  0  0
 12  8  1  0  0  0
 20 17  1  0  0  0
 35 29  1  0  0  0
 14  6  1  0  0  0
 24 25  1  0  0  0
 11 15  1  0  0  0
 13 16  1  0  0  0
 19 21  1  0  0  0
M  END
> <minimizedAffinity>
-9.19014

> <minimizedRMSD>
0.60174

$$$$
P28161


 41 46  0  0  0  0  0  0  0  0999 V2000
   -7.3458    5.6519  -13.9591 C   0  0  0  0  0  0  0  0  0  0  0  0
   -7.6965    7.0229  -13.9348 O   0  0  0  0  0  0  0  0  0  0  0  0
   -7.7485    7.3271  -13.0152 H   0  0  0  0  0  0  0  0  0  0  0  0
   -7.2926    5.2790  -15.4610 C   0  0  0  0  0  0  0  0  0  0  0  0
   -8.4804    4.8106  -16.0972 C   0  0  0  0  0  0  0  0  0  0  0  0
   -8.5276    4.4723  -17.4473 C   0  0  0  0  0  0  0  0  0  0  0  0
  -10.0078    3.9648  -18.1554 Cl  0  0  0  0  0  0  0  0  0  0  0  0
   -7.4087    4.6012  -18.2586 C   0  0  0  0  0  0  0  0  0  0  0  0
   -6.2375    5.0837  -17.6650 C   0  0  0  0  0  0  0  0  0  0  0  0
   -6.1566    5.4160  -16.3081 C   0  0  0  0  0  0  0  0  0  0  0  0
   -4.8183    5.8614  -16.1632 C   0  0  0  0  0  0  0  0  0  0  0  0
   -4.1062    5.7784  -17.2794 N   0  0  0  0  0  0  0  0  0  0  0  0
   -4.9904    5.3542  -18.1904 N   0  0  0  0  0  0  0  0  0  0  0  0
   -4.6319    5.2240  -19.6084 C   0  0  0  0  0  0  0  0  0  0  0  0
   -3.1122    5.0969  -19.8786 C   0  0  0  0  0  0  0  0  0  0  0  0
   -3.3042    6.0051  -21.0460 N   0  0  0  0  0  0  0  0  0  0  0  0
   -4.4659    6.5833  -20.3137 C   0  0  0  0  0  0  0  0  0  0  0  0
   -3.5422    5.5334  -21.9185 H   0  0  0  0  0  0  0  0  0  0  0  0
   -5.3209    6.1603  -12.6802 O   0  0  0  0  0  0  0  0  0  0  0  0
   -5.9478    5.3344  -13.2292 C   0  0  0  0  0  0  0  0  0  0  0  0
   -5.6183    3.8293  -13.5070 N   0  0  0  0  0  0  0  0  0  0  0  0
   -6.2818    3.3572  -14.0603 H   0  0  0  0  0  0  0  0  0  0  0  0
   -4.5010    3.0226  -13.0838 C   0  0  0  0  0  0  0  0  0  0  0  0
   -4.4794    2.7639  -11.5730 C   0  0  0  0  0  0  0  0  0  0  0  0
   -3.0665    2.3898  -11.0873 C   0  0  0  0  0  0  0  0  0  0  0  0
   -2.9519    0.9026  -10.7780 C   0  0  0  0  0  0  0  0  0  0  0  0
   -3.8445    0.4994   -9.7397 O   0  0  0  0  0  0  0  0  0  0  0  0
   -5.1526    1.0834   -9.8182 C   0  0  0  0  0  0  0  0  0  0  0  0
   -5.4899    1.6757  -11.1814 C   0  0  0  0  0  0  0  0  0  0  0  0
   -8.4127    4.8802  -13.3227 N   0  0  0  0  0  0  0  0  0  0  0  0
   -9.0379    4.3598  -13.8772 H   0  0  0  0  0  0  0  0  0  0  0  0
   -8.5499    4.8770  -11.9314 C   0  0  0  0  0  0  0  0  0  0  0  0
   -8.4711    3.6486  -11.2945 C   0  0  0  0  0  0  0  0  0  0  0  0
   -8.5333    3.5134   -9.9199 C   0  0  0  0  0  0  0  0  0  0  0  0
   -8.5648    4.6149   -9.0978 C   0  0  0  0  0  0  0  0  0  0  0  0
   -8.3005    5.8319   -9.7400 C   0  0  0  0  0  0  0  0  0  0  0  0
   -8.5269    6.0042  -11.1182 C   0  0  0  0  0  0  0  0  0  0  0  0
   -6.9876    6.4374   -9.2048 C   0  0  0  0  0  0  0  0  0  0  0  0
   -6.0498    5.1889   -9.1013 C   0  0  0  0  0  0  0  0  0  0  0  0
   -6.5269    4.2252   -7.9552 C   0  0  0  0  0  0  0  0  0  0  0  0
   -8.0255    4.3905   -7.7077 C   0  0  0  0  0  0  0  0  0  0  0  0
 19 20  2  0  0  0
 20 21  1  0  0  0
 21 23  1  0  0  0
 23 24  1  0  0  0
 24 25  1  0  0  0
 25 26  1  0  0  0
 26 27  1  0  0  0
 27 28  1  0  0  0
 28 29  1  0  0  0
 20  1  1  0  0  0
  1  2  1  0  0  0
  1 30  1  0  0  0
 30 32  1  0  0  0
 32 33  2  0  0  0
 33 34  1  0  0  0
 34 35  2  0  0  0
 35 36  1  0  0  0
 36 37  2  0  0  0
 36 38  1  0  0  0
 38 39  1  0  0  0
 39 40  1  0  0  0
 40 41  1  0  0  0
  1  4  1  0  0  0
  4  5  2  0  0  0
  5  6  1  0  0  0
  6  7  1  0  0  0
  6  8  2  0  0  0
  8  9  1  0  0  0
  9 10  2  0  0  0
 10 11  1  0  0  0
 11 12  2  0  0  0
 12 13  1  0  0  0
 13 14  1  0  0  0
 14 15  1  0  0  0
 15 16  1  0  0  0
 16 17  1  0  0  0
 29 24  1  0  0  0
 37 32  1  0  0  0
 10  4  1  0  0  0
 17 14  1  0  0  0
 41 35  1  0  0  0
 13  9  1  0  0  0
 21 22  1  0  0  0
  2  3  1  0  0  0
 30 31  1  0  0  0
 16 18  1  0  0  0
M  END
> <minimizedAffinity>
-7.76360

> <minimizedRMSD>
1.25241

$$$$
P28165


 31 35  0  0  0  0  0  0  0  0999 V2000
   -8.2106    4.4554  -12.9453 N   0  0  0  0  0  0  0  0  0  0  0  0
   -7.0453    4.9322  -13.8490 C   0  0  0  0  0  0  0  0  0  0  0  0
   -6.0359    5.4515  -13.5717 O   0  0  0  0  0  0  0  0  0  0  0  0
   -8.9269    3.9721  -13.4170 H   0  0  0  0  0  0  0  0  0  0  0  0
   -8.2992    5.8265  -10.8819 C   0  0  0  0  0  0  0  0  0  0  0  0
   -8.3778    5.8632   -9.4783 C   0  0  0  0  0  0  0  0  0  0  0  0
   -8.6238    4.7084   -8.7270 C   0  0  0  0  0  0  0  0  0  0  0  0
   -8.8307    3.4993   -9.4007 C   0  0  0  0  0  0  0  0  0  0  0  0
   -8.7090    3.4528  -10.8093 C   0  0  0  0  0  0  0  0  0  0  0  0
   -8.4113    4.6011  -11.5592 C   0  0  0  0  0  0  0  0  0  0  0  0
   -9.1260    2.2374   -8.6255 C   0  0  0  0  0  0  0  0  0  0  0  0
   -9.6727    2.4892   -7.2217 C   0  0  0  0  0  0  0  0  0  0  0  0
   -8.8491    3.5197   -6.4706 C   0  0  0  0  0  0  0  0  0  0  0  0
   -8.7624    4.8360   -7.2297 C   0  0  0  0  0  0  0  0  0  0  0  0
   -8.3321    8.0702  -12.1872 N   0  0  0  0  0  0  0  0  0  0  0  0
   -8.2958    7.1011  -11.5455 C   0  0  0  0  0  0  0  0  0  0  0  0
   -7.2569    4.7005  -15.3044 C   0  0  0  0  0  0  0  0  0  0  0  0
   -8.5309    4.5546  -15.8677 C   0  0  0  0  0  0  0  0  0  0  0  0
   -8.6906    4.5877  -17.2556 C   0  0  0  0  0  0  0  0  0  0  0  0
  -10.2647    4.5239  -17.9434 Cl  0  0  0  0  0  0  0  0  0  0  0  0
   -7.6101    4.7624  -18.1247 C   0  0  0  0  0  0  0  0  0  0  0  0
   -6.3408    4.8841  -17.5499 C   0  0  0  0  0  0  0  0  0  0  0  0
   -6.1472    4.8450  -16.1695 C   0  0  0  0  0  0  0  0  0  0  0  0
   -4.7528    5.0080  -16.0093 C   0  0  0  0  0  0  0  0  0  0  0  0
   -4.1052    5.1057  -17.1696 N   0  0  0  0  0  0  0  0  0  0  0  0
   -5.0868    5.0820  -18.0901 N   0  0  0  0  0  0  0  0  0  0  0  0
   -4.8298    5.2316  -19.5317 C   0  0  0  0  0  0  0  0  0  0  0  0
   -3.3408    5.3505  -19.9289 C   0  0  0  0  0  0  0  0  0  0  0  0
   -3.7544    6.3849  -20.9239 N   0  0  0  0  0  0  0  0  0  0  0  0
   -4.8929    6.6937  -20.0110 C   0  0  0  0  0  0  0  0  0  0  0  0
   -4.0256    6.0165  -21.8356 H   0  0  0  0  0  0  0  0  0  0  0  0
 15 16  3  0  0  0
 16  5  1  0  0  0
  5  6  2  0  0  0
  6  7  1  0  0  0
  7  8  2  0  0  0
  8  9  1  0  0  0
  9 10  2  0  0  0
 10  1  1  0  0  0
  1  2  1  0  0  0
  2  3  2  0  0  0
  2 17  1  0  0  0
 17 18  2  0  0  0
 18 19  1  0  0  0
 19 20  1  0  0  0
 19 21  2  0  0  0
 21 22  1  0  0  0
 22 23  2  0  0  0
 23 24  1  0  0  0
 24 25  2  0  0  0
 25 26  1  0  0  0
 26 27  1  0  0  0
 27 28  1  0  0  0
 28 29  1  0  0  0
 29 30  1  0  0  0
  8 11  1  0  0  0
 11 12  1  0  0  0
 12 13  1  0  0  0
 13 14  1  0  0  0
 10  5  1  0  0  0
 23 17  1  0  0  0
 30 27  1  0  0  0
 14  7  1  0  0  0
 26 22  1  0  0  0
  1  4  1  0  0  0
 29 31  1  0  0  0
M  END
> <minimizedAffinity>
-8.72097

> <minimizedRMSD>
0.31000

$$$$
P28168


 35 40  0  0  0  0  0  0  0  0999 V2000
   -8.1562    4.9170  -15.5264 C   0  0  0  0  0  0  0  0  0  0  0  0
   -9.2869    4.7134  -16.3081 C   0  0  0  0  0  0  0  0  0  0  0  0
   -9.1385    4.5459  -17.6877 C   0  0  0  0  0  0  0  0  0  0  0  0
  -10.5504    4.4157  -18.6541 Cl  0  0  0  0  0  0  0  0  0  0  0  0
   -7.8811    4.5902  -18.3034 C   0  0  0  0  0  0  0  0  0  0  0  0
   -6.7582    4.7935  -17.5181 C   0  0  0  0  0  0  0  0  0  0  0  0
   -6.9061    4.9025  -16.1353 C   0  0  0  0  0  0  0  0  0  0  0  0
   -5.5546    4.9860  -15.5113 C   0  0  0  0  0  0  0  0  0  0  0  0
   -4.7139    5.5326  -16.7108 C   0  0  0  0  0  0  0  0  0  0  0  0
   -3.2626    5.0586  -16.5567 C   0  0  0  0  0  0  0  0  0  0  0  0
   -2.5999    5.6324  -15.3021 C   0  0  0  0  0  0  0  0  0  0  0  0
   -2.9199    7.0374  -15.0571 N   0  0  0  0  0  0  0  0  0  0  0  0
   -3.4526    7.7238  -16.2253 C   0  0  0  0  0  0  0  0  0  0  0  0
   -4.7773    7.0905  -16.6600 C   0  0  0  0  0  0  0  0  0  0  0  0
   -5.4004    4.9703  -17.9347 N   0  0  0  0  0  0  0  0  0  0  0  0
   -2.0687    7.5157  -14.7619 H   0  0  0  0  0  0  0  0  0  0  0  0
   -4.9669    5.0526  -19.3199 C   0  0  0  0  0  0  0  0  0  0  0  0
   -3.4478    4.9936  -19.5859 C   0  0  0  0  0  0  0  0  0  0  0  0
   -3.6181    6.0314  -20.6277 N   0  0  0  0  0  0  0  0  0  0  0  0
   -4.8867    6.4375  -19.9913 C   0  0  0  0  0  0  0  0  0  0  0  0
   -3.7230    5.6627  -21.5729 H   0  0  0  0  0  0  0  0  0  0  0  0
   -8.1883    6.5565  -13.9691 O   0  0  0  0  0  0  0  0  0  0  0  0
   -8.2839    5.4052  -14.1369 C   0  0  0  0  0  0  0  0  0  0  0  0
   -8.4855    4.2601  -13.1231 N   0  0  0  0  0  0  0  0  0  0  0  0
   -8.6137    3.3709  -13.5259 H   0  0  0  0  0  0  0  0  0  0  0  0
   -8.5155    4.2792  -11.7318 C   0  0  0  0  0  0  0  0  0  0  0  0
   -8.8108    3.1175  -11.0242 C   0  0  0  0  0  0  0  0  0  0  0  0
   -8.7291    3.0999   -9.6289 C   0  0  0  0  0  0  0  0  0  0  0  0
   -8.3715    4.2573   -8.9355 C   0  0  0  0  0  0  0  0  0  0  0  0
   -8.1026    5.4353   -9.6467 C   0  0  0  0  0  0  0  0  0  0  0  0
   -8.1795    5.4408  -11.0402 C   0  0  0  0  0  0  0  0  0  0  0  0
   -7.6320    6.6484   -8.8954 C   0  0  0  0  0  0  0  0  0  0  0  0
   -8.4386    6.8357   -7.6199 C   0  0  0  0  0  0  0  0  0  0  0  0
   -8.6292    5.5508   -6.7919 C   0  0  0  0  0  0  0  0  0  0  0  0
   -8.1523    4.2529   -7.4493 C   0  0  0  0  0  0  0  0  0  0  0  0
 22 23  2  0  0  0
 23 24  1  0  0  0
 24 26  1  0  0  0
 26 27  2  0  0  0
 27 28  1  0  0  0
 28 29  2  0  0  0
 29 30  1  0  0  0
 30 31  2  0  0  0
 30 32  1  0  0  0
 32 33  1  0  0  0
 33 34  1  0  0  0
 34 35  1  0  0  0
 23  1  1  0  0  0
  1  2  2  0  0  0
  2  3  1  0  0  0
  3  4  1  0  0  0
  3  5  2  0  0  0
  5  6  1  0  0  0
  6  7  2  0  0  0
  7  8  1  0  0  0
  8  9  1  0  0  0
  9 10  1  0  0  0
 10 11  1  0  0  0
 11 12  1  0  0  0
 12 13  1  0  0  0
 13 14  1  0  0  0
  9 15  1  0  0  0
 15 17  1  0  0  0
 17 18  1  0  0  0
 18 19  1  0  0  0
 19 20  1  0  0  0
 31 26  1  0  0  0
  7  1  1  0  0  0
 14  9  1  0  0  0
 20 17  1  0  0  0
 35 29  1  0  0  0
 15  6  1  0  0  0
 24 25  1  0  0  0
 12 16  1  0  0  0
 19 21  1  0  0  0
M  END
> <minimizedAffinity>
-9.00919

> <minimizedRMSD>
0.63423

$$$$
P28169


 33 38  0  0  0  0  0  0  0  0999 V2000
   -7.6659    5.0824  -14.9034 C   0  0  0  0  0  0  0  0  0  0  0  0
   -8.8774    4.8451  -15.5852 C   0  0  0  0  0  0  0  0  0  0  0  0
   -8.9024    4.6874  -16.9758 C   0  0  0  0  0  0  0  0  0  0  0  0
  -10.3934    4.5940  -17.8280 Cl  0  0  0  0  0  0  0  0  0  0  0  0
   -7.7197    4.7211  -17.7024 C   0  0  0  0  0  0  0  0  0  0  0  0
   -6.5587    4.9795  -17.0128 C   0  0  0  0  0  0  0  0  0  0  0  0
   -6.4739    5.1552  -15.6504 C   0  0  0  0  0  0  0  0  0  0  0  0
   -5.0945    5.4004  -15.4466 C   0  0  0  0  0  0  0  0  0  0  0  0
   -4.3826    5.3872  -16.5859 N   0  0  0  0  0  0  0  0  0  0  0  0
   -5.3131    5.1425  -17.5283 N   0  0  0  0  0  0  0  0  0  0  0  0
   -5.1583    5.1803  -19.0011 C   0  0  0  0  0  0  0  0  0  0  0  0
   -3.7015    4.9436  -19.4601 C   0  0  0  0  0  0  0  0  0  0  0  0
   -3.8309    6.0937  -20.3901 N   0  0  0  0  0  0  0  0  0  0  0  0
   -4.8824    6.6291  -19.4922 C   0  0  0  0  0  0  0  0  0  0  0  0
   -6.3949    4.4657  -19.7378 C   0  0  0  0  0  0  0  0  0  0  0  0
   -6.4187    3.9339  -20.8525 O   0  0  0  0  0  0  0  0  0  0  0  0
   -7.6087    4.4706  -19.0612 N   0  0  0  0  0  0  0  0  0  0  0  0
   -4.1561    5.8486  -21.3253 H   0  0  0  0  0  0  0  0  0  0  0  0
   -8.4301    4.2871  -19.5720 H   0  0  0  0  0  0  0  0  0  0  0  0
   -7.2264    6.5587  -13.2594 O   0  0  0  0  0  0  0  0  0  0  0  0
   -7.6507    5.4921  -13.4828 C   0  0  0  0  0  0  0  0  0  0  0  0
   -8.2491    4.4290  -12.5274 N   0  0  0  0  0  0  0  0  0  0  0  0
   -8.6109    3.6300  -12.9746 H   0  0  0  0  0  0  0  0  0  0  0  0
   -8.3588    4.4200  -11.1332 C   0  0  0  0  0  0  0  0  0  0  0  0
   -7.9323    5.5151  -10.3863 C   0  0  0  0  0  0  0  0  0  0  0  0
   -8.0229    5.5037   -8.9926 C   0  0  0  0  0  0  0  0  0  0  0  0
   -8.5464    4.3965   -8.3170 C   0  0  0  0  0  0  0  0  0  0  0  0
   -8.9736    3.2855   -9.0554 C   0  0  0  0  0  0  0  0  0  0  0  0
   -8.8835    3.3100  -10.4666 C   0  0  0  0  0  0  0  0  0  0  0  0
   -9.5663    2.0809   -8.3658 C   0  0  0  0  0  0  0  0  0  0  0  0
   -9.5902    2.1026   -6.8361 C   0  0  0  0  0  0  0  0  0  0  0  0
   -9.6773    3.4965   -6.2442 C   0  0  0  0  0  0  0  0  0  0  0  0
   -8.5840    4.3925   -6.8117 C   0  0  0  0  0  0  0  0  0  0  0  0
 20 21  2  0  0  0
 21 22  1  0  0  0
 22 24  1  0  0  0
 24 25  2  0  0  0
 25 26  1  0  0  0
 26 27  2  0  0  0
 27 28  1  0  0  0
 28 29  2  0  0  0
 28 30  1  0  0  0
 30 31  1  0  0  0
 31 32  1  0  0  0
 32 33  1  0  0  0
 21  1  1  0  0  0
  1  2  2  0  0  0
  2  3  1  0  0  0
  3  4  1  0  0  0
  3  5  2  0  0  0
  5  6  1  0  0  0
  6  7  2  0  0  0
  7  8  1  0  0  0
  8  9  2  0  0  0
  9 10  1  0  0  0
 10 11  1  0  0  0
 11 12  1  0  0  0
 12 13  1  0  0  0
 13 14  1  0  0  0
 11 15  1  0  0  0
 15 16  2  0  0  0
 15 17  1  0  0  0
 29 24  1  0  0  0
  7  1  1  0  0  0
 14 11  1  0  0  0
 33 27  1  0  0  0
 17  5  1  0  0  0
 10  6  1  0  0  0
 22 23  1  0  0  0
 13 18  1  0  0  0
 17 19  1  0  0  0
M  END
> <minimizedAffinity>
-8.54254

> <minimizedRMSD>
0.30719

$$$$
P28173


 37 42  0  0  0  0  0  0  0  0999 V2000
   -2.1636    6.3876  -16.1825 C   0  0  0  0  0  0  0  0  0  0  0  0
   -2.2641    6.5142  -17.6428 N   0  0  0  0  0  0  0  0  0  0  0  0
   -3.5510    7.0505  -18.0729 C   0  0  0  0  0  0  0  0  0  0  0  0
   -3.2433    7.5380  -19.4169 N   0  0  0  0  0  0  0  0  0  0  0  0
   -3.5016    6.4085  -20.3264 C   0  0  0  0  0  0  0  0  0  0  0  0
   -4.2380    5.3340  -19.5251 C   0  0  0  0  0  0  0  0  0  0  0  0
   -4.7459    6.0914  -18.3224 C   0  0  0  0  0  0  0  0  0  0  0  0
   -5.1081    5.1883  -17.2119 N   0  0  0  0  0  0  0  0  0  0  0  0
   -6.4967    4.9157  -17.1512 C   0  0  0  0  0  0  0  0  0  0  0  0
   -7.3883    4.6559  -18.1771 C   0  0  0  0  0  0  0  0  0  0  0  0
   -8.7414    4.4980  -17.8680 C   0  0  0  0  0  0  0  0  0  0  0  0
   -9.8759    4.3119  -19.1404 Cl  0  0  0  0  0  0  0  0  0  0  0  0
   -9.2065    4.5848  -16.5526 C   0  0  0  0  0  0  0  0  0  0  0  0
   -8.3021    4.8534  -15.5301 C   0  0  0  0  0  0  0  0  0  0  0  0
   -6.9578    4.9946  -15.8426 C   0  0  0  0  0  0  0  0  0  0  0  0
   -5.7961    5.2847  -14.9570 C   0  0  0  0  0  0  0  0  0  0  0  0
   -4.6690    5.5456  -15.8880 N   0  0  0  0  0  0  0  0  0  0  0  0
   -3.1505    4.9655  -15.5778 S   0  0  0  0  0  0  0  0  0  0  0  0
   -2.1388    5.5919  -18.0600 H   0  0  0  0  0  0  0  0  0  0  0  0
   -2.2660    7.8239  -19.4753 H   0  0  0  0  0  0  0  0  0  0  0  0
   -8.7660    5.2057  -14.1752 C   0  0  0  0  0  0  0  0  0  0  0  0
   -9.4354    6.1564  -14.0719 O   0  0  0  0  0  0  0  0  0  0  0  0
   -8.2482    4.2260  -13.1021 N   0  0  0  0  0  0  0  0  0  0  0  0
   -7.7576    3.4492  -13.4558 H   0  0  0  0  0  0  0  0  0  0  0  0
   -8.3614    4.2613  -11.7175 C   0  0  0  0  0  0  0  0  0  0  0  0
   -8.8175    3.1387  -11.0329 C   0  0  0  0  0  0  0  0  0  0  0  0
   -8.8347    3.1262   -9.6364 C   0  0  0  0  0  0  0  0  0  0  0  0
   -8.4201    4.2515   -8.9209 C   0  0  0  0  0  0  0  0  0  0  0  0
   -7.9928    5.3944   -9.6119 C   0  0  0  0  0  0  0  0  0  0  0  0
   -7.9614    5.3918  -11.0070 C   0  0  0  0  0  0  0  0  0  0  0  0
   -7.4931    6.5744   -8.8270 C   0  0  0  0  0  0  0  0  0  0  0  0
   -8.3936    6.8290   -7.6278 C   0  0  0  0  0  0  0  0  0  0  0  0
   -8.6894    5.5737   -6.7873 C   0  0  0  0  0  0  0  0  0  0  0  0
   -8.3091    4.2332   -7.4221 C   0  0  0  0  0  0  0  0  0  0  0  0
   -0.4544    5.4177  -14.5341 C   0  0  0  0  0  0  0  0  0  0  0  0
   -0.6602    6.2732  -15.7915 C   0  0  0  0  0  0  0  0  0  0  0  0
    0.2646    5.7747  -16.9114 C   0  0  0  0  0  0  0  0  0  0  0  0
 35 36  1  0  0  0
 36 37  1  0  0  0
  1 36  1  0  0  0
  1  2  1  0  0  0
  3  2  1  0  0  0
  3  4  1  0  0  0
  4  5  1  0  0  0
  5  6  1  0  0  0
  7  6  1  0  0  0
  7  8  1  0  0  0
  8  9  1  0  0  0
  9 10  2  0  0  0
 10 11  1  0  0  0
 11 12  1  0  0  0
 11 13  2  0  0  0
 13 14  1  0  0  0
 14 21  1  0  0  0
 21 22  2  0  0  0
 21 23  1  0  0  0
 23 25  1  0  0  0
 25 26  2  0  0  0
 26 27  1  0  0  0
 27 28  2  0  0  0
 28 29  1  0  0  0
 29 30  2  0  0  0
 29 31  1  0  0  0
 31 32  1  0  0  0
 32 33  1  0  0  0
 33 34  1  0  0  0
 14 15  2  0  0  0
 15 16  1  0  0  0
 16 17  1  0  0  0
 17 18  1  0  0  0
 18  1  1  0  0  0
  7  3  1  0  0  0
 17  8  1  0  0  0
 15  9  1  0  0  0
 30 25  1  0  0  0
 34 28  1  0  0  0
  2 19  1  0  0  0
  4 20  1  0  0  0
 23 24  1  0  0  0
M  END
> <minimizedAffinity>
-9.36351

> <minimizedRMSD>
1.33607

$$$$
P28174


 31 36  0  0  0  0  0  0  0  0999 V2000
   -7.6859    4.9937  -14.7438 C   0  0  0  0  0  0  0  0  0  0  0  0
   -8.9078    4.6595  -15.4635 C   0  0  0  0  0  0  0  0  0  0  0  0
   -8.8895    4.5138  -16.7930 C   0  0  0  0  0  0  0  0  0  0  0  0
   -7.6433    4.6665  -17.5990 C   0  0  0  0  0  0  0  0  0  0  0  0
   -6.4295    5.0274  -16.8620 C   0  0  0  0  0  0  0  0  0  0  0  0
   -6.5390    5.1402  -15.4250 C   0  0  0  0  0  0  0  0  0  0  0  0
   -5.2026    5.5879  -15.0161 C   0  0  0  0  0  0  0  0  0  0  0  0
   -4.4157    5.7714  -16.0367 N   0  0  0  0  0  0  0  0  0  0  0  0
   -5.1962    5.4774  -17.1567 C   0  0  0  0  0  0  0  0  0  0  0  0
   -7.8683    4.4552  -18.8550 N   0  0  0  0  0  0  0  0  0  0  0  0
   -9.2356    4.2471  -18.9375 C   0  0  0  0  0  0  0  0  0  0  0  0
   -9.8978    4.2671  -17.7715 C   0  0  0  0  0  0  0  0  0  0  0  0
   -4.6557    5.8792  -18.4701 C   0  0  0  0  0  0  0  0  0  0  0  0
   -5.4745    6.8940  -19.2796 C   0  0  0  0  0  0  0  0  0  0  0  0
   -5.0991    6.1760  -20.5066 N   0  0  0  0  0  0  0  0  0  0  0  0
   -4.7770    4.9792  -19.6903 C   0  0  0  0  0  0  0  0  0  0  0  0
   -4.2990    6.5757  -20.9971 H   0  0  0  0  0  0  0  0  0  0  0  0
   -7.3495    6.5913  -13.1135 O   0  0  0  0  0  0  0  0  0  0  0  0
   -7.7074    5.5023  -13.3390 C   0  0  0  0  0  0  0  0  0  0  0  0
   -8.1756    4.3810  -12.3794 N   0  0  0  0  0  0  0  0  0  0  0  0
   -8.3559    3.5158  -12.8132 H   0  0  0  0  0  0  0  0  0  0  0  0
   -8.3833    4.3974  -11.0009 C   0  0  0  0  0  0  0  0  0  0  0  0
   -8.0418    5.5264  -10.2592 C   0  0  0  0  0  0  0  0  0  0  0  0
   -8.1810    5.5294   -8.8721 C   0  0  0  0  0  0  0  0  0  0  0  0
   -8.6749    4.4056   -8.2021 C   0  0  0  0  0  0  0  0  0  0  0  0
   -9.0391    3.2709   -8.9417 C   0  0  0  0  0  0  0  0  0  0  0  0
   -8.8978    3.2781  -10.3465 C   0  0  0  0  0  0  0  0  0  0  0  0
   -9.6293    2.0627   -8.2572 C   0  0  0  0  0  0  0  0  0  0  0  0
   -9.5900    2.0620   -6.7290 C   0  0  0  0  0  0  0  0  0  0  0  0
   -9.7588    3.4419   -6.1219 C   0  0  0  0  0  0  0  0  0  0  0  0
   -8.7341    4.4128   -6.6958 C   0  0  0  0  0  0  0  0  0  0  0  0
 18 19  2  0  0  0
 19 20  1  0  0  0
 20 22  1  0  0  0
 22 23  2  0  0  0
 23 24  1  0  0  0
 24 25  2  0  0  0
 25 26  1  0  0  0
 26 27  2  0  0  0
 26 28  1  0  0  0
 28 29  1  0  0  0
 29 30  1  0  0  0
 30 31  1  0  0  0
 19  1  1  0  0  0
  1  2  1  0  0  0
  2  3  2  0  0  0
  3  4  1  0  0  0
  4  5  1  0  0  0
  5  6  1  0  0  0
  6  7  1  0  0  0
  7  8  2  0  0  0
  8  9  1  0  0  0
  9 13  1  0  0  0
 13 14  1  0  0  0
 14 15  1  0  0  0
 15 16  1  0  0  0
  4 10  2  0  0  0
 10 11  1  0  0  0
 11 12  2  0  0  0
 27 22  1  0  0  0
  6  1  2  0  0  0
 16 13  1  0  0  0
 31 25  1  0  0  0
 12  3  1  0  0  0
  9  5  2  0  0  0
 20 21  1  0  0  0
 15 17  1  0  0  0
M  END
> <minimizedAffinity>
-9.00040

> <minimizedRMSD>
0.33057

$$$$
P28177


 32 36  0  0  0  0  0  0  0  0999 V2000
   -8.0620    4.4193  -13.2099 N   0  0  0  0  0  0  0  0  0  0  0  0
   -8.7377    5.2685  -14.2954 C   0  0  0  0  0  0  0  0  0  0  0  0
   -9.4913    6.1529  -14.2032 O   0  0  0  0  0  0  0  0  0  0  0  0
   -7.5177    3.6729  -13.5502 H   0  0  0  0  0  0  0  0  0  0  0  0
   -7.9016    1.5044   -8.2812 N   0  0  0  0  0  0  0  0  0  0  0  0
   -9.0579    2.1995   -7.7597 C   0  0  0  0  0  0  0  0  0  0  0  0
   -8.6962    3.3745   -6.8470 C   0  0  0  0  0  0  0  0  0  0  0  0
   -7.8685    4.4628   -7.5411 C   0  0  0  0  0  0  0  0  0  0  0  0
   -8.0653    4.5786   -9.0335 C   0  0  0  0  0  0  0  0  0  0  0  0
   -7.3342    5.5204   -9.7590 C   0  0  0  0  0  0  0  0  0  0  0  0
   -7.3645    5.5084  -11.1544 C   0  0  0  0  0  0  0  0  0  0  0  0
   -8.0931    4.5318  -11.8307 C   0  0  0  0  0  0  0  0  0  0  0  0
   -8.8490    3.6152  -11.1226 C   0  0  0  0  0  0  0  0  0  0  0  0
   -8.8771    3.6693   -9.7307 C   0  0  0  0  0  0  0  0  0  0  0  0
   -9.7730    2.7267   -8.9788 C   0  0  0  0  0  0  0  0  0  0  0  0
   -7.3614    1.1155   -7.5083 H   0  0  0  0  0  0  0  0  0  0  0  0
   -7.3209    2.1576   -8.8071 H   0  0  0  0  0  0  0  0  0  0  0  0
   -8.2844    4.8903  -15.6500 C   0  0  0  0  0  0  0  0  0  0  0  0
   -9.1754    4.6341  -16.6950 C   0  0  0  0  0  0  0  0  0  0  0  0
   -8.6866    4.5145  -17.9929 C   0  0  0  0  0  0  0  0  0  0  0  0
   -9.8035    4.2882  -19.2790 Cl  0  0  0  0  0  0  0  0  0  0  0  0
   -7.3246    4.6644  -18.2930 C   0  0  0  0  0  0  0  0  0  0  0  0
   -6.4450    4.8775  -17.2205 C   0  0  0  0  0  0  0  0  0  0  0  0
   -6.9039    4.9479  -15.9069 C   0  0  0  0  0  0  0  0  0  0  0  0
   -5.7473    5.1195  -15.1198 C   0  0  0  0  0  0  0  0  0  0  0  0
   -4.6423    5.1981  -15.8535 N   0  0  0  0  0  0  0  0  0  0  0  0
   -5.0911    5.1333  -17.1252 N   0  0  0  0  0  0  0  0  0  0  0  0
   -4.2548    5.6987  -18.1930 C   0  0  0  0  0  0  0  0  0  0  0  0
   -3.0196    4.8205  -18.4876 C   0  0  0  0  0  0  0  0  0  0  0  0
   -3.2260    5.0898  -19.9240 N   0  0  0  0  0  0  0  0  0  0  0  0
   -4.6562    5.3606  -19.6194 C   0  0  0  0  0  0  0  0  0  0  0  0
   -3.0679    4.2862  -20.5320 H   0  0  0  0  0  0  0  0  0  0  0  0
  6  5  1  0  0  0
  6  7  1  0  0  0
  7  8  1  0  0  0
  8  9  1  0  0  0
  9 10  2  0  0  0
 10 11  1  0  0  0
 11 12  2  0  0  0
 12  1  1  0  0  0
  1  2  1  0  0  0
  2  3  2  0  0  0
  2 18  1  0  0  0
 18 19  2  0  0  0
 19 20  1  0  0  0
 20 21  1  0  0  0
 20 22  2  0  0  0
 22 23  1  0  0  0
 23 24  2  0  0  0
 24 25  1  0  0  0
 25 26  2  0  0  0
 26 27  1  0  0  0
 27 28  1  0  0  0
 28 29  1  0  0  0
 29 30  1  0  0  0
 30 31  1  0  0  0
 12 13  1  0  0  0
 13 14  2  0  0  0
 14 15  1  0  0  0
 15  6  1  0  0  0
 14  9  1  0  0  0
 24 18  1  0  0  0
 31 28  1  0  0  0
 27 23  1  0  0  0
  5 16  1  0  0  0
  5 17  1  0  0  0
  1  4  1  0  0  0
 30 32  1  0  0  0
M  END
> <minimizedAffinity>
-8.49290

> <minimizedRMSD>
0.96659

$$$$
P28178


 40 44  0  0  0  0  0  0  0  0999 V2000
   -7.3558    5.1889  -13.8739 C   0  0  0  0  0  0  0  0  0  0  0  0
   -7.2291    6.6075  -13.8028 O   0  0  0  0  0  0  0  0  0  0  0  0
   -7.9552    7.0220  -14.2946 H   0  0  0  0  0  0  0  0  0  0  0  0
   -4.8039    5.4899  -16.1253 C   0  0  0  0  0  0  0  0  0  0  0  0
   -4.1705    5.5104  -17.3006 N   0  0  0  0  0  0  0  0  0  0  0  0
   -5.1143    5.2432  -18.2002 N   0  0  0  0  0  0  0  0  0  0  0  0
   -6.3475    4.9956  -17.6436 C   0  0  0  0  0  0  0  0  0  0  0  0
   -7.5635    4.6856  -18.2591 C   0  0  0  0  0  0  0  0  0  0  0  0
   -8.6674    4.5216  -17.4441 C   0  0  0  0  0  0  0  0  0  0  0  0
  -10.1936    4.2163  -18.1707 Cl  0  0  0  0  0  0  0  0  0  0  0  0
   -8.5607    4.6555  -16.0639 C   0  0  0  0  0  0  0  0  0  0  0  0
   -7.3307    4.9401  -15.3968 C   0  0  0  0  0  0  0  0  0  0  0  0
   -6.1906    5.1291  -16.2536 C   0  0  0  0  0  0  0  0  0  0  0  0
   -4.8367    5.2093  -19.6441 C   0  0  0  0  0  0  0  0  0  0  0  0
   -3.3401    5.2623  -20.0265 C   0  0  0  0  0  0  0  0  0  0  0  0
   -3.7209    6.1782  -21.1424 N   0  0  0  0  0  0  0  0  0  0  0  0
   -4.8764    6.6012  -20.3000 C   0  0  0  0  0  0  0  0  0  0  0  0
   -3.9755    5.7091  -22.0116 H   0  0  0  0  0  0  0  0  0  0  0  0
   -2.8526    4.8547  -14.6830 C   0  0  0  0  0  0  0  0  0  0  0  0
   -3.9650    5.8539  -14.9515 C   0  0  0  0  0  0  0  0  0  0  0  0
   -6.1582    4.4641  -13.0623 C   0  0  0  0  0  0  0  0  0  0  0  0
   -5.5134    5.0783  -12.3009 O   0  0  0  0  0  0  0  0  0  0  0  0
   -6.1134    2.9552  -13.4325 N   0  0  0  0  0  0  0  0  0  0  0  0
   -6.7148    2.6927  -14.1664 H   0  0  0  0  0  0  0  0  0  0  0  0
   -5.3278    1.8689  -12.8712 C   0  0  0  0  0  0  0  0  0  0  0  0
   -4.8758    2.0362  -11.4165 C   0  0  0  0  0  0  0  0  0  0  0  0
   -5.7612    1.4610  -10.5687 F   0  0  0  0  0  0  0  0  0  0  0  0
   -3.6919    1.3874  -11.2273 F   0  0  0  0  0  0  0  0  0  0  0  0
   -8.6479    4.8124  -13.2425 N   0  0  0  0  0  0  0  0  0  0  0  0
   -9.4645    4.6371  -13.7638 H   0  0  0  0  0  0  0  0  0  0  0  0
   -8.6074    4.7264  -11.8261 C   0  0  0  0  0  0  0  0  0  0  0  0
   -8.6789    3.4753  -11.1985 C   0  0  0  0  0  0  0  0  0  0  0  0
   -8.4875    3.3456   -9.8213 C   0  0  0  0  0  0  0  0  0  0  0  0
   -8.2239    4.4737   -9.0471 C   0  0  0  0  0  0  0  0  0  0  0  0
   -8.1702    5.7338   -9.6585 C   0  0  0  0  0  0  0  0  0  0  0  0
   -8.3998    5.8563  -11.0309 C   0  0  0  0  0  0  0  0  0  0  0  0
   -7.7597    6.9196   -8.8339 C   0  0  0  0  0  0  0  0  0  0  0  0
   -8.4443    6.9095   -7.4769 C   0  0  0  0  0  0  0  0  0  0  0  0
   -8.5076    5.5320   -6.7907 C   0  0  0  0  0  0  0  0  0  0  0  0
   -7.9071    4.3666   -7.5812 C   0  0  0  0  0  0  0  0  0  0  0  0
 19 20  1  0  0  0
 20  4  1  0  0  0
  4  5  2  0  0  0
  5  6  1  0  0  0
  6 14  1  0  0  0
 14 15  1  0  0  0
 15 16  1  0  0  0
 16 17  1  0  0  0
  6  7  1  0  0  0
  7  8  2  0  0  0
  8  9  1  0  0  0
  9 10  1  0  0  0
  9 11  2  0  0  0
 11 12  1  0  0  0
 12  1  1  0  0  0
  1  2  1  0  0  0
  1 29  1  0  0  0
 29 31  1  0  0  0
 31 32  2  0  0  0
 32 33  1  0  0  0
 33 34  2  0  0  0
 34 35  1  0  0  0
 35 36  2  0  0  0
 35 37  1  0  0  0
 37 38  1  0  0  0
 38 39  1  0  0  0
 39 40  1  0  0  0
  1 21  1  0  0  0
 21 22  2  0  0  0
 21 23  1  0  0  0
 23 25  1  0  0  0
 25 26  1  0  0  0
 26 27  1  0  0  0
 26 28  1  0  0  0
 12 13  2  0  0  0
 13  4  1  0  0  0
 17 14  1  0  0  0
 13  7  1  0  0  0
 36 31  1  0  0  0
 40 34  1  0  0  0
 16 18  1  0  0  0
  2  3  1  0  0  0
 29 30  1  0  0  0
 23 24  1  0  0  0
M  END
> <minimizedAffinity>
-7.92316

> <minimizedRMSD>
0.28083

$$$$
P28181


 36 40  0  0  0  0  0  0  0  0999 V2000
   -5.4301    5.2456  -15.3519 C   0  0  0  0  0  0  0  0  0  0  0  0
   -5.0558    4.0866  -14.4237 C   0  0  0  0  0  0  0  0  0  0  0  0
   -4.4799    5.1798  -16.5936 C   0  0  0  0  0  0  0  0  0  0  0  0
   -3.2641    5.2952  -16.5496 O   0  0  0  0  0  0  0  0  0  0  0  0
   -5.2800    5.0079  -17.7350 N   0  0  0  0  0  0  0  0  0  0  0  0
   -6.6335    4.8795  -17.3709 C   0  0  0  0  0  0  0  0  0  0  0  0
   -7.7198    4.6507  -18.1998 C   0  0  0  0  0  0  0  0  0  0  0  0
   -8.9806    4.5334  -17.6141 C   0  0  0  0  0  0  0  0  0  0  0  0
  -10.3593    4.2740  -18.6009 Cl  0  0  0  0  0  0  0  0  0  0  0  0
   -9.1573    4.6907  -16.2374 C   0  0  0  0  0  0  0  0  0  0  0  0
   -8.0564    4.9760  -15.4283 C   0  0  0  0  0  0  0  0  0  0  0  0
   -6.7856    5.0312  -15.9898 C   0  0  0  0  0  0  0  0  0  0  0  0
   -4.8403    5.1114  -19.1435 C   0  0  0  0  0  0  0  0  0  0  0  0
   -3.3649    4.8158  -19.5157 C   0  0  0  0  0  0  0  0  0  0  0  0
   -3.3884    6.0064  -20.3967 N   0  0  0  0  0  0  0  0  0  0  0  0
   -4.4949    6.5544  -19.5876 C   0  0  0  0  0  0  0  0  0  0  0  0
   -3.6362    5.8066  -21.3658 H   0  0  0  0  0  0  0  0  0  0  0  0
   -8.3049    5.4297  -14.0501 C   0  0  0  0  0  0  0  0  0  0  0  0
   -8.4785    6.5703  -13.8804 O   0  0  0  0  0  0  0  0  0  0  0  0
   -8.3088    4.2582  -13.0485 N   0  0  0  0  0  0  0  0  0  0  0  0
   -8.2105    3.3673  -13.4558 H   0  0  0  0  0  0  0  0  0  0  0  0
   -8.4285    4.2548  -11.6642 C   0  0  0  0  0  0  0  0  0  0  0  0
   -8.8015    3.0922  -11.0007 C   0  0  0  0  0  0  0  0  0  0  0  0
   -8.8562    3.0703   -9.6044 C   0  0  0  0  0  0  0  0  0  0  0  0
   -8.5372    4.2134   -8.8579 C   0  0  0  0  0  0  0  0  0  0  0  0
   -8.1938    5.3963   -9.5329 C   0  0  0  0  0  0  0  0  0  0  0  0
   -8.1349    5.4014  -10.9316 C   0  0  0  0  0  0  0  0  0  0  0  0
   -7.8025    6.6522   -8.8010 C   0  0  0  0  0  0  0  0  0  0  0  0
   -8.2706    6.6589   -7.3563 C   0  0  0  0  0  0  0  0  0  0  0  0
   -7.9165    5.3406   -6.6724 C   0  0  0  0  0  0  0  0  0  0  0  0
   -8.6105    4.1575   -7.3522 C   0  0  0  0  0  0  0  0  0  0  0  0
   -5.3394    6.4195  -14.5598 O   0  0  0  0  0  0  0  0  0  0  0  0
   -5.4228    7.6611  -15.2465 C   0  0  0  0  0  0  0  0  0  0  0  0
   -4.2058    8.5335  -14.9540 C   0  0  0  0  0  0  0  0  0  0  0  0
   -3.1020   10.5004  -15.6220 C   0  0  0  0  0  0  0  0  0  0  0  0
   -4.2891    9.7260  -15.7397 O   0  0  0  0  0  0  0  0  0  0  0  0
 35 36  1  0  0  0
 36 34  1  0  0  0
 34 33  1  0  0  0
 33 32  1  0  0  0
 32  1  1  0  0  0
  1  2  1  0  0  0
  1  3  1  0  0  0
  3  4  2  0  0  0
  3  5  1  0  0  0
  5 13  1  0  0  0
 13 14  1  0  0  0
 14 15  1  0  0  0
 15 16  1  0  0  0
  5  6  1  0  0  0
  6  7  2  0  0  0
  7  8  1  0  0  0
  8  9  1  0  0  0
  8 10  2  0  0  0
 10 11  1  0  0  0
 11 18  1  0  0  0
 18 19  2  0  0  0
 18 20  1  0  0  0
 20 22  1  0  0  0
 22 23  2  0  0  0
 23 24  1  0  0  0
 24 25  2  0  0  0
 25 26  1  0  0  0
 26 27  2  0  0  0
 26 28  1  0  0  0
 28 29  1  0  0  0
 29 30  1  0  0  0
 30 31  1  0  0  0
 11 12  2  0  0  0
 12  1  1  0  0  0
 16 13  1  0  0  0
 12  6  1  0  0  0
 27 22  1  0  0  0
 31 25  1  0  0  0
 15 17  1  0  0  0
 20 21  1  0  0  0
M  END
> <minimizedAffinity>
-7.50338

> <minimizedRMSD>
0.61553

$$$$
P28182


 31 35  0  0  0  0  0  0  0  0999 V2000
   -8.0675    4.8117  -15.3992 C   0  0  0  0  0  0  0  0  0  0  0  0
   -9.0524    4.5745  -16.3595 C   0  0  0  0  0  0  0  0  0  0  0  0
   -8.7039    4.5156  -17.7070 C   0  0  0  0  0  0  0  0  0  0  0  0
   -9.9415    4.3086  -18.8848 Cl  0  0  0  0  0  0  0  0  0  0  0  0
   -7.3890    4.7171  -18.1485 C   0  0  0  0  0  0  0  0  0  0  0  0
   -6.3942    4.9129  -17.1838 C   0  0  0  0  0  0  0  0  0  0  0  0
   -6.7030    4.9155  -15.7883 C   0  0  0  0  0  0  0  0  0  0  0  0
   -5.4848    5.0800  -15.0075 C   0  0  0  0  0  0  0  0  0  0  0  0
   -4.4776    5.1844  -15.8808 N   0  0  0  0  0  0  0  0  0  0  0  0
   -3.2471    5.3373  -15.6956 O   0  0  0  0  0  0  0  0  0  0  0  0
   -5.0321    5.1756  -17.2320 N   0  0  0  0  0  0  0  0  0  0  0  0
   -4.2560    5.8442  -18.2915 C   0  0  0  0  0  0  0  0  0  0  0  0
   -3.7602    4.8631  -19.3807 C   0  0  0  0  0  0  0  0  0  0  0  0
   -3.9219    5.9763  -20.3452 N   0  0  0  0  0  0  0  0  0  0  0  0
   -4.9688    6.5275  -19.4491 C   0  0  0  0  0  0  0  0  0  0  0  0
   -4.2576    5.6940  -21.2661 H   0  0  0  0  0  0  0  0  0  0  0  0
   -8.1247    4.2153  -12.9155 N   0  0  0  0  0  0  0  0  0  0  0  0
   -8.4386    5.2497  -14.0270 C   0  0  0  0  0  0  0  0  0  0  0  0
   -8.9200    6.3139  -13.9584 O   0  0  0  0  0  0  0  0  0  0  0  0
   -7.7846    3.3507  -13.2410 H   0  0  0  0  0  0  0  0  0  0  0  0
   -7.3057    6.7985   -8.8059 C   0  0  0  0  0  0  0  0  0  0  0  0
   -7.8302    5.5462   -9.4528 C   0  0  0  0  0  0  0  0  0  0  0  0
   -7.7689    5.4378  -10.8544 C   0  0  0  0  0  0  0  0  0  0  0  0
   -8.2467    4.3111  -11.5219 C   0  0  0  0  0  0  0  0  0  0  0  0
   -8.8156    3.2842  -10.7706 C   0  0  0  0  0  0  0  0  0  0  0  0
   -8.8845    3.3644   -9.3564 C   0  0  0  0  0  0  0  0  0  0  0  0
   -8.3915    4.5001   -8.6919 C   0  0  0  0  0  0  0  0  0  0  0  0
   -8.3924    4.5471   -7.1794 C   0  0  0  0  0  0  0  0  0  0  0  0
   -9.5057    3.7377   -6.5290 C   0  0  0  0  0  0  0  0  0  0  0  0
   -9.5437    2.3228   -7.0618 C   0  0  0  0  0  0  0  0  0  0  0  0
   -9.4993    2.2183   -8.5863 C   0  0  0  0  0  0  0  0  0  0  0  0
 21 22  1  0  0  0
 22 23  2  0  0  0
 23 24  1  0  0  0
 24 17  1  0  0  0
 17 18  1  0  0  0
 18 19  2  0  0  0
 18  1  1  0  0  0
  1  2  2  0  0  0
  2  3  1  0  0  0
  3  4  1  0  0  0
  3  5  2  0  0  0
  5  6  1  0  0  0
  6  7  2  0  0  0
  7  8  1  0  0  0
  8  9  2  0  0  0
  9 10  1  0  0  0
  9 11  1  0  0  0
 11 12  1  0  0  0
 12 13  1  0  0  0
 13 14  1  0  0  0
 14 15  1  0  0  0
 24 25  2  0  0  0
 25 26  1  0  0  0
 26 27  2  0  0  0
 27 28  1  0  0  0
 28 29  1  0  0  0
 29 30  1  0  0  0
 30 31  1  0  0  0
 27 22  1  0  0  0
  7  1  1  0  0  0
 15 12  1  0  0  0
 31 26  1  0  0  0
 11  6  1  0  0  0
 17 20  1  0  0  0
 14 16  1  0  0  0
M  CHG 1   9   1
M  CHG 1  10  -1
M  END
> <minimizedAffinity>
-9.33110

> <minimizedRMSD>
0.65595

$$$$
P28183


 31 35  0  0  0  0  0  0  0  0999 V2000
   -8.2616    4.5811  -12.9096 N   0  0  0  0  0  0  0  0  0  0  0  0
   -7.0995    5.0308  -13.8358 C   0  0  0  0  0  0  0  0  0  0  0  0
   -6.1174    5.6181  -13.5897 O   0  0  0  0  0  0  0  0  0  0  0  0
   -9.0212    4.1620  -13.3752 H   0  0  0  0  0  0  0  0  0  0  0  0
   -8.2780    5.8751  -10.7838 C   0  0  0  0  0  0  0  0  0  0  0  0
   -8.3636    5.8494   -9.3802 C   0  0  0  0  0  0  0  0  0  0  0  0
   -8.6160    4.6687   -8.6738 C   0  0  0  0  0  0  0  0  0  0  0  0
   -8.8212    3.4870   -9.3908 C   0  0  0  0  0  0  0  0  0  0  0  0
   -8.7012    3.4969  -10.8005 C   0  0  0  0  0  0  0  0  0  0  0  0
   -8.4061    4.6754  -11.5094 C   0  0  0  0  0  0  0  0  0  0  0  0
   -9.1317    2.2033   -8.6615 C   0  0  0  0  0  0  0  0  0  0  0  0
   -9.7063    2.4098   -7.2613 C   0  0  0  0  0  0  0  0  0  0  0  0
   -8.9025    3.4161   -6.4584 C   0  0  0  0  0  0  0  0  0  0  0  0
   -8.7756    4.7508   -7.1769 C   0  0  0  0  0  0  0  0  0  0  0  0
   -6.6236    8.0488  -11.0350 C   0  0  0  0  0  0  0  0  0  0  0  0
   -8.2926    7.5244  -11.5070 S   0  0  0  0  0  0  0  0  0  0  0  0
   -7.3074    4.7425  -15.2825 C   0  0  0  0  0  0  0  0  0  0  0  0
   -8.5767    4.5824  -15.8532 C   0  0  0  0  0  0  0  0  0  0  0  0
   -8.7235    4.5807  -17.2432 C   0  0  0  0  0  0  0  0  0  0  0  0
  -10.2916    4.5212  -17.9448 Cl  0  0  0  0  0  0  0  0  0  0  0  0
   -7.6338    4.7265  -18.1070 C   0  0  0  0  0  0  0  0  0  0  0  0
   -6.3701    4.8677  -17.5254 C   0  0  0  0  0  0  0  0  0  0  0  0
   -6.1908    4.8643  -16.1431 C   0  0  0  0  0  0  0  0  0  0  0  0
   -4.7992    5.0393  -15.9717 C   0  0  0  0  0  0  0  0  0  0  0  0
   -4.1406    5.1242  -17.1258 N   0  0  0  0  0  0  0  0  0  0  0  0
   -5.1115    5.0603  -18.0558 N   0  0  0  0  0  0  0  0  0  0  0  0
   -4.8331    5.1767  -19.4949 C   0  0  0  0  0  0  0  0  0  0  0  0
   -3.3351    5.2842  -19.8627 C   0  0  0  0  0  0  0  0  0  0  0  0
   -3.7240    6.2988  -20.8874 N   0  0  0  0  0  0  0  0  0  0  0  0
   -4.8821    6.6281  -20.0069 C   0  0  0  0  0  0  0  0  0  0  0  0
   -3.9754    5.9124  -21.7974 H   0  0  0  0  0  0  0  0  0  0  0  0
 15 16  1  0  0  0
 16  5  1  0  0  0
  5  6  2  0  0  0
  6  7  1  0  0  0
  7  8  2  0  0  0
  8  9  1  0  0  0
  9 10  2  0  0  0
 10  1  1  0  0  0
  1  2  1  0  0  0
  2  3  2  0  0  0
  2 17  1  0  0  0
 17 18  2  0  0  0
 18 19  1  0  0  0
 19 20  1  0  0  0
 19 21  2  0  0  0
 21 22  1  0  0  0
 22 23  2  0  0  0
 23 24  1  0  0  0
 24 25  2  0  0  0
 25 26  1  0  0  0
 26 27  1  0  0  0
 27 28  1  0  0  0
 28 29  1  0  0  0
 29 30  1  0  0  0
  8 11  1  0  0  0
 11 12  1  0  0  0
 12 13  1  0  0  0
 13 14  1  0  0  0
 10  5  1  0  0  0
 23 17  1  0  0  0
 30 27  1  0  0  0
 14  7  1  0  0  0
 26 22  1  0  0  0
  1  4  1  0  0  0
 29 31  1  0  0  0
M  END
> <minimizedAffinity>
-8.63867

> <minimizedRMSD>
0.29311

$$$$
P28185


 33 37  0  0  0  0  0  0  0  0999 V2000
   -5.8751    5.1095  -15.3170 C   0  0  0  0  0  0  0  0  0  0  0  0
   -5.7469    6.3873  -14.4851 C   0  0  0  0  0  0  0  0  0  0  0  0
   -4.9069    5.2271  -16.5440 C   0  0  0  0  0  0  0  0  0  0  0  0
   -3.7150    5.4956  -16.4652 O   0  0  0  0  0  0  0  0  0  0  0  0
   -5.6506    5.0025  -17.7115 N   0  0  0  0  0  0  0  0  0  0  0  0
   -7.0083    4.8216  -17.3895 C   0  0  0  0  0  0  0  0  0  0  0  0
   -8.0649    4.6108  -18.2569 C   0  0  0  0  0  0  0  0  0  0  0  0
   -9.3399    4.4705  -17.7104 C   0  0  0  0  0  0  0  0  0  0  0  0
  -10.6809    4.2709  -18.7597 Cl  0  0  0  0  0  0  0  0  0  0  0  0
   -9.5607    4.5761  -16.3329 C   0  0  0  0  0  0  0  0  0  0  0  0
   -8.4915    4.8318  -15.4741 C   0  0  0  0  0  0  0  0  0  0  0  0
   -7.2064    4.9276  -16.0070 C   0  0  0  0  0  0  0  0  0  0  0  0
   -5.1570    5.1345  -19.1021 C   0  0  0  0  0  0  0  0  0  0  0  0
   -3.6610    4.8684  -19.4082 C   0  0  0  0  0  0  0  0  0  0  0  0
   -3.6551    6.0787  -20.2610 N   0  0  0  0  0  0  0  0  0  0  0  0
   -4.8259    6.5860  -19.5214 C   0  0  0  0  0  0  0  0  0  0  0  0
   -3.8310    5.8957  -21.2489 H   0  0  0  0  0  0  0  0  0  0  0  0
   -8.7952    5.2863  -14.1000 C   0  0  0  0  0  0  0  0  0  0  0  0
   -9.3754    6.2966  -14.0111 O   0  0  0  0  0  0  0  0  0  0  0  0
   -8.3215    4.3031  -13.0055 N   0  0  0  0  0  0  0  0  0  0  0  0
   -7.9145    3.4734  -13.3449 H   0  0  0  0  0  0  0  0  0  0  0  0
   -8.3771    4.4003  -11.6117 C   0  0  0  0  0  0  0  0  0  0  0  0
   -7.9586    5.5641  -10.9721 C   0  0  0  0  0  0  0  0  0  0  0  0
   -7.9888    5.6600   -9.5798 C   0  0  0  0  0  0  0  0  0  0  0  0
   -8.4446    4.5946   -8.7951 C   0  0  0  0  0  0  0  0  0  0  0  0
   -8.8961    3.4281   -9.4290 C   0  0  0  0  0  0  0  0  0  0  0  0
   -8.8393    3.3329  -10.8384 C   0  0  0  0  0  0  0  0  0  0  0  0
   -9.3911    2.2590   -8.6132 C   0  0  0  0  0  0  0  0  0  0  0  0
   -9.8144    2.6257   -7.1927 C   0  0  0  0  0  0  0  0  0  0  0  0
   -8.7868    3.5045   -6.5031 C   0  0  0  0  0  0  0  0  0  0  0  0
   -8.4961    4.7698   -7.2982 C   0  0  0  0  0  0  0  0  0  0  0  0
   -4.8101    4.0315  -13.4435 C   0  0  0  0  0  0  0  0  0  0  0  0
   -5.7014    3.9237  -14.5429 O   0  0  0  0  0  0  0  0  0  0  0  0
 32 33  1  0  0  0
 33  1  1  0  0  0
  1  2  1  0  0  0
  1  3  1  0  0  0
  3  4  2  0  0  0
  3  5  1  0  0  0
  5 13  1  0  0  0
 13 14  1  0  0  0
 14 15  1  0  0  0
 15 16  1  0  0  0
  5  6  1  0  0  0
  6  7  2  0  0  0
  7  8  1  0  0  0
  8  9  1  0  0  0
  8 10  2  0  0  0
 10 11  1  0  0  0
 11 18  1  0  0  0
 18 19  2  0  0  0
 18 20  1  0  0  0
 20 22  1  0  0  0
 22 23  2  0  0  0
 23 24  1  0  0  0
 24 25  2  0  0  0
 25 26  1  0  0  0
 26 27  2  0  0  0
 26 28  1  0  0  0
 28 29  1  0  0  0
 29 30  1  0  0  0
 30 31  1  0  0  0
 11 12  2  0  0  0
 12  1  1  0  0  0
 16 13  1  0  0  0
 12  6  1  0  0  0
 27 22  1  0  0  0
 31 25  1  0  0  0
 15 17  1  0  0  0
 20 21  1  0  0  0
M  END
> <minimizedAffinity>
-9.28387

> <minimizedRMSD>
0.76691

$$$$
P28186


 34 38  0  0  0  0  0  0  0  0999 V2000
   -8.3692    4.2306  -12.9716 N   0  0  0  0  0  0  0  0  0  0  0  0
   -8.6117    5.2778  -14.0798 C   0  0  0  0  0  0  0  0  0  0  0  0
   -8.9985    6.3780  -14.0106 O   0  0  0  0  0  0  0  0  0  0  0  0
   -8.1098    3.3385  -13.2972 H   0  0  0  0  0  0  0  0  0  0  0  0
   -7.8778    4.3797   -7.3177 C   0  0  0  0  0  0  0  0  0  0  0  0
   -9.1375    3.9535   -6.5609 C   0  0  0  0  0  0  0  0  0  0  0  0
   -9.7485    2.6583   -7.1115 C   0  0  0  0  0  0  0  0  0  0  0  0
   -9.2867    2.2423   -8.5149 C   0  0  0  0  0  0  0  0  0  0  0  0
   -8.8447    3.3875   -9.3954 C   0  0  0  0  0  0  0  0  0  0  0  0
   -8.9416    3.3038  -10.7972 C   0  0  0  0  0  0  0  0  0  0  0  0
   -8.4576    4.3427  -11.5868 C   0  0  0  0  0  0  0  0  0  0  0  0
   -7.9401    5.4842  -10.9773 C   0  0  0  0  0  0  0  0  0  0  0  0
   -7.7934    5.5515   -9.5969 C   0  0  0  0  0  0  0  0  0  0  0  0
   -8.2013    4.4902   -8.7950 C   0  0  0  0  0  0  0  0  0  0  0  0
   -7.0974    5.5196   -6.6478 C   0  0  0  0  0  0  0  0  0  0  0  0
   -8.4094    7.5533   -6.8533 O   0  0  0  0  0  0  0  0  0  0  0  0
   -7.9303    6.6673   -6.1663 C   0  0  0  0  0  0  0  0  0  0  0  0
   -8.1042    6.6448   -4.8366 O   0  0  0  0  0  0  0  0  0  0  0  0
   -7.7277    5.9550   -4.3265 H   0  0  0  0  0  0  0  0  0  0  0  0
   -8.1925    4.8373  -15.4225 C   0  0  0  0  0  0  0  0  0  0  0  0
   -9.1121    4.5755  -16.4327 C   0  0  0  0  0  0  0  0  0  0  0  0
   -8.6674    4.4950  -17.7497 C   0  0  0  0  0  0  0  0  0  0  0  0
   -9.8339    4.3268  -18.9963 Cl  0  0  0  0  0  0  0  0  0  0  0  0
   -7.3181    4.6576  -18.0999 C   0  0  0  0  0  0  0  0  0  0  0  0
   -6.4039    4.8854  -17.0619 C   0  0  0  0  0  0  0  0  0  0  0  0
   -6.8202    4.9432  -15.7327 C   0  0  0  0  0  0  0  0  0  0  0  0
   -5.6438    5.1844  -14.9937 C   0  0  0  0  0  0  0  0  0  0  0  0
   -4.5682    5.2984  -15.7663 N   0  0  0  0  0  0  0  0  0  0  0  0
   -5.0541    5.1766  -17.0204 N   0  0  0  0  0  0  0  0  0  0  0  0
   -4.2600    5.7041  -18.1397 C   0  0  0  0  0  0  0  0  0  0  0  0
   -3.0285    4.8241  -18.4469 C   0  0  0  0  0  0  0  0  0  0  0  0
   -3.2983    5.0213  -19.8842 N   0  0  0  0  0  0  0  0  0  0  0  0
   -4.7150    5.3006  -19.5329 C   0  0  0  0  0  0  0  0  0  0  0  0
   -3.1611    4.1893  -20.4582 H   0  0  0  0  0  0  0  0  0  0  0  0
 16 17  2  0  0  0
 17 18  1  0  0  0
 17 15  1  0  0  0
  5 15  1  0  0  0
  5  6  1  0  0  0
  6  7  1  0  0  0
  7  8  1  0  0  0
  8  9  1  0  0  0
  9 10  2  0  0  0
 10 11  1  0  0  0
 11  1  1  0  0  0
  1  2  1  0  0  0
  2  3  2  0  0  0
  2 20  1  0  0  0
 20 21  2  0  0  0
 21 22  1  0  0  0
 22 23  1  0  0  0
 22 24  2  0  0  0
 24 25  1  0  0  0
 25 26  2  0  0  0
 26 27  1  0  0  0
 27 28  2  0  0  0
 28 29  1  0  0  0
 29 30  1  0  0  0
 30 31  1  0  0  0
 31 32  1  0  0  0
 32 33  1  0  0  0
 11 12  2  0  0  0
 12 13  1  0  0  0
 13 14  2  0  0  0
 14  5  1  0  0  0
 14  9  1  0  0  0
 26 20  1  0  0  0
 33 30  1  0  0  0
 29 25  1  0  0  0
 18 19  1  0  0  0
  1  4  1  0  0  0
 32 34  1  0  0  0
M  END
> <minimizedAffinity>
-8.86900

> <minimizedRMSD>
0.75292

$$$$
P28187


 35 39  0  0  0  0  0  0  0  0999 V2000
   -5.9207    5.4231  -15.3381 C   0  0  0  0  0  0  0  0  0  0  0  0
   -5.6609    4.4597  -14.1799 C   0  0  0  0  0  0  0  0  0  0  0  0
   -4.8481    5.2262  -16.4536 C   0  0  0  0  0  0  0  0  0  0  0  0
   -3.6376    5.2148  -16.2771 O   0  0  0  0  0  0  0  0  0  0  0  0
   -5.5270    5.0726  -17.6717 N   0  0  0  0  0  0  0  0  0  0  0  0
   -6.9048    4.9201  -17.4425 C   0  0  0  0  0  0  0  0  0  0  0  0
   -7.9000    4.6407  -18.3616 C   0  0  0  0  0  0  0  0  0  0  0  0
   -9.2016    4.4769  -17.8862 C   0  0  0  0  0  0  0  0  0  0  0  0
  -10.4788    4.1926  -18.9933 Cl  0  0  0  0  0  0  0  0  0  0  0  0
   -9.5064    4.6091  -16.5276 C   0  0  0  0  0  0  0  0  0  0  0  0
   -8.4986    4.9458  -15.6252 C   0  0  0  0  0  0  0  0  0  0  0  0
   -7.1903    5.0772  -16.0857 C   0  0  0  0  0  0  0  0  0  0  0  0
   -4.9300    5.0427  -19.0148 C   0  0  0  0  0  0  0  0  0  0  0  0
   -3.4093    4.7850  -19.1795 C   0  0  0  0  0  0  0  0  0  0  0  0
   -3.4091    5.7953  -20.2773 N   0  0  0  0  0  0  0  0  0  0  0  0
   -4.5662    6.4322  -19.5932 C   0  0  0  0  0  0  0  0  0  0  0  0
   -3.6151    5.4193  -21.2028 H   0  0  0  0  0  0  0  0  0  0  0  0
   -8.8611    5.3299  -14.2448 C   0  0  0  0  0  0  0  0  0  0  0  0
   -9.3727    6.3659  -14.0896 O   0  0  0  0  0  0  0  0  0  0  0  0
   -8.4399    4.2596  -13.2183 N   0  0  0  0  0  0  0  0  0  0  0  0
   -8.0915    3.4266  -13.6108 H   0  0  0  0  0  0  0  0  0  0  0  0
   -8.4719    4.2792  -11.8284 C   0  0  0  0  0  0  0  0  0  0  0  0
   -8.7858    3.1192  -11.1264 C   0  0  0  0  0  0  0  0  0  0  0  0
   -8.7188    3.1017   -9.7311 C   0  0  0  0  0  0  0  0  0  0  0  0
   -8.3518    4.2536   -9.0316 C   0  0  0  0  0  0  0  0  0  0  0  0
   -8.0602    5.4292   -9.7381 C   0  0  0  0  0  0  0  0  0  0  0  0
   -8.1235    5.4364  -11.1328 C   0  0  0  0  0  0  0  0  0  0  0  0
   -7.5932    6.6374   -8.9770 C   0  0  0  0  0  0  0  0  0  0  0  0
   -8.4188    6.8215   -7.7130 C   0  0  0  0  0  0  0  0  0  0  0  0
   -8.5761    5.5427   -6.8710 C   0  0  0  0  0  0  0  0  0  0  0  0
   -8.1459    4.2354   -7.5426 C   0  0  0  0  0  0  0  0  0  0  0  0
   -6.0096    6.8180  -15.0491 O   0  0  0  0  0  0  0  0  0  0  0  0
   -4.2142    8.0385  -13.9269 C   0  0  0  0  0  0  0  0  0  0  0  0
   -5.5469    7.3103  -13.7952 C   0  0  0  0  0  0  0  0  0  0  0  0
   -6.6108    8.2901  -13.3015 C   0  0  0  0  0  0  0  0  0  0  0  0
 33 34  1  0  0  0
 34 35  1  0  0  0
 34 32  1  0  0  0
 32  1  1  0  0  0
  1  2  1  0  0  0
  1  3  1  0  0  0
  3  4  2  0  0  0
  3  5  1  0  0  0
  5 13  1  0  0  0
 13 14  1  0  0  0
 14 15  1  0  0  0
 15 16  1  0  0  0
  5  6  1  0  0  0
  6  7  2  0  0  0
  7  8  1  0  0  0
  8  9  1  0  0  0
  8 10  2  0  0  0
 10 11  1  0  0  0
 11 18  1  0  0  0
 18 19  2  0  0  0
 18 20  1  0  0  0
 20 22  1  0  0  0
 22 23  2  0  0  0
 23 24  1  0  0  0
 24 25  2  0  0  0
 25 26  1  0  0  0
 26 27  2  0  0  0
 26 28  1  0  0  0
 28 29  1  0  0  0
 29 30  1  0  0  0
 30 31  1  0  0  0
 11 12  2  0  0  0
 12  1  1  0  0  0
 16 13  1  0  0  0
 12  6  1  0  0  0
 27 22  1  0  0  0
 31 25  1  0  0  0
 15 17  1  0  0  0
 20 21  1  0  0  0
M  END
> <minimizedAffinity>
-8.27136

> <minimizedRMSD>
0.90800

$$$$
P28189


 32 36  0  0  0  0  0  0  0  0999 V2000
   -5.1604    5.1115  -17.1830 N   0  0  0  0  0  0  0  0  0  0  0  0
   -4.5779    5.1738  -15.9628 N   0  0  0  0  0  0  0  0  0  0  0  0
   -5.5955    5.0661  -15.1122 C   0  0  0  0  0  0  0  0  0  0  0  0
   -6.8313    4.8770  -15.7627 C   0  0  0  0  0  0  0  0  0  0  0  0
   -8.1787    4.8063  -15.3545 C   0  0  0  0  0  0  0  0  0  0  0  0
   -9.1705    4.5982  -16.3151 C   0  0  0  0  0  0  0  0  0  0  0  0
   -8.8252    4.5244  -17.6648 C   0  0  0  0  0  0  0  0  0  0  0  0
  -10.0625    4.3980  -18.8518 Cl  0  0  0  0  0  0  0  0  0  0  0  0
   -7.5021    4.6634  -18.1025 C   0  0  0  0  0  0  0  0  0  0  0  0
   -6.5164    4.8389  -17.1220 C   0  0  0  0  0  0  0  0  0  0  0  0
   -4.4435    7.2789  -18.2925 N   0  0  0  0  0  0  0  0  0  0  0  0
   -4.5025    5.7904  -18.3332 C   0  0  0  0  0  0  0  0  0  0  0  0
   -3.1087    5.2080  -18.6727 C   0  0  0  0  0  0  0  0  0  0  0  0
   -3.4390    5.3309  -20.1129 N   0  0  0  0  0  0  0  0  0  0  0  0
   -4.8800    5.3091  -19.7321 C   0  0  0  0  0  0  0  0  0  0  0  0
   -4.1905    7.5836  -17.3526 H   0  0  0  0  0  0  0  0  0  0  0  0
   -5.3558    7.6621  -18.5401 H   0  0  0  0  0  0  0  0  0  0  0  0
   -3.1402    4.5410  -20.6848 H   0  0  0  0  0  0  0  0  0  0  0  0
   -8.5121    5.2721  -13.9883 C   0  0  0  0  0  0  0  0  0  0  0  0
   -8.9230    6.3643  -13.9147 O   0  0  0  0  0  0  0  0  0  0  0  0
   -8.2441    4.2252  -12.8821 N   0  0  0  0  0  0  0  0  0  0  0  0
   -7.9661    3.3399  -13.2111 H   0  0  0  0  0  0  0  0  0  0  0  0
   -8.3326    4.3313  -11.4895 C   0  0  0  0  0  0  0  0  0  0  0  0
   -7.9084    5.4913  -10.8452 C   0  0  0  0  0  0  0  0  0  0  0  0
   -7.9829    5.6032   -9.4549 C   0  0  0  0  0  0  0  0  0  0  0  0
   -8.4729    4.5504   -8.6745 C   0  0  0  0  0  0  0  0  0  0  0  0
   -8.9072    3.3794   -9.3118 C   0  0  0  0  0  0  0  0  0  0  0  0
   -8.8272    3.2777  -10.7198 C   0  0  0  0  0  0  0  0  0  0  0  0
   -9.4014    2.2101   -8.4967 C   0  0  0  0  0  0  0  0  0  0  0  0
   -9.9013    2.5960   -7.1068 C   0  0  0  0  0  0  0  0  0  0  0  0
   -8.9149    3.4922   -6.3812 C   0  0  0  0  0  0  0  0  0  0  0  0
   -8.5902    4.7458   -7.1836 C   0  0  0  0  0  0  0  0  0  0  0  0
 11 12  1  0  0  0
 12  1  1  0  0  0
  1  2  1  0  0  0
  2  3  2  0  0  0
  3  4  1  0  0  0
  4  5  2  0  0  0
  5 19  1  0  0  0
 19 20  2  0  0  0
 19 21  1  0  0  0
 21 23  1  0  0  0
 23 24  2  0  0  0
 24 25  1  0  0  0
 25 26  2  0  0  0
 26 27  1  0  0  0
 27 28  2  0  0  0
 27 29  1  0  0  0
 29 30  1  0  0  0
 30 31  1  0  0  0
 31 32  1  0  0  0
  5  6  1  0  0  0
  6  7  2  0  0  0
  7  8  1  0  0  0
  7  9  1  0  0  0
  9 10  2  0  0  0
 12 13  1  0  0  0
 13 14  1  0  0  0
 14 15  1  0  0  0
 15 12  1  0  0  0
 10  1  1  0  0  0
 10  4  1  0  0  0
 28 23  1  0  0  0
 32 26  1  0  0  0
 11 16  1  0  0  0
 11 17  1  0  0  0
 21 22  1  0  0  0
 14 18  1  0  0  0
M  END
> <minimizedAffinity>
-9.18224

> <minimizedRMSD>
0.62404

$$$$
P28192


 33 38  0  0  0  0  0  0  0  0999 V2000
   -8.0207    4.4170  -18.7502 C   0  0  0  0  0  0  0  0  0  0  0  0
   -9.3896    4.3763  -18.9011 C   0  0  0  0  0  0  0  0  0  0  0  0
  -10.2155    4.3972  -17.4384 S   0  0  0  0  0  0  0  0  0  0  0  0
   -8.7584    4.6259  -16.5648 C   0  0  0  0  0  0  0  0  0  0  0  0
   -8.6172    4.7666  -15.1817 C   0  0  0  0  0  0  0  0  0  0  0  0
   -7.3453    5.0426  -14.6619 C   0  0  0  0  0  0  0  0  0  0  0  0
   -6.2349    5.1733  -15.5190 C   0  0  0  0  0  0  0  0  0  0  0  0
   -4.8715    5.4538  -15.3535 C   0  0  0  0  0  0  0  0  0  0  0  0
   -4.2160    5.4624  -16.5074 N   0  0  0  0  0  0  0  0  0  0  0  0
   -5.1696    5.2499  -17.4513 N   0  0  0  0  0  0  0  0  0  0  0  0
   -6.3989    5.0106  -16.8948 C   0  0  0  0  0  0  0  0  0  0  0  0
   -7.6505    4.7181  -17.4097 C   0  0  0  0  0  0  0  0  0  0  0  0
   -4.7593    5.3437  -18.8683 C   0  0  0  0  0  0  0  0  0  0  0  0
   -3.3460    4.7820  -19.1795 C   0  0  0  0  0  0  0  0  0  0  0  0
   -3.1307    5.9539  -20.0599 N   0  0  0  0  0  0  0  0  0  0  0  0
   -4.1174    6.6963  -19.2435 C   0  0  0  0  0  0  0  0  0  0  0  0
   -3.4090    5.8096  -21.0306 H   0  0  0  0  0  0  0  0  0  0  0  0
   -7.1939    5.3582  -13.2220 C   0  0  0  0  0  0  0  0  0  0  0  0
   -6.4708    6.2320  -12.9392 O   0  0  0  0  0  0  0  0  0  0  0  0
   -8.0571    4.4382  -12.3226 N   0  0  0  0  0  0  0  0  0  0  0  0
   -8.5287    3.7186  -12.8012 H   0  0  0  0  0  0  0  0  0  0  0  0
   -8.2746    4.4636  -10.9465 C   0  0  0  0  0  0  0  0  0  0  0  0
   -7.9352    5.5895  -10.2021 C   0  0  0  0  0  0  0  0  0  0  0  0
   -8.1207    5.6015   -8.8199 C   0  0  0  0  0  0  0  0  0  0  0  0
   -8.6470    4.4860   -8.1578 C   0  0  0  0  0  0  0  0  0  0  0  0
   -8.9946    3.3487   -8.9011 C   0  0  0  0  0  0  0  0  0  0  0  0
   -8.8217    3.3530  -10.3016 C   0  0  0  0  0  0  0  0  0  0  0  0
   -9.6077    2.1455   -8.2277 C   0  0  0  0  0  0  0  0  0  0  0  0
   -9.5495    2.1312   -6.7008 C   0  0  0  0  0  0  0  0  0  0  0  0
   -9.7617    3.5059   -6.0939 C   0  0  0  0  0  0  0  0  0  0  0  0
   -8.7544    4.5035   -6.6540 C   0  0  0  0  0  0  0  0  0  0  0  0
   -6.8074    3.7368  -20.9005 N   0  0  0  0  0  0  0  0  0  0  0  0
   -7.2661    4.0924  -19.8979 C   0  0  0  0  0  0  0  0  0  0  0  0
 32 33  3  0  0  0
 33  1  1  0  0  0
  1  2  2  0  0  0
  2  3  1  0  0  0
  3  4  1  0  0  0
  4  5  2  0  0  0
  5  6  1  0  0  0
  6 18  1  0  0  0
 18 19  2  0  0  0
 18 20  1  0  0  0
 20 22  1  0  0  0
 22 23  2  0  0  0
 23 24  1  0  0  0
 24 25  2  0  0  0
 25 26  1  0  0  0
 26 27  2  0  0  0
 26 28  1  0  0  0
 28 29  1  0  0  0
 29 30  1  0  0  0
 30 31  1  0  0  0
  6  7  2  0  0  0
  7  8  1  0  0  0
  8  9  2  0  0  0
  9 10  1  0  0  0
 10 13  1  0  0  0
 13 14  1  0  0  0
 14 15  1  0  0  0
 15 16  1  0  0  0
 10 11  1  0  0  0
 11 12  2  0  0  0
 12  1  1  0  0  0
 12  4  1  0  0  0
 27 22  1  0  0  0
 11  7  1  0  0  0
 31 25  1  0  0  0
 16 13  1  0  0  0
 20 21  1  0  0  0
 15 17  1  0  0  0
M  END
> <minimizedAffinity>
-6.50949

> <minimizedRMSD>
0.42974

$$$$
P28193


 36 41  0  0  0  0  0  0  0  0999 V2000
   -8.9127    6.3574  -14.0280 O   0  0  0  0  0  0  0  0  0  0  0  0
   -8.5050    5.2629  -14.0730 C   0  0  0  0  0  0  0  0  0  0  0  0
   -8.2890    4.2271  -12.9463 N   0  0  0  0  0  0  0  0  0  0  0  0
   -8.0019    3.3371  -13.2541 H   0  0  0  0  0  0  0  0  0  0  0  0
   -8.1137    4.7872  -15.4141 C   0  0  0  0  0  0  0  0  0  0  0  0
   -9.0896    4.5721  -16.3862 C   0  0  0  0  0  0  0  0  0  0  0  0
   -8.7234    4.5162  -17.7257 C   0  0  0  0  0  0  0  0  0  0  0  0
   -9.9484    4.3035  -18.9167 Cl  0  0  0  0  0  0  0  0  0  0  0  0
   -7.4001    4.7143  -18.1411 C   0  0  0  0  0  0  0  0  0  0  0  0
   -6.4163    4.8709  -17.1539 C   0  0  0  0  0  0  0  0  0  0  0  0
   -6.7428    4.8558  -15.7660 C   0  0  0  0  0  0  0  0  0  0  0  0
   -5.5371    4.9688  -14.9581 C   0  0  0  0  0  0  0  0  0  0  0  0
   -4.5114    5.0610  -15.8122 N   0  0  0  0  0  0  0  0  0  0  0  0
   -3.2781    5.1407  -15.5984 O   0  0  0  0  0  0  0  0  0  0  0  0
   -5.0485    5.1058  -17.1750 N   0  0  0  0  0  0  0  0  0  0  0  0
   -4.2885    5.8290  -18.2094 C   0  0  0  0  0  0  0  0  0  0  0  0
   -3.7888    4.9169  -19.3541 C   0  0  0  0  0  0  0  0  0  0  0  0
   -3.9957    6.0755  -20.2574 N   0  0  0  0  0  0  0  0  0  0  0  0
   -5.0506    6.5450  -19.3230 C   0  0  0  0  0  0  0  0  0  0  0  0
   -4.3321    5.8320  -21.1891 H   0  0  0  0  0  0  0  0  0  0  0  0
   -8.4349    4.3483  -11.5627 C   0  0  0  0  0  0  0  0  0  0  0  0
   -8.7512    3.2560  -10.7634 C   0  0  0  0  0  0  0  0  0  0  0  0
   -8.8591    3.3938   -9.3605 C   0  0  0  0  0  0  0  0  0  0  0  0
   -8.6327    4.6479   -8.7524 C   0  0  0  0  0  0  0  0  0  0  0  0
   -8.3252    5.7604   -9.5681 C   0  0  0  0  0  0  0  0  0  0  0  0
   -8.2293    5.5844  -10.9587 C   0  0  0  0  0  0  0  0  0  0  0  0
   -8.7888    4.8224   -7.2560 C   0  0  0  0  0  0  0  0  0  0  0  0
   -8.8732    3.5378   -6.4408 C   0  0  0  0  0  0  0  0  0  0  0  0
   -9.6995    2.4761   -7.1400 C   0  0  0  0  0  0  0  0  0  0  0  0
   -9.1522    2.1666   -8.5286 C   0  0  0  0  0  0  0  0  0  0  0  0
   -8.0673    7.1104   -9.0470 C   0  0  0  0  0  0  0  0  0  0  0  0
   -9.1031    8.0225   -8.8302 C   0  0  0  0  0  0  0  0  0  0  0  0
   -8.7925    9.2972   -8.3854 C   0  0  0  0  0  0  0  0  0  0  0  0
   -7.5326    9.7345   -8.1756 N   0  0  0  0  0  0  0  0  0  0  0  0
   -6.5439    8.8446   -8.4046 C   0  0  0  0  0  0  0  0  0  0  0  0
   -6.7561    7.5440   -8.8326 C   0  0  0  0  0  0  0  0  0  0  0  0
  1  2  2  0  0  0
  2  3  1  0  0  0
  3 21  1  0  0  0
 21 22  2  0  0  0
 22 23  1  0  0  0
 23 24  2  0  0  0
 24 25  1  0  0  0
 25 31  1  0  0  0
 31 32  2  0  0  0
 32 33  1  0  0  0
 33 34  2  0  0  0
 34 35  1  0  0  0
 35 36  2  0  0  0
 25 26  2  0  0  0
 24 27  1  0  0  0
 27 28  1  0  0  0
 28 29  1  0  0  0
 29 30  1  0  0  0
  2  5  1  0  0  0
  5  6  2  0  0  0
  6  7  1  0  0  0
  7  8  1  0  0  0
  7  9  2  0  0  0
  9 10  1  0  0  0
 10 11  2  0  0  0
 11 12  1  0  0  0
 12 13  2  0  0  0
 13 14  1  0  0  0
 13 15  1  0  0  0
 15 16  1  0  0  0
 16 17  1  0  0  0
 17 18  1  0  0  0
 18 19  1  0  0  0
 26 21  1  0  0  0
 11  5  1  0  0  0
 19 16  1  0  0  0
 30 23  1  0  0  0
 15 10  1  0  0  0
 36 31  1  0  0  0
  3  4  1  0  0  0
 18 20  1  0  0  0
M  CHG 1  13   1
M  CHG 1  14  -1
M  END
> <minimizedAffinity>
-9.28039

> <minimizedRMSD>
0.52160

$$$$
P28194


 32 37  0  0  0  0  0  0  0  0999 V2000
   -4.0588    8.0151  -18.8771 C   0  0  0  0  0  0  0  0  0  0  0  0
   -3.5462    6.9880  -17.8754 C   0  0  0  0  0  0  0  0  0  0  0  0
   -3.9981    7.2621  -16.3842 C   0  0  0  0  0  0  0  0  0  0  0  0
   -5.1047    6.3292  -16.1966 N   0  0  0  0  0  0  0  0  0  0  0  0
   -6.0532    6.1372  -15.2447 C   0  0  0  0  0  0  0  0  0  0  0  0
   -7.0439    5.3912  -15.8604 C   0  0  0  0  0  0  0  0  0  0  0  0
   -8.3210    5.0701  -15.3750 C   0  0  0  0  0  0  0  0  0  0  0  0
   -9.1530    4.5973  -16.4183 C   0  0  0  0  0  0  0  0  0  0  0  0
   -8.7139    4.4675  -17.7867 C   0  0  0  0  0  0  0  0  0  0  0  0
   -9.9105    4.1665  -18.9965 Cl  0  0  0  0  0  0  0  0  0  0  0  0
   -7.3924    4.6698  -18.2426 C   0  0  0  0  0  0  0  0  0  0  0  0
   -6.6022    5.1332  -17.2070 C   0  0  0  0  0  0  0  0  0  0  0  0
   -5.2961    5.5212  -17.2853 C   0  0  0  0  0  0  0  0  0  0  0  0
   -4.1259    5.5833  -18.1879 C   0  0  0  0  0  0  0  0  0  0  0  0
   -2.9407    4.7376  -17.7382 C   0  0  0  0  0  0  0  0  0  0  0  0
   -1.7452    5.5104  -18.2546 C   0  0  0  0  0  0  0  0  0  0  0  0
   -2.0674    6.9198  -18.0079 N   0  0  0  0  0  0  0  0  0  0  0  0
   -1.7551    7.4962  -18.7892 H   0  0  0  0  0  0  0  0  0  0  0  0
   -8.8000    5.3716  -14.0074 C   0  0  0  0  0  0  0  0  0  0  0  0
   -9.5781    6.2384  -13.8903 O   0  0  0  0  0  0  0  0  0  0  0  0
   -8.1420    4.4559  -12.9353 N   0  0  0  0  0  0  0  0  0  0  0  0
   -7.5693    3.7420  -13.2981 H   0  0  0  0  0  0  0  0  0  0  0  0
   -8.2324    4.4822  -11.5367 C   0  0  0  0  0  0  0  0  0  0  0  0
   -7.7391    5.5681  -10.8176 C   0  0  0  0  0  0  0  0  0  0  0  0
   -7.7819    5.5780   -9.4197 C   0  0  0  0  0  0  0  0  0  0  0  0
   -8.3382    4.5090   -8.7080 C   0  0  0  0  0  0  0  0  0  0  0  0
   -8.8588    3.4184   -9.4181 C   0  0  0  0  0  0  0  0  0  0  0  0
   -8.7965    3.4111  -10.8337 C   0  0  0  0  0  0  0  0  0  0  0  0
   -9.5636    2.2961   -8.6950 C   0  0  0  0  0  0  0  0  0  0  0  0
   -9.4191    2.2728   -7.1735 C   0  0  0  0  0  0  0  0  0  0  0  0
   -9.3716    3.6555   -6.5482 C   0  0  0  0  0  0  0  0  0  0  0  0
   -8.3012    4.5223   -7.2013 C   0  0  0  0  0  0  0  0  0  0  0  0
  2  1  1  0  0  0
  2  3  1  0  0  0
  3  4  1  0  0  0
  4  5  1  0  0  0
  5  6  2  0  0  0
  6  7  1  0  0  0
  7 19  1  0  0  0
 19 20  2  0  0  0
 19 21  1  0  0  0
 21 23  1  0  0  0
 23 24  2  0  0  0
 24 25  1  0  0  0
 25 26  2  0  0  0
 26 27  1  0  0  0
 27 28  2  0  0  0
 27 29  1  0  0  0
 29 30  1  0  0  0
 30 31  1  0  0  0
 31 32  1  0  0  0
  7  8  2  0  0  0
  8  9  1  0  0  0
  9 10  1  0  0  0
  9 11  2  0  0  0
 11 12  1  0  0  0
 12 13  2  0  0  0
 13 14  1  0  0  0
 14 15  1  0  0  0
 15 16  1  0  0  0
 16 17  1  0  0  0
 14  2  1  0  0  0
 17  2  1  0  0  0
 13  4  1  0  0  0
 12  6  1  0  0  0
 28 23  1  0  0  0
 32 26  1  0  0  0
 21 22  1  0  0  0
 17 18  1  0  0  0
M  END
> <minimizedAffinity>
-10.00231

> <minimizedRMSD>
0.93404

$$$$
P28197


 35 39  0  0  0  0  0  0  0  0999 V2000
   -6.9441    4.7116  -13.6851 C   0  0  0  0  0  0  0  0  0  0  0  0
   -6.1866    3.5635  -13.3463 O   0  0  0  0  0  0  0  0  0  0  0  0
   -6.0429    3.5424  -12.3873 H   0  0  0  0  0  0  0  0  0  0  0  0
   -7.1361    4.6834  -15.2235 C   0  0  0  0  0  0  0  0  0  0  0  0
   -8.4156    4.5621  -15.8293 C   0  0  0  0  0  0  0  0  0  0  0  0
   -8.5927    4.5895  -17.2203 C   0  0  0  0  0  0  0  0  0  0  0  0
  -10.1441    4.3583  -17.9274 Cl  0  0  0  0  0  0  0  0  0  0  0  0
   -7.5375    4.8313  -18.0907 C   0  0  0  0  0  0  0  0  0  0  0  0
   -6.2719    4.9351  -17.5196 C   0  0  0  0  0  0  0  0  0  0  0  0
   -6.0514    4.8096  -16.1470 C   0  0  0  0  0  0  0  0  0  0  0  0
   -4.6368    4.8287  -16.0464 C   0  0  0  0  0  0  0  0  0  0  0  0
   -4.0192    5.0419  -17.2081 N   0  0  0  0  0  0  0  0  0  0  0  0
   -5.0313    5.1288  -18.0893 N   0  0  0  0  0  0  0  0  0  0  0  0
   -4.8240    5.2796  -19.5389 C   0  0  0  0  0  0  0  0  0  0  0  0
   -3.3537    5.3984  -19.9900 C   0  0  0  0  0  0  0  0  0  0  0  0
   -3.8041    6.4315  -20.9713 N   0  0  0  0  0  0  0  0  0  0  0  0
   -4.9114    6.7385  -20.0197 C   0  0  0  0  0  0  0  0  0  0  0  0
   -4.1056    6.0618  -21.8728 H   0  0  0  0  0  0  0  0  0  0  0  0
   -8.2436    4.5540  -12.9803 N   0  0  0  0  0  0  0  0  0  0  0  0
   -9.0518    4.3965  -13.5201 H   0  0  0  0  0  0  0  0  0  0  0  0
   -8.3774    4.6187  -11.5777 C   0  0  0  0  0  0  0  0  0  0  0  0
   -8.2579    5.8103  -10.8595 C   0  0  0  0  0  0  0  0  0  0  0  0
   -8.3189    5.8515   -9.4617 C   0  0  0  0  0  0  0  0  0  0  0  0
   -8.5936    4.7022   -8.7220 C   0  0  0  0  0  0  0  0  0  0  0  0
   -8.8326    3.5100   -9.4131 C   0  0  0  0  0  0  0  0  0  0  0  0
   -8.6874    3.4732  -10.8252 C   0  0  0  0  0  0  0  0  0  0  0  0
   -9.2353    2.2655   -8.6584 C   0  0  0  0  0  0  0  0  0  0  0  0
   -9.7940    2.5429   -7.2625 C   0  0  0  0  0  0  0  0  0  0  0  0
   -8.9170    3.5050   -6.4830 C   0  0  0  0  0  0  0  0  0  0  0  0
   -8.7360    4.8205   -7.2254 C   0  0  0  0  0  0  0  0  0  0  0  0
   -6.2042    5.9879  -13.2446 C   0  0  0  0  0  0  0  0  0  0  0  0
   -3.8229    6.3377  -12.9394 O   0  0  0  0  0  0  0  0  0  0  0  0
   -4.8726    5.8295  -12.5795 C   0  0  0  0  0  0  0  0  0  0  0  0
   -4.9166    5.0999  -11.4488 O   0  0  0  0  0  0  0  0  0  0  0  0
   -5.7232    4.7103  -11.1737 H   0  0  0  0  0  0  0  0  0  0  0  0
 32 33  2  0  0  0
 33 34  1  0  0  0
 33 31  1  0  0  0
 31  1  1  0  0  0
  1  2  1  0  0  0
  1 19  1  0  0  0
 19 21  1  0  0  0
 21 22  2  0  0  0
 22 23  1  0  0  0
 23 24  2  0  0  0
 24 25  1  0  0  0
 25 26  2  0  0  0
 25 27  1  0  0  0
 27 28  1  0  0  0
 28 29  1  0  0  0
 29 30  1  0  0  0
  1  4  1  0  0  0
  4  5  2  0  0  0
  5  6  1  0  0  0
  6  7  1  0  0  0
  6  8  2  0  0  0
  8  9  1  0  0  0
  9 10  2  0  0  0
 10 11  1  0  0  0
 11 12  2  0  0  0
 12 13  1  0  0  0
 13 14  1  0  0  0
 14 15  1  0  0  0
 15 16  1  0  0  0
 16 17  1  0  0  0
 26 21  1  0  0  0
 10  4  1  0  0  0
 17 14  1  0  0  0
 30 24  1  0  0  0
 13  9  1  0  0  0
 34 35  1  0  0  0
  2  3  1  0  0  0
 19 20  1  0  0  0
 16 18  1  0  0  0
M  END
> <minimizedAffinity>
-8.17922

> <minimizedRMSD>
0.91043

$$$$
P28198


 30 34  0  0  0  0  0  0  0  0999 V2000
   -8.9523    6.4215  -14.0019 O   0  0  0  0  0  0  0  0  0  0  0  0
   -8.5007    5.3446  -14.0627 C   0  0  0  0  0  0  0  0  0  0  0  0
   -8.1169    4.3528  -12.9378 N   0  0  0  0  0  0  0  0  0  0  0  0
   -7.6790    3.5273  -13.2478 H   0  0  0  0  0  0  0  0  0  0  0  0
   -8.2911    4.4387  -11.5520 C   0  0  0  0  0  0  0  0  0  0  0  0
   -7.9411    5.6089  -10.8847 C   0  0  0  0  0  0  0  0  0  0  0  0
   -8.0485    5.6981   -9.4935 C   0  0  0  0  0  0  0  0  0  0  0  0
   -7.5837    7.3646   -8.7106 Br  0  0  0  0  0  0  0  0  0  0  0  0
   -8.4907    4.6110   -8.7225 C   0  0  0  0  0  0  0  0  0  0  0  0
   -8.8751    3.4374   -9.3979 C   0  0  0  0  0  0  0  0  0  0  0  0
   -8.7687    3.3609  -10.8093 C   0  0  0  0  0  0  0  0  0  0  0  0
   -9.3412    2.2248   -8.6248 C   0  0  0  0  0  0  0  0  0  0  0  0
   -9.8588    2.5338   -7.2241 C   0  0  0  0  0  0  0  0  0  0  0  0
   -8.9006    3.4279   -6.4667 C   0  0  0  0  0  0  0  0  0  0  0  0
   -8.6151    4.7223   -7.2174 C   0  0  0  0  0  0  0  0  0  0  0  0
   -8.1513    4.8841  -15.4293 C   0  0  0  0  0  0  0  0  0  0  0  0
   -9.1233    4.6074  -16.3902 C   0  0  0  0  0  0  0  0  0  0  0  0
   -8.7487    4.4905  -17.7286 C   0  0  0  0  0  0  0  0  0  0  0  0
   -9.9633    4.2290  -18.9206 Cl  0  0  0  0  0  0  0  0  0  0  0  0
   -7.4224    4.6706  -18.1537 C   0  0  0  0  0  0  0  0  0  0  0  0
   -6.4455    4.9058  -17.1741 C   0  0  0  0  0  0  0  0  0  0  0  0
   -6.7957    4.9696  -15.8208 C   0  0  0  0  0  0  0  0  0  0  0  0
   -5.5768    5.1663  -15.1417 C   0  0  0  0  0  0  0  0  0  0  0  0
   -4.5334    5.2084  -15.9632 N   0  0  0  0  0  0  0  0  0  0  0  0
   -5.0861    5.1756  -17.1977 N   0  0  0  0  0  0  0  0  0  0  0  0
   -4.2902    5.7747  -18.2802 C   0  0  0  0  0  0  0  0  0  0  0  0
   -3.3035    4.7659  -18.9081 C   0  0  0  0  0  0  0  0  0  0  0  0
   -3.5102    5.4848  -20.1909 N   0  0  0  0  0  0  0  0  0  0  0  0
   -4.8572    5.8630  -19.6888 C   0  0  0  0  0  0  0  0  0  0  0  0
   -3.5169    4.8867  -21.0171 H   0  0  0  0  0  0  0  0  0  0  0  0
  1  2  2  0  0  0
  2  3  1  0  0  0
  3  5  1  0  0  0
  5  6  2  0  0  0
  6  7  1  0  0  0
  7  8  1  0  0  0
  7  9  2  0  0  0
  9 10  1  0  0  0
 10 11  2  0  0  0
 10 12  1  0  0  0
 12 13  1  0  0  0
 13 14  1  0  0  0
 14 15  1  0  0  0
  2 16  1  0  0  0
 16 17  2  0  0  0
 17 18  1  0  0  0
 18 19  1  0  0  0
 18 20  2  0  0  0
 20 21  1  0  0  0
 21 22  2  0  0  0
 22 23  1  0  0  0
 23 24  2  0  0  0
 24 25  1  0  0  0
 25 26  1  0  0  0
 26 27  1  0  0  0
 27 28  1  0  0  0
 28 29  1  0  0  0
 11  5  1  0  0  0
 22 16  1  0  0  0
 29 26  1  0  0  0
 15  9  1  0  0  0
 25 21  1  0  0  0
  3  4  1  0  0  0
 28 30  1  0  0  0
M  END
> <minimizedAffinity>
-9.05912

> <minimizedRMSD>
0.65666

$$$$
P28202


 33 37  0  0  0  0  0  0  0  0999 V2000
   -4.8585    5.7713  -15.7633 N   0  0  0  0  0  0  0  0  0  0  0  0
   -5.9383    5.5534  -14.9367 C   0  0  0  0  0  0  0  0  0  0  0  0
   -6.9857    5.1347  -15.7116 C   0  0  0  0  0  0  0  0  0  0  0  0
   -8.2996    4.9098  -15.2758 C   0  0  0  0  0  0  0  0  0  0  0  0
   -9.1370    4.5671  -16.3550 C   0  0  0  0  0  0  0  0  0  0  0  0
   -8.6660    4.4989  -17.7172 C   0  0  0  0  0  0  0  0  0  0  0  0
   -9.8303    4.1968  -18.9605 Cl  0  0  0  0  0  0  0  0  0  0  0  0
   -7.3367    4.7486  -18.1465 C   0  0  0  0  0  0  0  0  0  0  0  0
   -6.5190    5.0633  -17.0656 C   0  0  0  0  0  0  0  0  0  0  0  0
   -5.1986    5.4701  -17.0757 C   0  0  0  0  0  0  0  0  0  0  0  0
   -4.2232    5.7308  -18.2703 C   0  0  0  0  0  0  0  0  0  0  0  0
   -3.1955    4.5950  -18.5232 C   0  0  0  0  0  0  0  0  0  0  0  0
   -3.2663    4.9090  -19.9568 N   0  0  0  0  0  0  0  0  0  0  0  0
   -4.6355    5.4494  -19.7169 C   0  0  0  0  0  0  0  0  0  0  0  0
   -3.2336    4.0952  -20.5709 H   0  0  0  0  0  0  0  0  0  0  0  0
   -8.7657    5.2737  -13.9138 C   0  0  0  0  0  0  0  0  0  0  0  0
   -9.4803    6.1979  -13.8469 O   0  0  0  0  0  0  0  0  0  0  0  0
   -8.1315    4.4103  -12.7920 N   0  0  0  0  0  0  0  0  0  0  0  0
   -7.4969    3.7266  -13.1069 H   0  0  0  0  0  0  0  0  0  0  0  0
   -8.3152    4.4452  -11.4011 C   0  0  0  0  0  0  0  0  0  0  0  0
   -7.9457    5.5747  -10.6724 C   0  0  0  0  0  0  0  0  0  0  0  0
   -8.0457    5.5928   -9.2773 C   0  0  0  0  0  0  0  0  0  0  0  0
   -8.5399    4.4867   -8.5780 C   0  0  0  0  0  0  0  0  0  0  0  0
   -8.9264    3.3475   -9.2949 C   0  0  0  0  0  0  0  0  0  0  0  0
   -8.8092    3.3363  -10.7078 C   0  0  0  0  0  0  0  0  0  0  0  0
   -9.4842    2.1405   -8.5788 C   0  0  0  0  0  0  0  0  0  0  0  0
   -9.5582    2.2091   -7.0502 C   0  0  0  0  0  0  0  0  0  0  0  0
   -9.6776    3.6148   -6.4968 C   0  0  0  0  0  0  0  0  0  0  0  0
   -8.5931    4.5157   -7.0731 C   0  0  0  0  0  0  0  0  0  0  0  0
   -3.6394    6.4482  -15.3184 C   0  0  0  0  0  0  0  0  0  0  0  0
   -2.3740    4.7508  -14.1360 C   0  0  0  0  0  0  0  0  0  0  0  0
   -3.1983    5.9386  -14.0225 N   0  0  0  0  0  0  0  0  0  0  0  0
   -2.6590    6.6658  -13.5529 H   0  0  0  0  0  0  0  0  0  0  0  0
 31 32  1  0  0  0
 32 30  1  0  0  0
 30  1  1  0  0  0
  1  2  1  0  0  0
  2  3  2  0  0  0
  3  4  1  0  0  0
  4 16  1  0  0  0
 16 17  2  0  0  0
 16 18  1  0  0  0
 18 20  1  0  0  0
 20 21  2  0  0  0
 21 22  1  0  0  0
 22 23  2  0  0  0
 23 24  1  0  0  0
 24 25  2  0  0  0
 24 26  1  0  0  0
 26 27  1  0  0  0
 27 28  1  0  0  0
 28 29  1  0  0  0
  4  5  2  0  0  0
  5  6  1  0  0  0
  6  7  1  0  0  0
  6  8  2  0  0  0
  8  9  1  0  0  0
  9 10  2  0  0  0
 10 11  1  0  0  0
 11 12  1  0  0  0
 12 13  1  0  0  0
 13 14  1  0  0  0
 10  1  1  0  0  0
 14 11  1  0  0  0
  9  3  1  0  0  0
 25 20  1  0  0  0
 29 23  1  0  0  0
 32 33  1  0  0  0
 18 19  1  0  0  0
 13 15  1  0  0  0
M  END
> <minimizedAffinity>
-8.97080

> <minimizedRMSD>
0.93199

$$$$
P28203


 30 34  0  0  0  0  0  0  0  0999 V2000
   -8.1087    5.8272  -13.4715 N   0  0  0  0  0  0  0  0  0  0  0  0
   -7.0888    4.8436  -14.0659 C   0  0  0  0  0  0  0  0  0  0  0  0
   -6.2446    4.2272  -13.5508 O   0  0  0  0  0  0  0  0  0  0  0  0
   -8.6761    6.2830  -14.1345 H   0  0  0  0  0  0  0  0  0  0  0  0
   -6.0859    5.0078   -8.6017 C   0  0  0  0  0  0  0  0  0  0  0  0
   -7.4137    4.6422   -7.8962 C   0  0  0  0  0  0  0  0  0  0  0  0
   -8.0547    5.7793   -7.0755 C   0  0  0  0  0  0  0  0  0  0  0  0
   -8.4678    6.9943   -7.9273 C   0  0  0  0  0  0  0  0  0  0  0  0
   -8.5938    6.7126   -9.4084 C   0  0  0  0  0  0  0  0  0  0  0  0
   -8.6364    7.7541  -10.3372 C   0  0  0  0  0  0  0  0  0  0  0  0
   -8.5192    7.4854  -11.7095 C   0  0  0  0  0  0  0  0  0  0  0  0
   -8.3599    6.1770  -12.1555 C   0  0  0  0  0  0  0  0  0  0  0  0
   -8.3922    5.1374  -11.2482 C   0  0  0  0  0  0  0  0  0  0  0  0
   -8.5319    5.3977   -9.8892 C   0  0  0  0  0  0  0  0  0  0  0  0
   -8.4444    4.2502   -8.9372 C   0  0  0  0  0  0  0  0  0  0  0  0
   -7.2892    4.7024  -15.5308 C   0  0  0  0  0  0  0  0  0  0  0  0
   -8.5640    4.5357  -16.0908 C   0  0  0  0  0  0  0  0  0  0  0  0
   -8.7264    4.5756  -17.4725 C   0  0  0  0  0  0  0  0  0  0  0  0
  -10.3112    4.5079  -18.1282 Cl  0  0  0  0  0  0  0  0  0  0  0  0
   -7.6432    4.7550  -18.3357 C   0  0  0  0  0  0  0  0  0  0  0  0
   -6.3726    4.8829  -17.7593 C   0  0  0  0  0  0  0  0  0  0  0  0
   -6.1786    4.8511  -16.3804 C   0  0  0  0  0  0  0  0  0  0  0  0
   -4.7884    5.0139  -16.2102 C   0  0  0  0  0  0  0  0  0  0  0  0
   -4.1412    5.1443  -17.3668 N   0  0  0  0  0  0  0  0  0  0  0  0
   -5.1201    5.0925  -18.2939 N   0  0  0  0  0  0  0  0  0  0  0  0
   -4.8736    5.3360  -19.7251 C   0  0  0  0  0  0  0  0  0  0  0  0
   -3.3889    5.4853  -20.1115 C   0  0  0  0  0  0  0  0  0  0  0  0
   -3.7618    6.6715  -20.9173 N   0  0  0  0  0  0  0  0  0  0  0  0
   -4.9727    6.8301  -20.0825 C   0  0  0  0  0  0  0  0  0  0  0  0
   -3.9523    6.4690  -21.8987 H   0  0  0  0  0  0  0  0  0  0  0  0
  6  5  1  0  0  0
  6  7  1  0  0  0
  7  8  1  0  0  0
  8  9  1  0  0  0
  9 10  2  0  0  0
 10 11  1  0  0  0
 11 12  2  0  0  0
 12  1  1  0  0  0
  1  2  1  0  0  0
  2  3  2  0  0  0
  2 16  1  0  0  0
 16 17  2  0  0  0
 17 18  1  0  0  0
 18 19  1  0  0  0
 18 20  2  0  0  0
 20 21  1  0  0  0
 21 22  2  0  0  0
 22 23  1  0  0  0
 23 24  2  0  0  0
 24 25  1  0  0  0
 25 26  1  0  0  0
 26 27  1  0  0  0
 27 28  1  0  0  0
 28 29  1  0  0  0
 12 13  1  0  0  0
 13 14  2  0  0  0
 14 15  1  0  0  0
 15  6  1  0  0  0
 14  9  1  0  0  0
 22 16  1  0  0  0
 29 26  1  0  0  0
 25 21  1  0  0  0
  1  4  1  0  0  0
 28 30  1  0  0  0
M  END
> <minimizedAffinity>
-7.76165

> <minimizedRMSD>
1.57296

$$$$
P28204


 30 34  0  0  0  0  0  0  0  0999 V2000
   -8.9237    6.3662  -13.9762 O   0  0  0  0  0  0  0  0  0  0  0  0
   -8.4926    5.2825  -14.0573 C   0  0  0  0  0  0  0  0  0  0  0  0
   -8.2112    4.2301  -12.9581 N   0  0  0  0  0  0  0  0  0  0  0  0
   -7.9154    3.3530  -13.2932 H   0  0  0  0  0  0  0  0  0  0  0  0
   -8.3089    4.3227  -11.5647 C   0  0  0  0  0  0  0  0  0  0  0  0
   -7.8634    5.4728  -10.9177 C   0  0  0  0  0  0  0  0  0  0  0  0
   -7.9356    5.5667   -9.5320 C   0  0  0  0  0  0  0  0  0  0  0  0
   -7.5158    6.6972   -8.9438 F   0  0  0  0  0  0  0  0  0  0  0  0
   -8.4354    4.5255   -8.7477 C   0  0  0  0  0  0  0  0  0  0  0  0
   -8.8987    3.3675   -9.3896 C   0  0  0  0  0  0  0  0  0  0  0  0
   -8.8289    3.2741  -10.8009 C   0  0  0  0  0  0  0  0  0  0  0  0
   -9.4092    2.2018   -8.5749 C   0  0  0  0  0  0  0  0  0  0  0  0
   -9.8667    2.5778   -7.1667 C   0  0  0  0  0  0  0  0  0  0  0  0
   -8.8552    3.4600   -6.4575 C   0  0  0  0  0  0  0  0  0  0  0  0
   -8.5293    4.7153   -7.2557 C   0  0  0  0  0  0  0  0  0  0  0  0
   -8.1395    4.8408  -15.4294 C   0  0  0  0  0  0  0  0  0  0  0  0
   -9.1146    4.5846  -16.3936 C   0  0  0  0  0  0  0  0  0  0  0  0
   -8.7456    4.4982  -17.7353 C   0  0  0  0  0  0  0  0  0  0  0  0
   -9.9664    4.2716  -18.9276 Cl  0  0  0  0  0  0  0  0  0  0  0  0
   -7.4208    4.6851  -18.1602 C   0  0  0  0  0  0  0  0  0  0  0  0
   -6.4401    4.8970  -17.1788 C   0  0  0  0  0  0  0  0  0  0  0  0
   -6.7854    4.9334  -15.8227 C   0  0  0  0  0  0  0  0  0  0  0  0
   -5.5643    5.1168  -15.1445 C   0  0  0  0  0  0  0  0  0  0  0  0
   -4.5239    5.1741  -15.9688 N   0  0  0  0  0  0  0  0  0  0  0  0
   -5.0806    5.1656  -17.2021 N   0  0  0  0  0  0  0  0  0  0  0  0
   -4.2871    5.7833  -18.2762 C   0  0  0  0  0  0  0  0  0  0  0  0
   -3.2952    4.7889  -18.9184 C   0  0  0  0  0  0  0  0  0  0  0  0
   -3.5022    5.5288  -20.1893 N   0  0  0  0  0  0  0  0  0  0  0  0
   -4.8529    5.8902  -19.6843 C   0  0  0  0  0  0  0  0  0  0  0  0
   -3.5031    4.9452  -21.0258 H   0  0  0  0  0  0  0  0  0  0  0  0
  1  2  2  0  0  0
  2  3  1  0  0  0
  3  5  1  0  0  0
  5  6  2  0  0  0
  6  7  1  0  0  0
  7  8  1  0  0  0
  7  9  2  0  0  0
  9 10  1  0  0  0
 10 11  2  0  0  0
 10 12  1  0  0  0
 12 13  1  0  0  0
 13 14  1  0  0  0
 14 15  1  0  0  0
  2 16  1  0  0  0
 16 17  2  0  0  0
 17 18  1  0  0  0
 18 19  1  0  0  0
 18 20  2  0  0  0
 20 21  1  0  0  0
 21 22  2  0  0  0
 22 23  1  0  0  0
 23 24  2  0  0  0
 24 25  1  0  0  0
 25 26  1  0  0  0
 26 27  1  0  0  0
 27 28  1  0  0  0
 28 29  1  0  0  0
 11  5  1  0  0  0
 22 16  1  0  0  0
 29 26  1  0  0  0
 15  9  1  0  0  0
 25 21  1  0  0  0
  3  4  1  0  0  0
 28 30  1  0  0  0
M  END
> <minimizedAffinity>
-9.16930

> <minimizedRMSD>
0.65331

$$$$
P28206


 31 35  0  0  0  0  0  0  0  0999 V2000
   -8.1613    4.4696  -12.9047 N   0  0  0  0  0  0  0  0  0  0  0  0
   -7.7780    5.5658  -13.9258 C   0  0  0  0  0  0  0  0  0  0  0  0
   -7.4803    6.6834  -13.7611 O   0  0  0  0  0  0  0  0  0  0  0  0
   -8.2986    3.5751  -13.2923 H   0  0  0  0  0  0  0  0  0  0  0  0
   -8.3060    5.7980   -9.4455 C   0  0  0  0  0  0  0  0  0  0  0  0
   -8.1473    5.7360  -10.8389 C   0  0  0  0  0  0  0  0  0  0  0  0
   -8.3444    4.5421  -11.5232 C   0  0  0  0  0  0  0  0  0  0  0  0
   -8.7151    3.4093  -10.8070 C   0  0  0  0  0  0  0  0  0  0  0  0
   -8.8551    3.4520   -9.4033 C   0  0  0  0  0  0  0  0  0  0  0  0
   -8.6129    4.6434   -8.7012 C   0  0  0  0  0  0  0  0  0  0  0  0
   -8.7373    4.6977   -7.1907 C   0  0  0  0  0  0  0  0  0  0  0  0
   -8.9000    3.3530   -6.4878 C   0  0  0  0  0  0  0  0  0  0  0  0
   -9.7698    2.3966   -7.2759 C   0  0  0  0  0  0  0  0  0  0  0  0
   -9.2239    2.1869   -8.6798 C   0  0  0  0  0  0  0  0  0  0  0  0
   -8.1824    8.1517   -8.3652 N   0  0  0  0  0  0  0  0  0  0  0  0
   -8.2111    7.0878   -8.8271 C   0  0  0  0  0  0  0  0  0  0  0  0
   -7.7786    5.0771  -15.3215 C   0  0  0  0  0  0  0  0  0  0  0  0
   -8.9734    4.7397  -15.9634 C   0  0  0  0  0  0  0  0  0  0  0  0
   -8.9799    4.5284  -17.3406 C   0  0  0  0  0  0  0  0  0  0  0  0
  -10.4739    4.2772  -18.1467 Cl  0  0  0  0  0  0  0  0  0  0  0  0
   -7.8145    4.6034  -18.1090 C   0  0  0  0  0  0  0  0  0  0  0  0
   -6.6223    4.9106  -17.4422 C   0  0  0  0  0  0  0  0  0  0  0  0
   -6.5858    5.1521  -16.0698 C   0  0  0  0  0  0  0  0  0  0  0  0
   -5.2368    5.4683  -15.8035 C   0  0  0  0  0  0  0  0  0  0  0  0
   -4.4687    5.4147  -16.8919 N   0  0  0  0  0  0  0  0  0  0  0  0
   -5.3271    5.0851  -17.8801 N   0  0  0  0  0  0  0  0  0  0  0  0
   -4.9233    4.9942  -19.2959 C   0  0  0  0  0  0  0  0  0  0  0  0
   -3.4021    4.9210  -19.5360 C   0  0  0  0  0  0  0  0  0  0  0  0
   -3.5733    5.9164  -20.6215 N   0  0  0  0  0  0  0  0  0  0  0  0
   -4.8168    6.3775  -19.9631 C   0  0  0  0  0  0  0  0  0  0  0  0
   -3.7131    5.5100  -21.5465 H   0  0  0  0  0  0  0  0  0  0  0  0
 15 16  3  0  0  0
 16  5  1  0  0  0
  5  6  2  0  0  0
  6  7  1  0  0  0
  7  1  1  0  0  0
  1  2  1  0  0  0
  2  3  2  0  0  0
  2 17  1  0  0  0
 17 18  2  0  0  0
 18 19  1  0  0  0
 19 20  1  0  0  0
 19 21  2  0  0  0
 21 22  1  0  0  0
 22 23  2  0  0  0
 23 24  1  0  0  0
 24 25  2  0  0  0
 25 26  1  0  0  0
 26 27  1  0  0  0
 27 28  1  0  0  0
 28 29  1  0  0  0
 29 30  1  0  0  0
  7  8  2  0  0  0
  8  9  1  0  0  0
  9 10  2  0  0  0
 10 11  1  0  0  0
 11 12  1  0  0  0
 12 13  1  0  0  0
 13 14  1  0  0  0
 10  5  1  0  0  0
 23 17  1  0  0  0
 30 27  1  0  0  0
 14  9  1  0  0  0
 26 22  1  0  0  0
  1  4  1  0  0  0
 29 31  1  0  0  0
M  END
> <minimizedAffinity>
-8.66006

> <minimizedRMSD>
0.32775

$$$$
P28207


 30 34  0  0  0  0  0  0  0  0999 V2000
   -9.4511    6.1879  -14.0066 O   0  0  0  0  0  0  0  0  0  0  0  0
   -8.7858    5.2273  -14.0547 C   0  0  0  0  0  0  0  0  0  0  0  0
   -8.2577    4.3146  -12.9212 N   0  0  0  0  0  0  0  0  0  0  0  0
   -7.7744    3.5137  -13.2282 H   0  0  0  0  0  0  0  0  0  0  0  0
   -8.3556    4.4430  -11.5303 C   0  0  0  0  0  0  0  0  0  0  0  0
   -8.0745    5.6667  -10.9256 C   0  0  0  0  0  0  0  0  0  0  0  0
   -8.1611    5.8149   -9.5404 C   0  0  0  0  0  0  0  0  0  0  0  0
   -8.5134    4.7352   -8.7244 C   0  0  0  0  0  0  0  0  0  0  0  0
   -8.8016    3.4974   -9.3190 C   0  0  0  0  0  0  0  0  0  0  0  0
   -8.7214    3.3616  -10.7257 C   0  0  0  0  0  0  0  0  0  0  0  0
   -9.1390    2.2945   -8.4662 C   0  0  0  0  0  0  0  0  0  0  0  0
   -9.4701    2.6100   -7.0070 C   0  0  0  0  0  0  0  0  0  0  0  0
  -10.7662    3.0387   -6.9267 F   0  0  0  0  0  0  0  0  0  0  0  0
   -8.6058    3.6992   -6.4051 C   0  0  0  0  0  0  0  0  0  0  0  0
   -8.6598    4.9648   -7.2426 C   0  0  0  0  0  0  0  0  0  0  0  0
   -8.3860    4.7939  -15.4173 C   0  0  0  0  0  0  0  0  0  0  0  0
   -9.3333    4.5893  -16.4260 C   0  0  0  0  0  0  0  0  0  0  0  0
   -8.9230    4.5137  -17.7582 C   0  0  0  0  0  0  0  0  0  0  0  0
  -10.0944    4.3785  -19.0090 Cl  0  0  0  0  0  0  0  0  0  0  0  0
   -7.5826    4.6534  -18.1342 C   0  0  0  0  0  0  0  0  0  0  0  0
   -6.6465    4.8335  -17.1102 C   0  0  0  0  0  0  0  0  0  0  0  0
   -7.0198    4.8709  -15.7665 C   0  0  0  0  0  0  0  0  0  0  0  0
   -5.8072    5.0632  -15.0706 C   0  0  0  0  0  0  0  0  0  0  0  0
   -4.7547    5.1622  -15.8813 N   0  0  0  0  0  0  0  0  0  0  0  0
   -5.2932    5.1058  -17.1163 N   0  0  0  0  0  0  0  0  0  0  0  0
   -4.5876    5.7109  -18.2596 C   0  0  0  0  0  0  0  0  0  0  0  0
   -3.1886    5.1081  -18.4990 C   0  0  0  0  0  0  0  0  0  0  0  0
   -3.4675    5.1467  -19.9515 N   0  0  0  0  0  0  0  0  0  0  0  0
   -4.9154    5.1092  -19.6203 C   0  0  0  0  0  0  0  0  0  0  0  0
   -3.1301    4.3354  -20.4695 H   0  0  0  0  0  0  0  0  0  0  0  0
  1  2  2  0  0  0
  2  3  1  0  0  0
  3  5  1  0  0  0
  5  6  2  0  0  0
  6  7  1  0  0  0
  7  8  2  0  0  0
  8  9  1  0  0  0
  9 10  2  0  0  0
  9 11  1  0  0  0
 11 12  1  0  0  0
 12 13  1  0  0  0
 12 14  1  0  0  0
 14 15  1  0  0  0
  2 16  1  0  0  0
 16 17  2  0  0  0
 17 18  1  0  0  0
 18 19  1  0  0  0
 18 20  2  0  0  0
 20 21  1  0  0  0
 21 22  2  0  0  0
 22 23  1  0  0  0
 23 24  2  0  0  0
 24 25  1  0  0  0
 25 26  1  0  0  0
 26 27  1  0  0  0
 27 28  1  0  0  0
 28 29  1  0  0  0
 10  5  1  0  0  0
 22 16  1  0  0  0
 29 26  1  0  0  0
 15  8  1  0  0  0
 25 21  1  0  0  0
  3  4  1  0  0  0
 28 30  1  0  0  0
M  END
> <minimizedAffinity>
-9.49020

> <minimizedRMSD>
0.84229

$$$$
P28210


 33 37  0  0  0  0  0  0  0  0999 V2000
   -4.9357    5.7550  -16.6145 N   0  0  0  0  0  0  0  0  0  0  0  0
   -5.8129    5.6935  -15.5408 C   0  0  0  0  0  0  0  0  0  0  0  0
   -7.0067    5.1956  -15.9862 C   0  0  0  0  0  0  0  0  0  0  0  0
   -8.1856    5.0169  -15.2485 C   0  0  0  0  0  0  0  0  0  0  0  0
   -9.2395    4.5691  -16.0735 C   0  0  0  0  0  0  0  0  0  0  0  0
   -9.0930    4.3638  -17.4908 C   0  0  0  0  0  0  0  0  0  0  0  0
  -10.5097    3.9906  -18.4062 Cl  0  0  0  0  0  0  0  0  0  0  0  0
   -7.8931    4.5372  -18.2184 C   0  0  0  0  0  0  0  0  0  0  0  0
   -6.8620    4.9598  -17.3856 C   0  0  0  0  0  0  0  0  0  0  0  0
   -5.5762    5.3026  -17.7621 C   0  0  0  0  0  0  0  0  0  0  0  0
   -5.0480    5.2466  -19.2512 C   0  0  0  0  0  0  0  0  0  0  0  0
   -3.5955    4.8350  -19.5353 C   0  0  0  0  0  0  0  0  0  0  0  0
   -3.4204    6.0357  -20.3705 N   0  0  0  0  0  0  0  0  0  0  0  0
   -4.6669    6.6137  -19.8475 C   0  0  0  0  0  0  0  0  0  0  0  0
   -3.4414    5.8478  -21.3728 H   0  0  0  0  0  0  0  0  0  0  0  0
   -8.3598    5.4855  -13.8543 C   0  0  0  0  0  0  0  0  0  0  0  0
   -8.4501    6.6420  -13.7003 O   0  0  0  0  0  0  0  0  0  0  0  0
   -8.3617    4.3295  -12.8182 N   0  0  0  0  0  0  0  0  0  0  0  0
   -8.3488    3.4258  -13.2086 H   0  0  0  0  0  0  0  0  0  0  0  0
   -8.3788    4.3633  -11.4166 C   0  0  0  0  0  0  0  0  0  0  0  0
   -7.8025    5.4358  -10.7381 C   0  0  0  0  0  0  0  0  0  0  0  0
   -7.7575    5.4562   -9.3413 C   0  0  0  0  0  0  0  0  0  0  0  0
   -8.3012    4.4081   -8.5904 C   0  0  0  0  0  0  0  0  0  0  0  0
   -8.9024    3.3326   -9.2560 C   0  0  0  0  0  0  0  0  0  0  0  0
   -8.9376    3.3190  -10.6731 C   0  0  0  0  0  0  0  0  0  0  0  0
   -9.5085    2.1890   -8.4764 C   0  0  0  0  0  0  0  0  0  0  0  0
   -9.4940    2.2832   -6.9461 C   0  0  0  0  0  0  0  0  0  0  0  0
   -9.3068    3.6828   -6.3914 C   0  0  0  0  0  0  0  0  0  0  0  0
   -8.1680    4.4111   -7.0899 C   0  0  0  0  0  0  0  0  0  0  0  0
   -3.6413    6.4345  -16.5008 C   0  0  0  0  0  0  0  0  0  0  0  0
   -1.3412    5.8890  -16.8731 C   0  0  0  0  0  0  0  0  0  0  0  0
   -2.5746    5.4651  -16.2038 N   0  0  0  0  0  0  0  0  0  0  0  0
   -2.3243    5.3439  -14.7645 C   0  0  0  0  0  0  0  0  0  0  0  0
 31 32  1  0  0  0
 32 33  1  0  0  0
 32 30  1  0  0  0
 30  1  1  0  0  0
  1  2  1  0  0  0
  2  3  2  0  0  0
  3  4  1  0  0  0
  4 16  1  0  0  0
 16 17  2  0  0  0
 16 18  1  0  0  0
 18 20  1  0  0  0
 20 21  2  0  0  0
 21 22  1  0  0  0
 22 23  2  0  0  0
 23 24  1  0  0  0
 24 25  2  0  0  0
 24 26  1  0  0  0
 26 27  1  0  0  0
 27 28  1  0  0  0
 28 29  1  0  0  0
  4  5  2  0  0  0
  5  6  1  0  0  0
  6  7  1  0  0  0
  6  8  2  0  0  0
  8  9  1  0  0  0
  9 10  2  0  0  0
 10 11  1  0  0  0
 11 12  1  0  0  0
 12 13  1  0  0  0
 13 14  1  0  0  0
 10  1  1  0  0  0
 14 11  1  0  0  0
  9  3  1  0  0  0
 25 20  1  0  0  0
 29 23  1  0  0  0
 18 19  1  0  0  0
 13 15  1  0  0  0
M  END
> <minimizedAffinity>
-8.63591

> <minimizedRMSD>
0.52778

$$$$
P28215


 33 37  0  0  0  0  0  0  0  0999 V2000
   -5.3578    5.0955  -17.8632 N   0  0  0  0  0  0  0  0  0  0  0  0
   -4.4553    5.2806  -16.8721 N   0  0  0  0  0  0  0  0  0  0  0  0
   -5.1788    5.2025  -15.7588 C   0  0  0  0  0  0  0  0  0  0  0  0
   -6.5500    4.9586  -16.0011 C   0  0  0  0  0  0  0  0  0  0  0  0
   -7.7114    4.8515  -15.1866 C   0  0  0  0  0  0  0  0  0  0  0  0
   -8.9335    4.6247  -15.8624 C   0  0  0  0  0  0  0  0  0  0  0  0
   -9.0044    4.5413  -17.2497 C   0  0  0  0  0  0  0  0  0  0  0  0
  -10.5156    4.3794  -18.0528 Cl  0  0  0  0  0  0  0  0  0  0  0  0
   -7.8703    4.6902  -18.0348 C   0  0  0  0  0  0  0  0  0  0  0  0
   -6.6440    4.8928  -17.3914 C   0  0  0  0  0  0  0  0  0  0  0  0
   -5.8726    4.6286  -20.3243 N   0  0  0  0  0  0  0  0  0  0  0  0
   -4.9851    5.2115  -19.3031 C   0  0  0  0  0  0  0  0  0  0  0  0
   -3.5171    4.8530  -19.6412 C   0  0  0  0  0  0  0  0  0  0  0  0
   -3.3958    6.1178  -20.4107 N   0  0  0  0  0  0  0  0  0  0  0  0
   -4.5811    6.6491  -19.7025 C   0  0  0  0  0  0  0  0  0  0  0  0
   -6.1315    3.6812  -20.0491 H   0  0  0  0  0  0  0  0  0  0  0  0
   -5.3874    4.6015  -21.2211 H   0  0  0  0  0  0  0  0  0  0  0  0
   -3.5240    6.0089  -21.4168 H   0  0  0  0  0  0  0  0  0  0  0  0
   -7.6622    5.1675  -13.6904 C   0  0  0  0  0  0  0  0  0  0  0  0
   -8.1479    6.5910  -13.5671 N   0  0  0  0  0  0  0  0  0  0  0  0
   -7.2218    7.4133  -13.5674 O   0  0  0  0  0  0  0  0  0  0  0  0
   -8.4583    4.2398  -12.8755 N   0  0  0  0  0  0  0  0  0  0  0  0
   -9.0528    3.5816  -13.3028 H   0  0  0  0  0  0  0  0  0  0  0  0
   -8.3558    4.3085  -11.4665 C   0  0  0  0  0  0  0  0  0  0  0  0
   -7.8921    5.4385  -10.7846 C   0  0  0  0  0  0  0  0  0  0  0  0
   -7.9173    5.5244   -9.3872 C   0  0  0  0  0  0  0  0  0  0  0  0
   -8.4236    4.4816   -8.6100 C   0  0  0  0  0  0  0  0  0  0  0  0
   -8.9058    3.3393   -9.2570 C   0  0  0  0  0  0  0  0  0  0  0  0
   -8.8681    3.2666  -10.6725 C   0  0  0  0  0  0  0  0  0  0  0  0
   -9.4335    2.1781   -8.4473 C   0  0  0  0  0  0  0  0  0  0  0  0
   -9.9289    2.5662   -7.0554 C   0  0  0  0  0  0  0  0  0  0  0  0
   -8.9283    3.4374   -6.3188 C   0  0  0  0  0  0  0  0  0  0  0  0
   -8.5388    4.6735   -7.1181 C   0  0  0  0  0  0  0  0  0  0  0  0
 11 12  1  0  0  0
 12  1  1  0  0  0
  1  2  1  0  0  0
  2  3  2  0  0  0
  3  4  1  0  0  0
  4  5  2  0  0  0
  5 19  1  0  0  0
 19 20  1  0  0  0
 20 21  2  0  0  0
 19 22  1  0  0  0
 22 24  1  0  0  0
 24 25  2  0  0  0
 25 26  1  0  0  0
 26 27  2  0  0  0
 27 28  1  0  0  0
 28 29  2  0  0  0
 28 30  1  0  0  0
 30 31  1  0  0  0
 31 32  1  0  0  0
 32 33  1  0  0  0
  5  6  1  0  0  0
  6  7  2  0  0  0
  7  8  1  0  0  0
  7  9  1  0  0  0
  9 10  2  0  0  0
 12 13  1  0  0  0
 13 14  1  0  0  0
 14 15  1  0  0  0
 15 12  1  0  0  0
 10  1  1  0  0  0
 10  4  1  0  0  0
 29 24  1  0  0  0
 33 27  1  0  0  0
 11 16  1  0  0  0
 11 17  1  0  0  0
 22 23  1  0  0  0
 14 18  1  0  0  0
M  END
> <minimizedAffinity>
-8.89265

> <minimizedRMSD>
0.33071

$$$$
P28216


 34 39  0  0  0  0  0  0  0  0999 V2000
   -8.0934    4.6892  -15.2369 C   0  0  0  0  0  0  0  0  0  0  0  0
   -9.0024    4.5324  -16.3032 C   0  0  0  0  0  0  0  0  0  0  0  0
   -8.5884    4.5115  -17.6806 C   0  0  0  0  0  0  0  0  0  0  0  0
   -9.8200    4.4210  -18.8894 Cl  0  0  0  0  0  0  0  0  0  0  0  0
   -7.2559    4.6796  -18.1281 C   0  0  0  0  0  0  0  0  0  0  0  0
   -6.3808    4.8175  -17.0540 C   0  0  0  0  0  0  0  0  0  0  0  0
   -5.0540    5.2103  -17.0971 C   0  0  0  0  0  0  0  0  0  0  0  0
   -4.5756    5.1642  -15.7779 N   0  0  0  0  0  0  0  0  0  0  0  0
   -5.6409    4.8707  -14.9379 C   0  0  0  0  0  0  0  0  0  0  0  0
   -6.7756    4.7755  -15.6940 C   0  0  0  0  0  0  0  0  0  0  0  0
   -3.2932    5.3954  -15.2754 C   0  0  0  0  0  0  0  0  0  0  0  0
   -2.5494    6.5006  -15.4426 C   0  0  0  0  0  0  0  0  0  0  0  0
   -2.9991    7.7181  -16.0801 C   0  0  0  0  0  0  0  0  0  0  0  0
   -3.4919    7.8346  -17.3198 C   0  0  0  0  0  0  0  0  0  0  0  0
   -3.5807    6.7664  -18.2738 C   0  0  0  0  0  0  0  0  0  0  0  0
   -4.2039    5.5742  -18.1774 C   0  0  0  0  0  0  0  0  0  0  0  0
   -3.8892    4.7689  -19.4090 C   0  0  0  0  0  0  0  0  0  0  0  0
   -2.9598    5.6777  -20.2278 C   0  0  0  0  0  0  0  0  0  0  0  0
   -2.9359    6.9304  -19.4863 N   0  0  0  0  0  0  0  0  0  0  0  0
   -2.5234    7.7674  -19.8003 H   0  0  0  0  0  0  0  0  0  0  0  0
   -8.9954    6.2261  -13.8677 O   0  0  0  0  0  0  0  0  0  0  0  0
   -8.4809    5.1776  -13.9008 C   0  0  0  0  0  0  0  0  0  0  0  0
   -8.0654    4.2302  -12.7551 N   0  0  0  0  0  0  0  0  0  0  0  0
   -7.5735    3.4271  -13.0422 H   0  0  0  0  0  0  0  0  0  0  0  0
   -8.2737    4.3268  -11.3775 C   0  0  0  0  0  0  0  0  0  0  0  0
   -7.9572    5.5096  -10.7097 C   0  0  0  0  0  0  0  0  0  0  0  0
   -8.0650    5.5925   -9.3216 C   0  0  0  0  0  0  0  0  0  0  0  0
   -8.4974    4.4925   -8.5735 C   0  0  0  0  0  0  0  0  0  0  0  0
   -8.8358    3.3046   -9.2344 C   0  0  0  0  0  0  0  0  0  0  0  0
   -8.7307    3.2347  -10.6426 C   0  0  0  0  0  0  0  0  0  0  0  0
   -9.3132    2.0986   -8.4629 C   0  0  0  0  0  0  0  0  0  0  0  0
   -9.3778    2.2159   -6.9381 C   0  0  0  0  0  0  0  0  0  0  0  0
   -9.5149    3.6344   -6.4182 C   0  0  0  0  0  0  0  0  0  0  0  0
   -8.5086    4.5739   -7.0713 C   0  0  0  0  0  0  0  0  0  0  0  0
 21 22  2  0  0  0
 22 23  1  0  0  0
 23 25  1  0  0  0
 25 26  2  0  0  0
 26 27  1  0  0  0
 27 28  2  0  0  0
 28 29  1  0  0  0
 29 30  2  0  0  0
 29 31  1  0  0  0
 31 32  1  0  0  0
 32 33  1  0  0  0
 33 34  1  0  0  0
 22  1  1  0  0  0
  1  2  2  0  0  0
  2  3  1  0  0  0
  3  4  1  0  0  0
  3  5  2  0  0  0
  5  6  1  0  0  0
  6  7  2  0  0  0
  7  8  1  0  0  0
  8  9  1  0  0  0
  9 10  2  0  0  0
  8 11  1  0  0  0
 11 12  2  0  0  0
 12 13  1  0  0  0
 13 14  2  0  0  0
 14 15  1  0  0  0
 15 16  2  0  0  0
 16 17  1  0  0  0
 17 18  1  0  0  0
 18 19  1  0  0  0
 30 25  1  0  0  0
 10  1  1  0  0  0
 19 15  1  0  0  0
 34 28  1  0  0  0
 10  6  1  0  0  0
 16  7  1  0  0  0
 23 24  1  0  0  0
 19 20  1  0  0  0
M  END
> <minimizedAffinity>
-9.99761

> <minimizedRMSD>
1.07361

$$$$
P28220


 30 34  0  0  0  0  0  0  0  0999 V2000
   -3.0926    5.3755  -16.3543 C   0  0  0  0  0  0  0  0  0  0  0  0
   -4.5554    5.2155  -16.4941 C   0  0  0  0  0  0  0  0  0  0  0  0
   -5.4631    5.2915  -15.4579 C   0  0  0  0  0  0  0  0  0  0  0  0
   -6.7583    5.0542  -15.9670 C   0  0  0  0  0  0  0  0  0  0  0  0
   -8.0407    5.0067  -15.3829 C   0  0  0  0  0  0  0  0  0  0  0  0
   -9.1509    4.6928  -16.1624 C   0  0  0  0  0  0  0  0  0  0  0  0
   -8.9945    4.5202  -17.5313 C   0  0  0  0  0  0  0  0  0  0  0  0
  -10.3925    4.3153  -18.5028 Cl  0  0  0  0  0  0  0  0  0  0  0  0
   -7.7442    4.6068  -18.1519 C   0  0  0  0  0  0  0  0  0  0  0  0
   -6.6241    4.8584  -17.3423 C   0  0  0  0  0  0  0  0  0  0  0  0
   -5.2757    5.0015  -17.6529 N   0  0  0  0  0  0  0  0  0  0  0  0
   -4.8196    4.8900  -19.0734 C   0  0  0  0  0  0  0  0  0  0  0  0
   -3.3309    4.9529  -19.4284 C   0  0  0  0  0  0  0  0  0  0  0  0
   -3.4610    6.3966  -19.6915 N   0  0  0  0  0  0  0  0  0  0  0  0
   -4.9223    6.2311  -19.8281 C   0  0  0  0  0  0  0  0  0  0  0  0
   -2.9947    6.7097  -20.5430 H   0  0  0  0  0  0  0  0  0  0  0  0
   -8.2104    5.4875  -13.9955 C   0  0  0  0  0  0  0  0  0  0  0  0
   -8.2530    6.6428  -13.8308 O   0  0  0  0  0  0  0  0  0  0  0  0
   -8.2871    4.3280  -12.9787 N   0  0  0  0  0  0  0  0  0  0  0  0
   -8.3049    3.4289  -13.3794 H   0  0  0  0  0  0  0  0  0  0  0  0
   -8.3353    4.3470  -11.5858 C   0  0  0  0  0  0  0  0  0  0  0  0
   -7.8546    5.4639  -10.8791 C   0  0  0  0  0  0  0  0  0  0  0  0
   -7.8808    5.4991   -9.4833 C   0  0  0  0  0  0  0  0  0  0  0  0
   -8.3829    4.4000   -8.8139 C   0  0  0  0  0  0  0  0  0  0  0  0
   -8.8546    3.2887   -9.5075 C   0  0  0  0  0  0  0  0  0  0  0  0
   -8.8483    3.2476  -10.8955 C   0  0  0  0  0  0  0  0  0  0  0  0
   -9.3401    2.2644   -8.5295 C   0  0  0  0  0  0  0  0  0  0  0  0
   -9.0042    2.8032   -7.1930 N   0  0  0  0  0  0  0  0  0  0  0  0
  -10.0616    2.6152   -6.2205 C   0  0  0  0  0  0  0  0  0  0  0  0
   -8.5481    4.1892   -7.3443 C   0  0  0  0  0  0  0  0  0  0  0  0
  1  2  1  0  0  0
  2  3  2  0  0  0
  3  4  1  0  0  0
  4  5  2  0  0  0
  5 17  1  0  0  0
 17 18  2  0  0  0
 17 19  1  0  0  0
 19 21  1  0  0  0
 21 22  2  0  0  0
 22 23  1  0  0  0
 23 24  2  0  0  0
 24 25  1  0  0  0
 25 26  2  0  0  0
 25 27  1  0  0  0
 27 28  1  0  0  0
 28 29  1  0  0  0
 28 30  1  0  0  0
  5  6  1  0  0  0
  6  7  2  0  0  0
  7  8  1  0  0  0
  7  9  1  0  0  0
  9 10  2  0  0  0
 10 11  1  0  0  0
 11 12  1  0  0  0
 12 13  1  0  0  0
 13 14  1  0  0  0
 14 15  1  0  0  0
 11  2  1  0  0  0
 15 12  1  0  0  0
 10  4  1  0  0  0
 26 21  1  0  0  0
 30 24  1  0  0  0
 19 20  1  0  0  0
 14 16  1  0  0  0
M  END
> <minimizedAffinity>
-8.57773

> <minimizedRMSD>
0.46648

$$$$
P28221


 31 36  0  0  0  0  0  0  0  0999 V2000
   -7.7692    4.9721  -15.4750 C   0  0  0  0  0  0  0  0  0  0  0  0
   -8.9999    4.7357  -16.0963 C   0  0  0  0  0  0  0  0  0  0  0  0
   -9.0594    4.5587  -17.4746 C   0  0  0  0  0  0  0  0  0  0  0  0
  -10.5929    4.4459  -18.2347 Cl  0  0  0  0  0  0  0  0  0  0  0  0
   -7.9154    4.5792  -18.2733 C   0  0  0  0  0  0  0  0  0  0  0  0
   -6.6902    4.7880  -17.6353 C   0  0  0  0  0  0  0  0  0  0  0  0
   -6.5808    4.9665  -16.2420 C   0  0  0  0  0  0  0  0  0  0  0  0
   -5.1838    5.1159  -15.9341 C   0  0  0  0  0  0  0  0  0  0  0  0
   -4.5147    5.0103  -17.1208 C   0  0  0  0  0  0  0  0  0  0  0  0
   -5.4299    4.9031  -18.1147 N   0  0  0  0  0  0  0  0  0  0  0  0
   -4.7996    4.9086  -19.4083 C   0  0  0  0  0  0  0  0  0  0  0  0
   -4.9184    6.2005  -20.1977 C   0  0  0  0  0  0  0  0  0  0  0  0
   -3.5114    6.4643  -20.6925 C   0  0  0  0  0  0  0  0  0  0  0  0
   -2.6250    6.0082  -19.6289 N   0  0  0  0  0  0  0  0  0  0  0  0
   -3.3093    4.8758  -18.9947 C   0  0  0  0  0  0  0  0  0  0  0  0
   -3.2585    5.0201  -17.5502 O   0  0  0  0  0  0  0  0  0  0  0  0
   -2.4706    6.7545  -18.9509 H   0  0  0  0  0  0  0  0  0  0  0  0
   -8.1894    4.3491  -13.0726 N   0  0  0  0  0  0  0  0  0  0  0  0
   -7.7415    5.4449  -14.0706 C   0  0  0  0  0  0  0  0  0  0  0  0
   -7.4541    6.5633  -13.8890 O   0  0  0  0  0  0  0  0  0  0  0  0
   -8.4513    3.4956  -13.4876 H   0  0  0  0  0  0  0  0  0  0  0  0
   -9.9588    2.5071   -6.2913 C   0  0  0  0  0  0  0  0  0  0  0  0
   -8.9728    2.8088   -7.3080 N   0  0  0  0  0  0  0  0  0  0  0  0
   -8.6257    4.2256   -7.4417 C   0  0  0  0  0  0  0  0  0  0  0  0
   -8.4329    4.4432   -8.9083 C   0  0  0  0  0  0  0  0  0  0  0  0
   -7.9442    5.5537   -9.5689 C   0  0  0  0  0  0  0  0  0  0  0  0
   -7.8589    5.5079  -10.9638 C   0  0  0  0  0  0  0  0  0  0  0  0
   -8.2823    4.3745  -11.6803 C   0  0  0  0  0  0  0  0  0  0  0  0
   -8.7991    3.2694  -10.9995 C   0  0  0  0  0  0  0  0  0  0  0  0
   -8.8476    3.3146   -9.6118 C   0  0  0  0  0  0  0  0  0  0  0  0
   -9.3184    2.2755   -8.6413 C   0  0  0  0  0  0  0  0  0  0  0  0
 22 23  1  0  0  0
 23 24  1  0  0  0
 24 25  1  0  0  0
 25 26  2  0  0  0
 26 27  1  0  0  0
 27 28  2  0  0  0
 28 18  1  0  0  0
 18 19  1  0  0  0
 19 20  2  0  0  0
 19  1  1  0  0  0
  1  2  2  0  0  0
  2  3  1  0  0  0
  3  4  1  0  0  0
  3  5  2  0  0  0
  5  6  1  0  0  0
  6  7  2  0  0  0
  7  8  1  0  0  0
  8  9  2  0  0  0
  9 10  1  0  0  0
 10 11  1  0  0  0
 11 12  1  0  0  0
 12 13  1  0  0  0
 13 14  1  0  0  0
 15 14  1  0  0  0
 15 16  1  0  0  0
 28 29  1  0  0  0
 29 30  2  0  0  0
 30 31  1  0  0  0
 31 23  1  0  0  0
 30 25  1  0  0  0
  7  1  1  0  0  0
 16  9  1  0  0  0
 10  6  1  0  0  0
 15 11  1  0  0  0
 18 21  1  0  0  0
 14 17  1  0  0  0
M  END
> <minimizedAffinity>
-9.45355

> <minimizedRMSD>
0.44837

$$$$
P28222


 32 36  0  0  0  0  0  0  0  0999 V2000
   -8.9479    4.7023  -16.9788 C   0  0  0  0  0  0  0  0  0  0  0  0
   -7.7117    4.6479  -17.9118 C   0  0  0  0  0  0  0  0  0  0  0  0
   -6.4411    5.0052  -17.2024 C   0  0  0  0  0  0  0  0  0  0  0  0
   -6.3944    5.3725  -15.9170 C   0  0  0  0  0  0  0  0  0  0  0  0
   -5.0014    5.7406  -15.5687 C   0  0  0  0  0  0  0  0  0  0  0  0
   -4.2295    5.5164  -16.8223 N   0  0  0  0  0  0  0  0  0  0  0  0
   -5.1827    5.0355  -17.7765 N   0  0  0  0  0  0  0  0  0  0  0  0
   -7.6039    5.5063  -15.0567 C   0  0  0  0  0  0  0  0  0  0  0  0
   -8.6500    4.4686  -15.4907 C   0  0  0  0  0  0  0  0  0  0  0  0
   -3.4962    4.8237  -16.6705 H   0  0  0  0  0  0  0  0  0  0  0  0
   -4.9006    4.9982  -19.1914 C   0  0  0  0  0  0  0  0  0  0  0  0
   -3.4057    4.9966  -19.6008 C   0  0  0  0  0  0  0  0  0  0  0  0
   -3.7652    5.8957  -20.7380 N   0  0  0  0  0  0  0  0  0  0  0  0
   -4.9054    6.3719  -19.8949 C   0  0  0  0  0  0  0  0  0  0  0  0
   -4.0387    5.4136  -21.5942 H   0  0  0  0  0  0  0  0  0  0  0  0
   -7.3860    5.8448  -13.5623 C   0  0  0  0  0  0  0  0  0  0  0  0
   -7.0416    6.9265  -13.2688 O   0  0  0  0  0  0  0  0  0  0  0  0
   -7.7837    4.6346  -12.6662 N   0  0  0  0  0  0  0  0  0  0  0  0
   -7.9644    3.8003  -13.1565 H   0  0  0  0  0  0  0  0  0  0  0  0
   -7.9248    4.5413  -11.2879 C   0  0  0  0  0  0  0  0  0  0  0  0
   -7.4575    5.5861  -10.4726 C   0  0  0  0  0  0  0  0  0  0  0  0
   -7.6693    5.5671   -9.0947 C   0  0  0  0  0  0  0  0  0  0  0  0
   -8.3194    4.4759   -8.5532 C   0  0  0  0  0  0  0  0  0  0  0  0
   -8.7676    3.4287   -9.3556 C   0  0  0  0  0  0  0  0  0  0  0  0
   -8.6040    3.4559  -10.7329 C   0  0  0  0  0  0  0  0  0  0  0  0
   -9.4099    2.3879   -8.4909 C   0  0  0  0  0  0  0  0  0  0  0  0
   -9.1547    2.8227   -7.1022 N   0  0  0  0  0  0  0  0  0  0  0  0
  -10.2614    2.5795   -6.2003 C   0  0  0  0  0  0  0  0  0  0  0  0
   -8.6716    4.2070   -7.1262 C   0  0  0  0  0  0  0  0  0  0  0  0
  -10.6502    4.6692  -18.6833 C   0  0  0  0  0  0  0  0  0  0  0  0
  -10.1715    4.0539  -17.4475 N   0  0  0  0  0  0  0  0  0  0  0  0
   -9.9813    3.0665  -17.6185 H   0  0  0  0  0  0  0  0  0  0  0  0
 30 31  1  0  0  0
  1 31  1  0  0  0
  1  2  1  0  0  0
  2  3  1  0  0  0
  3  4  2  0  0  0
  4  5  1  0  0  0
  5  6  1  0  0  0
  6  7  1  0  0  0
  7 11  1  0  0  0
 11 12  1  0  0  0
 12 13  1  0  0  0
 13 14  1  0  0  0
  4  8  1  0  0  0
  8 16  1  0  0  0
 16 17  2  0  0  0
 16 18  1  0  0  0
 18 20  1  0  0  0
 20 21  2  0  0  0
 21 22  1  0  0  0
 22 23  2  0  0  0
 23 24  1  0  0  0
 24 25  2  0  0  0
 24 26  1  0  0  0
 26 27  1  0  0  0
 27 28  1  0  0  0
 27 29  1  0  0  0
  8  9  1  0  0  0
  9  1  1  0  0  0
  7  3  1  0  0  0
 14 11  1  0  0  0
 25 20  1  0  0  0
 29 23  1  0  0  0
 31 32  1  0  0  0
  6 10  1  0  0  0
 13 15  1  0  0  0
 18 19  1  0  0  0
M  END
> <minimizedAffinity>
-7.98827

> <minimizedRMSD>
0.32954

$$$$
P28226


 44 50  0  0  0  0  0  0  0  0999 V2000
   -5.5435    4.9944  -17.5639 N   0  0  0  0  0  0  0  0  0  0  0  0
   -4.8915    4.7947  -16.3917 N   0  0  0  0  0  0  0  0  0  0  0  0
   -5.8771    4.7093  -15.4944 C   0  0  0  0  0  0  0  0  0  0  0  0
   -7.1476    4.7243  -16.0915 C   0  0  0  0  0  0  0  0  0  0  0  0
   -8.4718    4.6999  -15.6359 C   0  0  0  0  0  0  0  0  0  0  0  0
   -9.4985    4.5153  -16.5575 C   0  0  0  0  0  0  0  0  0  0  0  0
   -9.2132    4.4653  -17.9195 C   0  0  0  0  0  0  0  0  0  0  0  0
  -10.5060    4.3112  -19.0334 Cl  0  0  0  0  0  0  0  0  0  0  0  0
   -7.9171    4.6373  -18.4094 C   0  0  0  0  0  0  0  0  0  0  0  0
   -6.8969    4.7622  -17.4630 C   0  0  0  0  0  0  0  0  0  0  0  0
   -2.7907    6.0948  -18.5723 N   0  0  0  0  0  0  0  0  0  0  0  0
   -3.5337    4.9517  -19.1403 C   0  0  0  0  0  0  0  0  0  0  0  0
   -4.8811    5.6036  -18.7462 C   0  0  0  0  0  0  0  0  0  0  0  0
   -4.0382    6.8473  -18.3731 C   0  0  0  0  0  0  0  0  0  0  0  0
   -2.0400    5.7812  -17.3372 C   0  0  0  0  0  0  0  0  0  0  0  0
   -2.2200    6.7540  -16.2754 N   0  0  0  0  0  0  0  0  0  0  0  0
   -1.8681    7.6450  -16.6258 H   0  0  0  0  0  0  0  0  0  0  0  0
   -0.3048    5.7296  -15.0971 C   0  0  0  0  0  0  0  0  0  0  0  0
   -1.5830    6.5246  -14.9741 C   0  0  0  0  0  0  0  0  0  0  0  0
   -2.5574    5.9902  -13.9710 C   0  0  0  0  0  0  0  0  0  0  0  0
   -2.7091    4.7239  -13.4445 C   0  0  0  0  0  0  0  0  0  0  0  0
   -3.7776    4.8189  -12.5844 N   0  0  0  0  0  0  0  0  0  0  0  0
   -4.2383    6.0907  -12.5856 N   0  0  0  0  0  0  0  0  0  0  0  0
   -3.5156    6.8084  -13.4351 N   0  0  0  0  0  0  0  0  0  0  0  0
   -4.3717    3.8104  -11.7826 C   0  0  0  0  0  0  0  0  0  0  0  0
   -4.3559    3.9414  -10.3848 C   0  0  0  0  0  0  0  0  0  0  0  0
   -4.9366    2.9588   -9.5804 C   0  0  0  0  0  0  0  0  0  0  0  0
   -5.5347    1.8433  -10.1627 C   0  0  0  0  0  0  0  0  0  0  0  0
   -5.5544    1.7073  -11.5501 C   0  0  0  0  0  0  0  0  0  0  0  0
   -4.9755    2.6863  -12.3629 C   0  0  0  0  0  0  0  0  0  0  0  0
   -8.7680    5.1575  -14.2657 C   0  0  0  0  0  0  0  0  0  0  0  0
   -9.4532    6.0990  -14.1724 O   0  0  0  0  0  0  0  0  0  0  0  0
   -8.1743    4.2400  -13.1756 N   0  0  0  0  0  0  0  0  0  0  0  0
   -7.6847    3.4573  -13.5175 H   0  0  0  0  0  0  0  0  0  0  0  0
   -8.2186    4.3393  -11.7853 C   0  0  0  0  0  0  0  0  0  0  0  0
   -7.6719    5.4616  -11.1363 C   0  0  0  0  0  0  0  0  0  0  0  0
   -7.7095    5.5801   -9.7437 C   0  0  0  0  0  0  0  0  0  0  0  0
   -8.2701    4.5481   -9.0167 C   0  0  0  0  0  0  0  0  0  0  0  0
   -8.7982    3.4279   -9.6529 C   0  0  0  0  0  0  0  0  0  0  0  0
   -8.8019    3.3174  -11.0374 C   0  0  0  0  0  0  0  0  0  0  0  0
   -9.3233    2.4764   -8.6233 C   0  0  0  0  0  0  0  0  0  0  0  0
   -8.9208    3.0479   -7.3215 N   0  0  0  0  0  0  0  0  0  0  0  0
   -9.9247    2.9025   -6.2888 C   0  0  0  0  0  0  0  0  0  0  0  0
   -8.4447    4.4182   -7.5376 C   0  0  0  0  0  0  0  0  0  0  0  0
 19 18  1  0  0  0
 19 16  1  0  0  0
 16 15  1  0  0  0
 15 11  1  0  0  0
 11 12  1  0  0  0
 12 13  1  0  0  0
 13  1  1  0  0  0
  1  2  1  0  0  0
  2  3  2  0  0  0
  3  4  1  0  0  0
  4  5  2  0  0  0
  5 31  1  0  0  0
 31 32  2  0  0  0
 31 33  1  0  0  0
 33 35  1  0  0  0
 35 36  2  0  0  0
 36 37  1  0  0  0
 37 38  2  0  0  0
 38 39  1  0  0  0
 39 40  2  0  0  0
 39 41  1  0  0  0
 41 42  1  0  0  0
 42 43  1  0  0  0
 42 44  1  0  0  0
  5  6  1  0  0  0
  6  7  2  0  0  0
  7  8  1  0  0  0
  7  9  1  0  0  0
  9 10  2  0  0  0
 13 14  1  0  0  0
 19 20  1  0  0  0
 20 21  2  0  0  0
 21 22  1  0  0  0
 22 25  1  0  0  0
 25 26  2  0  0  0
 26 27  1  0  0  0
 27 28  2  0  0  0
 28 29  1  0  0  0
 29 30  2  0  0  0
 22 23  1  0  0  0
 23 24  2  0  0  0
 14 11  1  0  0  0
 24 20  1  0  0  0
 10  1  1  0  0  0
 30 25  1  0  0  0
 10  4  1  0  0  0
 40 35  1  0  0  0
 44 38  1  0  0  0
 16 17  1  0  0  0
 33 34  1  0  0  0
M  END
> <minimizedAffinity>
-8.49871

> <minimizedRMSD>
4.47397

$$$$
P28227


 37 42  0  0  0  0  0  0  0  0999 V2000
   -7.2105    5.2100  -14.5370 C   0  0  0  0  0  0  0  0  0  0  0  0
   -8.4110    5.0497  -15.2359 C   0  0  0  0  0  0  0  0  0  0  0  0
   -9.5737    5.1380  -14.5322 O   0  0  0  0  0  0  0  0  0  0  0  0
   -8.4200    4.8496  -16.6137 C   0  0  0  0  0  0  0  0  0  0  0  0
   -9.9402    4.7074  -17.4440 Cl  0  0  0  0  0  0  0  0  0  0  0  0
   -7.2182    4.8363  -17.3424 C   0  0  0  0  0  0  0  0  0  0  0  0
   -6.0250    5.0186  -16.6301 C   0  0  0  0  0  0  0  0  0  0  0  0
   -6.0008    5.1784  -15.2471 C   0  0  0  0  0  0  0  0  0  0  0  0
   -4.6313    5.2470  -14.9160 C   0  0  0  0  0  0  0  0  0  0  0  0
   -3.8430    5.1068  -15.9809 N   0  0  0  0  0  0  0  0  0  0  0  0
   -4.7056    5.0666  -17.0099 N   0  0  0  0  0  0  0  0  0  0  0  0
   -4.1981    5.0088  -18.3542 C   0  0  0  0  0  0  0  0  0  0  0  0
   -2.9230    5.7859  -18.6089 C   0  0  0  0  0  0  0  0  0  0  0  0
   -3.0285    7.0517  -18.1062 F   0  0  0  0  0  0  0  0  0  0  0  0
   -2.9043    5.8861  -20.1251 C   0  0  0  0  0  0  0  0  0  0  0  0
   -4.3142    6.0067  -20.5408 N   0  0  0  0  0  0  0  0  0  0  0  0
   -5.1327    5.6497  -19.3504 C   0  0  0  0  0  0  0  0  0  0  0  0
   -6.2885    4.6911  -19.6530 C   0  0  0  0  0  0  0  0  0  0  0  0
   -6.4487    4.0765  -20.7100 O   0  0  0  0  0  0  0  0  0  0  0  0
   -7.2588    4.5541  -18.7048 N   0  0  0  0  0  0  0  0  0  0  0  0
   -9.5513    5.2728  -13.6052 H   0  0  0  0  0  0  0  0  0  0  0  0
   -4.5116    5.3666  -21.3100 H   0  0  0  0  0  0  0  0  0  0  0  0
   -8.1177    4.2026  -19.0335 H   0  0  0  0  0  0  0  0  0  0  0  0
   -8.1085    4.5284  -12.3141 N   0  0  0  0  0  0  0  0  0  0  0  0
   -7.1839    5.4939  -13.0854 C   0  0  0  0  0  0  0  0  0  0  0  0
   -6.4968    6.3548  -12.6986 O   0  0  0  0  0  0  0  0  0  0  0  0
   -8.6485    3.9328  -12.8824 H   0  0  0  0  0  0  0  0  0  0  0  0
   -8.2253    5.6959   -5.1635 C   0  0  0  0  0  0  0  0  0  0  0  0
   -8.8565    5.4003   -6.4366 N   0  0  0  0  0  0  0  0  0  0  0  0
   -8.8045    3.9557   -6.7711 C   0  0  0  0  0  0  0  0  0  0  0  0
   -8.6972    3.9262   -8.2594 C   0  0  0  0  0  0  0  0  0  0  0  0
   -8.8686    2.8640   -9.1239 C   0  0  0  0  0  0  0  0  0  0  0  0
   -8.6883    3.0963  -10.4866 C   0  0  0  0  0  0  0  0  0  0  0  0
   -8.3025    4.3632  -10.9518 C   0  0  0  0  0  0  0  0  0  0  0  0
   -8.1245    5.4269  -10.0687 C   0  0  0  0  0  0  0  0  0  0  0  0
   -8.3454    5.1920   -8.7248 C   0  0  0  0  0  0  0  0  0  0  0  0
   -8.2344    6.1278   -7.5676 C   0  0  0  0  0  0  0  0  0  0  0  0
 28 29  1  0  0  0
 29 30  1  0  0  0
 30 31  1  0  0  0
 31 32  2  0  0  0
 32 33  1  0  0  0
 33 34  2  0  0  0
 34 24  1  0  0  0
 24 25  1  0  0  0
 25 26  2  0  0  0
 25  1  1  0  0  0
  1  2  2  0  0  0
  2  3  1  0  0  0
  2  4  1  0  0  0
  4  5  1  0  0  0
  4  6  2  0  0  0
  6  7  1  0  0  0
  7  8  2  0  0  0
  8  9  1  0  0  0
  9 10  2  0  0  0
 10 11  1  0  0  0
 12 11  1  0  0  0
 12 13  1  0  0  0
 13 14  1  0  0  0
 13 15  1  0  0  0
 15 16  1  0  0  0
 17 16  1  0  0  0
 17 18  1  0  0  0
 18 19  2  0  0  0
 18 20  1  0  0  0
 34 35  1  0  0  0
 35 36  2  0  0  0
 36 37  1  0  0  0
 37 29  1  0  0  0
 36 31  1  0  0  0
  8  1  1  0  0  0
 17 12  1  0  0  0
 20  6  1  0  0  0
 11  7  1  0  0  0
 24 27  1  0  0  0
  3 21  1  0  0  0
 16 22  1  0  0  0
 20 23  1  0  0  0
M  END
> <minimizedAffinity>
-8.36465

> <minimizedRMSD>
0.83397

$$$$
P28228


 47 52  0  0  0  0  0  0  0  0999 V2000
   -5.2877    5.0100  -18.2430 N   0  0  0  0  0  0  0  0  0  0  0  0
   -4.2730    5.0355  -17.3525 N   0  0  0  0  0  0  0  0  0  0  0  0
   -4.8859    4.9498  -16.1710 C   0  0  0  0  0  0  0  0  0  0  0  0
   -6.2840    4.7929  -16.2887 C   0  0  0  0  0  0  0  0  0  0  0  0
   -7.3759    4.6906  -15.4016 C   0  0  0  0  0  0  0  0  0  0  0  0
   -8.6688    4.5340  -15.9173 C   0  0  0  0  0  0  0  0  0  0  0  0
   -8.8668    4.5223  -17.2960 C   0  0  0  0  0  0  0  0  0  0  0  0
  -10.4666    4.4656  -17.9182 Cl  0  0  0  0  0  0  0  0  0  0  0  0
   -7.8062    4.6545  -18.1960 C   0  0  0  0  0  0  0  0  0  0  0  0
   -6.5187    4.7896  -17.6620 C   0  0  0  0  0  0  0  0  0  0  0  0
   -4.4152    7.1876  -20.5926 N   0  0  0  0  0  0  0  0  0  0  0  0
   -3.7585    5.9756  -20.0476 C   0  0  0  0  0  0  0  0  0  0  0  0
   -5.1287    5.4008  -19.6588 C   0  0  0  0  0  0  0  0  0  0  0  0
   -5.6684    6.8232  -19.8980 C   0  0  0  0  0  0  0  0  0  0  0  0
   -4.5898    7.0954  -22.0520 C   0  0  0  0  0  0  0  0  0  0  0  0
   -6.1983    9.5808  -24.4727 C   0  0  0  0  0  0  0  0  0  0  0  0
   -5.7414    8.3871  -23.9078 C   0  0  0  0  0  0  0  0  0  0  0  0
   -5.1501    8.3826  -22.6349 C   0  0  0  0  0  0  0  0  0  0  0  0
   -5.0208    9.6003  -21.9455 C   0  0  0  0  0  0  0  0  0  0  0  0
   -5.4929   10.7921  -22.4986 C   0  0  0  0  0  0  0  0  0  0  0  0
   -6.0801   10.7794  -23.7627 C   0  0  0  0  0  0  0  0  0  0  0  0
   -5.3495   11.9636  -21.7570 N   0  0  0  0  0  0  0  0  0  0  0  0
   -6.3270   12.7765  -21.0723 C   0  0  0  0  0  0  0  0  0  0  0  0
   -5.6360   13.9958  -20.4972 C   0  0  0  0  0  0  0  0  0  0  0  0
   -7.5012   12.6103  -20.8998 O   0  0  0  0  0  0  0  0  0  0  0  0
   -4.4243   12.2928  -21.6884 H   0  0  0  0  0  0  0  0  0  0  0  0
   -7.5488    8.6553  -26.4686 C   0  0  0  0  0  0  0  0  0  0  0  0
   -7.9697    7.5846  -26.1351 O   0  0  0  0  0  0  0  0  0  0  0  0
   -6.7707    9.6297  -25.7435 N   0  0  0  0  0  0  0  0  0  0  0  0
   -6.6176   10.4728  -26.2282 H   0  0  0  0  0  0  0  0  0  0  0  0
   -7.8721    9.2241  -27.8643 C   0  0  0  0  0  0  0  0  0  0  0  0
   -6.1903    8.2348  -29.1962 C   0  0  0  0  0  0  0  0  0  0  0  0
   -6.7108    9.4505  -28.6648 O   0  0  0  0  0  0  0  0  0  0  0  0
   -7.1555    4.9654  -13.9629 C   0  0  0  0  0  0  0  0  0  0  0  0
   -6.1935    5.6410  -13.7257 O   0  0  0  0  0  0  0  0  0  0  0  0
   -8.1620    4.4278  -13.0935 N   0  0  0  0  0  0  0  0  0  0  0  0
   -8.8965    3.9640  -13.5568 H   0  0  0  0  0  0  0  0  0  0  0  0
   -8.2777    4.4502  -11.7018 C   0  0  0  0  0  0  0  0  0  0  0  0
   -7.9936    5.6170  -10.9653 C   0  0  0  0  0  0  0  0  0  0  0  0
   -8.1227    5.6464   -9.5719 C   0  0  0  0  0  0  0  0  0  0  0  0
   -8.5397    4.4955   -8.9357 C   0  0  0  0  0  0  0  0  0  0  0  0
   -8.8106    3.3332   -9.6599 C   0  0  0  0  0  0  0  0  0  0  0  0
   -8.6856    3.2902  -11.0400 C   0  0  0  0  0  0  0  0  0  0  0  0
   -9.2117    2.2557   -8.6996 C   0  0  0  0  0  0  0  0  0  0  0  0
   -9.5950    3.0046   -7.4808 N   0  0  0  0  0  0  0  0  0  0  0  0
   -9.4699    2.2063   -6.2760 C   0  0  0  0  0  0  0  0  0  0  0  0
   -8.7685    4.2252   -7.4793 C   0  0  0  0  0  0  0  0  0  0  0  0
 32 33  1  0  0  0
 33 31  1  0  0  0
 31 27  1  0  0  0
 27 28  2  0  0  0
 27 29  1  0  0  0
 29 16  1  0  0  0
 16 17  2  0  0  0
 17 18  1  0  0  0
 18 15  1  0  0  0
 15 11  1  0  0  0
 11 12  1  0  0  0
 12 13  1  0  0  0
 13  1  1  0  0  0
  1  2  1  0  0  0
  2  3  2  0  0  0
  3  4  1  0  0  0
  4  5  2  0  0  0
  5 34  1  0  0  0
 34 35  2  0  0  0
 34 36  1  0  0  0
 36 38  1  0  0  0
 38 39  2  0  0  0
 39 40  1  0  0  0
 40 41  2  0  0  0
 41 42  1  0  0  0
 42 43  2  0  0  0
 42 44  1  0  0  0
 44 45  1  0  0  0
 45 46  1  0  0  0
 45 47  1  0  0  0
  5  6  1  0  0  0
  6  7  2  0  0  0
  7  8  1  0  0  0
  7  9  1  0  0  0
  9 10  2  0  0  0
 13 14  1  0  0  0
 18 19  2  0  0  0
 19 20  1  0  0  0
 20 22  1  0  0  0
 22 23  1  0  0  0
 23 24  1  0  0  0
 23 25  2  0  0  0
 20 21  2  0  0  0
 21 16  1  0  0  0
 14 11  1  0  0  0
 10  1  1  0  0  0
 10  4  1  0  0  0
 43 38  1  0  0  0
 47 41  1  0  0  0
 29 30  1  0  0  0
 36 37  1  0  0  0
 22 26  1  0  0  0
M  END
> <minimizedAffinity>
-7.94308

> <minimizedRMSD>
1.50262

$$$$
P28229


 31 35  0  0  0  0  0  0  0  0999 V2000
   -8.4228    4.6721  -15.4849 C   0  0  0  0  0  0  0  0  0  0  0  0
   -9.4199    4.5267  -16.4504 C   0  0  0  0  0  0  0  0  0  0  0  0
   -9.0671    4.4824  -17.7968 C   0  0  0  0  0  0  0  0  0  0  0  0
  -10.3136    4.4398  -18.9753 Cl  0  0  0  0  0  0  0  0  0  0  0  0
   -7.7364    4.5937  -18.2233 C   0  0  0  0  0  0  0  0  0  0  0  0
   -6.7513    4.7126  -17.2350 C   0  0  0  0  0  0  0  0  0  0  0  0
   -7.0725    4.6971  -15.8779 C   0  0  0  0  0  0  0  0  0  0  0  0
   -5.8291    4.7572  -15.2302 C   0  0  0  0  0  0  0  0  0  0  0  0
   -5.6700    4.6631  -13.9083 F   0  0  0  0  0  0  0  0  0  0  0  0
   -4.8030    4.8870  -16.0616 N   0  0  0  0  0  0  0  0  0  0  0  0
   -5.3915    4.9576  -17.2708 N   0  0  0  0  0  0  0  0  0  0  0  0
   -4.7045    5.6357  -18.3816 C   0  0  0  0  0  0  0  0  0  0  0  0
   -3.2921    5.0707  -18.6547 C   0  0  0  0  0  0  0  0  0  0  0  0
   -3.5778    5.1808  -20.0988 N   0  0  0  0  0  0  0  0  0  0  0  0
   -5.0246    5.0973  -19.7678 C   0  0  0  0  0  0  0  0  0  0  0  0
   -3.2265    4.4050  -20.6602 H   0  0  0  0  0  0  0  0  0  0  0  0
   -8.2946    4.1517  -13.0227 N   0  0  0  0  0  0  0  0  0  0  0  0
   -8.7643    5.1257  -14.1224 C   0  0  0  0  0  0  0  0  0  0  0  0
   -9.3539    6.1303  -14.0425 O   0  0  0  0  0  0  0  0  0  0  0  0
   -7.8768    3.3248  -13.3555 H   0  0  0  0  0  0  0  0  0  0  0  0
   -7.5349    6.8067   -8.9153 C   0  0  0  0  0  0  0  0  0  0  0  0
   -7.9891    5.5523   -9.5906 C   0  0  0  0  0  0  0  0  0  0  0  0
   -7.9349    5.4244  -10.9869 C   0  0  0  0  0  0  0  0  0  0  0  0
   -8.3654    4.2517  -11.6337 C   0  0  0  0  0  0  0  0  0  0  0  0
   -8.8524    3.1796  -10.8883 C   0  0  0  0  0  0  0  0  0  0  0  0
   -8.8669    3.2945   -9.5050 C   0  0  0  0  0  0  0  0  0  0  0  0
   -8.4422    4.4585   -8.8665 C   0  0  0  0  0  0  0  0  0  0  0  0
   -8.5914    4.2973   -7.3855 C   0  0  0  0  0  0  0  0  0  0  0  0
   -8.9997    2.9047   -7.1722 N   0  0  0  0  0  0  0  0  0  0  0  0
  -10.0556    2.7271   -6.1949 C   0  0  0  0  0  0  0  0  0  0  0  0
   -9.3115    2.2958   -8.4817 C   0  0  0  0  0  0  0  0  0  0  0  0
 21 22  1  0  0  0
 22 23  2  0  0  0
 23 24  1  0  0  0
 24 17  1  0  0  0
 17 18  1  0  0  0
 18 19  2  0  0  0
 18  1  1  0  0  0
  1  2  2  0  0  0
  2  3  1  0  0  0
  3  4  1  0  0  0
  3  5  2  0  0  0
  5  6  1  0  0  0
  6  7  2  0  0  0
  7  8  1  0  0  0
  8  9  1  0  0  0
  8 10  2  0  0  0
 10 11  1  0  0  0
 11 12  1  0  0  0
 12 13  1  0  0  0
 13 14  1  0  0  0
 14 15  1  0  0  0
 24 25  2  0  0  0
 25 26  1  0  0  0
 26 27  2  0  0  0
 27 28  1  0  0  0
 28 29  1  0  0  0
 29 30  1  0  0  0
 29 31  1  0  0  0
 27 22  1  0  0  0
  7  1  1  0  0  0
 15 12  1  0  0  0
 31 26  1  0  0  0
 11  6  1  0  0  0
 17 20  1  0  0  0
 14 16  1  0  0  0
M  END
> <minimizedAffinity>
-9.31307

> <minimizedRMSD>
0.91350

$$$$
P28230


 32 36  0  0  0  0  0  0  0  0999 V2000
   -8.0667    4.8497  -17.9738 C   0  0  0  0  0  0  0  0  0  0  0  0
   -6.7203    4.6125  -18.6537 C   0  0  0  0  0  0  0  0  0  0  0  0
   -5.5437    4.9524  -17.8074 C   0  0  0  0  0  0  0  0  0  0  0  0
   -5.6109    5.3292  -16.5299 C   0  0  0  0  0  0  0  0  0  0  0  0
   -4.2518    5.6883  -16.0654 C   0  0  0  0  0  0  0  0  0  0  0  0
   -3.3926    5.5563  -17.2822 N   0  0  0  0  0  0  0  0  0  0  0  0
   -4.2543    5.0132  -18.2924 N   0  0  0  0  0  0  0  0  0  0  0  0
   -6.9042    5.5832  -15.8589 C   0  0  0  0  0  0  0  0  0  0  0  0
   -8.0204    4.6987  -16.4282 C   0  0  0  0  0  0  0  0  0  0  0  0
   -2.6110    4.9262  -17.1018 H   0  0  0  0  0  0  0  0  0  0  0  0
   -3.9629    5.0840  -19.7045 C   0  0  0  0  0  0  0  0  0  0  0  0
   -2.4940    4.9570  -20.1408 C   0  0  0  0  0  0  0  0  0  0  0  0
   -2.7608    6.0085  -21.1716 N   0  0  0  0  0  0  0  0  0  0  0  0
   -3.8503    6.5093  -20.2828 C   0  0  0  0  0  0  0  0  0  0  0  0
   -3.0776    5.6504  -22.0726 H   0  0  0  0  0  0  0  0  0  0  0  0
   -6.8835    5.9078  -14.3493 C   0  0  0  0  0  0  0  0  0  0  0  0
   -6.7333    7.0105  -13.9878 O   0  0  0  0  0  0  0  0  0  0  0  0
   -7.1542    4.6151  -13.5415 N   0  0  0  0  0  0  0  0  0  0  0  0
   -7.1669    3.7893  -14.0774 H   0  0  0  0  0  0  0  0  0  0  0  0
   -7.3832    4.4297  -12.1760 C   0  0  0  0  0  0  0  0  0  0  0  0
   -7.8083    5.5018  -11.3810 C   0  0  0  0  0  0  0  0  0  0  0  0
   -8.0674    5.2742  -10.0392 C   0  0  0  0  0  0  0  0  0  0  0  0
   -7.9340    4.0071   -9.4878 C   0  0  0  0  0  0  0  0  0  0  0  0
   -7.5033    2.9371  -10.2525 C   0  0  0  0  0  0  0  0  0  0  0  0
   -7.1925    3.1522  -11.6069 C   0  0  0  0  0  0  0  0  0  0  0  0
   -6.5376    2.0546  -12.3956 C   0  0  0  0  0  0  0  0  0  0  0  0
   -8.2240    4.0592   -8.0236 C   0  0  0  0  0  0  0  0  0  0  0  0
   -8.7592    5.4225   -7.7786 N   0  0  0  0  0  0  0  0  0  0  0  0
   -8.2607    6.0056   -6.5467 C   0  0  0  0  0  0  0  0  0  0  0  0
   -8.4419    6.2470   -8.9699 C   0  0  0  0  0  0  0  0  0  0  0  0
  -10.5556    4.5632  -18.0702 C   0  0  0  0  0  0  0  0  0  0  0  0
   -9.2211    4.0854  -18.6107 C   0  0  0  0  0  0  0  0  0  0  0  0
 31 32  1  0  0  0
  1 32  1  0  0  0
  1  2  1  0  0  0
  2  3  1  0  0  0
  3  4  2  0  0  0
  4  5  1  0  0  0
  5  6  1  0  0  0
  6  7  1  0  0  0
  7 11  1  0  0  0
 11 12  1  0  0  0
 12 13  1  0  0  0
 13 14  1  0  0  0
  4  8  1  0  0  0
  8 16  1  0  0  0
 16 17  2  0  0  0
 16 18  1  0  0  0
 18 20  1  0  0  0
 20 21  2  0  0  0
 21 22  1  0  0  0
 22 23  2  0  0  0
 23 24  1  0  0  0
 24 25  2  0  0  0
 25 26  1  0  0  0
 23 27  1  0  0  0
 27 28  1  0  0  0
 28 29  1  0  0  0
 28 30  1  0  0  0
  8  9  1  0  0  0
  9  1  1  0  0  0
  7  3  1  0  0  0
 14 11  1  0  0  0
 25 20  1  0  0  0
 30 22  1  0  0  0
  6 10  1  0  0  0
 13 15  1  0  0  0
 18 19  1  0  0  0
M  END
> <minimizedAffinity>
-7.59757

> <minimizedRMSD>
0.46868

$$$$
P28231


 32 36  0  0  0  0  0  0  0  0999 V2000
   -4.7708    5.3223  -15.9383 C   0  0  0  0  0  0  0  0  0  0  0  0
   -5.8513    5.0771  -15.1272 C   0  0  0  0  0  0  0  0  0  0  0  0
   -6.9828    4.8675  -15.9419 C   0  0  0  0  0  0  0  0  0  0  0  0
   -8.3551    4.7294  -15.6351 C   0  0  0  0  0  0  0  0  0  0  0  0
   -9.2770    4.4785  -16.6414 C   0  0  0  0  0  0  0  0  0  0  0  0
   -8.8343    4.4527  -17.9565 C   0  0  0  0  0  0  0  0  0  0  0  0
  -10.0068    4.3021  -19.2003 Cl  0  0  0  0  0  0  0  0  0  0  0  0
   -7.4879    4.6631  -18.3052 C   0  0  0  0  0  0  0  0  0  0  0  0
   -6.5525    4.8831  -17.2790 C   0  0  0  0  0  0  0  0  0  0  0  0
   -5.2021    5.2138  -17.2485 N   0  0  0  0  0  0  0  0  0  0  0  0
   -4.3453    5.7633  -18.3250 C   0  0  0  0  0  0  0  0  0  0  0  0
   -3.5087    4.6857  -19.0593 C   0  0  0  0  0  0  0  0  0  0  0  0
   -3.5911    5.5593  -20.2523 N   0  0  0  0  0  0  0  0  0  0  0  0
   -4.8945    6.0433  -19.7188 C   0  0  0  0  0  0  0  0  0  0  0  0
   -3.6523    5.0625  -21.1411 H   0  0  0  0  0  0  0  0  0  0  0  0
   -8.7975    5.1219  -14.2771 C   0  0  0  0  0  0  0  0  0  0  0  0
   -9.4573    6.0814  -14.1945 O   0  0  0  0  0  0  0  0  0  0  0  0
   -8.2339    4.1993  -13.1785 N   0  0  0  0  0  0  0  0  0  0  0  0
   -7.7639    3.4011  -13.5119 H   0  0  0  0  0  0  0  0  0  0  0  0
   -8.2812    4.3110  -11.7904 C   0  0  0  0  0  0  0  0  0  0  0  0
   -7.8825    5.5090  -11.1653 C   0  0  0  0  0  0  0  0  0  0  0  0
   -7.8947    5.6397   -9.7748 C   0  0  0  0  0  0  0  0  0  0  0  0
   -8.3334    4.5639   -9.0324 C   0  0  0  0  0  0  0  0  0  0  0  0
   -8.7427    3.3783   -9.6483 C   0  0  0  0  0  0  0  0  0  0  0  0
   -8.7077    3.2267  -11.0251 C   0  0  0  0  0  0  0  0  0  0  0  0
   -9.1952    2.4225   -8.5859 C   0  0  0  0  0  0  0  0  0  0  0  0
   -9.4340    3.3004   -7.4164 N   0  0  0  0  0  0  0  0  0  0  0  0
   -9.3462    2.5952   -6.1563 C   0  0  0  0  0  0  0  0  0  0  0  0
   -8.4841    4.4170   -7.5505 C   0  0  0  0  0  0  0  0  0  0  0  0
   -3.4005    5.7432  -15.5401 C   0  0  0  0  0  0  0  0  0  0  0  0
   -1.7339    5.1385  -13.9974 C   0  0  0  0  0  0  0  0  0  0  0  0
   -2.8717    4.7073  -14.7209 O   0  0  0  0  0  0  0  0  0  0  0  0
 31 32  1  0  0  0
 32 30  1  0  0  0
 30  1  1  0  0  0
  1  2  2  0  0  0
  2  3  1  0  0  0
  3  4  2  0  0  0
  4 16  1  0  0  0
 16 17  2  0  0  0
 16 18  1  0  0  0
 18 20  1  0  0  0
 20 21  2  0  0  0
 21 22  1  0  0  0
 22 23  2  0  0  0
 23 24  1  0  0  0
 24 25  2  0  0  0
 24 26  1  0  0  0
 26 27  1  0  0  0
 27 28  1  0  0  0
 27 29  1  0  0  0
  4  5  1  0  0  0
  5  6  2  0  0  0
  6  7  1  0  0  0
  6  8  1  0  0  0
  8  9  2  0  0  0
  9 10  1  0  0  0
 10 11  1  0  0  0
 11 12  1  0  0  0
 12 13  1  0  0  0
 13 14  1  0  0  0
 10  1  1  0  0  0
 14 11  1  0  0  0
  9  3  1  0  0  0
 25 20  1  0  0  0
 29 23  1  0  0  0
 18 19  1  0  0  0
 13 15  1  0  0  0
M  END
> <minimizedAffinity>
-8.34717

> <minimizedRMSD>
1.04032

$$$$
P28232


 32 36  0  0  0  0  0  0  0  0999 V2000
   -8.4124    4.8510  -15.5818 C   0  0  0  0  0  0  0  0  0  0  0  0
   -9.5057    4.6062  -16.4098 C   0  0  0  0  0  0  0  0  0  0  0  0
   -9.3050    4.4731  -17.7775 C   0  0  0  0  0  0  0  0  0  0  0  0
  -10.6767    4.3585  -18.7994 Cl  0  0  0  0  0  0  0  0  0  0  0  0
   -8.0315    4.5474  -18.3551 C   0  0  0  0  0  0  0  0  0  0  0  0
   -6.9335    4.7812  -17.5109 C   0  0  0  0  0  0  0  0  0  0  0  0
   -7.1129    4.9037  -16.1293 C   0  0  0  0  0  0  0  0  0  0  0  0
   -5.8327    5.1052  -15.6004 C   0  0  0  0  0  0  0  0  0  0  0  0
   -5.5448    5.1870  -14.3011 F   0  0  0  0  0  0  0  0  0  0  0  0
   -4.9165    5.2871  -16.6042 C   0  0  0  0  0  0  0  0  0  0  0  0
   -3.5256    5.7584  -16.4312 C   0  0  0  0  0  0  0  0  0  0  0  0
   -5.5789    4.9819  -17.7770 N   0  0  0  0  0  0  0  0  0  0  0  0
   -5.0503    4.9285  -19.1634 C   0  0  0  0  0  0  0  0  0  0  0  0
   -3.5314    4.8523  -19.3996 C   0  0  0  0  0  0  0  0  0  0  0  0
   -3.7003    5.8328  -20.5045 N   0  0  0  0  0  0  0  0  0  0  0  0
   -4.9392    6.3069  -19.8346 C   0  0  0  0  0  0  0  0  0  0  0  0
   -3.8500    5.4137  -21.4222 H   0  0  0  0  0  0  0  0  0  0  0  0
   -8.3369    4.2390  -13.1444 N   0  0  0  0  0  0  0  0  0  0  0  0
   -8.6276    5.3312  -14.1974 C   0  0  0  0  0  0  0  0  0  0  0  0
   -8.9908    6.4333  -14.0645 O   0  0  0  0  0  0  0  0  0  0  0  0
   -8.1126    3.3560  -13.5176 H   0  0  0  0  0  0  0  0  0  0  0  0
   -7.3701    6.7644   -8.9925 C   0  0  0  0  0  0  0  0  0  0  0  0
   -7.8303    5.5217   -9.6839 C   0  0  0  0  0  0  0  0  0  0  0  0
   -7.8552    5.4422  -11.0858 C   0  0  0  0  0  0  0  0  0  0  0  0
   -8.3405    4.3002  -11.7509 C   0  0  0  0  0  0  0  0  0  0  0  0
   -8.8301    3.2187  -11.0203 C   0  0  0  0  0  0  0  0  0  0  0  0
   -8.8194    3.3065   -9.6375 C   0  0  0  0  0  0  0  0  0  0  0  0
   -8.3201    4.4340   -8.9783 C   0  0  0  0  0  0  0  0  0  0  0  0
   -8.4394    4.2116   -7.4990 C   0  0  0  0  0  0  0  0  0  0  0  0
   -9.4415    3.1410   -7.3883 N   0  0  0  0  0  0  0  0  0  0  0  0
   -9.3524    2.3616   -6.1730 C   0  0  0  0  0  0  0  0  0  0  0  0
   -9.3053    2.3243   -8.6138 C   0  0  0  0  0  0  0  0  0  0  0  0
 22 23  1  0  0  0
 23 24  2  0  0  0
 24 25  1  0  0  0
 25 18  1  0  0  0
 18 19  1  0  0  0
 19 20  2  0  0  0
 19  1  1  0  0  0
  1  2  2  0  0  0
  2  3  1  0  0  0
  3  4  1  0  0  0
  3  5  2  0  0  0
  5  6  1  0  0  0
  6  7  2  0  0  0
  7  8  1  0  0  0
  8  9  1  0  0  0
  8 10  2  0  0  0
 10 11  1  0  0  0
 10 12  1  0  0  0
 12 13  1  0  0  0
 13 14  1  0  0  0
 14 15  1  0  0  0
 15 16  1  0  0  0
 25 26  2  0  0  0
 26 27  1  0  0  0
 27 28  2  0  0  0
 28 29  1  0  0  0
 29 30  1  0  0  0
 30 31  1  0  0  0
 30 32  1  0  0  0
 28 23  1  0  0  0
  7  1  1  0  0  0
 16 13  1  0  0  0
 32 27  1  0  0  0
 12  6  1  0  0  0
 18 21  1  0  0  0
 15 17  1  0  0  0
M  END
> <minimizedAffinity>
-8.81240

> <minimizedRMSD>
0.72697

$$$$
P28235


 33 37  0  0  0  0  0  0  0  0999 V2000
   -4.0262    5.3566  -16.9420 C   0  0  0  0  0  0  0  0  0  0  0  0
   -4.8025    5.6185  -15.8329 C   0  0  0  0  0  0  0  0  0  0  0  0
   -6.1544    5.3306  -16.1491 C   0  0  0  0  0  0  0  0  0  0  0  0
   -7.3561    5.3312  -15.4130 C   0  0  0  0  0  0  0  0  0  0  0  0
   -8.5547    4.9285  -15.9968 C   0  0  0  0  0  0  0  0  0  0  0  0
   -8.5707    4.6148  -17.3462 C   0  0  0  0  0  0  0  0  0  0  0  0
  -10.0848    4.2852  -18.0772 Cl  0  0  0  0  0  0  0  0  0  0  0  0
   -7.4098    4.6522  -18.1293 C   0  0  0  0  0  0  0  0  0  0  0  0
   -6.1970    4.9951  -17.5028 C   0  0  0  0  0  0  0  0  0  0  0  0
   -4.9030    5.1281  -17.9885 N   0  0  0  0  0  0  0  0  0  0  0  0
   -4.6123    5.0271  -19.4370 C   0  0  0  0  0  0  0  0  0  0  0  0
   -3.1514    5.0518  -19.9343 C   0  0  0  0  0  0  0  0  0  0  0  0
   -3.6121    5.8939  -21.0742 N   0  0  0  0  0  0  0  0  0  0  0  0
   -4.6725    6.3969  -20.1520 C   0  0  0  0  0  0  0  0  0  0  0  0
   -3.9565    5.3732  -21.8809 H   0  0  0  0  0  0  0  0  0  0  0  0
   -7.3882    5.9697  -14.0908 C   0  0  0  0  0  0  0  0  0  0  0  0
   -6.9051    7.0268  -13.9955 O   0  0  0  0  0  0  0  0  0  0  0  0
   -8.1398    5.1182  -13.0515 N   0  0  0  0  0  0  0  0  0  0  0  0
   -8.5228    4.2821  -13.4028 H   0  0  0  0  0  0  0  0  0  0  0  0
   -8.3651    5.3374  -11.7013 C   0  0  0  0  0  0  0  0  0  0  0  0
   -8.5260    6.6676  -11.2596 C   0  0  0  0  0  0  0  0  0  0  0  0
   -8.6785    6.9799   -9.9082 C   0  0  0  0  0  0  0  0  0  0  0  0
   -8.8317    8.3976   -9.4592 C   0  0  0  0  0  0  0  0  0  0  0  0
   -8.5670    5.9266   -9.0235 C   0  0  0  0  0  0  0  0  0  0  0  0
   -8.3685    4.6072   -9.4601 C   0  0  0  0  0  0  0  0  0  0  0  0
   -8.3416    4.2759  -10.8021 C   0  0  0  0  0  0  0  0  0  0  0  0
   -8.0422    3.7671   -8.2606 C   0  0  0  0  0  0  0  0  0  0  0  0
   -7.6595    4.7677   -7.2012 N   0  0  0  0  0  0  0  0  0  0  0  0
   -6.2407    5.1477   -7.3414 C   0  0  0  0  0  0  0  0  0  0  0  0
   -8.4869    5.9497   -7.5297 C   0  0  0  0  0  0  0  0  0  0  0  0
   -1.8339    6.0173  -16.0910 C   0  0  0  0  0  0  0  0  0  0  0  0
   -2.6734    5.3298  -17.0558 N   0  0  0  0  0  0  0  0  0  0  0  0
   -2.2572    4.8388  -17.8008 H   0  0  0  0  0  0  0  0  0  0  0  0
 31 32  1  0  0  0
 32  1  1  0  0  0
  1  2  2  0  0  0
  2  3  1  0  0  0
  3  4  2  0  0  0
  4 16  1  0  0  0
 16 17  2  0  0  0
 16 18  1  0  0  0
 18 20  1  0  0  0
 20 21  2  0  0  0
 21 22  1  0  0  0
 22 23  1  0  0  0
 22 24  2  0  0  0
 24 25  1  0  0  0
 25 26  2  0  0  0
 25 27  1  0  0  0
 27 28  1  0  0  0
 28 29  1  0  0  0
 28 30  1  0  0  0
  4  5  1  0  0  0
  5  6  2  0  0  0
  6  7  1  0  0  0
  6  8  1  0  0  0
  8  9  2  0  0  0
  9 10  1  0  0  0
 10 11  1  0  0  0
 11 12  1  0  0  0
 12 13  1  0  0  0
 13 14  1  0  0  0
 10  1  1  0  0  0
 14 11  1  0  0  0
  9  3  1  0  0  0
 26 20  1  0  0  0
 30 24  1  0  0  0
 32 33  1  0  0  0
 18 19  1  0  0  0
 13 15  1  0  0  0
M  END
> <minimizedAffinity>
-7.39375

> <minimizedRMSD>
0.49067

$$$$
P28238


 32 36  0  0  0  0  0  0  0  0999 V2000
   -7.8248    4.6780  -15.6929 C   0  0  0  0  0  0  0  0  0  0  0  0
   -9.0435    4.4937  -16.3306 C   0  0  0  0  0  0  0  0  0  0  0  0
   -9.0921    4.5028  -17.7132 C   0  0  0  0  0  0  0  0  0  0  0  0
  -10.6378    4.4962  -18.4335 Cl  0  0  0  0  0  0  0  0  0  0  0  0
   -7.9446    4.6358  -18.5004 C   0  0  0  0  0  0  0  0  0  0  0  0
   -6.7184    4.7671  -17.8338 C   0  0  0  0  0  0  0  0  0  0  0  0
   -6.6359    4.7677  -16.4433 C   0  0  0  0  0  0  0  0  0  0  0  0
   -5.2511    4.8612  -16.1683 C   0  0  0  0  0  0  0  0  0  0  0  0
   -4.7216    4.8358  -14.9375 N   0  0  0  0  0  0  0  0  0  0  0  0
   -4.5185    4.9620  -17.2688 N   0  0  0  0  0  0  0  0  0  0  0  0
   -5.4238    4.9549  -18.2655 N   0  0  0  0  0  0  0  0  0  0  0  0
   -5.3084    4.7597  -14.1506 H   0  0  0  0  0  0  0  0  0  0  0  0
   -3.7458    4.8933  -14.8201 H   0  0  0  0  0  0  0  0  0  0  0  0
   -5.0538    5.1529  -19.6757 C   0  0  0  0  0  0  0  0  0  0  0  0
   -3.5350    5.1895  -19.9593 C   0  0  0  0  0  0  0  0  0  0  0  0
   -3.7992    6.3054  -20.9142 N   0  0  0  0  0  0  0  0  0  0  0  0
   -4.9881    6.6383  -20.0786 C   0  0  0  0  0  0  0  0  0  0  0  0
   -4.0158    6.0102  -21.8662 H   0  0  0  0  0  0  0  0  0  0  0  0
   -7.9561    3.6407  -13.4367 N   0  0  0  0  0  0  0  0  0  0  0  0
   -7.8008    4.9397  -14.2472 C   0  0  0  0  0  0  0  0  0  0  0  0
   -7.6008    6.0331  -13.8927 O   0  0  0  0  0  0  0  0  0  0  0  0
   -8.1990    2.8492  -13.9694 H   0  0  0  0  0  0  0  0  0  0  0  0
   -4.2156    5.3355  -10.4089 C   0  0  0  0  0  0  0  0  0  0  0  0
   -4.4843    4.3097   -9.3965 N   0  0  0  0  0  0  0  0  0  0  0  0
   -5.7833    4.5375   -8.6981 C   0  0  0  0  0  0  0  0  0  0  0  0
   -6.8049    3.9434   -9.6233 C   0  0  0  0  0  0  0  0  0  0  0  0
   -8.0777    4.4036   -9.8853 C   0  0  0  0  0  0  0  0  0  0  0  0
   -8.5675    4.1566  -11.1621 C   0  0  0  0  0  0  0  0  0  0  0  0
   -7.8099    3.4038  -12.0804 C   0  0  0  0  0  0  0  0  0  0  0  0
   -6.6718    2.7035  -11.6984 C   0  0  0  0  0  0  0  0  0  0  0  0
   -6.1392    3.0583  -10.4814 C   0  0  0  0  0  0  0  0  0  0  0  0
   -4.6942    2.9999  -10.0752 C   0  0  0  0  0  0  0  0  0  0  0  0
 23 24  1  0  0  0
 24 25  1  0  0  0
 25 26  1  0  0  0
 26 27  2  0  0  0
 27 28  1  0  0  0
 28 29  2  0  0  0
 29 19  1  0  0  0
 19 20  1  0  0  0
 20 21  2  0  0  0
 20  1  1  0  0  0
  1  2  2  0  0  0
  2  3  1  0  0  0
  3  4  1  0  0  0
  3  5  2  0  0  0
  5  6  1  0  0  0
  6  7  2  0  0  0
  7  8  1  0  0  0
  8  9  1  0  0  0
  8 10  2  0  0  0
 10 11  1  0  0  0
 11 14  1  0  0  0
 14 15  1  0  0  0
 15 16  1  0  0  0
 16 17  1  0  0  0
 29 30  1  0  0  0
 30 31  2  0  0  0
 31 32  1  0  0  0
 32 24  1  0  0  0
 31 26  1  0  0  0
  7  1  1  0  0  0
 17 14  1  0  0  0
 11  6  1  0  0  0
 19 22  1  0  0  0
  9 12  1  0  0  0
  9 13  1  0  0  0
 16 18  1  0  0  0
M  END
> <minimizedAffinity>
-8.10451

> <minimizedRMSD>
1.14531

$$$$
P28246


 33 37  0  0  0  0  0  0  0  0999 V2000
   -7.5022    4.2338  -14.1341 C   0  0  0  0  0  0  0  0  0  0  0  0
   -7.2009    2.8879  -13.9080 O   0  0  0  0  0  0  0  0  0  0  0  0
   -6.4224    5.0097  -13.6875 O   0  0  0  0  0  0  0  0  0  0  0  0
   -7.8162    2.2233  -14.1481 H   0  0  0  0  0  0  0  0  0  0  0  0
   -6.4536    5.9432  -13.7625 H   0  0  0  0  0  0  0  0  0  0  0  0
   -7.6204    4.4256  -15.6307 C   0  0  0  0  0  0  0  0  0  0  0  0
   -8.8608    4.3742  -16.3065 C   0  0  0  0  0  0  0  0  0  0  0  0
   -8.9552    4.5614  -17.6843 C   0  0  0  0  0  0  0  0  0  0  0  0
  -10.5044    4.5849  -18.4248 Cl  0  0  0  0  0  0  0  0  0  0  0  0
   -7.8267    4.7816  -18.4699 C   0  0  0  0  0  0  0  0  0  0  0  0
   -6.5903    4.8159  -17.8190 C   0  0  0  0  0  0  0  0  0  0  0  0
   -6.4742    4.6359  -16.4427 C   0  0  0  0  0  0  0  0  0  0  0  0
   -5.0837    4.7127  -16.1988 C   0  0  0  0  0  0  0  0  0  0  0  0
   -4.3717    4.9502  -17.2991 N   0  0  0  0  0  0  0  0  0  0  0  0
   -5.3033    5.0114  -18.2749 N   0  0  0  0  0  0  0  0  0  0  0  0
   -4.9674    5.3489  -19.6716 C   0  0  0  0  0  0  0  0  0  0  0  0
   -3.4600    5.5216  -19.9540 C   0  0  0  0  0  0  0  0  0  0  0  0
   -3.7853    6.7584  -20.7046 N   0  0  0  0  0  0  0  0  0  0  0  0
   -5.0399    6.8656  -19.9284 C   0  0  0  0  0  0  0  0  0  0  0  0
   -3.9211    6.6191  -21.7059 H   0  0  0  0  0  0  0  0  0  0  0  0
   -8.6774    4.6517  -13.4050 N   0  0  0  0  0  0  0  0  0  0  0  0
   -9.5380    4.7653  -13.8693 H   0  0  0  0  0  0  0  0  0  0  0  0
   -8.3734    7.4516  -12.2988 C   0  0  0  0  0  0  0  0  0  0  0  0
   -8.3993    6.1952  -11.4702 C   0  0  0  0  0  0  0  0  0  0  0  0
   -8.2435    6.3568  -10.0785 C   0  0  0  0  0  0  0  0  0  0  0  0
   -8.3122    5.2490   -9.2559 C   0  0  0  0  0  0  0  0  0  0  0  0
   -8.5098    3.9826   -9.7832 C   0  0  0  0  0  0  0  0  0  0  0  0
   -8.6336    3.7881  -11.1488 C   0  0  0  0  0  0  0  0  0  0  0  0
   -8.5755    4.8952  -12.0172 C   0  0  0  0  0  0  0  0  0  0  0  0
   -8.6069    2.9880   -8.6712 C   0  0  0  0  0  0  0  0  0  0  0  0
   -8.2866    3.7434   -7.4458 N   0  0  0  0  0  0  0  0  0  0  0  0
   -9.1305    3.3877   -6.3213 C   0  0  0  0  0  0  0  0  0  0  0  0
   -8.2732    5.1753   -7.7640 C   0  0  0  0  0  0  0  0  0  0  0  0
 23 24  1  0  0  0
 24 25  2  0  0  0
 25 26  1  0  0  0
 26 27  2  0  0  0
 27 28  1  0  0  0
 28 29  2  0  0  0
 29 21  1  0  0  0
 21  1  1  0  0  0
  1  2  1  0  0  0
  1  3  1  0  0  0
  1  6  1  0  0  0
  6  7  2  0  0  0
  7  8  1  0  0  0
  8  9  1  0  0  0
  8 10  2  0  0  0
 10 11  1  0  0  0
 11 12  2  0  0  0
 12 13  1  0  0  0
 13 14  2  0  0  0
 14 15  1  0  0  0
 15 16  1  0  0  0
 16 17  1  0  0  0
 17 18  1  0  0  0
 18 19  1  0  0  0
 27 30  1  0  0  0
 30 31  1  0  0  0
 31 32  1  0  0  0
 31 33  1  0  0  0
 29 24  1  0  0  0
 12  6  1  0  0  0
 19 16  1  0  0  0
 33 26  1  0  0  0
 15 11  1  0  0  0
 21 22  1  0  0  0
  2  4  1  0  0  0
  3  5  1  0  0  0
 18 20  1  0  0  0
M  END
> <minimizedAffinity>
-8.74703

> <minimizedRMSD>
0.57505

$$$$
P28249


 38 43  0  0  0  0  0  0  0  0999 V2000
   -8.2779    4.9451  -15.5369 C   0  0  0  0  0  0  0  0  0  0  0  0
   -9.1522    4.5290  -16.5372 C   0  0  0  0  0  0  0  0  0  0  0  0
   -8.6947    4.4548  -17.8466 C   0  0  0  0  0  0  0  0  0  0  0  0
   -9.8318    4.1042  -19.0796 Cl  0  0  0  0  0  0  0  0  0  0  0  0
   -7.3668    4.7436  -18.1950 C   0  0  0  0  0  0  0  0  0  0  0  0
   -6.4958    5.1350  -17.1660 C   0  0  0  0  0  0  0  0  0  0  0  0
   -6.9355    5.2299  -15.8439 C   0  0  0  0  0  0  0  0  0  0  0  0
   -5.8051    5.6417  -15.1137 C   0  0  0  0  0  0  0  0  0  0  0  0
   -4.7278    5.7766  -15.8808 N   0  0  0  0  0  0  0  0  0  0  0  0
   -5.1723    5.5297  -17.1263 N   0  0  0  0  0  0  0  0  0  0  0  0
   -4.2328    5.5773  -18.2550 C   0  0  0  0  0  0  0  0  0  0  0  0
   -4.6808    4.8687  -19.5330 C   0  0  0  0  0  0  0  0  0  0  0  0
   -4.0976    5.9772  -20.3121 N   0  0  0  0  0  0  0  0  0  0  0  0
   -4.3244    6.8910  -19.1335 C   0  0  0  0  0  0  0  0  0  0  0  0
   -4.6278    6.2285  -21.1464 H   0  0  0  0  0  0  0  0  0  0  0  0
   -3.0881    7.8641  -18.9333 C   0  0  0  0  0  0  0  0  0  0  0  0
   -2.9563    8.7467  -18.0843 O   0  0  0  0  0  0  0  0  0  0  0  0
   -5.6691    7.6562  -19.2219 C   0  0  0  0  0  0  0  0  0  0  0  0
   -5.6704    8.7214  -20.2995 C   0  0  0  0  0  0  0  0  0  0  0  0
   -5.8232   10.0734  -19.9630 C   0  0  0  0  0  0  0  0  0  0  0  0
   -5.8116   11.0557  -20.9540 C   0  0  0  0  0  0  0  0  0  0  0  0
   -5.6530   10.6978  -22.2911 C   0  0  0  0  0  0  0  0  0  0  0  0
   -5.5115    9.3562  -22.6399 C   0  0  0  0  0  0  0  0  0  0  0  0
   -5.5234    8.3720  -21.6503 C   0  0  0  0  0  0  0  0  0  0  0  0
   -8.2152    4.3480  -13.1102 N   0  0  0  0  0  0  0  0  0  0  0  0
   -8.7861    5.2793  -14.1978 C   0  0  0  0  0  0  0  0  0  0  0  0
   -9.5367    6.1687  -14.1143 O   0  0  0  0  0  0  0  0  0  0  0  0
   -7.6507    3.6161  -13.4492 H   0  0  0  0  0  0  0  0  0  0  0  0
   -8.8587    6.7279   -6.3161 C   0  0  0  0  0  0  0  0  0  0  0  0
   -8.1213    6.0329   -7.3544 N   0  0  0  0  0  0  0  0  0  0  0  0
   -8.5407    4.6141   -7.4977 C   0  0  0  0  0  0  0  0  0  0  0  0
   -8.5260    4.3483   -8.9672 C   0  0  0  0  0  0  0  0  0  0  0  0
   -8.6916    3.1554   -9.6486 C   0  0  0  0  0  0  0  0  0  0  0  0
   -8.6213    3.1758  -11.0455 C   0  0  0  0  0  0  0  0  0  0  0  0
   -8.3675    4.3734  -11.7294 C   0  0  0  0  0  0  0  0  0  0  0  0
   -8.2300    5.5732  -11.0285 C   0  0  0  0  0  0  0  0  0  0  0  0
   -8.3217    5.5426   -9.6499 C   0  0  0  0  0  0  0  0  0  0  0  0
   -8.2543    6.6747   -8.6812 C   0  0  0  0  0  0  0  0  0  0  0  0
 29 30  1  0  0  0
 30 31  1  0  0  0
 31 32  1  0  0  0
 32 33  2  0  0  0
 33 34  1  0  0  0
 34 35  2  0  0  0
 35 25  1  0  0  0
 25 26  1  0  0  0
 26 27  2  0  0  0
 26  1  1  0  0  0
  1  2  2  0  0  0
  2  3  1  0  0  0
  3  4  1  0  0  0
  3  5  2  0  0  0
  5  6  1  0  0  0
  6  7  2  0  0  0
  7  8  1  0  0  0
  8  9  2  0  0  0
  9 10  1  0  0  0
 11 10  1  0  0  0
 11 12  1  0  0  0
 12 13  1  0  0  0
 13 14  1  0  0  0
 14 16  1  0  0  0
 16 17  2  0  0  0
 14 18  1  0  0  0
 18 19  1  0  0  0
 19 20  2  0  0  0
 20 21  1  0  0  0
 21 22  2  0  0  0
 22 23  1  0  0  0
 23 24  2  0  0  0
 35 36  1  0  0  0
 36 37  2  0  0  0
 37 38  1  0  0  0
 38 30  1  0  0  0
 37 32  1  0  0  0
  7  1  1  0  0  0
 14 11  1  0  0  0
 24 19  1  0  0  0
 10  6  1  0  0  0
 25 28  1  0  0  0
 13 15  1  0  0  0
M  END
> <minimizedAffinity>
-8.51923

> <minimizedRMSD>
1.80935

$$$$
P28250


 40 45  0  0  0  0  0  0  0  0999 V2000
   -7.9001    5.0156  -15.4087 C   0  0  0  0  0  0  0  0  0  0  0  0
   -9.0944    4.7338  -16.0784 C   0  0  0  0  0  0  0  0  0  0  0  0
   -9.0876    4.5550  -17.4607 C   0  0  0  0  0  0  0  0  0  0  0  0
  -10.5810    4.4088  -18.2935 Cl  0  0  0  0  0  0  0  0  0  0  0  0
   -7.9090    4.5979  -18.2119 C   0  0  0  0  0  0  0  0  0  0  0  0
   -6.7181    4.8602  -17.5254 C   0  0  0  0  0  0  0  0  0  0  0  0
   -6.6964    5.0703  -16.1452 C   0  0  0  0  0  0  0  0  0  0  0  0
   -5.3440    5.3437  -15.8529 C   0  0  0  0  0  0  0  0  0  0  0  0
   -4.5633    5.3093  -16.9325 N   0  0  0  0  0  0  0  0  0  0  0  0
   -5.4146    5.0267  -17.9440 N   0  0  0  0  0  0  0  0  0  0  0  0
   -4.9776    5.0023  -19.3651 C   0  0  0  0  0  0  0  0  0  0  0  0
   -3.4702    4.7477  -19.5148 C   0  0  0  0  0  0  0  0  0  0  0  0
   -3.2725    6.0977  -20.0505 N   0  0  0  0  0  0  0  0  0  0  0  0
   -4.7003    6.4172  -19.9363 C   0  0  0  0  0  0  0  0  0  0  0  0
   -2.9276    6.1091  -21.0103 H   0  0  0  0  0  0  0  0  0  0  0  0
   -5.0209    7.6821  -19.0205 C   0  0  0  0  0  0  0  0  0  0  0  0
   -6.1337    8.1206  -18.7017 O   0  0  0  0  0  0  0  0  0  0  0  0
   -5.2433    6.4869  -21.3026 N   0  0  0  0  0  0  0  0  0  0  0  0
   -6.1909    6.1096  -21.2996 H   0  0  0  0  0  0  0  0  0  0  0  0
   -5.2835    7.8642  -21.8112 C   0  0  0  0  0  0  0  0  0  0  0  0
   -5.6703    7.9759  -23.2713 C   0  0  0  0  0  0  0  0  0  0  0  0
   -5.6357    6.8894  -24.1542 C   0  0  0  0  0  0  0  0  0  0  0  0
   -5.9917    7.0486  -25.4954 C   0  0  0  0  0  0  0  0  0  0  0  0
   -6.3639    8.3003  -25.9787 C   0  0  0  0  0  0  0  0  0  0  0  0
   -6.3719    9.3978  -25.1231 C   0  0  0  0  0  0  0  0  0  0  0  0
   -6.0252    9.2372  -23.7799 C   0  0  0  0  0  0  0  0  0  0  0  0
   -8.2999    4.3631  -12.9974 N   0  0  0  0  0  0  0  0  0  0  0  0
   -7.9070    5.4786  -13.9976 C   0  0  0  0  0  0  0  0  0  0  0  0
   -7.6455    6.6032  -13.8139 O   0  0  0  0  0  0  0  0  0  0  0  0
   -8.5490    3.5060  -13.4128 H   0  0  0  0  0  0  0  0  0  0  0  0
  -10.0804    2.5296   -6.2532 C   0  0  0  0  0  0  0  0  0  0  0  0
   -9.0198    2.7784   -7.2079 N   0  0  0  0  0  0  0  0  0  0  0  0
   -8.6329    4.1863   -7.3488 C   0  0  0  0  0  0  0  0  0  0  0  0
   -8.4555    4.4148   -8.8179 C   0  0  0  0  0  0  0  0  0  0  0  0
   -7.9912    5.5360   -9.4822 C   0  0  0  0  0  0  0  0  0  0  0  0
   -7.9347    5.5064  -10.8810 C   0  0  0  0  0  0  0  0  0  0  0  0
   -8.3583    4.3754  -11.6002 C   0  0  0  0  0  0  0  0  0  0  0  0
   -8.8384    3.2561  -10.9138 C   0  0  0  0  0  0  0  0  0  0  0  0
   -8.8637    3.2870   -9.5225 C   0  0  0  0  0  0  0  0  0  0  0  0
   -9.2994    2.2291   -8.5522 C   0  0  0  0  0  0  0  0  0  0  0  0
 31 32  1  0  0  0
 32 33  1  0  0  0
 33 34  1  0  0  0
 34 35  2  0  0  0
 35 36  1  0  0  0
 36 37  2  0  0  0
 37 27  1  0  0  0
 27 28  1  0  0  0
 28 29  2  0  0  0
 28  1  1  0  0  0
  1  2  2  0  0  0
  2  3  1  0  0  0
  3  4  1  0  0  0
  3  5  2  0  0  0
  5  6  1  0  0  0
  6  7  2  0  0  0
  7  8  1  0  0  0
  8  9  2  0  0  0
  9 10  1  0  0  0
 11 10  1  0  0  0
 11 12  1  0  0  0
 12 13  1  0  0  0
 13 14  1  0  0  0
 14 16  1  0  0  0
 16 17  2  0  0  0
 14 18  1  0  0  0
 18 20  1  0  0  0
 20 21  1  0  0  0
 21 22  2  0  0  0
 22 23  1  0  0  0
 23 24  2  0  0  0
 24 25  1  0  0  0
 25 26  2  0  0  0
 37 38  1  0  0  0
 38 39  2  0  0  0
 39 40  1  0  0  0
 40 32  1  0  0  0
 39 34  1  0  0  0
  7  1  1  0  0  0
 14 11  1  0  0  0
 26 21  1  0  0  0
 10  6  1  0  0  0
 27 30  1  0  0  0
 13 15  1  0  0  0
 18 19  1  0  0  0
M  END
> <minimizedAffinity>
-9.39127

> <minimizedRMSD>
0.44398

$$$$
P28251


 39 44  0  0  0  0  0  0  0  0999 V2000
   -7.8140    5.0436  -15.3251 C   0  0  0  0  0  0  0  0  0  0  0  0
   -8.9718    4.7392  -16.0429 C   0  0  0  0  0  0  0  0  0  0  0  0
   -8.8884    4.5553  -17.4172 C   0  0  0  0  0  0  0  0  0  0  0  0
  -10.3324    4.3418  -18.3215 Cl  0  0  0  0  0  0  0  0  0  0  0  0
   -7.6723    4.6375  -18.1032 C   0  0  0  0  0  0  0  0  0  0  0  0
   -6.5094    4.9069  -17.3648 C   0  0  0  0  0  0  0  0  0  0  0  0
   -6.5603    5.1001  -15.9801 C   0  0  0  0  0  0  0  0  0  0  0  0
   -5.2322    5.3689  -15.5505 C   0  0  0  0  0  0  0  0  0  0  0  0
   -4.4118    5.3764  -16.6549 C   0  0  0  0  0  0  0  0  0  0  0  0
   -3.1118    5.6409  -16.7338 O   0  0  0  0  0  0  0  0  0  0  0  0
   -5.1930    5.0866  -17.7576 N   0  0  0  0  0  0  0  0  0  0  0  0
   -2.6245    5.8318  -15.9566 H   0  0  0  0  0  0  0  0  0  0  0  0
   -4.7694    5.0685  -19.1918 C   0  0  0  0  0  0  0  0  0  0  0  0
   -3.2972    4.7394  -19.4644 C   0  0  0  0  0  0  0  0  0  0  0  0
   -2.9901    6.1814  -19.5352 N   0  0  0  0  0  0  0  0  0  0  0  0
   -4.4257    6.4738  -19.7283 C   0  0  0  0  0  0  0  0  0  0  0  0
   -2.4012    6.4439  -20.3255 H   0  0  0  0  0  0  0  0  0  0  0  0
   -4.7409    6.7163  -21.1115 O   0  0  0  0  0  0  0  0  0  0  0  0
   -5.2333    8.0134  -21.4313 C   0  0  0  0  0  0  0  0  0  0  0  0
   -5.6187    8.1088  -22.8886 C   0  0  0  0  0  0  0  0  0  0  0  0
   -5.9347    9.3569  -23.4464 C   0  0  0  0  0  0  0  0  0  0  0  0
   -6.2434    9.4724  -24.8040 C   0  0  0  0  0  0  0  0  0  0  0  0
   -6.2342    8.3431  -25.6202 C   0  0  0  0  0  0  0  0  0  0  0  0
   -5.9075    7.1007  -25.0823 C   0  0  0  0  0  0  0  0  0  0  0  0
   -5.5951    6.9858  -23.7267 C   0  0  0  0  0  0  0  0  0  0  0  0
   -8.1144    4.3583  -12.9243 N   0  0  0  0  0  0  0  0  0  0  0  0
   -7.9096    5.5177  -13.9263 C   0  0  0  0  0  0  0  0  0  0  0  0
   -7.7821    6.6646  -13.7420 O   0  0  0  0  0  0  0  0  0  0  0  0
   -8.1190    3.4605  -13.3281 H   0  0  0  0  0  0  0  0  0  0  0  0
  -10.0954    2.4410   -6.2498 C   0  0  0  0  0  0  0  0  0  0  0  0
   -9.0491    2.7315   -7.2086 N   0  0  0  0  0  0  0  0  0  0  0  0
   -8.6887    4.1479   -7.3189 C   0  0  0  0  0  0  0  0  0  0  0  0
   -8.4970    4.3960   -8.7799 C   0  0  0  0  0  0  0  0  0  0  0  0
   -8.0314    5.5330   -9.4106 C   0  0  0  0  0  0  0  0  0  0  0  0
   -7.9230    5.5141  -10.8018 C   0  0  0  0  0  0  0  0  0  0  0  0
   -8.2937    4.3775  -11.5427 C   0  0  0  0  0  0  0  0  0  0  0  0
   -8.7995    3.2479  -10.8943 C   0  0  0  0  0  0  0  0  0  0  0  0
   -8.8768    3.2696   -9.5081 C   0  0  0  0  0  0  0  0  0  0  0  0
   -9.3276    2.2041   -8.5610 C   0  0  0  0  0  0  0  0  0  0  0  0
 30 31  1  0  0  0
 31 32  1  0  0  0
 32 33  1  0  0  0
 33 34  2  0  0  0
 34 35  1  0  0  0
 35 36  2  0  0  0
 36 26  1  0  0  0
 26 27  1  0  0  0
 27 28  2  0  0  0
 27  1  1  0  0  0
  1  2  2  0  0  0
  2  3  1  0  0  0
  3  4  1  0  0  0
  3  5  2  0  0  0
  5  6  1  0  0  0
  6  7  2  0  0  0
  7  8  1  0  0  0
  8  9  2  0  0  0
  9 10  1  0  0  0
  9 11  1  0  0  0
 13 11  1  0  0  0
 13 14  1  0  0  0
 14 15  1  0  0  0
 15 16  1  0  0  0
 16 18  1  0  0  0
 18 19  1  0  0  0
 19 20  1  0  0  0
 20 21  2  0  0  0
 21 22  1  0  0  0
 22 23  2  0  0  0
 23 24  1  0  0  0
 24 25  2  0  0  0
 36 37  1  0  0  0
 37 38  2  0  0  0
 38 39  1  0  0  0
 39 31  1  0  0  0
 38 33  1  0  0  0
  7  1  1  0  0  0
 16 13  1  0  0  0
 25 20  1  0  0  0
 11  6  1  0  0  0
 26 29  1  0  0  0
 10 12  1  0  0  0
 15 17  1  0  0  0
M  END
> <minimizedAffinity>
-9.00373

> <minimizedRMSD>
0.54390

$$$$
P28252


 35 40  0  0  0  0  0  0  0  0999 V2000
   -8.3242    4.7507  -15.5583 C   0  0  0  0  0  0  0  0  0  0  0  0
   -9.2570    4.5231  -16.5639 C   0  0  0  0  0  0  0  0  0  0  0  0
   -8.8204    4.4722  -17.8783 C   0  0  0  0  0  0  0  0  0  0  0  0
   -9.9963    4.3207  -19.1222 Cl  0  0  0  0  0  0  0  0  0  0  0  0
   -7.4689    4.6438  -18.2234 C   0  0  0  0  0  0  0  0  0  0  0  0
   -6.5219    4.8250  -17.1956 C   0  0  0  0  0  0  0  0  0  0  0  0
   -6.9457    4.8395  -15.8578 C   0  0  0  0  0  0  0  0  0  0  0  0
   -5.7968    5.0072  -15.0503 C   0  0  0  0  0  0  0  0  0  0  0  0
   -4.6879    5.1059  -15.8621 C   0  0  0  0  0  0  0  0  0  0  0  0
   -5.1552    5.0875  -17.1727 N   0  0  0  0  0  0  0  0  0  0  0  0
   -4.3348    5.7031  -18.2470 C   0  0  0  0  0  0  0  0  0  0  0  0
   -3.5106    4.6885  -19.0746 C   0  0  0  0  0  0  0  0  0  0  0  0
   -3.6666    5.6190  -20.2179 N   0  0  0  0  0  0  0  0  0  0  0  0
   -4.9515    6.0480  -19.6015 C   0  0  0  0  0  0  0  0  0  0  0  0
   -3.7604    5.1656  -21.1268 H   0  0  0  0  0  0  0  0  0  0  0  0
   -8.1918    4.2629  -13.0989 N   0  0  0  0  0  0  0  0  0  0  0  0
   -8.7782    5.1549  -14.2118 C   0  0  0  0  0  0  0  0  0  0  0  0
   -9.5015    6.0689  -14.1468 O   0  0  0  0  0  0  0  0  0  0  0  0
   -7.6601    3.4992  -13.4202 H   0  0  0  0  0  0  0  0  0  0  0  0
  -10.0805    2.8306   -6.3304 C   0  0  0  0  0  0  0  0  0  0  0  0
   -8.9825    3.0073   -7.2584 N   0  0  0  0  0  0  0  0  0  0  0  0
   -8.5834    4.4039   -7.4729 C   0  0  0  0  0  0  0  0  0  0  0  0
   -8.4142    4.5566   -8.9489 C   0  0  0  0  0  0  0  0  0  0  0  0
   -7.9775    5.6536   -9.6662 C   0  0  0  0  0  0  0  0  0  0  0  0
   -7.9146    5.5477  -11.0577 C   0  0  0  0  0  0  0  0  0  0  0  0
   -8.2920    4.3617  -11.7129 C   0  0  0  0  0  0  0  0  0  0  0  0
   -8.7420    3.2671  -10.9751 C   0  0  0  0  0  0  0  0  0  0  0  0
   -8.7892    3.3812   -9.5922 C   0  0  0  0  0  0  0  0  0  0  0  0
   -9.2158    2.3715   -8.5736 C   0  0  0  0  0  0  0  0  0  0  0  0
   -3.2479    5.3434  -15.4951 C   0  0  0  0  0  0  0  0  0  0  0  0
   -2.9963    5.2446  -14.0556 N   0  0  0  0  0  0  0  0  0  0  0  0
   -2.6121    3.9012  -13.6158 C   0  0  0  0  0  0  0  0  0  0  0  0
   -2.0934    4.1512  -12.2085 C   0  0  0  0  0  0  0  0  0  0  0  0
   -1.5472    5.5740  -12.2412 C   0  0  0  0  0  0  0  0  0  0  0  0
   -1.8851    6.0977  -13.6302 C   0  0  0  0  0  0  0  0  0  0  0  0
 20 21  1  0  0  0
 21 22  1  0  0  0
 22 23  1  0  0  0
 23 24  2  0  0  0
 24 25  1  0  0  0
 25 26  2  0  0  0
 26 16  1  0  0  0
 16 17  1  0  0  0
 17 18  2  0  0  0
 17  1  1  0  0  0
  1  2  2  0  0  0
  2  3  1  0  0  0
  3  4  1  0  0  0
  3  5  2  0  0  0
  5  6  1  0  0  0
  6  7  2  0  0  0
  7  8  1  0  0  0
  8  9  2  0  0  0
  9 30  1  0  0  0
 30 31  1  0  0  0
 31 32  1  0  0  0
 32 33  1  0  0  0
 33 34  1  0  0  0
 34 35  1  0  0  0
  9 10  1  0  0  0
 10 11  1  0  0  0
 11 12  1  0  0  0
 12 13  1  0  0  0
 13 14  1  0  0  0
 26 27  1  0  0  0
 27 28  2  0  0  0
 28 29  1  0  0  0
 29 21  1  0  0  0
 28 23  1  0  0  0
  7  1  1  0  0  0
 35 31  1  0  0  0
 14 11  1  0  0  0
 10  6  1  0  0  0
 16 19  1  0  0  0
 13 15  1  0  0  0
M  END
> <minimizedAffinity>
-8.76189

> <minimizedRMSD>
1.20129

$$$$
P28255


 37 41  0  0  0  0  0  0  0  0999 V2000
   -7.3690    5.1533  -13.7049 C   0  0  0  0  0  0  0  0  0  0  0  0
   -6.1085    4.6129  -13.3519 O   0  0  0  0  0  0  0  0  0  0  0  0
   -5.9612    4.7307  -12.4005 H   0  0  0  0  0  0  0  0  0  0  0  0
   -7.4915    4.9108  -15.2232 C   0  0  0  0  0  0  0  0  0  0  0  0
   -8.7273    4.6445  -15.8594 C   0  0  0  0  0  0  0  0  0  0  0  0
   -8.8274    4.5009  -17.2480 C   0  0  0  0  0  0  0  0  0  0  0  0
  -10.3645    4.2655  -17.9810 Cl  0  0  0  0  0  0  0  0  0  0  0  0
   -7.7180    4.6161  -18.0830 C   0  0  0  0  0  0  0  0  0  0  0  0
   -6.4910    4.8812  -17.4715 C   0  0  0  0  0  0  0  0  0  0  0  0
   -6.3635    5.0235  -16.0895 C   0  0  0  0  0  0  0  0  0  0  0  0
   -4.9836    5.2849  -15.9038 C   0  0  0  0  0  0  0  0  0  0  0  0
   -4.2906    5.2930  -17.0407 N   0  0  0  0  0  0  0  0  0  0  0  0
   -5.2221    5.0661  -17.9848 N   0  0  0  0  0  0  0  0  0  0  0  0
   -4.8956    5.0176  -19.4217 C   0  0  0  0  0  0  0  0  0  0  0  0
   -3.3844    5.0336  -19.7520 C   0  0  0  0  0  0  0  0  0  0  0  0
   -3.7025    5.9493  -20.8870 N   0  0  0  0  0  0  0  0  0  0  0  0
   -4.8745    6.4069  -20.0860 C   0  0  0  0  0  0  0  0  0  0  0  0
   -3.9393    5.4799  -21.7611 H   0  0  0  0  0  0  0  0  0  0  0  0
   -8.9882    7.1319  -13.2804 N   0  0  0  0  0  0  0  0  0  0  0  0
   -7.4814    6.7707  -13.4861 C   0  0  0  0  0  0  0  0  0  0  0  0
   -6.5297    7.4561  -13.4883 O   0  0  0  0  0  0  0  0  0  0  0  0
   -9.6126    6.3803  -13.4004 H   0  0  0  0  0  0  0  0  0  0  0  0
   -9.4785    8.6840  -11.4477 C   0  0  0  0  0  0  0  0  0  0  0  0
   -9.6175    8.3987  -12.9402 C   0  0  0  0  0  0  0  0  0  0  0  0
  -11.0734    8.4769  -13.3884 C   0  0  0  0  0  0  0  0  0  0  0  0
   -8.3818    4.4048  -12.9315 N   0  0  0  0  0  0  0  0  0  0  0  0
   -9.1131    3.9438  -13.4027 H   0  0  0  0  0  0  0  0  0  0  0  0
   -8.3094    4.3448  -11.5184 C   0  0  0  0  0  0  0  0  0  0  0  0
   -7.8583    5.4205  -10.7186 C   0  0  0  0  0  0  0  0  0  0  0  0
   -7.9430    5.4142   -9.3227 C   0  0  0  0  0  0  0  0  0  0  0  0
   -8.4793    4.3057   -8.7177 C   0  0  0  0  0  0  0  0  0  0  0  0
   -8.8866    3.2101   -9.4727 C   0  0  0  0  0  0  0  0  0  0  0  0
   -8.8302    3.2208  -10.8599 C   0  0  0  0  0  0  0  0  0  0  0  0
   -9.3571    2.1465   -8.5322 C   0  0  0  0  0  0  0  0  0  0  0  0
   -9.6719    2.8957   -7.2957 N   0  0  0  0  0  0  0  0  0  0  0  0
   -9.5918    2.0683   -6.1137 C   0  0  0  0  0  0  0  0  0  0  0  0
   -8.7403    4.0370   -7.2704 C   0  0  0  0  0  0  0  0  0  0  0  0
 23 24  1  0  0  0
 24 25  1  0  0  0
 24 19  1  0  0  0
 19 20  1  0  0  0
 20 21  2  0  0  0
 20  1  1  0  0  0
  1  2  1  0  0  0
  1 26  1  0  0  0
 26 28  1  0  0  0
 28 29  2  0  0  0
 29 30  1  0  0  0
 30 31  2  0  0  0
 31 32  1  0  0  0
 32 33  2  0  0  0
 32 34  1  0  0  0
 34 35  1  0  0  0
 35 36  1  0  0  0
 35 37  1  0  0  0
  1  4  1  0  0  0
  4  5  2  0  0  0
  5  6  1  0  0  0
  6  7  1  0  0  0
  6  8  2  0  0  0
  8  9  1  0  0  0
  9 10  2  0  0  0
 10 11  1  0  0  0
 11 12  2  0  0  0
 12 13  1  0  0  0
 13 14  1  0  0  0
 14 15  1  0  0  0
 15 16  1  0  0  0
 16 17  1  0  0  0
 33 28  1  0  0  0
 10  4  1  0  0  0
 17 14  1  0  0  0
 37 31  1  0  0  0
 13  9  1  0  0  0
 19 22  1  0  0  0
  2  3  1  0  0  0
 26 27  1  0  0  0
 16 18  1  0  0  0
M  END
> <minimizedAffinity>
-8.32628

> <minimizedRMSD>
0.24234

$$$$
P28258


 30 34  0  0  0  0  0  0  0  0999 V2000
   -7.9293    5.0104  -15.3492 C   0  0  0  0  0  0  0  0  0  0  0  0
   -9.1197    4.7330  -16.0228 C   0  0  0  0  0  0  0  0  0  0  0  0
   -9.1019    4.5548  -17.4013 C   0  0  0  0  0  0  0  0  0  0  0  0
  -10.5907    4.3901  -18.2390 Cl  0  0  0  0  0  0  0  0  0  0  0  0
   -7.9165    4.6114  -18.1416 C   0  0  0  0  0  0  0  0  0  0  0  0
   -6.7239    4.8356  -17.4441 C   0  0  0  0  0  0  0  0  0  0  0  0
   -6.6932    5.0267  -16.0376 C   0  0  0  0  0  0  0  0  0  0  0  0
   -5.3243    5.2213  -15.5933 C   0  0  0  0  0  0  0  0  0  0  0  0
   -4.5434    5.1407  -16.6816 N   0  0  0  0  0  0  0  0  0  0  0  0
   -3.2947    5.1513  -16.7623 O   0  0  0  0  0  0  0  0  0  0  0  0
   -5.4025    4.9603  -17.8486 N   0  0  0  0  0  0  0  0  0  0  0  0
   -4.9955    4.9526  -19.2675 C   0  0  0  0  0  0  0  0  0  0  0  0
   -3.4883    4.9641  -19.6158 C   0  0  0  0  0  0  0  0  0  0  0  0
   -3.8201    5.9009  -20.7298 N   0  0  0  0  0  0  0  0  0  0  0  0
   -4.9620    6.3635  -19.8921 C   0  0  0  0  0  0  0  0  0  0  0  0
   -4.0870    5.4482  -21.6040 H   0  0  0  0  0  0  0  0  0  0  0  0
   -8.1666    4.3549  -12.9389 N   0  0  0  0  0  0  0  0  0  0  0  0
   -7.9721    5.4985  -13.9569 C   0  0  0  0  0  0  0  0  0  0  0  0
   -7.8267    6.6449  -13.7891 O   0  0  0  0  0  0  0  0  0  0  0  0
   -8.1914    3.4528  -13.3324 H   0  0  0  0  0  0  0  0  0  0  0  0
  -10.0842    2.4808   -6.2423 C   0  0  0  0  0  0  0  0  0  0  0  0
   -9.0414    2.7699   -7.2051 N   0  0  0  0  0  0  0  0  0  0  0  0
   -8.6802    4.1863   -7.3232 C   0  0  0  0  0  0  0  0  0  0  0  0
   -8.4902    4.4279   -8.7859 C   0  0  0  0  0  0  0  0  0  0  0  0
   -8.0298    5.5600   -9.4304 C   0  0  0  0  0  0  0  0  0  0  0  0
   -7.9330    5.5319  -10.8242 C   0  0  0  0  0  0  0  0  0  0  0  0
   -8.3128    4.3913  -11.5533 C   0  0  0  0  0  0  0  0  0  0  0  0
   -8.8013    3.2651  -10.8897 C   0  0  0  0  0  0  0  0  0  0  0  0
   -8.8674    3.2963   -9.5038 C   0  0  0  0  0  0  0  0  0  0  0  0
   -9.3137    2.2304   -8.5527 C   0  0  0  0  0  0  0  0  0  0  0  0
 21 22  1  0  0  0
 22 23  1  0  0  0
 23 24  1  0  0  0
 24 25  2  0  0  0
 25 26  1  0  0  0
 26 27  2  0  0  0
 27 17  1  0  0  0
 17 18  1  0  0  0
 18 19  2  0  0  0
 18  1  1  0  0  0
  1  2  2  0  0  0
  2  3  1  0  0  0
  3  4  1  0  0  0
  3  5  2  0  0  0
  5  6  1  0  0  0
  6  7  2  0  0  0
  7  8  1  0  0  0
  8  9  2  0  0  0
  9 10  1  0  0  0
  9 11  1  0  0  0
 11 12  1  0  0  0
 12 13  1  0  0  0
 13 14  1  0  0  0
 14 15  1  0  0  0
 27 28  1  0  0  0
 28 29  2  0  0  0
 29 30  1  0  0  0
 30 22  1  0  0  0
 29 24  1  0  0  0
  7  1  1  0  0  0
 15 12  1  0  0  0
 11  6  1  0  0  0
 17 20  1  0  0  0
 14 16  1  0  0  0
M  CHG 1   9   1
M  CHG 1  10  -1
M  END
> <minimizedAffinity>
-8.78614

> <minimizedRMSD>
0.37064

$$$$
P28259


 36 41  0  0  0  0  0  0  0  0999 V2000
   -7.6302    5.0293  -15.3990 C   0  0  0  0  0  0  0  0  0  0  0  0
   -8.8389    4.7591  -16.0391 C   0  0  0  0  0  0  0  0  0  0  0  0
   -8.8552    4.5762  -17.4247 C   0  0  0  0  0  0  0  0  0  0  0  0
  -10.3684    4.4132  -18.2119 Cl  0  0  0  0  0  0  0  0  0  0  0  0
   -7.6817    4.6141  -18.1779 C   0  0  0  0  0  0  0  0  0  0  0  0
   -6.4870    4.8424  -17.5214 C   0  0  0  0  0  0  0  0  0  0  0  0
   -6.4578    5.0609  -16.1453 C   0  0  0  0  0  0  0  0  0  0  0  0
   -5.0299    5.2973  -15.7490 C   0  0  0  0  0  0  0  0  0  0  0  0
   -4.4794    4.2983  -14.7110 C   0  0  0  0  0  0  0  0  0  0  0  0
   -4.1359    5.1318  -13.5405 N   0  0  0  0  0  0  0  0  0  0  0  0
   -3.7733    6.3980  -14.1498 C   0  0  0  0  0  0  0  0  0  0  0  0
   -4.7665    6.6263  -15.1890 N   0  0  0  0  0  0  0  0  0  0  0  0
   -4.2599    5.2587  -17.0146 N   0  0  0  0  0  0  0  0  0  0  0  0
   -5.1872    4.9127  -18.0554 N   0  0  0  0  0  0  0  0  0  0  0  0
   -3.3521    4.7345  -13.0226 H   0  0  0  0  0  0  0  0  0  0  0  0
   -4.4000    7.2527  -15.9057 H   0  0  0  0  0  0  0  0  0  0  0  0
   -3.5217    4.5573  -16.9550 H   0  0  0  0  0  0  0  0  0  0  0  0
   -4.8395    4.9683  -19.4491 C   0  0  0  0  0  0  0  0  0  0  0  0
   -3.3290    5.0392  -19.7815 C   0  0  0  0  0  0  0  0  0  0  0  0
   -3.6614    6.0123  -20.8640 N   0  0  0  0  0  0  0  0  0  0  0  0
   -4.8676    6.3818  -20.0668 C   0  0  0  0  0  0  0  0  0  0  0  0
   -3.8628    5.5891  -21.7699 H   0  0  0  0  0  0  0  0  0  0  0  0
   -8.2341    4.4314  -13.0424 N   0  0  0  0  0  0  0  0  0  0  0  0
   -7.6408    5.4856  -13.9967 C   0  0  0  0  0  0  0  0  0  0  0  0
   -7.2256    6.5545  -13.7794 O   0  0  0  0  0  0  0  0  0  0  0  0
   -8.5882    3.6269  -13.4859 H   0  0  0  0  0  0  0  0  0  0  0  0
   -9.7864    2.3025   -6.3032 C   0  0  0  0  0  0  0  0  0  0  0  0
   -8.8901    2.7336   -7.3489 N   0  0  0  0  0  0  0  0  0  0  0  0
   -8.6731    4.1760   -7.4352 C   0  0  0  0  0  0  0  0  0  0  0  0
   -8.4958    4.4387   -8.8952 C   0  0  0  0  0  0  0  0  0  0  0  0
   -8.0559    5.5835   -9.5268 C   0  0  0  0  0  0  0  0  0  0  0  0
   -7.9715    5.5683  -10.9194 C   0  0  0  0  0  0  0  0  0  0  0  0
   -8.3510    4.4313  -11.6569 C   0  0  0  0  0  0  0  0  0  0  0  0
   -8.8265    3.2925  -11.0091 C   0  0  0  0  0  0  0  0  0  0  0  0
   -8.8674    3.3086   -9.6246 C   0  0  0  0  0  0  0  0  0  0  0  0
   -9.2814    2.2276   -8.6790 C   0  0  0  0  0  0  0  0  0  0  0  0
 27 28  1  0  0  0
 28 29  1  0  0  0
 29 30  1  0  0  0
 30 31  2  0  0  0
 31 32  1  0  0  0
 32 33  2  0  0  0
 33 23  1  0  0  0
 23 24  1  0  0  0
 24 25  2  0  0  0
 24  1  1  0  0  0
  1  2  2  0  0  0
  2  3  1  0  0  0
  3  4  1  0  0  0
  3  5  2  0  0  0
  5  6  1  0  0  0
  6  7  2  0  0  0
  7  8  1  0  0  0
  8  9  1  0  0  0
  9 10  1  0  0  0
 10 11  1  0  0  0
 11 12  1  0  0  0
  8 13  1  0  0  0
 13 14  1  0  0  0
 14 18  1  0  0  0
 18 19  1  0  0  0
 19 20  1  0  0  0
 20 21  1  0  0  0
 33 34  1  0  0  0
 34 35  2  0  0  0
 35 36  1  0  0  0
 36 28  1  0  0  0
 35 30  1  0  0  0
  7  1  1  0  0  0
 12  8  1  0  0  0
 21 18  1  0  0  0
 14  6  1  0  0  0
 23 26  1  0  0  0
 10 15  1  0  0  0
 12 16  1  0  0  0
 13 17  1  0  0  0
 20 22  1  0  0  0
M  END
> <minimizedAffinity>
-8.85006

> <minimizedRMSD>
0.48817

$$$$
P28260


 38 42  0  0  0  0  0  0  0  0999 V2000
   -7.2094    4.9330  -13.7533 C   0  0  0  0  0  0  0  0  0  0  0  0
   -6.1433    4.0520  -13.4505 O   0  0  0  0  0  0  0  0  0  0  0  0
   -5.9559    4.0861  -12.4994 H   0  0  0  0  0  0  0  0  0  0  0  0
   -7.4162    4.7958  -15.2769 C   0  0  0  0  0  0  0  0  0  0  0  0
   -8.6920    4.6612  -15.8808 C   0  0  0  0  0  0  0  0  0  0  0  0
   -8.8498    4.5773  -17.2698 C   0  0  0  0  0  0  0  0  0  0  0  0
  -10.4283    4.4727  -17.9521 Cl  0  0  0  0  0  0  0  0  0  0  0  0
   -7.7613    4.6473  -18.1360 C   0  0  0  0  0  0  0  0  0  0  0  0
   -6.4964    4.7815  -17.5580 C   0  0  0  0  0  0  0  0  0  0  0  0
   -6.3111    4.8353  -16.1768 C   0  0  0  0  0  0  0  0  0  0  0  0
   -4.9058    4.9306  -16.0263 C   0  0  0  0  0  0  0  0  0  0  0  0
   -4.2535    4.9653  -17.1862 N   0  0  0  0  0  0  0  0  0  0  0  0
   -5.2350    4.8987  -18.1069 N   0  0  0  0  0  0  0  0  0  0  0  0
   -4.9719    5.0599  -19.5506 C   0  0  0  0  0  0  0  0  0  0  0  0
   -3.4773    5.1329  -19.9337 C   0  0  0  0  0  0  0  0  0  0  0  0
   -3.7997    6.2913  -20.8019 N   0  0  0  0  0  0  0  0  0  0  0  0
   -4.9979    6.5420  -19.9721 C   0  0  0  0  0  0  0  0  0  0  0  0
   -4.0030    6.0469  -21.7710 H   0  0  0  0  0  0  0  0  0  0  0  0
   -8.1976    7.2818  -13.3425 N   0  0  0  0  0  0  0  0  0  0  0  0
   -6.8527    6.5016  -13.4594 C   0  0  0  0  0  0  0  0  0  0  0  0
   -5.7476    6.8737  -13.3464 O   0  0  0  0  0  0  0  0  0  0  0  0
   -9.0005    6.7542  -13.5577 H   0  0  0  0  0  0  0  0  0  0  0  0
   -8.4568    8.6534  -12.9698 C   0  0  0  0  0  0  0  0  0  0  0  0
  -10.9751    8.7062  -13.2965 C   0  0  0  0  0  0  0  0  0  0  0  0
   -9.8195    8.8654  -12.3068 C   0  0  0  0  0  0  0  0  0  0  0  0
   -9.8810   10.2499  -11.6600 C   0  0  0  0  0  0  0  0  0  0  0  0
   -8.3877    4.4611  -12.9912 N   0  0  0  0  0  0  0  0  0  0  0  0
   -9.2017    4.1767  -13.4663 H   0  0  0  0  0  0  0  0  0  0  0  0
   -8.3399    4.4201  -11.5728 C   0  0  0  0  0  0  0  0  0  0  0  0
   -7.9463    5.5163  -10.7709 C   0  0  0  0  0  0  0  0  0  0  0  0
   -8.0394    5.5076   -9.3755 C   0  0  0  0  0  0  0  0  0  0  0  0
   -8.5131    4.3712   -8.7718 C   0  0  0  0  0  0  0  0  0  0  0  0
   -8.8631    3.2582   -9.5294 C   0  0  0  0  0  0  0  0  0  0  0  0
   -8.8030    3.2702  -10.9159 C   0  0  0  0  0  0  0  0  0  0  0  0
   -9.2752    2.1679   -8.5925 C   0  0  0  0  0  0  0  0  0  0  0  0
   -9.6069    2.8899   -7.3429 N   0  0  0  0  0  0  0  0  0  0  0  0
   -9.4642    2.0493   -6.1712 C   0  0  0  0  0  0  0  0  0  0  0  0
   -8.7353    4.0760   -7.3228 C   0  0  0  0  0  0  0  0  0  0  0  0
 24 25  1  0  0  0
 25 26  1  0  0  0
 25 23  1  0  0  0
 23 19  1  0  0  0
 19 20  1  0  0  0
 20 21  2  0  0  0
 20  1  1  0  0  0
  1  2  1  0  0  0
  1 27  1  0  0  0
 27 29  1  0  0  0
 29 30  2  0  0  0
 30 31  1  0  0  0
 31 32  2  0  0  0
 32 33  1  0  0  0
 33 34  2  0  0  0
 33 35  1  0  0  0
 35 36  1  0  0  0
 36 37  1  0  0  0
 36 38  1  0  0  0
  1  4  1  0  0  0
  4  5  2  0  0  0
  5  6  1  0  0  0
  6  7  1  0  0  0
  6  8  2  0  0  0
  8  9  1  0  0  0
  9 10  2  0  0  0
 10 11  1  0  0  0
 11 12  2  0  0  0
 12 13  1  0  0  0
 13 14  1  0  0  0
 14 15  1  0  0  0
 15 16  1  0  0  0
 16 17  1  0  0  0
 34 29  1  0  0  0
 10  4  1  0  0  0
 17 14  1  0  0  0
 38 32  1  0  0  0
 13  9  1  0  0  0
 19 22  1  0  0  0
  2  3  1  0  0  0
 27 28  1  0  0  0
 16 18  1  0  0  0
M  END
> <minimizedAffinity>
-7.99666

> <minimizedRMSD>
0.35902

$$$$
P28265


 45 50  0  0  0  0  0  0  0  0999 V2000
   -8.1070    5.4283  -13.7680 C   0  0  0  0  0  0  0  0  0  0  0  0
   -9.3303    6.1691  -13.7257 O   0  0  0  0  0  0  0  0  0  0  0  0
   -9.5012    6.4594  -12.8161 H   0  0  0  0  0  0  0  0  0  0  0  0
   -7.9457    5.0255  -15.2492 C   0  0  0  0  0  0  0  0  0  0  0  0
   -9.1313    4.7325  -15.9850 C   0  0  0  0  0  0  0  0  0  0  0  0
   -9.1358    4.5596  -17.3678 C   0  0  0  0  0  0  0  0  0  0  0  0
  -10.6177    4.3340  -18.2096 Cl  0  0  0  0  0  0  0  0  0  0  0  0
   -7.9643    4.6483  -18.1055 C   0  0  0  0  0  0  0  0  0  0  0  0
   -6.7775    4.8619  -17.3986 C   0  0  0  0  0  0  0  0  0  0  0  0
   -6.7349    5.0194  -16.0081 C   0  0  0  0  0  0  0  0  0  0  0  0
   -5.3446    5.1555  -15.7501 C   0  0  0  0  0  0  0  0  0  0  0  0
   -4.5866    5.1245  -16.8462 N   0  0  0  0  0  0  0  0  0  0  0  0
   -5.4766    4.9807  -17.8408 N   0  0  0  0  0  0  0  0  0  0  0  0
   -5.0947    4.9160  -19.2613 C   0  0  0  0  0  0  0  0  0  0  0  0
   -3.5791    4.9237  -19.5467 C   0  0  0  0  0  0  0  0  0  0  0  0
   -3.8620    5.8287  -20.7011 N   0  0  0  0  0  0  0  0  0  0  0  0
   -5.0581    6.2961  -19.9413 C   0  0  0  0  0  0  0  0  0  0  0  0
   -4.0726    5.3505  -21.5771 H   0  0  0  0  0  0  0  0  0  0  0  0
   -7.2960    7.7352  -13.5577 N   0  0  0  0  0  0  0  0  0  0  0  0
   -6.9211    6.3762  -13.2605 C   0  0  0  0  0  0  0  0  0  0  0  0
   -5.9121    5.9280  -12.7953 O   0  0  0  0  0  0  0  0  0  0  0  0
   -8.1639    7.8292  -14.0128 H   0  0  0  0  0  0  0  0  0  0  0  0
   -6.6145    8.9850  -13.3012 C   0  0  0  0  0  0  0  0  0  0  0  0
   -5.1740    9.3153  -14.3320 S   0  0  0  0  0  0  0  0  0  0  0  0
   -4.8859   10.7376  -14.2628 O   0  0  0  0  0  0  0  0  0  0  0  0
   -5.3523    8.6768  -15.6242 O   0  0  0  0  0  0  0  0  0  0  0  0
   -0.6994    6.3950  -11.4574 C   0  0  0  0  0  0  0  0  0  0  0  0
   -1.8238    7.0968  -12.1621 C   0  0  0  0  0  0  0  0  0  0  0  0
   -1.9929    6.9479  -13.5456 C   0  0  0  0  0  0  0  0  0  0  0  0
   -3.0163    7.6245  -14.2105 C   0  0  0  0  0  0  0  0  0  0  0  0
   -3.8739    8.4540  -13.4846 C   0  0  0  0  0  0  0  0  0  0  0  0
   -3.7002    8.6381  -12.1117 C   0  0  0  0  0  0  0  0  0  0  0  0
   -2.6739    7.9579  -11.4544 C   0  0  0  0  0  0  0  0  0  0  0  0
   -8.3251    4.2786  -12.8998 N   0  0  0  0  0  0  0  0  0  0  0  0
   -8.4612    3.4018  -13.3264 H   0  0  0  0  0  0  0  0  0  0  0  0
   -8.3546    4.3344  -11.4964 C   0  0  0  0  0  0  0  0  0  0  0  0
   -8.1758    5.5157  -10.7426 C   0  0  0  0  0  0  0  0  0  0  0  0
   -8.2926    5.5374   -9.3447 C   0  0  0  0  0  0  0  0  0  0  0  0
   -8.6286    4.3684   -8.6947 C   0  0  0  0  0  0  0  0  0  0  0  0
   -8.8517    3.2028   -9.4123 C   0  0  0  0  0  0  0  0  0  0  0  0
   -8.7300    3.1737  -10.7978 C   0  0  0  0  0  0  0  0  0  0  0  0
   -9.2542    2.1072   -8.4739 C   0  0  0  0  0  0  0  0  0  0  0  0
   -9.1113    2.6806   -7.1141 N   0  0  0  0  0  0  0  0  0  0  0  0
  -10.2185    2.3415   -6.2414 C   0  0  0  0  0  0  0  0  0  0  0  0
   -8.8546    4.1208   -7.2388 C   0  0  0  0  0  0  0  0  0  0  0  0
 27 28  1  0  0  0
 28 29  2  0  0  0
 29 30  1  0  0  0
 30 31  2  0  0  0
 31 24  1  0  0  0
 24 25  2  0  0  0
 24 26  2  0  0  0
 24 23  1  0  0  0
 23 19  1  0  0  0
 19 20  1  0  0  0
 20 21  2  0  0  0
 20  1  1  0  0  0
  1  2  1  0  0  0
  1 34  1  0  0  0
 34 36  1  0  0  0
 36 37  2  0  0  0
 37 38  1  0  0  0
 38 39  2  0  0  0
 39 40  1  0  0  0
 40 41  2  0  0  0
 40 42  1  0  0  0
 42 43  1  0  0  0
 43 44  1  0  0  0
 43 45  1  0  0  0
  1  4  1  0  0  0
  4  5  2  0  0  0
  5  6  1  0  0  0
  6  7  1  0  0  0
  6  8  2  0  0  0
  8  9  1  0  0  0
  9 10  2  0  0  0
 10 11  1  0  0  0
 11 12  2  0  0  0
 12 13  1  0  0  0
 13 14  1  0  0  0
 14 15  1  0  0  0
 15 16  1  0  0  0
 16 17  1  0  0  0
 31 32  1  0  0  0
 32 33  2  0  0  0
 33 28  1  0  0  0
 41 36  1  0  0  0
 10  4  1  0  0  0
 17 14  1  0  0  0
 45 39  1  0  0  0
 13  9  1  0  0  0
 19 22  1  0  0  0
  2  3  1  0  0  0
 34 35  1  0  0  0
 16 18  1  0  0  0
M  END
> <minimizedAffinity>
-7.75754

> <minimizedRMSD>
2.29200

$$$$
P28266


 35 40  0  0  0  0  0  0  0  0999 V2000
   -8.3246    4.9662  -15.4255 C   0  0  0  0  0  0  0  0  0  0  0  0
   -9.4459    4.6904  -16.2103 C   0  0  0  0  0  0  0  0  0  0  0  0
   -9.3000    4.4970  -17.5864 C   0  0  0  0  0  0  0  0  0  0  0  0
  -10.7065    4.3018  -18.5477 Cl  0  0  0  0  0  0  0  0  0  0  0  0
   -8.0474    4.5405  -18.1932 C   0  0  0  0  0  0  0  0  0  0  0  0
   -6.9370    4.7600  -17.3963 C   0  0  0  0  0  0  0  0  0  0  0  0
   -7.0650    4.9801  -16.0209 C   0  0  0  0  0  0  0  0  0  0  0  0
   -5.6799    5.1604  -15.4615 C   0  0  0  0  0  0  0  0  0  0  0  0
   -5.3692    6.4518  -14.6917 C   0  0  0  0  0  0  0  0  0  0  0  0
   -5.0868    5.9976  -13.2663 C   0  0  0  0  0  0  0  0  0  0  0  0
   -4.4888    4.6682  -13.4283 N   0  0  0  0  0  0  0  0  0  0  0  0
   -5.3176    4.0302  -14.4609 C   0  0  0  0  0  0  0  0  0  0  0  0
   -4.7812    5.1553  -16.6640 N   0  0  0  0  0  0  0  0  0  0  0  0
   -5.5826    4.8038  -17.7955 N   0  0  0  0  0  0  0  0  0  0  0  0
   -4.5296    4.1431  -12.5548 H   0  0  0  0  0  0  0  0  0  0  0  0
   -4.0354    4.4708  -16.5390 H   0  0  0  0  0  0  0  0  0  0  0  0
   -5.1405    5.1044  -19.1440 C   0  0  0  0  0  0  0  0  0  0  0  0
   -3.6151    5.0446  -19.3905 C   0  0  0  0  0  0  0  0  0  0  0  0
   -3.7190    6.3122  -20.1538 N   0  0  0  0  0  0  0  0  0  0  0  0
   -4.9792    6.6118  -19.4327 C   0  0  0  0  0  0  0  0  0  0  0  0
   -3.8299    6.1888  -21.1602 H   0  0  0  0  0  0  0  0  0  0  0  0
   -8.3367    4.3056  -13.0048 N   0  0  0  0  0  0  0  0  0  0  0  0
   -8.5528    5.4295  -14.0405 C   0  0  0  0  0  0  0  0  0  0  0  0
   -8.8738    6.5415  -13.8937 O   0  0  0  0  0  0  0  0  0  0  0  0
   -8.1383    3.4219  -13.3908 H   0  0  0  0  0  0  0  0  0  0  0  0
   -9.9597    2.5935   -6.1872 C   0  0  0  0  0  0  0  0  0  0  0  0
   -8.9455    2.8096   -7.2005 N   0  0  0  0  0  0  0  0  0  0  0  0
   -8.5334    4.2077   -7.3634 C   0  0  0  0  0  0  0  0  0  0  0  0
   -8.3992    4.4146   -8.8371 C   0  0  0  0  0  0  0  0  0  0  0  0
   -7.9202    5.5149   -9.5211 C   0  0  0  0  0  0  0  0  0  0  0  0
   -7.9065    5.4680  -10.9174 C   0  0  0  0  0  0  0  0  0  0  0  0
   -8.3769    4.3382  -11.6107 C   0  0  0  0  0  0  0  0  0  0  0  0
   -8.8766    3.2414  -10.9053 C   0  0  0  0  0  0  0  0  0  0  0  0
   -8.8686    3.2938   -9.5171 C   0  0  0  0  0  0  0  0  0  0  0  0
   -9.3311    2.2722   -8.5240 C   0  0  0  0  0  0  0  0  0  0  0  0
 26 27  1  0  0  0
 27 28  1  0  0  0
 28 29  1  0  0  0
 29 30  2  0  0  0
 30 31  1  0  0  0
 31 32  2  0  0  0
 32 22  1  0  0  0
 22 23  1  0  0  0
 23 24  2  0  0  0
 23  1  1  0  0  0
  1  2  2  0  0  0
  2  3  1  0  0  0
  3  4  1  0  0  0
  3  5  2  0  0  0
  5  6  1  0  0  0
  6  7  2  0  0  0
  7  8  1  0  0  0
  8  9  1  0  0  0
  9 10  1  0  0  0
 10 11  1  0  0  0
 11 12  1  0  0  0
  8 13  1  0  0  0
 13 14  1  0  0  0
 14 17  1  0  0  0
 17 18  1  0  0  0
 18 19  1  0  0  0
 19 20  1  0  0  0
 32 33  1  0  0  0
 33 34  2  0  0  0
 34 35  1  0  0  0
 35 27  1  0  0  0
 34 29  1  0  0  0
  7  1  1  0  0  0
 12  8  1  0  0  0
 20 17  1  0  0  0
 14  6  1  0  0  0
 22 25  1  0  0  0
 11 15  1  0  0  0
 13 16  1  0  0  0
 19 21  1  0  0  0
M  END
> <minimizedAffinity>
-8.90170

> <minimizedRMSD>
0.76142

$$$$
P28267


 30 34  0  0  0  0  0  0  0  0999 V2000
   -8.7070    4.3478  -17.3186 C   0  0  0  0  0  0  0  0  0  0  0  0
   -8.6767    4.6738  -15.9567 C   0  0  0  0  0  0  0  0  0  0  0  0
   -7.5123    5.1668  -15.3614 C   0  0  0  0  0  0  0  0  0  0  0  0
   -6.3542    5.3138  -16.1441 C   0  0  0  0  0  0  0  0  0  0  0  0
   -5.0318    5.7479  -15.9217 C   0  0  0  0  0  0  0  0  0  0  0  0
   -4.2771    5.6871  -17.0177 N   0  0  0  0  0  0  0  0  0  0  0  0
   -5.1241    5.2464  -17.9710 N   0  0  0  0  0  0  0  0  0  0  0  0
   -6.3947    4.9849  -17.4990 C   0  0  0  0  0  0  0  0  0  0  0  0
   -7.5613    4.5062  -18.1154 C   0  0  0  0  0  0  0  0  0  0  0  0
   -4.7139    5.0608  -19.3730 C   0  0  0  0  0  0  0  0  0  0  0  0
   -3.1877    4.9912  -19.6051 C   0  0  0  0  0  0  0  0  0  0  0  0
   -3.3929    5.8281  -20.8229 N   0  0  0  0  0  0  0  0  0  0  0  0
   -4.5985    6.3861  -20.1475 C   0  0  0  0  0  0  0  0  0  0  0  0
   -3.5868    5.3014  -21.6746 H   0  0  0  0  0  0  0  0  0  0  0  0
   -7.5224    5.6365  -13.9563 C   0  0  0  0  0  0  0  0  0  0  0  0
   -7.3326    6.7723  -13.7579 O   0  0  0  0  0  0  0  0  0  0  0  0
   -7.7936    4.4765  -12.9670 N   0  0  0  0  0  0  0  0  0  0  0  0
   -7.8462    3.5851  -13.3814 H   0  0  0  0  0  0  0  0  0  0  0  0
   -7.9752    4.4892  -11.5860 C   0  0  0  0  0  0  0  0  0  0  0  0
   -7.5178    5.5665  -10.8084 C   0  0  0  0  0  0  0  0  0  0  0  0
   -7.6726    5.5664   -9.4185 C   0  0  0  0  0  0  0  0  0  0  0  0
   -8.2884    4.4780   -8.8324 C   0  0  0  0  0  0  0  0  0  0  0  0
   -8.7555    3.4122   -9.6023 C   0  0  0  0  0  0  0  0  0  0  0  0
   -8.6114    3.4021  -10.9804 C   0  0  0  0  0  0  0  0  0  0  0  0
   -9.3555    2.3855   -8.6887 C   0  0  0  0  0  0  0  0  0  0  0  0
   -9.5803    3.1272   -7.4270 N   0  0  0  0  0  0  0  0  0  0  0  0
   -9.5842    2.2682   -6.2625 C   0  0  0  0  0  0  0  0  0  0  0  0
   -8.5569    4.1878   -7.3880 C   0  0  0  0  0  0  0  0  0  0  0  0
  -10.7791    4.8033  -18.7088 C   0  0  0  0  0  0  0  0  0  0  0  0
   -9.9874    3.8210  -17.8989 C   0  0  0  0  0  0  0  0  0  0  0  0
 29 30  1  0  0  0
 30  1  1  0  0  0
  1  2  2  0  0  0
  2  3  1  0  0  0
  3 15  1  0  0  0
 15 16  2  0  0  0
 15 17  1  0  0  0
 17 19  1  0  0  0
 19 20  2  0  0  0
 20 21  1  0  0  0
 21 22  2  0  0  0
 22 23  1  0  0  0
 23 24  2  0  0  0
 23 25  1  0  0  0
 25 26  1  0  0  0
 26 27  1  0  0  0
 26 28  1  0  0  0
  3  4  2  0  0  0
  4  5  1  0  0  0
  5  6  2  0  0  0
  6  7  1  0  0  0
  7 10  1  0  0  0
 10 11  1  0  0  0
 11 12  1  0  0  0
 12 13  1  0  0  0
  7  8  1  0  0  0
  8  9  2  0  0  0
  9  1  1  0  0  0
 24 19  1  0  0  0
  8  4  1  0  0  0
 28 22  1  0  0  0
 13 10  1  0  0  0
 17 18  1  0  0  0
 12 14  1  0  0  0
M  END
> <minimizedAffinity>
-8.08816

> <minimizedRMSD>
0.32386

$$$$
P28275


 31 35  0  0  0  0  0  0  0  0999 V2000
   -8.2178    4.4828  -13.0632 N   0  0  0  0  0  0  0  0  0  0  0  0
   -6.9593    4.7459  -13.9129 C   0  0  0  0  0  0  0  0  0  0  0  0
   -5.8991    5.1177  -13.5989 O   0  0  0  0  0  0  0  0  0  0  0  0
   -9.0210    4.2431  -13.5796 H   0  0  0  0  0  0  0  0  0  0  0  0
   -9.4697    2.1514   -6.2939 C   0  0  0  0  0  0  0  0  0  0  0  0
   -9.5567    2.9674   -7.4831 N   0  0  0  0  0  0  0  0  0  0  0  0
   -8.7279    4.1800   -7.4532 C   0  0  0  0  0  0  0  0  0  0  0  0
   -8.5565    4.4992   -8.9070 C   0  0  0  0  0  0  0  0  0  0  0  0
   -8.2934    5.7022   -9.5285 C   0  0  0  0  0  0  0  0  0  0  0  0
   -8.2658    5.7283  -10.9324 C   0  0  0  0  0  0  0  0  0  0  0  0
   -8.4044    4.5290  -11.6798 C   0  0  0  0  0  0  0  0  0  0  0  0
   -8.7102    3.3315  -11.0310 C   0  0  0  0  0  0  0  0  0  0  0  0
   -8.8003    3.3433   -9.6510 C   0  0  0  0  0  0  0  0  0  0  0  0
   -9.1795    2.2408   -8.7106 C   0  0  0  0  0  0  0  0  0  0  0  0
   -8.3247    7.0212  -11.5594 C   0  0  0  0  0  0  0  0  0  0  0  0
   -8.4230    8.0062  -12.1693 N   0  0  0  0  0  0  0  0  0  0  0  0
   -7.1695    4.5433  -15.3623 C   0  0  0  0  0  0  0  0  0  0  0  0
   -8.4470    4.4570  -15.9187 C   0  0  0  0  0  0  0  0  0  0  0  0
   -8.5963    4.5730  -17.2978 C   0  0  0  0  0  0  0  0  0  0  0  0
  -10.1822    4.5196  -17.9609 Cl  0  0  0  0  0  0  0  0  0  0  0  0
   -7.5060    4.8182  -18.1481 C   0  0  0  0  0  0  0  0  0  0  0  0
   -6.2252    4.8729  -17.5761 C   0  0  0  0  0  0  0  0  0  0  0  0
   -6.0473    4.6783  -16.2050 C   0  0  0  0  0  0  0  0  0  0  0  0
   -4.6522    4.7153  -16.0096 C   0  0  0  0  0  0  0  0  0  0  0  0
   -3.9842    4.9058  -17.1425 N   0  0  0  0  0  0  0  0  0  0  0  0
   -4.9560    5.1643  -18.0486 N   0  0  0  0  0  0  0  0  0  0  0  0
   -4.5989    6.0769  -19.1455 C   0  0  0  0  0  0  0  0  0  0  0  0
   -3.1539    5.8498  -19.6380 C   0  0  0  0  0  0  0  0  0  0  0  0
   -3.6399    6.1854  -20.9966 N   0  0  0  0  0  0  0  0  0  0  0  0
   -4.9852    5.7220  -20.5719 C   0  0  0  0  0  0  0  0  0  0  0  0
   -3.2189    5.6351  -21.7452 H   0  0  0  0  0  0  0  0  0  0  0  0
  5  6  1  0  0  0
  6  7  1  0  0  0
  7  8  1  0  0  0
  8  9  2  0  0  0
  9 10  1  0  0  0
 10 15  1  0  0  0
 15 16  3  0  0  0
 10 11  2  0  0  0
 11  1  1  0  0  0
  1  2  1  0  0  0
  2  3  2  0  0  0
  2 17  1  0  0  0
 17 18  2  0  0  0
 18 19  1  0  0  0
 19 20  1  0  0  0
 19 21  2  0  0  0
 21 22  1  0  0  0
 22 23  2  0  0  0
 23 24  1  0  0  0
 24 25  2  0  0  0
 25 26  1  0  0  0
 26 27  1  0  0  0
 27 28  1  0  0  0
 28 29  1  0  0  0
 29 30  1  0  0  0
 11 12  1  0  0  0
 12 13  2  0  0  0
 13 14  1  0  0  0
 14  6  1  0  0  0
 13  8  1  0  0  0
 23 17  1  0  0  0
 30 27  1  0  0  0
 26 22  1  0  0  0
  1  4  1  0  0  0
 29 31  1  0  0  0
M  END
> <minimizedAffinity>
-8.03191

> <minimizedRMSD>
0.46354

$$$$
P28279


 37 41  0  0  0  0  0  0  0  0999 V2000
   -8.5607    4.8650  -15.6262 C   0  0  0  0  0  0  0  0  0  0  0  0
   -9.6263    4.5885  -16.4790 C   0  0  0  0  0  0  0  0  0  0  0  0
   -9.4005    4.4657  -17.8545 C   0  0  0  0  0  0  0  0  0  0  0  0
  -10.7507    4.2534  -18.8898 Cl  0  0  0  0  0  0  0  0  0  0  0  0
   -8.1205    4.5940  -18.4002 C   0  0  0  0  0  0  0  0  0  0  0  0
   -7.0666    4.8031  -17.5288 C   0  0  0  0  0  0  0  0  0  0  0  0
   -7.2751    4.9377  -16.1537 C   0  0  0  0  0  0  0  0  0  0  0  0
   -5.9517    5.1170  -15.4457 C   0  0  0  0  0  0  0  0  0  0  0  0
   -5.7196    6.5723  -15.0052 C   0  0  0  0  0  0  0  0  0  0  0  0
   -4.9511    4.8833  -16.6268 C   0  0  0  0  0  0  0  0  0  0  0  0
   -3.7386    4.7610  -16.5120 O   0  0  0  0  0  0  0  0  0  0  0  0
   -5.6937    4.8921  -17.8188 N   0  0  0  0  0  0  0  0  0  0  0  0
   -5.1466    4.9527  -19.1859 C   0  0  0  0  0  0  0  0  0  0  0  0
   -3.6015    4.9887  -19.3719 C   0  0  0  0  0  0  0  0  0  0  0  0
   -3.8046    5.9589  -20.4831 N   0  0  0  0  0  0  0  0  0  0  0  0
   -5.0499    6.3791  -19.7878 C   0  0  0  0  0  0  0  0  0  0  0  0
   -3.9497    5.5343  -21.3991 H   0  0  0  0  0  0  0  0  0  0  0  0
   -8.3489    4.2671  -13.1962 N   0  0  0  0  0  0  0  0  0  0  0  0
   -8.8451    5.2874  -14.2395 C   0  0  0  0  0  0  0  0  0  0  0  0
   -9.3972    6.3056  -14.0987 O   0  0  0  0  0  0  0  0  0  0  0  0
   -7.9755    3.4387  -13.5751 H   0  0  0  0  0  0  0  0  0  0  0  0
   -9.2992    2.3909   -6.2217 C   0  0  0  0  0  0  0  0  0  0  0  0
   -9.4238    3.1640   -7.4363 N   0  0  0  0  0  0  0  0  0  0  0  0
   -8.4309    4.2456   -7.5533 C   0  0  0  0  0  0  0  0  0  0  0  0
   -8.3172    4.4538   -9.0310 C   0  0  0  0  0  0  0  0  0  0  0  0
   -7.8353    5.5346   -9.7396 C   0  0  0  0  0  0  0  0  0  0  0  0
   -7.8604    5.4675  -11.1362 C   0  0  0  0  0  0  0  0  0  0  0  0
   -8.3427    4.3263  -11.8024 C   0  0  0  0  0  0  0  0  0  0  0  0
   -8.8165    3.2373  -11.0698 C   0  0  0  0  0  0  0  0  0  0  0  0
   -8.8069    3.3233   -9.6865 C   0  0  0  0  0  0  0  0  0  0  0  0
   -9.2700    2.3388   -8.6568 C   0  0  0  0  0  0  0  0  0  0  0  0
   -5.8975    4.0931  -14.4623 O   0  0  0  0  0  0  0  0  0  0  0  0
   -4.9281    4.1766  -13.4238 C   0  0  0  0  0  0  0  0  0  0  0  0
   -4.9628    2.9412  -12.5325 C   0  0  0  0  0  0  0  0  0  0  0  0
   -4.8126    3.2920  -11.0616 C   0  0  0  0  0  0  0  0  0  0  0  0
   -3.4618    3.1390  -10.6474 O   0  0  0  0  0  0  0  0  0  0  0  0
   -3.1872    2.2173  -10.7737 H   0  0  0  0  0  0  0  0  0  0  0  0
 22 23  1  0  0  0
 23 24  1  0  0  0
 24 25  1  0  0  0
 25 26  2  0  0  0
 26 27  1  0  0  0
 27 28  2  0  0  0
 28 18  1  0  0  0
 18 19  1  0  0  0
 19 20  2  0  0  0
 19  1  1  0  0  0
  1  2  2  0  0  0
  2  3  1  0  0  0
  3  4  1  0  0  0
  3  5  2  0  0  0
  5  6  1  0  0  0
  6  7  2  0  0  0
  7  8  1  0  0  0
  8  9  1  0  0  0
  8 32  1  0  0  0
 32 33  1  0  0  0
 33 34  1  0  0  0
 34 35  1  0  0  0
 35 36  1  0  0  0
  8 10  1  0  0  0
 10 11  2  0  0  0
 10 12  1  0  0  0
 12 13  1  0  0  0
 13 14  1  0  0  0
 14 15  1  0  0  0
 15 16  1  0  0  0
 28 29  1  0  0  0
 29 30  2  0  0  0
 30 31  1  0  0  0
 31 23  1  0  0  0
 30 25  1  0  0  0
  7  1  1  0  0  0
 16 13  1  0  0  0
 12  6  1  0  0  0
 18 21  1  0  0  0
 36 37  1  0  0  0
 15 17  1  0  0  0
M  END
> <minimizedAffinity>
-8.18366

> <minimizedRMSD>
1.30956

$$$$
P28280


 36 40  0  0  0  0  0  0  0  0999 V2000
   -5.6241    5.4197  -15.3973 C   0  0  0  0  0  0  0  0  0  0  0  0
   -5.4491    6.9248  -15.1362 C   0  0  0  0  0  0  0  0  0  0  0  0
   -4.6376    5.1116  -16.5766 C   0  0  0  0  0  0  0  0  0  0  0  0
   -3.4249    4.9952  -16.4876 O   0  0  0  0  0  0  0  0  0  0  0  0
   -5.4080    5.0071  -17.7454 N   0  0  0  0  0  0  0  0  0  0  0  0
   -6.7699    4.8997  -17.4164 C   0  0  0  0  0  0  0  0  0  0  0  0
   -7.8262    4.5942  -18.2554 C   0  0  0  0  0  0  0  0  0  0  0  0
   -9.0917    4.4545  -17.6843 C   0  0  0  0  0  0  0  0  0  0  0  0
  -10.4425    4.1204  -18.6863 Cl  0  0  0  0  0  0  0  0  0  0  0  0
   -9.3013    4.6505  -16.3141 C   0  0  0  0  0  0  0  0  0  0  0  0
   -8.2327    5.0202  -15.4964 C   0  0  0  0  0  0  0  0  0  0  0  0
   -6.9593    5.1167  -16.0466 C   0  0  0  0  0  0  0  0  0  0  0  0
   -4.8935    4.9496  -19.1251 C   0  0  0  0  0  0  0  0  0  0  0  0
   -3.3576    4.8748  -19.3530 C   0  0  0  0  0  0  0  0  0  0  0  0
   -3.5291    5.7997  -20.5055 N   0  0  0  0  0  0  0  0  0  0  0  0
   -4.7339    6.3275  -19.8168 C   0  0  0  0  0  0  0  0  0  0  0  0
   -3.7156    5.3395  -21.3965 H   0  0  0  0  0  0  0  0  0  0  0  0
   -8.5039    5.4629  -14.1153 C   0  0  0  0  0  0  0  0  0  0  0  0
   -8.9100    6.5463  -13.9688 O   0  0  0  0  0  0  0  0  0  0  0  0
   -8.2065    4.3582  -13.0808 N   0  0  0  0  0  0  0  0  0  0  0  0
   -7.9390    3.4931  -13.4671 H   0  0  0  0  0  0  0  0  0  0  0  0
   -8.2546    4.3854  -11.6892 C   0  0  0  0  0  0  0  0  0  0  0  0
   -7.7771    5.5029  -10.9798 C   0  0  0  0  0  0  0  0  0  0  0  0
   -7.7988    5.5349   -9.5826 C   0  0  0  0  0  0  0  0  0  0  0  0
   -8.3161    4.4415   -8.9193 C   0  0  0  0  0  0  0  0  0  0  0  0
   -8.8010    3.3350   -9.6200 C   0  0  0  0  0  0  0  0  0  0  0  0
   -8.7696    3.2841  -11.0040 C   0  0  0  0  0  0  0  0  0  0  0  0
   -9.3111    2.3303   -8.6318 C   0  0  0  0  0  0  0  0  0  0  0  0
   -9.4822    3.1225   -7.3948 N   0  0  0  0  0  0  0  0  0  0  0  0
   -9.4365    2.3225   -6.1908 C   0  0  0  0  0  0  0  0  0  0  0  0
   -8.4739    4.1930   -7.4507 C   0  0  0  0  0  0  0  0  0  0  0  0
   -5.4198    4.7647  -14.1563 O   0  0  0  0  0  0  0  0  0  0  0  0
   -5.0943    3.3777  -14.2292 C   0  0  0  0  0  0  0  0  0  0  0  0
   -4.9733    2.7943  -12.8206 C   0  0  0  0  0  0  0  0  0  0  0  0
   -3.4415    1.8176  -11.3226 C   0  0  0  0  0  0  0  0  0  0  0  0
   -3.7039    2.1476  -12.6804 O   0  0  0  0  0  0  0  0  0  0  0  0
 35 36  1  0  0  0
 36 34  1  0  0  0
 34 33  1  0  0  0
 33 32  1  0  0  0
 32  1  1  0  0  0
  1  2  1  0  0  0
  1  3  1  0  0  0
  3  4  2  0  0  0
  3  5  1  0  0  0
  5 13  1  0  0  0
 13 14  1  0  0  0
 14 15  1  0  0  0
 15 16  1  0  0  0
  5  6  1  0  0  0
  6  7  2  0  0  0
  7  8  1  0  0  0
  8  9  1  0  0  0
  8 10  2  0  0  0
 10 11  1  0  0  0
 11 18  1  0  0  0
 18 19  2  0  0  0
 18 20  1  0  0  0
 20 22  1  0  0  0
 22 23  2  0  0  0
 23 24  1  0  0  0
 24 25  2  0  0  0
 25 26  1  0  0  0
 26 27  2  0  0  0
 26 28  1  0  0  0
 28 29  1  0  0  0
 29 30  1  0  0  0
 29 31  1  0  0  0
 11 12  2  0  0  0
 12  1  1  0  0  0
 16 13  1  0  0  0
 12  6  1  0  0  0
 27 22  1  0  0  0
 31 25  1  0  0  0
 15 17  1  0  0  0
 20 21  1  0  0  0
M  END
> <minimizedAffinity>
-7.96540

> <minimizedRMSD>
0.73069

$$$$
P28281


 31 35  0  0  0  0  0  0  0  0999 V2000
   -7.9596    5.0441  -15.2597 C   0  0  0  0  0  0  0  0  0  0  0  0
   -9.1501    4.7521  -15.9377 C   0  0  0  0  0  0  0  0  0  0  0  0
   -9.1310    4.5323  -17.3146 C   0  0  0  0  0  0  0  0  0  0  0  0
  -10.6074    4.2804  -18.1613 Cl  0  0  0  0  0  0  0  0  0  0  0  0
   -7.9496    4.5872  -18.0583 C   0  0  0  0  0  0  0  0  0  0  0  0
   -6.7601    4.8331  -17.3666 C   0  0  0  0  0  0  0  0  0  0  0  0
   -6.7242    5.0569  -15.9636 C   0  0  0  0  0  0  0  0  0  0  0  0
   -5.3490    5.2782  -15.5419 C   0  0  0  0  0  0  0  0  0  0  0  0
   -4.5758    5.1852  -16.6369 N   0  0  0  0  0  0  0  0  0  0  0  0
   -3.3294    5.2435  -16.7340 O   0  0  0  0  0  0  0  0  0  0  0  0
   -5.4437    4.9524  -17.7896 N   0  0  0  0  0  0  0  0  0  0  0  0
   -5.0736    4.9460  -19.2229 C   0  0  0  0  0  0  0  0  0  0  0  0
   -3.5820    4.9234  -19.6187 C   0  0  0  0  0  0  0  0  0  0  0  0
   -3.9036    5.9383  -20.6529 N   0  0  0  0  0  0  0  0  0  0  0  0
   -5.0466    6.3703  -19.8206 C   0  0  0  0  0  0  0  0  0  0  0  0
   -4.1651    5.5490  -21.5587 H   0  0  0  0  0  0  0  0  0  0  0  0
   -8.2073    4.4164  -12.8161 N   0  0  0  0  0  0  0  0  0  0  0  0
   -7.9941    5.5433  -13.8582 C   0  0  0  0  0  0  0  0  0  0  0  0
   -7.8340    6.6922  -13.7102 O   0  0  0  0  0  0  0  0  0  0  0  0
   -8.2427    3.5076  -13.1930 H   0  0  0  0  0  0  0  0  0  0  0  0
   -9.1181    2.0797   -8.5227 C   0  0  0  0  0  0  0  0  0  0  0  0
   -8.8096    3.3138   -9.3082 C   0  0  0  0  0  0  0  0  0  0  0  0
   -8.7004    3.3131  -10.7130 C   0  0  0  0  0  0  0  0  0  0  0  0
   -8.3580    4.4807  -11.4233 C   0  0  0  0  0  0  0  0  0  0  0  0
   -8.1368    5.6740  -10.7269 C   0  0  0  0  0  0  0  0  0  0  0  0
   -8.2614    5.6702   -9.3442 C   0  0  0  0  0  0  0  0  0  0  0  0
   -8.5728    4.5046   -8.6495 C   0  0  0  0  0  0  0  0  0  0  0  0
   -8.5728    4.7793   -7.1797 C   0  0  0  0  0  0  0  0  0  0  0  0
   -8.6541    6.2507   -7.0943 N   0  0  0  0  0  0  0  0  0  0  0  0
   -8.0165    6.7692   -5.9045 C   0  0  0  0  0  0  0  0  0  0  0  0
   -8.0786    6.7794   -8.3553 C   0  0  0  0  0  0  0  0  0  0  0  0
 21 22  1  0  0  0
 22 23  2  0  0  0
 23 24  1  0  0  0
 24 17  1  0  0  0
 17 18  1  0  0  0
 18 19  2  0  0  0
 18  1  1  0  0  0
  1  2  2  0  0  0
  2  3  1  0  0  0
  3  4  1  0  0  0
  3  5  2  0  0  0
  5  6  1  0  0  0
  6  7  2  0  0  0
  7  8  1  0  0  0
  8  9  2  0  0  0
  9 10  1  0  0  0
  9 11  1  0  0  0
 11 12  1  0  0  0
 12 13  1  0  0  0
 13 14  1  0  0  0
 14 15  1  0  0  0
 24 25  2  0  0  0
 25 26  1  0  0  0
 26 27  2  0  0  0
 27 28  1  0  0  0
 28 29  1  0  0  0
 29 30  1  0  0  0
 29 31  1  0  0  0
 27 22  1  0  0  0
  7  1  1  0  0  0
 15 12  1  0  0  0
 31 26  1  0  0  0
 11  6  1  0  0  0
 17 20  1  0  0  0
 14 16  1  0  0  0
M  CHG 1   9   1
M  CHG 1  10  -1
M  END
> <minimizedAffinity>
-8.35013

> <minimizedRMSD>
0.40877

$$$$
P28282


 31 35  0  0  0  0  0  0  0  0999 V2000
   -8.1714    4.4647  -13.2022 N   0  0  0  0  0  0  0  0  0  0  0  0
   -7.0482    4.9367  -14.1565 C   0  0  0  0  0  0  0  0  0  0  0  0
   -6.0435    5.4881  -13.9294 O   0  0  0  0  0  0  0  0  0  0  0  0
   -8.8901    3.9493  -13.6347 H   0  0  0  0  0  0  0  0  0  0  0  0
   -8.1589    5.8580  -11.0732 C   0  0  0  0  0  0  0  0  0  0  0  0
   -8.2415    5.8372   -9.6626 C   0  0  0  0  0  0  0  0  0  0  0  0
   -8.5380    4.6582   -9.0133 C   0  0  0  0  0  0  0  0  0  0  0  0
   -8.7560    3.4909   -9.7298 C   0  0  0  0  0  0  0  0  0  0  0  0
   -8.6627    3.4720  -11.1127 C   0  0  0  0  0  0  0  0  0  0  0  0
   -8.3335    4.6530  -11.8108 C   0  0  0  0  0  0  0  0  0  0  0  0
   -9.0524    2.3892   -8.7590 C   0  0  0  0  0  0  0  0  0  0  0  0
   -9.4424    3.1119   -7.5271 N   0  0  0  0  0  0  0  0  0  0  0  0
   -9.2272    2.3327   -6.3290 C   0  0  0  0  0  0  0  0  0  0  0  0
   -8.6918    4.3785   -7.5517 C   0  0  0  0  0  0  0  0  0  0  0  0
   -9.3336    7.7512  -12.7371 C   0  0  0  0  0  0  0  0  0  0  0  0
   -7.8757    7.5141  -11.7006 S   0  0  0  0  0  0  0  0  0  0  0  0
   -7.3117    4.6513  -15.5858 C   0  0  0  0  0  0  0  0  0  0  0  0
   -8.6070    4.5371  -16.1017 C   0  0  0  0  0  0  0  0  0  0  0  0
   -8.8019    4.5479  -17.4837 C   0  0  0  0  0  0  0  0  0  0  0  0
  -10.3998    4.5240  -18.1167 Cl  0  0  0  0  0  0  0  0  0  0  0  0
   -7.7371    4.6719  -18.3837 C   0  0  0  0  0  0  0  0  0  0  0  0
   -6.4460    4.7568  -17.8488 C   0  0  0  0  0  0  0  0  0  0  0  0
   -6.2186    4.7239  -16.4751 C   0  0  0  0  0  0  0  0  0  0  0  0
   -4.8166    4.8226  -16.3442 C   0  0  0  0  0  0  0  0  0  0  0  0
   -4.1926    4.9032  -17.5182 N   0  0  0  0  0  0  0  0  0  0  0  0
   -5.2000    4.9287  -18.4179 N   0  0  0  0  0  0  0  0  0  0  0  0
   -4.9765    5.2486  -19.8426 C   0  0  0  0  0  0  0  0  0  0  0  0
   -3.4926    5.3722  -20.2579 C   0  0  0  0  0  0  0  0  0  0  0  0
   -3.8467    6.6102  -20.9936 N   0  0  0  0  0  0  0  0  0  0  0  0
   -5.0134    6.7693  -20.0983 C   0  0  0  0  0  0  0  0  0  0  0  0
   -4.0856    6.4634  -21.9743 H   0  0  0  0  0  0  0  0  0  0  0  0
 15 16  1  0  0  0
 16  5  1  0  0  0
  5  6  2  0  0  0
  6  7  1  0  0  0
  7  8  2  0  0  0
  8  9  1  0  0  0
  9 10  2  0  0  0
 10  1  1  0  0  0
  1  2  1  0  0  0
  2  3  2  0  0  0
  2 17  1  0  0  0
 17 18  2  0  0  0
 18 19  1  0  0  0
 19 20  1  0  0  0
 19 21  2  0  0  0
 21 22  1  0  0  0
 22 23  2  0  0  0
 23 24  1  0  0  0
 24 25  2  0  0  0
 25 26  1  0  0  0
 26 27  1  0  0  0
 27 28  1  0  0  0
 28 29  1  0  0  0
 29 30  1  0  0  0
  8 11  1  0  0  0
 11 12  1  0  0  0
 12 13  1  0  0  0
 12 14  1  0  0  0
 10  5  1  0  0  0
 23 17  1  0  0  0
 30 27  1  0  0  0
 14  7  1  0  0  0
 26 22  1  0  0  0
  1  4  1  0  0  0
 29 31  1  0  0  0
M  END
> <minimizedAffinity>
-8.21884

> <minimizedRMSD>
0.33552

$$$$
P28283


 41 45  0  0  0  0  0  0  0  0999 V2000
   -7.2403    5.1645  -13.8624 C   0  0  0  0  0  0  0  0  0  0  0  0
   -7.3698    6.5651  -13.8160 O   0  0  0  0  0  0  0  0  0  0  0  0
   -8.1673    6.8322  -14.2992 H   0  0  0  0  0  0  0  0  0  0  0  0
   -4.7215    5.4246  -16.2170 C   0  0  0  0  0  0  0  0  0  0  0  0
   -4.1538    5.4447  -17.4245 N   0  0  0  0  0  0  0  0  0  0  0  0
   -5.1200    5.1214  -18.2793 N   0  0  0  0  0  0  0  0  0  0  0  0
   -6.3316    4.8929  -17.6696 C   0  0  0  0  0  0  0  0  0  0  0  0
   -7.5746    4.5946  -18.2375 C   0  0  0  0  0  0  0  0  0  0  0  0
   -8.6591    4.4819  -17.3886 C   0  0  0  0  0  0  0  0  0  0  0  0
  -10.2225    4.2562  -18.0644 Cl  0  0  0  0  0  0  0  0  0  0  0  0
   -8.5049    4.6247  -16.0139 C   0  0  0  0  0  0  0  0  0  0  0  0
   -7.2463    4.8964  -15.3907 C   0  0  0  0  0  0  0  0  0  0  0  0
   -6.1230    5.0587  -16.2859 C   0  0  0  0  0  0  0  0  0  0  0  0
   -4.8978    5.1687  -19.7394 C   0  0  0  0  0  0  0  0  0  0  0  0
   -3.4103    5.2531  -20.1536 C   0  0  0  0  0  0  0  0  0  0  0  0
   -3.7730    6.3379  -21.0949 N   0  0  0  0  0  0  0  0  0  0  0  0
   -4.9780    6.6085  -20.2832 C   0  0  0  0  0  0  0  0  0  0  0  0
   -3.9691    6.0213  -22.0445 H   0  0  0  0  0  0  0  0  0  0  0  0
   -2.3392    5.4566  -15.2957 C   0  0  0  0  0  0  0  0  0  0  0  0
   -3.8195    5.8177  -15.0734 C   0  0  0  0  0  0  0  0  0  0  0  0
   -3.9233    7.3099  -14.7610 C   0  0  0  0  0  0  0  0  0  0  0  0
   -5.9657    4.5041  -13.1117 C   0  0  0  0  0  0  0  0  0  0  0  0
   -5.3143    5.1024  -12.3428 O   0  0  0  0  0  0  0  0  0  0  0  0
   -5.8746    3.0150  -13.5705 N   0  0  0  0  0  0  0  0  0  0  0  0
   -6.4954    2.7675  -14.2934 H   0  0  0  0  0  0  0  0  0  0  0  0
   -5.0273    1.9413  -13.1065 C   0  0  0  0  0  0  0  0  0  0  0  0
   -3.5603    2.1024  -13.4873 C   0  0  0  0  0  0  0  0  0  0  0  0
   -3.3804    1.7015  -14.7750 F   0  0  0  0  0  0  0  0  0  0  0  0
   -2.7831    1.2867  -12.7274 F   0  0  0  0  0  0  0  0  0  0  0  0
   -8.4549    4.6505  -13.1654 N   0  0  0  0  0  0  0  0  0  0  0  0
   -9.2186    4.2746  -13.6601 H   0  0  0  0  0  0  0  0  0  0  0  0
   -8.4470    4.7349  -11.7384 C   0  0  0  0  0  0  0  0  0  0  0  0
   -8.2654    5.9569  -11.0479 C   0  0  0  0  0  0  0  0  0  0  0  0
   -8.2694    6.0293   -9.6486 C   0  0  0  0  0  0  0  0  0  0  0  0
   -8.4836    4.8693   -8.9378 C   0  0  0  0  0  0  0  0  0  0  0  0
   -8.6787    3.6557   -9.5949 C   0  0  0  0  0  0  0  0  0  0  0  0
   -8.6636    3.5705  -10.9809 C   0  0  0  0  0  0  0  0  0  0  0  0
   -8.9162    2.5933   -8.5619 C   0  0  0  0  0  0  0  0  0  0  0  0
   -9.3057    3.3675   -7.3640 N   0  0  0  0  0  0  0  0  0  0  0  0
   -9.1125    2.6480   -6.1266 C   0  0  0  0  0  0  0  0  0  0  0  0
   -8.5833    4.6447   -7.4587 C   0  0  0  0  0  0  0  0  0  0  0  0
 19 20  1  0  0  0
 20 21  1  0  0  0
 20  4  1  0  0  0
  4  5  2  0  0  0
  5  6  1  0  0  0
  6 14  1  0  0  0
 14 15  1  0  0  0
 15 16  1  0  0  0
 16 17  1  0  0  0
  6  7  1  0  0  0
  7  8  2  0  0  0
  8  9  1  0  0  0
  9 10  1  0  0  0
  9 11  2  0  0  0
 11 12  1  0  0  0
 12  1  1  0  0  0
  1  2  1  0  0  0
  1 30  1  0  0  0
 30 32  1  0  0  0
 32 33  2  0  0  0
 33 34  1  0  0  0
 34 35  2  0  0  0
 35 36  1  0  0  0
 36 37  2  0  0  0
 36 38  1  0  0  0
 38 39  1  0  0  0
 39 40  1  0  0  0
 39 41  1  0  0  0
  1 22  1  0  0  0
 22 23  2  0  0  0
 22 24  1  0  0  0
 24 26  1  0  0  0
 26 27  1  0  0  0
 27 28  1  0  0  0
 27 29  1  0  0  0
 12 13  2  0  0  0
 13  4  1  0  0  0
 17 14  1  0  0  0
 13  7  1  0  0  0
 37 32  1  0  0  0
 41 35  1  0  0  0
 16 18  1  0  0  0
  2  3  1  0  0  0
 30 31  1  0  0  0
 24 25  1  0  0  0
M  END
> <minimizedAffinity>
-8.11973

> <minimizedRMSD>
0.33328

$$$$
P28284


 33 37  0  0  0  0  0  0  0  0999 V2000
   -5.4719    5.1802  -15.5404 C   0  0  0  0  0  0  0  0  0  0  0  0
   -5.0963    4.2092  -14.4229 C   0  0  0  0  0  0  0  0  0  0  0  0
   -4.6217    4.9161  -16.8200 C   0  0  0  0  0  0  0  0  0  0  0  0
   -3.4018    4.8276  -16.8493 O   0  0  0  0  0  0  0  0  0  0  0  0
   -5.5025    4.8497  -17.9075 N   0  0  0  0  0  0  0  0  0  0  0  0
   -6.8309    4.7902  -17.4463 C   0  0  0  0  0  0  0  0  0  0  0  0
   -7.9844    4.5983  -18.1831 C   0  0  0  0  0  0  0  0  0  0  0  0
   -9.1978    4.5376  -17.4943 C   0  0  0  0  0  0  0  0  0  0  0  0
  -10.6549    4.3536  -18.3846 Cl  0  0  0  0  0  0  0  0  0  0  0  0
   -9.2617    4.7109  -16.1048 C   0  0  0  0  0  0  0  0  0  0  0  0
   -8.0933    4.9660  -15.3862 C   0  0  0  0  0  0  0  0  0  0  0  0
   -6.8727    4.9608  -16.0590 C   0  0  0  0  0  0  0  0  0  0  0  0
   -5.1427    5.0146  -19.3336 C   0  0  0  0  0  0  0  0  0  0  0  0
   -3.6433    5.0138  -19.7475 C   0  0  0  0  0  0  0  0  0  0  0  0
   -3.9246    6.1661  -20.6353 N   0  0  0  0  0  0  0  0  0  0  0  0
   -5.0778    6.5023  -19.7777 C   0  0  0  0  0  0  0  0  0  0  0  0
   -4.1713    5.9106  -21.5915 H   0  0  0  0  0  0  0  0  0  0  0  0
   -8.1974    5.4660  -13.9947 C   0  0  0  0  0  0  0  0  0  0  0  0
   -8.1968    6.6229  -13.8422 O   0  0  0  0  0  0  0  0  0  0  0  0
   -8.2113    4.3200  -12.9596 N   0  0  0  0  0  0  0  0  0  0  0  0
   -8.1307    3.4170  -13.3433 H   0  0  0  0  0  0  0  0  0  0  0  0
   -8.3194    4.3563  -11.5686 C   0  0  0  0  0  0  0  0  0  0  0  0
   -7.8796    5.4863  -10.8559 C   0  0  0  0  0  0  0  0  0  0  0  0
   -7.9321    5.5278   -9.4607 C   0  0  0  0  0  0  0  0  0  0  0  0
   -8.4201    4.4212   -8.7950 C   0  0  0  0  0  0  0  0  0  0  0  0
   -8.8621    3.2997   -9.4917 C   0  0  0  0  0  0  0  0  0  0  0  0
   -8.8284    3.2531  -10.8801 C   0  0  0  0  0  0  0  0  0  0  0  0
   -9.3402    2.2684   -8.5169 C   0  0  0  0  0  0  0  0  0  0  0  0
   -9.0027    2.8089   -7.1820 N   0  0  0  0  0  0  0  0  0  0  0  0
  -10.0430    2.6036   -6.2007 C   0  0  0  0  0  0  0  0  0  0  0  0
   -8.5902    4.2092   -7.3278 C   0  0  0  0  0  0  0  0  0  0  0  0
   -4.6405    6.8698  -14.0278 C   0  0  0  0  0  0  0  0  0  0  0  0
   -5.3680    6.5664  -15.2061 O   0  0  0  0  0  0  0  0  0  0  0  0
 32 33  1  0  0  0
 33  1  1  0  0  0
  1  2  1  0  0  0
  1  3  1  0  0  0
  3  4  2  0  0  0
  3  5  1  0  0  0
  5 13  1  0  0  0
 13 14  1  0  0  0
 14 15  1  0  0  0
 15 16  1  0  0  0
  5  6  1  0  0  0
  6  7  2  0  0  0
  7  8  1  0  0  0
  8  9  1  0  0  0
  8 10  2  0  0  0
 10 11  1  0  0  0
 11 18  1  0  0  0
 18 19  2  0  0  0
 18 20  1  0  0  0
 20 22  1  0  0  0
 22 23  2  0  0  0
 23 24  1  0  0  0
 24 25  2  0  0  0
 25 26  1  0  0  0
 26 27  2  0  0  0
 26 28  1  0  0  0
 28 29  1  0  0  0
 29 30  1  0  0  0
 29 31  1  0  0  0
 11 12  2  0  0  0
 12  1  1  0  0  0
 16 13  1  0  0  0
 12  6  1  0  0  0
 27 22  1  0  0  0
 31 25  1  0  0  0
 15 17  1  0  0  0
 20 21  1  0  0  0
M  END
> <minimizedAffinity>
-8.74400

> <minimizedRMSD>
0.51146

$$$$
P28286


 35 39  0  0  0  0  0  0  0  0999 V2000
   -5.4777    5.1083  -15.0903 C   0  0  0  0  0  0  0  0  0  0  0  0
   -5.3094    4.0053  -14.0468 C   0  0  0  0  0  0  0  0  0  0  0  0
   -4.3783    5.0069  -16.1761 C   0  0  0  0  0  0  0  0  0  0  0  0
   -3.1684    5.0295  -15.9831 O   0  0  0  0  0  0  0  0  0  0  0  0
   -5.0048    4.9789  -17.4371 N   0  0  0  0  0  0  0  0  0  0  0  0
   -6.3978    4.8429  -17.2749 C   0  0  0  0  0  0  0  0  0  0  0  0
   -7.3776    4.6444  -18.2308 C   0  0  0  0  0  0  0  0  0  0  0  0
   -8.6989    4.4740  -17.7986 C   0  0  0  0  0  0  0  0  0  0  0  0
   -9.9488    4.2288  -18.9506 Cl  0  0  0  0  0  0  0  0  0  0  0  0
   -9.0484    4.5718  -16.4468 C   0  0  0  0  0  0  0  0  0  0  0  0
   -8.0591    4.8345  -15.5033 C   0  0  0  0  0  0  0  0  0  0  0  0
   -6.7284    4.9040  -15.9166 C   0  0  0  0  0  0  0  0  0  0  0  0
   -4.3298    5.6993  -18.5362 C   0  0  0  0  0  0  0  0  0  0  0  0
   -3.3750    4.8389  -19.4014 C   0  0  0  0  0  0  0  0  0  0  0  0
   -3.7214    5.7155  -20.5424 N   0  0  0  0  0  0  0  0  0  0  0  0
   -5.0114    6.0004  -19.8665 C   0  0  0  0  0  0  0  0  0  0  0  0
   -3.8094    5.2321  -21.4363 H   0  0  0  0  0  0  0  0  0  0  0  0
   -8.4528    5.2781  -14.1469 C   0  0  0  0  0  0  0  0  0  0  0  0
   -8.8603    6.3648  -14.0422 O   0  0  0  0  0  0  0  0  0  0  0  0
   -8.1902    4.2031  -13.0762 N   0  0  0  0  0  0  0  0  0  0  0  0
   -7.9131    3.3274  -13.4306 H   0  0  0  0  0  0  0  0  0  0  0  0
   -8.2808    4.2680  -11.6865 C   0  0  0  0  0  0  0  0  0  0  0  0
   -7.8759    5.4324  -11.0048 C   0  0  0  0  0  0  0  0  0  0  0  0
   -7.9243    5.5092   -9.6101 C   0  0  0  0  0  0  0  0  0  0  0  0
   -8.4045    4.4151   -8.9206 C   0  0  0  0  0  0  0  0  0  0  0  0
   -8.8255    3.2655   -9.5937 C   0  0  0  0  0  0  0  0  0  0  0  0
   -8.7570    3.1680  -10.9748 C   0  0  0  0  0  0  0  0  0  0  0  0
   -9.3288    2.2781   -8.5826 C   0  0  0  0  0  0  0  0  0  0  0  0
   -9.5630    3.1084   -7.3819 N   0  0  0  0  0  0  0  0  0  0  0  0
   -9.5318    2.3538   -6.1510 C   0  0  0  0  0  0  0  0  0  0  0  0
   -8.5937    4.2109   -7.4482 C   0  0  0  0  0  0  0  0  0  0  0  0
   -5.4996    6.4633  -14.6413 O   0  0  0  0  0  0  0  0  0  0  0  0
   -6.0030    7.9597  -12.8785 C   0  0  0  0  0  0  0  0  0  0  0  0
   -5.1316    6.7765  -13.3009 C   0  0  0  0  0  0  0  0  0  0  0  0
   -3.6644    7.1758  -13.1852 C   0  0  0  0  0  0  0  0  0  0  0  0
 33 34  1  0  0  0
 34 35  1  0  0  0
 34 32  1  0  0  0
 32  1  1  0  0  0
  1  2  1  0  0  0
  1  3  1  0  0  0
  3  4  2  0  0  0
  3  5  1  0  0  0
  5 13  1  0  0  0
 13 14  1  0  0  0
 14 15  1  0  0  0
 15 16  1  0  0  0
  5  6  1  0  0  0
  6  7  2  0  0  0
  7  8  1  0  0  0
  8  9  1  0  0  0
  8 10  2  0  0  0
 10 11  1  0  0  0
 11 18  1  0  0  0
 18 19  2  0  0  0
 18 20  1  0  0  0
 20 22  1  0  0  0
 22 23  2  0  0  0
 23 24  1  0  0  0
 24 25  2  0  0  0
 25 26  1  0  0  0
 26 27  2  0  0  0
 26 28  1  0  0  0
 28 29  1  0  0  0
 29 30  1  0  0  0
 29 31  1  0  0  0
 11 12  2  0  0  0
 12  1  1  0  0  0
 16 13  1  0  0  0
 12  6  1  0  0  0
 27 22  1  0  0  0
 31 25  1  0  0  0
 15 17  1  0  0  0
 20 21  1  0  0  0
M  END
> <minimizedAffinity>
-8.41428

> <minimizedRMSD>
0.75018

$$$$
P28288


 32 36  0  0  0  0  0  0  0  0999 V2000
   -7.8793    4.9369  -15.4474 C   0  0  0  0  0  0  0  0  0  0  0  0
   -9.0997    4.6690  -16.0726 C   0  0  0  0  0  0  0  0  0  0  0  0
   -9.1505    4.5347  -17.4574 C   0  0  0  0  0  0  0  0  0  0  0  0
  -10.6728    4.3987  -18.2389 Cl  0  0  0  0  0  0  0  0  0  0  0  0
   -8.0040    4.6269  -18.2511 C   0  0  0  0  0  0  0  0  0  0  0  0
   -6.7790    4.8536  -17.6075 C   0  0  0  0  0  0  0  0  0  0  0  0
   -6.7023    4.9953  -16.2218 C   0  0  0  0  0  0  0  0  0  0  0  0
   -5.3359    5.2199  -15.9615 C   0  0  0  0  0  0  0  0  0  0  0  0
   -4.5899    5.2098  -17.0640 N   0  0  0  0  0  0  0  0  0  0  0  0
   -5.4870    5.0458  -18.0655 N   0  0  0  0  0  0  0  0  0  0  0  0
   -5.0820    5.1793  -19.4921 C   0  0  0  0  0  0  0  0  0  0  0  0
   -5.9063    4.5576  -20.5422 N   0  0  0  0  0  0  0  0  0  0  0  0
   -3.5789    4.9072  -19.7820 C   0  0  0  0  0  0  0  0  0  0  0  0
   -3.5530    6.1230  -20.6388 N   0  0  0  0  0  0  0  0  0  0  0  0
   -4.7384    6.6312  -19.8961 C   0  0  0  0  0  0  0  0  0  0  0  0
   -6.1324    3.5997  -20.2744 H   0  0  0  0  0  0  0  0  0  0  0  0
   -5.3893    4.5518  -21.4214 H   0  0  0  0  0  0  0  0  0  0  0  0
   -3.7215    5.9440  -21.6288 H   0  0  0  0  0  0  0  0  0  0  0  0
   -8.3162    4.3355  -13.0320 N   0  0  0  0  0  0  0  0  0  0  0  0
   -7.8281    5.4008  -14.0413 C   0  0  0  0  0  0  0  0  0  0  0  0
   -7.4549    6.4946  -13.8671 O   0  0  0  0  0  0  0  0  0  0  0  0
   -8.6537    3.5054  -13.4398 H   0  0  0  0  0  0  0  0  0  0  0  0
  -10.0515    2.6121   -6.2509 C   0  0  0  0  0  0  0  0  0  0  0  0
   -9.0045    2.8479   -7.2234 N   0  0  0  0  0  0  0  0  0  0  0  0
   -8.6156    4.2517   -7.3884 C   0  0  0  0  0  0  0  0  0  0  0  0
   -8.4326    4.4457   -8.8594 C   0  0  0  0  0  0  0  0  0  0  0  0
   -7.9586    5.5498   -9.5414 C   0  0  0  0  0  0  0  0  0  0  0  0
   -7.9121    5.4959  -10.9378 C   0  0  0  0  0  0  0  0  0  0  0  0
   -8.3560    4.3594  -11.6360 C   0  0  0  0  0  0  0  0  0  0  0  0
   -8.8371    3.2537  -10.9316 C   0  0  0  0  0  0  0  0  0  0  0  0
   -8.8521    3.3081   -9.5424 C   0  0  0  0  0  0  0  0  0  0  0  0
   -9.2901    2.2720   -8.5533 C   0  0  0  0  0  0  0  0  0  0  0  0
 23 24  1  0  0  0
 24 25  1  0  0  0
 25 26  1  0  0  0
 26 27  2  0  0  0
 27 28  1  0  0  0
 28 29  2  0  0  0
 29 19  1  0  0  0
 19 20  1  0  0  0
 20 21  2  0  0  0
 20  1  1  0  0  0
  1  2  2  0  0  0
  2  3  1  0  0  0
  3  4  1  0  0  0
  3  5  2  0  0  0
  5  6  1  0  0  0
  6  7  2  0  0  0
  7  8  1  0  0  0
  8  9  2  0  0  0
  9 10  1  0  0  0
 10 11  1  0  0  0
 11 12  1  0  0  0
 11 13  1  0  0  0
 13 14  1  0  0  0
 14 15  1  0  0  0
 29 30  1  0  0  0
 30 31  2  0  0  0
 31 32  1  0  0  0
 32 24  1  0  0  0
 31 26  1  0  0  0
  7  1  1  0  0  0
 15 11  1  0  0  0
 10  6  1  0  0  0
 19 22  1  0  0  0
 12 16  1  0  0  0
 12 17  1  0  0  0
 14 18  1  0  0  0
M  END
> <minimizedAffinity>
-9.27538

> <minimizedRMSD>
0.28219

$$$$
P28289


 31 35  0  0  0  0  0  0  0  0999 V2000
   -8.1097    4.8866  -15.5438 C   0  0  0  0  0  0  0  0  0  0  0  0
   -9.1053    4.6115  -16.4800 C   0  0  0  0  0  0  0  0  0  0  0  0
   -8.7562    4.4664  -17.8167 C   0  0  0  0  0  0  0  0  0  0  0  0
  -10.0081    4.2111  -18.9658 Cl  0  0  0  0  0  0  0  0  0  0  0  0
   -7.4335    4.6132  -18.2619 C   0  0  0  0  0  0  0  0  0  0  0  0
   -6.4344    4.8413  -17.3050 C   0  0  0  0  0  0  0  0  0  0  0  0
   -6.7453    4.9236  -15.9170 C   0  0  0  0  0  0  0  0  0  0  0  0
   -5.5314    5.0659  -15.1297 C   0  0  0  0  0  0  0  0  0  0  0  0
   -4.5144    5.0968  -15.9960 N   0  0  0  0  0  0  0  0  0  0  0  0
   -3.2797    5.1917  -15.7973 O   0  0  0  0  0  0  0  0  0  0  0  0
   -5.0664    5.0775  -17.3553 N   0  0  0  0  0  0  0  0  0  0  0  0
   -4.3200    5.7923  -18.4065 C   0  0  0  0  0  0  0  0  0  0  0  0
   -3.7643    4.8473  -19.4960 C   0  0  0  0  0  0  0  0  0  0  0  0
   -4.0059    5.9417  -20.4627 N   0  0  0  0  0  0  0  0  0  0  0  0
   -5.0760    6.4353  -19.5617 C   0  0  0  0  0  0  0  0  0  0  0  0
   -4.3326    5.6331  -21.3783 H   0  0  0  0  0  0  0  0  0  0  0  0
   -7.9945    4.3619  -13.1008 N   0  0  0  0  0  0  0  0  0  0  0  0
   -8.4707    5.3436  -14.1867 C   0  0  0  0  0  0  0  0  0  0  0  0
   -8.9895    6.3840  -14.0908 O   0  0  0  0  0  0  0  0  0  0  0  0
   -7.5115    3.5742  -13.4406 H   0  0  0  0  0  0  0  0  0  0  0  0
   -9.6334    2.3192   -6.2685 C   0  0  0  0  0  0  0  0  0  0  0  0
   -9.2667    2.9917   -7.4827 N   0  0  0  0  0  0  0  0  0  0  0  0
   -9.3632    2.3268   -8.7604 C   0  0  0  0  0  0  0  0  0  0  0  0
   -8.8153    3.3476   -9.6960 C   0  0  0  0  0  0  0  0  0  0  0  0
   -8.7289    3.3195  -11.0758 C   0  0  0  0  0  0  0  0  0  0  0  0
   -8.1354    4.4063  -11.7189 C   0  0  0  0  0  0  0  0  0  0  0  0
   -7.6537    5.5052  -10.9787 C   0  0  0  0  0  0  0  0  0  0  0  0
   -7.7582    5.5323   -9.5857 C   0  0  0  0  0  0  0  0  0  0  0  0
   -8.3395    4.4405   -8.9762 C   0  0  0  0  0  0  0  0  0  0  0  0
   -8.6064    4.1991   -7.5522 C   0  0  0  0  0  0  0  0  0  0  0  0
   -8.3029    4.9543   -6.6489 O   0  0  0  0  0  0  0  0  0  0  0  0
 21 22  1  0  0  0
 22 23  1  0  0  0
 23 24  1  0  0  0
 24 25  2  0  0  0
 25 26  1  0  0  0
 26 17  1  0  0  0
 17 18  1  0  0  0
 18 19  2  0  0  0
 18  1  1  0  0  0
  1  2  2  0  0  0
  2  3  1  0  0  0
  3  4  1  0  0  0
  3  5  2  0  0  0
  5  6  1  0  0  0
  6  7  2  0  0  0
  7  8  1  0  0  0
  8  9  2  0  0  0
  9 10  1  0  0  0
  9 11  1  0  0  0
 11 12  1  0  0  0
 12 13  1  0  0  0
 13 14  1  0  0  0
 14 15  1  0  0  0
 26 27  2  0  0  0
 27 28  1  0  0  0
 28 29  2  0  0  0
 29 30  1  0  0  0
 30 31  2  0  0  0
 30 22  1  0  0  0
 29 24  1  0  0  0
  7  1  1  0  0  0
 15 12  1  0  0  0
 11  6  1  0  0  0
 17 20  1  0  0  0
 14 16  1  0  0  0
M  CHG 1   9   1
M  CHG 1  10  -1
M  END
> <minimizedAffinity>
-8.56197

> <minimizedRMSD>
0.73892

$$$$
P28290


 32 36  0  0  0  0  0  0  0  0999 V2000
   -7.6292    5.0518  -15.5452 C   0  0  0  0  0  0  0  0  0  0  0  0
   -8.8292    4.7575  -16.1931 C   0  0  0  0  0  0  0  0  0  0  0  0
   -8.8278    4.5481  -17.5677 C   0  0  0  0  0  0  0  0  0  0  0  0
  -10.3353    4.3662  -18.3634 Cl  0  0  0  0  0  0  0  0  0  0  0  0
   -7.6504    4.5768  -18.3261 C   0  0  0  0  0  0  0  0  0  0  0  0
   -6.4510    4.8401  -17.6487 C   0  0  0  0  0  0  0  0  0  0  0  0
   -6.4256    5.0775  -16.2741 C   0  0  0  0  0  0  0  0  0  0  0  0
   -5.0721    5.3323  -15.9790 C   0  0  0  0  0  0  0  0  0  0  0  0
   -4.2877    5.2509  -17.0519 N   0  0  0  0  0  0  0  0  0  0  0  0
   -5.1410    4.9751  -18.0636 N   0  0  0  0  0  0  0  0  0  0  0  0
   -4.6969    4.9005  -19.4731 C   0  0  0  0  0  0  0  0  0  0  0  0
   -3.1591    4.8351  -19.6392 C   0  0  0  0  0  0  0  0  0  0  0  0
   -3.2591    5.9016  -20.6541 N   0  0  0  0  0  0  0  0  0  0  0  0
   -4.5525    6.3001  -20.1073 C   0  0  0  0  0  0  0  0  0  0  0  0
   -5.4391    6.4468  -21.2352 N   0  0  0  0  0  0  0  0  0  0  0  0
   -3.3003    5.5602  -21.6143 H   0  0  0  0  0  0  0  0  0  0  0  0
   -5.3444    5.6380  -21.8496 H   0  0  0  0  0  0  0  0  0  0  0  0
   -5.1982    7.2942  -21.7492 H   0  0  0  0  0  0  0  0  0  0  0  0
   -8.1419    4.4666  -13.1642 N   0  0  0  0  0  0  0  0  0  0  0  0
   -7.6356    5.5380  -14.1531 C   0  0  0  0  0  0  0  0  0  0  0  0
   -7.3062    6.6427  -13.9687 O   0  0  0  0  0  0  0  0  0  0  0  0
   -8.4320    3.6239  -13.5825 H   0  0  0  0  0  0  0  0  0  0  0  0
   -9.8273    2.4928   -6.4142 C   0  0  0  0  0  0  0  0  0  0  0  0
   -8.8873    2.8563   -7.4484 N   0  0  0  0  0  0  0  0  0  0  0  0
   -8.5907    4.2863   -7.5506 C   0  0  0  0  0  0  0  0  0  0  0  0
   -8.4045    4.5343   -9.0124 C   0  0  0  0  0  0  0  0  0  0  0  0
   -7.9307    5.6593   -9.6568 C   0  0  0  0  0  0  0  0  0  0  0  0
   -7.8440    5.6292  -11.0510 C   0  0  0  0  0  0  0  0  0  0  0  0
   -8.2550    4.4978  -11.7781 C   0  0  0  0  0  0  0  0  0  0  0  0
   -8.7614    3.3801  -11.1159 C   0  0  0  0  0  0  0  0  0  0  0  0
   -8.8068    3.4105   -9.7316 C   0  0  0  0  0  0  0  0  0  0  0  0
   -9.2542    2.3488   -8.7804 C   0  0  0  0  0  0  0  0  0  0  0  0
 23 24  1  0  0  0
 24 25  1  0  0  0
 25 26  1  0  0  0
 26 27  2  0  0  0
 27 28  1  0  0  0
 28 29  2  0  0  0
 29 19  1  0  0  0
 19 20  1  0  0  0
 20 21  2  0  0  0
 20  1  1  0  0  0
  1  2  2  0  0  0
  2  3  1  0  0  0
  3  4  1  0  0  0
  3  5  2  0  0  0
  5  6  1  0  0  0
  6  7  2  0  0  0
  7  8  1  0  0  0
  8  9  2  0  0  0
  9 10  1  0  0  0
 11 10  1  0  0  0
 11 12  1  0  0  0
 12 13  1  0  0  0
 13 14  1  0  0  0
 14 15  1  0  0  0
 29 30  1  0  0  0
 30 31  2  0  0  0
 31 32  1  0  0  0
 32 24  1  0  0  0
 31 26  1  0  0  0
  7  1  1  0  0  0
 14 11  1  0  0  0
 10  6  1  0  0  0
 19 22  1  0  0  0
 13 16  1  0  0  0
 15 17  1  0  0  0
 15 18  1  0  0  0
M  END
> <minimizedAffinity>
-8.92997

> <minimizedRMSD>
0.35068

$$$$
P28292


 38 42  0  0  0  0  0  0  0  0999 V2000
   -7.2837    5.1054  -13.8181 C   0  0  0  0  0  0  0  0  0  0  0  0
   -7.2916    6.5291  -13.7415 O   0  0  0  0  0  0  0  0  0  0  0  0
   -7.2571    6.8030  -12.8116 H   0  0  0  0  0  0  0  0  0  0  0  0
   -7.3413    4.8514  -15.3326 C   0  0  0  0  0  0  0  0  0  0  0  0
   -8.5827    4.6225  -15.9850 C   0  0  0  0  0  0  0  0  0  0  0  0
   -8.6909    4.5069  -17.3713 C   0  0  0  0  0  0  0  0  0  0  0  0
  -10.2364    4.2936  -18.0934 Cl  0  0  0  0  0  0  0  0  0  0  0  0
   -7.5786    4.6254  -18.1956 C   0  0  0  0  0  0  0  0  0  0  0  0
   -6.3504    4.8816  -17.5788 C   0  0  0  0  0  0  0  0  0  0  0  0
   -6.2126    4.9950  -16.1927 C   0  0  0  0  0  0  0  0  0  0  0  0
   -4.8366    5.2905  -16.0217 C   0  0  0  0  0  0  0  0  0  0  0  0
   -4.1538    5.3183  -17.1641 N   0  0  0  0  0  0  0  0  0  0  0  0
   -5.0906    5.0903  -18.1019 N   0  0  0  0  0  0  0  0  0  0  0  0
   -4.7852    5.0665  -19.5421 C   0  0  0  0  0  0  0  0  0  0  0  0
   -3.2827    5.1356  -19.8961 C   0  0  0  0  0  0  0  0  0  0  0  0
   -3.6483    6.0549  -21.0134 N   0  0  0  0  0  0  0  0  0  0  0  0
   -4.8255    6.4610  -20.1926 C   0  0  0  0  0  0  0  0  0  0  0  0
   -3.8799    5.5894  -21.8909 H   0  0  0  0  0  0  0  0  0  0  0  0
   -5.9293    4.5473  -13.1518 C   0  0  0  0  0  0  0  0  0  0  0  0
   -5.1482    5.2900  -12.6898 O   0  0  0  0  0  0  0  0  0  0  0  0
   -5.9090    2.9945  -13.2484 N   0  0  0  0  0  0  0  0  0  0  0  0
   -6.6559    2.6033  -13.7566 H   0  0  0  0  0  0  0  0  0  0  0  0
   -4.9746    2.0362  -12.7150 C   0  0  0  0  0  0  0  0  0  0  0  0
   -5.0271    1.9839  -11.1955 C   0  0  0  0  0  0  0  0  0  0  0  0
   -3.7435    1.4269  -10.6076 C   0  0  0  0  0  0  0  0  0  0  0  0
   -4.0586    0.5124   -9.6507 F   0  0  0  0  0  0  0  0  0  0  0  0
   -8.4650    4.5774  -13.1094 N   0  0  0  0  0  0  0  0  0  0  0  0
   -9.2376    4.2313  -13.6119 H   0  0  0  0  0  0  0  0  0  0  0  0
   -9.2899    2.2077   -6.2271 C   0  0  0  0  0  0  0  0  0  0  0  0
   -9.4520    3.0149   -7.4149 N   0  0  0  0  0  0  0  0  0  0  0  0
   -8.6357    4.2414   -7.4348 C   0  0  0  0  0  0  0  0  0  0  0  0
   -8.5076    4.5472   -8.8973 C   0  0  0  0  0  0  0  0  0  0  0  0
   -8.2207    5.7326   -9.5406 C   0  0  0  0  0  0  0  0  0  0  0  0
   -8.2223    5.7424  -10.9425 C   0  0  0  0  0  0  0  0  0  0  0  0
   -8.4677    4.5774  -11.6999 C   0  0  0  0  0  0  0  0  0  0  0  0
   -8.7613    3.3883  -11.0121 C   0  0  0  0  0  0  0  0  0  0  0  0
   -8.7838    3.3916   -9.6243 C   0  0  0  0  0  0  0  0  0  0  0  0
   -9.1134    2.2891   -8.6613 C   0  0  0  0  0  0  0  0  0  0  0  0
 29 30  1  0  0  0
 30 31  1  0  0  0
 31 32  1  0  0  0
 32 33  2  0  0  0
 33 34  1  0  0  0
 34 35  2  0  0  0
 35 27  1  0  0  0
 27  1  1  0  0  0
  1  2  1  0  0  0
  1 19  1  0  0  0
 19 20  2  0  0  0
 19 21  1  0  0  0
 21 23  1  0  0  0
 23 24  1  0  0  0
 24 25  1  0  0  0
 25 26  1  0  0  0
  1  4  1  0  0  0
  4  5  2  0  0  0
  5  6  1  0  0  0
  6  7  1  0  0  0
  6  8  2  0  0  0
  8  9  1  0  0  0
  9 10  2  0  0  0
 10 11  1  0  0  0
 11 12  2  0  0  0
 12 13  1  0  0  0
 13 14  1  0  0  0
 14 15  1  0  0  0
 15 16  1  0  0  0
 16 17  1  0  0  0
 35 36  1  0  0  0
 36 37  2  0  0  0
 37 38  1  0  0  0
 38 30  1  0  0  0
 37 32  1  0  0  0
 10  4  1  0  0  0
 17 14  1  0  0  0
 13  9  1  0  0  0
 27 28  1  0  0  0
  2  3  1  0  0  0
 21 22  1  0  0  0
 16 18  1  0  0  0
M  END
> <minimizedAffinity>
-7.96592

> <minimizedRMSD>
0.26016

$$$$
P28293


 35 39  0  0  0  0  0  0  0  0999 V2000
   -8.0603    5.4538  -13.6940 C   0  0  0  0  0  0  0  0  0  0  0  0
   -9.3276    6.1086  -13.6914 O   0  0  0  0  0  0  0  0  0  0  0  0
   -9.5197    6.4376  -12.7994 H   0  0  0  0  0  0  0  0  0  0  0  0
   -7.8594    4.9745  -15.1516 C   0  0  0  0  0  0  0  0  0  0  0  0
   -9.0131    4.7959  -15.9659 C   0  0  0  0  0  0  0  0  0  0  0  0
   -8.9359    4.6041  -17.3438 C   0  0  0  0  0  0  0  0  0  0  0  0
  -10.3775    4.3739  -18.2565 Cl  0  0  0  0  0  0  0  0  0  0  0  0
   -7.7155    4.6833  -18.0086 C   0  0  0  0  0  0  0  0  0  0  0  0
   -6.5619    4.7917  -17.2236 C   0  0  0  0  0  0  0  0  0  0  0  0
   -6.6152    4.8078  -15.8232 C   0  0  0  0  0  0  0  0  0  0  0  0
   -5.2596    4.6368  -15.4523 C   0  0  0  0  0  0  0  0  0  0  0  0
   -4.4165    4.6874  -16.4774 N   0  0  0  0  0  0  0  0  0  0  0  0
   -5.2194    4.9353  -17.5320 N   0  0  0  0  0  0  0  0  0  0  0  0
   -4.6588    5.7495  -18.6238 C   0  0  0  0  0  0  0  0  0  0  0  0
   -3.2380    5.2958  -19.0188 C   0  0  0  0  0  0  0  0  0  0  0  0
   -3.5943    5.6147  -20.4199 N   0  0  0  0  0  0  0  0  0  0  0  0
   -5.0162    5.3934  -20.0581 C   0  0  0  0  0  0  0  0  0  0  0  0
   -3.2264    4.9595  -21.1096 H   0  0  0  0  0  0  0  0  0  0  0  0
   -8.1688    4.3057  -12.8086 N   0  0  0  0  0  0  0  0  0  0  0  0
   -8.0628    3.4105  -13.2045 H   0  0  0  0  0  0  0  0  0  0  0  0
   -9.5408    1.9461   -6.0684 C   0  0  0  0  0  0  0  0  0  0  0  0
   -9.6522    2.8102   -7.2206 N   0  0  0  0  0  0  0  0  0  0  0  0
   -8.7597    3.9788   -7.1897 C   0  0  0  0  0  0  0  0  0  0  0  0
   -8.5991    4.3234   -8.6364 C   0  0  0  0  0  0  0  0  0  0  0  0
   -8.2207    5.4995   -9.2383 C   0  0  0  0  0  0  0  0  0  0  0  0
   -8.1549    5.5234  -10.6369 C   0  0  0  0  0  0  0  0  0  0  0  0
   -8.4130    4.3838  -11.4352 C   0  0  0  0  0  0  0  0  0  0  0  0
   -8.8195    3.2152  -10.7833 C   0  0  0  0  0  0  0  0  0  0  0  0
   -8.9264    3.2077   -9.4022 C   0  0  0  0  0  0  0  0  0  0  0  0
   -9.3646    2.1091   -8.4879 C   0  0  0  0  0  0  0  0  0  0  0  0
   -6.9568    6.3979  -13.1482 C   0  0  0  0  0  0  0  0  0  0  0  0
   -7.2899    7.8472  -13.3257 C   0  0  0  0  0  0  0  0  0  0  0  0
   -8.2418    8.4379  -12.8400 O   0  0  0  0  0  0  0  0  0  0  0  0
   -6.3800    8.5000  -14.0736 O   0  0  0  0  0  0  0  0  0  0  0  0
   -5.6542    8.0345  -14.4404 H   0  0  0  0  0  0  0  0  0  0  0  0
 21 22  1  0  0  0
 22 23  1  0  0  0
 23 24  1  0  0  0
 24 25  2  0  0  0
 25 26  1  0  0  0
 26 27  2  0  0  0
 27 19  1  0  0  0
 19  1  1  0  0  0
  1  2  1  0  0  0
  1 31  1  0  0  0
 31 32  1  0  0  0
 32 33  2  0  0  0
 32 34  1  0  0  0
  1  4  1  0  0  0
  4  5  2  0  0  0
  5  6  1  0  0  0
  6  7  1  0  0  0
  6  8  2  0  0  0
  8  9  1  0  0  0
  9 10  2  0  0  0
 10 11  1  0  0  0
 11 12  2  0  0  0
 12 13  1  0  0  0
 13 14  1  0  0  0
 14 15  1  0  0  0
 15 16  1  0  0  0
 16 17  1  0  0  0
 27 28  1  0  0  0
 28 29  2  0  0  0
 29 30  1  0  0  0
 30 22  1  0  0  0
 29 24  1  0  0  0
 10  4  1  0  0  0
 17 14  1  0  0  0
 13  9  1  0  0  0
 19 20  1  0  0  0
  2  3  1  0  0  0
 34 35  1  0  0  0
 16 18  1  0  0  0
M  END
> <minimizedAffinity>
-7.70707

> <minimizedRMSD>
0.99748

$$$$
P28294


 30 34  0  0  0  0  0  0  0  0999 V2000
   -8.3482    4.5275  -12.9682 N   0  0  0  0  0  0  0  0  0  0  0  0
   -7.8561    5.5506  -14.0208 C   0  0  0  0  0  0  0  0  0  0  0  0
   -7.4905    6.6535  -13.8921 O   0  0  0  0  0  0  0  0  0  0  0  0
   -8.6772    3.6780  -13.3414 H   0  0  0  0  0  0  0  0  0  0  0  0
   -6.2998    6.4173   -6.9997 C   0  0  0  0  0  0  0  0  0  0  0  0
   -7.7306    6.5186   -7.3063 N   0  0  0  0  0  0  0  0  0  0  0  0
   -7.9139    7.0768   -8.6773 C   0  0  0  0  0  0  0  0  0  0  0  0
   -8.1443    5.9048   -9.5724 C   0  0  0  0  0  0  0  0  0  0  0  0
   -8.1424    5.8415  -10.9542 C   0  0  0  0  0  0  0  0  0  0  0  0
   -8.4014    4.6137  -11.5755 C   0  0  0  0  0  0  0  0  0  0  0  0
   -8.6997    3.4807  -10.8010 C   0  0  0  0  0  0  0  0  0  0  0  0
   -8.7061    3.5729   -9.4020 C   0  0  0  0  0  0  0  0  0  0  0  0
   -9.1487    2.0995   -8.3177 Br  0  0  0  0  0  0  0  0  0  0  0  0
   -8.4047    4.7806   -8.8032 C   0  0  0  0  0  0  0  0  0  0  0  0
   -8.3258    5.1444   -7.3563 C   0  0  0  0  0  0  0  0  0  0  0  0
   -7.8861    5.0266  -15.4052 C   0  0  0  0  0  0  0  0  0  0  0  0
   -9.0979    4.7497  -16.0435 C   0  0  0  0  0  0  0  0  0  0  0  0
   -9.1172    4.5309  -17.4192 C   0  0  0  0  0  0  0  0  0  0  0  0
  -10.6306    4.3683  -18.2123 Cl  0  0  0  0  0  0  0  0  0  0  0  0
   -7.9508    4.5431  -18.1916 C   0  0  0  0  0  0  0  0  0  0  0  0
   -6.7414    4.7911  -17.5297 C   0  0  0  0  0  0  0  0  0  0  0  0
   -6.6909    5.0257  -16.1562 C   0  0  0  0  0  0  0  0  0  0  0  0
   -5.3253    5.2581  -15.8881 C   0  0  0  0  0  0  0  0  0  0  0  0
   -4.5613    5.1705  -16.9762 N   0  0  0  0  0  0  0  0  0  0  0  0
   -5.4406    4.9213  -17.9714 N   0  0  0  0  0  0  0  0  0  0  0  0
   -5.0495    4.9242  -19.3954 C   0  0  0  0  0  0  0  0  0  0  0  0
   -3.5274    4.9439  -19.6518 C   0  0  0  0  0  0  0  0  0  0  0  0
   -3.7527    6.0056  -20.6608 N   0  0  0  0  0  0  0  0  0  0  0  0
   -5.0177    6.3508  -19.9775 C   0  0  0  0  0  0  0  0  0  0  0  0
   -3.8705    5.6612  -21.6137 H   0  0  0  0  0  0  0  0  0  0  0  0
  5  6  1  0  0  0
  6  7  1  0  0  0
  7  8  1  0  0  0
  8  9  2  0  0  0
  9 10  1  0  0  0
 10  1  1  0  0  0
  1  2  1  0  0  0
  2  3  2  0  0  0
  2 16  1  0  0  0
 16 17  2  0  0  0
 17 18  1  0  0  0
 18 19  1  0  0  0
 18 20  2  0  0  0
 20 21  1  0  0  0
 21 22  2  0  0  0
 22 23  1  0  0  0
 23 24  2  0  0  0
 24 25  1  0  0  0
 25 26  1  0  0  0
 26 27  1  0  0  0
 27 28  1  0  0  0
 28 29  1  0  0  0
 10 11  2  0  0  0
 11 12  1  0  0  0
 12 13  1  0  0  0
 12 14  2  0  0  0
 14 15  1  0  0  0
 15  6  1  0  0  0
 14  8  1  0  0  0
 22 16  1  0  0  0
 29 26  1  0  0  0
 25 21  1  0  0  0
  1  4  1  0  0  0
 28 30  1  0  0  0
M  END
> <minimizedAffinity>
-8.26275

> <minimizedRMSD>
0.38122

$$$$
P28295


 36 41  0  0  0  0  0  0  0  0999 V2000
   -2.6196    6.1410  -14.1738 N   0  0  0  0  0  0  0  0  0  0  0  0
   -2.7900    4.7000  -14.3854 C   0  0  0  0  0  0  0  0  0  0  0  0
   -3.6600    4.3018  -15.5840 C   0  0  0  0  0  0  0  0  0  0  0  0
   -4.6393    5.4051  -16.0304 C   0  0  0  0  0  0  0  0  0  0  0  0
   -4.0048    6.8198  -16.0465 C   0  0  0  0  0  0  0  0  0  0  0  0
   -2.6097    6.8729  -15.4344 C   0  0  0  0  0  0  0  0  0  0  0  0
   -5.8632    5.3927  -15.0304 C   0  0  0  0  0  0  0  0  0  0  0  0
   -7.0277    5.0619  -15.9041 C   0  0  0  0  0  0  0  0  0  0  0  0
   -8.3744    4.9309  -15.5478 C   0  0  0  0  0  0  0  0  0  0  0  0
   -9.3060    4.6363  -16.5451 C   0  0  0  0  0  0  0  0  0  0  0  0
   -8.8723    4.4953  -17.8675 C   0  0  0  0  0  0  0  0  0  0  0  0
  -10.0480    4.2853  -19.1031 Cl  0  0  0  0  0  0  0  0  0  0  0  0
   -7.5204    4.6088  -18.2087 C   0  0  0  0  0  0  0  0  0  0  0  0
   -6.5952    4.9001  -17.2183 C   0  0  0  0  0  0  0  0  0  0  0  0
   -5.2004    5.0963  -17.3810 N   0  0  0  0  0  0  0  0  0  0  0  0
   -4.4634    4.8802  -18.6179 C   0  0  0  0  0  0  0  0  0  0  0  0
   -2.9276    5.0200  -18.6588 C   0  0  0  0  0  0  0  0  0  0  0  0
   -3.0248    6.2967  -19.3748 N   0  0  0  0  0  0  0  0  0  0  0  0
   -4.4681    6.0930  -19.5694 C   0  0  0  0  0  0  0  0  0  0  0  0
   -2.4897    6.3270  -20.2427 H   0  0  0  0  0  0  0  0  0  0  0  0
   -8.8359    5.2752  -14.1729 C   0  0  0  0  0  0  0  0  0  0  0  0
   -9.6374    6.1197  -14.0691 O   0  0  0  0  0  0  0  0  0  0  0  0
   -8.1641    4.3899  -13.0925 N   0  0  0  0  0  0  0  0  0  0  0  0
   -7.5688    3.6895  -13.4452 H   0  0  0  0  0  0  0  0  0  0  0  0
   -8.2659    4.4242  -11.6998 C   0  0  0  0  0  0  0  0  0  0  0  0
   -7.9041    5.5788  -10.9825 C   0  0  0  0  0  0  0  0  0  0  0  0
   -7.9819    5.6186   -9.5852 C   0  0  0  0  0  0  0  0  0  0  0  0
   -8.4333    4.4928   -8.9263 C   0  0  0  0  0  0  0  0  0  0  0  0
   -8.8090    3.3497   -9.6337 C   0  0  0  0  0  0  0  0  0  0  0  0
   -8.7302    3.2953  -11.0182 C   0  0  0  0  0  0  0  0  0  0  0  0
   -9.2583    2.3091   -8.6515 C   0  0  0  0  0  0  0  0  0  0  0  0
   -9.5198    3.0839   -7.4179 N   0  0  0  0  0  0  0  0  0  0  0  0
   -9.4322    2.2853   -6.2137 C   0  0  0  0  0  0  0  0  0  0  0  0
   -8.6054    4.2359   -7.4593 C   0  0  0  0  0  0  0  0  0  0  0  0
   -0.3619    5.3703  -13.4306 C   0  0  0  0  0  0  0  0  0  0  0  0
   -1.4326    6.4545  -13.3647 C   0  0  0  0  0  0  0  0  0  0  0  0
 35 36  1  0  0  0
 36  1  1  0  0  0
  1  2  1  0  0  0
  2  3  1  0  0  0
  3  4  1  0  0  0
  4  5  1  0  0  0
  5  6  1  0  0  0
  4  7  1  0  0  0
  7  8  1  0  0  0
  8  9  2  0  0  0
  9 21  1  0  0  0
 21 22  2  0  0  0
 21 23  1  0  0  0
 23 25  1  0  0  0
 25 26  2  0  0  0
 26 27  1  0  0  0
 27 28  2  0  0  0
 28 29  1  0  0  0
 29 30  2  0  0  0
 29 31  1  0  0  0
 31 32  1  0  0  0
 32 33  1  0  0  0
 32 34  1  0  0  0
  9 10  1  0  0  0
 10 11  2  0  0  0
 11 12  1  0  0  0
 11 13  1  0  0  0
 13 14  2  0  0  0
 14 15  1  0  0  0
 15 16  1  0  0  0
 16 17  1  0  0  0
 17 18  1  0  0  0
 18 19  1  0  0  0
  6  1  1  0  0  0
 14  8  1  0  0  0
 19 16  1  0  0  0
 15  4  1  0  0  0
 30 25  1  0  0  0
 34 28  1  0  0  0
 23 24  1  0  0  0
 18 20  1  0  0  0
M  END
> <minimizedAffinity>
-8.78785

> <minimizedRMSD>
1.57074

$$$$
P28296


 37 43  0  0  0  0  0  0  0  0999 V2000
   -8.1757    4.8974  -15.3658 C   0  0  0  0  0  0  0  0  0  0  0  0
   -9.0503    4.4734  -16.3674 C   0  0  0  0  0  0  0  0  0  0  0  0
   -8.6123    4.4637  -17.6998 C   0  0  0  0  0  0  0  0  0  0  0  0
   -9.7292    4.0736  -18.9484 Cl  0  0  0  0  0  0  0  0  0  0  0  0
   -7.3283    4.8949  -18.0523 C   0  0  0  0  0  0  0  0  0  0  0  0
   -6.4853    5.3516  -17.0600 C   0  0  0  0  0  0  0  0  0  0  0  0
   -6.8846    5.2797  -15.7230 C   0  0  0  0  0  0  0  0  0  0  0  0
   -5.7212    5.6686  -14.8481 C   0  0  0  0  0  0  0  0  0  0  0  0
   -4.8337    6.4627  -15.8529 C   0  0  0  0  0  0  0  0  0  0  0  0
   -5.1019    7.9877  -15.6955 C   0  0  0  0  0  0  0  0  0  0  0  0
   -4.0309    8.7045  -14.8634 C   0  0  0  0  0  0  0  0  0  0  0  0
   -3.5243    7.8424  -13.8026 N   0  0  0  0  0  0  0  0  0  0  0  0
   -2.8144    6.6710  -14.3421 C   0  0  0  0  0  0  0  0  0  0  0  0
   -3.3240    6.2015  -15.7203 C   0  0  0  0  0  0  0  0  0  0  0  0
   -2.5704    6.9171  -16.7324 O   0  0  0  0  0  0  0  0  0  0  0  0
   -3.1313    6.9223  -18.0531 C   0  0  0  0  0  0  0  0  0  0  0  0
   -2.1201    6.3843  -18.9529 N   0  0  0  0  0  0  0  0  0  0  0  0
   -2.2387    4.9399  -18.7720 C   0  0  0  0  0  0  0  0  0  0  0  0
   -3.7298    4.6719  -18.5867 C   0  0  0  0  0  0  0  0  0  0  0  0
   -4.3660    6.0244  -18.3147 C   0  0  0  0  0  0  0  0  0  0  0  0
   -5.2772    5.9959  -17.1859 N   0  0  0  0  0  0  0  0  0  0  0  0
   -4.3088    7.5207  -13.2356 H   0  0  0  0  0  0  0  0  0  0  0  0
   -1.1893    6.7095  -18.6918 H   0  0  0  0  0  0  0  0  0  0  0  0
   -7.9397    4.5150  -12.8799 N   0  0  0  0  0  0  0  0  0  0  0  0
   -8.6847    5.2485  -14.0175 C   0  0  0  0  0  0  0  0  0  0  0  0
   -9.5507    6.0316  -13.9739 O   0  0  0  0  0  0  0  0  0  0  0  0
   -7.1873    3.9529  -13.1753 H   0  0  0  0  0  0  0  0  0  0  0  0
  -10.1718    2.5552   -6.3008 C   0  0  0  0  0  0  0  0  0  0  0  0
   -9.0692    2.8309   -7.1999 N   0  0  0  0  0  0  0  0  0  0  0  0
   -8.6858    4.2437   -7.2850 C   0  0  0  0  0  0  0  0  0  0  0  0
   -8.4503    4.5107   -8.7377 C   0  0  0  0  0  0  0  0  0  0  0  0
   -7.9703    5.6545   -9.3463 C   0  0  0  0  0  0  0  0  0  0  0  0
   -7.8201    5.6501  -10.7359 C   0  0  0  0  0  0  0  0  0  0  0  0
   -8.1598    4.5195  -11.5009 C   0  0  0  0  0  0  0  0  0  0  0  0
   -8.6737    3.3824  -10.8739 C   0  0  0  0  0  0  0  0  0  0  0  0
   -8.7994    3.3919   -9.4887 C   0  0  0  0  0  0  0  0  0  0  0  0
   -9.2834    2.3121   -8.5679 C   0  0  0  0  0  0  0  0  0  0  0  0
 28 29  1  0  0  0
 29 30  1  0  0  0
 30 31  1  0  0  0
 31 32  2  0  0  0
 32 33  1  0  0  0
 33 34  2  0  0  0
 34 24  1  0  0  0
 24 25  1  0  0  0
 25 26  2  0  0  0
 25  1  1  0  0  0
  1  2  2  0  0  0
  2  3  1  0  0  0
  3  4  1  0  0  0
  3  5  2  0  0  0
  5  6  1  0  0  0
  6  7  2  0  0  0
  7  8  1  0  0  0
  9  8  1  0  0  0
  9 10  1  0  0  0
 10 11  1  0  0  0
 11 12  1  0  0  0
 12 13  1  0  0  0
 14 13  1  0  0  0
 14 15  1  0  0  0
 15 16  1  0  0  0
 16 17  1  0  0  0
 17 18  1  0  0  0
 18 19  1  0  0  0
 20 19  1  0  0  0
 20 21  1  0  0  0
 34 35  1  0  0  0
 35 36  2  0  0  0
 36 37  1  0  0  0
 37 29  1  0  0  0
 36 31  1  0  0  0
  7  1  1  0  0  0
 14  9  1  0  0  0
 20 16  1  0  0  0
 21  6  1  0  0  0
 21  9  1  0  0  0
 24 27  1  0  0  0
 12 22  1  0  0  0
 17 23  1  0  0  0
M  END
> <minimizedAffinity>
-9.59721

> <minimizedRMSD>
1.16902

$$$$
P28300


 34 39  0  0  0  0  0  0  0  0999 V2000
   -8.1895    4.4133  -13.1722 N   0  0  0  0  0  0  0  0  0  0  0  0
   -7.0934    5.0000  -14.0980 C   0  0  0  0  0  0  0  0  0  0  0  0
   -6.1919    5.7042  -13.8541 O   0  0  0  0  0  0  0  0  0  0  0  0
   -8.8913    3.9024  -13.6367 H   0  0  0  0  0  0  0  0  0  0  0  0
   -9.2499    2.4323   -6.2081 C   0  0  0  0  0  0  0  0  0  0  0  0
   -9.4306    3.1379   -7.4599 N   0  0  0  0  0  0  0  0  0  0  0  0
   -8.9641    2.3708   -8.6382 C   0  0  0  0  0  0  0  0  0  0  0  0
   -8.6904    3.4396   -9.6585 C   0  0  0  0  0  0  0  0  0  0  0  0
   -8.5676    3.3303  -11.0443 C   0  0  0  0  0  0  0  0  0  0  0  0
   -8.3433    4.4916  -11.7877 C   0  0  0  0  0  0  0  0  0  0  0  0
   -8.3132    5.7126  -11.1100 C   0  0  0  0  0  0  0  0  0  0  0  0
   -8.4399    5.8187   -9.7316 C   0  0  0  0  0  0  0  0  0  0  0  0
   -8.5999    4.6720   -8.9968 C   0  0  0  0  0  0  0  0  0  0  0  0
   -8.7607    4.4459   -7.5279 C   0  0  0  0  0  0  0  0  0  0  0  0
   -8.5036    7.2450   -9.3393 C   0  0  0  0  0  0  0  0  0  0  0  0
   -8.1176    7.9125  -10.6817 C   0  0  0  0  0  0  0  0  0  0  0  0
   -9.0346    9.0786  -11.0637 C   0  0  0  0  0  0  0  0  0  0  0  0
   -6.6564    8.3790  -10.6806 C   0  0  0  0  0  0  0  0  0  0  0  0
   -8.2734    6.9339  -11.7298 O   0  0  0  0  0  0  0  0  0  0  0  0
   -7.2980    4.6834  -15.5192 C   0  0  0  0  0  0  0  0  0  0  0  0
   -8.5902    4.5704  -16.0348 C   0  0  0  0  0  0  0  0  0  0  0  0
   -8.7765    4.5701  -17.4118 C   0  0  0  0  0  0  0  0  0  0  0  0
  -10.3797    4.5883  -18.0186 Cl  0  0  0  0  0  0  0  0  0  0  0  0
   -7.7041    4.6538  -18.3073 C   0  0  0  0  0  0  0  0  0  0  0  0
   -6.4142    4.7549  -17.7674 C   0  0  0  0  0  0  0  0  0  0  0  0
   -6.1959    4.7618  -16.3921 C   0  0  0  0  0  0  0  0  0  0  0  0
   -4.8004    4.9065  -16.2507 C   0  0  0  0  0  0  0  0  0  0  0  0
   -4.1677    4.9686  -17.4215 N   0  0  0  0  0  0  0  0  0  0  0  0
   -5.1661    4.9173  -18.3315 N   0  0  0  0  0  0  0  0  0  0  0  0
   -4.9375    5.1521  -19.7697 C   0  0  0  0  0  0  0  0  0  0  0  0
   -3.4551    5.2924  -20.1766 C   0  0  0  0  0  0  0  0  0  0  0  0
   -3.8305    6.4788  -20.9821 N   0  0  0  0  0  0  0  0  0  0  0  0
   -5.0250    6.6486  -20.1262 C   0  0  0  0  0  0  0  0  0  0  0  0
   -4.0394    6.2742  -21.9592 H   0  0  0  0  0  0  0  0  0  0  0  0
  5  6  1  0  0  0
  6  7  1  0  0  0
  7  8  1  0  0  0
  8  9  2  0  0  0
  9 10  1  0  0  0
 10  1  1  0  0  0
  1  2  1  0  0  0
  2  3  2  0  0  0
  2 20  1  0  0  0
 20 21  2  0  0  0
 21 22  1  0  0  0
 22 23  1  0  0  0
 22 24  2  0  0  0
 24 25  1  0  0  0
 25 26  2  0  0  0
 26 27  1  0  0  0
 27 28  2  0  0  0
 28 29  1  0  0  0
 29 30  1  0  0  0
 30 31  1  0  0  0
 31 32  1  0  0  0
 32 33  1  0  0  0
 10 11  2  0  0  0
 11 12  1  0  0  0
 12 13  2  0  0  0
 13 14  1  0  0  0
 12 15  1  0  0  0
 15 16  1  0  0  0
 16 17  1  0  0  0
 16 18  1  0  0  0
 16 19  1  0  0  0
 14  6  1  0  0  0
 13  8  1  0  0  0
 26 20  1  0  0  0
 33 30  1  0  0  0
 19 11  1  0  0  0
 29 25  1  0  0  0
  1  4  1  0  0  0
 32 34  1  0  0  0
M  END
> <minimizedAffinity>
-8.94399

> <minimizedRMSD>
0.35193

$$$$
P28303


 37 42  0  0  0  0  0  0  0  0999 V2000
   -8.2397    4.7562  -15.4680 C   0  0  0  0  0  0  0  0  0  0  0  0
   -9.1053    4.4806  -16.5234 C   0  0  0  0  0  0  0  0  0  0  0  0
   -8.6024    4.4893  -17.8169 C   0  0  0  0  0  0  0  0  0  0  0  0
   -9.7079    4.3135  -19.1240 Cl  0  0  0  0  0  0  0  0  0  0  0  0
   -7.2481    4.7529  -18.0931 C   0  0  0  0  0  0  0  0  0  0  0  0
   -6.3695    5.0141  -17.0219 C   0  0  0  0  0  0  0  0  0  0  0  0
   -6.8595    4.9784  -15.7081 C   0  0  0  0  0  0  0  0  0  0  0  0
   -5.7850    5.3120  -14.8469 C   0  0  0  0  0  0  0  0  0  0  0  0
   -4.6993    5.6817  -15.6091 C   0  0  0  0  0  0  0  0  0  0  0  0
   -5.0401    5.4260  -16.9348 N   0  0  0  0  0  0  0  0  0  0  0  0
   -4.1668    5.9315  -18.0167 C   0  0  0  0  0  0  0  0  0  0  0  0
   -3.8387    4.8491  -19.0783 C   0  0  0  0  0  0  0  0  0  0  0  0
   -3.7263    5.9630  -20.0467 N   0  0  0  0  0  0  0  0  0  0  0  0
   -4.7287    6.6862  -19.2160 C   0  0  0  0  0  0  0  0  0  0  0  0
   -4.0369    5.7395  -20.9922 H   0  0  0  0  0  0  0  0  0  0  0  0
   -8.1574    4.2111  -13.0088 N   0  0  0  0  0  0  0  0  0  0  0  0
   -8.7713    5.0876  -14.1208 C   0  0  0  0  0  0  0  0  0  0  0  0
   -9.5403    5.9641  -14.0559 O   0  0  0  0  0  0  0  0  0  0  0  0
   -7.5837    3.4787  -13.3309 H   0  0  0  0  0  0  0  0  0  0  0  0
   -9.5239    2.3737   -6.0869 C   0  0  0  0  0  0  0  0  0  0  0  0
   -9.5819    3.1198   -7.3242 N   0  0  0  0  0  0  0  0  0  0  0  0
   -8.6526    4.2578   -7.3912 C   0  0  0  0  0  0  0  0  0  0  0  0
   -8.4577    4.4571   -8.8624 C   0  0  0  0  0  0  0  0  0  0  0  0
   -8.0056    5.5609   -9.5543 C   0  0  0  0  0  0  0  0  0  0  0  0
   -7.9300    5.4716  -10.9464 C   0  0  0  0  0  0  0  0  0  0  0  0
   -8.2829    4.2875  -11.6229 C   0  0  0  0  0  0  0  0  0  0  0  0
   -8.7371    3.1792  -10.9093 C   0  0  0  0  0  0  0  0  0  0  0  0
   -8.8284    3.2876   -9.5307 C   0  0  0  0  0  0  0  0  0  0  0  0
   -9.3020    2.2900   -8.5174 C   0  0  0  0  0  0  0  0  0  0  0  0
   -3.5088    6.4892  -15.1438 C   0  0  0  0  0  0  0  0  0  0  0  0
   -2.4934    5.8295  -14.1970 C   0  0  0  0  0  0  0  0  0  0  0  0
   -2.7163    4.3356  -13.9278 C   0  0  0  0  0  0  0  0  0  0  0  0
   -1.6925    3.8051  -12.9233 C   0  0  0  0  0  0  0  0  0  0  0  0
   -0.3211    4.0307  -13.3875 N   0  0  0  0  0  0  0  0  0  0  0  0
   -0.0703    5.4565  -13.6043 C   0  0  0  0  0  0  0  0  0  0  0  0
   -1.0415    6.0735  -14.6142 C   0  0  0  0  0  0  0  0  0  0  0  0
   -0.1788    3.5296  -14.2645 H   0  0  0  0  0  0  0  0  0  0  0  0
 20 21  1  0  0  0
 21 22  1  0  0  0
 22 23  1  0  0  0
 23 24  2  0  0  0
 24 25  1  0  0  0
 25 26  2  0  0  0
 26 16  1  0  0  0
 16 17  1  0  0  0
 17 18  2  0  0  0
 17  1  1  0  0  0
  1  2  2  0  0  0
  2  3  1  0  0  0
  3  4  1  0  0  0
  3  5  2  0  0  0
  5  6  1  0  0  0
  6  7  2  0  0  0
  7  8  1  0  0  0
  8  9  2  0  0  0
  9 30  1  0  0  0
 30 31  1  0  0  0
 31 32  1  0  0  0
 32 33  1  0  0  0
 33 34  1  0  0  0
 34 35  1  0  0  0
 35 36  1  0  0  0
  9 10  1  0  0  0
 10 11  1  0  0  0
 11 12  1  0  0  0
 12 13  1  0  0  0
 13 14  1  0  0  0
 26 27  1  0  0  0
 27 28  2  0  0  0
 28 29  1  0  0  0
 29 21  1  0  0  0
 28 23  1  0  0  0
  7  1  1  0  0  0
 36 31  1  0  0  0
 14 11  1  0  0  0
 10  6  1  0  0  0
 16 19  1  0  0  0
 34 37  1  0  0  0
 13 15  1  0  0  0
M  END
> <minimizedAffinity>
-8.45379

> <minimizedRMSD>
1.44504

$$$$
P28307


 33 37  0  0  0  0  0  0  0  0999 V2000
   -7.8427    5.1356  -15.3556 C   0  0  0  0  0  0  0  0  0  0  0  0
   -9.0146    4.7167  -15.9820 C   0  0  0  0  0  0  0  0  0  0  0  0
   -8.9936    4.4535  -17.3452 C   0  0  0  0  0  0  0  0  0  0  0  0
  -10.4746    4.0691  -18.1252 Cl  0  0  0  0  0  0  0  0  0  0  0  0
   -7.8219    4.5712  -18.1071 C   0  0  0  0  0  0  0  0  0  0  0  0
   -6.6359    4.9558  -17.4533 C   0  0  0  0  0  0  0  0  0  0  0  0
   -6.6331    5.2197  -16.0794 C   0  0  0  0  0  0  0  0  0  0  0  0
   -5.2934    5.4988  -15.7114 C   0  0  0  0  0  0  0  0  0  0  0  0
   -4.4907    5.3400  -16.8237 C   0  0  0  0  0  0  0  0  0  0  0  0
   -5.3386    5.1739  -17.9026 N   0  0  0  0  0  0  0  0  0  0  0  0
   -4.9066    5.0203  -19.3114 C   0  0  0  0  0  0  0  0  0  0  0  0
   -3.3872    4.9050  -19.5604 C   0  0  0  0  0  0  0  0  0  0  0  0
   -3.5500    5.7698  -20.7523 N   0  0  0  0  0  0  0  0  0  0  0  0
   -4.7504    6.3374  -20.0915 C   0  0  0  0  0  0  0  0  0  0  0  0
   -3.7388    5.2679  -21.6200 H   0  0  0  0  0  0  0  0  0  0  0  0
   -8.1946    4.4731  -12.9729 N   0  0  0  0  0  0  0  0  0  0  0  0
   -7.8707    5.6156  -13.9582 C   0  0  0  0  0  0  0  0  0  0  0  0
   -7.5924    6.7315  -13.7580 O   0  0  0  0  0  0  0  0  0  0  0  0
   -8.3254    3.5919  -13.3921 H   0  0  0  0  0  0  0  0  0  0  0  0
   -9.9468    2.3763   -6.2986 C   0  0  0  0  0  0  0  0  0  0  0  0
   -8.9583    2.7368   -7.2880 N   0  0  0  0  0  0  0  0  0  0  0  0
   -8.6407    4.1661   -7.3632 C   0  0  0  0  0  0  0  0  0  0  0  0
   -8.4719    4.4544   -8.8198 C   0  0  0  0  0  0  0  0  0  0  0  0
   -8.0265    5.6048   -9.4416 C   0  0  0  0  0  0  0  0  0  0  0  0
   -7.9500    5.6114  -10.8374 C   0  0  0  0  0  0  0  0  0  0  0  0
   -8.3320    4.4854  -11.5883 C   0  0  0  0  0  0  0  0  0  0  0  0
   -8.8090    3.3421  -10.9482 C   0  0  0  0  0  0  0  0  0  0  0  0
   -8.8550    3.3411   -9.5632 C   0  0  0  0  0  0  0  0  0  0  0  0
   -9.2791    2.2469   -8.6384 C   0  0  0  0  0  0  0  0  0  0  0  0
   -3.0055    5.3188  -16.8610 C   0  0  0  0  0  0  0  0  0  0  0  0
   -2.4794    6.6028  -16.4338 N   0  0  0  0  0  0  0  0  0  0  0  0
   -2.8168    7.3338  -17.0600 H   0  0  0  0  0  0  0  0  0  0  0  0
   -1.4600    6.5777  -16.4585 H   0  0  0  0  0  0  0  0  0  0  0  0
 20 21  1  0  0  0
 21 22  1  0  0  0
 22 23  1  0  0  0
 23 24  2  0  0  0
 24 25  1  0  0  0
 25 26  2  0  0  0
 26 16  1  0  0  0
 16 17  1  0  0  0
 17 18  2  0  0  0
 17  1  1  0  0  0
  1  2  2  0  0  0
  2  3  1  0  0  0
  3  4  1  0  0  0
  3  5  2  0  0  0
  5  6  1  0  0  0
  6  7  2  0  0  0
  7  8  1  0  0  0
  8  9  2  0  0  0
  9 30  1  0  0  0
 30 31  1  0  0  0
  9 10  1  0  0  0
 10 11  1  0  0  0
 11 12  1  0  0  0
 12 13  1  0  0  0
 13 14  1  0  0  0
 26 27  1  0  0  0
 27 28  2  0  0  0
 28 29  1  0  0  0
 29 21  1  0  0  0
 28 23  1  0  0  0
  7  1  1  0  0  0
 14 11  1  0  0  0
 10  6  1  0  0  0
 16 19  1  0  0  0
 31 32  1  0  0  0
 31 33  1  0  0  0
 13 15  1  0  0  0
M  END
> <minimizedAffinity>
-8.26281

> <minimizedRMSD>
0.54929

$$$$
P28308


 35 39  0  0  0  0  0  0  0  0999 V2000
   -7.1967    4.7117  -14.9834 C   0  0  0  0  0  0  0  0  0  0  0  0
   -8.4966    4.5308  -15.5186 C   0  0  0  0  0  0  0  0  0  0  0  0
   -8.7235    4.4758  -16.8719 C   0  0  0  0  0  0  0  0  0  0  0  0
  -10.3585    4.3348  -17.4311 Cl  0  0  0  0  0  0  0  0  0  0  0  0
   -7.6616    4.6633  -17.7560 C   0  0  0  0  0  0  0  0  0  0  0  0
   -6.3414    4.7586  -17.2693 C   0  0  0  0  0  0  0  0  0  0  0  0
   -6.1073    4.7732  -15.9004 C   0  0  0  0  0  0  0  0  0  0  0  0
   -4.7055    4.9248  -15.7951 C   0  0  0  0  0  0  0  0  0  0  0  0
   -4.0958    5.0338  -16.9689 N   0  0  0  0  0  0  0  0  0  0  0  0
   -5.0939    4.9226  -17.8706 N   0  0  0  0  0  0  0  0  0  0  0  0
   -4.7958    4.9957  -19.3236 C   0  0  0  0  0  0  0  0  0  0  0  0
   -3.2943    4.9076  -19.6879 C   0  0  0  0  0  0  0  0  0  0  0  0
   -3.5121    6.0060  -20.6604 N   0  0  0  0  0  0  0  0  0  0  0  0
   -4.6729    6.4409  -19.8531 C   0  0  0  0  0  0  0  0  0  0  0  0
   -3.7471    5.6942  -21.6027 H   0  0  0  0  0  0  0  0  0  0  0  0
   -7.9718    4.9791  -19.1469 C   0  0  0  0  0  0  0  0  0  0  0  0
   -8.3410    3.8317  -19.9439 N   0  0  0  0  0  0  0  0  0  0  0  0
   -7.5578    3.1795  -19.9841 H   0  0  0  0  0  0  0  0  0  0  0  0
   -8.5789    4.1359  -20.8880 H   0  0  0  0  0  0  0  0  0  0  0  0
   -7.0028    4.9220  -13.4736 C   0  0  0  0  0  0  0  0  0  0  0  0
   -6.3262    6.3040  -13.3216 C   0  0  0  0  0  0  0  0  0  0  0  0
   -8.3329    4.9171  -12.8215 N   0  0  0  0  0  0  0  0  0  0  0  0
   -9.1623    4.9988  -13.3456 H   0  0  0  0  0  0  0  0  0  0  0  0
   -9.5251    2.0048   -6.2858 C   0  0  0  0  0  0  0  0  0  0  0  0
   -9.5700    2.9386   -7.3818 N   0  0  0  0  0  0  0  0  0  0  0  0
   -8.6278    4.0628   -7.2500 C   0  0  0  0  0  0  0  0  0  0  0  0
   -8.4301    4.4996   -8.6655 C   0  0  0  0  0  0  0  0  0  0  0  0
   -8.0365    5.7163   -9.1776 C   0  0  0  0  0  0  0  0  0  0  0  0
   -8.0373    5.8635  -10.5655 C   0  0  0  0  0  0  0  0  0  0  0  0
   -8.3592    4.7905  -11.4203 C   0  0  0  0  0  0  0  0  0  0  0  0
   -8.7401    3.5616  -10.8723 C   0  0  0  0  0  0  0  0  0  0  0  0
   -8.7938    3.4464   -9.5033 C   0  0  0  0  0  0  0  0  0  0  0  0
   -9.2679    2.2995   -8.6763 C   0  0  0  0  0  0  0  0  0  0  0  0
   -6.1558    3.7704  -12.9638 N   0  0  0  0  0  0  0  0  0  0  0  0
   -5.1251    4.1163  -12.3733 O   0  0  0  0  0  0  0  0  0  0  0  0
 24 25  1  0  0  0
 25 26  1  0  0  0
 26 27  1  0  0  0
 27 28  2  0  0  0
 28 29  1  0  0  0
 29 30  2  0  0  0
 30 22  1  0  0  0
 22 20  1  0  0  0
 20 21  1  0  0  0
 20 34  1  0  0  0
 34 35  2  0  0  0
 20  1  1  0  0  0
  1  2  2  0  0  0
  2  3  1  0  0  0
  3  4  1  0  0  0
  3  5  2  0  0  0
  5 16  1  0  0  0
 16 17  1  0  0  0
  5  6  1  0  0  0
  6  7  2  0  0  0
  7  8  1  0  0  0
  8  9  2  0  0  0
  9 10  1  0  0  0
 10 11  1  0  0  0
 11 12  1  0  0  0
 12 13  1  0  0  0
 13 14  1  0  0  0
 30 31  1  0  0  0
 31 32  2  0  0  0
 32 33  1  0  0  0
 33 25  1  0  0  0
 32 27  1  0  0  0
  7  1  1  0  0  0
 14 11  1  0  0  0
 10  6  1  0  0  0
 22 23  1  0  0  0
 17 18  1  0  0  0
 17 19  1  0  0  0
 13 15  1  0  0  0
M  END
> <minimizedAffinity>
-6.86760

> <minimizedRMSD>
0.35196

$$$$
P28310


 34 39  0  0  0  0  0  0  0  0999 V2000
   -8.3907    4.8280  -15.3323 C   0  0  0  0  0  0  0  0  0  0  0  0
   -9.2548    4.6039  -16.4227 C   0  0  0  0  0  0  0  0  0  0  0  0
   -8.8022    4.6093  -17.7829 C   0  0  0  0  0  0  0  0  0  0  0  0
   -9.9910    4.4380  -19.0243 Cl  0  0  0  0  0  0  0  0  0  0  0  0
   -7.4690    4.8545  -18.1855 C   0  0  0  0  0  0  0  0  0  0  0  0
   -6.6324    5.0421  -17.0877 C   0  0  0  0  0  0  0  0  0  0  0  0
   -5.3577    5.5944  -17.0936 C   0  0  0  0  0  0  0  0  0  0  0  0
   -4.9161    5.4987  -15.7798 N   0  0  0  0  0  0  0  0  0  0  0  0
   -5.9868    5.2547  -14.9444 C   0  0  0  0  0  0  0  0  0  0  0  0
   -7.0704    5.0058  -15.7381 C   0  0  0  0  0  0  0  0  0  0  0  0
   -3.6005    5.7830  -15.2407 C   0  0  0  0  0  0  0  0  0  0  0  0
   -2.4720    5.0223  -15.9165 C   0  0  0  0  0  0  0  0  0  0  0  0
   -2.2258    5.3560  -17.2772 O   0  0  0  0  0  0  0  0  0  0  0  0
   -2.1859    6.7500  -17.5493 C   0  0  0  0  0  0  0  0  0  0  0  0
   -3.5687    7.3713  -17.9072 C   0  0  0  0  0  0  0  0  0  0  0  0
   -3.4790    8.0406  -19.2283 N   0  0  0  0  0  0  0  0  0  0  0  0
   -3.6093    6.9318  -20.1973 C   0  0  0  0  0  0  0  0  0  0  0  0
   -4.2722    5.7521  -19.4553 C   0  0  0  0  0  0  0  0  0  0  0  0
   -4.7359    6.4190  -18.1853 C   0  0  0  0  0  0  0  0  0  0  0  0
   -2.5814    8.5130  -19.3357 H   0  0  0  0  0  0  0  0  0  0  0  0
   -8.3499    4.2098  -12.9218 N   0  0  0  0  0  0  0  0  0  0  0  0
   -8.8682    5.1875  -13.9919 C   0  0  0  0  0  0  0  0  0  0  0  0
   -9.5429    6.1336  -13.8888 O   0  0  0  0  0  0  0  0  0  0  0  0
   -7.8534    3.4368  -13.2758 H   0  0  0  0  0  0  0  0  0  0  0  0
  -10.2149    2.3355   -6.3993 C   0  0  0  0  0  0  0  0  0  0  0  0
   -8.9928    2.6154   -7.1395 N   0  0  0  0  0  0  0  0  0  0  0  0
   -8.7752    4.0690   -7.3079 C   0  0  0  0  0  0  0  0  0  0  0  0
   -8.6573    4.3062   -8.7760 C   0  0  0  0  0  0  0  0  0  0  0  0
   -8.4351    5.4935   -9.4479 C   0  0  0  0  0  0  0  0  0  0  0  0
   -8.3399    5.4538  -10.8397 C   0  0  0  0  0  0  0  0  0  0  0  0
   -8.4687    4.2404  -11.5357 C   0  0  0  0  0  0  0  0  0  0  0  0
   -8.6971    3.0515  -10.8429 C   0  0  0  0  0  0  0  0  0  0  0  0
   -8.7874    3.1040   -9.4607 C   0  0  0  0  0  0  0  0  0  0  0  0
   -8.9991    1.9920   -8.4856 C   0  0  0  0  0  0  0  0  0  0  0  0
 25 26  1  0  0  0
 26 27  1  0  0  0
 27 28  1  0  0  0
 28 29  2  0  0  0
 29 30  1  0  0  0
 30 31  2  0  0  0
 31 21  1  0  0  0
 21 22  1  0  0  0
 22 23  2  0  0  0
 22  1  1  0  0  0
  1  2  2  0  0  0
  2  3  1  0  0  0
  3  4  1  0  0  0
  3  5  2  0  0  0
  5  6  1  0  0  0
  6  7  2  0  0  0
  7  8  1  0  0  0
  8  9  1  0  0  0
  9 10  2  0  0  0
  8 11  1  0  0  0
 11 12  1  0  0  0
 12 13  1  0  0  0
 13 14  1  0  0  0
 15 14  1  0  0  0
 15 16  1  0  0  0
 16 17  1  0  0  0
 17 18  1  0  0  0
 19 18  1  0  0  0
 31 32  1  0  0  0
 32 33  2  0  0  0
 33 34  1  0  0  0
 34 26  1  0  0  0
 33 28  1  0  0  0
 10  1  1  0  0  0
 19 15  1  0  0  0
 10  6  1  0  0  0
 19  7  1  0  0  0
 21 24  1  0  0  0
 16 20  1  0  0  0
M  END
> <minimizedAffinity>
-10.47365

> <minimizedRMSD>
0.95976

$$$$
P28311


 34 39  0  0  0  0  0  0  0  0999 V2000
   -8.0805    5.1237  -15.3959 C   0  0  0  0  0  0  0  0  0  0  0  0
   -9.1145    4.7223  -16.2376 C   0  0  0  0  0  0  0  0  0  0  0  0
   -8.8471    4.5306  -17.5942 C   0  0  0  0  0  0  0  0  0  0  0  0
  -10.1446    4.1698  -18.6597 Cl  0  0  0  0  0  0  0  0  0  0  0  0
   -7.5604    4.7056  -18.1120 C   0  0  0  0  0  0  0  0  0  0  0  0
   -6.5306    5.0752  -17.2599 C   0  0  0  0  0  0  0  0  0  0  0  0
   -6.7992    5.2769  -15.9140 C   0  0  0  0  0  0  0  0  0  0  0  0
   -5.5731    5.7358  -15.2076 C   0  0  0  0  0  0  0  0  0  0  0  0
   -4.4648    5.6467  -16.3211 C   0  0  0  0  0  0  0  0  0  0  0  0
   -3.4655    4.5224  -15.9637 C   0  0  0  0  0  0  0  0  0  0  0  0
   -2.2468    5.0589  -15.2211 C   0  0  0  0  0  0  0  0  0  0  0  0
   -2.6320    6.1197  -14.3576 O   0  0  0  0  0  0  0  0  0  0  0  0
   -2.9974    7.3019  -15.0683 C   0  0  0  0  0  0  0  0  0  0  0  0
   -3.7518    7.0111  -16.3667 C   0  0  0  0  0  0  0  0  0  0  0  0
   -5.1799    5.3224  -17.5982 N   0  0  0  0  0  0  0  0  0  0  0  0
   -4.6603    5.2969  -18.9431 C   0  0  0  0  0  0  0  0  0  0  0  0
   -3.1589    5.5084  -19.1947 C   0  0  0  0  0  0  0  0  0  0  0  0
   -3.5013    6.3714  -20.3530 N   0  0  0  0  0  0  0  0  0  0  0  0
   -4.8368    6.6038  -19.7420 C   0  0  0  0  0  0  0  0  0  0  0  0
   -3.5270    5.8837  -21.2484 H   0  0  0  0  0  0  0  0  0  0  0  0
   -8.3310    4.3926  -13.0206 N   0  0  0  0  0  0  0  0  0  0  0  0
   -8.3724    5.5687  -14.0180 C   0  0  0  0  0  0  0  0  0  0  0  0
   -8.5871    6.7022  -13.8425 O   0  0  0  0  0  0  0  0  0  0  0  0
   -8.2011    3.5077  -13.4321 H   0  0  0  0  0  0  0  0  0  0  0  0
   -7.7607    2.0791   -6.7531 C   0  0  0  0  0  0  0  0  0  0  0  0
   -9.0060    2.6262   -7.2887 N   0  0  0  0  0  0  0  0  0  0  0  0
   -8.8672    4.0994   -7.4228 C   0  0  0  0  0  0  0  0  0  0  0  0
   -8.6698    4.3681   -8.8762 C   0  0  0  0  0  0  0  0  0  0  0  0
   -8.3503    5.5562   -9.5029 C   0  0  0  0  0  0  0  0  0  0  0  0
   -8.2344    5.5536  -10.8932 C   0  0  0  0  0  0  0  0  0  0  0  0
   -8.4475    4.3788  -11.6334 C   0  0  0  0  0  0  0  0  0  0  0  0
   -8.7773    3.1862  -10.9852 C   0  0  0  0  0  0  0  0  0  0  0  0
   -8.8796    3.2010   -9.6031 C   0  0  0  0  0  0  0  0  0  0  0  0
   -9.2333    2.0954   -8.6640 C   0  0  0  0  0  0  0  0  0  0  0  0
 25 26  1  0  0  0
 26 27  1  0  0  0
 27 28  1  0  0  0
 28 29  2  0  0  0
 29 30  1  0  0  0
 30 31  2  0  0  0
 31 21  1  0  0  0
 21 22  1  0  0  0
 22 23  2  0  0  0
 22  1  1  0  0  0
  1  2  2  0  0  0
  2  3  1  0  0  0
  3  4  1  0  0  0
  3  5  2  0  0  0
  5  6  1  0  0  0
  6  7  2  0  0  0
  7  8  1  0  0  0
  8  9  1  0  0  0
  9 10  1  0  0  0
 10 11  1  0  0  0
 11 12  1  0  0  0
 12 13  1  0  0  0
 13 14  1  0  0  0
  9 15  1  0  0  0
 15 16  1  0  0  0
 16 17  1  0  0  0
 17 18  1  0  0  0
 18 19  1  0  0  0
 31 32  1  0  0  0
 32 33  2  0  0  0
 33 34  1  0  0  0
 34 26  1  0  0  0
 33 28  1  0  0  0
  7  1  1  0  0  0
 14  9  1  0  0  0
 19 16  1  0  0  0
 15  6  1  0  0  0
 21 24  1  0  0  0
 18 20  1  0  0  0
M  END
> <minimizedAffinity>
-9.20412

> <minimizedRMSD>
0.56176

$$$$
P28314


 33 37  0  0  0  0  0  0  0  0999 V2000
   -8.4147    4.9929  -15.5685 C   0  0  0  0  0  0  0  0  0  0  0  0
   -9.3128    4.6124  -16.5659 C   0  0  0  0  0  0  0  0  0  0  0  0
   -8.8958    4.6240  -17.8940 C   0  0  0  0  0  0  0  0  0  0  0  0
  -10.0581    4.3199  -19.1214 Cl  0  0  0  0  0  0  0  0  0  0  0  0
   -7.5898    4.9807  -18.2635 C   0  0  0  0  0  0  0  0  0  0  0  0
   -6.7071    5.3585  -17.2404 C   0  0  0  0  0  0  0  0  0  0  0  0
   -7.0944    5.3465  -15.9026 C   0  0  0  0  0  0  0  0  0  0  0  0
   -5.9637    5.7993  -15.1933 C   0  0  0  0  0  0  0  0  0  0  0  0
   -4.9400    6.0900  -15.9926 N   0  0  0  0  0  0  0  0  0  0  0  0
   -5.4224    5.8637  -17.2314 N   0  0  0  0  0  0  0  0  0  0  0  0
   -9.6652    6.1955  -14.1419 O   0  0  0  0  0  0  0  0  0  0  0  0
   -8.8933    5.3241  -14.2183 C   0  0  0  0  0  0  0  0  0  0  0  0
   -8.2704    4.4422  -13.1191 N   0  0  0  0  0  0  0  0  0  0  0  0
   -7.6948    3.7155  -13.4505 H   0  0  0  0  0  0  0  0  0  0  0  0
   -8.3891    4.5057  -11.7341 C   0  0  0  0  0  0  0  0  0  0  0  0
   -8.2315    5.7423  -11.1089 C   0  0  0  0  0  0  0  0  0  0  0  0
   -8.3034    5.8311   -9.7332 C   0  0  0  0  0  0  0  0  0  0  0  0
   -8.1670    7.0225   -9.1364 F   0  0  0  0  0  0  0  0  0  0  0  0
   -8.5036    4.7028   -8.9621 C   0  0  0  0  0  0  0  0  0  0  0  0
   -8.6379    3.4457   -9.5643 C   0  0  0  0  0  0  0  0  0  0  0  0
   -8.6176    3.3598  -10.9680 C   0  0  0  0  0  0  0  0  0  0  0  0
   -8.7761    2.2719   -8.8051 N   0  0  0  0  0  0  0  0  0  0  0  0
   -9.8987    2.3701   -7.8522 C   0  0  0  0  0  0  0  0  0  0  0  0
   -9.3602    1.8376   -6.5305 C   0  0  0  0  0  0  0  0  0  0  0  0
   -7.8792    2.1405   -6.5983 C   0  0  0  0  0  0  0  0  0  0  0  0
   -7.5691    1.8573   -8.0606 C   0  0  0  0  0  0  0  0  0  0  0  0
   -4.6656    6.2494  -18.4344 C   0  0  0  0  0  0  0  0  0  0  0  0
   -3.1366    6.0393  -18.3402 C   0  0  0  0  0  0  0  0  0  0  0  0
   -3.1777    5.3859  -19.6714 N   0  0  0  0  0  0  0  0  0  0  0  0
   -4.6173    5.1172  -19.4505 C   0  0  0  0  0  0  0  0  0  0  0  0
   -2.4073    4.1476  -19.6401 C   0  0  0  0  0  0  0  0  0  0  0  0
   -1.6193    4.0434  -20.8223 O   0  0  0  0  0  0  0  0  0  0  0  0
   -2.2004    4.0401  -21.5989 H   0  0  0  0  0  0  0  0  0  0  0  0
 11 12  2  0  0  0
 12 13  1  0  0  0
 13 15  1  0  0  0
 15 16  2  0  0  0
 16 17  1  0  0  0
 17 18  1  0  0  0
 17 19  2  0  0  0
 19 20  1  0  0  0
 20 22  1  0  0  0
 22 23  1  0  0  0
 23 24  1  0  0  0
 24 25  1  0  0  0
 25 26  1  0  0  0
 20 21  2  0  0  0
 12  1  1  0  0  0
  1  2  2  0  0  0
  2  3  1  0  0  0
  3  4  1  0  0  0
  3  5  2  0  0  0
  5  6  1  0  0  0
  6  7  2  0  0  0
  7  8  1  0  0  0
  8  9  2  0  0  0
  9 10  1  0  0  0
 10 27  1  0  0  0
 27 28  1  0  0  0
 28 29  1  0  0  0
 29 31  1  0  0  0
 31 32  1  0  0  0
 29 30  1  0  0  0
 21 15  1  0  0  0
  7  1  1  0  0  0
 30 27  1  0  0  0
 26 22  1  0  0  0
 10  6  1  0  0  0
 13 14  1  0  0  0
 32 33  1  0  0  0
M  END
> <minimizedAffinity>
-9.35753

> <minimizedRMSD>
0.79400

$$$$
P28315


 34 38  0  0  0  0  0  0  0  0999 V2000
   -3.8198    5.5351  -16.5103 N   0  0  0  0  0  0  0  0  0  0  0  0
   -5.1879    5.3540  -16.7314 N   0  0  0  0  0  0  0  0  0  0  0  0
   -6.1042    5.3826  -15.7174 C   0  0  0  0  0  0  0  0  0  0  0  0
   -7.3243    5.1122  -16.2782 C   0  0  0  0  0  0  0  0  0  0  0  0
   -8.5566    5.0396  -15.6319 C   0  0  0  0  0  0  0  0  0  0  0  0
   -9.6077    4.7550  -16.5223 C   0  0  0  0  0  0  0  0  0  0  0  0
   -9.4062    4.5998  -17.9329 C   0  0  0  0  0  0  0  0  0  0  0  0
  -10.8128    4.3886  -18.9081 Cl  0  0  0  0  0  0  0  0  0  0  0  0
   -8.1544    4.6854  -18.5889 C   0  0  0  0  0  0  0  0  0  0  0  0
   -7.1297    4.9429  -17.6821 C   0  0  0  0  0  0  0  0  0  0  0  0
   -5.7890    5.1322  -17.9459 C   0  0  0  0  0  0  0  0  0  0  0  0
   -3.6527    5.6805  -15.5147 H   0  0  0  0  0  0  0  0  0  0  0  0
   -3.4961    6.3497  -17.0319 H   0  0  0  0  0  0  0  0  0  0  0  0
   -5.1119    5.1289  -19.3602 C   0  0  0  0  0  0  0  0  0  0  0  0
   -3.5933    4.8549  -19.4597 C   0  0  0  0  0  0  0  0  0  0  0  0
   -3.4842    5.9582  -20.4338 N   0  0  0  0  0  0  0  0  0  0  0  0
   -4.7532    6.5222  -19.9151 C   0  0  0  0  0  0  0  0  0  0  0  0
   -3.5258    5.6612  -21.4087 H   0  0  0  0  0  0  0  0  0  0  0  0
   -8.7872    5.5172  -14.2697 C   0  0  0  0  0  0  0  0  0  0  0  0
   -9.2156    6.5965  -14.1526 O   0  0  0  0  0  0  0  0  0  0  0  0
   -8.4416    4.4571  -13.2033 N   0  0  0  0  0  0  0  0  0  0  0  0
   -8.1625    3.5848  -13.5645 H   0  0  0  0  0  0  0  0  0  0  0  0
   -8.4601    4.5333  -11.8125 C   0  0  0  0  0  0  0  0  0  0  0  0
   -8.2694    5.7682  -11.1966 C   0  0  0  0  0  0  0  0  0  0  0  0
   -8.2562    5.8520   -9.8166 C   0  0  0  0  0  0  0  0  0  0  0  0
   -8.0880    7.0436   -9.2277 F   0  0  0  0  0  0  0  0  0  0  0  0
   -8.4058    4.7220   -9.0316 C   0  0  0  0  0  0  0  0  0  0  0  0
   -8.5810    3.4663   -9.6226 C   0  0  0  0  0  0  0  0  0  0  0  0
   -8.6371    3.3878  -11.0291 C   0  0  0  0  0  0  0  0  0  0  0  0
   -8.7363    2.2960   -8.8616 N   0  0  0  0  0  0  0  0  0  0  0  0
   -7.5732    1.8021   -8.1026 C   0  0  0  0  0  0  0  0  0  0  0  0
   -7.8979    2.1067   -6.6483 C   0  0  0  0  0  0  0  0  0  0  0  0
   -9.3839    1.8440   -6.6044 C   0  0  0  0  0  0  0  0  0  0  0  0
   -9.8623    2.4392   -7.9224 C   0  0  0  0  0  0  0  0  0  0  0  0
  1  2  1  0  0  0
  2  3  1  0  0  0
  3  4  2  0  0  0
  4  5  1  0  0  0
  5 19  1  0  0  0
 19 20  2  0  0  0
 19 21  1  0  0  0
 21 23  1  0  0  0
 23 24  2  0  0  0
 24 25  1  0  0  0
 25 26  1  0  0  0
 25 27  2  0  0  0
 27 28  1  0  0  0
 28 30  1  0  0  0
 30 31  1  0  0  0
 31 32  1  0  0  0
 32 33  1  0  0  0
 33 34  1  0  0  0
 28 29  2  0  0  0
  5  6  2  0  0  0
  6  7  1  0  0  0
  7  8  1  0  0  0
  7  9  2  0  0  0
  9 10  1  0  0  0
 10 11  2  0  0  0
 11 14  1  0  0  0
 14 15  1  0  0  0
 15 16  1  0  0  0
 16 17  1  0  0  0
 11  2  1  0  0  0
 17 14  1  0  0  0
 10  4  1  0  0  0
 29 23  1  0  0  0
 34 30  1  0  0  0
  1 12  1  0  0  0
  1 13  1  0  0  0
 21 22  1  0  0  0
 16 18  1  0  0  0
M  END
> <minimizedAffinity>
-9.60843

> <minimizedRMSD>
0.68794

$$$$
P28316


 37 41  0  0  0  0  0  0  0  0999 V2000
   -5.1588    5.5403  -16.2679 N   0  0  0  0  0  0  0  0  0  0  0  0
   -6.1727    5.5057  -15.3192 C   0  0  0  0  0  0  0  0  0  0  0  0
   -7.3442    5.2022  -15.9487 C   0  0  0  0  0  0  0  0  0  0  0  0
   -8.6091    5.0993  -15.3678 C   0  0  0  0  0  0  0  0  0  0  0  0
   -9.6023    4.7558  -16.3069 C   0  0  0  0  0  0  0  0  0  0  0  0
   -9.3138    4.5735  -17.6991 C   0  0  0  0  0  0  0  0  0  0  0  0
  -10.6494    4.2513  -18.7512 Cl  0  0  0  0  0  0  0  0  0  0  0  0
   -8.0250    4.6962  -18.2796 C   0  0  0  0  0  0  0  0  0  0  0  0
   -7.0541    5.0090  -17.3215 C   0  0  0  0  0  0  0  0  0  0  0  0
   -5.6955    5.2344  -17.5167 C   0  0  0  0  0  0  0  0  0  0  0  0
   -5.0756    5.1866  -18.9609 C   0  0  0  0  0  0  0  0  0  0  0  0
   -3.5946    4.9507  -19.2562 C   0  0  0  0  0  0  0  0  0  0  0  0
   -3.6664    5.9947  -20.3111 N   0  0  0  0  0  0  0  0  0  0  0  0
   -4.8426    6.5670  -19.6074 C   0  0  0  0  0  0  0  0  0  0  0  0
   -3.8661    5.6375  -21.2454 H   0  0  0  0  0  0  0  0  0  0  0  0
   -8.8952    5.4656  -13.9737 C   0  0  0  0  0  0  0  0  0  0  0  0
   -9.3776    6.5083  -13.7638 O   0  0  0  0  0  0  0  0  0  0  0  0
   -8.4112    4.3712  -12.9968 N   0  0  0  0  0  0  0  0  0  0  0  0
   -7.9655    3.6047  -13.4246 H   0  0  0  0  0  0  0  0  0  0  0  0
   -8.5029    4.2923  -11.6079 C   0  0  0  0  0  0  0  0  0  0  0  0
   -8.6445    3.0520  -11.0046 C   0  0  0  0  0  0  0  0  0  0  0  0
   -8.7278    2.9855   -9.6226 C   0  0  0  0  0  0  0  0  0  0  0  0
   -8.8956    1.7964   -9.0283 F   0  0  0  0  0  0  0  0  0  0  0  0
   -8.6508    4.1320   -8.8336 C   0  0  0  0  0  0  0  0  0  0  0  0
   -8.4985    5.3998   -9.4063 C   0  0  0  0  0  0  0  0  0  0  0  0
   -8.4325    5.4437  -10.8119 C   0  0  0  0  0  0  0  0  0  0  0  0
   -8.4114    6.5411   -8.6416 N   0  0  0  0  0  0  0  0  0  0  0  0
   -8.8573    6.6550   -7.2583 C   0  0  0  0  0  0  0  0  0  0  0  0
   -8.2405    7.9671   -6.7823 C   0  0  0  0  0  0  0  0  0  0  0  0
   -8.2153    8.8152   -8.0409 C   0  0  0  0  0  0  0  0  0  0  0  0
   -7.8789    7.8104   -9.1386 C   0  0  0  0  0  0  0  0  0  0  0  0
   -3.3006    7.2198  -16.4497 C   0  0  0  0  0  0  0  0  0  0  0  0
   -3.8048    5.9131  -15.8349 C   0  0  0  0  0  0  0  0  0  0  0  0
   -2.8429    4.7154  -15.8442 C   0  0  0  0  0  0  0  0  0  0  0  0
   -2.9341    3.8323  -14.6788 N   0  0  0  0  0  0  0  0  0  0  0  0
   -2.6804    4.3514  -13.8383 H   0  0  0  0  0  0  0  0  0  0  0  0
   -2.2964    3.0452  -14.7979 H   0  0  0  0  0  0  0  0  0  0  0  0
 33 32  1  0  0  0
 33 34  1  0  0  0
 34 35  1  0  0  0
 33  1  1  0  0  0
  1  2  1  0  0  0
  2  3  2  0  0  0
  3  4  1  0  0  0
  4 16  1  0  0  0
 16 17  2  0  0  0
 16 18  1  0  0  0
 18 20  1  0  0  0
 20 21  2  0  0  0
 21 22  1  0  0  0
 22 23  1  0  0  0
 22 24  2  0  0  0
 24 25  1  0  0  0
 25 27  1  0  0  0
 27 28  1  0  0  0
 28 29  1  0  0  0
 29 30  1  0  0  0
 30 31  1  0  0  0
 25 26  2  0  0  0
  4  5  2  0  0  0
  5  6  1  0  0  0
  6  7  1  0  0  0
  6  8  2  0  0  0
  8  9  1  0  0  0
  9 10  2  0  0  0
 10 11  1  0  0  0
 11 12  1  0  0  0
 12 13  1  0  0  0
 13 14  1  0  0  0
 10  1  1  0  0  0
 14 11  1  0  0  0
  9  3  1  0  0  0
 26 20  1  0  0  0
 31 27  1  0  0  0
 35 36  1  0  0  0
 35 37  1  0  0  0
 18 19  1  0  0  0
 13 15  1  0  0  0
M  END
> <minimizedAffinity>
-8.27945

> <minimizedRMSD>
0.99665

$$$$
P28318


 50 56  0  0  0  0  0  0  0  0999 V2000
   -5.1406    5.5896  -18.0498 N   0  0  0  0  0  0  0  0  0  0  0  0
   -4.1893    5.8059  -17.1108 N   0  0  0  0  0  0  0  0  0  0  0  0
   -4.7726    5.4881  -15.9597 C   0  0  0  0  0  0  0  0  0  0  0  0
   -6.1231    5.1271  -16.1161 C   0  0  0  0  0  0  0  0  0  0  0  0
   -7.1743    4.7727  -15.2443 C   0  0  0  0  0  0  0  0  0  0  0  0
   -8.4525    4.5589  -15.7639 C   0  0  0  0  0  0  0  0  0  0  0  0
   -8.6638    4.6852  -17.1343 C   0  0  0  0  0  0  0  0  0  0  0  0
  -10.2724    4.6175  -17.7291 Cl  0  0  0  0  0  0  0  0  0  0  0  0
   -7.6230    4.9638  -18.0305 C   0  0  0  0  0  0  0  0  0  0  0  0
   -6.3533    5.2123  -17.4932 C   0  0  0  0  0  0  0  0  0  0  0  0
   -4.1943    7.0148  -19.9695 C   0  0  0  0  0  0  0  0  0  0  0  0
   -2.8725    6.4164  -19.7634 N   0  0  0  0  0  0  0  0  0  0  0  0
   -3.4525    5.0598  -19.8025 C   0  0  0  0  0  0  0  0  0  0  0  0
   -4.8406    5.6695  -19.5239 C   0  0  0  0  0  0  0  0  0  0  0  0
   -2.4453    6.6571  -18.8689 H   0  0  0  0  0  0  0  0  0  0  0  0
   -4.2179    7.2547  -21.4097 N   0  0  0  0  0  0  0  0  0  0  0  0
   -3.4238    7.8502  -21.6448 H   0  0  0  0  0  0  0  0  0  0  0  0
   -5.4396    7.9040  -21.9092 C   0  0  0  0  0  0  0  0  0  0  0  0
   -5.2130    9.2198  -22.6387 C   0  0  0  0  0  0  0  0  0  0  0  0
   -4.5925   10.1556  -25.9071 C   0  0  0  0  0  0  0  0  0  0  0  0
   -5.4736    8.8346  -25.1709 S   0  0  0  0  0  0  0  0  0  0  0  0
   -4.6387    7.6605  -25.3194 O   0  0  0  0  0  0  0  0  0  0  0  0
   -6.0502    9.3791  -23.8421 N   0  0  0  0  0  0  0  0  0  0  0  0
   -6.9718    8.4983  -26.0728 C   0  0  0  0  0  0  0  0  0  0  0  0
   -7.4106    7.2465  -26.1668 N   0  0  0  0  0  0  0  0  0  0  0  0
   -8.6138    7.2774  -26.8006 C   0  0  0  0  0  0  0  0  0  0  0  0
   -8.9264    8.5641  -27.1404 C   0  0  0  0  0  0  0  0  0  0  0  0
   -7.8617    9.3387  -26.7191 N   0  0  0  0  0  0  0  0  0  0  0  0
   -7.7311   10.7270  -27.1320 C   0  0  0  0  0  0  0  0  0  0  0  0
   -8.3601   11.6860  -26.1722 C   0  0  0  0  0  0  0  0  0  0  0  0
   -7.7381   12.3588  -25.1345 C   0  0  0  0  0  0  0  0  0  0  0  0
   -8.8489   13.3934  -24.3343 S   0  0  0  0  0  0  0  0  0  0  0  0
  -10.0676   12.8986  -25.4322 C   0  0  0  0  0  0  0  0  0  0  0  0
   -9.6978   12.0267  -26.3478 N   0  0  0  0  0  0  0  0  0  0  0  0
   -6.9444    4.8224  -13.7802 C   0  0  0  0  0  0  0  0  0  0  0  0
   -5.9102    5.2203  -13.4102 O   0  0  0  0  0  0  0  0  0  0  0  0
   -8.1598    4.2930  -12.9812 N   0  0  0  0  0  0  0  0  0  0  0  0
   -8.8945    3.9406  -13.5337 H   0  0  0  0  0  0  0  0  0  0  0  0
   -8.3839    4.2338  -11.6028 C   0  0  0  0  0  0  0  0  0  0  0  0
   -8.5845    2.9999  -11.0003 C   0  0  0  0  0  0  0  0  0  0  0  0
   -8.8015    2.9428   -9.6318 C   0  0  0  0  0  0  0  0  0  0  0  0
   -9.0281    1.7579   -9.0479 F   0  0  0  0  0  0  0  0  0  0  0  0
   -8.7983    4.0947   -8.8493 C   0  0  0  0  0  0  0  0  0  0  0  0
   -8.5825    5.3562   -9.4164 C   0  0  0  0  0  0  0  0  0  0  0  0
   -8.3897    5.3910  -10.8125 C   0  0  0  0  0  0  0  0  0  0  0  0
   -8.5571    6.5015   -8.6529 N   0  0  0  0  0  0  0  0  0  0  0  0
   -9.0759    7.7935   -9.1030 C   0  0  0  0  0  0  0  0  0  0  0  0
   -8.4502    8.7981   -8.1387 C   0  0  0  0  0  0  0  0  0  0  0  0
   -8.3142    8.0011   -6.8549 C   0  0  0  0  0  0  0  0  0  0  0  0
   -7.9089    6.6156   -7.3495 C   0  0  0  0  0  0  0  0  0  0  0  0
 21 20  1  0  0  0
 21 22  2  0  0  0
 21 23  2  0  0  0
 23 19  1  0  0  0
 19 18  1  0  0  0
 18 16  1  0  0  0
 11 16  1  0  0  0
 11 12  1  0  0  0
 12 13  1  0  0  0
 13 14  1  0  0  0
 14  1  1  0  0  0
  1  2  1  0  0  0
  2  3  2  0  0  0
  3  4  1  0  0  0
  4  5  2  0  0  0
  5 35  1  0  0  0
 35 36  2  0  0  0
 35 37  1  0  0  0
 37 39  1  0  0  0
 39 40  2  0  0  0
 40 41  1  0  0  0
 41 42  1  0  0  0
 41 43  2  0  0  0
 43 44  1  0  0  0
 44 46  1  0  0  0
 46 47  1  0  0  0
 47 48  1  0  0  0
 48 49  1  0  0  0
 49 50  1  0  0  0
 44 45  2  0  0  0
  5  6  1  0  0  0
  6  7  2  0  0  0
  7  8  1  0  0  0
  7  9  1  0  0  0
  9 10  2  0  0  0
 21 24  1  0  0  0
 24 25  2  0  0  0
 25 26  1  0  0  0
 26 27  2  0  0  0
 27 28  1  0  0  0
 28 29  1  0  0  0
 29 30  1  0  0  0
 30 31  2  0  0  0
 31 32  1  0  0  0
 32 33  1  0  0  0
 33 34  2  0  0  0
 14 11  1  0  0  0
 10  1  1  0  0  0
 28 24  1  0  0  0
 34 30  1  0  0  0
 10  4  1  0  0  0
 45 39  1  0  0  0
 50 46  1  0  0  0
 16 17  1  0  0  0
 12 15  1  0  0  0
 37 38  1  0  0  0
M  END
> <minimizedAffinity>
-7.92032

> <minimizedRMSD>
0.78427

$$$$
P28320


 35 39  0  0  0  0  0  0  0  0999 V2000
   -8.4657    5.0124  -15.5590 C   0  0  0  0  0  0  0  0  0  0  0  0
   -9.5008    4.7973  -16.4588 C   0  0  0  0  0  0  0  0  0  0  0  0
   -9.1961    4.6533  -17.8158 C   0  0  0  0  0  0  0  0  0  0  0  0
  -10.4932    4.4778  -18.9253 Cl  0  0  0  0  0  0  0  0  0  0  0  0
   -7.8752    4.7217  -18.2832 C   0  0  0  0  0  0  0  0  0  0  0  0
   -6.8568    4.9017  -17.3640 C   0  0  0  0  0  0  0  0  0  0  0  0
   -7.1622    5.0316  -16.0150 C   0  0  0  0  0  0  0  0  0  0  0  0
   -5.9072    5.2358  -15.2580 C   0  0  0  0  0  0  0  0  0  0  0  0
   -5.6438    4.2439  -14.3731 F   0  0  0  0  0  0  0  0  0  0  0  0
   -5.8136    6.4089  -14.5916 F   0  0  0  0  0  0  0  0  0  0  0  0
   -4.8308    5.1905  -16.2601 N   0  0  0  0  0  0  0  0  0  0  0  0
   -5.4577    4.9957  -17.5630 N   0  0  0  0  0  0  0  0  0  0  0  0
   -4.1983    4.4163  -16.0580 H   0  0  0  0  0  0  0  0  0  0  0  0
   -4.8156    5.7182  -18.6366 C   0  0  0  0  0  0  0  0  0  0  0  0
   -3.3282    5.3158  -18.7883 C   0  0  0  0  0  0  0  0  0  0  0  0
   -3.5101    5.2114  -20.2414 N   0  0  0  0  0  0  0  0  0  0  0  0
   -4.9788    5.1435  -20.0378 C   0  0  0  0  0  0  0  0  0  0  0  0
   -3.1056    4.3711  -20.6545 H   0  0  0  0  0  0  0  0  0  0  0  0
   -8.2485    4.5847  -13.1048 N   0  0  0  0  0  0  0  0  0  0  0  0
   -8.7436    5.5233  -14.2163 C   0  0  0  0  0  0  0  0  0  0  0  0
   -9.2365    6.5768  -14.1515 O   0  0  0  0  0  0  0  0  0  0  0  0
   -7.7946    3.7715  -13.4240 H   0  0  0  0  0  0  0  0  0  0  0  0
   -8.6946    5.2490   -7.4665 C   0  0  0  0  0  0  0  0  0  0  0  0
   -8.5229    4.9756   -8.9298 C   0  0  0  0  0  0  0  0  0  0  0  0
   -8.3060    6.0711   -9.7616 C   0  0  0  0  0  0  0  0  0  0  0  0
   -8.1588    7.2867   -9.2222 F   0  0  0  0  0  0  0  0  0  0  0  0
   -8.2229    5.9492  -11.1361 C   0  0  0  0  0  0  0  0  0  0  0  0
   -8.3371    4.6970  -11.7222 C   0  0  0  0  0  0  0  0  0  0  0  0
   -8.4990    3.5742  -10.9144 C   0  0  0  0  0  0  0  0  0  0  0  0
   -8.5677    3.6949   -9.5085 C   0  0  0  0  0  0  0  0  0  0  0  0
   -8.7031    2.5124   -8.7840 N   0  0  0  0  0  0  0  0  0  0  0  0
   -7.5562    1.9963   -8.0429 C   0  0  0  0  0  0  0  0  0  0  0  0
   -8.0028    1.9317   -6.5925 C   0  0  0  0  0  0  0  0  0  0  0  0
   -9.4996    1.7396   -6.6804 C   0  0  0  0  0  0  0  0  0  0  0  0
   -9.8912    2.4909   -7.9395 C   0  0  0  0  0  0  0  0  0  0  0  0
 23 24  1  0  0  0
 24 25  2  0  0  0
 25 26  1  0  0  0
 25 27  1  0  0  0
 27 28  2  0  0  0
 28 19  1  0  0  0
 19 20  1  0  0  0
 20 21  2  0  0  0
 20  1  1  0  0  0
  1  2  2  0  0  0
  2  3  1  0  0  0
  3  4  1  0  0  0
  3  5  2  0  0  0
  5  6  1  0  0  0
  6  7  2  0  0  0
  7  8  1  0  0  0
  8  9  1  0  0  0
  8 10  1  0  0  0
  8 11  1  0  0  0
 11 12  1  0  0  0
 12 14  1  0  0  0
 14 15  1  0  0  0
 15 16  1  0  0  0
 16 17  1  0  0  0
 28 29  1  0  0  0
 29 30  2  0  0  0
 30 31  1  0  0  0
 31 32  1  0  0  0
 32 33  1  0  0  0
 33 34  1  0  0  0
 34 35  1  0  0  0
 30 24  1  0  0  0
 35 31  1  0  0  0
  7  1  1  0  0  0
 17 14  1  0  0  0
 12  6  1  0  0  0
 19 22  1  0  0  0
 11 13  1  0  0  0
 16 18  1  0  0  0
M  END
> <minimizedAffinity>
-9.31660

> <minimizedRMSD>
0.61541

$$$$
P28321


 33 37  0  0  0  0  0  0  0  0999 V2000
   -3.3048    5.4492  -15.7873 C   0  0  0  0  0  0  0  0  0  0  0  0
   -4.6842    5.2691  -16.1753 N   0  0  0  0  0  0  0  0  0  0  0  0
   -5.1710    5.3267  -17.4697 C   0  0  0  0  0  0  0  0  0  0  0  0
   -6.5039    4.9643  -17.4052 C   0  0  0  0  0  0  0  0  0  0  0  0
   -7.4394    4.7897  -18.4276 C   0  0  0  0  0  0  0  0  0  0  0  0
   -8.7608    4.6320  -17.9257 C   0  0  0  0  0  0  0  0  0  0  0  0
  -10.0569    4.5008  -19.0553 Cl  0  0  0  0  0  0  0  0  0  0  0  0
   -9.1197    4.6813  -16.5443 C   0  0  0  0  0  0  0  0  0  0  0  0
   -8.1660    4.8681  -15.5283 C   0  0  0  0  0  0  0  0  0  0  0  0
   -6.8623    4.9666  -16.0154 C   0  0  0  0  0  0  0  0  0  0  0  0
   -5.7169    5.1497  -15.2941 C   0  0  0  0  0  0  0  0  0  0  0  0
   -5.5985    5.2004  -13.9623 F   0  0  0  0  0  0  0  0  0  0  0  0
   -4.2853    5.9394  -18.5884 C   0  0  0  0  0  0  0  0  0  0  0  0
   -3.6909    4.9817  -19.6421 C   0  0  0  0  0  0  0  0  0  0  0  0
   -3.6479    6.1660  -20.5459 N   0  0  0  0  0  0  0  0  0  0  0  0
   -4.8459    6.6658  -19.8022 C   0  0  0  0  0  0  0  0  0  0  0  0
   -3.8108    5.9591  -21.5314 H   0  0  0  0  0  0  0  0  0  0  0  0
   -8.5399    5.3653  -14.2082 C   0  0  0  0  0  0  0  0  0  0  0  0
   -8.9281    6.4640  -14.1516 O   0  0  0  0  0  0  0  0  0  0  0  0
   -8.3139    4.3280  -13.0940 N   0  0  0  0  0  0  0  0  0  0  0  0
   -8.0489    3.4342  -13.4106 H   0  0  0  0  0  0  0  0  0  0  0  0
   -8.4230    4.4474  -11.7143 C   0  0  0  0  0  0  0  0  0  0  0  0
   -8.3007    5.7097  -11.1426 C   0  0  0  0  0  0  0  0  0  0  0  0
   -8.3564    5.8405   -9.7701 C   0  0  0  0  0  0  0  0  0  0  0  0
   -8.2104    7.0442   -9.2099 F   0  0  0  0  0  0  0  0  0  0  0  0
   -8.5468    4.7481   -8.9497 C   0  0  0  0  0  0  0  0  0  0  0  0
   -8.6622    3.4705   -9.4970 C   0  0  0  0  0  0  0  0  0  0  0  0
   -8.6069    3.3293  -10.8978 C   0  0  0  0  0  0  0  0  0  0  0  0
   -8.8755    2.3393   -8.6942 N   0  0  0  0  0  0  0  0  0  0  0  0
   -7.7228    1.7753   -7.9701 C   0  0  0  0  0  0  0  0  0  0  0  0
   -7.9504    2.1652   -6.5178 C   0  0  0  0  0  0  0  0  0  0  0  0
   -9.4477    2.0216   -6.3943 C   0  0  0  0  0  0  0  0  0  0  0  0
   -9.9439    2.5985   -7.7144 C   0  0  0  0  0  0  0  0  0  0  0  0
  1  2  1  0  0  0
  2  3  1  0  0  0
  3 13  1  0  0  0
 13 14  1  0  0  0
 14 15  1  0  0  0
 15 16  1  0  0  0
  3  4  2  0  0  0
  4  5  1  0  0  0
  5  6  2  0  0  0
  6  7  1  0  0  0
  6  8  1  0  0  0
  8  9  2  0  0  0
  9 18  1  0  0  0
 18 19  2  0  0  0
 18 20  1  0  0  0
 20 22  1  0  0  0
 22 23  2  0  0  0
 23 24  1  0  0  0
 24 25  1  0  0  0
 24 26  2  0  0  0
 26 27  1  0  0  0
 27 29  1  0  0  0
 29 30  1  0  0  0
 30 31  1  0  0  0
 31 32  1  0  0  0
 32 33  1  0  0  0
 27 28  2  0  0  0
  9 10  1  0  0  0
 10 11  2  0  0  0
 11 12  1  0  0  0
 11  2  1  0  0  0
 16 13  1  0  0  0
 10  4  1  0  0  0
 28 22  1  0  0  0
 33 29  1  0  0  0
 15 17  1  0  0  0
 20 21  1  0  0  0
M  END
> <minimizedAffinity>
-9.73200

> <minimizedRMSD>
0.65199

$$$$
P28322


 37 41  0  0  0  0  0  0  0  0999 V2000
   -8.1712    4.2123  -13.0301 N   0  0  0  0  0  0  0  0  0  0  0  0
   -8.7728    5.1578  -14.0897 C   0  0  0  0  0  0  0  0  0  0  0  0
   -9.5738    6.0002  -13.9846 O   0  0  0  0  0  0  0  0  0  0  0  0
   -7.5599    3.5284  -13.3876 H   0  0  0  0  0  0  0  0  0  0  0  0
   -8.2508    4.8859  -15.4476 C   0  0  0  0  0  0  0  0  0  0  0  0
   -9.1161    4.6388  -16.5175 C   0  0  0  0  0  0  0  0  0  0  0  0
   -8.6174    4.6432  -17.8194 C   0  0  0  0  0  0  0  0  0  0  0  0
   -9.7102    4.3726  -19.1223 Cl  0  0  0  0  0  0  0  0  0  0  0  0
   -7.2733    4.9405  -18.0982 C   0  0  0  0  0  0  0  0  0  0  0  0
   -6.4165    5.1579  -17.0090 C   0  0  0  0  0  0  0  0  0  0  0  0
   -6.8777    5.0727  -15.6932 C   0  0  0  0  0  0  0  0  0  0  0  0
   -5.7242    5.2235  -14.9002 C   0  0  0  0  0  0  0  0  0  0  0  0
   -4.6219    5.3856  -15.6308 N   0  0  0  0  0  0  0  0  0  0  0  0
   -5.0941    5.5603  -16.8903 N   0  0  0  0  0  0  0  0  0  0  0  0
   -4.5001    6.6670  -17.6576 C   0  0  0  0  0  0  0  0  0  0  0  0
   -5.0370    7.0589  -19.0381 C   0  0  0  0  0  0  0  0  0  0  0  0
   -3.6167    7.3821  -19.3772 N   0  0  0  0  0  0  0  0  0  0  0  0
   -3.2760    7.2123  -20.7709 C   0  0  0  0  0  0  0  0  0  0  0  0
   -3.2062    6.2688  -18.4599 C   0  0  0  0  0  0  0  0  0  0  0  0
   -2.9543    4.8702  -19.0640 C   0  0  0  0  0  0  0  0  0  0  0  0
   -3.8736    4.5215  -20.0962 O   0  0  0  0  0  0  0  0  0  0  0  0
   -4.7726    4.4942  -19.7330 H   0  0  0  0  0  0  0  0  0  0  0  0
   -8.4722    5.2886   -9.4779 C   0  0  0  0  0  0  0  0  0  0  0  0
   -8.8156    4.0598   -8.9019 C   0  0  0  0  0  0  0  0  0  0  0  0
   -8.9247    2.9186   -9.6817 C   0  0  0  0  0  0  0  0  0  0  0  0
   -9.2902    1.7653   -9.1079 F   0  0  0  0  0  0  0  0  0  0  0  0
   -8.6956    2.9630  -11.0484 C   0  0  0  0  0  0  0  0  0  0  0  0
   -8.3521    4.1684  -11.6473 C   0  0  0  0  0  0  0  0  0  0  0  0
   -8.2239    5.3195  -10.8603 C   0  0  0  0  0  0  0  0  0  0  0  0
   -7.0098    6.7179   -8.2148 C   0  0  0  0  0  0  0  0  0  0  0  0
   -7.0084    8.2533   -8.0771 C   0  0  0  0  0  0  0  0  0  0  0  0
   -7.9586    8.6854   -9.1776 C   0  0  0  0  0  0  0  0  0  0  0  0
   -9.0687    7.6541   -9.0519 C   0  0  0  0  0  0  0  0  0  0  0  0
   -8.3916    6.4109   -8.6448 N   0  0  0  0  0  0  0  0  0  0  0  0
   -5.5192    5.0833   -7.2317 C   0  0  0  0  0  0  0  0  0  0  0  0
   -6.5280    6.1031   -6.9814 N   0  0  0  0  0  0  0  0  0  0  0  0
   -6.1221    6.8281   -6.3899 H   0  0  0  0  0  0  0  0  0  0  0  0
 35 36  1  0  0  0
 30 36  1  0  0  0
 30 31  1  0  0  0
 31 32  1  0  0  0
 32 33  1  0  0  0
 33 34  1  0  0  0
 34 23  1  0  0  0
 23 24  2  0  0  0
 24 25  1  0  0  0
 25 26  1  0  0  0
 25 27  2  0  0  0
 27 28  1  0  0  0
 28  1  1  0  0  0
  1  2  1  0  0  0
  2  3  2  0  0  0
  2  5  1  0  0  0
  5  6  2  0  0  0
  6  7  1  0  0  0
  7  8  1  0  0  0
  7  9  2  0  0  0
  9 10  1  0  0  0
 10 11  2  0  0  0
 11 12  1  0  0  0
 12 13  2  0  0  0
 13 14  1  0  0  0
 15 14  1  0  0  0
 15 16  1  0  0  0
 16 17  1  0  0  0
 17 18  1  0  0  0
 17 19  1  0  0  0
 19 20  1  0  0  0
 20 21  1  0  0  0
 28 29  2  0  0  0
 34 30  1  0  0  0
 29 23  1  0  0  0
 11  5  1  0  0  0
 19 15  1  0  0  0
 14 10  1  0  0  0
 36 37  1  0  0  0
  1  4  1  0  0  0
 21 22  1  0  0  0
M  END
> <minimizedAffinity>
-8.40313

> <minimizedRMSD>
0.86433

$$$$
P28323


 33 37  0  0  0  0  0  0  0  0999 V2000
   -4.6472    5.5850  -17.0188 N   0  0  0  0  0  0  0  0  0  0  0  0
   -5.3958    5.5678  -15.8722 C   0  0  0  0  0  0  0  0  0  0  0  0
   -6.6740    5.2281  -16.2389 C   0  0  0  0  0  0  0  0  0  0  0  0
   -7.8062    5.1674  -15.4232 C   0  0  0  0  0  0  0  0  0  0  0  0
   -8.9666    4.8256  -16.1460 C   0  0  0  0  0  0  0  0  0  0  0  0
   -8.9556    4.5973  -17.5620 C   0  0  0  0  0  0  0  0  0  0  0  0
  -10.4736    4.3788  -18.3468 Cl  0  0  0  0  0  0  0  0  0  0  0  0
   -7.8047    4.6518  -18.3833 C   0  0  0  0  0  0  0  0  0  0  0  0
   -6.6753    4.9861  -17.6430 C   0  0  0  0  0  0  0  0  0  0  0  0
   -5.3997    5.2117  -18.1073 C   0  0  0  0  0  0  0  0  0  0  0  0
   -4.9174    5.0904  -19.5884 C   0  0  0  0  0  0  0  0  0  0  0  0
   -3.4502    4.7010  -19.8033 C   0  0  0  0  0  0  0  0  0  0  0  0
   -3.1370    6.0559  -20.2722 N   0  0  0  0  0  0  0  0  0  0  0  0
   -4.5660    6.4153  -20.2806 C   0  0  0  0  0  0  0  0  0  0  0  0
   -2.6998    6.0825  -21.1934 H   0  0  0  0  0  0  0  0  0  0  0  0
   -7.8376    5.7732  -14.0934 C   0  0  0  0  0  0  0  0  0  0  0  0
   -7.4206    6.8623  -14.0199 O   0  0  0  0  0  0  0  0  0  0  0  0
   -8.3985    4.8389  -12.9971 N   0  0  0  0  0  0  0  0  0  0  0  0
   -8.7621    3.9862  -13.3286 H   0  0  0  0  0  0  0  0  0  0  0  0
   -8.4732    5.0075  -11.6147 C   0  0  0  0  0  0  0  0  0  0  0  0
   -8.4724    6.3099  -11.1276 C   0  0  0  0  0  0  0  0  0  0  0  0
   -8.4993    6.5231   -9.7704 C   0  0  0  0  0  0  0  0  0  0  0  0
   -8.4685    7.7655   -9.2843 F   0  0  0  0  0  0  0  0  0  0  0  0
   -8.5394    5.4727   -8.8829 C   0  0  0  0  0  0  0  0  0  0  0  0
   -8.5477    4.1456   -9.3189 C   0  0  0  0  0  0  0  0  0  0  0  0
   -8.5072    3.9280  -10.7159 C   0  0  0  0  0  0  0  0  0  0  0  0
   -8.5683    3.1463   -8.3759 N   0  0  0  0  0  0  0  0  0  0  0  0
   -8.0364    3.3302   -7.0204 C   0  0  0  0  0  0  0  0  0  0  0  0
   -8.3449    2.0302   -6.3079 C   0  0  0  0  0  0  0  0  0  0  0  0
   -9.6122    1.5847   -6.9948 C   0  0  0  0  0  0  0  0  0  0  0  0
   -9.3559    1.9303   -8.4563 C   0  0  0  0  0  0  0  0  0  0  0  0
   -3.0937    7.2634  -16.8102 C   0  0  0  0  0  0  0  0  0  0  0  0
   -3.2815    5.8738  -17.0486 O   0  0  0  0  0  0  0  0  0  0  0  0
 32 33  1  0  0  0
 33  1  1  0  0  0
  1  2  1  0  0  0
  2  3  2  0  0  0
  3  4  1  0  0  0
  4 16  1  0  0  0
 16 17  2  0  0  0
 16 18  1  0  0  0
 18 20  1  0  0  0
 20 21  2  0  0  0
 21 22  1  0  0  0
 22 23  1  0  0  0
 22 24  2  0  0  0
 24 25  1  0  0  0
 25 27  1  0  0  0
 27 28  1  0  0  0
 28 29  1  0  0  0
 29 30  1  0  0  0
 30 31  1  0  0  0
 25 26  2  0  0  0
  4  5  2  0  0  0
  5  6  1  0  0  0
  6  7  1  0  0  0
  6  8  2  0  0  0
  8  9  1  0  0  0
  9 10  2  0  0  0
 10 11  1  0  0  0
 11 12  1  0  0  0
 12 13  1  0  0  0
 13 14  1  0  0  0
 10  1  1  0  0  0
 14 11  1  0  0  0
  9  3  1  0  0  0
 26 20  1  0  0  0
 31 27  1  0  0  0
 18 19  1  0  0  0
 13 15  1  0  0  0
M  END
> <minimizedAffinity>
-8.60899

> <minimizedRMSD>
0.40748

$$$$
P28333


 33 37  0  0  0  0  0  0  0  0999 V2000
   -7.7585    5.1617  -14.0180 C   0  0  0  0  0  0  0  0  0  0  0  0
   -7.6470    4.9316  -15.5269 C   0  0  0  0  0  0  0  0  0  0  0  0
   -8.8048    4.6838  -16.2990 C   0  0  0  0  0  0  0  0  0  0  0  0
   -8.7810    4.6695  -17.6873 C   0  0  0  0  0  0  0  0  0  0  0  0
  -10.2480    4.5649  -18.5679 Cl  0  0  0  0  0  0  0  0  0  0  0  0
   -7.5937    4.8219  -18.3890 C   0  0  0  0  0  0  0  0  0  0  0  0
   -6.4275    5.0011  -17.6406 C   0  0  0  0  0  0  0  0  0  0  0  0
   -6.4290    5.0497  -16.2471 C   0  0  0  0  0  0  0  0  0  0  0  0
   -5.0674    5.2562  -15.9172 C   0  0  0  0  0  0  0  0  0  0  0  0
   -4.2683    5.3374  -16.9870 N   0  0  0  0  0  0  0  0  0  0  0  0
   -5.1201    5.1963  -18.0209 N   0  0  0  0  0  0  0  0  0  0  0  0
   -4.7111    5.2838  -19.4335 C   0  0  0  0  0  0  0  0  0  0  0  0
   -3.2702    4.8519  -19.7485 C   0  0  0  0  0  0  0  0  0  0  0  0
   -3.1938    6.0081  -20.6962 N   0  0  0  0  0  0  0  0  0  0  0  0
   -4.2056    6.6833  -19.8264 C   0  0  0  0  0  0  0  0  0  0  0  0
   -3.5118    5.8057  -21.6440 H   0  0  0  0  0  0  0  0  0  0  0  0
   -9.9595    6.1962  -13.8937 O   0  0  0  0  0  0  0  0  0  0  0  0
   -8.7119    6.3884  -13.7386 C   0  0  0  0  0  0  0  0  0  0  0  0
   -8.1294    7.4438  -13.3393 O   0  0  0  0  0  0  0  0  0  0  0  0
   -8.1338    3.9141  -13.3033 N   0  0  0  0  0  0  0  0  0  0  0  0
   -8.8197    3.3028  -13.6570 H   0  0  0  0  0  0  0  0  0  0  0  0
   -7.4554    3.6470  -12.0866 C   0  0  0  0  0  0  0  0  0  0  0  0
   -6.0844    3.8572  -11.9011 C   0  0  0  0  0  0  0  0  0  0  0  0
   -5.4799    3.6195  -10.6789 C   0  0  0  0  0  0  0  0  0  0  0  0
   -4.1781    3.8979  -10.5206 F   0  0  0  0  0  0  0  0  0  0  0  0
   -6.1875    3.0744   -9.6280 C   0  0  0  0  0  0  0  0  0  0  0  0
   -7.5331    2.7429   -9.7880 C   0  0  0  0  0  0  0  0  0  0  0  0
   -8.1607    3.0676  -11.0141 C   0  0  0  0  0  0  0  0  0  0  0  0
   -8.2741    2.1296   -8.7610 N   0  0  0  0  0  0  0  0  0  0  0  0
   -7.6581    2.0046   -7.4310 C   0  0  0  0  0  0  0  0  0  0  0  0
   -8.3792    3.0333   -6.5743 C   0  0  0  0  0  0  0  0  0  0  0  0
   -9.7908    2.9258   -7.0991 C   0  0  0  0  0  0  0  0  0  0  0  0
   -9.5753    2.7965   -8.6036 C   0  0  0  0  0  0  0  0  0  0  0  0
 17 18  2  0  0  0
 18 19  1  0  0  0
 18  1  1  0  0  0
  1 20  1  0  0  0
 20 22  1  0  0  0
 22 23  2  0  0  0
 23 24  1  0  0  0
 24 25  1  0  0  0
 24 26  2  0  0  0
 26 27  1  0  0  0
 27 29  1  0  0  0
 29 30  1  0  0  0
 30 31  1  0  0  0
 31 32  1  0  0  0
 32 33  1  0  0  0
 27 28  2  0  0  0
  1  2  1  0  0  0
  2  3  2  0  0  0
  3  4  1  0  0  0
  4  5  1  0  0  0
  4  6  2  0  0  0
  6  7  1  0  0  0
  7  8  2  0  0  0
  8  9  1  0  0  0
  9 10  2  0  0  0
 10 11  1  0  0  0
 11 12  1  0  0  0
 12 13  1  0  0  0
 13 14  1  0  0  0
 14 15  1  0  0  0
 28 22  1  0  0  0
  8  2  1  0  0  0
 15 12  1  0  0  0
 33 29  1  0  0  0
 11  7  1  0  0  0
 20 21  1  0  0  0
 14 16  1  0  0  0
M  CHG 1  19  -1
M  END
> <minimizedAffinity>
-8.89123

> <minimizedRMSD>
1.44694

$$$$
P28341


 37 41  0  0  0  0  0  0  0  0999 V2000
   -7.0354    5.0149  -13.6137 C   0  0  0  0  0  0  0  0  0  0  0  0
   -6.7709    6.3845  -13.3188 O   0  0  0  0  0  0  0  0  0  0  0  0
   -6.6855    6.4980  -12.3592 H   0  0  0  0  0  0  0  0  0  0  0  0
   -7.1493    4.9619  -15.1526 C   0  0  0  0  0  0  0  0  0  0  0  0
   -8.3956    4.7641  -15.8111 C   0  0  0  0  0  0  0  0  0  0  0  0
   -8.5123    4.6914  -17.2014 C   0  0  0  0  0  0  0  0  0  0  0  0
  -10.0472    4.4836  -17.9500 Cl  0  0  0  0  0  0  0  0  0  0  0  0
   -7.4034    4.8162  -18.0251 C   0  0  0  0  0  0  0  0  0  0  0  0
   -6.1758    5.0590  -17.4089 C   0  0  0  0  0  0  0  0  0  0  0  0
   -6.0316    5.1453  -16.0225 C   0  0  0  0  0  0  0  0  0  0  0  0
   -4.6583    5.4544  -15.8602 C   0  0  0  0  0  0  0  0  0  0  0  0
   -3.9820    5.5130  -17.0058 N   0  0  0  0  0  0  0  0  0  0  0  0
   -4.9170    5.2530  -17.9353 N   0  0  0  0  0  0  0  0  0  0  0  0
   -4.6211    5.1944  -19.3759 C   0  0  0  0  0  0  0  0  0  0  0  0
   -3.2043    4.7088  -19.7345 C   0  0  0  0  0  0  0  0  0  0  0  0
   -3.1696    5.7651  -20.7882 N   0  0  0  0  0  0  0  0  0  0  0  0
   -4.1311    6.5359  -19.9474 C   0  0  0  0  0  0  0  0  0  0  0  0
   -3.5347    5.4744  -21.6952 H   0  0  0  0  0  0  0  0  0  0  0  0
   -3.6169    4.5801  -11.6459 C   0  0  0  0  0  0  0  0  0  0  0  0
   -4.8412    4.9278  -12.3016 N   0  0  0  0  0  0  0  0  0  0  0  0
   -5.8750    4.0369  -13.0506 C   0  0  0  0  0  0  0  0  0  0  0  0
   -5.9221    2.8736  -13.1786 O   0  0  0  0  0  0  0  0  0  0  0  0
   -5.0657    5.8860  -12.2745 H   0  0  0  0  0  0  0  0  0  0  0  0
   -8.3039    4.5968  -12.9651 N   0  0  0  0  0  0  0  0  0  0  0  0
   -9.0067    4.1062  -13.4496 H   0  0  0  0  0  0  0  0  0  0  0  0
   -8.4320    4.9537  -11.5991 C   0  0  0  0  0  0  0  0  0  0  0  0
   -8.3415    6.2961  -11.2407 C   0  0  0  0  0  0  0  0  0  0  0  0
   -8.3593    6.6509   -9.9057 C   0  0  0  0  0  0  0  0  0  0  0  0
   -8.2225    7.9401   -9.5672 F   0  0  0  0  0  0  0  0  0  0  0  0
   -8.5012    5.6957   -8.9105 C   0  0  0  0  0  0  0  0  0  0  0  0
   -8.6641    4.3413   -9.2174 C   0  0  0  0  0  0  0  0  0  0  0  0
   -8.5827    3.9902  -10.5807 C   0  0  0  0  0  0  0  0  0  0  0  0
   -8.8731    3.4217   -8.2131 N   0  0  0  0  0  0  0  0  0  0  0  0
   -9.2206    3.8110   -6.8427 C   0  0  0  0  0  0  0  0  0  0  0  0
  -10.1562    2.7128   -6.3627 C   0  0  0  0  0  0  0  0  0  0  0  0
   -9.6192    1.5058   -7.0963 C   0  0  0  0  0  0  0  0  0  0  0  0
   -9.2754    2.0456   -8.4759 C   0  0  0  0  0  0  0  0  0  0  0  0
 19 20  1  0  0  0
 20 21  1  0  0  0
 21 22  2  0  0  0
 21  1  1  0  0  0
  1  2  1  0  0  0
  1 24  1  0  0  0
 24 26  1  0  0  0
 26 27  2  0  0  0
 27 28  1  0  0  0
 28 29  1  0  0  0
 28 30  2  0  0  0
 30 31  1  0  0  0
 31 33  1  0  0  0
 33 34  1  0  0  0
 34 35  1  0  0  0
 35 36  1  0  0  0
 36 37  1  0  0  0
 31 32  2  0  0  0
  1  4  1  0  0  0
  4  5  2  0  0  0
  5  6  1  0  0  0
  6  7  1  0  0  0
  6  8  2  0  0  0
  8  9  1  0  0  0
  9 10  2  0  0  0
 10 11  1  0  0  0
 11 12  2  0  0  0
 12 13  1  0  0  0
 13 14  1  0  0  0
 14 15  1  0  0  0
 15 16  1  0  0  0
 16 17  1  0  0  0
 32 26  1  0  0  0
 10  4  1  0  0  0
 17 14  1  0  0  0
 37 33  1  0  0  0
 13  9  1  0  0  0
 20 23  1  0  0  0
  2  3  1  0  0  0
 24 25  1  0  0  0
 16 18  1  0  0  0
M  END
> <minimizedAffinity>
-8.98773

> <minimizedRMSD>
0.66056

$$$$
P28343


 32 36  0  0  0  0  0  0  0  0999 V2000
   -9.5640    6.1337  -14.2279 O   0  0  0  0  0  0  0  0  0  0  0  0
   -8.8657    5.2000  -14.2734 C   0  0  0  0  0  0  0  0  0  0  0  0
   -8.3023    4.3178  -13.1428 N   0  0  0  0  0  0  0  0  0  0  0  0
   -7.7915    3.5334  -13.4478 H   0  0  0  0  0  0  0  0  0  0  0  0
   -8.3600    4.8334  -15.6045 C   0  0  0  0  0  0  0  0  0  0  0  0
   -9.2787    4.6158  -16.6260 C   0  0  0  0  0  0  0  0  0  0  0  0
   -8.8476    4.6321  -17.9430 C   0  0  0  0  0  0  0  0  0  0  0  0
  -10.0180    4.4072  -19.1785 Cl  0  0  0  0  0  0  0  0  0  0  0  0
   -7.5139    4.8976  -18.2881 C   0  0  0  0  0  0  0  0  0  0  0  0
   -6.5874    5.0923  -17.2507 C   0  0  0  0  0  0  0  0  0  0  0  0
   -6.9841    5.0159  -15.8795 C   0  0  0  0  0  0  0  0  0  0  0  0
   -5.8425    5.2030  -15.0019 C   0  0  0  0  0  0  0  0  0  0  0  0
   -4.7779    5.3976  -15.7886 N   0  0  0  0  0  0  0  0  0  0  0  0
   -3.5722    5.5575  -15.4819 O   0  0  0  0  0  0  0  0  0  0  0  0
   -5.2376    5.4178  -17.1954 N   0  0  0  0  0  0  0  0  0  0  0  0
   -4.3360    5.9017  -18.2616 C   0  0  0  0  0  0  0  0  0  0  0  0
   -4.1980    5.0216  -19.5020 C   0  0  0  0  0  0  0  0  0  0  0  0
   -4.0721    6.2729  -20.2919 N   0  0  0  0  0  0  0  0  0  0  0  0
   -4.8859    6.9522  -19.2445 C   0  0  0  0  0  0  0  0  0  0  0  0
   -4.5096    6.2387  -21.2127 H   0  0  0  0  0  0  0  0  0  0  0  0
   -8.3980    4.4493  -11.7593 C   0  0  0  0  0  0  0  0  0  0  0  0
   -8.3110    5.7209  -11.1965 C   0  0  0  0  0  0  0  0  0  0  0  0
   -8.3619    5.8700   -9.8231 C   0  0  0  0  0  0  0  0  0  0  0  0
   -8.2695    7.0947   -9.2874 F   0  0  0  0  0  0  0  0  0  0  0  0
   -8.5192    4.7754   -8.9924 C   0  0  0  0  0  0  0  0  0  0  0  0
   -8.6315    3.4884   -9.5293 C   0  0  0  0  0  0  0  0  0  0  0  0
   -8.5563    3.3348  -10.9299 C   0  0  0  0  0  0  0  0  0  0  0  0
   -8.8904    2.3625   -8.7279 N   0  0  0  0  0  0  0  0  0  0  0  0
   -7.7602    1.7458   -8.0097 C   0  0  0  0  0  0  0  0  0  0  0  0
   -7.9345    2.1950   -6.5667 C   0  0  0  0  0  0  0  0  0  0  0  0
   -9.4339    2.1293   -6.4084 C   0  0  0  0  0  0  0  0  0  0  0  0
   -9.9359    2.6831   -7.7367 C   0  0  0  0  0  0  0  0  0  0  0  0
  1  2  2  0  0  0
  2  3  1  0  0  0
  3 21  1  0  0  0
 21 22  2  0  0  0
 22 23  1  0  0  0
 23 24  1  0  0  0
 23 25  2  0  0  0
 25 26  1  0  0  0
 26 28  1  0  0  0
 28 29  1  0  0  0
 29 30  1  0  0  0
 30 31  1  0  0  0
 31 32  1  0  0  0
 26 27  2  0  0  0
  2  5  1  0  0  0
  5  6  2  0  0  0
  6  7  1  0  0  0
  7  8  1  0  0  0
  7  9  2  0  0  0
  9 10  1  0  0  0
 10 11  2  0  0  0
 11 12  1  0  0  0
 12 13  2  0  0  0
 13 14  1  0  0  0
 13 15  1  0  0  0
 15 16  1  0  0  0
 16 17  1  0  0  0
 17 18  1  0  0  0
 18 19  1  0  0  0
 27 21  1  0  0  0
 11  5  1  0  0  0
 19 16  1  0  0  0
 32 28  1  0  0  0
 15 10  1  0  0  0
  3  4  1  0  0  0
 18 20  1  0  0  0
M  CHG 1  13   1
M  CHG 1  14  -1
M  END
> <minimizedAffinity>
-9.51814

> <minimizedRMSD>
0.62872

$$$$
P28344


 32 36  0  0  0  0  0  0  0  0999 V2000
   -3.2055    5.6404  -16.4738 C   0  0  0  0  0  0  0  0  0  0  0  0
   -4.6240    5.3999  -16.5992 N   0  0  0  0  0  0  0  0  0  0  0  0
   -5.4697    5.4406  -15.5125 C   0  0  0  0  0  0  0  0  0  0  0  0
   -6.7354    5.1835  -15.9661 C   0  0  0  0  0  0  0  0  0  0  0  0
   -7.9166    5.1992  -15.2218 C   0  0  0  0  0  0  0  0  0  0  0  0
   -9.0445    4.9122  -16.0164 C   0  0  0  0  0  0  0  0  0  0  0  0
   -8.9543    4.6837  -17.4319 C   0  0  0  0  0  0  0  0  0  0  0  0
  -10.4231    4.4942  -18.3217 Cl  0  0  0  0  0  0  0  0  0  0  0  0
   -7.7545    4.7055  -18.1828 C   0  0  0  0  0  0  0  0  0  0  0  0
   -6.6548    4.9615  -17.3682 C   0  0  0  0  0  0  0  0  0  0  0  0
   -5.3437    5.1593  -17.7559 C   0  0  0  0  0  0  0  0  0  0  0  0
   -4.8577    5.1911  -19.2440 C   0  0  0  0  0  0  0  0  0  0  0  0
   -3.4050    4.8338  -19.6050 C   0  0  0  0  0  0  0  0  0  0  0  0
   -3.4122    5.9463  -20.5887 N   0  0  0  0  0  0  0  0  0  0  0  0
   -4.4800    6.5901  -19.7769 C   0  0  0  0  0  0  0  0  0  0  0  0
   -3.6997    5.6776  -21.5297 H   0  0  0  0  0  0  0  0  0  0  0  0
   -7.9940    5.8387  -13.9039 C   0  0  0  0  0  0  0  0  0  0  0  0
   -7.8965    7.0034  -13.8959 O   0  0  0  0  0  0  0  0  0  0  0  0
   -8.0974    4.8336  -12.7337 N   0  0  0  0  0  0  0  0  0  0  0  0
   -8.0943    3.8865  -13.0023 H   0  0  0  0  0  0  0  0  0  0  0  0
   -8.1944    5.0506  -11.3577 C   0  0  0  0  0  0  0  0  0  0  0  0
   -7.8401    6.3035  -10.8664 C   0  0  0  0  0  0  0  0  0  0  0  0
   -7.8706    6.5438   -9.5101 C   0  0  0  0  0  0  0  0  0  0  0  0
   -7.5033    7.7443   -9.0408 F   0  0  0  0  0  0  0  0  0  0  0  0
   -8.2683    5.5607   -8.6266 C   0  0  0  0  0  0  0  0  0  0  0  0
   -8.6675    4.2954   -9.0734 C   0  0  0  0  0  0  0  0  0  0  0  0
   -8.6010    4.0476  -10.4647 C   0  0  0  0  0  0  0  0  0  0  0  0
   -9.1128    3.3748   -8.1610 N   0  0  0  0  0  0  0  0  0  0  0  0
   -9.4374    3.6878   -6.7703 C   0  0  0  0  0  0  0  0  0  0  0  0
  -10.3083    2.5256   -6.3370 C   0  0  0  0  0  0  0  0  0  0  0  0
   -9.6613    1.3862   -7.0878 C   0  0  0  0  0  0  0  0  0  0  0  0
   -9.3014    1.9662   -8.4461 C   0  0  0  0  0  0  0  0  0  0  0  0
  1  2  1  0  0  0
  2  3  1  0  0  0
  3  4  2  0  0  0
  4  5  1  0  0  0
  5 17  1  0  0  0
 17 18  2  0  0  0
 17 19  1  0  0  0
 19 21  1  0  0  0
 21 22  2  0  0  0
 22 23  1  0  0  0
 23 24  1  0  0  0
 23 25  2  0  0  0
 25 26  1  0  0  0
 26 28  1  0  0  0
 28 29  1  0  0  0
 29 30  1  0  0  0
 30 31  1  0  0  0
 31 32  1  0  0  0
 26 27  2  0  0  0
  5  6  2  0  0  0
  6  7  1  0  0  0
  7  8  1  0  0  0
  7  9  2  0  0  0
  9 10  1  0  0  0
 10 11  2  0  0  0
 11 12  1  0  0  0
 12 13  1  0  0  0
 13 14  1  0  0  0
 14 15  1  0  0  0
 11  2  1  0  0  0
 15 12  1  0  0  0
 10  4  1  0  0  0
 27 21  1  0  0  0
 32 28  1  0  0  0
 19 20  1  0  0  0
 14 16  1  0  0  0
M  END
> <minimizedAffinity>
-9.07921

> <minimizedRMSD>
0.36454

$$$$
P28345


 38 43  0  0  0  0  0  0  0  0999 V2000
   -8.6451    4.9874  -15.5040 C   0  0  0  0  0  0  0  0  0  0  0  0
   -9.7157    4.6567  -16.3375 C   0  0  0  0  0  0  0  0  0  0  0  0
   -9.5047    4.5158  -17.7128 C   0  0  0  0  0  0  0  0  0  0  0  0
  -10.8500    4.2587  -18.7468 Cl  0  0  0  0  0  0  0  0  0  0  0  0
   -8.2370    4.6710  -18.2711 C   0  0  0  0  0  0  0  0  0  0  0  0
   -7.1829    4.9761  -17.4304 C   0  0  0  0  0  0  0  0  0  0  0  0
   -7.3760    5.1437  -16.0522 C   0  0  0  0  0  0  0  0  0  0  0  0
   -6.0441    5.4580  -15.4453 C   0  0  0  0  0  0  0  0  0  0  0  0
   -5.8565    6.5742  -14.4073 C   0  0  0  0  0  0  0  0  0  0  0  0
   -4.5388    6.2325  -13.8242 N   0  0  0  0  0  0  0  0  0  0  0  0
   -4.6726    4.7890  -13.6594 C   0  0  0  0  0  0  0  0  0  0  0  0
   -5.4476    4.2967  -14.7860 N   0  0  0  0  0  0  0  0  0  0  0  0
   -5.1413    5.7063  -16.6218 N   0  0  0  0  0  0  0  0  0  0  0  0
   -5.8315    5.1860  -17.7679 N   0  0  0  0  0  0  0  0  0  0  0  0
   -4.3927    6.6998  -12.9294 H   0  0  0  0  0  0  0  0  0  0  0  0
   -6.1801    3.6676  -14.4573 H   0  0  0  0  0  0  0  0  0  0  0  0
   -4.2521    5.2232  -16.4942 H   0  0  0  0  0  0  0  0  0  0  0  0
   -5.2381    5.1593  -19.0803 C   0  0  0  0  0  0  0  0  0  0  0  0
   -3.6957    5.0364  -19.0840 C   0  0  0  0  0  0  0  0  0  0  0  0
   -3.6443    6.0748  -20.1339 N   0  0  0  0  0  0  0  0  0  0  0  0
   -4.9934    6.5386  -19.7220 C   0  0  0  0  0  0  0  0  0  0  0  0
   -3.6005    5.7069  -21.0843 H   0  0  0  0  0  0  0  0  0  0  0  0
   -9.6290    6.4502  -14.1387 O   0  0  0  0  0  0  0  0  0  0  0  0
   -8.9467    5.5015  -14.1628 C   0  0  0  0  0  0  0  0  0  0  0  0
   -8.3043    4.6991  -13.0074 N   0  0  0  0  0  0  0  0  0  0  0  0
   -7.8285    3.8836  -13.2864 H   0  0  0  0  0  0  0  0  0  0  0  0
   -8.2892    4.9435  -11.6308 C   0  0  0  0  0  0  0  0  0  0  0  0
   -7.8668    6.1975  -11.2022 C   0  0  0  0  0  0  0  0  0  0  0  0
   -7.7928    6.4633   -9.8539 C   0  0  0  0  0  0  0  0  0  0  0  0
   -7.3312    7.6355   -9.4196 F   0  0  0  0  0  0  0  0  0  0  0  0
   -8.1610    5.5281   -8.9179 C   0  0  0  0  0  0  0  0  0  0  0  0
   -8.6309    4.2708   -9.2927 C   0  0  0  0  0  0  0  0  0  0  0  0
   -8.6602    3.9768  -10.6779 C   0  0  0  0  0  0  0  0  0  0  0  0
   -9.0326    3.4127   -8.3037 N   0  0  0  0  0  0  0  0  0  0  0  0
   -9.3137    3.8322   -6.9273 C   0  0  0  0  0  0  0  0  0  0  0  0
  -10.1927    2.7269   -6.3797 C   0  0  0  0  0  0  0  0  0  0  0  0
   -9.6130    1.5237   -7.0819 C   0  0  0  0  0  0  0  0  0  0  0  0
   -9.2978    2.0045   -8.4898 C   0  0  0  0  0  0  0  0  0  0  0  0
 23 24  2  0  0  0
 24 25  1  0  0  0
 25 27  1  0  0  0
 27 28  2  0  0  0
 28 29  1  0  0  0
 29 30  1  0  0  0
 29 31  2  0  0  0
 31 32  1  0  0  0
 32 34  1  0  0  0
 34 35  1  0  0  0
 35 36  1  0  0  0
 36 37  1  0  0  0
 37 38  1  0  0  0
 32 33  2  0  0  0
 24  1  1  0  0  0
  1  2  2  0  0  0
  2  3  1  0  0  0
  3  4  1  0  0  0
  3  5  2  0  0  0
  5  6  1  0  0  0
  6  7  2  0  0  0
  7  8  1  0  0  0
  8  9  1  0  0  0
  9 10  1  0  0  0
 10 11  1  0  0  0
 11 12  1  0  0  0
  8 13  1  0  0  0
 13 14  1  0  0  0
 14 18  1  0  0  0
 18 19  1  0  0  0
 19 20  1  0  0  0
 20 21  1  0  0  0
 33 27  1  0  0  0
  7  1  1  0  0  0
 12  8  1  0  0  0
 21 18  1  0  0  0
 38 34  1  0  0  0
 14  6  1  0  0  0
 25 26  1  0  0  0
 10 15  1  0  0  0
 12 16  1  0  0  0
 13 17  1  0  0  0
 20 22  1  0  0  0
M  END
> <minimizedAffinity>
-9.29039

> <minimizedRMSD>
0.75950

$$$$
P28346


 38 44  0  0  0  0  0  0  0  0999 V2000
   -8.1898    5.1597  -15.4547 C   0  0  0  0  0  0  0  0  0  0  0  0
   -9.2901    4.8303  -16.2391 C   0  0  0  0  0  0  0  0  0  0  0  0
   -9.0997    4.5833  -17.6004 C   0  0  0  0  0  0  0  0  0  0  0  0
  -10.4710    4.2741  -18.5891 Cl  0  0  0  0  0  0  0  0  0  0  0  0
   -7.8256    4.6311  -18.1809 C   0  0  0  0  0  0  0  0  0  0  0  0
   -6.7274    4.9461  -17.3936 C   0  0  0  0  0  0  0  0  0  0  0  0
   -6.9294    5.2159  -16.0419 C   0  0  0  0  0  0  0  0  0  0  0  0
   -5.6243    5.4934  -15.3831 C   0  0  0  0  0  0  0  0  0  0  0  0
   -4.6596    5.6527  -16.6094 C   0  0  0  0  0  0  0  0  0  0  0  0
   -3.3438    4.9036  -16.2637 C   0  0  0  0  0  0  0  0  0  0  0  0
   -2.0657    5.6605  -16.6051 C   0  0  0  0  0  0  0  0  0  0  0  0
   -2.0333    7.0638  -16.0119 C   0  0  0  0  0  0  0  0  0  0  0  0
   -3.3958    7.7603  -15.9478 C   0  0  0  0  0  0  0  0  0  0  0  0
   -4.4339    7.1747  -16.9076 C   0  0  0  0  0  0  0  0  0  0  0  0
   -3.9415    7.4512  -18.2243 O   0  0  0  0  0  0  0  0  0  0  0  0
   -4.7802    6.9415  -19.2591 C   0  0  0  0  0  0  0  0  0  0  0  0
   -4.0376    7.0360  -20.5236 N   0  0  0  0  0  0  0  0  0  0  0  0
   -3.0368    5.9691  -20.3949 C   0  0  0  0  0  0  0  0  0  0  0  0
   -3.7301    4.8342  -19.6427 C   0  0  0  0  0  0  0  0  0  0  0  0
   -5.0346    5.4322  -19.1224 C   0  0  0  0  0  0  0  0  0  0  0  0
   -5.3664    4.9911  -17.7615 N   0  0  0  0  0  0  0  0  0  0  0  0
   -3.5916    7.9482  -20.6203 H   0  0  0  0  0  0  0  0  0  0  0  0
   -8.5736    6.7058  -13.8319 O   0  0  0  0  0  0  0  0  0  0  0  0
   -8.3717    5.5759  -14.0480 C   0  0  0  0  0  0  0  0  0  0  0  0
   -8.2297    4.3800  -13.0788 N   0  0  0  0  0  0  0  0  0  0  0  0
   -7.9826    3.5290  -13.5076 H   0  0  0  0  0  0  0  0  0  0  0  0
   -8.3949    4.3104  -11.6940 C   0  0  0  0  0  0  0  0  0  0  0  0
   -8.5984    3.0752  -11.0956 C   0  0  0  0  0  0  0  0  0  0  0  0
   -8.7589    3.0122   -9.7196 C   0  0  0  0  0  0  0  0  0  0  0  0
   -8.9806    1.8270   -9.1348 F   0  0  0  0  0  0  0  0  0  0  0  0
   -8.7058    4.1588   -8.9295 C   0  0  0  0  0  0  0  0  0  0  0  0
   -8.4995    5.4219   -9.4962 C   0  0  0  0  0  0  0  0  0  0  0  0
   -8.3435    5.4610  -10.8959 C   0  0  0  0  0  0  0  0  0  0  0  0
   -8.4408    6.5648   -8.7308 N   0  0  0  0  0  0  0  0  0  0  0  0
   -8.0972    7.8819   -9.2685 C   0  0  0  0  0  0  0  0  0  0  0  0
   -8.4828    8.8546   -8.1579 C   0  0  0  0  0  0  0  0  0  0  0  0
   -8.3288    8.0262   -6.8952 C   0  0  0  0  0  0  0  0  0  0  0  0
   -8.8191    6.6467   -7.3247 C   0  0  0  0  0  0  0  0  0  0  0  0
 23 24  2  0  0  0
 24 25  1  0  0  0
 25 27  1  0  0  0
 27 28  2  0  0  0
 28 29  1  0  0  0
 29 30  1  0  0  0
 29 31  2  0  0  0
 31 32  1  0  0  0
 32 34  1  0  0  0
 34 35  1  0  0  0
 35 36  1  0  0  0
 36 37  1  0  0  0
 37 38  1  0  0  0
 32 33  2  0  0  0
 24  1  1  0  0  0
  1  2  2  0  0  0
  2  3  1  0  0  0
  3  4  1  0  0  0
  3  5  2  0  0  0
  5  6  1  0  0  0
  6  7  2  0  0  0
  7  8  1  0  0  0
  9  8  1  0  0  0
  9 10  1  0  0  0
 10 11  1  0  0  0
 11 12  1  0  0  0
 12 13  1  0  0  0
 14 13  1  0  0  0
 14 15  1  0  0  0
 15 16  1  0  0  0
 16 17  1  0  0  0
 17 18  1  0  0  0
 18 19  1  0  0  0
 20 19  1  0  0  0
 20 21  1  0  0  0
 33 27  1  0  0  0
  7  1  1  0  0  0
 14  9  1  0  0  0
 20 16  1  0  0  0
 38 34  1  0  0  0
 21  6  1  0  0  0
 21  9  1  0  0  0
 25 26  1  0  0  0
 17 22  1  0  0  0
M  END
> <minimizedAffinity>
-9.62106

> <minimizedRMSD>
0.55165

$$$$
P28347


 34 38  0  0  0  0  0  0  0  0999 V2000
   -8.2559    4.6313  -13.1462 N   0  0  0  0  0  0  0  0  0  0  0  0
   -8.9408    5.3522  -14.3236 C   0  0  0  0  0  0  0  0  0  0  0  0
   -9.6425    6.2862  -14.3351 O   0  0  0  0  0  0  0  0  0  0  0  0
   -7.6451    3.9047  -13.4072 H   0  0  0  0  0  0  0  0  0  0  0  0
   -7.9233    7.3021  -11.8270 N   0  0  0  0  0  0  0  0  0  0  0  0
   -8.3192    6.1219  -11.1628 C   0  0  0  0  0  0  0  0  0  0  0  0
   -8.3989    6.2006   -9.7682 C   0  0  0  0  0  0  0  0  0  0  0  0
   -8.2955    7.4007   -9.1701 F   0  0  0  0  0  0  0  0  0  0  0  0
   -8.5562    5.0857   -8.9704 C   0  0  0  0  0  0  0  0  0  0  0  0
   -8.6314    3.8150   -9.5353 C   0  0  0  0  0  0  0  0  0  0  0  0
   -8.5091    3.7050  -10.9354 C   0  0  0  0  0  0  0  0  0  0  0  0
   -8.3613    4.8426  -11.7573 C   0  0  0  0  0  0  0  0  0  0  0  0
   -7.9194    8.1605  -11.3451 H   0  0  0  0  0  0  0  0  0  0  0  0
   -7.6509    7.2671  -12.7725 H   0  0  0  0  0  0  0  0  0  0  0  0
   -8.7849    2.6640   -8.7465 N   0  0  0  0  0  0  0  0  0  0  0  0
   -9.8899    2.6567   -7.7605 C   0  0  0  0  0  0  0  0  0  0  0  0
   -9.2232    2.8009   -6.4073 C   0  0  0  0  0  0  0  0  0  0  0  0
   -8.0139    1.9427   -6.6336 C   0  0  0  0  0  0  0  0  0  0  0  0
   -7.5409    2.3405   -8.0217 C   0  0  0  0  0  0  0  0  0  0  0  0
   -8.5705    4.8363  -15.6461 C   0  0  0  0  0  0  0  0  0  0  0  0
   -9.5457    4.6479  -16.6212 C   0  0  0  0  0  0  0  0  0  0  0  0
   -9.1606    4.6058  -17.9560 C   0  0  0  0  0  0  0  0  0  0  0  0
  -10.3794    4.4537  -19.1598 Cl  0  0  0  0  0  0  0  0  0  0  0  0
   -7.8238    4.7858  -18.3524 C   0  0  0  0  0  0  0  0  0  0  0  0
   -6.8500    4.9425  -17.3509 C   0  0  0  0  0  0  0  0  0  0  0  0
   -7.2096    4.9030  -16.0007 C   0  0  0  0  0  0  0  0  0  0  0  0
   -5.9984    5.0131  -15.2928 C   0  0  0  0  0  0  0  0  0  0  0  0
   -4.9463    5.0902  -16.1017 N   0  0  0  0  0  0  0  0  0  0  0  0
   -5.4934    5.2291  -17.3325 N   0  0  0  0  0  0  0  0  0  0  0  0
   -4.7243    6.0572  -18.2733 C   0  0  0  0  0  0  0  0  0  0  0  0
   -4.3676    5.3184  -19.5809 C   0  0  0  0  0  0  0  0  0  0  0  0
   -4.4200    6.6562  -20.2345 N   0  0  0  0  0  0  0  0  0  0  0  0
   -5.4269    7.0333  -19.2025 C   0  0  0  0  0  0  0  0  0  0  0  0
   -4.7713    6.6504  -21.1921 H   0  0  0  0  0  0  0  0  0  0  0  0
  5  6  1  0  0  0
  6  7  2  0  0  0
  7  8  1  0  0  0
  7  9  1  0  0  0
  9 10  2  0  0  0
 10 15  1  0  0  0
 15 16  1  0  0  0
 16 17  1  0  0  0
 17 18  1  0  0  0
 18 19  1  0  0  0
 10 11  1  0  0  0
 11 12  2  0  0  0
 12  1  1  0  0  0
  1  2  1  0  0  0
  2  3  2  0  0  0
  2 20  1  0  0  0
 20 21  2  0  0  0
 21 22  1  0  0  0
 22 23  1  0  0  0
 22 24  2  0  0  0
 24 25  1  0  0  0
 25 26  2  0  0  0
 26 27  1  0  0  0
 27 28  2  0  0  0
 28 29  1  0  0  0
 29 30  1  0  0  0
 30 31  1  0  0  0
 31 32  1  0  0  0
 32 33  1  0  0  0
 12  6  1  0  0  0
 26 20  1  0  0  0
 33 30  1  0  0  0
 19 15  1  0  0  0
 29 25  1  0  0  0
  5 13  1  0  0  0
  5 14  1  0  0  0
  1  4  1  0  0  0
 32 34  1  0  0  0
M  END
> <minimizedAffinity>
-8.87388

> <minimizedRMSD>
0.76261

$$$$
P28351


 40 44  0  0  0  0  0  0  0  0999 V2000
   -7.2748    4.1386  -13.6017 C   0  0  0  0  0  0  0  0  0  0  0  0
   -6.5427    5.2536  -13.0880 O   0  0  0  0  0  0  0  0  0  0  0  0
   -6.4269    5.1508  -12.1305 H   0  0  0  0  0  0  0  0  0  0  0  0
   -7.3991    4.4030  -15.1126 C   0  0  0  0  0  0  0  0  0  0  0  0
   -8.6500    4.3820  -15.7823 C   0  0  0  0  0  0  0  0  0  0  0  0
   -8.7626    4.5682  -17.1610 C   0  0  0  0  0  0  0  0  0  0  0  0
  -10.3129    4.5550  -17.9095 Cl  0  0  0  0  0  0  0  0  0  0  0  0
   -7.6441    4.7990  -17.9547 C   0  0  0  0  0  0  0  0  0  0  0  0
   -6.4064    4.8752  -17.3120 C   0  0  0  0  0  0  0  0  0  0  0  0
   -6.2673    4.6743  -15.9378 C   0  0  0  0  0  0  0  0  0  0  0  0
   -4.8787    4.8411  -15.7172 C   0  0  0  0  0  0  0  0  0  0  0  0
   -4.2006    5.1659  -16.8155 N   0  0  0  0  0  0  0  0  0  0  0  0
   -5.1406    5.1651  -17.7808 N   0  0  0  0  0  0  0  0  0  0  0  0
   -4.8680    5.7092  -19.1235 C   0  0  0  0  0  0  0  0  0  0  0  0
   -3.3983    5.5649  -19.5803 C   0  0  0  0  0  0  0  0  0  0  0  0
   -3.9098    5.2255  -20.9346 N   0  0  0  0  0  0  0  0  0  0  0  0
   -5.1391    4.7274  -20.2651 C   0  0  0  0  0  0  0  0  0  0  0  0
   -3.3730    4.5114  -21.4268 H   0  0  0  0  0  0  0  0  0  0  0  0
   -6.9741    1.6916  -13.5701 O   0  0  0  0  0  0  0  0  0  0  0  0
   -6.5042    2.7401  -13.3513 C   0  0  0  0  0  0  0  0  0  0  0  0
   -5.1268    3.1182  -12.7326 N   0  0  0  0  0  0  0  0  0  0  0  0
   -4.9940    4.0817  -12.5796 H   0  0  0  0  0  0  0  0  0  0  0  0
   -4.0120    2.2848  -12.3463 C   0  0  0  0  0  0  0  0  0  0  0  0
   -3.0320    2.0777  -13.4888 C   0  0  0  0  0  0  0  0  0  0  0  0
   -3.6679    1.6019  -14.5865 F   0  0  0  0  0  0  0  0  0  0  0  0
   -2.1015    1.1541  -13.1431 F   0  0  0  0  0  0  0  0  0  0  0  0
   -8.5960    4.0930  -12.9324 N   0  0  0  0  0  0  0  0  0  0  0  0
   -9.4375    4.0856  -13.4434 H   0  0  0  0  0  0  0  0  0  0  0  0
   -8.5806    4.0607  -11.5126 C   0  0  0  0  0  0  0  0  0  0  0  0
   -8.8457    2.8848  -10.8179 C   0  0  0  0  0  0  0  0  0  0  0  0
   -8.7844    2.8806   -9.4351 C   0  0  0  0  0  0  0  0  0  0  0  0
   -9.1006    1.7679   -8.7638 F   0  0  0  0  0  0  0  0  0  0  0  0
   -8.4207    4.0193   -8.7232 C   0  0  0  0  0  0  0  0  0  0  0  0
   -8.1728    5.2354   -9.3697 C   0  0  0  0  0  0  0  0  0  0  0  0
   -8.2612    5.2190  -10.7749 C   0  0  0  0  0  0  0  0  0  0  0  0
   -7.8504    6.3829   -8.6711 N   0  0  0  0  0  0  0  0  0  0  0  0
   -8.0331    6.5080   -7.2214 C   0  0  0  0  0  0  0  0  0  0  0  0
   -8.2090    8.0053   -6.9830 C   0  0  0  0  0  0  0  0  0  0  0  0
   -7.4579    8.6388   -8.1381 C   0  0  0  0  0  0  0  0  0  0  0  0
   -7.7837    7.7048   -9.2979 C   0  0  0  0  0  0  0  0  0  0  0  0
 19 20  2  0  0  0
 20 21  1  0  0  0
 21 23  1  0  0  0
 23 24  1  0  0  0
 24 25  1  0  0  0
 24 26  1  0  0  0
 20  1  1  0  0  0
  1  2  1  0  0  0
  1 27  1  0  0  0
 27 29  1  0  0  0
 29 30  2  0  0  0
 30 31  1  0  0  0
 31 32  1  0  0  0
 31 33  2  0  0  0
 33 34  1  0  0  0
 34 36  1  0  0  0
 36 37  1  0  0  0
 37 38  1  0  0  0
 38 39  1  0  0  0
 39 40  1  0  0  0
 34 35  2  0  0  0
  1  4  1  0  0  0
  4  5  2  0  0  0
  5  6  1  0  0  0
  6  7  1  0  0  0
  6  8  2  0  0  0
  8  9  1  0  0  0
  9 10  2  0  0  0
 10 11  1  0  0  0
 11 12  2  0  0  0
 12 13  1  0  0  0
 13 14  1  0  0  0
 14 15  1  0  0  0
 15 16  1  0  0  0
 16 17  1  0  0  0
 35 29  1  0  0  0
 10  4  1  0  0  0
 17 14  1  0  0  0
 40 36  1  0  0  0
 13  9  1  0  0  0
 21 22  1  0  0  0
  2  3  1  0  0  0
 27 28  1  0  0  0
 16 18  1  0  0  0
M  END
> <minimizedAffinity>
-8.83764

> <minimizedRMSD>
0.54997

$$$$
P28353


 43 47  0  0  0  0  0  0  0  0999 V2000
   -7.2815    4.8811  -13.3481 C   0  0  0  0  0  0  0  0  0  0  0  0
   -7.0954    6.2406  -12.9929 O   0  0  0  0  0  0  0  0  0  0  0  0
   -7.8106    6.7748  -13.3724 H   0  0  0  0  0  0  0  0  0  0  0  0
   -4.8923    5.2380  -17.6208 C   0  0  0  0  0  0  0  0  0  0  0  0
   -6.1907    5.0675  -17.1775 C   0  0  0  0  0  0  0  0  0  0  0  0
   -7.3211    4.8985  -17.9622 C   0  0  0  0  0  0  0  0  0  0  0  0
   -8.4620    4.7455  -17.1504 C   0  0  0  0  0  0  0  0  0  0  0  0
   -9.9853    4.5545  -17.9517 Cl  0  0  0  0  0  0  0  0  0  0  0  0
   -8.4505    4.7571  -15.7039 C   0  0  0  0  0  0  0  0  0  0  0  0
   -7.2858    4.8963  -14.8793 C   0  0  0  0  0  0  0  0  0  0  0  0
   -6.1810    5.0670  -15.7360 C   0  0  0  0  0  0  0  0  0  0  0  0
   -4.8780    5.2622  -15.3638 C   0  0  0  0  0  0  0  0  0  0  0  0
   -4.1228    5.1960  -16.4947 N   0  0  0  0  0  0  0  0  0  0  0  0
   -2.7559    5.0083  -16.4541 O   0  0  0  0  0  0  0  0  0  0  0  0
   -2.4552    5.0197  -15.5319 H   0  0  0  0  0  0  0  0  0  0  0  0
   -2.0372    5.3244  -20.4199 C   0  0  0  0  0  0  0  0  0  0  0  0
   -2.8739    5.8383  -19.2613 C   0  0  0  0  0  0  0  0  0  0  0  0
   -3.3343    7.2212  -19.4916 N   0  0  0  0  0  0  0  0  0  0  0  0
   -4.6937    6.7268  -19.7779 C   0  0  0  0  0  0  0  0  0  0  0  0
   -4.3589    5.3798  -19.1006 C   0  0  0  0  0  0  0  0  0  0  0  0
   -2.8847    7.6827  -20.2823 H   0  0  0  0  0  0  0  0  0  0  0  0
   -6.1438    3.8906  -12.7684 C   0  0  0  0  0  0  0  0  0  0  0  0
   -6.1067    2.7545  -13.0327 O   0  0  0  0  0  0  0  0  0  0  0  0
   -5.1589    4.7631  -11.9532 N   0  0  0  0  0  0  0  0  0  0  0  0
   -5.4551    5.6902  -11.8047 H   0  0  0  0  0  0  0  0  0  0  0  0
   -3.8782    4.4385  -11.3759 C   0  0  0  0  0  0  0  0  0  0  0  0
   -2.9783    3.7371  -12.3981 C   0  0  0  0  0  0  0  0  0  0  0  0
   -1.9404    3.1280  -11.7696 F   0  0  0  0  0  0  0  0  0  0  0  0
   -2.4088    4.6669  -13.2192 F   0  0  0  0  0  0  0  0  0  0  0  0
   -8.5881    4.4601  -12.7937 N   0  0  0  0  0  0  0  0  0  0  0  0
   -9.3813    4.2883  -13.3510 H   0  0  0  0  0  0  0  0  0  0  0  0
   -8.5857    4.3271  -11.3689 C   0  0  0  0  0  0  0  0  0  0  0  0
   -8.7227    3.0710  -10.7738 C   0  0  0  0  0  0  0  0  0  0  0  0
   -8.7163    2.9594   -9.3930 C   0  0  0  0  0  0  0  0  0  0  0  0
   -8.8826    1.7575   -8.8253 F   0  0  0  0  0  0  0  0  0  0  0  0
   -8.5549    4.0772   -8.5804 C   0  0  0  0  0  0  0  0  0  0  0  0
   -8.4042    5.3570   -9.1259 C   0  0  0  0  0  0  0  0  0  0  0  0
   -8.4267    5.4452  -10.5319 C   0  0  0  0  0  0  0  0  0  0  0  0
   -8.2469    6.4732   -8.3355 N   0  0  0  0  0  0  0  0  0  0  0  0
   -8.5678    7.8349   -8.7639 C   0  0  0  0  0  0  0  0  0  0  0  0
   -8.4330    8.6772   -7.4984 C   0  0  0  0  0  0  0  0  0  0  0  0
   -7.4350    7.9024   -6.6585 C   0  0  0  0  0  0  0  0  0  0  0  0
   -7.7910    6.4480   -6.9499 C   0  0  0  0  0  0  0  0  0  0  0  0
 17 16  1  0  0  0
 17 18  1  0  0  0
 18 19  1  0  0  0
 19 20  1  0  0  0
 20  4  1  0  0  0
  4  5  2  0  0  0
  5  6  1  0  0  0
  6  7  2  0  0  0
  7  8  1  0  0  0
  7  9  1  0  0  0
  9 10  2  0  0  0
 10  1  1  0  0  0
  1  2  1  0  0  0
  1 30  1  0  0  0
 30 32  1  0  0  0
 32 33  2  0  0  0
 33 34  1  0  0  0
 34 35  1  0  0  0
 34 36  2  0  0  0
 36 37  1  0  0  0
 37 39  1  0  0  0
 39 40  1  0  0  0
 40 41  1  0  0  0
 41 42  1  0  0  0
 42 43  1  0  0  0
 37 38  2  0  0  0
  1 22  1  0  0  0
 22 23  2  0  0  0
 22 24  1  0  0  0
 24 26  1  0  0  0
 26 27  1  0  0  0
 27 28  1  0  0  0
 27 29  1  0  0  0
 10 11  1  0  0  0
 11 12  2  0  0  0
 12 13  1  0  0  0
 13 14  1  0  0  0
 20 17  1  0  0  0
 13  4  1  0  0  0
 11  5  1  0  0  0
 38 32  1  0  0  0
 43 39  1  0  0  0
 18 21  1  0  0  0
  2  3  1  0  0  0
 30 31  1  0  0  0
 24 25  1  0  0  0
 14 15  1  0  0  0
M  END
> <minimizedAffinity>
-8.00486

> <minimizedRMSD>
0.71207

$$$$
P28357


 41 45  0  0  0  0  0  0  0  0999 V2000
   -7.1563    4.9706  -13.6089 C   0  0  0  0  0  0  0  0  0  0  0  0
   -6.9465    6.3205  -13.2308 O   0  0  0  0  0  0  0  0  0  0  0  0
   -6.9247    6.3856  -12.2633 H   0  0  0  0  0  0  0  0  0  0  0  0
   -7.1769    4.9611  -15.1665 C   0  0  0  0  0  0  0  0  0  0  0  0
   -8.3776    4.7328  -15.9032 C   0  0  0  0  0  0  0  0  0  0  0  0
   -8.4183    4.6482  -17.3001 C   0  0  0  0  0  0  0  0  0  0  0  0
   -9.8844    4.3352  -18.1429 Cl  0  0  0  0  0  0  0  0  0  0  0  0
   -7.2806    4.8223  -18.0673 C   0  0  0  0  0  0  0  0  0  0  0  0
   -6.1006    5.1013  -17.3834 C   0  0  0  0  0  0  0  0  0  0  0  0
   -6.0250    5.1864  -15.9873 C   0  0  0  0  0  0  0  0  0  0  0  0
   -4.6652    5.5246  -15.7800 C   0  0  0  0  0  0  0  0  0  0  0  0
   -4.1322    5.7635  -14.5761 F   0  0  0  0  0  0  0  0  0  0  0  0
   -3.9400    5.6105  -16.8940 N   0  0  0  0  0  0  0  0  0  0  0  0
   -4.8233    5.3144  -17.8578 N   0  0  0  0  0  0  0  0  0  0  0  0
   -4.4725    5.1928  -19.2867 C   0  0  0  0  0  0  0  0  0  0  0  0
   -3.0729    4.6312  -19.5903 C   0  0  0  0  0  0  0  0  0  0  0  0
   -2.9640    5.6485  -20.6781 N   0  0  0  0  0  0  0  0  0  0  0  0
   -3.9088    6.4907  -19.8890 C   0  0  0  0  0  0  0  0  0  0  0  0
   -3.3198    5.3434  -21.5840 H   0  0  0  0  0  0  0  0  0  0  0  0
   -5.9509    2.8675  -13.3384 O   0  0  0  0  0  0  0  0  0  0  0  0
   -6.0257    3.9843  -12.9976 C   0  0  0  0  0  0  0  0  0  0  0  0
   -5.2407    4.7563  -11.9040 N   0  0  0  0  0  0  0  0  0  0  0  0
   -5.4358    5.7202  -11.8593 H   0  0  0  0  0  0  0  0  0  0  0  0
   -4.2674    4.2889  -10.9381 C   0  0  0  0  0  0  0  0  0  0  0  0
   -3.0850    3.5251  -11.5147 C   0  0  0  0  0  0  0  0  0  0  0  0
   -2.7548    4.0447  -12.7258 F   0  0  0  0  0  0  0  0  0  0  0  0
   -3.3717    2.2236  -11.7269 F   0  0  0  0  0  0  0  0  0  0  0  0
   -8.4658    4.5094  -13.0472 N   0  0  0  0  0  0  0  0  0  0  0  0
   -9.2328    4.2864  -13.6227 H   0  0  0  0  0  0  0  0  0  0  0  0
   -8.5312    4.4136  -11.6250 C   0  0  0  0  0  0  0  0  0  0  0  0
   -8.5603    3.1740  -10.9796 C   0  0  0  0  0  0  0  0  0  0  0  0
   -8.5640    3.1143   -9.5944 C   0  0  0  0  0  0  0  0  0  0  0  0
   -8.6166    1.9231   -8.9805 F   0  0  0  0  0  0  0  0  0  0  0  0
   -8.5145    4.2739   -8.8273 C   0  0  0  0  0  0  0  0  0  0  0  0
   -8.5006    5.5418   -9.4238 C   0  0  0  0  0  0  0  0  0  0  0  0
   -8.5263    5.5742  -10.8326 C   0  0  0  0  0  0  0  0  0  0  0  0
   -8.4560    6.6955   -8.6743 N   0  0  0  0  0  0  0  0  0  0  0  0
   -7.8688    6.7813   -7.3382 C   0  0  0  0  0  0  0  0  0  0  0  0
   -8.3306    8.1371   -6.8086 C   0  0  0  0  0  0  0  0  0  0  0  0
   -8.5117    8.9640   -8.0679 C   0  0  0  0  0  0  0  0  0  0  0  0
   -9.0865    7.9560   -9.0582 C   0  0  0  0  0  0  0  0  0  0  0  0
 20 21  2  0  0  0
 21 22  1  0  0  0
 22 24  1  0  0  0
 24 25  1  0  0  0
 25 26  1  0  0  0
 25 27  1  0  0  0
 21  1  1  0  0  0
  1  2  1  0  0  0
  1 28  1  0  0  0
 28 30  1  0  0  0
 30 31  2  0  0  0
 31 32  1  0  0  0
 32 33  1  0  0  0
 32 34  2  0  0  0
 34 35  1  0  0  0
 35 37  1  0  0  0
 37 38  1  0  0  0
 38 39  1  0  0  0
 39 40  1  0  0  0
 40 41  1  0  0  0
 35 36  2  0  0  0
  1  4  1  0  0  0
  4  5  2  0  0  0
  5  6  1  0  0  0
  6  7  1  0  0  0
  6  8  2  0  0  0
  8  9  1  0  0  0
  9 10  2  0  0  0
 10 11  1  0  0  0
 11 12  1  0  0  0
 11 13  2  0  0  0
 13 14  1  0  0  0
 14 15  1  0  0  0
 15 16  1  0  0  0
 16 17  1  0  0  0
 17 18  1  0  0  0
 36 30  1  0  0  0
 10  4  1  0  0  0
 18 15  1  0  0  0
 41 37  1  0  0  0
 14  9  1  0  0  0
 22 23  1  0  0  0
  2  3  1  0  0  0
 28 29  1  0  0  0
 17 19  1  0  0  0
M  END
> <minimizedAffinity>
-7.99736

> <minimizedRMSD>
0.93161

$$$$
P28360


 31 35  0  0  0  0  0  0  0  0999 V2000
   -7.4050    6.5875  -14.0627 O   0  0  0  0  0  0  0  0  0  0  0  0
   -7.8333    5.5131  -14.2203 C   0  0  0  0  0  0  0  0  0  0  0  0
   -8.3005    4.4623  -13.1926 N   0  0  0  0  0  0  0  0  0  0  0  0
   -8.5527    3.5923  -13.5783 H   0  0  0  0  0  0  0  0  0  0  0  0
   -7.8529    5.0173  -15.6070 C   0  0  0  0  0  0  0  0  0  0  0  0
   -9.0561    4.7968  -16.2811 C   0  0  0  0  0  0  0  0  0  0  0  0
   -9.0409    4.6388  -17.6655 C   0  0  0  0  0  0  0  0  0  0  0  0
  -10.5283    4.5618  -18.5203 Cl  0  0  0  0  0  0  0  0  0  0  0  0
   -7.8512    4.6626  -18.4053 C   0  0  0  0  0  0  0  0  0  0  0  0
   -6.6590    4.8907  -17.7047 C   0  0  0  0  0  0  0  0  0  0  0  0
   -6.6400    5.0450  -16.3223 C   0  0  0  0  0  0  0  0  0  0  0  0
   -5.2853    5.2812  -16.0054 C   0  0  0  0  0  0  0  0  0  0  0  0
   -4.5029    5.3108  -17.0828 N   0  0  0  0  0  0  0  0  0  0  0  0
   -5.3549    5.1011  -18.1024 N   0  0  0  0  0  0  0  0  0  0  0  0
   -4.9438    5.2520  -19.5028 C   0  0  0  0  0  0  0  0  0  0  0  0
   -4.4959    6.6653  -19.9265 C   0  0  0  0  0  0  0  0  0  0  0  0
   -3.3391    6.0407  -20.6245 N   0  0  0  0  0  0  0  0  0  0  0  0
   -3.4751    4.9081  -19.6788 C   0  0  0  0  0  0  0  0  0  0  0  0
   -2.4637    6.5585  -20.5470 H   0  0  0  0  0  0  0  0  0  0  0  0
   -8.4239    4.5439  -11.8074 C   0  0  0  0  0  0  0  0  0  0  0  0
   -8.3288    5.7909  -11.1924 C   0  0  0  0  0  0  0  0  0  0  0  0
   -8.3717    5.8819   -9.8136 C   0  0  0  0  0  0  0  0  0  0  0  0
   -8.2770    7.0816   -9.2249 F   0  0  0  0  0  0  0  0  0  0  0  0
   -8.5013    4.7510   -9.0282 C   0  0  0  0  0  0  0  0  0  0  0  0
   -8.5984    3.4862   -9.6177 C   0  0  0  0  0  0  0  0  0  0  0  0
   -8.5797    3.3956  -11.0247 C   0  0  0  0  0  0  0  0  0  0  0  0
   -8.7546    2.3161   -8.8560 N   0  0  0  0  0  0  0  0  0  0  0  0
   -7.5868    1.8149   -8.1092 C   0  0  0  0  0  0  0  0  0  0  0  0
   -7.8906    2.1273   -6.6523 C   0  0  0  0  0  0  0  0  0  0  0  0
   -9.3776    1.8769   -6.5885 C   0  0  0  0  0  0  0  0  0  0  0  0
   -9.8680    2.4741   -7.9012 C   0  0  0  0  0  0  0  0  0  0  0  0
  1  2  2  0  0  0
  2  3  1  0  0  0
  3 20  1  0  0  0
 20 21  2  0  0  0
 21 22  1  0  0  0
 22 23  1  0  0  0
 22 24  2  0  0  0
 24 25  1  0  0  0
 25 27  1  0  0  0
 27 28  1  0  0  0
 28 29  1  0  0  0
 29 30  1  0  0  0
 30 31  1  0  0  0
 25 26  2  0  0  0
  2  5  1  0  0  0
  5  6  2  0  0  0
  6  7  1  0  0  0
  7  8  1  0  0  0
  7  9  2  0  0  0
  9 10  1  0  0  0
 10 11  2  0  0  0
 11 12  1  0  0  0
 12 13  2  0  0  0
 13 14  1  0  0  0
 14 15  1  0  0  0
 15 16  1  0  0  0
 16 17  1  0  0  0
 17 18  1  0  0  0
 26 20  1  0  0  0
 11  5  1  0  0  0
 18 15  1  0  0  0
 31 27  1  0  0  0
 14 10  1  0  0  0
  3  4  1  0  0  0
 17 19  1  0  0  0
M  END
> <minimizedAffinity>
-9.39373

> <minimizedRMSD>
0.68166

$$$$
P28362


 35 40  0  0  0  0  0  0  0  0999 V2000
   -1.8542    8.1491  -16.6344 C   0  0  0  0  0  0  0  0  0  0  0  0
   -2.7615    7.0216  -16.8506 N   0  0  0  0  0  0  0  0  0  0  0  0
   -3.7662    6.9956  -15.7861 C   0  0  0  0  0  0  0  0  0  0  0  0
   -4.8272    6.0207  -16.0674 N   0  0  0  0  0  0  0  0  0  0  0  0
   -5.7977    5.6929  -15.1473 C   0  0  0  0  0  0  0  0  0  0  0  0
   -6.8772    5.2278  -15.8546 C   0  0  0  0  0  0  0  0  0  0  0  0
   -8.1670    5.0012  -15.3723 C   0  0  0  0  0  0  0  0  0  0  0  0
   -9.0680    4.6846  -16.4124 C   0  0  0  0  0  0  0  0  0  0  0  0
   -8.6658    4.6120  -17.7904 C   0  0  0  0  0  0  0  0  0  0  0  0
   -9.9055    4.3941  -18.9728 Cl  0  0  0  0  0  0  0  0  0  0  0  0
   -7.3462    4.8026  -18.2654 C   0  0  0  0  0  0  0  0  0  0  0  0
   -6.4927    5.1360  -17.2222 C   0  0  0  0  0  0  0  0  0  0  0  0
   -5.2001    5.5944  -17.3285 C   0  0  0  0  0  0  0  0  0  0  0  0
   -4.2728    5.8316  -18.4632 C   0  0  0  0  0  0  0  0  0  0  0  0
   -3.2839    4.6914  -18.6952 C   0  0  0  0  0  0  0  0  0  0  0  0
   -1.9514    5.3734  -18.9865 C   0  0  0  0  0  0  0  0  0  0  0  0
   -2.2704    6.7940  -19.1676 N   0  0  0  0  0  0  0  0  0  0  0  0
   -3.3471    7.0361  -18.1995 C   0  0  0  0  0  0  0  0  0  0  0  0
   -2.5892    6.9766  -20.1192 H   0  0  0  0  0  0  0  0  0  0  0  0
   -8.5811    5.3351  -14.0022 C   0  0  0  0  0  0  0  0  0  0  0  0
   -9.0500    6.3883  -13.8178 O   0  0  0  0  0  0  0  0  0  0  0  0
   -8.2902    4.1828  -13.0169 N   0  0  0  0  0  0  0  0  0  0  0  0
   -7.9568    3.3567  -13.4359 H   0  0  0  0  0  0  0  0  0  0  0  0
   -8.4226    4.1218  -11.6320 C   0  0  0  0  0  0  0  0  0  0  0  0
   -8.6941    2.9138  -11.0078 C   0  0  0  0  0  0  0  0  0  0  0  0
   -8.8690    2.9114   -9.6298 C   0  0  0  0  0  0  0  0  0  0  0  0
   -9.1834    1.7769   -9.0033 F   0  0  0  0  0  0  0  0  0  0  0  0
   -8.7423    4.0681   -8.8683 C   0  0  0  0  0  0  0  0  0  0  0  0
   -8.4182    5.2800   -9.4726 C   0  0  0  0  0  0  0  0  0  0  0  0
   -8.2794    5.2865  -10.8647 C   0  0  0  0  0  0  0  0  0  0  0  0
   -8.2359    6.4025   -8.6812 N   0  0  0  0  0  0  0  0  0  0  0  0
   -8.1908    6.1787   -7.2289 C   0  0  0  0  0  0  0  0  0  0  0  0
   -8.6423    7.5065   -6.6141 C   0  0  0  0  0  0  0  0  0  0  0  0
   -8.5652    8.5036   -7.7626 C   0  0  0  0  0  0  0  0  0  0  0  0
   -8.9448    7.6465   -8.9620 C   0  0  0  0  0  0  0  0  0  0  0  0
  1  2  1  0  0  0
  2  3  1  0  0  0
  3  4  1  0  0  0
  4  5  1  0  0  0
  5  6  2  0  0  0
  6  7  1  0  0  0
  7 20  1  0  0  0
 20 21  2  0  0  0
 20 22  1  0  0  0
 22 24  1  0  0  0
 24 25  2  0  0  0
 25 26  1  0  0  0
 26 27  1  0  0  0
 26 28  2  0  0  0
 28 29  1  0  0  0
 29 31  1  0  0  0
 31 32  1  0  0  0
 32 33  1  0  0  0
 33 34  1  0  0  0
 34 35  1  0  0  0
 29 30  2  0  0  0
  7  8  2  0  0  0
  8  9  1  0  0  0
  9 10  1  0  0  0
  9 11  2  0  0  0
 11 12  1  0  0  0
 12 13  2  0  0  0
 13 14  1  0  0  0
 14 15  1  0  0  0
 15 16  1  0  0  0
 16 17  1  0  0  0
 18 17  1  0  0  0
 18  2  1  0  0  0
 13  4  1  0  0  0
 18 14  1  0  0  0
 12  6  1  0  0  0
 30 24  1  0  0  0
 35 31  1  0  0  0
 22 23  1  0  0  0
 17 19  1  0  0  0
M  END
> <minimizedAffinity>
-9.26179

> <minimizedRMSD>
1.32796

$$$$
P28364


 39 45  0  0  0  0  0  0  0  0999 V2000
   -8.4470    5.1201  -15.4728 C   0  0  0  0  0  0  0  0  0  0  0  0
   -9.3307    4.7572  -16.4850 C   0  0  0  0  0  0  0  0  0  0  0  0
   -8.8416    4.6001  -17.7831 C   0  0  0  0  0  0  0  0  0  0  0  0
   -9.9320    4.3076  -19.0748 Cl  0  0  0  0  0  0  0  0  0  0  0  0
   -7.4805    4.7290  -18.0717 C   0  0  0  0  0  0  0  0  0  0  0  0
   -6.5996    5.0877  -17.0627 C   0  0  0  0  0  0  0  0  0  0  0  0
   -7.1026    5.3144  -15.7901 C   0  0  0  0  0  0  0  0  0  0  0  0
   -6.0431    5.9085  -14.9400 C   0  0  0  0  0  0  0  0  0  0  0  0
   -4.7402    5.7539  -15.8077 C   0  0  0  0  0  0  0  0  0  0  0  0
   -3.8801    4.6585  -15.1243 C   0  0  0  0  0  0  0  0  0  0  0  0
   -2.3822    4.7645  -15.3654 C   0  0  0  0  0  0  0  0  0  0  0  0
   -1.8677    6.0888  -15.0364 N   0  0  0  0  0  0  0  0  0  0  0  0
   -2.4709    7.0782  -15.9197 C   0  0  0  0  0  0  0  0  0  0  0  0
   -4.0070    7.1328  -15.8382 C   0  0  0  0  0  0  0  0  0  0  0  0
   -4.5532    8.0592  -16.7882 O   0  0  0  0  0  0  0  0  0  0  0  0
   -4.6740    7.5969  -18.1300 C   0  0  0  0  0  0  0  0  0  0  0  0
   -3.5296    8.0520  -18.9258 N   0  0  0  0  0  0  0  0  0  0  0  0
   -3.1210    6.9110  -19.7459 C   0  0  0  0  0  0  0  0  0  0  0  0
   -3.5140    5.6655  -18.9687 C   0  0  0  0  0  0  0  0  0  0  0  0
   -4.8355    6.0807  -18.3569 C   0  0  0  0  0  0  0  0  0  0  0  0
   -5.1961    5.2855  -17.1753 N   0  0  0  0  0  0  0  0  0  0  0  0
   -0.8548    6.0992  -15.1558 H   0  0  0  0  0  0  0  0  0  0  0  0
   -2.7656    8.3390  -18.3139 H   0  0  0  0  0  0  0  0  0  0  0  0
   -9.6779    6.2995  -13.9527 O   0  0  0  0  0  0  0  0  0  0  0  0
   -8.9402    5.4059  -14.1013 C   0  0  0  0  0  0  0  0  0  0  0  0
   -8.2702    4.4736  -13.0615 N   0  0  0  0  0  0  0  0  0  0  0  0
   -7.6209    3.8361  -13.4374 H   0  0  0  0  0  0  0  0  0  0  0  0
   -8.4376    4.3901  -11.6759 C   0  0  0  0  0  0  0  0  0  0  0  0
   -8.6855    3.1514  -11.0964 C   0  0  0  0  0  0  0  0  0  0  0  0
   -8.8272    3.0648   -9.7184 C   0  0  0  0  0  0  0  0  0  0  0  0
   -9.0922    1.8798   -9.1501 F   0  0  0  0  0  0  0  0  0  0  0  0
   -8.6979    4.1886   -8.9071 C   0  0  0  0  0  0  0  0  0  0  0  0
   -8.4325    5.4517   -9.4510 C   0  0  0  0  0  0  0  0  0  0  0  0
   -8.3277    5.5207  -10.8552 C   0  0  0  0  0  0  0  0  0  0  0  0
   -8.2930    6.5693   -8.6569 N   0  0  0  0  0  0  0  0  0  0  0  0
   -7.4277    7.7008   -8.9924 C   0  0  0  0  0  0  0  0  0  0  0  0
   -7.1807    8.3915   -7.6530 C   0  0  0  0  0  0  0  0  0  0  0  0
   -8.4438    8.0894   -6.8688 C   0  0  0  0  0  0  0  0  0  0  0  0
   -8.7685    6.6566   -7.2791 C   0  0  0  0  0  0  0  0  0  0  0  0
 24 25  2  0  0  0
 25 26  1  0  0  0
 26 28  1  0  0  0
 28 29  2  0  0  0
 29 30  1  0  0  0
 30 31  1  0  0  0
 30 32  2  0  0  0
 32 33  1  0  0  0
 33 35  1  0  0  0
 35 36  1  0  0  0
 36 37  1  0  0  0
 37 38  1  0  0  0
 38 39  1  0  0  0
 33 34  2  0  0  0
 25  1  1  0  0  0
  1  2  2  0  0  0
  2  3  1  0  0  0
  3  4  1  0  0  0
  3  5  2  0  0  0
  5  6  1  0  0  0
  6  7  2  0  0  0
  7  8  1  0  0  0
  9  8  1  0  0  0
  9 10  1  0  0  0
 10 11  1  0  0  0
 11 12  1  0  0  0
 12 13  1  0  0  0
 14 13  1  0  0  0
 14 15  1  0  0  0
 15 16  1  0  0  0
 16 17  1  0  0  0
 17 18  1  0  0  0
 18 19  1  0  0  0
 20 19  1  0  0  0
 20 21  1  0  0  0
 34 28  1  0  0  0
  7  1  1  0  0  0
 14  9  1  0  0  0
 20 16  1  0  0  0
 39 35  1  0  0  0
 21  6  1  0  0  0
 21  9  1  0  0  0
 26 27  1  0  0  0
 12 22  1  0  0  0
 17 23  1  0  0  0
M  END
> <minimizedAffinity>
-9.32358

> <minimizedRMSD>
1.00634

$$$$
P28370


 33 37  0  0  0  0  0  0  0  0999 V2000
   -4.7948    5.3689  -15.7283 N   0  0  0  0  0  0  0  0  0  0  0  0
   -5.8808    5.2486  -14.9158 C   0  0  0  0  0  0  0  0  0  0  0  0
   -6.9427    4.9718  -15.7344 C   0  0  0  0  0  0  0  0  0  0  0  0
   -8.2633    4.7915  -15.3350 C   0  0  0  0  0  0  0  0  0  0  0  0
   -9.1026    4.5028  -16.4194 C   0  0  0  0  0  0  0  0  0  0  0  0
   -8.6387    4.4924  -17.7764 C   0  0  0  0  0  0  0  0  0  0  0  0
   -9.8367    4.2693  -18.9934 Cl  0  0  0  0  0  0  0  0  0  0  0  0
   -7.3054    4.7465  -18.1907 C   0  0  0  0  0  0  0  0  0  0  0  0
   -6.4793    4.9638  -17.0904 C   0  0  0  0  0  0  0  0  0  0  0  0
   -5.1551    5.3393  -17.0544 C   0  0  0  0  0  0  0  0  0  0  0  0
   -4.2010    5.8287  -18.1756 C   0  0  0  0  0  0  0  0  0  0  0  0
   -3.4625    4.7076  -18.9406 C   0  0  0  0  0  0  0  0  0  0  0  0
   -3.5811    5.5120  -20.1654 N   0  0  0  0  0  0  0  0  0  0  0  0
   -4.7479    6.2047  -19.5492 C   0  0  0  0  0  0  0  0  0  0  0  0
   -3.8036    4.9746  -21.0033 H   0  0  0  0  0  0  0  0  0  0  0  0
   -8.7485    5.1652  -14.0034 C   0  0  0  0  0  0  0  0  0  0  0  0
   -9.3771    6.1436  -13.9180 O   0  0  0  0  0  0  0  0  0  0  0  0
   -8.2345    4.2097  -12.9101 N   0  0  0  0  0  0  0  0  0  0  0  0
   -7.7853    3.4012  -13.2473 H   0  0  0  0  0  0  0  0  0  0  0  0
   -8.3021    4.3035  -11.5168 C   0  0  0  0  0  0  0  0  0  0  0  0
   -8.7399    3.1910  -10.8032 C   0  0  0  0  0  0  0  0  0  0  0  0
   -8.6995    3.1852   -9.4022 C   0  0  0  0  0  0  0  0  0  0  0  0
   -8.2434    4.3001   -8.6783 C   0  0  0  0  0  0  0  0  0  0  0  0
   -7.8741    5.4386   -9.4041 C   0  0  0  0  0  0  0  0  0  0  0  0
   -7.8960    5.4331  -10.8021 C   0  0  0  0  0  0  0  0  0  0  0  0
   -7.5373    6.5629  -11.4265 F   0  0  0  0  0  0  0  0  0  0  0  0
   -8.1141    4.1950   -7.1653 C   0  0  0  0  0  0  0  0  0  0  0  0
   -8.4153    5.5075   -6.4605 C   0  0  0  0  0  0  0  0  0  0  0  0
   -9.8892    5.4174   -6.1233 C   0  0  0  0  0  0  0  0  0  0  0  0
  -10.2284    4.0279   -6.0445 O   0  0  0  0  0  0  0  0  0  0  0  0
   -9.0924    3.2578   -6.4681 C   0  0  0  0  0  0  0  0  0  0  0  0
   -2.9741    4.4713  -14.6693 C   0  0  0  0  0  0  0  0  0  0  0  0
   -3.5113    5.6462  -15.2660 O   0  0  0  0  0  0  0  0  0  0  0  0
 32 33  1  0  0  0
 33  1  1  0  0  0
  1  2  1  0  0  0
  2  3  2  0  0  0
  3  4  1  0  0  0
  4 16  1  0  0  0
 16 17  2  0  0  0
 16 18  1  0  0  0
 18 20  1  0  0  0
 20 21  2  0  0  0
 21 22  1  0  0  0
 22 23  2  0  0  0
 27 23  1  0  0  0
 27 28  1  0  0  0
 28 29  1  0  0  0
 29 30  1  0  0  0
 30 31  1  0  0  0
 23 24  1  0  0  0
 24 25  2  0  0  0
 25 26  1  0  0  0
  4  5  2  0  0  0
  5  6  1  0  0  0
  6  7  1  0  0  0
  6  8  2  0  0  0
  8  9  1  0  0  0
  9 10  2  0  0  0
 10 11  1  0  0  0
 11 12  1  0  0  0
 12 13  1  0  0  0
 13 14  1  0  0  0
 10  1  1  0  0  0
 14 11  1  0  0  0
  9  3  1  0  0  0
 25 20  1  0  0  0
 31 27  1  0  0  0
 18 19  1  0  0  0
 13 15  1  0  0  0
M  END
> <minimizedAffinity>
-8.58799

> <minimizedRMSD>
1.14322

$$$$
P28371


 32 36  0  0  0  0  0  0  0  0999 V2000
   -4.9563    5.0491  -17.5947 N   0  0  0  0  0  0  0  0  0  0  0  0
   -4.0798    4.9013  -16.5707 N   0  0  0  0  0  0  0  0  0  0  0  0
   -4.8476    4.9737  -15.4868 C   0  0  0  0  0  0  0  0  0  0  0  0
   -6.2181    4.9608  -15.8031 C   0  0  0  0  0  0  0  0  0  0  0  0
   -7.4128    5.0122  -15.0695 C   0  0  0  0  0  0  0  0  0  0  0  0
   -8.6355    4.8182  -15.7068 C   0  0  0  0  0  0  0  0  0  0  0  0
   -8.6657    4.6834  -17.0876 C   0  0  0  0  0  0  0  0  0  0  0  0
  -10.1938    4.5492  -17.8528 Cl  0  0  0  0  0  0  0  0  0  0  0  0
   -7.5010    4.7521  -17.8664 C   0  0  0  0  0  0  0  0  0  0  0  0
   -6.2727    4.8850  -17.1973 C   0  0  0  0  0  0  0  0  0  0  0  0
   -4.6817    7.2509  -18.6937 C   0  0  0  0  0  0  0  0  0  0  0  0
   -4.4638    5.7411  -18.8105 C   0  0  0  0  0  0  0  0  0  0  0  0
   -3.0315    5.2575  -19.1767 C   0  0  0  0  0  0  0  0  0  0  0  0
   -3.4301    5.3766  -20.5965 N   0  0  0  0  0  0  0  0  0  0  0  0
   -4.8351    5.1523  -20.1728 C   0  0  0  0  0  0  0  0  0  0  0  0
   -3.0508    4.6507  -21.2045 H   0  0  0  0  0  0  0  0  0  0  0  0
   -7.3596    5.3827  -13.6457 C   0  0  0  0  0  0  0  0  0  0  0  0
   -6.6697    6.2601  -13.3152 O   0  0  0  0  0  0  0  0  0  0  0  0
   -8.2511    4.4504  -12.8148 N   0  0  0  0  0  0  0  0  0  0  0  0
   -8.8026    3.8291  -13.3430 H   0  0  0  0  0  0  0  0  0  0  0  0
   -8.4069    4.3399  -11.4385 C   0  0  0  0  0  0  0  0  0  0  0  0
   -8.6388    3.0604  -10.9598 C   0  0  0  0  0  0  0  0  0  0  0  0
   -8.7464    2.8410   -9.5956 C   0  0  0  0  0  0  0  0  0  0  0  0
   -8.6990    3.8912   -8.6701 C   0  0  0  0  0  0  0  0  0  0  0  0
   -8.4593    5.1807   -9.1531 C   0  0  0  0  0  0  0  0  0  0  0  0
   -8.3114    5.3981  -10.5306 C   0  0  0  0  0  0  0  0  0  0  0  0
   -8.1399    6.6585  -10.9548 F   0  0  0  0  0  0  0  0  0  0  0  0
   -8.8614    3.5145   -7.2202 C   0  0  0  0  0  0  0  0  0  0  0  0
   -9.4889    4.4883   -6.2474 C   0  0  0  0  0  0  0  0  0  0  0  0
   -9.9306    3.5562   -5.1406 C   0  0  0  0  0  0  0  0  0  0  0  0
  -10.4624    2.4140   -5.8041 O   0  0  0  0  0  0  0  0  0  0  0  0
   -9.7282    2.2559   -7.0209 C   0  0  0  0  0  0  0  0  0  0  0  0
 11 12  1  0  0  0
 12  1  1  0  0  0
  1  2  1  0  0  0
  2  3  2  0  0  0
  3  4  1  0  0  0
  4  5  2  0  0  0
  5 17  1  0  0  0
 17 18  2  0  0  0
 17 19  1  0  0  0
 19 21  1  0  0  0
 21 22  2  0  0  0
 22 23  1  0  0  0
 23 24  2  0  0  0
 28 24  1  0  0  0
 28 29  1  0  0  0
 29 30  1  0  0  0
 30 31  1  0  0  0
 31 32  1  0  0  0
 24 25  1  0  0  0
 25 26  2  0  0  0
 26 27  1  0  0  0
  5  6  1  0  0  0
  6  7  2  0  0  0
  7  8  1  0  0  0
  7  9  1  0  0  0
  9 10  2  0  0  0
 12 13  1  0  0  0
 13 14  1  0  0  0
 14 15  1  0  0  0
 15 12  1  0  0  0
 10  1  1  0  0  0
 10  4  1  0  0  0
 26 21  1  0  0  0
 32 28  1  0  0  0
 19 20  1  0  0  0
 14 16  1  0  0  0
M  END
> <minimizedAffinity>
-8.34981

> <minimizedRMSD>
0.71691

$$$$
P28372


 32 36  0  0  0  0  0  0  0  0999 V2000
   -6.2864    5.9843  -13.7866 O   0  0  0  0  0  0  0  0  0  0  0  0
   -7.0964    5.1936  -14.0740 C   0  0  0  0  0  0  0  0  0  0  0  0
   -8.1221    4.4429  -13.1925 N   0  0  0  0  0  0  0  0  0  0  0  0
   -8.7557    3.8761  -13.6890 H   0  0  0  0  0  0  0  0  0  0  0  0
   -7.2355    4.8710  -15.5101 C   0  0  0  0  0  0  0  0  0  0  0  0
   -8.5079    4.6723  -16.0513 C   0  0  0  0  0  0  0  0  0  0  0  0
   -8.6765    4.6245  -17.4296 C   0  0  0  0  0  0  0  0  0  0  0  0
  -10.2647    4.4936  -18.0626 Cl  0  0  0  0  0  0  0  0  0  0  0  0
   -7.6024    4.7639  -18.3114 C   0  0  0  0  0  0  0  0  0  0  0  0
   -6.3272    4.9132  -17.7571 C   0  0  0  0  0  0  0  0  0  0  0  0
   -6.1024    4.9500  -16.3545 C   0  0  0  0  0  0  0  0  0  0  0  0
   -4.6748    5.0412  -16.0859 C   0  0  0  0  0  0  0  0  0  0  0  0
   -4.0553    5.0276  -17.2763 N   0  0  0  0  0  0  0  0  0  0  0  0
   -2.8481    4.8411  -17.5478 O   0  0  0  0  0  0  0  0  0  0  0  0
   -5.0696    5.0607  -18.3164 N   0  0  0  0  0  0  0  0  0  0  0  0
   -4.8430    5.2806  -19.7548 C   0  0  0  0  0  0  0  0  0  0  0  0
   -3.3976    5.5611  -20.2356 C   0  0  0  0  0  0  0  0  0  0  0  0
   -3.9727    6.5725  -21.1671 N   0  0  0  0  0  0  0  0  0  0  0  0
   -5.0670    6.7507  -20.1738 C   0  0  0  0  0  0  0  0  0  0  0  0
   -4.2709    6.2015  -22.0692 H   0  0  0  0  0  0  0  0  0  0  0  0
   -8.2956    4.4382  -11.8057 C   0  0  0  0  0  0  0  0  0  0  0  0
   -8.4927    3.2246  -11.1472 C   0  0  0  0  0  0  0  0  0  0  0  0
   -8.6217    3.1790   -9.7487 C   0  0  0  0  0  0  0  0  0  0  0  0
   -8.5759    4.3514   -8.9847 C   0  0  0  0  0  0  0  0  0  0  0  0
   -8.4118    5.5698   -9.6619 C   0  0  0  0  0  0  0  0  0  0  0  0
   -8.2807    5.6090  -11.0484 C   0  0  0  0  0  0  0  0  0  0  0  0
   -8.2280    6.8150  -11.6294 F   0  0  0  0  0  0  0  0  0  0  0  0
   -8.7245    4.3887   -7.4855 C   0  0  0  0  0  0  0  0  0  0  0  0
   -7.4724    4.8413   -6.7558 C   0  0  0  0  0  0  0  0  0  0  0  0
   -7.7807    4.4670   -5.3190 C   0  0  0  0  0  0  0  0  0  0  0  0
   -8.7782    3.4367   -5.3410 O   0  0  0  0  0  0  0  0  0  0  0  0
   -9.0452    3.1137   -6.7182 C   0  0  0  0  0  0  0  0  0  0  0  0
  1  2  2  0  0  0
  2  3  1  0  0  0
  3 21  1  0  0  0
 21 22  2  0  0  0
 22 23  1  0  0  0
 23 24  2  0  0  0
 28 24  1  0  0  0
 28 29  1  0  0  0
 29 30  1  0  0  0
 30 31  1  0  0  0
 31 32  1  0  0  0
 24 25  1  0  0  0
 25 26  2  0  0  0
 26 27  1  0  0  0
  2  5  1  0  0  0
  5  6  2  0  0  0
  6  7  1  0  0  0
  7  8  1  0  0  0
  7  9  2  0  0  0
  9 10  1  0  0  0
 10 11  2  0  0  0
 11 12  1  0  0  0
 12 13  2  0  0  0
 13 14  1  0  0  0
 13 15  1  0  0  0
 15 16  1  0  0  0
 16 17  1  0  0  0
 17 18  1  0  0  0
 18 19  1  0  0  0
 26 21  1  0  0  0
 11  5  1  0  0  0
 19 16  1  0  0  0
 32 28  1  0  0  0
 15 10  1  0  0  0
  3  4  1  0  0  0
 18 20  1  0  0  0
M  CHG 1  13   1
M  CHG 1  14  -1
M  END
> <minimizedAffinity>
-8.45487

> <minimizedRMSD>
0.32388

$$$$
P28373


 34 38  0  0  0  0  0  0  0  0999 V2000
   -5.1989    5.0465  -18.0557 N   0  0  0  0  0  0  0  0  0  0  0  0
   -4.2107    5.1475  -17.1318 N   0  0  0  0  0  0  0  0  0  0  0  0
   -4.8488    5.0632  -15.9662 C   0  0  0  0  0  0  0  0  0  0  0  0
   -6.2366    4.8775  -16.1168 C   0  0  0  0  0  0  0  0  0  0  0  0
   -7.3385    4.7547  -15.2508 C   0  0  0  0  0  0  0  0  0  0  0  0
   -8.6200    4.5838  -15.7744 C   0  0  0  0  0  0  0  0  0  0  0  0
   -8.8073    4.5906  -17.1483 C   0  0  0  0  0  0  0  0  0  0  0  0
  -10.3979    4.5929  -17.7872 Cl  0  0  0  0  0  0  0  0  0  0  0  0
   -7.7358    4.7088  -18.0315 C   0  0  0  0  0  0  0  0  0  0  0  0
   -6.4476    4.8553  -17.4945 C   0  0  0  0  0  0  0  0  0  0  0  0
   -5.8623    4.7578  -20.5209 N   0  0  0  0  0  0  0  0  0  0  0  0
   -4.9340    5.2896  -19.4996 C   0  0  0  0  0  0  0  0  0  0  0  0
   -3.4667    5.0475  -19.9453 C   0  0  0  0  0  0  0  0  0  0  0  0
   -3.5174    6.3282  -20.7046 N   0  0  0  0  0  0  0  0  0  0  0  0
   -4.6192    6.7747  -19.8123 C   0  0  0  0  0  0  0  0  0  0  0  0
   -6.0699    3.7804  -20.3156 H   0  0  0  0  0  0  0  0  0  0  0  0
   -5.4303    4.8274  -21.4422 H   0  0  0  0  0  0  0  0  0  0  0  0
   -3.7836    6.2268  -21.6840 H   0  0  0  0  0  0  0  0  0  0  0  0
   -7.1491    5.0022  -13.8105 C   0  0  0  0  0  0  0  0  0  0  0  0
   -6.2685    5.7011  -13.4963 O   0  0  0  0  0  0  0  0  0  0  0  0
   -8.1797    4.2403  -12.9481 N   0  0  0  0  0  0  0  0  0  0  0  0
   -8.7834    3.6492  -13.4534 H   0  0  0  0  0  0  0  0  0  0  0  0
   -8.3946    4.2537  -11.5677 C   0  0  0  0  0  0  0  0  0  0  0  0
   -8.6699    3.0410  -10.9403 C   0  0  0  0  0  0  0  0  0  0  0  0
   -8.7716    2.9650   -9.5449 C   0  0  0  0  0  0  0  0  0  0  0  0
   -8.6350    4.1069   -8.7412 C   0  0  0  0  0  0  0  0  0  0  0  0
   -8.3988    5.3285   -9.3876 C   0  0  0  0  0  0  0  0  0  0  0  0
   -8.2926    5.3987  -10.7792 C   0  0  0  0  0  0  0  0  0  0  0  0
   -8.1386    6.6127  -11.3246 F   0  0  0  0  0  0  0  0  0  0  0  0
   -8.6560    3.9753   -7.2304 C   0  0  0  0  0  0  0  0  0  0  0  0
   -9.1693    5.1795   -6.4496 C   0  0  0  0  0  0  0  0  0  0  0  0
   -9.6090    4.5605   -5.1480 C   0  0  0  0  0  0  0  0  0  0  0  0
  -10.2408    3.3417   -5.5323 O   0  0  0  0  0  0  0  0  0  0  0  0
   -9.5112    2.8277   -6.6662 C   0  0  0  0  0  0  0  0  0  0  0  0
 11 12  1  0  0  0
 12  1  1  0  0  0
  1  2  1  0  0  0
  2  3  2  0  0  0
  3  4  1  0  0  0
  4  5  2  0  0  0
  5 19  1  0  0  0
 19 20  2  0  0  0
 19 21  1  0  0  0
 21 23  1  0  0  0
 23 24  2  0  0  0
 24 25  1  0  0  0
 25 26  2  0  0  0
 30 26  1  0  0  0
 30 31  1  0  0  0
 31 32  1  0  0  0
 32 33  1  0  0  0
 33 34  1  0  0  0
 26 27  1  0  0  0
 27 28  2  0  0  0
 28 29  1  0  0  0
  5  6  1  0  0  0
  6  7  2  0  0  0
  7  8  1  0  0  0
  7  9  1  0  0  0
  9 10  2  0  0  0
 12 13  1  0  0  0
 13 14  1  0  0  0
 14 15  1  0  0  0
 15 12  1  0  0  0
 10  1  1  0  0  0
 10  4  1  0  0  0
 28 23  1  0  0  0
 34 30  1  0  0  0
 11 16  1  0  0  0
 11 17  1  0  0  0
 21 22  1  0  0  0
 14 18  1  0  0  0
M  END
> <minimizedAffinity>
-9.09532

> <minimizedRMSD>
0.52363

$$$$
P28374


 37 41  0  0  0  0  0  0  0  0999 V2000
   -4.8901    5.4556  -16.6945 N   0  0  0  0  0  0  0  0  0  0  0  0
   -5.7954    5.5578  -15.6621 C   0  0  0  0  0  0  0  0  0  0  0  0
   -7.0301    5.2312  -16.1480 C   0  0  0  0  0  0  0  0  0  0  0  0
   -8.2191    5.1865  -15.4226 C   0  0  0  0  0  0  0  0  0  0  0  0
   -9.3057    4.7828  -16.2162 C   0  0  0  0  0  0  0  0  0  0  0  0
   -9.1734    4.5048  -17.6161 C   0  0  0  0  0  0  0  0  0  0  0  0
  -10.6344    4.1967  -18.4769 Cl  0  0  0  0  0  0  0  0  0  0  0  0
   -7.9595    4.5567  -18.3508 C   0  0  0  0  0  0  0  0  0  0  0  0
   -6.8942    4.9408  -17.5355 C   0  0  0  0  0  0  0  0  0  0  0  0
   -5.5742    5.1690  -17.8805 C   0  0  0  0  0  0  0  0  0  0  0  0
   -4.9338    5.0537  -19.3196 C   0  0  0  0  0  0  0  0  0  0  0  0
   -3.4148    4.7250  -19.3800 C   0  0  0  0  0  0  0  0  0  0  0  0
   -3.2932    5.6409  -20.5215 N   0  0  0  0  0  0  0  0  0  0  0  0
   -4.4755    6.3607  -19.9933 C   0  0  0  0  0  0  0  0  0  0  0  0
   -3.4337    5.2047  -21.4328 H   0  0  0  0  0  0  0  0  0  0  0  0
   -8.3596    5.6935  -14.0507 C   0  0  0  0  0  0  0  0  0  0  0  0
   -8.4314    6.8472  -13.8925 O   0  0  0  0  0  0  0  0  0  0  0  0
   -8.3762    4.5420  -13.0273 N   0  0  0  0  0  0  0  0  0  0  0  0
   -8.3782    3.6401  -13.4219 H   0  0  0  0  0  0  0  0  0  0  0  0
   -8.3887    4.5692  -11.6355 C   0  0  0  0  0  0  0  0  0  0  0  0
   -8.1546    5.7441  -10.9322 C   0  0  0  0  0  0  0  0  0  0  0  0
   -8.1723    5.7324   -9.5353 C   0  0  0  0  0  0  0  0  0  0  0  0
   -8.4226    4.5493   -8.8135 C   0  0  0  0  0  0  0  0  0  0  0  0
   -8.6464    3.3699   -9.5339 C   0  0  0  0  0  0  0  0  0  0  0  0
   -8.6265    3.3931  -10.9294 C   0  0  0  0  0  0  0  0  0  0  0  0
   -8.7994    2.2540  -11.6108 F   0  0  0  0  0  0  0  0  0  0  0  0
   -8.4546    4.6332   -7.3098 C   0  0  0  0  0  0  0  0  0  0  0  0
   -7.1160    4.9753   -6.6808 C   0  0  0  0  0  0  0  0  0  0  0  0
   -7.3499    4.6515   -5.2169 C   0  0  0  0  0  0  0  0  0  0  0  0
   -8.4722    3.7622   -5.1397 O   0  0  0  0  0  0  0  0  0  0  0  0
   -8.8454    3.4151   -6.4861 C   0  0  0  0  0  0  0  0  0  0  0  0
   -2.9307    4.8376  -15.3301 C   0  0  0  0  0  0  0  0  0  0  0  0
   -3.4380    5.6154  -16.5421 C   0  0  0  0  0  0  0  0  0  0  0  0
   -2.8996    7.0775  -16.5433 C   0  0  0  0  0  0  0  0  0  0  0  0
   -2.7939    7.7253  -15.2318 N   0  0  0  0  0  0  0  0  0  0  0  0
   -3.7231    7.8143  -14.8206 H   0  0  0  0  0  0  0  0  0  0  0  0
   -2.3808    8.6513  -15.3423 H   0  0  0  0  0  0  0  0  0  0  0  0
 33 32  1  0  0  0
 33 34  1  0  0  0
 34 35  1  0  0  0
 33  1  1  0  0  0
  1  2  1  0  0  0
  2  3  2  0  0  0
  3  4  1  0  0  0
  4 16  1  0  0  0
 16 17  2  0  0  0
 16 18  1  0  0  0
 18 20  1  0  0  0
 20 21  2  0  0  0
 21 22  1  0  0  0
 22 23  2  0  0  0
 27 23  1  0  0  0
 27 28  1  0  0  0
 28 29  1  0  0  0
 29 30  1  0  0  0
 30 31  1  0  0  0
 23 24  1  0  0  0
 24 25  2  0  0  0
 25 26  1  0  0  0
  4  5  2  0  0  0
  5  6  1  0  0  0
  6  7  1  0  0  0
  6  8  2  0  0  0
  8  9  1  0  0  0
  9 10  2  0  0  0
 10 11  1  0  0  0
 11 12  1  0  0  0
 12 13  1  0  0  0
 13 14  1  0  0  0
 10  1  1  0  0  0
 14 11  1  0  0  0
  9  3  1  0  0  0
 25 20  1  0  0  0
 31 27  1  0  0  0
 35 36  1  0  0  0
 35 37  1  0  0  0
 18 19  1  0  0  0
 13 15  1  0  0  0
M  END
> <minimizedAffinity>
-8.05427

> <minimizedRMSD>
0.90795

$$$$
P28375


 34 38  0  0  0  0  0  0  0  0999 V2000
   -8.8588    4.4143  -16.9531 C   0  0  0  0  0  0  0  0  0  0  0  0
   -7.8061    4.9124  -17.9807 C   0  0  0  0  0  0  0  0  0  0  0  0
   -6.4416    4.8913  -17.3614 C   0  0  0  0  0  0  0  0  0  0  0  0
   -6.2534    5.0214  -16.0439 C   0  0  0  0  0  0  0  0  0  0  0  0
   -4.8003    5.0304  -15.7559 C   0  0  0  0  0  0  0  0  0  0  0  0
   -4.1539    4.9511  -17.0945 N   0  0  0  0  0  0  0  0  0  0  0  0
   -5.2363    4.8221  -18.0418 N   0  0  0  0  0  0  0  0  0  0  0  0
   -7.3400    5.4404  -15.1302 C   0  0  0  0  0  0  0  0  0  0  0  0
   -8.7514    5.0172  -15.5384 C   0  0  0  0  0  0  0  0  0  0  0  0
   -3.5380    4.1396  -17.1450 H   0  0  0  0  0  0  0  0  0  0  0  0
   -5.0674    5.1880  -19.4387 C   0  0  0  0  0  0  0  0  0  0  0  0
   -3.6166    5.1823  -19.9796 C   0  0  0  0  0  0  0  0  0  0  0  0
   -3.8839    6.4860  -20.6284 N   0  0  0  0  0  0  0  0  0  0  0  0
   -4.9988    6.7126  -19.6851 C   0  0  0  0  0  0  0  0  0  0  0  0
   -4.1701    6.4162  -21.6050 H   0  0  0  0  0  0  0  0  0  0  0  0
   -7.0255    5.5090  -13.6252 C   0  0  0  0  0  0  0  0  0  0  0  0
   -6.1383    6.1791  -13.2566 O   0  0  0  0  0  0  0  0  0  0  0  0
   -8.0769    4.6953  -12.8177 N   0  0  0  0  0  0  0  0  0  0  0  0
   -8.6818    4.1449  -13.3658 H   0  0  0  0  0  0  0  0  0  0  0  0
   -8.3019    4.6188  -11.4430 C   0  0  0  0  0  0  0  0  0  0  0  0
   -8.5293    3.3780  -10.8564 C   0  0  0  0  0  0  0  0  0  0  0  0
   -8.6309    3.2721   -9.4621 C   0  0  0  0  0  0  0  0  0  0  0  0
   -8.5327    4.4023   -8.6326 C   0  0  0  0  0  0  0  0  0  0  0  0
   -8.4179    5.6554   -9.2433 C   0  0  0  0  0  0  0  0  0  0  0  0
   -8.3041    5.7552  -10.6298 C   0  0  0  0  0  0  0  0  0  0  0  0
   -8.2542    6.9836  -11.1638 F   0  0  0  0  0  0  0  0  0  0  0  0
   -8.4892    4.2235   -7.1338 C   0  0  0  0  0  0  0  0  0  0  0  0
   -9.5459    3.3297   -6.5175 C   0  0  0  0  0  0  0  0  0  0  0  0
   -9.4481    3.7125   -5.0540 C   0  0  0  0  0  0  0  0  0  0  0  0
   -9.1320    5.1126   -5.0096 O   0  0  0  0  0  0  0  0  0  0  0  0
   -8.6905    5.5054   -6.3242 C   0  0  0  0  0  0  0  0  0  0  0  0
  -10.5338    4.6641  -18.7405 C   0  0  0  0  0  0  0  0  0  0  0  0
  -10.2696    4.3413  -17.3601 N   0  0  0  0  0  0  0  0  0  0  0  0
  -10.5967    3.3900  -17.1914 H   0  0  0  0  0  0  0  0  0  0  0  0
 32 33  1  0  0  0
  1 33  1  0  0  0
  1  2  1  0  0  0
  2  3  1  0  0  0
  3  4  2  0  0  0
  4  5  1  0  0  0
  5  6  1  0  0  0
  6  7  1  0  0  0
  7 11  1  0  0  0
 11 12  1  0  0  0
 12 13  1  0  0  0
 13 14  1  0  0  0
  4  8  1  0  0  0
  8 16  1  0  0  0
 16 17  2  0  0  0
 16 18  1  0  0  0
 18 20  1  0  0  0
 20 21  2  0  0  0
 21 22  1  0  0  0
 22 23  2  0  0  0
 27 23  1  0  0  0
 27 28  1  0  0  0
 28 29  1  0  0  0
 29 30  1  0  0  0
 30 31  1  0  0  0
 23 24  1  0  0  0
 24 25  2  0  0  0
 25 26  1  0  0  0
  8  9  1  0  0  0
  9  1  1  0  0  0
  7  3  1  0  0  0
 14 11  1  0  0  0
 25 20  1  0  0  0
 31 27  1  0  0  0
 33 34  1  0  0  0
  6 10  1  0  0  0
 13 15  1  0  0  0
 18 19  1  0  0  0
M  END
> <minimizedAffinity>
-7.90387

> <minimizedRMSD>
0.69653

$$$$
P28377


 36 40  0  0  0  0  0  0  0  0999 V2000
   -5.3654    4.9977  -15.3388 C   0  0  0  0  0  0  0  0  0  0  0  0
   -4.3800    5.1092  -16.2345 N   0  0  0  0  0  0  0  0  0  0  0  0
   -5.0112    5.1734  -17.4290 N   0  0  0  0  0  0  0  0  0  0  0  0
   -6.3571    4.8699  -17.3481 C   0  0  0  0  0  0  0  0  0  0  0  0
   -7.3823    4.6700  -18.2894 C   0  0  0  0  0  0  0  0  0  0  0  0
   -8.6850    4.4627  -17.8117 C   0  0  0  0  0  0  0  0  0  0  0  0
   -9.9719    4.2576  -18.9278 Cl  0  0  0  0  0  0  0  0  0  0  0  0
   -8.9914    4.5287  -16.4607 C   0  0  0  0  0  0  0  0  0  0  0  0
   -7.9717    4.7797  -15.5489 C   0  0  0  0  0  0  0  0  0  0  0  0
   -6.6297    4.8655  -15.9759 C   0  0  0  0  0  0  0  0  0  0  0  0
   -4.3215    5.9306  -18.4854 C   0  0  0  0  0  0  0  0  0  0  0  0
   -3.5955    5.0100  -19.4892 C   0  0  0  0  0  0  0  0  0  0  0  0
   -3.9030    6.0292  -20.5237 N   0  0  0  0  0  0  0  0  0  0  0  0
   -5.0896    6.4055  -19.7095 C   0  0  0  0  0  0  0  0  0  0  0  0
   -4.1225    5.6481  -21.4441 H   0  0  0  0  0  0  0  0  0  0  0  0
   -8.3139    5.2899  -14.2152 C   0  0  0  0  0  0  0  0  0  0  0  0
   -8.7014    6.3902  -14.1755 O   0  0  0  0  0  0  0  0  0  0  0  0
   -8.0394    4.2847  -13.0782 N   0  0  0  0  0  0  0  0  0  0  0  0
   -7.6393    3.4333  -13.3685 H   0  0  0  0  0  0  0  0  0  0  0  0
   -8.2664    4.3858  -11.7013 C   0  0  0  0  0  0  0  0  0  0  0  0
   -8.6892    3.2614  -10.9926 C   0  0  0  0  0  0  0  0  0  0  0  0
   -8.8068    3.3065   -9.5903 C   0  0  0  0  0  0  0  0  0  0  0  0
   -8.5124    4.4782   -8.8694 C   0  0  0  0  0  0  0  0  0  0  0  0
   -8.1575    5.6134   -9.6040 C   0  0  0  0  0  0  0  0  0  0  0  0
   -8.0341    5.5638  -10.9897 C   0  0  0  0  0  0  0  0  0  0  0  0
   -7.7337    6.7145  -11.6033 F   0  0  0  0  0  0  0  0  0  0  0  0
   -8.6421    4.5404   -7.3615 C   0  0  0  0  0  0  0  0  0  0  0  0
   -7.3749    4.8632   -6.5791 C   0  0  0  0  0  0  0  0  0  0  0  0
   -7.7462    4.4450   -5.1765 C   0  0  0  0  0  0  0  0  0  0  0  0
   -8.5826    3.2939   -5.3130 O   0  0  0  0  0  0  0  0  0  0  0  0
   -9.0354    3.2339   -6.6822 C   0  0  0  0  0  0  0  0  0  0  0  0
   -5.0425    5.0319  -13.8786 C   0  0  0  0  0  0  0  0  0  0  0  0
   -5.2419    2.5842  -13.7748 O   0  0  0  0  0  0  0  0  0  0  0  0
   -5.0849    3.6683  -13.2364 C   0  0  0  0  0  0  0  0  0  0  0  0
   -4.9262    3.7338  -11.8957 O   0  0  0  0  0  0  0  0  0  0  0  0
   -4.8055    4.5639  -11.4782 H   0  0  0  0  0  0  0  0  0  0  0  0
 33 34  2  0  0  0
 34 35  1  0  0  0
 34 32  1  0  0  0
 32  1  1  0  0  0
  1  2  2  0  0  0
  2  3  1  0  0  0
  3 11  1  0  0  0
 11 12  1  0  0  0
 12 13  1  0  0  0
 13 14  1  0  0  0
  3  4  1  0  0  0
  4  5  2  0  0  0
  5  6  1  0  0  0
  6  7  1  0  0  0
  6  8  2  0  0  0
  8  9  1  0  0  0
  9 16  1  0  0  0
 16 17  2  0  0  0
 16 18  1  0  0  0
 18 20  1  0  0  0
 20 21  2  0  0  0
 21 22  1  0  0  0
 22 23  2  0  0  0
 27 23  1  0  0  0
 27 28  1  0  0  0
 28 29  1  0  0  0
 29 30  1  0  0  0
 30 31  1  0  0  0
 23 24  1  0  0  0
 24 25  2  0  0  0
 25 26  1  0  0  0
  9 10  2  0  0  0
 10  1  1  0  0  0
 14 11  1  0  0  0
 10  4  1  0  0  0
 25 20  1  0  0  0
 31 27  1  0  0  0
 35 36  1  0  0  0
 13 15  1  0  0  0
 18 19  1  0  0  0
M  END
> <minimizedAffinity>
-8.23051

> <minimizedRMSD>
0.80789

$$$$
P28384


 33 37  0  0  0  0  0  0  0  0999 V2000
   -8.3393    4.5568  -12.8002 N   0  0  0  0  0  0  0  0  0  0  0  0
   -8.1819    5.6944  -13.8329 C   0  0  0  0  0  0  0  0  0  0  0  0
   -8.1238    6.8509  -13.6822 O   0  0  0  0  0  0  0  0  0  0  0  0
   -8.4400    3.6580  -13.1891 H   0  0  0  0  0  0  0  0  0  0  0  0
   -8.0601    5.1834  -15.2080 C   0  0  0  0  0  0  0  0  0  0  0  0
   -9.1577    4.8051  -16.0056 C   0  0  0  0  0  0  0  0  0  0  0  0
   -9.0458    4.5563  -17.4150 C   0  0  0  0  0  0  0  0  0  0  0  0
  -10.5068    4.2586  -18.2821 Cl  0  0  0  0  0  0  0  0  0  0  0  0
   -7.8437    4.6216  -18.1592 C   0  0  0  0  0  0  0  0  0  0  0  0
   -6.7673    4.9521  -17.3393 C   0  0  0  0  0  0  0  0  0  0  0  0
   -5.4480    5.1308  -17.7133 C   0  0  0  0  0  0  0  0  0  0  0  0
   -4.7498    5.4302  -16.5557 N   0  0  0  0  0  0  0  0  0  0  0  0
   -3.3279    5.6295  -16.3895 C   0  0  0  0  0  0  0  0  0  0  0  0
   -5.6191    5.5145  -15.4870 C   0  0  0  0  0  0  0  0  0  0  0  0
   -6.8742    5.2180  -15.9447 C   0  0  0  0  0  0  0  0  0  0  0  0
   -4.9459    5.0070  -19.2096 C   0  0  0  0  0  0  0  0  0  0  0  0
   -3.4437    5.0066  -19.5344 C   0  0  0  0  0  0  0  0  0  0  0  0
   -3.5046    6.4590  -19.7998 N   0  0  0  0  0  0  0  0  0  0  0  0
   -4.9678    6.3362  -19.9975 C   0  0  0  0  0  0  0  0  0  0  0  0
   -2.9921    6.7560  -20.6302 H   0  0  0  0  0  0  0  0  0  0  0  0
   -9.1503    2.2141   -8.5549 C   0  0  0  0  0  0  0  0  0  0  0  0
   -8.6960    3.4496   -9.2725 C   0  0  0  0  0  0  0  0  0  0  0  0
   -8.1670    4.5605   -8.5812 C   0  0  0  0  0  0  0  0  0  0  0  0
   -7.8495    5.7099   -9.3254 C   0  0  0  0  0  0  0  0  0  0  0  0
   -7.9438    5.7280  -10.7195 C   0  0  0  0  0  0  0  0  0  0  0  0
   -8.3619    4.5957  -11.4059 C   0  0  0  0  0  0  0  0  0  0  0  0
   -8.7603    3.4773  -10.6777 C   0  0  0  0  0  0  0  0  0  0  0  0
   -9.1996    2.4005  -11.3457 F   0  0  0  0  0  0  0  0  0  0  0  0
   -7.9275    4.5296   -7.0851 C   0  0  0  0  0  0  0  0  0  0  0  0
   -6.6650    5.2197   -6.5909 C   0  0  0  0  0  0  0  0  0  0  0  0
   -6.9689    5.3780   -5.1164 C   0  0  0  0  0  0  0  0  0  0  0  0
   -8.3798    5.6140   -5.0086 O   0  0  0  0  0  0  0  0  0  0  0  0
   -8.9924    5.2309   -6.2530 C   0  0  0  0  0  0  0  0  0  0  0  0
 21 22  1  0  0  0
 22 23  2  0  0  0
 29 23  1  0  0  0
 29 30  1  0  0  0
 30 31  1  0  0  0
 31 32  1  0  0  0
 32 33  1  0  0  0
 23 24  1  0  0  0
 24 25  2  0  0  0
 25 26  1  0  0  0
 26  1  1  0  0  0
  1  2  1  0  0  0
  2  3  2  0  0  0
  2  5  1  0  0  0
  5  6  2  0  0  0
  6  7  1  0  0  0
  7  8  1  0  0  0
  7  9  2  0  0  0
  9 10  1  0  0  0
 10 11  2  0  0  0
 11 16  1  0  0  0
 16 17  1  0  0  0
 17 18  1  0  0  0
 18 19  1  0  0  0
 11 12  1  0  0  0
 12 13  1  0  0  0
 12 14  1  0  0  0
 14 15  2  0  0  0
 26 27  2  0  0  0
 27 28  1  0  0  0
 27 22  1  0  0  0
 33 29  1  0  0  0
 15  5  1  0  0  0
 15 10  1  0  0  0
 19 16  1  0  0  0
  1  4  1  0  0  0
 18 20  1  0  0  0
M  END
> <minimizedAffinity>
-8.54951

> <minimizedRMSD>
0.51126

$$$$
P28387


 34 38  0  0  0  0  0  0  0  0999 V2000
   -4.2948    5.2549  -14.8611 N   0  0  0  0  0  0  0  0  0  0  0  0
   -4.9102    5.1314  -16.0436 C   0  0  0  0  0  0  0  0  0  0  0  0
   -4.2405    5.1212  -17.1858 N   0  0  0  0  0  0  0  0  0  0  0  0
   -5.1946    5.0165  -18.1236 N   0  0  0  0  0  0  0  0  0  0  0  0
   -6.4650    4.8810  -17.6082 C   0  0  0  0  0  0  0  0  0  0  0  0
   -7.7199    4.7060  -18.2062 C   0  0  0  0  0  0  0  0  0  0  0  0
   -8.8307    4.6404  -17.3613 C   0  0  0  0  0  0  0  0  0  0  0  0
  -10.3959    4.5354  -18.0526 Cl  0  0  0  0  0  0  0  0  0  0  0  0
   -8.7138    4.7517  -15.9804 C   0  0  0  0  0  0  0  0  0  0  0  0
   -7.4575    4.9565  -15.4025 C   0  0  0  0  0  0  0  0  0  0  0  0
   -6.3095    4.9927  -16.2255 C   0  0  0  0  0  0  0  0  0  0  0  0
   -3.3153    5.3469  -14.8231 H   0  0  0  0  0  0  0  0  0  0  0  0
   -4.8217    5.2536  -14.0295 H   0  0  0  0  0  0  0  0  0  0  0  0
   -4.8915    5.0625  -19.5617 C   0  0  0  0  0  0  0  0  0  0  0  0
   -3.3862    5.0981  -19.9116 C   0  0  0  0  0  0  0  0  0  0  0  0
   -3.7138    6.1025  -20.9642 N   0  0  0  0  0  0  0  0  0  0  0  0
   -4.8804    6.4963  -20.1250 C   0  0  0  0  0  0  0  0  0  0  0  0
   -3.9564    5.7051  -21.8718 H   0  0  0  0  0  0  0  0  0  0  0  0
   -7.3544    5.3421  -13.9765 C   0  0  0  0  0  0  0  0  0  0  0  0
   -6.6709    6.2561  -13.7247 O   0  0  0  0  0  0  0  0  0  0  0  0
   -8.2347    4.4637  -13.0549 N   0  0  0  0  0  0  0  0  0  0  0  0
   -8.7822    3.7936  -13.5243 H   0  0  0  0  0  0  0  0  0  0  0  0
   -8.3787    4.4673  -11.6646 C   0  0  0  0  0  0  0  0  0  0  0  0
   -8.4686    3.2531  -10.9893 C   0  0  0  0  0  0  0  0  0  0  0  0
   -8.4489    3.2230   -9.5870 C   0  0  0  0  0  0  0  0  0  0  0  0
   -8.3840    4.4070   -8.8305 C   0  0  0  0  0  0  0  0  0  0  0  0
   -8.4023    5.6241   -9.5220 C   0  0  0  0  0  0  0  0  0  0  0  0
   -8.3884    5.6477  -10.9183 C   0  0  0  0  0  0  0  0  0  0  0  0
   -8.4381    6.8437  -11.5223 F   0  0  0  0  0  0  0  0  0  0  0  0
   -8.2205    4.3150   -7.3200 C   0  0  0  0  0  0  0  0  0  0  0  0
   -7.4048    5.4713   -6.7644 C   0  0  0  0  0  0  0  0  0  0  0  0
   -8.4419    6.5169   -6.4191 C   0  0  0  0  0  0  0  0  0  0  0  0
   -9.6527    5.8181   -6.1098 O   0  0  0  0  0  0  0  0  0  0  0  0
   -9.4951    4.4411   -6.4922 C   0  0  0  0  0  0  0  0  0  0  0  0
  1  2  1  0  0  0
  2  3  2  0  0  0
  3  4  1  0  0  0
  4 14  1  0  0  0
 14 15  1  0  0  0
 15 16  1  0  0  0
 16 17  1  0  0  0
  4  5  1  0  0  0
  5  6  2  0  0  0
  6  7  1  0  0  0
  7  8  1  0  0  0
  7  9  2  0  0  0
  9 10  1  0  0  0
 10 19  1  0  0  0
 19 20  2  0  0  0
 19 21  1  0  0  0
 21 23  1  0  0  0
 23 24  2  0  0  0
 24 25  1  0  0  0
 25 26  2  0  0  0
 30 26  1  0  0  0
 30 31  1  0  0  0
 31 32  1  0  0  0
 32 33  1  0  0  0
 33 34  1  0  0  0
 26 27  1  0  0  0
 27 28  2  0  0  0
 28 29  1  0  0  0
 10 11  2  0  0  0
 11  2  1  0  0  0
 17 14  1  0  0  0
 11  5  1  0  0  0
 28 23  1  0  0  0
 34 30  1  0  0  0
  1 12  1  0  0  0
  1 13  1  0  0  0
 16 18  1  0  0  0
 21 22  1  0  0  0
M  END
> <minimizedAffinity>
-8.35525

> <minimizedRMSD>
0.68026

$$$$
P28397


 36 40  0  0  0  0  0  0  0  0999 V2000
   -6.9220    4.9537  -15.6399 C   0  0  0  0  0  0  0  0  0  0  0  0
   -8.1063    4.7765  -16.3617 C   0  0  0  0  0  0  0  0  0  0  0  0
   -8.0560    4.6792  -17.7540 C   0  0  0  0  0  0  0  0  0  0  0  0
   -9.5149    4.5111  -18.6524 Cl  0  0  0  0  0  0  0  0  0  0  0  0
   -6.8497    4.7663  -18.4626 C   0  0  0  0  0  0  0  0  0  0  0  0
   -5.6743    4.9435  -17.7201 C   0  0  0  0  0  0  0  0  0  0  0  0
   -5.6942    5.0274  -16.3271 C   0  0  0  0  0  0  0  0  0  0  0  0
   -4.3413    5.1751  -15.9596 C   0  0  0  0  0  0  0  0  0  0  0  0
   -3.5199    5.1900  -17.0074 N   0  0  0  0  0  0  0  0  0  0  0  0
   -4.3483    5.0917  -18.0705 N   0  0  0  0  0  0  0  0  0  0  0  0
   -3.8574    5.3110  -19.4558 C   0  0  0  0  0  0  0  0  0  0  0  0
   -2.3159    5.3186  -19.5954 C   0  0  0  0  0  0  0  0  0  0  0  0
   -2.4348    6.5909  -20.4971 C   0  0  0  0  0  0  0  0  0  0  0  0
   -1.3868    7.6465  -20.1335 C   0  0  0  0  0  0  0  0  0  0  0  0
   -3.8293    6.8294  -19.8180 C   0  0  0  0  0  0  0  0  0  0  0  0
   -4.9920    7.3450  -20.6375 C   0  0  0  0  0  0  0  0  0  0  0  0
   -2.4430    6.3010  -22.0007 C   0  0  0  0  0  0  0  0  0  0  0  0
   -1.7763    7.3495  -22.7015 O   0  0  0  0  0  0  0  0  0  0  0  0
   -2.2334    8.1893  -22.5380 H   0  0  0  0  0  0  0  0  0  0  0  0
   -6.9067    5.1341  -14.1750 C   0  0  0  0  0  0  0  0  0  0  0  0
   -6.4957    6.1914  -13.7189 O   0  0  0  0  0  0  0  0  0  0  0  0
   -7.1643    3.9309  -13.2884 C   0  0  0  0  0  0  0  0  0  0  0  0
   -7.1816    2.8341  -13.8481 O   0  0  0  0  0  0  0  0  0  0  0  0
   -8.7804    6.0396   -8.9688 C   0  0  0  0  0  0  0  0  0  0  0  0
   -8.1845    4.8726   -9.6859 C   0  0  0  0  0  0  0  0  0  0  0  0
   -7.7679    3.7196   -9.0005 C   0  0  0  0  0  0  0  0  0  0  0  0
   -6.9659    2.8153   -9.7073 C   0  0  0  0  0  0  0  0  0  0  0  0
   -6.7441    2.9421  -11.0821 C   0  0  0  0  0  0  0  0  0  0  0  0
   -7.3174    3.9903  -11.8091 C   0  0  0  0  0  0  0  0  0  0  0  0
   -7.9918    4.9749  -11.0859 C   0  0  0  0  0  0  0  0  0  0  0  0
   -8.5190    6.0461  -11.6953 F   0  0  0  0  0  0  0  0  0  0  0  0
   -8.2669    3.2832   -7.6242 C   0  0  0  0  0  0  0  0  0  0  0  0
   -8.3926    4.2823   -6.4770 C   0  0  0  0  0  0  0  0  0  0  0  0
   -9.8228    4.1756   -5.9915 C   0  0  0  0  0  0  0  0  0  0  0  0
  -10.3485    2.9523   -6.4941 O   0  0  0  0  0  0  0  0  0  0  0  0
   -9.6490    2.6513   -7.7071 C   0  0  0  0  0  0  0  0  0  0  0  0
 24 25  1  0  0  0
 25 26  2  0  0  0
 32 26  1  0  0  0
 32 33  1  0  0  0
 33 34  1  0  0  0
 34 35  1  0  0  0
 35 36  1  0  0  0
 26 27  1  0  0  0
 27 28  2  0  0  0
 28 29  1  0  0  0
 29 22  1  0  0  0
 22 23  2  0  0  0
 22 20  1  0  0  0
 20 21  2  0  0  0
 20  1  1  0  0  0
  1  2  2  0  0  0
  2  3  1  0  0  0
  3  4  1  0  0  0
  3  5  2  0  0  0
  5  6  1  0  0  0
  6  7  2  0  0  0
  7  8  1  0  0  0
  8  9  2  0  0  0
  9 10  1  0  0  0
 11 10  1  0  0  0
 11 12  1  0  0  0
 12 13  1  0  0  0
 13 14  1  0  0  0
 13 17  1  0  0  0
 17 18  1  0  0  0
 13 15  1  0  0  0
 15 16  1  0  0  0
 29 30  2  0  0  0
 30 31  1  0  0  0
 30 25  1  0  0  0
 36 32  1  0  0  0
  7  1  1  0  0  0
 15 11  1  0  0  0
 10  6  1  0  0  0
 18 19  1  0  0  0
M  END
> <minimizedAffinity>
-7.79626

> <minimizedRMSD>
0.91707

$$$$
P28398


 37 41  0  0  0  0  0  0  0  0999 V2000
   -7.5743    5.5400  -14.1647 C   0  0  0  0  0  0  0  0  0  0  0  0
   -7.2291    6.6410  -13.9857 O   0  0  0  0  0  0  0  0  0  0  0  0
   -8.1691    4.5060  -13.1851 N   0  0  0  0  0  0  0  0  0  0  0  0
   -8.4536    3.6603  -13.6011 H   0  0  0  0  0  0  0  0  0  0  0  0
   -4.9487    5.3223  -18.0155 N   0  0  0  0  0  0  0  0  0  0  0  0
   -4.1422    5.6083  -16.9727 N   0  0  0  0  0  0  0  0  0  0  0  0
   -4.9427    5.5495  -15.9105 C   0  0  0  0  0  0  0  0  0  0  0  0
   -6.2632    5.1933  -16.2444 C   0  0  0  0  0  0  0  0  0  0  0  0
   -7.4771    5.0417  -15.5468 C   0  0  0  0  0  0  0  0  0  0  0  0
   -8.6349    4.6887  -16.2359 C   0  0  0  0  0  0  0  0  0  0  0  0
   -8.5937    4.5673  -17.6190 C   0  0  0  0  0  0  0  0  0  0  0  0
  -10.0696    4.3546  -18.4598 Cl  0  0  0  0  0  0  0  0  0  0  0  0
   -7.4106    4.7306  -18.3483 C   0  0  0  0  0  0  0  0  0  0  0  0
   -6.2459    5.0376  -17.6301 C   0  0  0  0  0  0  0  0  0  0  0  0
   -2.9147    6.0342  -20.6349 N   0  0  0  0  0  0  0  0  0  0  0  0
   -3.7079    6.7771  -19.6293 C   0  0  0  0  0  0  0  0  0  0  0  0
   -4.5394    5.4924  -19.4246 C   0  0  0  0  0  0  0  0  0  0  0  0
   -3.2580    4.7559  -19.9333 C   0  0  0  0  0  0  0  0  0  0  0  0
   -2.2093    4.1390  -19.0197 C   0  0  0  0  0  0  0  0  0  0  0  0
   -0.9967    6.5805  -22.0554 C   0  0  0  0  0  0  0  0  0  0  0  0
   -1.5160    6.4416  -20.6295 C   0  0  0  0  0  0  0  0  0  0  0  0
   -8.3687    4.5748  -11.8084 C   0  0  0  0  0  0  0  0  0  0  0  0
   -8.2660    5.7999  -11.1583 C   0  0  0  0  0  0  0  0  0  0  0  0
   -8.3048    5.8683   -9.7669 C   0  0  0  0  0  0  0  0  0  0  0  0
   -8.3919    4.7071   -8.9847 C   0  0  0  0  0  0  0  0  0  0  0  0
   -8.6045    3.4825   -9.6542 C   0  0  0  0  0  0  0  0  0  0  0  0
   -8.6003    3.4284  -11.0541 C   0  0  0  0  0  0  0  0  0  0  0  0
   -8.7390    2.2483  -11.6734 F   0  0  0  0  0  0  0  0  0  0  0  0
   -8.2028    4.8077   -7.4613 C   0  0  0  0  0  0  0  0  0  0  0  0
   -6.7524    5.0240   -7.0711 C   0  0  0  0  0  0  0  0  0  0  0  0
   -6.7941    5.7942   -5.7671 C   0  0  0  0  0  0  0  0  0  0  0  0
   -8.0875    6.3996   -5.6562 O   0  0  0  0  0  0  0  0  0  0  0  0
   -8.8107    6.0910   -6.8573 C   0  0  0  0  0  0  0  0  0  0  0  0
   -8.7891    3.5395   -6.7902 C   0  0  0  0  0  0  0  0  0  0  0  0
   -9.8341    3.7204   -5.7832 N   0  0  0  0  0  0  0  0  0  0  0  0
   -9.4506    4.2208   -4.9814 H   0  0  0  0  0  0  0  0  0  0  0  0
  -10.1777    2.8084   -5.4822 H   0  0  0  0  0  0  0  0  0  0  0  0
 20 21  1  0  0  0
 21 15  1  0  0  0
 15 16  1  0  0  0
 16 17  1  0  0  0
 17  5  1  0  0  0
  5  6  1  0  0  0
  6  7  2  0  0  0
  7  8  1  0  0  0
  8  9  2  0  0  0
  9  1  1  0  0  0
  1  2  2  0  0  0
  1  3  1  0  0  0
  3 22  1  0  0  0
 22 23  2  0  0  0
 23 24  1  0  0  0
 24 25  2  0  0  0
 25 29  1  0  0  0
 29 34  1  0  0  0
 34 35  1  0  0  0
 29 30  1  0  0  0
 30 31  1  0  0  0
 31 32  1  0  0  0
 32 33  1  0  0  0
 25 26  1  0  0  0
 26 27  2  0  0  0
 27 28  1  0  0  0
  9 10  1  0  0  0
 10 11  2  0  0  0
 11 12  1  0  0  0
 11 13  1  0  0  0
 13 14  2  0  0  0
 17 18  1  0  0  0
 18 19  1  0  0  0
 18 15  1  0  0  0
 14  5  1  0  0  0
 14  8  1  0  0  0
 27 22  1  0  0  0
 33 29  1  0  0  0
  3  4  1  0  0  0
 35 36  1  0  0  0
 35 37  1  0  0  0
M  END
> <minimizedAffinity>
-7.88926

> <minimizedRMSD>
0.97159

$$$$
P28401


 43 48  0  0  0  0  0  0  0  0999 V2000
   -7.3244    4.7494  -15.3709 C   0  0  0  0  0  0  0  0  0  0  0  0
   -8.5850    4.5488  -15.9286 C   0  0  0  0  0  0  0  0  0  0  0  0
   -8.7203    4.5326  -17.3153 C   0  0  0  0  0  0  0  0  0  0  0  0
  -10.2963    4.3677  -17.9762 Cl  0  0  0  0  0  0  0  0  0  0  0  0
   -7.6337    4.7520  -18.1787 C   0  0  0  0  0  0  0  0  0  0  0  0
   -6.3684    4.9070  -17.5966 C   0  0  0  0  0  0  0  0  0  0  0  0
   -6.1976    4.8378  -16.2133 C   0  0  0  0  0  0  0  0  0  0  0  0
   -4.8067    4.9325  -16.0128 C   0  0  0  0  0  0  0  0  0  0  0  0
   -4.1346    5.0507  -17.1551 N   0  0  0  0  0  0  0  0  0  0  0  0
   -5.1135    5.2461  -18.0841 N   0  0  0  0  0  0  0  0  0  0  0  0
   -4.8591    6.3718  -19.0509 C   0  0  0  0  0  0  0  0  0  0  0  0
   -5.5806    7.6115  -18.7212 O   0  0  0  0  0  0  0  0  0  0  0  0
   -3.3088    6.5241  -19.2243 C   0  0  0  0  0  0  0  0  0  0  0  0
   -3.5794    6.7264  -20.6040 N   0  0  0  0  0  0  0  0  0  0  0  0
   -4.8216    6.0108  -20.5454 C   0  0  0  0  0  0  0  0  0  0  0  0
   -5.5518    7.7572  -17.7626 H   0  0  0  0  0  0  0  0  0  0  0  0
   -2.7495    7.0706  -21.6769 C   0  0  0  0  0  0  0  0  0  0  0  0
   -1.7974    6.1706  -22.1726 C   0  0  0  0  0  0  0  0  0  0  0  0
   -0.9618    6.5177  -23.2389 C   0  0  0  0  0  0  0  0  0  0  0  0
   -1.0624    7.7777  -23.8227 C   0  0  0  0  0  0  0  0  0  0  0  0
   -1.9953    8.6898  -23.3377 C   0  0  0  0  0  0  0  0  0  0  0  0
   -2.8267    8.3377  -22.2704 C   0  0  0  0  0  0  0  0  0  0  0  0
   -8.2491    4.6447  -13.0094 N   0  0  0  0  0  0  0  0  0  0  0  0
   -7.1506    5.1621  -13.9633 C   0  0  0  0  0  0  0  0  0  0  0  0
   -6.2182    5.8330  -13.7513 O   0  0  0  0  0  0  0  0  0  0  0  0
   -8.9792    4.1526  -13.4499 H   0  0  0  0  0  0  0  0  0  0  0  0
   -8.7042    3.7407   -9.4236 C   0  0  0  0  0  0  0  0  0  0  0  0
   -8.6718    3.6520  -10.8423 C   0  0  0  0  0  0  0  0  0  0  0  0
   -8.3755    4.7612  -11.6234 C   0  0  0  0  0  0  0  0  0  0  0  0
   -8.1991    5.9819  -10.9816 C   0  0  0  0  0  0  0  0  0  0  0  0
   -8.1314    7.1254  -11.6747 F   0  0  0  0  0  0  0  0  0  0  0  0
   -8.1388    6.0727   -9.5954 C   0  0  0  0  0  0  0  0  0  0  0  0
   -8.3136    4.9451   -8.7850 C   0  0  0  0  0  0  0  0  0  0  0  0
   -8.0494    5.0373   -7.2983 C   0  0  0  0  0  0  0  0  0  0  0  0
   -9.1837    5.5411   -6.4323 C   0  0  0  0  0  0  0  0  0  0  0  0
   -8.4934    5.7213   -5.0965 C   0  0  0  0  0  0  0  0  0  0  0  0
   -7.1413    6.1205   -5.3759 O   0  0  0  0  0  0  0  0  0  0  0  0
   -6.9167    5.9373   -6.7897 C   0  0  0  0  0  0  0  0  0  0  0  0
   -9.3353    2.5685   -8.6972 C   0  0  0  0  0  0  0  0  0  0  0  0
   -9.0027    1.7036   -6.3940 N   0  0  0  0  0  0  0  0  0  0  0  0
   -8.5101    1.6912   -7.7741 C   0  0  0  0  0  0  0  0  0  0  0  0
   -8.4154    1.1007   -5.8179 H   0  0  0  0  0  0  0  0  0  0  0  0
   -9.9638    1.3626   -6.3730 H   0  0  0  0  0  0  0  0  0  0  0  0
 40 41  1  0  0  0
 41 39  1  0  0  0
 39 27  1  0  0  0
 27 28  2  0  0  0
 28 29  1  0  0  0
 29 23  1  0  0  0
 23 24  1  0  0  0
 24 25  2  0  0  0
 24  1  1  0  0  0
  1  2  2  0  0  0
  2  3  1  0  0  0
  3  4  1  0  0  0
  3  5  2  0  0  0
  5  6  1  0  0  0
  6  7  2  0  0  0
  7  8  1  0  0  0
  8  9  2  0  0  0
  9 10  1  0  0  0
 10 11  1  0  0  0
 11 12  1  0  0  0
 11 13  1  0  0  0
 13 14  1  0  0  0
 14 17  1  0  0  0
 17 18  2  0  0  0
 18 19  1  0  0  0
 19 20  2  0  0  0
 20 21  1  0  0  0
 21 22  2  0  0  0
 14 15  1  0  0  0
 29 30  2  0  0  0
 30 31  1  0  0  0
 30 32  1  0  0  0
 32 33  2  0  0  0
 34 33  1  0  0  0
 34 35  1  0  0  0
 35 36  1  0  0  0
 36 37  1  0  0  0
 37 38  1  0  0  0
 33 27  1  0  0  0
 38 34  1  0  0  0
  7  1  1  0  0  0
 15 11  1  0  0  0
 10  6  1  0  0  0
 22 17  1  0  0  0
 40 42  1  0  0  0
 40 43  1  0  0  0
 23 26  1  0  0  0
 12 16  1  0  0  0
M  END
> <minimizedAffinity>
-8.01979

> <minimizedRMSD>
0.71546

$$$$
P28405


 38 42  0  0  0  0  0  0  0  0999 V2000
   -8.3041    4.3903  -12.8510 N   0  0  0  0  0  0  0  0  0  0  0  0
   -8.1349    5.5178  -13.8889 C   0  0  0  0  0  0  0  0  0  0  0  0
   -8.1409    6.6772  -13.7544 O   0  0  0  0  0  0  0  0  0  0  0  0
   -8.3374    3.4824  -13.2305 H   0  0  0  0  0  0  0  0  0  0  0  0
   -7.9143    5.0205  -15.2655 C   0  0  0  0  0  0  0  0  0  0  0  0
   -8.9732    4.7884  -16.1411 C   0  0  0  0  0  0  0  0  0  0  0  0
   -8.7126    4.6179  -17.4975 C   0  0  0  0  0  0  0  0  0  0  0  0
  -10.0410    4.4281  -18.5701 Cl  0  0  0  0  0  0  0  0  0  0  0  0
   -7.4138    4.6954  -18.0251 C   0  0  0  0  0  0  0  0  0  0  0  0
   -6.3532    4.8791  -17.1245 C   0  0  0  0  0  0  0  0  0  0  0  0
   -6.5912    4.9877  -15.7511 C   0  0  0  0  0  0  0  0  0  0  0  0
   -5.3133    5.0775  -15.1636 C   0  0  0  0  0  0  0  0  0  0  0  0
   -4.3334    5.0172  -16.0603 N   0  0  0  0  0  0  0  0  0  0  0  0
   -4.9879    5.0719  -17.2508 N   0  0  0  0  0  0  0  0  0  0  0  0
   -4.2534    5.6986  -18.3755 C   0  0  0  0  0  0  0  0  0  0  0  0
   -3.6223    7.0229  -18.0928 N   0  0  0  0  0  0  0  0  0  0  0  0
   -3.1919    4.7337  -18.9800 C   0  0  0  0  0  0  0  0  0  0  0  0
   -3.4629    5.3567  -20.3019 N   0  0  0  0  0  0  0  0  0  0  0  0
   -4.8247    5.7017  -19.7916 C   0  0  0  0  0  0  0  0  0  0  0  0
   -3.2401    7.0224  -17.1471 H   0  0  0  0  0  0  0  0  0  0  0  0
   -4.3240    7.7585  -18.1756 H   0  0  0  0  0  0  0  0  0  0  0  0
   -3.4558    4.7063  -21.0875 H   0  0  0  0  0  0  0  0  0  0  0  0
   -8.1697    5.6504   -9.3444 C   0  0  0  0  0  0  0  0  0  0  0  0
   -8.1248    5.6036  -10.7620 C   0  0  0  0  0  0  0  0  0  0  0  0
   -8.4176    4.4468  -11.4638 C   0  0  0  0  0  0  0  0  0  0  0  0
   -8.7926    3.3318  -10.7432 C   0  0  0  0  0  0  0  0  0  0  0  0
   -9.1522    2.2238  -11.3880 F   0  0  0  0  0  0  0  0  0  0  0  0
   -8.7928    3.3219   -9.3524 C   0  0  0  0  0  0  0  0  0  0  0  0
   -8.4524    4.4656   -8.6086 C   0  0  0  0  0  0  0  0  0  0  0  0
   -8.2899    4.3668   -7.0870 C   0  0  0  0  0  0  0  0  0  0  0  0
   -8.7348    3.0706   -6.4111 C   0  0  0  0  0  0  0  0  0  0  0  0
  -10.1911    3.3120   -6.1113 C   0  0  0  0  0  0  0  0  0  0  0  0
  -10.3010    4.7137   -5.8067 O   0  0  0  0  0  0  0  0  0  0  0  0
   -9.1077    5.3665   -6.2698 C   0  0  0  0  0  0  0  0  0  0  0  0
   -8.9323    7.9376   -8.8304 N   0  0  0  0  0  0  0  0  0  0  0  0
   -7.8224    6.9891   -8.7294 C   0  0  0  0  0  0  0  0  0  0  0  0
   -8.6611    8.8248   -8.4065 H   0  0  0  0  0  0  0  0  0  0  0  0
   -9.7457    7.5623   -8.3425 H   0  0  0  0  0  0  0  0  0  0  0  0
 35 36  1  0  0  0
 36 23  1  0  0  0
 23 24  2  0  0  0
 24 25  1  0  0  0
 25  1  1  0  0  0
  1  2  1  0  0  0
  2  3  2  0  0  0
  2  5  1  0  0  0
  5  6  2  0  0  0
  6  7  1  0  0  0
  7  8  1  0  0  0
  7  9  2  0  0  0
  9 10  1  0  0  0
 10 11  2  0  0  0
 11 12  1  0  0  0
 12 13  2  0  0  0
 13 14  1  0  0  0
 14 15  1  0  0  0
 15 16  1  0  0  0
 15 17  1  0  0  0
 17 18  1  0  0  0
 18 19  1  0  0  0
 25 26  2  0  0  0
 26 27  1  0  0  0
 26 28  1  0  0  0
 28 29  2  0  0  0
 30 29  1  0  0  0
 30 31  1  0  0  0
 31 32  1  0  0  0
 32 33  1  0  0  0
 33 34  1  0  0  0
 29 23  1  0  0  0
 34 30  1  0  0  0
 11  5  1  0  0  0
 19 15  1  0  0  0
 14 10  1  0  0  0
 35 37  1  0  0  0
 35 38  1  0  0  0
  1  4  1  0  0  0
 16 20  1  0  0  0
 16 21  1  0  0  0
 18 22  1  0  0  0
M  END
> <minimizedAffinity>
-8.44110

> <minimizedRMSD>
0.70483

$$$$
P28407


 32 36  0  0  0  0  0  0  0  0999 V2000
   -8.0280    4.5484  -13.1659 N   0  0  0  0  0  0  0  0  0  0  0  0
   -6.8085    4.9923  -13.9990 C   0  0  0  0  0  0  0  0  0  0  0  0
   -5.8051    5.4843  -13.6670 O   0  0  0  0  0  0  0  0  0  0  0  0
   -8.7928    4.2253  -13.6949 H   0  0  0  0  0  0  0  0  0  0  0  0
   -7.0212    4.7831  -15.4493 C   0  0  0  0  0  0  0  0  0  0  0  0
   -8.3060    4.6096  -15.9768 C   0  0  0  0  0  0  0  0  0  0  0  0
   -8.4953    4.6104  -17.3556 C   0  0  0  0  0  0  0  0  0  0  0  0
  -10.0925    4.5389  -17.9775 Cl  0  0  0  0  0  0  0  0  0  0  0  0
   -7.4295    4.7537  -18.2478 C   0  0  0  0  0  0  0  0  0  0  0  0
   -6.1474    4.8994  -17.7010 C   0  0  0  0  0  0  0  0  0  0  0  0
   -5.9269    4.9136  -16.3251 C   0  0  0  0  0  0  0  0  0  0  0  0
   -4.5339    5.0918  -16.1901 C   0  0  0  0  0  0  0  0  0  0  0  0
   -3.9070    5.1501  -17.3646 N   0  0  0  0  0  0  0  0  0  0  0  0
   -4.9051    5.0866  -18.2672 N   0  0  0  0  0  0  0  0  0  0  0  0
   -4.6829    5.2021  -19.7162 C   0  0  0  0  0  0  0  0  0  0  0  0
   -3.2170    5.4214  -20.1442 C   0  0  0  0  0  0  0  0  0  0  0  0
   -3.7185    6.4031  -21.1491 N   0  0  0  0  0  0  0  0  0  0  0  0
   -4.8749    6.6377  -20.2386 C   0  0  0  0  0  0  0  0  0  0  0  0
   -3.9631    5.9998  -22.0535 H   0  0  0  0  0  0  0  0  0  0  0  0
   -8.1698    5.6435  -10.9319 C   0  0  0  0  0  0  0  0  0  0  0  0
   -8.4357    5.4839   -9.5580 C   0  0  0  0  0  0  0  0  0  0  0  0
   -8.7867    4.2426   -9.0147 C   0  0  0  0  0  0  0  0  0  0  0  0
   -8.7867    3.1357   -9.8634 C   0  0  0  0  0  0  0  0  0  0  0  0
   -8.5320    3.2829  -11.2288 C   0  0  0  0  0  0  0  0  0  0  0  0
   -8.2243    4.5300  -11.7806 C   0  0  0  0  0  0  0  0  0  0  0  0
   -9.2378    4.1783   -7.5725 C   0  0  0  0  0  0  0  0  0  0  0  0
   -9.9690    2.9025   -7.1698 C   0  0  0  0  0  0  0  0  0  0  0  0
   -8.9580    2.1806   -6.3373 C   0  0  0  0  0  0  0  0  0  0  0  0
   -8.3142    3.2397   -5.6096 O   0  0  0  0  0  0  0  0  0  0  0  0
   -8.1104    4.2977   -6.5560 C   0  0  0  0  0  0  0  0  0  0  0  0
   -7.9676    8.1425  -11.5668 N   0  0  0  0  0  0  0  0  0  0  0  0
   -8.0175    7.0004  -11.3630 C   0  0  0  0  0  0  0  0  0  0  0  0
 31 32  3  0  0  0
 32 20  1  0  0  0
 20 21  2  0  0  0
 21 22  1  0  0  0
 26 22  1  0  0  0
 26 27  1  0  0  0
 27 28  1  0  0  0
 28 29  1  0  0  0
 29 30  1  0  0  0
 22 23  2  0  0  0
 23 24  1  0  0  0
 24 25  2  0  0  0
 25  1  1  0  0  0
  1  2  1  0  0  0
  2  3  2  0  0  0
  2  5  1  0  0  0
  5  6  2  0  0  0
  6  7  1  0  0  0
  7  8  1  0  0  0
  7  9  2  0  0  0
  9 10  1  0  0  0
 10 11  2  0  0  0
 11 12  1  0  0  0
 12 13  2  0  0  0
 13 14  1  0  0  0
 14 15  1  0  0  0
 15 16  1  0  0  0
 16 17  1  0  0  0
 17 18  1  0  0  0
 25 20  1  0  0  0
 11  5  1  0  0  0
 18 15  1  0  0  0
 30 26  1  0  0  0
 14 10  1  0  0  0
  1  4  1  0  0  0
 17 19  1  0  0  0
M  END
> <minimizedAffinity>
-7.41386

> <minimizedRMSD>
0.48722

$$$$
P28408


 39 43  0  0  0  0  0  0  0  0999 V2000
   -7.1979    4.3043  -13.6797 C   0  0  0  0  0  0  0  0  0  0  0  0
   -6.4133    5.4126  -13.2414 O   0  0  0  0  0  0  0  0  0  0  0  0
   -6.2986    5.3672  -12.2793 H   0  0  0  0  0  0  0  0  0  0  0  0
   -7.2929    4.5084  -15.1974 C   0  0  0  0  0  0  0  0  0  0  0  0
   -8.5195    4.4394  -15.8938 C   0  0  0  0  0  0  0  0  0  0  0  0
   -8.6030    4.6450  -17.2704 C   0  0  0  0  0  0  0  0  0  0  0  0
  -10.1328    4.5393  -18.0473 Cl  0  0  0  0  0  0  0  0  0  0  0  0
   -7.4845    4.9760  -18.0318 C   0  0  0  0  0  0  0  0  0  0  0  0
   -6.2633    5.0620  -17.3607 C   0  0  0  0  0  0  0  0  0  0  0  0
   -6.1506    4.8100  -15.9921 C   0  0  0  0  0  0  0  0  0  0  0  0
   -4.7713    4.9754  -15.7276 C   0  0  0  0  0  0  0  0  0  0  0  0
   -4.0743    5.3568  -16.7926 N   0  0  0  0  0  0  0  0  0  0  0  0
   -4.9916    5.3974  -17.7786 N   0  0  0  0  0  0  0  0  0  0  0  0
   -4.6669    6.0472  -19.0582 C   0  0  0  0  0  0  0  0  0  0  0  0
   -3.1549    6.3209  -19.2172 C   0  0  0  0  0  0  0  0  0  0  0  0
   -3.2550    5.8647  -20.6146 N   0  0  0  0  0  0  0  0  0  0  0  0
   -4.4722    5.1016  -20.2378 C   0  0  0  0  0  0  0  0  0  0  0  0
   -2.4746    5.2868  -20.9266 H   0  0  0  0  0  0  0  0  0  0  0  0
   -5.1100    3.2222  -12.7898 N   0  0  0  0  0  0  0  0  0  0  0  0
   -6.5197    2.8834  -13.3530 C   0  0  0  0  0  0  0  0  0  0  0  0
   -7.0199    1.8492  -13.5698 O   0  0  0  0  0  0  0  0  0  0  0  0
   -4.9509    4.1797  -12.6252 H   0  0  0  0  0  0  0  0  0  0  0  0
   -3.2853    1.9864  -13.7632 C   0  0  0  0  0  0  0  0  0  0  0  0
   -4.0000    2.3626  -12.4701 C   0  0  0  0  0  0  0  0  0  0  0  0
   -3.0586    3.0352  -11.4824 C   0  0  0  0  0  0  0  0  0  0  0  0
   -8.5163    4.4297  -13.0222 N   0  0  0  0  0  0  0  0  0  0  0  0
   -9.3671    4.4331  -13.5174 H   0  0  0  0  0  0  0  0  0  0  0  0
   -8.4389    4.5453  -11.6004 C   0  0  0  0  0  0  0  0  0  0  0  0
   -8.0652    5.7413  -10.9883 C   0  0  0  0  0  0  0  0  0  0  0  0
   -7.9671    5.8248   -9.5960 C   0  0  0  0  0  0  0  0  0  0  0  0
   -8.2409    4.7186   -8.7708 C   0  0  0  0  0  0  0  0  0  0  0  0
   -8.6136    3.5190   -9.3808 C   0  0  0  0  0  0  0  0  0  0  0  0
   -8.7164    3.4523  -10.7696 C   0  0  0  0  0  0  0  0  0  0  0  0
   -9.1439    2.3200  -11.3332 F   0  0  0  0  0  0  0  0  0  0  0  0
   -8.1647    4.9117   -7.2793 C   0  0  0  0  0  0  0  0  0  0  0  0
   -6.7505    5.0917   -6.7577 C   0  0  0  0  0  0  0  0  0  0  0  0
   -6.9351    4.9337   -5.2617 C   0  0  0  0  0  0  0  0  0  0  0  0
   -8.1355    4.1799   -5.0472 O   0  0  0  0  0  0  0  0  0  0  0  0
   -8.6718    3.8280   -6.3377 C   0  0  0  0  0  0  0  0  0  0  0  0
 23 24  1  0  0  0
 24 25  1  0  0  0
 24 19  1  0  0  0
 19 20  1  0  0  0
 20 21  2  0  0  0
 20  1  1  0  0  0
  1  2  1  0  0  0
  1 26  1  0  0  0
 26 28  1  0  0  0
 28 29  2  0  0  0
 29 30  1  0  0  0
 30 31  2  0  0  0
 35 31  1  0  0  0
 35 36  1  0  0  0
 36 37  1  0  0  0
 37 38  1  0  0  0
 38 39  1  0  0  0
 31 32  1  0  0  0
 32 33  2  0  0  0
 33 34  1  0  0  0
  1  4  1  0  0  0
  4  5  2  0  0  0
  5  6  1  0  0  0
  6  7  1  0  0  0
  6  8  2  0  0  0
  8  9  1  0  0  0
  9 10  2  0  0  0
 10 11  1  0  0  0
 11 12  2  0  0  0
 12 13  1  0  0  0
 13 14  1  0  0  0
 14 15  1  0  0  0
 15 16  1  0  0  0
 16 17  1  0  0  0
 33 28  1  0  0  0
 10  4  1  0  0  0
 17 14  1  0  0  0
 39 35  1  0  0  0
 13  9  1  0  0  0
 19 22  1  0  0  0
  2  3  1  0  0  0
 26 27  1  0  0  0
 16 18  1  0  0  0
M  END
> <minimizedAffinity>
-8.54992

> <minimizedRMSD>
0.33757

$$$$
P28411


 40 44  0  0  0  0  0  0  0  0999 V2000
   -7.3862    5.3003  -13.6722 C   0  0  0  0  0  0  0  0  0  0  0  0
   -6.1842    4.6755  -13.2730 O   0  0  0  0  0  0  0  0  0  0  0  0
   -6.0512    4.8087  -12.3214 H   0  0  0  0  0  0  0  0  0  0  0  0
   -7.4931    5.0263  -15.1863 C   0  0  0  0  0  0  0  0  0  0  0  0
   -8.7176    4.7477  -15.8369 C   0  0  0  0  0  0  0  0  0  0  0  0
   -8.7978    4.5793  -17.2241 C   0  0  0  0  0  0  0  0  0  0  0  0
  -10.3151    4.2930  -17.9772 Cl  0  0  0  0  0  0  0  0  0  0  0  0
   -7.6794    4.6907  -18.0463 C   0  0  0  0  0  0  0  0  0  0  0  0
   -6.4637    4.9716  -17.4214 C   0  0  0  0  0  0  0  0  0  0  0  0
   -6.3546    5.1338  -16.0403 C   0  0  0  0  0  0  0  0  0  0  0  0
   -4.9778    5.4044  -15.8415 C   0  0  0  0  0  0  0  0  0  0  0  0
   -4.2703    5.3935  -16.9702 N   0  0  0  0  0  0  0  0  0  0  0  0
   -5.1893    5.1482  -17.9204 N   0  0  0  0  0  0  0  0  0  0  0  0
   -4.8470    5.0448  -19.3500 C   0  0  0  0  0  0  0  0  0  0  0  0
   -3.3348    4.9949  -19.6639 C   0  0  0  0  0  0  0  0  0  0  0  0
   -3.6081    5.8875  -20.8286 N   0  0  0  0  0  0  0  0  0  0  0  0
   -4.7713    6.4113  -20.0553 C   0  0  0  0  0  0  0  0  0  0  0  0
   -3.8527    5.4011  -21.6912 H   0  0  0  0  0  0  0  0  0  0  0  0
   -6.4321    7.5807  -13.6023 O   0  0  0  0  0  0  0  0  0  0  0  0
   -7.4028    6.9302  -13.5268 C   0  0  0  0  0  0  0  0  0  0  0  0
   -8.8837    7.3514  -13.2826 N   0  0  0  0  0  0  0  0  0  0  0  0
   -9.5361    6.6162  -13.3385 H   0  0  0  0  0  0  0  0  0  0  0  0
   -9.4565    8.6510  -12.9864 C   0  0  0  0  0  0  0  0  0  0  0  0
   -9.2671    9.0873  -11.5302 C   0  0  0  0  0  0  0  0  0  0  0  0
  -10.0173    8.3269  -10.7010 F   0  0  0  0  0  0  0  0  0  0  0  0
   -7.9845    8.8927  -11.1459 F   0  0  0  0  0  0  0  0  0  0  0  0
   -8.4795    4.6879  -12.8878 N   0  0  0  0  0  0  0  0  0  0  0  0
   -9.2861    4.3710  -13.3550 H   0  0  0  0  0  0  0  0  0  0  0  0
   -8.3954    4.5456  -11.4793 C   0  0  0  0  0  0  0  0  0  0  0  0
   -8.1798    5.6033  -10.5926 C   0  0  0  0  0  0  0  0  0  0  0  0
   -8.2617    5.4310   -9.2016 C   0  0  0  0  0  0  0  0  0  0  0  0
   -8.5568    4.1870   -8.6326 C   0  0  0  0  0  0  0  0  0  0  0  0
   -8.7320    3.1139   -9.5033 C   0  0  0  0  0  0  0  0  0  0  0  0
   -8.6863    3.3092  -10.8853 C   0  0  0  0  0  0  0  0  0  0  0  0
   -8.9687    2.2628  -11.6676 F   0  0  0  0  0  0  0  0  0  0  0  0
   -8.6426    4.0461   -7.1309 C   0  0  0  0  0  0  0  0  0  0  0  0
   -9.7068    3.1181   -6.5657 C   0  0  0  0  0  0  0  0  0  0  0  0
   -9.8402    3.6227   -5.1479 C   0  0  0  0  0  0  0  0  0  0  0  0
   -9.7370    5.0511   -5.2325 O   0  0  0  0  0  0  0  0  0  0  0  0
   -8.9404    5.3553   -6.3906 C   0  0  0  0  0  0  0  0  0  0  0  0
 19 20  2  0  0  0
 20 21  1  0  0  0
 21 23  1  0  0  0
 23 24  1  0  0  0
 24 25  1  0  0  0
 24 26  1  0  0  0
 20  1  1  0  0  0
  1  2  1  0  0  0
  1 27  1  0  0  0
 27 29  1  0  0  0
 29 30  2  0  0  0
 30 31  1  0  0  0
 31 32  2  0  0  0
 36 32  1  0  0  0
 36 37  1  0  0  0
 37 38  1  0  0  0
 38 39  1  0  0  0
 39 40  1  0  0  0
 32 33  1  0  0  0
 33 34  2  0  0  0
 34 35  1  0  0  0
  1  4  1  0  0  0
  4  5  2  0  0  0
  5  6  1  0  0  0
  6  7  1  0  0  0
  6  8  2  0  0  0
  8  9  1  0  0  0
  9 10  2  0  0  0
 10 11  1  0  0  0
 11 12  2  0  0  0
 12 13  1  0  0  0
 13 14  1  0  0  0
 14 15  1  0  0  0
 15 16  1  0  0  0
 16 17  1  0  0  0
 34 29  1  0  0  0
 10  4  1  0  0  0
 17 14  1  0  0  0
 40 36  1  0  0  0
 13  9  1  0  0  0
 21 22  1  0  0  0
  2  3  1  0  0  0
 27 28  1  0  0  0
 16 18  1  0  0  0
M  END
> <minimizedAffinity>
-8.00663

> <minimizedRMSD>
0.44958

$$$$
P28418


 32 36  0  0  0  0  0  0  0  0999 V2000
   -2.9912    5.5735  -16.6678 C   0  0  0  0  0  0  0  0  0  0  0  0
   -4.4265    5.4149  -16.7269 N   0  0  0  0  0  0  0  0  0  0  0  0
   -5.2121    5.5135  -15.5953 C   0  0  0  0  0  0  0  0  0  0  0  0
   -6.5028    5.2481  -15.9626 C   0  0  0  0  0  0  0  0  0  0  0  0
   -7.6308    5.2179  -15.1452 C   0  0  0  0  0  0  0  0  0  0  0  0
   -8.7896    4.8618  -15.8602 C   0  0  0  0  0  0  0  0  0  0  0  0
   -8.7890    4.6238  -17.2706 C   0  0  0  0  0  0  0  0  0  0  0  0
  -10.3181    4.3471  -18.0100 Cl  0  0  0  0  0  0  0  0  0  0  0  0
   -7.6457    4.6754  -18.1002 C   0  0  0  0  0  0  0  0  0  0  0  0
   -6.5062    4.9887  -17.3620 C   0  0  0  0  0  0  0  0  0  0  0  0
   -5.2153    5.1395  -17.8313 C   0  0  0  0  0  0  0  0  0  0  0  0
   -4.8344    5.0104  -19.3610 C   0  0  0  0  0  0  0  0  0  0  0  0
   -3.3647    4.9771  -19.8061 C   0  0  0  0  0  0  0  0  0  0  0  0
   -3.4130    6.4318  -20.0624 N   0  0  0  0  0  0  0  0  0  0  0  0
   -4.8902    6.3445  -20.1389 C   0  0  0  0  0  0  0  0  0  0  0  0
   -2.9639    6.7201  -20.9316 H   0  0  0  0  0  0  0  0  0  0  0  0
   -7.6526    5.6215  -13.7347 C   0  0  0  0  0  0  0  0  0  0  0  0
   -7.2062    6.6555  -13.4322 O   0  0  0  0  0  0  0  0  0  0  0  0
   -8.3043    4.5222  -12.8706 N   0  0  0  0  0  0  0  0  0  0  0  0
   -8.6759    3.7651  -13.3784 H   0  0  0  0  0  0  0  0  0  0  0  0
   -8.4528    4.4263  -11.4888 C   0  0  0  0  0  0  0  0  0  0  0  0
   -8.6349    3.1477  -10.9767 C   0  0  0  0  0  0  0  0  0  0  0  0
   -8.6547    2.9207   -9.6013 C   0  0  0  0  0  0  0  0  0  0  0  0
   -8.4992    3.9645   -8.6896 C   0  0  0  0  0  0  0  0  0  0  0  0
   -8.3754    5.2641   -9.2139 C   0  0  0  0  0  0  0  0  0  0  0  0
   -8.3695    5.4899  -10.5959 C   0  0  0  0  0  0  0  0  0  0  0  0
   -8.3077    6.7577  -11.0235 F   0  0  0  0  0  0  0  0  0  0  0  0
   -8.3675    3.7055   -7.1955 C   0  0  0  0  0  0  0  0  0  0  0  0
   -9.2359    2.6142   -6.5792 C   0  0  0  0  0  0  0  0  0  0  0  0
  -10.5325    3.3274   -6.3220 C   0  0  0  0  0  0  0  0  0  0  0  0
  -10.1581    4.6512   -5.8986 O   0  0  0  0  0  0  0  0  0  0  0  0
   -8.8097    4.8863   -6.3468 C   0  0  0  0  0  0  0  0  0  0  0  0
  1  2  1  0  0  0
  2  3  1  0  0  0
  3  4  2  0  0  0
  4  5  1  0  0  0
  5 17  1  0  0  0
 17 18  2  0  0  0
 17 19  1  0  0  0
 19 21  1  0  0  0
 21 22  2  0  0  0
 22 23  1  0  0  0
 23 24  2  0  0  0
 28 24  1  0  0  0
 28 29  1  0  0  0
 29 30  1  0  0  0
 30 31  1  0  0  0
 31 32  1  0  0  0
 24 25  1  0  0  0
 25 26  2  0  0  0
 26 27  1  0  0  0
  5  6  2  0  0  0
  6  7  1  0  0  0
  7  8  1  0  0  0
  7  9  2  0  0  0
  9 10  1  0  0  0
 10 11  2  0  0  0
 11 12  1  0  0  0
 12 13  1  0  0  0
 13 14  1  0  0  0
 14 15  1  0  0  0
 11  2  1  0  0  0
 15 12  1  0  0  0
 10  4  1  0  0  0
 26 21  1  0  0  0
 32 28  1  0  0  0
 19 20  1  0  0  0
 14 16  1  0  0  0
M  END
> <minimizedAffinity>
-8.53513

> <minimizedRMSD>
0.52837

$$$$
P28421


 42 47  0  0  0  0  0  0  0  0999 V2000
   -7.3476    5.4534  -13.7992 C   0  0  0  0  0  0  0  0  0  0  0  0
   -7.7872    6.8113  -13.8285 O   0  0  0  0  0  0  0  0  0  0  0  0
   -7.8472    7.1514  -12.9221 H   0  0  0  0  0  0  0  0  0  0  0  0
   -7.3050    5.0681  -15.2879 C   0  0  0  0  0  0  0  0  0  0  0  0
   -8.5312    4.7711  -15.9496 C   0  0  0  0  0  0  0  0  0  0  0  0
   -8.6196    4.5734  -17.3255 C   0  0  0  0  0  0  0  0  0  0  0  0
  -10.1429    4.2702  -18.0603 Cl  0  0  0  0  0  0  0  0  0  0  0  0
   -7.5006    4.6826  -18.1369 C   0  0  0  0  0  0  0  0  0  0  0  0
   -6.2825    4.9650  -17.5109 C   0  0  0  0  0  0  0  0  0  0  0  0
   -6.1560    5.1418  -16.1288 C   0  0  0  0  0  0  0  0  0  0  0  0
   -4.7702    5.4003  -15.9629 C   0  0  0  0  0  0  0  0  0  0  0  0
   -4.0815    5.3689  -17.1037 N   0  0  0  0  0  0  0  0  0  0  0  0
   -5.0217    5.1493  -18.0367 N   0  0  0  0  0  0  0  0  0  0  0  0
   -4.7353    5.0927  -19.4805 C   0  0  0  0  0  0  0  0  0  0  0  0
   -3.2443    5.0217  -19.8641 C   0  0  0  0  0  0  0  0  0  0  0  0
   -3.5447    5.9733  -20.9743 N   0  0  0  0  0  0  0  0  0  0  0  0
   -4.6655    6.4845  -20.1347 C   0  0  0  0  0  0  0  0  0  0  0  0
   -3.8328    5.5323  -21.8478 H   0  0  0  0  0  0  0  0  0  0  0  0
   -5.3641    6.3573  -12.7428 O   0  0  0  0  0  0  0  0  0  0  0  0
   -5.9161    5.3793  -13.0792 C   0  0  0  0  0  0  0  0  0  0  0  0
   -5.5143    3.8860  -12.9094 N   0  0  0  0  0  0  0  0  0  0  0  0
   -6.1163    3.2443  -13.3511 H   0  0  0  0  0  0  0  0  0  0  0  0
   -4.3982    3.2861  -12.2066 C   0  0  0  0  0  0  0  0  0  0  0  0
   -4.8684    2.6828  -10.8756 C   0  0  0  0  0  0  0  0  0  0  0  0
   -4.1700    1.3691  -10.5632 C   0  0  0  0  0  0  0  0  0  0  0  0
   -2.7941    1.4782  -10.9074 O   0  0  0  0  0  0  0  0  0  0  0  0
   -2.5900    1.5258  -12.3221 C   0  0  0  0  0  0  0  0  0  0  0  0
   -3.7022    2.2515  -13.0776 C   0  0  0  0  0  0  0  0  0  0  0  0
   -8.3488    4.6635  -13.0664 N   0  0  0  0  0  0  0  0  0  0  0  0
   -8.9932    4.1130  -13.5673 H   0  0  0  0  0  0  0  0  0  0  0  0
   -8.3994    4.6826  -11.6645 C   0  0  0  0  0  0  0  0  0  0  0  0
   -8.3254    5.8483  -10.9093 C   0  0  0  0  0  0  0  0  0  0  0  0
   -8.3594    5.7983   -9.5107 C   0  0  0  0  0  0  0  0  0  0  0  0
   -8.4795    4.5812   -8.8142 C   0  0  0  0  0  0  0  0  0  0  0  0
   -8.5592    3.4070   -9.5632 C   0  0  0  0  0  0  0  0  0  0  0  0
   -8.5157    3.4762  -10.9580 C   0  0  0  0  0  0  0  0  0  0  0  0
   -8.5112    2.3414  -11.6658 F   0  0  0  0  0  0  0  0  0  0  0  0
   -8.5399    4.6344   -7.3099 C   0  0  0  0  0  0  0  0  0  0  0  0
   -7.2013    4.9640   -6.6711 C   0  0  0  0  0  0  0  0  0  0  0  0
   -7.4560    4.6507   -5.2132 C   0  0  0  0  0  0  0  0  0  0  0  0
   -8.5024    3.6768   -5.1590 O   0  0  0  0  0  0  0  0  0  0  0  0
   -8.9440    3.4079   -6.5042 C   0  0  0  0  0  0  0  0  0  0  0  0
 19 20  2  0  0  0
 20 21  1  0  0  0
 21 23  1  0  0  0
 23 24  1  0  0  0
 24 25  1  0  0  0
 25 26  1  0  0  0
 26 27  1  0  0  0
 27 28  1  0  0  0
 20  1  1  0  0  0
  1  2  1  0  0  0
  1 29  1  0  0  0
 29 31  1  0  0  0
 31 32  2  0  0  0
 32 33  1  0  0  0
 33 34  2  0  0  0
 38 34  1  0  0  0
 38 39  1  0  0  0
 39 40  1  0  0  0
 40 41  1  0  0  0
 41 42  1  0  0  0
 34 35  1  0  0  0
 35 36  2  0  0  0
 36 37  1  0  0  0
  1  4  1  0  0  0
  4  5  2  0  0  0
  5  6  1  0  0  0
  6  7  1  0  0  0
  6  8  2  0  0  0
  8  9  1  0  0  0
  9 10  2  0  0  0
 10 11  1  0  0  0
 11 12  2  0  0  0
 12 13  1  0  0  0
 13 14  1  0  0  0
 14 15  1  0  0  0
 15 16  1  0  0  0
 16 17  1  0  0  0
 28 23  1  0  0  0
 36 31  1  0  0  0
 10  4  1  0  0  0
 17 14  1  0  0  0
 42 38  1  0  0  0
 13  9  1  0  0  0
 21 22  1  0  0  0
  2  3  1  0  0  0
 29 30  1  0  0  0
 16 18  1  0  0  0
M  END
> <minimizedAffinity>
-8.65977

> <minimizedRMSD>
0.55703

$$$$
P28423


 39 43  0  0  0  0  0  0  0  0999 V2000
   -7.4477    5.2871  -13.4340 C   0  0  0  0  0  0  0  0  0  0  0  0
   -6.2636    4.7059  -12.9226 O   0  0  0  0  0  0  0  0  0  0  0  0
   -6.2100    4.8683  -11.9678 H   0  0  0  0  0  0  0  0  0  0  0  0
   -7.4392    4.9760  -14.9459 C   0  0  0  0  0  0  0  0  0  0  0  0
   -8.6170    4.7626  -15.6951 C   0  0  0  0  0  0  0  0  0  0  0  0
   -8.5908    4.6266  -17.0865 C   0  0  0  0  0  0  0  0  0  0  0  0
  -10.0688    4.3950  -17.9434 Cl  0  0  0  0  0  0  0  0  0  0  0  0
   -7.4056    4.7527  -17.8172 C   0  0  0  0  0  0  0  0  0  0  0  0
   -6.2195    4.9283  -17.0940 C   0  0  0  0  0  0  0  0  0  0  0  0
   -6.2247    4.9827  -15.6945 C   0  0  0  0  0  0  0  0  0  0  0  0
   -4.8556    5.0578  -15.3470 C   0  0  0  0  0  0  0  0  0  0  0  0
   -4.0485    5.0546  -16.4016 N   0  0  0  0  0  0  0  0  0  0  0  0
   -4.8935    5.1190  -17.4515 N   0  0  0  0  0  0  0  0  0  0  0  0
   -4.3603    5.7506  -18.6674 C   0  0  0  0  0  0  0  0  0  0  0  0
   -2.9856    5.1717  -19.0710 C   0  0  0  0  0  0  0  0  0  0  0  0
   -3.3859    5.4169  -20.4785 N   0  0  0  0  0  0  0  0  0  0  0  0
   -4.7971    5.2608  -20.0378 C   0  0  0  0  0  0  0  0  0  0  0  0
   -3.0666    4.7099  -21.1407 H   0  0  0  0  0  0  0  0  0  0  0  0
   -8.9950    7.3394  -13.2035 N   0  0  0  0  0  0  0  0  0  0  0  0
   -7.4934    6.9205  -13.3102 C   0  0  0  0  0  0  0  0  0  0  0  0
   -6.5196    7.5723  -13.2787 O   0  0  0  0  0  0  0  0  0  0  0  0
   -9.6382    6.6059  -13.3363 H   0  0  0  0  0  0  0  0  0  0  0  0
   -9.5921    8.6275  -12.9419 C   0  0  0  0  0  0  0  0  0  0  0  0
  -11.3010   10.1392  -13.9820 C   0  0  0  0  0  0  0  0  0  0  0  0
  -11.0371    8.7542  -13.4114 C   0  0  0  0  0  0  0  0  0  0  0  0
   -8.5866    4.6685  -12.7221 N   0  0  0  0  0  0  0  0  0  0  0  0
   -9.3782    4.3504  -13.2134 H   0  0  0  0  0  0  0  0  0  0  0  0
   -8.5055    4.5458  -11.3029 C   0  0  0  0  0  0  0  0  0  0  0  0
   -8.2677    5.6089  -10.4288 C   0  0  0  0  0  0  0  0  0  0  0  0
   -8.2840    5.4306   -9.0349 C   0  0  0  0  0  0  0  0  0  0  0  0
   -8.5499    4.1828   -8.4541 C   0  0  0  0  0  0  0  0  0  0  0  0
   -8.7597    3.1096   -9.3216 C   0  0  0  0  0  0  0  0  0  0  0  0
   -8.7674    3.3078  -10.7025 C   0  0  0  0  0  0  0  0  0  0  0  0
   -9.0430    2.2651  -11.4876 F   0  0  0  0  0  0  0  0  0  0  0  0
   -8.5429    3.9809   -6.9510 C   0  0  0  0  0  0  0  0  0  0  0  0
   -9.1275    5.1276   -6.1320 C   0  0  0  0  0  0  0  0  0  0  0  0
   -9.5070    4.4476   -4.8417 C   0  0  0  0  0  0  0  0  0  0  0  0
  -10.0614    3.2006   -5.2498 O   0  0  0  0  0  0  0  0  0  0  0  0
   -9.3176    2.7664   -6.4072 C   0  0  0  0  0  0  0  0  0  0  0  0
 24 25  1  0  0  0
 25 23  1  0  0  0
 23 19  1  0  0  0
 19 20  1  0  0  0
 20 21  2  0  0  0
 20  1  1  0  0  0
  1  2  1  0  0  0
  1 26  1  0  0  0
 26 28  1  0  0  0
 28 29  2  0  0  0
 29 30  1  0  0  0
 30 31  2  0  0  0
 35 31  1  0  0  0
 35 36  1  0  0  0
 36 37  1  0  0  0
 37 38  1  0  0  0
 38 39  1  0  0  0
 31 32  1  0  0  0
 32 33  2  0  0  0
 33 34  1  0  0  0
  1  4  1  0  0  0
  4  5  2  0  0  0
  5  6  1  0  0  0
  6  7  1  0  0  0
  6  8  2  0  0  0
  8  9  1  0  0  0
  9 10  2  0  0  0
 10 11  1  0  0  0
 11 12  2  0  0  0
 12 13  1  0  0  0
 13 14  1  0  0  0
 14 15  1  0  0  0
 15 16  1  0  0  0
 16 17  1  0  0  0
 33 28  1  0  0  0
 10  4  1  0  0  0
 17 14  1  0  0  0
 39 35  1  0  0  0
 13  9  1  0  0  0
 19 22  1  0  0  0
  2  3  1  0  0  0
 26 27  1  0  0  0
 16 18  1  0  0  0
M  END
> <minimizedAffinity>
-8.01953

> <minimizedRMSD>
0.54422

$$$$
P28425


 32 36  0  0  0  0  0  0  0  0999 V2000
   -7.3447    3.9205  -13.6243 C   0  0  0  0  0  0  0  0  0  0  0  0
   -7.4180    4.3062  -15.0945 C   0  0  0  0  0  0  0  0  0  0  0  0
   -8.6195    4.3049  -15.8367 C   0  0  0  0  0  0  0  0  0  0  0  0
   -8.6468    4.6329  -17.1901 C   0  0  0  0  0  0  0  0  0  0  0  0
  -10.1528    4.6636  -18.0141 Cl  0  0  0  0  0  0  0  0  0  0  0  0
   -7.4886    4.9930  -17.8764 C   0  0  0  0  0  0  0  0  0  0  0  0
   -6.3002    5.0498  -17.1402 C   0  0  0  0  0  0  0  0  0  0  0  0
   -6.2514    4.7154  -15.7890 C   0  0  0  0  0  0  0  0  0  0  0  0
   -4.8975    4.9027  -15.4267 C   0  0  0  0  0  0  0  0  0  0  0  0
   -4.1548    5.3619  -16.4267 N   0  0  0  0  0  0  0  0  0  0  0  0
   -5.0114    5.4182  -17.4636 N   0  0  0  0  0  0  0  0  0  0  0  0
   -4.5999    6.0362  -18.7292 C   0  0  0  0  0  0  0  0  0  0  0  0
   -3.0774    5.9550  -18.9693 C   0  0  0  0  0  0  0  0  0  0  0  0
   -3.3464    5.5249  -20.3497 N   0  0  0  0  0  0  0  0  0  0  0  0
   -4.7023    5.1061  -19.9283 C   0  0  0  0  0  0  0  0  0  0  0  0
   -2.7531    4.7615  -20.6748 H   0  0  0  0  0  0  0  0  0  0  0  0
   -5.7386    2.3833  -13.0638 O   0  0  0  0  0  0  0  0  0  0  0  0
   -6.8791    2.4864  -13.5335 N   0  0  0  0  0  0  0  0  0  0  0  0
   -8.6259    4.0945  -12.9370 N   0  0  0  0  0  0  0  0  0  0  0  0
   -9.4994    4.0191  -13.3849 H   0  0  0  0  0  0  0  0  0  0  0  0
   -8.4739    4.3829  -11.5589 C   0  0  0  0  0  0  0  0  0  0  0  0
   -8.6018    3.3555  -10.6212 C   0  0  0  0  0  0  0  0  0  0  0  0
   -8.4827    3.6093   -9.2535 C   0  0  0  0  0  0  0  0  0  0  0  0
   -8.2687    4.9105   -8.7852 C   0  0  0  0  0  0  0  0  0  0  0  0
   -8.0692    5.9336   -9.7240 C   0  0  0  0  0  0  0  0  0  0  0  0
   -8.1687    5.6659  -11.0873 C   0  0  0  0  0  0  0  0  0  0  0  0
   -8.0217    6.6823  -11.9531 F   0  0  0  0  0  0  0  0  0  0  0  0
   -8.2903    5.2487   -7.3154 C   0  0  0  0  0  0  0  0  0  0  0  0
   -9.2489    4.4439   -6.4437 C   0  0  0  0  0  0  0  0  0  0  0  0
   -8.3738    3.8204   -5.3940 C   0  0  0  0  0  0  0  0  0  0  0  0
   -7.2155    4.6667   -5.2986 O   0  0  0  0  0  0  0  0  0  0  0  0
   -6.9378    5.0983   -6.6364 C   0  0  0  0  0  0  0  0  0  0  0  0
 17 18  2  0  0  0
 18  1  1  0  0  0
  1 19  1  0  0  0
 19 21  1  0  0  0
 21 22  2  0  0  0
 22 23  1  0  0  0
 23 24  2  0  0  0
 28 24  1  0  0  0
 28 29  1  0  0  0
 29 30  1  0  0  0
 30 31  1  0  0  0
 31 32  1  0  0  0
 24 25  1  0  0  0
 25 26  2  0  0  0
 26 27  1  0  0  0
  1  2  1  0  0  0
  2  3  2  0  0  0
  3  4  1  0  0  0
  4  5  1  0  0  0
  4  6  2  0  0  0
  6  7  1  0  0  0
  7  8  2  0  0  0
  8  9  1  0  0  0
  9 10  2  0  0  0
 10 11  1  0  0  0
 11 12  1  0  0  0
 12 13  1  0  0  0
 13 14  1  0  0  0
 14 15  1  0  0  0
 26 21  1  0  0  0
  8  2  1  0  0  0
 15 12  1  0  0  0
 32 28  1  0  0  0
 11  7  1  0  0  0
 19 20  1  0  0  0
 14 16  1  0  0  0
M  END
> <minimizedAffinity>
-7.77739

> <minimizedRMSD>
0.84243

$$$$
P28427


 47 52  0  0  0  0  0  0  0  0999 V2000
   -7.3056    4.2771  -13.7498 C   0  0  0  0  0  0  0  0  0  0  0  0
   -6.5353    5.3987  -13.3194 O   0  0  0  0  0  0  0  0  0  0  0  0
   -6.4103    5.3554  -12.3585 H   0  0  0  0  0  0  0  0  0  0  0  0
   -7.4437    4.4414  -15.2716 C   0  0  0  0  0  0  0  0  0  0  0  0
   -8.7103    4.4089  -15.9149 C   0  0  0  0  0  0  0  0  0  0  0  0
   -8.8494    4.5540  -17.2966 C   0  0  0  0  0  0  0  0  0  0  0  0
  -10.4026    4.4506  -18.0321 Cl  0  0  0  0  0  0  0  0  0  0  0  0
   -7.7486    4.7778  -18.1144 C   0  0  0  0  0  0  0  0  0  0  0  0
   -6.4937    4.8096  -17.5020 C   0  0  0  0  0  0  0  0  0  0  0  0
   -6.3211    4.6315  -16.1298 C   0  0  0  0  0  0  0  0  0  0  0  0
   -4.9148    4.6966  -15.9601 C   0  0  0  0  0  0  0  0  0  0  0  0
   -4.2543    4.9289  -17.0955 N   0  0  0  0  0  0  0  0  0  0  0  0
   -5.2283    4.9705  -18.0244 N   0  0  0  0  0  0  0  0  0  0  0  0
   -4.9758    5.1825  -19.4603 C   0  0  0  0  0  0  0  0  0  0  0  0
   -3.4948    5.1973  -19.8897 C   0  0  0  0  0  0  0  0  0  0  0  0
   -3.8324    6.3513  -20.7699 N   0  0  0  0  0  0  0  0  0  0  0  0
   -4.9345    6.6770  -19.8323 C   0  0  0  0  0  0  0  0  0  0  0  0
   -4.1370    6.0933  -21.7085 H   0  0  0  0  0  0  0  0  0  0  0  0
   -5.4879    3.1951  -12.4612 N   0  0  0  0  0  0  0  0  0  0  0  0
   -6.5777    2.8930  -13.3492 C   0  0  0  0  0  0  0  0  0  0  0  0
   -7.0111    1.8420  -13.7237 O   0  0  0  0  0  0  0  0  0  0  0  0
   -5.3830    4.1518  -12.2538 H   0  0  0  0  0  0  0  0  0  0  0  0
   -4.5151    2.3285  -11.8179 C   0  0  0  0  0  0  0  0  0  0  0  0
   -3.0131    1.9455  -12.7630 S   0  0  0  0  0  0  0  0  0  0  0  0
   -3.3115    1.8648  -14.1835 O   0  0  0  0  0  0  0  0  0  0  0  0
   -2.2389    0.9016  -12.1105 O   0  0  0  0  0  0  0  0  0  0  0  0
    0.0531    7.1173  -11.8655 C   0  0  0  0  0  0  0  0  0  0  0  0
   -0.6693    5.8235  -12.1052 C   0  0  0  0  0  0  0  0  0  0  0  0
   -1.3858    5.6270  -13.2951 C   0  0  0  0  0  0  0  0  0  0  0  0
   -2.0857    4.4398  -13.5137 C   0  0  0  0  0  0  0  0  0  0  0  0
   -2.0808    3.4536  -12.5261 C   0  0  0  0  0  0  0  0  0  0  0  0
   -1.3677    3.6303  -11.3366 C   0  0  0  0  0  0  0  0  0  0  0  0
   -0.6718    4.8207  -11.1258 C   0  0  0  0  0  0  0  0  0  0  0  0
   -8.6297    4.3744  -13.0772 N   0  0  0  0  0  0  0  0  0  0  0  0
   -9.4800    4.2870  -13.5656 H   0  0  0  0  0  0  0  0  0  0  0  0
   -8.5724    4.6040  -11.6706 C   0  0  0  0  0  0  0  0  0  0  0  0
   -8.2904    5.8771  -11.1709 C   0  0  0  0  0  0  0  0  0  0  0  0
   -8.1017    6.0799   -9.7993 C   0  0  0  0  0  0  0  0  0  0  0  0
   -8.1893    5.0168   -8.8835 C   0  0  0  0  0  0  0  0  0  0  0  0
   -8.5031    3.7452   -9.3790 C   0  0  0  0  0  0  0  0  0  0  0  0
   -8.7019    3.5558  -10.7476 C   0  0  0  0  0  0  0  0  0  0  0  0
   -8.9944    2.3288  -11.1988 F   0  0  0  0  0  0  0  0  0  0  0  0
   -7.8829    5.2947   -7.4305 C   0  0  0  0  0  0  0  0  0  0  0  0
   -8.5211    4.4313   -6.3604 C   0  0  0  0  0  0  0  0  0  0  0  0
   -7.6017    4.6672   -5.1778 C   0  0  0  0  0  0  0  0  0  0  0  0
   -6.2714    4.8817   -5.6961 O   0  0  0  0  0  0  0  0  0  0  0  0
   -6.3971    5.1508   -7.1082 C   0  0  0  0  0  0  0  0  0  0  0  0
 27 28  1  0  0  0
 28 29  2  0  0  0
 29 30  1  0  0  0
 30 31  2  0  0  0
 31 24  1  0  0  0
 24 25  2  0  0  0
 24 26  2  0  0  0
 24 23  1  0  0  0
 23 19  1  0  0  0
 19 20  1  0  0  0
 20 21  2  0  0  0
 20  1  1  0  0  0
  1  2  1  0  0  0
  1 34  1  0  0  0
 34 36  1  0  0  0
 36 37  2  0  0  0
 37 38  1  0  0  0
 38 39  2  0  0  0
 43 39  1  0  0  0
 43 44  1  0  0  0
 44 45  1  0  0  0
 45 46  1  0  0  0
 46 47  1  0  0  0
 39 40  1  0  0  0
 40 41  2  0  0  0
 41 42  1  0  0  0
  1  4  1  0  0  0
  4  5  2  0  0  0
  5  6  1  0  0  0
  6  7  1  0  0  0
  6  8  2  0  0  0
  8  9  1  0  0  0
  9 10  2  0  0  0
 10 11  1  0  0  0
 11 12  2  0  0  0
 12 13  1  0  0  0
 13 14  1  0  0  0
 14 15  1  0  0  0
 15 16  1  0  0  0
 16 17  1  0  0  0
 31 32  1  0  0  0
 32 33  2  0  0  0
 33 28  1  0  0  0
 41 36  1  0  0  0
 10  4  1  0  0  0
 17 14  1  0  0  0
 47 43  1  0  0  0
 13  9  1  0  0  0
 19 22  1  0  0  0
  2  3  1  0  0  0
 34 35  1  0  0  0
 16 18  1  0  0  0
M  END
> <minimizedAffinity>
-8.96570

> <minimizedRMSD>
1.14549

$$$$
P28428


 37 42  0  0  0  0  0  0  0  0999 V2000
   -8.0110    5.0481  -15.5341 C   0  0  0  0  0  0  0  0  0  0  0  0
   -9.1660    4.7206  -16.2538 C   0  0  0  0  0  0  0  0  0  0  0  0
   -9.0921    4.4844  -17.6253 C   0  0  0  0  0  0  0  0  0  0  0  0
  -10.5369    4.1809  -18.4973 Cl  0  0  0  0  0  0  0  0  0  0  0  0
   -7.8768    4.5593  -18.2945 C   0  0  0  0  0  0  0  0  0  0  0  0
   -6.7334    4.8359  -17.5585 C   0  0  0  0  0  0  0  0  0  0  0  0
   -6.7788    5.0746  -16.1783 C   0  0  0  0  0  0  0  0  0  0  0  0
   -5.3605    5.3159  -15.7147 C   0  0  0  0  0  0  0  0  0  0  0  0
   -4.8320    4.2676  -14.7381 C   0  0  0  0  0  0  0  0  0  0  0  0
   -5.0153    4.8771  -13.3550 C   0  0  0  0  0  0  0  0  0  0  0  0
   -5.1425    6.3298  -13.5111 N   0  0  0  0  0  0  0  0  0  0  0  0
   -5.0922    6.6199  -14.9523 C   0  0  0  0  0  0  0  0  0  0  0  0
   -4.5372    5.2783  -16.9715 N   0  0  0  0  0  0  0  0  0  0  0  0
   -5.4126    4.9238  -18.0428 N   0  0  0  0  0  0  0  0  0  0  0  0
   -4.3745    6.8010  -13.0330 H   0  0  0  0  0  0  0  0  0  0  0  0
   -3.7958    4.5836  -16.8823 H   0  0  0  0  0  0  0  0  0  0  0  0
   -5.0399    5.1052  -19.4297 C   0  0  0  0  0  0  0  0  0  0  0  0
   -3.5268    5.0355  -19.7392 C   0  0  0  0  0  0  0  0  0  0  0  0
   -3.6610    6.2622  -20.5540 N   0  0  0  0  0  0  0  0  0  0  0  0
   -4.9225    6.5840  -19.8553 C   0  0  0  0  0  0  0  0  0  0  0  0
   -3.7703    6.0890  -21.5533 H   0  0  0  0  0  0  0  0  0  0  0  0
   -8.3223    6.6369  -13.9365 O   0  0  0  0  0  0  0  0  0  0  0  0
   -8.2101    5.4955  -14.1453 C   0  0  0  0  0  0  0  0  0  0  0  0
   -8.2736    4.2925  -13.1836 N   0  0  0  0  0  0  0  0  0  0  0  0
   -8.2237    3.4120  -13.6212 H   0  0  0  0  0  0  0  0  0  0  0  0
   -8.3903    4.2481  -11.7940 C   0  0  0  0  0  0  0  0  0  0  0  0
   -8.8654    3.0618  -11.2464 C   0  0  0  0  0  0  0  0  0  0  0  0
   -8.9417    2.8989   -9.8642 C   0  0  0  0  0  0  0  0  0  0  0  0
   -8.5817    3.9266   -8.9832 C   0  0  0  0  0  0  0  0  0  0  0  0
   -8.1133    5.1229   -9.5396 C   0  0  0  0  0  0  0  0  0  0  0  0
   -8.0325    5.2819  -10.9284 C   0  0  0  0  0  0  0  0  0  0  0  0
   -7.6444    6.4771  -11.3934 F   0  0  0  0  0  0  0  0  0  0  0  0
   -8.6390    3.6712   -7.4939 C   0  0  0  0  0  0  0  0  0  0  0  0
   -9.7677    2.7387   -7.0705 C   0  0  0  0  0  0  0  0  0  0  0  0
   -9.9593    3.0982   -5.6279 C   0  0  0  0  0  0  0  0  0  0  0  0
   -9.7847    4.5207   -5.5565 O   0  0  0  0  0  0  0  0  0  0  0  0
   -8.8383    4.8803   -6.5761 C   0  0  0  0  0  0  0  0  0  0  0  0
 22 23  2  0  0  0
 23 24  1  0  0  0
 24 26  1  0  0  0
 26 27  2  0  0  0
 27 28  1  0  0  0
 28 29  2  0  0  0
 33 29  1  0  0  0
 33 34  1  0  0  0
 34 35  1  0  0  0
 35 36  1  0  0  0
 36 37  1  0  0  0
 29 30  1  0  0  0
 30 31  2  0  0  0
 31 32  1  0  0  0
 23  1  1  0  0  0
  1  2  2  0  0  0
  2  3  1  0  0  0
  3  4  1  0  0  0
  3  5  2  0  0  0
  5  6  1  0  0  0
  6  7  2  0  0  0
  7  8  1  0  0  0
  8  9  1  0  0  0
  9 10  1  0  0  0
 10 11  1  0  0  0
 11 12  1  0  0  0
  8 13  1  0  0  0
 13 14  1  0  0  0
 14 17  1  0  0  0
 17 18  1  0  0  0
 18 19  1  0  0  0
 19 20  1  0  0  0
 31 26  1  0  0  0
  7  1  1  0  0  0
 12  8  1  0  0  0
 20 17  1  0  0  0
 37 33  1  0  0  0
 14  6  1  0  0  0
 24 25  1  0  0  0
 11 15  1  0  0  0
 13 16  1  0  0  0
 19 21  1  0  0  0
M  END
> <minimizedAffinity>
-8.95792

> <minimizedRMSD>
0.52998

$$$$
P28431


 36 41  0  0  0  0  0  0  0  0999 V2000
   -8.2456    4.9699  -15.5534 C   0  0  0  0  0  0  0  0  0  0  0  0
   -9.1129    4.6015  -16.5719 C   0  0  0  0  0  0  0  0  0  0  0  0
   -8.6285    4.5174  -17.8810 C   0  0  0  0  0  0  0  0  0  0  0  0
   -9.7448    4.2801  -19.1565 Cl  0  0  0  0  0  0  0  0  0  0  0  0
   -7.2802    4.7254  -18.1848 C   0  0  0  0  0  0  0  0  0  0  0  0
   -6.4112    5.0391  -17.1561 C   0  0  0  0  0  0  0  0  0  0  0  0
   -6.9061    5.1743  -15.8647 C   0  0  0  0  0  0  0  0  0  0  0  0
   -5.8199    5.6432  -14.9686 C   0  0  0  0  0  0  0  0  0  0  0  0
   -4.5361    5.3854  -15.8331 C   0  0  0  0  0  0  0  0  0  0  0  0
   -3.8802    4.0675  -15.3628 C   0  0  0  0  0  0  0  0  0  0  0  0
   -2.8763    4.2544  -14.2152 C   0  0  0  0  0  0  0  0  0  0  0  0
   -3.1073    5.4797  -13.3471 C   0  0  0  0  0  0  0  0  0  0  0  0
   -3.1714    6.7658  -14.1586 C   0  0  0  0  0  0  0  0  0  0  0  0
   -3.5707    6.5636  -15.6220 C   0  0  0  0  0  0  0  0  0  0  0  0
   -5.0154    5.2994  -17.2480 N   0  0  0  0  0  0  0  0  0  0  0  0
   -4.2476    5.0178  -18.4513 C   0  0  0  0  0  0  0  0  0  0  0  0
   -2.7187    5.1699  -18.4783 C   0  0  0  0  0  0  0  0  0  0  0  0
   -2.8551    6.5427  -19.0069 N   0  0  0  0  0  0  0  0  0  0  0  0
   -4.2366    6.2169  -19.4308 C   0  0  0  0  0  0  0  0  0  0  0  0
   -2.2208    6.7615  -19.7752 H   0  0  0  0  0  0  0  0  0  0  0  0
   -9.5034    6.2194  -14.1407 O   0  0  0  0  0  0  0  0  0  0  0  0
   -8.7462    5.3328  -14.2068 C   0  0  0  0  0  0  0  0  0  0  0  0
   -8.1357    4.4528  -13.0946 N   0  0  0  0  0  0  0  0  0  0  0  0
   -7.5735    3.7119  -13.4174 H   0  0  0  0  0  0  0  0  0  0  0  0
   -8.2511    4.5366  -11.7072 C   0  0  0  0  0  0  0  0  0  0  0  0
   -8.0178    5.7305  -11.0376 C   0  0  0  0  0  0  0  0  0  0  0  0
   -8.1124    5.7806   -9.6442 C   0  0  0  0  0  0  0  0  0  0  0  0
   -8.4185    4.6367   -8.8841 C   0  0  0  0  0  0  0  0  0  0  0  0
   -8.6702    3.4428   -9.5696 C   0  0  0  0  0  0  0  0  0  0  0  0
   -8.5894    3.4088  -10.9632 C   0  0  0  0  0  0  0  0  0  0  0  0
   -8.8613    2.2676  -11.6020 F   0  0  0  0  0  0  0  0  0  0  0  0
   -8.4977    4.7727   -7.3824 C   0  0  0  0  0  0  0  0  0  0  0  0
   -8.9644    3.5908   -6.5556 C   0  0  0  0  0  0  0  0  0  0  0  0
   -8.4077    3.9016   -5.1771 C   0  0  0  0  0  0  0  0  0  0  0  0
   -7.3143    4.8227   -5.3265 O   0  0  0  0  0  0  0  0  0  0  0  0
   -7.1498    5.0664   -6.7286 C   0  0  0  0  0  0  0  0  0  0  0  0
 21 22  2  0  0  0
 22 23  1  0  0  0
 23 25  1  0  0  0
 25 26  2  0  0  0
 26 27  1  0  0  0
 27 28  2  0  0  0
 32 28  1  0  0  0
 32 33  1  0  0  0
 33 34  1  0  0  0
 34 35  1  0  0  0
 35 36  1  0  0  0
 28 29  1  0  0  0
 29 30  2  0  0  0
 30 31  1  0  0  0
 22  1  1  0  0  0
  1  2  2  0  0  0
  2  3  1  0  0  0
  3  4  1  0  0  0
  3  5  2  0  0  0
  5  6  1  0  0  0
  6  7  2  0  0  0
  7  8  1  0  0  0
  8  9  1  0  0  0
  9 10  1  0  0  0
 10 11  1  0  0  0
 11 12  1  0  0  0
 12 13  1  0  0  0
 13 14  1  0  0  0
  9 15  1  0  0  0
 15 16  1  0  0  0
 16 17  1  0  0  0
 17 18  1  0  0  0
 18 19  1  0  0  0
 30 25  1  0  0  0
  7  1  1  0  0  0
 14  9  1  0  0  0
 19 16  1  0  0  0
 36 32  1  0  0  0
 15  6  1  0  0  0
 23 24  1  0  0  0
 18 20  1  0  0  0
M  END
> <minimizedAffinity>
-9.04765

> <minimizedRMSD>
1.04289

$$$$
P28432


 36 41  0  0  0  0  0  0  0  0999 V2000
   -7.7835    5.0905  -15.0631 C   0  0  0  0  0  0  0  0  0  0  0  0
   -8.8478    4.5066  -15.7405 C   0  0  0  0  0  0  0  0  0  0  0  0
   -8.7164    4.2383  -17.1077 C   0  0  0  0  0  0  0  0  0  0  0  0
  -10.0887    3.7109  -17.9765 Cl  0  0  0  0  0  0  0  0  0  0  0  0
   -7.5283    4.4824  -17.8031 C   0  0  0  0  0  0  0  0  0  0  0  0
   -6.4618    5.0361  -17.1200 C   0  0  0  0  0  0  0  0  0  0  0  0
   -6.6123    5.3561  -15.7735 C   0  0  0  0  0  0  0  0  0  0  0  0
   -5.3971    6.0622  -15.2900 C   0  0  0  0  0  0  0  0  0  0  0  0
   -4.3941    5.9218  -16.4930 C   0  0  0  0  0  0  0  0  0  0  0  0
   -3.2613    4.9633  -16.0515 C   0  0  0  0  0  0  0  0  0  0  0  0
   -2.3219    5.5708  -15.0018 C   0  0  0  0  0  0  0  0  0  0  0  0
   -1.7742    6.9159  -15.4469 C   0  0  0  0  0  0  0  0  0  0  0  0
   -2.9085    7.8763  -15.7598 C   0  0  0  0  0  0  0  0  0  0  0  0
   -3.8411    7.3216  -16.8337 C   0  0  0  0  0  0  0  0  0  0  0  0
   -5.1842    5.3691  -17.6372 N   0  0  0  0  0  0  0  0  0  0  0  0
   -4.7573    5.1079  -18.9991 C   0  0  0  0  0  0  0  0  0  0  0  0
   -3.2563    4.9929  -19.3381 C   0  0  0  0  0  0  0  0  0  0  0  0
   -3.4737    5.8377  -20.5315 N   0  0  0  0  0  0  0  0  0  0  0  0
   -4.7348    6.3402  -19.9260 C   0  0  0  0  0  0  0  0  0  0  0  0
   -3.6043    5.3141  -21.3970 H   0  0  0  0  0  0  0  0  0  0  0  0
   -8.0481    6.7393  -13.5165 O   0  0  0  0  0  0  0  0  0  0  0  0
   -7.9396    5.5856  -13.6679 C   0  0  0  0  0  0  0  0  0  0  0  0
   -7.9493    4.4331  -12.6350 N   0  0  0  0  0  0  0  0  0  0  0  0
   -7.9161    3.5298  -13.0250 H   0  0  0  0  0  0  0  0  0  0  0  0
   -7.9974    4.4660  -11.2381 C   0  0  0  0  0  0  0  0  0  0  0  0
   -7.4361    5.5154  -10.5149 C   0  0  0  0  0  0  0  0  0  0  0  0
   -7.5026    5.5290   -9.1135 C   0  0  0  0  0  0  0  0  0  0  0  0
   -8.1406    4.4996   -8.4032 C   0  0  0  0  0  0  0  0  0  0  0  0
   -8.6808    3.4315   -9.1414 C   0  0  0  0  0  0  0  0  0  0  0  0
   -8.6129    3.4273  -10.5387 C   0  0  0  0  0  0  0  0  0  0  0  0
   -9.1624    2.4101  -11.2177 F   0  0  0  0  0  0  0  0  0  0  0  0
   -8.2287    4.5043   -6.8848 C   0  0  0  0  0  0  0  0  0  0  0  0
   -9.3193    5.3864   -6.2741 C   0  0  0  0  0  0  0  0  0  0  0  0
   -8.6729    5.9813   -5.0457 C   0  0  0  0  0  0  0  0  0  0  0  0
   -7.3089    6.1763   -5.4177 O   0  0  0  0  0  0  0  0  0  0  0  0
   -6.9619    5.0285   -6.2114 C   0  0  0  0  0  0  0  0  0  0  0  0
 21 22  2  0  0  0
 22 23  1  0  0  0
 23 25  1  0  0  0
 25 26  2  0  0  0
 26 27  1  0  0  0
 27 28  2  0  0  0
 32 28  1  0  0  0
 32 33  1  0  0  0
 33 34  1  0  0  0
 34 35  1  0  0  0
 35 36  1  0  0  0
 28 29  1  0  0  0
 29 30  2  0  0  0
 30 31  1  0  0  0
 22  1  1  0  0  0
  1  2  2  0  0  0
  2  3  1  0  0  0
  3  4  1  0  0  0
  3  5  2  0  0  0
  5  6  1  0  0  0
  6  7  2  0  0  0
  7  8  1  0  0  0
  8  9  1  0  0  0
  9 10  1  0  0  0
 10 11  1  0  0  0
 11 12  1  0  0  0
 12 13  1  0  0  0
 13 14  1  0  0  0
  9 15  1  0  0  0
 15 16  1  0  0  0
 16 17  1  0  0  0
 17 18  1  0  0  0
 18 19  1  0  0  0
 30 25  1  0  0  0
  7  1  1  0  0  0
 14  9  1  0  0  0
 19 16  1  0  0  0
 36 32  1  0  0  0
 15  6  1  0  0  0
 23 24  1  0  0  0
 18 20  1  0  0  0
M  END
> <minimizedAffinity>
-8.99090

> <minimizedRMSD>
0.40242

$$$$
P28434


 35 40  0  0  0  0  0  0  0  0999 V2000
   -6.7959    4.8466  -14.9197 C   0  0  0  0  0  0  0  0  0  0  0  0
   -8.0840    4.6372  -15.4417 C   0  0  0  0  0  0  0  0  0  0  0  0
   -8.2912    4.6239  -16.8176 C   0  0  0  0  0  0  0  0  0  0  0  0
   -9.8869    4.5817  -17.4365 Cl  0  0  0  0  0  0  0  0  0  0  0  0
   -7.2112    4.7430  -17.6831 C   0  0  0  0  0  0  0  0  0  0  0  0
   -5.9707    4.9567  -17.1280 C   0  0  0  0  0  0  0  0  0  0  0  0
   -5.7095    5.0155  -15.7815 C   0  0  0  0  0  0  0  0  0  0  0  0
   -4.3193    5.2544  -15.7181 C   0  0  0  0  0  0  0  0  0  0  0  0
   -3.7549    5.3478  -16.9321 N   0  0  0  0  0  0  0  0  0  0  0  0
   -4.8005    5.1762  -17.7715 N   0  0  0  0  0  0  0  0  0  0  0  0
   -4.8094    5.2854  -19.2521 C   0  0  0  0  0  0  0  0  0  0  0  0
   -3.4272    4.9314  -19.8373 C   0  0  0  0  0  0  0  0  0  0  0  0
   -3.0310    6.3572  -19.7704 N   0  0  0  0  0  0  0  0  0  0  0  0
   -4.4636    6.7234  -19.7091 C   0  0  0  0  0  0  0  0  0  0  0  0
   -6.1546    4.6883  -19.8833 C   0  0  0  0  0  0  0  0  0  0  0  0
   -6.3357    4.2735  -21.0326 O   0  0  0  0  0  0  0  0  0  0  0  0
   -7.2727    4.6179  -19.0605 N   0  0  0  0  0  0  0  0  0  0  0  0
   -2.5452    6.6978  -20.6001 H   0  0  0  0  0  0  0  0  0  0  0  0
   -8.1522    4.4718  -19.4781 H   0  0  0  0  0  0  0  0  0  0  0  0
   -5.6321    5.5309  -13.0993 O   0  0  0  0  0  0  0  0  0  0  0  0
   -6.6013    5.0102  -13.4817 C   0  0  0  0  0  0  0  0  0  0  0  0
   -7.7990    4.4372  -12.7047 N   0  0  0  0  0  0  0  0  0  0  0  0
   -8.4669    3.9740  -13.2602 H   0  0  0  0  0  0  0  0  0  0  0  0
   -8.0916    4.4669  -11.3476 C   0  0  0  0  0  0  0  0  0  0  0  0
   -8.4770    3.2635  -10.7620 C   0  0  0  0  0  0  0  0  0  0  0  0
   -8.8096    3.2137   -9.4123 C   0  0  0  0  0  0  0  0  0  0  0  0
   -8.7935    4.3746   -8.6325 C   0  0  0  0  0  0  0  0  0  0  0  0
   -8.3684    5.5738   -9.2165 C   0  0  0  0  0  0  0  0  0  0  0  0
   -8.0341    5.6176  -10.5643 C   0  0  0  0  0  0  0  0  0  0  0  0
   -7.7495    6.8161  -11.0888 F   0  0  0  0  0  0  0  0  0  0  0  0
   -9.2443    4.3829   -7.1963 C   0  0  0  0  0  0  0  0  0  0  0  0
  -10.0262    3.1548   -6.7473 C   0  0  0  0  0  0  0  0  0  0  0  0
   -9.0397    2.4105   -5.9028 C   0  0  0  0  0  0  0  0  0  0  0  0
   -8.3284    3.4609   -5.2307 O   0  0  0  0  0  0  0  0  0  0  0  0
   -8.0745    4.4511   -6.2359 C   0  0  0  0  0  0  0  0  0  0  0  0
 20 21  2  0  0  0
 21 22  1  0  0  0
 22 24  1  0  0  0
 24 25  2  0  0  0
 25 26  1  0  0  0
 26 27  2  0  0  0
 31 27  1  0  0  0
 31 32  1  0  0  0
 32 33  1  0  0  0
 33 34  1  0  0  0
 34 35  1  0  0  0
 27 28  1  0  0  0
 28 29  2  0  0  0
 29 30  1  0  0  0
 21  1  1  0  0  0
  1  2  2  0  0  0
  2  3  1  0  0  0
  3  4  1  0  0  0
  3  5  2  0  0  0
  5  6  1  0  0  0
  6  7  2  0  0  0
  7  8  1  0  0  0
  8  9  2  0  0  0
  9 10  1  0  0  0
 10 11  1  0  0  0
 11 12  1  0  0  0
 12 13  1  0  0  0
 13 14  1  0  0  0
 11 15  1  0  0  0
 15 16  2  0  0  0
 15 17  1  0  0  0
 29 24  1  0  0  0
  7  1  1  0  0  0
 14 11  1  0  0  0
 35 31  1  0  0  0
 17  5  1  0  0  0
 10  6  1  0  0  0
 22 23  1  0  0  0
 13 18  1  0  0  0
 17 19  1  0  0  0
M  END
> <minimizedAffinity>
-7.14283

> <minimizedRMSD>
0.82674

$$$$
P28443


 32 36  0  0  0  0  0  0  0  0999 V2000
   -7.4963    6.3547  -13.3273 O   0  0  0  0  0  0  0  0  0  0  0  0
   -7.7618    5.2624  -13.6399 C   0  0  0  0  0  0  0  0  0  0  0  0
   -8.3022    4.0845  -12.8006 N   0  0  0  0  0  0  0  0  0  0  0  0
   -8.5206    3.2758  -13.3179 H   0  0  0  0  0  0  0  0  0  0  0  0
   -7.5481    4.8773  -15.0572 C   0  0  0  0  0  0  0  0  0  0  0  0
   -8.6315    4.5192  -15.8558 C   0  0  0  0  0  0  0  0  0  0  0  0
   -8.4499    4.3440  -17.2192 C   0  0  0  0  0  0  0  0  0  0  0  0
   -9.8337    3.9594  -18.1560 Cl  0  0  0  0  0  0  0  0  0  0  0  0
   -7.2051    4.5328  -17.8400 C   0  0  0  0  0  0  0  0  0  0  0  0
   -6.1079    4.8678  -17.0326 C   0  0  0  0  0  0  0  0  0  0  0  0
   -6.2515    5.0034  -15.6165 C   0  0  0  0  0  0  0  0  0  0  0  0
   -4.9653    5.2782  -15.0005 C   0  0  0  0  0  0  0  0  0  0  0  0
   -4.0677    5.3377  -15.9866 N   0  0  0  0  0  0  0  0  0  0  0  0
   -2.8422    5.6031  -15.9470 O   0  0  0  0  0  0  0  0  0  0  0  0
   -4.7671    5.1563  -17.2671 N   0  0  0  0  0  0  0  0  0  0  0  0
   -4.1274    5.7083  -18.4800 C   0  0  0  0  0  0  0  0  0  0  0  0
   -3.1230    4.7155  -19.1209 C   0  0  0  0  0  0  0  0  0  0  0  0
   -3.4875    5.2906  -20.4413 N   0  0  0  0  0  0  0  0  0  0  0  0
   -4.8125    5.6334  -19.8375 C   0  0  0  0  0  0  0  0  0  0  0  0
   -3.5278    4.6156  -21.2049 H   0  0  0  0  0  0  0  0  0  0  0  0
   -8.5316    3.9795  -11.4280 C   0  0  0  0  0  0  0  0  0  0  0  0
   -8.7861    2.7079  -10.9256 C   0  0  0  0  0  0  0  0  0  0  0  0
   -8.8815    2.4946   -9.5505 C   0  0  0  0  0  0  0  0  0  0  0  0
   -8.6944    3.5405   -8.6362 C   0  0  0  0  0  0  0  0  0  0  0  0
   -8.5250    4.8349   -9.1537 C   0  0  0  0  0  0  0  0  0  0  0  0
   -8.4677    5.0501  -10.5348 C   0  0  0  0  0  0  0  0  0  0  0  0
   -8.3755    6.3147  -10.9715 F   0  0  0  0  0  0  0  0  0  0  0  0
   -8.5625    3.2947   -7.1398 C   0  0  0  0  0  0  0  0  0  0  0  0
   -8.4940    4.5451   -6.2872 C   0  0  0  0  0  0  0  0  0  0  0  0
   -9.8773    4.6762   -5.6706 C   0  0  0  0  0  0  0  0  0  0  0  0
  -10.6700    3.6064   -6.1693 O   0  0  0  0  0  0  0  0  0  0  0  0
   -9.7371    2.5770   -6.4815 C   0  0  0  0  0  0  0  0  0  0  0  0
  1  2  2  0  0  0
  2  3  1  0  0  0
  3 21  1  0  0  0
 21 22  2  0  0  0
 22 23  1  0  0  0
 23 24  2  0  0  0
 28 24  1  0  0  0
 28 29  1  0  0  0
 29 30  1  0  0  0
 30 31  1  0  0  0
 31 32  1  0  0  0
 24 25  1  0  0  0
 25 26  2  0  0  0
 26 27  1  0  0  0
  2  5  1  0  0  0
  5  6  2  0  0  0
  6  7  1  0  0  0
  7  8  1  0  0  0
  7  9  2  0  0  0
  9 10  1  0  0  0
 10 11  2  0  0  0
 11 12  1  0  0  0
 12 13  2  0  0  0
 13 14  1  0  0  0
 13 15  1  0  0  0
 15 16  1  0  0  0
 16 17  1  0  0  0
 17 18  1  0  0  0
 18 19  1  0  0  0
 26 21  1  0  0  0
 11  5  1  0  0  0
 19 16  1  0  0  0
 32 28  1  0  0  0
 15 10  1  0  0  0
  3  4  1  0  0  0
 18 20  1  0  0  0
M  CHG 1  13   1
M  CHG 1  14  -1
M  END
> <minimizedAffinity>
-8.67626

> <minimizedRMSD>
0.76024

$$$$
P28444


 39 43  0  0  0  0  0  0  0  0999 V2000
   -5.4755    6.4771  -14.6300 C   0  0  0  0  0  0  0  0  0  0  0  0
   -5.6790    5.1868  -15.4195 C   0  0  0  0  0  0  0  0  0  0  0  0
   -4.7027    5.1557  -16.6447 C   0  0  0  0  0  0  0  0  0  0  0  0
   -3.4821    5.1989  -16.5678 O   0  0  0  0  0  0  0  0  0  0  0  0
   -5.4788    5.0491  -17.8103 N   0  0  0  0  0  0  0  0  0  0  0  0
   -6.8384    4.9284  -17.4801 C   0  0  0  0  0  0  0  0  0  0  0  0
   -7.9072    4.6728  -18.3230 C   0  0  0  0  0  0  0  0  0  0  0  0
   -9.1728    4.5497  -17.7500 C   0  0  0  0  0  0  0  0  0  0  0  0
  -10.5416    4.2495  -18.7315 Cl  0  0  0  0  0  0  0  0  0  0  0  0
   -9.3711    4.7444  -16.3833 C   0  0  0  0  0  0  0  0  0  0  0  0
   -8.2895    5.0590  -15.5677 C   0  0  0  0  0  0  0  0  0  0  0  0
   -7.0145    5.0931  -16.1070 C   0  0  0  0  0  0  0  0  0  0  0  0
   -4.9997    5.0549  -19.2019 C   0  0  0  0  0  0  0  0  0  0  0  0
   -3.4881    4.8749  -19.4941 C   0  0  0  0  0  0  0  0  0  0  0  0
   -3.6275    5.8851  -20.5810 N   0  0  0  0  0  0  0  0  0  0  0  0
   -4.7587    6.4603  -19.8055 C   0  0  0  0  0  0  0  0  0  0  0  0
   -3.8858    5.5004  -21.4896 H   0  0  0  0  0  0  0  0  0  0  0  0
   -8.5686    5.5162  -14.1994 C   0  0  0  0  0  0  0  0  0  0  0  0
   -9.0756    6.5554  -14.0591 O   0  0  0  0  0  0  0  0  0  0  0  0
   -8.1959    4.4442  -13.1685 N   0  0  0  0  0  0  0  0  0  0  0  0
   -7.8411    3.6097  -13.5520 H   0  0  0  0  0  0  0  0  0  0  0  0
   -8.2773    4.4581  -11.7815 C   0  0  0  0  0  0  0  0  0  0  0  0
   -8.1600    5.6261  -11.0354 C   0  0  0  0  0  0  0  0  0  0  0  0
   -8.2477    5.5767   -9.6365 C   0  0  0  0  0  0  0  0  0  0  0  0
   -8.4734    4.3636   -8.9640 C   0  0  0  0  0  0  0  0  0  0  0  0
   -8.5689    3.1947   -9.7372 C   0  0  0  0  0  0  0  0  0  0  0  0
   -8.4709    3.2502  -11.1242 C   0  0  0  0  0  0  0  0  0  0  0  0
   -8.4918    2.1171  -11.8428 F   0  0  0  0  0  0  0  0  0  0  0  0
   -8.5153    4.2559   -7.4533 C   0  0  0  0  0  0  0  0  0  0  0  0
   -9.4499    3.1860   -6.9062 C   0  0  0  0  0  0  0  0  0  0  0  0
   -9.6106    3.6144   -5.4659 C   0  0  0  0  0  0  0  0  0  0  0  0
   -9.6332    5.0488   -5.4730 O   0  0  0  0  0  0  0  0  0  0  0  0
   -8.9562    5.4894   -6.6613 C   0  0  0  0  0  0  0  0  0  0  0  0
   -5.6249    3.9970  -14.6374 O   0  0  0  0  0  0  0  0  0  0  0  0
   -4.6622    3.9444  -13.5919 C   0  0  0  0  0  0  0  0  0  0  0  0
   -4.0926    2.5304  -13.5883 C   0  0  0  0  0  0  0  0  0  0  0  0
   -3.4307    2.1683  -12.2721 C   0  0  0  0  0  0  0  0  0  0  0  0
   -2.7322    0.9359  -12.4055 O   0  0  0  0  0  0  0  0  0  0  0  0
   -3.3566    0.2353  -12.6509 H   0  0  0  0  0  0  0  0  0  0  0  0
  2  1  1  0  0  0
  2 34  1  0  0  0
 34 35  1  0  0  0
 35 36  1  0  0  0
 36 37  1  0  0  0
 37 38  1  0  0  0
  2  3  1  0  0  0
  3  4  2  0  0  0
  3  5  1  0  0  0
  5 13  1  0  0  0
 13 14  1  0  0  0
 14 15  1  0  0  0
 15 16  1  0  0  0
  5  6  1  0  0  0
  6  7  2  0  0  0
  7  8  1  0  0  0
  8  9  1  0  0  0
  8 10  2  0  0  0
 10 11  1  0  0  0
 11 18  1  0  0  0
 18 19  2  0  0  0
 18 20  1  0  0  0
 20 22  1  0  0  0
 22 23  2  0  0  0
 23 24  1  0  0  0
 24 25  2  0  0  0
 29 25  1  0  0  0
 29 30  1  0  0  0
 30 31  1  0  0  0
 31 32  1  0  0  0
 32 33  1  0  0  0
 25 26  1  0  0  0
 26 27  2  0  0  0
 27 28  1  0  0  0
 11 12  2  0  0  0
 12  2  1  0  0  0
 16 13  1  0  0  0
 12  6  1  0  0  0
 27 22  1  0  0  0
 33 29  1  0  0  0
 38 39  1  0  0  0
 15 17  1  0  0  0
 20 21  1  0  0  0
M  END
> <minimizedAffinity>
-8.37618

> <minimizedRMSD>
0.62904

$$$$
P28446


 37 41  0  0  0  0  0  0  0  0999 V2000
   -8.2226    4.6373  -13.0778 N   0  0  0  0  0  0  0  0  0  0  0  0
   -7.3434    5.4318  -14.0831 C   0  0  0  0  0  0  0  0  0  0  0  0
   -6.6597    6.3674  -13.9182 O   0  0  0  0  0  0  0  0  0  0  0  0
   -8.7707    3.9261  -13.4817 H   0  0  0  0  0  0  0  0  0  0  0  0
   -7.4149    4.9426  -15.4846 C   0  0  0  0  0  0  0  0  0  0  0  0
   -8.6575    4.7225  -16.0831 C   0  0  0  0  0  0  0  0  0  0  0  0
   -8.7529    4.6083  -17.4673 C   0  0  0  0  0  0  0  0  0  0  0  0
  -10.3056    4.5485  -18.1951 Cl  0  0  0  0  0  0  0  0  0  0  0  0
   -7.6312    4.6540  -18.2992 C   0  0  0  0  0  0  0  0  0  0  0  0
   -6.3855    4.8421  -17.6939 C   0  0  0  0  0  0  0  0  0  0  0  0
   -6.2407    4.9923  -16.2867 C   0  0  0  0  0  0  0  0  0  0  0  0
   -4.8456    5.2527  -15.9623 C   0  0  0  0  0  0  0  0  0  0  0  0
   -4.1672    5.2835  -17.1182 N   0  0  0  0  0  0  0  0  0  0  0  0
   -2.9629    5.5614  -17.3244 O   0  0  0  0  0  0  0  0  0  0  0  0
   -5.1077    5.0083  -18.2080 N   0  0  0  0  0  0  0  0  0  0  0  0
   -4.8196    5.0981  -19.6573 C   0  0  0  0  0  0  0  0  0  0  0  0
   -3.3413    5.0583  -20.0820 C   0  0  0  0  0  0  0  0  0  0  0  0
   -3.5715    6.2585  -20.9075 N   0  0  0  0  0  0  0  0  0  0  0  0
   -4.8044    6.5519  -20.1584 C   0  0  0  0  0  0  0  0  0  0  0  0
   -3.7244    6.0589  -21.8960 H   0  0  0  0  0  0  0  0  0  0  0  0
   -8.6816    7.6123   -9.2195 C   0  0  0  0  0  0  0  0  0  0  0  0
   -8.5299    6.1900   -9.7018 C   0  0  0  0  0  0  0  0  0  0  0  0
   -8.5131    6.0162  -11.0960 C   0  0  0  0  0  0  0  0  0  0  0  0
   -8.7094    7.0995  -11.8627 F   0  0  0  0  0  0  0  0  0  0  0  0
   -8.3624    4.7692  -11.6850 C   0  0  0  0  0  0  0  0  0  0  0  0
   -8.3456    3.6617  -10.8395 C   0  0  0  0  0  0  0  0  0  0  0  0
   -8.3591    3.7841   -9.4066 C   0  0  0  0  0  0  0  0  0  0  0  0
   -8.3501    5.0792   -8.8215 C   0  0  0  0  0  0  0  0  0  0  0  0
   -8.1095    5.4041   -7.3516 C   0  0  0  0  0  0  0  0  0  0  0  0
   -9.1097    4.9112   -6.3259 C   0  0  0  0  0  0  0  0  0  0  0  0
   -8.4130    5.1944   -5.0046 C   0  0  0  0  0  0  0  0  0  0  0  0
   -7.0134    5.3667   -5.2691 O   0  0  0  0  0  0  0  0  0  0  0  0
   -6.7974    5.0842   -6.6673 C   0  0  0  0  0  0  0  0  0  0  0  0
   -8.3066    2.4607   -8.6562 C   0  0  0  0  0  0  0  0  0  0  0  0
   -9.5774    1.8329   -8.3455 N   0  0  0  0  0  0  0  0  0  0  0  0
  -10.1055    2.4306   -7.7096 H   0  0  0  0  0  0  0  0  0  0  0  0
   -9.4110    0.9291   -7.9031 H   0  0  0  0  0  0  0  0  0  0  0  0
 21 22  1  0  0  0
 22 23  2  0  0  0
 23 24  1  0  0  0
 23 25  1  0  0  0
 25  1  1  0  0  0
  1  2  1  0  0  0
  2  3  2  0  0  0
  2  5  1  0  0  0
  5  6  2  0  0  0
  6  7  1  0  0  0
  7  8  1  0  0  0
  7  9  2  0  0  0
  9 10  1  0  0  0
 10 11  2  0  0  0
 11 12  1  0  0  0
 12 13  2  0  0  0
 13 14  1  0  0  0
 13 15  1  0  0  0
 15 16  1  0  0  0
 16 17  1  0  0  0
 17 18  1  0  0  0
 18 19  1  0  0  0
 25 26  2  0  0  0
 26 27  1  0  0  0
 27 34  1  0  0  0
 34 35  1  0  0  0
 27 28  2  0  0  0
 29 28  1  0  0  0
 29 30  1  0  0  0
 30 31  1  0  0  0
 31 32  1  0  0  0
 32 33  1  0  0  0
 28 22  1  0  0  0
 33 29  1  0  0  0
 11  5  1  0  0  0
 19 16  1  0  0  0
 15 10  1  0  0  0
  1  4  1  0  0  0
 18 20  1  0  0  0
 35 36  1  0  0  0
 35 37  1  0  0  0
M  CHG 1  13   1
M  CHG 1  14  -1
M  END
> <minimizedAffinity>
-8.55295

> <minimizedRMSD>
0.47075

$$$$
P28448


 36 40  0  0  0  0  0  0  0  0999 V2000
   -7.2551    5.3682  -13.4955 N   0  0  0  0  0  0  0  0  0  0  0  0
   -6.6591    4.2484  -14.3562 C   0  0  0  0  0  0  0  0  0  0  0  0
   -6.0791    3.2873  -14.0486 O   0  0  0  0  0  0  0  0  0  0  0  0
   -7.7706    6.0418  -13.9952 H   0  0  0  0  0  0  0  0  0  0  0  0
   -6.9725    4.4547  -15.7757 C   0  0  0  0  0  0  0  0  0  0  0  0
   -8.2745    4.3392  -16.2581 C   0  0  0  0  0  0  0  0  0  0  0  0
   -8.5509    4.7549  -17.5523 C   0  0  0  0  0  0  0  0  0  0  0  0
  -10.1755    4.6652  -18.0940 Cl  0  0  0  0  0  0  0  0  0  0  0  0
   -7.5656    5.3209  -18.3764 C   0  0  0  0  0  0  0  0  0  0  0  0
   -6.2516    5.3860  -17.8810 C   0  0  0  0  0  0  0  0  0  0  0  0
   -5.9398    4.8933  -16.6147 C   0  0  0  0  0  0  0  0  0  0  0  0
   -4.5398    4.9921  -16.5080 C   0  0  0  0  0  0  0  0  0  0  0  0
   -3.9903    5.5003  -17.6067 N   0  0  0  0  0  0  0  0  0  0  0  0
   -5.0568    5.9247  -18.3255 N   0  0  0  0  0  0  0  0  0  0  0  0
   -4.8695    7.1779  -19.0678 C   0  0  0  0  0  0  0  0  0  0  0  0
   -3.3808    7.5135  -19.2752 C   0  0  0  0  0  0  0  0  0  0  0  0
   -3.7784    8.1129  -20.5737 N   0  0  0  0  0  0  0  0  0  0  0  0
   -4.9321    7.1737  -20.5850 C   0  0  0  0  0  0  0  0  0  0  0  0
   -3.1083    7.9717  -21.3296 H   0  0  0  0  0  0  0  0  0  0  0  0
   -7.2717    5.8069   -9.3354 C   0  0  0  0  0  0  0  0  0  0  0  0
   -8.4069    6.0290  -10.1233 C   0  0  0  0  0  0  0  0  0  0  0  0
   -8.3870    5.8374  -11.4934 C   0  0  0  0  0  0  0  0  0  0  0  0
   -7.1867    5.5867  -12.1308 C   0  0  0  0  0  0  0  0  0  0  0  0
   -6.0122    5.5611  -11.3801 C   0  0  0  0  0  0  0  0  0  0  0  0
   -4.8098    5.5034  -11.9628 F   0  0  0  0  0  0  0  0  0  0  0  0
   -6.0515    5.6363   -9.9909 C   0  0  0  0  0  0  0  0  0  0  0  0
   -8.5558    4.9791   -7.2191 C   0  0  0  0  0  0  0  0  0  0  0  0
   -8.1340    4.6138   -5.8850 O   0  0  0  0  0  0  0  0  0  0  0  0
   -6.7625    4.9557   -5.7064 C   0  0  0  0  0  0  0  0  0  0  0  0
   -6.1836    5.2004   -7.0776 C   0  0  0  0  0  0  0  0  0  0  0  0
   -7.3806    5.7555   -7.8361 C   0  0  0  0  0  0  0  0  0  0  0  0
   -9.1827    3.7692   -7.9379 C   0  0  0  0  0  0  0  0  0  0  0  0
   -7.4292    2.6436   -9.3029 O   0  0  0  0  0  0  0  0  0  0  0  0
   -8.2762    2.6407   -8.4241 C   0  0  0  0  0  0  0  0  0  0  0  0
   -8.4697    1.4809   -7.7525 O   0  0  0  0  0  0  0  0  0  0  0  0
   -9.1104    1.4358   -7.0702 H   0  0  0  0  0  0  0  0  0  0  0  0
 33 34  2  0  0  0
 34 35  1  0  0  0
 34 32  1  0  0  0
 27 32  1  0  0  0
 27 28  1  0  0  0
 28 29  1  0  0  0
 29 30  1  0  0  0
 30 31  1  0  0  0
 31 20  1  0  0  0
 20 21  2  0  0  0
 21 22  1  0  0  0
 22 23  2  0  0  0
 23  1  1  0  0  0
  1  2  1  0  0  0
  2  3  2  0  0  0
  2  5  1  0  0  0
  5  6  2  0  0  0
  6  7  1  0  0  0
  7  8  1  0  0  0
  7  9  2  0  0  0
  9 10  1  0  0  0
 10 11  2  0  0  0
 11 12  1  0  0  0
 12 13  2  0  0  0
 13 14  1  0  0  0
 14 15  1  0  0  0
 15 16  1  0  0  0
 16 17  1  0  0  0
 17 18  1  0  0  0
 23 24  1  0  0  0
 24 25  1  0  0  0
 24 26  2  0  0  0
 31 27  1  0  0  0
 26 20  1  0  0  0
 11  5  1  0  0  0
 18 15  1  0  0  0
 14 10  1  0  0  0
 35 36  1  0  0  0
  1  4  1  0  0  0
 17 19  1  0  0  0
M  END
> <minimizedAffinity>
-6.64546

> <minimizedRMSD>
1.74639

$$$$
P28451


 33 37  0  0  0  0  0  0  0  0999 V2000
   -6.0763    6.3262  -13.7643 O   0  0  0  0  0  0  0  0  0  0  0  0
   -6.8824    5.6034  -14.1916 C   0  0  0  0  0  0  0  0  0  0  0  0
   -8.0114    4.8389  -13.4832 N   0  0  0  0  0  0  0  0  0  0  0  0
   -8.6150    4.3453  -14.0842 H   0  0  0  0  0  0  0  0  0  0  0  0
   -6.8820    5.2443  -15.6284 C   0  0  0  0  0  0  0  0  0  0  0  0
   -8.0933    4.9520  -16.2635 C   0  0  0  0  0  0  0  0  0  0  0  0
   -8.1250    4.7164  -17.6260 C   0  0  0  0  0  0  0  0  0  0  0  0
   -9.6526    4.5338  -18.3672 Cl  0  0  0  0  0  0  0  0  0  0  0  0
   -6.9657    4.7180  -18.3987 C   0  0  0  0  0  0  0  0  0  0  0  0
   -5.7544    4.9886  -17.7500 C   0  0  0  0  0  0  0  0  0  0  0  0
   -5.6745    5.2588  -16.3584 C   0  0  0  0  0  0  0  0  0  0  0  0
   -4.2990    5.5339  -15.9780 C   0  0  0  0  0  0  0  0  0  0  0  0
   -3.5636    5.4769  -17.0972 N   0  0  0  0  0  0  0  0  0  0  0  0
   -2.3508    5.7481  -17.2670 O   0  0  0  0  0  0  0  0  0  0  0  0
   -4.4537    5.1155  -18.2054 N   0  0  0  0  0  0  0  0  0  0  0  0
   -4.0891    5.0164  -19.6380 C   0  0  0  0  0  0  0  0  0  0  0  0
   -2.6164    4.7050  -19.9383 C   0  0  0  0  0  0  0  0  0  0  0  0
   -2.3551    6.1492  -20.0958 N   0  0  0  0  0  0  0  0  0  0  0  0
   -3.8041    6.3901  -20.2622 C   0  0  0  0  0  0  0  0  0  0  0  0
   -1.7965    6.3847  -20.9161 H   0  0  0  0  0  0  0  0  0  0  0  0
   -8.3180    4.7311  -12.1386 C   0  0  0  0  0  0  0  0  0  0  0  0
   -8.5171    3.4290  -11.7132 C   0  0  0  0  0  0  0  0  0  0  0  0
   -8.6664    3.1389  -10.3812 C   0  0  0  0  0  0  0  0  0  0  0  0
   -8.4523    4.1362   -9.4282 C   0  0  0  0  0  0  0  0  0  0  0  0
   -8.3935    5.4712   -9.8419 C   0  0  0  0  0  0  0  0  0  0  0  0
   -8.3571    5.7628  -11.2071 C   0  0  0  0  0  0  0  0  0  0  0  0
   -8.3165    7.0450  -11.5860 F   0  0  0  0  0  0  0  0  0  0  0  0
   -7.9961    3.6939   -8.0603 C   0  0  0  0  0  0  0  0  0  0  0  0
   -7.8312    4.7694   -7.0118 C   0  0  0  0  0  0  0  0  0  0  0  0
   -9.1680    4.8140   -6.3226 C   0  0  0  0  0  0  0  0  0  0  0  0
   -9.7317    3.5153   -6.4729 O   0  0  0  0  0  0  0  0  0  0  0  0
   -9.1087    2.8321   -7.4767 C   0  0  0  0  0  0  0  0  0  0  0  0
   -9.4678    1.7374   -7.8971 O   0  0  0  0  0  0  0  0  0  0  0  0
  1  2  2  0  0  0
  2  3  1  0  0  0
  3 21  1  0  0  0
 21 22  2  0  0  0
 22 23  1  0  0  0
 23 24  2  0  0  0
 28 24  1  0  0  0
 28 29  1  0  0  0
 29 30  1  0  0  0
 30 31  1  0  0  0
 31 32  1  0  0  0
 32 33  2  0  0  0
 24 25  1  0  0  0
 25 26  2  0  0  0
 26 27  1  0  0  0
  2  5  1  0  0  0
  5  6  2  0  0  0
  6  7  1  0  0  0
  7  8  1  0  0  0
  7  9  2  0  0  0
  9 10  1  0  0  0
 10 11  2  0  0  0
 11 12  1  0  0  0
 12 13  2  0  0  0
 13 14  1  0  0  0
 13 15  1  0  0  0
 15 16  1  0  0  0
 16 17  1  0  0  0
 17 18  1  0  0  0
 18 19  1  0  0  0
 26 21  1  0  0  0
 11  5  1  0  0  0
 19 16  1  0  0  0
 32 28  1  0  0  0
 15 10  1  0  0  0
  3  4  1  0  0  0
 18 20  1  0  0  0
M  CHG 1  13   1
M  CHG 1  14  -1
M  END
> <minimizedAffinity>
-8.25653

> <minimizedRMSD>
1.35266

$$$$
P28454


 39 44  0  0  0  0  0  0  0  0999 V2000
   -6.1989    5.8103  -13.7537 O   0  0  0  0  0  0  0  0  0  0  0  0
   -7.0749    5.1003  -14.0580 C   0  0  0  0  0  0  0  0  0  0  0  0
   -8.1217    4.3695  -13.1859 N   0  0  0  0  0  0  0  0  0  0  0  0
   -8.7169    3.7605  -13.6799 H   0  0  0  0  0  0  0  0  0  0  0  0
   -7.2150    4.8118  -15.4943 C   0  0  0  0  0  0  0  0  0  0  0  0
   -8.4823    4.6313  -16.0469 C   0  0  0  0  0  0  0  0  0  0  0  0
   -8.6313    4.6161  -17.4274 C   0  0  0  0  0  0  0  0  0  0  0  0
  -10.2136    4.5076  -18.0780 Cl  0  0  0  0  0  0  0  0  0  0  0  0
   -7.5431    4.7645  -18.2941 C   0  0  0  0  0  0  0  0  0  0  0  0
   -6.2724    4.9041  -17.7228 C   0  0  0  0  0  0  0  0  0  0  0  0
   -6.0704    4.9171  -16.3191 C   0  0  0  0  0  0  0  0  0  0  0  0
   -4.6523    5.0342  -16.0187 C   0  0  0  0  0  0  0  0  0  0  0  0
   -4.0059    5.0646  -17.1926 N   0  0  0  0  0  0  0  0  0  0  0  0
   -2.7794    4.9633  -17.4239 O   0  0  0  0  0  0  0  0  0  0  0  0
   -5.0044    5.0663  -18.2586 N   0  0  0  0  0  0  0  0  0  0  0  0
   -4.7659    5.2576  -19.6980 C   0  0  0  0  0  0  0  0  0  0  0  0
   -3.3244    5.5402  -20.1787 C   0  0  0  0  0  0  0  0  0  0  0  0
   -3.9061    6.5238  -21.1368 N   0  0  0  0  0  0  0  0  0  0  0  0
   -5.0096    6.7119  -20.1549 C   0  0  0  0  0  0  0  0  0  0  0  0
   -4.1940    6.1288  -22.0320 H   0  0  0  0  0  0  0  0  0  0  0  0
   -8.3596    4.4327  -11.8147 C   0  0  0  0  0  0  0  0  0  0  0  0
   -8.4398    3.2761  -11.0601 C   0  0  0  0  0  0  0  0  0  0  0  0
   -8.5095    3.3634   -9.6638 C   0  0  0  0  0  0  0  0  0  0  0  0
   -8.5068    4.6057   -8.9933 C   0  0  0  0  0  0  0  0  0  0  0  0
   -8.4771    5.7961   -9.7747 C   0  0  0  0  0  0  0  0  0  0  0  0
   -8.4531    5.6683  -11.1736 C   0  0  0  0  0  0  0  0  0  0  0  0
   -8.6234    6.7562  -11.9384 F   0  0  0  0  0  0  0  0  0  0  0  0
   -8.5209    4.6680   -7.4748 C   0  0  0  0  0  0  0  0  0  0  0  0
   -9.0603    3.4959   -6.6699 C   0  0  0  0  0  0  0  0  0  0  0  0
   -8.5100    3.7893   -5.2859 C   0  0  0  0  0  0  0  0  0  0  0  0
   -7.2803    4.5167   -5.4519 O   0  0  0  0  0  0  0  0  0  0  0  0
   -7.1331    4.8079   -6.8525 C   0  0  0  0  0  0  0  0  0  0  0  0
   -8.5304    7.1737   -9.1292 C   0  0  0  0  0  0  0  0  0  0  0  0
   -7.2973    8.0495   -9.1650 C   0  0  0  0  0  0  0  0  0  0  0  0
   -7.4203    9.4413   -9.2261 C   0  0  0  0  0  0  0  0  0  0  0  0
   -6.2679   10.2120   -9.2446 C   0  0  0  0  0  0  0  0  0  0  0  0
   -5.0170    9.7039   -9.2125 N   0  0  0  0  0  0  0  0  0  0  0  0
   -4.9215    8.3562   -9.1667 C   0  0  0  0  0  0  0  0  0  0  0  0
   -6.0117    7.4993   -9.1279 C   0  0  0  0  0  0  0  0  0  0  0  0
  1  2  2  0  0  0
  2  3  1  0  0  0
  3 21  1  0  0  0
 21 22  2  0  0  0
 22 23  1  0  0  0
 23 24  2  0  0  0
 28 24  1  0  0  0
 28 29  1  0  0  0
 29 30  1  0  0  0
 30 31  1  0  0  0
 31 32  1  0  0  0
 24 25  1  0  0  0
 25 33  1  0  0  0
 33 34  1  0  0  0
 34 35  2  0  0  0
 35 36  1  0  0  0
 36 37  2  0  0  0
 37 38  1  0  0  0
 38 39  2  0  0  0
 25 26  2  0  0  0
 26 27  1  0  0  0
  2  5  1  0  0  0
  5  6  2  0  0  0
  6  7  1  0  0  0
  7  8  1  0  0  0
  7  9  2  0  0  0
  9 10  1  0  0  0
 10 11  2  0  0  0
 11 12  1  0  0  0
 12 13  2  0  0  0
 13 14  1  0  0  0
 13 15  1  0  0  0
 15 16  1  0  0  0
 16 17  1  0  0  0
 17 18  1  0  0  0
 18 19  1  0  0  0
 26 21  1  0  0  0
 11  5  1  0  0  0
 19 16  1  0  0  0
 32 28  1  0  0  0
 39 34  1  0  0  0
 15 10  1  0  0  0
  3  4  1  0  0  0
 18 20  1  0  0  0
M  CHG 1  13   1
M  CHG 1  14  -1
M  END
> <minimizedAffinity>
-8.05435

> <minimizedRMSD>
1.11549

$$$$
P28457


 33 38  0  0  0  0  0  0  0  0999 V2000
   -8.0853    4.9264  -15.1456 C   0  0  0  0  0  0  0  0  0  0  0  0
   -9.0858    4.5888  -16.0892 C   0  0  0  0  0  0  0  0  0  0  0  0
   -8.8494    4.5320  -17.5057 C   0  0  0  0  0  0  0  0  0  0  0  0
  -10.2135    4.3476  -18.5421 Cl  0  0  0  0  0  0  0  0  0  0  0  0
   -7.6020    4.7393  -18.1266 C   0  0  0  0  0  0  0  0  0  0  0  0
   -6.6510    5.0661  -17.1779 C   0  0  0  0  0  0  0  0  0  0  0  0
   -5.3874    5.5014  -17.4199 C   0  0  0  0  0  0  0  0  0  0  0  0
   -4.8263    5.8182  -16.2120 N   0  0  0  0  0  0  0  0  0  0  0  0
   -5.6876    5.6200  -15.1835 C   0  0  0  0  0  0  0  0  0  0  0  0
   -6.8590    5.1687  -15.7624 C   0  0  0  0  0  0  0  0  0  0  0  0
   -3.5154    6.4382  -16.3382 C   0  0  0  0  0  0  0  0  0  0  0  0
   -3.4513    6.7768  -17.8581 C   0  0  0  0  0  0  0  0  0  0  0  0
   -2.1414    6.4716  -18.4597 N   0  0  0  0  0  0  0  0  0  0  0  0
   -2.3757    5.4300  -19.4683 C   0  0  0  0  0  0  0  0  0  0  0  0
   -3.6167    4.7028  -18.9906 C   0  0  0  0  0  0  0  0  0  0  0  0
   -4.4868    5.8396  -18.5248 C   0  0  0  0  0  0  0  0  0  0  0  0
   -1.4968    6.1318  -17.7459 H   0  0  0  0  0  0  0  0  0  0  0  0
   -9.1429    6.0193  -13.4465 O   0  0  0  0  0  0  0  0  0  0  0  0
   -8.3804    5.1833  -13.7286 C   0  0  0  0  0  0  0  0  0  0  0  0
   -7.5871    4.2088  -12.8329 N   0  0  0  0  0  0  0  0  0  0  0  0
   -6.9420    3.6405  -13.3125 H   0  0  0  0  0  0  0  0  0  0  0  0
   -7.6352    4.0018  -11.4524 C   0  0  0  0  0  0  0  0  0  0  0  0
   -8.6751    3.2005  -10.9917 C   0  0  0  0  0  0  0  0  0  0  0  0
   -8.8452    2.9542   -9.6295 C   0  0  0  0  0  0  0  0  0  0  0  0
   -7.9712    3.4847   -8.6774 C   0  0  0  0  0  0  0  0  0  0  0  0
   -6.8995    4.2626   -9.1474 C   0  0  0  0  0  0  0  0  0  0  0  0
   -6.7501    4.5344  -10.5166 C   0  0  0  0  0  0  0  0  0  0  0  0
   -5.7724    5.3753  -10.8786 F   0  0  0  0  0  0  0  0  0  0  0  0
   -8.1950    3.2701   -7.1826 C   0  0  0  0  0  0  0  0  0  0  0  0
   -9.3484    2.3570   -6.8939 C   0  0  0  0  0  0  0  0  0  0  0  0
  -10.5132    3.3212   -6.7757 C   0  0  0  0  0  0  0  0  0  0  0  0
  -10.0214    4.4933   -6.1491 O   0  0  0  0  0  0  0  0  0  0  0  0
   -8.6239    4.5180   -6.3923 C   0  0  0  0  0  0  0  0  0  0  0  0
 18 19  2  0  0  0
 19 20  1  0  0  0
 20 22  1  0  0  0
 22 23  2  0  0  0
 23 24  1  0  0  0
 24 25  2  0  0  0
 29 25  1  0  0  0
 29 30  1  0  0  0
 30 31  1  0  0  0
 31 32  1  0  0  0
 32 33  1  0  0  0
 25 26  1  0  0  0
 26 27  2  0  0  0
 27 28  1  0  0  0
 19  1  1  0  0  0
  1  2  2  0  0  0
  2  3  1  0  0  0
  3  4  1  0  0  0
  3  5  2  0  0  0
  5  6  1  0  0  0
  6  7  2  0  0  0
  7  8  1  0  0  0
  8  9  1  0  0  0
  9 10  2  0  0  0
  8 11  1  0  0  0
 12 11  1  0  0  0
 12 13  1  0  0  0
 13 14  1  0  0  0
 14 15  1  0  0  0
 16 15  1  0  0  0
 27 22  1  0  0  0
 10  1  1  0  0  0
 16 12  1  0  0  0
 33 29  1  0  0  0
 10  6  1  0  0  0
 16  7  1  0  0  0
 20 21  1  0  0  0
 13 17  1  0  0  0
M  END
> <minimizedAffinity>
-8.16451

> <minimizedRMSD>
1.47134

$$$$
P28458


 40 44  0  0  0  0  0  0  0  0999 V2000
   -7.3055    5.1794  -14.0782 C   0  0  0  0  0  0  0  0  0  0  0  0
   -7.3016    6.6092  -14.0448 O   0  0  0  0  0  0  0  0  0  0  0  0
   -7.2664    6.9110  -13.1236 H   0  0  0  0  0  0  0  0  0  0  0  0
   -7.3627    4.8895  -15.5792 C   0  0  0  0  0  0  0  0  0  0  0  0
   -8.5857    4.6709  -16.2658 C   0  0  0  0  0  0  0  0  0  0  0  0
   -8.6551    4.5536  -17.6565 C   0  0  0  0  0  0  0  0  0  0  0  0
  -10.1770    4.4025  -18.4420 Cl  0  0  0  0  0  0  0  0  0  0  0  0
   -7.5186    4.6506  -18.4491 C   0  0  0  0  0  0  0  0  0  0  0  0
   -6.3142    4.9170  -17.7932 C   0  0  0  0  0  0  0  0  0  0  0  0
   -6.2130    5.0254  -16.4073 C   0  0  0  0  0  0  0  0  0  0  0  0
   -4.8480    5.3451  -16.1939 C   0  0  0  0  0  0  0  0  0  0  0  0
   -4.1469    5.4414  -17.3213 N   0  0  0  0  0  0  0  0  0  0  0  0
   -5.0505    5.1737  -18.2764 N   0  0  0  0  0  0  0  0  0  0  0  0
   -4.7332    5.2438  -19.7086 C   0  0  0  0  0  0  0  0  0  0  0  0
   -4.4509    6.6534  -20.2592 C   0  0  0  0  0  0  0  0  0  0  0  0
   -3.2413    6.1180  -20.9216 N   0  0  0  0  0  0  0  0  0  0  0  0
   -3.2459    5.0121  -19.9384 C   0  0  0  0  0  0  0  0  0  0  0  0
   -2.4253    6.7277  -20.8679 H   0  0  0  0  0  0  0  0  0  0  0  0
   -5.2877    5.3381  -12.7444 O   0  0  0  0  0  0  0  0  0  0  0  0
   -5.9475    4.6247  -13.4008 C   0  0  0  0  0  0  0  0  0  0  0  0
   -5.8053    3.1018  -13.6904 N   0  0  0  0  0  0  0  0  0  0  0  0
   -6.4500    2.7441  -14.3428 H   0  0  0  0  0  0  0  0  0  0  0  0
   -4.8821    2.1295  -13.1578 C   0  0  0  0  0  0  0  0  0  0  0  0
   -3.5868    2.0592  -13.9524 C   0  0  0  0  0  0  0  0  0  0  0  0
   -2.4384    1.6122  -13.0637 C   0  0  0  0  0  0  0  0  0  0  0  0
   -2.9184    1.3753  -11.8118 F   0  0  0  0  0  0  0  0  0  0  0  0
   -8.4926    4.7108  -13.3419 N   0  0  0  0  0  0  0  0  0  0  0  0
   -9.2912    4.3698  -13.8058 H   0  0  0  0  0  0  0  0  0  0  0  0
   -8.4201    4.7786  -11.9272 C   0  0  0  0  0  0  0  0  0  0  0  0
   -8.3885    5.9858  -11.2320 C   0  0  0  0  0  0  0  0  0  0  0  0
   -8.3098    6.0044   -9.8357 C   0  0  0  0  0  0  0  0  0  0  0  0
   -8.2766    4.8163   -9.0834 C   0  0  0  0  0  0  0  0  0  0  0  0
   -8.3117    3.6014   -9.7731 C   0  0  0  0  0  0  0  0  0  0  0  0
   -8.3900    3.5993  -11.1675 C   0  0  0  0  0  0  0  0  0  0  0  0
   -8.4249    2.4298  -11.8195 F   0  0  0  0  0  0  0  0  0  0  0  0
   -8.2674    4.9337   -7.5818 C   0  0  0  0  0  0  0  0  0  0  0  0
   -6.8819    5.1211   -6.9897 C   0  0  0  0  0  0  0  0  0  0  0  0
   -7.1225    4.8746   -5.5137 C   0  0  0  0  0  0  0  0  0  0  0  0
   -8.3197    4.0960   -5.3911 O   0  0  0  0  0  0  0  0  0  0  0  0
   -8.7861    3.7920   -6.7198 C   0  0  0  0  0  0  0  0  0  0  0  0
 19 20  2  0  0  0
 20 21  1  0  0  0
 21 23  1  0  0  0
 23 24  1  0  0  0
 24 25  1  0  0  0
 25 26  1  0  0  0
 20  1  1  0  0  0
  1  2  1  0  0  0
  1 27  1  0  0  0
 27 29  1  0  0  0
 29 30  2  0  0  0
 30 31  1  0  0  0
 31 32  2  0  0  0
 36 32  1  0  0  0
 36 37  1  0  0  0
 37 38  1  0  0  0
 38 39  1  0  0  0
 39 40  1  0  0  0
 32 33  1  0  0  0
 33 34  2  0  0  0
 34 35  1  0  0  0
  1  4  1  0  0  0
  4  5  2  0  0  0
  5  6  1  0  0  0
  6  7  1  0  0  0
  6  8  2  0  0  0
  8  9  1  0  0  0
  9 10  2  0  0  0
 10 11  1  0  0  0
 11 12  2  0  0  0
 12 13  1  0  0  0
 13 14  1  0  0  0
 14 15  1  0  0  0
 15 16  1  0  0  0
 16 17  1  0  0  0
 34 29  1  0  0  0
 10  4  1  0  0  0
 17 14  1  0  0  0
 40 36  1  0  0  0
 13  9  1  0  0  0
 21 22  1  0  0  0
  2  3  1  0  0  0
 27 28  1  0  0  0
 16 18  1  0  0  0
M  END
> <minimizedAffinity>
-8.01286

> <minimizedRMSD>
0.78385

$$$$
P28459


 40 44  0  0  0  0  0  0  0  0999 V2000
   -7.3287    4.8221  -13.8652 C   0  0  0  0  0  0  0  0  0  0  0  0
   -6.1131    4.1844  -13.5309 O   0  0  0  0  0  0  0  0  0  0  0  0
   -5.9328    4.3073  -12.5857 H   0  0  0  0  0  0  0  0  0  0  0  0
   -7.5164    4.5673  -15.3716 C   0  0  0  0  0  0  0  0  0  0  0  0
   -8.7863    4.3344  -15.9339 C   0  0  0  0  0  0  0  0  0  0  0  0
   -8.9720    4.2569  -17.3134 C   0  0  0  0  0  0  0  0  0  0  0  0
  -10.5675    4.1723  -17.9204 Cl  0  0  0  0  0  0  0  0  0  0  0  0
   -7.9210    4.3885  -18.2190 C   0  0  0  0  0  0  0  0  0  0  0  0
   -6.6538    4.6141  -17.6787 C   0  0  0  0  0  0  0  0  0  0  0  0
   -6.4385    4.6842  -16.2994 C   0  0  0  0  0  0  0  0  0  0  0  0
   -5.0486    4.9280  -16.1852 C   0  0  0  0  0  0  0  0  0  0  0  0
   -4.4377    5.0453  -17.3622 N   0  0  0  0  0  0  0  0  0  0  0  0
   -5.4268    4.8732  -18.2591 N   0  0  0  0  0  0  0  0  0  0  0  0
   -5.2194    5.2331  -19.6754 C   0  0  0  0  0  0  0  0  0  0  0  0
   -3.7932    4.9027  -20.1798 C   0  0  0  0  0  0  0  0  0  0  0  0
   -4.4108    4.4555  -21.4527 N   0  0  0  0  0  0  0  0  0  0  0  0
   -5.6459    4.1669  -20.6870 C   0  0  0  0  0  0  0  0  0  0  0  0
   -3.9711    3.6366  -21.8728 H   0  0  0  0  0  0  0  0  0  0  0  0
   -6.3076    7.0575  -13.6429 O   0  0  0  0  0  0  0  0  0  0  0  0
   -7.3102    6.4501  -13.6818 C   0  0  0  0  0  0  0  0  0  0  0  0
   -8.7892    6.9220  -13.4833 N   0  0  0  0  0  0  0  0  0  0  0  0
   -9.4687    6.2276  -13.6424 H   0  0  0  0  0  0  0  0  0  0  0  0
   -9.3201    8.2148  -13.1035 C   0  0  0  0  0  0  0  0  0  0  0  0
  -10.7957    8.4182  -13.4259 C   0  0  0  0  0  0  0  0  0  0  0  0
  -11.3326    9.6427  -12.7039 C   0  0  0  0  0  0  0  0  0  0  0  0
  -10.5802   10.7228  -13.0527 F   0  0  0  0  0  0  0  0  0  0  0  0
   -8.3922    4.1943  -13.0455 N   0  0  0  0  0  0  0  0  0  0  0  0
   -9.1326    3.7124  -13.4799 H   0  0  0  0  0  0  0  0  0  0  0  0
   -8.3365    4.2924  -11.6268 C   0  0  0  0  0  0  0  0  0  0  0  0
   -8.1240    5.4950  -10.9494 C   0  0  0  0  0  0  0  0  0  0  0  0
   -8.1930    5.5766   -9.5602 C   0  0  0  0  0  0  0  0  0  0  0  0
   -8.4546    4.4516   -8.7707 C   0  0  0  0  0  0  0  0  0  0  0  0
   -8.6702    3.2357   -9.4228 C   0  0  0  0  0  0  0  0  0  0  0  0
   -8.6292    3.1730  -10.8247 C   0  0  0  0  0  0  0  0  0  0  0  0
   -8.8575    1.9937  -11.4206 F   0  0  0  0  0  0  0  0  0  0  0  0
   -8.4811    4.6648   -7.2791 C   0  0  0  0  0  0  0  0  0  0  0  0
   -8.9140    3.5692   -6.3280 C   0  0  0  0  0  0  0  0  0  0  0  0
   -8.3613    4.1131   -5.0247 C   0  0  0  0  0  0  0  0  0  0  0  0
   -7.0608    4.6483   -5.3309 O   0  0  0  0  0  0  0  0  0  0  0  0
   -7.1097    5.0609   -6.7114 C   0  0  0  0  0  0  0  0  0  0  0  0
 19 20  2  0  0  0
 20 21  1  0  0  0
 21 23  1  0  0  0
 23 24  1  0  0  0
 24 25  1  0  0  0
 25 26  1  0  0  0
 20  1  1  0  0  0
  1  2  1  0  0  0
  1 27  1  0  0  0
 27 29  1  0  0  0
 29 30  2  0  0  0
 30 31  1  0  0  0
 31 32  2  0  0  0
 36 32  1  0  0  0
 36 37  1  0  0  0
 37 38  1  0  0  0
 38 39  1  0  0  0
 39 40  1  0  0  0
 32 33  1  0  0  0
 33 34  2  0  0  0
 34 35  1  0  0  0
  1  4  1  0  0  0
  4  5  2  0  0  0
  5  6  1  0  0  0
  6  7  1  0  0  0
  6  8  2  0  0  0
  8  9  1  0  0  0
  9 10  2  0  0  0
 10 11  1  0  0  0
 11 12  2  0  0  0
 12 13  1  0  0  0
 13 14  1  0  0  0
 14 15  1  0  0  0
 15 16  1  0  0  0
 16 17  1  0  0  0
 34 29  1  0  0  0
 10  4  1  0  0  0
 17 14  1  0  0  0
 40 36  1  0  0  0
 13  9  1  0  0  0
 21 22  1  0  0  0
  2  3  1  0  0  0
 27 28  1  0  0  0
 16 18  1  0  0  0
M  END
> <minimizedAffinity>
-7.69665

> <minimizedRMSD>
0.55212

$$$$
P28460


 37 42  0  0  0  0  0  0  0  0999 V2000
   -2.4741    5.8822  -12.2555 C   0  0  0  0  0  0  0  0  0  0  0  0
   -3.2777    5.6791  -13.4582 N   0  0  0  0  0  0  0  0  0  0  0  0
   -3.0917    4.3244  -13.9931 C   0  0  0  0  0  0  0  0  0  0  0  0
   -3.5492    4.1854  -15.4525 C   0  0  0  0  0  0  0  0  0  0  0  0
   -4.6288    5.2194  -15.8314 C   0  0  0  0  0  0  0  0  0  0  0  0
   -4.0585    6.6480  -15.5985 C   0  0  0  0  0  0  0  0  0  0  0  0
   -3.0220    6.7041  -14.4640 C   0  0  0  0  0  0  0  0  0  0  0  0
   -5.8687    5.0220  -14.9069 C   0  0  0  0  0  0  0  0  0  0  0  0
   -6.9849    4.9212  -15.8757 C   0  0  0  0  0  0  0  0  0  0  0  0
   -8.3410    4.8896  -15.5830 C   0  0  0  0  0  0  0  0  0  0  0  0
   -9.2540    4.6551  -16.5972 C   0  0  0  0  0  0  0  0  0  0  0  0
   -8.7849    4.5412  -17.9052 C   0  0  0  0  0  0  0  0  0  0  0  0
   -9.9413    4.3588  -19.1576 Cl  0  0  0  0  0  0  0  0  0  0  0  0
   -7.4198    4.6558  -18.2097 C   0  0  0  0  0  0  0  0  0  0  0  0
   -6.5094    4.8391  -17.1772 C   0  0  0  0  0  0  0  0  0  0  0  0
   -5.0939    4.9806  -17.2615 N   0  0  0  0  0  0  0  0  0  0  0  0
   -4.4257    5.6659  -18.3509 C   0  0  0  0  0  0  0  0  0  0  0  0
   -3.2692    4.8505  -18.9923 C   0  0  0  0  0  0  0  0  0  0  0  0
   -3.6456    5.4163  -20.2989 N   0  0  0  0  0  0  0  0  0  0  0  0
   -5.0311    5.5634  -19.7568 C   0  0  0  0  0  0  0  0  0  0  0  0
   -3.5615    4.7698  -21.0834 H   0  0  0  0  0  0  0  0  0  0  0  0
   -8.8020    5.3086  -14.2490 C   0  0  0  0  0  0  0  0  0  0  0  0
   -9.4801    6.2528  -14.1715 O   0  0  0  0  0  0  0  0  0  0  0  0
   -8.2288    4.4025  -13.1515 N   0  0  0  0  0  0  0  0  0  0  0  0
   -7.7407    3.6138  -13.4816 H   0  0  0  0  0  0  0  0  0  0  0  0
   -8.2862    4.5134  -11.7676 C   0  0  0  0  0  0  0  0  0  0  0  0
   -8.0548    5.7209  -11.1209 C   0  0  0  0  0  0  0  0  0  0  0  0
   -8.1179    5.7821   -9.7270 C   0  0  0  0  0  0  0  0  0  0  0  0
   -8.4157    4.6418   -8.9557 C   0  0  0  0  0  0  0  0  0  0  0  0
   -8.6378    3.4309   -9.6230 C   0  0  0  0  0  0  0  0  0  0  0  0
   -8.5621    3.3788  -11.0136 C   0  0  0  0  0  0  0  0  0  0  0  0
   -8.7056    2.2066  -11.6451 F   0  0  0  0  0  0  0  0  0  0  0  0
   -8.4634    4.7929   -7.4561 C   0  0  0  0  0  0  0  0  0  0  0  0
   -8.9450    3.6401   -6.5969 C   0  0  0  0  0  0  0  0  0  0  0  0
   -8.3516    3.9768   -5.2380 C   0  0  0  0  0  0  0  0  0  0  0  0
   -7.2541    4.8862   -5.4319 O   0  0  0  0  0  0  0  0  0  0  0  0
   -7.0964    5.0697   -6.8447 C   0  0  0  0  0  0  0  0  0  0  0  0
  1  2  1  0  0  0
  2  3  1  0  0  0
  3  4  1  0  0  0
  4  5  1  0  0  0
  5  6  1  0  0  0
  6  7  1  0  0  0
  5  8  1  0  0  0
  8  9  1  0  0  0
  9 10  2  0  0  0
 10 22  1  0  0  0
 22 23  2  0  0  0
 22 24  1  0  0  0
 24 26  1  0  0  0
 26 27  2  0  0  0
 27 28  1  0  0  0
 28 29  2  0  0  0
 33 29  1  0  0  0
 33 34  1  0  0  0
 34 35  1  0  0  0
 35 36  1  0  0  0
 36 37  1  0  0  0
 29 30  1  0  0  0
 30 31  2  0  0  0
 31 32  1  0  0  0
 10 11  1  0  0  0
 11 12  2  0  0  0
 12 13  1  0  0  0
 12 14  1  0  0  0
 14 15  2  0  0  0
 15 16  1  0  0  0
 16 17  1  0  0  0
 17 18  1  0  0  0
 18 19  1  0  0  0
 19 20  1  0  0  0
  7  2  1  0  0  0
 15  9  1  0  0  0
 20 17  1  0  0  0
 16  5  1  0  0  0
 31 26  1  0  0  0
 37 33  1  0  0  0
 24 25  1  0  0  0
 19 21  1  0  0  0
M  END
> <minimizedAffinity>
-9.32583

> <minimizedRMSD>
0.99150

$$$$
P28462


 35 39  0  0  0  0  0  0  0  0999 V2000
   -7.0229    4.9099  -14.9310 C   0  0  0  0  0  0  0  0  0  0  0  0
   -8.2323    4.4751  -15.4823 C   0  0  0  0  0  0  0  0  0  0  0  0
   -8.4418    4.5571  -16.8539 C   0  0  0  0  0  0  0  0  0  0  0  0
   -9.9934    4.1899  -17.4875 Cl  0  0  0  0  0  0  0  0  0  0  0  0
   -7.4552    5.0337  -17.7184 C   0  0  0  0  0  0  0  0  0  0  0  0
   -6.2288    5.4263  -17.1600 C   0  0  0  0  0  0  0  0  0  0  0  0
   -6.0010    5.3664  -15.7860 C   0  0  0  0  0  0  0  0  0  0  0  0
   -4.6846    5.8419  -15.6205 C   0  0  0  0  0  0  0  0  0  0  0  0
   -4.1024    6.1630  -16.7737 N   0  0  0  0  0  0  0  0  0  0  0  0
   -5.0604    5.9359  -17.6990 N   0  0  0  0  0  0  0  0  0  0  0  0
   -4.8065    6.1085  -19.1512 C   0  0  0  0  0  0  0  0  0  0  0  0
   -3.5284    6.9339  -19.4931 C   0  0  0  0  0  0  0  0  0  0  0  0
   -4.3068    7.6553  -20.5366 N   0  0  0  0  0  0  0  0  0  0  0  0
   -5.5458    7.2989  -19.8001 C   0  0  0  0  0  0  0  0  0  0  0  0
   -4.2389    7.2493  -21.4699 H   0  0  0  0  0  0  0  0  0  0  0  0
   -4.7247    4.8795  -19.9554 N   0  0  0  0  0  0  0  0  0  0  0  0
   -5.9745    4.7055  -20.6664 O   0  0  0  0  0  0  0  0  0  0  0  0
   -4.5635    4.0793  -19.3438 H   0  0  0  0  0  0  0  0  0  0  0  0
   -6.1250    5.4678  -21.2471 H   0  0  0  0  0  0  0  0  0  0  0  0
   -5.7760    5.3292  -13.0721 O   0  0  0  0  0  0  0  0  0  0  0  0
   -6.8297    5.0174  -13.4639 C   0  0  0  0  0  0  0  0  0  0  0  0
   -8.1191    4.6636  -12.6935 N   0  0  0  0  0  0  0  0  0  0  0  0
   -8.9078    4.5054  -13.2610 H   0  0  0  0  0  0  0  0  0  0  0  0
   -8.3495    4.5314  -11.3222 C   0  0  0  0  0  0  0  0  0  0  0  0
   -8.6794    3.2568  -10.8849 C   0  0  0  0  0  0  0  0  0  0  0  0
   -8.8232    2.9719   -9.5300 C   0  0  0  0  0  0  0  0  0  0  0  0
   -8.5868    3.9364   -8.5509 C   0  0  0  0  0  0  0  0  0  0  0  0
   -8.3384    5.2476   -8.9943 C   0  0  0  0  0  0  0  0  0  0  0  0
   -8.2413    5.5407  -10.3679 C   0  0  0  0  0  0  0  0  0  0  0  0
   -8.0548    6.8172  -10.7303 F   0  0  0  0  0  0  0  0  0  0  0  0
   -8.5010    3.5468   -7.0778 C   0  0  0  0  0  0  0  0  0  0  0  0
   -9.1268    4.5394   -6.1177 C   0  0  0  0  0  0  0  0  0  0  0  0
  -10.4892    3.9506   -5.7666 C   0  0  0  0  0  0  0  0  0  0  0  0
  -10.6166    2.7118   -6.4543 O   0  0  0  0  0  0  0  0  0  0  0  0
   -9.2706    2.2784   -6.6827 C   0  0  0  0  0  0  0  0  0  0  0  0
 20 21  2  0  0  0
 21 22  1  0  0  0
 22 24  1  0  0  0
 24 25  2  0  0  0
 25 26  1  0  0  0
 26 27  2  0  0  0
 31 27  1  0  0  0
 31 32  1  0  0  0
 32 33  1  0  0  0
 33 34  1  0  0  0
 34 35  1  0  0  0
 27 28  1  0  0  0
 28 29  2  0  0  0
 29 30  1  0  0  0
 21  1  1  0  0  0
  1  2  2  0  0  0
  2  3  1  0  0  0
  3  4  1  0  0  0
  3  5  2  0  0  0
  5  6  1  0  0  0
  6  7  2  0  0  0
  7  8  1  0  0  0
  8  9  2  0  0  0
  9 10  1  0  0  0
 10 11  1  0  0  0
 11 16  1  0  0  0
 16 17  1  0  0  0
 11 12  1  0  0  0
 12 13  1  0  0  0
 13 14  1  0  0  0
 29 24  1  0  0  0
  7  1  1  0  0  0
 14 11  1  0  0  0
 35 31  1  0  0  0
 10  6  1  0  0  0
 22 23  1  0  0  0
 16 18  1  0  0  0
 17 19  1  0  0  0
 13 15  1  0  0  0
M  END
> <minimizedAffinity>
-8.12503

> <minimizedRMSD>
0.78372

$$$$
P28463


 38 43  0  0  0  0  0  0  0  0999 V2000
   -1.9170    6.4407  -15.6703 N   0  0  0  0  0  0  0  0  0  0  0  0
   -2.4514    5.2020  -15.0953 C   0  0  0  0  0  0  0  0  0  0  0  0
   -3.5017    4.5346  -15.9730 C   0  0  0  0  0  0  0  0  0  0  0  0
   -4.7337    5.4465  -16.1595 C   0  0  0  0  0  0  0  0  0  0  0  0
   -4.3671    6.9455  -15.9463 C   0  0  0  0  0  0  0  0  0  0  0  0
   -2.9265    7.2789  -16.3302 C   0  0  0  0  0  0  0  0  0  0  0  0
   -5.8109    5.0965  -15.0885 C   0  0  0  0  0  0  0  0  0  0  0  0
   -7.0512    5.0206  -15.8986 C   0  0  0  0  0  0  0  0  0  0  0  0
   -8.3589    4.9658  -15.4264 C   0  0  0  0  0  0  0  0  0  0  0  0
   -9.3878    4.6797  -16.3106 C   0  0  0  0  0  0  0  0  0  0  0  0
   -9.0816    4.5266  -17.6639 C   0  0  0  0  0  0  0  0  0  0  0  0
  -10.3765    4.2396  -18.7536 Cl  0  0  0  0  0  0  0  0  0  0  0  0
   -7.7715    4.6887  -18.1475 C   0  0  0  0  0  0  0  0  0  0  0  0
   -6.7437    4.9501  -17.2545 C   0  0  0  0  0  0  0  0  0  0  0  0
   -5.3579    5.1587  -17.5209 N   0  0  0  0  0  0  0  0  0  0  0  0
   -4.7959    5.8682  -18.6552 C   0  0  0  0  0  0  0  0  0  0  0  0
   -4.9320    5.1063  -20.0051 C   0  0  0  0  0  0  0  0  0  0  0  0
   -4.9426    6.4253  -20.6750 N   0  0  0  0  0  0  0  0  0  0  0  0
   -5.5654    6.9480  -19.4141 C   0  0  0  0  0  0  0  0  0  0  0  0
   -5.5352    6.4823  -21.5032 H   0  0  0  0  0  0  0  0  0  0  0  0
   -8.6615    5.4654  -14.0694 C   0  0  0  0  0  0  0  0  0  0  0  0
   -9.0984    6.5429  -13.9786 O   0  0  0  0  0  0  0  0  0  0  0  0
   -8.3267    4.4305  -12.9828 N   0  0  0  0  0  0  0  0  0  0  0  0
   -8.0363    3.5540  -13.3242 H   0  0  0  0  0  0  0  0  0  0  0  0
   -8.3671    4.5309  -11.5950 C   0  0  0  0  0  0  0  0  0  0  0  0
   -8.0922    5.7283  -10.9455 C   0  0  0  0  0  0  0  0  0  0  0  0
   -8.1153    5.7831   -9.5491 C   0  0  0  0  0  0  0  0  0  0  0  0
   -8.4064    4.6436   -8.7751 C   0  0  0  0  0  0  0  0  0  0  0  0
   -8.6896    3.4457   -9.4435 C   0  0  0  0  0  0  0  0  0  0  0  0
   -8.6645    3.4033  -10.8375 C   0  0  0  0  0  0  0  0  0  0  0  0
   -8.8733    2.2417  -11.4679 F   0  0  0  0  0  0  0  0  0  0  0  0
   -8.3834    4.7823   -7.2731 C   0  0  0  0  0  0  0  0  0  0  0  0
   -8.8515    3.6287   -6.4073 C   0  0  0  0  0  0  0  0  0  0  0  0
   -8.2466    3.9783   -5.0599 C   0  0  0  0  0  0  0  0  0  0  0  0
   -7.0721    4.7749   -5.2962 O   0  0  0  0  0  0  0  0  0  0  0  0
   -6.9859    5.0144   -6.7094 C   0  0  0  0  0  0  0  0  0  0  0  0
    0.5203    5.9513  -15.7472 C   0  0  0  0  0  0  0  0  0  0  0  0
   -0.7511    6.2326  -16.5430 C   0  0  0  0  0  0  0  0  0  0  0  0
 37 38  1  0  0  0
 38  1  1  0  0  0
  1  2  1  0  0  0
  2  3  1  0  0  0
  3  4  1  0  0  0
  4  5  1  0  0  0
  5  6  1  0  0  0
  4  7  1  0  0  0
  7  8  1  0  0  0
  8  9  2  0  0  0
  9 21  1  0  0  0
 21 22  2  0  0  0
 21 23  1  0  0  0
 23 25  1  0  0  0
 25 26  2  0  0  0
 26 27  1  0  0  0
 27 28  2  0  0  0
 32 28  1  0  0  0
 32 33  1  0  0  0
 33 34  1  0  0  0
 34 35  1  0  0  0
 35 36  1  0  0  0
 28 29  1  0  0  0
 29 30  2  0  0  0
 30 31  1  0  0  0
  9 10  1  0  0  0
 10 11  2  0  0  0
 11 12  1  0  0  0
 11 13  1  0  0  0
 13 14  2  0  0  0
 14 15  1  0  0  0
 15 16  1  0  0  0
 16 17  1  0  0  0
 17 18  1  0  0  0
 18 19  1  0  0  0
  6  1  1  0  0  0
 14  8  1  0  0  0
 19 16  1  0  0  0
 15  4  1  0  0  0
 30 25  1  0  0  0
 36 32  1  0  0  0
 23 24  1  0  0  0
 18 20  1  0  0  0
M  END
> <minimizedAffinity>
-8.50889

> <minimizedRMSD>
1.02578

$$$$
P28466


 35 40  0  0  0  0  0  0  0  0999 V2000
   -8.2197    4.9025  -15.4435 C   0  0  0  0  0  0  0  0  0  0  0  0
   -9.1222    4.6071  -16.4649 C   0  0  0  0  0  0  0  0  0  0  0  0
   -8.6688    4.5202  -17.7770 C   0  0  0  0  0  0  0  0  0  0  0  0
   -9.8241    4.3422  -19.0299 Cl  0  0  0  0  0  0  0  0  0  0  0  0
   -7.3206    4.6943  -18.1103 C   0  0  0  0  0  0  0  0  0  0  0  0
   -6.4309    4.9547  -17.0582 C   0  0  0  0  0  0  0  0  0  0  0  0
   -6.8534    5.0324  -15.7322 C   0  0  0  0  0  0  0  0  0  0  0  0
   -5.6839    5.2918  -14.9927 C   0  0  0  0  0  0  0  0  0  0  0  0
   -4.6070    5.4092  -15.7661 N   0  0  0  0  0  0  0  0  0  0  0  0
   -5.0955    5.2918  -17.0189 N   0  0  0  0  0  0  0  0  0  0  0  0
   -4.3720    5.8618  -18.1721 C   0  0  0  0  0  0  0  0  0  0  0  0
   -2.8545    6.0530  -17.9355 C   0  0  0  0  0  0  0  0  0  0  0  0
   -2.6275    5.6128  -19.4140 C   0  0  0  0  0  0  0  0  0  0  0  0
   -1.3785    4.7386  -19.5815 C   0  0  0  0  0  0  0  0  0  0  0  0
   -0.1835    5.6512  -19.8321 C   0  0  0  0  0  0  0  0  0  0  0  0
   -0.2986    6.4136  -21.0384 O   0  0  0  0  0  0  0  0  0  0  0  0
   -1.6346    6.5606  -21.5257 C   0  0  0  0  0  0  0  0  0  0  0  0
   -2.6372    6.7968  -20.4028 C   0  0  0  0  0  0  0  0  0  0  0  0
   -3.9899    4.8477  -19.2509 C   0  0  0  0  0  0  0  0  0  0  0  0
   -9.4889    6.1572  -14.0384 O   0  0  0  0  0  0  0  0  0  0  0  0
   -8.7106    5.2932  -14.1103 C   0  0  0  0  0  0  0  0  0  0  0  0
   -8.0914    4.4171  -13.0120 N   0  0  0  0  0  0  0  0  0  0  0  0
   -7.5078    3.6956  -13.3408 H   0  0  0  0  0  0  0  0  0  0  0  0
   -8.2203    4.4763  -11.6294 C   0  0  0  0  0  0  0  0  0  0  0  0
   -7.9906    5.6372  -10.9002 C   0  0  0  0  0  0  0  0  0  0  0  0
   -8.1314    5.6257   -9.5045 C   0  0  0  0  0  0  0  0  0  0  0  0
   -8.5108    4.4582   -8.8193 C   0  0  0  0  0  0  0  0  0  0  0  0
   -8.7112    3.2911   -9.5739 C   0  0  0  0  0  0  0  0  0  0  0  0
   -8.5676    3.3121  -10.9573 C   0  0  0  0  0  0  0  0  0  0  0  0
   -8.6878    2.1772  -11.6594 F   0  0  0  0  0  0  0  0  0  0  0  0
   -8.6251    4.3855   -7.3097 C   0  0  0  0  0  0  0  0  0  0  0  0
   -9.1583    5.6132   -6.5845 C   0  0  0  0  0  0  0  0  0  0  0  0
   -9.6556    5.0251   -5.2872 C   0  0  0  0  0  0  0  0  0  0  0  0
  -10.2834    3.8001   -5.6634 O   0  0  0  0  0  0  0  0  0  0  0  0
   -9.5397    3.2687   -6.7791 C   0  0  0  0  0  0  0  0  0  0  0  0
 20 21  2  0  0  0
 21 22  1  0  0  0
 22 24  1  0  0  0
 24 25  2  0  0  0
 25 26  1  0  0  0
 26 27  2  0  0  0
 31 27  1  0  0  0
 31 32  1  0  0  0
 32 33  1  0  0  0
 33 34  1  0  0  0
 34 35  1  0  0  0
 27 28  1  0  0  0
 28 29  2  0  0  0
 29 30  1  0  0  0
 21  1  1  0  0  0
  1  2  2  0  0  0
  2  3  1  0  0  0
  3  4  1  0  0  0
  3  5  2  0  0  0
  5  6  1  0  0  0
  6  7  2  0  0  0
  7  8  1  0  0  0
  8  9  2  0  0  0
  9 10  1  0  0  0
 10 11  1  0  0  0
 11 12  1  0  0  0
 12 13  1  0  0  0
 13 14  1  0  0  0
 14 15  1  0  0  0
 15 16  1  0  0  0
 16 17  1  0  0  0
 17 18  1  0  0  0
 13 19  1  0  0  0
 29 24  1  0  0  0
  7  1  1  0  0  0
 19 11  1  0  0  0
 35 31  1  0  0  0
 10  6  1  0  0  0
 18 13  1  0  0  0
 22 23  1  0  0  0
M  END
> <minimizedAffinity>
-9.46260

> <minimizedRMSD>
1.35500

$$$$
P28470


 40 44  0  0  0  0  0  0  0  0999 V2000
   -7.2142    5.7492  -13.9963 C   0  0  0  0  0  0  0  0  0  0  0  0
   -6.9817    7.1345  -14.2703 O   0  0  0  0  0  0  0  0  0  0  0  0
   -6.9166    7.6229  -13.4347 H   0  0  0  0  0  0  0  0  0  0  0  0
   -7.2862    5.1544  -15.4113 C   0  0  0  0  0  0  0  0  0  0  0  0
   -8.5493    4.8371  -15.9888 C   0  0  0  0  0  0  0  0  0  0  0  0
   -8.7057    4.5231  -17.3388 C   0  0  0  0  0  0  0  0  0  0  0  0
  -10.2759    4.2174  -17.9710 Cl  0  0  0  0  0  0  0  0  0  0  0  0
   -7.6245    4.5471  -18.2114 C   0  0  0  0  0  0  0  0  0  0  0  0
   -6.3750    4.8692  -17.6702 C   0  0  0  0  0  0  0  0  0  0  0  0
   -6.1784    5.1216  -16.3060 C   0  0  0  0  0  0  0  0  0  0  0  0
   -4.7847    5.3575  -16.2248 C   0  0  0  0  0  0  0  0  0  0  0  0
   -4.1077    5.6124  -15.1035 F   0  0  0  0  0  0  0  0  0  0  0  0
   -4.1598    5.3180  -17.3907 N   0  0  0  0  0  0  0  0  0  0  0  0
   -5.1495    5.0967  -18.2643 N   0  0  0  0  0  0  0  0  0  0  0  0
   -4.9636    5.4221  -19.6847 C   0  0  0  0  0  0  0  0  0  0  0  0
   -5.0217    6.9379  -19.9761 C   0  0  0  0  0  0  0  0  0  0  0  0
   -3.8609    6.7706  -20.8681 N   0  0  0  0  0  0  0  0  0  0  0  0
   -3.5112    5.5406  -20.1139 C   0  0  0  0  0  0  0  0  0  0  0  0
   -3.1682    7.5165  -20.8039 H   0  0  0  0  0  0  0  0  0  0  0  0
   -5.8842    3.6563  -13.2660 N   0  0  0  0  0  0  0  0  0  0  0  0
   -6.0099    5.1973  -13.0886 C   0  0  0  0  0  0  0  0  0  0  0  0
   -5.4317    5.9300  -12.3783 O   0  0  0  0  0  0  0  0  0  0  0  0
   -6.5424    3.2568  -13.8795 H   0  0  0  0  0  0  0  0  0  0  0  0
   -4.0694    2.0827  -13.7365 C   0  0  0  0  0  0  0  0  0  0  0  0
   -4.9570    2.7152  -12.6756 C   0  0  0  0  0  0  0  0  0  0  0  0
   -5.7047    1.6727  -11.8563 C   0  0  0  0  0  0  0  0  0  0  0  0
   -8.4980    5.6375  -13.2801 N   0  0  0  0  0  0  0  0  0  0  0  0
   -9.3612    5.6133  -13.7528 H   0  0  0  0  0  0  0  0  0  0  0  0
   -8.4096    5.5670  -11.8675 C   0  0  0  0  0  0  0  0  0  0  0  0
   -8.2303    6.6951  -11.0710 C   0  0  0  0  0  0  0  0  0  0  0  0
   -8.1011    6.5715   -9.6853 C   0  0  0  0  0  0  0  0  0  0  0  0
   -8.1717    5.3192   -9.0473 C   0  0  0  0  0  0  0  0  0  0  0  0
   -8.3653    4.1857   -9.8401 C   0  0  0  0  0  0  0  0  0  0  0  0
   -8.4830    4.3239  -11.2234 C   0  0  0  0  0  0  0  0  0  0  0  0
   -8.6238    3.2293  -11.9815 F   0  0  0  0  0  0  0  0  0  0  0  0
   -8.0458    5.2903   -7.5474 C   0  0  0  0  0  0  0  0  0  0  0  0
   -6.6085    5.3412   -7.0628 C   0  0  0  0  0  0  0  0  0  0  0  0
   -6.7539    4.9899   -5.5969 C   0  0  0  0  0  0  0  0  0  0  0  0
   -7.9590    4.2284   -5.4504 O   0  0  0  0  0  0  0  0  0  0  0  0
   -8.5710    4.1053   -6.7494 C   0  0  0  0  0  0  0  0  0  0  0  0
 24 25  1  0  0  0
 25 26  1  0  0  0
 25 20  1  0  0  0
 20 21  1  0  0  0
 21 22  2  0  0  0
 21  1  1  0  0  0
  1  2  1  0  0  0
  1 27  1  0  0  0
 27 29  1  0  0  0
 29 30  2  0  0  0
 30 31  1  0  0  0
 31 32  2  0  0  0
 36 32  1  0  0  0
 36 37  1  0  0  0
 37 38  1  0  0  0
 38 39  1  0  0  0
 39 40  1  0  0  0
 32 33  1  0  0  0
 33 34  2  0  0  0
 34 35  1  0  0  0
  1  4  1  0  0  0
  4  5  2  0  0  0
  5  6  1  0  0  0
  6  7  1  0  0  0
  6  8  2  0  0  0
  8  9  1  0  0  0
  9 10  2  0  0  0
 10 11  1  0  0  0
 11 12  1  0  0  0
 11 13  2  0  0  0
 13 14  1  0  0  0
 14 15  1  0  0  0
 15 16  1  0  0  0
 16 17  1  0  0  0
 17 18  1  0  0  0
 34 29  1  0  0  0
 10  4  1  0  0  0
 18 15  1  0  0  0
 40 36  1  0  0  0
 14  9  1  0  0  0
 20 23  1  0  0  0
  2  3  1  0  0  0
 27 28  1  0  0  0
 17 19  1  0  0  0
M  END
> <minimizedAffinity>
-7.58423

> <minimizedRMSD>
0.72805

$$$$
P28471


 35 40  0  0  0  0  0  0  0  0999 V2000
   -7.8953    4.6000  -13.0094 N   0  0  0  0  0  0  0  0  0  0  0  0
   -6.9682    5.3986  -13.9559 C   0  0  0  0  0  0  0  0  0  0  0  0
   -6.1712    6.2196  -13.7203 O   0  0  0  0  0  0  0  0  0  0  0  0
   -8.4312    3.9015  -13.4501 H   0  0  0  0  0  0  0  0  0  0  0  0
   -9.7738    9.0784  -10.8843 C   0  0  0  0  0  0  0  0  0  0  0  0
   -8.6330    8.0984  -10.6047 C   0  0  0  0  0  0  0  0  0  0  0  0
   -7.2880    8.8281  -10.7040 C   0  0  0  0  0  0  0  0  0  0  0  0
   -8.8160    7.3985   -9.2450 C   0  0  0  0  0  0  0  0  0  0  0  0
   -8.5057    5.9901   -9.6149 C   0  0  0  0  0  0  0  0  0  0  0  0
   -8.4074    4.8597   -8.8013 C   0  0  0  0  0  0  0  0  0  0  0  0
   -8.1170    3.6452   -9.4429 C   0  0  0  0  0  0  0  0  0  0  0  0
   -7.9799    3.5689  -10.8418 C   0  0  0  0  0  0  0  0  0  0  0  0
   -8.0952    4.7084  -11.6352 C   0  0  0  0  0  0  0  0  0  0  0  0
   -8.3789    5.9034  -10.9977 C   0  0  0  0  0  0  0  0  0  0  0  0
   -8.6590    7.0848  -11.6359 O   0  0  0  0  0  0  0  0  0  0  0  0
   -8.6133    4.9672   -7.3103 C   0  0  0  0  0  0  0  0  0  0  0  0
   -9.4538    3.8955   -6.6218 C   0  0  0  0  0  0  0  0  0  0  0  0
   -8.5833    3.3764   -5.5055 C   0  0  0  0  0  0  0  0  0  0  0  0
   -7.5936    4.3829   -5.2613 O   0  0  0  0  0  0  0  0  0  0  0  0
   -7.3066    4.9753   -6.5327 C   0  0  0  0  0  0  0  0  0  0  0  0
   -7.1453    5.0148  -15.3681 C   0  0  0  0  0  0  0  0  0  0  0  0
   -8.4169    4.7645  -15.8855 C   0  0  0  0  0  0  0  0  0  0  0  0
   -8.5803    4.6178  -17.2585 C   0  0  0  0  0  0  0  0  0  0  0  0
  -10.1706    4.4670  -17.8792 Cl  0  0  0  0  0  0  0  0  0  0  0  0
   -7.5011    4.6793  -18.1480 C   0  0  0  0  0  0  0  0  0  0  0  0
   -6.2294    4.9075  -17.6034 C   0  0  0  0  0  0  0  0  0  0  0  0
   -6.0372    5.0737  -16.2329 C   0  0  0  0  0  0  0  0  0  0  0  0
   -4.6537    5.3021  -16.0887 C   0  0  0  0  0  0  0  0  0  0  0  0
   -4.0037    5.2669  -17.2505 N   0  0  0  0  0  0  0  0  0  0  0  0
   -4.9790    5.0628  -18.1629 N   0  0  0  0  0  0  0  0  0  0  0  0
   -4.7210    5.0979  -19.6143 C   0  0  0  0  0  0  0  0  0  0  0  0
   -3.2319    5.2277  -19.9991 C   0  0  0  0  0  0  0  0  0  0  0  0
   -3.6118    6.2827  -20.9645 N   0  0  0  0  0  0  0  0  0  0  0  0
   -4.8482    6.5208  -20.1882 C   0  0  0  0  0  0  0  0  0  0  0  0
   -3.7713    5.9445  -21.9136 H   0  0  0  0  0  0  0  0  0  0  0  0
  5  6  1  0  0  0
  6  7  1  0  0  0
  6  8  1  0  0  0
  8  9  1  0  0  0
  9 10  2  0  0  0
 16 10  1  0  0  0
 16 17  1  0  0  0
 17 18  1  0  0  0
 18 19  1  0  0  0
 19 20  1  0  0  0
 10 11  1  0  0  0
 11 12  2  0  0  0
 12 13  1  0  0  0
 13  1  1  0  0  0
  1  2  1  0  0  0
  2  3  2  0  0  0
  2 21  1  0  0  0
 21 22  2  0  0  0
 22 23  1  0  0  0
 23 24  1  0  0  0
 23 25  2  0  0  0
 25 26  1  0  0  0
 26 27  2  0  0  0
 27 28  1  0  0  0
 28 29  2  0  0  0
 29 30  1  0  0  0
 30 31  1  0  0  0
 31 32  1  0  0  0
 32 33  1  0  0  0
 33 34  1  0  0  0
 13 14  2  0  0  0
 14 15  1  0  0  0
 15  6  1  0  0  0
 14  9  1  0  0  0
 20 16  1  0  0  0
 27 21  1  0  0  0
 34 31  1  0  0  0
 30 26  1  0  0  0
  1  4  1  0  0  0
 33 35  1  0  0  0
M  END
> <minimizedAffinity>
-8.14170

> <minimizedRMSD>
0.53657

$$$$
P28472


 32 36  0  0  0  0  0  0  0  0999 V2000
   -6.3109    5.9820  -13.7555 O   0  0  0  0  0  0  0  0  0  0  0  0
   -7.1635    5.2439  -14.0569 C   0  0  0  0  0  0  0  0  0  0  0  0
   -8.2201    4.5248  -13.1874 N   0  0  0  0  0  0  0  0  0  0  0  0
   -8.8867    4.0063  -13.6935 H   0  0  0  0  0  0  0  0  0  0  0  0
   -7.3034    4.9163  -15.4917 C   0  0  0  0  0  0  0  0  0  0  0  0
   -8.5627    4.6986  -16.0512 C   0  0  0  0  0  0  0  0  0  0  0  0
   -8.6993    4.6116  -17.4324 C   0  0  0  0  0  0  0  0  0  0  0  0
  -10.2773    4.5067  -18.0901 Cl  0  0  0  0  0  0  0  0  0  0  0  0
   -7.6021    4.6984  -18.2949 C   0  0  0  0  0  0  0  0  0  0  0  0
   -6.3403    4.8792  -17.7121 C   0  0  0  0  0  0  0  0  0  0  0  0
   -6.1749    4.9867  -16.3312 C   0  0  0  0  0  0  0  0  0  0  0  0
   -4.7895    5.1768  -16.1524 C   0  0  0  0  0  0  0  0  0  0  0  0
   -4.1151    5.1645  -17.3015 N   0  0  0  0  0  0  0  0  0  0  0  0
   -5.0763    5.0314  -18.2414 N   0  0  0  0  0  0  0  0  0  0  0  0
   -4.7903    5.1184  -19.6863 C   0  0  0  0  0  0  0  0  0  0  0  0
   -4.8755    6.5653  -20.2065 C   0  0  0  0  0  0  0  0  0  0  0  0
   -3.6365    6.3228  -20.9783 N   0  0  0  0  0  0  0  0  0  0  0  0
   -3.2921    5.2313  -20.0408 C   0  0  0  0  0  0  0  0  0  0  0  0
   -2.9796    7.1031  -20.9731 H   0  0  0  0  0  0  0  0  0  0  0  0
   -8.3829    4.4908  -11.7999 C   0  0  0  0  0  0  0  0  0  0  0  0
   -8.5982    3.2568  -11.1916 C   0  0  0  0  0  0  0  0  0  0  0  0
   -8.6673    3.1477   -9.7965 C   0  0  0  0  0  0  0  0  0  0  0  0
   -8.5561    4.2762   -8.9705 C   0  0  0  0  0  0  0  0  0  0  0  0
   -8.3800    5.5136   -9.6035 C   0  0  0  0  0  0  0  0  0  0  0  0
   -8.2697    6.6322   -8.8713 F   0  0  0  0  0  0  0  0  0  0  0  0
   -8.3051    5.6248  -10.9936 C   0  0  0  0  0  0  0  0  0  0  0  0
   -8.2179    6.8502  -11.5311 F   0  0  0  0  0  0  0  0  0  0  0  0
   -8.5204    4.1265   -7.4647 C   0  0  0  0  0  0  0  0  0  0  0  0
   -9.4058    3.0354   -6.8773 C   0  0  0  0  0  0  0  0  0  0  0  0
   -9.4615    3.4179   -5.4173 C   0  0  0  0  0  0  0  0  0  0  0  0
   -9.4770    4.8503   -5.3763 O   0  0  0  0  0  0  0  0  0  0  0  0
   -8.9449    5.3334   -6.6236 C   0  0  0  0  0  0  0  0  0  0  0  0
  1  2  2  0  0  0
  2  3  1  0  0  0
  3 20  1  0  0  0
 20 21  2  0  0  0
 21 22  1  0  0  0
 22 23  2  0  0  0
 28 23  1  0  0  0
 28 29  1  0  0  0
 29 30  1  0  0  0
 30 31  1  0  0  0
 31 32  1  0  0  0
 23 24  1  0  0  0
 24 25  1  0  0  0
 24 26  2  0  0  0
 26 27  1  0  0  0
  2  5  1  0  0  0
  5  6  2  0  0  0
  6  7  1  0  0  0
  7  8  1  0  0  0
  7  9  2  0  0  0
  9 10  1  0  0  0
 10 11  2  0  0  0
 11 12  1  0  0  0
 12 13  2  0  0  0
 13 14  1  0  0  0
 14 15  1  0  0  0
 15 16  1  0  0  0
 16 17  1  0  0  0
 17 18  1  0  0  0
 26 20  1  0  0  0
 11  5  1  0  0  0
 18 15  1  0  0  0
 32 28  1  0  0  0
 14 10  1  0  0  0
  3  4  1  0  0  0
 17 19  1  0  0  0
M  END
> <minimizedAffinity>
-8.63353

> <minimizedRMSD>
0.33933

$$$$
P28473


 33 37  0  0  0  0  0  0  0  0999 V2000
   -8.1829    4.3221  -12.9975 N   0  0  0  0  0  0  0  0  0  0  0  0
   -8.7368    5.2031  -14.1427 C   0  0  0  0  0  0  0  0  0  0  0  0
   -9.4095    6.1586  -14.1060 O   0  0  0  0  0  0  0  0  0  0  0  0
   -7.6977    3.5183  -13.2936 H   0  0  0  0  0  0  0  0  0  0  0  0
   -8.2791    4.8084  -15.4991 C   0  0  0  0  0  0  0  0  0  0  0  0
   -9.1690    4.5253  -16.5347 C   0  0  0  0  0  0  0  0  0  0  0  0
   -8.7083    4.4904  -17.8519 C   0  0  0  0  0  0  0  0  0  0  0  0
   -9.8449    4.3172  -19.1282 Cl  0  0  0  0  0  0  0  0  0  0  0  0
   -7.3637    4.7083  -18.1827 C   0  0  0  0  0  0  0  0  0  0  0  0
   -6.4753    4.9528  -17.1272 C   0  0  0  0  0  0  0  0  0  0  0  0
   -6.9096    4.9814  -15.8011 C   0  0  0  0  0  0  0  0  0  0  0  0
   -5.7500    5.2695  -15.0507 C   0  0  0  0  0  0  0  0  0  0  0  0
   -4.6727    5.4353  -15.8111 N   0  0  0  0  0  0  0  0  0  0  0  0
   -5.1345    5.2800  -17.0687 N   0  0  0  0  0  0  0  0  0  0  0  0
   -4.3105    5.7332  -18.2005 C   0  0  0  0  0  0  0  0  0  0  0  0
   -3.1273    4.7826  -18.4782 C   0  0  0  0  0  0  0  0  0  0  0  0
   -3.4589    4.8203  -19.9071 N   0  0  0  0  0  0  0  0  0  0  0  0
   -4.8114    5.3104  -19.5710 C   0  0  0  0  0  0  0  0  0  0  0  0
   -3.4467    3.9079  -20.3630 H   0  0  0  0  0  0  0  0  0  0  0  0
   -8.6588    3.6022   -9.3684 C   0  0  0  0  0  0  0  0  0  0  0  0
   -8.1355    4.7861   -8.7925 C   0  0  0  0  0  0  0  0  0  0  0  0
   -7.7826    5.8361   -9.6519 C   0  0  0  0  0  0  0  0  0  0  0  0
   -7.8383    5.6827  -11.0380 C   0  0  0  0  0  0  0  0  0  0  0  0
   -8.2597    4.4824  -11.6074 C   0  0  0  0  0  0  0  0  0  0  0  0
   -8.7094    3.4629  -10.7653 C   0  0  0  0  0  0  0  0  0  0  0  0
   -9.2203    2.3554  -11.3183 F   0  0  0  0  0  0  0  0  0  0  0  0
   -7.9657    4.9292   -7.2900 C   0  0  0  0  0  0  0  0  0  0  0  0
   -8.9706    5.8447   -6.6201 C   0  0  0  0  0  0  0  0  0  0  0  0
   -8.3188    6.0772   -5.2734 C   0  0  0  0  0  0  0  0  0  0  0  0
   -6.9013    6.0978   -5.4975 O   0  0  0  0  0  0  0  0  0  0  0  0
   -6.6438    5.5195   -6.7920 C   0  0  0  0  0  0  0  0  0  0  0  0
   -9.4402    1.7146   -7.7807 N   0  0  0  0  0  0  0  0  0  0  0  0
   -9.2020    2.5868   -8.5091 C   0  0  0  0  0  0  0  0  0  0  0  0
 32 33  3  0  0  0
 33 20  1  0  0  0
 20 21  2  0  0  0
 27 21  1  0  0  0
 27 28  1  0  0  0
 28 29  1  0  0  0
 29 30  1  0  0  0
 30 31  1  0  0  0
 21 22  1  0  0  0
 22 23  2  0  0  0
 23 24  1  0  0  0
 24  1  1  0  0  0
  1  2  1  0  0  0
  2  3  2  0  0  0
  2  5  1  0  0  0
  5  6  2  0  0  0
  6  7  1  0  0  0
  7  8  1  0  0  0
  7  9  2  0  0  0
  9 10  1  0  0  0
 10 11  2  0  0  0
 11 12  1  0  0  0
 12 13  2  0  0  0
 13 14  1  0  0  0
 14 15  1  0  0  0
 15 16  1  0  0  0
 16 17  1  0  0  0
 17 18  1  0  0  0
 24 25  2  0  0  0
 25 26  1  0  0  0
 25 20  1  0  0  0
 31 27  1  0  0  0
 11  5  1  0  0  0
 18 15  1  0  0  0
 14 10  1  0  0  0
  1  4  1  0  0  0
 17 19  1  0  0  0
M  END
> <minimizedAffinity>
-8.91382

> <minimizedRMSD>
0.81027

$$$$
P28474


 34 38  0  0  0  0  0  0  0  0999 V2000
   -7.2000    7.1405  -13.5854 O   0  0  0  0  0  0  0  0  0  0  0  0
   -7.6331    6.0578  -13.6385 C   0  0  0  0  0  0  0  0  0  0  0  0
   -8.2124    5.1565  -12.5279 N   0  0  0  0  0  0  0  0  0  0  0  0
   -8.5877    4.3030  -12.8437 H   0  0  0  0  0  0  0  0  0  0  0  0
   -7.6150    5.4033  -14.9651 C   0  0  0  0  0  0  0  0  0  0  0  0
   -8.7812    4.9455  -15.5730 C   0  0  0  0  0  0  0  0  0  0  0  0
   -8.7594    4.6126  -16.9246 C   0  0  0  0  0  0  0  0  0  0  0  0
  -10.2394    4.1687  -17.6753 Cl  0  0  0  0  0  0  0  0  0  0  0  0
   -7.5959    4.7205  -17.7060 C   0  0  0  0  0  0  0  0  0  0  0  0
   -6.4138    5.1312  -17.0650 C   0  0  0  0  0  0  0  0  0  0  0  0
   -6.4141    5.4391  -15.7001 C   0  0  0  0  0  0  0  0  0  0  0  0
   -5.0811    5.7740  -15.3978 C   0  0  0  0  0  0  0  0  0  0  0  0
   -4.2819    5.6799  -16.4535 N   0  0  0  0  0  0  0  0  0  0  0  0
   -5.1201    5.4068  -17.4778 N   0  0  0  0  0  0  0  0  0  0  0  0
   -4.5758    5.6273  -18.8224 C   0  0  0  0  0  0  0  0  0  0  0  0
   -5.2525    4.9546  -19.9991 C   0  0  0  0  0  0  0  0  0  0  0  0
   -5.0270    6.2098  -20.7729 N   0  0  0  0  0  0  0  0  0  0  0  0
   -4.9711    6.9443  -19.4879 C   0  0  0  0  0  0  0  0  0  0  0  0
   -5.8029    6.4774  -21.3786 H   0  0  0  0  0  0  0  0  0  0  0  0
   -8.2910    5.3549  -11.1450 C   0  0  0  0  0  0  0  0  0  0  0  0
   -8.0235    4.2762  -10.3062 C   0  0  0  0  0  0  0  0  0  0  0  0
   -8.0592    4.4286   -8.9146 C   0  0  0  0  0  0  0  0  0  0  0  0
   -8.3600    5.6685   -8.3238 C   0  0  0  0  0  0  0  0  0  0  0  0
   -8.6420    6.7455   -9.1726 C   0  0  0  0  0  0  0  0  0  0  0  0
   -8.6181    6.5825  -10.5618 C   0  0  0  0  0  0  0  0  0  0  0  0
   -8.9825    7.6334  -11.3085 F   0  0  0  0  0  0  0  0  0  0  0  0
   -8.3036    5.8662   -6.8153 C   0  0  0  0  0  0  0  0  0  0  0  0
   -7.1443    5.0849   -6.2437 C   0  0  0  0  0  0  0  0  0  0  0  0
   -7.6799    4.0758   -5.3726 O   0  0  0  0  0  0  0  0  0  0  0  0
   -8.8630    4.6368   -4.8116 C   0  0  0  0  0  0  0  0  0  0  0  0
   -9.4664    5.3191   -6.0060 C   0  0  0  0  0  0  0  0  0  0  0  0
   -9.8260    3.6164   -4.2231 C   0  0  0  0  0  0  0  0  0  0  0  0
  -10.8921    3.4351   -5.0377 F   0  0  0  0  0  0  0  0  0  0  0  0
  -10.3235    4.0839   -3.0444 F   0  0  0  0  0  0  0  0  0  0  0  0
  1  2  2  0  0  0
  2  3  1  0  0  0
  3 20  1  0  0  0
 20 21  2  0  0  0
 21 22  1  0  0  0
 22 23  2  0  0  0
 27 23  1  0  0  0
 27 28  1  0  0  0
 28 29  1  0  0  0
 29 30  1  0  0  0
 30 32  1  0  0  0
 32 33  1  0  0  0
 32 34  1  0  0  0
 30 31  1  0  0  0
 23 24  1  0  0  0
 24 25  2  0  0  0
 25 26  1  0  0  0
  2  5  1  0  0  0
  5  6  2  0  0  0
  6  7  1  0  0  0
  7  8  1  0  0  0
  7  9  2  0  0  0
  9 10  1  0  0  0
 10 11  2  0  0  0
 11 12  1  0  0  0
 12 13  2  0  0  0
 13 14  1  0  0  0
 14 15  1  0  0  0
 15 16  1  0  0  0
 16 17  1  0  0  0
 17 18  1  0  0  0
 25 20  1  0  0  0
 11  5  1  0  0  0
 18 15  1  0  0  0
 31 27  1  0  0  0
 14 10  1  0  0  0
  3  4  1  0  0  0
 17 19  1  0  0  0
M  END
> <minimizedAffinity>
-7.72080

> <minimizedRMSD>
1.35171

$$$$
P28476


 35 39  0  0  0  0  0  0  0  0999 V2000
   -4.6197    5.4082  -15.9548 N   0  0  0  0  0  0  0  0  0  0  0  0
   -5.6863    5.2608  -15.1008 C   0  0  0  0  0  0  0  0  0  0  0  0
   -6.7914    5.0159  -15.8697 C   0  0  0  0  0  0  0  0  0  0  0  0
   -8.1025    4.8877  -15.4058 C   0  0  0  0  0  0  0  0  0  0  0  0
   -8.9991    4.5922  -16.4491 C   0  0  0  0  0  0  0  0  0  0  0  0
   -8.5868    4.5067  -17.8227 C   0  0  0  0  0  0  0  0  0  0  0  0
   -9.8225    4.2410  -19.0045 Cl  0  0  0  0  0  0  0  0  0  0  0  0
   -7.2626    4.7123  -18.2941 C   0  0  0  0  0  0  0  0  0  0  0  0
   -6.3793    4.9573  -17.2419 C   0  0  0  0  0  0  0  0  0  0  0  0
   -5.0463    5.3196  -17.2739 C   0  0  0  0  0  0  0  0  0  0  0  0
   -4.1143    5.7624  -18.4430 C   0  0  0  0  0  0  0  0  0  0  0  0
   -4.6268    6.0996  -19.8420 C   0  0  0  0  0  0  0  0  0  0  0  0
   -3.3452    5.5429  -20.3640 N   0  0  0  0  0  0  0  0  0  0  0  0
   -3.3369    4.6461  -19.1775 C   0  0  0  0  0  0  0  0  0  0  0  0
   -2.5740    6.2095  -20.4003 H   0  0  0  0  0  0  0  0  0  0  0  0
   -2.7847    4.5988  -14.7484 N   0  0  0  0  0  0  0  0  0  0  0  0
   -3.2804    5.7502  -15.4876 C   0  0  0  0  0  0  0  0  0  0  0  0
   -1.8458    4.7958  -14.4019 H   0  0  0  0  0  0  0  0  0  0  0  0
   -2.7564    3.7860  -15.3640 H   0  0  0  0  0  0  0  0  0  0  0  0
   -8.5086    5.2808  -14.0411 C   0  0  0  0  0  0  0  0  0  0  0  0
   -8.9757    6.3411  -13.9030 O   0  0  0  0  0  0  0  0  0  0  0  0
   -8.1339    4.2092  -12.9965 N   0  0  0  0  0  0  0  0  0  0  0  0
   -7.6782    3.4174  -13.3637 H   0  0  0  0  0  0  0  0  0  0  0  0
   -8.3364    4.1791  -11.6105 C   0  0  0  0  0  0  0  0  0  0  0  0
   -8.8048    2.9944  -11.0552 C   0  0  0  0  0  0  0  0  0  0  0  0
   -8.9410    2.8544   -9.6668 C   0  0  0  0  0  0  0  0  0  0  0  0
   -8.6350    3.9036   -8.7891 C   0  0  0  0  0  0  0  0  0  0  0  0
   -8.1738    5.0934   -9.3516 C   0  0  0  0  0  0  0  0  0  0  0  0
   -8.0407    5.2268  -10.7373 C   0  0  0  0  0  0  0  0  0  0  0  0
   -7.6396    6.4202  -11.1737 F   0  0  0  0  0  0  0  0  0  0  0  0
   -8.7304    3.6934   -7.2951 C   0  0  0  0  0  0  0  0  0  0  0  0
   -9.1611    4.8778   -6.4421 C   0  0  0  0  0  0  0  0  0  0  0  0
   -9.6300    4.1954   -5.1805 C   0  0  0  0  0  0  0  0  0  0  0  0
  -10.3557    3.0534   -5.6357 O   0  0  0  0  0  0  0  0  0  0  0  0
   -9.7136    2.6001   -6.8444 C   0  0  0  0  0  0  0  0  0  0  0  0
 16 17  1  0  0  0
 17  1  1  0  0  0
  1  2  1  0  0  0
  2  3  2  0  0  0
  3  4  1  0  0  0
  4 20  1  0  0  0
 20 21  2  0  0  0
 20 22  1  0  0  0
 22 24  1  0  0  0
 24 25  2  0  0  0
 25 26  1  0  0  0
 26 27  2  0  0  0
 31 27  1  0  0  0
 31 32  1  0  0  0
 32 33  1  0  0  0
 33 34  1  0  0  0
 34 35  1  0  0  0
 27 28  1  0  0  0
 28 29  2  0  0  0
 29 30  1  0  0  0
  4  5  2  0  0  0
  5  6  1  0  0  0
  6  7  1  0  0  0
  6  8  2  0  0  0
  8  9  1  0  0  0
  9 10  2  0  0  0
 10 11  1  0  0  0
 11 12  1  0  0  0
 12 13  1  0  0  0
 13 14  1  0  0  0
 10  1  1  0  0  0
 14 11  1  0  0  0
  9  3  1  0  0  0
 29 24  1  0  0  0
 35 31  1  0  0  0
 16 18  1  0  0  0
 16 19  1  0  0  0
 22 23  1  0  0  0
 13 15  1  0  0  0
M  END
> <minimizedAffinity>
-8.76220

> <minimizedRMSD>
0.78659

$$$$
P28478


 37 42  0  0  0  0  0  0  0  0999 V2000
   -8.3842    5.0674  -15.5215 C   0  0  0  0  0  0  0  0  0  0  0  0
   -9.3959    4.6864  -16.3967 C   0  0  0  0  0  0  0  0  0  0  0  0
   -9.0991    4.4986  -17.7519 C   0  0  0  0  0  0  0  0  0  0  0  0
  -10.3793    4.2029  -18.8585 Cl  0  0  0  0  0  0  0  0  0  0  0  0
   -7.7976    4.6366  -18.2413 C   0  0  0  0  0  0  0  0  0  0  0  0
   -6.7824    4.9623  -17.3577 C   0  0  0  0  0  0  0  0  0  0  0  0
   -7.0864    5.1791  -16.0180 C   0  0  0  0  0  0  0  0  0  0  0  0
   -5.8587    5.5704  -15.2748 C   0  0  0  0  0  0  0  0  0  0  0  0
   -4.7386    5.5425  -16.3809 C   0  0  0  0  0  0  0  0  0  0  0  0
   -4.1319    6.9591  -16.4778 C   0  0  0  0  0  0  0  0  0  0  0  0
   -3.4342    7.3834  -15.1795 C   0  0  0  0  0  0  0  0  0  0  0  0
   -2.9206    6.2609  -14.3954 N   0  0  0  0  0  0  0  0  0  0  0  0
   -2.4842    5.1589  -15.2383 C   0  0  0  0  0  0  0  0  0  0  0  0
   -3.6629    4.5104  -15.9678 C   0  0  0  0  0  0  0  0  0  0  0  0
   -5.4110    5.1393  -17.6576 N   0  0  0  0  0  0  0  0  0  0  0  0
   -3.6586    5.9281  -13.7750 H   0  0  0  0  0  0  0  0  0  0  0  0
   -4.8434    5.0310  -18.9833 C   0  0  0  0  0  0  0  0  0  0  0  0
   -3.3256    5.1891  -19.2051 C   0  0  0  0  0  0  0  0  0  0  0  0
   -3.6188    5.9668  -20.4371 N   0  0  0  0  0  0  0  0  0  0  0  0
   -4.9449    6.3036  -19.8510 C   0  0  0  0  0  0  0  0  0  0  0  0
   -3.6625    5.4083  -21.2895 H   0  0  0  0  0  0  0  0  0  0  0  0
   -9.0648    6.6210  -14.0068 O   0  0  0  0  0  0  0  0  0  0  0  0
   -8.6881    5.5235  -14.1363 C   0  0  0  0  0  0  0  0  0  0  0  0
   -8.3804    4.4396  -13.0804 N   0  0  0  0  0  0  0  0  0  0  0  0
   -8.1460    3.5581  -13.4509 H   0  0  0  0  0  0  0  0  0  0  0  0
   -8.3807    4.5063  -11.6840 C   0  0  0  0  0  0  0  0  0  0  0  0
   -8.0109    5.6593  -11.0012 C   0  0  0  0  0  0  0  0  0  0  0  0
   -7.9512    5.6599   -9.5990 C   0  0  0  0  0  0  0  0  0  0  0  0
   -8.2685    4.5129   -8.8479 C   0  0  0  0  0  0  0  0  0  0  0  0
   -8.6437    3.3613   -9.5499 C   0  0  0  0  0  0  0  0  0  0  0  0
   -8.7129    3.3769  -10.9425 C   0  0  0  0  0  0  0  0  0  0  0  0
   -9.1203    2.2767  -11.5806 F   0  0  0  0  0  0  0  0  0  0  0  0
   -8.1247    4.5135   -7.3405 C   0  0  0  0  0  0  0  0  0  0  0  0
   -8.8978    3.4566   -6.5655 C   0  0  0  0  0  0  0  0  0  0  0  0
   -8.9033    4.0286   -5.1668 C   0  0  0  0  0  0  0  0  0  0  0  0
   -9.0292    5.4503   -5.3163 O   0  0  0  0  0  0  0  0  0  0  0  0
   -8.5927    5.7925   -6.6416 C   0  0  0  0  0  0  0  0  0  0  0  0
 22 23  2  0  0  0
 23 24  1  0  0  0
 24 26  1  0  0  0
 26 27  2  0  0  0
 27 28  1  0  0  0
 28 29  2  0  0  0
 33 29  1  0  0  0
 33 34  1  0  0  0
 34 35  1  0  0  0
 35 36  1  0  0  0
 36 37  1  0  0  0
 29 30  1  0  0  0
 30 31  2  0  0  0
 31 32  1  0  0  0
 23  1  1  0  0  0
  1  2  2  0  0  0
  2  3  1  0  0  0
  3  4  1  0  0  0
  3  5  2  0  0  0
  5  6  1  0  0  0
  6  7  2  0  0  0
  7  8  1  0  0  0
  8  9  1  0  0  0
  9 10  1  0  0  0
 10 11  1  0  0  0
 11 12  1  0  0  0
 12 13  1  0  0  0
 13 14  1  0  0  0
  9 15  1  0  0  0
 15 17  1  0  0  0
 17 18  1  0  0  0
 18 19  1  0  0  0
 19 20  1  0  0  0
 31 26  1  0  0  0
  7  1  1  0  0  0
 14  9  1  0  0  0
 20 17  1  0  0  0
 37 33  1  0  0  0
 15  6  1  0  0  0
 24 25  1  0  0  0
 12 16  1  0  0  0
 19 21  1  0  0  0
M  END
> <minimizedAffinity>
-8.77096

> <minimizedRMSD>
0.71045

$$$$
P28479


 38 44  0  0  0  0  0  0  0  0999 V2000
   -8.2530    5.3790  -15.1362 C   0  0  0  0  0  0  0  0  0  0  0  0
   -9.3287    4.9261  -15.8889 C   0  0  0  0  0  0  0  0  0  0  0  0
   -9.1343    4.5992  -17.2311 C   0  0  0  0  0  0  0  0  0  0  0  0
  -10.5036    4.2662  -18.2027 Cl  0  0  0  0  0  0  0  0  0  0  0  0
   -7.8609    4.5984  -17.8004 C   0  0  0  0  0  0  0  0  0  0  0  0
   -6.7818    4.9767  -17.0181 C   0  0  0  0  0  0  0  0  0  0  0  0
   -6.9984    5.4338  -15.7222 C   0  0  0  0  0  0  0  0  0  0  0  0
   -5.7460    6.0400  -15.1985 C   0  0  0  0  0  0  0  0  0  0  0  0
   -4.6935    5.4236  -16.1622 C   0  0  0  0  0  0  0  0  0  0  0  0
   -3.8751    4.3773  -15.3987 C   0  0  0  0  0  0  0  0  0  0  0  0
   -2.8694    5.1554  -14.6145 N   0  0  0  0  0  0  0  0  0  0  0  0
   -2.8294    6.5191  -15.2123 C   0  0  0  0  0  0  0  0  0  0  0  0
   -3.5414    6.3552  -16.5469 C   0  0  0  0  0  0  0  0  0  0  0  0
   -3.9993    7.5146  -17.2242 O   0  0  0  0  0  0  0  0  0  0  0  0
   -4.7324    7.1712  -18.4253 C   0  0  0  0  0  0  0  0  0  0  0  0
   -3.9389    7.4804  -19.6241 N   0  0  0  0  0  0  0  0  0  0  0  0
   -3.1330    6.2795  -19.8795 C   0  0  0  0  0  0  0  0  0  0  0  0
   -3.8917    5.0891  -19.3102 C   0  0  0  0  0  0  0  0  0  0  0  0
   -5.1173    5.6762  -18.6215 C   0  0  0  0  0  0  0  0  0  0  0  0
   -5.4135    4.9385  -17.3791 N   0  0  0  0  0  0  0  0  0  0  0  0
   -1.9522    4.7141  -14.6818 H   0  0  0  0  0  0  0  0  0  0  0  0
   -3.3357    8.2854  -19.4548 H   0  0  0  0  0  0  0  0  0  0  0  0
   -8.7771    6.9609  -13.5716 O   0  0  0  0  0  0  0  0  0  0  0  0
   -8.4678    5.8515  -13.7538 C   0  0  0  0  0  0  0  0  0  0  0  0
   -8.1614    4.7212  -12.7502 N   0  0  0  0  0  0  0  0  0  0  0  0
   -7.8447    3.8829  -13.1578 H   0  0  0  0  0  0  0  0  0  0  0  0
   -8.2598    4.6933  -11.3601 C   0  0  0  0  0  0  0  0  0  0  0  0
   -7.8908    5.7699  -10.5615 C   0  0  0  0  0  0  0  0  0  0  0  0
   -7.9038    5.6445   -9.1644 C   0  0  0  0  0  0  0  0  0  0  0  0
   -8.2588    4.4339   -8.5460 C   0  0  0  0  0  0  0  0  0  0  0  0
   -8.6747    3.3704   -9.3659 C   0  0  0  0  0  0  0  0  0  0  0  0
   -8.6795    3.5117  -10.7520 C   0  0  0  0  0  0  0  0  0  0  0  0
   -9.0073    2.4640  -11.5215 F   0  0  0  0  0  0  0  0  0  0  0  0
   -8.1169    4.1943   -7.0491 C   0  0  0  0  0  0  0  0  0  0  0  0
   -8.3834    5.4607   -6.2509 C   0  0  0  0  0  0  0  0  0  0  0  0
   -9.8658    5.4002   -5.9569 C   0  0  0  0  0  0  0  0  0  0  0  0
  -10.2226    4.0150   -5.9017 O   0  0  0  0  0  0  0  0  0  0  0  0
   -9.1195    3.2421   -6.4053 C   0  0  0  0  0  0  0  0  0  0  0  0
 23 24  2  0  0  0
 24 25  1  0  0  0
 25 27  1  0  0  0
 27 28  2  0  0  0
 28 29  1  0  0  0
 29 30  2  0  0  0
 34 30  1  0  0  0
 34 35  1  0  0  0
 35 36  1  0  0  0
 36 37  1  0  0  0
 37 38  1  0  0  0
 30 31  1  0  0  0
 31 32  2  0  0  0
 32 33  1  0  0  0
 24  1  1  0  0  0
  1  2  2  0  0  0
  2  3  1  0  0  0
  3  4  1  0  0  0
  3  5  2  0  0  0
  5  6  1  0  0  0
  6  7  2  0  0  0
  7  8  1  0  0  0
  9  8  1  0  0  0
  9 10  1  0  0  0
 10 11  1  0  0  0
 11 12  1  0  0  0
 13 12  1  0  0  0
 13 14  1  0  0  0
 14 15  1  0  0  0
 15 16  1  0  0  0
 16 17  1  0  0  0
 17 18  1  0  0  0
 19 18  1  0  0  0
 19 20  1  0  0  0
 32 27  1  0  0  0
  7  1  1  0  0  0
 13  9  1  0  0  0
 19 15  1  0  0  0
 38 34  1  0  0  0
 20  6  1  0  0  0
 20  9  1  0  0  0
 25 26  1  0  0  0
 11 21  1  0  0  0
 16 22  1  0  0  0
M  END
> <minimizedAffinity>
-8.75107

> <minimizedRMSD>
1.20639

$$$$
P28482


 40 46  0  0  0  0  0  0  0  0999 V2000
   -7.7677    5.1121  -15.0878 C   0  0  0  0  0  0  0  0  0  0  0  0
   -8.8170    4.6120  -15.8821 C   0  0  0  0  0  0  0  0  0  0  0  0
   -8.7154    4.4754  -17.3102 C   0  0  0  0  0  0  0  0  0  0  0  0
  -10.1531    4.0397  -18.1511 Cl  0  0  0  0  0  0  0  0  0  0  0  0
   -7.5749    4.7918  -18.0875 C   0  0  0  0  0  0  0  0  0  0  0  0
   -6.5619    5.2701  -17.2712 C   0  0  0  0  0  0  0  0  0  0  0  0
   -5.3710    5.8197  -17.6490 C   0  0  0  0  0  0  0  0  0  0  0  0
   -4.7086    6.1571  -16.5013 N   0  0  0  0  0  0  0  0  0  0  0  0
   -5.4553    5.9518  -15.3932 C   0  0  0  0  0  0  0  0  0  0  0  0
   -6.6402    5.4139  -15.8465 C   0  0  0  0  0  0  0  0  0  0  0  0
   -3.4359    6.8124  -16.7086 C   0  0  0  0  0  0  0  0  0  0  0  0
   -3.3148    6.8619  -18.2443 C   0  0  0  0  0  0  0  0  0  0  0  0
   -2.1331    6.0528  -18.7779 C   0  0  0  0  0  0  0  0  0  0  0  0
   -2.6748    5.3443  -20.0250 C   0  0  0  0  0  0  0  0  0  0  0  0
   -2.4742    6.1489  -21.3107 C   0  0  0  0  0  0  0  0  0  0  0  0
   -1.1501    5.7175  -21.8002 N   0  0  0  0  0  0  0  0  0  0  0  0
   -1.0345    4.3844  -21.3795 N   0  0  0  0  0  0  0  0  0  0  0  0
   -1.8274    4.1260  -20.2768 C   0  0  0  0  0  0  0  0  0  0  0  0
   -1.8044    3.1061  -19.6126 O   0  0  0  0  0  0  0  0  0  0  0  0
   -4.1189    5.0214  -19.6615 C   0  0  0  0  0  0  0  0  0  0  0  0
   -4.6017    6.2035  -18.8442 C   0  0  0  0  0  0  0  0  0  0  0  0
   -0.4112    6.2895  -21.3912 H   0  0  0  0  0  0  0  0  0  0  0  0
   -0.4594    3.7150  -21.8159 H   0  0  0  0  0  0  0  0  0  0  0  0
   -7.7244    6.6338  -13.4134 O   0  0  0  0  0  0  0  0  0  0  0  0
   -7.9291    5.5185  -13.6890 C   0  0  0  0  0  0  0  0  0  0  0  0
   -8.3259    4.3256  -12.7976 N   0  0  0  0  0  0  0  0  0  0  0  0
   -8.5175    3.4922  -13.2856 H   0  0  0  0  0  0  0  0  0  0  0  0
   -8.4574    4.2347  -11.4174 C   0  0  0  0  0  0  0  0  0  0  0  0
   -8.7036    3.0055  -10.8223 C   0  0  0  0  0  0  0  0  0  0  0  0
   -8.8331    2.9118   -9.4279 C   0  0  0  0  0  0  0  0  0  0  0  0
   -8.7340    4.0359   -8.5875 C   0  0  0  0  0  0  0  0  0  0  0  0
   -8.4679    5.2590   -9.2374 C   0  0  0  0  0  0  0  0  0  0  0  0
   -8.3775    6.4030   -8.5362 F   0  0  0  0  0  0  0  0  0  0  0  0
   -8.3303    5.3637  -10.6204 C   0  0  0  0  0  0  0  0  0  0  0  0
   -8.9115    3.9380   -7.2089 N   0  0  0  0  0  0  0  0  0  0  0  0
   -7.9413    4.5540   -6.2999 C   0  0  0  0  0  0  0  0  0  0  0  0
   -7.9659    3.8866   -4.9260 C   0  0  0  0  0  0  0  0  0  0  0  0
   -9.3568    3.9281   -4.3018 C   0  0  0  0  0  0  0  0  0  0  0  0
  -10.4671    3.7315   -5.3322 C   0  0  0  0  0  0  0  0  0  0  0  0
   -9.9629    3.0962   -6.6280 C   0  0  0  0  0  0  0  0  0  0  0  0
 24 25  2  0  0  0
 25 26  1  0  0  0
 26 28  1  0  0  0
 28 29  2  0  0  0
 29 30  1  0  0  0
 30 31  2  0  0  0
 31 35  1  0  0  0
 35 36  1  0  0  0
 36 37  1  0  0  0
 37 38  1  0  0  0
 38 39  1  0  0  0
 39 40  1  0  0  0
 31 32  1  0  0  0
 32 33  1  0  0  0
 32 34  2  0  0  0
 25  1  1  0  0  0
  1  2  2  0  0  0
  2  3  1  0  0  0
  3  4  1  0  0  0
  3  5  2  0  0  0
  5  6  1  0  0  0
  6  7  2  0  0  0
  7  8  1  0  0  0
  8  9  1  0  0  0
  9 10  2  0  0  0
  8 11  1  0  0  0
 12 11  1  0  0  0
 12 13  1  0  0  0
 14 13  1  0  0  0
 14 15  1  0  0  0
 15 16  1  0  0  0
 16 17  1  0  0  0
 17 18  1  0  0  0
 18 19  2  0  0  0
 14 20  1  0  0  0
 21 20  1  0  0  0
 34 28  1  0  0  0
 10  1  1  0  0  0
 21 12  1  0  0  0
 40 35  1  0  0  0
 10  6  1  0  0  0
 18 14  1  0  0  0
 21  7  1  0  0  0
 26 27  1  0  0  0
 16 22  1  0  0  0
 17 23  1  0  0  0
M  END
> <minimizedAffinity>
-10.97664

> <minimizedRMSD>
0.27282

$$$$
P28483


 33 37  0  0  0  0  0  0  0  0999 V2000
   -7.1642    6.4781  -13.5231 O   0  0  0  0  0  0  0  0  0  0  0  0
   -7.6764    5.4751  -13.8286 C   0  0  0  0  0  0  0  0  0  0  0  0
   -8.3775    4.4063  -12.9644 N   0  0  0  0  0  0  0  0  0  0  0  0
   -8.8016    3.6781  -13.4734 H   0  0  0  0  0  0  0  0  0  0  0  0
   -7.7040    5.1088  -15.2627 C   0  0  0  0  0  0  0  0  0  0  0  0
   -8.9305    4.8745  -15.8939 C   0  0  0  0  0  0  0  0  0  0  0  0
   -8.9782    4.6902  -17.2699 C   0  0  0  0  0  0  0  0  0  0  0  0
  -10.5062    4.5197  -18.0270 Cl  0  0  0  0  0  0  0  0  0  0  0  0
   -7.8299    4.7384  -18.0617 C   0  0  0  0  0  0  0  0  0  0  0  0
   -6.6074    4.9428  -17.4148 C   0  0  0  0  0  0  0  0  0  0  0  0
   -6.5006    5.1055  -16.0079 C   0  0  0  0  0  0  0  0  0  0  0  0
   -5.0969    5.2025  -15.6293 C   0  0  0  0  0  0  0  0  0  0  0  0
   -4.3821    5.0895  -16.7604 N   0  0  0  0  0  0  0  0  0  0  0  0
   -3.1563    4.8962  -16.9238 O   0  0  0  0  0  0  0  0  0  0  0  0
   -5.3076    5.0441  -17.8775 N   0  0  0  0  0  0  0  0  0  0  0  0
   -4.9711    5.1910  -19.3022 C   0  0  0  0  0  0  0  0  0  0  0  0
   -4.7214    6.6661  -19.6936 C   0  0  0  0  0  0  0  0  0  0  0  0
   -3.7060    6.1724  -20.6646 N   0  0  0  0  0  0  0  0  0  0  0  0
   -3.4950    5.0242  -19.7356 C   0  0  0  0  0  0  0  0  0  0  0  0
   -2.8961    6.7811  -20.7829 H   0  0  0  0  0  0  0  0  0  0  0  0
   -8.5077    4.3041  -11.5851 C   0  0  0  0  0  0  0  0  0  0  0  0
   -8.7486    3.0528  -11.0433 C   0  0  0  0  0  0  0  0  0  0  0  0
   -8.8129    2.8874   -9.6586 C   0  0  0  0  0  0  0  0  0  0  0  0
   -8.6466    3.9550   -8.7573 C   0  0  0  0  0  0  0  0  0  0  0  0
   -8.4512    5.2175   -9.3508 C   0  0  0  0  0  0  0  0  0  0  0  0
   -8.2498    6.3084   -8.5919 F   0  0  0  0  0  0  0  0  0  0  0  0
   -8.3768    5.3962  -10.7388 C   0  0  0  0  0  0  0  0  0  0  0  0
   -8.6176    3.7302   -7.3880 N   0  0  0  0  0  0  0  0  0  0  0  0
   -8.7683    2.3732   -6.8526 C   0  0  0  0  0  0  0  0  0  0  0  0
  -10.2101    2.2074   -6.4123 C   0  0  0  0  0  0  0  0  0  0  0  0
  -10.4819    3.2028   -5.2951 C   0  0  0  0  0  0  0  0  0  0  0  0
  -10.0752    4.6428   -5.6283 C   0  0  0  0  0  0  0  0  0  0  0  0
   -8.7464    4.7820   -6.3849 C   0  0  0  0  0  0  0  0  0  0  0  0
  1  2  2  0  0  0
  2  3  1  0  0  0
  3 21  1  0  0  0
 21 22  2  0  0  0
 22 23  1  0  0  0
 23 24  2  0  0  0
 24 28  1  0  0  0
 28 29  1  0  0  0
 29 30  1  0  0  0
 30 31  1  0  0  0
 31 32  1  0  0  0
 32 33  1  0  0  0
 24 25  1  0  0  0
 25 26  1  0  0  0
 25 27  2  0  0  0
  2  5  1  0  0  0
  5  6  2  0  0  0
  6  7  1  0  0  0
  7  8  1  0  0  0
  7  9  2  0  0  0
  9 10  1  0  0  0
 10 11  2  0  0  0
 11 12  1  0  0  0
 12 13  2  0  0  0
 13 14  1  0  0  0
 13 15  1  0  0  0
 15 16  1  0  0  0
 16 17  1  0  0  0
 17 18  1  0  0  0
 18 19  1  0  0  0
 27 21  1  0  0  0
 11  5  1  0  0  0
 19 16  1  0  0  0
 33 28  1  0  0  0
 15 10  1  0  0  0
  3  4  1  0  0  0
 18 20  1  0  0  0
M  CHG 1  13   1
M  CHG 1  14  -1
M  END
> <minimizedAffinity>
-9.70717

> <minimizedRMSD>
0.37216

$$$$
P28485


 38 42  0  0  0  0  0  0  0  0999 V2000
   -5.2624    5.2707  -16.4529 N   0  0  0  0  0  0  0  0  0  0  0  0
   -6.2771    5.3673  -15.5172 C   0  0  0  0  0  0  0  0  0  0  0  0
   -7.4567    5.0853  -16.1455 C   0  0  0  0  0  0  0  0  0  0  0  0
   -8.7273    5.0520  -15.5774 C   0  0  0  0  0  0  0  0  0  0  0  0
   -9.7287    4.7584  -16.5179 C   0  0  0  0  0  0  0  0  0  0  0  0
   -9.4393    4.5603  -17.9036 C   0  0  0  0  0  0  0  0  0  0  0  0
  -10.7921    4.3972  -18.9518 Cl  0  0  0  0  0  0  0  0  0  0  0  0
   -8.1467    4.5969  -18.4806 C   0  0  0  0  0  0  0  0  0  0  0  0
   -7.1728    4.8683  -17.5194 C   0  0  0  0  0  0  0  0  0  0  0  0
   -5.8161    5.0616  -17.7153 C   0  0  0  0  0  0  0  0  0  0  0  0
   -5.1673    5.0836  -19.1480 C   0  0  0  0  0  0  0  0  0  0  0  0
   -4.9354    6.5038  -19.7215 C   0  0  0  0  0  0  0  0  0  0  0  0
   -3.7672    5.9572  -20.4672 N   0  0  0  0  0  0  0  0  0  0  0  0
   -3.6514    4.9368  -19.3896 C   0  0  0  0  0  0  0  0  0  0  0  0
   -2.9725    6.5924  -20.5403 H   0  0  0  0  0  0  0  0  0  0  0  0
   -9.0333    5.4910  -14.2177 C   0  0  0  0  0  0  0  0  0  0  0  0
   -9.7358    6.4129  -14.0801 O   0  0  0  0  0  0  0  0  0  0  0  0
   -8.3839    4.5630  -13.1698 N   0  0  0  0  0  0  0  0  0  0  0  0
   -7.8879    3.8002  -13.5458 H   0  0  0  0  0  0  0  0  0  0  0  0
   -8.3853    4.6285  -11.7837 C   0  0  0  0  0  0  0  0  0  0  0  0
   -8.5357    3.4673  -11.0329 C   0  0  0  0  0  0  0  0  0  0  0  0
   -8.5485    3.5353   -9.6325 C   0  0  0  0  0  0  0  0  0  0  0  0
   -8.4341    4.7612   -8.9564 C   0  0  0  0  0  0  0  0  0  0  0  0
   -8.2691    5.9089   -9.7539 C   0  0  0  0  0  0  0  0  0  0  0  0
   -8.1765    7.1229   -9.1841 F   0  0  0  0  0  0  0  0  0  0  0  0
   -8.2387    5.8507  -11.1412 C   0  0  0  0  0  0  0  0  0  0  0  0
   -8.4972    4.8768   -7.5593 N   0  0  0  0  0  0  0  0  0  0  0  0
   -7.1853    5.1278   -6.9359 C   0  0  0  0  0  0  0  0  0  0  0  0
   -7.2957    5.0677   -5.4155 C   0  0  0  0  0  0  0  0  0  0  0  0
   -7.8040    3.7075   -4.9421 C   0  0  0  0  0  0  0  0  0  0  0  0
   -8.7188    3.0270   -5.9623 C   0  0  0  0  0  0  0  0  0  0  0  0
   -9.4436    4.0460   -6.8103 C   0  0  0  0  0  0  0  0  0  0  0  0
   -3.5400    6.9085  -15.8166 C   0  0  0  0  0  0  0  0  0  0  0  0
   -3.8477    5.4352  -16.0952 C   0  0  0  0  0  0  0  0  0  0  0  0
   -3.3936    4.5266  -14.9182 C   0  0  0  0  0  0  0  0  0  0  0  0
   -3.0639    5.2498  -13.6830 N   0  0  0  0  0  0  0  0  0  0  0  0
   -2.2744    5.8725  -13.8540 H   0  0  0  0  0  0  0  0  0  0  0  0
   -2.8178    4.5812  -12.9530 H   0  0  0  0  0  0  0  0  0  0  0  0
 34 33  1  0  0  0
 34 35  1  0  0  0
 35 36  1  0  0  0
 34  1  1  0  0  0
  1  2  1  0  0  0
  2  3  2  0  0  0
  3  4  1  0  0  0
  4 16  1  0  0  0
 16 17  2  0  0  0
 16 18  1  0  0  0
 18 20  1  0  0  0
 20 21  2  0  0  0
 21 22  1  0  0  0
 22 23  2  0  0  0
 23 27  1  0  0  0
 27 28  1  0  0  0
 28 29  1  0  0  0
 29 30  1  0  0  0
 30 31  1  0  0  0
 31 32  1  0  0  0
 23 24  1  0  0  0
 24 25  1  0  0  0
 24 26  2  0  0  0
  4  5  2  0  0  0
  5  6  1  0  0  0
  6  7  1  0  0  0
  6  8  2  0  0  0
  8  9  1  0  0  0
  9 10  2  0  0  0
 10 11  1  0  0  0
 11 12  1  0  0  0
 12 13  1  0  0  0
 13 14  1  0  0  0
 10  1  1  0  0  0
 14 11  1  0  0  0
  9  3  1  0  0  0
 26 20  1  0  0  0
 32 27  1  0  0  0
 36 37  1  0  0  0
 36 38  1  0  0  0
 18 19  1  0  0  0
 13 15  1  0  0  0
M  END
> <minimizedAffinity>
-8.25844

> <minimizedRMSD>
1.07620

$$$$
P28495


 35 39  0  0  0  0  0  0  0  0999 V2000
   -4.1086    4.9984  -18.0092 C   0  0  0  0  0  0  0  0  0  0  0  0
   -4.7237    5.0262  -16.7701 C   0  0  0  0  0  0  0  0  0  0  0  0
   -6.1117    4.8256  -16.9421 C   0  0  0  0  0  0  0  0  0  0  0  0
   -7.2107    4.7563  -16.0650 C   0  0  0  0  0  0  0  0  0  0  0  0
   -8.4961    4.4941  -16.5371 C   0  0  0  0  0  0  0  0  0  0  0  0
   -8.6999    4.3748  -17.8991 C   0  0  0  0  0  0  0  0  0  0  0  0
  -10.3070    4.2203  -18.4805 Cl  0  0  0  0  0  0  0  0  0  0  0  0
   -7.6390    4.4642  -18.8058 C   0  0  0  0  0  0  0  0  0  0  0  0
   -6.3375    4.6869  -18.3106 C   0  0  0  0  0  0  0  0  0  0  0  0
   -5.1132    4.8641  -18.9506 N   0  0  0  0  0  0  0  0  0  0  0  0
   -5.0679    4.9895  -20.4297 C   0  0  0  0  0  0  0  0  0  0  0  0
   -4.7186    6.4116  -20.9054 C   0  0  0  0  0  0  0  0  0  0  0  0
   -4.0535    5.7929  -22.0863 N   0  0  0  0  0  0  0  0  0  0  0  0
   -3.8409    4.5736  -21.2502 C   0  0  0  0  0  0  0  0  0  0  0  0
   -3.1964    6.2589  -22.3838 H   0  0  0  0  0  0  0  0  0  0  0  0
   -7.0212    5.1060  -14.6507 C   0  0  0  0  0  0  0  0  0  0  0  0
   -6.1623    5.8391  -14.3629 O   0  0  0  0  0  0  0  0  0  0  0  0
   -8.0881    4.4282  -13.7759 N   0  0  0  0  0  0  0  0  0  0  0  0
   -8.7578    3.9056  -14.2736 H   0  0  0  0  0  0  0  0  0  0  0  0
   -8.2606    4.4328  -12.4049 C   0  0  0  0  0  0  0  0  0  0  0  0
   -8.3373    3.2146  -11.7415 C   0  0  0  0  0  0  0  0  0  0  0  0
   -8.4546    3.1781  -10.3561 C   0  0  0  0  0  0  0  0  0  0  0  0
   -8.5131    4.3613   -9.6179 C   0  0  0  0  0  0  0  0  0  0  0  0
   -8.4572    5.5802  -10.3184 C   0  0  0  0  0  0  0  0  0  0  0  0
   -8.5024    6.7453   -9.6488 F   0  0  0  0  0  0  0  0  0  0  0  0
   -8.3260    5.6245  -11.6965 C   0  0  0  0  0  0  0  0  0  0  0  0
   -8.5133    4.3664   -8.2189 N   0  0  0  0  0  0  0  0  0  0  0  0
   -9.3186    3.3634   -7.5099 C   0  0  0  0  0  0  0  0  0  0  0  0
   -8.4966    2.6157   -6.4807 C   0  0  0  0  0  0  0  0  0  0  0  0
   -7.7828    3.5802   -5.5257 C   0  0  0  0  0  0  0  0  0  0  0  0
   -7.1979    4.7991   -6.2267 C   0  0  0  0  0  0  0  0  0  0  0  0
   -7.1464    4.5931   -7.7316 C   0  0  0  0  0  0  0  0  0  0  0  0
   -2.6458    5.1097  -18.2447 C   0  0  0  0  0  0  0  0  0  0  0  0
   -1.3479    6.7400  -19.3261 C   0  0  0  0  0  0  0  0  0  0  0  0
   -2.3514    6.4939  -18.3510 O   0  0  0  0  0  0  0  0  0  0  0  0
 34 35  1  0  0  0
 35 33  1  0  0  0
 33  1  1  0  0  0
  1  2  2  0  0  0
  2  3  1  0  0  0
  3  4  2  0  0  0
  4 16  1  0  0  0
 16 17  2  0  0  0
 16 18  1  0  0  0
 18 20  1  0  0  0
 20 21  2  0  0  0
 21 22  1  0  0  0
 22 23  2  0  0  0
 23 27  1  0  0  0
 27 28  1  0  0  0
 28 29  1  0  0  0
 29 30  1  0  0  0
 30 31  1  0  0  0
 31 32  1  0  0  0
 23 24  1  0  0  0
 24 25  1  0  0  0
 24 26  2  0  0  0
  4  5  1  0  0  0
  5  6  2  0  0  0
  6  7  1  0  0  0
  6  8  1  0  0  0
  8  9  2  0  0  0
  9 10  1  0  0  0
 10 11  1  0  0  0
 11 12  1  0  0  0
 12 13  1  0  0  0
 13 14  1  0  0  0
 10  1  1  0  0  0
 14 11  1  0  0  0
  9  3  1  0  0  0
 26 20  1  0  0  0
 32 27  1  0  0  0
 18 19  1  0  0  0
 13 15  1  0  0  0
M  END
> <minimizedAffinity>
-7.88017

> <minimizedRMSD>
0.79346

$$$$
P28497


 39 43  0  0  0  0  0  0  0  0999 V2000
   -5.4838    5.0233  -15.0180 C   0  0  0  0  0  0  0  0  0  0  0  0
   -4.6034    5.0868  -16.0270 N   0  0  0  0  0  0  0  0  0  0  0  0
   -5.3434    5.1451  -17.1504 N   0  0  0  0  0  0  0  0  0  0  0  0
   -6.6925    4.9295  -16.9166 C   0  0  0  0  0  0  0  0  0  0  0  0
   -7.8275    4.7241  -17.7329 C   0  0  0  0  0  0  0  0  0  0  0  0
   -9.0943    4.7530  -17.1344 C   0  0  0  0  0  0  0  0  0  0  0  0
  -10.5316    4.7202  -18.0775 Cl  0  0  0  0  0  0  0  0  0  0  0  0
   -9.2398    4.9158  -15.7648 C   0  0  0  0  0  0  0  0  0  0  0  0
   -8.1113    5.0355  -14.9581 C   0  0  0  0  0  0  0  0  0  0  0  0
   -6.8176    5.0040  -15.5205 C   0  0  0  0  0  0  0  0  0  0  0  0
   -4.7871    5.9013  -18.2986 C   0  0  0  0  0  0  0  0  0  0  0  0
   -4.0845    5.0977  -19.3787 C   0  0  0  0  0  0  0  0  0  0  0  0
   -2.9781    6.0842  -19.3829 N   0  0  0  0  0  0  0  0  0  0  0  0
   -3.3713    6.4630  -18.0127 C   0  0  0  0  0  0  0  0  0  0  0  0
   -3.0783    6.8290  -20.0726 H   0  0  0  0  0  0  0  0  0  0  0  0
   -8.2977    5.4844  -13.5719 C   0  0  0  0  0  0  0  0  0  0  0  0
   -8.3339    6.6372  -13.3890 O   0  0  0  0  0  0  0  0  0  0  0  0
   -8.4361    4.3094  -12.5811 N   0  0  0  0  0  0  0  0  0  0  0  0
   -8.4461    3.4176  -12.9982 H   0  0  0  0  0  0  0  0  0  0  0  0
   -8.5489    4.3050  -11.1951 C   0  0  0  0  0  0  0  0  0  0  0  0
   -8.7568    3.1088  -10.5171 C   0  0  0  0  0  0  0  0  0  0  0  0
   -8.7765    3.0927   -9.1127 C   0  0  0  0  0  0  0  0  0  0  0  0
   -8.6160    4.2651   -8.3485 C   0  0  0  0  0  0  0  0  0  0  0  0
   -8.4466    5.4563   -9.0794 C   0  0  0  0  0  0  0  0  0  0  0  0
   -8.3314    6.6404   -8.4534 F   0  0  0  0  0  0  0  0  0  0  0  0
   -8.4040    5.4812  -10.4721 C   0  0  0  0  0  0  0  0  0  0  0  0
   -8.5576    4.1864   -6.9479 N   0  0  0  0  0  0  0  0  0  0  0  0
   -7.3609    4.6968   -6.2668 C   0  0  0  0  0  0  0  0  0  0  0  0
   -7.2488    4.0910   -4.8664 C   0  0  0  0  0  0  0  0  0  0  0  0
   -8.5274    4.2945   -4.0626 C   0  0  0  0  0  0  0  0  0  0  0  0
   -9.7239    3.7607   -4.8406 C   0  0  0  0  0  0  0  0  0  0  0  0
   -9.8176    4.3973   -6.2216 C   0  0  0  0  0  0  0  0  0  0  0  0
   -5.0460    4.9196  -13.6189 C   0  0  0  0  0  0  0  0  0  0  0  0
   -5.3365    3.9723  -12.8989 O   0  0  0  0  0  0  0  0  0  0  0  0
   -4.2579    5.9661  -13.2271 O   0  0  0  0  0  0  0  0  0  0  0  0
   -2.8141    5.9453  -11.3261 C   0  0  0  0  0  0  0  0  0  0  0  0
   -2.9511    5.5791  -12.7910 C   0  0  0  0  0  0  0  0  0  0  0  0
   -7.6654    4.3057  -19.0840 C   0  0  0  0  0  0  0  0  0  0  0  0
   -7.4892    3.8176  -20.1243 N   0  0  0  0  0  0  0  0  0  0  0  0
 36 37  1  0  0  0
 37 35  1  0  0  0
 35 33  1  0  0  0
 33 34  2  0  0  0
 33  1  1  0  0  0
  1  2  2  0  0  0
  2  3  1  0  0  0
  3 11  1  0  0  0
 11 12  1  0  0  0
 12 13  1  0  0  0
 13 14  1  0  0  0
  3  4  1  0  0  0
  4  5  2  0  0  0
  5 38  1  0  0  0
 38 39  3  0  0  0
  5  6  1  0  0  0
  6  7  1  0  0  0
  6  8  2  0  0  0
  8  9  1  0  0  0
  9 16  1  0  0  0
 16 17  2  0  0  0
 16 18  1  0  0  0
 18 20  1  0  0  0
 20 21  2  0  0  0
 21 22  1  0  0  0
 22 23  2  0  0  0
 23 27  1  0  0  0
 27 28  1  0  0  0
 28 29  1  0  0  0
 29 30  1  0  0  0
 30 31  1  0  0  0
 31 32  1  0  0  0
 23 24  1  0  0  0
 24 25  1  0  0  0
 24 26  2  0  0  0
  9 10  2  0  0  0
 10  1  1  0  0  0
 14 11  1  0  0  0
 10  4  1  0  0  0
 26 20  1  0  0  0
 32 27  1  0  0  0
 13 15  1  0  0  0
 18 19  1  0  0  0
M  END
> <minimizedAffinity>
-6.72848

> <minimizedRMSD>
0.80322

$$$$
P28500


 32 36  0  0  0  0  0  0  0  0999 V2000
   -7.3455    4.9234  -13.8926 C   0  0  0  0  0  0  0  0  0  0  0  0
   -7.2540    6.0447  -13.4075 O   0  0  0  0  0  0  0  0  0  0  0  0
   -7.5068    4.8039  -15.3429 C   0  0  0  0  0  0  0  0  0  0  0  0
   -8.7677    4.6519  -15.9276 C   0  0  0  0  0  0  0  0  0  0  0  0
   -8.8830    4.6619  -17.3154 C   0  0  0  0  0  0  0  0  0  0  0  0
  -10.4353    4.6128  -18.0477 Cl  0  0  0  0  0  0  0  0  0  0  0  0
   -7.7699    4.8013  -18.1490 C   0  0  0  0  0  0  0  0  0  0  0  0
   -6.5199    4.9577  -17.5382 C   0  0  0  0  0  0  0  0  0  0  0  0
   -6.3688    4.9617  -16.1548 C   0  0  0  0  0  0  0  0  0  0  0  0
   -4.9842    5.1403  -15.9486 C   0  0  0  0  0  0  0  0  0  0  0  0
   -4.3008    5.2388  -17.0911 N   0  0  0  0  0  0  0  0  0  0  0  0
   -5.2530    5.1396  -18.0429 N   0  0  0  0  0  0  0  0  0  0  0  0
   -4.9672    5.2366  -19.4819 C   0  0  0  0  0  0  0  0  0  0  0  0
   -4.8256    6.6914  -19.9679 C   0  0  0  0  0  0  0  0  0  0  0  0
   -3.7251    6.2257  -20.8640 N   0  0  0  0  0  0  0  0  0  0  0  0
   -3.4774    5.1478  -19.8627 C   0  0  0  0  0  0  0  0  0  0  0  0
   -2.9576    6.8877  -20.9784 H   0  0  0  0  0  0  0  0  0  0  0  0
   -6.6692    2.6994  -13.5635 O   0  0  0  0  0  0  0  0  0  0  0  0
   -7.2039    3.6764  -13.0491 C   0  0  0  0  0  0  0  0  0  0  0  0
   -7.6215    3.6614  -11.6237 C   0  0  0  0  0  0  0  0  0  0  0  0
   -8.4265    4.6202  -11.0084 C   0  0  0  0  0  0  0  0  0  0  0  0
   -8.6697    4.5647   -9.6201 C   0  0  0  0  0  0  0  0  0  0  0  0
   -8.1595    3.5403   -8.7965 C   0  0  0  0  0  0  0  0  0  0  0  0
   -7.3854    2.5773   -9.4779 C   0  0  0  0  0  0  0  0  0  0  0  0
   -6.8184    1.5441   -8.8477 F   0  0  0  0  0  0  0  0  0  0  0  0
   -7.1219    2.6330  -10.8440 C   0  0  0  0  0  0  0  0  0  0  0  0
   -8.3761    3.5402   -7.4128 N   0  0  0  0  0  0  0  0  0  0  0  0
   -8.6746    2.2876   -6.6956 C   0  0  0  0  0  0  0  0  0  0  0  0
  -10.1846    2.1850   -6.5587 C   0  0  0  0  0  0  0  0  0  0  0  0
  -10.7245    3.3751   -5.7594 C   0  0  0  0  0  0  0  0  0  0  0  0
   -9.6735    4.4584   -5.4914 C   0  0  0  0  0  0  0  0  0  0  0  0
   -8.8123    4.7608   -6.7239 C   0  0  0  0  0  0  0  0  0  0  0  0
 18 19  2  0  0  0
 19  1  1  0  0  0
  1  2  2  0  0  0
  1  3  1  0  0  0
  3  4  2  0  0  0
  4  5  1  0  0  0
  5  6  1  0  0  0
  5  7  2  0  0  0
  7  8  1  0  0  0
  8  9  2  0  0  0
  9 10  1  0  0  0
 10 11  2  0  0  0
 11 12  1  0  0  0
 12 13  1  0  0  0
 13 14  1  0  0  0
 14 15  1  0  0  0
 15 16  1  0  0  0
 19 20  1  0  0  0
 20 21  2  0  0  0
 21 22  1  0  0  0
 22 23  2  0  0  0
 23 27  1  0  0  0
 27 28  1  0  0  0
 28 29  1  0  0  0
 29 30  1  0  0  0
 30 31  1  0  0  0
 31 32  1  0  0  0
 23 24  1  0  0  0
 24 25  1  0  0  0
 24 26  2  0  0  0
  9  3  1  0  0  0
 16 13  1  0  0  0
 26 20  1  0  0  0
 12  8  1  0  0  0
 32 27  1  0  0  0
 15 17  1  0  0  0
M  END
> <minimizedAffinity>
-8.98925

> <minimizedRMSD>
0.48524

$$$$
P28507


 45 50  0  0  0  0  0  0  0  0999 V2000
   -7.8673    5.1110  -15.3909 C   0  0  0  0  0  0  0  0  0  0  0  0
   -9.0668    4.8462  -16.0549 C   0  0  0  0  0  0  0  0  0  0  0  0
   -9.0574    4.6459  -17.4346 C   0  0  0  0  0  0  0  0  0  0  0  0
  -10.5549    4.4491  -18.2503 Cl  0  0  0  0  0  0  0  0  0  0  0  0
   -7.8794    4.7070  -18.1907 C   0  0  0  0  0  0  0  0  0  0  0  0
   -6.6847    4.9405  -17.4959 C   0  0  0  0  0  0  0  0  0  0  0  0
   -6.6566    5.1084  -16.1127 C   0  0  0  0  0  0  0  0  0  0  0  0
   -5.2868    5.2534  -15.8006 C   0  0  0  0  0  0  0  0  0  0  0  0
   -4.5014    5.1231  -16.8718 N   0  0  0  0  0  0  0  0  0  0  0  0
   -5.3763    5.1097  -17.8961 N   0  0  0  0  0  0  0  0  0  0  0  0
   -4.9415    5.1792  -19.2969 C   0  0  0  0  0  0  0  0  0  0  0  0
   -5.3606    6.4840  -19.9971 C   0  0  0  0  0  0  0  0  0  0  0  0
   -4.0743    6.4429  -20.7419 N   0  0  0  0  0  0  0  0  0  0  0  0
   -3.4848    5.7129  -19.5380 C   0  0  0  0  0  0  0  0  0  0  0  0
   -3.6616    7.3564  -20.9304 H   0  0  0  0  0  0  0  0  0  0  0  0
   -2.8568    6.7341  -18.4712 C   0  0  0  0  0  0  0  0  0  0  0  0
   -2.5052    7.9020  -18.6365 O   0  0  0  0  0  0  0  0  0  0  0  0
   -2.4966    4.6105  -19.9412 C   0  0  0  0  0  0  0  0  0  0  0  0
   -1.0808    5.1120  -20.1163 C   0  0  0  0  0  0  0  0  0  0  0  0
   -0.6537    5.6799  -21.3253 C   0  0  0  0  0  0  0  0  0  0  0  0
    0.6569    6.1381  -21.4732 C   0  0  0  0  0  0  0  0  0  0  0  0
    1.5579    6.0314  -20.4171 C   0  0  0  0  0  0  0  0  0  0  0  0
    1.1485    5.4683  -19.2116 C   0  0  0  0  0  0  0  0  0  0  0  0
   -0.1619    5.0112  -19.0618 C   0  0  0  0  0  0  0  0  0  0  0  0
   -8.2948    4.5231  -12.9733 N   0  0  0  0  0  0  0  0  0  0  0  0
   -7.8526    5.5949  -13.9958 C   0  0  0  0  0  0  0  0  0  0  0  0
   -7.4681    6.6855  -13.8310 O   0  0  0  0  0  0  0  0  0  0  0  0
   -8.5077    3.6445  -13.3632 H   0  0  0  0  0  0  0  0  0  0  0  0
   -8.6063    3.5084   -9.4065 C   0  0  0  0  0  0  0  0  0  0  0  0
   -8.5790    3.4421  -10.8220 C   0  0  0  0  0  0  0  0  0  0  0  0
   -8.4412    4.5983  -11.5887 C   0  0  0  0  0  0  0  0  0  0  0  0
   -8.4068    5.8358  -10.9554 C   0  0  0  0  0  0  0  0  0  0  0  0
   -8.4233    5.9103   -9.5677 C   0  0  0  0  0  0  0  0  0  0  0  0
   -8.3501    7.1280   -9.0034 F   0  0  0  0  0  0  0  0  0  0  0  0
   -8.4585    4.7613   -8.7596 C   0  0  0  0  0  0  0  0  0  0  0  0
   -8.2392    4.8155   -7.3576 N   0  0  0  0  0  0  0  0  0  0  0  0
   -6.8441    5.2247   -7.0618 C   0  0  0  0  0  0  0  0  0  0  0  0
   -6.6330    5.4429   -5.5571 C   0  0  0  0  0  0  0  0  0  0  0  0
   -7.6903    4.7496   -4.7083 C   0  0  0  0  0  0  0  0  0  0  0  0
   -9.1036    5.1800   -5.1131 C   0  0  0  0  0  0  0  0  0  0  0  0
   -9.2163    5.5842   -6.5892 C   0  0  0  0  0  0  0  0  0  0  0  0
   -7.7167    1.4157   -8.3910 N   0  0  0  0  0  0  0  0  0  0  0  0
   -8.8884    2.2378   -8.6353 C   0  0  0  0  0  0  0  0  0  0  0  0
   -7.9888    0.5827   -7.8690 H   0  0  0  0  0  0  0  0  0  0  0  0
   -7.0346    1.9478   -7.8507 H   0  0  0  0  0  0  0  0  0  0  0  0
 42 43  1  0  0  0
 43 29  1  0  0  0
 29 30  2  0  0  0
 30 31  1  0  0  0
 31 25  1  0  0  0
 25 26  1  0  0  0
 26 27  2  0  0  0
 26  1  1  0  0  0
  1  2  2  0  0  0
  2  3  1  0  0  0
  3  4  1  0  0  0
  3  5  2  0  0  0
  5  6  1  0  0  0
  6  7  2  0  0  0
  7  8  1  0  0  0
  8  9  2  0  0  0
  9 10  1  0  0  0
 11 10  1  0  0  0
 11 12  1  0  0  0
 12 13  1  0  0  0
 13 14  1  0  0  0
 14 16  1  0  0  0
 16 17  2  0  0  0
 14 18  1  0  0  0
 18 19  1  0  0  0
 19 20  2  0  0  0
 20 21  1  0  0  0
 21 22  2  0  0  0
 22 23  1  0  0  0
 23 24  2  0  0  0
 31 32  2  0  0  0
 32 33  1  0  0  0
 33 34  1  0  0  0
 33 35  2  0  0  0
 35 36  1  0  0  0
 36 37  1  0  0  0
 37 38  1  0  0  0
 38 39  1  0  0  0
 39 40  1  0  0  0
 40 41  1  0  0  0
 35 29  1  0  0  0
 41 36  1  0  0  0
  7  1  1  0  0  0
 14 11  1  0  0  0
 24 19  1  0  0  0
 10  6  1  0  0  0
 42 44  1  0  0  0
 42 45  1  0  0  0
 25 28  1  0  0  0
 13 15  1  0  0  0
M  END
> <minimizedAffinity>
-9.15322

> <minimizedRMSD>
0.52579

$$$$
P28508


 42 47  0  0  0  0  0  0  0  0999 V2000
   -8.3522    4.5243  -12.8131 N   0  0  0  0  0  0  0  0  0  0  0  0
   -8.0682    5.6383  -13.8461 C   0  0  0  0  0  0  0  0  0  0  0  0
   -7.9343    6.7898  -13.7005 O   0  0  0  0  0  0  0  0  0  0  0  0
   -8.4994    3.6311  -13.2002 H   0  0  0  0  0  0  0  0  0  0  0  0
   -7.9481    5.1143  -15.2276 C   0  0  0  0  0  0  0  0  0  0  0  0
   -9.0871    4.7215  -15.9286 C   0  0  0  0  0  0  0  0  0  0  0  0
   -8.9998    4.5338  -17.3013 C   0  0  0  0  0  0  0  0  0  0  0  0
  -10.4455    4.3262  -18.1938 Cl  0  0  0  0  0  0  0  0  0  0  0  0
   -7.7913    4.6603  -17.9989 C   0  0  0  0  0  0  0  0  0  0  0  0
   -6.6439    5.0355  -17.2777 C   0  0  0  0  0  0  0  0  0  0  0  0
   -6.7138    5.2626  -15.9036 C   0  0  0  0  0  0  0  0  0  0  0  0
   -5.4335    5.7091  -15.5048 C   0  0  0  0  0  0  0  0  0  0  0  0
   -4.6193    5.8296  -16.6167 C   0  0  0  0  0  0  0  0  0  0  0  0
   -5.3430    5.3267  -17.6848 N   0  0  0  0  0  0  0  0  0  0  0  0
   -4.9669    5.2248  -19.1165 C   0  0  0  0  0  0  0  0  0  0  0  0
   -4.7739    6.5824  -19.8073 C   0  0  0  0  0  0  0  0  0  0  0  0
   -3.6474    5.9888  -20.5712 N   0  0  0  0  0  0  0  0  0  0  0  0
   -3.5085    4.9608  -19.5038 C   0  0  0  0  0  0  0  0  0  0  0  0
   -2.8386    6.6019  -20.6730 H   0  0  0  0  0  0  0  0  0  0  0  0
   -3.2808    6.5025  -16.6394 C   0  0  0  0  0  0  0  0  0  0  0  0
   -2.2047    5.6582  -16.1126 N   0  0  0  0  0  0  0  0  0  0  0  0
   -2.1110    5.6815  -14.6463 C   0  0  0  0  0  0  0  0  0  0  0  0
   -0.6440    5.4021  -14.3277 C   0  0  0  0  0  0  0  0  0  0  0  0
    0.0680    5.4078  -15.6703 C   0  0  0  0  0  0  0  0  0  0  0  0
   -0.8983    6.1271  -16.5891 C   0  0  0  0  0  0  0  0  0  0  0  0
   -8.6751    3.4558   -9.2652 C   0  0  0  0  0  0  0  0  0  0  0  0
   -8.6183    3.4146  -10.6804 C   0  0  0  0  0  0  0  0  0  0  0  0
   -8.4340    4.5784  -11.4228 C   0  0  0  0  0  0  0  0  0  0  0  0
   -8.3028    5.7943  -10.7617 C   0  0  0  0  0  0  0  0  0  0  0  0
   -8.3324    5.8392   -9.3712 C   0  0  0  0  0  0  0  0  0  0  0  0
   -8.1345    7.0301   -8.7795 F   0  0  0  0  0  0  0  0  0  0  0  0
   -8.5187    4.6861   -8.5869 C   0  0  0  0  0  0  0  0  0  0  0  0
   -8.4596    4.7100   -7.1704 N   0  0  0  0  0  0  0  0  0  0  0  0
   -7.1171    5.1106   -6.7245 C   0  0  0  0  0  0  0  0  0  0  0  0
   -6.9627    4.7393   -5.2482 C   0  0  0  0  0  0  0  0  0  0  0  0
   -8.1697    5.1489   -4.4000 C   0  0  0  0  0  0  0  0  0  0  0  0
   -9.1327    6.0447   -5.1689 C   0  0  0  0  0  0  0  0  0  0  0  0
   -9.5681    5.4040   -6.4904 C   0  0  0  0  0  0  0  0  0  0  0  0
   -7.6015    1.4242   -8.4633 N   0  0  0  0  0  0  0  0  0  0  0  0
   -8.8545    2.1539   -8.5231 C   0  0  0  0  0  0  0  0  0  0  0  0
   -7.7416    0.5486   -7.9591 H   0  0  0  0  0  0  0  0  0  0  0  0
   -6.9028    1.9875   -7.9786 H   0  0  0  0  0  0  0  0  0  0  0  0
 39 40  1  0  0  0
 40 26  1  0  0  0
 26 27  2  0  0  0
 27 28  1  0  0  0
 28  1  1  0  0  0
  1  2  1  0  0  0
  2  3  2  0  0  0
  2  5  1  0  0  0
  5  6  2  0  0  0
  6  7  1  0  0  0
  7  8  1  0  0  0
  7  9  2  0  0  0
  9 10  1  0  0  0
 10 11  2  0  0  0
 11 12  1  0  0  0
 12 13  2  0  0  0
 13 20  1  0  0  0
 20 21  1  0  0  0
 21 22  1  0  0  0
 22 23  1  0  0  0
 23 24  1  0  0  0
 24 25  1  0  0  0
 13 14  1  0  0  0
 14 15  1  0  0  0
 15 16  1  0  0  0
 16 17  1  0  0  0
 17 18  1  0  0  0
 28 29  2  0  0  0
 29 30  1  0  0  0
 30 31  1  0  0  0
 30 32  2  0  0  0
 32 33  1  0  0  0
 33 34  1  0  0  0
 34 35  1  0  0  0
 35 36  1  0  0  0
 36 37  1  0  0  0
 37 38  1  0  0  0
 32 26  1  0  0  0
 38 33  1  0  0  0
 11  5  1  0  0  0
 25 21  1  0  0  0
 18 15  1  0  0  0
 14 10  1  0  0  0
 39 41  1  0  0  0
 39 42  1  0  0  0
  1  4  1  0  0  0
 17 19  1  0  0  0
M  END
> <minimizedAffinity>
-8.66767

> <minimizedRMSD>
0.52800

$$$$
P28520


 39 44  0  0  0  0  0  0  0  0999 V2000
   -8.4444    4.5769  -11.4350 C   0  0  0  0  0  0  0  0  0  0  0  0
   -8.3487    5.7929  -10.7460 C   0  0  0  0  0  0  0  0  0  0  0  0
   -8.4977    5.8344   -9.3603 C   0  0  0  0  0  0  0  0  0  0  0  0
   -8.3856    7.0152   -8.7384 F   0  0  0  0  0  0  0  0  0  0  0  0
   -8.7204    4.6665   -8.6549 C   0  0  0  0  0  0  0  0  0  0  0  0
   -8.8061    3.4587   -9.3559 C   0  0  0  0  0  0  0  0  0  0  0  0
   -8.6820    3.3940  -10.7380 C   0  0  0  0  0  0  0  0  0  0  0  0
   -8.9819    2.3317   -8.3981 C   0  0  0  0  0  0  0  0  0  0  0  0
   -9.3533    2.9788   -7.1224 N   0  0  0  0  0  0  0  0  0  0  0  0
   -8.8139    4.3916   -7.1686 C   0  0  0  0  0  0  0  0  0  0  0  0
   -9.7390    5.3074   -6.3510 C   0  0  0  0  0  0  0  0  0  0  0  0
   -9.5558    5.2671   -4.8361 C   0  0  0  0  0  0  0  0  0  0  0  0
   -8.8092    4.0611   -4.3252 C   0  0  0  0  0  0  0  0  0  0  0  0
   -7.4781    3.8647   -5.0417 C   0  0  0  0  0  0  0  0  0  0  0  0
   -7.4299    4.3793   -6.5027 C   0  0  0  0  0  0  0  0  0  0  0  0
   -8.9406    2.4718   -6.3394 H   0  0  0  0  0  0  0  0  0  0  0  0
   -7.2523    6.6312  -13.5945 O   0  0  0  0  0  0  0  0  0  0  0  0
   -7.6717    5.5593  -13.7903 C   0  0  0  0  0  0  0  0  0  0  0  0
   -8.2966    4.5356  -12.8173 N   0  0  0  0  0  0  0  0  0  0  0  0
   -8.6475    3.7214  -13.2452 H   0  0  0  0  0  0  0  0  0  0  0  0
   -7.6992    5.0898  -15.1869 C   0  0  0  0  0  0  0  0  0  0  0  0
   -8.9193    4.8078  -15.8024 C   0  0  0  0  0  0  0  0  0  0  0  0
   -8.9648    4.6252  -17.1783 C   0  0  0  0  0  0  0  0  0  0  0  0
  -10.4976    4.5103  -17.9280 Cl  0  0  0  0  0  0  0  0  0  0  0  0
   -7.8149    4.6722  -17.9736 C   0  0  0  0  0  0  0  0  0  0  0  0
   -6.5969    4.9352  -17.3305 C   0  0  0  0  0  0  0  0  0  0  0  0
   -6.5213    5.1363  -15.9545 C   0  0  0  0  0  0  0  0  0  0  0  0
   -5.1567    5.3880  -15.7064 C   0  0  0  0  0  0  0  0  0  0  0  0
   -4.4118    5.3330  -16.8095 N   0  0  0  0  0  0  0  0  0  0  0  0
   -5.3095    5.1128  -17.7913 N   0  0  0  0  0  0  0  0  0  0  0  0
   -4.9533    5.1266  -19.2172 C   0  0  0  0  0  0  0  0  0  0  0  0
   -4.7533    6.5550  -19.7613 C   0  0  0  0  0  0  0  0  0  0  0  0
   -3.6317    6.0224  -20.5873 N   0  0  0  0  0  0  0  0  0  0  0  0
   -3.4496    4.9829  -19.5306 C   0  0  0  0  0  0  0  0  0  0  0  0
   -2.8436    6.6601  -20.6993 H   0  0  0  0  0  0  0  0  0  0  0  0
   -6.7375    5.7287   -6.5441 C   0  0  0  0  0  0  0  0  0  0  0  0
   -7.0325    6.7318   -5.9131 O   0  0  0  0  0  0  0  0  0  0  0  0
   -5.6823    5.7620   -7.3843 O   0  0  0  0  0  0  0  0  0  0  0  0
   -5.4481    4.9974   -7.8728 H   0  0  0  0  0  0  0  0  0  0  0  0
 17 18  2  0  0  0
 18 19  1  0  0  0
 19  1  1  0  0  0
  1  2  2  0  0  0
  2  3  1  0  0  0
  3  4  1  0  0  0
  3  5  2  0  0  0
  5  6  1  0  0  0
  6  7  2  0  0  0
  6  8  1  0  0  0
  8  9  1  0  0  0
  9 10  1  0  0  0
 10 11  1  0  0  0
 11 12  1  0  0  0
 12 13  1  0  0  0
 13 14  1  0  0  0
 14 15  1  0  0  0
 15 36  1  0  0  0
 36 37  2  0  0  0
 36 38  1  0  0  0
 18 21  1  0  0  0
 21 22  2  0  0  0
 22 23  1  0  0  0
 23 24  1  0  0  0
 23 25  2  0  0  0
 25 26  1  0  0  0
 26 27  2  0  0  0
 27 28  1  0  0  0
 28 29  2  0  0  0
 29 30  1  0  0  0
 30 31  1  0  0  0
 31 32  1  0  0  0
 32 33  1  0  0  0
 33 34  1  0  0  0
  7  1  1  0  0  0
 15 10  1  0  0  0
 27 21  1  0  0  0
 34 31  1  0  0  0
 10  5  1  0  0  0
 30 26  1  0  0  0
 19 20  1  0  0  0
  9 16  1  0  0  0
 38 39  1  0  0  0
 33 35  1  0  0  0
M  END
> <minimizedAffinity>
-9.12635

> <minimizedRMSD>
0.39111

$$$$
P28523


 39 45  0  0  0  0  0  0  0  0999 V2000
   -6.7048    6.3592  -13.5449 O   0  0  0  0  0  0  0  0  0  0  0  0
   -7.1665    5.3090  -13.7414 C   0  0  0  0  0  0  0  0  0  0  0  0
   -7.5565    4.1946  -12.7615 N   0  0  0  0  0  0  0  0  0  0  0  0
   -7.8609    3.3603  -13.1864 H   0  0  0  0  0  0  0  0  0  0  0  0
   -7.3574    4.8953  -15.1444 C   0  0  0  0  0  0  0  0  0  0  0  0
   -8.5991    4.4631  -15.6565 C   0  0  0  0  0  0  0  0  0  0  0  0
   -8.7329    4.1629  -17.0210 C   0  0  0  0  0  0  0  0  0  0  0  0
  -10.2829    3.8018  -17.6606 Cl  0  0  0  0  0  0  0  0  0  0  0  0
   -7.6376    4.2479  -17.8816 C   0  0  0  0  0  0  0  0  0  0  0  0
   -6.4634    4.7252  -17.3429 C   0  0  0  0  0  0  0  0  0  0  0  0
   -6.2729    5.0503  -16.0214 C   0  0  0  0  0  0  0  0  0  0  0  0
   -4.9243    5.4742  -15.9754 C   0  0  0  0  0  0  0  0  0  0  0  0
   -4.3273    5.4399  -17.1757 N   0  0  0  0  0  0  0  0  0  0  0  0
   -5.2986    4.9854  -17.9888 N   0  0  0  0  0  0  0  0  0  0  0  0
   -5.2818    4.9023  -19.4605 C   0  0  0  0  0  0  0  0  0  0  0  0
   -5.1237    6.3119  -20.0840 C   0  0  0  0  0  0  0  0  0  0  0  0
   -4.1102    5.7628  -21.0132 N   0  0  0  0  0  0  0  0  0  0  0  0
   -3.8738    4.6567  -20.0486 C   0  0  0  0  0  0  0  0  0  0  0  0
   -6.4840    4.0441  -20.0291 C   0  0  0  0  0  0  0  0  0  0  0  0
   -6.4896    3.5222  -21.1525 O   0  0  0  0  0  0  0  0  0  0  0  0
   -7.6087    3.8723  -19.2245 N   0  0  0  0  0  0  0  0  0  0  0  0
   -3.3043    6.3697  -21.1636 H   0  0  0  0  0  0  0  0  0  0  0  0
   -8.4153    3.4695  -19.6198 H   0  0  0  0  0  0  0  0  0  0  0  0
   -7.5499    4.1699  -11.3130 C   0  0  0  0  0  0  0  0  0  0  0  0
   -8.1189    5.4640  -10.7561 C   0  0  0  0  0  0  0  0  0  0  0  0
   -7.9779    5.5423   -9.2485 C   0  0  0  0  0  0  0  0  0  0  0  0
   -8.8589    6.4849   -8.8165 F   0  0  0  0  0  0  0  0  0  0  0  0
   -8.1919    4.2034   -8.5288 C   0  0  0  0  0  0  0  0  0  0  0  0
   -8.9044    3.1465   -9.3747 C   0  0  0  0  0  0  0  0  0  0  0  0
   -9.0148    1.8184   -8.5931 C   0  0  0  0  0  0  0  0  0  0  0  0
   -9.1902    1.9674   -7.1481 N   0  0  0  0  0  0  0  0  0  0  0  0
   -9.8511    3.2051   -6.8130 C   0  0  0  0  0  0  0  0  0  0  0  0
  -10.3926    3.2335   -5.3772 C   0  0  0  0  0  0  0  0  0  0  0  0
   -9.5533    4.0386   -4.3956 C   0  0  0  0  0  0  0  0  0  0  0  0
   -8.0835    3.9848   -4.7465 C   0  0  0  0  0  0  0  0  0  0  0  0
   -7.8062    4.6418   -6.0807 C   0  0  0  0  0  0  0  0  0  0  0  0
   -8.8833    4.3717   -7.1426 C   0  0  0  0  0  0  0  0  0  0  0  0
   -8.2719    2.9343  -10.7617 C   0  0  0  0  0  0  0  0  0  0  0  0
   -8.2736    1.9510   -6.7009 H   0  0  0  0  0  0  0  0  0  0  0  0
  1  2  2  0  0  0
  2  3  1  0  0  0
 24  3  1  0  0  0
 24 25  1  0  0  0
 25 26  1  0  0  0
 26 27  1  0  0  0
 28 26  1  0  0  0
 28 29  1  0  0  0
 29 30  1  0  0  0
 30 31  1  0  0  0
 31 32  1  0  0  0
 32 33  1  0  0  0
 33 34  1  0  0  0
 34 35  1  0  0  0
 35 36  1  0  0  0
 37 36  1  0  0  0
 29 38  1  0  0  0
  2  5  1  0  0  0
  5  6  2  0  0  0
  6  7  1  0  0  0
  7  8  1  0  0  0
  7  9  2  0  0  0
  9 10  1  0  0  0
 10 11  2  0  0  0
 11 12  1  0  0  0
 12 13  2  0  0  0
 13 14  1  0  0  0
 14 15  1  0  0  0
 15 16  1  0  0  0
 16 17  1  0  0  0
 17 18  1  0  0  0
 15 19  1  0  0  0
 19 20  2  0  0  0
 19 21  1  0  0  0
 38 24  1  0  0  0
 11  5  1  0  0  0
 18 15  1  0  0  0
 37 28  1  0  0  0
 21  9  1  0  0  0
 37 32  1  0  0  0
 14 10  1  0  0  0
  3  4  1  0  0  0
 31 39  1  0  0  0
 17 22  1  0  0  0
 21 23  1  0  0  0
M  END
> <minimizedAffinity>
-11.40183

> <minimizedRMSD>
0.34313

$$$$
P28525


 41 45  0  0  0  0  0  0  0  0999 V2000
   -7.2416    4.4573  -13.5123 C   0  0  0  0  0  0  0  0  0  0  0  0
   -6.5688    5.6100  -13.0037 O   0  0  0  0  0  0  0  0  0  0  0  0
   -6.4732    5.5303  -12.0417 H   0  0  0  0  0  0  0  0  0  0  0  0
   -7.3534    4.6602  -15.0388 C   0  0  0  0  0  0  0  0  0  0  0  0
   -8.5997    4.5441  -15.7070 C   0  0  0  0  0  0  0  0  0  0  0  0
   -8.7145    4.6398  -17.0976 C   0  0  0  0  0  0  0  0  0  0  0  0
  -10.2502    4.5684  -17.8644 Cl  0  0  0  0  0  0  0  0  0  0  0  0
   -7.6068    4.8354  -17.9125 C   0  0  0  0  0  0  0  0  0  0  0  0
   -6.3737    4.9589  -17.2750 C   0  0  0  0  0  0  0  0  0  0  0  0
   -6.2320    4.8970  -15.8873 C   0  0  0  0  0  0  0  0  0  0  0  0
   -4.8483    5.1173  -15.6946 C   0  0  0  0  0  0  0  0  0  0  0  0
   -4.1591    5.2380  -16.8292 N   0  0  0  0  0  0  0  0  0  0  0  0
   -5.1029    5.1296  -17.7822 N   0  0  0  0  0  0  0  0  0  0  0  0
   -4.8102    5.1456  -19.2258 C   0  0  0  0  0  0  0  0  0  0  0  0
   -4.6477    6.5675  -19.7919 C   0  0  0  0  0  0  0  0  0  0  0  0
   -3.5673    6.0320  -20.6709 N   0  0  0  0  0  0  0  0  0  0  0  0
   -3.3260    5.0037  -19.6133 C   0  0  0  0  0  0  0  0  0  0  0  0
   -2.7893    6.6721  -20.8299 H   0  0  0  0  0  0  0  0  0  0  0  0
   -6.7758    2.0206  -13.5006 O   0  0  0  0  0  0  0  0  0  0  0  0
   -6.4103    3.0941  -13.2168 C   0  0  0  0  0  0  0  0  0  0  0  0
   -5.0966    3.5615  -12.5214 N   0  0  0  0  0  0  0  0  0  0  0  0
   -5.0559    4.5246  -12.3215 H   0  0  0  0  0  0  0  0  0  0  0  0
   -3.9345    2.8146  -12.1246 C   0  0  0  0  0  0  0  0  0  0  0  0
   -2.9884    2.6639  -13.3084 C   0  0  0  0  0  0  0  0  0  0  0  0
   -2.1111    3.8942  -13.4519 C   0  0  0  0  0  0  0  0  0  0  0  0
   -1.7088    4.2964  -12.2148 F   0  0  0  0  0  0  0  0  0  0  0  0
   -8.5667    4.4987  -12.8612 N   0  0  0  0  0  0  0  0  0  0  0  0
   -9.3841    4.6620  -13.3850 H   0  0  0  0  0  0  0  0  0  0  0  0
   -8.6256    4.2978  -11.4709 C   0  0  0  0  0  0  0  0  0  0  0  0
   -8.8770    3.0412  -10.9312 C   0  0  0  0  0  0  0  0  0  0  0  0
   -8.8680    2.8252   -9.5446 C   0  0  0  0  0  0  0  0  0  0  0  0
   -8.6183    3.8540   -8.6230 C   0  0  0  0  0  0  0  0  0  0  0  0
   -8.3574    5.1145   -9.1957 C   0  0  0  0  0  0  0  0  0  0  0  0
   -8.0716    6.1732   -8.4175 F   0  0  0  0  0  0  0  0  0  0  0  0
   -8.3665    5.3390  -10.5794 C   0  0  0  0  0  0  0  0  0  0  0  0
   -8.6159    3.6357   -7.2410 N   0  0  0  0  0  0  0  0  0  0  0  0
   -9.1465    4.6939   -6.3682 C   0  0  0  0  0  0  0  0  0  0  0  0
   -9.8579    4.1157   -5.1394 C   0  0  0  0  0  0  0  0  0  0  0  0
  -10.8014    2.9746   -5.5223 C   0  0  0  0  0  0  0  0  0  0  0  0
  -10.1323    1.9240   -6.4125 C   0  0  0  0  0  0  0  0  0  0  0  0
   -8.6753    2.2727   -6.6958 C   0  0  0  0  0  0  0  0  0  0  0  0
 19 20  2  0  0  0
 20 21  1  0  0  0
 21 23  1  0  0  0
 23 24  1  0  0  0
 24 25  1  0  0  0
 25 26  1  0  0  0
 20  1  1  0  0  0
  1  2  1  0  0  0
  1 27  1  0  0  0
 27 29  1  0  0  0
 29 30  2  0  0  0
 30 31  1  0  0  0
 31 32  2  0  0  0
 32 36  1  0  0  0
 36 37  1  0  0  0
 37 38  1  0  0  0
 38 39  1  0  0  0
 39 40  1  0  0  0
 40 41  1  0  0  0
 32 33  1  0  0  0
 33 34  1  0  0  0
 33 35  2  0  0  0
  1  4  1  0  0  0
  4  5  2  0  0  0
  5  6  1  0  0  0
  6  7  1  0  0  0
  6  8  2  0  0  0
  8  9  1  0  0  0
  9 10  2  0  0  0
 10 11  1  0  0  0
 11 12  2  0  0  0
 12 13  1  0  0  0
 13 14  1  0  0  0
 14 15  1  0  0  0
 15 16  1  0  0  0
 16 17  1  0  0  0
 35 29  1  0  0  0
 10  4  1  0  0  0
 17 14  1  0  0  0
 41 36  1  0  0  0
 13  9  1  0  0  0
 21 22  1  0  0  0
  2  3  1  0  0  0
 27 28  1  0  0  0
 16 18  1  0  0  0
M  END
> <minimizedAffinity>
-9.07947

> <minimizedRMSD>
0.34787

$$$$
P28529


 42 48  0  0  0  0  0  0  0  0999 V2000
   -1.9271    6.5532  -15.3706 N   0  0  0  0  0  0  0  0  0  0  0  0
   -2.9722    7.5408  -15.6675 C   0  0  0  0  0  0  0  0  0  0  0  0
   -3.9307    7.1185  -16.7862 C   0  0  0  0  0  0  0  0  0  0  0  0
   -4.5526    5.7297  -16.5252 C   0  0  0  0  0  0  0  0  0  0  0  0
   -3.4603    4.7049  -16.1527 C   0  0  0  0  0  0  0  0  0  0  0  0
   -2.5151    5.2433  -15.0686 C   0  0  0  0  0  0  0  0  0  0  0  0
   -5.5352    5.8552  -15.3032 C   0  0  0  0  0  0  0  0  0  0  0  0
   -6.8262    5.3797  -15.8550 C   0  0  0  0  0  0  0  0  0  0  0  0
   -8.0362    5.2623  -15.1882 C   0  0  0  0  0  0  0  0  0  0  0  0
   -9.1603    4.8278  -15.8783 C   0  0  0  0  0  0  0  0  0  0  0  0
   -9.0447    4.5599  -17.2421 C   0  0  0  0  0  0  0  0  0  0  0  0
  -10.4666    4.1831  -18.1164 Cl  0  0  0  0  0  0  0  0  0  0  0  0
   -7.8210    4.6759  -17.9129 C   0  0  0  0  0  0  0  0  0  0  0  0
   -6.7003    5.0775  -17.2016 C   0  0  0  0  0  0  0  0  0  0  0  0
   -5.3809    5.2521  -17.6839 N   0  0  0  0  0  0  0  0  0  0  0  0
   -4.9992    5.0748  -19.0694 C   0  0  0  0  0  0  0  0  0  0  0  0
   -5.0017    6.3747  -19.8994 C   0  0  0  0  0  0  0  0  0  0  0  0
   -3.7375    5.9512  -20.5374 N   0  0  0  0  0  0  0  0  0  0  0  0
   -3.5150    4.9727  -19.4600 C   0  0  0  0  0  0  0  0  0  0  0  0
   -3.0302    6.6845  -20.5854 H   0  0  0  0  0  0  0  0  0  0  0  0
   -8.1636    5.7370  -13.7998 C   0  0  0  0  0  0  0  0  0  0  0  0
   -8.2144    6.8830  -13.6036 O   0  0  0  0  0  0  0  0  0  0  0  0
   -8.2304    4.5568  -12.8225 N   0  0  0  0  0  0  0  0  0  0  0  0
   -8.0863    3.6735  -13.2327 H   0  0  0  0  0  0  0  0  0  0  0  0
   -8.4697    4.5300  -11.4021 C   0  0  0  0  0  0  0  0  0  0  0  0
   -7.6907    5.6003  -10.6298 C   0  0  0  0  0  0  0  0  0  0  0  0
   -7.6755    5.3520   -9.1184 C   0  0  0  0  0  0  0  0  0  0  0  0
   -7.7297    6.5680   -8.4993 F   0  0  0  0  0  0  0  0  0  0  0  0
   -8.8632    4.5054   -8.6740 C   0  0  0  0  0  0  0  0  0  0  0  0
   -8.9385    3.1338   -9.3952 C   0  0  0  0  0  0  0  0  0  0  0  0
   -8.4268    2.0266   -8.4764 C   0  0  0  0  0  0  0  0  0  0  0  0
   -9.1658    1.9381   -7.2149 N   0  0  0  0  0  0  0  0  0  0  0  0
   -9.9587    3.1229   -6.8876 C   0  0  0  0  0  0  0  0  0  0  0  0
  -10.4623    3.1023   -5.4374 C   0  0  0  0  0  0  0  0  0  0  0  0
   -9.5220    3.8042   -4.4568 C   0  0  0  0  0  0  0  0  0  0  0  0
   -8.0730    3.7210   -4.9097 C   0  0  0  0  0  0  0  0  0  0  0  0
   -7.8458    4.3892   -6.2679 C   0  0  0  0  0  0  0  0  0  0  0  0
   -9.1023    4.3776   -7.1531 C   0  0  0  0  0  0  0  0  0  0  0  0
   -8.2575    3.1550  -10.7720 C   0  0  0  0  0  0  0  0  0  0  0  0
   -8.4937    1.7876   -6.4626 H   0  0  0  0  0  0  0  0  0  0  0  0
    0.3391    5.7030  -15.9693 C   0  0  0  0  0  0  0  0  0  0  0  0
   -0.8733    6.5267  -16.3922 C   0  0  0  0  0  0  0  0  0  0  0  0
 41 42  1  0  0  0
 42  1  1  0  0  0
  1  2  1  0  0  0
  2  3  1  0  0  0
  3  4  1  0  0  0
  4  5  1  0  0  0
  5  6  1  0  0  0
  4  7  1  0  0  0
  7  8  1  0  0  0
  8  9  2  0  0  0
  9 21  1  0  0  0
 21 22  2  0  0  0
 21 23  1  0  0  0
 25 23  1  0  0  0
 25 26  1  0  0  0
 26 27  1  0  0  0
 27 28  1  0  0  0
 29 27  1  0  0  0
 29 30  1  0  0  0
 30 31  1  0  0  0
 31 32  1  0  0  0
 32 33  1  0  0  0
 33 34  1  0  0  0
 34 35  1  0  0  0
 35 36  1  0  0  0
 36 37  1  0  0  0
 38 37  1  0  0  0
 30 39  1  0  0  0
  9 10  1  0  0  0
 10 11  2  0  0  0
 11 12  1  0  0  0
 11 13  1  0  0  0
 13 14  2  0  0  0
 14 15  1  0  0  0
 15 16  1  0  0  0
 16 17  1  0  0  0
 17 18  1  0  0  0
 18 19  1  0  0  0
  6  1  1  0  0  0
 14  8  1  0  0  0
 19 16  1  0  0  0
 15  4  1  0  0  0
 39 25  1  0  0  0
 38 29  1  0  0  0
 38 33  1  0  0  0
 23 24  1  0  0  0
 32 40  1  0  0  0
 18 20  1  0  0  0
M  END
> <minimizedAffinity>
-9.91741

> <minimizedRMSD>
0.53511

$$$$
P28533


 39 45  0  0  0  0  0  0  0  0999 V2000
   -8.1881    4.5473  -12.4282 N   0  0  0  0  0  0  0  0  0  0  0  0
   -7.3453    5.5206  -13.2826 C   0  0  0  0  0  0  0  0  0  0  0  0
   -6.6524    6.4038  -12.9619 O   0  0  0  0  0  0  0  0  0  0  0  0
   -8.6328    3.8313  -12.9370 H   0  0  0  0  0  0  0  0  0  0  0  0
   -7.4378    5.2015  -14.7185 C   0  0  0  0  0  0  0  0  0  0  0  0
   -8.6883    4.9600  -15.3228 C   0  0  0  0  0  0  0  0  0  0  0  0
   -8.7892    4.7854  -16.7052 C   0  0  0  0  0  0  0  0  0  0  0  0
  -10.3320    4.7177  -17.4551 Cl  0  0  0  0  0  0  0  0  0  0  0  0
   -7.6465    4.7939  -17.4953 C   0  0  0  0  0  0  0  0  0  0  0  0
   -6.4498    5.0787  -16.8765 C   0  0  0  0  0  0  0  0  0  0  0  0
   -6.2894    5.2831  -15.5256 C   0  0  0  0  0  0  0  0  0  0  0  0
   -4.9022    5.5349  -15.3999 C   0  0  0  0  0  0  0  0  0  0  0  0
   -4.2550    5.5090  -16.5772 N   0  0  0  0  0  0  0  0  0  0  0  0
   -5.2361    5.2408  -17.4616 N   0  0  0  0  0  0  0  0  0  0  0  0
   -5.1719    5.2662  -18.9396 C   0  0  0  0  0  0  0  0  0  0  0  0
   -4.9200    6.7134  -19.4463 C   0  0  0  0  0  0  0  0  0  0  0  0
   -3.9225    6.1750  -20.4020 N   0  0  0  0  0  0  0  0  0  0  0  0
   -3.7522    5.0163  -19.4903 C   0  0  0  0  0  0  0  0  0  0  0  0
   -6.4369    4.5269  -19.5971 C   0  0  0  0  0  0  0  0  0  0  0  0
   -6.5059    3.9882  -20.7068 O   0  0  0  0  0  0  0  0  0  0  0  0
   -7.6074    4.5024  -18.8501 N   0  0  0  0  0  0  0  0  0  0  0  0
   -3.0889    6.7520  -20.5141 H   0  0  0  0  0  0  0  0  0  0  0  0
   -8.4488    4.2671  -19.3038 H   0  0  0  0  0  0  0  0  0  0  0  0
  -10.3108    2.0670   -6.1543 C   0  0  0  0  0  0  0  0  0  0  0  0
   -9.1308    2.6003   -6.8006 N   0  0  0  0  0  0  0  0  0  0  0  0
   -8.9674    2.0676   -8.1724 C   0  0  0  0  0  0  0  0  0  0  0  0
   -8.8245    3.2588   -9.0578 C   0  0  0  0  0  0  0  0  0  0  0  0
   -8.6470    3.2861  -10.4364 C   0  0  0  0  0  0  0  0  0  0  0  0
   -8.4210    4.5180  -11.0553 C   0  0  0  0  0  0  0  0  0  0  0  0
   -8.3957    5.6932  -10.2933 C   0  0  0  0  0  0  0  0  0  0  0  0
   -8.5960    5.6392   -8.9143 C   0  0  0  0  0  0  0  0  0  0  0  0
   -8.5409    6.7697   -8.1969 F   0  0  0  0  0  0  0  0  0  0  0  0
   -8.8155    4.4234   -8.2939 C   0  0  0  0  0  0  0  0  0  0  0  0
   -8.9308    4.0865   -6.8235 C   0  0  0  0  0  0  0  0  0  0  0  0
   -7.5511    4.3302   -6.1925 C   0  0  0  0  0  0  0  0  0  0  0  0
   -7.5074    3.8610   -4.7404 C   0  0  0  0  0  0  0  0  0  0  0  0
   -8.6743    4.3752   -3.9016 C   0  0  0  0  0  0  0  0  0  0  0  0
   -9.5014    5.4149   -4.6360 C   0  0  0  0  0  0  0  0  0  0  0  0
   -9.9488    4.9703   -6.0365 C   0  0  0  0  0  0  0  0  0  0  0  0
 24 25  1  0  0  0
 25 26  1  0  0  0
 26 27  1  0  0  0
 27 28  2  0  0  0
 28 29  1  0  0  0
 29  1  1  0  0  0
  1  2  1  0  0  0
  2  3  2  0  0  0
  2  5  1  0  0  0
  5  6  2  0  0  0
  6  7  1  0  0  0
  7  8  1  0  0  0
  7  9  2  0  0  0
  9 10  1  0  0  0
 10 11  2  0  0  0
 11 12  1  0  0  0
 12 13  2  0  0  0
 13 14  1  0  0  0
 14 15  1  0  0  0
 15 16  1  0  0  0
 16 17  1  0  0  0
 17 18  1  0  0  0
 15 19  1  0  0  0
 19 20  2  0  0  0
 19 21  1  0  0  0
 29 30  2  0  0  0
 30 31  1  0  0  0
 31 32  1  0  0  0
 31 33  2  0  0  0
 33 34  1  0  0  0
 34 35  1  0  0  0
 35 36  1  0  0  0
 36 37  1  0  0  0
 37 38  1  0  0  0
 38 39  1  0  0  0
 34 25  1  0  0  0
 33 27  1  0  0  0
 39 34  1  0  0  0
 11  5  1  0  0  0
 18 15  1  0  0  0
 21  9  1  0  0  0
 14 10  1  0  0  0
  1  4  1  0  0  0
 17 22  1  0  0  0
 21 23  1  0  0  0
M  END
> <minimizedAffinity>
-9.65576

> <minimizedRMSD>
0.44358

$$$$
P28536


 33 37  0  0  0  0  0  0  0  0999 V2000
   -9.6333    6.2287  -14.0991 O   0  0  0  0  0  0  0  0  0  0  0  0
   -8.8521    5.3684  -14.1789 C   0  0  0  0  0  0  0  0  0  0  0  0
   -8.2173    4.4944  -13.0862 N   0  0  0  0  0  0  0  0  0  0  0  0
   -7.6335    3.7757  -13.4209 H   0  0  0  0  0  0  0  0  0  0  0  0
   -8.4154    4.9501  -15.5133 C   0  0  0  0  0  0  0  0  0  0  0  0
   -9.3582    4.6852  -16.5030 C   0  0  0  0  0  0  0  0  0  0  0  0
   -8.9271    4.5297  -17.8101 C   0  0  0  0  0  0  0  0  0  0  0  0
  -10.1119    4.2932  -19.0233 Cl  0  0  0  0  0  0  0  0  0  0  0  0
   -7.5774    4.6624  -18.1699 C   0  0  0  0  0  0  0  0  0  0  0  0
   -6.6411    4.9032  -17.1490 C   0  0  0  0  0  0  0  0  0  0  0  0
   -7.0473    4.9911  -15.8160 C   0  0  0  0  0  0  0  0  0  0  0  0
   -5.8614    5.1305  -15.0730 C   0  0  0  0  0  0  0  0  0  0  0  0
   -4.7802    5.1288  -15.8471 N   0  0  0  0  0  0  0  0  0  0  0  0
   -5.2832    5.1701  -17.1041 N   0  0  0  0  0  0  0  0  0  0  0  0
   -4.4795    5.9012  -18.0936 C   0  0  0  0  0  0  0  0  0  0  0  0
   -5.1642    6.7857  -19.1226 C   0  0  0  0  0  0  0  0  0  0  0  0
   -4.1635    6.2946  -20.1102 N   0  0  0  0  0  0  0  0  0  0  0  0
   -4.1010    5.0387  -19.3133 C   0  0  0  0  0  0  0  0  0  0  0  0
   -3.2937    6.8267  -20.1364 H   0  0  0  0  0  0  0  0  0  0  0  0
   -8.3326    4.5528  -11.7034 C   0  0  0  0  0  0  0  0  0  0  0  0
   -8.6026    3.3570  -11.0509 C   0  0  0  0  0  0  0  0  0  0  0  0
   -8.8015    3.3357   -9.6736 C   0  0  0  0  0  0  0  0  0  0  0  0
   -8.7318    4.5028   -8.9022 C   0  0  0  0  0  0  0  0  0  0  0  0
   -8.4017    5.6948   -9.5771 C   0  0  0  0  0  0  0  0  0  0  0  0
   -8.3370    6.8608   -8.9082 F   0  0  0  0  0  0  0  0  0  0  0  0
   -8.2261    5.7242  -10.9573 C   0  0  0  0  0  0  0  0  0  0  0  0
   -8.0557    6.9166  -11.5454 F   0  0  0  0  0  0  0  0  0  0  0  0
   -9.0431    4.5007   -7.5374 N   0  0  0  0  0  0  0  0  0  0  0  0
   -7.8954    4.5787   -6.6342 C   0  0  0  0  0  0  0  0  0  0  0  0
   -7.8820    3.3782   -5.6986 C   0  0  0  0  0  0  0  0  0  0  0  0
   -8.4184    2.1511   -6.4218 C   0  0  0  0  0  0  0  0  0  0  0  0
   -9.8978    2.3121   -6.6662 C   0  0  0  0  0  0  0  0  0  0  0  0
  -10.2096    3.7389   -7.0590 C   0  0  0  0  0  0  0  0  0  0  0  0
  1  2  2  0  0  0
  2  3  1  0  0  0
  3 20  1  0  0  0
 20 21  2  0  0  0
 21 22  1  0  0  0
 22 23  2  0  0  0
 23 28  1  0  0  0
 28 29  1  0  0  0
 29 30  1  0  0  0
 30 31  1  0  0  0
 31 32  1  0  0  0
 32 33  1  0  0  0
 23 24  1  0  0  0
 24 25  1  0  0  0
 24 26  2  0  0  0
 26 27  1  0  0  0
  2  5  1  0  0  0
  5  6  2  0  0  0
  6  7  1  0  0  0
  7  8  1  0  0  0
  7  9  2  0  0  0
  9 10  1  0  0  0
 10 11  2  0  0  0
 11 12  1  0  0  0
 12 13  2  0  0  0
 13 14  1  0  0  0
 14 15  1  0  0  0
 15 16  1  0  0  0
 16 17  1  0  0  0
 17 18  1  0  0  0
 26 20  1  0  0  0
 11  5  1  0  0  0
 18 15  1  0  0  0
 33 28  1  0  0  0
 14 10  1  0  0  0
  3  4  1  0  0  0
 17 19  1  0  0  0
M  END
> <minimizedAffinity>
-7.80764

> <minimizedRMSD>
0.84812

$$$$
P28544


 36 40  0  0  0  0  0  0  0  0999 V2000
   -8.2708    4.5554  -13.0430 N   0  0  0  0  0  0  0  0  0  0  0  0
   -8.9886    5.3573  -14.1481 C   0  0  0  0  0  0  0  0  0  0  0  0
   -9.6925    6.2861  -14.0737 O   0  0  0  0  0  0  0  0  0  0  0  0
   -7.6649    3.8523  -13.3714 H   0  0  0  0  0  0  0  0  0  0  0  0
   -8.6388    4.9216  -15.5130 C   0  0  0  0  0  0  0  0  0  0  0  0
   -9.6127    4.6935  -16.4838 C   0  0  0  0  0  0  0  0  0  0  0  0
   -9.2294    4.6183  -17.8219 C   0  0  0  0  0  0  0  0  0  0  0  0
  -10.4509    4.4860  -19.0212 Cl  0  0  0  0  0  0  0  0  0  0  0  0
   -7.8943    4.7666  -18.2319 C   0  0  0  0  0  0  0  0  0  0  0  0
   -6.9288    4.9590  -17.2318 C   0  0  0  0  0  0  0  0  0  0  0  0
   -7.2830    5.0038  -15.8840 C   0  0  0  0  0  0  0  0  0  0  0  0
   -6.0721    5.2059  -15.1918 C   0  0  0  0  0  0  0  0  0  0  0  0
   -5.0288    5.3040  -16.0083 N   0  0  0  0  0  0  0  0  0  0  0  0
   -5.5711    5.2154  -17.2409 N   0  0  0  0  0  0  0  0  0  0  0  0
   -4.7953    5.7174  -18.3818 C   0  0  0  0  0  0  0  0  0  0  0  0
   -5.0473    5.0332  -19.7125 C   0  0  0  0  0  0  0  0  0  0  0  0
   -3.5777    4.9596  -19.9284 N   0  0  0  0  0  0  0  0  0  0  0  0
   -3.3992    5.0661  -18.4678 C   0  0  0  0  0  0  0  0  0  0  0  0
   -3.1895    5.7393  -20.4592 H   0  0  0  0  0  0  0  0  0  0  0  0
   -8.4827    3.6464   -9.4018 C   0  0  0  0  0  0  0  0  0  0  0  0
   -8.4003    3.5484  -10.8366 C   0  0  0  0  0  0  0  0  0  0  0  0
   -8.3403    4.6640  -11.6576 C   0  0  0  0  0  0  0  0  0  0  0  0
   -8.3539    5.9093  -11.0715 C   0  0  0  0  0  0  0  0  0  0  0  0
   -8.3977    6.0273   -9.6875 C   0  0  0  0  0  0  0  0  0  0  0  0
   -8.4460    7.2921   -9.2298 F   0  0  0  0  0  0  0  0  0  0  0  0
   -8.4364    4.9281   -8.7792 C   0  0  0  0  0  0  0  0  0  0  0  0
   -8.4351    5.2274   -7.4062 N   0  0  0  0  0  0  0  0  0  0  0  0
   -9.5602    5.0826   -6.4828 C   0  0  0  0  0  0  0  0  0  0  0  0
   -9.4421    6.1104   -5.3611 C   0  0  0  0  0  0  0  0  0  0  0  0
   -8.1657    5.9205   -4.5425 C   0  0  0  0  0  0  0  0  0  0  0  0
   -7.1286    5.0808   -5.2811 C   0  0  0  0  0  0  0  0  0  0  0  0
   -7.1096    5.4161   -6.7712 C   0  0  0  0  0  0  0  0  0  0  0  0
   -8.7386    2.2886   -8.7615 C   0  0  0  0  0  0  0  0  0  0  0  0
   -6.5002    1.6606   -9.2445 C   0  0  0  0  0  0  0  0  0  0  0  0
   -7.6466    1.4029   -8.4147 N   0  0  0  0  0  0  0  0  0  0  0  0
   -7.3929    1.5506   -7.4378 H   0  0  0  0  0  0  0  0  0  0  0  0
 34 35  1  0  0  0
 35 33  1  0  0  0
 33 20  1  0  0  0
 20 21  2  0  0  0
 21 22  1  0  0  0
 22  1  1  0  0  0
  1  2  1  0  0  0
  2  3  2  0  0  0
  2  5  1  0  0  0
  5  6  2  0  0  0
  6  7  1  0  0  0
  7  8  1  0  0  0
  7  9  2  0  0  0
  9 10  1  0  0  0
 10 11  2  0  0  0
 11 12  1  0  0  0
 12 13  2  0  0  0
 13 14  1  0  0  0
 14 15  1  0  0  0
 15 16  1  0  0  0
 16 17  1  0  0  0
 17 18  1  0  0  0
 22 23  2  0  0  0
 23 24  1  0  0  0
 24 25  1  0  0  0
 24 26  2  0  0  0
 26 27  1  0  0  0
 27 28  1  0  0  0
 28 29  1  0  0  0
 29 30  1  0  0  0
 30 31  1  0  0  0
 31 32  1  0  0  0
 26 20  1  0  0  0
 32 27  1  0  0  0
 11  5  1  0  0  0
 18 15  1  0  0  0
 14 10  1  0  0  0
 35 36  1  0  0  0
  1  4  1  0  0  0
 17 19  1  0  0  0
M  END
> <minimizedAffinity>
-8.42801

> <minimizedRMSD>
1.03600

$$$$
P28545


 29 32  0  0  0  0  0  0  0  0999 V2000
   -4.6305    5.3807  -16.7501 C   0  0  0  0  0  0  0  0  0  0  0  0
   -5.4351    5.4079  -15.6300 C   0  0  0  0  0  0  0  0  0  0  0  0
   -6.7619    5.0748  -16.0121 C   0  0  0  0  0  0  0  0  0  0  0  0
   -7.9793    4.9355  -15.3077 C   0  0  0  0  0  0  0  0  0  0  0  0
   -9.1386    4.5518  -15.9845 C   0  0  0  0  0  0  0  0  0  0  0  0
   -9.0986    4.3819  -17.3657 C   0  0  0  0  0  0  0  0  0  0  0  0
  -10.5549    4.0945  -18.2312 Cl  0  0  0  0  0  0  0  0  0  0  0  0
   -7.9193    4.5488  -18.0967 C   0  0  0  0  0  0  0  0  0  0  0  0
   -6.7525    4.8849  -17.3946 C   0  0  0  0  0  0  0  0  0  0  0  0
   -5.4589    5.1217  -17.8257 N   0  0  0  0  0  0  0  0  0  0  0  0
   -5.1094    5.1311  -19.2759 C   0  0  0  0  0  0  0  0  0  0  0  0
   -4.9642    6.5561  -19.8336 C   0  0  0  0  0  0  0  0  0  0  0  0
   -3.4908    6.4272  -19.7569 N   0  0  0  0  0  0  0  0  0  0  0  0
   -3.6364    4.9596  -19.6692 C   0  0  0  0  0  0  0  0  0  0  0  0
   -3.0760    6.8564  -18.9298 H   0  0  0  0  0  0  0  0  0  0  0  0
   -8.0382    5.4305  -13.9154 C   0  0  0  0  0  0  0  0  0  0  0  0
   -7.8594    6.5762  -13.7670 O   0  0  0  0  0  0  0  0  0  0  0  0
   -8.2555    4.3066  -12.8748 N   0  0  0  0  0  0  0  0  0  0  0  0
   -8.3089    3.3992  -13.2532 H   0  0  0  0  0  0  0  0  0  0  0  0
   -8.3881    4.3696  -11.4866 C   0  0  0  0  0  0  0  0  0  0  0  0
   -8.1346    5.5830  -10.8346 C   0  0  0  0  0  0  0  0  0  0  0  0
   -8.2096    5.6830   -9.4491 C   0  0  0  0  0  0  0  0  0  0  0  0
   -8.5406    4.5614   -8.7036 C   0  0  0  0  0  0  0  0  0  0  0  0
   -8.8133    3.3430   -9.3406 C   0  0  0  0  0  0  0  0  0  0  0  0
   -8.7376    3.2414  -10.7384 C   0  0  0  0  0  0  0  0  0  0  0  0
   -9.2061    2.2516   -8.5007 C   0  0  0  0  0  0  0  0  0  0  0  0
   -9.5670    1.5024   -7.6925 N   0  0  0  0  0  0  0  0  0  0  0  0
   -2.5618    5.7584  -15.7191 C   0  0  0  0  0  0  0  0  0  0  0  0
   -3.3176    5.5587  -16.9089 O   0  0  0  0  0  0  0  0  0  0  0  0
 28 29  1  0  0  0
 29  1  1  0  0  0
  1  2  2  0  0  0
  2  3  1  0  0  0
  3  4  2  0  0  0
  4 16  1  0  0  0
 16 17  2  0  0  0
 16 18  1  0  0  0
 18 20  1  0  0  0
 20 21  2  0  0  0
 21 22  1  0  0  0
 22 23  2  0  0  0
 23 24  1  0  0  0
 24 26  1  0  0  0
 26 27  3  0  0  0
 24 25  2  0  0  0
  4  5  1  0  0  0
  5  6  2  0  0  0
  6  7  1  0  0  0
  6  8  1  0  0  0
  8  9  2  0  0  0
  9 10  1  0  0  0
 10 11  1  0  0  0
 11 12  1  0  0  0
 12 13  1  0  0  0
 13 14  1  0  0  0
 10  1  1  0  0  0
 14 11  1  0  0  0
  9  3  1  0  0  0
 25 20  1  0  0  0
 18 19  1  0  0  0
 13 15  1  0  0  0
M  END
> <minimizedAffinity>
-8.13915

> <minimizedRMSD>
0.29721

$$$$
P28547


 31 34  0  0  0  0  0  0  0  0999 V2000
   -8.4151    4.8409  -15.4611 C   0  0  0  0  0  0  0  0  0  0  0  0
   -9.4880    4.4993  -16.2853 C   0  0  0  0  0  0  0  0  0  0  0  0
   -9.2815    4.3790  -17.6547 C   0  0  0  0  0  0  0  0  0  0  0  0
  -10.6261    4.1566  -18.6997 Cl  0  0  0  0  0  0  0  0  0  0  0  0
   -8.0185    4.5486  -18.2282 C   0  0  0  0  0  0  0  0  0  0  0  0
   -6.9379    4.8541  -17.3843 C   0  0  0  0  0  0  0  0  0  0  0  0
   -7.1209    4.9988  -16.0100 C   0  0  0  0  0  0  0  0  0  0  0  0
   -5.8577    5.3315  -15.4665 C   0  0  0  0  0  0  0  0  0  0  0  0
   -4.9157    5.3749  -16.4823 C   0  0  0  0  0  0  0  0  0  0  0  0
   -5.5990    5.1073  -17.6591 N   0  0  0  0  0  0  0  0  0  0  0  0
   -5.1210    5.1113  -19.0760 C   0  0  0  0  0  0  0  0  0  0  0  0
   -5.1202    6.5177  -19.6960 C   0  0  0  0  0  0  0  0  0  0  0  0
   -3.6481    6.5385  -19.6131 N   0  0  0  0  0  0  0  0  0  0  0  0
   -3.6258    5.0849  -19.3947 C   0  0  0  0  0  0  0  0  0  0  0  0
   -3.2848    7.0809  -18.8295 H   0  0  0  0  0  0  0  0  0  0  0  0
   -8.3430    4.2234  -13.0075 N   0  0  0  0  0  0  0  0  0  0  0  0
   -8.6490    5.3011  -14.0752 C   0  0  0  0  0  0  0  0  0  0  0  0
   -9.0418    6.3955  -13.9560 O   0  0  0  0  0  0  0  0  0  0  0  0
   -8.0920    3.3433  -13.3703 H   0  0  0  0  0  0  0  0  0  0  0  0
   -8.7513    3.3242   -9.4348 C   0  0  0  0  0  0  0  0  0  0  0  0
   -8.3380    4.5179   -8.8277 C   0  0  0  0  0  0  0  0  0  0  0  0
   -7.9510    5.6000   -9.6035 C   0  0  0  0  0  0  0  0  0  0  0  0
   -7.9641    5.4849  -10.9899 C   0  0  0  0  0  0  0  0  0  0  0  0
   -8.3649    4.2964  -11.6135 C   0  0  0  0  0  0  0  0  0  0  0  0
   -8.7664    3.2080  -10.8336 C   0  0  0  0  0  0  0  0  0  0  0  0
   -9.5592    1.5647   -7.7250 N   0  0  0  0  0  0  0  0  0  0  0  0
   -9.1923    2.2778   -8.5624 C   0  0  0  0  0  0  0  0  0  0  0  0
   -3.4581    5.6583  -16.3801 C   0  0  0  0  0  0  0  0  0  0  0  0
   -2.8867    5.1834  -15.1224 N   0  0  0  0  0  0  0  0  0  0  0  0
   -3.3371    5.6617  -14.3422 H   0  0  0  0  0  0  0  0  0  0  0  0
   -1.8856    5.3786  -15.1087 H   0  0  0  0  0  0  0  0  0  0  0  0
 26 27  3  0  0  0
 27 20  1  0  0  0
 20 21  2  0  0  0
 21 22  1  0  0  0
 22 23  2  0  0  0
 23 24  1  0  0  0
 24 16  1  0  0  0
 16 17  1  0  0  0
 17 18  2  0  0  0
 17  1  1  0  0  0
  1  2  2  0  0  0
  2  3  1  0  0  0
  3  4  1  0  0  0
  3  5  2  0  0  0
  5  6  1  0  0  0
  6  7  2  0  0  0
  7  8  1  0  0  0
  8  9  2  0  0  0
  9 28  1  0  0  0
 28 29  1  0  0  0
  9 10  1  0  0  0
 10 11  1  0  0  0
 11 12  1  0  0  0
 12 13  1  0  0  0
 13 14  1  0  0  0
 24 25  2  0  0  0
 25 20  1  0  0  0
  7  1  1  0  0  0
 14 11  1  0  0  0
 10  6  1  0  0  0
 16 19  1  0  0  0
 29 30  1  0  0  0
 29 31  1  0  0  0
 13 15  1  0  0  0
M  END
> <minimizedAffinity>
-8.09304

> <minimizedRMSD>
0.66119

$$$$
P28548


 29 32  0  0  0  0  0  0  0  0999 V2000
   -8.3080    4.8185  -15.1242 C   0  0  0  0  0  0  0  0  0  0  0  0
   -9.3509    4.4919  -15.9962 C   0  0  0  0  0  0  0  0  0  0  0  0
   -9.1073    4.3862  -17.3767 C   0  0  0  0  0  0  0  0  0  0  0  0
   -7.8053    4.6052  -17.8873 C   0  0  0  0  0  0  0  0  0  0  0  0
   -6.7645    4.8937  -16.9913 C   0  0  0  0  0  0  0  0  0  0  0  0
   -6.9984    4.9607  -15.6196 C   0  0  0  0  0  0  0  0  0  0  0  0
   -5.7421    5.2387  -15.0459 C   0  0  0  0  0  0  0  0  0  0  0  0
   -4.7786    5.3491  -15.9543 N   0  0  0  0  0  0  0  0  0  0  0  0
   -5.4299    5.2249  -17.1334 N   0  0  0  0  0  0  0  0  0  0  0  0
   -4.7754    5.7892  -18.3222 C   0  0  0  0  0  0  0  0  0  0  0  0
   -5.0369    5.1399  -19.6699 C   0  0  0  0  0  0  0  0  0  0  0  0
   -3.5743    5.2245  -19.9570 N   0  0  0  0  0  0  0  0  0  0  0  0
   -3.3456    5.2325  -18.4958 C   0  0  0  0  0  0  0  0  0  0  0  0
   -3.2846    6.0769  -20.4364 H   0  0  0  0  0  0  0  0  0  0  0  0
   -8.2761    4.2315  -12.6629 N   0  0  0  0  0  0  0  0  0  0  0  0
   -8.5443    5.2963  -13.7473 C   0  0  0  0  0  0  0  0  0  0  0  0
   -8.8261    6.4254  -13.6466 O   0  0  0  0  0  0  0  0  0  0  0  0
   -7.9784    3.3585  -13.0071 H   0  0  0  0  0  0  0  0  0  0  0  0
   -8.8233    3.3156   -9.1178 C   0  0  0  0  0  0  0  0  0  0  0  0
   -8.4395    4.5093   -8.4905 C   0  0  0  0  0  0  0  0  0  0  0  0
   -8.0517    5.6042   -9.2463 C   0  0  0  0  0  0  0  0  0  0  0  0
   -8.0318    5.4993  -10.6325 C   0  0  0  0  0  0  0  0  0  0  0  0
   -8.3869    4.3047  -11.2744 C   0  0  0  0  0  0  0  0  0  0  0  0
   -8.7916    3.2045  -10.5159 C   0  0  0  0  0  0  0  0  0  0  0  0
   -9.6694    1.5491   -7.4371 N   0  0  0  0  0  0  0  0  0  0  0  0
   -9.2837    2.2631   -8.2648 C   0  0  0  0  0  0  0  0  0  0  0  0
  -10.2530    4.0695  -18.3115 C   0  0  0  0  0  0  0  0  0  0  0  0
  -10.0464    4.6608  -19.5785 O   0  0  0  0  0  0  0  0  0  0  0  0
   -9.9915    5.6243  -19.4806 H   0  0  0  0  0  0  0  0  0  0  0  0
 25 26  3  0  0  0
 26 19  1  0  0  0
 19 20  2  0  0  0
 20 21  1  0  0  0
 21 22  2  0  0  0
 22 23  1  0  0  0
 23 15  1  0  0  0
 15 16  1  0  0  0
 16 17  2  0  0  0
 16  1  1  0  0  0
  1  2  2  0  0  0
  2  3  1  0  0  0
  3 27  1  0  0  0
 27 28  1  0  0  0
  3  4  2  0  0  0
  4  5  1  0  0  0
  5  6  2  0  0  0
  6  7  1  0  0  0
  7  8  2  0  0  0
  8  9  1  0  0  0
  9 10  1  0  0  0
 10 11  1  0  0  0
 11 12  1  0  0  0
 12 13  1  0  0  0
 23 24  2  0  0  0
 24 19  1  0  0  0
  6  1  1  0  0  0
 13 10  1  0  0  0
  9  5  1  0  0  0
 15 18  1  0  0  0
 28 29  1  0  0  0
 12 14  1  0  0  0
M  END
> <minimizedAffinity>
-8.40197

> <minimizedRMSD>
0.63836

$$$$
P28549


 28 31  0  0  0  0  0  0  0  0999 V2000
   -4.9090    5.3077  -13.6684 C   0  0  0  0  0  0  0  0  0  0  0  0
   -5.3606    5.2312  -15.0781 C   0  0  0  0  0  0  0  0  0  0  0  0
   -4.4670    5.4085  -16.0487 N   0  0  0  0  0  0  0  0  0  0  0  0
   -5.1755    5.3010  -17.1882 N   0  0  0  0  0  0  0  0  0  0  0  0
   -6.4997    4.9707  -16.9843 C   0  0  0  0  0  0  0  0  0  0  0  0
   -7.5771    4.7026  -17.8434 C   0  0  0  0  0  0  0  0  0  0  0  0
   -8.8309    4.4547  -17.2649 C   0  0  0  0  0  0  0  0  0  0  0  0
  -10.1792    4.1872  -18.3019 Cl  0  0  0  0  0  0  0  0  0  0  0  0
   -9.0314    4.5135  -15.8868 C   0  0  0  0  0  0  0  0  0  0  0  0
   -7.9517    4.8056  -15.0481 C   0  0  0  0  0  0  0  0  0  0  0  0
   -6.6617    4.9890  -15.5953 C   0  0  0  0  0  0  0  0  0  0  0  0
   -4.5766    5.8505  -18.4120 C   0  0  0  0  0  0  0  0  0  0  0  0
   -4.9441    5.1989  -19.7334 C   0  0  0  0  0  0  0  0  0  0  0  0
   -3.5029    5.2200  -20.1125 N   0  0  0  0  0  0  0  0  0  0  0  0
   -3.1760    5.2506  -18.6731 C   0  0  0  0  0  0  0  0  0  0  0  0
   -3.2133    6.0498  -20.6301 H   0  0  0  0  0  0  0  0  0  0  0  0
   -8.1554    5.1437  -13.6322 C   0  0  0  0  0  0  0  0  0  0  0  0
   -8.4584    6.3029  -13.3769 O   0  0  0  0  0  0  0  0  0  0  0  0
   -7.9254    4.1281  -12.5305 C   0  0  0  0  0  0  0  0  0  0  0  0
   -7.4379    3.0501  -12.8427 O   0  0  0  0  0  0  0  0  0  0  0  0
   -8.1586    4.4213  -11.0900 C   0  0  0  0  0  0  0  0  0  0  0  0
   -7.8626    5.6558  -10.4973 C   0  0  0  0  0  0  0  0  0  0  0  0
   -8.0055    5.8378   -9.1226 C   0  0  0  0  0  0  0  0  0  0  0  0
   -8.4660    4.7928   -8.3314 C   0  0  0  0  0  0  0  0  0  0  0  0
   -8.8105    3.5671   -8.9094 C   0  0  0  0  0  0  0  0  0  0  0  0
   -8.6513    3.3776  -10.2836 C   0  0  0  0  0  0  0  0  0  0  0  0
   -9.3486    2.5539   -8.0542 C   0  0  0  0  0  0  0  0  0  0  0  0
   -9.7355    1.8406   -7.2266 N   0  0  0  0  0  0  0  0  0  0  0  0
  1  2  1  0  0  0
  2  3  2  0  0  0
  3  4  1  0  0  0
  4 12  1  0  0  0
 12 13  1  0  0  0
 13 14  1  0  0  0
 14 15  1  0  0  0
  4  5  1  0  0  0
  5  6  2  0  0  0
  6  7  1  0  0  0
  7  8  1  0  0  0
  7  9  2  0  0  0
  9 10  1  0  0  0
 10 17  1  0  0  0
 17 18  2  0  0  0
 17 19  1  0  0  0
 19 20  2  0  0  0
 19 21  1  0  0  0
 21 22  2  0  0  0
 22 23  1  0  0  0
 23 24  2  0  0  0
 24 25  1  0  0  0
 25 27  1  0  0  0
 27 28  3  0  0  0
 25 26  2  0  0  0
 10 11  2  0  0  0
 11  2  1  0  0  0
 15 12  1  0  0  0
 11  5  1  0  0  0
 26 21  1  0  0  0
 14 16  1  0  0  0
M  END
> <minimizedAffinity>
-8.03472

> <minimizedRMSD>
0.54950

$$$$
P28553


 31 35  0  0  0  0  0  0  0  0999 V2000
   -8.3464    4.9390  -13.7681 C   0  0  0  0  0  0  0  0  0  0  0  0
   -9.0317    5.9272  -13.5239 O   0  0  0  0  0  0  0  0  0  0  0  0
   -8.0524    4.6900  -15.1843 C   0  0  0  0  0  0  0  0  0  0  0  0
   -9.0487    4.3322  -16.0938 C   0  0  0  0  0  0  0  0  0  0  0  0
   -8.7632    4.3444  -17.4589 C   0  0  0  0  0  0  0  0  0  0  0  0
  -10.0158    3.9693  -18.5801 Cl  0  0  0  0  0  0  0  0  0  0  0  0
   -7.5064    4.7332  -17.9570 C   0  0  0  0  0  0  0  0  0  0  0  0
   -6.5184    5.1121  -17.0310 C   0  0  0  0  0  0  0  0  0  0  0  0
   -6.7764    5.0604  -15.6556 C   0  0  0  0  0  0  0  0  0  0  0  0
   -5.5711    5.4541  -15.0430 C   0  0  0  0  0  0  0  0  0  0  0  0
   -4.6216    5.7401  -15.9231 N   0  0  0  0  0  0  0  0  0  0  0  0
   -5.2255    5.6035  -17.1241 N   0  0  0  0  0  0  0  0  0  0  0  0
   -4.4517    6.0758  -18.2780 C   0  0  0  0  0  0  0  0  0  0  0  0
   -5.1767    6.8215  -19.3950 C   0  0  0  0  0  0  0  0  0  0  0  0
   -4.2315    6.1557  -20.3335 N   0  0  0  0  0  0  0  0  0  0  0  0
   -4.1410    5.0427  -19.3465 C   0  0  0  0  0  0  0  0  0  0  0  0
   -3.3585    6.6601  -20.4874 H   0  0  0  0  0  0  0  0  0  0  0  0
   -7.8052    4.0663  -12.6508 C   0  0  0  0  0  0  0  0  0  0  0  0
   -7.0014    3.1867  -12.9211 O   0  0  0  0  0  0  0  0  0  0  0  0
   -8.2616    5.5544   -9.1666 C   0  0  0  0  0  0  0  0  0  0  0  0
   -8.0120    5.4853  -10.5455 C   0  0  0  0  0  0  0  0  0  0  0  0
   -8.1920    4.2843  -11.2291 C   0  0  0  0  0  0  0  0  0  0  0  0
   -8.6642    3.1762  -10.5196 C   0  0  0  0  0  0  0  0  0  0  0  0
   -8.9154    3.2153   -9.1576 C   0  0  0  0  0  0  0  0  0  0  0  0
   -9.3388    2.0940   -8.5623 N   0  0  0  0  0  0  0  0  0  0  0  0
   -9.4964    2.0905   -7.2233 C   0  0  0  0  0  0  0  0  0  0  0  0
   -9.3014    3.1952   -6.4271 C   0  0  0  0  0  0  0  0  0  0  0  0
   -8.9131    4.3752   -7.0516 C   0  0  0  0  0  0  0  0  0  0  0  0
   -8.6978    4.4134   -8.4507 C   0  0  0  0  0  0  0  0  0  0  0  0
   -7.7618    7.7897   -7.9432 N   0  0  0  0  0  0  0  0  0  0  0  0
   -7.9964    6.7945   -8.4931 C   0  0  0  0  0  0  0  0  0  0  0  0
 30 31  3  0  0  0
 31 20  1  0  0  0
 20 21  2  0  0  0
 21 22  1  0  0  0
 22 18  1  0  0  0
 18 19  2  0  0  0
 18  1  1  0  0  0
  1  2  2  0  0  0
  1  3  1  0  0  0
  3  4  2  0  0  0
  4  5  1  0  0  0
  5  6  1  0  0  0
  5  7  2  0  0  0
  7  8  1  0  0  0
  8  9  2  0  0  0
  9 10  1  0  0  0
 10 11  2  0  0  0
 11 12  1  0  0  0
 12 13  1  0  0  0
 13 14  1  0  0  0
 14 15  1  0  0  0
 15 16  1  0  0  0
 22 23  2  0  0  0
 23 24  1  0  0  0
 24 25  2  0  0  0
 25 26  1  0  0  0
 26 27  2  0  0  0
 27 28  1  0  0  0
 28 29  2  0  0  0
 29 20  1  0  0  0
  9  3  1  0  0  0
 16 13  1  0  0  0
 29 24  1  0  0  0
 12  8  1  0  0  0
 15 17  1  0  0  0
M  END
> <minimizedAffinity>
-9.02033

> <minimizedRMSD>
0.50137

$$$$
P28554


 30 33  0  0  0  0  0  0  0  0999 V2000
   -4.9327    5.3253  -17.9556 N   0  0  0  0  0  0  0  0  0  0  0  0
   -4.1457    5.6132  -16.8973 N   0  0  0  0  0  0  0  0  0  0  0  0
   -4.9343    5.4068  -15.8454 C   0  0  0  0  0  0  0  0  0  0  0  0
   -6.2550    5.0444  -16.2044 C   0  0  0  0  0  0  0  0  0  0  0  0
   -7.4524    4.7459  -15.5049 C   0  0  0  0  0  0  0  0  0  0  0  0
   -8.6036    4.4444  -16.2437 C   0  0  0  0  0  0  0  0  0  0  0  0
   -8.5588    4.4426  -17.6390 C   0  0  0  0  0  0  0  0  0  0  0  0
  -10.0050    4.1252  -18.5144 Cl  0  0  0  0  0  0  0  0  0  0  0  0
   -7.3823    4.7220  -18.3467 C   0  0  0  0  0  0  0  0  0  0  0  0
   -6.2347    5.0255  -17.6024 C   0  0  0  0  0  0  0  0  0  0  0  0
   -4.3899    7.4213  -20.8458 C   0  0  0  0  0  0  0  0  0  0  0  0
   -3.6932    6.5867  -19.7903 C   0  0  0  0  0  0  0  0  0  0  0  0
   -4.3639    5.2610  -19.3340 C   0  0  0  0  0  0  0  0  0  0  0  0
   -2.9565    4.6002  -19.3381 C   0  0  0  0  0  0  0  0  0  0  0  0
   -2.4148    5.7702  -20.1883 C   0  0  0  0  0  0  0  0  0  0  0  0
   -1.1310    6.3953  -19.6451 C   0  0  0  0  0  0  0  0  0  0  0  0
   -2.1975    5.4007  -21.5788 O   0  0  0  0  0  0  0  0  0  0  0  0
   -1.3685    4.9029  -21.6554 H   0  0  0  0  0  0  0  0  0  0  0  0
   -7.4225    4.7816  -14.0239 C   0  0  0  0  0  0  0  0  0  0  0  0
   -6.3941    4.4879  -13.4206 O   0  0  0  0  0  0  0  0  0  0  0  0
   -8.5656    5.2950  -13.1861 C   0  0  0  0  0  0  0  0  0  0  0  0
   -9.4311    6.0039  -13.6834 O   0  0  0  0  0  0  0  0  0  0  0  0
   -8.4711    5.1047  -11.7178 C   0  0  0  0  0  0  0  0  0  0  0  0
   -8.1800    6.2580  -10.9776 C   0  0  0  0  0  0  0  0  0  0  0  0
   -8.0846    6.1938   -9.5927 C   0  0  0  0  0  0  0  0  0  0  0  0
   -8.3026    4.9816   -8.9459 C   0  0  0  0  0  0  0  0  0  0  0  0
   -8.6198    3.8237   -9.6740 C   0  0  0  0  0  0  0  0  0  0  0  0
   -8.6841    3.8733  -11.0768 C   0  0  0  0  0  0  0  0  0  0  0  0
   -8.9547    2.6588   -8.9040 C   0  0  0  0  0  0  0  0  0  0  0  0
   -9.3477    1.8418   -8.1811 N   0  0  0  0  0  0  0  0  0  0  0  0
 12 11  1  0  0  0
 12 13  1  0  0  0
 13  1  1  0  0  0
  1  2  1  0  0  0
  2  3  2  0  0  0
  3  4  1  0  0  0
  4  5  2  0  0  0
  5 19  1  0  0  0
 19 20  2  0  0  0
 19 21  1  0  0  0
 21 22  2  0  0  0
 21 23  1  0  0  0
 23 24  2  0  0  0
 24 25  1  0  0  0
 25 26  2  0  0  0
 26 27  1  0  0  0
 27 29  1  0  0  0
 29 30  3  0  0  0
 27 28  2  0  0  0
  5  6  1  0  0  0
  6  7  2  0  0  0
  7  8  1  0  0  0
  7  9  1  0  0  0
  9 10  2  0  0  0
 13 14  1  0  0  0
 14 15  1  0  0  0
 15 16  1  0  0  0
 15 17  1  0  0  0
 15 12  1  0  0  0
 10  1  1  0  0  0
 10  4  1  0  0  0
 28 23  1  0  0  0
 17 18  1  0  0  0
M  END
> <minimizedAffinity>
-9.04322

> <minimizedRMSD>
0.20628

$$$$
P28558


 37 43  0  0  0  0  0  0  0  0999 V2000
   -7.9255    4.6470  -15.5833 C   0  0  0  0  0  0  0  0  0  0  0  0
   -9.0624    4.3257  -16.3301 C   0  0  0  0  0  0  0  0  0  0  0  0
   -8.9867    4.3769  -17.7294 C   0  0  0  0  0  0  0  0  0  0  0  0
  -10.3841    4.1085  -18.6977 Cl  0  0  0  0  0  0  0  0  0  0  0  0
   -7.8219    4.7967  -18.3762 C   0  0  0  0  0  0  0  0  0  0  0  0
   -6.7220    5.1592  -17.6245 C   0  0  0  0  0  0  0  0  0  0  0  0
   -6.7518    4.9974  -16.2482 C   0  0  0  0  0  0  0  0  0  0  0  0
   -5.3895    5.2610  -15.6949 C   0  0  0  0  0  0  0  0  0  0  0  0
   -4.6524    5.9267  -16.9088 C   0  0  0  0  0  0  0  0  0  0  0  0
   -4.4117    7.4102  -16.5290 C   0  0  0  0  0  0  0  0  0  0  0  0
   -3.3069    8.1052  -17.3032 C   0  0  0  0  0  0  0  0  0  0  0  0
   -1.9774    7.3623  -17.2521 C   0  0  0  0  0  0  0  0  0  0  0  0
   -2.0838    5.8742  -16.9283 C   0  0  0  0  0  0  0  0  0  0  0  0
   -3.3730    5.1922  -17.3824 C   0  0  0  0  0  0  0  0  0  0  0  0
   -3.5316    4.9155  -18.9047 C   0  0  0  0  0  0  0  0  0  0  0  0
   -2.6061    5.4604  -19.8994 N   0  0  0  0  0  0  0  0  0  0  0  0
   -3.2441    6.6016  -20.5425 C   0  0  0  0  0  0  0  0  0  0  0  0
   -4.7334    6.5414  -20.2486 C   0  0  0  0  0  0  0  0  0  0  0  0
   -4.9389    5.3731  -19.2958 C   0  0  0  0  0  0  0  0  0  0  0  0
   -5.5765    5.8286  -18.0670 N   0  0  0  0  0  0  0  0  0  0  0  0
   -2.3906    4.7478  -20.5967 H   0  0  0  0  0  0  0  0  0  0  0  0
   -7.2906    3.9436  -13.2466 N   0  0  0  0  0  0  0  0  0  0  0  0
   -8.0178    4.9616  -14.1391 C   0  0  0  0  0  0  0  0  0  0  0  0
   -8.5830    5.9425  -13.8610 O   0  0  0  0  0  0  0  0  0  0  0  0
   -6.9539    3.1481  -13.7188 H   0  0  0  0  0  0  0  0  0  0  0  0
   -7.1608    5.4374   -9.7363 C   0  0  0  0  0  0  0  0  0  0  0  0
   -7.1865    5.3889  -11.2613 C   0  0  0  0  0  0  0  0  0  0  0  0
   -7.0185    3.9641  -11.8168 C   0  0  0  0  0  0  0  0  0  0  0  0
   -7.7530    2.8807  -11.0065 C   0  0  0  0  0  0  0  0  0  0  0  0
   -8.7693    3.4067   -9.9888 C   0  0  0  0  0  0  0  0  0  0  0  0
   -9.1422    2.4041   -8.8907 C   0  0  0  0  0  0  0  0  0  0  0  0
   -9.3716    3.2138   -7.6814 N   0  0  0  0  0  0  0  0  0  0  0  0
   -8.3591    4.2647   -7.7437 C   0  0  0  0  0  0  0  0  0  0  0  0
   -8.3599    4.6635   -9.2101 C   0  0  0  0  0  0  0  0  0  0  0  0
   -9.2521    2.6480   -6.8412 H   0  0  0  0  0  0  0  0  0  0  0  0
   -4.8130    4.7088   -8.7868 N   0  0  0  0  0  0  0  0  0  0  0  0
   -5.8562    4.9969   -9.2069 C   0  0  0  0  0  0  0  0  0  0  0  0
 36 37  3  0  0  0
 26 37  1  0  0  0
 26 27  1  0  0  0
 27 28  1  0  0  0
 28 22  1  0  0  0
 22 23  1  0  0  0
 23 24  2  0  0  0
 23  1  1  0  0  0
  1  2  2  0  0  0
  2  3  1  0  0  0
  3  4  1  0  0  0
  3  5  2  0  0  0
  5  6  1  0  0  0
  6  7  2  0  0  0
  7  8  1  0  0  0
  9  8  1  0  0  0
  9 10  1  0  0  0
 10 11  1  0  0  0
 11 12  1  0  0  0
 12 13  1  0  0  0
 14 13  1  0  0  0
 14 15  1  0  0  0
 15 16  1  0  0  0
 16 17  1  0  0  0
 17 18  1  0  0  0
 19 18  1  0  0  0
 19 20  1  0  0  0
 28 29  1  0  0  0
 30 29  1  0  0  0
 30 31  1  0  0  0
 31 32  1  0  0  0
 32 33  1  0  0  0
 34 33  1  0  0  0
 34 26  1  0  0  0
  7  1  1  0  0  0
 14  9  1  0  0  0
 19 15  1  0  0  0
 34 30  1  0  0  0
 20  6  1  0  0  0
 20  9  1  0  0  0
 22 25  1  0  0  0
 16 21  1  0  0  0
 32 35  1  0  0  0
M  END
> <minimizedAffinity>
-9.49862

> <minimizedRMSD>
0.65727

$$$$
P28559


 37 42  0  0  0  0  0  0  0  0999 V2000
   -8.2057    4.7764  -15.4644 C   0  0  0  0  0  0  0  0  0  0  0  0
   -9.2699    4.3598  -16.2529 C   0  0  0  0  0  0  0  0  0  0  0  0
   -9.0782    4.2614  -17.6320 C   0  0  0  0  0  0  0  0  0  0  0  0
  -10.4348    3.9292  -18.6296 Cl  0  0  0  0  0  0  0  0  0  0  0  0
   -7.8310    4.5266  -18.2155 C   0  0  0  0  0  0  0  0  0  0  0  0
   -6.7737    4.9270  -17.4087 C   0  0  0  0  0  0  0  0  0  0  0  0
   -6.9789    5.0561  -16.0475 C   0  0  0  0  0  0  0  0  0  0  0  0
   -5.7557    5.5598  -15.3736 C   0  0  0  0  0  0  0  0  0  0  0  0
   -4.7473    5.7513  -16.5613 C   0  0  0  0  0  0  0  0  0  0  0  0
   -3.4966    4.9043  -16.2556 C   0  0  0  0  0  0  0  0  0  0  0  0
   -2.6821    5.4802  -15.0938 C   0  0  0  0  0  0  0  0  0  0  0  0
   -2.3273    6.8802  -15.3114 N   0  0  0  0  0  0  0  0  0  0  0  0
   -3.5203    7.7090  -15.4707 C   0  0  0  0  0  0  0  0  0  0  0  0
   -4.3668    7.2453  -16.6560 C   0  0  0  0  0  0  0  0  0  0  0  0
   -5.4548    5.2688  -17.7962 N   0  0  0  0  0  0  0  0  0  0  0  0
   -1.7574    6.9518  -16.1543 H   0  0  0  0  0  0  0  0  0  0  0  0
   -5.0243    5.3307  -19.1702 C   0  0  0  0  0  0  0  0  0  0  0  0
   -5.0520    6.7272  -19.8244 C   0  0  0  0  0  0  0  0  0  0  0  0
   -3.8469    6.3368  -20.6080 N   0  0  0  0  0  0  0  0  0  0  0  0
   -3.5289    5.3584  -19.5310 C   0  0  0  0  0  0  0  0  0  0  0  0
   -3.1573    7.0794  -20.7230 H   0  0  0  0  0  0  0  0  0  0  0  0
   -7.9238    4.0562  -13.1022 N   0  0  0  0  0  0  0  0  0  0  0  0
   -8.4114    5.1474  -14.0602 C   0  0  0  0  0  0  0  0  0  0  0  0
   -8.8662    6.1955  -13.8411 O   0  0  0  0  0  0  0  0  0  0  0  0
   -7.6484    3.2178  -13.5386 H   0  0  0  0  0  0  0  0  0  0  0  0
   -8.3422    5.5776   -9.6053 C   0  0  0  0  0  0  0  0  0  0  0  0
   -8.1041    5.4699  -11.1144 C   0  0  0  0  0  0  0  0  0  0  0  0
   -7.8015    4.0567  -11.6568 C   0  0  0  0  0  0  0  0  0  0  0  0
   -8.6103    2.9119  -11.0212 C   0  0  0  0  0  0  0  0  0  0  0  0
   -9.0787    3.2461   -9.6133 C   0  0  0  0  0  0  0  0  0  0  0  0
   -9.2047    2.1300   -8.6053 C   0  0  0  0  0  0  0  0  0  0  0  0
   -9.2861    2.8502   -7.3200 N   0  0  0  0  0  0  0  0  0  0  0  0
   -8.5800    4.1306   -7.4592 C   0  0  0  0  0  0  0  0  0  0  0  0
   -8.1547    4.2334   -8.9186 C   0  0  0  0  0  0  0  0  0  0  0  0
   -8.8488    2.2940   -6.5853 H   0  0  0  0  0  0  0  0  0  0  0  0
   -7.0353    7.5863   -8.5349 N   0  0  0  0  0  0  0  0  0  0  0  0
   -7.5816    6.6799   -9.0090 C   0  0  0  0  0  0  0  0  0  0  0  0
 36 37  3  0  0  0
 26 37  1  0  0  0
 26 27  1  0  0  0
 27 28  1  0  0  0
 28 22  1  0  0  0
 22 23  1  0  0  0
 23 24  2  0  0  0
 23  1  1  0  0  0
  1  2  2  0  0  0
  2  3  1  0  0  0
  3  4  1  0  0  0
  3  5  2  0  0  0
  5  6  1  0  0  0
  6  7  2  0  0  0
  7  8  1  0  0  0
  8  9  1  0  0  0
  9 10  1  0  0  0
 10 11  1  0  0  0
 11 12  1  0  0  0
 12 13  1  0  0  0
 13 14  1  0  0  0
  9 15  1  0  0  0
 15 17  1  0  0  0
 17 18  1  0  0  0
 18 19  1  0  0  0
 19 20  1  0  0  0
 28 29  1  0  0  0
 30 29  1  0  0  0
 30 31  1  0  0  0
 31 32  1  0  0  0
 32 33  1  0  0  0
 34 33  1  0  0  0
 34 26  1  0  0  0
  7  1  1  0  0  0
 14  9  1  0  0  0
 20 17  1  0  0  0
 34 30  1  0  0  0
 15  6  1  0  0  0
 22 25  1  0  0  0
 12 16  1  0  0  0
 19 21  1  0  0  0
 32 35  1  0  0  0
M  END
> <minimizedAffinity>
-9.19045

> <minimizedRMSD>
0.53171

$$$$
P28562


 38 42  0  0  0  0  0  0  0  0999 V2000
   -5.5171    5.4339  -15.2923 C   0  0  0  0  0  0  0  0  0  0  0  0
   -5.5240    6.8311  -14.6846 C   0  0  0  0  0  0  0  0  0  0  0  0
   -4.6441    5.5099  -16.6022 C   0  0  0  0  0  0  0  0  0  0  0  0
   -3.4592    5.8165  -16.6399 O   0  0  0  0  0  0  0  0  0  0  0  0
   -5.4699    5.2000  -17.6899 N   0  0  0  0  0  0  0  0  0  0  0  0
   -6.7724    4.9213  -17.2448 C   0  0  0  0  0  0  0  0  0  0  0  0
   -7.8545    4.5743  -18.0368 C   0  0  0  0  0  0  0  0  0  0  0  0
   -9.0690    4.3384  -17.4125 C   0  0  0  0  0  0  0  0  0  0  0  0
  -10.4510    3.9627  -18.3479 Cl  0  0  0  0  0  0  0  0  0  0  0  0
   -9.1973    4.4750  -16.0340 C   0  0  0  0  0  0  0  0  0  0  0  0
   -8.1079    4.8577  -15.2376 C   0  0  0  0  0  0  0  0  0  0  0  0
   -6.8720    5.0561  -15.8498 C   0  0  0  0  0  0  0  0  0  0  0  0
   -5.1042    5.1947  -19.1309 C   0  0  0  0  0  0  0  0  0  0  0  0
   -4.8770    6.5931  -19.7404 C   0  0  0  0  0  0  0  0  0  0  0  0
   -3.4152    6.3998  -19.5984 N   0  0  0  0  0  0  0  0  0  0  0  0
   -3.6361    4.9395  -19.5249 C   0  0  0  0  0  0  0  0  0  0  0  0
   -3.0187    6.8070  -18.7514 H   0  0  0  0  0  0  0  0  0  0  0  0
   -8.4609    5.1302  -13.8191 C   0  0  0  0  0  0  0  0  0  0  0  0
   -9.3700    5.8366  -13.6353 O   0  0  0  0  0  0  0  0  0  0  0  0
   -7.6034    4.3332  -12.8266 N   0  0  0  0  0  0  0  0  0  0  0  0
   -6.9333    3.7436  -13.2420 H   0  0  0  0  0  0  0  0  0  0  0  0
   -7.6192    4.3067  -11.3711 C   0  0  0  0  0  0  0  0  0  0  0  0
   -8.2377    5.5953  -10.7881 C   0  0  0  0  0  0  0  0  0  0  0  0
   -8.2711    5.6351   -9.2454 C   0  0  0  0  0  0  0  0  0  0  0  0
   -8.2650    4.2267   -8.6555 C   0  0  0  0  0  0  0  0  0  0  0  0
   -8.9126    4.0554   -7.2886 C   0  0  0  0  0  0  0  0  0  0  0  0
   -9.4963    2.7059   -7.2817 N   0  0  0  0  0  0  0  0  0  0  0  0
   -9.2048    2.0818   -8.5912 C   0  0  0  0  0  0  0  0  0  0  0  0
   -9.0431    3.2639   -9.5248 C   0  0  0  0  0  0  0  0  0  0  0  0
   -8.3388    3.0338  -10.8597 C   0  0  0  0  0  0  0  0  0  0  0  0
  -10.5050    2.7645   -7.1420 H   0  0  0  0  0  0  0  0  0  0  0  0
   -7.1281    6.4042   -8.7165 C   0  0  0  0  0  0  0  0  0  0  0  0
   -6.2334    7.0058   -8.2861 N   0  0  0  0  0  0  0  0  0  0  0  0
   -5.1485    4.4012  -14.3826 O   0  0  0  0  0  0  0  0  0  0  0  0
   -4.1459    4.7385  -13.4238 C   0  0  0  0  0  0  0  0  0  0  0  0
   -4.0428    3.6240  -12.3783 C   0  0  0  0  0  0  0  0  0  0  0  0
   -2.9219    1.7560  -13.3361 C   0  0  0  0  0  0  0  0  0  0  0  0
   -2.8210    2.8949  -12.4950 O   0  0  0  0  0  0  0  0  0  0  0  0
 37 38  1  0  0  0
 38 36  1  0  0  0
 36 35  1  0  0  0
 35 34  1  0  0  0
 34  1  1  0  0  0
  1  2  1  0  0  0
  1  3  1  0  0  0
  3  4  2  0  0  0
  3  5  1  0  0  0
  5 13  1  0  0  0
 13 14  1  0  0  0
 14 15  1  0  0  0
 15 16  1  0  0  0
  5  6  1  0  0  0
  6  7  2  0  0  0
  7  8  1  0  0  0
  8  9  1  0  0  0
  8 10  2  0  0  0
 10 11  1  0  0  0
 11 18  1  0  0  0
 18 19  2  0  0  0
 18 20  1  0  0  0
 22 20  1  0  0  0
 22 23  1  0  0  0
 23 24  1  0  0  0
 24 32  1  0  0  0
 32 33  3  0  0  0
 24 25  1  0  0  0
 25 26  1  0  0  0
 26 27  1  0  0  0
 27 28  1  0  0  0
 29 28  1  0  0  0
 29 30  1  0  0  0
 11 12  2  0  0  0
 12  1  1  0  0  0
 16 13  1  0  0  0
 12  6  1  0  0  0
 30 22  1  0  0  0
 29 25  1  0  0  0
 15 17  1  0  0  0
 20 21  1  0  0  0
 27 31  1  0  0  0
M  END
> <minimizedAffinity>
-8.25277

> <minimizedRMSD>
0.62877

$$$$
P28563


 32 35  0  0  0  0  0  0  0  0999 V2000
   -8.3263    4.2928  -12.9090 N   0  0  0  0  0  0  0  0  0  0  0  0
   -8.0277    5.4030  -13.9465 C   0  0  0  0  0  0  0  0  0  0  0  0
   -7.8678    6.5522  -13.8019 O   0  0  0  0  0  0  0  0  0  0  0  0
   -8.4965    3.4031  -13.2947 H   0  0  0  0  0  0  0  0  0  0  0  0
   -7.9692    4.9134  -15.3428 C   0  0  0  0  0  0  0  0  0  0  0  0
   -9.1464    4.5719  -16.0171 C   0  0  0  0  0  0  0  0  0  0  0  0
   -9.1300    4.4140  -17.4006 C   0  0  0  0  0  0  0  0  0  0  0  0
  -10.6078    4.2148  -18.2517 Cl  0  0  0  0  0  0  0  0  0  0  0  0
   -7.9566    4.5329  -18.1463 C   0  0  0  0  0  0  0  0  0  0  0  0
   -6.7818    4.8516  -17.4613 C   0  0  0  0  0  0  0  0  0  0  0  0
   -6.7496    5.0524  -16.0558 C   0  0  0  0  0  0  0  0  0  0  0  0
   -5.4041    5.4231  -15.6413 C   0  0  0  0  0  0  0  0  0  0  0  0
   -4.6449    5.4481  -16.7470 N   0  0  0  0  0  0  0  0  0  0  0  0
   -3.4335    5.7385  -16.8762 O   0  0  0  0  0  0  0  0  0  0  0  0
   -5.4875    5.0939  -17.8878 N   0  0  0  0  0  0  0  0  0  0  0  0
   -5.0908    5.0942  -19.3178 C   0  0  0  0  0  0  0  0  0  0  0  0
   -4.9332    6.5108  -19.8872 C   0  0  0  0  0  0  0  0  0  0  0  0
   -3.4681    6.3996  -19.7325 N   0  0  0  0  0  0  0  0  0  0  0  0
   -3.5915    4.9359  -19.6050 C   0  0  0  0  0  0  0  0  0  0  0  0
   -3.1013    6.8606  -18.8998 H   0  0  0  0  0  0  0  0  0  0  0  0
   -8.7978    3.3277   -9.3620 C   0  0  0  0  0  0  0  0  0  0  0  0
   -8.4523    4.5284   -8.7261 C   0  0  0  0  0  0  0  0  0  0  0  0
   -8.0950    5.6519   -9.4696 C   0  0  0  0  0  0  0  0  0  0  0  0
   -8.0602    5.5439  -10.8639 C   0  0  0  0  0  0  0  0  0  0  0  0
   -8.3935    4.3485  -11.5147 C   0  0  0  0  0  0  0  0  0  0  0  0
   -8.7729    3.2341  -10.7616 C   0  0  0  0  0  0  0  0  0  0  0  0
   -7.6988    6.9339   -8.7862 C   0  0  0  0  0  0  0  0  0  0  0  0
   -6.2690    6.9498   -8.4962 N   0  0  0  0  0  0  0  0  0  0  0  0
   -6.0394    6.1740   -7.8750 H   0  0  0  0  0  0  0  0  0  0  0  0
   -6.0234    7.8309   -8.0448 H   0  0  0  0  0  0  0  0  0  0  0  0
   -9.5650    1.5040   -7.7008 N   0  0  0  0  0  0  0  0  0  0  0  0
   -9.2071    2.2469   -8.5159 C   0  0  0  0  0  0  0  0  0  0  0  0
 31 32  3  0  0  0
 32 21  1  0  0  0
 21 22  2  0  0  0
 22 23  1  0  0  0
 23 27  1  0  0  0
 27 28  1  0  0  0
 23 24  2  0  0  0
 24 25  1  0  0  0
 25  1  1  0  0  0
  1  2  1  0  0  0
  2  3  2  0  0  0
  2  5  1  0  0  0
  5  6  2  0  0  0
  6  7  1  0  0  0
  7  8  1  0  0  0
  7  9  2  0  0  0
  9 10  1  0  0  0
 10 11  2  0  0  0
 11 12  1  0  0  0
 12 13  2  0  0  0
 13 14  1  0  0  0
 13 15  1  0  0  0
 15 16  1  0  0  0
 16 17  1  0  0  0
 17 18  1  0  0  0
 18 19  1  0  0  0
 25 26  2  0  0  0
 26 21  1  0  0  0
 11  5  1  0  0  0
 19 16  1  0  0  0
 15 10  1  0  0  0
 28 29  1  0  0  0
 28 30  1  0  0  0
  1  4  1  0  0  0
 18 20  1  0  0  0
M  CHG 1  13   1
M  CHG 1  14  -1
M  END
> <minimizedAffinity>
-8.09715

> <minimizedRMSD>
0.31543

$$$$
P28564


 33 37  0  0  0  0  0  0  0  0999 V2000
   -8.3972    4.1314  -12.8682 N   0  0  0  0  0  0  0  0  0  0  0  0
   -8.5842    5.2466  -13.9206 C   0  0  0  0  0  0  0  0  0  0  0  0
   -8.9159    6.3593  -13.7937 O   0  0  0  0  0  0  0  0  0  0  0  0
   -8.1815    3.2457  -13.2402 H   0  0  0  0  0  0  0  0  0  0  0  0
   -8.1642    5.3971   -9.3728 C   0  0  0  0  0  0  0  0  0  0  0  0
   -8.1477    5.3513  -10.7766 C   0  0  0  0  0  0  0  0  0  0  0  0
   -8.4843    4.1750  -11.4744 C   0  0  0  0  0  0  0  0  0  0  0  0
   -8.8581    3.0279  -10.7702 C   0  0  0  0  0  0  0  0  0  0  0  0
   -8.8684    3.0746   -9.3820 C   0  0  0  0  0  0  0  0  0  0  0  0
   -8.5315    4.2478   -8.7043 C   0  0  0  0  0  0  0  0  0  0  0  0
   -8.6261    3.9715   -7.2634 C   0  0  0  0  0  0  0  0  0  0  0  0
   -8.3250    4.7280   -6.3619 O   0  0  0  0  0  0  0  0  0  0  0  0
   -9.1046    2.6875   -7.1345 N   0  0  0  0  0  0  0  0  0  0  0  0
   -9.1350    1.9854   -8.3961 C   0  0  0  0  0  0  0  0  0  0  0  0
   -9.3932    2.2928   -6.2800 H   0  0  0  0  0  0  0  0  0  0  0  0
   -7.4278    7.5774   -8.1839 N   0  0  0  0  0  0  0  0  0  0  0  0
   -7.7728    6.5892   -8.6869 C   0  0  0  0  0  0  0  0  0  0  0  0
   -8.2301    4.8200  -15.2985 C   0  0  0  0  0  0  0  0  0  0  0  0
   -9.2167    4.4809  -16.2262 C   0  0  0  0  0  0  0  0  0  0  0  0
   -8.8888    4.3781  -17.5760 C   0  0  0  0  0  0  0  0  0  0  0  0
  -10.1302    4.0592  -18.7236 Cl  0  0  0  0  0  0  0  0  0  0  0  0
   -7.5954    4.6370  -18.0499 C   0  0  0  0  0  0  0  0  0  0  0  0
   -6.5996    4.9309  -17.1111 C   0  0  0  0  0  0  0  0  0  0  0  0
   -6.8815    4.9673  -15.7126 C   0  0  0  0  0  0  0  0  0  0  0  0
   -5.6541    5.1747  -14.9571 C   0  0  0  0  0  0  0  0  0  0  0  0
   -4.6677    5.2733  -15.8531 N   0  0  0  0  0  0  0  0  0  0  0  0
   -3.4305    5.4081  -15.7028 O   0  0  0  0  0  0  0  0  0  0  0  0
   -5.2536    5.2604  -17.1897 N   0  0  0  0  0  0  0  0  0  0  0  0
   -4.5738    6.0575  -18.2253 C   0  0  0  0  0  0  0  0  0  0  0  0
   -5.3970    6.8728  -19.2076 C   0  0  0  0  0  0  0  0  0  0  0  0
   -4.4239    6.4763  -20.2575 N   0  0  0  0  0  0  0  0  0  0  0  0
   -4.1827    5.2362  -19.4770 C   0  0  0  0  0  0  0  0  0  0  0  0
   -3.6140    7.0907  -20.3403 H   0  0  0  0  0  0  0  0  0  0  0  0
 16 17  3  0  0  0
 17  5  1  0  0  0
  5  6  2  0  0  0
  6  7  1  0  0  0
  7  1  1  0  0  0
  1  2  1  0  0  0
  2  3  2  0  0  0
  2 18  1  0  0  0
 18 19  2  0  0  0
 19 20  1  0  0  0
 20 21  1  0  0  0
 20 22  2  0  0  0
 22 23  1  0  0  0
 23 24  2  0  0  0
 24 25  1  0  0  0
 25 26  2  0  0  0
 26 27  1  0  0  0
 26 28  1  0  0  0
 28 29  1  0  0  0
 29 30  1  0  0  0
 30 31  1  0  0  0
 31 32  1  0  0  0
  7  8  2  0  0  0
  8  9  1  0  0  0
  9 10  2  0  0  0
 10 11  1  0  0  0
 11 12  2  0  0  0
 11 13  1  0  0  0
 13 14  1  0  0  0
 10  5  1  0  0  0
 24 18  1  0  0  0
 32 29  1  0  0  0
 14  9  1  0  0  0
 28 23  1  0  0  0
  1  4  1  0  0  0
 31 33  1  0  0  0
 13 15  1  0  0  0
M  CHG 1  26   1
M  CHG 1  27  -1
M  END
> <minimizedAffinity>
-9.09480

> <minimizedRMSD>
0.59108

$$$$
P28565


 32 36  0  0  0  0  0  0  0  0999 V2000
   -8.4018    4.7107  -12.7840 N   0  0  0  0  0  0  0  0  0  0  0  0
   -7.2049    4.2091  -13.5983 C   0  0  0  0  0  0  0  0  0  0  0  0
   -6.2417    3.6525  -13.2585 O   0  0  0  0  0  0  0  0  0  0  0  0
   -9.1358    5.0884  -13.3204 H   0  0  0  0  0  0  0  0  0  0  0  0
   -7.3147    4.5909  -15.0387 C   0  0  0  0  0  0  0  0  0  0  0  0
   -8.4821    4.3810  -15.7846 C   0  0  0  0  0  0  0  0  0  0  0  0
   -8.4634    4.5729  -17.1644 C   0  0  0  0  0  0  0  0  0  0  0  0
   -9.8923    4.2472  -18.0781 Cl  0  0  0  0  0  0  0  0  0  0  0  0
   -7.3135    5.0201  -17.8371 C   0  0  0  0  0  0  0  0  0  0  0  0
   -6.1644    5.2994  -17.0798 C   0  0  0  0  0  0  0  0  0  0  0  0
   -6.1409    5.0741  -15.6703 C   0  0  0  0  0  0  0  0  0  0  0  0
   -4.8253    5.3724  -15.1269 C   0  0  0  0  0  0  0  0  0  0  0  0
   -4.0628    5.7582  -16.1479 N   0  0  0  0  0  0  0  0  0  0  0  0
   -2.8578    6.1065  -16.1686 O   0  0  0  0  0  0  0  0  0  0  0  0
   -4.8826    5.7576  -17.3623 N   0  0  0  0  0  0  0  0  0  0  0  0
   -4.2703    6.2177  -18.6143 C   0  0  0  0  0  0  0  0  0  0  0  0
   -5.1312    6.9272  -19.6578 C   0  0  0  0  0  0  0  0  0  0  0  0
   -4.3232    6.2126  -20.6822 N   0  0  0  0  0  0  0  0  0  0  0  0
   -4.0890    5.1414  -19.6771 C   0  0  0  0  0  0  0  0  0  0  0  0
   -3.4815    6.7070  -20.9780 H   0  0  0  0  0  0  0  0  0  0  0  0
   -7.6508    5.5902   -9.1173 C   0  0  0  0  0  0  0  0  0  0  0  0
   -7.5588    5.5748  -10.6527 C   0  0  0  0  0  0  0  0  0  0  0  0
   -8.6291    4.7198  -11.3555 C   0  0  0  0  0  0  0  0  0  0  0  0
   -8.6716    3.2951  -10.7758 C   0  0  0  0  0  0  0  0  0  0  0  0
   -8.9841    3.4149   -9.2964 C   0  0  0  0  0  0  0  0  0  0  0  0
   -9.0403    2.1608   -8.4471 C   0  0  0  0  0  0  0  0  0  0  0  0
   -8.9616    2.6817   -7.0647 N   0  0  0  0  0  0  0  0  0  0  0  0
   -8.3952    4.0401   -7.1222 C   0  0  0  0  0  0  0  0  0  0  0  0
   -7.9189    4.1987   -8.5609 C   0  0  0  0  0  0  0  0  0  0  0  0
   -8.3609    2.0797   -6.5016 H   0  0  0  0  0  0  0  0  0  0  0  0
   -9.2930    7.4793   -8.3433 N   0  0  0  0  0  0  0  0  0  0  0  0
   -8.5870    6.6131   -8.6473 C   0  0  0  0  0  0  0  0  0  0  0  0
 31 32  3  0  0  0
 21 32  1  0  0  0
 21 22  1  0  0  0
 22 23  1  0  0  0
 23  1  1  0  0  0
  1  2  1  0  0  0
  2  3  2  0  0  0
  2  5  1  0  0  0
  5  6  2  0  0  0
  6  7  1  0  0  0
  7  8  1  0  0  0
  7  9  2  0  0  0
  9 10  1  0  0  0
 10 11  2  0  0  0
 11 12  1  0  0  0
 12 13  2  0  0  0
 13 14  1  0  0  0
 13 15  1  0  0  0
 15 16  1  0  0  0
 16 17  1  0  0  0
 17 18  1  0  0  0
 18 19  1  0  0  0
 23 24  1  0  0  0
 25 24  1  0  0  0
 25 26  1  0  0  0
 26 27  1  0  0  0
 27 28  1  0  0  0
 29 28  1  0  0  0
 29 21  1  0  0  0
 11  5  1  0  0  0
 19 16  1  0  0  0
 29 25  1  0  0  0
 15 10  1  0  0  0
  1  4  1  0  0  0
 18 20  1  0  0  0
 27 30  1  0  0  0
M  CHG 1  13   1
M  CHG 1  14  -1
M  END
> <minimizedAffinity>
-8.37205

> <minimizedRMSD>
0.33170

$$$$
P28566


 34 38  0  0  0  0  0  0  0  0999 V2000
   -8.1230    4.9922  -15.0480 C   0  0  0  0  0  0  0  0  0  0  0  0
   -9.1412    4.4632  -15.8527 C   0  0  0  0  0  0  0  0  0  0  0  0
   -8.9193    4.2830  -17.2158 C   0  0  0  0  0  0  0  0  0  0  0  0
  -10.2119    3.8348  -18.2568 Cl  0  0  0  0  0  0  0  0  0  0  0  0
   -7.6894    4.5821  -17.8032 C   0  0  0  0  0  0  0  0  0  0  0  0
   -6.6944    5.1332  -16.9814 C   0  0  0  0  0  0  0  0  0  0  0  0
   -6.8800    5.3207  -15.6170 C   0  0  0  0  0  0  0  0  0  0  0  0
   -5.6704    5.8902  -15.1654 C   0  0  0  0  0  0  0  0  0  0  0  0
   -4.7979    6.0952  -16.1521 N   0  0  0  0  0  0  0  0  0  0  0  0
   -5.4681    5.7083  -17.2547 N   0  0  0  0  0  0  0  0  0  0  0  0
   -5.0863    6.1387  -18.6167 C   0  0  0  0  0  0  0  0  0  0  0  0
   -5.9693    7.1145  -19.3028 N   0  0  0  0  0  0  0  0  0  0  0  0
   -3.6225    6.5802  -18.8385 C   0  0  0  0  0  0  0  0  0  0  0  0
   -3.6375    5.8278  -20.1380 N   0  0  0  0  0  0  0  0  0  0  0  0
   -4.6972    4.9758  -19.5305 C   0  0  0  0  0  0  0  0  0  0  0  0
   -6.2041    7.8710  -18.6602 H   0  0  0  0  0  0  0  0  0  0  0  0
   -6.8242    6.6464  -19.6037 H   0  0  0  0  0  0  0  0  0  0  0  0
   -2.7701    5.3395  -20.3604 H   0  0  0  0  0  0  0  0  0  0  0  0
   -8.2660    4.3200  -12.6466 N   0  0  0  0  0  0  0  0  0  0  0  0
   -8.4003    5.4495  -13.6732 C   0  0  0  0  0  0  0  0  0  0  0  0
   -8.6416    6.5781  -13.5259 O   0  0  0  0  0  0  0  0  0  0  0  0
   -7.9774    3.4560  -13.0200 H   0  0  0  0  0  0  0  0  0  0  0  0
   -7.2131    4.5562   -9.0090 C   0  0  0  0  0  0  0  0  0  0  0  0
   -7.3480    5.0126  -10.4710 C   0  0  0  0  0  0  0  0  0  0  0  0
   -8.4936    4.3162  -11.2221 C   0  0  0  0  0  0  0  0  0  0  0  0
   -8.7869    2.9338  -10.6472 C   0  0  0  0  0  0  0  0  0  0  0  0
   -9.2865    3.1012   -9.2127 C   0  0  0  0  0  0  0  0  0  0  0  0
   -9.2128    1.8740   -8.3289 C   0  0  0  0  0  0  0  0  0  0  0  0
   -9.3642    2.4625   -6.9934 N   0  0  0  0  0  0  0  0  0  0  0  0
   -8.5210    3.6563   -6.9834 C   0  0  0  0  0  0  0  0  0  0  0  0
   -8.5782    4.2043   -8.4111 C   0  0  0  0  0  0  0  0  0  0  0  0
   -9.0551    1.8039   -6.2784 H   0  0  0  0  0  0  0  0  0  0  0  0
   -5.9696    6.3592   -7.5447 N   0  0  0  0  0  0  0  0  0  0  0  0
   -6.5189    5.5797   -8.2065 C   0  0  0  0  0  0  0  0  0  0  0  0
 33 34  3  0  0  0
 23 34  1  0  0  0
 23 24  1  0  0  0
 24 25  1  0  0  0
 25 19  1  0  0  0
 19 20  1  0  0  0
 20 21  2  0  0  0
 20  1  1  0  0  0
  1  2  2  0  0  0
  2  3  1  0  0  0
  3  4  1  0  0  0
  3  5  2  0  0  0
  5  6  1  0  0  0
  6  7  2  0  0  0
  7  8  1  0  0  0
  8  9  2  0  0  0
  9 10  1  0  0  0
 10 11  1  0  0  0
 11 12  1  0  0  0
 11 13  1  0  0  0
 13 14  1  0  0  0
 14 15  1  0  0  0
 25 26  1  0  0  0
 27 26  1  0  0  0
 27 28  1  0  0  0
 28 29  1  0  0  0
 29 30  1  0  0  0
 31 30  1  0  0  0
 31 23  1  0  0  0
  7  1  1  0  0  0
 15 11  1  0  0  0
 31 27  1  0  0  0
 10  6  1  0  0  0
 19 22  1  0  0  0
 12 16  1  0  0  0
 12 17  1  0  0  0
 14 18  1  0  0  0
 29 32  1  0  0  0
M  END
> <minimizedAffinity>
-8.40822

> <minimizedRMSD>
0.42719

$$$$
P28567


 36 40  0  0  0  0  0  0  0  0999 V2000
   -8.4207    4.0878  -12.9195 N   0  0  0  0  0  0  0  0  0  0  0  0
   -8.1508    5.2847  -13.8622 C   0  0  0  0  0  0  0  0  0  0  0  0
   -8.0094    6.4200  -13.6236 O   0  0  0  0  0  0  0  0  0  0  0  0
   -8.5790    3.2304  -13.3768 H   0  0  0  0  0  0  0  0  0  0  0  0
   -8.0491    4.8867  -15.2850 C   0  0  0  0  0  0  0  0  0  0  0  0
   -9.1992    4.5605  -16.0115 C   0  0  0  0  0  0  0  0  0  0  0  0
   -9.1305    4.4318  -17.3947 C   0  0  0  0  0  0  0  0  0  0  0  0
  -10.5758    4.2218  -18.2962 Cl  0  0  0  0  0  0  0  0  0  0  0  0
   -7.9301    4.5772  -18.0911 C   0  0  0  0  0  0  0  0  0  0  0  0
   -6.7802    4.8759  -17.3532 C   0  0  0  0  0  0  0  0  0  0  0  0
   -6.8007    5.0363  -15.9438 C   0  0  0  0  0  0  0  0  0  0  0  0
   -5.4649    5.3657  -15.4678 C   0  0  0  0  0  0  0  0  0  0  0  0
   -4.6611    5.4102  -16.5417 N   0  0  0  0  0  0  0  0  0  0  0  0
   -3.4349    5.6494  -16.6079 O   0  0  0  0  0  0  0  0  0  0  0  0
   -5.4671    5.1209  -17.7242 N   0  0  0  0  0  0  0  0  0  0  0  0
   -5.0560    5.1931  -19.1359 C   0  0  0  0  0  0  0  0  0  0  0  0
   -4.7221    6.6255  -19.5890 C   0  0  0  0  0  0  0  0  0  0  0  0
   -3.7004    6.0323  -20.4967 N   0  0  0  0  0  0  0  0  0  0  0  0
   -3.5932    4.9032  -19.5204 C   0  0  0  0  0  0  0  0  0  0  0  0
   -2.8507    6.5866  -20.6022 H   0  0  0  0  0  0  0  0  0  0  0  0
   -7.9380    5.0125   -9.3532 C   0  0  0  0  0  0  0  0  0  0  0  0
   -8.4241    3.8540   -8.7333 C   0  0  0  0  0  0  0  0  0  0  0  0
   -8.9092    2.7916   -9.5015 C   0  0  0  0  0  0  0  0  0  0  0  0
   -8.9212    2.8718  -10.8960 C   0  0  0  0  0  0  0  0  0  0  0  0
   -8.4762    4.0261  -11.5289 C   0  0  0  0  0  0  0  0  0  0  0  0
   -8.0108    5.0911  -10.7582 C   0  0  0  0  0  0  0  0  0  0  0  0
   -5.9297    5.4219   -8.0512 N   0  0  0  0  0  0  0  0  0  0  0  0
   -7.1065    6.0559   -8.6358 C   0  0  0  0  0  0  0  0  0  0  0  0
   -5.3697    6.1244   -7.5682 H   0  0  0  0  0  0  0  0  0  0  0  0
   -5.3728    4.9922   -8.7898 H   0  0  0  0  0  0  0  0  0  0  0  0
   -7.7139    6.9699   -7.6000 C   0  0  0  0  0  0  0  0  0  0  0  0
   -7.7365    8.3454   -7.8577 C   0  0  0  0  0  0  0  0  0  0  0  0
   -8.0092    9.2103   -6.8141 C   0  0  0  0  0  0  0  0  0  0  0  0
   -8.2477    8.8113   -5.5464 N   0  0  0  0  0  0  0  0  0  0  0  0
   -8.2739    7.4861   -5.3232 C   0  0  0  0  0  0  0  0  0  0  0  0
   -8.0301    6.5392   -6.3006 C   0  0  0  0  0  0  0  0  0  0  0  0
 28 27  1  0  0  0
 28 31  1  0  0  0
 31 32  2  0  0  0
 32 33  1  0  0  0
 33 34  2  0  0  0
 34 35  1  0  0  0
 35 36  2  0  0  0
 28 21  1  0  0  0
 21 22  2  0  0  0
 22 23  1  0  0  0
 23 24  2  0  0  0
 24 25  1  0  0  0
 25  1  1  0  0  0
  1  2  1  0  0  0
  2  3  2  0  0  0
  2  5  1  0  0  0
  5  6  2  0  0  0
  6  7  1  0  0  0
  7  8  1  0  0  0
  7  9  2  0  0  0
  9 10  1  0  0  0
 10 11  2  0  0  0
 11 12  1  0  0  0
 12 13  2  0  0  0
 13 14  1  0  0  0
 13 15  1  0  0  0
 15 16  1  0  0  0
 16 17  1  0  0  0
 17 18  1  0  0  0
 18 19  1  0  0  0
 25 26  2  0  0  0
 36 31  1  0  0  0
 26 21  1  0  0  0
 11  5  1  0  0  0
 19 16  1  0  0  0
 15 10  1  0  0  0
 27 29  1  0  0  0
 27 30  1  0  0  0
  1  4  1  0  0  0
 18 20  1  0  0  0
M  CHG 1  13   1
M  CHG 1  14  -1
M  END
> <minimizedAffinity>
-8.31535

> <minimizedRMSD>
0.44398

$$$$
P28568


 36 40  0  0  0  0  0  0  0  0999 V2000
   -8.1080    4.0323  -12.7500 N   0  0  0  0  0  0  0  0  0  0  0  0
   -7.9075    5.3133  -13.5843 C   0  0  0  0  0  0  0  0  0  0  0  0
   -7.8019    6.4254  -13.2488 O   0  0  0  0  0  0  0  0  0  0  0  0
   -8.0914    3.1959  -13.2690 H   0  0  0  0  0  0  0  0  0  0  0  0
   -7.8183    4.9637  -15.0355 C   0  0  0  0  0  0  0  0  0  0  0  0
   -8.9441    4.4610  -15.7133 C   0  0  0  0  0  0  0  0  0  0  0  0
   -8.8918    4.2171  -17.0826 C   0  0  0  0  0  0  0  0  0  0  0  0
  -10.3124    3.7553  -17.9252 Cl  0  0  0  0  0  0  0  0  0  0  0  0
   -7.7309    4.4339  -17.8197 C   0  0  0  0  0  0  0  0  0  0  0  0
   -6.6126    4.9263  -17.1398 C   0  0  0  0  0  0  0  0  0  0  0  0
   -6.6168    5.2042  -15.7472 C   0  0  0  0  0  0  0  0  0  0  0  0
   -5.3113    5.7062  -15.3489 C   0  0  0  0  0  0  0  0  0  0  0  0
   -4.5446    5.7433  -16.4518 N   0  0  0  0  0  0  0  0  0  0  0  0
   -3.3631    6.1314  -16.5857 O   0  0  0  0  0  0  0  0  0  0  0  0
   -5.3401    5.2640  -17.5723 N   0  0  0  0  0  0  0  0  0  0  0  0
   -4.9499    5.1539  -18.9839 C   0  0  0  0  0  0  0  0  0  0  0  0
   -4.8429    6.5091  -19.7011 C   0  0  0  0  0  0  0  0  0  0  0  0
   -3.7919    5.8835  -20.5618 N   0  0  0  0  0  0  0  0  0  0  0  0
   -3.4628    5.0274  -19.3692 C   0  0  0  0  0  0  0  0  0  0  0  0
   -3.0465    6.5143  -20.8567 H   0  0  0  0  0  0  0  0  0  0  0  0
   -8.2917    4.5622   -9.0472 C   0  0  0  0  0  0  0  0  0  0  0  0
   -8.7763    3.2660   -8.7252 C   0  0  0  0  0  0  0  0  0  0  0  0
   -9.0003    2.2949   -9.6832 C   0  0  0  0  0  0  0  0  0  0  0  0
   -8.7614    2.5977  -11.0083 C   0  0  0  0  0  0  0  0  0  0  0  0
   -8.3089    3.8653  -11.3804 C   0  0  0  0  0  0  0  0  0  0  0  0
   -8.0728    4.8526  -10.4057 C   0  0  0  0  0  0  0  0  0  0  0  0
   -6.7177    4.8685   -7.2094 N   0  0  0  0  0  0  0  0  0  0  0  0
   -7.9502    5.3906   -7.8165 C   0  0  0  0  0  0  0  0  0  0  0  0
   -6.4848    5.4208   -6.3840 H   0  0  0  0  0  0  0  0  0  0  0  0
   -5.9550    4.9273   -7.8841 H   0  0  0  0  0  0  0  0  0  0  0  0
   -7.8700    6.8922   -7.7069 C   0  0  0  0  0  0  0  0  0  0  0  0
   -7.3254    7.7490   -8.6554 C   0  0  0  0  0  0  0  0  0  0  0  0
   -7.1636    9.0838   -8.3157 C   0  0  0  0  0  0  0  0  0  0  0  0
   -7.4739    9.6150   -7.1133 N   0  0  0  0  0  0  0  0  0  0  0  0
   -7.9787    8.7789   -6.1932 C   0  0  0  0  0  0  0  0  0  0  0  0
   -8.1778    7.4355   -6.4331 C   0  0  0  0  0  0  0  0  0  0  0  0
 28 27  1  0  0  0
 28 31  1  0  0  0
 31 32  2  0  0  0
 32 33  1  0  0  0
 33 34  2  0  0  0
 34 35  1  0  0  0
 35 36  2  0  0  0
 28 21  1  0  0  0
 21 22  2  0  0  0
 22 23  1  0  0  0
 23 24  2  0  0  0
 24 25  1  0  0  0
 25  1  1  0  0  0
  1  2  1  0  0  0
  2  3  2  0  0  0
  2  5  1  0  0  0
  5  6  2  0  0  0
  6  7  1  0  0  0
  7  8  1  0  0  0
  7  9  2  0  0  0
  9 10  1  0  0  0
 10 11  2  0  0  0
 11 12  1  0  0  0
 12 13  2  0  0  0
 13 14  1  0  0  0
 13 15  1  0  0  0
 15 16  1  0  0  0
 16 17  1  0  0  0
 17 18  1  0  0  0
 18 19  1  0  0  0
 25 26  2  0  0  0
 36 31  1  0  0  0
 26 21  1  0  0  0
 11  5  1  0  0  0
 19 16  1  0  0  0
 15 10  1  0  0  0
 27 29  1  0  0  0
 27 30  1  0  0  0
  1  4  1  0  0  0
 18 20  1  0  0  0
M  CHG 1  13   1
M  CHG 1  14  -1
M  END
> <minimizedAffinity>
-8.10049

> <minimizedRMSD>
0.44545

$$$$
P28569


 31 35  0  0  0  0  0  0  0  0999 V2000
   -7.5281    3.9294  -13.2559 N   0  0  0  0  0  0  0  0  0  0  0  0
   -8.1258    5.0547  -14.1169 C   0  0  0  0  0  0  0  0  0  0  0  0
   -8.4974    6.1178  -13.8185 O   0  0  0  0  0  0  0  0  0  0  0  0
   -7.3614    3.0868  -13.7370 H   0  0  0  0  0  0  0  0  0  0  0  0
   -7.1272    5.2296   -9.7065 C   0  0  0  0  0  0  0  0  0  0  0  0
   -7.2150    5.3073  -11.2267 C   0  0  0  0  0  0  0  0  0  0  0  0
   -7.1686    3.9072  -11.8457 C   0  0  0  0  0  0  0  0  0  0  0  0
   -7.9046    2.8303  -11.0257 C   0  0  0  0  0  0  0  0  0  0  0  0
   -8.8692    3.3542   -9.9541 C   0  0  0  0  0  0  0  0  0  0  0  0
   -9.1779    2.3432   -8.8440 C   0  0  0  0  0  0  0  0  0  0  0  0
   -9.3812    3.1464   -7.6297 N   0  0  0  0  0  0  0  0  0  0  0  0
   -8.3876    4.2101   -7.7253 C   0  0  0  0  0  0  0  0  0  0  0  0
   -8.4169    4.6069   -9.1939 C   0  0  0  0  0  0  0  0  0  0  0  0
   -9.2263    2.5823   -6.7941 H   0  0  0  0  0  0  0  0  0  0  0  0
   -6.7446    7.6133   -8.6551 N   0  0  0  0  0  0  0  0  0  0  0  0
   -6.9267    6.5711   -9.1313 C   0  0  0  0  0  0  0  0  0  0  0  0
   -8.1191    4.7247  -15.5526 C   0  0  0  0  0  0  0  0  0  0  0  0
   -9.2941    4.4130  -16.2363 C   0  0  0  0  0  0  0  0  0  0  0  0
   -9.2687    4.3280  -17.6279 C   0  0  0  0  0  0  0  0  0  0  0  0
  -10.7421    4.1327  -18.4871 Cl  0  0  0  0  0  0  0  0  0  0  0  0
   -8.0901    4.5044  -18.3661 C   0  0  0  0  0  0  0  0  0  0  0  0
   -6.9217    4.8097  -17.6553 C   0  0  0  0  0  0  0  0  0  0  0  0
   -6.9223    4.9222  -16.2654 C   0  0  0  0  0  0  0  0  0  0  0  0
   -5.5987    5.2663  -15.9312 C   0  0  0  0  0  0  0  0  0  0  0  0
   -4.8051    5.3486  -16.9961 N   0  0  0  0  0  0  0  0  0  0  0  0
   -5.6254    5.0876  -18.0381 N   0  0  0  0  0  0  0  0  0  0  0  0
   -5.1546    5.1620  -19.4352 C   0  0  0  0  0  0  0  0  0  0  0  0
   -4.8758    6.6065  -19.8841 C   0  0  0  0  0  0  0  0  0  0  0  0
   -3.6045    6.1451  -20.4889 N   0  0  0  0  0  0  0  0  0  0  0  0
   -3.6311    4.9633  -19.6003 C   0  0  0  0  0  0  0  0  0  0  0  0
   -2.8142    6.7704  -20.3309 H   0  0  0  0  0  0  0  0  0  0  0  0
 15 16  3  0  0  0
  5 16  1  0  0  0
  5  6  1  0  0  0
  6  7  1  0  0  0
  7  1  1  0  0  0
  1  2  1  0  0  0
  2  3  2  0  0  0
  2 17  1  0  0  0
 17 18  2  0  0  0
 18 19  1  0  0  0
 19 20  1  0  0  0
 19 21  2  0  0  0
 21 22  1  0  0  0
 22 23  2  0  0  0
 23 24  1  0  0  0
 24 25  2  0  0  0
 25 26  1  0  0  0
 26 27  1  0  0  0
 27 28  1  0  0  0
 28 29  1  0  0  0
 29 30  1  0  0  0
  7  8  1  0  0  0
  9  8  1  0  0  0
  9 10  1  0  0  0
 10 11  1  0  0  0
 11 12  1  0  0  0
 13 12  1  0  0  0
 13  5  1  0  0  0
 23 17  1  0  0  0
 30 27  1  0  0  0
 13  9  1  0  0  0
 26 22  1  0  0  0
  1  4  1  0  0  0
 29 31  1  0  0  0
 11 14  1  0  0  0
M  END
> <minimizedAffinity>
-8.40737

> <minimizedRMSD>
0.48825

$$$$
P28570


 38 43  0  0  0  0  0  0  0  0999 V2000
   -2.7693    6.7570  -14.6717 N   0  0  0  0  0  0  0  0  0  0  0  0
   -3.4725    7.8232  -15.4003 C   0  0  0  0  0  0  0  0  0  0  0  0
   -4.2336    7.3226  -16.6365 C   0  0  0  0  0  0  0  0  0  0  0  0
   -4.6897    5.8585  -16.4863 C   0  0  0  0  0  0  0  0  0  0  0  0
   -3.4921    4.9393  -16.1547 C   0  0  0  0  0  0  0  0  0  0  0  0
   -2.2994    5.7080  -15.5759 C   0  0  0  0  0  0  0  0  0  0  0  0
   -5.7273    5.7844  -15.2968 C   0  0  0  0  0  0  0  0  0  0  0  0
   -6.9241    5.1570  -15.9184 C   0  0  0  0  0  0  0  0  0  0  0  0
   -8.1563    4.8463  -15.3451 C   0  0  0  0  0  0  0  0  0  0  0  0
   -9.1802    4.3902  -16.1670 C   0  0  0  0  0  0  0  0  0  0  0  0
   -8.9705    4.2697  -17.5348 C   0  0  0  0  0  0  0  0  0  0  0  0
  -10.3047    3.8697  -18.5192 Cl  0  0  0  0  0  0  0  0  0  0  0  0
   -7.7342    4.5579  -18.1063 C   0  0  0  0  0  0  0  0  0  0  0  0
   -6.7085    5.0064  -17.2889 C   0  0  0  0  0  0  0  0  0  0  0  0
   -5.4120    5.3922  -17.7075 N   0  0  0  0  0  0  0  0  0  0  0  0
   -4.9204    5.2463  -19.0640 C   0  0  0  0  0  0  0  0  0  0  0  0
   -5.0057    6.5300  -19.9157 C   0  0  0  0  0  0  0  0  0  0  0  0
   -3.6969    6.1837  -20.5191 N   0  0  0  0  0  0  0  0  0  0  0  0
   -3.4098    5.3107  -19.3624 C   0  0  0  0  0  0  0  0  0  0  0  0
   -3.0587    6.9735  -20.6156 H   0  0  0  0  0  0  0  0  0  0  0  0
   -8.5273    5.1289  -13.9375 C   0  0  0  0  0  0  0  0  0  0  0  0
   -9.4156    5.8585  -13.7439 O   0  0  0  0  0  0  0  0  0  0  0  0
   -7.6085    4.3939  -12.9496 N   0  0  0  0  0  0  0  0  0  0  0  0
   -6.8746    3.8881  -13.3677 H   0  0  0  0  0  0  0  0  0  0  0  0
   -7.6458    4.3238  -11.5033 C   0  0  0  0  0  0  0  0  0  0  0  0
   -8.1729    5.6468  -10.9126 C   0  0  0  0  0  0  0  0  0  0  0  0
   -8.1903    5.6774   -9.3728 C   0  0  0  0  0  0  0  0  0  0  0  0
   -8.1588    4.2588   -8.7969 C   0  0  0  0  0  0  0  0  0  0  0  0
   -8.7101    4.0786   -7.3907 C   0  0  0  0  0  0  0  0  0  0  0  0
   -9.3463    2.7532   -7.3674 N   0  0  0  0  0  0  0  0  0  0  0  0
   -9.2041    2.1465   -8.7090 C   0  0  0  0  0  0  0  0  0  0  0  0
   -9.0359    3.3386   -9.6238 C   0  0  0  0  0  0  0  0  0  0  0  0
   -8.4531    3.1020  -11.0137 C   0  0  0  0  0  0  0  0  0  0  0  0
  -10.3349    2.8491   -7.1352 H   0  0  0  0  0  0  0  0  0  0  0  0
   -7.0611    6.4768   -8.8694 C   0  0  0  0  0  0  0  0  0  0  0  0
   -6.1630    7.0883   -8.4604 N   0  0  0  0  0  0  0  0  0  0  0  0
   -1.9998    8.6284  -13.2102 C   0  0  0  0  0  0  0  0  0  0  0  0
   -1.6773    7.2750  -13.8350 C   0  0  0  0  0  0  0  0  0  0  0  0
 37 38  1  0  0  0
 38  1  1  0  0  0
  1  2  1  0  0  0
  2  3  1  0  0  0
  3  4  1  0  0  0
  4  5  1  0  0  0
  5  6  1  0  0  0
  4  7  1  0  0  0
  7  8  1  0  0  0
  8  9  2  0  0  0
  9 21  1  0  0  0
 21 22  2  0  0  0
 21 23  1  0  0  0
 25 23  1  0  0  0
 25 26  1  0  0  0
 26 27  1  0  0  0
 27 35  1  0  0  0
 35 36  3  0  0  0
 27 28  1  0  0  0
 28 29  1  0  0  0
 29 30  1  0  0  0
 30 31  1  0  0  0
 32 31  1  0  0  0
 32 33  1  0  0  0
  9 10  1  0  0  0
 10 11  2  0  0  0
 11 12  1  0  0  0
 11 13  1  0  0  0
 13 14  2  0  0  0
 14 15  1  0  0  0
 15 16  1  0  0  0
 16 17  1  0  0  0
 17 18  1  0  0  0
 18 19  1  0  0  0
  6  1  1  0  0  0
 14  8  1  0  0  0
 19 16  1  0  0  0
 15  4  1  0  0  0
 33 25  1  0  0  0
 32 28  1  0  0  0
 23 24  1  0  0  0
 30 34  1  0  0  0
 18 20  1  0  0  0
M  END
> <minimizedAffinity>
-8.90389

> <minimizedRMSD>
0.25577

$$$$
P28571


 39 45  0  0  0  0  0  0  0  0999 V2000
   -7.9033    4.6527  -15.3276 C   0  0  0  0  0  0  0  0  0  0  0  0
   -8.8947    4.2908  -16.2325 C   0  0  0  0  0  0  0  0  0  0  0  0
   -8.6513    4.3678  -17.5991 C   0  0  0  0  0  0  0  0  0  0  0  0
   -9.9254    4.0091  -18.6808 Cl  0  0  0  0  0  0  0  0  0  0  0  0
   -7.4377    4.8475  -18.0888 C   0  0  0  0  0  0  0  0  0  0  0  0
   -6.4697    5.2627  -17.1917 C   0  0  0  0  0  0  0  0  0  0  0  0
   -6.6793    5.0996  -15.8186 C   0  0  0  0  0  0  0  0  0  0  0  0
   -5.4515    5.4980  -15.0729 C   0  0  0  0  0  0  0  0  0  0  0  0
   -4.5371    6.0968  -16.1995 C   0  0  0  0  0  0  0  0  0  0  0  0
   -4.3011    7.6080  -15.9074 C   0  0  0  0  0  0  0  0  0  0  0  0
   -2.9167    7.8948  -15.3278 C   0  0  0  0  0  0  0  0  0  0  0  0
   -2.5053    6.8655  -14.3848 N   0  0  0  0  0  0  0  0  0  0  0  0
   -2.3042    5.5704  -15.0502 C   0  0  0  0  0  0  0  0  0  0  0  0
   -3.1782    5.3065  -16.3019 C   0  0  0  0  0  0  0  0  0  0  0  0
   -2.3702    5.5356  -17.4958 O   0  0  0  0  0  0  0  0  0  0  0  0
   -3.0912    6.2280  -18.4959 C   0  0  0  0  0  0  0  0  0  0  0  0
   -2.5209    6.1531  -19.8401 N   0  0  0  0  0  0  0  0  0  0  0  0
   -3.6014    6.7999  -20.6129 C   0  0  0  0  0  0  0  0  0  0  0  0
   -4.9253    6.3822  -19.9559 C   0  0  0  0  0  0  0  0  0  0  0  0
   -4.5160    5.6726  -18.6774 C   0  0  0  0  0  0  0  0  0  0  0  0
   -5.3073    5.9810  -17.4844 N   0  0  0  0  0  0  0  0  0  0  0  0
   -3.2272    6.7625  -13.6716 H   0  0  0  0  0  0  0  0  0  0  0  0
   -2.3703    5.1881  -20.1343 H   0  0  0  0  0  0  0  0  0  0  0  0
   -7.3316    3.9604  -12.9950 N   0  0  0  0  0  0  0  0  0  0  0  0
   -8.3023    4.7312  -13.9014 C   0  0  0  0  0  0  0  0  0  0  0  0
   -9.2580    5.3433  -13.6373 O   0  0  0  0  0  0  0  0  0  0  0  0
   -6.6346    3.4555  -13.4730 H   0  0  0  0  0  0  0  0  0  0  0  0
   -7.1767    5.1776   -9.3518 C   0  0  0  0  0  0  0  0  0  0  0  0
   -7.1532    5.2461  -10.8931 C   0  0  0  0  0  0  0  0  0  0  0  0
   -7.2742    3.8550  -11.5502 C   0  0  0  0  0  0  0  0  0  0  0  0
   -8.4857    3.0771  -11.0072 C   0  0  0  0  0  0  0  0  0  0  0  0
   -8.3918    3.0127   -9.4904 C   0  0  0  0  0  0  0  0  0  0  0  0
   -9.5076    2.3579   -8.7115 C   0  0  0  0  0  0  0  0  0  0  0  0
   -9.3284    2.8818   -7.3485 N   0  0  0  0  0  0  0  0  0  0  0  0
   -8.6283    4.1664   -7.4264 C   0  0  0  0  0  0  0  0  0  0  0  0
   -8.4203    4.4185   -8.9114 C   0  0  0  0  0  0  0  0  0  0  0  0
   -8.7772    2.2236   -6.7977 H   0  0  0  0  0  0  0  0  0  0  0  0
   -7.0570    7.5885   -8.3048 N   0  0  0  0  0  0  0  0  0  0  0  0
   -7.1287    6.5297   -8.7742 C   0  0  0  0  0  0  0  0  0  0  0  0
 38 39  3  0  0  0
 28 39  1  0  0  0
 28 29  1  0  0  0
 29 30  1  0  0  0
 30 24  1  0  0  0
 24 25  1  0  0  0
 25 26  2  0  0  0
 25  1  1  0  0  0
  1  2  2  0  0  0
  2  3  1  0  0  0
  3  4  1  0  0  0
  3  5  2  0  0  0
  5  6  1  0  0  0
  6  7  2  0  0  0
  7  8  1  0  0  0
  9  8  1  0  0  0
  9 10  1  0  0  0
 10 11  1  0  0  0
 11 12  1  0  0  0
 12 13  1  0  0  0
 14 13  1  0  0  0
 14 15  1  0  0  0
 15 16  1  0  0  0
 16 17  1  0  0  0
 17 18  1  0  0  0
 18 19  1  0  0  0
 20 19  1  0  0  0
 20 21  1  0  0  0
 30 31  1  0  0  0
 32 31  1  0  0  0
 32 33  1  0  0  0
 33 34  1  0  0  0
 34 35  1  0  0  0
 36 35  1  0  0  0
 36 28  1  0  0  0
  7  1  1  0  0  0
 14  9  1  0  0  0
 20 16  1  0  0  0
 36 32  1  0  0  0
 21  6  1  0  0  0
 21  9  1  0  0  0
 24 27  1  0  0  0
 12 22  1  0  0  0
 17 23  1  0  0  0
 34 37  1  0  0  0
M  END
> <minimizedAffinity>
-9.57768

> <minimizedRMSD>
0.23062

$$$$
P28573


 31 35  0  0  0  0  0  0  0  0999 V2000
   -8.4139    4.3545  -12.9834 N   0  0  0  0  0  0  0  0  0  0  0  0
   -7.8164    5.4176  -13.9370 C   0  0  0  0  0  0  0  0  0  0  0  0
   -7.3549    6.4668  -13.7078 O   0  0  0  0  0  0  0  0  0  0  0  0
   -8.8128    3.5749  -13.4334 H   0  0  0  0  0  0  0  0  0  0  0  0
   -9.2127    2.0882   -6.1787 C   0  0  0  0  0  0  0  0  0  0  0  0
   -9.0487    2.8001   -7.4224 N   0  0  0  0  0  0  0  0  0  0  0  0
   -9.1801    2.2486   -8.6752 C   0  0  0  0  0  0  0  0  0  0  0  0
   -8.9042    3.2360   -9.5819 C   0  0  0  0  0  0  0  0  0  0  0  0
   -8.8844    3.1152  -10.9683 C   0  0  0  0  0  0  0  0  0  0  0  0
   -8.4793    4.3212  -11.5875 C   0  0  0  0  0  0  0  0  0  0  0  0
   -8.0657    5.4847  -10.8506 C   0  0  0  0  0  0  0  0  0  0  0  0
   -8.0303    5.5423   -9.4412 C   0  0  0  0  0  0  0  0  0  0  0  0
   -8.5255    4.3898   -8.8520 C   0  0  0  0  0  0  0  0  0  0  0  0
   -8.6582    4.1164   -7.5133 C   0  0  0  0  0  0  0  0  0  0  0  0
   -7.3082    6.5018   -8.6916 C   0  0  0  0  0  0  0  0  0  0  0  0
   -6.6375    7.2246   -8.0810 N   0  0  0  0  0  0  0  0  0  0  0  0
   -7.8203    4.9959  -15.3585 C   0  0  0  0  0  0  0  0  0  0  0  0
   -8.9894    4.5999  -16.0217 C   0  0  0  0  0  0  0  0  0  0  0  0
   -8.9640    4.3776  -17.3983 C   0  0  0  0  0  0  0  0  0  0  0  0
  -10.4249    4.0498  -18.2413 Cl  0  0  0  0  0  0  0  0  0  0  0  0
   -7.7929    4.5119  -18.1466 C   0  0  0  0  0  0  0  0  0  0  0  0
   -6.6339    4.9052  -17.4682 C   0  0  0  0  0  0  0  0  0  0  0  0
   -6.6250    5.1445  -16.0973 C   0  0  0  0  0  0  0  0  0  0  0  0
   -5.2906    5.5194  -15.8170 C   0  0  0  0  0  0  0  0  0  0  0  0
   -4.5117    5.5132  -16.8998 N   0  0  0  0  0  0  0  0  0  0  0  0
   -5.3507    5.1671  -17.8944 N   0  0  0  0  0  0  0  0  0  0  0  0
   -4.9501    5.1068  -19.3063 C   0  0  0  0  0  0  0  0  0  0  0  0
   -4.7269    6.5000  -19.9201 C   0  0  0  0  0  0  0  0  0  0  0  0
   -3.5967    5.9106  -20.6960 N   0  0  0  0  0  0  0  0  0  0  0  0
   -3.4446    4.9287  -19.5765 C   0  0  0  0  0  0  0  0  0  0  0  0
   -2.7997    6.5330  -20.8296 H   0  0  0  0  0  0  0  0  0  0  0  0
  5  6  1  0  0  0
  6  7  1  0  0  0
  7  8  2  0  0  0
  8  9  1  0  0  0
  9 10  2  0  0  0
 10  1  1  0  0  0
  1  2  1  0  0  0
  2  3  2  0  0  0
  2 17  1  0  0  0
 17 18  2  0  0  0
 18 19  1  0  0  0
 19 20  1  0  0  0
 19 21  2  0  0  0
 21 22  1  0  0  0
 22 23  2  0  0  0
 23 24  1  0  0  0
 24 25  2  0  0  0
 25 26  1  0  0  0
 26 27  1  0  0  0
 27 28  1  0  0  0
 28 29  1  0  0  0
 29 30  1  0  0  0
 10 11  1  0  0  0
 11 12  2  0  0  0
 12 15  1  0  0  0
 15 16  3  0  0  0
 12 13  1  0  0  0
 13 14  2  0  0  0
 14  6  1  0  0  0
 13  8  1  0  0  0
 23 17  1  0  0  0
 30 27  1  0  0  0
 26 22  1  0  0  0
  1  4  1  0  0  0
 29 31  1  0  0  0
M  END
> <minimizedAffinity>
-8.92020

> <minimizedRMSD>
0.51934

$$$$
P28578


 35 39  0  0  0  0  0  0  0  0999 V2000
   -4.7855    5.9902  -16.6128 N   0  0  0  0  0  0  0  0  0  0  0  0
   -5.5234    5.7450  -15.4605 C   0  0  0  0  0  0  0  0  0  0  0  0
   -6.7249    5.2148  -15.8494 C   0  0  0  0  0  0  0  0  0  0  0  0
   -7.8747    5.0502  -15.0729 C   0  0  0  0  0  0  0  0  0  0  0  0
   -8.9784    4.6249  -15.8476 C   0  0  0  0  0  0  0  0  0  0  0  0
   -8.8890    4.3986  -17.2617 C   0  0  0  0  0  0  0  0  0  0  0  0
  -10.3480    4.1182  -18.1405 Cl  0  0  0  0  0  0  0  0  0  0  0  0
   -7.7071    4.5143  -18.0257 C   0  0  0  0  0  0  0  0  0  0  0  0
   -6.6447    4.9632  -17.2467 C   0  0  0  0  0  0  0  0  0  0  0  0
   -5.4022    5.3697  -17.6942 C   0  0  0  0  0  0  0  0  0  0  0  0
   -4.9216    5.2112  -19.1765 C   0  0  0  0  0  0  0  0  0  0  0  0
   -4.5639    6.4665  -19.9848 C   0  0  0  0  0  0  0  0  0  0  0  0
   -3.5005    5.6754  -20.6617 N   0  0  0  0  0  0  0  0  0  0  0  0
   -3.4701    4.7908  -19.4587 C   0  0  0  0  0  0  0  0  0  0  0  0
   -2.6353    6.1876  -20.8334 H   0  0  0  0  0  0  0  0  0  0  0  0
   -8.0115    5.5468  -13.6936 C   0  0  0  0  0  0  0  0  0  0  0  0
   -7.9432    6.6951  -13.5135 O   0  0  0  0  0  0  0  0  0  0  0  0
   -8.2145    4.3938  -12.7004 N   0  0  0  0  0  0  0  0  0  0  0  0
   -8.1599    3.4942  -13.0967 H   0  0  0  0  0  0  0  0  0  0  0  0
   -8.4728    4.4138  -11.2776 C   0  0  0  0  0  0  0  0  0  0  0  0
   -7.3156    5.0656  -10.5012 C   0  0  0  0  0  0  0  0  0  0  0  0
   -7.6432    5.2689   -9.0054 C   0  0  0  0  0  0  0  0  0  0  0  0
   -8.6646    4.2365   -8.5304 C   0  0  0  0  0  0  0  0  0  0  0  0
   -8.7065    3.8238   -7.0728 C   0  0  0  0  0  0  0  0  0  0  0  0
   -9.5829    2.6478   -7.1033 N   0  0  0  0  0  0  0  0  0  0  0  0
   -9.3867    1.9762   -8.4087 C   0  0  0  0  0  0  0  0  0  0  0  0
   -8.5111    2.9044   -9.2395 C   0  0  0  0  0  0  0  0  0  0  0  0
   -8.8267    3.0173  -10.7314 C   0  0  0  0  0  0  0  0  0  0  0  0
  -10.5561    2.9367   -7.0036 H   0  0  0  0  0  0  0  0  0  0  0  0
   -6.4007    5.2710   -8.2097 C   0  0  0  0  0  0  0  0  0  0  0  0
   -5.4402    5.2899   -7.5571 N   0  0  0  0  0  0  0  0  0  0  0  0
   -3.8120    7.0870  -16.6376 C   0  0  0  0  0  0  0  0  0  0  0  0
   -1.9312    5.9478  -15.6325 C   0  0  0  0  0  0  0  0  0  0  0  0
   -2.4598    6.5932  -16.8233 N   0  0  0  0  0  0  0  0  0  0  0  0
   -2.4608    5.9178  -17.5877 H   0  0  0  0  0  0  0  0  0  0  0  0
 33 34  1  0  0  0
 34 32  1  0  0  0
 32  1  1  0  0  0
  1  2  1  0  0  0
  2  3  2  0  0  0
  3  4  1  0  0  0
  4 16  1  0  0  0
 16 17  2  0  0  0
 16 18  1  0  0  0
 20 18  1  0  0  0
 20 21  1  0  0  0
 21 22  1  0  0  0
 22 30  1  0  0  0
 30 31  3  0  0  0
 22 23  1  0  0  0
 23 24  1  0  0  0
 24 25  1  0  0  0
 25 26  1  0  0  0
 27 26  1  0  0  0
 27 28  1  0  0  0
  4  5  2  0  0  0
  5  6  1  0  0  0
  6  7  1  0  0  0
  6  8  2  0  0  0
  8  9  1  0  0  0
  9 10  2  0  0  0
 10 11  1  0  0  0
 11 12  1  0  0  0
 12 13  1  0  0  0
 13 14  1  0  0  0
 10  1  1  0  0  0
 14 11  1  0  0  0
  9  3  1  0  0  0
 28 20  1  0  0  0
 27 23  1  0  0  0
 34 35  1  0  0  0
 18 19  1  0  0  0
 25 29  1  0  0  0
 13 15  1  0  0  0
M  END
> <minimizedAffinity>
-8.36317

> <minimizedRMSD>
0.56391

$$$$
P28579


 33 37  0  0  0  0  0  0  0  0999 V2000
   -5.4441    6.9186  -19.5522 C   0  0  0  0  0  0  0  0  0  0  0  0
   -5.0502    5.5020  -19.1291 C   0  0  0  0  0  0  0  0  0  0  0  0
   -3.5746    5.1985  -19.4854 C   0  0  0  0  0  0  0  0  0  0  0  0
   -2.5168    6.2179  -19.0366 C   0  0  0  0  0  0  0  0  0  0  0  0
   -1.6339    5.7475  -17.8864 C   0  0  0  0  0  0  0  0  0  0  0  0
   -2.2378    5.8923  -16.4914 C   0  0  0  0  0  0  0  0  0  0  0  0
   -3.5283    5.1066  -16.2596 C   0  0  0  0  0  0  0  0  0  0  0  0
   -4.6929    5.8920  -16.7136 N   0  0  0  0  0  0  0  0  0  0  0  0
   -5.6641    6.0660  -15.5991 C   0  0  0  0  0  0  0  0  0  0  0  0
   -6.7725    5.0811  -15.9204 C   0  0  0  0  0  0  0  0  0  0  0  0
   -8.1533    5.2871  -15.3386 C   0  0  0  0  0  0  0  0  0  0  0  0
   -9.0982    4.1854  -15.8104 C   0  0  0  0  0  0  0  0  0  0  0  0
   -9.0984    3.9449  -17.3297 C   0  0  0  0  0  0  0  0  0  0  0  0
  -10.5340    4.6582  -18.1063 Cl  0  0  0  0  0  0  0  0  0  0  0  0
   -7.8008    4.2725  -18.0864 C   0  0  0  0  0  0  0  0  0  0  0  0
   -6.8450    5.2509  -17.4240 C   0  0  0  0  0  0  0  0  0  0  0  0
   -5.4124    5.1226  -17.7494 N   0  0  0  0  0  0  0  0  0  0  0  0
   -8.1373    5.7198  -13.8735 C   0  0  0  0  0  0  0  0  0  0  0  0
   -8.1229    6.8637  -13.6395 O   0  0  0  0  0  0  0  0  0  0  0  0
   -8.2458    4.5066  -12.9264 N   0  0  0  0  0  0  0  0  0  0  0  0
   -8.1577    3.6306  -13.3670 H   0  0  0  0  0  0  0  0  0  0  0  0
   -8.4546    4.4472  -11.5058 C   0  0  0  0  0  0  0  0  0  0  0  0
   -7.4364    5.2624  -10.7024 C   0  0  0  0  0  0  0  0  0  0  0  0
   -8.0291    5.5611   -9.3254 C   0  0  0  0  0  0  0  0  0  0  0  0
   -8.6958    4.3211   -8.7354 C   0  0  0  0  0  0  0  0  0  0  0  0
   -8.5155    3.9383   -7.2831 C   0  0  0  0  0  0  0  0  0  0  0  0
   -9.1417    2.6045   -7.2137 N   0  0  0  0  0  0  0  0  0  0  0  0
   -9.1889    2.0455   -8.5905 C   0  0  0  0  0  0  0  0  0  0  0  0
   -8.3676    3.0101   -9.4356 C   0  0  0  0  0  0  0  0  0  0  0  0
   -8.6577    3.0358  -10.9390 C   0  0  0  0  0  0  0  0  0  0  0  0
  -10.0875    2.6853   -6.8405 H   0  0  0  0  0  0  0  0  0  0  0  0
   -7.0864    6.2889   -8.4793 C   0  0  0  0  0  0  0  0  0  0  0  0
   -6.3740    6.9456   -7.8426 N   0  0  0  0  0  0  0  0  0  0  0  0
  2  1  1  0  0  0
  2  3  1  0  0  0
  3  4  1  0  0  0
  4  5  1  0  0  0
  5  6  1  0  0  0
  6  7  1  0  0  0
  7  8  1  0  0  0
  8  9  1  0  0  0
 10  9  1  0  0  0
 10 11  1  0  0  0
 11 18  1  0  0  0
 18 19  2  0  0  0
 18 20  1  0  0  0
 22 20  1  0  0  0
 22 23  1  0  0  0
 23 24  1  0  0  0
 24 32  1  0  0  0
 32 33  3  0  0  0
 24 25  1  0  0  0
 25 26  1  0  0  0
 26 27  1  0  0  0
 27 28  1  0  0  0
 29 28  1  0  0  0
 29 30  1  0  0  0
 11 12  1  0  0  0
 12 13  1  0  0  0
 13 14  1  0  0  0
 13 15  1  0  0  0
 16 15  1  0  0  0
 16 17  1  0  0  0
 17  2  1  0  0  0
 17  8  1  0  0  0
 16 10  1  0  0  0
 30 22  1  0  0  0
 29 25  1  0  0  0
 20 21  1  0  0  0
 27 31  1  0  0  0
M  END
> <minimizedAffinity>
-8.68144

> <minimizedRMSD>
0.49020

$$$$
P28580


 31 34  0  0  0  0  0  0  0  0999 V2000
   -8.3007    4.1702  -12.8512 N   0  0  0  0  0  0  0  0  0  0  0  0
   -8.3609    5.3656  -13.8072 C   0  0  0  0  0  0  0  0  0  0  0  0
   -8.5038    6.5003  -13.5892 O   0  0  0  0  0  0  0  0  0  0  0  0
   -8.0934    3.3090  -13.2810 H   0  0  0  0  0  0  0  0  0  0  0  0
   -8.0957    4.9533  -15.1916 C   0  0  0  0  0  0  0  0  0  0  0  0
   -9.1195    4.5948  -16.0649 C   0  0  0  0  0  0  0  0  0  0  0  0
   -8.8203    4.4357  -17.4138 C   0  0  0  0  0  0  0  0  0  0  0  0
  -10.1077    4.0874  -18.4954 Cl  0  0  0  0  0  0  0  0  0  0  0  0
   -7.5226    4.6323  -17.9208 C   0  0  0  0  0  0  0  0  0  0  0  0
   -6.5008    4.9501  -17.0086 C   0  0  0  0  0  0  0  0  0  0  0  0
   -6.7739    5.0691  -15.6469 C   0  0  0  0  0  0  0  0  0  0  0  0
   -5.5346    5.3316  -15.0348 C   0  0  0  0  0  0  0  0  0  0  0  0
   -4.5426    5.3930  -15.9138 N   0  0  0  0  0  0  0  0  0  0  0  0
   -5.1583    5.2638  -17.1096 N   0  0  0  0  0  0  0  0  0  0  0  0
   -4.4469    5.8002  -18.2731 C   0  0  0  0  0  0  0  0  0  0  0  0
   -4.8495    5.3134  -19.6479 C   0  0  0  0  0  0  0  0  0  0  0  0
   -3.3994    5.1794  -19.9869 N   0  0  0  0  0  0  0  0  0  0  0  0
   -3.1393    5.0231  -18.5395 C   0  0  0  0  0  0  0  0  0  0  0  0
   -2.9824    6.0104  -20.4063 H   0  0  0  0  0  0  0  0  0  0  0  0
   -8.7090    3.8711   -8.6902 C   0  0  0  0  0  0  0  0  0  0  0  0
   -8.8984    2.7674   -9.5383 C   0  0  0  0  0  0  0  0  0  0  0  0
   -8.7854    2.8790  -10.9179 C   0  0  0  0  0  0  0  0  0  0  0  0
   -8.4897    4.1033  -11.4848 C   0  0  0  0  0  0  0  0  0  0  0  0
   -8.3318    5.2260  -10.6796 C   0  0  0  0  0  0  0  0  0  0  0  0
   -8.4379    5.1167   -9.2883 C   0  0  0  0  0  0  0  0  0  0  0  0
   -8.2668    6.3126   -8.5161 C   0  0  0  0  0  0  0  0  0  0  0  0
   -8.1281    7.2777   -7.8869 N   0  0  0  0  0  0  0  0  0  0  0  0
   -8.7167    3.7084   -7.1833 C   0  0  0  0  0  0  0  0  0  0  0  0
  -10.0917    1.9455   -6.2558 C   0  0  0  0  0  0  0  0  0  0  0  0
  -10.0186    3.3481   -6.6285 N   0  0  0  0  0  0  0  0  0  0  0  0
  -10.1904    3.9169   -5.7994 H   0  0  0  0  0  0  0  0  0  0  0  0
 29 30  1  0  0  0
 30 28  1  0  0  0
 28 20  1  0  0  0
 20 21  2  0  0  0
 21 22  1  0  0  0
 22 23  2  0  0  0
 23  1  1  0  0  0
  1  2  1  0  0  0
  2  3  2  0  0  0
  2  5  1  0  0  0
  5  6  2  0  0  0
  6  7  1  0  0  0
  7  8  1  0  0  0
  7  9  2  0  0  0
  9 10  1  0  0  0
 10 11  2  0  0  0
 11 12  1  0  0  0
 12 13  2  0  0  0
 13 14  1  0  0  0
 14 15  1  0  0  0
 15 16  1  0  0  0
 16 17  1  0  0  0
 17 18  1  0  0  0
 23 24  1  0  0  0
 24 25  2  0  0  0
 25 26  1  0  0  0
 26 27  3  0  0  0
 25 20  1  0  0  0
 11  5  1  0  0  0
 18 15  1  0  0  0
 14 10  1  0  0  0
 30 31  1  0  0  0
  1  4  1  0  0  0
 17 19  1  0  0  0
M  END
> <minimizedAffinity>
-7.96270

> <minimizedRMSD>
0.72693

$$$$
P28585


 33 37  0  0  0  0  0  0  0  0999 V2000
   -4.8500    5.8841  -20.2939 N   0  0  0  0  0  0  0  0  0  0  0  0
   -3.4510    5.6618  -19.9531 C   0  0  0  0  0  0  0  0  0  0  0  0
   -3.5405    4.8986  -18.6515 C   0  0  0  0  0  0  0  0  0  0  0  0
   -4.6520    5.6752  -17.9829 C   0  0  0  0  0  0  0  0  0  0  0  0
   -5.7044    5.9034  -19.0985 C   0  0  0  0  0  0  0  0  0  0  0  0
   -6.8775    4.9658  -19.0578 N   0  0  0  0  0  0  0  0  0  0  0  0
   -7.4197    4.7849  -17.7847 C   0  0  0  0  0  0  0  0  0  0  0  0
   -8.7502    4.5083  -17.4097 C   0  0  0  0  0  0  0  0  0  0  0  0
  -10.0031    4.3831  -18.5868 Cl  0  0  0  0  0  0  0  0  0  0  0  0
   -9.1442    4.4805  -16.0573 C   0  0  0  0  0  0  0  0  0  0  0  0
   -8.1961    4.6876  -15.0470 C   0  0  0  0  0  0  0  0  0  0  0  0
   -6.8435    4.7896  -15.3905 C   0  0  0  0  0  0  0  0  0  0  0  0
   -5.6007    5.0012  -14.7451 C   0  0  0  0  0  0  0  0  0  0  0  0
   -4.5888    5.1771  -15.6068 N   0  0  0  0  0  0  0  0  0  0  0  0
   -5.2066    5.1051  -16.7968 N   0  0  0  0  0  0  0  0  0  0  0  0
   -6.5332    4.8324  -16.7255 C   0  0  0  0  0  0  0  0  0  0  0  0
   -7.2328    4.5180  -19.8593 H   0  0  0  0  0  0  0  0  0  0  0  0
   -5.4263    8.9415  -22.4671 C   0  0  0  0  0  0  0  0  0  0  0  0
   -5.4624    8.3477  -21.0758 C   0  0  0  0  0  0  0  0  0  0  0  0
   -5.7248    8.9636  -20.1174 O   0  0  0  0  0  0  0  0  0  0  0  0
   -5.0737    6.8483  -21.2364 N   0  0  0  0  0  0  0  0  0  0  0  0
   -4.9727    6.5458  -22.1678 H   0  0  0  0  0  0  0  0  0  0  0  0
   -8.5701    5.1551  -13.7074 C   0  0  0  0  0  0  0  0  0  0  0  0
   -8.8123    6.2912  -13.6054 O   0  0  0  0  0  0  0  0  0  0  0  0
   -8.4765    4.0568  -12.6382 N   0  0  0  0  0  0  0  0  0  0  0  0
   -8.3306    3.1495  -12.9913 H   0  0  0  0  0  0  0  0  0  0  0  0
   -8.5642    4.1349  -11.2535 C   0  0  0  0  0  0  0  0  0  0  0  0
   -8.8789    3.0001  -10.5105 C   0  0  0  0  0  0  0  0  0  0  0  0
   -8.8947    3.0743   -9.1152 C   0  0  0  0  0  0  0  0  0  0  0  0
   -8.5969    4.2766   -8.4801 C   0  0  0  0  0  0  0  0  0  0  0  0
   -8.6211    4.3429   -7.1418 F   0  0  0  0  0  0  0  0  0  0  0  0
   -8.2926    5.4157   -9.2120 C   0  0  0  0  0  0  0  0  0  0  0  0
   -8.2793    5.3441  -10.6031 C   0  0  0  0  0  0  0  0  0  0  0  0
 18 19  1  0  0  0
 19 20  2  0  0  0
 19 21  1  0  0  0
 21  1  1  0  0  0
  1  2  1  0  0  0
  2  3  1  0  0  0
  4  3  1  0  0  0
  4  5  1  0  0  0
  5  6  1  0  0  0
  6  7  1  0  0  0
  7  8  2  0  0  0
  8  9  1  0  0  0
  8 10  1  0  0  0
 10 11  2  0  0  0
 11 23  1  0  0  0
 23 24  2  0  0  0
 23 25  1  0  0  0
 25 27  1  0  0  0
 27 28  2  0  0  0
 28 29  1  0  0  0
 29 30  2  0  0  0
 30 31  1  0  0  0
 30 32  1  0  0  0
 32 33  2  0  0  0
 11 12  1  0  0  0
 12 13  1  0  0  0
 13 14  2  0  0  0
 14 15  1  0  0  0
 15 16  1  0  0  0
  5  1  1  0  0  0
 16  7  1  0  0  0
 15  4  1  0  0  0
 33 27  1  0  0  0
 16 12  2  0  0  0
 21 22  1  0  0  0
  6 17  1  0  0  0
 25 26  1  0  0  0
M  END
> <minimizedAffinity>
-8.80967

> <minimizedRMSD>
0.89792

$$$$
P28586


 33 37  0  0  0  0  0  0  0  0999 V2000
   -4.9571    7.2655  -18.9389 N   0  0  0  0  0  0  0  0  0  0  0  0
   -3.4849    7.1361  -19.0294 C   0  0  0  0  0  0  0  0  0  0  0  0
   -3.1342    5.8298  -18.3110 C   0  0  0  0  0  0  0  0  0  0  0  0
   -4.4271    5.0132  -18.3240 C   0  0  0  0  0  0  0  0  0  0  0  0
   -5.3920    5.8484  -19.1948 C   0  0  0  0  0  0  0  0  0  0  0  0
   -6.7488    5.2713  -19.2267 N   0  0  0  0  0  0  0  0  0  0  0  0
   -7.3251    4.9141  -18.0412 C   0  0  0  0  0  0  0  0  0  0  0  0
   -8.6614    4.6077  -17.7658 C   0  0  0  0  0  0  0  0  0  0  0  0
   -9.8121    4.4632  -19.0460 Cl  0  0  0  0  0  0  0  0  0  0  0  0
   -9.1063    4.5217  -16.4396 C   0  0  0  0  0  0  0  0  0  0  0  0
   -8.1874    4.6798  -15.3804 C   0  0  0  0  0  0  0  0  0  0  0  0
   -6.8129    4.7217  -15.6603 C   0  0  0  0  0  0  0  0  0  0  0  0
   -5.5706    4.8496  -14.9899 C   0  0  0  0  0  0  0  0  0  0  0  0
   -4.5182    4.9425  -15.8258 N   0  0  0  0  0  0  0  0  0  0  0  0
   -5.0936    4.8334  -17.0375 N   0  0  0  0  0  0  0  0  0  0  0  0
   -6.4562    4.7851  -16.9780 C   0  0  0  0  0  0  0  0  0  0  0  0
   -7.2259    5.1471  -20.0789 H   0  0  0  0  0  0  0  0  0  0  0  0
   -5.3083    9.1547  -15.6400 C   0  0  0  0  0  0  0  0  0  0  0  0
   -4.9937    9.2332  -17.1221 C   0  0  0  0  0  0  0  0  0  0  0  0
   -4.5731   10.1916  -17.6438 O   0  0  0  0  0  0  0  0  0  0  0  0
   -5.2477    7.8072  -17.6880 N   0  0  0  0  0  0  0  0  0  0  0  0
   -5.6847    7.1864  -17.0611 H   0  0  0  0  0  0  0  0  0  0  0  0
   -8.6321    5.0820  -14.0399 C   0  0  0  0  0  0  0  0  0  0  0  0
   -9.4194    5.9417  -13.9848 O   0  0  0  0  0  0  0  0  0  0  0  0
   -7.9618    4.2695  -12.9183 N   0  0  0  0  0  0  0  0  0  0  0  0
   -7.2658    3.6433  -13.2226 H   0  0  0  0  0  0  0  0  0  0  0  0
   -8.1785    4.2756  -11.5487 C   0  0  0  0  0  0  0  0  0  0  0  0
   -8.5036    3.0893  -10.8959 C   0  0  0  0  0  0  0  0  0  0  0  0
   -8.6365    3.0863   -9.5061 C   0  0  0  0  0  0  0  0  0  0  0  0
   -8.4764    4.2703   -8.7923 C   0  0  0  0  0  0  0  0  0  0  0  0
   -8.6238    4.2662   -7.4599 F   0  0  0  0  0  0  0  0  0  0  0  0
   -8.1927    5.4648   -9.4405 C   0  0  0  0  0  0  0  0  0  0  0  0
   -8.0348    5.4651  -10.8235 C   0  0  0  0  0  0  0  0  0  0  0  0
 18 19  1  0  0  0
 19 20  2  0  0  0
 19 21  1  0  0  0
 21  1  1  0  0  0
  1  2  1  0  0  0
  2  3  1  0  0  0
  4  3  1  0  0  0
  4  5  1  0  0  0
  5  6  1  0  0  0
  6  7  1  0  0  0
  7  8  2  0  0  0
  8  9  1  0  0  0
  8 10  1  0  0  0
 10 11  2  0  0  0
 11 23  1  0  0  0
 23 24  2  0  0  0
 23 25  1  0  0  0
 25 27  1  0  0  0
 27 28  2  0  0  0
 28 29  1  0  0  0
 29 30  2  0  0  0
 30 31  1  0  0  0
 30 32  1  0  0  0
 32 33  2  0  0  0
 11 12  1  0  0  0
 12 13  1  0  0  0
 13 14  2  0  0  0
 14 15  1  0  0  0
 15 16  1  0  0  0
  5  1  1  0  0  0
 16  7  1  0  0  0
 15  4  1  0  0  0
 33 27  1  0  0  0
 16 12  2  0  0  0
 21 22  1  0  0  0
  6 17  1  0  0  0
 25 26  1  0  0  0
M  END
> <minimizedAffinity>
-8.51328

> <minimizedRMSD>
1.24464

$$$$
P28587


 28 31  0  0  0  0  0  0  0  0999 V2000
   -8.0844    4.8624  -15.4558 C   0  0  0  0  0  0  0  0  0  0  0  0
   -9.2375    4.6949  -16.2530 C   0  0  0  0  0  0  0  0  0  0  0  0
   -9.1912    4.5799  -17.6805 C   0  0  0  0  0  0  0  0  0  0  0  0
  -10.6985    4.5146  -18.5151 Cl  0  0  0  0  0  0  0  0  0  0  0  0
   -8.0090    4.6092  -18.4551 C   0  0  0  0  0  0  0  0  0  0  0  0
   -6.8848    4.7571  -17.6484 C   0  0  0  0  0  0  0  0  0  0  0  0
   -5.5779    4.9159  -18.0561 C   0  0  0  0  0  0  0  0  0  0  0  0
   -4.8433    5.0327  -16.9109 N   0  0  0  0  0  0  0  0  0  0  0  0
   -3.4872    5.2361  -16.8670 F   0  0  0  0  0  0  0  0  0  0  0  0
   -5.6169    4.9780  -15.7976 C   0  0  0  0  0  0  0  0  0  0  0  0
   -5.1530    5.0101  -14.5442 F   0  0  0  0  0  0  0  0  0  0  0  0
   -6.9158    4.8655  -16.2166 C   0  0  0  0  0  0  0  0  0  0  0  0
   -5.0466    5.0331  -19.5136 C   0  0  0  0  0  0  0  0  0  0  0  0
   -3.5212    4.9605  -19.7331 C   0  0  0  0  0  0  0  0  0  0  0  0
   -3.5773    6.1942  -20.5300 N   0  0  0  0  0  0  0  0  0  0  0  0
   -4.9296    6.4836  -20.0231 C   0  0  0  0  0  0  0  0  0  0  0  0
   -3.5378    6.0381  -21.5372 H   0  0  0  0  0  0  0  0  0  0  0  0
   -8.2078    6.5010  -13.9120 O   0  0  0  0  0  0  0  0  0  0  0  0
   -8.1756    5.3454  -14.0759 C   0  0  0  0  0  0  0  0  0  0  0  0
   -8.3156    4.1871  -13.0656 N   0  0  0  0  0  0  0  0  0  0  0  0
   -8.3291    3.2887  -13.4679 H   0  0  0  0  0  0  0  0  0  0  0  0
   -8.4256    4.2059  -11.6801 C   0  0  0  0  0  0  0  0  0  0  0  0
   -8.7539    3.0309  -11.0032 C   0  0  0  0  0  0  0  0  0  0  0  0
   -8.8476    3.0379   -9.6091 C   0  0  0  0  0  0  0  0  0  0  0  0
   -8.6342    4.2203   -8.9084 C   0  0  0  0  0  0  0  0  0  0  0  0
   -8.7420    4.2281   -7.5726 F   0  0  0  0  0  0  0  0  0  0  0  0
   -8.3263    5.3993   -9.5741 C   0  0  0  0  0  0  0  0  0  0  0  0
   -8.2143    5.3897  -10.9642 C   0  0  0  0  0  0  0  0  0  0  0  0
 18 19  2  0  0  0
 19 20  1  0  0  0
 20 22  1  0  0  0
 22 23  2  0  0  0
 23 24  1  0  0  0
 24 25  2  0  0  0
 25 26  1  0  0  0
 25 27  1  0  0  0
 27 28  2  0  0  0
 19  1  1  0  0  0
  1  2  2  0  0  0
  2  3  1  0  0  0
  3  4  1  0  0  0
  3  5  2  0  0  0
  5  6  1  0  0  0
  6  7  2  0  0  0
  7 13  1  0  0  0
 13 14  1  0  0  0
 14 15  1  0  0  0
 15 16  1  0  0  0
  7  8  1  0  0  0
  8  9  1  0  0  0
  8 10  1  0  0  0
 10 11  1  0  0  0
 10 12  2  0  0  0
 28 22  1  0  0  0
 12  1  1  0  0  0
 12  6  1  0  0  0
 16 13  1  0  0  0
 20 21  1  0  0  0
 15 17  1  0  0  0
M  END
> <minimizedAffinity>
-8.37902

> <minimizedRMSD>
0.86027

$$$$
P28588


 29 32  0  0  0  0  0  0  0  0999 V2000
   -4.7079    5.7162  -16.4339 C   0  0  0  0  0  0  0  0  0  0  0  0
   -5.6562    5.5646  -15.4362 C   0  0  0  0  0  0  0  0  0  0  0  0
   -6.8752    5.1358  -16.0249 C   0  0  0  0  0  0  0  0  0  0  0  0
   -8.1999    4.9785  -15.5528 C   0  0  0  0  0  0  0  0  0  0  0  0
   -9.2258    4.6501  -16.4451 C   0  0  0  0  0  0  0  0  0  0  0  0
   -8.9376    4.5117  -17.7957 C   0  0  0  0  0  0  0  0  0  0  0  0
  -10.2241    4.3690  -18.9202 Cl  0  0  0  0  0  0  0  0  0  0  0  0
   -7.6343    4.6049  -18.2831 C   0  0  0  0  0  0  0  0  0  0  0  0
   -6.6107    4.9310  -17.3796 C   0  0  0  0  0  0  0  0  0  0  0  0
   -5.2608    5.1753  -17.5814 N   0  0  0  0  0  0  0  0  0  0  0  0
   -4.6347    4.9173  -18.9073 C   0  0  0  0  0  0  0  0  0  0  0  0
   -3.1127    4.8456  -18.9573 C   0  0  0  0  0  0  0  0  0  0  0  0
   -3.0577    6.1338  -19.6651 N   0  0  0  0  0  0  0  0  0  0  0  0
   -4.5305    6.1429  -19.8142 C   0  0  0  0  0  0  0  0  0  0  0  0
   -2.5532    6.0971  -20.5508 H   0  0  0  0  0  0  0  0  0  0  0  0
   -8.5311    5.3879  -14.1659 C   0  0  0  0  0  0  0  0  0  0  0  0
   -9.0284    6.4333  -14.0098 O   0  0  0  0  0  0  0  0  0  0  0  0
   -8.1278    4.3065  -13.1373 N   0  0  0  0  0  0  0  0  0  0  0  0
   -7.6496    3.5343  -13.5172 H   0  0  0  0  0  0  0  0  0  0  0  0
   -8.3305    4.2471  -11.7629 C   0  0  0  0  0  0  0  0  0  0  0  0
   -8.6889    3.0337  -11.1739 C   0  0  0  0  0  0  0  0  0  0  0  0
   -8.8497    2.9566   -9.7876 C   0  0  0  0  0  0  0  0  0  0  0  0
   -8.6679    4.0935   -9.0072 C   0  0  0  0  0  0  0  0  0  0  0  0
   -8.8330    4.0203   -7.6794 F   0  0  0  0  0  0  0  0  0  0  0  0
   -8.3340    5.3108   -9.5860 C   0  0  0  0  0  0  0  0  0  0  0  0
   -8.1607    5.3863  -10.9679 C   0  0  0  0  0  0  0  0  0  0  0  0
   -3.4019    6.4241  -16.3141 C   0  0  0  0  0  0  0  0  0  0  0  0
   -2.4175    8.4781  -16.9673 C   0  0  0  0  0  0  0  0  0  0  0  0
   -3.6001    7.7045  -16.9031 O   0  0  0  0  0  0  0  0  0  0  0  0
 28 29  1  0  0  0
 29 27  1  0  0  0
 27  1  1  0  0  0
  1  2  2  0  0  0
  2  3  1  0  0  0
  3  4  2  0  0  0
  4 16  1  0  0  0
 16 17  2  0  0  0
 16 18  1  0  0  0
 18 20  1  0  0  0
 20 21  2  0  0  0
 21 22  1  0  0  0
 22 23  2  0  0  0
 23 24  1  0  0  0
 23 25  1  0  0  0
 25 26  2  0  0  0
  4  5  1  0  0  0
  5  6  2  0  0  0
  6  7  1  0  0  0
  6  8  1  0  0  0
  8  9  2  0  0  0
  9 10  1  0  0  0
 10 11  1  0  0  0
 11 12  1  0  0  0
 12 13  1  0  0  0
 13 14  1  0  0  0
 10  1  1  0  0  0
 14 11  1  0  0  0
  9  3  1  0  0  0
 26 20  1  0  0  0
 18 19  1  0  0  0
 13 15  1  0  0  0
M  END
> <minimizedAffinity>
-6.87357

> <minimizedRMSD>
1.28660

$$$$
P28589


 28 31  0  0  0  0  0  0  0  0999 V2000
   -8.1837    5.0108  -15.3061 C   0  0  0  0  0  0  0  0  0  0  0  0
   -9.3084    4.7634  -16.1177 C   0  0  0  0  0  0  0  0  0  0  0  0
   -9.2139    4.5597  -17.5340 C   0  0  0  0  0  0  0  0  0  0  0  0
  -10.6894    4.3887  -18.4117 Cl  0  0  0  0  0  0  0  0  0  0  0  0
   -8.0088    4.5749  -18.2726 C   0  0  0  0  0  0  0  0  0  0  0  0
   -6.9133    4.7752  -17.4374 C   0  0  0  0  0  0  0  0  0  0  0  0
   -5.5911    4.9122  -17.8016 C   0  0  0  0  0  0  0  0  0  0  0  0
   -4.8682    4.9685  -16.6297 N   0  0  0  0  0  0  0  0  0  0  0  0
   -3.4392    4.8517  -16.4881 C   0  0  0  0  0  0  0  0  0  0  0  0
   -5.7183    5.1129  -15.5540 C   0  0  0  0  0  0  0  0  0  0  0  0
   -6.9951    4.9714  -16.0308 C   0  0  0  0  0  0  0  0  0  0  0  0
   -5.0960    5.0392  -19.2764 C   0  0  0  0  0  0  0  0  0  0  0  0
   -3.5931    5.0299  -19.6271 C   0  0  0  0  0  0  0  0  0  0  0  0
   -3.8557    6.1049  -20.6194 N   0  0  0  0  0  0  0  0  0  0  0  0
   -5.0181    6.5035  -19.7792 C   0  0  0  0  0  0  0  0  0  0  0  0
   -4.0989    5.7728  -21.5526 H   0  0  0  0  0  0  0  0  0  0  0  0
   -8.1923    4.4137  -12.8870 N   0  0  0  0  0  0  0  0  0  0  0  0
   -8.2897    5.5341  -13.9427 C   0  0  0  0  0  0  0  0  0  0  0  0
   -8.4470    6.6837  -13.8139 O   0  0  0  0  0  0  0  0  0  0  0  0
   -7.9794    3.5235  -13.2493 H   0  0  0  0  0  0  0  0  0  0  0  0
   -9.2373    2.0767   -8.6822 C   0  0  0  0  0  0  0  0  0  0  0  0
   -8.8679    3.3233   -9.4247 C   0  0  0  0  0  0  0  0  0  0  0  0
   -8.7511    3.3055  -10.8236 C   0  0  0  0  0  0  0  0  0  0  0  0
   -8.3563    4.4564  -11.5067 C   0  0  0  0  0  0  0  0  0  0  0  0
   -8.0980    5.6351  -10.7997 C   0  0  0  0  0  0  0  0  0  0  0  0
   -8.2185    5.6621   -9.4122 C   0  0  0  0  0  0  0  0  0  0  0  0
   -8.5851    4.5057   -8.7363 C   0  0  0  0  0  0  0  0  0  0  0  0
   -8.6774    4.5444   -7.3984 F   0  0  0  0  0  0  0  0  0  0  0  0
 21 22  1  0  0  0
 22 23  2  0  0  0
 23 24  1  0  0  0
 24 17  1  0  0  0
 17 18  1  0  0  0
 18 19  2  0  0  0
 18  1  1  0  0  0
  1  2  2  0  0  0
  2  3  1  0  0  0
  3  4  1  0  0  0
  3  5  2  0  0  0
  5  6  1  0  0  0
  6  7  2  0  0  0
  7 12  1  0  0  0
 12 13  1  0  0  0
 13 14  1  0  0  0
 14 15  1  0  0  0
  7  8  1  0  0  0
  8  9  1  0  0  0
  8 10  1  0  0  0
 10 11  2  0  0  0
 24 25  2  0  0  0
 25 26  1  0  0  0
 26 27  2  0  0  0
 27 28  1  0  0  0
 27 22  1  0  0  0
 11  1  1  0  0  0
 11  6  1  0  0  0
 15 12  1  0  0  0
 17 20  1  0  0  0
 14 16  1  0  0  0
M  END
> <minimizedAffinity>
-8.30163

> <minimizedRMSD>
0.84313

$$$$
P28598


 40 44  0  0  0  0  0  0  0  0999 V2000
   -7.3323    4.8040  -15.3487 C   0  0  0  0  0  0  0  0  0  0  0  0
   -8.5587    4.5882  -15.9749 C   0  0  0  0  0  0  0  0  0  0  0  0
   -8.6298    4.6087  -17.3613 C   0  0  0  0  0  0  0  0  0  0  0  0
  -10.1658    4.6637  -18.1127 Cl  0  0  0  0  0  0  0  0  0  0  0  0
   -7.4964    4.7359  -18.1637 C   0  0  0  0  0  0  0  0  0  0  0  0
   -6.2716    4.9619  -17.5256 C   0  0  0  0  0  0  0  0  0  0  0  0
   -6.1729    5.0032  -16.1306 C   0  0  0  0  0  0  0  0  0  0  0  0
   -4.8333    5.3510  -15.8165 C   0  0  0  0  0  0  0  0  0  0  0  0
   -4.1838    5.6249  -16.9934 C   0  0  0  0  0  0  0  0  0  0  0  0
   -2.9880    6.1630  -17.1851 O   0  0  0  0  0  0  0  0  0  0  0  0
   -5.0213    5.2642  -18.0285 N   0  0  0  0  0  0  0  0  0  0  0  0
   -2.4539    6.3919  -16.4500 H   0  0  0  0  0  0  0  0  0  0  0  0
   -4.7014    5.2745  -19.4841 C   0  0  0  0  0  0  0  0  0  0  0  0
   -3.2693    4.8353  -19.7974 C   0  0  0  0  0  0  0  0  0  0  0  0
   -2.8818    6.2346  -20.0401 N   0  0  0  0  0  0  0  0  0  0  0  0
   -4.2992    6.6502  -20.0393 C   0  0  0  0  0  0  0  0  0  0  0  0
   -2.4078    6.3837  -20.9310 H   0  0  0  0  0  0  0  0  0  0  0  0
   -4.7608    6.9746  -21.3630 O   0  0  0  0  0  0  0  0  0  0  0  0
   -5.2584    8.2956  -21.5484 C   0  0  0  0  0  0  0  0  0  0  0  0
   -5.7589    8.4937  -22.9589 C   0  0  0  0  0  0  0  0  0  0  0  0
   -5.9672    9.7885  -23.4568 C   0  0  0  0  0  0  0  0  0  0  0  0
   -6.3800    9.9855  -24.7769 C   0  0  0  0  0  0  0  0  0  0  0  0
   -6.5795    8.8916  -25.6169 C   0  0  0  0  0  0  0  0  0  0  0  0
   -6.3612    7.6018  -25.1395 C   0  0  0  0  0  0  0  0  0  0  0  0
   -5.9495    7.4055  -23.8205 C   0  0  0  0  0  0  0  0  0  0  0  0
   -8.2077    4.2047  -13.0688 N   0  0  0  0  0  0  0  0  0  0  0  0
   -7.2723    5.1085  -13.8992 C   0  0  0  0  0  0  0  0  0  0  0  0
   -6.5774    5.9865  -13.5676 O   0  0  0  0  0  0  0  0  0  0  0  0
   -8.7526    3.5786  -13.5982 H   0  0  0  0  0  0  0  0  0  0  0  0
   -8.7238    3.9506   -8.8879 C   0  0  0  0  0  0  0  0  0  0  0  0
   -8.8926    2.8309   -9.7238 C   0  0  0  0  0  0  0  0  0  0  0  0
   -8.7343    2.9144  -11.1128 C   0  0  0  0  0  0  0  0  0  0  0  0
   -8.4061    4.1306  -11.6955 C   0  0  0  0  0  0  0  0  0  0  0  0
   -8.2667    5.2630  -10.8932 C   0  0  0  0  0  0  0  0  0  0  0  0
   -8.4317    5.1749   -9.5066 C   0  0  0  0  0  0  0  0  0  0  0  0
   -9.8195    2.7420   -7.1223 C   0  0  0  0  0  0  0  0  0  0  0  0
   -8.8803    3.8242   -7.4738 N   0  0  0  0  0  0  0  0  0  0  0  0
   -7.7155    3.9437   -6.6676 N   0  0  0  0  0  0  0  0  0  0  0  0
   -7.9688    3.8339   -5.6857 H   0  0  0  0  0  0  0  0  0  0  0  0
   -7.2963    4.8627   -6.8098 H   0  0  0  0  0  0  0  0  0  0  0  0
 36 37  1  0  0  0
 37 38  1  0  0  0
 37 30  1  0  0  0
 30 31  2  0  0  0
 31 32  1  0  0  0
 32 33  2  0  0  0
 33 26  1  0  0  0
 26 27  1  0  0  0
 27 28  2  0  0  0
 27  1  1  0  0  0
  1  2  2  0  0  0
  2  3  1  0  0  0
  3  4  1  0  0  0
  3  5  2  0  0  0
  5  6  1  0  0  0
  6  7  2  0  0  0
  7  8  1  0  0  0
  8  9  2  0  0  0
  9 10  1  0  0  0
  9 11  1  0  0  0
 13 11  1  0  0  0
 13 14  1  0  0  0
 14 15  1  0  0  0
 15 16  1  0  0  0
 16 18  1  0  0  0
 18 19  1  0  0  0
 19 20  1  0  0  0
 20 21  2  0  0  0
 21 22  1  0  0  0
 22 23  2  0  0  0
 23 24  1  0  0  0
 24 25  2  0  0  0
 33 34  1  0  0  0
 34 35  2  0  0  0
 35 30  1  0  0  0
  7  1  1  0  0  0
 16 13  1  0  0  0
 25 20  1  0  0  0
 11  6  1  0  0  0
 38 39  1  0  0  0
 38 40  1  0  0  0
 26 29  1  0  0  0
 10 12  1  0  0  0
 15 17  1  0  0  0
M  END
> <minimizedAffinity>
-8.42717

> <minimizedRMSD>
1.17215

$$$$
P28599


 33 36  0  0  0  0  0  0  0  0999 V2000
   -5.1300    5.5790  -16.4916 N   0  0  0  0  0  0  0  0  0  0  0  0
   -6.0893    5.4097  -15.5041 C   0  0  0  0  0  0  0  0  0  0  0  0
   -7.2600    5.0674  -16.1058 C   0  0  0  0  0  0  0  0  0  0  0  0
   -8.4998    4.9599  -15.4849 C   0  0  0  0  0  0  0  0  0  0  0  0
   -9.5120    4.6485  -16.4044 C   0  0  0  0  0  0  0  0  0  0  0  0
   -9.2594    4.5138  -17.8100 C   0  0  0  0  0  0  0  0  0  0  0  0
  -10.6382    4.3631  -18.8312 Cl  0  0  0  0  0  0  0  0  0  0  0  0
   -7.9863    4.6086  -18.4279 C   0  0  0  0  0  0  0  0  0  0  0  0
   -6.9982    4.9042  -17.4888 C   0  0  0  0  0  0  0  0  0  0  0  0
   -5.6513    5.1623  -17.7125 C   0  0  0  0  0  0  0  0  0  0  0  0
   -5.0070    4.9932  -19.1454 C   0  0  0  0  0  0  0  0  0  0  0  0
   -3.4982    4.7931  -19.2991 C   0  0  0  0  0  0  0  0  0  0  0  0
   -3.4658    5.8283  -20.3446 N   0  0  0  0  0  0  0  0  0  0  0  0
   -4.8256    6.2716  -19.9745 C   0  0  0  0  0  0  0  0  0  0  0  0
   -3.3952    5.4573  -21.2921 H   0  0  0  0  0  0  0  0  0  0  0  0
   -8.7466    5.4399  -14.1196 C   0  0  0  0  0  0  0  0  0  0  0  0
   -9.0971    6.5469  -14.0005 O   0  0  0  0  0  0  0  0  0  0  0  0
   -8.4617    4.3621  -13.0554 N   0  0  0  0  0  0  0  0  0  0  0  0
   -8.2492    3.4716  -13.4173 H   0  0  0  0  0  0  0  0  0  0  0  0
   -8.4560    4.4428  -11.6669 C   0  0  0  0  0  0  0  0  0  0  0  0
   -8.1464    5.6601  -11.0520 C   0  0  0  0  0  0  0  0  0  0  0  0
   -8.1373    5.7642   -9.6666 C   0  0  0  0  0  0  0  0  0  0  0  0
   -8.4383    4.6485   -8.8973 C   0  0  0  0  0  0  0  0  0  0  0  0
   -8.4658    4.7996   -7.5637 F   0  0  0  0  0  0  0  0  0  0  0  0
   -8.7404    3.4109   -9.4813 C   0  0  0  0  0  0  0  0  0  0  0  0
   -8.7543    3.3237  -10.8883 C   0  0  0  0  0  0  0  0  0  0  0  0
   -9.1807    2.2200   -8.6665 C   0  0  0  0  0  0  0  0  0  0  0  0
   -8.1008    1.4646   -8.0435 N   0  0  0  0  0  0  0  0  0  0  0  0
   -7.5011    1.0687   -8.7674 H   0  0  0  0  0  0  0  0  0  0  0  0
   -8.4942    0.7119   -7.4787 H   0  0  0  0  0  0  0  0  0  0  0  0
   -2.7828    5.1315  -15.8583 C   0  0  0  0  0  0  0  0  0  0  0  0
   -3.8645    6.1817  -16.0792 C   0  0  0  0  0  0  0  0  0  0  0  0
   -3.4065    7.4274  -16.8263 C   0  0  0  0  0  0  0  0  0  0  0  0
 31 32  1  0  0  0
 32 33  1  0  0  0
 32  1  1  0  0  0
  1  2  1  0  0  0
  2  3  2  0  0  0
  3  4  1  0  0  0
  4 16  1  0  0  0
 16 17  2  0  0  0
 16 18  1  0  0  0
 18 20  1  0  0  0
 20 21  2  0  0  0
 21 22  1  0  0  0
 22 23  2  0  0  0
 23 24  1  0  0  0
 23 25  1  0  0  0
 25 27  1  0  0  0
 27 28  1  0  0  0
 25 26  2  0  0  0
  4  5  2  0  0  0
  5  6  1  0  0  0
  6  7  1  0  0  0
  6  8  2  0  0  0
  8  9  1  0  0  0
  9 10  2  0  0  0
 10 11  1  0  0  0
 11 12  1  0  0  0
 12 13  1  0  0  0
 13 14  1  0  0  0
 10  1  1  0  0  0
 14 11  1  0  0  0
  9  3  1  0  0  0
 26 20  1  0  0  0
 18 19  1  0  0  0
 28 29  1  0  0  0
 28 30  1  0  0  0
 13 15  1  0  0  0
M  END
> <minimizedAffinity>
-8.42045

> <minimizedRMSD>
1.02866

$$$$
P28602


 29 33  0  0  0  0  0  0  0  0999 V2000
   -7.6405    4.5668  -15.4468 C   0  0  0  0  0  0  0  0  0  0  0  0
   -8.8904    4.3936  -16.0534 C   0  0  0  0  0  0  0  0  0  0  0  0
   -8.9649    4.3448  -17.4450 C   0  0  0  0  0  0  0  0  0  0  0  0
  -10.5058    4.3570  -18.2144 Cl  0  0  0  0  0  0  0  0  0  0  0  0
   -7.8209    4.4088  -18.2527 C   0  0  0  0  0  0  0  0  0  0  0  0
   -6.5777    4.5515  -17.6224 C   0  0  0  0  0  0  0  0  0  0  0  0
   -6.4747    4.6240  -16.2370 C   0  0  0  0  0  0  0  0  0  0  0  0
   -5.0976    4.7991  -15.9872 C   0  0  0  0  0  0  0  0  0  0  0  0
   -4.3739    4.8322  -17.1025 N   0  0  0  0  0  0  0  0  0  0  0  0
   -5.2865    4.7034  -18.0872 N   0  0  0  0  0  0  0  0  0  0  0  0
   -4.9263    4.8338  -19.5103 C   0  0  0  0  0  0  0  0  0  0  0  0
   -3.4246    4.6566  -19.8280 C   0  0  0  0  0  0  0  0  0  0  0  0
   -3.5274    5.8352  -20.7357 N   0  0  0  0  0  0  0  0  0  0  0  0
   -4.6765    6.2974  -19.9197 C   0  0  0  0  0  0  0  0  0  0  0  0
   -3.7591    5.6065  -21.7024 H   0  0  0  0  0  0  0  0  0  0  0  0
   -7.0754    5.9980  -13.8055 O   0  0  0  0  0  0  0  0  0  0  0  0
   -7.5017    4.9375  -14.0237 C   0  0  0  0  0  0  0  0  0  0  0  0
   -7.9467    3.8303  -13.0653 N   0  0  0  0  0  0  0  0  0  0  0  0
   -8.3472    3.0439  -13.5018 H   0  0  0  0  0  0  0  0  0  0  0  0
   -7.8748    3.7510  -11.6239 C   0  0  0  0  0  0  0  0  0  0  0  0
   -8.6824    2.5971  -11.0269 C   0  0  0  0  0  0  0  0  0  0  0  0
   -8.5766    2.5463   -9.4905 C   0  0  0  0  0  0  0  0  0  0  0  0
   -8.4991    3.8999   -8.8699 C   0  0  0  0  0  0  0  0  0  0  0  0
   -8.3842    5.0394   -9.5498 C   0  0  0  0  0  0  0  0  0  0  0  0
   -8.2663    6.2033   -8.6466 C   0  0  0  0  0  0  0  0  0  0  0  0
   -8.3917    5.6407   -7.2843 N   0  0  0  0  0  0  0  0  0  0  0  0
   -8.4457    4.1672   -7.4134 C   0  0  0  0  0  0  0  0  0  0  0  0
   -8.2688    5.1193  -11.0227 C   0  0  0  0  0  0  0  0  0  0  0  0
   -9.2456    5.9830   -6.8437 H   0  0  0  0  0  0  0  0  0  0  0  0
 16 17  2  0  0  0
 17 18  1  0  0  0
 20 18  1  0  0  0
 20 21  1  0  0  0
 21 22  1  0  0  0
 22 23  1  0  0  0
 23 24  2  0  0  0
 24 25  1  0  0  0
 25 26  1  0  0  0
 26 27  1  0  0  0
 24 28  1  0  0  0
 17  1  1  0  0  0
  1  2  2  0  0  0
  2  3  1  0  0  0
  3  4  1  0  0  0
  3  5  2  0  0  0
  5  6  1  0  0  0
  6  7  2  0  0  0
  7  8  1  0  0  0
  8  9  2  0  0  0
  9 10  1  0  0  0
 10 11  1  0  0  0
 11 12  1  0  0  0
 12 13  1  0  0  0
 13 14  1  0  0  0
 28 20  1  0  0  0
  7  1  1  0  0  0
 14 11  1  0  0  0
 27 23  1  0  0  0
 10  6  1  0  0  0
 18 19  1  0  0  0
 26 29  1  0  0  0
 13 15  1  0  0  0
M  END
> <minimizedAffinity>
-8.42199

> <minimizedRMSD>
1.12978

$$$$
P28612


 31 34  0  0  0  0  0  0  0  0999 V2000
   -7.3916    4.2630  -15.4308 C   0  0  0  0  0  0  0  0  0  0  0  0
   -8.6493    4.3148  -16.0394 C   0  0  0  0  0  0  0  0  0  0  0  0
   -8.7599    4.6967  -17.3692 C   0  0  0  0  0  0  0  0  0  0  0  0
  -10.3070    4.7504  -18.1109 Cl  0  0  0  0  0  0  0  0  0  0  0  0
   -7.6394    5.0431  -18.1248 C   0  0  0  0  0  0  0  0  0  0  0  0
   -6.3919    5.0197  -17.4942 C   0  0  0  0  0  0  0  0  0  0  0  0
   -6.2312    4.6369  -16.1375 C   0  0  0  0  0  0  0  0  0  0  0  0
   -4.8321    4.6846  -15.7702 C   0  0  0  0  0  0  0  0  0  0  0  0
   -4.1555    5.0560  -16.8662 N   0  0  0  0  0  0  0  0  0  0  0  0
   -2.9282    5.2317  -17.0057 O   0  0  0  0  0  0  0  0  0  0  0  0
   -5.1074    5.2629  -17.9502 N   0  0  0  0  0  0  0  0  0  0  0  0
   -4.8208    5.5406  -19.3677 C   0  0  0  0  0  0  0  0  0  0  0  0
   -3.4762    5.0860  -19.9700 C   0  0  0  0  0  0  0  0  0  0  0  0
   -3.4561    6.3761  -20.7257 N   0  0  0  0  0  0  0  0  0  0  0  0
   -4.2471    6.9523  -19.6008 C   0  0  0  0  0  0  0  0  0  0  0  0
   -3.9414    6.3540  -21.6226 H   0  0  0  0  0  0  0  0  0  0  0  0
   -8.1650    4.4934  -13.0846 N   0  0  0  0  0  0  0  0  0  0  0  0
   -7.2660    3.7135  -14.0675 C   0  0  0  0  0  0  0  0  0  0  0  0
   -6.5954    2.7756  -13.8966 O   0  0  0  0  0  0  0  0  0  0  0  0
   -8.6966    5.2134  -13.4947 H   0  0  0  0  0  0  0  0  0  0  0  0
   -8.7618    4.0663   -8.9551 C   0  0  0  0  0  0  0  0  0  0  0  0
   -8.8982    2.9658   -9.7984 C   0  0  0  0  0  0  0  0  0  0  0  0
   -8.6808    3.1047  -11.1728 C   0  0  0  0  0  0  0  0  0  0  0  0
   -8.3461    4.3444  -11.7152 C   0  0  0  0  0  0  0  0  0  0  0  0
   -8.2145    5.4503  -10.8798 C   0  0  0  0  0  0  0  0  0  0  0  0
   -8.4059    5.3041   -9.5017 C   0  0  0  0  0  0  0  0  0  0  0  0
   -8.9541    4.0653   -7.5999 O   0  0  0  0  0  0  0  0  0  0  0  0
   -8.5714    2.1299   -6.3597 N   0  0  0  0  0  0  0  0  0  0  0  0
   -9.5864    2.9194   -7.0471 C   0  0  0  0  0  0  0  0  0  0  0  0
   -9.0035    1.2999   -5.9538 H   0  0  0  0  0  0  0  0  0  0  0  0
   -8.1489    2.6899   -5.6192 H   0  0  0  0  0  0  0  0  0  0  0  0
 28 29  1  0  0  0
 29 27  1  0  0  0
 27 21  1  0  0  0
 21 22  2  0  0  0
 22 23  1  0  0  0
 23 24  2  0  0  0
 24 17  1  0  0  0
 17 18  1  0  0  0
 18 19  2  0  0  0
 18  1  1  0  0  0
  1  2  2  0  0  0
  2  3  1  0  0  0
  3  4  1  0  0  0
  3  5  2  0  0  0
  5  6  1  0  0  0
  6  7  2  0  0  0
  7  8  1  0  0  0
  8  9  2  0  0  0
  9 10  1  0  0  0
  9 11  1  0  0  0
 11 12  1  0  0  0
 12 13  1  0  0  0
 13 14  1  0  0  0
 14 15  1  0  0  0
 24 25  1  0  0  0
 25 26  2  0  0  0
 26 21  1  0  0  0
  7  1  1  0  0  0
 15 12  1  0  0  0
 11  6  1  0  0  0
 28 30  1  0  0  0
 28 31  1  0  0  0
 17 20  1  0  0  0
 14 16  1  0  0  0
M  CHG 1   9   1
M  CHG 1  10  -1
M  END
> <minimizedAffinity>
-7.99113

> <minimizedRMSD>
1.20214

$$$$
P28613


 40 44  0  0  0  0  0  0  0  0999 V2000
   -6.9652    4.2344  -13.5784 C   0  0  0  0  0  0  0  0  0  0  0  0
   -6.2062    5.3468  -13.1387 O   0  0  0  0  0  0  0  0  0  0  0  0
   -6.6451    6.1668  -13.4138 H   0  0  0  0  0  0  0  0  0  0  0  0
   -4.4123    4.5261  -15.6936 C   0  0  0  0  0  0  0  0  0  0  0  0
   -3.7430    4.8162  -16.8051 N   0  0  0  0  0  0  0  0  0  0  0  0
   -4.6780    5.1670  -17.6902 N   0  0  0  0  0  0  0  0  0  0  0  0
   -5.9632    4.9101  -17.2609 C   0  0  0  0  0  0  0  0  0  0  0  0
   -7.2073    4.9424  -17.9048 C   0  0  0  0  0  0  0  0  0  0  0  0
   -8.3448    4.6528  -17.1576 C   0  0  0  0  0  0  0  0  0  0  0  0
   -9.8788    4.6312  -17.9451 Cl  0  0  0  0  0  0  0  0  0  0  0  0
   -8.2613    4.4214  -15.7888 C   0  0  0  0  0  0  0  0  0  0  0  0
   -7.0179    4.4084  -15.1015 C   0  0  0  0  0  0  0  0  0  0  0  0
   -5.8369    4.5847  -15.9003 C   0  0  0  0  0  0  0  0  0  0  0  0
   -4.2224    6.0690  -18.7512 C   0  0  0  0  0  0  0  0  0  0  0  0
   -3.2963    5.3407  -19.7525 C   0  0  0  0  0  0  0  0  0  0  0  0
   -3.8652    6.2230  -20.8008 N   0  0  0  0  0  0  0  0  0  0  0  0
   -5.0933    6.3116  -19.9648 C   0  0  0  0  0  0  0  0  0  0  0  0
   -3.9989    5.7754  -21.7075 H   0  0  0  0  0  0  0  0  0  0  0  0
   -2.2867    4.9121  -14.3152 C   0  0  0  0  0  0  0  0  0  0  0  0
   -3.6025    4.1606  -14.4912 C   0  0  0  0  0  0  0  0  0  0  0  0
   -6.3975    2.7539  -13.2167 C   0  0  0  0  0  0  0  0  0  0  0  0
   -6.7974    1.7833  -13.7270 O   0  0  0  0  0  0  0  0  0  0  0  0
   -5.3757    2.9349  -12.0602 N   0  0  0  0  0  0  0  0  0  0  0  0
   -5.2599    3.8633  -11.7537 H   0  0  0  0  0  0  0  0  0  0  0  0
   -4.5654    1.9586  -11.3594 C   0  0  0  0  0  0  0  0  0  0  0  0
   -3.1322    1.8012  -11.8673 C   0  0  0  0  0  0  0  0  0  0  0  0
   -2.3641    2.8220  -11.3970 F   0  0  0  0  0  0  0  0  0  0  0  0
   -2.5976    0.6678  -11.3333 F   0  0  0  0  0  0  0  0  0  0  0  0
   -8.2706    4.3849  -12.8818 N   0  0  0  0  0  0  0  0  0  0  0  0
   -8.9009    3.6441  -13.1888 H   0  0  0  0  0  0  0  0  0  0  0  0
   -8.0958    4.2965  -11.4126 C   0  0  0  0  0  0  0  0  0  0  0  0
   -8.8785    3.1373  -10.7986 C   0  0  0  0  0  0  0  0  0  0  0  0
   -8.4998    2.9984   -9.3293 C   0  0  0  0  0  0  0  0  0  0  0  0
   -8.7274    4.2823   -8.5240 C   0  0  0  0  0  0  0  0  0  0  0  0
   -7.9053    4.2782   -7.2262 C   0  0  0  0  0  0  0  0  0  0  0  0
   -6.9595    5.4061   -7.3109 N   0  0  0  0  0  0  0  0  0  0  0  0
   -6.8747    5.7511   -8.7342 C   0  0  0  0  0  0  0  0  0  0  0  0
   -8.3075    5.5789   -9.2205 C   0  0  0  0  0  0  0  0  0  0  0  0
   -8.4555    5.6220  -10.7408 C   0  0  0  0  0  0  0  0  0  0  0  0
   -6.0437    5.1289   -6.9575 H   0  0  0  0  0  0  0  0  0  0  0  0
 19 20  1  0  0  0
 20  4  1  0  0  0
  4  5  2  0  0  0
  5  6  1  0  0  0
  6 14  1  0  0  0
 14 15  1  0  0  0
 15 16  1  0  0  0
 16 17  1  0  0  0
  6  7  1  0  0  0
  7  8  2  0  0  0
  8  9  1  0  0  0
  9 10  1  0  0  0
  9 11  2  0  0  0
 11 12  1  0  0  0
 12  1  1  0  0  0
  1  2  1  0  0  0
  1 29  1  0  0  0
 31 29  1  0  0  0
 31 32  1  0  0  0
 32 33  1  0  0  0
 34 33  1  0  0  0
 34 35  1  0  0  0
 35 36  1  0  0  0
 36 37  1  0  0  0
 38 37  1  0  0  0
 38 39  1  0  0  0
  1 21  1  0  0  0
 21 22  2  0  0  0
 21 23  1  0  0  0
 23 25  1  0  0  0
 25 26  1  0  0  0
 26 27  1  0  0  0
 26 28  1  0  0  0
 12 13  2  0  0  0
 13  4  1  0  0  0
 17 14  1  0  0  0
 13  7  1  0  0  0
 39 31  1  0  0  0
 38 34  1  0  0  0
 16 18  1  0  0  0
  2  3  1  0  0  0
 29 30  1  0  0  0
 36 40  1  0  0  0
 23 24  1  0  0  0
M  END
> <minimizedAffinity>
-7.84879

> <minimizedRMSD>
1.06793

$$$$
P28615


 37 41  0  0  0  0  0  0  0  0999 V2000
   -5.0219    6.0681  -14.5577 C   0  0  0  0  0  0  0  0  0  0  0  0
   -5.4833    4.8632  -15.3771 C   0  0  0  0  0  0  0  0  0  0  0  0
   -4.5642    4.8133  -16.6369 C   0  0  0  0  0  0  0  0  0  0  0  0
   -3.3469    4.6815  -16.6212 O   0  0  0  0  0  0  0  0  0  0  0  0
   -5.3817    4.9470  -17.7645 N   0  0  0  0  0  0  0  0  0  0  0  0
   -6.7321    4.8765  -17.3994 C   0  0  0  0  0  0  0  0  0  0  0  0
   -7.8303    4.7099  -18.2257 C   0  0  0  0  0  0  0  0  0  0  0  0
   -9.0828    4.5783  -17.6275 C   0  0  0  0  0  0  0  0  0  0  0  0
  -10.4655    4.2885  -18.6072 Cl  0  0  0  0  0  0  0  0  0  0  0  0
   -9.2400    4.7197  -16.2438 C   0  0  0  0  0  0  0  0  0  0  0  0
   -8.1187    4.9334  -15.4343 C   0  0  0  0  0  0  0  0  0  0  0  0
   -6.8542    4.9437  -16.0135 C   0  0  0  0  0  0  0  0  0  0  0  0
   -4.9353    5.1617  -19.1433 C   0  0  0  0  0  0  0  0  0  0  0  0
   -3.4515    4.8745  -19.4962 C   0  0  0  0  0  0  0  0  0  0  0  0
   -3.4646    6.0913  -20.3541 N   0  0  0  0  0  0  0  0  0  0  0  0
   -4.5263    6.6248  -19.4624 C   0  0  0  0  0  0  0  0  0  0  0  0
   -3.7587    5.9301  -21.3174 H   0  0  0  0  0  0  0  0  0  0  0  0
   -8.2966    5.3455  -14.0280 C   0  0  0  0  0  0  0  0  0  0  0  0
   -8.4575    6.4823  -13.8343 O   0  0  0  0  0  0  0  0  0  0  0  0
   -8.2496    4.1656  -13.0470 N   0  0  0  0  0  0  0  0  0  0  0  0
   -8.0215    3.2992  -13.4553 H   0  0  0  0  0  0  0  0  0  0  0  0
   -8.4864    4.1190  -11.6163 C   0  0  0  0  0  0  0  0  0  0  0  0
   -7.5606    3.0929  -10.9525 C   0  0  0  0  0  0  0  0  0  0  0  0
   -7.8289    2.9177   -9.4483 C   0  0  0  0  0  0  0  0  0  0  0  0
   -8.4409    4.1643   -8.8284 C   0  0  0  0  0  0  0  0  0  0  0  0
   -8.1313    4.4418   -7.3705 C   0  0  0  0  0  0  0  0  0  0  0  0
   -8.3704    5.8922   -7.2042 N   0  0  0  0  0  0  0  0  0  0  0  0
   -8.4358    6.5038   -8.5478 C   0  0  0  0  0  0  0  0  0  0  0  0
   -7.9433    5.4256   -9.4941 C   0  0  0  0  0  0  0  0  0  0  0  0
   -8.3954    5.5138  -10.9450 C   0  0  0  0  0  0  0  0  0  0  0  0
   -7.6074    6.3095   -6.6711 H   0  0  0  0  0  0  0  0  0  0  0  0
   -5.4973    3.6090  -14.7024 O   0  0  0  0  0  0  0  0  0  0  0  0
   -4.5941    3.4147  -13.6216 C   0  0  0  0  0  0  0  0  0  0  0  0
   -3.6990    2.2327  -13.9905 C   0  0  0  0  0  0  0  0  0  0  0  0
   -2.6965    1.8628  -12.9095 C   0  0  0  0  0  0  0  0  0  0  0  0
   -1.5569    1.2111  -13.4564 O   0  0  0  0  0  0  0  0  0  0  0  0
   -1.8329    0.3911  -13.8950 H   0  0  0  0  0  0  0  0  0  0  0  0
  2  1  1  0  0  0
  2 32  1  0  0  0
 32 33  1  0  0  0
 33 34  1  0  0  0
 34 35  1  0  0  0
 35 36  1  0  0  0
  2  3  1  0  0  0
  3  4  2  0  0  0
  3  5  1  0  0  0
  5 13  1  0  0  0
 13 14  1  0  0  0
 14 15  1  0  0  0
 15 16  1  0  0  0
  5  6  1  0  0  0
  6  7  2  0  0  0
  7  8  1  0  0  0
  8  9  1  0  0  0
  8 10  2  0  0  0
 10 11  1  0  0  0
 11 18  1  0  0  0
 18 19  2  0  0  0
 18 20  1  0  0  0
 22 20  1  0  0  0
 22 23  1  0  0  0
 23 24  1  0  0  0
 25 24  1  0  0  0
 25 26  1  0  0  0
 26 27  1  0  0  0
 27 28  1  0  0  0
 29 28  1  0  0  0
 29 30  1  0  0  0
 11 12  2  0  0  0
 12  2  1  0  0  0
 16 13  1  0  0  0
 12  6  1  0  0  0
 30 22  1  0  0  0
 29 25  1  0  0  0
 36 37  1  0  0  0
 15 17  1  0  0  0
 20 21  1  0  0  0
 27 31  1  0  0  0
M  END
> <minimizedAffinity>
-7.60875

> <minimizedRMSD>
0.98735

$$$$
P28619


 33 37  0  0  0  0  0  0  0  0999 V2000
   -7.8894    6.6900  -13.7819 O   0  0  0  0  0  0  0  0  0  0  0  0
   -7.8977    5.5552  -14.0450 C   0  0  0  0  0  0  0  0  0  0  0  0
   -7.9513    4.3220  -13.1321 N   0  0  0  0  0  0  0  0  0  0  0  0
   -8.0255    3.4620  -13.6056 H   0  0  0  0  0  0  0  0  0  0  0  0
   -7.8655    5.1330  -15.4649 C   0  0  0  0  0  0  0  0  0  0  0  0
   -9.0563    4.8315  -16.1398 C   0  0  0  0  0  0  0  0  0  0  0  0
   -9.0386    4.5920  -17.5065 C   0  0  0  0  0  0  0  0  0  0  0  0
  -10.5297    4.3986  -18.3304 Cl  0  0  0  0  0  0  0  0  0  0  0  0
   -7.8500    4.6007  -18.2357 C   0  0  0  0  0  0  0  0  0  0  0  0
   -6.6647    4.8822  -17.5451 C   0  0  0  0  0  0  0  0  0  0  0  0
   -6.6345    5.1517  -16.1534 C   0  0  0  0  0  0  0  0  0  0  0  0
   -5.2759    5.4423  -15.7243 C   0  0  0  0  0  0  0  0  0  0  0  0
   -4.5029    5.3948  -16.8170 N   0  0  0  0  0  0  0  0  0  0  0  0
   -3.2884    5.6852  -16.9446 O   0  0  0  0  0  0  0  0  0  0  0  0
   -5.3517    5.0289  -17.9537 N   0  0  0  0  0  0  0  0  0  0  0  0
   -4.9392    4.9604  -19.3706 C   0  0  0  0  0  0  0  0  0  0  0  0
   -3.4282    4.9310  -19.6189 C   0  0  0  0  0  0  0  0  0  0  0  0
   -3.4434    6.3842  -19.8694 N   0  0  0  0  0  0  0  0  0  0  0  0
   -4.9119    6.3425  -20.0383 C   0  0  0  0  0  0  0  0  0  0  0  0
   -2.9361    6.6672  -20.7077 H   0  0  0  0  0  0  0  0  0  0  0  0
   -7.9125    4.2221  -11.7549 C   0  0  0  0  0  0  0  0  0  0  0  0
   -7.2059    3.1493  -11.2437 C   0  0  0  0  0  0  0  0  0  0  0  0
   -7.1279    2.9796   -9.8737 C   0  0  0  0  0  0  0  0  0  0  0  0
   -7.6482    3.9358   -8.9902 C   0  0  0  0  0  0  0  0  0  0  0  0
   -8.3912    4.9945   -9.5079 C   0  0  0  0  0  0  0  0  0  0  0  0
   -8.5374    5.1291  -10.8965 C   0  0  0  0  0  0  0  0  0  0  0  0
   -7.4418    3.8940   -7.6158 O   0  0  0  0  0  0  0  0  0  0  0  0
   -8.4678    3.3378   -6.8752 C   0  0  0  0  0  0  0  0  0  0  0  0
   -8.8287    2.0089   -7.0523 C   0  0  0  0  0  0  0  0  0  0  0  0
  -10.0687    1.6253   -6.6023 C   0  0  0  0  0  0  0  0  0  0  0  0
  -10.8860    2.4139   -5.8781 N   0  0  0  0  0  0  0  0  0  0  0  0
  -10.4263    3.6472   -5.5814 C   0  0  0  0  0  0  0  0  0  0  0  0
   -9.2304    4.1599   -6.0579 C   0  0  0  0  0  0  0  0  0  0  0  0
  1  2  2  0  0  0
  2  3  1  0  0  0
  3 21  1  0  0  0
 21 22  2  0  0  0
 22 23  1  0  0  0
 23 24  2  0  0  0
 24 27  1  0  0  0
 27 28  1  0  0  0
 28 29  2  0  0  0
 29 30  1  0  0  0
 30 31  2  0  0  0
 31 32  1  0  0  0
 32 33  2  0  0  0
 24 25  1  0  0  0
 25 26  2  0  0  0
  2  5  1  0  0  0
  5  6  2  0  0  0
  6  7  1  0  0  0
  7  8  1  0  0  0
  7  9  2  0  0  0
  9 10  1  0  0  0
 10 11  2  0  0  0
 11 12  1  0  0  0
 12 13  2  0  0  0
 13 14  1  0  0  0
 13 15  1  0  0  0
 15 16  1  0  0  0
 16 17  1  0  0  0
 17 18  1  0  0  0
 18 19  1  0  0  0
 26 21  1  0  0  0
 11  5  1  0  0  0
 19 16  1  0  0  0
 33 28  1  0  0  0
 15 10  1  0  0  0
  3  4  1  0  0  0
 18 20  1  0  0  0
M  CHG 1  13   1
M  CHG 1  14  -1
M  END
> <minimizedAffinity>
-8.00436

> <minimizedRMSD>
1.15137

$$$$
P28624


 28 31  0  0  0  0  0  0  0  0999 V2000
   -8.2049    4.7955  -15.3839 C   0  0  0  0  0  0  0  0  0  0  0  0
   -9.1964    4.5801  -16.3361 C   0  0  0  0  0  0  0  0  0  0  0  0
   -8.8408    4.5155  -17.6793 C   0  0  0  0  0  0  0  0  0  0  0  0
  -10.0914    4.4054  -18.8504 Cl  0  0  0  0  0  0  0  0  0  0  0  0
   -7.5104    4.6468  -18.1080 C   0  0  0  0  0  0  0  0  0  0  0  0
   -6.5233    4.8137  -17.1225 C   0  0  0  0  0  0  0  0  0  0  0  0
   -6.8544    4.8559  -15.7690 C   0  0  0  0  0  0  0  0  0  0  0  0
   -5.6325    5.0396  -15.0937 C   0  0  0  0  0  0  0  0  0  0  0  0
   -4.5995    5.1218  -15.9249 N   0  0  0  0  0  0  0  0  0  0  0  0
   -5.1637    5.0555  -17.1499 N   0  0  0  0  0  0  0  0  0  0  0  0
   -4.4047    5.5791  -18.2896 C   0  0  0  0  0  0  0  0  0  0  0  0
   -3.1379    4.7485  -18.5790 C   0  0  0  0  0  0  0  0  0  0  0  0
   -3.4270    4.8841  -20.0206 N   0  0  0  0  0  0  0  0  0  0  0  0
   -4.8547    5.1161  -19.6608 C   0  0  0  0  0  0  0  0  0  0  0  0
   -3.2601    4.0392  -20.5672 H   0  0  0  0  0  0  0  0  0  0  0  0
   -8.1951    4.2760  -12.9210 N   0  0  0  0  0  0  0  0  0  0  0  0
   -8.5404    5.2796  -14.0377 C   0  0  0  0  0  0  0  0  0  0  0  0
   -8.9598    6.3672  -13.9747 O   0  0  0  0  0  0  0  0  0  0  0  0
   -7.7797    3.4396  -13.2326 H   0  0  0  0  0  0  0  0  0  0  0  0
   -8.8481    3.3552   -9.4104 C   0  0  0  0  0  0  0  0  0  0  0  0
   -8.7518    3.2395  -10.8018 C   0  0  0  0  0  0  0  0  0  0  0  0
   -8.3747    4.3592  -11.5443 C   0  0  0  0  0  0  0  0  0  0  0  0
   -8.1227    5.5825  -10.9017 C   0  0  0  0  0  0  0  0  0  0  0  0
   -8.2227    5.6926   -9.5205 C   0  0  0  0  0  0  0  0  0  0  0  0
   -8.5729    4.5710   -8.7893 C   0  0  0  0  0  0  0  0  0  0  0  0
   -8.6627    4.6626   -7.4574 F   0  0  0  0  0  0  0  0  0  0  0  0
   -9.5252    1.4649   -7.7869 N   0  0  0  0  0  0  0  0  0  0  0  0
   -9.2419    2.2763   -8.5650 C   0  0  0  0  0  0  0  0  0  0  0  0
 27 28  3  0  0  0
 28 20  1  0  0  0
 20 21  2  0  0  0
 21 22  1  0  0  0
 22 16  1  0  0  0
 16 17  1  0  0  0
 17 18  2  0  0  0
 17  1  1  0  0  0
  1  2  2  0  0  0
  2  3  1  0  0  0
  3  4  1  0  0  0
  3  5  2  0  0  0
  5  6  1  0  0  0
  6  7  2  0  0  0
  7  8  1  0  0  0
  8  9  2  0  0  0
  9 10  1  0  0  0
 10 11  1  0  0  0
 11 12  1  0  0  0
 12 13  1  0  0  0
 13 14  1  0  0  0
 22 23  2  0  0  0
 23 24  1  0  0  0
 24 25  2  0  0  0
 25 26  1  0  0  0
 25 20  1  0  0  0
  7  1  1  0  0  0
 14 11  1  0  0  0
 10  6  1  0  0  0
 16 19  1  0  0  0
 13 15  1  0  0  0
M  END
> <minimizedAffinity>
-8.05618

> <minimizedRMSD>
0.91479

$$$$
P28628


 36 42  0  0  0  0  0  0  0  0999 V2000
   -8.1766    4.9619  -15.4749 C   0  0  0  0  0  0  0  0  0  0  0  0
   -9.2782    4.7787  -16.2988 C   0  0  0  0  0  0  0  0  0  0  0  0
   -9.0820    4.6127  -17.6690 C   0  0  0  0  0  0  0  0  0  0  0  0
  -10.4622    4.5112  -18.6847 Cl  0  0  0  0  0  0  0  0  0  0  0  0
   -7.7981    4.6110  -18.2290 C   0  0  0  0  0  0  0  0  0  0  0  0
   -6.6980    4.7761  -17.3985 C   0  0  0  0  0  0  0  0  0  0  0  0
   -6.9068    4.9310  -16.0262 C   0  0  0  0  0  0  0  0  0  0  0  0
   -5.6022    5.0732  -15.3285 C   0  0  0  0  0  0  0  0  0  0  0  0
   -4.7150    5.4824  -16.5286 C   0  0  0  0  0  0  0  0  0  0  0  0
   -3.2502    5.1502  -16.2310 C   0  0  0  0  0  0  0  0  0  0  0  0
   -2.8162    6.1779  -15.2648 N   0  0  0  0  0  0  0  0  0  0  0  0
   -3.5934    7.3963  -15.5852 C   0  0  0  0  0  0  0  0  0  0  0  0
   -4.6310    7.0205  -16.6594 C   0  0  0  0  0  0  0  0  0  0  0  0
   -4.0928    7.4464  -17.9233 O   0  0  0  0  0  0  0  0  0  0  0  0
   -4.8394    6.9595  -19.0373 C   0  0  0  0  0  0  0  0  0  0  0  0
   -4.0210    7.2232  -20.2191 N   0  0  0  0  0  0  0  0  0  0  0  0
   -3.0014    6.1739  -20.1989 C   0  0  0  0  0  0  0  0  0  0  0  0
   -3.6803    4.9350  -19.6308 C   0  0  0  0  0  0  0  0  0  0  0  0
   -5.0093    5.4280  -19.0599 C   0  0  0  0  0  0  0  0  0  0  0  0
   -5.3139    4.8352  -17.7431 N   0  0  0  0  0  0  0  0  0  0  0  0
   -1.8173    6.3586  -15.3649 H   0  0  0  0  0  0  0  0  0  0  0  0
   -3.5901    8.1459  -20.1609 H   0  0  0  0  0  0  0  0  0  0  0  0
   -8.5514    6.6064  -13.9745 O   0  0  0  0  0  0  0  0  0  0  0  0
   -8.3646    5.4636  -14.1036 C   0  0  0  0  0  0  0  0  0  0  0  0
   -8.3764    4.3301  -13.0690 N   0  0  0  0  0  0  0  0  0  0  0  0
   -8.2624    3.4275  -13.4455 H   0  0  0  0  0  0  0  0  0  0  0  0
   -8.5279    4.3715  -11.6292 C   0  0  0  0  0  0  0  0  0  0  0  0
   -8.6501    2.9793  -11.0041 C   0  0  0  0  0  0  0  0  0  0  0  0
   -8.9650    3.0711   -9.4981 C   0  0  0  0  0  0  0  0  0  0  0  0
   -8.1703    4.1393   -8.8261 C   0  0  0  0  0  0  0  0  0  0  0  0
   -7.4761    5.0793   -9.4663 C   0  0  0  0  0  0  0  0  0  0  0  0
   -6.7477    5.9458   -8.5139 C   0  0  0  0  0  0  0  0  0  0  0  0
   -7.2257    5.5298   -7.1733 N   0  0  0  0  0  0  0  0  0  0  0  0
   -7.9989    4.2765   -7.3606 C   0  0  0  0  0  0  0  0  0  0  0  0
   -7.4152    5.2021  -10.9448 C   0  0  0  0  0  0  0  0  0  0  0  0
   -7.8227    6.2537   -6.7735 H   0  0  0  0  0  0  0  0  0  0  0  0
 23 24  2  0  0  0
 24 25  1  0  0  0
 27 25  1  0  0  0
 27 28  1  0  0  0
 28 29  1  0  0  0
 29 30  1  0  0  0
 30 31  2  0  0  0
 31 32  1  0  0  0
 32 33  1  0  0  0
 33 34  1  0  0  0
 31 35  1  0  0  0
 24  1  1  0  0  0
  1  2  2  0  0  0
  2  3  1  0  0  0
  3  4  1  0  0  0
  3  5  2  0  0  0
  5  6  1  0  0  0
  6  7  2  0  0  0
  7  8  1  0  0  0
  9  8  1  0  0  0
  9 10  1  0  0  0
 10 11  1  0  0  0
 11 12  1  0  0  0
 13 12  1  0  0  0
 13 14  1  0  0  0
 14 15  1  0  0  0
 15 16  1  0  0  0
 16 17  1  0  0  0
 17 18  1  0  0  0
 19 18  1  0  0  0
 19 20  1  0  0  0
 35 27  1  0  0  0
  7  1  1  0  0  0
 13  9  1  0  0  0
 19 15  1  0  0  0
 34 30  1  0  0  0
 20  6  1  0  0  0
 20  9  1  0  0  0
 25 26  1  0  0  0
 33 36  1  0  0  0
 11 21  1  0  0  0
 16 22  1  0  0  0
M  END
> <minimizedAffinity>
-8.50896

> <minimizedRMSD>
1.14568

$$$$
P28636


 33 37  0  0  0  0  0  0  0  0999 V2000
   -7.2221    6.6148  -14.3899 O   0  0  0  0  0  0  0  0  0  0  0  0
   -7.5308    5.4877  -14.4135 C   0  0  0  0  0  0  0  0  0  0  0  0
   -8.0975    4.5739  -13.2883 N   0  0  0  0  0  0  0  0  0  0  0  0
   -8.3535    3.6696  -13.5815 H   0  0  0  0  0  0  0  0  0  0  0  0
   -7.3595    4.5154  -15.5960 C   0  0  0  0  0  0  0  0  0  0  0  0
   -8.6786    4.3991  -16.3887 C   0  0  0  0  0  0  0  0  0  0  0  0
   -8.6045    4.8826  -17.8296 C   0  0  0  0  0  0  0  0  0  0  0  0
  -10.0600    4.4047  -18.7276 Cl  0  0  0  0  0  0  0  0  0  0  0  0
   -7.3295    4.6248  -18.6056 C   0  0  0  0  0  0  0  0  0  0  0  0
   -6.1371    4.8266  -17.7420 C   0  0  0  0  0  0  0  0  0  0  0  0
   -6.1597    4.8035  -16.4122 C   0  0  0  0  0  0  0  0  0  0  0  0
   -4.7691    4.9599  -15.9056 C   0  0  0  0  0  0  0  0  0  0  0  0
   -3.9456    5.1746  -17.1313 N   0  0  0  0  0  0  0  0  0  0  0  0
   -4.8602    5.0154  -18.2116 N   0  0  0  0  0  0  0  0  0  0  0  0
   -3.1976    4.4835  -17.1881 H   0  0  0  0  0  0  0  0  0  0  0  0
   -4.5061    5.1484  -19.5912 C   0  0  0  0  0  0  0  0  0  0  0  0
   -3.0255    4.9605  -19.9668 C   0  0  0  0  0  0  0  0  0  0  0  0
   -3.1753    6.0988  -20.9266 N   0  0  0  0  0  0  0  0  0  0  0  0
   -4.2683    6.6040  -20.0420 C   0  0  0  0  0  0  0  0  0  0  0  0
   -3.4750    5.8299  -21.8637 H   0  0  0  0  0  0  0  0  0  0  0  0
   -8.2993    4.8249  -11.9490 C   0  0  0  0  0  0  0  0  0  0  0  0
   -7.9165    5.9942  -11.2785 C   0  0  0  0  0  0  0  0  0  0  0  0
   -7.9508    6.0423   -9.8717 C   0  0  0  0  0  0  0  0  0  0  0  0
   -8.3727    4.9160   -9.1858 C   0  0  0  0  0  0  0  0  0  0  0  0
   -8.8172    3.8077   -9.8919 C   0  0  0  0  0  0  0  0  0  0  0  0
   -8.8002    3.7365  -11.2575 C   0  0  0  0  0  0  0  0  0  0  0  0
   -9.2095    2.7180   -8.9814 C   0  0  0  0  0  0  0  0  0  0  0  0
   -9.2205    3.3447   -7.6427 N   0  0  0  0  0  0  0  0  0  0  0  0
   -8.3849    4.5635   -7.7253 C   0  0  0  0  0  0  0  0  0  0  0  0
   -8.8223    2.3451   -6.6438 C   0  0  0  0  0  0  0  0  0  0  0  0
  -10.0184    1.6767   -5.9401 C   0  0  0  0  0  0  0  0  0  0  0  0
  -10.4259    0.5439   -6.5625 F   0  0  0  0  0  0  0  0  0  0  0  0
  -11.0827    2.5204   -5.9117 F   0  0  0  0  0  0  0  0  0  0  0  0
  1  2  2  0  0  0
  2  3  1  0  0  0
  3 21  1  0  0  0
 21 22  2  0  0  0
 22 23  1  0  0  0
 23 24  2  0  0  0
 24 25  1  0  0  0
 25 26  2  0  0  0
 25 27  1  0  0  0
 27 28  1  0  0  0
 28 30  1  0  0  0
 30 31  1  0  0  0
 31 32  1  0  0  0
 31 33  1  0  0  0
 28 29  1  0  0  0
  5  2  1  0  0  0
  5  6  1  0  0  0
  6  7  1  0  0  0
  7  8  1  0  0  0
  7  9  1  0  0  0
  9 10  1  0  0  0
 10 11  2  0  0  0
 11 12  1  0  0  0
 12 13  1  0  0  0
 13 14  1  0  0  0
 14 16  1  0  0  0
 16 17  1  0  0  0
 17 18  1  0  0  0
 18 19  1  0  0  0
 26 21  1  0  0  0
 11  5  1  0  0  0
 19 16  1  0  0  0
 29 24  1  0  0  0
 14 10  1  0  0  0
  3  4  1  0  0  0
 13 15  1  0  0  0
 18 20  1  0  0  0
M  END
> <minimizedAffinity>
-8.25130

> <minimizedRMSD>
0.61116

$$$$
P28646


 35 39  0  0  0  0  0  0  0  0999 V2000
   -5.1005    6.9160  -14.3939 N   0  0  0  0  0  0  0  0  0  0  0  0
   -5.4217    6.3824  -15.5831 C   0  0  0  0  0  0  0  0  0  0  0  0
   -4.6081    6.4266  -16.6253 N   0  0  0  0  0  0  0  0  0  0  0  0
   -5.3172    5.8664  -17.6229 N   0  0  0  0  0  0  0  0  0  0  0  0
   -6.5458    5.3786  -17.2318 C   0  0  0  0  0  0  0  0  0  0  0  0
   -7.5971    4.7272  -17.9008 C   0  0  0  0  0  0  0  0  0  0  0  0
   -8.7553    4.4369  -17.1683 C   0  0  0  0  0  0  0  0  0  0  0  0
  -10.1050    3.7419  -17.9667 Cl  0  0  0  0  0  0  0  0  0  0  0  0
   -8.8859    4.7916  -15.8331 C   0  0  0  0  0  0  0  0  0  0  0  0
   -7.8531    5.4908  -15.2109 C   0  0  0  0  0  0  0  0  0  0  0  0
   -6.6507    5.7500  -15.8909 C   0  0  0  0  0  0  0  0  0  0  0  0
   -4.2205    7.3382  -14.2654 H   0  0  0  0  0  0  0  0  0  0  0  0
   -5.7449    6.8850  -13.6502 H   0  0  0  0  0  0  0  0  0  0  0  0
   -4.8950    6.1176  -19.0032 C   0  0  0  0  0  0  0  0  0  0  0  0
   -3.4393    6.6156  -19.0987 C   0  0  0  0  0  0  0  0  0  0  0  0
   -3.2625    5.7431  -20.2790 N   0  0  0  0  0  0  0  0  0  0  0  0
   -4.3838    4.9096  -19.7623 C   0  0  0  0  0  0  0  0  0  0  0  0
   -2.3629    5.2643  -20.3214 H   0  0  0  0  0  0  0  0  0  0  0  0
   -8.0857    6.1448  -13.9155 C   0  0  0  0  0  0  0  0  0  0  0  0
   -8.1417    7.3080  -13.8893 O   0  0  0  0  0  0  0  0  0  0  0  0
   -8.1860    5.1192  -12.7818 N   0  0  0  0  0  0  0  0  0  0  0  0
   -8.1844    4.1794  -13.0751 H   0  0  0  0  0  0  0  0  0  0  0  0
   -8.2784    5.2983  -11.4120 C   0  0  0  0  0  0  0  0  0  0  0  0
   -8.4459    6.5813  -10.8585 C   0  0  0  0  0  0  0  0  0  0  0  0
   -8.5458    6.7532   -9.4740 C   0  0  0  0  0  0  0  0  0  0  0  0
   -8.4101    5.6352   -8.6723 C   0  0  0  0  0  0  0  0  0  0  0  0
   -8.1471    4.3906   -9.2331 C   0  0  0  0  0  0  0  0  0  0  0  0
   -8.1418    4.1844  -10.5971 C   0  0  0  0  0  0  0  0  0  0  0  0
   -7.7731    3.4248   -8.1662 C   0  0  0  0  0  0  0  0  0  0  0  0
   -8.0606    4.1113   -6.8886 N   0  0  0  0  0  0  0  0  0  0  0  0
   -8.4972    5.4856   -7.1875 C   0  0  0  0  0  0  0  0  0  0  0  0
   -8.9526    3.3102   -6.0382 C   0  0  0  0  0  0  0  0  0  0  0  0
  -10.2293    2.7144   -6.6407 C   0  0  0  0  0  0  0  0  0  0  0  0
  -10.2381    1.3636   -6.5781 F   0  0  0  0  0  0  0  0  0  0  0  0
  -11.3073    3.1374   -5.9283 F   0  0  0  0  0  0  0  0  0  0  0  0
  1  2  1  0  0  0
  2  3  2  0  0  0
  3  4  1  0  0  0
  4 14  1  0  0  0
 14 15  1  0  0  0
 15 16  1  0  0  0
 16 17  1  0  0  0
  4  5  1  0  0  0
  5  6  2  0  0  0
  6  7  1  0  0  0
  7  8  1  0  0  0
  7  9  2  0  0  0
  9 10  1  0  0  0
 10 19  1  0  0  0
 19 20  2  0  0  0
 19 21  1  0  0  0
 21 23  1  0  0  0
 23 24  2  0  0  0
 24 25  1  0  0  0
 25 26  2  0  0  0
 26 27  1  0  0  0
 27 28  2  0  0  0
 27 29  1  0  0  0
 29 30  1  0  0  0
 30 32  1  0  0  0
 32 33  1  0  0  0
 33 34  1  0  0  0
 33 35  1  0  0  0
 30 31  1  0  0  0
 10 11  2  0  0  0
 11  2  1  0  0  0
 17 14  1  0  0  0
 11  5  1  0  0  0
 28 23  1  0  0  0
 31 26  1  0  0  0
  1 12  1  0  0  0
  1 13  1  0  0  0
 16 18  1  0  0  0
 21 22  1  0  0  0
M  END
> <minimizedAffinity>
-7.28160

> <minimizedRMSD>
0.74659

$$$$
P28654


 43 48  0  0  0  0  0  0  0  0999 V2000
   -6.9756    5.0113  -14.0035 C   0  0  0  0  0  0  0  0  0  0  0  0
   -5.6653    4.5144  -13.8104 O   0  0  0  0  0  0  0  0  0  0  0  0
   -5.4174    4.6100  -12.8775 H   0  0  0  0  0  0  0  0  0  0  0  0
   -7.2531    4.8077  -15.5049 C   0  0  0  0  0  0  0  0  0  0  0  0
   -8.5313    4.4627  -16.0037 C   0  0  0  0  0  0  0  0  0  0  0  0
   -8.7808    4.3480  -17.3750 C   0  0  0  0  0  0  0  0  0  0  0  0
  -10.3802    4.0602  -17.9366 Cl  0  0  0  0  0  0  0  0  0  0  0  0
   -7.7823    4.5523  -18.3237 C   0  0  0  0  0  0  0  0  0  0  0  0
   -6.5190    4.9118  -17.8488 C   0  0  0  0  0  0  0  0  0  0  0  0
   -6.2462    5.0442  -16.4877 C   0  0  0  0  0  0  0  0  0  0  0  0
   -4.8837    5.4335  -16.4526 C   0  0  0  0  0  0  0  0  0  0  0  0
   -4.3338    5.5339  -17.6616 N   0  0  0  0  0  0  0  0  0  0  0  0
   -5.3378    5.2122  -18.4961 N   0  0  0  0  0  0  0  0  0  0  0  0
   -5.1902    5.2362  -19.9626 C   0  0  0  0  0  0  0  0  0  0  0  0
   -4.9037    6.6476  -20.5054 C   0  0  0  0  0  0  0  0  0  0  0  0
   -3.9509    6.0339  -21.4701 N   0  0  0  0  0  0  0  0  0  0  0  0
   -3.7751    4.9202  -20.4918 C   0  0  0  0  0  0  0  0  0  0  0  0
   -3.1094    6.5834  -21.6444 H   0  0  0  0  0  0  0  0  0  0  0  0
   -6.2529    7.3681  -13.8601 O   0  0  0  0  0  0  0  0  0  0  0  0
   -7.1438    6.6175  -13.7230 C   0  0  0  0  0  0  0  0  0  0  0  0
   -8.6255    6.8721  -13.2886 N   0  0  0  0  0  0  0  0  0  0  0  0
   -9.2074    6.0787  -13.3224 H   0  0  0  0  0  0  0  0  0  0  0  0
   -9.2846    8.0954  -12.8413 C   0  0  0  0  0  0  0  0  0  0  0  0
   -9.2096    8.2557  -11.3227 C   0  0  0  0  0  0  0  0  0  0  0  0
  -10.1683    9.3155  -10.7905 C   0  0  0  0  0  0  0  0  0  0  0  0
  -10.7380   10.0750  -11.8512 O   0  0  0  0  0  0  0  0  0  0  0  0
  -11.5494    9.2535  -12.6846 C   0  0  0  0  0  0  0  0  0  0  0  0
  -10.7051    8.2081  -13.3946 C   0  0  0  0  0  0  0  0  0  0  0  0
   -7.8779    4.1998  -13.1500 N   0  0  0  0  0  0  0  0  0  0  0  0
   -8.5870    3.6530  -13.5592 H   0  0  0  0  0  0  0  0  0  0  0  0
   -7.7133    4.2162  -11.7407 C   0  0  0  0  0  0  0  0  0  0  0  0
   -6.8215    5.1056  -11.0964 C   0  0  0  0  0  0  0  0  0  0  0  0
   -6.7343    5.2143   -9.7169 C   0  0  0  0  0  0  0  0  0  0  0  0
   -7.5635    4.4222   -8.9698 C   0  0  0  0  0  0  0  0  0  0  0  0
   -8.4604    3.5311   -9.5501 C   0  0  0  0  0  0  0  0  0  0  0  0
   -8.5506    3.4217  -10.9329 C   0  0  0  0  0  0  0  0  0  0  0  0
   -9.1966    2.8330   -8.4371 C   0  0  0  0  0  0  0  0  0  0  0  0
   -8.9678    3.7205   -7.2607 N   0  0  0  0  0  0  0  0  0  0  0  0
   -7.6621    4.3543   -7.4927 C   0  0  0  0  0  0  0  0  0  0  0  0
   -9.0483    3.0340   -5.9570 C   0  0  0  0  0  0  0  0  0  0  0  0
   -8.3975    3.8383   -4.8041 C   0  0  0  0  0  0  0  0  0  0  0  0
   -9.1530    3.8317   -3.6813 F   0  0  0  0  0  0  0  0  0  0  0  0
   -7.1788    3.3209   -4.4821 F   0  0  0  0  0  0  0  0  0  0  0  0
 19 20  2  0  0  0
 20 21  1  0  0  0
 21 23  1  0  0  0
 23 24  1  0  0  0
 24 25  1  0  0  0
 25 26  1  0  0  0
 26 27  1  0  0  0
 27 28  1  0  0  0
 20  1  1  0  0  0
  1  2  1  0  0  0
  1 29  1  0  0  0
 29 31  1  0  0  0
 31 32  2  0  0  0
 32 33  1  0  0  0
 33 34  2  0  0  0
 34 35  1  0  0  0
 35 36  2  0  0  0
 35 37  1  0  0  0
 37 38  1  0  0  0
 38 40  1  0  0  0
 40 41  1  0  0  0
 41 42  1  0  0  0
 41 43  1  0  0  0
 38 39  1  0  0  0
  1  4  1  0  0  0
  4  5  2  0  0  0
  5  6  1  0  0  0
  6  7  1  0  0  0
  6  8  2  0  0  0
  8  9  1  0  0  0
  9 10  2  0  0  0
 10 11  1  0  0  0
 11 12  2  0  0  0
 12 13  1  0  0  0
 13 14  1  0  0  0
 14 15  1  0  0  0
 15 16  1  0  0  0
 16 17  1  0  0  0
 28 23  1  0  0  0
 36 31  1  0  0  0
 10  4  1  0  0  0
 17 14  1  0  0  0
 39 34  1  0  0  0
 13  9  1  0  0  0
 21 22  1  0  0  0
  2  3  1  0  0  0
 29 30  1  0  0  0
 16 18  1  0  0  0
M  END
> <minimizedAffinity>
-8.61253

> <minimizedRMSD>
0.44743

$$$$
P28655


 33 37  0  0  0  0  0  0  0  0999 V2000
   -7.5327    6.5787  -14.0521 O   0  0  0  0  0  0  0  0  0  0  0  0
   -7.6606    5.4311  -14.2210 C   0  0  0  0  0  0  0  0  0  0  0  0
   -7.9968    4.3060  -13.2234 N   0  0  0  0  0  0  0  0  0  0  0  0
   -8.1256    3.4190  -13.6306 H   0  0  0  0  0  0  0  0  0  0  0  0
   -7.4998    4.9501  -15.6081 C   0  0  0  0  0  0  0  0  0  0  0  0
   -8.6194    4.5619  -16.3412 C   0  0  0  0  0  0  0  0  0  0  0  0
   -8.4979    4.4178  -17.7163 C   0  0  0  0  0  0  0  0  0  0  0  0
   -9.8811    4.0881  -18.6435 Cl  0  0  0  0  0  0  0  0  0  0  0  0
   -7.2977    4.6214  -18.4032 C   0  0  0  0  0  0  0  0  0  0  0  0
   -6.1842    5.0034  -17.6602 C   0  0  0  0  0  0  0  0  0  0  0  0
   -6.2533    5.1645  -16.2484 C   0  0  0  0  0  0  0  0  0  0  0  0
   -4.9774    5.6345  -15.7371 C   0  0  0  0  0  0  0  0  0  0  0  0
   -4.1748    5.8019  -16.7925 N   0  0  0  0  0  0  0  0  0  0  0  0
   -3.0305    6.3060  -16.8643 O   0  0  0  0  0  0  0  0  0  0  0  0
   -4.8955    5.3803  -17.9925 N   0  0  0  0  0  0  0  0  0  0  0  0
   -4.3432    5.6366  -19.3370 C   0  0  0  0  0  0  0  0  0  0  0  0
   -5.0274    4.9635  -20.5310 C   0  0  0  0  0  0  0  0  0  0  0  0
   -3.6907    4.6124  -21.0537 N   0  0  0  0  0  0  0  0  0  0  0  0
   -3.1741    4.6743  -19.6720 C   0  0  0  0  0  0  0  0  0  0  0  0
   -3.2896    5.3057  -21.6852 H   0  0  0  0  0  0  0  0  0  0  0  0
   -8.1481    4.3395  -11.8402 C   0  0  0  0  0  0  0  0  0  0  0  0
   -8.0815    5.5827  -11.1820 C   0  0  0  0  0  0  0  0  0  0  0  0
   -8.2011    5.6722   -9.7985 C   0  0  0  0  0  0  0  0  0  0  0  0
   -8.3531    4.4997   -9.0920 C   0  0  0  0  0  0  0  0  0  0  0  0
   -8.4057    3.2596   -9.7326 C   0  0  0  0  0  0  0  0  0  0  0  0
   -8.3340    3.1608  -11.1148 C   0  0  0  0  0  0  0  0  0  0  0  0
   -8.5340    2.1871   -8.6915 C   0  0  0  0  0  0  0  0  0  0  0  0
   -8.2313    2.8891   -7.4183 N   0  0  0  0  0  0  0  0  0  0  0  0
   -8.4826    4.3175   -7.6187 C   0  0  0  0  0  0  0  0  0  0  0  0
   -8.8671    2.3328   -6.2239 C   0  0  0  0  0  0  0  0  0  0  0  0
  -10.3678    2.0425   -6.2703 C   0  0  0  0  0  0  0  0  0  0  0  0
  -11.0366    3.1061   -6.7801 F   0  0  0  0  0  0  0  0  0  0  0  0
  -10.8495    1.8889   -5.0094 F   0  0  0  0  0  0  0  0  0  0  0  0
  1  2  2  0  0  0
  2  3  1  0  0  0
  3 21  1  0  0  0
 21 22  2  0  0  0
 22 23  1  0  0  0
 23 24  2  0  0  0
 24 25  1  0  0  0
 25 26  2  0  0  0
 25 27  1  0  0  0
 27 28  1  0  0  0
 28 30  1  0  0  0
 30 31  1  0  0  0
 31 32  1  0  0  0
 31 33  1  0  0  0
 28 29  1  0  0  0
  2  5  1  0  0  0
  5  6  2  0  0  0
  6  7  1  0  0  0
  7  8  1  0  0  0
  7  9  2  0  0  0
  9 10  1  0  0  0
 10 11  2  0  0  0
 11 12  1  0  0  0
 12 13  2  0  0  0
 13 14  1  0  0  0
 13 15  1  0  0  0
 15 16  1  0  0  0
 16 17  1  0  0  0
 17 18  1  0  0  0
 18 19  1  0  0  0
 26 21  1  0  0  0
 11  5  1  0  0  0
 19 16  1  0  0  0
 29 24  1  0  0  0
 15 10  1  0  0  0
  3  4  1  0  0  0
 18 20  1  0  0  0
M  CHG 1  13   1
M  CHG 1  14  -1
M  END
> <minimizedAffinity>
-8.55893

> <minimizedRMSD>
0.55886

$$$$
P28656


 39 43  0  0  0  0  0  0  0  0999 V2000
   -4.7351    5.9687  -15.5194 N   0  0  0  0  0  0  0  0  0  0  0  0
   -5.8110    5.4925  -14.7955 C   0  0  0  0  0  0  0  0  0  0  0  0
   -6.7760    5.0887  -15.6663 C   0  0  0  0  0  0  0  0  0  0  0  0
   -8.0735    4.7137  -15.3163 C   0  0  0  0  0  0  0  0  0  0  0  0
   -8.8394    4.3318  -16.4259 C   0  0  0  0  0  0  0  0  0  0  0  0
   -8.3094    4.3619  -17.7517 C   0  0  0  0  0  0  0  0  0  0  0  0
   -9.4159    3.9994  -19.0235 Cl  0  0  0  0  0  0  0  0  0  0  0  0
   -6.9860    4.7591  -18.0999 C   0  0  0  0  0  0  0  0  0  0  0  0
   -6.2332    5.1408  -16.9811 C   0  0  0  0  0  0  0  0  0  0  0  0
   -4.9558    5.6908  -16.8816 C   0  0  0  0  0  0  0  0  0  0  0  0
   -3.8894    6.0057  -18.0214 C   0  0  0  0  0  0  0  0  0  0  0  0
   -3.0970    4.8237  -18.5779 C   0  0  0  0  0  0  0  0  0  0  0  0
   -3.9268    4.8597  -19.8059 N   0  0  0  0  0  0  0  0  0  0  0  0
   -4.3305    6.2398  -19.4570 C   0  0  0  0  0  0  0  0  0  0  0  0
   -4.6934    4.1869  -19.8153 H   0  0  0  0  0  0  0  0  0  0  0  0
   -8.6531    4.9729  -13.9902 C   0  0  0  0  0  0  0  0  0  0  0  0
   -9.4323    5.8366  -13.8946 O   0  0  0  0  0  0  0  0  0  0  0  0
   -8.0853    4.0168  -12.9234 N   0  0  0  0  0  0  0  0  0  0  0  0
   -7.4898    3.3154  -13.2737 H   0  0  0  0  0  0  0  0  0  0  0  0
   -8.2772    3.9833  -11.5459 C   0  0  0  0  0  0  0  0  0  0  0  0
   -8.5783    2.7654  -10.9199 C   0  0  0  0  0  0  0  0  0  0  0  0
   -8.7387    2.6942   -9.5319 C   0  0  0  0  0  0  0  0  0  0  0  0
   -8.5770    3.8524   -8.7952 C   0  0  0  0  0  0  0  0  0  0  0  0
   -8.2750    5.0595   -9.4163 C   0  0  0  0  0  0  0  0  0  0  0  0
   -8.1376    5.1475  -10.7891 C   0  0  0  0  0  0  0  0  0  0  0  0
   -8.1454    6.1365   -8.3932 C   0  0  0  0  0  0  0  0  0  0  0  0
   -8.1337    5.4252   -7.0935 N   0  0  0  0  0  0  0  0  0  0  0  0
   -8.6828    4.0658   -7.3219 C   0  0  0  0  0  0  0  0  0  0  0  0
   -8.8161    6.1587   -6.0210 C   0  0  0  0  0  0  0  0  0  0  0  0
   -8.5007    5.7155   -4.5815 C   0  0  0  0  0  0  0  0  0  0  0  0
   -8.9012    6.6469   -3.6813 F   0  0  0  0  0  0  0  0  0  0  0  0
   -7.1689    5.5334   -4.4069 F   0  0  0  0  0  0  0  0  0  0  0  0
   -4.0756    7.2686  -13.4720 C   0  0  0  0  0  0  0  0  0  0  0  0
   -3.6450    6.7715  -14.8829 C   0  0  0  0  0  0  0  0  0  0  0  0
   -3.3521    8.0628  -15.6832 C   0  0  0  0  0  0  0  0  0  0  0  0
   -2.0969    5.7905  -14.6066 S   0  0  0  0  0  0  0  0  0  0  0  0
   -1.2155    6.6306  -13.3088 C   0  0  0  0  0  0  0  0  0  0  0  0
   -2.4627    4.4936  -14.0664 O   0  0  0  0  0  0  0  0  0  0  0  0
   -1.2405    5.8732  -15.7728 O   0  0  0  0  0  0  0  0  0  0  0  0
 33 34  1  0  0  0
 34 35  1  0  0  0
 34  1  1  0  0  0
  1  2  1  0  0  0
  2  3  2  0  0  0
  3  4  1  0  0  0
  4 16  1  0  0  0
 16 17  2  0  0  0
 16 18  1  0  0  0
 18 20  1  0  0  0
 20 21  2  0  0  0
 21 22  1  0  0  0
 22 23  2  0  0  0
 23 24  1  0  0  0
 24 25  2  0  0  0
 24 26  1  0  0  0
 26 27  1  0  0  0
 27 29  1  0  0  0
 29 30  1  0  0  0
 30 31  1  0  0  0
 30 32  1  0  0  0
 27 28  1  0  0  0
  4  5  2  0  0  0
  5  6  1  0  0  0
  6  7  1  0  0  0
  6  8  2  0  0  0
  8  9  1  0  0  0
  9 10  2  0  0  0
 10 11  1  0  0  0
 11 12  1  0  0  0
 12 13  1  0  0  0
 13 14  1  0  0  0
 34 36  1  0  0  0
 36 37  1  0  0  0
 36 38  2  0  0  0
 36 39  2  0  0  0
 10  1  1  0  0  0
 14 11  1  0  0  0
  9  3  1  0  0  0
 25 20  1  0  0  0
 28 23  1  0  0  0
 18 19  1  0  0  0
 13 15  1  0  0  0
M  END
> <minimizedAffinity>
-8.38704

> <minimizedRMSD>
1.62035

$$$$
P28663


 32 36  0  0  0  0  0  0  0  0999 V2000
   -6.7998    6.3600  -14.2266 O   0  0  0  0  0  0  0  0  0  0  0  0
   -7.3913    5.3668  -14.3841 C   0  0  0  0  0  0  0  0  0  0  0  0
   -8.1475    4.4834  -13.3734 N   0  0  0  0  0  0  0  0  0  0  0  0
   -8.6358    3.7270  -13.7717 H   0  0  0  0  0  0  0  0  0  0  0  0
   -7.5139    4.8692  -15.7632 C   0  0  0  0  0  0  0  0  0  0  0  0
   -8.7630    4.4989  -16.2571 C   0  0  0  0  0  0  0  0  0  0  0  0
   -8.9214    4.3277  -17.6254 C   0  0  0  0  0  0  0  0  0  0  0  0
  -10.4976    4.0374  -18.2277 Cl  0  0  0  0  0  0  0  0  0  0  0  0
   -7.8621    4.4949  -18.5292 C   0  0  0  0  0  0  0  0  0  0  0  0
   -6.6062    4.8430  -18.0095 C   0  0  0  0  0  0  0  0  0  0  0  0
   -6.4188    5.0084  -16.6347 C   0  0  0  0  0  0  0  0  0  0  0  0
   -5.0620    5.3520  -16.4890 C   0  0  0  0  0  0  0  0  0  0  0  0
   -4.4228    5.4073  -17.6536 N   0  0  0  0  0  0  0  0  0  0  0  0
   -5.3842    5.1602  -18.5723 N   0  0  0  0  0  0  0  0  0  0  0  0
   -5.1133    5.5334  -19.9737 C   0  0  0  0  0  0  0  0  0  0  0  0
   -5.2515    4.4602  -21.0517 C   0  0  0  0  0  0  0  0  0  0  0  0
   -3.9650    4.9161  -21.6233 N   0  0  0  0  0  0  0  0  0  0  0  0
   -3.6011    5.4412  -20.2907 C   0  0  0  0  0  0  0  0  0  0  0  0
   -4.0545    5.6291  -22.3473 H   0  0  0  0  0  0  0  0  0  0  0  0
   -8.2524    4.5804  -11.9913 C   0  0  0  0  0  0  0  0  0  0  0  0
   -8.1875    5.8494  -11.3861 C   0  0  0  0  0  0  0  0  0  0  0  0
   -8.2469    5.9902  -10.0033 C   0  0  0  0  0  0  0  0  0  0  0  0
   -8.3393    4.8414   -9.2493 C   0  0  0  0  0  0  0  0  0  0  0  0
   -8.4045    3.5772   -9.8423 C   0  0  0  0  0  0  0  0  0  0  0  0
   -8.3934    3.4266  -11.2188 C   0  0  0  0  0  0  0  0  0  0  0  0
   -8.4699    2.5397   -8.7621 C   0  0  0  0  0  0  0  0  0  0  0  0
   -8.0876    3.2872   -7.5462 N   0  0  0  0  0  0  0  0  0  0  0  0
   -8.3739    4.7047   -7.7654 C   0  0  0  0  0  0  0  0  0  0  0  0
   -8.5686    2.7408   -6.2786 C   0  0  0  0  0  0  0  0  0  0  0  0
  -10.0415    2.3504   -6.1792 C   0  0  0  0  0  0  0  0  0  0  0  0
  -10.7866    3.1103   -7.0170 F   0  0  0  0  0  0  0  0  0  0  0  0
  -10.2317    1.0637   -6.5592 F   0  0  0  0  0  0  0  0  0  0  0  0
  1  2  2  0  0  0
  2  3  1  0  0  0
  3 20  1  0  0  0
 20 21  2  0  0  0
 21 22  1  0  0  0
 22 23  2  0  0  0
 23 24  1  0  0  0
 24 25  2  0  0  0
 24 26  1  0  0  0
 26 27  1  0  0  0
 27 29  1  0  0  0
 29 30  1  0  0  0
 30 31  1  0  0  0
 30 32  1  0  0  0
 27 28  1  0  0  0
  2  5  1  0  0  0
  5  6  2  0  0  0
  6  7  1  0  0  0
  7  8  1  0  0  0
  7  9  2  0  0  0
  9 10  1  0  0  0
 10 11  2  0  0  0
 11 12  1  0  0  0
 12 13  2  0  0  0
 13 14  1  0  0  0
 14 15  1  0  0  0
 15 16  1  0  0  0
 16 17  1  0  0  0
 17 18  1  0  0  0
 25 20  1  0  0  0
 11  5  1  0  0  0
 18 15  1  0  0  0
 28 23  1  0  0  0
 14 10  1  0  0  0
  3  4  1  0  0  0
 17 19  1  0  0  0
M  END
> <minimizedAffinity>
-8.79110

> <minimizedRMSD>
0.45261

$$$$
P28666


 38 42  0  0  0  0  0  0  0  0999 V2000
   -5.4336    5.7482  -15.7104 C   0  0  0  0  0  0  0  0  0  0  0  0
   -4.8050    4.9987  -14.5392 C   0  0  0  0  0  0  0  0  0  0  0  0
   -4.5552    5.5925  -16.9854 C   0  0  0  0  0  0  0  0  0  0  0  0
   -3.3721    5.8985  -17.0616 O   0  0  0  0  0  0  0  0  0  0  0  0
   -5.3723    5.1165  -18.0202 N   0  0  0  0  0  0  0  0  0  0  0  0
   -6.6707    4.8666  -17.5385 C   0  0  0  0  0  0  0  0  0  0  0  0
   -7.7777    4.4306  -18.2455 C   0  0  0  0  0  0  0  0  0  0  0  0
   -8.9789    4.2716  -17.5548 C   0  0  0  0  0  0  0  0  0  0  0  0
  -10.4063    3.8951  -18.4231 Cl  0  0  0  0  0  0  0  0  0  0  0  0
   -9.0676    4.5056  -16.1799 C   0  0  0  0  0  0  0  0  0  0  0  0
   -7.9456    4.9678  -15.4850 C   0  0  0  0  0  0  0  0  0  0  0  0
   -6.7477    5.1582  -16.1730 C   0  0  0  0  0  0  0  0  0  0  0  0
   -5.0065    5.0686  -19.4495 C   0  0  0  0  0  0  0  0  0  0  0  0
   -4.7607    6.4553  -20.0935 C   0  0  0  0  0  0  0  0  0  0  0  0
   -3.6818    5.8401  -20.9026 N   0  0  0  0  0  0  0  0  0  0  0  0
   -3.5269    4.8104  -19.8443 C   0  0  0  0  0  0  0  0  0  0  0  0
   -2.8635    6.4343  -21.0357 H   0  0  0  0  0  0  0  0  0  0  0  0
   -8.1217    5.4212  -14.0871 C   0  0  0  0  0  0  0  0  0  0  0  0
   -8.5488    6.4908  -13.9067 O   0  0  0  0  0  0  0  0  0  0  0  0
   -7.6764    4.3394  -13.0810 N   0  0  0  0  0  0  0  0  0  0  0  0
   -7.2753    3.5379  -13.4884 H   0  0  0  0  0  0  0  0  0  0  0  0
   -7.7493    4.3123  -11.6933 C   0  0  0  0  0  0  0  0  0  0  0  0
   -7.0086    5.2433  -10.9437 C   0  0  0  0  0  0  0  0  0  0  0  0
   -7.0137    5.2148   -9.5526 C   0  0  0  0  0  0  0  0  0  0  0  0
   -7.7661    4.2414   -8.9337 C   0  0  0  0  0  0  0  0  0  0  0  0
   -8.5255    3.3343   -9.6664 C   0  0  0  0  0  0  0  0  0  0  0  0
   -8.5374    3.3552  -11.0529 C   0  0  0  0  0  0  0  0  0  0  0  0
   -9.2834    2.4587   -8.7240 C   0  0  0  0  0  0  0  0  0  0  0  0
   -8.7546    2.7835   -7.3706 N   0  0  0  0  0  0  0  0  0  0  0  0
   -7.9216    3.9895   -7.4771 C   0  0  0  0  0  0  0  0  0  0  0  0
   -9.8087    2.9529   -6.3694 C   0  0  0  0  0  0  0  0  0  0  0  0
  -10.2921    1.6839   -5.7136 C   0  0  0  0  0  0  0  0  0  0  0  0
  -11.5910    1.8545   -5.3581 F   0  0  0  0  0  0  0  0  0  0  0  0
  -10.2695    0.6584   -6.5938 F   0  0  0  0  0  0  0  0  0  0  0  0
   -5.6750    7.1382  -15.4869 O   0  0  0  0  0  0  0  0  0  0  0  0
   -4.0929    8.8857  -15.2138 C   0  0  0  0  0  0  0  0  0  0  0  0
   -4.8881    7.7989  -14.4986 C   0  0  0  0  0  0  0  0  0  0  0  0
   -5.8196    8.4183  -13.4638 C   0  0  0  0  0  0  0  0  0  0  0  0
 36 37  1  0  0  0
 37 38  1  0  0  0
 37 35  1  0  0  0
 35  1  1  0  0  0
  1  2  1  0  0  0
  1  3  1  0  0  0
  3  4  2  0  0  0
  3  5  1  0  0  0
  5 13  1  0  0  0
 13 14  1  0  0  0
 14 15  1  0  0  0
 15 16  1  0  0  0
  5  6  1  0  0  0
  6  7  2  0  0  0
  7  8  1  0  0  0
  8  9  1  0  0  0
  8 10  2  0  0  0
 10 11  1  0  0  0
 11 18  1  0  0  0
 18 19  2  0  0  0
 18 20  1  0  0  0
 20 22  1  0  0  0
 22 23  2  0  0  0
 23 24  1  0  0  0
 24 25  2  0  0  0
 25 26  1  0  0  0
 26 27  2  0  0  0
 26 28  1  0  0  0
 28 29  1  0  0  0
 29 31  1  0  0  0
 31 32  1  0  0  0
 32 33  1  0  0  0
 32 34  1  0  0  0
 29 30  1  0  0  0
 11 12  2  0  0  0
 12  1  1  0  0  0
 16 13  1  0  0  0
 12  6  1  0  0  0
 27 22  1  0  0  0
 30 25  1  0  0  0
 15 17  1  0  0  0
 20 21  1  0  0  0
M  END
> <minimizedAffinity>
-8.18461

> <minimizedRMSD>
0.89377

$$$$
P28667


 35 39  0  0  0  0  0  0  0  0999 V2000
   -5.2604    5.1109  -18.6963 N   0  0  0  0  0  0  0  0  0  0  0  0
   -4.2800    5.4709  -17.8350 N   0  0  0  0  0  0  0  0  0  0  0  0
   -4.8675    5.4523  -16.6411 C   0  0  0  0  0  0  0  0  0  0  0  0
   -6.2262    5.0850  -16.7052 C   0  0  0  0  0  0  0  0  0  0  0  0
   -7.2689    4.9191  -15.7698 C   0  0  0  0  0  0  0  0  0  0  0  0
   -8.5487    4.5576  -16.2259 C   0  0  0  0  0  0  0  0  0  0  0  0
   -8.7680    4.3569  -17.5848 C   0  0  0  0  0  0  0  0  0  0  0  0
  -10.3469    4.0203  -18.1759 Cl  0  0  0  0  0  0  0  0  0  0  0  0
   -7.7443    4.5041  -18.5200 C   0  0  0  0  0  0  0  0  0  0  0  0
   -6.4703    4.8712  -18.0639 C   0  0  0  0  0  0  0  0  0  0  0  0
   -5.9243    4.3027  -21.0656 N   0  0  0  0  0  0  0  0  0  0  0  0
   -5.0234    5.0833  -20.1759 C   0  0  0  0  0  0  0  0  0  0  0  0
   -4.8060    6.5042  -20.7568 C   0  0  0  0  0  0  0  0  0  0  0  0
   -3.6620    5.9924  -21.5469 N   0  0  0  0  0  0  0  0  0  0  0  0
   -3.5522    4.8448  -20.6073 C   0  0  0  0  0  0  0  0  0  0  0  0
   -6.8934    4.4555  -20.7868 H   0  0  0  0  0  0  0  0  0  0  0  0
   -5.7010    3.3104  -20.9895 H   0  0  0  0  0  0  0  0  0  0  0  0
   -2.8486    6.6079  -21.5539 H   0  0  0  0  0  0  0  0  0  0  0  0
   -7.0065    5.2590  -14.3429 C   0  0  0  0  0  0  0  0  0  0  0  0
   -6.6248    6.3352  -14.1001 O   0  0  0  0  0  0  0  0  0  0  0  0
   -7.3904    4.0973  -13.4017 N   0  0  0  0  0  0  0  0  0  0  0  0
   -7.6130    3.2537  -13.8578 H   0  0  0  0  0  0  0  0  0  0  0  0
   -7.4731    4.0481  -12.0134 C   0  0  0  0  0  0  0  0  0  0  0  0
   -7.0965    2.8490  -11.3934 C   0  0  0  0  0  0  0  0  0  0  0  0
   -7.4107    2.6137  -10.0599 C   0  0  0  0  0  0  0  0  0  0  0  0
   -8.0813    3.5998   -9.3811 C   0  0  0  0  0  0  0  0  0  0  0  0
   -8.1984    4.8794   -9.9036 C   0  0  0  0  0  0  0  0  0  0  0  0
   -7.9736    5.1073  -11.2498 C   0  0  0  0  0  0  0  0  0  0  0  0
   -8.5381    5.7950   -8.7561 C   0  0  0  0  0  0  0  0  0  0  0  0
   -8.4447    4.9390   -7.5015 N   0  0  0  0  0  0  0  0  0  0  0  0
   -8.7305    3.6052   -8.0440 C   0  0  0  0  0  0  0  0  0  0  0  0
   -7.0499    4.8643   -6.9537 C   0  0  0  0  0  0  0  0  0  0  0  0
   -6.8687    4.8644   -5.4049 C   0  0  0  0  0  0  0  0  0  0  0  0
   -7.2291    3.6760   -4.8532 F   0  0  0  0  0  0  0  0  0  0  0  0
   -7.6740    5.8164   -4.8545 F   0  0  0  0  0  0  0  0  0  0  0  0
 11 12  1  0  0  0
 12  1  1  0  0  0
  1  2  1  0  0  0
  2  3  2  0  0  0
  3  4  1  0  0  0
  4  5  2  0  0  0
  5 19  1  0  0  0
 19 20  2  0  0  0
 19 21  1  0  0  0
 21 23  1  0  0  0
 23 24  2  0  0  0
 24 25  1  0  0  0
 25 26  2  0  0  0
 26 27  1  0  0  0
 27 28  2  0  0  0
 27 29  1  0  0  0
 29 30  1  0  0  0
 30 32  1  0  0  0
 32 33  1  0  0  0
 33 34  1  0  0  0
 33 35  1  0  0  0
 30 31  1  0  0  0
  5  6  1  0  0  0
  6  7  2  0  0  0
  7  8  1  0  0  0
  7  9  1  0  0  0
  9 10  2  0  0  0
 12 13  1  0  0  0
 13 14  1  0  0  0
 14 15  1  0  0  0
 15 12  1  0  0  0
 10  1  1  0  0  0
 10  4  1  0  0  0
 28 23  1  0  0  0
 31 26  1  0  0  0
 11 16  1  0  0  0
 11 17  1  0  0  0
 21 22  1  0  0  0
 14 18  1  0  0  0
M  END
> <minimizedAffinity>
-8.32770

> <minimizedRMSD>
1.06120

$$$$
P28671


 38 43  0  0  0  0  0  0  0  0999 V2000
   -2.6614    7.0686  -12.4887 C   0  0  0  0  0  0  0  0  0  0  0  0
   -3.4392    6.5789  -13.6230 N   0  0  0  0  0  0  0  0  0  0  0  0
   -3.4595    7.5337  -14.7263 C   0  0  0  0  0  0  0  0  0  0  0  0
   -4.4947    7.1383  -15.7936 C   0  0  0  0  0  0  0  0  0  0  0  0
   -4.6941    5.6004  -15.9066 C   0  0  0  0  0  0  0  0  0  0  0  0
   -3.3874    4.9047  -15.4852 C   0  0  0  0  0  0  0  0  0  0  0  0
   -2.9823    5.2491  -14.0449 C   0  0  0  0  0  0  0  0  0  0  0  0
   -5.8275    5.1545  -14.9328 C   0  0  0  0  0  0  0  0  0  0  0  0
   -6.9697    4.9319  -15.8539 C   0  0  0  0  0  0  0  0  0  0  0  0
   -8.3061    4.7422  -15.5039 C   0  0  0  0  0  0  0  0  0  0  0  0
   -9.2251    4.4405  -16.4961 C   0  0  0  0  0  0  0  0  0  0  0  0
   -8.7867    4.3930  -17.8225 C   0  0  0  0  0  0  0  0  0  0  0  0
   -9.9465    4.1462  -19.0621 Cl  0  0  0  0  0  0  0  0  0  0  0  0
   -7.4480    4.6344  -18.1722 C   0  0  0  0  0  0  0  0  0  0  0  0
   -6.5255    4.9022  -17.1746 C   0  0  0  0  0  0  0  0  0  0  0  0
   -5.1269    5.1683  -17.3021 N   0  0  0  0  0  0  0  0  0  0  0  0
   -4.4766    5.7459  -18.4728 C   0  0  0  0  0  0  0  0  0  0  0  0
   -4.8866    5.2424  -19.8664 C   0  0  0  0  0  0  0  0  0  0  0  0
   -3.4571    5.2166  -20.2567 N   0  0  0  0  0  0  0  0  0  0  0  0
   -3.1244    5.0637  -18.8298 C   0  0  0  0  0  0  0  0  0  0  0  0
   -3.1180    6.0801  -20.6807 H   0  0  0  0  0  0  0  0  0  0  0  0
   -8.7567    5.1153  -14.1466 C   0  0  0  0  0  0  0  0  0  0  0  0
   -9.4891    6.0225  -14.0713 O   0  0  0  0  0  0  0  0  0  0  0  0
   -8.0818    4.2779  -13.0368 N   0  0  0  0  0  0  0  0  0  0  0  0
   -7.4390    3.6062  -13.3605 H   0  0  0  0  0  0  0  0  0  0  0  0
   -8.2354    4.3191  -11.6494 C   0  0  0  0  0  0  0  0  0  0  0  0
   -8.1863    5.5616  -10.9914 C   0  0  0  0  0  0  0  0  0  0  0  0
   -8.2096    5.6446   -9.6016 C   0  0  0  0  0  0  0  0  0  0  0  0
   -8.2975    4.4686   -8.8885 C   0  0  0  0  0  0  0  0  0  0  0  0
   -8.3938    3.2318   -9.5217 C   0  0  0  0  0  0  0  0  0  0  0  0
   -8.3598    3.1374  -10.9084 C   0  0  0  0  0  0  0  0  0  0  0  0
   -8.4499    2.1595   -8.4687 C   0  0  0  0  0  0  0  0  0  0  0  0
   -8.6621    2.8848   -7.1662 N   0  0  0  0  0  0  0  0  0  0  0  0
   -8.2245    4.2730   -7.4155 C   0  0  0  0  0  0  0  0  0  0  0  0
  -10.0914    2.8489   -6.8049 C   0  0  0  0  0  0  0  0  0  0  0  0
  -10.4371    1.7741   -5.7873 C   0  0  0  0  0  0  0  0  0  0  0  0
  -11.7126    1.9437   -5.3516 F   0  0  0  0  0  0  0  0  0  0  0  0
  -10.3853    0.5594   -6.3721 F   0  0  0  0  0  0  0  0  0  0  0  0
  1  2  1  0  0  0
  2  3  1  0  0  0
  3  4  1  0  0  0
  4  5  1  0  0  0
  5  6  1  0  0  0
  6  7  1  0  0  0
  5  8  1  0  0  0
  8  9  1  0  0  0
  9 10  2  0  0  0
 10 22  1  0  0  0
 22 23  2  0  0  0
 22 24  1  0  0  0
 24 26  1  0  0  0
 26 27  2  0  0  0
 27 28  1  0  0  0
 28 29  2  0  0  0
 29 30  1  0  0  0
 30 31  2  0  0  0
 30 32  1  0  0  0
 32 33  1  0  0  0
 33 35  1  0  0  0
 35 36  1  0  0  0
 36 37  1  0  0  0
 36 38  1  0  0  0
 33 34  1  0  0  0
 10 11  1  0  0  0
 11 12  2  0  0  0
 12 13  1  0  0  0
 12 14  1  0  0  0
 14 15  2  0  0  0
 15 16  1  0  0  0
 16 17  1  0  0  0
 17 18  1  0  0  0
 18 19  1  0  0  0
 19 20  1  0  0  0
  7  2  1  0  0  0
 15  9  1  0  0  0
 20 17  1  0  0  0
 16  5  1  0  0  0
 31 26  1  0  0  0
 34 29  1  0  0  0
 24 25  1  0  0  0
 19 21  1  0  0  0
M  END
> <minimizedAffinity>
-9.92885

> <minimizedRMSD>
0.95864

$$$$
P28673


 41 45  0  0  0  0  0  0  0  0999 V2000
   -7.0532    5.1855  -14.1648 C   0  0  0  0  0  0  0  0  0  0  0  0
   -6.7633    6.5746  -14.1498 O   0  0  0  0  0  0  0  0  0  0  0  0
   -6.6355    6.8684  -13.2343 H   0  0  0  0  0  0  0  0  0  0  0  0
   -7.2226    4.8915  -15.6520 C   0  0  0  0  0  0  0  0  0  0  0  0
   -8.4906    4.5530  -16.1890 C   0  0  0  0  0  0  0  0  0  0  0  0
   -8.6965    4.3861  -17.5542 C   0  0  0  0  0  0  0  0  0  0  0  0
  -10.2855    4.1050  -18.1313 Cl  0  0  0  0  0  0  0  0  0  0  0  0
   -7.6585    4.5278  -18.4654 C   0  0  0  0  0  0  0  0  0  0  0  0
   -6.4103    4.9027  -17.9584 C   0  0  0  0  0  0  0  0  0  0  0  0
   -6.1808    5.0913  -16.5954 C   0  0  0  0  0  0  0  0  0  0  0  0
   -4.8301    5.5061  -16.5326 C   0  0  0  0  0  0  0  0  0  0  0  0
   -4.2435    5.5678  -17.7254 N   0  0  0  0  0  0  0  0  0  0  0  0
   -5.2089    5.1743  -18.5771 N   0  0  0  0  0  0  0  0  0  0  0  0
   -5.0127    5.1188  -20.0361 C   0  0  0  0  0  0  0  0  0  0  0  0
   -4.7866    6.5073  -20.6579 C   0  0  0  0  0  0  0  0  0  0  0  0
   -3.7571    5.8963  -21.5406 N   0  0  0  0  0  0  0  0  0  0  0  0
   -3.5666    4.8472  -20.4970 C   0  0  0  0  0  0  0  0  0  0  0  0
   -2.9391    6.4825  -21.7071 H   0  0  0  0  0  0  0  0  0  0  0  0
   -6.0156    3.1075  -13.3357 O   0  0  0  0  0  0  0  0  0  0  0  0
   -5.9164    4.2633  -13.4851 C   0  0  0  0  0  0  0  0  0  0  0  0
   -4.7833    5.2435  -13.0535 N   0  0  0  0  0  0  0  0  0  0  0  0
   -4.8980    6.1699  -13.3663 H   0  0  0  0  0  0  0  0  0  0  0  0
   -3.5979    5.0138  -12.2726 C   0  0  0  0  0  0  0  0  0  0  0  0
   -2.5404    4.1896  -12.9897 C   0  0  0  0  0  0  0  0  0  0  0  0
   -2.5787    2.7152  -12.6306 C   0  0  0  0  0  0  0  0  0  0  0  0
   -3.0686    2.0337  -13.7054 F   0  0  0  0  0  0  0  0  0  0  0  0
   -8.3263    5.0219  -13.4358 N   0  0  0  0  0  0  0  0  0  0  0  0
   -9.1695    4.8185  -13.9016 H   0  0  0  0  0  0  0  0  0  0  0  0
   -8.2671    5.1737  -12.0296 C   0  0  0  0  0  0  0  0  0  0  0  0
   -8.1424    6.4417  -11.4214 C   0  0  0  0  0  0  0  0  0  0  0  0
   -8.1083    6.5921  -10.0370 C   0  0  0  0  0  0  0  0  0  0  0  0
   -8.2296    5.4606   -9.2650 C   0  0  0  0  0  0  0  0  0  0  0  0
   -8.3790    4.2056   -9.8419 C   0  0  0  0  0  0  0  0  0  0  0  0
   -8.3994    4.0411  -11.2149 C   0  0  0  0  0  0  0  0  0  0  0  0
   -8.5671    3.1840   -8.7739 C   0  0  0  0  0  0  0  0  0  0  0  0
   -8.4281    3.9300   -7.5034 N   0  0  0  0  0  0  0  0  0  0  0  0
   -8.2755    5.3572   -7.7829 C   0  0  0  0  0  0  0  0  0  0  0  0
   -9.4865    3.6545   -6.5354 C   0  0  0  0  0  0  0  0  0  0  0  0
   -9.9629    2.2267   -6.5637 C   0  0  0  0  0  0  0  0  0  0  0  0
  -10.8494    2.0470   -5.5572 F   0  0  0  0  0  0  0  0  0  0  0  0
   -8.8853    1.4431   -6.3531 F   0  0  0  0  0  0  0  0  0  0  0  0
 19 20  2  0  0  0
 20 21  1  0  0  0
 21 23  1  0  0  0
 23 24  1  0  0  0
 24 25  1  0  0  0
 25 26  1  0  0  0
 20  1  1  0  0  0
  1  2  1  0  0  0
  1 27  1  0  0  0
 27 29  1  0  0  0
 29 30  2  0  0  0
 30 31  1  0  0  0
 31 32  2  0  0  0
 32 33  1  0  0  0
 33 34  2  0  0  0
 33 35  1  0  0  0
 35 36  1  0  0  0
 36 38  1  0  0  0
 38 39  1  0  0  0
 39 40  1  0  0  0
 39 41  1  0  0  0
 36 37  1  0  0  0
  1  4  1  0  0  0
  4  5  2  0  0  0
  5  6  1  0  0  0
  6  7  1  0  0  0
  6  8  2  0  0  0
  8  9  1  0  0  0
  9 10  2  0  0  0
 10 11  1  0  0  0
 11 12  2  0  0  0
 12 13  1  0  0  0
 13 14  1  0  0  0
 14 15  1  0  0  0
 15 16  1  0  0  0
 16 17  1  0  0  0
 34 29  1  0  0  0
 10  4  1  0  0  0
 17 14  1  0  0  0
 37 32  1  0  0  0
 13  9  1  0  0  0
 21 22  1  0  0  0
  2  3  1  0  0  0
 27 28  1  0  0  0
 16 18  1  0  0  0
M  END
> <minimizedAffinity>
-8.18307

> <minimizedRMSD>
0.83688

$$$$
P28674


 39 44  0  0  0  0  0  0  0  0999 V2000
   -1.6385    7.2332  -17.6484 N   0  0  0  0  0  0  0  0  0  0  0  0
   -2.7818    7.6911  -18.4482 C   0  0  0  0  0  0  0  0  0  0  0  0
   -4.1364    7.2176  -17.9324 C   0  0  0  0  0  0  0  0  0  0  0  0
   -4.2131    5.6743  -17.7874 C   0  0  0  0  0  0  0  0  0  0  0  0
   -2.8166    5.0313  -17.7573 C   0  0  0  0  0  0  0  0  0  0  0  0
   -1.8391    5.9298  -16.9994 C   0  0  0  0  0  0  0  0  0  0  0  0
   -4.8828    5.3632  -16.3931 C   0  0  0  0  0  0  0  0  0  0  0  0
   -6.2884    5.0753  -16.7718 C   0  0  0  0  0  0  0  0  0  0  0  0
   -7.3984    4.9537  -15.9425 C   0  0  0  0  0  0  0  0  0  0  0  0
   -8.6131    4.5605  -16.4899 C   0  0  0  0  0  0  0  0  0  0  0  0
   -8.6949    4.3464  -17.8683 C   0  0  0  0  0  0  0  0  0  0  0  0
  -10.2232    3.9921  -18.5638 Cl  0  0  0  0  0  0  0  0  0  0  0  0
   -7.5826    4.5039  -18.7025 C   0  0  0  0  0  0  0  0  0  0  0  0
   -6.3671    4.8638  -18.1420 C   0  0  0  0  0  0  0  0  0  0  0  0
   -5.1258    5.0619  -18.8135 N   0  0  0  0  0  0  0  0  0  0  0  0
   -4.9973    4.9673  -20.2533 C   0  0  0  0  0  0  0  0  0  0  0  0
   -5.0067    6.2841  -21.0610 C   0  0  0  0  0  0  0  0  0  0  0  0
   -4.1464    5.5937  -22.0663 N   0  0  0  0  0  0  0  0  0  0  0  0
   -3.6382    4.7478  -20.9463 C   0  0  0  0  0  0  0  0  0  0  0  0
   -3.4428    6.1879  -22.5047 H   0  0  0  0  0  0  0  0  0  0  0  0
   -7.3296    5.4764  -14.5653 C   0  0  0  0  0  0  0  0  0  0  0  0
   -6.6982    6.4468  -14.4061 O   0  0  0  0  0  0  0  0  0  0  0  0
   -8.1217    4.6191  -13.5522 N   0  0  0  0  0  0  0  0  0  0  0  0
   -8.6399    3.8833  -13.9513 H   0  0  0  0  0  0  0  0  0  0  0  0
   -8.2220    4.7183  -12.1647 C   0  0  0  0  0  0  0  0  0  0  0  0
   -8.1225    5.9906  -11.5709 C   0  0  0  0  0  0  0  0  0  0  0  0
   -8.1684    6.1472  -10.1920 C   0  0  0  0  0  0  0  0  0  0  0  0
   -8.3159    5.0120   -9.4265 C   0  0  0  0  0  0  0  0  0  0  0  0
   -8.4442    3.7440   -9.9927 C   0  0  0  0  0  0  0  0  0  0  0  0
   -8.3981    3.5772  -11.3710 C   0  0  0  0  0  0  0  0  0  0  0  0
   -8.6493    2.7434   -8.8901 C   0  0  0  0  0  0  0  0  0  0  0  0
   -8.3095    3.4848   -7.6527 N   0  0  0  0  0  0  0  0  0  0  0  0
   -8.3963    4.9217   -7.9471 C   0  0  0  0  0  0  0  0  0  0  0  0
   -9.0840    3.1095   -6.4673 C   0  0  0  0  0  0  0  0  0  0  0  0
   -8.5942    3.7967   -5.1764 C   0  0  0  0  0  0  0  0  0  0  0  0
   -9.2903    3.3429   -4.1038 F   0  0  0  0  0  0  0  0  0  0  0  0
   -8.8478    5.1374   -5.2057 F   0  0  0  0  0  0  0  0  0  0  0  0
   -1.6219    8.0084  -15.2701 C   0  0  0  0  0  0  0  0  0  0  0  0
   -1.1762    8.2638  -16.7069 C   0  0  0  0  0  0  0  0  0  0  0  0
 38 39  1  0  0  0
 39  1  1  0  0  0
  1  2  1  0  0  0
  2  3  1  0  0  0
  3  4  1  0  0  0
  4  5  1  0  0  0
  5  6  1  0  0  0
  4  7  1  0  0  0
  7  8  1  0  0  0
  8  9  2  0  0  0
  9 21  1  0  0  0
 21 22  2  0  0  0
 21 23  1  0  0  0
 23 25  1  0  0  0
 25 26  2  0  0  0
 26 27  1  0  0  0
 27 28  2  0  0  0
 28 29  1  0  0  0
 29 30  2  0  0  0
 29 31  1  0  0  0
 31 32  1  0  0  0
 32 34  1  0  0  0
 34 35  1  0  0  0
 35 36  1  0  0  0
 35 37  1  0  0  0
 32 33  1  0  0  0
  9 10  1  0  0  0
 10 11  2  0  0  0
 11 12  1  0  0  0
 11 13  1  0  0  0
 13 14  2  0  0  0
 14 15  1  0  0  0
 15 16  1  0  0  0
 16 17  1  0  0  0
 17 18  1  0  0  0
 18 19  1  0  0  0
  6  1  1  0  0  0
 14  8  1  0  0  0
 19 16  1  0  0  0
 15  4  1  0  0  0
 30 25  1  0  0  0
 33 28  1  0  0  0
 23 24  1  0  0  0
 18 20  1  0  0  0
M  END
> <minimizedAffinity>
-8.72822

> <minimizedRMSD>
0.82634

$$$$
P28677


 40 46  0  0  0  0  0  0  0  0999 V2000
   -0.9391    9.2904  -18.6489 C   0  0  0  0  0  0  0  0  0  0  0  0
   -1.7869    8.3458  -17.9198 N   0  0  0  0  0  0  0  0  0  0  0  0
   -3.2002    8.6779  -18.0956 C   0  0  0  0  0  0  0  0  0  0  0  0
   -4.0390    7.8142  -17.1663 C   0  0  0  0  0  0  0  0  0  0  0  0
   -3.9032    6.2893  -17.3985 C   0  0  0  0  0  0  0  0  0  0  0  0
   -4.4471    5.5641  -16.1341 C   0  0  0  0  0  0  0  0  0  0  0  0
   -5.8474    5.2389  -16.5427 C   0  0  0  0  0  0  0  0  0  0  0  0
   -6.9624    5.0108  -15.7328 C   0  0  0  0  0  0  0  0  0  0  0  0
   -8.1400    4.5601  -16.3230 C   0  0  0  0  0  0  0  0  0  0  0  0
   -8.1682    4.3834  -17.7099 C   0  0  0  0  0  0  0  0  0  0  0  0
   -9.6447    3.9315  -18.4638 Cl  0  0  0  0  0  0  0  0  0  0  0  0
   -7.0691    4.7200  -18.5179 C   0  0  0  0  0  0  0  0  0  0  0  0
   -5.9130    5.2025  -17.9352 C   0  0  0  0  0  0  0  0  0  0  0  0
   -4.8347    5.8562  -18.5250 N   0  0  0  0  0  0  0  0  0  0  0  0
   -4.1058    5.5068  -19.7296 C   0  0  0  0  0  0  0  0  0  0  0  0
   -4.7359    4.9653  -20.9816 C   0  0  0  0  0  0  0  0  0  0  0  0
   -3.5211    4.3419  -21.7009 C   0  0  0  0  0  0  0  0  0  0  0  0
   -2.4118    4.3314  -20.7335 N   0  0  0  0  0  0  0  0  0  0  0  0
   -3.0646    4.4301  -19.4367 C   0  0  0  0  0  0  0  0  0  0  0  0
   -2.1826    4.6557  -18.3491 O   0  0  0  0  0  0  0  0  0  0  0  0
   -2.3911    5.9063  -17.6611 C   0  0  0  0  0  0  0  0  0  0  0  0
   -1.5389    6.9783  -18.3842 C   0  0  0  0  0  0  0  0  0  0  0  0
   -1.7910    5.1261  -20.8869 H   0  0  0  0  0  0  0  0  0  0  0  0
   -6.9930    5.6522  -14.3965 C   0  0  0  0  0  0  0  0  0  0  0  0
   -6.5761    6.7442  -14.3601 O   0  0  0  0  0  0  0  0  0  0  0  0
   -7.6665    4.7990  -13.2958 N   0  0  0  0  0  0  0  0  0  0  0  0
   -8.0028    3.9250  -13.5997 H   0  0  0  0  0  0  0  0  0  0  0  0
   -7.8750    5.0666  -11.9420 C   0  0  0  0  0  0  0  0  0  0  0  0
   -7.8103    6.4059  -11.5145 C   0  0  0  0  0  0  0  0  0  0  0  0
   -8.0574    6.7588  -10.1943 C   0  0  0  0  0  0  0  0  0  0  0  0
   -8.3534    5.7496   -9.3066 C   0  0  0  0  0  0  0  0  0  0  0  0
   -8.3901    4.4170   -9.6975 C   0  0  0  0  0  0  0  0  0  0  0  0
   -8.1658    4.0524  -11.0232 C   0  0  0  0  0  0  0  0  0  0  0  0
   -8.7377    3.5818   -8.5062 C   0  0  0  0  0  0  0  0  0  0  0  0
   -8.7916    4.5068   -7.3168 N   0  0  0  0  0  0  0  0  0  0  0  0
   -8.6698    5.8874   -7.8619 C   0  0  0  0  0  0  0  0  0  0  0  0
   -7.6058    4.2694   -6.4673 C   0  0  0  0  0  0  0  0  0  0  0  0
   -7.8560    3.8596   -5.0090 C   0  0  0  0  0  0  0  0  0  0  0  0
   -6.6778    3.7523   -4.3356 F   0  0  0  0  0  0  0  0  0  0  0  0
   -8.5567    4.8099   -4.3299 F   0  0  0  0  0  0  0  0  0  0  0  0
  1  2  1  0  0  0
  2  3  1  0  0  0
  3  4  1  0  0  0
  5  4  1  0  0  0
  5  6  1  0  0  0
  6  7  1  0  0  0
  7  8  2  0  0  0
  8 24  1  0  0  0
 24 25  2  0  0  0
 24 26  1  0  0  0
 26 28  1  0  0  0
 28 29  2  0  0  0
 29 30  1  0  0  0
 30 31  2  0  0  0
 31 32  1  0  0  0
 32 33  2  0  0  0
 32 34  1  0  0  0
 34 35  1  0  0  0
 35 37  1  0  0  0
 37 38  1  0  0  0
 38 39  1  0  0  0
 38 40  1  0  0  0
 35 36  1  0  0  0
  8  9  1  0  0  0
  9 10  2  0  0  0
 10 11  1  0  0  0
 10 12  1  0  0  0
 12 13  2  0  0  0
 13 14  1  0  0  0
 14 15  1  0  0  0
 15 16  1  0  0  0
 16 17  1  0  0  0
 17 18  1  0  0  0
 19 18  1  0  0  0
 19 20  1  0  0  0
 20 21  1  0  0  0
 21 22  1  0  0  0
 22  2  1  0  0  0
 14  5  1  0  0  0
 19 15  1  0  0  0
 21  5  1  0  0  0
 13  7  1  0  0  0
 33 28  1  0  0  0
 36 31  1  0  0  0
 26 27  1  0  0  0
 18 23  1  0  0  0
M  END
> <minimizedAffinity>
-9.07204

> <minimizedRMSD>
0.87531

$$$$
P28679


 36 41  0  0  0  0  0  0  0  0999 V2000
   -7.5841    4.8099  -15.6683 C   0  0  0  0  0  0  0  0  0  0  0  0
   -8.8283    4.4411  -16.1815 C   0  0  0  0  0  0  0  0  0  0  0  0
   -8.9755    4.2912  -17.5553 C   0  0  0  0  0  0  0  0  0  0  0  0
  -10.5438    4.0088  -18.1836 Cl  0  0  0  0  0  0  0  0  0  0  0  0
   -7.9113    4.4828  -18.4464 C   0  0  0  0  0  0  0  0  0  0  0  0
   -6.6691    4.8438  -17.9065 C   0  0  0  0  0  0  0  0  0  0  0  0
   -6.4866    4.9809  -16.5311 C   0  0  0  0  0  0  0  0  0  0  0  0
   -5.1365    5.3528  -16.3783 C   0  0  0  0  0  0  0  0  0  0  0  0
   -4.5037    5.4671  -17.5429 N   0  0  0  0  0  0  0  0  0  0  0  0
   -5.4618    5.2190  -18.4599 N   0  0  0  0  0  0  0  0  0  0  0  0
   -5.2671    5.6707  -19.8573 C   0  0  0  0  0  0  0  0  0  0  0  0
   -5.2651    4.5662  -20.9180 C   0  0  0  0  0  0  0  0  0  0  0  0
   -4.0404    5.2518  -21.5883 C   0  0  0  0  0  0  0  0  0  0  0  0
   -2.9657    4.2699  -22.0688 C   0  0  0  0  0  0  0  0  0  0  0  0
   -1.8071    5.0432  -22.6889 C   0  0  0  0  0  0  0  0  0  0  0  0
   -2.2803    5.8637  -23.7624 O   0  0  0  0  0  0  0  0  0  0  0  0
   -3.1839    6.8650  -23.2923 C   0  0  0  0  0  0  0  0  0  0  0  0
   -4.4359    6.2106  -22.7220 C   0  0  0  0  0  0  0  0  0  0  0  0
   -3.7692    5.9038  -20.2070 C   0  0  0  0  0  0  0  0  0  0  0  0
   -6.9962    6.3709  -14.1583 O   0  0  0  0  0  0  0  0  0  0  0  0
   -7.4736    5.3139  -14.2907 C   0  0  0  0  0  0  0  0  0  0  0  0
   -8.1036    4.3642  -13.2520 N   0  0  0  0  0  0  0  0  0  0  0  0
   -8.5101    3.5512  -13.6301 H   0  0  0  0  0  0  0  0  0  0  0  0
   -8.1911    4.4692  -11.8688 C   0  0  0  0  0  0  0  0  0  0  0  0
   -7.9903    5.7320  -11.2818 C   0  0  0  0  0  0  0  0  0  0  0  0
   -8.0896    5.9078   -9.9095 C   0  0  0  0  0  0  0  0  0  0  0  0
   -8.3842    4.7999   -9.1461 C   0  0  0  0  0  0  0  0  0  0  0  0
   -8.5575    3.5354   -9.7082 C   0  0  0  0  0  0  0  0  0  0  0  0
   -8.4793    3.3512  -11.0807 C   0  0  0  0  0  0  0  0  0  0  0  0
   -8.7717    2.5438   -8.6037 C   0  0  0  0  0  0  0  0  0  0  0  0
   -9.0057    3.3727   -7.3972 N   0  0  0  0  0  0  0  0  0  0  0  0
   -8.5053    4.7263   -7.6661 C   0  0  0  0  0  0  0  0  0  0  0  0
   -8.5543    2.7647   -6.1317 C   0  0  0  0  0  0  0  0  0  0  0  0
   -8.0997    3.7309   -5.0169 C   0  0  0  0  0  0  0  0  0  0  0  0
   -9.0638    3.8297   -4.0578 F   0  0  0  0  0  0  0  0  0  0  0  0
   -6.9828    3.3088   -4.3828 F   0  0  0  0  0  0  0  0  0  0  0  0
 20 21  2  0  0  0
 21 22  1  0  0  0
 22 24  1  0  0  0
 24 25  2  0  0  0
 25 26  1  0  0  0
 26 27  2  0  0  0
 27 28  1  0  0  0
 28 29  2  0  0  0
 28 30  1  0  0  0
 30 31  1  0  0  0
 31 33  1  0  0  0
 33 34  1  0  0  0
 34 35  1  0  0  0
 34 36  1  0  0  0
 31 32  1  0  0  0
 21  1  1  0  0  0
  1  2  2  0  0  0
  2  3  1  0  0  0
  3  4  1  0  0  0
  3  5  2  0  0  0
  5  6  1  0  0  0
  6  7  2  0  0  0
  7  8  1  0  0  0
  8  9  2  0  0  0
  9 10  1  0  0  0
 10 11  1  0  0  0
 11 12  1  0  0  0
 12 13  1  0  0  0
 13 14  1  0  0  0
 14 15  1  0  0  0
 15 16  1  0  0  0
 16 17  1  0  0  0
 17 18  1  0  0  0
 13 19  1  0  0  0
 29 24  1  0  0  0
  7  1  1  0  0  0
 19 11  1  0  0  0
 32 27  1  0  0  0
 10  6  1  0  0  0
 18 13  1  0  0  0
 22 23  1  0  0  0
M  END
> <minimizedAffinity>
-9.60923

> <minimizedRMSD>
0.55420

$$$$
P28683


 37 42  0  0  0  0  0  0  0  0999 V2000
   -6.5811    6.4369  -14.4980 O   0  0  0  0  0  0  0  0  0  0  0  0
   -7.0252    5.3692  -14.6299 C   0  0  0  0  0  0  0  0  0  0  0  0
   -7.3888    4.3062  -13.5842 N   0  0  0  0  0  0  0  0  0  0  0  0
   -7.8255    3.5025  -13.9484 H   0  0  0  0  0  0  0  0  0  0  0  0
   -7.1913    4.2924  -12.1275 C   0  0  0  0  0  0  0  0  0  0  0  0
   -8.2603    3.3544  -11.4825 C   0  0  0  0  0  0  0  0  0  0  0  0
   -8.3408    3.4866  -10.0037 C   0  0  0  0  0  0  0  0  0  0  0  0
   -7.7328    4.4541   -9.3200 C   0  0  0  0  0  0  0  0  0  0  0  0
   -8.0067    4.3414   -7.8727 C   0  0  0  0  0  0  0  0  0  0  0  0
   -8.5756    2.9991   -7.7392 N   0  0  0  0  0  0  0  0  0  0  0  0
   -9.0817    2.5897   -9.0617 C   0  0  0  0  0  0  0  0  0  0  0  0
   -6.8799    5.5113   -9.8952 C   0  0  0  0  0  0  0  0  0  0  0  0
   -7.0799    5.6789  -11.4221 C   0  0  0  0  0  0  0  0  0  0  0  0
   -8.2303    6.6583  -11.7039 C   0  0  0  0  0  0  0  0  0  0  0  0
   -7.6406    8.0590  -11.5412 C   0  0  0  0  0  0  0  0  0  0  0  0
   -6.1858    7.9700  -11.9802 C   0  0  0  0  0  0  0  0  0  0  0  0
   -5.8720    6.4967  -11.8590 C   0  0  0  0  0  0  0  0  0  0  0  0
   -4.7442    6.0395  -12.0206 O   0  0  0  0  0  0  0  0  0  0  0  0
   -9.5130    2.8579   -6.6254 C   0  0  0  0  0  0  0  0  0  0  0  0
   -9.0018    3.4895   -5.3189 C   0  0  0  0  0  0  0  0  0  0  0  0
   -9.1316    4.8478   -5.3467 F   0  0  0  0  0  0  0  0  0  0  0  0
   -9.7748    3.0871   -4.2797 F   0  0  0  0  0  0  0  0  0  0  0  0
   -7.2528    4.9113  -16.0051 C   0  0  0  0  0  0  0  0  0  0  0  0
   -8.5291    4.5487  -16.4357 C   0  0  0  0  0  0  0  0  0  0  0  0
   -8.7516    4.3555  -17.7952 C   0  0  0  0  0  0  0  0  0  0  0  0
  -10.3545    4.1072  -18.3493 Cl  0  0  0  0  0  0  0  0  0  0  0  0
   -7.7260    4.4655  -18.7422 C   0  0  0  0  0  0  0  0  0  0  0  0
   -6.4517    4.8206  -18.2790 C   0  0  0  0  0  0  0  0  0  0  0  0
   -6.2010    5.0450  -16.9284 C   0  0  0  0  0  0  0  0  0  0  0  0
   -4.8390    5.4047  -16.8678 C   0  0  0  0  0  0  0  0  0  0  0  0
   -4.2555    5.3993  -18.0659 N   0  0  0  0  0  0  0  0  0  0  0  0
   -5.2518    5.0639  -18.9110 N   0  0  0  0  0  0  0  0  0  0  0  0
   -5.0783    5.0292  -20.3733 C   0  0  0  0  0  0  0  0  0  0  0  0
   -4.8428    6.4267  -20.9738 C   0  0  0  0  0  0  0  0  0  0  0  0
   -3.8377    5.8169  -21.8851 N   0  0  0  0  0  0  0  0  0  0  0  0
   -3.6415    4.7502  -20.8612 C   0  0  0  0  0  0  0  0  0  0  0  0
   -3.0155    6.3953  -22.0581 H   0  0  0  0  0  0  0  0  0  0  0  0
  1  2  2  0  0  0
  2  3  1  0  0  0
  5  3  1  0  0  0
  5  6  1  0  0  0
  6  7  1  0  0  0
  7  8  2  0  0  0
  8  9  1  0  0  0
  9 10  1  0  0  0
 10 19  1  0  0  0
 19 20  1  0  0  0
 20 21  1  0  0  0
 20 22  1  0  0  0
 10 11  1  0  0  0
  8 12  1  0  0  0
 13 12  1  0  0  0
 13 14  1  0  0  0
 14 15  1  0  0  0
 15 16  1  0  0  0
 16 17  1  0  0  0
 17 18  2  0  0  0
  2 23  1  0  0  0
 23 24  2  0  0  0
 24 25  1  0  0  0
 25 26  1  0  0  0
 25 27  2  0  0  0
 27 28  1  0  0  0
 28 29  2  0  0  0
 29 30  1  0  0  0
 30 31  2  0  0  0
 31 32  1  0  0  0
 32 33  1  0  0  0
 33 34  1  0  0  0
 34 35  1  0  0  0
 35 36  1  0  0  0
 13  5  1  0  0  0
 29 23  1  0  0  0
 36 33  1  0  0  0
 11  7  1  0  0  0
 17 13  1  0  0  0
 32 28  1  0  0  0
  3  4  1  0  0  0
 35 37  1  0  0  0
M  END
> <minimizedAffinity>
-8.50809

> <minimizedRMSD>
0.44777

$$$$
P28684


 37 42  0  0  0  0  0  0  0  0999 V2000
   -8.1200    4.5491  -13.3897 N   0  0  0  0  0  0  0  0  0  0  0  0
   -7.1310    5.1954  -14.3917 C   0  0  0  0  0  0  0  0  0  0  0  0
   -6.2491    5.9418  -14.2116 O   0  0  0  0  0  0  0  0  0  0  0  0
   -8.7324    3.8868  -13.7841 H   0  0  0  0  0  0  0  0  0  0  0  0
   -9.3395    9.3661  -11.5415 C   0  0  0  0  0  0  0  0  0  0  0  0
   -8.3082    8.2769  -11.2431 C   0  0  0  0  0  0  0  0  0  0  0  0
   -6.8925    8.8258  -11.4622 C   0  0  0  0  0  0  0  0  0  0  0  0
   -8.4912    7.7103   -9.8227 C   0  0  0  0  0  0  0  0  0  0  0  0
   -8.3834    6.2662  -10.1147 C   0  0  0  0  0  0  0  0  0  0  0  0
   -8.3572    5.1940   -9.2649 C   0  0  0  0  0  0  0  0  0  0  0  0
   -8.3582    3.8931   -9.7646 C   0  0  0  0  0  0  0  0  0  0  0  0
   -8.3219    3.6544  -11.1413 C   0  0  0  0  0  0  0  0  0  0  0  0
   -8.2841    4.7531  -12.0180 C   0  0  0  0  0  0  0  0  0  0  0  0
   -8.3676    6.0386  -11.4765 C   0  0  0  0  0  0  0  0  0  0  0  0
   -8.5216    7.2009  -12.1913 O   0  0  0  0  0  0  0  0  0  0  0  0
   -8.4283    2.9363   -8.6033 C   0  0  0  0  0  0  0  0  0  0  0  0
   -8.1812    3.7754   -7.4067 N   0  0  0  0  0  0  0  0  0  0  0  0
   -8.3758    5.1834   -7.7851 C   0  0  0  0  0  0  0  0  0  0  0  0
   -8.9438    3.4102   -6.2090 C   0  0  0  0  0  0  0  0  0  0  0  0
   -8.4015    4.0905   -4.9366 C   0  0  0  0  0  0  0  0  0  0  0  0
   -9.0147    3.5828   -3.8380 F   0  0  0  0  0  0  0  0  0  0  0  0
   -8.6977    5.4216   -4.9141 F   0  0  0  0  0  0  0  0  0  0  0  0
   -7.3544    4.7850  -15.7922 C   0  0  0  0  0  0  0  0  0  0  0  0
   -8.6238    4.4367  -16.2513 C   0  0  0  0  0  0  0  0  0  0  0  0
   -8.8392    4.3213  -17.6202 C   0  0  0  0  0  0  0  0  0  0  0  0
  -10.4346    4.0235  -18.1758 Cl  0  0  0  0  0  0  0  0  0  0  0  0
   -7.8212    4.5371  -18.5623 C   0  0  0  0  0  0  0  0  0  0  0  0
   -6.5448    4.8716  -18.0862 C   0  0  0  0  0  0  0  0  0  0  0  0
   -6.3023    4.9757  -16.7135 C   0  0  0  0  0  0  0  0  0  0  0  0
   -4.9402    5.3214  -16.6103 C   0  0  0  0  0  0  0  0  0  0  0  0
   -4.3497    5.4360  -17.7954 N   0  0  0  0  0  0  0  0  0  0  0  0
   -5.3422    5.2044  -18.6840 N   0  0  0  0  0  0  0  0  0  0  0  0
   -5.0968    5.6086  -20.0810 C   0  0  0  0  0  0  0  0  0  0  0  0
   -5.1156    4.5554  -21.1805 C   0  0  0  0  0  0  0  0  0  0  0  0
   -3.8604    5.1256  -21.7251 N   0  0  0  0  0  0  0  0  0  0  0  0
   -3.5816    5.6810  -20.3796 C   0  0  0  0  0  0  0  0  0  0  0  0
   -3.9958    5.8278  -22.4524 H   0  0  0  0  0  0  0  0  0  0  0  0
  5  6  1  0  0  0
  6  7  1  0  0  0
  6  8  1  0  0  0
  8  9  1  0  0  0
  9 10  2  0  0  0
 10 11  1  0  0  0
 11 12  2  0  0  0
 12 13  1  0  0  0
 13  1  1  0  0  0
  1  2  1  0  0  0
  2  3  2  0  0  0
  2 23  1  0  0  0
 23 24  2  0  0  0
 24 25  1  0  0  0
 25 26  1  0  0  0
 25 27  2  0  0  0
 27 28  1  0  0  0
 28 29  2  0  0  0
 29 30  1  0  0  0
 30 31  2  0  0  0
 31 32  1  0  0  0
 32 33  1  0  0  0
 33 34  1  0  0  0
 34 35  1  0  0  0
 35 36  1  0  0  0
 13 14  2  0  0  0
 14 15  1  0  0  0
 11 16  1  0  0  0
 16 17  1  0  0  0
 17 19  1  0  0  0
 19 20  1  0  0  0
 20 21  1  0  0  0
 20 22  1  0  0  0
 17 18  1  0  0  0
 15  6  1  0  0  0
 14  9  1  0  0  0
 18 10  1  0  0  0
 29 23  1  0  0  0
 36 33  1  0  0  0
 32 28  1  0  0  0
  1  4  1  0  0  0
 35 37  1  0  0  0
M  END
> <minimizedAffinity>
-8.89872

> <minimizedRMSD>
0.67543

$$$$
P28688


 37 42  0  0  0  0  0  0  0  0999 V2000
   -7.5027    4.9714  -15.5962 C   0  0  0  0  0  0  0  0  0  0  0  0
   -8.6732    4.4536  -16.1390 C   0  0  0  0  0  0  0  0  0  0  0  0
   -8.7409    4.2358  -17.5169 C   0  0  0  0  0  0  0  0  0  0  0  0
  -10.2465    3.7988  -18.2056 Cl  0  0  0  0  0  0  0  0  0  0  0  0
   -7.6443    4.4674  -18.3530 C   0  0  0  0  0  0  0  0  0  0  0  0
   -6.4731    4.9601  -17.8019 C   0  0  0  0  0  0  0  0  0  0  0  0
   -6.4226    5.2246  -16.4389 C   0  0  0  0  0  0  0  0  0  0  0  0
   -5.1260    5.8632  -16.0925 C   0  0  0  0  0  0  0  0  0  0  0  0
   -4.3365    5.8494  -17.4544 C   0  0  0  0  0  0  0  0  0  0  0  0
   -3.0813    4.9500  -17.2847 C   0  0  0  0  0  0  0  0  0  0  0  0
   -1.7968    5.7375  -16.9948 C   0  0  0  0  0  0  0  0  0  0  0  0
   -2.0468    6.9553  -16.1183 C   0  0  0  0  0  0  0  0  0  0  0  0
   -3.0030    7.9478  -16.7742 C   0  0  0  0  0  0  0  0  0  0  0  0
   -3.9456    7.3054  -17.7977 C   0  0  0  0  0  0  0  0  0  0  0  0
   -5.2717    5.2818  -18.4773 N   0  0  0  0  0  0  0  0  0  0  0  0
   -5.0622    5.1137  -19.8964 C   0  0  0  0  0  0  0  0  0  0  0  0
   -4.9847    6.4174  -20.7161 C   0  0  0  0  0  0  0  0  0  0  0  0
   -3.9427    5.7872  -21.5679 N   0  0  0  0  0  0  0  0  0  0  0  0
   -3.6487    4.8513  -20.4518 C   0  0  0  0  0  0  0  0  0  0  0  0
   -3.1696    6.4051  -21.8146 H   0  0  0  0  0  0  0  0  0  0  0  0
   -7.0710    6.5407  -14.0197 O   0  0  0  0  0  0  0  0  0  0  0  0
   -7.4911    5.4657  -14.2016 C   0  0  0  0  0  0  0  0  0  0  0  0
   -8.0918    4.4428  -13.2089 N   0  0  0  0  0  0  0  0  0  0  0  0
   -8.4490    3.6253  -13.6252 H   0  0  0  0  0  0  0  0  0  0  0  0
   -8.2099    4.4903  -11.8194 C   0  0  0  0  0  0  0  0  0  0  0  0
   -8.1075    5.7320  -11.1665 C   0  0  0  0  0  0  0  0  0  0  0  0
   -8.2014    5.8287   -9.7806 C   0  0  0  0  0  0  0  0  0  0  0  0
   -8.3842    4.6647   -9.0640 C   0  0  0  0  0  0  0  0  0  0  0  0
   -8.4908    3.4223   -9.6965 C   0  0  0  0  0  0  0  0  0  0  0  0
   -8.4191    3.3186  -11.0810 C   0  0  0  0  0  0  0  0  0  0  0  0
   -8.6767    2.3590   -8.6465 C   0  0  0  0  0  0  0  0  0  0  0  0
   -8.3481    3.0603   -7.3884 N   0  0  0  0  0  0  0  0  0  0  0  0
   -8.4978    4.4972   -7.5873 C   0  0  0  0  0  0  0  0  0  0  0  0
   -8.9095    2.5278   -6.1529 C   0  0  0  0  0  0  0  0  0  0  0  0
  -10.3372    2.0013   -6.1892 C   0  0  0  0  0  0  0  0  0  0  0  0
  -10.9190    2.1279   -4.9697 F   0  0  0  0  0  0  0  0  0  0  0  0
  -10.3234    0.6819   -6.4781 F   0  0  0  0  0  0  0  0  0  0  0  0
 21 22  2  0  0  0
 22 23  1  0  0  0
 23 25  1  0  0  0
 25 26  2  0  0  0
 26 27  1  0  0  0
 27 28  2  0  0  0
 28 29  1  0  0  0
 29 30  2  0  0  0
 29 31  1  0  0  0
 31 32  1  0  0  0
 32 34  1  0  0  0
 34 35  1  0  0  0
 35 36  1  0  0  0
 35 37  1  0  0  0
 32 33  1  0  0  0
 22  1  1  0  0  0
  1  2  2  0  0  0
  2  3  1  0  0  0
  3  4  1  0  0  0
  3  5  2  0  0  0
  5  6  1  0  0  0
  6  7  2  0  0  0
  7  8  1  0  0  0
  8  9  1  0  0  0
  9 10  1  0  0  0
 10 11  1  0  0  0
 11 12  1  0  0  0
 12 13  1  0  0  0
 13 14  1  0  0  0
  9 15  1  0  0  0
 15 16  1  0  0  0
 16 17  1  0  0  0
 17 18  1  0  0  0
 18 19  1  0  0  0
 30 25  1  0  0  0
  7  1  1  0  0  0
 14  9  1  0  0  0
 19 16  1  0  0  0
 33 28  1  0  0  0
 15  6  1  0  0  0
 23 24  1  0  0  0
 18 20  1  0  0  0
M  END
> <minimizedAffinity>
-9.58099

> <minimizedRMSD>
0.35950

$$$$
P28689


 40 46  0  0  0  0  0  0  0  0999 V2000
   -7.5294    5.0829  -15.1153 C   0  0  0  0  0  0  0  0  0  0  0  0
   -8.6053    4.4536  -15.7424 C   0  0  0  0  0  0  0  0  0  0  0  0
   -8.5331    4.1917  -17.1130 C   0  0  0  0  0  0  0  0  0  0  0  0
   -9.9092    3.5651  -17.9163 Cl  0  0  0  0  0  0  0  0  0  0  0  0
   -7.3842    4.4818  -17.8524 C   0  0  0  0  0  0  0  0  0  0  0  0
   -6.3040    5.0614  -17.2109 C   0  0  0  0  0  0  0  0  0  0  0  0
   -6.4031    5.4021  -15.8656 C   0  0  0  0  0  0  0  0  0  0  0  0
   -5.1949    6.1917  -15.4577 C   0  0  0  0  0  0  0  0  0  0  0  0
   -4.2244    5.9924  -16.6707 C   0  0  0  0  0  0  0  0  0  0  0  0
   -3.0652    5.0706  -16.2433 C   0  0  0  0  0  0  0  0  0  0  0  0
   -2.1089    5.7623  -15.2656 C   0  0  0  0  0  0  0  0  0  0  0  0
   -1.5712    6.9983  -15.8139 N   0  0  0  0  0  0  0  0  0  0  0  0
   -2.6309    7.9321  -16.2033 C   0  0  0  0  0  0  0  0  0  0  0  0
   -3.6251    7.3223  -17.2113 C   0  0  0  0  0  0  0  0  0  0  0  0
   -2.9433    7.2131  -18.4884 O   0  0  0  0  0  0  0  0  0  0  0  0
   -3.3860    6.1755  -19.3727 C   0  0  0  0  0  0  0  0  0  0  0  0
   -3.4678    6.7070  -20.7473 N   0  0  0  0  0  0  0  0  0  0  0  0
   -4.7782    7.3744  -20.8165 C   0  0  0  0  0  0  0  0  0  0  0  0
   -5.6068    6.8694  -19.6440 C   0  0  0  0  0  0  0  0  0  0  0  0
   -4.8212    5.6820  -19.1231 C   0  0  0  0  0  0  0  0  0  0  0  0
   -5.0547    5.3533  -17.7284 N   0  0  0  0  0  0  0  0  0  0  0  0
   -1.0089    6.7769  -16.6356 H   0  0  0  0  0  0  0  0  0  0  0  0
   -3.4139    5.9500  -21.4288 H   0  0  0  0  0  0  0  0  0  0  0  0
   -7.4294    6.6430  -13.4575 O   0  0  0  0  0  0  0  0  0  0  0  0
   -7.6340    5.5201  -13.7053 C   0  0  0  0  0  0  0  0  0  0  0  0
   -8.0480    4.3494  -12.7837 N   0  0  0  0  0  0  0  0  0  0  0  0
   -8.2354    3.5034  -13.2510 H   0  0  0  0  0  0  0  0  0  0  0  0
   -8.1988    4.2972  -11.4000 C   0  0  0  0  0  0  0  0  0  0  0  0
   -7.9546    5.4346  -10.6147 C   0  0  0  0  0  0  0  0  0  0  0  0
   -8.1095    5.3923   -9.2293 C   0  0  0  0  0  0  0  0  0  0  0  0
   -8.5150    4.2025   -8.6545 C   0  0  0  0  0  0  0  0  0  0  0  0
   -8.7563    3.0717   -9.4230 C   0  0  0  0  0  0  0  0  0  0  0  0
   -8.6040    3.0991  -10.8015 C   0  0  0  0  0  0  0  0  0  0  0  0
   -9.1753    1.9432   -8.5341 C   0  0  0  0  0  0  0  0  0  0  0  0
   -9.2179    2.5047   -7.1527 N   0  0  0  0  0  0  0  0  0  0  0  0
   -8.8047    3.9153   -7.2213 C   0  0  0  0  0  0  0  0  0  0  0  0
  -10.5175    2.2559   -6.5136 C   0  0  0  0  0  0  0  0  0  0  0  0
  -10.8671    3.0579   -5.2580 C   0  0  0  0  0  0  0  0  0  0  0  0
  -11.9769    2.5262   -4.6768 F   0  0  0  0  0  0  0  0  0  0  0  0
  -11.2120    4.3380   -5.5751 F   0  0  0  0  0  0  0  0  0  0  0  0
 24 25  2  0  0  0
 25 26  1  0  0  0
 26 28  1  0  0  0
 28 29  2  0  0  0
 29 30  1  0  0  0
 30 31  2  0  0  0
 31 32  1  0  0  0
 32 33  2  0  0  0
 32 34  1  0  0  0
 34 35  1  0  0  0
 35 37  1  0  0  0
 37 38  1  0  0  0
 38 39  1  0  0  0
 38 40  1  0  0  0
 35 36  1  0  0  0
 25  1  1  0  0  0
  1  2  2  0  0  0
  2  3  1  0  0  0
  3  4  1  0  0  0
  3  5  2  0  0  0
  5  6  1  0  0  0
  6  7  2  0  0  0
  7  8  1  0  0  0
  9  8  1  0  0  0
  9 10  1  0  0  0
 10 11  1  0  0  0
 11 12  1  0  0  0
 12 13  1  0  0  0
 14 13  1  0  0  0
 14 15  1  0  0  0
 15 16  1  0  0  0
 16 17  1  0  0  0
 17 18  1  0  0  0
 18 19  1  0  0  0
 20 19  1  0  0  0
 20 21  1  0  0  0
 33 28  1  0  0  0
  7  1  1  0  0  0
 14  9  1  0  0  0
 20 16  1  0  0  0
 36 31  1  0  0  0
 21  6  1  0  0  0
 21  9  1  0  0  0
 26 27  1  0  0  0
 12 22  1  0  0  0
 17 23  1  0  0  0
M  END
> <minimizedAffinity>
-10.41468

> <minimizedRMSD>
0.17792

$$$$
P28690


 34 38  0  0  0  0  0  0  0  0999 V2000
   -5.2678    5.1136  -18.2162 N   0  0  0  0  0  0  0  0  0  0  0  0
   -4.3423    5.5020  -17.3175 N   0  0  0  0  0  0  0  0  0  0  0  0
   -5.0193    5.5731  -16.1722 C   0  0  0  0  0  0  0  0  0  0  0  0
   -6.3718    5.2039  -16.3185 C   0  0  0  0  0  0  0  0  0  0  0  0
   -7.4870    5.1004  -15.4734 C   0  0  0  0  0  0  0  0  0  0  0  0
   -8.7211    4.6832  -16.0065 C   0  0  0  0  0  0  0  0  0  0  0  0
   -8.8238    4.3678  -17.3599 C   0  0  0  0  0  0  0  0  0  0  0  0
  -10.3485    3.9459  -18.0314 Cl  0  0  0  0  0  0  0  0  0  0  0  0
   -7.7250    4.4551  -18.2154 C   0  0  0  0  0  0  0  0  0  0  0  0
   -6.5090    4.8846  -17.6667 C   0  0  0  0  0  0  0  0  0  0  0  0
   -3.6630    5.9948  -21.0243 N   0  0  0  0  0  0  0  0  0  0  0  0
   -4.8353    6.4756  -20.2526 C   0  0  0  0  0  0  0  0  0  0  0  0
   -5.0137    5.0645  -19.6641 C   0  0  0  0  0  0  0  0  0  0  0  0
   -3.5527    4.8391  -20.0891 C   0  0  0  0  0  0  0  0  0  0  0  0
   -4.0600    5.5578  -22.3673 C   0  0  0  0  0  0  0  0  0  0  0  0
   -1.8958    4.7632  -23.4628 C   0  0  0  0  0  0  0  0  0  0  0  0
   -2.9744    5.8358  -23.4152 C   0  0  0  0  0  0  0  0  0  0  0  0
   -7.3451    5.5124  -14.0541 C   0  0  0  0  0  0  0  0  0  0  0  0
   -7.1929    6.6396  -13.7997 O   0  0  0  0  0  0  0  0  0  0  0  0
   -7.5214    4.2964  -13.1293 N   0  0  0  0  0  0  0  0  0  0  0  0
   -7.5570    3.4284  -13.5924 H   0  0  0  0  0  0  0  0  0  0  0  0
   -7.6385    4.2232  -11.7483 C   0  0  0  0  0  0  0  0  0  0  0  0
   -7.4701    2.9442  -11.2019 C   0  0  0  0  0  0  0  0  0  0  0  0
   -7.8219    2.6795   -9.8941 C   0  0  0  0  0  0  0  0  0  0  0  0
   -8.2979    3.7317   -9.1589 C   0  0  0  0  0  0  0  0  0  0  0  0
   -8.2441    5.0448   -9.6018 C   0  0  0  0  0  0  0  0  0  0  0  0
   -7.9827    5.3081  -10.9348 C   0  0  0  0  0  0  0  0  0  0  0  0
   -8.5237    5.9214   -8.4079 C   0  0  0  0  0  0  0  0  0  0  0  0
   -8.6116    4.9927   -7.2053 N   0  0  0  0  0  0  0  0  0  0  0  0
   -8.9674    3.7238   -7.8435 C   0  0  0  0  0  0  0  0  0  0  0  0
   -7.2971    4.7780   -6.5501 C   0  0  0  0  0  0  0  0  0  0  0  0
   -7.2440    4.6572   -4.9959 C   0  0  0  0  0  0  0  0  0  0  0  0
   -8.3548    5.1923   -4.4241 F   0  0  0  0  0  0  0  0  0  0  0  0
   -7.2077    3.3511   -4.6248 F   0  0  0  0  0  0  0  0  0  0  0  0
 16 17  1  0  0  0
 17 15  1  0  0  0
 15 11  1  0  0  0
 11 12  1  0  0  0
 12 13  1  0  0  0
 13  1  1  0  0  0
  1  2  1  0  0  0
  2  3  2  0  0  0
  3  4  1  0  0  0
  4  5  2  0  0  0
  5 18  1  0  0  0
 18 19  2  0  0  0
 18 20  1  0  0  0
 20 22  1  0  0  0
 22 23  2  0  0  0
 23 24  1  0  0  0
 24 25  2  0  0  0
 25 26  1  0  0  0
 26 27  2  0  0  0
 26 28  1  0  0  0
 28 29  1  0  0  0
 29 31  1  0  0  0
 31 32  1  0  0  0
 32 33  1  0  0  0
 32 34  1  0  0  0
 29 30  1  0  0  0
  5  6  1  0  0  0
  6  7  2  0  0  0
  7  8  1  0  0  0
  7  9  1  0  0  0
  9 10  2  0  0  0
 13 14  1  0  0  0
 14 11  1  0  0  0
 10  1  1  0  0  0
 10  4  1  0  0  0
 27 22  1  0  0  0
 30 25  1  0  0  0
 20 21  1  0  0  0
M  END
> <minimizedAffinity>
-7.61341

> <minimizedRMSD>
1.31681

$$$$
P28696


 36 40  0  0  0  0  0  0  0  0999 V2000
   -5.2801    5.1566  -18.5434 N   0  0  0  0  0  0  0  0  0  0  0  0
   -4.3160    5.3552  -17.6198 N   0  0  0  0  0  0  0  0  0  0  0  0
   -4.9518    5.2556  -16.4576 C   0  0  0  0  0  0  0  0  0  0  0  0
   -6.3297    4.9718  -16.5989 C   0  0  0  0  0  0  0  0  0  0  0  0
   -7.4096    4.7718  -15.6920 C   0  0  0  0  0  0  0  0  0  0  0  0
   -8.6695    4.5031  -16.2743 C   0  0  0  0  0  0  0  0  0  0  0  0
   -8.8426    4.4257  -17.6505 C   0  0  0  0  0  0  0  0  0  0  0  0
  -10.4073    4.1818  -18.3085 Cl  0  0  0  0  0  0  0  0  0  0  0  0
   -7.7793    4.6116  -18.5248 C   0  0  0  0  0  0  0  0  0  0  0  0
   -6.5221    4.8990  -17.9816 C   0  0  0  0  0  0  0  0  0  0  0  0
   -5.7794    4.5110  -21.0009 N   0  0  0  0  0  0  0  0  0  0  0  0
   -4.9821    5.2772  -20.0030 C   0  0  0  0  0  0  0  0  0  0  0  0
   -4.8486    6.7505  -20.4625 C   0  0  0  0  0  0  0  0  0  0  0  0
   -3.7078    6.3467  -21.3343 N   0  0  0  0  0  0  0  0  0  0  0  0
   -3.4810    5.2015  -20.3954 C   0  0  0  0  0  0  0  0  0  0  0  0
   -6.7676    4.5544  -20.7522 H   0  0  0  0  0  0  0  0  0  0  0  0
   -5.4726    3.5382  -21.0066 H   0  0  0  0  0  0  0  0  0  0  0  0
   -2.9439    7.0213  -21.3749 H   0  0  0  0  0  0  0  0  0  0  0  0
   -7.2157    4.8302  -14.1711 C   0  0  0  0  0  0  0  0  0  0  0  0
   -6.3122    5.9839  -13.7856 N   0  0  0  0  0  0  0  0  0  0  0  0
   -6.7629    7.0954  -14.0901 O   0  0  0  0  0  0  0  0  0  0  0  0
   -8.5032    4.8014  -13.4449 N   0  0  0  0  0  0  0  0  0  0  0  0
   -9.3700    4.7911  -13.9117 H   0  0  0  0  0  0  0  0  0  0  0  0
   -8.4051    4.7894  -12.0353 C   0  0  0  0  0  0  0  0  0  0  0  0
   -8.2136    6.0017  -11.3378 C   0  0  0  0  0  0  0  0  0  0  0  0
   -8.1216    6.0420   -9.9487 C   0  0  0  0  0  0  0  0  0  0  0  0
   -8.2296    4.8503   -9.2663 C   0  0  0  0  0  0  0  0  0  0  0  0
   -8.4087    3.6387   -9.9350 C   0  0  0  0  0  0  0  0  0  0  0  0
   -8.4932    3.5887  -11.3172 C   0  0  0  0  0  0  0  0  0  0  0  0
   -8.5217    2.5346   -8.9273 C   0  0  0  0  0  0  0  0  0  0  0  0
   -8.0768    3.1655   -7.6677 N   0  0  0  0  0  0  0  0  0  0  0  0
   -8.2322    4.6175   -7.7948 C   0  0  0  0  0  0  0  0  0  0  0  0
   -8.6260    2.6146   -6.4319 C   0  0  0  0  0  0  0  0  0  0  0  0
  -10.0978    2.2085   -6.4237 C   0  0  0  0  0  0  0  0  0  0  0  0
  -10.8626    3.2091   -6.9213 F   0  0  0  0  0  0  0  0  0  0  0  0
  -10.5289    2.0267   -5.1492 F   0  0  0  0  0  0  0  0  0  0  0  0
 11 12  1  0  0  0
 12  1  1  0  0  0
  1  2  1  0  0  0
  2  3  2  0  0  0
  3  4  1  0  0  0
  4  5  2  0  0  0
  5 19  1  0  0  0
 19 20  1  0  0  0
 20 21  2  0  0  0
 19 22  1  0  0  0
 22 24  1  0  0  0
 24 25  2  0  0  0
 25 26  1  0  0  0
 26 27  2  0  0  0
 27 28  1  0  0  0
 28 29  2  0  0  0
 28 30  1  0  0  0
 30 31  1  0  0  0
 31 33  1  0  0  0
 33 34  1  0  0  0
 34 35  1  0  0  0
 34 36  1  0  0  0
 31 32  1  0  0  0
  5  6  1  0  0  0
  6  7  2  0  0  0
  7  8  1  0  0  0
  7  9  1  0  0  0
  9 10  2  0  0  0
 12 13  1  0  0  0
 13 14  1  0  0  0
 14 15  1  0  0  0
 15 12  1  0  0  0
 10  1  1  0  0  0
 10  4  1  0  0  0
 29 24  1  0  0  0
 32 27  1  0  0  0
 11 16  1  0  0  0
 11 17  1  0  0  0
 22 23  1  0  0  0
 14 18  1  0  0  0
M  END
> <minimizedAffinity>
-8.47832

> <minimizedRMSD>
0.28791

$$$$
P28704


 41 45  0  0  0  0  0  0  0  0999 V2000
   -6.5422    5.1660  -17.9558 C   0  0  0  0  0  0  0  0  0  0  0  0
   -7.8279    4.7828  -18.3593 C   0  0  0  0  0  0  0  0  0  0  0  0
   -8.7897    4.3664  -17.4377 C   0  0  0  0  0  0  0  0  0  0  0  0
  -10.3783    4.0234  -17.9852 Cl  0  0  0  0  0  0  0  0  0  0  0  0
   -8.5137    4.3519  -16.0783 C   0  0  0  0  0  0  0  0  0  0  0  0
   -7.2611    4.7822  -15.6460 C   0  0  0  0  0  0  0  0  0  0  0  0
   -6.2809    5.1725  -16.5724 C   0  0  0  0  0  0  0  0  0  0  0  0
   -4.0998    6.6169  -21.3351 C   0  0  0  0  0  0  0  0  0  0  0  0
   -3.7968    5.2745  -20.6286 C   0  0  0  0  0  0  0  0  0  0  0  0
   -4.9581    4.7035  -19.9197 N   0  0  0  0  0  0  0  0  0  0  0  0
   -5.9587    4.3345  -20.9139 N   0  0  0  0  0  0  0  0  0  0  0  0
   -5.4711    5.6801  -18.9222 C   0  0  0  0  0  0  0  0  0  0  0  0
   -5.8527    7.0330  -19.5656 C   0  0  0  0  0  0  0  0  0  0  0  0
   -4.6728    7.6903  -20.3594 C   0  0  0  0  0  0  0  0  0  0  0  0
   -3.6108    8.2089  -19.3404 C   0  0  0  0  0  0  0  0  0  0  0  0
   -3.1209    9.6237  -19.6483 C   0  0  0  0  0  0  0  0  0  0  0  0
   -4.1985   10.6061  -19.6936 N   0  0  0  0  0  0  0  0  0  0  0  0
   -5.4276   10.1276  -20.3217 C   0  0  0  0  0  0  0  0  0  0  0  0
   -5.2238    8.8857  -21.1855 C   0  0  0  0  0  0  0  0  0  0  0  0
   -5.5554    3.6657  -21.5701 H   0  0  0  0  0  0  0  0  0  0  0  0
   -6.2591    5.1679  -21.4194 H   0  0  0  0  0  0  0  0  0  0  0  0
   -3.8684   11.4174  -20.2163 H   0  0  0  0  0  0  0  0  0  0  0  0
   -1.0386    7.2450  -23.6265 C   0  0  0  0  0  0  0  0  0  0  0  0
   -2.2829    6.4275  -23.3589 C   0  0  0  0  0  0  0  0  0  0  0  0
   -2.6261    5.5381  -24.0316 O   0  0  0  0  0  0  0  0  0  0  0  0
   -2.9351    7.0387  -22.0921 N   0  0  0  0  0  0  0  0  0  0  0  0
   -2.4867    7.8433  -21.7447 H   0  0  0  0  0  0  0  0  0  0  0  0
   -7.0291    5.0413  -14.2013 C   0  0  0  0  0  0  0  0  0  0  0  0
   -6.1895    5.8001  -13.9113 O   0  0  0  0  0  0  0  0  0  0  0  0
   -8.0513    4.2921  -13.3171 N   0  0  0  0  0  0  0  0  0  0  0  0
   -8.7135    3.7592  -13.8138 H   0  0  0  0  0  0  0  0  0  0  0  0
   -8.1882    4.2480  -11.9316 C   0  0  0  0  0  0  0  0  0  0  0  0
   -8.3902    3.0042  -11.3132 C   0  0  0  0  0  0  0  0  0  0  0  0
   -8.5164    2.9039   -9.9244 C   0  0  0  0  0  0  0  0  0  0  0  0
   -8.4604    4.0656   -9.1788 C   0  0  0  0  0  0  0  0  0  0  0  0
   -8.2804    5.3012   -9.7893 C   0  0  0  0  0  0  0  0  0  0  0  0
   -8.1332    5.4121  -11.1633 C   0  0  0  0  0  0  0  0  0  0  0  0
   -8.2255    6.3635   -8.7473 C   0  0  0  0  0  0  0  0  0  0  0  0
   -8.6222    5.7099   -7.4699 N   0  0  0  0  0  0  0  0  0  0  0  0
   -8.5106    4.2408   -7.7005 C   0  0  0  0  0  0  0  0  0  0  0  0
   -9.5819    5.9579   -7.2292 H   0  0  0  0  0  0  0  0  0  0  0  0
 23 24  1  0  0  0
 24 25  2  0  0  0
 24 26  1  0  0  0
  8 26  1  0  0  0
  8  9  1  0  0  0
  9 10  1  0  0  0
 10 11  1  0  0  0
 10 12  1  0  0  0
 12  1  1  0  0  0
  1  2  2  0  0  0
  2  3  1  0  0  0
  3  4  1  0  0  0
  3  5  2  0  0  0
  5  6  1  0  0  0
  6 28  1  0  0  0
 28 29  2  0  0  0
 28 30  1  0  0  0
 30 32  1  0  0  0
 32 33  2  0  0  0
 33 34  1  0  0  0
 34 35  2  0  0  0
 35 36  1  0  0  0
 36 37  2  0  0  0
 36 38  1  0  0  0
 38 39  1  0  0  0
 39 40  1  0  0  0
  6  7  2  0  0  0
 12 13  1  0  0  0
 13 14  1  0  0  0
 14 15  1  0  0  0
 15 16  1  0  0  0
 16 17  1  0  0  0
 17 18  1  0  0  0
 18 19  1  0  0  0
 14  8  1  0  0  0
  7  1  1  0  0  0
 19 14  1  0  0  0
 37 32  1  0  0  0
 40 35  1  0  0  0
 26 27  1  0  0  0
 11 20  1  0  0  0
 11 21  1  0  0  0
 30 31  1  0  0  0
 39 41  1  0  0  0
 17 22  1  0  0  0
M  END
> <minimizedAffinity>
-9.01263

> <minimizedRMSD>
0.54639

$$$$
P28722


 41 46  0  0  0  0  0  0  0  0999 V2000
   -8.1278    5.2720  -15.0704 C   0  0  0  0  0  0  0  0  0  0  0  0
   -9.2074    4.7648  -15.8260 C   0  0  0  0  0  0  0  0  0  0  0  0
   -9.0818    4.4958  -17.1918 C   0  0  0  0  0  0  0  0  0  0  0  0
  -10.3896    4.0951  -18.1787 Cl  0  0  0  0  0  0  0  0  0  0  0  0
   -7.8061    4.6604  -17.7647 C   0  0  0  0  0  0  0  0  0  0  0  0
   -7.3385    4.4108  -18.9923 N   0  0  0  0  0  0  0  0  0  0  0  0
   -6.0567    4.7840  -18.9689 N   0  0  0  0  0  0  0  0  0  0  0  0
   -5.5872    5.2100  -17.7411 C   0  0  0  0  0  0  0  0  0  0  0  0
   -6.7198    5.1767  -16.9493 C   0  0  0  0  0  0  0  0  0  0  0  0
   -6.8463    5.5332  -15.6020 C   0  0  0  0  0  0  0  0  0  0  0  0
   -5.4858    4.7575  -19.7705 H   0  0  0  0  0  0  0  0  0  0  0  0
   -8.4585    6.8030  -13.4185 O   0  0  0  0  0  0  0  0  0  0  0  0
   -8.3554    5.6643  -13.6595 C   0  0  0  0  0  0  0  0  0  0  0  0
   -8.3984    4.4330  -12.7233 N   0  0  0  0  0  0  0  0  0  0  0  0
   -8.3628    3.5636  -13.1839 H   0  0  0  0  0  0  0  0  0  0  0  0
   -8.4793    4.3545  -11.3332 C   0  0  0  0  0  0  0  0  0  0  0  0
   -8.2078    5.4778  -10.5342 C   0  0  0  0  0  0  0  0  0  0  0  0
   -8.2719    5.4019   -9.1398 C   0  0  0  0  0  0  0  0  0  0  0  0
   -8.6202    4.1940   -8.5681 C   0  0  0  0  0  0  0  0  0  0  0  0
   -8.8878    3.0765   -9.3530 C   0  0  0  0  0  0  0  0  0  0  0  0
   -8.8163    3.1354  -10.7369 C   0  0  0  0  0  0  0  0  0  0  0  0
   -9.2159    1.9287   -8.4534 C   0  0  0  0  0  0  0  0  0  0  0  0
   -9.4993    2.5433   -7.1284 N   0  0  0  0  0  0  0  0  0  0  0  0
   -8.7685    3.8271   -7.1300 C   0  0  0  0  0  0  0  0  0  0  0  0
   -9.1632    1.9418   -6.3763 H   0  0  0  0  0  0  0  0  0  0  0  0
   -4.1327    5.5762  -17.6154 C   0  0  0  0  0  0  0  0  0  0  0  0
   -3.4312    5.3748  -16.2444 C   0  0  0  0  0  0  0  0  0  0  0  0
   -3.6049    6.6092  -15.3366 C   0  0  0  0  0  0  0  0  0  0  0  0
   -3.0561    6.3898  -13.9300 C   0  0  0  0  0  0  0  0  0  0  0  0
   -3.5486    5.1429  -13.3576 N   0  0  0  0  0  0  0  0  0  0  0  0
   -3.0911    3.9964  -14.1367 C   0  0  0  0  0  0  0  0  0  0  0  0
   -3.6794    4.0306  -15.5440 C   0  0  0  0  0  0  0  0  0  0  0  0
   -4.5685    5.1576  -13.3522 H   0  0  0  0  0  0  0  0  0  0  0  0
   -3.4690    4.8105  -18.6419 O   0  0  0  0  0  0  0  0  0  0  0  0
   -2.2052    5.3229  -19.0600 C   0  0  0  0  0  0  0  0  0  0  0  0
   -2.1838    5.8725  -20.4675 C   0  0  0  0  0  0  0  0  0  0  0  0
   -1.0494    5.6379  -21.2635 C   0  0  0  0  0  0  0  0  0  0  0  0
   -0.9594    6.1578  -22.5560 C   0  0  0  0  0  0  0  0  0  0  0  0
   -1.9960    6.9328  -23.0673 C   0  0  0  0  0  0  0  0  0  0  0  0
   -3.1178    7.1915  -22.2841 C   0  0  0  0  0  0  0  0  0  0  0  0
   -3.2083    6.6709  -20.9901 C   0  0  0  0  0  0  0  0  0  0  0  0
 12 13  2  0  0  0
 13 14  1  0  0  0
 14 16  1  0  0  0
 16 17  2  0  0  0
 17 18  1  0  0  0
 18 19  2  0  0  0
 19 20  1  0  0  0
 20 21  2  0  0  0
 20 22  1  0  0  0
 22 23  1  0  0  0
 23 24  1  0  0  0
 13  1  1  0  0  0
  1  2  1  0  0  0
  2  3  2  0  0  0
  3  4  1  0  0  0
  3  5  1  0  0  0
  5  6  2  0  0  0
  6  7  1  0  0  0
  7  8  1  0  0  0
  8 26  1  0  0  0
 26 34  1  0  0  0
 34 35  1  0  0  0
 35 36  1  0  0  0
 36 37  2  0  0  0
 37 38  1  0  0  0
 38 39  2  0  0  0
 39 40  1  0  0  0
 40 41  2  0  0  0
 26 27  1  0  0  0
 27 28  1  0  0  0
 28 29  1  0  0  0
 29 30  1  0  0  0
 30 31  1  0  0  0
 31 32  1  0  0  0
  8  9  2  0  0  0
  9 10  1  0  0  0
 21 16  1  0  0  0
 10  1  2  0  0  0
 24 19  1  0  0  0
  9  5  1  0  0  0
 41 36  1  0  0  0
 32 27  1  0  0  0
 14 15  1  0  0  0
 23 25  1  0  0  0
  7 11  1  0  0  0
 30 33  1  0  0  0
M  END
> <minimizedAffinity>
-8.29436

> <minimizedRMSD>
0.48928

$$$$
P28738


 38 43  0  0  0  0  0  0  0  0999 V2000
   -7.4012    4.9361  -15.3695 C   0  0  0  0  0  0  0  0  0  0  0  0
   -8.6960    4.6575  -15.8885 C   0  0  0  0  0  0  0  0  0  0  0  0
   -8.9166    4.4718  -17.2592 C   0  0  0  0  0  0  0  0  0  0  0  0
  -10.4494    4.3289  -17.9474 Cl  0  0  0  0  0  0  0  0  0  0  0  0
   -7.7858    4.5236  -18.0950 C   0  0  0  0  0  0  0  0  0  0  0  0
   -7.6142    4.3130  -19.4105 N   0  0  0  0  0  0  0  0  0  0  0  0
   -6.3426    4.6675  -19.6624 N   0  0  0  0  0  0  0  0  0  0  0  0
   -5.5976    4.9307  -18.5389 C   0  0  0  0  0  0  0  0  0  0  0  0
   -6.5014    4.8354  -17.5108 C   0  0  0  0  0  0  0  0  0  0  0  0
   -6.2351    5.0609  -16.1621 C   0  0  0  0  0  0  0  0  0  0  0  0
   -5.9765    4.7329  -20.5739 H   0  0  0  0  0  0  0  0  0  0  0  0
   -6.4014    5.9364  -13.5792 O   0  0  0  0  0  0  0  0  0  0  0  0
   -7.2615    5.2231  -13.9200 C   0  0  0  0  0  0  0  0  0  0  0  0
   -8.3131    4.4513  -13.0882 N   0  0  0  0  0  0  0  0  0  0  0  0
   -8.9877    3.9706  -13.6204 H   0  0  0  0  0  0  0  0  0  0  0  0
   -8.4608    4.3258  -11.7095 C   0  0  0  0  0  0  0  0  0  0  0  0
   -8.6791    3.0484  -11.1675 C   0  0  0  0  0  0  0  0  0  0  0  0
   -8.7381    2.8549   -9.7841 C   0  0  0  0  0  0  0  0  0  0  0  0
   -8.6018    3.9604   -8.9678 C   0  0  0  0  0  0  0  0  0  0  0  0
   -8.4228    5.2310   -9.5037 C   0  0  0  0  0  0  0  0  0  0  0  0
   -8.3442    5.4340  -10.8708 C   0  0  0  0  0  0  0  0  0  0  0  0
   -8.2707    6.2143   -8.3969 C   0  0  0  0  0  0  0  0  0  0  0  0
   -8.6733    5.4939   -7.1602 N   0  0  0  0  0  0  0  0  0  0  0  0
   -8.5497    4.0409   -7.4814 C   0  0  0  0  0  0  0  0  0  0  0  0
   -9.6359    5.7228   -6.9126 H   0  0  0  0  0  0  0  0  0  0  0  0
   -4.1404    5.2497  -18.6025 C   0  0  0  0  0  0  0  0  0  0  0  0
   -3.7562    6.6849  -19.0990 C   0  0  0  0  0  0  0  0  0  0  0  0
   -2.2310    6.8314  -18.8214 C   0  0  0  0  0  0  0  0  0  0  0  0
   -1.5370    8.1205  -19.2566 C   0  0  0  0  0  0  0  0  0  0  0  0
   -1.1458    8.1246  -20.6611 N   0  0  0  0  0  0  0  0  0  0  0  0
   -2.2779    8.1749  -21.5832 C   0  0  0  0  0  0  0  0  0  0  0  0
   -3.1813    6.9276  -21.5473 C   0  0  0  0  0  0  0  0  0  0  0  0
   -4.1918    6.8430  -20.5007 N   0  0  0  0  0  0  0  0  0  0  0  0
   -5.1889    7.8982  -20.5404 C   0  0  0  0  0  0  0  0  0  0  0  0
   -4.9333    8.7525  -19.3878 N   0  0  0  0  0  0  0  0  0  0  0  0
   -4.5601    7.7769  -18.3503 C   0  0  0  0  0  0  0  0  0  0  0  0
   -0.6134    7.2753  -20.8501 H   0  0  0  0  0  0  0  0  0  0  0  0
   -5.7690    9.2732  -19.1216 H   0  0  0  0  0  0  0  0  0  0  0  0
 12 13  2  0  0  0
 13 14  1  0  0  0
 14 16  1  0  0  0
 16 17  2  0  0  0
 17 18  1  0  0  0
 18 19  2  0  0  0
 19 20  1  0  0  0
 20 21  2  0  0  0
 20 22  1  0  0  0
 22 23  1  0  0  0
 23 24  1  0  0  0
 13  1  1  0  0  0
  1  2  1  0  0  0
  2  3  2  0  0  0
  3  4  1  0  0  0
  3  5  1  0  0  0
  5  6  2  0  0  0
  6  7  1  0  0  0
  7  8  1  0  0  0
  8 26  1  0  0  0
 27 26  1  0  0  0
 27 28  1  0  0  0
 28 29  1  0  0  0
 29 30  1  0  0  0
 30 31  1  0  0  0
 31 32  1  0  0  0
 32 33  1  0  0  0
 33 34  1  0  0  0
 34 35  1  0  0  0
 35 36  1  0  0  0
  8  9  2  0  0  0
  9 10  1  0  0  0
 21 16  1  0  0  0
 10  1  2  0  0  0
 24 19  1  0  0  0
  9  5  1  0  0  0
 33 27  1  0  0  0
 36 27  1  0  0  0
 14 15  1  0  0  0
 23 25  1  0  0  0
  7 11  1  0  0  0
 30 37  1  0  0  0
 35 38  1  0  0  0
M  END
> <minimizedAffinity>
-8.44886

> <minimizedRMSD>
0.42785

$$$$
P28741


 42 46  0  0  0  0  0  0  0  0999 V2000
   -5.7689    5.0345  -18.2050 C   0  0  0  0  0  0  0  0  0  0  0  0
   -6.3426    4.6289  -19.3859 N   0  0  0  0  0  0  0  0  0  0  0  0
   -7.6144    4.2203  -19.2720 N   0  0  0  0  0  0  0  0  0  0  0  0
   -7.9659    4.5326  -18.0153 C   0  0  0  0  0  0  0  0  0  0  0  0
   -9.2126    4.5553  -17.3641 C   0  0  0  0  0  0  0  0  0  0  0  0
  -10.6173    4.4310  -18.2934 Cl  0  0  0  0  0  0  0  0  0  0  0  0
   -9.2127    4.8489  -15.9953 C   0  0  0  0  0  0  0  0  0  0  0  0
   -8.0110    5.1377  -15.2879 C   0  0  0  0  0  0  0  0  0  0  0  0
   -6.7296    5.1595  -15.8989 C   0  0  0  0  0  0  0  0  0  0  0  0
   -6.7729    4.8808  -17.2741 C   0  0  0  0  0  0  0  0  0  0  0  0
   -5.8600    4.6377  -20.2440 H   0  0  0  0  0  0  0  0  0  0  0  0
   -8.1519    5.5912  -13.8772 C   0  0  0  0  0  0  0  0  0  0  0  0
   -8.0988    6.7367  -13.6539 O   0  0  0  0  0  0  0  0  0  0  0  0
   -8.3601    4.3903  -12.9206 N   0  0  0  0  0  0  0  0  0  0  0  0
   -8.4442    3.5171  -13.3675 H   0  0  0  0  0  0  0  0  0  0  0  0
   -8.4476    4.3452  -11.5297 C   0  0  0  0  0  0  0  0  0  0  0  0
   -8.2061    5.4941  -10.7575 C   0  0  0  0  0  0  0  0  0  0  0  0
   -8.2867    5.4515   -9.3619 C   0  0  0  0  0  0  0  0  0  0  0  0
   -8.6149    4.2498   -8.7638 C   0  0  0  0  0  0  0  0  0  0  0  0
   -8.8566    3.1096   -9.5245 C   0  0  0  0  0  0  0  0  0  0  0  0
   -8.7782    3.1370  -10.9086 C   0  0  0  0  0  0  0  0  0  0  0  0
   -9.1723    1.9717   -8.6076 C   0  0  0  0  0  0  0  0  0  0  0  0
   -9.4587    2.6057   -7.2896 N   0  0  0  0  0  0  0  0  0  0  0  0
   -8.7599    3.9095   -7.3188 C   0  0  0  0  0  0  0  0  0  0  0  0
   -9.1011    2.0265   -6.5300 H   0  0  0  0  0  0  0  0  0  0  0  0
   -4.3849    5.5863  -18.1753 C   0  0  0  0  0  0  0  0  0  0  0  0
   -5.4429    7.9344  -18.4473 C   0  0  0  0  0  0  0  0  0  0  0  0
   -5.1858    8.5183  -17.0272 C   0  0  0  0  0  0  0  0  0  0  0  0
   -3.8617    9.1323  -16.8787 N   0  0  0  0  0  0  0  0  0  0  0  0
   -2.8070    8.1560  -17.1346 C   0  0  0  0  0  0  0  0  0  0  0  0
   -2.8989    7.5892  -18.5507 C   0  0  0  0  0  0  0  0  0  0  0  0
   -4.2826    6.9792  -18.8703 C   0  0  0  0  0  0  0  0  0  0  0  0
   -3.7633    9.4899  -15.9285 H   0  0  0  0  0  0  0  0  0  0  0  0
   -5.5311    8.7350  -20.8141 C   0  0  0  0  0  0  0  0  0  0  0  0
   -5.8653    8.9896  -19.4219 N   0  0  0  0  0  0  0  0  0  0  0  0
   -6.8784    9.0888  -19.3562 H   0  0  0  0  0  0  0  0  0  0  0  0
   -5.5800    5.4942  -15.2449 O   0  0  0  0  0  0  0  0  0  0  0  0
   -4.9400    4.3291  -14.7155 C   0  0  0  0  0  0  0  0  0  0  0  0
   -4.0264    4.7520  -13.5732 C   0  0  0  0  0  0  0  0  0  0  0  0
   -4.7899    4.9700  -12.2730 C   0  0  0  0  0  0  0  0  0  0  0  0
   -3.8577    5.2323  -11.2274 O   0  0  0  0  0  0  0  0  0  0  0  0
   -3.2552    4.4778  -11.1346 H   0  0  0  0  0  0  0  0  0  0  0  0
 34 35  1  0  0  0
 27 35  1  0  0  0
 27 28  1  0  0  0
 28 29  1  0  0  0
 29 30  1  0  0  0
 30 31  1  0  0  0
 31 32  1  0  0  0
 32 26  1  0  0  0
 26  1  1  0  0  0
  1  2  1  0  0  0
  2  3  1  0  0  0
  3  4  2  0  0  0
  4  5  1  0  0  0
  5  6  1  0  0  0
  5  7  2  0  0  0
  7  8  1  0  0  0
  8 12  1  0  0  0
 12 13  2  0  0  0
 12 14  1  0  0  0
 14 16  1  0  0  0
 16 17  2  0  0  0
 17 18  1  0  0  0
 18 19  2  0  0  0
 19 20  1  0  0  0
 20 21  2  0  0  0
 20 22  1  0  0  0
 22 23  1  0  0  0
 23 24  1  0  0  0
  8  9  2  0  0  0
  9 37  1  0  0  0
 37 38  1  0  0  0
 38 39  1  0  0  0
 39 40  1  0  0  0
 40 41  1  0  0  0
  9 10  1  0  0  0
 32 27  1  0  0  0
 10  1  2  0  0  0
 10  4  1  0  0  0
 21 16  1  0  0  0
 24 19  1  0  0  0
 35 36  1  0  0  0
 29 33  1  0  0  0
  2 11  1  0  0  0
 14 15  1  0  0  0
 23 25  1  0  0  0
 41 42  1  0  0  0
M  END
> <minimizedAffinity>
-7.25608

> <minimizedRMSD>
1.05023

$$$$
P28817


 31 34  0  0  0  0  0  0  0  0999 V2000
   -8.3705    4.9318  -15.8531 C   0  0  0  0  0  0  0  0  0  0  0  0
   -6.8329    5.0270  -15.9294 C   0  0  0  0  0  0  0  0  0  0  0  0
   -6.2605    6.3537  -16.0530 N   0  0  0  0  0  0  0  0  0  0  0  0
   -5.7330    6.0180  -17.3606 C   0  0  0  0  0  0  0  0  0  0  0  0
   -6.2110    4.6800  -17.1714 O   0  0  0  0  0  0  0  0  0  0  0  0
   -5.5438    6.5624  -15.3579 H   0  0  0  0  0  0  0  0  0  0  0  0
   -4.2259    6.1861  -17.5339 C   0  0  0  0  0  0  0  0  0  0  0  0
   -3.6702    4.8311  -18.0363 C   0  0  0  0  0  0  0  0  0  0  0  0
   -2.3772    4.9733  -18.8160 C   0  0  0  0  0  0  0  0  0  0  0  0
   -2.5910    5.7981  -20.0805 C   0  0  0  0  0  0  0  0  0  0  0  0
   -3.6578    6.8842  -19.9171 C   0  0  0  0  0  0  0  0  0  0  0  0
   -3.7990    7.3410  -18.4610 C   0  0  0  0  0  0  0  0  0  0  0  0
   -8.7754    5.2756  -14.3745 C   0  0  0  0  0  0  0  0  0  0  0  0
   -9.6099    6.0891  -14.2456 O   0  0  0  0  0  0  0  0  0  0  0  0
   -7.9808    4.4702  -13.3085 N   0  0  0  0  0  0  0  0  0  0  0  0
   -7.2705    3.8937  -13.6723 H   0  0  0  0  0  0  0  0  0  0  0  0
   -8.1113    4.4314  -11.9125 C   0  0  0  0  0  0  0  0  0  0  0  0
   -7.9123    5.6104  -11.1675 C   0  0  0  0  0  0  0  0  0  0  0  0
   -8.0331    5.6276   -9.7729 C   0  0  0  0  0  0  0  0  0  0  0  0
   -8.3902    4.4582   -9.1347 C   0  0  0  0  0  0  0  0  0  0  0  0
   -8.6119    3.2914   -9.8607 C   0  0  0  0  0  0  0  0  0  0  0  0
   -8.4518    3.2505  -11.2459 C   0  0  0  0  0  0  0  0  0  0  0  0
   -9.0228    2.2120   -8.9077 C   0  0  0  0  0  0  0  0  0  0  0  0
   -9.3249    2.9043   -7.6238 N   0  0  0  0  0  0  0  0  0  0  0  0
   -8.5954    4.1857   -7.6822 C   0  0  0  0  0  0  0  0  0  0  0  0
   -9.0014    2.3462   -6.8337 H   0  0  0  0  0  0  0  0  0  0  0  0
   -9.0315    3.7842  -16.6205 C   0  0  0  0  0  0  0  0  0  0  0  0
  -10.8025    4.4858  -18.4663 C   0  0  0  0  0  0  0  0  0  0  0  0
   -9.4746    3.8429  -18.1240 C   0  0  0  0  0  0  0  0  0  0  0  0
   -8.4568    4.2107  -19.1777 C   0  0  0  0  0  0  0  0  0  0  0  0
   -8.1401    3.4862  -20.1157 O   0  0  0  0  0  0  0  0  0  0  0  0
 29 28  1  0  0  0
 29 30  1  0  0  0
 30 31  2  0  0  0
 29 27  1  0  0  0
  1 27  1  0  0  0
  1 13  1  0  0  0
 13 14  2  0  0  0
 13 15  1  0  0  0
 15 17  1  0  0  0
 17 18  2  0  0  0
 18 19  1  0  0  0
 19 20  2  0  0  0
 20 21  1  0  0  0
 21 22  2  0  0  0
 21 23  1  0  0  0
 23 24  1  0  0  0
 24 25  1  0  0  0
  1  2  1  0  0  0
  2  3  1  0  0  0
  3  4  1  0  0  0
  4  7  1  0  0  0
  7  8  1  0  0  0
  8  9  1  0  0  0
  9 10  1  0  0  0
 10 11  1  0  0  0
 11 12  1  0  0  0
  4  5  1  0  0  0
 22 17  1  0  0  0
  5  2  1  0  0  0
 25 20  1  0  0  0
 12  7  1  0  0  0
 15 16  1  0  0  0
 24 26  1  0  0  0
  3  6  1  0  0  0
M  END
> <minimizedAffinity>
-6.92625

> <minimizedRMSD>
0.95926

$$$$
P28831


 32 36  0  0  0  0  0  0  0  0999 V2000
   -4.9369    5.4541  -19.8104 C   0  0  0  0  0  0  0  0  0  0  0  0
   -5.1878    5.2165  -18.4085 N   0  0  0  0  0  0  0  0  0  0  0  0
   -4.3051    5.3465  -17.3588 C   0  0  0  0  0  0  0  0  0  0  0  0
   -4.9730    5.2629  -16.2190 N   0  0  0  0  0  0  0  0  0  0  0  0
   -6.2782    4.9407  -16.5133 C   0  0  0  0  0  0  0  0  0  0  0  0
   -7.3982    4.6858  -15.6795 C   0  0  0  0  0  0  0  0  0  0  0  0
   -8.6221    4.3695  -16.3229 C   0  0  0  0  0  0  0  0  0  0  0  0
   -8.7299    4.3556  -17.7206 C   0  0  0  0  0  0  0  0  0  0  0  0
   -7.6243    4.5859  -18.5293 C   0  0  0  0  0  0  0  0  0  0  0  0
   -6.4230    4.8891  -17.8966 C   0  0  0  0  0  0  0  0  0  0  0  0
   -2.8565    5.5877  -17.4442 C   0  0  0  0  0  0  0  0  0  0  0  0
   -2.1949    6.1116  -16.3231 C   0  0  0  0  0  0  0  0  0  0  0  0
   -0.8203    6.3608  -16.3476 C   0  0  0  0  0  0  0  0  0  0  0  0
   -0.0836    6.0936  -17.4984 C   0  0  0  0  0  0  0  0  0  0  0  0
   -0.7162    5.5543  -18.6144 C   0  0  0  0  0  0  0  0  0  0  0  0
   -2.0874    5.2823  -18.5774 C   0  0  0  0  0  0  0  0  0  0  0  0
   -7.2404    4.8069  -14.1920 C   0  0  0  0  0  0  0  0  0  0  0  0
   -6.1505    4.7170  -13.6367 O   0  0  0  0  0  0  0  0  0  0  0  0
   -8.4133    5.1570  -13.2980 C   0  0  0  0  0  0  0  0  0  0  0  0
   -9.3873    5.7362  -13.7662 O   0  0  0  0  0  0  0  0  0  0  0  0
   -8.2952    4.9947  -11.8307 C   0  0  0  0  0  0  0  0  0  0  0  0
   -8.0728    6.1563  -11.0656 C   0  0  0  0  0  0  0  0  0  0  0  0
   -8.1010    6.1041   -9.6701 C   0  0  0  0  0  0  0  0  0  0  0  0
   -8.3631    4.8872   -9.0658 C   0  0  0  0  0  0  0  0  0  0  0  0
   -8.5721    3.7357   -9.8184 C   0  0  0  0  0  0  0  0  0  0  0  0
   -8.5399    3.7649  -11.2089 C   0  0  0  0  0  0  0  0  0  0  0  0
   -8.8259    2.5907   -8.8941 C   0  0  0  0  0  0  0  0  0  0  0  0
   -8.9234    3.1655   -7.5249 N   0  0  0  0  0  0  0  0  0  0  0  0
   -8.4845    4.5712   -7.6145 C   0  0  0  0  0  0  0  0  0  0  0  0
   -8.3192    2.6501   -6.8848 H   0  0  0  0  0  0  0  0  0  0  0  0
  -10.0182    4.1828  -18.4268 C   0  0  0  0  0  0  0  0  0  0  0  0
  -11.0547    4.7121  -18.0651 O   0  0  0  0  0  0  0  0  0  0  0  0
  1  2  1  0  0  0
  2  3  1  0  0  0
  3 11  1  0  0  0
 11 12  2  0  0  0
 12 13  1  0  0  0
 13 14  2  0  0  0
 14 15  1  0  0  0
 15 16  2  0  0  0
  3  4  2  0  0  0
  4  5  1  0  0  0
  5  6  2  0  0  0
  6 17  1  0  0  0
 17 18  2  0  0  0
 17 19  1  0  0  0
 19 20  2  0  0  0
 19 21  1  0  0  0
 21 22  2  0  0  0
 22 23  1  0  0  0
 23 24  2  0  0  0
 24 25  1  0  0  0
 25 26  2  0  0  0
 25 27  1  0  0  0
 27 28  1  0  0  0
 28 29  1  0  0  0
  6  7  1  0  0  0
  7  8  2  0  0  0
  8 31  1  0  0  0
 31 32  2  0  0  0
  8  9  1  0  0  0
  9 10  2  0  0  0
 10  2  1  0  0  0
 16 11  1  0  0  0
 10  5  1  0  0  0
 26 21  1  0  0  0
 29 24  1  0  0  0
 28 30  1  0  0  0
M  END
> <minimizedAffinity>
-9.60316

> <minimizedRMSD>
0.42109

$$$$
P28848


 33 37  0  0  0  0  0  0  0  0999 V2000
   -5.1125    5.1018  -17.5184 N   0  0  0  0  0  0  0  0  0  0  0  0
   -4.4467    5.4410  -16.3764 C   0  0  0  0  0  0  0  0  0  0  0  0
   -5.2245    5.3742  -15.3192 N   0  0  0  0  0  0  0  0  0  0  0  0
   -6.4674    4.9992  -15.7833 C   0  0  0  0  0  0  0  0  0  0  0  0
   -7.7093    4.8328  -15.1260 C   0  0  0  0  0  0  0  0  0  0  0  0
   -8.8341    4.4276  -15.8666 C   0  0  0  0  0  0  0  0  0  0  0  0
   -8.7160    4.2456  -17.2461 C   0  0  0  0  0  0  0  0  0  0  0  0
   -7.5022    4.3881  -17.9158 C   0  0  0  0  0  0  0  0  0  0  0  0
   -6.4018    4.7809  -17.1600 C   0  0  0  0  0  0  0  0  0  0  0  0
   -3.1754    6.7713  -19.7844 C   0  0  0  0  0  0  0  0  0  0  0  0
   -2.3011    5.6796  -19.1932 C   0  0  0  0  0  0  0  0  0  0  0  0
   -3.2402    4.5069  -19.0918 C   0  0  0  0  0  0  0  0  0  0  0  0
   -4.6016    5.1532  -18.8781 C   0  0  0  0  0  0  0  0  0  0  0  0
   -4.4926    6.5390  -19.2595 O   0  0  0  0  0  0  0  0  0  0  0  0
   -3.2763    6.8012  -21.3135 C   0  0  0  0  0  0  0  0  0  0  0  0
   -1.7179    7.0296  -23.2792 C   0  0  0  0  0  0  0  0  0  0  0  0
   -2.0332    6.2516  -22.0104 C   0  0  0  0  0  0  0  0  0  0  0  0
   -7.8737    5.2973  -13.7261 C   0  0  0  0  0  0  0  0  0  0  0  0
   -7.8487    6.4480  -13.5235 O   0  0  0  0  0  0  0  0  0  0  0  0
   -8.1212    4.1123  -12.7586 N   0  0  0  0  0  0  0  0  0  0  0  0
   -8.1676    3.2293  -13.1916 H   0  0  0  0  0  0  0  0  0  0  0  0
   -8.2893    4.0933  -11.3717 C   0  0  0  0  0  0  0  0  0  0  0  0
   -8.0565    5.2444  -10.6020 C   0  0  0  0  0  0  0  0  0  0  0  0
   -8.2137    5.2258   -9.2112 C   0  0  0  0  0  0  0  0  0  0  0  0
   -8.5995    4.0424   -8.6093 C   0  0  0  0  0  0  0  0  0  0  0  0
   -8.8329    2.9012   -9.3645 C   0  0  0  0  0  0  0  0  0  0  0  0
   -8.6915    2.9090  -10.7463 C   0  0  0  0  0  0  0  0  0  0  0  0
   -9.1992    1.7757   -8.4570 C   0  0  0  0  0  0  0  0  0  0  0  0
   -9.3511    2.3649   -7.1014 N   0  0  0  0  0  0  0  0  0  0  0  0
   -8.8217    3.7428   -7.1669 C   0  0  0  0  0  0  0  0  0  0  0  0
   -8.8228    1.8187   -6.4210 H   0  0  0  0  0  0  0  0  0  0  0  0
   -9.9016    4.1075  -18.1012 C   0  0  0  0  0  0  0  0  0  0  0  0
  -10.9764    4.6003  -17.8117 O   0  0  0  0  0  0  0  0  0  0  0  0
 16 17  1  0  0  0
 17 15  1  0  0  0
 10 15  1  0  0  0
 10 11  1  0  0  0
 11 12  1  0  0  0
 12 13  1  0  0  0
 13  1  1  0  0  0
  1  2  1  0  0  0
  2  3  2  0  0  0
  3  4  1  0  0  0
  4  5  2  0  0  0
  5 18  1  0  0  0
 18 19  2  0  0  0
 18 20  1  0  0  0
 20 22  1  0  0  0
 22 23  2  0  0  0
 23 24  1  0  0  0
 24 25  2  0  0  0
 25 26  1  0  0  0
 26 27  2  0  0  0
 26 28  1  0  0  0
 28 29  1  0  0  0
 29 30  1  0  0  0
  5  6  1  0  0  0
  6  7  2  0  0  0
  7 32  1  0  0  0
 32 33  2  0  0  0
  7  8  1  0  0  0
  8  9  2  0  0  0
 13 14  1  0  0  0
 14 10  1  0  0  0
  9  1  1  0  0  0
  9  4  1  0  0  0
 27 22  1  0  0  0
 30 25  1  0  0  0
 20 21  1  0  0  0
 29 31  1  0  0  0
M  END
> <minimizedAffinity>
-9.34054

> <minimizedRMSD>
0.58455

$$$$
P28850


 33 38  0  0  0  0  0  0  0  0999 V2000
   -3.9761    4.6906  -19.2871 C   0  0  0  0  0  0  0  0  0  0  0  0
   -4.6002    5.9365  -18.7235 C   0  0  0  0  0  0  0  0  0  0  0  0
   -3.5176    6.8239  -18.1477 C   0  0  0  0  0  0  0  0  0  0  0  0
   -2.4688    7.4449  -18.8019 C   0  0  0  0  0  0  0  0  0  0  0  0
   -1.5674    8.1760  -18.0230 C   0  0  0  0  0  0  0  0  0  0  0  0
   -1.7235    8.2705  -16.6255 C   0  0  0  0  0  0  0  0  0  0  0  0
   -2.7858    7.6360  -15.9744 C   0  0  0  0  0  0  0  0  0  0  0  0
   -3.6677    6.9173  -16.7453 C   0  0  0  0  0  0  0  0  0  0  0  0
   -4.8506    6.1847  -16.3960 C   0  0  0  0  0  0  0  0  0  0  0  0
   -5.6136    5.9627  -15.3590 N   0  0  0  0  0  0  0  0  0  0  0  0
   -6.7487    5.3383  -15.8867 C   0  0  0  0  0  0  0  0  0  0  0  0
   -7.9818    4.9794  -15.2918 C   0  0  0  0  0  0  0  0  0  0  0  0
   -9.0054    4.4473  -16.1040 C   0  0  0  0  0  0  0  0  0  0  0  0
   -8.8045    4.3042  -17.4859 C   0  0  0  0  0  0  0  0  0  0  0  0
   -7.5766    4.5860  -18.0850 C   0  0  0  0  0  0  0  0  0  0  0  0
   -6.5940    5.1239  -17.2648 C   0  0  0  0  0  0  0  0  0  0  0  0
   -5.3768    5.6386  -17.5297 N   0  0  0  0  0  0  0  0  0  0  0  0
   -8.2632    5.4277  -13.9034 C   0  0  0  0  0  0  0  0  0  0  0  0
   -8.5555    6.5500  -13.7560 O   0  0  0  0  0  0  0  0  0  0  0  0
   -8.0628    4.2969  -12.8622 N   0  0  0  0  0  0  0  0  0  0  0  0
   -7.7398    3.4452  -13.2357 H   0  0  0  0  0  0  0  0  0  0  0  0
   -8.2666    4.2897  -11.4770 C   0  0  0  0  0  0  0  0  0  0  0  0
   -8.0293    5.4477  -10.7166 C   0  0  0  0  0  0  0  0  0  0  0  0
   -8.1614    5.4404   -9.3223 C   0  0  0  0  0  0  0  0  0  0  0  0
   -8.5434    4.2650   -8.7026 C   0  0  0  0  0  0  0  0  0  0  0  0
   -8.8120    3.1251   -9.4468 C   0  0  0  0  0  0  0  0  0  0  0  0
   -8.6709    3.1154  -10.8330 C   0  0  0  0  0  0  0  0  0  0  0  0
   -9.2357    2.0277   -8.5256 C   0  0  0  0  0  0  0  0  0  0  0  0
   -9.2165    2.5895   -7.1475 N   0  0  0  0  0  0  0  0  0  0  0  0
   -8.7268    3.9780   -7.2512 C   0  0  0  0  0  0  0  0  0  0  0  0
   -8.5923    2.0417   -6.5552 H   0  0  0  0  0  0  0  0  0  0  0  0
   -9.9116    4.0046  -18.4160 C   0  0  0  0  0  0  0  0  0  0  0  0
  -11.0378    4.4440  -18.2663 O   0  0  0  0  0  0  0  0  0  0  0  0
  2  1  1  0  0  0
  2  3  1  0  0  0
  3  4  2  0  0  0
  4  5  1  0  0  0
  5  6  2  0  0  0
  6  7  1  0  0  0
  7  8  2  0  0  0
  8  9  1  0  0  0
  9 10  2  0  0  0
 10 11  1  0  0  0
 11 12  2  0  0  0
 12 18  1  0  0  0
 18 19  2  0  0  0
 18 20  1  0  0  0
 20 22  1  0  0  0
 22 23  2  0  0  0
 23 24  1  0  0  0
 24 25  2  0  0  0
 25 26  1  0  0  0
 26 27  2  0  0  0
 26 28  1  0  0  0
 28 29  1  0  0  0
 29 30  1  0  0  0
 12 13  1  0  0  0
 13 14  2  0  0  0
 14 32  1  0  0  0
 32 33  2  0  0  0
 14 15  1  0  0  0
 15 16  2  0  0  0
 16 17  1  0  0  0
 17  2  1  0  0  0
  8  3  1  0  0  0
 17  9  1  0  0  0
 16 11  1  0  0  0
 27 22  1  0  0  0
 30 25  1  0  0  0
 20 21  1  0  0  0
 29 31  1  0  0  0
M  END
> <minimizedAffinity>
-9.33175

> <minimizedRMSD>
0.72552

$$$$
P28859


 43 48  0  0  0  0  0  0  0  0999 V2000
   -7.3496    4.2063  -14.1067 C   0  0  0  0  0  0  0  0  0  0  0  0
   -7.4704    2.7895  -13.9297 O   0  0  0  0  0  0  0  0  0  0  0  0
   -8.3310    2.4939  -14.2656 H   0  0  0  0  0  0  0  0  0  0  0  0
   -9.0180    4.5154  -17.6072 C   0  0  0  0  0  0  0  0  0  0  0  0
   -8.8080    4.4364  -16.2267 C   0  0  0  0  0  0  0  0  0  0  0  0
   -7.5095    4.5043  -15.6261 C   0  0  0  0  0  0  0  0  0  0  0  0
   -6.4748    4.7317  -16.5819 C   0  0  0  0  0  0  0  0  0  0  0  0
   -5.1136    4.9951  -16.5140 N   0  0  0  0  0  0  0  0  0  0  0  0
   -4.6204    5.1867  -17.7960 C   0  0  0  0  0  0  0  0  0  0  0  0
   -5.5629    4.9420  -18.6701 N   0  0  0  0  0  0  0  0  0  0  0  0
   -6.6951    4.7424  -17.9573 C   0  0  0  0  0  0  0  0  0  0  0  0
   -7.9631    4.5876  -18.4858 C   0  0  0  0  0  0  0  0  0  0  0  0
   -4.5822    5.0390  -15.6864 H   0  0  0  0  0  0  0  0  0  0  0  0
   -3.2875    5.6470  -18.1854 C   0  0  0  0  0  0  0  0  0  0  0  0
   -3.0422    5.9369  -19.5439 C   0  0  0  0  0  0  0  0  0  0  0  0
   -1.7852    6.3778  -19.9610 C   0  0  0  0  0  0  0  0  0  0  0  0
   -0.7610    6.5385  -19.0304 C   0  0  0  0  0  0  0  0  0  0  0  0
   -0.9913    6.2574  -17.6839 C   0  0  0  0  0  0  0  0  0  0  0  0
   -2.2483    5.8138  -17.2611 C   0  0  0  0  0  0  0  0  0  0  0  0
  -11.2731    3.9033  -17.8507 O   0  0  0  0  0  0  0  0  0  0  0  0
  -10.3431    4.5955  -18.2239 C   0  0  0  0  0  0  0  0  0  0  0  0
   -5.9102    4.6582  -13.5381 C   0  0  0  0  0  0  0  0  0  0  0  0
   -5.5481    5.7698  -13.4465 O   0  0  0  0  0  0  0  0  0  0  0  0
   -5.1541    3.3202  -13.2500 N   0  0  0  0  0  0  0  0  0  0  0  0
   -5.6566    2.5051  -13.4786 H   0  0  0  0  0  0  0  0  0  0  0  0
   -3.8389    3.0863  -12.7031 C   0  0  0  0  0  0  0  0  0  0  0  0
   -3.1335    1.9405  -13.4359 C   0  0  0  0  0  0  0  0  0  0  0  0
   -2.1781    1.1833  -12.5219 C   0  0  0  0  0  0  0  0  0  0  0  0
   -1.5799    2.0823  -11.5938 O   0  0  0  0  0  0  0  0  0  0  0  0
   -2.5161    2.5785  -10.6336 C   0  0  0  0  0  0  0  0  0  0  0  0
   -3.9110    2.8088  -11.2071 C   0  0  0  0  0  0  0  0  0  0  0  0
   -8.4832    4.7810  -13.3501 N   0  0  0  0  0  0  0  0  0  0  0  0
   -9.2683    5.1498  -13.8156 H   0  0  0  0  0  0  0  0  0  0  0  0
   -8.4055    4.7847  -11.9389 C   0  0  0  0  0  0  0  0  0  0  0  0
   -8.1240    5.9783  -11.2516 C   0  0  0  0  0  0  0  0  0  0  0  0
   -8.0815    6.0150   -9.8511 C   0  0  0  0  0  0  0  0  0  0  0  0
   -8.3117    4.8429   -9.1517 C   0  0  0  0  0  0  0  0  0  0  0  0
   -8.5728    3.6562   -9.8190 C   0  0  0  0  0  0  0  0  0  0  0  0
   -8.6060    3.6057  -11.2038 C   0  0  0  0  0  0  0  0  0  0  0  0
   -8.7949    2.5624   -8.8306 C   0  0  0  0  0  0  0  0  0  0  0  0
   -8.7697    3.2067   -7.4919 N   0  0  0  0  0  0  0  0  0  0  0  0
   -8.3216    4.5986   -7.6816 C   0  0  0  0  0  0  0  0  0  0  0  0
   -8.1216    2.7121   -6.8789 H   0  0  0  0  0  0  0  0  0  0  0  0
 20 21  2  0  0  0
 21  4  1  0  0  0
  4  5  2  0  0  0
  5  6  1  0  0  0
  6  1  1  0  0  0
  1  2  1  0  0  0
  1 32  1  0  0  0
 32 34  1  0  0  0
 34 35  2  0  0  0
 35 36  1  0  0  0
 36 37  2  0  0  0
 37 38  1  0  0  0
 38 39  2  0  0  0
 38 40  1  0  0  0
 40 41  1  0  0  0
 41 42  1  0  0  0
  1 22  1  0  0  0
 22 23  2  0  0  0
 22 24  1  0  0  0
 24 26  1  0  0  0
 26 27  1  0  0  0
 27 28  1  0  0  0
 28 29  1  0  0  0
 29 30  1  0  0  0
 30 31  1  0  0  0
  6  7  2  0  0  0
  7  8  1  0  0  0
  8  9  1  0  0  0
  9 14  1  0  0  0
 14 15  2  0  0  0
 15 16  1  0  0  0
 16 17  2  0  0  0
 17 18  1  0  0  0
 18 19  2  0  0  0
  9 10  2  0  0  0
 10 11  1  0  0  0
 11 12  2  0  0  0
 12  4  1  0  0  0
 39 34  1  0  0  0
 31 26  1  0  0  0
 11  7  1  0  0  0
 42 37  1  0  0  0
 19 14  1  0  0  0
  2  3  1  0  0  0
 32 33  1  0  0  0
 41 43  1  0  0  0
 24 25  1  0  0  0
  8 13  1  0  0  0
M  END
> <minimizedAffinity>
-9.56011

> <minimizedRMSD>
1.08033

$$$$
P28877


 33 38  0  0  0  0  0  0  0  0999 V2000
   -9.1250    4.2826  -17.4897 C   0  0  0  0  0  0  0  0  0  0  0  0
   -8.8751    4.4129  -16.1106 C   0  0  0  0  0  0  0  0  0  0  0  0
   -7.6091    4.8180  -15.6605 C   0  0  0  0  0  0  0  0  0  0  0  0
   -6.6154    5.0507  -16.6014 C   0  0  0  0  0  0  0  0  0  0  0  0
   -6.9031    4.8685  -17.9663 C   0  0  0  0  0  0  0  0  0  0  0  0
   -8.1256    4.4858  -18.4432 C   0  0  0  0  0  0  0  0  0  0  0  0
   -5.8734    5.5442  -18.7001 N   0  0  0  0  0  0  0  0  0  0  0  0
   -5.1839    4.9227  -19.7936 O   0  0  0  0  0  0  0  0  0  0  0  0
   -3.8662    5.3184  -19.5794 C   0  0  0  0  0  0  0  0  0  0  0  0
   -2.8518    5.2240  -20.4995 C   0  0  0  0  0  0  0  0  0  0  0  0
   -1.5624    5.5373  -20.0647 C   0  0  0  0  0  0  0  0  0  0  0  0
   -1.3056    5.9544  -18.7402 C   0  0  0  0  0  0  0  0  0  0  0  0
   -2.3402    6.0725  -17.8144 C   0  0  0  0  0  0  0  0  0  0  0  0
   -3.5978    5.7644  -18.2763 C   0  0  0  0  0  0  0  0  0  0  0  0
   -4.8696    5.6784  -17.6483 C   0  0  0  0  0  0  0  0  0  0  0  0
   -5.2868    5.5248  -16.4368 N   0  0  0  0  0  0  0  0  0  0  0  0
   -6.6285    6.1241  -18.4497 H   0  0  0  0  0  0  0  0  0  0  0  0
   -7.4683    5.3109  -14.2729 C   0  0  0  0  0  0  0  0  0  0  0  0
   -7.0681    6.3991  -14.1319 O   0  0  0  0  0  0  0  0  0  0  0  0
   -7.9595    4.2803  -13.2293 N   0  0  0  0  0  0  0  0  0  0  0  0
   -8.1777    3.3935  -13.5970 H   0  0  0  0  0  0  0  0  0  0  0  0
   -8.1436    4.4030  -11.8524 C   0  0  0  0  0  0  0  0  0  0  0  0
   -8.0080    5.6436  -11.2070 C   0  0  0  0  0  0  0  0  0  0  0  0
   -8.1749    5.7547   -9.8219 C   0  0  0  0  0  0  0  0  0  0  0  0
   -8.4719    4.6108   -9.1057 C   0  0  0  0  0  0  0  0  0  0  0  0
   -8.6168    3.3828   -9.7418 C   0  0  0  0  0  0  0  0  0  0  0  0
   -8.4618    3.2606  -11.1136 C   0  0  0  0  0  0  0  0  0  0  0  0
   -8.9003    2.3304   -8.7193 C   0  0  0  0  0  0  0  0  0  0  0  0
   -9.2275    3.0763   -7.4725 N   0  0  0  0  0  0  0  0  0  0  0  0
   -8.6406    4.4220   -7.6368 C   0  0  0  0  0  0  0  0  0  0  0  0
   -8.8205    2.6086   -6.6626 H   0  0  0  0  0  0  0  0  0  0  0  0
  -10.7502    4.3862  -19.1437 O   0  0  0  0  0  0  0  0  0  0  0  0
  -10.5090    4.1725  -17.9666 C   0  0  0  0  0  0  0  0  0  0  0  0
 32 33  2  0  0  0
 33  1  1  0  0  0
  1  2  2  0  0  0
  2  3  1  0  0  0
  3 18  1  0  0  0
 18 19  2  0  0  0
 18 20  1  0  0  0
 20 22  1  0  0  0
 22 23  2  0  0  0
 23 24  1  0  0  0
 24 25  2  0  0  0
 25 26  1  0  0  0
 26 27  2  0  0  0
 26 28  1  0  0  0
 28 29  1  0  0  0
 29 30  1  0  0  0
  3  4  2  0  0  0
  4  5  1  0  0  0
  5  6  2  0  0  0
  5  7  1  0  0  0
  7  8  1  0  0  0
  8  9  1  0  0  0
  9 10  2  0  0  0
 10 11  1  0  0  0
 11 12  2  0  0  0
 12 13  1  0  0  0
 13 14  2  0  0  0
 14 15  1  0  0  0
 15 16  2  0  0  0
  6  1  1  0  0  0
 15  7  1  0  0  0
 27 22  1  0  0  0
 16  4  1  0  0  0
 30 25  1  0  0  0
 14  9  1  0  0  0
 20 21  1  0  0  0
 29 31  1  0  0  0
  7 17  1  0  0  0
M  CHG 1   7   1
M  END
> <minimizedAffinity>
-9.27853

> <minimizedRMSD>
0.08952

$$$$
P28883


 41 45  0  0  0  0  0  0  0  0999 V2000
   -7.1786    4.3467  -13.8659 C   0  0  0  0  0  0  0  0  0  0  0  0
   -6.4938    5.5585  -13.6022 O   0  0  0  0  0  0  0  0  0  0  0  0
   -7.0564    6.3086  -13.8507 H   0  0  0  0  0  0  0  0  0  0  0  0
   -9.1086    4.4292  -17.2191 C   0  0  0  0  0  0  0  0  0  0  0  0
   -8.8089    4.3154  -15.8592 C   0  0  0  0  0  0  0  0  0  0  0  0
   -7.4753    4.3948  -15.3643 C   0  0  0  0  0  0  0  0  0  0  0  0
   -6.4701    4.6261  -16.3401 C   0  0  0  0  0  0  0  0  0  0  0  0
   -5.1086    4.8323  -16.2180 N   0  0  0  0  0  0  0  0  0  0  0  0
   -4.6469    5.0642  -17.4434 C   0  0  0  0  0  0  0  0  0  0  0  0
   -5.6654    4.9646  -18.3493 N   0  0  0  0  0  0  0  0  0  0  0  0
   -6.8243    4.7182  -17.6783 C   0  0  0  0  0  0  0  0  0  0  0  0
   -8.1128    4.6028  -18.1662 C   0  0  0  0  0  0  0  0  0  0  0  0
   -5.5760    5.0558  -19.3255 H   0  0  0  0  0  0  0  0  0  0  0  0
   -3.2719    5.3872  -17.8390 C   0  0  0  0  0  0  0  0  0  0  0  0
   -2.5499    6.3118  -17.0682 C   0  0  0  0  0  0  0  0  0  0  0  0
   -1.2297    6.6396  -17.3856 C   0  0  0  0  0  0  0  0  0  0  0  0
   -0.6108    6.0452  -18.4814 C   0  0  0  0  0  0  0  0  0  0  0  0
   -1.3117    5.1278  -19.2611 C   0  0  0  0  0  0  0  0  0  0  0  0
   -2.6348    4.8007  -18.9465 C   0  0  0  0  0  0  0  0  0  0  0  0
  -10.7836    4.7512  -18.8359 O   0  0  0  0  0  0  0  0  0  0  0  0
  -10.5024    4.5079  -17.6719 C   0  0  0  0  0  0  0  0  0  0  0  0
   -6.3862    2.9934  -13.5105 C   0  0  0  0  0  0  0  0  0  0  0  0
   -6.8569    1.9231  -13.5813 O   0  0  0  0  0  0  0  0  0  0  0  0
   -4.9664    3.4436  -13.0491 N   0  0  0  0  0  0  0  0  0  0  0  0
   -4.8363    4.4186  -13.0071 H   0  0  0  0  0  0  0  0  0  0  0  0
   -3.8182    2.6672  -12.6757 C   0  0  0  0  0  0  0  0  0  0  0  0
   -3.9035    2.0412  -11.2909 C   0  0  0  0  0  0  0  0  0  0  0  0
   -4.8026    2.8099  -10.3411 C   0  0  0  0  0  0  0  0  0  0  0  0
   -5.8096    1.9826   -9.9403 F   0  0  0  0  0  0  0  0  0  0  0  0
   -8.4317    4.4078  -13.0691 N   0  0  0  0  0  0  0  0  0  0  0  0
   -9.3067    4.4231  -13.5200 H   0  0  0  0  0  0  0  0  0  0  0  0
   -8.3558    4.4440  -11.6559 C   0  0  0  0  0  0  0  0  0  0  0  0
   -8.0275    5.6078  -10.9318 C   0  0  0  0  0  0  0  0  0  0  0  0
   -8.0432    5.6355   -9.5307 C   0  0  0  0  0  0  0  0  0  0  0  0
   -8.3957    4.4866   -8.8534 C   0  0  0  0  0  0  0  0  0  0  0  0
   -8.7375    3.3358   -9.5423 C   0  0  0  0  0  0  0  0  0  0  0  0
   -8.7353    3.3013  -10.9296 C   0  0  0  0  0  0  0  0  0  0  0  0
   -9.0563    2.2502   -8.5712 C   0  0  0  0  0  0  0  0  0  0  0  0
   -9.0214    2.8762   -7.2223 N   0  0  0  0  0  0  0  0  0  0  0  0
   -8.4743    4.2363   -7.3880 C   0  0  0  0  0  0  0  0  0  0  0  0
   -8.4239    2.3324   -6.5997 H   0  0  0  0  0  0  0  0  0  0  0  0
 20 21  2  0  0  0
 21  4  1  0  0  0
  4  5  2  0  0  0
  5  6  1  0  0  0
  6  1  1  0  0  0
  1  2  1  0  0  0
  1 30  1  0  0  0
 30 32  1  0  0  0
 32 33  2  0  0  0
 33 34  1  0  0  0
 34 35  2  0  0  0
 35 36  1  0  0  0
 36 37  2  0  0  0
 36 38  1  0  0  0
 38 39  1  0  0  0
 39 40  1  0  0  0
  1 22  1  0  0  0
 22 23  2  0  0  0
 22 24  1  0  0  0
 24 26  1  0  0  0
 26 27  1  0  0  0
 27 28  1  0  0  0
 28 29  1  0  0  0
  6  7  2  0  0  0
  7  8  1  0  0  0
  8  9  2  0  0  0
  9 14  1  0  0  0
 14 15  2  0  0  0
 15 16  1  0  0  0
 16 17  2  0  0  0
 17 18  1  0  0  0
 18 19  2  0  0  0
  9 10  1  0  0  0
 10 11  1  0  0  0
 11 12  2  0  0  0
 12  4  1  0  0  0
 37 32  1  0  0  0
 11  7  1  0  0  0
 40 35  1  0  0  0
 19 14  1  0  0  0
  2  3  1  0  0  0
 30 31  1  0  0  0
 39 41  1  0  0  0
 24 25  1  0  0  0
 10 13  1  0  0  0
M  END
> <minimizedAffinity>
-8.52824

> <minimizedRMSD>
1.09702

$$$$
P28890


 36 41  0  0  0  0  0  0  0  0999 V2000
   -1.8581    5.9729  -19.4900 C   0  0  0  0  0  0  0  0  0  0  0  0
   -3.0319    6.7873  -19.2032 N   0  0  0  0  0  0  0  0  0  0  0  0
   -4.2889    6.0942  -19.4649 C   0  0  0  0  0  0  0  0  0  0  0  0
   -4.5287    4.8514  -18.6201 C   0  0  0  0  0  0  0  0  0  0  0  0
   -5.2240    5.1335  -17.3845 N   0  0  0  0  0  0  0  0  0  0  0  0
   -4.6800    5.5317  -16.1844 C   0  0  0  0  0  0  0  0  0  0  0  0
   -5.6082    5.4768  -15.2439 N   0  0  0  0  0  0  0  0  0  0  0  0
   -6.7849    5.1151  -15.8490 C   0  0  0  0  0  0  0  0  0  0  0  0
   -8.0845    4.9419  -15.3326 C   0  0  0  0  0  0  0  0  0  0  0  0
   -9.1223    4.5692  -16.2013 C   0  0  0  0  0  0  0  0  0  0  0  0
   -8.8739    4.4576  -17.5728 C   0  0  0  0  0  0  0  0  0  0  0  0
   -7.5930    4.6096  -18.1031 C   0  0  0  0  0  0  0  0  0  0  0  0
   -6.5715    4.9253  -17.2077 C   0  0  0  0  0  0  0  0  0  0  0  0
   -3.2793    5.8800  -15.9140 C   0  0  0  0  0  0  0  0  0  0  0  0
   -2.7265    5.3714  -14.7215 C   0  0  0  0  0  0  0  0  0  0  0  0
   -1.4096    5.6411  -14.3471 C   0  0  0  0  0  0  0  0  0  0  0  0
   -0.6113    6.4249  -15.1650 C   0  0  0  0  0  0  0  0  0  0  0  0
   -1.1471    6.9678  -16.3308 C   0  0  0  0  0  0  0  0  0  0  0  0
   -2.4884    6.7293  -16.7117 C   0  0  0  0  0  0  0  0  0  0  0  0
   -3.0067    7.4862  -17.9159 C   0  0  0  0  0  0  0  0  0  0  0  0
   -8.3713    5.3864  -13.9506 C   0  0  0  0  0  0  0  0  0  0  0  0
   -8.6911    6.5006  -13.8042 O   0  0  0  0  0  0  0  0  0  0  0  0
   -8.1967    4.2489  -12.9162 N   0  0  0  0  0  0  0  0  0  0  0  0
   -7.9906    3.3676  -13.3035 H   0  0  0  0  0  0  0  0  0  0  0  0
   -8.2840    4.2691  -11.5217 C   0  0  0  0  0  0  0  0  0  0  0  0
   -7.9583    5.4346  -10.8057 C   0  0  0  0  0  0  0  0  0  0  0  0
   -8.0257    5.4673   -9.4092 C   0  0  0  0  0  0  0  0  0  0  0  0
   -8.4299    4.3233   -8.7493 C   0  0  0  0  0  0  0  0  0  0  0  0
   -8.7565    3.1660   -9.4488 C   0  0  0  0  0  0  0  0  0  0  0  0
   -8.6844    3.1197  -10.8348 C   0  0  0  0  0  0  0  0  0  0  0  0
   -9.1284    2.0978   -8.4688 C   0  0  0  0  0  0  0  0  0  0  0  0
   -9.3309    2.8063   -7.1744 N   0  0  0  0  0  0  0  0  0  0  0  0
   -8.5696    4.0680   -7.2876 C   0  0  0  0  0  0  0  0  0  0  0  0
   -8.9749    2.2440   -6.4014 H   0  0  0  0  0  0  0  0  0  0  0  0
   -9.9706    4.3198  -18.5460 C   0  0  0  0  0  0  0  0  0  0  0  0
  -11.1344    4.5396  -18.2548 O   0  0  0  0  0  0  0  0  0  0  0  0
  1  2  1  0  0  0
  2  3  1  0  0  0
  3  4  1  0  0  0
  4  5  1  0  0  0
  5  6  1  0  0  0
  6  7  2  0  0  0
  7  8  1  0  0  0
  8  9  2  0  0  0
  9 21  1  0  0  0
 21 22  2  0  0  0
 21 23  1  0  0  0
 23 25  1  0  0  0
 25 26  2  0  0  0
 26 27  1  0  0  0
 27 28  2  0  0  0
 28 29  1  0  0  0
 29 30  2  0  0  0
 29 31  1  0  0  0
 31 32  1  0  0  0
 32 33  1  0  0  0
  9 10  1  0  0  0
 10 11  2  0  0  0
 11 35  1  0  0  0
 35 36  2  0  0  0
 11 12  1  0  0  0
 12 13  2  0  0  0
  6 14  1  0  0  0
 14 15  2  0  0  0
 15 16  1  0  0  0
 16 17  2  0  0  0
 17 18  1  0  0  0
 18 19  2  0  0  0
 19 20  1  0  0  0
 20  2  1  0  0  0
 13  5  1  0  0  0
 19 14  1  0  0  0
 13  8  1  0  0  0
 30 25  1  0  0  0
 33 28  1  0  0  0
 23 24  1  0  0  0
 32 34  1  0  0  0
M  END
> <minimizedAffinity>
-9.73606

> <minimizedRMSD>
0.94194

$$$$
P28900


 37 42  0  0  0  0  0  0  0  0999 V2000
   -8.8160    4.4599  -17.6851 C   0  0  0  0  0  0  0  0  0  0  0  0
   -9.2538    4.4766  -16.3541 C   0  0  0  0  0  0  0  0  0  0  0  0
   -8.3435    4.7395  -15.3255 C   0  0  0  0  0  0  0  0  0  0  0  0
   -6.9811    4.9007  -15.6383 C   0  0  0  0  0  0  0  0  0  0  0  0
   -5.9084    5.1267  -14.8166 N   0  0  0  0  0  0  0  0  0  0  0  0
   -4.8573    5.2768  -15.5994 C   0  0  0  0  0  0  0  0  0  0  0  0
   -5.2198    5.0976  -16.9247 N   0  0  0  0  0  0  0  0  0  0  0  0
   -6.5760    4.8635  -16.9692 C   0  0  0  0  0  0  0  0  0  0  0  0
   -7.4699    4.6546  -18.0262 C   0  0  0  0  0  0  0  0  0  0  0  0
   -3.5263    5.5797  -15.0791 C   0  0  0  0  0  0  0  0  0  0  0  0
   -2.8899    6.7978  -15.3404 C   0  0  0  0  0  0  0  0  0  0  0  0
   -1.6466    7.0909  -14.7725 C   0  0  0  0  0  0  0  0  0  0  0  0
   -1.0446    6.1829  -13.9049 C   0  0  0  0  0  0  0  0  0  0  0  0
   -1.6940    4.9924  -13.5895 C   0  0  0  0  0  0  0  0  0  0  0  0
   -2.9324    4.6988  -14.1665 C   0  0  0  0  0  0  0  0  0  0  0  0
   -8.7888    5.1124  -13.9658 C   0  0  0  0  0  0  0  0  0  0  0  0
   -9.4478    6.0730  -13.8733 O   0  0  0  0  0  0  0  0  0  0  0  0
   -8.2403    4.1647  -12.8747 N   0  0  0  0  0  0  0  0  0  0  0  0
   -7.7681    3.3716  -13.2171 H   0  0  0  0  0  0  0  0  0  0  0  0
   -8.3055    4.2506  -11.4806 C   0  0  0  0  0  0  0  0  0  0  0  0
   -7.9009    5.4194  -10.8134 C   0  0  0  0  0  0  0  0  0  0  0  0
   -7.9436    5.5087   -9.4167 C   0  0  0  0  0  0  0  0  0  0  0  0
   -8.4109    4.4209   -8.7054 C   0  0  0  0  0  0  0  0  0  0  0  0
   -8.8075    3.2580   -9.3563 C   0  0  0  0  0  0  0  0  0  0  0  0
   -8.7515    3.1540  -10.7401 C   0  0  0  0  0  0  0  0  0  0  0  0
   -9.2308    2.2554   -8.3302 C   0  0  0  0  0  0  0  0  0  0  0  0
   -9.4216    3.0377   -7.0778 N   0  0  0  0  0  0  0  0  0  0  0  0
   -8.5713    4.2361   -7.2342 C   0  0  0  0  0  0  0  0  0  0  0  0
   -9.1259    2.4930   -6.2676 H   0  0  0  0  0  0  0  0  0  0  0  0
  -10.9805    4.5655  -18.6259 O   0  0  0  0  0  0  0  0  0  0  0  0
   -9.7895    4.3492  -18.7896 C   0  0  0  0  0  0  0  0  0  0  0  0
   -4.3618    5.0331  -18.0724 N   0  0  0  0  0  0  0  0  0  0  0  0
   -4.7438    4.3554  -18.7321 H   0  0  0  0  0  0  0  0  0  0  0  0
   -4.2453    6.3357  -18.7432 C   0  0  0  0  0  0  0  0  0  0  0  0
   -4.5256    6.1240  -20.2415 C   0  0  0  0  0  0  0  0  0  0  0  0
   -3.0300    5.7881  -20.4317 C   0  0  0  0  0  0  0  0  0  0  0  0
   -2.7634    6.5757  -19.1390 C   0  0  0  0  0  0  0  0  0  0  0  0
 30 31  2  0  0  0
 31  1  1  0  0  0
  1  2  2  0  0  0
  2  3  1  0  0  0
  3 16  1  0  0  0
 16 17  2  0  0  0
 16 18  1  0  0  0
 18 20  1  0  0  0
 20 21  2  0  0  0
 21 22  1  0  0  0
 22 23  2  0  0  0
 23 24  1  0  0  0
 24 25  2  0  0  0
 24 26  1  0  0  0
 26 27  1  0  0  0
 27 28  1  0  0  0
  3  4  2  0  0  0
  4  5  1  0  0  0
  5  6  2  0  0  0
  6 10  1  0  0  0
 10 11  2  0  0  0
 11 12  1  0  0  0
 12 13  2  0  0  0
 13 14  1  0  0  0
 14 15  2  0  0  0
  6  7  1  0  0  0
  7 32  1  0  0  0
 32 34  1  0  0  0
 34 35  1  0  0  0
 35 36  1  0  0  0
 36 37  1  0  0  0
  7  8  1  0  0  0
  8  9  2  0  0  0
  9  1  1  0  0  0
 25 20  1  0  0  0
  8  4  1  0  0  0
 28 23  1  0  0  0
 15 10  1  0  0  0
 37 34  1  0  0  0
 18 19  1  0  0  0
 27 29  1  0  0  0
 32 33  1  0  0  0
M  END
> <minimizedAffinity>
-8.81168

> <minimizedRMSD>
0.91349

$$$$
P28906


 38 43  0  0  0  0  0  0  0  0999 V2000
   -8.8070    4.4888  -17.6274 C   0  0  0  0  0  0  0  0  0  0  0  0
   -8.7709    4.5895  -16.2323 C   0  0  0  0  0  0  0  0  0  0  0  0
   -7.5570    4.8819  -15.5860 C   0  0  0  0  0  0  0  0  0  0  0  0
   -6.3727    4.9938  -16.3496 C   0  0  0  0  0  0  0  0  0  0  0  0
   -5.0668    5.2353  -15.9840 N   0  0  0  0  0  0  0  0  0  0  0  0
   -4.3523    5.2734  -17.1010 C   0  0  0  0  0  0  0  0  0  0  0  0
   -5.1944    5.1514  -18.1936 N   0  0  0  0  0  0  0  0  0  0  0  0
   -6.4600    4.8801  -17.7312 C   0  0  0  0  0  0  0  0  0  0  0  0
   -7.6558    4.6240  -18.4035 C   0  0  0  0  0  0  0  0  0  0  0  0
   -2.9068    5.5281  -17.1516 C   0  0  0  0  0  0  0  0  0  0  0  0
   -2.1109    5.2160  -18.2636 C   0  0  0  0  0  0  0  0  0  0  0  0
   -0.7545    5.5605  -18.2911 C   0  0  0  0  0  0  0  0  0  0  0  0
   -0.1678    6.1833  -17.1923 C   0  0  0  0  0  0  0  0  0  0  0  0
   -0.9334    6.4592  -16.0626 C   0  0  0  0  0  0  0  0  0  0  0  0
   -2.2917    6.1323  -16.0431 C   0  0  0  0  0  0  0  0  0  0  0  0
   -7.5513    5.3541  -14.1823 C   0  0  0  0  0  0  0  0  0  0  0  0
   -7.1649    6.4426  -13.9984 O   0  0  0  0  0  0  0  0  0  0  0  0
   -8.1263    4.3112  -13.1904 N   0  0  0  0  0  0  0  0  0  0  0  0
   -8.4562    3.4831  -13.6083 H   0  0  0  0  0  0  0  0  0  0  0  0
   -8.2525    4.3553  -11.7981 C   0  0  0  0  0  0  0  0  0  0  0  0
   -7.9731    5.5369  -11.0920 C   0  0  0  0  0  0  0  0  0  0  0  0
   -8.0682    5.5863   -9.6965 C   0  0  0  0  0  0  0  0  0  0  0  0
   -8.4336    4.4373   -9.0211 C   0  0  0  0  0  0  0  0  0  0  0  0
   -8.7143    3.2662   -9.7089 C   0  0  0  0  0  0  0  0  0  0  0  0
   -8.6359    3.2092  -11.0963 C   0  0  0  0  0  0  0  0  0  0  0  0
   -9.0489    2.1897   -8.7318 C   0  0  0  0  0  0  0  0  0  0  0  0
   -9.0246    2.8153   -7.3811 N   0  0  0  0  0  0  0  0  0  0  0  0
   -8.5793    4.2124   -7.5569 C   0  0  0  0  0  0  0  0  0  0  0  0
   -8.3745    2.3146   -6.7753 H   0  0  0  0  0  0  0  0  0  0  0  0
  -11.1372    4.1537  -17.8059 O   0  0  0  0  0  0  0  0  0  0  0  0
  -10.0786    4.3897  -18.3638 C   0  0  0  0  0  0  0  0  0  0  0  0
   -4.9073    5.3349  -19.5785 N   0  0  0  0  0  0  0  0  0  0  0  0
   -5.4493    4.6610  -20.1192 H   0  0  0  0  0  0  0  0  0  0  0  0
   -5.2452    6.6970  -20.0382 C   0  0  0  0  0  0  0  0  0  0  0  0
   -4.8309    6.7939  -21.5323 C   0  0  0  0  0  0  0  0  0  0  0  0
   -3.4382    7.0646  -21.0623 N   0  0  0  0  0  0  0  0  0  0  0  0
   -4.0625    7.6903  -19.8620 C   0  0  0  0  0  0  0  0  0  0  0  0
   -2.9037    7.7041  -21.6504 H   0  0  0  0  0  0  0  0  0  0  0  0
 30 31  2  0  0  0
 31  1  1  0  0  0
  1  2  2  0  0  0
  2  3  1  0  0  0
  3 16  1  0  0  0
 16 17  2  0  0  0
 16 18  1  0  0  0
 18 20  1  0  0  0
 20 21  2  0  0  0
 21 22  1  0  0  0
 22 23  2  0  0  0
 23 24  1  0  0  0
 24 25  2  0  0  0
 24 26  1  0  0  0
 26 27  1  0  0  0
 27 28  1  0  0  0
  3  4  2  0  0  0
  4  5  1  0  0  0
  5  6  2  0  0  0
  6 10  1  0  0  0
 10 11  2  0  0  0
 11 12  1  0  0  0
 12 13  2  0  0  0
 13 14  1  0  0  0
 14 15  2  0  0  0
  6  7  1  0  0  0
  7 32  1  0  0  0
 32 34  1  0  0  0
 34 35  1  0  0  0
 35 36  1  0  0  0
 36 37  1  0  0  0
  7  8  1  0  0  0
  8  9  2  0  0  0
  9  1  1  0  0  0
 25 20  1  0  0  0
  8  4  1  0  0  0
 28 23  1  0  0  0
 15 10  1  0  0  0
 37 34  1  0  0  0
 18 19  1  0  0  0
 27 29  1  0  0  0
 32 33  1  0  0  0
 36 38  1  0  0  0
M  END
> <minimizedAffinity>
-9.01632

> <minimizedRMSD>
0.28726

$$$$
P28911


 25 27  0  0  0  0  0  0  0  0999 V2000
   -6.5873    4.8129  -12.3491 C   0  0  0  0  0  0  0  0  0  0  0  0
   -5.5676    5.1517  -11.8833 O   0  0  0  0  0  0  0  0  0  0  0  0
   -7.8862    4.3126  -11.6669 N   0  0  0  0  0  0  0  0  0  0  0  0
   -8.5886    4.0123  -12.2880 H   0  0  0  0  0  0  0  0  0  0  0  0
   -8.2208    4.2191  -10.3209 C   0  0  0  0  0  0  0  0  0  0  0  0
   -7.9888    5.3231   -9.4809 C   0  0  0  0  0  0  0  0  0  0  0  0
   -8.2728    5.2622   -8.1182 C   0  0  0  0  0  0  0  0  0  0  0  0
   -8.7668    4.0766   -7.6140 C   0  0  0  0  0  0  0  0  0  0  0  0
   -9.0101    2.9860   -8.4407 C   0  0  0  0  0  0  0  0  0  0  0  0
   -8.7655    3.0440   -9.8066 C   0  0  0  0  0  0  0  0  0  0  0  0
   -9.4789    1.8391   -7.6090 C   0  0  0  0  0  0  0  0  0  0  0  0
   -9.6504    2.3606   -6.2256 N   0  0  0  0  0  0  0  0  0  0  0  0
   -9.0791    3.7218   -6.2033 C   0  0  0  0  0  0  0  0  0  0  0  0
   -9.1572    1.7629   -5.5623 H   0  0  0  0  0  0  0  0  0  0  0  0
   -6.7287    5.5281  -16.7699 C   0  0  0  0  0  0  0  0  0  0  0  0
   -5.5447    5.8950  -15.8366 C   0  0  0  0  0  0  0  0  0  0  0  0
   -5.4153    5.0756  -14.5642 C   0  0  0  0  0  0  0  0  0  0  0  0
   -6.7670    4.9559  -13.8654 C   0  0  0  0  0  0  0  0  0  0  0  0
   -7.6490    4.0635  -14.7326 C   0  0  0  0  0  0  0  0  0  0  0  0
   -7.9198    4.8203  -16.0420 C   0  0  0  0  0  0  0  0  0  0  0  0
   -9.2349    4.1739  -17.0439 Cl  0  0  0  0  0  0  0  0  0  0  0  0
   -6.9127    4.7214  -19.1628 N   0  0  0  0  0  0  0  0  0  0  0  0
   -6.0692    4.9228  -18.0102 C   0  0  0  0  0  0  0  0  0  0  0  0
   -6.3626    4.3154  -19.9198 H   0  0  0  0  0  0  0  0  0  0  0  0
   -7.2965    5.6171  -19.4640 H   0  0  0  0  0  0  0  0  0  0  0  0
 22 23  1  0  0  0
 15 23  1  0  0  0
 15 16  1  0  0  0
 16 17  1  0  0  0
 17 18  1  0  0  0
 18  1  1  0  0  0
  1  2  2  0  0  0
  1  3  1  0  0  0
  3  5  1  0  0  0
  5  6  2  0  0  0
  6  7  1  0  0  0
  7  8  2  0  0  0
  8  9  1  0  0  0
  9 10  2  0  0  0
  9 11  1  0  0  0
 11 12  1  0  0  0
 12 13  1  0  0  0
 18 19  1  0  0  0
 19 20  1  0  0  0
 20 21  1  0  0  0
 20 15  1  0  0  0
 10  5  1  0  0  0
 13  8  1  0  0  0
 22 24  1  0  0  0
 22 25  1  0  0  0
  3  4  1  0  0  0
 12 14  1  0  0  0
M  END
> <minimizedAffinity>
-6.59395

> <minimizedRMSD>
1.25733

$$$$
P28922


 35 39  0  0  0  0  0  0  0  0999 V2000
   -5.1157    5.4106  -18.4318 N   0  0  0  0  0  0  0  0  0  0  0  0
   -6.2885    4.9509  -18.9521 N   0  0  0  0  0  0  0  0  0  0  0  0
   -7.1193    4.7817  -17.9030 C   0  0  0  0  0  0  0  0  0  0  0  0
   -8.4848    4.4091  -17.7573 C   0  0  0  0  0  0  0  0  0  0  0  0
   -9.4307    4.1016  -19.1262 Cl  0  0  0  0  0  0  0  0  0  0  0  0
   -9.0307    4.4239  -16.4545 C   0  0  0  0  0  0  0  0  0  0  0  0
   -8.2502    4.8046  -15.3407 C   0  0  0  0  0  0  0  0  0  0  0  0
   -6.8830    5.1350  -15.4128 C   0  0  0  0  0  0  0  0  0  0  0  0
   -6.3799    5.0986  -16.7064 C   0  0  0  0  0  0  0  0  0  0  0  0
   -5.0847    5.4088  -17.0451 C   0  0  0  0  0  0  0  0  0  0  0  0
   -3.8802    5.7453  -16.2057 C   0  0  0  0  0  0  0  0  0  0  0  0
   -3.5720    4.6741  -15.1500 C   0  0  0  0  0  0  0  0  0  0  0  0
   -2.3601    5.0858  -14.3103 C   0  0  0  0  0  0  0  0  0  0  0  0
   -2.5628    6.3857  -13.6700 N   0  0  0  0  0  0  0  0  0  0  0  0
   -2.8038    7.4309  -14.6665 C   0  0  0  0  0  0  0  0  0  0  0  0
   -4.0250    7.1187  -15.5295 C   0  0  0  0  0  0  0  0  0  0  0  0
   -1.7308    6.6249  -13.1305 H   0  0  0  0  0  0  0  0  0  0  0  0
   -4.4136    6.4659  -20.9475 C   0  0  0  0  0  0  0  0  0  0  0  0
   -3.7651    5.9070  -19.4110 S   0  0  0  0  0  0  0  0  0  0  0  0
   -2.9663    4.7070  -19.5761 O   0  0  0  0  0  0  0  0  0  0  0  0
   -3.2217    7.0876  -18.7556 O   0  0  0  0  0  0  0  0  0  0  0  0
   -8.8308    5.1095  -14.0183 C   0  0  0  0  0  0  0  0  0  0  0  0
   -9.5809    5.9985  -13.9561 O   0  0  0  0  0  0  0  0  0  0  0  0
   -8.2402    4.2253  -12.9102 N   0  0  0  0  0  0  0  0  0  0  0  0
   -7.6798    3.4821  -13.2308 H   0  0  0  0  0  0  0  0  0  0  0  0
   -8.3680    4.3035  -11.5275 C   0  0  0  0  0  0  0  0  0  0  0  0
   -8.0763    5.5094  -10.8653 C   0  0  0  0  0  0  0  0  0  0  0  0
   -8.0969    5.5849   -9.4715 C   0  0  0  0  0  0  0  0  0  0  0  0
   -8.4458    4.4501   -8.7642 C   0  0  0  0  0  0  0  0  0  0  0  0
   -8.7681    3.2674   -9.4165 C   0  0  0  0  0  0  0  0  0  0  0  0
   -8.7079    3.1671  -10.7984 C   0  0  0  0  0  0  0  0  0  0  0  0
   -9.1613    2.2362   -8.4132 C   0  0  0  0  0  0  0  0  0  0  0  0
   -9.0585    2.8859   -7.0784 N   0  0  0  0  0  0  0  0  0  0  0  0
   -8.5573    4.2581   -7.2931 C   0  0  0  0  0  0  0  0  0  0  0  0
   -8.4101    2.3664   -6.4867 H   0  0  0  0  0  0  0  0  0  0  0  0
 18 19  1  0  0  0
 19 20  2  0  0  0
 19 21  2  0  0  0
 19  1  1  0  0  0
  1  2  1  0  0  0
  2  3  2  0  0  0
  3  4  1  0  0  0
  4  5  1  0  0  0
  4  6  2  0  0  0
  6  7  1  0  0  0
  7 22  1  0  0  0
 22 23  2  0  0  0
 22 24  1  0  0  0
 24 26  1  0  0  0
 26 27  2  0  0  0
 27 28  1  0  0  0
 28 29  2  0  0  0
 29 30  1  0  0  0
 30 31  2  0  0  0
 30 32  1  0  0  0
 32 33  1  0  0  0
 33 34  1  0  0  0
  7  8  2  0  0  0
  8  9  1  0  0  0
  9 10  2  0  0  0
 10 11  1  0  0  0
 11 12  1  0  0  0
 12 13  1  0  0  0
 13 14  1  0  0  0
 14 15  1  0  0  0
 15 16  1  0  0  0
 10  1  1  0  0  0
 16 11  1  0  0  0
  9  3  1  0  0  0
 31 26  1  0  0  0
 34 29  1  0  0  0
 24 25  1  0  0  0
 33 35  1  0  0  0
 14 17  1  0  0  0
M  END
> <minimizedAffinity>
-9.21958

> <minimizedRMSD>
0.58314

$$$$
P28934


 35 39  0  0  0  0  0  0  0  0999 V2000
   -4.1266    7.4714  -17.5325 C   0  0  0  0  0  0  0  0  0  0  0  0
   -4.9226    6.3236  -18.1726 C   0  0  0  0  0  0  0  0  0  0  0  0
   -5.6306    5.4366  -17.1358 C   0  0  0  0  0  0  0  0  0  0  0  0
   -5.2904    5.0202  -15.8669 C   0  0  0  0  0  0  0  0  0  0  0  0
   -6.2881    4.4012  -15.0853 C   0  0  0  0  0  0  0  0  0  0  0  0
   -7.5849    4.1686  -15.5879 C   0  0  0  0  0  0  0  0  0  0  0  0
   -7.9109    4.5776  -16.8756 C   0  0  0  0  0  0  0  0  0  0  0  0
   -9.5192    4.4354  -17.4705 Cl  0  0  0  0  0  0  0  0  0  0  0  0
   -6.9425    5.2379  -17.6079 C   0  0  0  0  0  0  0  0  0  0  0  0
   -7.0833    5.8953  -18.8387 N   0  0  0  0  0  0  0  0  0  0  0  0
   -6.1558    6.9411  -18.7640 N   0  0  0  0  0  0  0  0  0  0  0  0
   -5.9548    7.6200  -20.0049 O   0  0  0  0  0  0  0  0  0  0  0  0
   -7.6913    5.6734  -19.5806 H   0  0  0  0  0  0  0  0  0  0  0  0
   -6.7983    7.9863  -20.3133 H   0  0  0  0  0  0  0  0  0  0  0  0
   -4.0721    5.4380  -19.1734 C   0  0  0  0  0  0  0  0  0  0  0  0
   -3.2386    6.2390  -20.2007 C   0  0  0  0  0  0  0  0  0  0  0  0
   -2.2841    5.4048  -21.0392 C   0  0  0  0  0  0  0  0  0  0  0  0
   -1.4018    4.6174  -20.1952 N   0  0  0  0  0  0  0  0  0  0  0  0
   -2.1979    3.7231  -19.3695 C   0  0  0  0  0  0  0  0  0  0  0  0
   -3.1237    4.4777  -18.4235 C   0  0  0  0  0  0  0  0  0  0  0  0
   -0.8577    5.2393  -19.5972 H   0  0  0  0  0  0  0  0  0  0  0  0
   -5.9556    4.0987  -13.6784 C   0  0  0  0  0  0  0  0  0  0  0  0
   -4.8889    4.4855  -13.2141 O   0  0  0  0  0  0  0  0  0  0  0  0
   -6.8930    3.2712  -12.8330 C   0  0  0  0  0  0  0  0  0  0  0  0
   -7.0349    2.0921  -13.1417 O   0  0  0  0  0  0  0  0  0  0  0  0
   -7.4990    3.8338  -11.6014 C   0  0  0  0  0  0  0  0  0  0  0  0
   -7.4543    3.0141  -10.4615 C   0  0  0  0  0  0  0  0  0  0  0  0
   -7.8120    3.4949   -9.2053 C   0  0  0  0  0  0  0  0  0  0  0  0
   -8.2035    4.8140   -9.1115 C   0  0  0  0  0  0  0  0  0  0  0  0
   -8.3047    5.6235  -10.2385 C   0  0  0  0  0  0  0  0  0  0  0  0
   -7.9821    5.1452  -11.4991 C   0  0  0  0  0  0  0  0  0  0  0  0
   -8.7576    6.9832   -9.8252 C   0  0  0  0  0  0  0  0  0  0  0  0
   -8.6412    7.0144   -8.3389 N   0  0  0  0  0  0  0  0  0  0  0  0
   -8.5536    5.5960   -7.8970 C   0  0  0  0  0  0  0  0  0  0  0  0
   -9.4614    7.4618   -7.9297 H   0  0  0  0  0  0  0  0  0  0  0  0
  2  1  1  0  0  0
  2 15  1  0  0  0
 15 16  1  0  0  0
 16 17  1  0  0  0
 17 18  1  0  0  0
 18 19  1  0  0  0
 19 20  1  0  0  0
  2  3  1  0  0  0
  3  4  2  0  0  0
  4  5  1  0  0  0
  5 22  1  0  0  0
 22 23  2  0  0  0
 22 24  1  0  0  0
 24 25  2  0  0  0
 24 26  1  0  0  0
 26 27  2  0  0  0
 27 28  1  0  0  0
 28 29  2  0  0  0
 29 30  1  0  0  0
 30 31  2  0  0  0
 30 32  1  0  0  0
 32 33  1  0  0  0
 33 34  1  0  0  0
  5  6  2  0  0  0
  6  7  1  0  0  0
  7  8  1  0  0  0
  7  9  2  0  0  0
  9 10  1  0  0  0
 10 11  1  0  0  0
 11 12  1  0  0  0
 11  2  1  0  0  0
 20 15  1  0  0  0
  9  3  1  0  0  0
 31 26  1  0  0  0
 34 29  1  0  0  0
 18 21  1  0  0  0
 33 35  1  0  0  0
 10 13  1  0  0  0
 12 14  1  0  0  0
M  END
> <minimizedAffinity>
-8.39766

> <minimizedRMSD>
0.89851

$$$$
P28983


 31 35  0  0  0  0  0  0  0  0999 V2000
   -5.0732    5.1340  -18.5587 C   0  0  0  0  0  0  0  0  0  0  0  0
   -6.2771    4.8697  -19.0271 N   0  0  0  0  0  0  0  0  0  0  0  0
   -7.1086    4.7345  -17.9382 C   0  0  0  0  0  0  0  0  0  0  0  0
   -8.4981    4.5195  -17.8401 C   0  0  0  0  0  0  0  0  0  0  0  0
   -9.1071    4.5608  -16.5679 C   0  0  0  0  0  0  0  0  0  0  0  0
   -8.3279    4.7966  -15.4343 C   0  0  0  0  0  0  0  0  0  0  0  0
   -6.9367    4.9332  -15.5051 C   0  0  0  0  0  0  0  0  0  0  0  0
   -6.3819    4.9092  -16.7739 C   0  0  0  0  0  0  0  0  0  0  0  0
   -5.1019    5.1098  -17.1931 N   0  0  0  0  0  0  0  0  0  0  0  0
   -4.3203    5.2200  -16.6046 H   0  0  0  0  0  0  0  0  0  0  0  0
   -8.8809    5.1386  -14.1105 C   0  0  0  0  0  0  0  0  0  0  0  0
   -9.5920    6.0605  -14.0511 O   0  0  0  0  0  0  0  0  0  0  0  0
   -8.3180    4.2406  -12.9971 N   0  0  0  0  0  0  0  0  0  0  0  0
   -7.7932    3.4705  -13.3147 H   0  0  0  0  0  0  0  0  0  0  0  0
   -8.4292    4.3388  -11.6136 C   0  0  0  0  0  0  0  0  0  0  0  0
   -8.1383    5.5590  -10.9741 C   0  0  0  0  0  0  0  0  0  0  0  0
   -8.1500    5.6646   -9.5826 C   0  0  0  0  0  0  0  0  0  0  0  0
   -8.4732    4.5385   -8.8531 C   0  0  0  0  0  0  0  0  0  0  0  0
   -8.7939    3.3387   -9.4820 C   0  0  0  0  0  0  0  0  0  0  0  0
   -8.7616    3.2138  -10.8621 C   0  0  0  0  0  0  0  0  0  0  0  0
   -9.1818    2.3363   -8.4485 C   0  0  0  0  0  0  0  0  0  0  0  0
   -8.7584    2.9224   -7.1447 N   0  0  0  0  0  0  0  0  0  0  0  0
   -8.5889    4.3723   -7.3786 C   0  0  0  0  0  0  0  0  0  0  0  0
   -7.8774    2.5081   -6.8405 H   0  0  0  0  0  0  0  0  0  0  0  0
   -3.9526    5.5431  -19.2293 N   0  0  0  0  0  0  0  0  0  0  0  0
   -2.6799    4.8796  -19.2964 C   0  0  0  0  0  0  0  0  0  0  0  0
   -1.5035    5.5232  -18.5546 C   0  0  0  0  0  0  0  0  0  0  0  0
   -0.6173    5.1164  -19.7556 C   0  0  0  0  0  0  0  0  0  0  0  0
   -1.8976    5.0571  -20.6131 C   0  0  0  0  0  0  0  0  0  0  0  0
   -4.7414    7.3462  -20.8589 C   0  0  0  0  0  0  0  0  0  0  0  0
   -4.0164    6.9827  -19.5709 C   0  0  0  0  0  0  0  0  0  0  0  0
 30 31  1  0  0  0
 31 25  1  0  0  0
 25  1  1  0  0  0
  1  2  2  0  0  0
  2  3  1  0  0  0
  3  4  2  0  0  0
  4  5  1  0  0  0
  5  6  2  0  0  0
  6 11  1  0  0  0
 11 12  2  0  0  0
 11 13  1  0  0  0
 13 15  1  0  0  0
 15 16  2  0  0  0
 16 17  1  0  0  0
 17 18  2  0  0  0
 18 19  1  0  0  0
 19 20  2  0  0  0
 19 21  1  0  0  0
 21 22  1  0  0  0
 22 23  1  0  0  0
  6  7  1  0  0  0
  7  8  2  0  0  0
  8  9  1  0  0  0
 25 26  1  0  0  0
 26 27  1  0  0  0
 27 28  1  0  0  0
 28 29  1  0  0  0
  9  1  1  0  0  0
 29 26  1  0  0  0
  8  3  1  0  0  0
 20 15  1  0  0  0
 23 18  1  0  0  0
 13 14  1  0  0  0
 22 24  1  0  0  0
  9 10  1  0  0  0
M  END
> <minimizedAffinity>
-8.71013

> <minimizedRMSD>
0.89840

$$$$
P28991


 40 45  0  0  0  0  0  0  0  0999 V2000
   -7.9943    5.2700  -13.2038 C   0  0  0  0  0  0  0  0  0  0  0  0
   -9.4734    3.9000  -18.0639 Cl  0  0  0  0  0  0  0  0  0  0  0  0
   -8.3019    4.3492  -16.9105 C   0  0  0  0  0  0  0  0  0  0  0  0
   -8.5951    4.4885  -15.5539 C   0  0  0  0  0  0  0  0  0  0  0  0
   -7.6185    4.9434  -14.6516 C   0  0  0  0  0  0  0  0  0  0  0  0
   -6.3130    5.2181  -15.1118 C   0  0  0  0  0  0  0  0  0  0  0  0
   -6.0636    5.0746  -16.4810 C   0  0  0  0  0  0  0  0  0  0  0  0
   -4.9431    5.2849  -17.2420 N   0  0  0  0  0  0  0  0  0  0  0  0
   -5.2593    5.0516  -18.5511 C   0  0  0  0  0  0  0  0  0  0  0  0
   -6.4949    4.6430  -18.6687 N   0  0  0  0  0  0  0  0  0  0  0  0
   -7.0243    4.6565  -17.3980 C   0  0  0  0  0  0  0  0  0  0  0  0
   -4.0601    5.5578  -16.9029 H   0  0  0  0  0  0  0  0  0  0  0  0
   -4.3639    5.1962  -19.5482 N   0  0  0  0  0  0  0  0  0  0  0  0
   -3.9975    4.3731  -19.9452 H   0  0  0  0  0  0  0  0  0  0  0  0
   -3.8981    6.4427  -20.0817 C   0  0  0  0  0  0  0  0  0  0  0  0
   -3.3964    6.3168  -21.5367 C   0  0  0  0  0  0  0  0  0  0  0  0
   -4.8159    6.6872  -22.0112 C   0  0  0  0  0  0  0  0  0  0  0  0
   -5.0499    7.3205  -20.6237 C   0  0  0  0  0  0  0  0  0  0  0  0
   -9.0736    6.2655  -13.2225 N   0  0  0  0  0  0  0  0  0  0  0  0
   -8.7741    7.4182  -13.0585 C   0  0  0  0  0  0  0  0  0  0  0  0
   -9.6734    8.6928  -12.9191 N   0  0  0  0  0  0  0  0  0  0  0  0
   -9.1778    9.5409  -12.8540 H   0  0  0  0  0  0  0  0  0  0  0  0
  -11.1024    8.8273  -12.8706 C   0  0  0  0  0  0  0  0  0  0  0  0
  -11.5127    9.4466  -11.5331 C   0  0  0  0  0  0  0  0  0  0  0  0
  -12.8289   10.1984  -11.5949 C   0  0  0  0  0  0  0  0  0  0  0  0
  -12.7113   11.0893  -10.3836 C   0  0  0  0  0  0  0  0  0  0  0  0
  -11.2406   11.4581  -10.3914 C   0  0  0  0  0  0  0  0  0  0  0  0
  -10.5390   10.4298  -11.1112 O   0  0  0  0  0  0  0  0  0  0  0  0
   -8.3722    4.0620  -12.4944 N   0  0  0  0  0  0  0  0  0  0  0  0
   -8.6471    3.2695  -13.0098 H   0  0  0  0  0  0  0  0  0  0  0  0
   -8.3560    3.9942  -11.0968 C   0  0  0  0  0  0  0  0  0  0  0  0
   -8.0822    5.0969  -10.2602 C   0  0  0  0  0  0  0  0  0  0  0  0
   -8.1730    5.0268   -8.8636 C   0  0  0  0  0  0  0  0  0  0  0  0
   -8.5734    3.8375   -8.2973 C   0  0  0  0  0  0  0  0  0  0  0  0
   -8.8616    2.7407   -9.0939 C   0  0  0  0  0  0  0  0  0  0  0  0
   -8.7664    2.8040  -10.4789 C   0  0  0  0  0  0  0  0  0  0  0  0
   -9.2377    1.5903   -8.2248 C   0  0  0  0  0  0  0  0  0  0  0  0
   -9.4124    2.1506   -6.8583 N   0  0  0  0  0  0  0  0  0  0  0  0
   -8.7843    3.4868   -6.8657 C   0  0  0  0  0  0  0  0  0  0  0  0
   -8.9557    1.5509   -6.1712 H   0  0  0  0  0  0  0  0  0  0  0  0
  2  3  1  0  0  0
  3  4  2  0  0  0
  4  5  1  0  0  0
  5  1  1  0  0  0
  1 19  1  0  0  0
 19 20  2  0  0  0
 20 21  1  0  0  0
 21 23  1  0  0  0
 24 23  1  0  0  0
 24 25  1  0  0  0
 25 26  1  0  0  0
 26 27  1  0  0  0
 27 28  1  0  0  0
  1 29  1  0  0  0
 29 31  1  0  0  0
 31 32  2  0  0  0
 32 33  1  0  0  0
 33 34  2  0  0  0
 34 35  1  0  0  0
 35 36  2  0  0  0
 35 37  1  0  0  0
 37 38  1  0  0  0
 38 39  1  0  0  0
  5  6  2  0  0  0
  6  7  1  0  0  0
  7  8  1  0  0  0
  8  9  1  0  0  0
  9 13  1  0  0  0
 13 15  1  0  0  0
 15 16  1  0  0  0
 16 17  1  0  0  0
 17 18  1  0  0  0
  9 10  2  0  0  0
 10 11  1  0  0  0
 11  3  1  0  0  0
 28 24  1  0  0  0
 36 31  1  0  0  0
 11  7  2  0  0  0
 39 34  1  0  0  0
 18 15  1  0  0  0
 21 22  1  0  0  0
 29 30  1  0  0  0
 38 40  1  0  0  0
  8 12  1  0  0  0
 13 14  1  0  0  0
M  END
> <minimizedAffinity>
-8.88970

> <minimizedRMSD>
0.51318

$$$$
P29010


 45 49  0  0  0  0  0  0  0  0999 V2000
   -6.8952    4.7238  -12.7881 C   0  0  0  0  0  0  0  0  0  0  0  0
   -7.0439    4.7256  -14.3666 C   0  0  0  0  0  0  0  0  0  0  0  0
   -8.2384    4.3486  -15.0245 C   0  0  0  0  0  0  0  0  0  0  0  0
   -8.3096    4.3175  -16.4219 C   0  0  0  0  0  0  0  0  0  0  0  0
   -9.7201    3.9368  -17.3034 Cl  0  0  0  0  0  0  0  0  0  0  0  0
   -7.1930    4.6357  -17.1991 C   0  0  0  0  0  0  0  0  0  0  0  0
   -7.0195    4.6877  -18.5566 N   0  0  0  0  0  0  0  0  0  0  0  0
   -5.7870    5.0688  -18.7527 C   0  0  0  0  0  0  0  0  0  0  0  0
   -5.1235    5.2005  -17.5641 N   0  0  0  0  0  0  0  0  0  0  0  0
   -6.0214    4.9944  -16.5476 C   0  0  0  0  0  0  0  0  0  0  0  0
   -5.9102    5.0652  -15.1561 C   0  0  0  0  0  0  0  0  0  0  0  0
   -4.1670    5.4073  -17.4565 H   0  0  0  0  0  0  0  0  0  0  0  0
   -5.2206    5.3136  -19.9477 N   0  0  0  0  0  0  0  0  0  0  0  0
   -5.4155    4.6773  -20.6733 H   0  0  0  0  0  0  0  0  0  0  0  0
   -4.3594    6.4152  -20.2624 C   0  0  0  0  0  0  0  0  0  0  0  0
   -3.9723    6.4603  -21.7545 C   0  0  0  0  0  0  0  0  0  0  0  0
   -5.1666    7.4077  -21.9888 C   0  0  0  0  0  0  0  0  0  0  0  0
   -5.1233    7.7390  -20.4873 C   0  0  0  0  0  0  0  0  0  0  0  0
   -6.7289    6.3211  -12.3395 C   0  0  0  0  0  0  0  0  0  0  0  0
   -5.7888    6.7035  -11.7521 O   0  0  0  0  0  0  0  0  0  0  0  0
   -8.0132    7.0832  -12.7998 N   0  0  0  0  0  0  0  0  0  0  0  0
   -8.6323    6.5523  -13.3513 H   0  0  0  0  0  0  0  0  0  0  0  0
   -8.4410    8.4459  -12.5462 C   0  0  0  0  0  0  0  0  0  0  0  0
   -9.8782    8.7005  -12.9912 C   0  0  0  0  0  0  0  0  0  0  0  0
  -10.6804    8.8396  -11.9089 F   0  0  0  0  0  0  0  0  0  0  0  0
  -10.3292    7.6127  -13.6708 F   0  0  0  0  0  0  0  0  0  0  0  0
   -5.6001    4.0645  -12.5429 N   0  0  0  0  0  0  0  0  0  0  0  0
   -5.2359    3.7556  -13.4442 H   0  0  0  0  0  0  0  0  0  0  0  0
   -5.6059    2.9033  -11.6454 C   0  0  0  0  0  0  0  0  0  0  0  0
   -4.3368    2.3685   -9.6091 O   0  0  0  0  0  0  0  0  0  0  0  0
   -4.7861    3.1935  -10.3915 C   0  0  0  0  0  0  0  0  0  0  0  0
   -4.6327    4.5146  -10.1258 O   0  0  0  0  0  0  0  0  0  0  0  0
   -4.9735    5.1546  -10.7193 H   0  0  0  0  0  0  0  0  0  0  0  0
   -8.1620    4.1724  -12.2238 N   0  0  0  0  0  0  0  0  0  0  0  0
   -8.8873    3.8913  -12.8272 H   0  0  0  0  0  0  0  0  0  0  0  0
   -8.3213    4.0539  -10.8329 C   0  0  0  0  0  0  0  0  0  0  0  0
   -8.1423    5.1455   -9.9610 C   0  0  0  0  0  0  0  0  0  0  0  0
   -8.3132    5.0186   -8.5794 C   0  0  0  0  0  0  0  0  0  0  0  0
   -8.6952    3.7914   -8.0798 C   0  0  0  0  0  0  0  0  0  0  0  0
   -8.8971    2.7099   -8.9259 C   0  0  0  0  0  0  0  0  0  0  0  0
   -8.7244    2.8241  -10.2975 C   0  0  0  0  0  0  0  0  0  0  0  0
   -9.2628    1.5148   -8.1138 C   0  0  0  0  0  0  0  0  0  0  0  0
   -9.5298    2.0214   -6.7414 N   0  0  0  0  0  0  0  0  0  0  0  0
   -8.9594    3.3815   -6.6724 C   0  0  0  0  0  0  0  0  0  0  0  0
   -9.0835    1.4177   -6.0509 H   0  0  0  0  0  0  0  0  0  0  0  0
 30 31  2  0  0  0
 31 32  1  0  0  0
 31 29  1  0  0  0
 29 27  1  0  0  0
  1 27  1  0  0  0
  1 34  1  0  0  0
 34 36  1  0  0  0
 36 37  2  0  0  0
 37 38  1  0  0  0
 38 39  2  0  0  0
 39 40  1  0  0  0
 40 41  2  0  0  0
 40 42  1  0  0  0
 42 43  1  0  0  0
 43 44  1  0  0  0
  1 19  1  0  0  0
 19 20  2  0  0  0
 19 21  1  0  0  0
 21 23  1  0  0  0
 23 24  1  0  0  0
 24 25  1  0  0  0
 24 26  1  0  0  0
  1  2  1  0  0  0
  2  3  2  0  0  0
  3  4  1  0  0  0
  4  5  1  0  0  0
  4  6  2  0  0  0
  6  7  1  0  0  0
  7  8  2  0  0  0
  8 13  1  0  0  0
 13 15  1  0  0  0
 15 16  1  0  0  0
 16 17  1  0  0  0
 17 18  1  0  0  0
  8  9  1  0  0  0
  9 10  1  0  0  0
 10 11  2  0  0  0
 41 36  1  0  0  0
 11  2  1  0  0  0
 44 39  1  0  0  0
 10  6  1  0  0  0
 18 15  1  0  0  0
 32 33  1  0  0  0
 27 28  1  0  0  0
 34 35  1  0  0  0
 43 45  1  0  0  0
 21 22  1  0  0  0
 13 14  1  0  0  0
  9 12  1  0  0  0
M  END
> <minimizedAffinity>
-8.01830

> <minimizedRMSD>
0.82001

$$$$
P29030


 21 23  0  0  0  0  0  0  0  0999 V2000
   -7.4456    4.7051  -14.7763 C   0  0  0  0  0  0  0  0  0  0  0  0
   -8.5468    4.4574  -15.6500 C   0  0  0  0  0  0  0  0  0  0  0  0
   -8.4122    4.4324  -17.0441 C   0  0  0  0  0  0  0  0  0  0  0  0
   -9.7006    4.1905  -18.1141 Cl  0  0  0  0  0  0  0  0  0  0  0  0
   -7.1233    4.6778  -17.5455 C   0  0  0  0  0  0  0  0  0  0  0  0
   -6.6413    4.7181  -18.7917 N   0  0  0  0  0  0  0  0  0  0  0  0
   -5.3370    4.9684  -18.6747 N   0  0  0  0  0  0  0  0  0  0  0  0
   -4.9044    5.1238  -17.3826 C   0  0  0  0  0  0  0  0  0  0  0  0
   -6.0398    4.9494  -16.6274 C   0  0  0  0  0  0  0  0  0  0  0  0
   -6.1296    4.9846  -15.2352 C   0  0  0  0  0  0  0  0  0  0  0  0
   -4.7349    5.0361  -19.4507 H   0  0  0  0  0  0  0  0  0  0  0  0
   -6.8110    5.1788  -12.5453 O   0  0  0  0  0  0  0  0  0  0  0  0
   -7.6588    4.7401  -13.3068 C   0  0  0  0  0  0  0  0  0  0  0  0
   -8.8421    4.2607  -12.8748 O   0  0  0  0  0  0  0  0  0  0  0  0
   -9.4674    3.9324  -13.4905 H   0  0  0  0  0  0  0  0  0  0  0  0
   -3.4707    5.3574  -17.0660 C   0  0  0  0  0  0  0  0  0  0  0  0
   -2.9973    6.7113  -17.5835 C   0  0  0  0  0  0  0  0  0  0  0  0
   -1.8477    7.3471  -16.7777 C   0  0  0  0  0  0  0  0  0  0  0  0
   -2.8352    8.1862  -16.0690 N   0  0  0  0  0  0  0  0  0  0  0  0
   -3.8063    7.9522  -17.1562 C   0  0  0  0  0  0  0  0  0  0  0  0
   -2.5546    9.1611  -15.9630 H   0  0  0  0  0  0  0  0  0  0  0  0
 12 13  2  0  0  0
 13 14  1  0  0  0
 13  1  1  0  0  0
  1  2  1  0  0  0
  2  3  2  0  0  0
  3  4  1  0  0  0
  3  5  1  0  0  0
  5  6  2  0  0  0
  6  7  1  0  0  0
  7  8  1  0  0  0
  8 16  1  0  0  0
 16 17  1  0  0  0
 17 18  1  0  0  0
 18 19  1  0  0  0
 19 20  1  0  0  0
  8  9  2  0  0  0
  9 10  1  0  0  0
 10  1  2  0  0  0
  9  5  1  0  0  0
 20 17  1  0  0  0
 14 15  1  0  0  0
  7 11  1  0  0  0
 19 21  1  0  0  0
M  END
> <minimizedAffinity>
-5.93586

> <minimizedRMSD>
0.31746

$$$$
P29031


 32 36  0  0  0  0  0  0  0  0999 V2000
   -5.0564    5.1924  -20.1191 C   0  0  0  0  0  0  0  0  0  0  0  0
   -5.6634    4.8243  -18.8646 N   0  0  0  0  0  0  0  0  0  0  0  0
   -5.1462    5.0531  -17.5959 C   0  0  0  0  0  0  0  0  0  0  0  0
   -6.2671    4.9202  -16.7717 C   0  0  0  0  0  0  0  0  0  0  0  0
   -6.2570    5.1442  -15.3946 C   0  0  0  0  0  0  0  0  0  0  0  0
   -7.5377    4.9531  -14.8140 C   0  0  0  0  0  0  0  0  0  0  0  0
   -8.7121    4.5570  -15.5338 C   0  0  0  0  0  0  0  0  0  0  0  0
   -8.7057    4.3245  -16.9178 C   0  0  0  0  0  0  0  0  0  0  0  0
  -10.0771    4.0491  -17.8560 Cl  0  0  0  0  0  0  0  0  0  0  0  0
   -7.4741    4.5085  -17.5218 C   0  0  0  0  0  0  0  0  0  0  0  0
   -7.0597    4.3292  -18.7933 N   0  0  0  0  0  0  0  0  0  0  0  0
   -7.5242    3.6360  -19.7380 O   0  0  0  0  0  0  0  0  0  0  0  0
   -7.6775    5.3473  -13.3889 C   0  0  0  0  0  0  0  0  0  0  0  0
   -7.4725    6.4626  -13.1102 O   0  0  0  0  0  0  0  0  0  0  0  0
   -8.1181    4.1585  -12.5049 N   0  0  0  0  0  0  0  0  0  0  0  0
   -8.2997    3.3248  -12.9960 H   0  0  0  0  0  0  0  0  0  0  0  0
   -8.3003    4.0745  -11.1242 C   0  0  0  0  0  0  0  0  0  0  0  0
   -8.0806    5.1874  -10.2951 C   0  0  0  0  0  0  0  0  0  0  0  0
   -8.2588    5.1006   -8.9099 C   0  0  0  0  0  0  0  0  0  0  0  0
   -8.6677    3.8925   -8.3790 C   0  0  0  0  0  0  0  0  0  0  0  0
   -8.8785    2.7848   -9.1947 C   0  0  0  0  0  0  0  0  0  0  0  0
   -8.6974    2.8548  -10.5673 C   0  0  0  0  0  0  0  0  0  0  0  0
   -9.2663    1.6235   -8.3394 C   0  0  0  0  0  0  0  0  0  0  0  0
   -9.6577    2.2200   -7.0351 N   0  0  0  0  0  0  0  0  0  0  0  0
   -8.9384    3.5112   -6.9619 C   0  0  0  0  0  0  0  0  0  0  0  0
   -9.3777    1.6114   -6.2659 H   0  0  0  0  0  0  0  0  0  0  0  0
   -3.7086    5.3298  -17.3140 C   0  0  0  0  0  0  0  0  0  0  0  0
   -3.3778    6.7996  -17.4743 C   0  0  0  0  0  0  0  0  0  0  0  0
   -1.9498    7.2202  -17.0690 C   0  0  0  0  0  0  0  0  0  0  0  0
   -2.5284    8.4811  -16.5326 N   0  0  0  0  0  0  0  0  0  0  0  0
   -3.8139    7.7646  -16.3515 C   0  0  0  0  0  0  0  0  0  0  0  0
   -2.5636    9.2485  -17.2037 H   0  0  0  0  0  0  0  0  0  0  0  0
  1  2  1  0  0  0
  2  3  1  0  0  0
  3 27  1  0  0  0
 27 28  1  0  0  0
 28 29  1  0  0  0
 29 30  1  0  0  0
 30 31  1  0  0  0
  3  4  2  0  0  0
  4  5  1  0  0  0
  5  6  2  0  0  0
  6 13  1  0  0  0
 13 14  2  0  0  0
 13 15  1  0  0  0
 15 17  1  0  0  0
 17 18  2  0  0  0
 18 19  1  0  0  0
 19 20  2  0  0  0
 20 21  1  0  0  0
 21 22  2  0  0  0
 21 23  1  0  0  0
 23 24  1  0  0  0
 24 25  1  0  0  0
  6  7  1  0  0  0
  7  8  2  0  0  0
  8  9  1  0  0  0
  8 10  1  0  0  0
 10 11  2  0  0  0
 11 12  1  0  0  0
 11  2  1  0  0  0
 31 28  1  0  0  0
 10  4  1  0  0  0
 22 17  1  0  0  0
 25 20  1  0  0  0
 30 32  1  0  0  0
 15 16  1  0  0  0
 24 26  1  0  0  0
M  CHG 1  11   1
M  CHG 1  12  -1
M  END
> <minimizedAffinity>
-8.26934

> <minimizedRMSD>
0.35052

$$$$
P29038


 43 48  0  0  0  0  0  0  0  0999 V2000
   -7.0241    5.2018  -13.3547 C   0  0  0  0  0  0  0  0  0  0  0  0
   -5.7190    4.8978  -12.8820 O   0  0  0  0  0  0  0  0  0  0  0  0
   -5.6661    5.0897  -11.9327 H   0  0  0  0  0  0  0  0  0  0  0  0
   -7.0912    4.8913  -14.8653 C   0  0  0  0  0  0  0  0  0  0  0  0
   -8.3428    4.4251  -15.4119 C   0  0  0  0  0  0  0  0  0  0  0  0
   -8.5350    4.1803  -16.7783 C   0  0  0  0  0  0  0  0  0  0  0  0
   -9.9789    3.6720  -17.4896 Cl  0  0  0  0  0  0  0  0  0  0  0  0
   -7.4399    4.4295  -17.6162 C   0  0  0  0  0  0  0  0  0  0  0  0
   -7.2918    4.3172  -18.9420 N   0  0  0  0  0  0  0  0  0  0  0  0
   -6.0515    4.7273  -19.2065 N   0  0  0  0  0  0  0  0  0  0  0  0
   -5.3177    5.0575  -18.0924 C   0  0  0  0  0  0  0  0  0  0  0  0
   -6.2010    4.8974  -17.0499 C   0  0  0  0  0  0  0  0  0  0  0  0
   -5.9544    5.1395  -15.6955 C   0  0  0  0  0  0  0  0  0  0  0  0
   -5.6921    4.7884  -20.1210 H   0  0  0  0  0  0  0  0  0  0  0  0
   -3.8884    5.4564  -18.1779 C   0  0  0  0  0  0  0  0  0  0  0  0
   -3.6776    6.5959  -19.1708 C   0  0  0  0  0  0  0  0  0  0  0  0
   -2.2958    7.2782  -19.0939 C   0  0  0  0  0  0  0  0  0  0  0  0
   -2.8943    8.3496  -18.2702 N   0  0  0  0  0  0  0  0  0  0  0  0
   -4.2278    7.9857  -18.7905 C   0  0  0  0  0  0  0  0  0  0  0  0
   -2.5896    9.2900  -18.5213 H   0  0  0  0  0  0  0  0  0  0  0  0
   -8.5273    7.1540  -13.1828 O   0  0  0  0  0  0  0  0  0  0  0  0
   -7.3913    6.7669  -13.1703 C   0  0  0  0  0  0  0  0  0  0  0  0
   -6.1470    7.4928  -13.0093 N   0  0  0  0  0  0  0  0  0  0  0  0
   -5.3368    6.9436  -13.1148 H   0  0  0  0  0  0  0  0  0  0  0  0
   -5.8946    8.8817  -12.7210 C   0  0  0  0  0  0  0  0  0  0  0  0
   -6.0042    9.7755  -13.9674 C   0  0  0  0  0  0  0  0  0  0  0  0
   -5.1757    9.2429  -15.1414 C   0  0  0  0  0  0  0  0  0  0  0  0
   -3.6751    9.2982  -14.8575 C   0  0  0  0  0  0  0  0  0  0  0  0
   -3.3264   10.2950  -13.8942 O   0  0  0  0  0  0  0  0  0  0  0  0
   -4.1028   11.4800  -14.0283 C   0  0  0  0  0  0  0  0  0  0  0  0
   -5.5579   11.2130  -13.6450 C   0  0  0  0  0  0  0  0  0  0  0  0
   -7.9242    4.3244  -12.6186 N   0  0  0  0  0  0  0  0  0  0  0  0
   -8.4719    3.7100  -13.1588 H   0  0  0  0  0  0  0  0  0  0  0  0
   -8.0992    4.2544  -11.2404 C   0  0  0  0  0  0  0  0  0  0  0  0
   -7.9315    5.3417  -10.3573 C   0  0  0  0  0  0  0  0  0  0  0  0
   -8.1634    5.2343   -8.9779 C   0  0  0  0  0  0  0  0  0  0  0  0
   -8.5952    4.0248   -8.4831 C   0  0  0  0  0  0  0  0  0  0  0  0
   -8.7860    2.9438   -9.3317 C   0  0  0  0  0  0  0  0  0  0  0  0
   -8.5546    3.0429  -10.6957 C   0  0  0  0  0  0  0  0  0  0  0  0
   -9.2178    1.7672   -8.5221 C   0  0  0  0  0  0  0  0  0  0  0  0
   -9.6633    2.3384   -7.2224 N   0  0  0  0  0  0  0  0  0  0  0  0
   -8.9198    3.6109   -7.0872 C   0  0  0  0  0  0  0  0  0  0  0  0
   -9.4339    1.7061   -6.4556 H   0  0  0  0  0  0  0  0  0  0  0  0
 21 22  2  0  0  0
 22 23  1  0  0  0
 23 25  1  0  0  0
 25 26  1  0  0  0
 26 27  1  0  0  0
 27 28  1  0  0  0
 28 29  1  0  0  0
 29 30  1  0  0  0
 30 31  1  0  0  0
 22  1  1  0  0  0
  1  2  1  0  0  0
  1 32  1  0  0  0
 32 34  1  0  0  0
 34 35  2  0  0  0
 35 36  1  0  0  0
 36 37  2  0  0  0
 37 38  1  0  0  0
 38 39  2  0  0  0
 38 40  1  0  0  0
 40 41  1  0  0  0
 41 42  1  0  0  0
  1  4  1  0  0  0
  4  5  1  0  0  0
  5  6  2  0  0  0
  6  7  1  0  0  0
  6  8  1  0  0  0
  8  9  2  0  0  0
  9 10  1  0  0  0
 10 11  1  0  0  0
 11 15  1  0  0  0
 15 16  1  0  0  0
 16 17  1  0  0  0
 17 18  1  0  0  0
 18 19  1  0  0  0
 11 12  2  0  0  0
 12 13  1  0  0  0
 31 26  1  0  0  0
 39 34  1  0  0  0
 13  4  2  0  0  0
 42 37  1  0  0  0
 12  8  1  0  0  0
 19 16  1  0  0  0
 23 24  1  0  0  0
  2  3  1  0  0  0
 32 33  1  0  0  0
 41 43  1  0  0  0
 10 14  1  0  0  0
 18 20  1  0  0  0
M  END
> <minimizedAffinity>
-7.78213

> <minimizedRMSD>
1.01567

$$$$
P29039


 32 36  0  0  0  0  0  0  0  0999 V2000
   -6.9391    4.8329  -14.8944 C   0  0  0  0  0  0  0  0  0  0  0  0
   -8.1899    4.3767  -15.4221 C   0  0  0  0  0  0  0  0  0  0  0  0
   -8.3927    4.1766  -16.7920 C   0  0  0  0  0  0  0  0  0  0  0  0
   -9.8613    3.8160  -17.5071 Cl  0  0  0  0  0  0  0  0  0  0  0  0
   -7.3063    4.4690  -17.5912 C   0  0  0  0  0  0  0  0  0  0  0  0
   -6.0308    4.9684  -17.0497 C   0  0  0  0  0  0  0  0  0  0  0  0
   -5.7980    5.1458  -15.6825 C   0  0  0  0  0  0  0  0  0  0  0  0
   -5.0817    5.1511  -18.0585 C   0  0  0  0  0  0  0  0  0  0  0  0
   -5.7776    4.8359  -19.2099 N   0  0  0  0  0  0  0  0  0  0  0  0
   -7.0973    4.3081  -18.9128 N   0  0  0  0  0  0  0  0  0  0  0  0
   -7.6164    3.5485  -19.7636 O   0  0  0  0  0  0  0  0  0  0  0  0
   -5.4221    4.9546  -20.1203 H   0  0  0  0  0  0  0  0  0  0  0  0
   -6.1844    6.0072  -13.0844 O   0  0  0  0  0  0  0  0  0  0  0  0
   -6.8544    5.1173  -13.4353 C   0  0  0  0  0  0  0  0  0  0  0  0
   -7.7265    4.1354  -12.6175 N   0  0  0  0  0  0  0  0  0  0  0  0
   -8.1416    3.4153  -13.1450 H   0  0  0  0  0  0  0  0  0  0  0  0
   -8.0200    4.1043  -11.2549 C   0  0  0  0  0  0  0  0  0  0  0  0
   -7.8394    5.2366  -10.4441 C   0  0  0  0  0  0  0  0  0  0  0  0
   -8.1273    5.1933   -9.0751 C   0  0  0  0  0  0  0  0  0  0  0  0
   -8.5950    4.0068   -8.5426 C   0  0  0  0  0  0  0  0  0  0  0  0
   -8.7732    2.8823   -9.3425 C   0  0  0  0  0  0  0  0  0  0  0  0
   -8.4981    2.9126  -10.7001 C   0  0  0  0  0  0  0  0  0  0  0  0
   -9.2294    1.7466   -8.4867 C   0  0  0  0  0  0  0  0  0  0  0  0
   -9.6802    2.3760   -7.2177 N   0  0  0  0  0  0  0  0  0  0  0  0
   -8.9531    3.6623   -7.1354 C   0  0  0  0  0  0  0  0  0  0  0  0
   -9.4458    1.7823   -6.4222 H   0  0  0  0  0  0  0  0  0  0  0  0
   -3.6274    5.4271  -18.0510 C   0  0  0  0  0  0  0  0  0  0  0  0
   -3.2672    6.8481  -18.4535 C   0  0  0  0  0  0  0  0  0  0  0  0
   -2.4020    7.5391  -17.3759 C   0  0  0  0  0  0  0  0  0  0  0  0
   -3.6409    8.1347  -16.8226 N   0  0  0  0  0  0  0  0  0  0  0  0
   -4.2554    8.0015  -18.1633 C   0  0  0  0  0  0  0  0  0  0  0  0
   -3.5388    9.0965  -16.4987 H   0  0  0  0  0  0  0  0  0  0  0  0
 13 14  2  0  0  0
 14 15  1  0  0  0
 15 17  1  0  0  0
 17 18  2  0  0  0
 18 19  1  0  0  0
 19 20  2  0  0  0
 20 21  1  0  0  0
 21 22  2  0  0  0
 21 23  1  0  0  0
 23 24  1  0  0  0
 24 25  1  0  0  0
 14  1  1  0  0  0
  1  2  1  0  0  0
  2  3  2  0  0  0
  3  4  1  0  0  0
  3  5  1  0  0  0
  5  6  1  0  0  0
  6  7  1  0  0  0
  6  8  2  0  0  0
  8 27  1  0  0  0
 27 28  1  0  0  0
 28 29  1  0  0  0
 29 30  1  0  0  0
 30 31  1  0  0  0
  8  9  1  0  0  0
  9 10  1  0  0  0
 10 11  1  0  0  0
 22 17  1  0  0  0
  7  1  2  0  0  0
 31 28  1  0  0  0
 25 20  1  0  0  0
 10  5  2  0  0  0
 15 16  1  0  0  0
 24 26  1  0  0  0
 30 32  1  0  0  0
  9 12  1  0  0  0
M  CHG 1  10   1
M  CHG 1  11  -1
M  END
> <minimizedAffinity>
-8.74015

> <minimizedRMSD>
0.51368

$$$$
P29047


 32 36  0  0  0  0  0  0  0  0999 V2000
   -7.1489    4.7504  -15.0390 C   0  0  0  0  0  0  0  0  0  0  0  0
   -8.4206    4.3621  -15.5566 C   0  0  0  0  0  0  0  0  0  0  0  0
   -8.6320    4.1955  -16.9289 C   0  0  0  0  0  0  0  0  0  0  0  0
  -10.1245    3.8934  -17.6438 Cl  0  0  0  0  0  0  0  0  0  0  0  0
   -7.5374    4.4231  -17.7744 C   0  0  0  0  0  0  0  0  0  0  0  0
   -7.4105    4.3551  -19.1056 N   0  0  0  0  0  0  0  0  0  0  0  0
   -6.1608    4.7468  -19.3683 N   0  0  0  0  0  0  0  0  0  0  0  0
   -5.4012    4.9802  -18.2474 C   0  0  0  0  0  0  0  0  0  0  0  0
   -6.2769    4.8163  -17.2027 C   0  0  0  0  0  0  0  0  0  0  0  0
   -6.0069    5.0015  -15.8455 C   0  0  0  0  0  0  0  0  0  0  0  0
   -5.8149    4.8582  -20.2832 H   0  0  0  0  0  0  0  0  0  0  0  0
   -6.3187    5.9112  -13.2587 O   0  0  0  0  0  0  0  0  0  0  0  0
   -7.0431    5.0540  -13.5837 C   0  0  0  0  0  0  0  0  0  0  0  0
   -8.0112    4.1845  -12.7425 N   0  0  0  0  0  0  0  0  0  0  0  0
   -8.5769    3.5727  -13.2668 H   0  0  0  0  0  0  0  0  0  0  0  0
   -8.2116    4.1277  -11.3635 C   0  0  0  0  0  0  0  0  0  0  0  0
   -8.0224    5.2741  -10.5689 C   0  0  0  0  0  0  0  0  0  0  0  0
   -8.2082    5.2268   -9.1849 C   0  0  0  0  0  0  0  0  0  0  0  0
   -8.5717    4.0151   -8.6344 C   0  0  0  0  0  0  0  0  0  0  0  0
   -8.7678    2.8694   -9.4023 C   0  0  0  0  0  0  0  0  0  0  0  0
   -8.6049    2.9141  -10.7796 C   0  0  0  0  0  0  0  0  0  0  0  0
   -9.1014    1.7217   -8.5068 C   0  0  0  0  0  0  0  0  0  0  0  0
   -9.1814    2.3457   -7.2024 N   0  0  0  0  0  0  0  0  0  0  0  0
   -8.7923    3.6668   -7.2259 C   0  0  0  0  0  0  0  0  0  0  0  0
   -8.6356    4.4154   -6.2799 O   0  0  0  0  0  0  0  0  0  0  0  0
   -9.4805    1.8778   -6.3894 H   0  0  0  0  0  0  0  0  0  0  0  0
   -3.9553    5.3038  -18.3113 C   0  0  0  0  0  0  0  0  0  0  0  0
   -3.7314    6.7296  -18.7709 C   0  0  0  0  0  0  0  0  0  0  0  0
   -2.3266    7.2908  -18.4695 C   0  0  0  0  0  0  0  0  0  0  0  0
   -2.3743    7.9638  -19.7887 N   0  0  0  0  0  0  0  0  0  0  0  0
   -3.3346    6.9386  -20.2524 C   0  0  0  0  0  0  0  0  0  0  0  0
   -1.4867    7.9650  -20.2914 H   0  0  0  0  0  0  0  0  0  0  0  0
 12 13  2  0  0  0
 13 14  1  0  0  0
 14 16  1  0  0  0
 16 17  2  0  0  0
 17 18  1  0  0  0
 18 19  2  0  0  0
 19 20  1  0  0  0
 20 21  2  0  0  0
 20 22  1  0  0  0
 22 23  1  0  0  0
 23 24  1  0  0  0
 24 25  2  0  0  0
 13  1  1  0  0  0
  1  2  1  0  0  0
  2  3  2  0  0  0
  3  4  1  0  0  0
  3  5  1  0  0  0
  5  6  2  0  0  0
  6  7  1  0  0  0
  7  8  1  0  0  0
  8 27  1  0  0  0
 27 28  1  0  0  0
 28 29  1  0  0  0
 29 30  1  0  0  0
 30 31  1  0  0  0
  8  9  2  0  0  0
  9 10  1  0  0  0
 21 16  1  0  0  0
 10  1  2  0  0  0
 24 19  1  0  0  0
  9  5  1  0  0  0
 31 28  1  0  0  0
 14 15  1  0  0  0
 23 26  1  0  0  0
  7 11  1  0  0  0
 30 32  1  0  0  0
M  END
> <minimizedAffinity>
-8.91085

> <minimizedRMSD>
0.41361

$$$$
P29050


 35 39  0  0  0  0  0  0  0  0999 V2000
   -5.6605    5.0544  -13.1309 N   0  0  0  0  0  0  0  0  0  0  0  0
   -6.7190    4.5566  -13.4932 C   0  0  0  0  0  0  0  0  0  0  0  0
   -6.9594    4.5694  -14.9910 C   0  0  0  0  0  0  0  0  0  0  0  0
   -8.2673    4.3152  -15.5061 C   0  0  0  0  0  0  0  0  0  0  0  0
   -8.5223    4.2957  -16.8830 C   0  0  0  0  0  0  0  0  0  0  0  0
  -10.0158    3.9905  -17.5954 Cl  0  0  0  0  0  0  0  0  0  0  0  0
   -7.4533    4.5965  -17.7360 C   0  0  0  0  0  0  0  0  0  0  0  0
   -7.3750    4.6673  -19.0685 N   0  0  0  0  0  0  0  0  0  0  0  0
   -6.1155    5.0116  -19.3421 N   0  0  0  0  0  0  0  0  0  0  0  0
   -5.3073    5.0929  -18.2330 C   0  0  0  0  0  0  0  0  0  0  0  0
   -6.1619    4.8796  -17.1776 C   0  0  0  0  0  0  0  0  0  0  0  0
   -5.8383    4.8568  -15.8209 C   0  0  0  0  0  0  0  0  0  0  0  0
   -5.7941    5.1911  -20.2551 H   0  0  0  0  0  0  0  0  0  0  0  0
   -3.8368    5.2512  -18.3433 C   0  0  0  0  0  0  0  0  0  0  0  0
   -3.3668    6.6964  -18.4146 C   0  0  0  0  0  0  0  0  0  0  0  0
   -3.4438    7.5603  -17.1378 C   0  0  0  0  0  0  0  0  0  0  0  0
   -2.0923    7.0845  -16.7743 N   0  0  0  0  0  0  0  0  0  0  0  0
   -1.8376    6.8276  -18.2123 C   0  0  0  0  0  0  0  0  0  0  0  0
   -2.0826    6.2495  -16.1885 H   0  0  0  0  0  0  0  0  0  0  0  0
   -4.9098    3.7693  -11.3625 O   0  0  0  0  0  0  0  0  0  0  0  0
   -5.1495    4.8360  -11.8978 C   0  0  0  0  0  0  0  0  0  0  0  0
   -4.8491    6.0324  -11.3676 O   0  0  0  0  0  0  0  0  0  0  0  0
   -5.0614    6.8176  -11.8328 H   0  0  0  0  0  0  0  0  0  0  0  0
   -7.9443    3.9860  -12.6392 N   0  0  0  0  0  0  0  0  0  0  0  0
   -8.6435    3.5403  -13.1700 H   0  0  0  0  0  0  0  0  0  0  0  0
   -8.1850    4.0160  -11.2678 C   0  0  0  0  0  0  0  0  0  0  0  0
   -8.0814    5.1870  -10.4962 C   0  0  0  0  0  0  0  0  0  0  0  0
   -8.3058    5.1813   -9.1140 C   0  0  0  0  0  0  0  0  0  0  0  0
   -8.6805    3.9931   -8.5208 C   0  0  0  0  0  0  0  0  0  0  0  0
   -8.8213    2.8343   -9.2735 C   0  0  0  0  0  0  0  0  0  0  0  0
   -8.5650    2.8253  -10.6333 C   0  0  0  0  0  0  0  0  0  0  0  0
   -9.2286    1.7140   -8.3766 C   0  0  0  0  0  0  0  0  0  0  0  0
   -9.6772    2.3732   -7.1207 N   0  0  0  0  0  0  0  0  0  0  0  0
   -8.9797    3.6786   -7.0942 C   0  0  0  0  0  0  0  0  0  0  0  0
   -9.4163    1.8121   -6.3098 H   0  0  0  0  0  0  0  0  0  0  0  0
 20 21  2  0  0  0
 21 22  1  0  0  0
 21  1  1  0  0  0
  1  2  2  0  0  0
  2 24  1  0  0  0
 24 26  1  0  0  0
 26 27  2  0  0  0
 27 28  1  0  0  0
 28 29  2  0  0  0
 29 30  1  0  0  0
 30 31  2  0  0  0
 30 32  1  0  0  0
 32 33  1  0  0  0
 33 34  1  0  0  0
  2  3  1  0  0  0
  3  4  1  0  0  0
  4  5  2  0  0  0
  5  6  1  0  0  0
  5  7  1  0  0  0
  7  8  2  0  0  0
  8  9  1  0  0  0
  9 10  1  0  0  0
 10 14  1  0  0  0
 14 15  1  0  0  0
 15 16  1  0  0  0
 16 17  1  0  0  0
 17 18  1  0  0  0
 10 11  2  0  0  0
 11 12  1  0  0  0
 31 26  1  0  0  0
 12  3  2  0  0  0
 34 29  1  0  0  0
 11  7  1  0  0  0
 18 15  1  0  0  0
 22 23  1  0  0  0
 24 25  1  0  0  0
 33 35  1  0  0  0
  9 13  1  0  0  0
 17 19  1  0  0  0
M  END
> <minimizedAffinity>
-8.07005

> <minimizedRMSD>
0.43500

$$$$
P29051


 35 39  0  0  0  0  0  0  0  0999 V2000
   -5.3217    5.1997  -18.3127 N   0  0  0  0  0  0  0  0  0  0  0  0
   -6.5567    4.6930  -18.5083 N   0  0  0  0  0  0  0  0  0  0  0  0
   -7.1001    4.5974  -17.2848 C   0  0  0  0  0  0  0  0  0  0  0  0
   -8.3930    4.2706  -16.8390 C   0  0  0  0  0  0  0  0  0  0  0  0
   -9.5451    3.8073  -17.9725 Cl  0  0  0  0  0  0  0  0  0  0  0  0
   -8.6574    4.4450  -15.4742 C   0  0  0  0  0  0  0  0  0  0  0  0
   -7.6394    4.8661  -14.5694 C   0  0  0  0  0  0  0  0  0  0  0  0
   -6.2893    5.0805  -14.9399 C   0  0  0  0  0  0  0  0  0  0  0  0
   -6.1027    4.9587  -16.3136 C   0  0  0  0  0  0  0  0  0  0  0  0
   -4.9278    5.1626  -16.9927 C   0  0  0  0  0  0  0  0  0  0  0  0
   -8.0155    5.2697  -13.1876 C   0  0  0  0  0  0  0  0  0  0  0  0
   -8.4135    6.3559  -13.0313 O   0  0  0  0  0  0  0  0  0  0  0  0
   -7.8096    4.1241  -12.1741 N   0  0  0  0  0  0  0  0  0  0  0  0
   -7.3841    3.3174  -12.5449 H   0  0  0  0  0  0  0  0  0  0  0  0
   -8.1272    4.0457  -10.8221 C   0  0  0  0  0  0  0  0  0  0  0  0
   -7.9093    5.1376   -9.9669 C   0  0  0  0  0  0  0  0  0  0  0  0
   -8.1835    5.0319   -8.6012 C   0  0  0  0  0  0  0  0  0  0  0  0
   -7.8591    6.5029   -7.4614 Br  0  0  0  0  0  0  0  0  0  0  0  0
   -8.6637    3.8343   -8.1074 C   0  0  0  0  0  0  0  0  0  0  0  0
   -8.8806    2.7570   -8.9605 C   0  0  0  0  0  0  0  0  0  0  0  0
   -8.6375    2.8478  -10.3217 C   0  0  0  0  0  0  0  0  0  0  0  0
   -9.2959    1.5691   -8.1615 C   0  0  0  0  0  0  0  0  0  0  0  0
   -9.5940    2.0812   -6.8032 N   0  0  0  0  0  0  0  0  0  0  0  0
   -8.9797    3.4221   -6.7102 C   0  0  0  0  0  0  0  0  0  0  0  0
   -9.1941    1.4617   -6.0984 H   0  0  0  0  0  0  0  0  0  0  0  0
   -4.7047    6.0099  -19.3669 C   0  0  0  0  0  0  0  0  0  0  0  0
   -2.5473    5.4504  -20.2082 C   0  0  0  0  0  0  0  0  0  0  0  0
   -3.9705    5.1408  -20.2929 N   0  0  0  0  0  0  0  0  0  0  0  0
   -4.1237    4.1647  -20.0399 H   0  0  0  0  0  0  0  0  0  0  0  0
   -3.5202    5.3025  -16.5486 C   0  0  0  0  0  0  0  0  0  0  0  0
   -3.0184    6.7344  -16.4513 C   0  0  0  0  0  0  0  0  0  0  0  0
   -2.2870    6.9950  -15.1184 C   0  0  0  0  0  0  0  0  0  0  0  0
   -3.5586    7.5209  -14.5694 N   0  0  0  0  0  0  0  0  0  0  0  0
   -3.9832    7.8334  -15.9530 C   0  0  0  0  0  0  0  0  0  0  0  0
   -3.4521    8.3368  -13.9666 H   0  0  0  0  0  0  0  0  0  0  0  0
 27 28  1  0  0  0
 28 26  1  0  0  0
 26  1  1  0  0  0
  1  2  1  0  0  0
  2  3  2  0  0  0
  3  4  1  0  0  0
  4  5  1  0  0  0
  4  6  2  0  0  0
  6  7  1  0  0  0
  7 11  1  0  0  0
 11 12  2  0  0  0
 11 13  1  0  0  0
 13 15  1  0  0  0
 15 16  2  0  0  0
 16 17  1  0  0  0
 17 18  1  0  0  0
 17 19  2  0  0  0
 19 20  1  0  0  0
 20 21  2  0  0  0
 20 22  1  0  0  0
 22 23  1  0  0  0
 23 24  1  0  0  0
  7  8  2  0  0  0
  8  9  1  0  0  0
  9 10  2  0  0  0
 10 30  1  0  0  0
 30 31  1  0  0  0
 31 32  1  0  0  0
 32 33  1  0  0  0
 33 34  1  0  0  0
 10  1  1  0  0  0
 34 31  1  0  0  0
  9  3  1  0  0  0
 21 15  1  0  0  0
 24 19  1  0  0  0
 28 29  1  0  0  0
 13 14  1  0  0  0
 23 25  1  0  0  0
 33 35  1  0  0  0
M  END
> <minimizedAffinity>
-8.55282

> <minimizedRMSD>
0.92320

$$$$
P29053


 40 45  0  0  0  0  0  0  0  0999 V2000
   -5.0468    5.2259  -18.3408 N   0  0  0  0  0  0  0  0  0  0  0  0
   -6.2789    4.7909  -18.6824 N   0  0  0  0  0  0  0  0  0  0  0  0
   -6.9488    4.6382  -17.5337 C   0  0  0  0  0  0  0  0  0  0  0  0
   -8.2849    4.2953  -17.2516 C   0  0  0  0  0  0  0  0  0  0  0  0
   -9.3341    3.9974  -18.5380 Cl  0  0  0  0  0  0  0  0  0  0  0  0
   -8.6778    4.3414  -15.9089 C   0  0  0  0  0  0  0  0  0  0  0  0
   -7.7498    4.6891  -14.8870 C   0  0  0  0  0  0  0  0  0  0  0  0
   -6.3728    4.9438  -15.0934 C   0  0  0  0  0  0  0  0  0  0  0  0
   -6.0501    4.9235  -16.4467 C   0  0  0  0  0  0  0  0  0  0  0  0
   -4.8099    5.1819  -16.9839 C   0  0  0  0  0  0  0  0  0  0  0  0
   -8.2814    5.0322  -13.5539 C   0  0  0  0  0  0  0  0  0  0  0  0
   -9.0387    5.9177  -13.4919 O   0  0  0  0  0  0  0  0  0  0  0  0
   -7.7436    4.0967  -12.4511 N   0  0  0  0  0  0  0  0  0  0  0  0
   -7.1640    3.3695  -12.7742 H   0  0  0  0  0  0  0  0  0  0  0  0
   -7.9465    4.1134  -11.0586 C   0  0  0  0  0  0  0  0  0  0  0  0
   -8.5543    2.9487  -10.5557 C   0  0  0  0  0  0  0  0  0  0  0  0
   -8.8393    2.8554   -9.2057 C   0  0  0  0  0  0  0  0  0  0  0  0
   -8.5718    3.9038   -8.3428 C   0  0  0  0  0  0  0  0  0  0  0  0
   -7.9358    5.0568   -8.7900 C   0  0  0  0  0  0  0  0  0  0  0  0
   -7.5710    5.1480  -10.1589 C   0  0  0  0  0  0  0  0  0  0  0  0
   -6.7163    6.3255  -10.5666 C   0  0  0  0  0  0  0  0  0  0  0  0
   -6.0127    6.9472   -9.4797 O   0  0  0  0  0  0  0  0  0  0  0  0
   -6.8693    7.3545   -8.4097 C   0  0  0  0  0  0  0  0  0  0  0  0
   -7.9006    8.3936   -8.8694 C   0  0  0  0  0  0  0  0  0  0  0  0
   -5.9520    8.0213   -7.3731 C   0  0  0  0  0  0  0  0  0  0  0  0
   -7.5204    6.1077   -7.7879 C   0  0  0  0  0  0  0  0  0  0  0  0
   -8.9751    3.5113   -6.9579 C   0  0  0  0  0  0  0  0  0  0  0  0
   -9.6689    2.2131   -7.0785 N   0  0  0  0  0  0  0  0  0  0  0  0
   -9.3567    1.6920   -8.4307 C   0  0  0  0  0  0  0  0  0  0  0  0
  -10.6755    2.3406   -6.9739 H   0  0  0  0  0  0  0  0  0  0  0  0
   -4.1194    5.5512  -19.4279 C   0  0  0  0  0  0  0  0  0  0  0  0
   -4.9836    7.1121  -21.0541 C   0  0  0  0  0  0  0  0  0  0  0  0
   -4.2111    6.9656  -19.8302 N   0  0  0  0  0  0  0  0  0  0  0  0
   -4.6635    7.4953  -19.0852 H   0  0  0  0  0  0  0  0  0  0  0  0
   -3.4704    5.3416  -16.3464 C   0  0  0  0  0  0  0  0  0  0  0  0
   -3.1267    6.7811  -15.9958 C   0  0  0  0  0  0  0  0  0  0  0  0
   -1.9957    7.5183  -16.7489 C   0  0  0  0  0  0  0  0  0  0  0  0
   -1.5663    8.0986  -15.4512 N   0  0  0  0  0  0  0  0  0  0  0  0
   -2.1778    6.9263  -14.7814 C   0  0  0  0  0  0  0  0  0  0  0  0
   -2.0019    8.9920  -15.2222 H   0  0  0  0  0  0  0  0  0  0  0  0
 32 33  1  0  0  0
 33 31  1  0  0  0
 31  1  1  0  0  0
  1  2  1  0  0  0
  2  3  2  0  0  0
  3  4  1  0  0  0
  4  5  1  0  0  0
  4  6  2  0  0  0
  6  7  1  0  0  0
  7 11  1  0  0  0
 11 12  2  0  0  0
 11 13  1  0  0  0
 13 15  1  0  0  0
 15 16  2  0  0  0
 16 17  1  0  0  0
 17 18  2  0  0  0
 18 19  1  0  0  0
 19 20  2  0  0  0
 20 21  1  0  0  0
 21 22  1  0  0  0
 22 23  1  0  0  0
 23 24  1  0  0  0
 23 25  1  0  0  0
 23 26  1  0  0  0
 18 27  1  0  0  0
 27 28  1  0  0  0
 28 29  1  0  0  0
  7  8  2  0  0  0
  8  9  1  0  0  0
  9 10  2  0  0  0
 10 35  1  0  0  0
 35 36  1  0  0  0
 36 37  1  0  0  0
 37 38  1  0  0  0
 38 39  1  0  0  0
 10  1  1  0  0  0
 39 36  1  0  0  0
  9  3  1  0  0  0
 20 15  1  0  0  0
 29 17  1  0  0  0
 26 19  1  0  0  0
 33 34  1  0  0  0
 13 14  1  0  0  0
 28 30  1  0  0  0
 38 40  1  0  0  0
M  END
> <minimizedAffinity>
-8.71531

> <minimizedRMSD>
0.74240

$$$$
P29057


 34 38  0  0  0  0  0  0  0  0999 V2000
   -5.9846    5.7976  -18.3169 N   0  0  0  0  0  0  0  0  0  0  0  0
   -6.8137    4.7511  -18.2970 N   0  0  0  0  0  0  0  0  0  0  0  0
   -7.2733    4.6880  -17.0402 C   0  0  0  0  0  0  0  0  0  0  0  0
   -8.3740    4.0361  -16.4606 C   0  0  0  0  0  0  0  0  0  0  0  0
   -9.4376    3.2283  -17.4803 Cl  0  0  0  0  0  0  0  0  0  0  0  0
   -8.5966    4.2387  -15.0911 C   0  0  0  0  0  0  0  0  0  0  0  0
   -7.7245    5.0507  -14.3131 C   0  0  0  0  0  0  0  0  0  0  0  0
   -6.5934    5.7207  -14.8426 C   0  0  0  0  0  0  0  0  0  0  0  0
   -6.4417    5.5099  -16.2123 C   0  0  0  0  0  0  0  0  0  0  0  0
   -5.6193    6.2198  -17.0551 C   0  0  0  0  0  0  0  0  0  0  0  0
   -8.0782    5.3857  -12.9055 C   0  0  0  0  0  0  0  0  0  0  0  0
   -8.2637    6.5092  -12.6475 O   0  0  0  0  0  0  0  0  0  0  0  0
   -8.1367    4.1297  -12.0086 N   0  0  0  0  0  0  0  0  0  0  0  0
   -8.0135    3.2770  -12.4850 H   0  0  0  0  0  0  0  0  0  0  0  0
   -8.3354    4.0069  -10.6361 C   0  0  0  0  0  0  0  0  0  0  0  0
   -8.0687    5.0832   -9.7741 C   0  0  0  0  0  0  0  0  0  0  0  0
   -8.2332    4.9517   -8.3931 C   0  0  0  0  0  0  0  0  0  0  0  0
   -8.6759    3.7383   -7.9011 C   0  0  0  0  0  0  0  0  0  0  0  0
   -8.9541    2.6760   -8.7533 C   0  0  0  0  0  0  0  0  0  0  0  0
   -8.7899    2.7893  -10.1247 C   0  0  0  0  0  0  0  0  0  0  0  0
   -9.3831    1.4958   -7.9489 C   0  0  0  0  0  0  0  0  0  0  0  0
   -9.5503    1.9883   -6.5582 N   0  0  0  0  0  0  0  0  0  0  0  0
   -8.9147    3.3193   -6.4915 C   0  0  0  0  0  0  0  0  0  0  0  0
   -9.0969    1.3506   -5.9039 H   0  0  0  0  0  0  0  0  0  0  0  0
   -5.8595    6.5509  -19.5042 N   0  0  0  0  0  0  0  0  0  0  0  0
   -6.5939    6.2410  -20.1406 H   0  0  0  0  0  0  0  0  0  0  0  0
   -3.6739    5.2836  -19.9846 C   0  0  0  0  0  0  0  0  0  0  0  0
   -4.5947    6.4711  -20.2261 C   0  0  0  0  0  0  0  0  0  0  0  0
   -4.6738    7.3330  -16.8112 C   0  0  0  0  0  0  0  0  0  0  0  0
   -3.3249    6.8823  -16.2908 C   0  0  0  0  0  0  0  0  0  0  0  0
   -2.1148    7.1665  -17.2047 C   0  0  0  0  0  0  0  0  0  0  0  0
   -1.5330    5.8957  -16.7301 N   0  0  0  0  0  0  0  0  0  0  0  0
   -2.8941    5.4048  -16.4425 C   0  0  0  0  0  0  0  0  0  0  0  0
   -0.9379    5.9885  -15.9069 H   0  0  0  0  0  0  0  0  0  0  0  0
 27 28  1  0  0  0
 28 25  1  0  0  0
 25  1  1  0  0  0
  1  2  1  0  0  0
  2  3  2  0  0  0
  3  4  1  0  0  0
  4  5  1  0  0  0
  4  6  2  0  0  0
  6  7  1  0  0  0
  7 11  1  0  0  0
 11 12  2  0  0  0
 11 13  1  0  0  0
 13 15  1  0  0  0
 15 16  2  0  0  0
 16 17  1  0  0  0
 17 18  2  0  0  0
 18 19  1  0  0  0
 19 20  2  0  0  0
 19 21  1  0  0  0
 21 22  1  0  0  0
 22 23  1  0  0  0
  7  8  2  0  0  0
  8  9  1  0  0  0
  9 10  2  0  0  0
 10 29  1  0  0  0
 29 30  1  0  0  0
 30 31  1  0  0  0
 31 32  1  0  0  0
 32 33  1  0  0  0
 10  1  1  0  0  0
 33 30  1  0  0  0
  9  3  1  0  0  0
 20 15  1  0  0  0
 23 18  1  0  0  0
 25 26  1  0  0  0
 13 14  1  0  0  0
 22 24  1  0  0  0
 32 34  1  0  0  0
M  END
> <minimizedAffinity>
-8.10631

> <minimizedRMSD>
0.71464

$$$$
P29070


 30 34  0  0  0  0  0  0  0  0999 V2000
   -2.8317    6.2023  -16.9306 N   0  0  0  0  0  0  0  0  0  0  0  0
   -3.8301    5.7344  -17.7253 C   0  0  0  0  0  0  0  0  0  0  0  0
   -3.7270    5.6248  -19.0316 N   0  0  0  0  0  0  0  0  0  0  0  0
   -5.0227    5.1600  -19.5728 N   0  0  0  0  0  0  0  0  0  0  0  0
   -5.8085    4.9991  -18.5525 C   0  0  0  0  0  0  0  0  0  0  0  0
   -7.0862    4.5830  -18.3488 N   0  0  0  0  0  0  0  0  0  0  0  0
   -7.2097    4.6075  -17.0579 C   0  0  0  0  0  0  0  0  0  0  0  0
   -8.3592    4.2826  -16.1809 C   0  0  0  0  0  0  0  0  0  0  0  0
   -9.5273    3.9750  -16.7719 F   0  0  0  0  0  0  0  0  0  0  0  0
   -8.2350    4.3399  -14.8442 C   0  0  0  0  0  0  0  0  0  0  0  0
   -7.0019    4.7621  -14.1971 C   0  0  0  0  0  0  0  0  0  0  0  0
   -5.9135    5.0997  -14.9128 C   0  0  0  0  0  0  0  0  0  0  0  0
   -5.9863    5.0309  -16.3330 C   0  0  0  0  0  0  0  0  0  0  0  0
   -5.1439    5.2965  -17.3108 C   0  0  0  0  0  0  0  0  0  0  0  0
   -1.9726    6.4733  -17.3276 H   0  0  0  0  0  0  0  0  0  0  0  0
   -2.9676    6.2701  -15.9579 H   0  0  0  0  0  0  0  0  0  0  0  0
   -6.8939    5.0421  -12.7323 C   0  0  0  0  0  0  0  0  0  0  0  0
   -6.0228    5.6983  -12.3155 O   0  0  0  0  0  0  0  0  0  0  0  0
   -8.0250    4.2909  -11.9930 N   0  0  0  0  0  0  0  0  0  0  0  0
   -8.6899    3.8651  -12.5810 H   0  0  0  0  0  0  0  0  0  0  0  0
   -8.2565    4.1185  -10.6296 C   0  0  0  0  0  0  0  0  0  0  0  0
   -8.0841    5.1849   -9.7289 C   0  0  0  0  0  0  0  0  0  0  0  0
   -8.3221    5.0181   -8.3611 C   0  0  0  0  0  0  0  0  0  0  0  0
   -8.7492    3.7803   -7.9227 C   0  0  0  0  0  0  0  0  0  0  0  0
   -8.9072    2.7185   -8.8095 C   0  0  0  0  0  0  0  0  0  0  0  0
   -8.6564    2.8641  -10.1640 C   0  0  0  0  0  0  0  0  0  0  0  0
   -9.3453    1.5130   -8.0447 C   0  0  0  0  0  0  0  0  0  0  0  0
   -9.8189    2.0398   -6.7384 N   0  0  0  0  0  0  0  0  0  0  0  0
   -9.1081    3.3228   -6.5484 C   0  0  0  0  0  0  0  0  0  0  0  0
   -9.5881    1.3897   -5.9871 H   0  0  0  0  0  0  0  0  0  0  0  0
  1  2  1  0  0  0
  2  3  2  0  0  0
  3  4  1  0  0  0
  4  5  2  0  0  0
  5  6  1  0  0  0
  6  7  2  0  0  0
  7  8  1  0  0  0
  8  9  1  0  0  0
  8 10  2  0  0  0
 10 11  1  0  0  0
 11 17  1  0  0  0
 17 18  2  0  0  0
 17 19  1  0  0  0
 19 21  1  0  0  0
 21 22  2  0  0  0
 22 23  1  0  0  0
 23 24  2  0  0  0
 24 25  1  0  0  0
 25 26  2  0  0  0
 25 27  1  0  0  0
 27 28  1  0  0  0
 28 29  1  0  0  0
 11 12  2  0  0  0
 12 13  1  0  0  0
 13 14  2  0  0  0
 14  2  1  0  0  0
 14  5  1  0  0  0
 13  7  1  0  0  0
 26 21  1  0  0  0
 29 24  1  0  0  0
  1 15  1  0  0  0
  1 16  1  0  0  0
 19 20  1  0  0  0
 28 30  1  0  0  0
M  END
> <minimizedAffinity>
-9.38523

> <minimizedRMSD>
0.82850

$$$$
P29076


 31 34  0  0  0  0  0  0  0  0999 V2000
   -6.4714    4.8436  -17.3628 C   0  0  0  0  0  0  0  0  0  0  0  0
   -7.6934    4.4474  -17.8945 C   0  0  0  0  0  0  0  0  0  0  0  0
   -8.7235    4.1068  -17.0258 C   0  0  0  0  0  0  0  0  0  0  0  0
   -9.9150    3.7728  -17.5343 F   0  0  0  0  0  0  0  0  0  0  0  0
   -8.5631    4.1518  -15.6422 C   0  0  0  0  0  0  0  0  0  0  0  0
   -7.3662    4.6027  -15.1116 C   0  0  0  0  0  0  0  0  0  0  0  0
   -6.3233    4.9412  -15.9696 C   0  0  0  0  0  0  0  0  0  0  0  0
   -3.3280    5.7809  -18.7119 N   0  0  0  0  0  0  0  0  0  0  0  0
   -4.0658    5.2083  -17.7370 C   0  0  0  0  0  0  0  0  0  0  0  0
   -5.3589    5.2032  -18.2031 C   0  0  0  0  0  0  0  0  0  0  0  0
   -5.2439    5.6040  -19.5521 C   0  0  0  0  0  0  0  0  0  0  0  0
   -3.9905    5.9750  -19.8587 N   0  0  0  0  0  0  0  0  0  0  0  0
   -1.9801    6.0861  -18.6352 O   0  0  0  0  0  0  0  0  0  0  0  0
   -1.4889    5.7066  -17.3570 C   0  0  0  0  0  0  0  0  0  0  0  0
    0.2636    6.0059  -15.7341 C   0  0  0  0  0  0  0  0  0  0  0  0
   -0.1649    6.2928  -17.1015 N   0  0  0  0  0  0  0  0  0  0  0  0
    0.8240    5.7992  -18.0600 C   0  0  0  0  0  0  0  0  0  0  0  0
   -7.1658    4.8813  -13.6687 C   0  0  0  0  0  0  0  0  0  0  0  0
   -6.2709    5.5741  -13.3803 O   0  0  0  0  0  0  0  0  0  0  0  0
   -8.1526    4.0976  -12.7768 N   0  0  0  0  0  0  0  0  0  0  0  0
   -8.7797    3.5180  -13.2667 H   0  0  0  0  0  0  0  0  0  0  0  0
   -8.3004    4.0770  -11.3894 C   0  0  0  0  0  0  0  0  0  0  0  0
   -8.0508    5.2263  -10.6192 C   0  0  0  0  0  0  0  0  0  0  0  0
   -8.1678    5.1993   -9.2252 C   0  0  0  0  0  0  0  0  0  0  0  0
   -8.5294    4.0092   -8.6231 C   0  0  0  0  0  0  0  0  0  0  0  0
   -8.7656    2.8677   -9.3802 C   0  0  0  0  0  0  0  0  0  0  0  0
   -8.6608    2.8827  -10.7631 C   0  0  0  0  0  0  0  0  0  0  0  0
   -9.0738    1.7283   -8.4684 C   0  0  0  0  0  0  0  0  0  0  0  0
   -9.2847    2.3307   -7.1274 N   0  0  0  0  0  0  0  0  0  0  0  0
   -8.7125    3.6916   -7.1782 C   0  0  0  0  0  0  0  0  0  0  0  0
   -8.8104    1.7763   -6.4145 H   0  0  0  0  0  0  0  0  0  0  0  0
 15 16  1  0  0  0
 16 17  1  0  0  0
 16 14  1  0  0  0
 14 13  1  0  0  0
 13  8  1  0  0  0
  8  9  1  0  0  0
  9 10  2  0  0  0
 10  1  1  0  0  0
  1  2  2  0  0  0
  2  3  1  0  0  0
  3  4  1  0  0  0
  3  5  2  0  0  0
  5  6  1  0  0  0
  6 18  1  0  0  0
 18 19  2  0  0  0
 18 20  1  0  0  0
 20 22  1  0  0  0
 22 23  2  0  0  0
 23 24  1  0  0  0
 24 25  2  0  0  0
 25 26  1  0  0  0
 26 27  2  0  0  0
 26 28  1  0  0  0
 28 29  1  0  0  0
 29 30  1  0  0  0
  6  7  2  0  0  0
 10 11  1  0  0  0
 11 12  2  0  0  0
 12  8  1  0  0  0
  7  1  1  0  0  0
 27 22  1  0  0  0
 30 25  1  0  0  0
 20 21  1  0  0  0
 29 31  1  0  0  0
M  END
> <minimizedAffinity>
-8.51833

> <minimizedRMSD>
0.70581

$$$$
P29089


 30 34  0  0  0  0  0  0  0  0999 V2000
   -2.4955    5.8140  -15.9555 C   0  0  0  0  0  0  0  0  0  0  0  0
   -3.8349    5.4953  -16.5221 C   0  0  0  0  0  0  0  0  0  0  0  0
   -4.8902    5.1493  -15.6849 N   0  0  0  0  0  0  0  0  0  0  0  0
   -6.1766    4.8196  -16.1055 C   0  0  0  0  0  0  0  0  0  0  0  0
   -7.2253    4.4821  -15.2281 C   0  0  0  0  0  0  0  0  0  0  0  0
   -8.5116    4.1336  -15.7141 C   0  0  0  0  0  0  0  0  0  0  0  0
   -8.8060    4.1635  -17.0677 C   0  0  0  0  0  0  0  0  0  0  0  0
  -10.0468    3.9086  -17.4959 F   0  0  0  0  0  0  0  0  0  0  0  0
   -7.8345    4.5008  -17.9715 C   0  0  0  0  0  0  0  0  0  0  0  0
   -6.5527    4.8220  -17.4789 C   0  0  0  0  0  0  0  0  0  0  0  0
   -5.4903    5.2246  -18.2926 C   0  0  0  0  0  0  0  0  0  0  0  0
   -5.5327    5.3729  -19.6439 C   0  0  0  0  0  0  0  0  0  0  0  0
   -4.3098    5.8270  -19.9899 N   0  0  0  0  0  0  0  0  0  0  0  0
   -3.4415    5.9321  -18.9618 N   0  0  0  0  0  0  0  0  0  0  0  0
   -4.1660    5.5691  -17.8826 C   0  0  0  0  0  0  0  0  0  0  0  0
   -4.0708    6.0621  -20.9156 H   0  0  0  0  0  0  0  0  0  0  0  0
   -6.9983    4.5560  -13.7474 C   0  0  0  0  0  0  0  0  0  0  0  0
   -5.9346    4.3155  -13.1931 O   0  0  0  0  0  0  0  0  0  0  0  0
   -8.0914    5.0737  -12.8541 C   0  0  0  0  0  0  0  0  0  0  0  0
   -8.8453    5.9323  -13.3028 O   0  0  0  0  0  0  0  0  0  0  0  0
   -8.1243    4.7055  -11.4227 C   0  0  0  0  0  0  0  0  0  0  0  0
   -7.9112    5.7467  -10.4989 C   0  0  0  0  0  0  0  0  0  0  0  0
   -8.0945    5.5316   -9.1320 C   0  0  0  0  0  0  0  0  0  0  0  0
   -8.5129    4.2800   -8.7190 C   0  0  0  0  0  0  0  0  0  0  0  0
   -8.6949    3.2372   -9.6260 C   0  0  0  0  0  0  0  0  0  0  0  0
   -8.4975    3.4254  -10.9898 C   0  0  0  0  0  0  0  0  0  0  0  0
   -9.1327    2.0263   -8.8625 C   0  0  0  0  0  0  0  0  0  0  0  0
   -9.6027    2.5420   -7.5501 N   0  0  0  0  0  0  0  0  0  0  0  0
   -8.8626    3.8049   -7.3462 C   0  0  0  0  0  0  0  0  0  0  0  0
   -9.3886    1.8773   -6.8066 H   0  0  0  0  0  0  0  0  0  0  0  0
  1  2  1  0  0  0
  2  3  2  0  0  0
  3  4  1  0  0  0
  4  5  2  0  0  0
  5 17  1  0  0  0
 17 18  2  0  0  0
 17 19  1  0  0  0
 19 20  2  0  0  0
 19 21  1  0  0  0
 21 22  2  0  0  0
 22 23  1  0  0  0
 23 24  2  0  0  0
 24 25  1  0  0  0
 25 26  2  0  0  0
 25 27  1  0  0  0
 27 28  1  0  0  0
 28 29  1  0  0  0
  5  6  1  0  0  0
  6  7  2  0  0  0
  7  8  1  0  0  0
  7  9  1  0  0  0
  9 10  2  0  0  0
 10 11  1  0  0  0
 11 12  2  0  0  0
 12 13  1  0  0  0
 13 14  1  0  0  0
 14 15  2  0  0  0
 15  2  1  0  0  0
 10  4  1  0  0  0
 15 11  1  0  0  0
 26 21  1  0  0  0
 29 24  1  0  0  0
 28 30  1  0  0  0
 13 16  1  0  0  0
M  END
> <minimizedAffinity>
-9.62741

> <minimizedRMSD>
0.40226

$$$$
P29099


 27 31  0  0  0  0  0  0  0  0999 V2000
   -9.4968    5.8294  -13.9667 O   0  0  0  0  0  0  0  0  0  0  0  0
   -8.6633    5.0155  -14.0445 C   0  0  0  0  0  0  0  0  0  0  0  0
   -7.9502    4.2036  -12.9405 N   0  0  0  0  0  0  0  0  0  0  0  0
   -7.2204    3.6254  -13.2604 H   0  0  0  0  0  0  0  0  0  0  0  0
   -8.0410    4.6907  -15.3643 C   0  0  0  0  0  0  0  0  0  0  0  0
   -8.7942    4.2541  -16.5313 C   0  0  0  0  0  0  0  0  0  0  0  0
   -8.2417    4.1896  -17.7554 C   0  0  0  0  0  0  0  0  0  0  0  0
   -8.9589    3.8391  -18.8395 F   0  0  0  0  0  0  0  0  0  0  0  0
   -6.8206    4.5681  -17.9571 C   0  0  0  0  0  0  0  0  0  0  0  0
   -6.0992    4.9339  -16.7138 C   0  0  0  0  0  0  0  0  0  0  0  0
   -6.7321    4.9925  -15.4422 C   0  0  0  0  0  0  0  0  0  0  0  0
   -4.8983    5.2561  -17.1487 C   0  0  0  0  0  0  0  0  0  0  0  0
   -3.5784    5.7486  -16.8763 C   0  0  0  0  0  0  0  0  0  0  0  0
   -2.9095    5.9248  -17.9810 N   0  0  0  0  0  0  0  0  0  0  0  0
   -3.7853    5.5147  -19.1105 N   0  0  0  0  0  0  0  0  0  0  0  0
   -4.9048    5.1244  -18.5818 C   0  0  0  0  0  0  0  0  0  0  0  0
   -6.1013    4.6592  -19.0316 N   0  0  0  0  0  0  0  0  0  0  0  0
   -8.1717    4.1564  -11.5666 C   0  0  0  0  0  0  0  0  0  0  0  0
   -7.9899    5.3011  -10.7716 C   0  0  0  0  0  0  0  0  0  0  0  0
   -8.1417    5.2429   -9.3834 C   0  0  0  0  0  0  0  0  0  0  0  0
   -8.4952    4.0337   -8.8162 C   0  0  0  0  0  0  0  0  0  0  0  0
   -8.6917    2.9040   -9.6020 C   0  0  0  0  0  0  0  0  0  0  0  0
   -8.5281    2.9422  -10.9782 C   0  0  0  0  0  0  0  0  0  0  0  0
   -9.0299    1.7469   -8.7239 C   0  0  0  0  0  0  0  0  0  0  0  0
   -9.2732    2.3200   -7.3759 N   0  0  0  0  0  0  0  0  0  0  0  0
   -8.7050    3.6824   -7.3828 C   0  0  0  0  0  0  0  0  0  0  0  0
   -8.8138    1.7515   -6.6645 H   0  0  0  0  0  0  0  0  0  0  0  0
  1  2  2  0  0  0
  2  3  1  0  0  0
  3 18  1  0  0  0
 18 19  2  0  0  0
 19 20  1  0  0  0
 20 21  2  0  0  0
 21 22  1  0  0  0
 22 23  2  0  0  0
 22 24  1  0  0  0
 24 25  1  0  0  0
 25 26  1  0  0  0
  2  5  1  0  0  0
  5  6  1  0  0  0
  6  7  2  0  0  0
  7  8  1  0  0  0
  7  9  1  0  0  0
  9 10  1  0  0  0
 10 11  1  0  0  0
 10 12  2  0  0  0
 12 13  1  0  0  0
 13 14  2  0  0  0
 14 15  1  0  0  0
 15 16  2  0  0  0
 16 17  1  0  0  0
 23 18  1  0  0  0
 11  5  2  0  0  0
 16 12  1  0  0  0
 26 21  1  0  0  0
 17  9  2  0  0  0
  3  4  1  0  0  0
 25 27  1  0  0  0
M  END
> <minimizedAffinity>
-10.13135

> <minimizedRMSD>
0.90501

$$$$
P29137


 33 38  0  0  0  0  0  0  0  0999 V2000
   -5.2298    4.9171  -13.4874 O   0  0  0  0  0  0  0  0  0  0  0  0
   -6.3130    4.5486  -13.7105 C   0  0  0  0  0  0  0  0  0  0  0  0
   -7.4137    4.0507  -12.7565 N   0  0  0  0  0  0  0  0  0  0  0  0
   -8.2266    3.7198  -13.2024 H   0  0  0  0  0  0  0  0  0  0  0  0
   -7.4486    3.9891  -11.2936 C   0  0  0  0  0  0  0  0  0  0  0  0
   -8.5431    3.0002  -10.8471 C   0  0  0  0  0  0  0  0  0  0  0  0
   -8.7454    3.0376   -9.3831 C   0  0  0  0  0  0  0  0  0  0  0  0
   -8.5951    4.1423   -8.6619 C   0  0  0  0  0  0  0  0  0  0  0  0
   -8.8762    3.8863   -7.2339 C   0  0  0  0  0  0  0  0  0  0  0  0
   -9.3539    2.4919   -7.1782 N   0  0  0  0  0  0  0  0  0  0  0  0
   -9.1342    1.8994   -8.5207 C   0  0  0  0  0  0  0  0  0  0  0  0
   -8.2524    5.4530   -9.2425 C   0  0  0  0  0  0  0  0  0  0  0  0
   -7.6093    6.2091   -8.3059 F   0  0  0  0  0  0  0  0  0  0  0  0
   -7.4101    5.3714  -10.5429 C   0  0  0  0  0  0  0  0  0  0  0  0
   -5.9359    5.7848  -10.2755 C   0  0  0  0  0  0  0  0  0  0  0  0
   -5.9093    7.3092  -10.2645 C   0  0  0  0  0  0  0  0  0  0  0  0
   -6.9347    7.7357  -11.2994 C   0  0  0  0  0  0  0  0  0  0  0  0
   -7.8643    6.5493  -11.3847 C   0  0  0  0  0  0  0  0  0  0  0  0
   -8.8804    6.5673  -12.0739 O   0  0  0  0  0  0  0  0  0  0  0  0
  -10.3468    2.4716   -6.9454 H   0  0  0  0  0  0  0  0  0  0  0  0
   -6.7805    4.4615  -15.1463 C   0  0  0  0  0  0  0  0  0  0  0  0
   -8.0828    4.3626  -15.5113 C   0  0  0  0  0  0  0  0  0  0  0  0
   -8.5109    4.4432  -16.9122 C   0  0  0  0  0  0  0  0  0  0  0  0
   -9.8186    4.2606  -17.1850 F   0  0  0  0  0  0  0  0  0  0  0  0
   -7.6677    4.7394  -17.9176 C   0  0  0  0  0  0  0  0  0  0  0  0
   -6.2775    4.9057  -17.5868 C   0  0  0  0  0  0  0  0  0  0  0  0
   -5.8087    4.6961  -16.2142 C   0  0  0  0  0  0  0  0  0  0  0  0
   -4.4716    4.7972  -16.1361 C   0  0  0  0  0  0  0  0  0  0  0  0
   -4.0850    5.1375  -17.4946 C   0  0  0  0  0  0  0  0  0  0  0  0
   -2.9852    5.3868  -18.1246 N   0  0  0  0  0  0  0  0  0  0  0  0
   -3.3687    5.6884  -19.5193 N   0  0  0  0  0  0  0  0  0  0  0  0
   -4.6709    5.5888  -19.6143 C   0  0  0  0  0  0  0  0  0  0  0  0
   -5.2470    5.2204  -18.3538 C   0  0  0  0  0  0  0  0  0  0  0  0
  1  2  2  0  0  0
  2  3  1  0  0  0
  5  3  1  0  0  0
  5  6  1  0  0  0
  6  7  1  0  0  0
  7  8  2  0  0  0
  8  9  1  0  0  0
  9 10  1  0  0  0
 10 11  1  0  0  0
  8 12  1  0  0  0
 12 13  1  0  0  0
 12 14  1  0  0  0
 14 15  1  0  0  0
 15 16  1  0  0  0
 16 17  1  0  0  0
 17 18  1  0  0  0
 18 19  2  0  0  0
  2 21  1  0  0  0
 21 22  2  0  0  0
 22 23  1  0  0  0
 23 24  1  0  0  0
 23 25  2  0  0  0
 25 26  1  0  0  0
 26 27  1  0  0  0
 27 28  2  0  0  0
 28 29  1  0  0  0
 29 30  2  0  0  0
 30 31  1  0  0  0
 31 32  2  0  0  0
 32 33  1  0  0  0
 14  5  1  0  0  0
 27 21  1  0  0  0
 33 29  1  0  0  0
 11  7  1  0  0  0
 18 14  1  0  0  0
 33 26  2  0  0  0
  3  4  1  0  0  0
 10 20  1  0  0  0
M  END
> <minimizedAffinity>
-9.02808

> <minimizedRMSD>
0.30358

$$$$
P29158


 41 45  0  0  0  0  0  0  0  0999 V2000
   -7.3774    5.5857  -13.3564 C   0  0  0  0  0  0  0  0  0  0  0  0
   -6.1867    4.9412  -12.9989 O   0  0  0  0  0  0  0  0  0  0  0  0
   -6.0768    4.9761  -12.0357 H   0  0  0  0  0  0  0  0  0  0  0  0
   -7.6117    5.5569  -14.9604 C   0  0  0  0  0  0  0  0  0  0  0  0
   -8.4357    4.3374  -15.4351 C   0  0  0  0  0  0  0  0  0  0  0  0
   -8.8582    4.4373  -16.8860 C   0  0  0  0  0  0  0  0  0  0  0  0
   -9.4963    3.2939  -17.2565 F   0  0  0  0  0  0  0  0  0  0  0  0
   -7.6972    4.6707  -17.8216 C   0  0  0  0  0  0  0  0  0  0  0  0
   -6.7586    5.8189  -17.4266 C   0  0  0  0  0  0  0  0  0  0  0  0
   -6.3315    5.7529  -15.9142 C   0  0  0  0  0  0  0  0  0  0  0  0
   -5.2658    4.6696  -15.6548 C   0  0  0  0  0  0  0  0  0  0  0  0
   -4.1774    5.3187  -14.9044 N   0  0  0  0  0  0  0  0  0  0  0  0
   -4.6314    6.6241  -14.5482 N   0  0  0  0  0  0  0  0  0  0  0  0
   -5.5982    7.0519  -15.5424 C   0  0  0  0  0  0  0  0  0  0  0  0
   -3.3427    5.3858  -15.4869 H   0  0  0  0  0  0  0  0  0  0  0  0
   -3.8434    7.2715  -14.5312 H   0  0  0  0  0  0  0  0  0  0  0  0
   -5.6233    5.9205  -18.4502 C   0  0  0  0  0  0  0  0  0  0  0  0
   -5.0342    7.0153  -19.1415 C   0  0  0  0  0  0  0  0  0  0  0  0
   -4.0160    6.6755  -19.9355 N   0  0  0  0  0  0  0  0  0  0  0  0
   -3.9058    5.3513  -19.7338 N   0  0  0  0  0  0  0  0  0  0  0  0
   -4.8761    4.8601  -18.9157 C   0  0  0  0  0  0  0  0  0  0  0  0
   -3.1988    4.7960  -20.1350 H   0  0  0  0  0  0  0  0  0  0  0  0
   -8.9695    7.5754  -13.1171 N   0  0  0  0  0  0  0  0  0  0  0  0
   -7.4857    7.1496  -12.9090 C   0  0  0  0  0  0  0  0  0  0  0  0
   -6.5668    7.7661  -12.5278 O   0  0  0  0  0  0  0  0  0  0  0  0
   -9.5427    6.8869  -13.5252 H   0  0  0  0  0  0  0  0  0  0  0  0
   -9.6393    8.8139  -12.8093 C   0  0  0  0  0  0  0  0  0  0  0  0
  -11.1841   10.3214  -14.0871 C   0  0  0  0  0  0  0  0  0  0  0  0
  -11.0132    8.9502  -13.4514 C   0  0  0  0  0  0  0  0  0  0  0  0
   -8.4480    4.7935  -12.6786 N   0  0  0  0  0  0  0  0  0  0  0  0
   -9.1972    4.4143  -13.1926 H   0  0  0  0  0  0  0  0  0  0  0  0
   -8.3568    4.6000  -11.2664 C   0  0  0  0  0  0  0  0  0  0  0  0
   -8.1444    5.6481  -10.3469 C   0  0  0  0  0  0  0  0  0  0  0  0
   -8.2129    5.4560   -8.9613 C   0  0  0  0  0  0  0  0  0  0  0  0
   -8.5136    4.1985   -8.4925 C   0  0  0  0  0  0  0  0  0  0  0  0
   -8.7003    3.1407   -9.3717 C   0  0  0  0  0  0  0  0  0  0  0  0
   -8.6425    3.3225  -10.7465 C   0  0  0  0  0  0  0  0  0  0  0  0
   -8.9451    1.9034   -8.5759 C   0  0  0  0  0  0  0  0  0  0  0  0
   -9.3493    2.3889   -7.2293 N   0  0  0  0  0  0  0  0  0  0  0  0
   -8.7124    3.7183   -7.0949 C   0  0  0  0  0  0  0  0  0  0  0  0
   -9.0133    1.7554   -6.5039 H   0  0  0  0  0  0  0  0  0  0  0  0
 28 29  1  0  0  0
 29 27  1  0  0  0
 27 23  1  0  0  0
 23 24  1  0  0  0
 24 25  2  0  0  0
 24  1  1  0  0  0
  1  2  1  0  0  0
  1 30  1  0  0  0
 30 32  1  0  0  0
 32 33  2  0  0  0
 33 34  1  0  0  0
 34 35  2  0  0  0
 35 36  1  0  0  0
 36 37  2  0  0  0
 36 38  1  0  0  0
 38 39  1  0  0  0
 39 40  1  0  0  0
  1  4  1  0  0  0
  4  5  1  0  0  0
  5  6  1  0  0  0
  6  7  1  0  0  0
  6  8  1  0  0  0
  8  9  1  0  0  0
  9 17  1  0  0  0
 17 18  1  0  0  0
 18 19  2  0  0  0
 19 20  1  0  0  0
 20 21  1  0  0  0
  9 10  1  0  0  0
 10 11  1  0  0  0
 11 12  1  0  0  0
 12 13  1  0  0  0
 13 14  1  0  0  0
 37 32  1  0  0  0
 10  4  1  0  0  0
 40 35  1  0  0  0
 21 17  2  0  0  0
 14 10  1  0  0  0
 23 26  1  0  0  0
  2  3  1  0  0  0
 30 31  1  0  0  0
 39 41  1  0  0  0
 20 22  1  0  0  0
 12 15  1  0  0  0
 13 16  1  0  0  0
M  END
> <minimizedAffinity>
-8.08485

> <minimizedRMSD>
0.65981

$$$$
P29166


 38 41  0  0  0  0  0  0  0  0999 V2000
   -6.9046    4.8066  -13.6513 C   0  0  0  0  0  0  0  0  0  0  0  0
   -5.7832    3.9902  -13.3463 O   0  0  0  0  0  0  0  0  0  0  0  0
   -5.9484    3.0856  -13.6549 H   0  0  0  0  0  0  0  0  0  0  0  0
   -6.0577    5.1756  -16.1139 C   0  0  0  0  0  0  0  0  0  0  0  0
   -6.2905    5.0453  -17.5130 C   0  0  0  0  0  0  0  0  0  0  0  0
   -7.5275    4.5689  -17.9785 C   0  0  0  0  0  0  0  0  0  0  0  0
   -8.5336    4.2538  -17.0963 C   0  0  0  0  0  0  0  0  0  0  0  0
   -9.7106    3.8303  -17.5761 F   0  0  0  0  0  0  0  0  0  0  0  0
   -8.3296    4.3678  -15.7311 C   0  0  0  0  0  0  0  0  0  0  0  0
   -7.0875    4.7831  -15.1931 C   0  0  0  0  0  0  0  0  0  0  0  0
   -5.3166    5.3923  -18.5382 C   0  0  0  0  0  0  0  0  0  0  0  0
   -4.0429    4.8984  -18.9008 C   0  0  0  0  0  0  0  0  0  0  0  0
   -3.5434    5.4973  -19.9895 N   0  0  0  0  0  0  0  0  0  0  0  0
   -4.5714    6.2631  -20.4033 N   0  0  0  0  0  0  0  0  0  0  0  0
   -5.5712    6.3474  -19.4947 C   0  0  0  0  0  0  0  0  0  0  0  0
   -4.5934    6.7154  -21.2774 H   0  0  0  0  0  0  0  0  0  0  0  0
   -4.6299    7.2737  -15.8711 C   0  0  0  0  0  0  0  0  0  0  0  0
   -4.7467    5.7736  -15.6346 C   0  0  0  0  0  0  0  0  0  0  0  0
   -6.7322    6.3423  -13.1772 C   0  0  0  0  0  0  0  0  0  0  0  0
   -7.4711    7.2046  -13.4650 O   0  0  0  0  0  0  0  0  0  0  0  0
   -5.4548    6.3626  -12.2763 N   0  0  0  0  0  0  0  0  0  0  0  0
   -4.9552    5.5147  -12.2499 H   0  0  0  0  0  0  0  0  0  0  0  0
   -4.8881    7.4250  -11.4756 C   0  0  0  0  0  0  0  0  0  0  0  0
   -4.0394    8.4188  -12.2620 C   0  0  0  0  0  0  0  0  0  0  0  0
   -3.1051    7.7598  -12.9944 F   0  0  0  0  0  0  0  0  0  0  0  0
   -4.7985    9.1276  -13.1311 F   0  0  0  0  0  0  0  0  0  0  0  0
   -8.0400    4.1580  -12.9578 N   0  0  0  0  0  0  0  0  0  0  0  0
   -8.7217    3.7031  -13.5033 H   0  0  0  0  0  0  0  0  0  0  0  0
   -8.1952    4.1576  -11.5633 C   0  0  0  0  0  0  0  0  0  0  0  0
   -8.1199    5.3191  -10.7719 C   0  0  0  0  0  0  0  0  0  0  0  0
   -8.2632    5.2875   -9.3786 C   0  0  0  0  0  0  0  0  0  0  0  0
   -8.5481    4.0806   -8.7785 C   0  0  0  0  0  0  0  0  0  0  0  0
   -8.6774    2.9304   -9.5384 C   0  0  0  0  0  0  0  0  0  0  0  0
   -8.4988    2.9485  -10.9158 C   0  0  0  0  0  0  0  0  0  0  0  0
   -9.0205    1.7852   -8.6482 C   0  0  0  0  0  0  0  0  0  0  0  0
   -9.2579    2.3644   -7.2990 N   0  0  0  0  0  0  0  0  0  0  0  0
   -8.8055    3.7688   -7.3457 C   0  0  0  0  0  0  0  0  0  0  0  0
   -8.7263    1.8484   -6.5980 H   0  0  0  0  0  0  0  0  0  0  0  0
 17 18  1  0  0  0
 18  4  1  0  0  0
  4  5  2  0  0  0
  5 11  1  0  0  0
 11 12  1  0  0  0
 12 13  2  0  0  0
 13 14  1  0  0  0
 14 15  1  0  0  0
  5  6  1  0  0  0
  6  7  2  0  0  0
  7  8  1  0  0  0
  7  9  1  0  0  0
  9 10  2  0  0  0
 10  1  1  0  0  0
  1  2  1  0  0  0
  1 27  1  0  0  0
 27 29  1  0  0  0
 29 30  2  0  0  0
 30 31  1  0  0  0
 31 32  2  0  0  0
 32 33  1  0  0  0
 33 34  2  0  0  0
 33 35  1  0  0  0
 35 36  1  0  0  0
 36 37  1  0  0  0
  1 19  1  0  0  0
 19 20  2  0  0  0
 19 21  1  0  0  0
 21 23  1  0  0  0
 23 24  1  0  0  0
 24 25  1  0  0  0
 24 26  1  0  0  0
 10  4  1  0  0  0
 34 29  1  0  0  0
 15 11  2  0  0  0
 37 32  1  0  0  0
 14 16  1  0  0  0
  2  3  1  0  0  0
 27 28  1  0  0  0
 36 38  1  0  0  0
 21 22  1  0  0  0
M  END
> <minimizedAffinity>
-8.09797

> <minimizedRMSD>
0.54098

$$$$
P29217


 26 30  0  0  0  0  0  0  0  0999 V2000
   -7.2074    6.5959  -12.6734 O   0  0  0  0  0  0  0  0  0  0  0  0
   -7.4655    5.5120  -13.0214 C   0  0  0  0  0  0  0  0  0  0  0  0
   -7.9223    4.2798  -12.2063 N   0  0  0  0  0  0  0  0  0  0  0  0
   -8.0042    3.4484  -12.7272 H   0  0  0  0  0  0  0  0  0  0  0  0
   -7.3036    5.1780  -14.4449 C   0  0  0  0  0  0  0  0  0  0  0  0
   -8.4005    4.6926  -15.2457 C   0  0  0  0  0  0  0  0  0  0  0  0
   -8.2883    4.4888  -16.6582 C   0  0  0  0  0  0  0  0  0  0  0  0
   -9.5791    4.0375  -17.6446 Cl  0  0  0  0  0  0  0  0  0  0  0  0
   -7.0717    4.7477  -17.2834 C   0  0  0  0  0  0  0  0  0  0  0  0
   -6.4213    4.7640  -18.5213 N   0  0  0  0  0  0  0  0  0  0  0  0
   -5.1682    5.2146  -18.3014 C   0  0  0  0  0  0  0  0  0  0  0  0
   -5.0351    5.4418  -17.0026 N   0  0  0  0  0  0  0  0  0  0  0  0
   -4.1822    5.9167  -16.1034 C   0  0  0  0  0  0  0  0  0  0  0  0
   -4.7948    5.9394  -14.8974 N   0  0  0  0  0  0  0  0  0  0  0  0
   -6.0945    5.4434  -15.0997 C   0  0  0  0  0  0  0  0  0  0  0  0
   -6.1503    5.1756  -16.4114 C   0  0  0  0  0  0  0  0  0  0  0  0
   -8.2368    4.1547  -10.8551 C   0  0  0  0  0  0  0  0  0  0  0  0
   -8.0991    5.2463   -9.9819 C   0  0  0  0  0  0  0  0  0  0  0  0
   -8.3446    5.1057   -8.6131 C   0  0  0  0  0  0  0  0  0  0  0  0
   -8.7402    3.8675   -8.1440 C   0  0  0  0  0  0  0  0  0  0  0  0
   -8.8971    2.7904   -9.0087 C   0  0  0  0  0  0  0  0  0  0  0  0
   -8.6487    2.9115  -10.3675 C   0  0  0  0  0  0  0  0  0  0  0  0
   -9.2849    1.5829   -8.2239 C   0  0  0  0  0  0  0  0  0  0  0  0
   -9.5870    2.0680   -6.8532 N   0  0  0  0  0  0  0  0  0  0  0  0
   -9.0269    3.4299   -6.7483 C   0  0  0  0  0  0  0  0  0  0  0  0
   -9.1542    1.4563   -6.1611 H   0  0  0  0  0  0  0  0  0  0  0  0
  1  2  2  0  0  0
  2  3  1  0  0  0
  3 17  1  0  0  0
 17 18  2  0  0  0
 18 19  1  0  0  0
 19 20  2  0  0  0
 20 21  1  0  0  0
 21 22  2  0  0  0
 21 23  1  0  0  0
 23 24  1  0  0  0
 24 25  1  0  0  0
  2  5  1  0  0  0
  5  6  2  0  0  0
  6  7  1  0  0  0
  7  8  1  0  0  0
  7  9  2  0  0  0
  9 10  1  0  0  0
 10 11  2  0  0  0
 11 12  1  0  0  0
 12 13  1  0  0  0
 13 14  2  0  0  0
 14 15  1  0  0  0
 15 16  2  0  0  0
 22 17  1  0  0  0
 15  5  1  0  0  0
 25 20  1  0  0  0
 16  9  1  0  0  0
 16 12  1  0  0  0
  3  4  1  0  0  0
 24 26  1  0  0  0
M  END
> <minimizedAffinity>
-8.31660

> <minimizedRMSD>
0.38713

$$$$
P29221


 29 33  0  0  0  0  0  0  0  0999 V2000
   -7.0236    5.0194  -14.8165 C   0  0  0  0  0  0  0  0  0  0  0  0
   -8.1736    4.5913  -15.5607 C   0  0  0  0  0  0  0  0  0  0  0  0
   -8.1390    4.4713  -16.9819 C   0  0  0  0  0  0  0  0  0  0  0  0
   -9.5328    4.0752  -17.8620 Cl  0  0  0  0  0  0  0  0  0  0  0  0
   -6.9736    4.7615  -17.6264 C   0  0  0  0  0  0  0  0  0  0  0  0
   -6.5070    4.9772  -18.9322 N   0  0  0  0  0  0  0  0  0  0  0  0
   -5.1604    5.5027  -18.8519 C   0  0  0  0  0  0  0  0  0  0  0  0
   -4.4880    5.9442  -19.7665 O   0  0  0  0  0  0  0  0  0  0  0  0
   -4.8307    5.4691  -17.5017 N   0  0  0  0  0  0  0  0  0  0  0  0
   -5.9305    5.0731  -16.8263 C   0  0  0  0  0  0  0  0  0  0  0  0
   -5.8537    5.2784  -15.4928 C   0  0  0  0  0  0  0  0  0  0  0  0
   -4.5598    5.7605  -15.1694 N   0  0  0  0  0  0  0  0  0  0  0  0
   -3.9157    6.0361  -16.5264 C   0  0  0  0  0  0  0  0  0  0  0  0
   -7.0091    4.8013  -19.7606 H   0  0  0  0  0  0  0  0  0  0  0  0
   -4.1672    5.8882  -14.2756 H   0  0  0  0  0  0  0  0  0  0  0  0
   -6.8236    6.4731  -13.0827 O   0  0  0  0  0  0  0  0  0  0  0  0
   -7.1438    5.3927  -13.3923 C   0  0  0  0  0  0  0  0  0  0  0  0
   -7.7032    4.2301  -12.5402 N   0  0  0  0  0  0  0  0  0  0  0  0
   -7.8258    3.3836  -13.0277 H   0  0  0  0  0  0  0  0  0  0  0  0
   -8.0624    4.1853  -11.1929 C   0  0  0  0  0  0  0  0  0  0  0  0
   -7.9285    5.3173  -10.3705 C   0  0  0  0  0  0  0  0  0  0  0  0
   -8.2349    5.2573   -9.0068 C   0  0  0  0  0  0  0  0  0  0  0  0
   -8.6776    4.0549   -8.4912 C   0  0  0  0  0  0  0  0  0  0  0  0
   -8.8184    2.9336   -9.3042 C   0  0  0  0  0  0  0  0  0  0  0  0
   -8.5208    2.9785  -10.6568 C   0  0  0  0  0  0  0  0  0  0  0  0
   -9.2452    1.7780   -8.4608 C   0  0  0  0  0  0  0  0  0  0  0  0
   -9.7237    2.3818   -7.1895 N   0  0  0  0  0  0  0  0  0  0  0  0
   -9.0310    3.6858   -7.0890 C   0  0  0  0  0  0  0  0  0  0  0  0
   -9.4805    1.7865   -6.3978 H   0  0  0  0  0  0  0  0  0  0  0  0
 16 17  2  0  0  0
 17 18  1  0  0  0
 18 20  1  0  0  0
 20 21  2  0  0  0
 21 22  1  0  0  0
 22 23  2  0  0  0
 23 24  1  0  0  0
 24 25  2  0  0  0
 24 26  1  0  0  0
 26 27  1  0  0  0
 27 28  1  0  0  0
 17  1  1  0  0  0
  1  2  2  0  0  0
  2  3  1  0  0  0
  3  4  1  0  0  0
  3  5  2  0  0  0
  5  6  1  0  0  0
  6  7  1  0  0  0
  7  8  2  0  0  0
  7  9  1  0  0  0
  9 10  1  0  0  0
 10 11  2  0  0  0
 11 12  1  0  0  0
 12 13  1  0  0  0
 25 20  1  0  0  0
 11  1  1  0  0  0
 28 23  1  0  0  0
 10  5  1  0  0  0
 13  9  1  0  0  0
 18 19  1  0  0  0
 27 29  1  0  0  0
  6 14  1  0  0  0
 12 15  1  0  0  0
M  END
> <minimizedAffinity>
-8.78915

> <minimizedRMSD>
0.17882

$$$$
P29234


 28 32  0  0  0  0  0  0  0  0999 V2000
   -7.5855    6.5399  -13.2090 O   0  0  0  0  0  0  0  0  0  0  0  0
   -7.6304    5.4014  -13.4617 C   0  0  0  0  0  0  0  0  0  0  0  0
   -7.9592    4.1884  -12.5634 N   0  0  0  0  0  0  0  0  0  0  0  0
   -8.0062    3.3261  -13.0361 H   0  0  0  0  0  0  0  0  0  0  0  0
   -7.4197    4.9943  -14.8601 C   0  0  0  0  0  0  0  0  0  0  0  0
   -8.5209    4.5546  -15.6765 C   0  0  0  0  0  0  0  0  0  0  0  0
   -8.3936    4.3964  -17.0803 C   0  0  0  0  0  0  0  0  0  0  0  0
   -9.7088    3.9308  -18.0374 Cl  0  0  0  0  0  0  0  0  0  0  0  0
   -7.1942    4.6817  -17.6679 C   0  0  0  0  0  0  0  0  0  0  0  0
   -6.5743    4.8018  -18.9255 N   0  0  0  0  0  0  0  0  0  0  0  0
   -5.2140    5.2144  -18.7794 C   0  0  0  0  0  0  0  0  0  0  0  0
   -4.3292    5.4687  -19.5699 O   0  0  0  0  0  0  0  0  0  0  0  0
   -5.0583    5.3317  -17.3927 N   0  0  0  0  0  0  0  0  0  0  0  0
   -4.2281    5.6647  -16.3690 C   0  0  0  0  0  0  0  0  0  0  0  0
   -4.8801    5.6071  -15.1948 N   0  0  0  0  0  0  0  0  0  0  0  0
   -6.1815    5.2112  -15.4839 C   0  0  0  0  0  0  0  0  0  0  0  0
   -6.2183    5.0248  -16.8142 C   0  0  0  0  0  0  0  0  0  0  0  0
   -7.0168    4.6259  -19.7872 H   0  0  0  0  0  0  0  0  0  0  0  0
   -8.2002    4.1162  -11.1929 C   0  0  0  0  0  0  0  0  0  0  0  0
   -8.0434    5.2483  -10.3742 C   0  0  0  0  0  0  0  0  0  0  0  0
   -8.2695    5.1765   -8.9961 C   0  0  0  0  0  0  0  0  0  0  0  0
   -8.6618    3.9640   -8.4648 C   0  0  0  0  0  0  0  0  0  0  0  0
   -8.8186    2.8418   -9.2741 C   0  0  0  0  0  0  0  0  0  0  0  0
   -8.5940    2.8960  -10.6395 C   0  0  0  0  0  0  0  0  0  0  0  0
   -9.1863    1.6778   -8.4162 C   0  0  0  0  0  0  0  0  0  0  0  0
   -9.6299    2.2727   -7.1287 N   0  0  0  0  0  0  0  0  0  0  0  0
   -8.9531    3.5869   -7.0507 C   0  0  0  0  0  0  0  0  0  0  0  0
   -9.3508    1.6803   -6.3466 H   0  0  0  0  0  0  0  0  0  0  0  0
  1  2  2  0  0  0
  2  3  1  0  0  0
  3 19  1  0  0  0
 19 20  2  0  0  0
 20 21  1  0  0  0
 21 22  2  0  0  0
 22 23  1  0  0  0
 23 24  2  0  0  0
 23 25  1  0  0  0
 25 26  1  0  0  0
 26 27  1  0  0  0
  2  5  1  0  0  0
  5  6  2  0  0  0
  6  7  1  0  0  0
  7  8  1  0  0  0
  7  9  2  0  0  0
  9 10  1  0  0  0
 10 11  1  0  0  0
 11 12  2  0  0  0
 11 13  1  0  0  0
 13 14  1  0  0  0
 14 15  2  0  0  0
 15 16  1  0  0  0
 16 17  2  0  0  0
 24 19  1  0  0  0
 16  5  1  0  0  0
 27 22  1  0  0  0
 17  9  1  0  0  0
 17 13  1  0  0  0
  3  4  1  0  0  0
 26 28  1  0  0  0
 10 18  1  0  0  0
M  END
> <minimizedAffinity>
-9.09068

> <minimizedRMSD>
0.31357

$$$$
P29238


 29 32  0  0  0  0  0  0  0  0999 V2000
   -4.7162    5.5761  -18.0745 C   0  0  0  0  0  0  0  0  0  0  0  0
   -5.6648    5.0669  -18.8230 N   0  0  0  0  0  0  0  0  0  0  0  0
   -6.6748    4.7680  -17.9677 C   0  0  0  0  0  0  0  0  0  0  0  0
   -7.9634    4.3745  -18.3005 C   0  0  0  0  0  0  0  0  0  0  0  0
   -8.8919    4.3091  -17.2801 C   0  0  0  0  0  0  0  0  0  0  0  0
  -10.5405    4.3198  -17.7172 Cl  0  0  0  0  0  0  0  0  0  0  0  0
   -8.5258    4.4210  -15.9436 C   0  0  0  0  0  0  0  0  0  0  0  0
   -7.2015    4.7175  -15.5833 C   0  0  0  0  0  0  0  0  0  0  0  0
   -6.3120    4.9710  -16.6394 C   0  0  0  0  0  0  0  0  0  0  0  0
   -5.0266    5.4605  -16.7333 N   0  0  0  0  0  0  0  0  0  0  0  0
   -4.4355    5.6872  -15.9793 H   0  0  0  0  0  0  0  0  0  0  0  0
   -3.1547    5.6568  -19.9332 N   0  0  0  0  0  0  0  0  0  0  0  0
   -3.4978    6.2301  -18.6254 C   0  0  0  0  0  0  0  0  0  0  0  0
   -2.3189    6.1150  -20.2965 H   0  0  0  0  0  0  0  0  0  0  0  0
   -3.9295    5.7997  -20.5809 H   0  0  0  0  0  0  0  0  0  0  0  0
   -6.8694    4.9339  -14.1510 C   0  0  0  0  0  0  0  0  0  0  0  0
   -6.0172    5.6881  -13.8781 O   0  0  0  0  0  0  0  0  0  0  0  0
   -7.8439    4.1391  -13.2346 N   0  0  0  0  0  0  0  0  0  0  0  0
   -8.4279    3.5030  -13.7074 H   0  0  0  0  0  0  0  0  0  0  0  0
   -8.0249    4.1815  -11.8496 C   0  0  0  0  0  0  0  0  0  0  0  0
   -7.8510    5.3589  -11.1101 C   0  0  0  0  0  0  0  0  0  0  0  0
   -8.1066    5.3819   -9.7305 C   0  0  0  0  0  0  0  0  0  0  0  0
   -8.5149    4.2130   -9.1113 C   0  0  0  0  0  0  0  0  0  0  0  0
   -8.6628    3.0366   -9.8353 C   0  0  0  0  0  0  0  0  0  0  0  0
   -8.4395    3.0070  -11.2035 C   0  0  0  0  0  0  0  0  0  0  0  0
   -9.0187    1.9288   -8.8975 C   0  0  0  0  0  0  0  0  0  0  0  0
   -9.4487    2.6024   -7.6448 N   0  0  0  0  0  0  0  0  0  0  0  0
   -8.8172    3.9410   -7.6746 C   0  0  0  0  0  0  0  0  0  0  0  0
   -9.1304    2.0767   -6.8307 H   0  0  0  0  0  0  0  0  0  0  0  0
 12 13  1  0  0  0
 13  1  1  0  0  0
  1  2  2  0  0  0
  2  3  1  0  0  0
  3  4  2  0  0  0
  4  5  1  0  0  0
  5  6  1  0  0  0
  5  7  2  0  0  0
  7  8  1  0  0  0
  8 16  1  0  0  0
 16 17  2  0  0  0
 16 18  1  0  0  0
 18 20  1  0  0  0
 20 21  2  0  0  0
 21 22  1  0  0  0
 22 23  2  0  0  0
 23 24  1  0  0  0
 24 25  2  0  0  0
 24 26  1  0  0  0
 26 27  1  0  0  0
 27 28  1  0  0  0
  8  9  2  0  0  0
  9 10  1  0  0  0
 10  1  1  0  0  0
  9  3  1  0  0  0
 25 20  1  0  0  0
 28 23  1  0  0  0
 12 14  1  0  0  0
 12 15  1  0  0  0
 18 19  1  0  0  0
 27 29  1  0  0  0
 10 11  1  0  0  0
M  END
> <minimizedAffinity>
-8.18805

> <minimizedRMSD>
0.26596

$$$$
P29348


 28 31  0  0  0  0  0  0  0  0999 V2000
   -8.4450    4.1576  -16.6307 C   0  0  0  0  0  0  0  0  0  0  0  0
   -8.3830    4.3142  -15.2321 C   0  0  0  0  0  0  0  0  0  0  0  0
   -7.2698    4.8584  -14.5972 C   0  0  0  0  0  0  0  0  0  0  0  0
   -6.1347    5.2077  -15.3290 C   0  0  0  0  0  0  0  0  0  0  0  0
   -6.1285    5.0202  -16.7228 C   0  0  0  0  0  0  0  0  0  0  0  0
   -5.1335    5.2525  -17.7248 C   0  0  0  0  0  0  0  0  0  0  0  0
   -3.7453    5.7268  -17.5012 C   0  0  0  0  0  0  0  0  0  0  0  0
   -5.7141    4.9534  -18.9348 C   0  0  0  0  0  0  0  0  0  0  0  0
   -6.9923    4.5237  -18.7007 N   0  0  0  0  0  0  0  0  0  0  0  0
   -7.2793    4.5221  -17.3485 C   0  0  0  0  0  0  0  0  0  0  0  0
   -7.6251    4.2511  -19.4040 H   0  0  0  0  0  0  0  0  0  0  0  0
   -7.3176    5.2151  -13.1560 C   0  0  0  0  0  0  0  0  0  0  0  0
   -6.9727    6.2878  -12.8475 O   0  0  0  0  0  0  0  0  0  0  0  0
   -7.8569    4.0493  -12.2949 N   0  0  0  0  0  0  0  0  0  0  0  0
   -8.0087    3.2098  -12.7863 H   0  0  0  0  0  0  0  0  0  0  0  0
   -8.1628    3.9935  -10.9375 C   0  0  0  0  0  0  0  0  0  0  0  0
   -7.9658    5.1125  -10.1119 C   0  0  0  0  0  0  0  0  0  0  0  0
   -8.2339    5.0503   -8.7414 C   0  0  0  0  0  0  0  0  0  0  0  0
   -8.6916    3.8557   -8.2191 C   0  0  0  0  0  0  0  0  0  0  0  0
   -8.8965    2.7497   -9.0355 C   0  0  0  0  0  0  0  0  0  0  0  0
   -8.6510    2.8008  -10.3996 C   0  0  0  0  0  0  0  0  0  0  0  0
   -9.3177    1.5918   -8.1965 C   0  0  0  0  0  0  0  0  0  0  0  0
   -9.5925    2.1428   -6.8447 N   0  0  0  0  0  0  0  0  0  0  0  0
   -8.9989    3.4951   -6.8060 C   0  0  0  0  0  0  0  0  0  0  0  0
   -9.1661    1.5516   -6.1312 H   0  0  0  0  0  0  0  0  0  0  0  0
  -10.3089    4.3386  -18.2086 C   0  0  0  0  0  0  0  0  0  0  0  0
   -9.6499    3.6351  -17.1372 N   0  0  0  0  0  0  0  0  0  0  0  0
  -10.0340    2.8073  -16.7677 H   0  0  0  0  0  0  0  0  0  0  0  0
 26 27  1  0  0  0
 27  1  1  0  0  0
  1  2  2  0  0  0
  2  3  1  0  0  0
  3 12  1  0  0  0
 12 13  2  0  0  0
 12 14  1  0  0  0
 14 16  1  0  0  0
 16 17  2  0  0  0
 17 18  1  0  0  0
 18 19  2  0  0  0
 19 20  1  0  0  0
 20 21  2  0  0  0
 20 22  1  0  0  0
 22 23  1  0  0  0
 23 24  1  0  0  0
  3  4  2  0  0  0
  4  5  1  0  0  0
  5  6  1  0  0  0
  6  7  1  0  0  0
  6  8  2  0  0  0
  8  9  1  0  0  0
  9 10  1  0  0  0
 10  1  1  0  0  0
 21 16  1  0  0  0
 10  5  2  0  0  0
 24 19  1  0  0  0
 27 28  1  0  0  0
 14 15  1  0  0  0
 23 25  1  0  0  0
  9 11  1  0  0  0
M  END
> <minimizedAffinity>
-9.06130

> <minimizedRMSD>
0.38146

$$$$
P29349


 29 33  0  0  0  0  0  0  0  0999 V2000
   -6.8491    4.9061  -12.5761 C   0  0  0  0  0  0  0  0  0  0  0  0
   -5.7643    4.1789  -12.0692 O   0  0  0  0  0  0  0  0  0  0  0  0
   -6.6583    6.2711  -12.2814 O   0  0  0  0  0  0  0  0  0  0  0  0
   -5.7315    3.2489  -12.1789 H   0  0  0  0  0  0  0  0  0  0  0  0
   -7.2961    6.9022  -12.5514 H   0  0  0  0  0  0  0  0  0  0  0  0
   -3.6188    5.7133  -17.4008 C   0  0  0  0  0  0  0  0  0  0  0  0
   -5.0387    5.2971  -17.4639 C   0  0  0  0  0  0  0  0  0  0  0  0
   -5.8133    5.0210  -18.5628 C   0  0  0  0  0  0  0  0  0  0  0  0
   -7.1085    4.5819  -18.1555 C   0  0  0  0  0  0  0  0  0  0  0  0
   -8.2981    4.0989  -18.5942 C   0  0  0  0  0  0  0  0  0  0  0  0
   -9.3748    3.8672  -17.2484 S   0  0  0  0  0  0  0  0  0  0  0  0
   -8.1741    4.2870  -16.0905 C   0  0  0  0  0  0  0  0  0  0  0  0
   -8.1202    4.3483  -14.7023 C   0  0  0  0  0  0  0  0  0  0  0  0
   -6.8919    4.7656  -14.0929 C   0  0  0  0  0  0  0  0  0  0  0  0
   -5.7598    5.1259  -14.8792 C   0  0  0  0  0  0  0  0  0  0  0  0
   -5.8521    5.0640  -16.2492 C   0  0  0  0  0  0  0  0  0  0  0  0
   -7.0549    4.6479  -16.7797 C   0  0  0  0  0  0  0  0  0  0  0  0
   -8.0579    4.4151  -11.9809 N   0  0  0  0  0  0  0  0  0  0  0  0
   -8.8077    4.2021  -12.5823 H   0  0  0  0  0  0  0  0  0  0  0  0
   -8.2511    4.2165  -10.6141 C   0  0  0  0  0  0  0  0  0  0  0  0
   -8.0864    5.2287   -9.6433 C   0  0  0  0  0  0  0  0  0  0  0  0
   -8.2937    4.9956   -8.2787 C   0  0  0  0  0  0  0  0  0  0  0  0
   -8.7248    3.7456   -7.8940 C   0  0  0  0  0  0  0  0  0  0  0  0
   -8.9389    2.7479   -8.8360 C   0  0  0  0  0  0  0  0  0  0  0  0
   -8.7153    2.9650  -10.1854 C   0  0  0  0  0  0  0  0  0  0  0  0
   -9.3862    1.5106   -8.1351 C   0  0  0  0  0  0  0  0  0  0  0  0
   -9.8104    1.9683   -6.7859 N   0  0  0  0  0  0  0  0  0  0  0  0
   -9.0456    3.2107   -6.5394 C   0  0  0  0  0  0  0  0  0  0  0  0
   -9.5859    1.2645   -6.0826 H   0  0  0  0  0  0  0  0  0  0  0  0
  6  7  1  0  0  0
  7  8  2  0  0  0
  8  9  1  0  0  0
  9 10  2  0  0  0
 10 11  1  0  0  0
 11 12  1  0  0  0
 12 13  2  0  0  0
 13 14  1  0  0  0
 14  1  1  0  0  0
  1  2  1  0  0  0
  1  3  1  0  0  0
  1 18  1  0  0  0
 18 20  1  0  0  0
 20 21  2  0  0  0
 21 22  1  0  0  0
 22 23  2  0  0  0
 23 24  1  0  0  0
 24 25  2  0  0  0
 24 26  1  0  0  0
 26 27  1  0  0  0
 27 28  1  0  0  0
 14 15  2  0  0  0
 15 16  1  0  0  0
 16 17  2  0  0  0
 16  7  1  0  0  0
 17  9  1  0  0  0
 17 12  1  0  0  0
 25 20  1  0  0  0
 28 23  1  0  0  0
  2  4  1  0  0  0
  3  5  1  0  0  0
 18 19  1  0  0  0
 27 29  1  0  0  0
M  END
> <minimizedAffinity>
-9.16592

> <minimizedRMSD>
0.61992

$$$$
P29354


 29 32  0  0  0  0  0  0  0  0999 V2000
   -3.6019    4.5012  -18.1548 C   0  0  0  0  0  0  0  0  0  0  0  0
   -4.9755    5.1438  -18.3643 C   0  0  0  0  0  0  0  0  0  0  0  0
   -4.8201    6.6681  -18.4738 C   0  0  0  0  0  0  0  0  0  0  0  0
   -5.9556    4.7961  -17.2769 C   0  0  0  0  0  0  0  0  0  0  0  0
   -5.8165    4.8555  -15.8992 C   0  0  0  0  0  0  0  0  0  0  0  0
   -6.9217    4.5286  -15.0956 C   0  0  0  0  0  0  0  0  0  0  0  0
   -8.1608    4.2135  -15.6706 C   0  0  0  0  0  0  0  0  0  0  0  0
   -8.2844    4.1958  -17.0596 C   0  0  0  0  0  0  0  0  0  0  0  0
   -9.8124    3.9524  -17.7896 Cl  0  0  0  0  0  0  0  0  0  0  0  0
   -7.1704    4.4339  -17.8536 C   0  0  0  0  0  0  0  0  0  0  0  0
   -7.1299    4.3847  -19.2682 N   0  0  0  0  0  0  0  0  0  0  0  0
   -5.7219    4.5281  -19.5910 C   0  0  0  0  0  0  0  0  0  0  0  0
   -5.6313    5.2983  -20.7602 O   0  0  0  0  0  0  0  0  0  0  0  0
   -7.8848    4.2775  -19.8909 H   0  0  0  0  0  0  0  0  0  0  0  0
   -6.0554    6.1584  -20.6145 H   0  0  0  0  0  0  0  0  0  0  0  0
   -6.7375    4.5709  -13.6298 C   0  0  0  0  0  0  0  0  0  0  0  0
   -6.0187    5.4336  -13.1403 O   0  0  0  0  0  0  0  0  0  0  0  0
   -7.3348    3.4802  -12.7672 C   0  0  0  0  0  0  0  0  0  0  0  0
   -7.2371    2.3303  -13.1903 O   0  0  0  0  0  0  0  0  0  0  0  0
   -7.8930    3.7559  -11.4152 C   0  0  0  0  0  0  0  0  0  0  0  0
   -7.8142    5.0086  -10.7740 C   0  0  0  0  0  0  0  0  0  0  0  0
   -8.2087    5.1581   -9.4366 C   0  0  0  0  0  0  0  0  0  0  0  0
   -8.7022    4.0526   -8.7696 C   0  0  0  0  0  0  0  0  0  0  0  0
   -8.8288    2.8288   -9.4131 C   0  0  0  0  0  0  0  0  0  0  0  0
   -8.4332    2.6640  -10.7262 C   0  0  0  0  0  0  0  0  0  0  0  0
   -9.3493    1.8148   -8.4527 C   0  0  0  0  0  0  0  0  0  0  0  0
   -9.8545    2.6012   -7.2975 N   0  0  0  0  0  0  0  0  0  0  0  0
   -9.1303    3.8911   -7.3487 C   0  0  0  0  0  0  0  0  0  0  0  0
   -9.6567    2.1160   -6.4224 H   0  0  0  0  0  0  0  0  0  0  0  0
  1  2  1  0  0  0
  2  3  1  0  0  0
  2  4  1  0  0  0
  4  5  2  0  0  0
  5  6  1  0  0  0
  6 16  1  0  0  0
 16 17  2  0  0  0
 16 18  1  0  0  0
 18 19  2  0  0  0
 18 20  1  0  0  0
 20 21  2  0  0  0
 21 22  1  0  0  0
 22 23  2  0  0  0
 23 24  1  0  0  0
 24 25  2  0  0  0
 24 26  1  0  0  0
 26 27  1  0  0  0
 27 28  1  0  0  0
  6  7  2  0  0  0
  7  8  1  0  0  0
  8  9  1  0  0  0
  8 10  2  0  0  0
 10 11  1  0  0  0
 11 12  1  0  0  0
 12 13  1  0  0  0
 12  2  1  0  0  0
 10  4  1  0  0  0
 25 20  1  0  0  0
 28 23  1  0  0  0
 27 29  1  0  0  0
 11 14  1  0  0  0
 13 15  1  0  0  0
M  END
> <minimizedAffinity>
-9.20876

> <minimizedRMSD>
0.41718

$$$$
P29355


 32 35  0  0  0  0  0  0  0  0999 V2000
   -6.8999    4.7884  -13.7462 C   0  0  0  0  0  0  0  0  0  0  0  0
   -5.8612    4.8767  -13.0982 O   0  0  0  0  0  0  0  0  0  0  0  0
   -3.2711    4.9568  -18.0305 C   0  0  0  0  0  0  0  0  0  0  0  0
   -4.5526    5.7837  -18.1249 C   0  0  0  0  0  0  0  0  0  0  0  0
   -4.2206    7.2364  -17.7763 C   0  0  0  0  0  0  0  0  0  0  0  0
   -5.6446    5.2459  -17.2365 C   0  0  0  0  0  0  0  0  0  0  0  0
   -5.7093    5.2231  -15.8525 C   0  0  0  0  0  0  0  0  0  0  0  0
   -6.8690    4.7372  -15.2311 C   0  0  0  0  0  0  0  0  0  0  0  0
   -7.9480    4.2850  -16.0110 C   0  0  0  0  0  0  0  0  0  0  0  0
   -7.8607    4.3029  -17.4053 C   0  0  0  0  0  0  0  0  0  0  0  0
   -9.2166    3.8266  -18.3467 Cl  0  0  0  0  0  0  0  0  0  0  0  0
   -6.6998    4.7714  -18.0104 C   0  0  0  0  0  0  0  0  0  0  0  0
   -6.3741    4.7262  -19.3836 N   0  0  0  0  0  0  0  0  0  0  0  0
   -5.2238    5.6063  -19.5277 C   0  0  0  0  0  0  0  0  0  0  0  0
   -5.7010    6.8242  -20.0666 O   0  0  0  0  0  0  0  0  0  0  0  0
   -6.8268    4.2112  -20.0901 H   0  0  0  0  0  0  0  0  0  0  0  0
   -6.3797    7.1933  -19.4801 H   0  0  0  0  0  0  0  0  0  0  0  0
   -8.2080    4.9161  -13.0116 C   0  0  0  0  0  0  0  0  0  0  0  0
   -9.1931    5.3302  -13.6129 O   0  0  0  0  0  0  0  0  0  0  0  0
   -8.2207    4.7049  -11.5537 C   0  0  0  0  0  0  0  0  0  0  0  0
   -8.0445    5.8398  -10.7365 C   0  0  0  0  0  0  0  0  0  0  0  0
   -8.0938    5.7204   -9.3490 C   0  0  0  0  0  0  0  0  0  0  0  0
   -8.3408    4.4682   -8.8126 C   0  0  0  0  0  0  0  0  0  0  0  0
   -8.5085    3.3458   -9.6239 C   0  0  0  0  0  0  0  0  0  0  0  0
   -8.4420    3.4309  -11.0113 C   0  0  0  0  0  0  0  0  0  0  0  0
   -8.5350    2.2888  -11.8140 N   0  0  0  0  0  0  0  0  0  0  0  0
   -8.7898    2.1607   -8.7573 C   0  0  0  0  0  0  0  0  0  0  0  0
   -8.8794    2.6631   -7.3617 N   0  0  0  0  0  0  0  0  0  0  0  0
   -8.4799    4.0822   -7.3803 C   0  0  0  0  0  0  0  0  0  0  0  0
   -8.6910    1.4086  -11.4015 H   0  0  0  0  0  0  0  0  0  0  0  0
   -8.4445    2.3654  -12.7913 H   0  0  0  0  0  0  0  0  0  0  0  0
   -8.2518    2.1316   -6.7584 H   0  0  0  0  0  0  0  0  0  0  0  0
  3  4  1  0  0  0
  4  5  1  0  0  0
  4  6  1  0  0  0
  6  7  2  0  0  0
  7  8  1  0  0  0
  8  1  1  0  0  0
  1  2  2  0  0  0
  1 18  1  0  0  0
 18 19  2  0  0  0
 18 20  1  0  0  0
 20 21  2  0  0  0
 21 22  1  0  0  0
 22 23  2  0  0  0
 23 24  1  0  0  0
 24 25  2  0  0  0
 25 26  1  0  0  0
 24 27  1  0  0  0
 27 28  1  0  0  0
 28 29  1  0  0  0
  8  9  2  0  0  0
  9 10  1  0  0  0
 10 11  1  0  0  0
 10 12  2  0  0  0
 12 13  1  0  0  0
 13 14  1  0  0  0
 14 15  1  0  0  0
 14  4  1  0  0  0
 12  6  1  0  0  0
 25 20  1  0  0  0
 29 23  1  0  0  0
 26 30  1  0  0  0
 26 31  1  0  0  0
 28 32  1  0  0  0
 13 16  1  0  0  0
 15 17  1  0  0  0
M  END
> <minimizedAffinity>
-10.50043

> <minimizedRMSD>
0.29844

$$$$
P29357


 37 41  0  0  0  0  0  0  0  0999 V2000
   -8.2075    4.6911  -13.7664 C   0  0  0  0  0  0  0  0  0  0  0  0
   -9.2126    5.2621  -13.6168 O   0  0  0  0  0  0  0  0  0  0  0  0
   -7.2965    3.9937  -12.7446 N   0  0  0  0  0  0  0  0  0  0  0  0
   -6.5323    3.5115  -13.1357 H   0  0  0  0  0  0  0  0  0  0  0  0
   -7.3790    3.9294  -11.2890 C   0  0  0  0  0  0  0  0  0  0  0  0
   -8.3570    2.8139  -10.8569 C   0  0  0  0  0  0  0  0  0  0  0  0
   -8.7418    2.9334   -9.4247 C   0  0  0  0  0  0  0  0  0  0  0  0
   -8.5104    3.9998   -8.6539 C   0  0  0  0  0  0  0  0  0  0  0  0
   -8.9953    3.7416   -7.2735 C   0  0  0  0  0  0  0  0  0  0  0  0
   -9.7421    2.4708   -7.3540 N   0  0  0  0  0  0  0  0  0  0  0  0
   -9.3328    1.8360   -8.6240 C   0  0  0  0  0  0  0  0  0  0  0  0
   -7.7815    5.2243   -9.1067 C   0  0  0  0  0  0  0  0  0  0  0  0
   -7.7609    5.2852  -10.6588 C   0  0  0  0  0  0  0  0  0  0  0  0
   -8.3713    6.4463   -8.5417 N   0  0  0  0  0  0  0  0  0  0  0  0
   -7.4912    6.8528   -7.4839 N   0  0  0  0  0  0  0  0  0  0  0  0
   -6.2056    6.3830   -7.8299 N   0  0  0  0  0  0  0  0  0  0  0  0
   -6.3888    5.1971   -8.6164 N   0  0  0  0  0  0  0  0  0  0  0  0
  -10.7463    2.6495   -7.3549 H   0  0  0  0  0  0  0  0  0  0  0  0
   -9.3031    6.2537   -8.1741 H   0  0  0  0  0  0  0  0  0  0  0  0
   -7.7902    6.4424   -6.5993 H   0  0  0  0  0  0  0  0  0  0  0  0
   -5.6738    6.1655   -6.9872 H   0  0  0  0  0  0  0  0  0  0  0  0
   -6.2341    4.3677   -8.0431 H   0  0  0  0  0  0  0  0  0  0  0  0
   -3.5598    5.5843  -17.1306 C   0  0  0  0  0  0  0  0  0  0  0  0
   -4.9108    5.2859  -17.6696 C   0  0  0  0  0  0  0  0  0  0  0  0
   -5.2853    5.3169  -18.9980 C   0  0  0  0  0  0  0  0  0  0  0  0
   -4.6041    5.6605  -20.1086 N   0  0  0  0  0  0  0  0  0  0  0  0
   -6.5888    4.9239  -19.0916 N   0  0  0  0  0  0  0  0  0  0  0  0
   -7.0892    4.6602  -17.8384 C   0  0  0  0  0  0  0  0  0  0  0  0
   -8.3590    4.2343  -17.4558 C   0  0  0  0  0  0  0  0  0  0  0  0
   -9.5664    3.8713  -18.6035 Cl  0  0  0  0  0  0  0  0  0  0  0  0
   -8.6593    4.1899  -16.1055 C   0  0  0  0  0  0  0  0  0  0  0  0
   -7.7085    4.5488  -15.1563 C   0  0  0  0  0  0  0  0  0  0  0  0
   -6.4001    4.8933  -15.5328 C   0  0  0  0  0  0  0  0  0  0  0  0
   -6.0849    4.9529  -16.9137 C   0  0  0  0  0  0  0  0  0  0  0  0
   -3.6637    5.9441  -20.0413 H   0  0  0  0  0  0  0  0  0  0  0  0
   -5.0467    5.6281  -20.9874 H   0  0  0  0  0  0  0  0  0  0  0  0
   -7.0956    4.8415  -19.9316 H   0  0  0  0  0  0  0  0  0  0  0  0
 23 24  1  0  0  0
 24 25  2  0  0  0
 25 26  1  0  0  0
 25 27  1  0  0  0
 27 28  1  0  0  0
 28 29  2  0  0  0
 29 30  1  0  0  0
 29 31  1  0  0  0
 31 32  2  0  0  0
 32  1  1  0  0  0
  1  2  2  0  0  0
  1  3  1  0  0  0
  5  3  1  0  0  0
  5  6  1  0  0  0
  6  7  1  0  0  0
  7  8  2  0  0  0
  8  9  1  0  0  0
  9 10  1  0  0  0
 10 11  1  0  0  0
  8 12  1  0  0  0
 12 13  1  0  0  0
 12 14  1  0  0  0
 14 15  1  0  0  0
 15 16  1  0  0  0
 16 17  1  0  0  0
 32 33  1  0  0  0
 33 34  2  0  0  0
 34 24  1  0  0  0
 34 28  1  0  0  0
 13  5  1  0  0  0
 11  7  1  0  0  0
 17 12  1  0  0  0
 26 35  1  0  0  0
 26 36  1  0  0  0
 27 37  1  0  0  0
  3  4  1  0  0  0
 10 18  1  0  0  0
 14 19  1  0  0  0
 15 20  1  0  0  0
 16 21  1  0  0  0
 17 22  1  0  0  0
M  END
> <minimizedAffinity>
-10.40915

> <minimizedRMSD>
0.25231

$$$$
P29360


 41 45  0  0  0  0  0  0  0  0999 V2000
   -7.1055    5.2081  -13.0141 C   0  0  0  0  0  0  0  0  0  0  0  0
   -5.8813    4.8884  -12.3865 O   0  0  0  0  0  0  0  0  0  0  0  0
   -5.6654    3.9577  -12.5541 H   0  0  0  0  0  0  0  0  0  0  0  0
   -3.4789    5.6095  -17.9165 C   0  0  0  0  0  0  0  0  0  0  0  0
   -4.9171    5.2422  -17.9600 C   0  0  0  0  0  0  0  0  0  0  0  0
   -5.6173    4.9736  -19.1187 C   0  0  0  0  0  0  0  0  0  0  0  0
   -6.8954    4.6214  -18.7887 N   0  0  0  0  0  0  0  0  0  0  0  0
   -7.0173    4.6143  -17.4268 C   0  0  0  0  0  0  0  0  0  0  0  0
   -5.8430    5.0924  -16.8703 C   0  0  0  0  0  0  0  0  0  0  0  0
   -5.6722    5.3856  -15.3632 C   0  0  0  0  0  0  0  0  0  0  0  0
   -4.3516    4.7887  -14.8144 C   0  0  0  0  0  0  0  0  0  0  0  0
   -3.4823    5.8890  -14.3690 N   0  0  0  0  0  0  0  0  0  0  0  0
   -4.3199    7.0493  -14.2221 N   0  0  0  0  0  0  0  0  0  0  0  0
   -5.4057    6.8922  -15.1903 C   0  0  0  0  0  0  0  0  0  0  0  0
   -6.9540    4.8269  -14.5468 C   0  0  0  0  0  0  0  0  0  0  0  0
   -8.3011    4.9204  -15.3563 C   0  0  0  0  0  0  0  0  0  0  0  0
   -8.2057    4.1412  -16.6798 C   0  0  0  0  0  0  0  0  0  0  0  0
   -9.6817    4.1577  -17.6608 Cl  0  0  0  0  0  0  0  0  0  0  0  0
   -7.6128    4.4072  -19.4281 H   0  0  0  0  0  0  0  0  0  0  0  0
   -2.7565    6.0659  -15.0636 H   0  0  0  0  0  0  0  0  0  0  0  0
   -3.7884    7.8969  -14.4210 H   0  0  0  0  0  0  0  0  0  0  0  0
   -7.4912    6.7414  -12.7560 C   0  0  0  0  0  0  0  0  0  0  0  0
   -6.7331    7.4985  -12.2856 O   0  0  0  0  0  0  0  0  0  0  0  0
   -8.9579    6.9461  -13.2240 N   0  0  0  0  0  0  0  0  0  0  0  0
   -9.3641    6.1633  -13.6615 H   0  0  0  0  0  0  0  0  0  0  0  0
   -9.8252    8.1013  -13.1214 C   0  0  0  0  0  0  0  0  0  0  0  0
   -9.1190    9.4196  -12.7677 C   0  0  0  0  0  0  0  0  0  0  0  0
   -9.6766   10.5632  -13.6205 C   0  0  0  0  0  0  0  0  0  0  0  0
   -9.3016    9.7642  -11.2865 C   0  0  0  0  0  0  0  0  0  0  0  0
   -8.1314    4.3052  -12.4269 N   0  0  0  0  0  0  0  0  0  0  0  0
   -8.7261    3.7916  -13.0201 H   0  0  0  0  0  0  0  0  0  0  0  0
   -8.2603    4.1779  -11.0251 C   0  0  0  0  0  0  0  0  0  0  0  0
   -8.0514    5.2405  -10.1194 C   0  0  0  0  0  0  0  0  0  0  0  0
   -8.2352    5.0930   -8.7397 C   0  0  0  0  0  0  0  0  0  0  0  0
   -8.6704    3.8753   -8.2700 C   0  0  0  0  0  0  0  0  0  0  0  0
   -8.9017    2.8192   -9.1414 C   0  0  0  0  0  0  0  0  0  0  0  0
   -8.7174    2.9541  -10.5081 C   0  0  0  0  0  0  0  0  0  0  0  0
   -9.3235    1.6284   -8.3484 C   0  0  0  0  0  0  0  0  0  0  0  0
   -9.7448    2.1790   -7.0332 N   0  0  0  0  0  0  0  0  0  0  0  0
   -8.9818    3.4376   -6.8788 C   0  0  0  0  0  0  0  0  0  0  0  0
   -9.5162    1.5274   -6.2825 H   0  0  0  0  0  0  0  0  0  0  0  0
  4  5  1  0  0  0
  5  6  2  0  0  0
  6  7  1  0  0  0
  7  8  1  0  0  0
  8  9  2  0  0  0
  9 10  1  0  0  0
 10 11  1  0  0  0
 11 12  1  0  0  0
 12 13  1  0  0  0
 13 14  1  0  0  0
 10 15  1  0  0  0
 15  1  1  0  0  0
  1  2  1  0  0  0
  1 30  1  0  0  0
 30 32  1  0  0  0
 32 33  2  0  0  0
 33 34  1  0  0  0
 34 35  2  0  0  0
 35 36  1  0  0  0
 36 37  2  0  0  0
 36 38  1  0  0  0
 38 39  1  0  0  0
 39 40  1  0  0  0
  1 22  1  0  0  0
 22 23  2  0  0  0
 22 24  1  0  0  0
 24 26  1  0  0  0
 26 27  1  0  0  0
 27 28  1  0  0  0
 27 29  1  0  0  0
 15 16  1  0  0  0
 16 17  1  0  0  0
 17 18  1  0  0  0
  9  5  1  0  0  0
 14 10  1  0  0  0
 37 32  1  0  0  0
 17  8  1  0  0  0
 40 35  1  0  0  0
  7 19  1  0  0  0
 12 20  1  0  0  0
 13 21  1  0  0  0
  2  3  1  0  0  0
 30 31  1  0  0  0
 39 41  1  0  0  0
 24 25  1  0  0  0
M  END
> <minimizedAffinity>
-8.78885

> <minimizedRMSD>
0.33814

$$$$
P29361


 40 44  0  0  0  0  0  0  0  0999 V2000
   -6.8767    5.0872  -13.0681 C   0  0  0  0  0  0  0  0  0  0  0  0
   -7.0114    6.5030  -13.0081 O   0  0  0  0  0  0  0  0  0  0  0  0
   -7.0863    6.7817  -12.0820 H   0  0  0  0  0  0  0  0  0  0  0  0
   -6.7599    4.7014  -14.6005 C   0  0  0  0  0  0  0  0  0  0  0  0
   -8.1648    4.9185  -15.2850 C   0  0  0  0  0  0  0  0  0  0  0  0
   -8.2901    4.6524  -16.7894 C   0  0  0  0  0  0  0  0  0  0  0  0
   -9.0333    3.1434  -17.2767 Cl  0  0  0  0  0  0  0  0  0  0  0  0
   -7.0170    4.9101  -17.4891 C   0  0  0  0  0  0  0  0  0  0  0  0
   -6.9181    4.9354  -18.8532 N   0  0  0  0  0  0  0  0  0  0  0  0
   -5.6243    5.1906  -19.2055 C   0  0  0  0  0  0  0  0  0  0  0  0
   -4.8778    5.3716  -18.0595 C   0  0  0  0  0  0  0  0  0  0  0  0
   -3.4246    5.6902  -18.0636 C   0  0  0  0  0  0  0  0  0  0  0  0
   -5.7793    5.2049  -16.9445 C   0  0  0  0  0  0  0  0  0  0  0  0
   -5.5279    5.3501  -15.4326 C   0  0  0  0  0  0  0  0  0  0  0  0
   -5.2036    6.8257  -15.1100 C   0  0  0  0  0  0  0  0  0  0  0  0
   -4.0063    6.8538  -14.2631 N   0  0  0  0  0  0  0  0  0  0  0  0
   -3.2248    5.7082  -14.6522 N   0  0  0  0  0  0  0  0  0  0  0  0
   -4.1838    4.6728  -15.0564 C   0  0  0  0  0  0  0  0  0  0  0  0
   -7.6624    4.7922  -19.4815 H   0  0  0  0  0  0  0  0  0  0  0  0
   -4.2657    6.7894  -13.2788 H   0  0  0  0  0  0  0  0  0  0  0  0
   -2.6624    5.3811  -13.8667 H   0  0  0  0  0  0  0  0  0  0  0  0
   -5.4787    3.0670  -12.3002 N   0  0  0  0  0  0  0  0  0  0  0  0
   -5.6264    4.6127  -12.1883 C   0  0  0  0  0  0  0  0  0  0  0  0
   -5.0017    5.3934  -11.5754 O   0  0  0  0  0  0  0  0  0  0  0  0
   -6.1826    2.6225  -12.8257 H   0  0  0  0  0  0  0  0  0  0  0  0
   -4.4820    2.1840  -11.7611 C   0  0  0  0  0  0  0  0  0  0  0  0
   -3.8324    0.7168   -9.8324 C   0  0  0  0  0  0  0  0  0  0  0  0
   -4.9117    1.6113  -10.4174 C   0  0  0  0  0  0  0  0  0  0  0  0
   -8.1155    4.5186  -12.4878 N   0  0  0  0  0  0  0  0  0  0  0  0
   -8.8427    4.2254  -13.0830 H   0  0  0  0  0  0  0  0  0  0  0  0
   -8.2625    4.3938  -11.0953 C   0  0  0  0  0  0  0  0  0  0  0  0
   -8.0580    5.4679  -10.2016 C   0  0  0  0  0  0  0  0  0  0  0  0
   -8.1766    5.3224   -8.8144 C   0  0  0  0  0  0  0  0  0  0  0  0
   -8.5496    4.0918   -8.3239 C   0  0  0  0  0  0  0  0  0  0  0  0
   -8.7788    3.0244   -9.1834 C   0  0  0  0  0  0  0  0  0  0  0  0
   -8.6461    3.1563  -10.5578 C   0  0  0  0  0  0  0  0  0  0  0  0
   -9.1346    1.8258   -8.3696 C   0  0  0  0  0  0  0  0  0  0  0  0
   -9.5183    2.3666   -7.0392 N   0  0  0  0  0  0  0  0  0  0  0  0
   -8.7938    3.6517   -6.9201 C   0  0  0  0  0  0  0  0  0  0  0  0
   -9.2354    1.7262   -6.2975 H   0  0  0  0  0  0  0  0  0  0  0  0
 27 28  1  0  0  0
 28 26  1  0  0  0
 26 22  1  0  0  0
 22 23  1  0  0  0
 23 24  2  0  0  0
 23  1  1  0  0  0
  1  2  1  0  0  0
  1 29  1  0  0  0
 29 31  1  0  0  0
 31 32  2  0  0  0
 32 33  1  0  0  0
 33 34  2  0  0  0
 34 35  1  0  0  0
 35 36  2  0  0  0
 35 37  1  0  0  0
 37 38  1  0  0  0
 38 39  1  0  0  0
  1  4  1  0  0  0
  4  5  1  0  0  0
  5  6  1  0  0  0
  6  7  1  0  0  0
  6  8  1  0  0  0
  8  9  1  0  0  0
  9 10  1  0  0  0
 10 11  2  0  0  0
 11 12  1  0  0  0
 11 13  1  0  0  0
 13 14  1  0  0  0
 14 15  1  0  0  0
 15 16  1  0  0  0
 16 17  1  0  0  0
 17 18  1  0  0  0
 36 31  1  0  0  0
 14  4  1  0  0  0
 39 34  1  0  0  0
 13  8  2  0  0  0
 18 14  1  0  0  0
 22 25  1  0  0  0
  2  3  1  0  0  0
 29 30  1  0  0  0
 38 40  1  0  0  0
  9 19  1  0  0  0
 16 20  1  0  0  0
 17 21  1  0  0  0
M  END
> <minimizedAffinity>
-8.46676

> <minimizedRMSD>
0.46371

$$$$
P29365


 41 45  0  0  0  0  0  0  0  0999 V2000
   -6.8026    5.0730  -13.1707 C   0  0  0  0  0  0  0  0  0  0  0  0
   -7.0348    6.4676  -13.0810 O   0  0  0  0  0  0  0  0  0  0  0  0
   -7.7870    6.7070  -13.6447 H   0  0  0  0  0  0  0  0  0  0  0  0
   -3.2583    5.7509  -18.0072 C   0  0  0  0  0  0  0  0  0  0  0  0
   -4.6927    5.3724  -18.0853 C   0  0  0  0  0  0  0  0  0  0  0  0
   -5.3907    5.1335  -19.2545 C   0  0  0  0  0  0  0  0  0  0  0  0
   -6.6679    4.7568  -18.9384 N   0  0  0  0  0  0  0  0  0  0  0  0
   -6.7849    4.7046  -17.5768 C   0  0  0  0  0  0  0  0  0  0  0  0
   -5.6157    5.1786  -17.0010 C   0  0  0  0  0  0  0  0  0  0  0  0
   -5.4686    5.4269  -15.4938 C   0  0  0  0  0  0  0  0  0  0  0  0
   -5.3257    6.9415  -15.2453 C   0  0  0  0  0  0  0  0  0  0  0  0
   -4.4052    7.0111  -14.1190 N   0  0  0  0  0  0  0  0  0  0  0  0
   -3.4181    5.9990  -14.4329 C   0  0  0  0  0  0  0  0  0  0  0  0
   -4.1412    4.9162  -15.0786 N   0  0  0  0  0  0  0  0  0  0  0  0
   -6.6556    4.7177  -14.6898 C   0  0  0  0  0  0  0  0  0  0  0  0
   -8.0314    4.8620  -15.4616 C   0  0  0  0  0  0  0  0  0  0  0  0
   -7.9528    4.1745  -16.8346 C   0  0  0  0  0  0  0  0  0  0  0  0
   -9.4583    4.1789  -17.7656 Cl  0  0  0  0  0  0  0  0  0  0  0  0
   -7.3836    4.5567  -19.5840 H   0  0  0  0  0  0  0  0  0  0  0  0
   -4.8823    6.7969  -13.2432 H   0  0  0  0  0  0  0  0  0  0  0  0
   -4.2584    4.1418  -14.4253 H   0  0  0  0  0  0  0  0  0  0  0  0
   -5.5407    4.5951  -12.2404 C   0  0  0  0  0  0  0  0  0  0  0  0
   -5.0455    5.3333  -11.4768 O   0  0  0  0  0  0  0  0  0  0  0  0
   -5.2709    3.0818  -12.5025 N   0  0  0  0  0  0  0  0  0  0  0  0
   -5.7704    2.6989  -13.2594 H   0  0  0  0  0  0  0  0  0  0  0  0
   -4.4024    2.1459  -11.8112 C   0  0  0  0  0  0  0  0  0  0  0  0
   -3.0033    1.9747  -12.3945 C   0  0  0  0  0  0  0  0  0  0  0  0
   -2.9844    0.9908  -13.3305 F   0  0  0  0  0  0  0  0  0  0  0  0
   -2.5885    3.1040  -13.0205 F   0  0  0  0  0  0  0  0  0  0  0  0
   -8.0219    4.4052  -12.6343 N   0  0  0  0  0  0  0  0  0  0  0  0
   -8.6909    4.0175  -13.2438 H   0  0  0  0  0  0  0  0  0  0  0  0
   -8.1990    4.3393  -11.2379 C   0  0  0  0  0  0  0  0  0  0  0  0
   -8.0229    5.4577  -10.3943 C   0  0  0  0  0  0  0  0  0  0  0  0
   -8.1727    5.3749   -9.0057 C   0  0  0  0  0  0  0  0  0  0  0  0
   -8.5418    4.1625   -8.4672 C   0  0  0  0  0  0  0  0  0  0  0  0
   -8.7400    3.0530   -9.2809 C   0  0  0  0  0  0  0  0  0  0  0  0
   -8.5839    3.1232  -10.6561 C   0  0  0  0  0  0  0  0  0  0  0  0
   -9.0860    1.8857   -8.4200 C   0  0  0  0  0  0  0  0  0  0  0  0
   -9.5106    2.4805   -7.1256 N   0  0  0  0  0  0  0  0  0  0  0  0
   -8.8039    3.7799   -7.0498 C   0  0  0  0  0  0  0  0  0  0  0  0
   -9.2385    1.8787   -6.3483 H   0  0  0  0  0  0  0  0  0  0  0  0
  4  5  1  0  0  0
  5  6  2  0  0  0
  6  7  1  0  0  0
  7  8  1  0  0  0
  8  9  2  0  0  0
  9 10  1  0  0  0
 10 11  1  0  0  0
 11 12  1  0  0  0
 12 13  1  0  0  0
 13 14  1  0  0  0
 10 15  1  0  0  0
 15  1  1  0  0  0
  1  2  1  0  0  0
  1 30  1  0  0  0
 30 32  1  0  0  0
 32 33  2  0  0  0
 33 34  1  0  0  0
 34 35  2  0  0  0
 35 36  1  0  0  0
 36 37  2  0  0  0
 36 38  1  0  0  0
 38 39  1  0  0  0
 39 40  1  0  0  0
  1 22  1  0  0  0
 22 23  2  0  0  0
 22 24  1  0  0  0
 24 26  1  0  0  0
 26 27  1  0  0  0
 27 28  1  0  0  0
 27 29  1  0  0  0
 15 16  1  0  0  0
 16 17  1  0  0  0
 17 18  1  0  0  0
  9  5  1  0  0  0
 14 10  1  0  0  0
 37 32  1  0  0  0
 17  8  1  0  0  0
 40 35  1  0  0  0
  7 19  1  0  0  0
 12 20  1  0  0  0
 14 21  1  0  0  0
  2  3  1  0  0  0
 30 31  1  0  0  0
 39 41  1  0  0  0
 24 25  1  0  0  0
M  END
> <minimizedAffinity>
-9.11622

> <minimizedRMSD>
0.33801

$$$$
P29366


 28 31  0  0  0  0  0  0  0  0999 V2000
   -4.8472    5.3759  -17.3101 C   0  0  0  0  0  0  0  0  0  0  0  0
   -4.9481    5.2204  -18.6801 C   0  0  0  0  0  0  0  0  0  0  0  0
   -6.2183    4.8036  -18.9816 N   0  0  0  0  0  0  0  0  0  0  0  0
   -6.9379    4.6198  -17.8243 C   0  0  0  0  0  0  0  0  0  0  0  0
   -8.2423    4.1607  -17.6198 C   0  0  0  0  0  0  0  0  0  0  0  0
   -9.2085    3.6999  -18.9535 Cl  0  0  0  0  0  0  0  0  0  0  0  0
   -8.7673    4.1668  -16.3242 C   0  0  0  0  0  0  0  0  0  0  0  0
   -8.0085    4.6763  -15.2776 C   0  0  0  0  0  0  0  0  0  0  0  0
   -6.6954    5.1085  -15.4879 C   0  0  0  0  0  0  0  0  0  0  0  0
   -6.1342    5.0520  -16.7753 C   0  0  0  0  0  0  0  0  0  0  0  0
   -6.5643    4.6576  -19.8917 H   0  0  0  0  0  0  0  0  0  0  0  0
   -8.5733    4.9414  -13.9335 C   0  0  0  0  0  0  0  0  0  0  0  0
   -9.3081    5.8425  -13.8296 O   0  0  0  0  0  0  0  0  0  0  0  0
   -8.0107    3.9817  -12.8652 N   0  0  0  0  0  0  0  0  0  0  0  0
   -7.4612    3.2461  -13.2205 H   0  0  0  0  0  0  0  0  0  0  0  0
   -8.1536    3.9861  -11.4777 C   0  0  0  0  0  0  0  0  0  0  0  0
   -7.8572    5.1429  -10.7328 C   0  0  0  0  0  0  0  0  0  0  0  0
   -8.0062    5.1662   -9.3429 C   0  0  0  0  0  0  0  0  0  0  0  0
   -8.4753    4.0257   -8.7234 C   0  0  0  0  0  0  0  0  0  0  0  0
   -8.7568    2.8742   -9.4550 C   0  0  0  0  0  0  0  0  0  0  0  0
   -8.5915    2.8296  -10.8304 C   0  0  0  0  0  0  0  0  0  0  0  0
   -9.2096    1.8082   -8.5130 C   0  0  0  0  0  0  0  0  0  0  0  0
   -9.5743    2.5296   -7.2652 N   0  0  0  0  0  0  0  0  0  0  0  0
   -8.7687    3.7707   -7.2828 C   0  0  0  0  0  0  0  0  0  0  0  0
   -9.3447    1.9661   -6.4466 H   0  0  0  0  0  0  0  0  0  0  0  0
   -2.3521    5.8505  -17.3053 C   0  0  0  0  0  0  0  0  0  0  0  0
   -3.6529    5.8094  -16.4997 C   0  0  0  0  0  0  0  0  0  0  0  0
   -3.4693    4.9213  -15.2654 C   0  0  0  0  0  0  0  0  0  0  0  0
 26 27  1  0  0  0
 27 28  1  0  0  0
 27  1  1  0  0  0
  1  2  2  0  0  0
  2  3  1  0  0  0
  3  4  1  0  0  0
  4  5  2  0  0  0
  5  6  1  0  0  0
  5  7  1  0  0  0
  7  8  2  0  0  0
  8 12  1  0  0  0
 12 13  2  0  0  0
 12 14  1  0  0  0
 14 16  1  0  0  0
 16 17  2  0  0  0
 17 18  1  0  0  0
 18 19  2  0  0  0
 19 20  1  0  0  0
 20 21  2  0  0  0
 20 22  1  0  0  0
 22 23  1  0  0  0
 23 24  1  0  0  0
  8  9  1  0  0  0
  9 10  2  0  0  0
 10  1  1  0  0  0
 10  4  1  0  0  0
 21 16  1  0  0  0
 24 19  1  0  0  0
  3 11  1  0  0  0
 14 15  1  0  0  0
 23 25  1  0  0  0
M  END
> <minimizedAffinity>
-9.87628

> <minimizedRMSD>
0.72455

$$$$
P29367


 26 29  0  0  0  0  0  0  0  0999 V2000
   -7.3463    5.5179  -13.1585 C   0  0  0  0  0  0  0  0  0  0  0  0
   -7.0238    6.5865  -12.8181 O   0  0  0  0  0  0  0  0  0  0  0  0
   -7.8620    4.3184  -12.3350 N   0  0  0  0  0  0  0  0  0  0  0  0
   -7.9962    3.4911  -12.8516 H   0  0  0  0  0  0  0  0  0  0  0  0
  -10.5337    4.2558  -17.7657 C   0  0  0  0  0  0  0  0  0  0  0  0
   -9.0653    4.1283  -17.7375 C   0  0  0  0  0  0  0  0  0  0  0  0
   -8.2877    3.8563  -18.8330 C   0  0  0  0  0  0  0  0  0  0  0  0
   -7.0073    4.2374  -18.5647 N   0  0  0  0  0  0  0  0  0  0  0  0
   -6.9088    4.5992  -17.2481 C   0  0  0  0  0  0  0  0  0  0  0  0
   -5.8142    5.0953  -16.5466 C   0  0  0  0  0  0  0  0  0  0  0  0
   -4.3323    5.4051  -17.3504 Cl  0  0  0  0  0  0  0  0  0  0  0  0
   -5.9731    5.3743  -15.1964 C   0  0  0  0  0  0  0  0  0  0  0  0
   -7.2049    5.1501  -14.5823 C   0  0  0  0  0  0  0  0  0  0  0  0
   -8.3171    4.6816  -15.2966 C   0  0  0  0  0  0  0  0  0  0  0  0
   -8.1659    4.4152  -16.6693 C   0  0  0  0  0  0  0  0  0  0  0  0
   -6.2688    4.2504  -19.2157 H   0  0  0  0  0  0  0  0  0  0  0  0
   -8.1679    4.2160  -10.9821 C   0  0  0  0  0  0  0  0  0  0  0  0
   -7.9786    5.3015  -10.1112 C   0  0  0  0  0  0  0  0  0  0  0  0
   -8.2579    5.1820   -8.7467 C   0  0  0  0  0  0  0  0  0  0  0  0
   -8.7344    3.9709   -8.2836 C   0  0  0  0  0  0  0  0  0  0  0  0
   -8.9217    2.8944   -9.1462 C   0  0  0  0  0  0  0  0  0  0  0  0
   -8.6455    2.9957  -10.4983 C   0  0  0  0  0  0  0  0  0  0  0  0
   -9.3950    1.7197   -8.3574 C   0  0  0  0  0  0  0  0  0  0  0  0
   -9.8606    2.2884   -7.0660 N   0  0  0  0  0  0  0  0  0  0  0  0
   -9.1105    3.5534   -6.9009 C   0  0  0  0  0  0  0  0  0  0  0  0
   -9.6543    1.6484   -6.2991 H   0  0  0  0  0  0  0  0  0  0  0  0
  5  6  1  0  0  0
  6  7  2  0  0  0
  7  8  1  0  0  0
  8  9  1  0  0  0
  9 10  2  0  0  0
 10 11  1  0  0  0
 10 12  1  0  0  0
 12 13  2  0  0  0
 13  1  1  0  0  0
  1  2  2  0  0  0
  1  3  1  0  0  0
  3 17  1  0  0  0
 17 18  2  0  0  0
 18 19  1  0  0  0
 19 20  2  0  0  0
 20 21  1  0  0  0
 21 22  2  0  0  0
 21 23  1  0  0  0
 23 24  1  0  0  0
 24 25  1  0  0  0
 13 14  1  0  0  0
 14 15  2  0  0  0
 15  6  1  0  0  0
 15  9  1  0  0  0
 22 17  1  0  0  0
 25 20  1  0  0  0
  8 16  1  0  0  0
  3  4  1  0  0  0
 24 26  1  0  0  0
M  END
> <minimizedAffinity>
-8.22480

> <minimizedRMSD>
0.23144

$$$$
P29369


 31 34  0  0  0  0  0  0  0  0999 V2000
   -8.2832    5.4827  -13.0129 C   0  0  0  0  0  0  0  0  0  0  0  0
   -8.6496    6.5695  -12.7976 O   0  0  0  0  0  0  0  0  0  0  0  0
   -8.1788    4.2581  -12.0786 N   0  0  0  0  0  0  0  0  0  0  0  0
   -7.9077    3.4226  -12.5231 H   0  0  0  0  0  0  0  0  0  0  0  0
  -10.5161    4.2720  -18.1288 C   0  0  0  0  0  0  0  0  0  0  0  0
   -9.0752    4.1652  -17.8418 C   0  0  0  0  0  0  0  0  0  0  0  0
   -8.1073    3.9451  -18.7856 C   0  0  0  0  0  0  0  0  0  0  0  0
   -6.9062    4.3365  -18.2756 N   0  0  0  0  0  0  0  0  0  0  0  0
   -7.0546    4.6589  -16.9542 C   0  0  0  0  0  0  0  0  0  0  0  0
   -6.1198    5.1574  -16.0509 C   0  0  0  0  0  0  0  0  0  0  0  0
   -4.5253    5.5247  -16.5620 Cl  0  0  0  0  0  0  0  0  0  0  0  0
   -6.5329    5.3995  -14.7475 C   0  0  0  0  0  0  0  0  0  0  0  0
   -7.8515    5.1348  -14.3803 C   0  0  0  0  0  0  0  0  0  0  0  0
   -8.7975    4.6591  -15.2974 C   0  0  0  0  0  0  0  0  0  0  0  0
   -8.3905    4.4328  -16.6218 C   0  0  0  0  0  0  0  0  0  0  0  0
   -6.0619    4.3805  -18.7799 H   0  0  0  0  0  0  0  0  0  0  0  0
   -8.4053    4.1433  -10.7124 C   0  0  0  0  0  0  0  0  0  0  0  0
   -8.1650    5.2214   -9.8462 C   0  0  0  0  0  0  0  0  0  0  0  0
   -8.3334    5.0836   -8.4657 C   0  0  0  0  0  0  0  0  0  0  0  0
   -8.7556    3.8614   -7.9765 C   0  0  0  0  0  0  0  0  0  0  0  0
   -9.0054    2.7948   -8.8425 C   0  0  0  0  0  0  0  0  0  0  0  0
   -8.8394    2.9153  -10.2110 C   0  0  0  0  0  0  0  0  0  0  0  0
   -9.3720    1.5896   -8.0415 C   0  0  0  0  0  0  0  0  0  0  0  0
   -9.7214    2.1263   -6.7022 N   0  0  0  0  0  0  0  0  0  0  0  0
   -8.9088    3.3695   -6.5652 C   0  0  0  0  0  0  0  0  0  0  0  0
   -9.4787    1.4563   -5.9723 H   0  0  0  0  0  0  0  0  0  0  0  0
   -9.5017    4.3457   -5.5566 C   0  0  0  0  0  0  0  0  0  0  0  0
   -8.8149    4.1507   -4.2334 C   0  0  0  0  0  0  0  0  0  0  0  0
   -7.6104    4.0578   -4.0412 O   0  0  0  0  0  0  0  0  0  0  0  0
   -9.6730    4.1443   -3.1952 O   0  0  0  0  0  0  0  0  0  0  0  0
  -10.5946    4.2158   -3.3486 H   0  0  0  0  0  0  0  0  0  0  0  0
  5  6  1  0  0  0
  6  7  2  0  0  0
  7  8  1  0  0  0
  8  9  1  0  0  0
  9 10  2  0  0  0
 10 11  1  0  0  0
 10 12  1  0  0  0
 12 13  2  0  0  0
 13  1  1  0  0  0
  1  2  2  0  0  0
  1  3  1  0  0  0
  3 17  1  0  0  0
 17 18  2  0  0  0
 18 19  1  0  0  0
 19 20  2  0  0  0
 20 21  1  0  0  0
 21 22  2  0  0  0
 21 23  1  0  0  0
 23 24  1  0  0  0
 24 25  1  0  0  0
 25 27  1  0  0  0
 27 28  1  0  0  0
 28 29  2  0  0  0
 28 30  1  0  0  0
 13 14  1  0  0  0
 14 15  2  0  0  0
 15  6  1  0  0  0
 15  9  1  0  0  0
 22 17  1  0  0  0
 25 20  1  0  0  0
  8 16  1  0  0  0
  3  4  1  0  0  0
 24 26  1  0  0  0
 30 31  1  0  0  0
M  END
> <minimizedAffinity>
-8.57600

> <minimizedRMSD>
0.59818

$$$$
P29373


 29 32  0  0  0  0  0  0  0  0999 V2000
   -3.7582    5.4480  -16.6404 C   0  0  0  0  0  0  0  0  0  0  0  0
   -5.0086    5.0955  -17.3290 C   0  0  0  0  0  0  0  0  0  0  0  0
   -5.1162    4.9101  -18.6815 C   0  0  0  0  0  0  0  0  0  0  0  0
   -4.1568    4.9660  -19.6219 N   0  0  0  0  0  0  0  0  0  0  0  0
   -6.4260    4.6504  -18.9813 N   0  0  0  0  0  0  0  0  0  0  0  0
   -7.1641    4.5557  -17.8173 C   0  0  0  0  0  0  0  0  0  0  0  0
   -8.5130    4.2481  -17.5838 C   0  0  0  0  0  0  0  0  0  0  0  0
   -9.5832    3.9053  -18.8681 Cl  0  0  0  0  0  0  0  0  0  0  0  0
   -9.0146    4.3130  -16.2798 C   0  0  0  0  0  0  0  0  0  0  0  0
   -8.1771    4.7051  -15.2435 C   0  0  0  0  0  0  0  0  0  0  0  0
   -6.8224    4.9722  -15.4704 C   0  0  0  0  0  0  0  0  0  0  0  0
   -6.3012    4.8862  -16.7725 C   0  0  0  0  0  0  0  0  0  0  0  0
   -3.2257    5.1557  -19.3645 H   0  0  0  0  0  0  0  0  0  0  0  0
   -4.3855    4.8172  -20.5679 H   0  0  0  0  0  0  0  0  0  0  0  0
   -6.7883    4.5466  -19.8908 H   0  0  0  0  0  0  0  0  0  0  0  0
   -8.7053    5.0224  -13.8982 C   0  0  0  0  0  0  0  0  0  0  0  0
   -9.4226    5.9386  -13.8017 O   0  0  0  0  0  0  0  0  0  0  0  0
   -8.1694    4.0540  -12.8232 N   0  0  0  0  0  0  0  0  0  0  0  0
   -7.6323    3.3066  -13.1727 H   0  0  0  0  0  0  0  0  0  0  0  0
   -8.3217    4.0649  -11.4387 C   0  0  0  0  0  0  0  0  0  0  0  0
   -8.0541    5.2284  -10.6969 C   0  0  0  0  0  0  0  0  0  0  0  0
   -8.1726    5.2369   -9.3042 C   0  0  0  0  0  0  0  0  0  0  0  0
   -8.5653    4.0707   -8.6759 C   0  0  0  0  0  0  0  0  0  0  0  0
   -8.8313    2.9192   -9.4068 C   0  0  0  0  0  0  0  0  0  0  0  0
   -8.7158    2.8946  -10.7885 C   0  0  0  0  0  0  0  0  0  0  0  0
   -9.1885    1.8144   -8.4723 C   0  0  0  0  0  0  0  0  0  0  0  0
   -9.3441    2.4410   -7.1340 N   0  0  0  0  0  0  0  0  0  0  0  0
   -8.7658    3.7972   -7.2248 C   0  0  0  0  0  0  0  0  0  0  0  0
   -8.8472    1.8942   -6.4308 H   0  0  0  0  0  0  0  0  0  0  0  0
  1  2  1  0  0  0
  2  3  2  0  0  0
  3  4  1  0  0  0
  3  5  1  0  0  0
  5  6  1  0  0  0
  6  7  2  0  0  0
  7  8  1  0  0  0
  7  9  1  0  0  0
  9 10  2  0  0  0
 10 16  1  0  0  0
 16 17  2  0  0  0
 16 18  1  0  0  0
 18 20  1  0  0  0
 20 21  2  0  0  0
 21 22  1  0  0  0
 22 23  2  0  0  0
 23 24  1  0  0  0
 24 25  2  0  0  0
 24 26  1  0  0  0
 26 27  1  0  0  0
 27 28  1  0  0  0
 10 11  1  0  0  0
 11 12  2  0  0  0
 12  2  1  0  0  0
 12  6  1  0  0  0
 25 20  1  0  0  0
 28 23  1  0  0  0
  4 13  1  0  0  0
  4 14  1  0  0  0
  5 15  1  0  0  0
 18 19  1  0  0  0
 27 29  1  0  0  0
M  END
> <minimizedAffinity>
-10.23672

> <minimizedRMSD>
0.70269

$$$$
P29376


 27 30  0  0  0  0  0  0  0  0999 V2000
   -7.7676    5.4887  -13.0338 C   0  0  0  0  0  0  0  0  0  0  0  0
   -7.6482    6.6071  -12.7203 O   0  0  0  0  0  0  0  0  0  0  0  0
   -8.1478    4.2476  -12.1941 N   0  0  0  0  0  0  0  0  0  0  0  0
   -8.2577    3.4175  -12.7119 H   0  0  0  0  0  0  0  0  0  0  0  0
  -10.5374    4.2425  -17.9155 C   0  0  0  0  0  0  0  0  0  0  0  0
   -9.0725    4.1373  -17.7619 C   0  0  0  0  0  0  0  0  0  0  0  0
   -8.2015    3.9038  -18.7943 C   0  0  0  0  0  0  0  0  0  0  0  0
   -6.9554    4.2909  -18.4108 N   0  0  0  0  0  0  0  0  0  0  0  0
   -6.9731    4.6404  -17.0878 C   0  0  0  0  0  0  0  0  0  0  0  0
   -5.9541    5.1577  -16.2934 C   0  0  0  0  0  0  0  0  0  0  0  0
   -4.4268    5.5414  -16.9726 Cl  0  0  0  0  0  0  0  0  0  0  0  0
   -6.2287    5.4024  -14.9545 C   0  0  0  0  0  0  0  0  0  0  0  0
   -7.4967    5.1256  -14.4414 C   0  0  0  0  0  0  0  0  0  0  0  0
   -8.5317    4.6419  -15.2536 C   0  0  0  0  0  0  0  0  0  0  0  0
   -8.2675    4.4126  -16.6161 C   0  0  0  0  0  0  0  0  0  0  0  0
   -6.1631    4.3159  -18.9947 H   0  0  0  0  0  0  0  0  0  0  0  0
   -8.3603    4.1127  -10.8234 C   0  0  0  0  0  0  0  0  0  0  0  0
   -8.1037    5.1926   -9.9567 C   0  0  0  0  0  0  0  0  0  0  0  0
   -8.2658    5.0587   -8.5769 C   0  0  0  0  0  0  0  0  0  0  0  0
   -8.6881    3.8332   -8.1057 C   0  0  0  0  0  0  0  0  0  0  0  0
   -8.9586    2.7557   -8.9462 C   0  0  0  0  0  0  0  0  0  0  0  0
   -8.8028    2.8819  -10.3186 C   0  0  0  0  0  0  0  0  0  0  0  0
   -9.3562    1.5739   -8.1254 C   0  0  0  0  0  0  0  0  0  0  0  0
   -9.3952    2.1148   -6.7815 N   0  0  0  0  0  0  0  0  0  0  0  0
   -8.9108    3.4029   -6.7211 C   0  0  0  0  0  0  0  0  0  0  0  0
   -8.6761    4.0686   -5.7301 O   0  0  0  0  0  0  0  0  0  0  0  0
   -9.7299    1.6180   -6.0003 H   0  0  0  0  0  0  0  0  0  0  0  0
  5  6  1  0  0  0
  6  7  2  0  0  0
  7  8  1  0  0  0
  8  9  1  0  0  0
  9 10  2  0  0  0
 10 11  1  0  0  0
 10 12  1  0  0  0
 12 13  2  0  0  0
 13  1  1  0  0  0
  1  2  2  0  0  0
  1  3  1  0  0  0
  3 17  1  0  0  0
 17 18  2  0  0  0
 18 19  1  0  0  0
 19 20  2  0  0  0
 20 21  1  0  0  0
 21 22  2  0  0  0
 21 23  1  0  0  0
 23 24  1  0  0  0
 24 25  1  0  0  0
 25 26  2  0  0  0
 13 14  1  0  0  0
 14 15  2  0  0  0
 15  6  1  0  0  0
 15  9  1  0  0  0
 22 17  1  0  0  0
 25 20  1  0  0  0
  8 16  1  0  0  0
  3  4  1  0  0  0
 24 27  1  0  0  0
M  END
> <minimizedAffinity>
-8.73362

> <minimizedRMSD>
0.42086

$$$$
P29377


 30 33  0  0  0  0  0  0  0  0999 V2000
   -5.1503    5.3227  -18.5385 C   0  0  0  0  0  0  0  0  0  0  0  0
   -6.4189    4.8884  -18.8665 N   0  0  0  0  0  0  0  0  0  0  0  0
   -7.1539    4.6568  -17.7200 C   0  0  0  0  0  0  0  0  0  0  0  0
   -8.4749    4.2318  -17.5210 C   0  0  0  0  0  0  0  0  0  0  0  0
   -9.4980    3.8716  -18.8373 Cl  0  0  0  0  0  0  0  0  0  0  0  0
   -8.9968    4.2191  -16.2237 C   0  0  0  0  0  0  0  0  0  0  0  0
   -8.2036    4.6362  -15.1651 C   0  0  0  0  0  0  0  0  0  0  0  0
   -6.8638    4.9762  -15.3502 C   0  0  0  0  0  0  0  0  0  0  0  0
   -6.3344    4.9943  -16.6475 C   0  0  0  0  0  0  0  0  0  0  0  0
   -5.0645    5.3646  -17.1568 C   0  0  0  0  0  0  0  0  0  0  0  0
   -3.8901    5.7572  -16.3346 C   0  0  0  0  0  0  0  0  0  0  0  0
   -6.7516    4.7620  -19.7844 H   0  0  0  0  0  0  0  0  0  0  0  0
   -8.7629    4.9368  -13.8349 C   0  0  0  0  0  0  0  0  0  0  0  0
   -9.4501    5.8738  -13.7355 O   0  0  0  0  0  0  0  0  0  0  0  0
   -8.2367    3.9677  -12.7630 N   0  0  0  0  0  0  0  0  0  0  0  0
   -7.7290    3.2009  -13.1143 H   0  0  0  0  0  0  0  0  0  0  0  0
   -8.3610    3.9980  -11.3790 C   0  0  0  0  0  0  0  0  0  0  0  0
   -8.0733    5.1738  -10.6633 C   0  0  0  0  0  0  0  0  0  0  0  0
   -8.1621    5.2060   -9.2700 C   0  0  0  0  0  0  0  0  0  0  0  0
   -8.5581    4.0543   -8.6188 C   0  0  0  0  0  0  0  0  0  0  0  0
   -8.8432    2.8921   -9.3267 C   0  0  0  0  0  0  0  0  0  0  0  0
   -8.7416    2.8391  -10.7068 C   0  0  0  0  0  0  0  0  0  0  0  0
   -9.2023    1.8092   -8.3694 C   0  0  0  0  0  0  0  0  0  0  0  0
   -9.3742    2.4723   -7.0521 N   0  0  0  0  0  0  0  0  0  0  0  0
   -8.7499    3.8063   -7.1620 C   0  0  0  0  0  0  0  0  0  0  0  0
   -8.9140    1.9282   -6.3223 H   0  0  0  0  0  0  0  0  0  0  0  0
   -4.1616    5.6848  -19.5914 C   0  0  0  0  0  0  0  0  0  0  0  0
   -2.5796    3.8698  -19.3705 C   0  0  0  0  0  0  0  0  0  0  0  0
   -2.8001    5.3021  -19.2360 N   0  0  0  0  0  0  0  0  0  0  0  0
   -2.1499    5.7936  -19.8492 H   0  0  0  0  0  0  0  0  0  0  0  0
 28 29  1  0  0  0
 29 27  1  0  0  0
 27  1  1  0  0  0
  1  2  1  0  0  0
  2  3  1  0  0  0
  3  4  2  0  0  0
  4  5  1  0  0  0
  4  6  1  0  0  0
  6  7  2  0  0  0
  7 13  1  0  0  0
 13 14  2  0  0  0
 13 15  1  0  0  0
 15 17  1  0  0  0
 17 18  2  0  0  0
 18 19  1  0  0  0
 19 20  2  0  0  0
 20 21  1  0  0  0
 21 22  2  0  0  0
 21 23  1  0  0  0
 23 24  1  0  0  0
 24 25  1  0  0  0
  7  8  1  0  0  0
  8  9  2  0  0  0
  9 10  1  0  0  0
 10 11  1  0  0  0
 10  1  2  0  0  0
  9  3  1  0  0  0
 22 17  1  0  0  0
 25 20  1  0  0  0
 29 30  1  0  0  0
  2 12  1  0  0  0
 15 16  1  0  0  0
 24 26  1  0  0  0
M  END
> <minimizedAffinity>
-9.23451

> <minimizedRMSD>
0.61867

$$$$
P29385


 30 33  0  0  0  0  0  0  0  0999 V2000
   -7.6775    5.7345  -13.1802 C   0  0  0  0  0  0  0  0  0  0  0  0
   -7.4883    6.9047  -12.8758 N   0  0  0  0  0  0  0  0  0  0  0  0
  -10.5001    4.2870  -17.8510 C   0  0  0  0  0  0  0  0  0  0  0  0
   -9.0354    4.1367  -17.7487 C   0  0  0  0  0  0  0  0  0  0  0  0
   -8.2051    3.8098  -18.7891 C   0  0  0  0  0  0  0  0  0  0  0  0
   -6.9416    4.2094  -18.4723 N   0  0  0  0  0  0  0  0  0  0  0  0
   -6.9117    4.6542  -17.1767 C   0  0  0  0  0  0  0  0  0  0  0  0
   -5.8750    5.2340  -16.4469 C   0  0  0  0  0  0  0  0  0  0  0  0
   -4.3777    5.5831  -17.2031 Cl  0  0  0  0  0  0  0  0  0  0  0  0
   -6.1084    5.5784  -15.1195 C   0  0  0  0  0  0  0  0  0  0  0  0
   -7.3588    5.3276  -14.5652 C   0  0  0  0  0  0  0  0  0  0  0  0
   -8.4134    4.7799  -15.3061 C   0  0  0  0  0  0  0  0  0  0  0  0
   -8.1893    4.4631  -16.6524 C   0  0  0  0  0  0  0  0  0  0  0  0
   -6.1684    4.1826  -19.0812 H   0  0  0  0  0  0  0  0  0  0  0  0
   -8.1464    7.5441  -11.8942 C   0  0  0  0  0  0  0  0  0  0  0  0
   -9.3470    7.5839  -11.6930 O   0  0  0  0  0  0  0  0  0  0  0  0
   -7.3085    8.2764  -11.1379 O   0  0  0  0  0  0  0  0  0  0  0  0
   -6.3854    8.2436  -11.2953 H   0  0  0  0  0  0  0  0  0  0  0  0
   -8.1569    4.4946  -12.2927 N   0  0  0  0  0  0  0  0  0  0  0  0
   -8.4306    3.7015  -12.8078 H   0  0  0  0  0  0  0  0  0  0  0  0
   -8.2514    4.3514  -10.9066 C   0  0  0  0  0  0  0  0  0  0  0  0
   -7.7988    5.2617   -9.9469 C   0  0  0  0  0  0  0  0  0  0  0  0
   -8.0220    5.0740   -8.5744 C   0  0  0  0  0  0  0  0  0  0  0  0
   -8.6359    3.9107   -8.1630 C   0  0  0  0  0  0  0  0  0  0  0  0
   -8.9848    2.9378   -9.0855 C   0  0  0  0  0  0  0  0  0  0  0  0
   -8.8356    3.1540  -10.4444 C   0  0  0  0  0  0  0  0  0  0  0  0
   -9.4394    1.7212   -8.3544 C   0  0  0  0  0  0  0  0  0  0  0  0
   -9.7861    2.2024   -6.9938 N   0  0  0  0  0  0  0  0  0  0  0  0
   -8.9780    3.4278   -6.7932 C   0  0  0  0  0  0  0  0  0  0  0  0
   -9.5475    1.4989   -6.2947 H   0  0  0  0  0  0  0  0  0  0  0  0
  3  4  1  0  0  0
  4  5  2  0  0  0
  5  6  1  0  0  0
  6  7  1  0  0  0
  7  8  2  0  0  0
  8  9  1  0  0  0
  8 10  1  0  0  0
 10 11  2  0  0  0
 11  1  1  0  0  0
  1  2  2  0  0  0
  2 15  1  0  0  0
 15 16  2  0  0  0
 15 17  1  0  0  0
  1 19  1  0  0  0
 19 21  1  0  0  0
 21 22  2  0  0  0
 22 23  1  0  0  0
 23 24  2  0  0  0
 24 25  1  0  0  0
 25 26  2  0  0  0
 25 27  1  0  0  0
 27 28  1  0  0  0
 28 29  1  0  0  0
 11 12  1  0  0  0
 12 13  2  0  0  0
 13  4  1  0  0  0
 13  7  1  0  0  0
 26 21  1  0  0  0
 29 24  1  0  0  0
  6 14  1  0  0  0
 17 18  1  0  0  0
 19 20  1  0  0  0
 28 30  1  0  0  0
M  END
> <minimizedAffinity>
-7.39573

> <minimizedRMSD>
0.29558

$$$$
P29392


 32 35  0  0  0  0  0  0  0  0999 V2000
   -5.0563    5.1899  -18.5721 C   0  0  0  0  0  0  0  0  0  0  0  0
   -6.3574    4.8524  -18.8978 N   0  0  0  0  0  0  0  0  0  0  0  0
   -7.0955    4.6235  -17.7554 C   0  0  0  0  0  0  0  0  0  0  0  0
   -8.4300    4.2407  -17.5620 C   0  0  0  0  0  0  0  0  0  0  0  0
   -9.4609    3.8997  -18.8804 Cl  0  0  0  0  0  0  0  0  0  0  0  0
   -8.9498    4.2347  -16.2646 C   0  0  0  0  0  0  0  0  0  0  0  0
   -8.1409    4.6116  -15.2017 C   0  0  0  0  0  0  0  0  0  0  0  0
   -6.7842    4.8922  -15.3827 C   0  0  0  0  0  0  0  0  0  0  0  0
   -6.2526    4.8902  -16.6811 C   0  0  0  0  0  0  0  0  0  0  0  0
   -4.9481    5.1242  -17.1934 C   0  0  0  0  0  0  0  0  0  0  0  0
   -3.7224    5.2982  -16.3771 C   0  0  0  0  0  0  0  0  0  0  0  0
   -6.7074    4.7851  -19.8155 H   0  0  0  0  0  0  0  0  0  0  0  0
   -8.7080    4.9327  -13.8788 C   0  0  0  0  0  0  0  0  0  0  0  0
   -9.3966    5.8717  -13.8053 O   0  0  0  0  0  0  0  0  0  0  0  0
   -8.2135    3.9683  -12.7838 N   0  0  0  0  0  0  0  0  0  0  0  0
   -7.6971    3.1985  -13.1153 H   0  0  0  0  0  0  0  0  0  0  0  0
   -8.3781    4.0082  -11.4018 C   0  0  0  0  0  0  0  0  0  0  0  0
   -8.1000    5.1920  -10.6927 C   0  0  0  0  0  0  0  0  0  0  0  0
   -8.1968    5.2244   -9.3046 C   0  0  0  0  0  0  0  0  0  0  0  0
   -7.9145    6.3549   -8.6450 F   0  0  0  0  0  0  0  0  0  0  0  0
   -8.5797    4.0793   -8.6508 C   0  0  0  0  0  0  0  0  0  0  0  0
   -8.8733    2.9034   -9.3400 C   0  0  0  0  0  0  0  0  0  0  0  0
   -8.7740    2.8504  -10.7234 C   0  0  0  0  0  0  0  0  0  0  0  0
   -9.2201    1.8296   -8.3649 C   0  0  0  0  0  0  0  0  0  0  0  0
   -9.2098    2.5326   -7.0996 N   0  0  0  0  0  0  0  0  0  0  0  0
   -8.7360    3.8223   -7.2180 C   0  0  0  0  0  0  0  0  0  0  0  0
   -8.4685    4.5914   -6.3149 O   0  0  0  0  0  0  0  0  0  0  0  0
   -9.5077    2.1346   -6.2498 H   0  0  0  0  0  0  0  0  0  0  0  0
   -4.0407    5.4992  -19.6218 C   0  0  0  0  0  0  0  0  0  0  0  0
   -4.7321    7.7965  -20.0078 C   0  0  0  0  0  0  0  0  0  0  0  0
   -3.6417    6.9033  -19.6607 N   0  0  0  0  0  0  0  0  0  0  0  0
   -3.2876    7.1657  -18.7408 H   0  0  0  0  0  0  0  0  0  0  0  0
 30 31  1  0  0  0
 31 29  1  0  0  0
 29  1  1  0  0  0
  1  2  1  0  0  0
  2  3  1  0  0  0
  3  4  2  0  0  0
  4  5  1  0  0  0
  4  6  1  0  0  0
  6  7  2  0  0  0
  7 13  1  0  0  0
 13 14  2  0  0  0
 13 15  1  0  0  0
 15 17  1  0  0  0
 17 18  2  0  0  0
 18 19  1  0  0  0
 19 20  1  0  0  0
 19 21  2  0  0  0
 21 22  1  0  0  0
 22 23  2  0  0  0
 22 24  1  0  0  0
 24 25  1  0  0  0
 25 26  1  0  0  0
 26 27  2  0  0  0
  7  8  1  0  0  0
  8  9  2  0  0  0
  9 10  1  0  0  0
 10 11  1  0  0  0
 10  1  2  0  0  0
  9  3  1  0  0  0
 23 17  1  0  0  0
 26 21  1  0  0  0
 31 32  1  0  0  0
  2 12  1  0  0  0
 15 16  1  0  0  0
 25 28  1  0  0  0
M  END
> <minimizedAffinity>
-9.83718

> <minimizedRMSD>
0.63341

$$$$
P29406


 31 35  0  0  0  0  0  0  0  0999 V2000
   -4.0713    6.1938  -16.1695 C   0  0  0  0  0  0  0  0  0  0  0  0
   -4.8775    5.1617  -16.9230 C   0  0  0  0  0  0  0  0  0  0  0  0
   -6.2790    4.9711  -16.4442 C   0  0  0  0  0  0  0  0  0  0  0  0
   -6.7717    5.0800  -15.1584 C   0  0  0  0  0  0  0  0  0  0  0  0
   -8.1162    4.7827  -14.9391 C   0  0  0  0  0  0  0  0  0  0  0  0
   -8.9355    4.3180  -15.9727 C   0  0  0  0  0  0  0  0  0  0  0  0
   -8.4142    4.2262  -17.2723 C   0  0  0  0  0  0  0  0  0  0  0  0
   -9.4567    3.7063  -18.5279 Cl  0  0  0  0  0  0  0  0  0  0  0  0
   -7.0948    4.6063  -17.5177 C   0  0  0  0  0  0  0  0  0  0  0  0
   -6.3699    4.5910  -18.7457 N   0  0  0  0  0  0  0  0  0  0  0  0
   -5.1353    5.3796  -18.4401 C   0  0  0  0  0  0  0  0  0  0  0  0
   -5.2976    6.8282  -18.8921 C   0  0  0  0  0  0  0  0  0  0  0  0
   -3.8821    7.3176  -19.1476 C   0  0  0  0  0  0  0  0  0  0  0  0
   -3.1259    6.1659  -19.6162 N   0  0  0  0  0  0  0  0  0  0  0  0
   -3.8969    4.9662  -19.2501 C   0  0  0  0  0  0  0  0  0  0  0  0
   -6.6224    4.1623  -19.5952 H   0  0  0  0  0  0  0  0  0  0  0  0
   -2.2094    6.1432  -19.1691 H   0  0  0  0  0  0  0  0  0  0  0  0
   -8.6454    5.1034  -13.5998 C   0  0  0  0  0  0  0  0  0  0  0  0
   -9.1841    6.1289  -13.4599 O   0  0  0  0  0  0  0  0  0  0  0  0
   -8.2848    4.0159  -12.5703 N   0  0  0  0  0  0  0  0  0  0  0  0
   -7.8948    3.1977  -12.9547 H   0  0  0  0  0  0  0  0  0  0  0  0
   -8.4206    4.0014  -11.1842 C   0  0  0  0  0  0  0  0  0  0  0  0
   -8.1286    5.1467  -10.4244 C   0  0  0  0  0  0  0  0  0  0  0  0
   -8.1967    5.1186   -9.0292 C   0  0  0  0  0  0  0  0  0  0  0  0
   -8.5801    3.9399   -8.4182 C   0  0  0  0  0  0  0  0  0  0  0  0
   -8.8857    2.8110   -9.1677 C   0  0  0  0  0  0  0  0  0  0  0  0
   -8.8035    2.8178  -10.5517 C   0  0  0  0  0  0  0  0  0  0  0  0
   -9.2452    1.6919   -8.2517 C   0  0  0  0  0  0  0  0  0  0  0  0
   -9.3164    2.2782   -6.8879 N   0  0  0  0  0  0  0  0  0  0  0  0
   -8.7312    3.6319   -6.9687 C   0  0  0  0  0  0  0  0  0  0  0  0
   -8.7851    1.7054   -6.2322 H   0  0  0  0  0  0  0  0  0  0  0  0
  2  1  1  0  0  0
  2  3  1  0  0  0
  3  4  2  0  0  0
  4  5  1  0  0  0
  5 18  1  0  0  0
 18 19  2  0  0  0
 18 20  1  0  0  0
 20 22  1  0  0  0
 22 23  2  0  0  0
 23 24  1  0  0  0
 24 25  2  0  0  0
 25 26  1  0  0  0
 26 27  2  0  0  0
 26 28  1  0  0  0
 28 29  1  0  0  0
 29 30  1  0  0  0
  5  6  2  0  0  0
  6  7  1  0  0  0
  7  8  1  0  0  0
  7  9  2  0  0  0
  9 10  1  0  0  0
 10 11  1  0  0  0
 11 12  1  0  0  0
 12 13  1  0  0  0
 13 14  1  0  0  0
 14 15  1  0  0  0
 11  2  1  0  0  0
  9  3  1  0  0  0
 15 11  1  0  0  0
 27 22  1  0  0  0
 30 25  1  0  0  0
 20 21  1  0  0  0
 29 31  1  0  0  0
 10 16  1  0  0  0
 14 17  1  0  0  0
M  END
> <minimizedAffinity>
-10.41783

> <minimizedRMSD>
0.64942

$$$$
P29412


 37 42  0  0  0  0  0  0  0  0999 V2000
   -4.7788    5.4601  -15.6662 C   0  0  0  0  0  0  0  0  0  0  0  0
   -5.8737    5.4151  -14.9239 N   0  0  0  0  0  0  0  0  0  0  0  0
   -6.8982    5.0275  -15.7443 C   0  0  0  0  0  0  0  0  0  0  0  0
   -8.2470    4.7420  -15.4454 C   0  0  0  0  0  0  0  0  0  0  0  0
   -9.0969    4.2775  -16.4560 C   0  0  0  0  0  0  0  0  0  0  0  0
   -8.6117    4.1437  -17.7490 C   0  0  0  0  0  0  0  0  0  0  0  0
   -9.4454    3.7498  -18.7222 F   0  0  0  0  0  0  0  0  0  0  0  0
   -7.2889    4.4450  -18.0808 C   0  0  0  0  0  0  0  0  0  0  0  0
   -6.4376    4.8825  -17.0549 C   0  0  0  0  0  0  0  0  0  0  0  0
   -5.0922    5.2150  -16.9924 N   0  0  0  0  0  0  0  0  0  0  0  0
   -1.0591    6.1901  -13.9303 C   0  0  0  0  0  0  0  0  0  0  0  0
   -1.6876    5.0030  -13.6145 C   0  0  0  0  0  0  0  0  0  0  0  0
   -2.9193    4.7352  -14.2032 C   0  0  0  0  0  0  0  0  0  0  0  0
   -3.4527    5.6569  -15.0932 C   0  0  0  0  0  0  0  0  0  0  0  0
   -2.8318    6.8270  -15.3388 N   0  0  0  0  0  0  0  0  0  0  0  0
   -1.6118    7.0916  -14.7695 N   0  0  0  0  0  0  0  0  0  0  0  0
    0.9583    7.3598  -14.0689 C   0  0  0  0  0  0  0  0  0  0  0  0
    0.1658    6.4268  -13.3412 O   0  0  0  0  0  0  0  0  0  0  0  0
   -4.1139    5.0228  -18.0943 C   0  0  0  0  0  0  0  0  0  0  0  0
   -3.5817    6.3113  -18.7686 C   0  0  0  0  0  0  0  0  0  0  0  0
   -3.6793    5.6217  -20.0690 N   0  0  0  0  0  0  0  0  0  0  0  0
   -4.7485    4.7881  -19.4789 C   0  0  0  0  0  0  0  0  0  0  0  0
   -2.8413    5.1077  -20.3411 H   0  0  0  0  0  0  0  0  0  0  0  0
   -8.7738    5.0413  -14.0949 C   0  0  0  0  0  0  0  0  0  0  0  0
   -9.6502    5.8081  -14.0029 O   0  0  0  0  0  0  0  0  0  0  0  0
   -8.0608    4.1979  -13.0104 N   0  0  0  0  0  0  0  0  0  0  0  0
   -7.3942    3.5610  -13.3557 H   0  0  0  0  0  0  0  0  0  0  0  0
   -8.2091    4.1936  -11.6226 C   0  0  0  0  0  0  0  0  0  0  0  0
   -7.9915    5.3552  -10.8597 C   0  0  0  0  0  0  0  0  0  0  0  0
   -8.1504    5.3442   -9.4683 C   0  0  0  0  0  0  0  0  0  0  0  0
   -8.5532    4.1663   -8.8679 C   0  0  0  0  0  0  0  0  0  0  0  0
   -8.7694    3.0151   -9.6206 C   0  0  0  0  0  0  0  0  0  0  0  0
   -8.5894    3.0044  -10.9947 C   0  0  0  0  0  0  0  0  0  0  0  0
   -9.1851    1.9077   -8.7092 C   0  0  0  0  0  0  0  0  0  0  0  0
   -9.5669    2.5798   -7.4366 N   0  0  0  0  0  0  0  0  0  0  0  0
   -8.8277    3.8629   -7.4329 C   0  0  0  0  0  0  0  0  0  0  0  0
   -9.2952    2.0090   -6.6361 H   0  0  0  0  0  0  0  0  0  0  0  0
 17 18  1  0  0  0
 18 11  1  0  0  0
 11 12  2  0  0  0
 12 13  1  0  0  0
 13 14  2  0  0  0
 14  1  1  0  0  0
  1  2  2  0  0  0
  2  3  1  0  0  0
  3  4  2  0  0  0
  4 24  1  0  0  0
 24 25  2  0  0  0
 24 26  1  0  0  0
 26 28  1  0  0  0
 28 29  2  0  0  0
 29 30  1  0  0  0
 30 31  2  0  0  0
 31 32  1  0  0  0
 32 33  2  0  0  0
 32 34  1  0  0  0
 34 35  1  0  0  0
 35 36  1  0  0  0
  4  5  1  0  0  0
  5  6  2  0  0  0
  6  7  1  0  0  0
  6  8  1  0  0  0
  8  9  2  0  0  0
  9 10  1  0  0  0
 10 19  1  0  0  0
 19 20  1  0  0  0
 20 21  1  0  0  0
 21 22  1  0  0  0
 14 15  1  0  0  0
 15 16  2  0  0  0
 16 11  1  0  0  0
 10  1  1  0  0  0
 22 19  1  0  0  0
  9  3  1  0  0  0
 33 28  1  0  0  0
 36 31  1  0  0  0
 26 27  1  0  0  0
 35 37  1  0  0  0
 21 23  1  0  0  0
M  END
> <minimizedAffinity>
-9.01143

> <minimizedRMSD>
1.36753

$$$$
P29415


 39 45  0  0  0  0  0  0  0  0999 V2000
   -1.6674    8.3553  -15.0207 C   0  0  0  0  0  0  0  0  0  0  0  0
   -2.2789    7.7213  -13.9915 C   0  0  0  0  0  0  0  0  0  0  0  0
   -3.4038    6.8248  -14.2494 C   0  0  0  0  0  0  0  0  0  0  0  0
   -3.8553    6.6667  -15.5116 C   0  0  0  0  0  0  0  0  0  0  0  0
   -4.9605    5.8140  -15.7604 C   0  0  0  0  0  0  0  0  0  0  0  0
   -5.9355    5.4244  -14.9781 N   0  0  0  0  0  0  0  0  0  0  0  0
   -6.8975    4.9319  -15.8202 C   0  0  0  0  0  0  0  0  0  0  0  0
   -8.2236    4.5716  -15.5179 C   0  0  0  0  0  0  0  0  0  0  0  0
   -9.0642    4.1205  -16.5327 C   0  0  0  0  0  0  0  0  0  0  0  0
   -8.5945    4.0814  -17.8391 C   0  0  0  0  0  0  0  0  0  0  0  0
   -9.4462    3.7357  -18.8147 F   0  0  0  0  0  0  0  0  0  0  0  0
   -7.2875    4.4544  -18.1809 C   0  0  0  0  0  0  0  0  0  0  0  0
   -6.4425    4.8842  -17.1479 C   0  0  0  0  0  0  0  0  0  0  0  0
   -5.1611    5.3831  -17.0587 N   0  0  0  0  0  0  0  0  0  0  0  0
   -4.1220    5.6606  -18.0858 C   0  0  0  0  0  0  0  0  0  0  0  0
   -2.9686    4.6257  -17.9995 C   0  0  0  0  0  0  0  0  0  0  0  0
   -2.8594    4.6921  -19.4706 N   0  0  0  0  0  0  0  0  0  0  0  0
   -4.2847    5.1274  -19.5132 C   0  0  0  0  0  0  0  0  0  0  0  0
   -3.6447    7.1094  -17.9503 C   0  0  0  0  0  0  0  0  0  0  0  0
   -3.2439    7.3751  -16.5638 N   0  0  0  0  0  0  0  0  0  0  0  0
   -2.0995    8.1142  -16.3227 N   0  0  0  0  0  0  0  0  0  0  0  0
   -2.6779    3.7954  -19.9216 H   0  0  0  0  0  0  0  0  0  0  0  0
   -1.5844    8.4742  -17.0806 H   0  0  0  0  0  0  0  0  0  0  0  0
   -8.7387    4.9067  -14.1739 C   0  0  0  0  0  0  0  0  0  0  0  0
   -9.4830    5.8008  -14.0846 O   0  0  0  0  0  0  0  0  0  0  0  0
   -8.1452    3.9885  -13.0877 N   0  0  0  0  0  0  0  0  0  0  0  0
   -7.5924    3.2492  -13.4299 H   0  0  0  0  0  0  0  0  0  0  0  0
   -8.2634    4.0343  -11.7016 C   0  0  0  0  0  0  0  0  0  0  0  0
   -7.9721    5.2170  -10.9979 C   0  0  0  0  0  0  0  0  0  0  0  0
   -8.0576    5.2637   -9.6036 C   0  0  0  0  0  0  0  0  0  0  0  0
   -8.4571    4.1206   -8.9380 C   0  0  0  0  0  0  0  0  0  0  0  0
   -8.7548    2.9550   -9.6327 C   0  0  0  0  0  0  0  0  0  0  0  0
   -8.6506    2.8865  -11.0130 C   0  0  0  0  0  0  0  0  0  0  0  0
   -9.1508    1.8891   -8.6708 C   0  0  0  0  0  0  0  0  0  0  0  0
   -9.2246    2.5395   -7.3364 N   0  0  0  0  0  0  0  0  0  0  0  0
   -8.6445    3.8917   -7.4787 C   0  0  0  0  0  0  0  0  0  0  0  0
   -8.6914    2.0001   -6.6543 H   0  0  0  0  0  0  0  0  0  0  0  0
   -0.1394    9.5526  -13.6311 C   0  0  0  0  0  0  0  0  0  0  0  0
   -0.6458    9.2680  -14.9287 O   0  0  0  0  0  0  0  0  0  0  0  0
 38 39  1  0  0  0
 39  1  1  0  0  0
  1  2  2  0  0  0
  2  3  1  0  0  0
  3  4  2  0  0  0
  4  5  1  0  0  0
  5  6  2  0  0  0
  6  7  1  0  0  0
  7  8  2  0  0  0
  8 24  1  0  0  0
 24 25  2  0  0  0
 24 26  1  0  0  0
 26 28  1  0  0  0
 28 29  2  0  0  0
 29 30  1  0  0  0
 30 31  2  0  0  0
 31 32  1  0  0  0
 32 33  2  0  0  0
 32 34  1  0  0  0
 34 35  1  0  0  0
 35 36  1  0  0  0
  8  9  1  0  0  0
  9 10  2  0  0  0
 10 11  1  0  0  0
 10 12  1  0  0  0
 12 13  2  0  0  0
 13 14  1  0  0  0
 14 15  1  0  0  0
 15 16  1  0  0  0
 16 17  1  0  0  0
 17 18  1  0  0  0
 15 19  1  0  0  0
 19 20  1  0  0  0
 20 21  1  0  0  0
 21  1  1  0  0  0
 20  4  1  0  0  0
 14  5  1  0  0  0
 18 15  1  0  0  0
 13  7  1  0  0  0
 33 28  1  0  0  0
 36 31  1  0  0  0
 26 27  1  0  0  0
 35 37  1  0  0  0
 17 22  1  0  0  0
 21 23  1  0  0  0
M  END
> <minimizedAffinity>
-9.92595

> <minimizedRMSD>
1.08822

$$$$
P29419


 38 43  0  0  0  0  0  0  0  0999 V2000
   -4.6754    5.6073  -16.8755 C   0  0  0  0  0  0  0  0  0  0  0  0
   -5.3297    5.3713  -15.6634 C   0  0  0  0  0  0  0  0  0  0  0  0
   -4.7283    5.4454  -14.2969 C   0  0  0  0  0  0  0  0  0  0  0  0
   -6.6860    5.0053  -15.9534 C   0  0  0  0  0  0  0  0  0  0  0  0
   -7.8478    4.7394  -15.1831 C   0  0  0  0  0  0  0  0  0  0  0  0
   -8.9992    4.2321  -15.7959 C   0  0  0  0  0  0  0  0  0  0  0  0
   -9.0131    4.0309  -17.1650 C   0  0  0  0  0  0  0  0  0  0  0  0
  -10.1299    3.5708  -17.7425 F   0  0  0  0  0  0  0  0  0  0  0  0
   -7.9270    4.3723  -17.9661 C   0  0  0  0  0  0  0  0  0  0  0  0
   -6.7780    4.8867  -17.3409 C   0  0  0  0  0  0  0  0  0  0  0  0
   -5.6297    5.4550  -17.8669 N   0  0  0  0  0  0  0  0  0  0  0  0
   -0.7270    6.6760  -17.6704 C   0  0  0  0  0  0  0  0  0  0  0  0
   -1.4632    7.5449  -16.8925 C   0  0  0  0  0  0  0  0  0  0  0  0
   -2.7815    7.2104  -16.6017 C   0  0  0  0  0  0  0  0  0  0  0  0
   -3.2943    6.0193  -17.0978 C   0  0  0  0  0  0  0  0  0  0  0  0
   -2.5399    5.1857  -17.8369 N   0  0  0  0  0  0  0  0  0  0  0  0
   -1.2478    5.5250  -18.1412 N   0  0  0  0  0  0  0  0  0  0  0  0
    1.3383    5.9583  -18.4841 C   0  0  0  0  0  0  0  0  0  0  0  0
    0.5700    7.0401  -17.9647 O   0  0  0  0  0  0  0  0  0  0  0  0
   -5.6801    6.1002  -19.2129 C   0  0  0  0  0  0  0  0  0  0  0  0
   -4.5560    5.7672  -20.1777 C   0  0  0  0  0  0  0  0  0  0  0  0
   -4.0240    7.1385  -20.0563 N   0  0  0  0  0  0  0  0  0  0  0  0
   -5.2273    7.5582  -19.3219 C   0  0  0  0  0  0  0  0  0  0  0  0
   -3.8973    7.6141  -20.9497 H   0  0  0  0  0  0  0  0  0  0  0  0
   -7.9207    5.2015  -13.7762 C   0  0  0  0  0  0  0  0  0  0  0  0
   -7.8240    6.3490  -13.5798 O   0  0  0  0  0  0  0  0  0  0  0  0
   -8.1931    4.0373  -12.7976 N   0  0  0  0  0  0  0  0  0  0  0  0
   -8.3057    3.1575  -13.2248 H   0  0  0  0  0  0  0  0  0  0  0  0
   -8.3054    4.0299  -11.4088 C   0  0  0  0  0  0  0  0  0  0  0  0
   -8.0417    5.1854  -10.6527 C   0  0  0  0  0  0  0  0  0  0  0  0
   -8.1719    5.1793   -9.2596 C   0  0  0  0  0  0  0  0  0  0  0  0
   -8.5679    4.0058   -8.6481 C   0  0  0  0  0  0  0  0  0  0  0  0
   -8.8135    2.8560   -9.3929 C   0  0  0  0  0  0  0  0  0  0  0  0
   -8.6912    2.8487  -10.7723 C   0  0  0  0  0  0  0  0  0  0  0  0
   -9.1682    1.7438   -8.4626 C   0  0  0  0  0  0  0  0  0  0  0  0
   -9.5114    2.4108   -7.1793 N   0  0  0  0  0  0  0  0  0  0  0  0
   -8.7952    3.7055   -7.2041 C   0  0  0  0  0  0  0  0  0  0  0  0
   -9.1997    1.8460   -6.3892 H   0  0  0  0  0  0  0  0  0  0  0  0
 18 19  1  0  0  0
 19 12  1  0  0  0
 12 13  2  0  0  0
 13 14  1  0  0  0
 14 15  2  0  0  0
 15  1  1  0  0  0
  1  2  2  0  0  0
  2  3  1  0  0  0
  2  4  1  0  0  0
  4  5  2  0  0  0
  5 25  1  0  0  0
 25 26  2  0  0  0
 25 27  1  0  0  0
 27 29  1  0  0  0
 29 30  2  0  0  0
 30 31  1  0  0  0
 31 32  2  0  0  0
 32 33  1  0  0  0
 33 34  2  0  0  0
 33 35  1  0  0  0
 35 36  1  0  0  0
 36 37  1  0  0  0
  5  6  1  0  0  0
  6  7  2  0  0  0
  7  8  1  0  0  0
  7  9  1  0  0  0
  9 10  2  0  0  0
 10 11  1  0  0  0
 11 20  1  0  0  0
 20 21  1  0  0  0
 21 22  1  0  0  0
 22 23  1  0  0  0
 15 16  1  0  0  0
 16 17  2  0  0  0
 17 12  1  0  0  0
 11  1  1  0  0  0
 23 20  1  0  0  0
 10  4  1  0  0  0
 34 29  1  0  0  0
 37 32  1  0  0  0
 27 28  1  0  0  0
 36 38  1  0  0  0
 22 24  1  0  0  0
M  END
> <minimizedAffinity>
-9.04546

> <minimizedRMSD>
0.34246

$$$$
P29424


 38 43  0  0  0  0  0  0  0  0999 V2000
   -4.8233    5.7090  -15.7193 C   0  0  0  0  0  0  0  0  0  0  0  0
   -5.8591    5.4282  -14.9490 N   0  0  0  0  0  0  0  0  0  0  0  0
   -6.8532    4.9714  -15.7647 C   0  0  0  0  0  0  0  0  0  0  0  0
   -8.1700    4.5927  -15.4576 C   0  0  0  0  0  0  0  0  0  0  0  0
   -8.9967    4.0988  -16.4696 C   0  0  0  0  0  0  0  0  0  0  0  0
   -8.5302    4.0499  -17.7757 C   0  0  0  0  0  0  0  0  0  0  0  0
   -9.3533    3.6324  -18.7442 F   0  0  0  0  0  0  0  0  0  0  0  0
   -7.2522    4.4869  -18.1239 C   0  0  0  0  0  0  0  0  0  0  0  0
   -6.4240    4.9432  -17.0880 C   0  0  0  0  0  0  0  0  0  0  0  0
   -5.1651    5.5240  -17.0476 N   0  0  0  0  0  0  0  0  0  0  0  0
   -1.1566    6.8900  -14.1310 C   0  0  0  0  0  0  0  0  0  0  0  0
   -2.1412    7.8555  -14.1982 C   0  0  0  0  0  0  0  0  0  0  0  0
   -3.3849    7.5165  -14.7413 C   0  0  0  0  0  0  0  0  0  0  0  0
   -4.4826    8.5387  -14.7908 C   0  0  0  0  0  0  0  0  0  0  0  0
   -3.5628    6.2016  -15.1801 C   0  0  0  0  0  0  0  0  0  0  0  0
   -2.5840    5.2762  -15.0700 N   0  0  0  0  0  0  0  0  0  0  0  0
   -1.3603    5.6316  -14.5633 N   0  0  0  0  0  0  0  0  0  0  0  0
    1.0190    6.2132  -13.6211 C   0  0  0  0  0  0  0  0  0  0  0  0
    0.0608    7.2675  -13.6035 O   0  0  0  0  0  0  0  0  0  0  0  0
   -4.6215    6.2346  -18.2418 C   0  0  0  0  0  0  0  0  0  0  0  0
   -3.1918    6.8173  -18.2134 C   0  0  0  0  0  0  0  0  0  0  0  0
   -2.7042    5.4634  -18.5449 N   0  0  0  0  0  0  0  0  0  0  0  0
   -3.9933    5.2600  -19.2536 C   0  0  0  0  0  0  0  0  0  0  0  0
   -2.5573    4.8531  -17.7409 H   0  0  0  0  0  0  0  0  0  0  0  0
   -8.7107    4.9089  -14.1203 C   0  0  0  0  0  0  0  0  0  0  0  0
   -9.5939    5.6695  -14.0501 O   0  0  0  0  0  0  0  0  0  0  0  0
   -8.0019    4.0936  -13.0172 N   0  0  0  0  0  0  0  0  0  0  0  0
   -7.3271    3.4562  -13.3451 H   0  0  0  0  0  0  0  0  0  0  0  0
   -8.1619    4.1131  -11.6339 C   0  0  0  0  0  0  0  0  0  0  0  0
   -7.9449    5.2889  -10.8961 C   0  0  0  0  0  0  0  0  0  0  0  0
   -8.1290    5.3110   -9.5102 C   0  0  0  0  0  0  0  0  0  0  0  0
   -8.5522    4.1507   -8.8918 C   0  0  0  0  0  0  0  0  0  0  0  0
   -8.7580    2.9823   -9.6197 C   0  0  0  0  0  0  0  0  0  0  0  0
   -8.5562    2.9398  -10.9882 C   0  0  0  0  0  0  0  0  0  0  0  0
   -9.1828    1.8992   -8.6848 C   0  0  0  0  0  0  0  0  0  0  0  0
   -9.6101    2.6088   -7.4488 N   0  0  0  0  0  0  0  0  0  0  0  0
   -8.8613    3.8857   -7.4563 C   0  0  0  0  0  0  0  0  0  0  0  0
   -9.3740    2.0604   -6.6218 H   0  0  0  0  0  0  0  0  0  0  0  0
 18 19  1  0  0  0
 19 11  1  0  0  0
 11 12  2  0  0  0
 12 13  1  0  0  0
 13 14  1  0  0  0
 13 15  2  0  0  0
 15  1  1  0  0  0
  1  2  2  0  0  0
  2  3  1  0  0  0
  3  4  2  0  0  0
  4 25  1  0  0  0
 25 26  2  0  0  0
 25 27  1  0  0  0
 27 29  1  0  0  0
 29 30  2  0  0  0
 30 31  1  0  0  0
 31 32  2  0  0  0
 32 33  1  0  0  0
 33 34  2  0  0  0
 33 35  1  0  0  0
 35 36  1  0  0  0
 36 37  1  0  0  0
  4  5  1  0  0  0
  5  6  2  0  0  0
  6  7  1  0  0  0
  6  8  1  0  0  0
  8  9  2  0  0  0
  9 10  1  0  0  0
 10 20  1  0  0  0
 20 21  1  0  0  0
 21 22  1  0  0  0
 22 23  1  0  0  0
 15 16  1  0  0  0
 16 17  2  0  0  0
 17 11  1  0  0  0
 10  1  1  0  0  0
 23 20  1  0  0  0
  9  3  1  0  0  0
 34 29  1  0  0  0
 37 32  1  0  0  0
 27 28  1  0  0  0
 36 38  1  0  0  0
 22 24  1  0  0  0
M  END
> <minimizedAffinity>
-8.78661

> <minimizedRMSD>
1.41471

$$$$
P29426


 49 56  0  0  0  0  0  0  0  0999 V2000
   -6.9008    4.7076  -12.7320 C   0  0  0  0  0  0  0  0  0  0  0  0
   -5.7182    4.9760  -12.3637 N   0  0  0  0  0  0  0  0  0  0  0  0
   -8.4063    4.3155  -16.2203 C   0  0  0  0  0  0  0  0  0  0  0  0
   -8.2930    4.3354  -14.8324 C   0  0  0  0  0  0  0  0  0  0  0  0
   -7.0843    4.7189  -14.2341 C   0  0  0  0  0  0  0  0  0  0  0  0
   -5.9980    5.0862  -15.0690 C   0  0  0  0  0  0  0  0  0  0  0  0
   -4.7032    5.4060  -14.7394 N   0  0  0  0  0  0  0  0  0  0  0  0
   -4.0342    5.5722  -15.8670 C   0  0  0  0  0  0  0  0  0  0  0  0
   -4.9244    5.5438  -16.9304 N   0  0  0  0  0  0  0  0  0  0  0  0
   -6.1546    5.1090  -16.4568 C   0  0  0  0  0  0  0  0  0  0  0  0
   -7.3582    4.7083  -17.0619 C   0  0  0  0  0  0  0  0  0  0  0  0
   -2.5779    5.7375  -15.9037 C   0  0  0  0  0  0  0  0  0  0  0  0
   -1.8153    5.6903  -14.7421 C   0  0  0  0  0  0  0  0  0  0  0  0
   -0.4321    5.8246  -14.8301 C   0  0  0  0  0  0  0  0  0  0  0  0
    0.1284    5.9954  -16.0785 C   0  0  0  0  0  0  0  0  0  0  0  0
   -0.6261    6.0420  -17.1942 N   0  0  0  0  0  0  0  0  0  0  0  0
   -1.9887    5.8956  -17.1016 N   0  0  0  0  0  0  0  0  0  0  0  0
    1.4994    6.1197  -16.1447 O   0  0  0  0  0  0  0  0  0  0  0  0
    2.0149    5.8605  -17.4480 C   0  0  0  0  0  0  0  0  0  0  0  0
   -4.5759    5.8363  -18.3434 C   0  0  0  0  0  0  0  0  0  0  0  0
   -5.5846    6.7901  -19.0563 C   0  0  0  0  0  0  0  0  0  0  0  0
   -5.4257    5.9583  -20.2679 N   0  0  0  0  0  0  0  0  0  0  0  0
   -5.0997    4.8222  -19.3806 C   0  0  0  0  0  0  0  0  0  0  0  0
   -4.6655    6.2471  -20.8836 H   0  0  0  0  0  0  0  0  0  0  0  0
   -9.7524    4.2706  -18.0895 C   0  0  0  0  0  0  0  0  0  0  0  0
   -9.5321    3.7648  -16.7772 O   0  0  0  0  0  0  0  0  0  0  0  0
   -8.1240    4.4525  -11.9538 N   0  0  0  0  0  0  0  0  0  0  0  0
   -8.9334    4.3252  -12.4997 H   0  0  0  0  0  0  0  0  0  0  0  0
   -8.3378    4.3592  -10.5749 C   0  0  0  0  0  0  0  0  0  0  0  0
   -8.2130    5.4236   -9.6673 C   0  0  0  0  0  0  0  0  0  0  0  0
   -8.3611    5.2466   -8.2847 C   0  0  0  0  0  0  0  0  0  0  0  0
   -8.7340    4.0026   -7.8227 C   0  0  0  0  0  0  0  0  0  0  0  0
   -8.9420    2.9528   -8.7055 C   0  0  0  0  0  0  0  0  0  0  0  0
   -8.7176    3.1035  -10.0646 C   0  0  0  0  0  0  0  0  0  0  0  0
   -9.4062    1.7576   -7.9403 C   0  0  0  0  0  0  0  0  0  0  0  0
   -9.7849    2.2821   -6.5993 N   0  0  0  0  0  0  0  0  0  0  0  0
   -9.0007    3.5268   -6.4348 C   0  0  0  0  0  0  0  0  0  0  0  0
   -9.5451    1.6093   -5.8712 H   0  0  0  0  0  0  0  0  0  0  0  0
   -5.4204    4.6789  -11.0384 O   0  0  0  0  0  0  0  0  0  0  0  0
   -4.3191    3.8319  -10.9761 C   0  0  0  0  0  0  0  0  0  0  0  0
   -3.0481    4.2138  -11.2101 C   0  0  0  0  0  0  0  0  0  0  0  0
   -1.9996    3.1586  -11.1268 C   0  0  0  0  0  0  0  0  0  0  0  0
   -0.5774    3.5820  -11.4009 C   0  0  0  0  0  0  0  0  0  0  0  0
   -2.2168    1.9082  -10.8494 N   0  0  0  0  0  0  0  0  0  0  0  0
   -3.5142    1.5553  -10.6135 C   0  0  0  0  0  0  0  0  0  0  0  0
   -4.0002    0.3709  -10.3096 N   0  0  0  0  0  0  0  0  0  0  0  0
   -5.3328    0.5993  -10.1855 C   0  0  0  0  0  0  0  0  0  0  0  0
   -5.7324    1.8519  -10.3846 N   0  0  0  0  0  0  0  0  0  0  0  0
   -4.5640    2.4871  -10.6726 N   0  0  0  0  0  0  0  0  0  0  0  0
 25 26  1  0  0  0
 26  3  1  0  0  0
  3  4  2  0  0  0
  4  5  1  0  0  0
  5  1  1  0  0  0
  1  2  2  0  0  0
  2 39  1  0  0  0
 39 40  1  0  0  0
 40 41  2  0  0  0
 41 42  1  0  0  0
 42 43  1  0  0  0
 42 44  2  0  0  0
 44 45  1  0  0  0
 45 46  2  0  0  0
 46 47  1  0  0  0
 47 48  2  0  0  0
 48 49  1  0  0  0
  1 27  1  0  0  0
 27 29  1  0  0  0
 29 30  2  0  0  0
 30 31  1  0  0  0
 31 32  2  0  0  0
 32 33  1  0  0  0
 33 34  2  0  0  0
 33 35  1  0  0  0
 35 36  1  0  0  0
 36 37  1  0  0  0
  5  6  2  0  0  0
  6  7  1  0  0  0
  7  8  2  0  0  0
  8 12  1  0  0  0
 12 13  2  0  0  0
 13 14  1  0  0  0
 14 15  2  0  0  0
 15 18  1  0  0  0
 18 19  1  0  0  0
 15 16  1  0  0  0
 16 17  2  0  0  0
  8  9  1  0  0  0
  9 20  1  0  0  0
 20 21  1  0  0  0
 21 22  1  0  0  0
 22 23  1  0  0  0
  9 10  1  0  0  0
 10 11  2  0  0  0
 11  3  1  0  0  0
 49 40  1  0  0  0
 34 29  1  0  0  0
 10  6  1  0  0  0
 49 45  1  0  0  0
 37 32  1  0  0  0
 17 12  1  0  0  0
 23 20  1  0  0  0
 27 28  1  0  0  0
 36 38  1  0  0  0
 22 24  1  0  0  0
M  END
> <minimizedAffinity>
-9.32385

> <minimizedRMSD>
3.15700

$$$$
P29429


 46 51  0  0  0  0  0  0  0  0999 V2000
   -4.5493    5.5677  -16.6473 C   0  0  0  0  0  0  0  0  0  0  0  0
   -5.1687    5.3395  -15.5015 N   0  0  0  0  0  0  0  0  0  0  0  0
   -6.4304    4.9317  -15.8122 C   0  0  0  0  0  0  0  0  0  0  0  0
   -7.4985    4.7054  -14.9102 C   0  0  0  0  0  0  0  0  0  0  0  0
   -8.7367    4.3740  -15.4850 C   0  0  0  0  0  0  0  0  0  0  0  0
   -8.8634    4.1586  -16.8424 C   0  0  0  0  0  0  0  0  0  0  0  0
  -10.0618    3.7977  -17.3196 F   0  0  0  0  0  0  0  0  0  0  0  0
   -7.7810    4.2771  -17.7081 C   0  0  0  0  0  0  0  0  0  0  0  0
   -8.0271    3.7267  -19.2929 Cl  0  0  0  0  0  0  0  0  0  0  0  0
   -6.5674    4.7498  -17.1890 C   0  0  0  0  0  0  0  0  0  0  0  0
   -5.3208    5.0959  -17.7030 N   0  0  0  0  0  0  0  0  0  0  0  0
   -0.9724    7.6954  -16.7303 C   0  0  0  0  0  0  0  0  0  0  0  0
   -0.9401    6.4313  -16.1773 C   0  0  0  0  0  0  0  0  0  0  0  0
   -2.1171    5.6910  -16.1557 C   0  0  0  0  0  0  0  0  0  0  0  0
   -3.2626    6.2512  -16.6975 C   0  0  0  0  0  0  0  0  0  0  0  0
   -3.2689    7.5082  -17.1938 N   0  0  0  0  0  0  0  0  0  0  0  0
   -2.1078    8.2317  -17.2316 N   0  0  0  0  0  0  0  0  0  0  0  0
    0.0908    9.6771  -17.3701 C   0  0  0  0  0  0  0  0  0  0  0  0
    0.2096    8.4054  -16.7408 O   0  0  0  0  0  0  0  0  0  0  0  0
   -4.9527    4.9499  -19.1416 C   0  0  0  0  0  0  0  0  0  0  0  0
   -4.9360    6.2568  -19.9329 C   0  0  0  0  0  0  0  0  0  0  0  0
   -3.4764    6.1524  -20.0968 N   0  0  0  0  0  0  0  0  0  0  0  0
   -3.4767    4.7998  -19.5179 C   0  0  0  0  0  0  0  0  0  0  0  0
   -2.9506    6.8344  -19.5501 H   0  0  0  0  0  0  0  0  0  0  0  0
   -7.2936    4.8039  -13.3995 C   0  0  0  0  0  0  0  0  0  0  0  0
   -8.5226    4.3831  -12.6753 N   0  0  0  0  0  0  0  0  0  0  0  0
   -9.3564    4.1827  -13.1590 H   0  0  0  0  0  0  0  0  0  0  0  0
   -8.4502    4.2815  -11.2696 C   0  0  0  0  0  0  0  0  0  0  0  0
   -8.1974    5.4007  -10.4537 C   0  0  0  0  0  0  0  0  0  0  0  0
   -8.1991    5.3055   -9.0550 C   0  0  0  0  0  0  0  0  0  0  0  0
   -8.5049    4.0866   -8.4787 C   0  0  0  0  0  0  0  0  0  0  0  0
   -8.7767    2.9778   -9.2764 C   0  0  0  0  0  0  0  0  0  0  0  0
   -8.7317    3.0495  -10.6587 C   0  0  0  0  0  0  0  0  0  0  0  0
   -9.1308    1.8145   -8.4082 C   0  0  0  0  0  0  0  0  0  0  0  0
   -9.3969    2.4093   -7.0717 N   0  0  0  0  0  0  0  0  0  0  0  0
   -8.6208    3.6742   -7.0408 C   0  0  0  0  0  0  0  0  0  0  0  0
   -9.2689    4.6943   -6.1122 C   0  0  0  0  0  0  0  0  0  0  0  0
   -9.0835    1.7803   -6.3325 H   0  0  0  0  0  0  0  0  0  0  0  0
   -6.8257    6.2251  -13.0386 C   0  0  0  0  0  0  0  0  0  0  0  0
   -7.5015    7.2425  -13.2446 O   0  0  0  0  0  0  0  0  0  0  0  0
   -5.4530    6.3160  -12.3800 C   0  0  0  0  0  0  0  0  0  0  0  0
   -4.6821    7.3655  -13.0039 N   0  0  0  0  0  0  0  0  0  0  0  0
   -3.2704    7.5424  -13.1309 C   0  0  0  0  0  0  0  0  0  0  0  0
   -2.9942    8.8665  -13.8134 C   0  0  0  0  0  0  0  0  0  0  0  0
   -2.3625    6.8282  -12.8223 O   0  0  0  0  0  0  0  0  0  0  0  0
   -5.2215    8.0813  -13.4113 H   0  0  0  0  0  0  0  0  0  0  0  0
 18 19  1  0  0  0
 19 12  1  0  0  0
 12 13  2  0  0  0
 13 14  1  0  0  0
 14 15  2  0  0  0
 15  1  1  0  0  0
  1  2  2  0  0  0
  2  3  1  0  0  0
  3  4  2  0  0  0
  4 25  1  0  0  0
 25 26  1  0  0  0
 26 28  1  0  0  0
 28 29  2  0  0  0
 29 30  1  0  0  0
 30 31  2  0  0  0
 31 32  1  0  0  0
 32 33  2  0  0  0
 32 34  1  0  0  0
 34 35  1  0  0  0
 35 36  1  0  0  0
 36 37  1  0  0  0
 25 39  1  0  0  0
 39 40  2  0  0  0
 39 41  1  0  0  0
 41 42  1  0  0  0
 42 43  1  0  0  0
 43 44  1  0  0  0
 43 45  2  0  0  0
  4  5  1  0  0  0
  5  6  2  0  0  0
  6  7  1  0  0  0
  6  8  1  0  0  0
  8  9  1  0  0  0
  8 10  2  0  0  0
 10 11  1  0  0  0
 11 20  1  0  0  0
 20 21  1  0  0  0
 21 22  1  0  0  0
 22 23  1  0  0  0
 15 16  1  0  0  0
 16 17  2  0  0  0
 17 12  1  0  0  0
 11  1  1  0  0  0
 23 20  1  0  0  0
 10  3  1  0  0  0
 33 28  1  0  0  0
 36 31  1  0  0  0
 26 27  1  0  0  0
 35 38  1  0  0  0
 42 46  1  0  0  0
 22 24  1  0  0  0
M  END
> <minimizedAffinity>
-7.39082

> <minimizedRMSD>
0.40402

$$$$
P29437


 48 54  0  0  0  0  0  0  0  0999 V2000
   -7.7014    5.0518  -13.7821 C   0  0  0  0  0  0  0  0  0  0  0  0
   -6.3881    5.3796  -13.3222 O   0  0  0  0  0  0  0  0  0  0  0  0
   -5.7963    4.6253  -13.4697 H   0  0  0  0  0  0  0  0  0  0  0  0
   -4.6607    5.7141  -16.8938 C   0  0  0  0  0  0  0  0  0  0  0  0
   -5.3505    5.5277  -15.7779 N   0  0  0  0  0  0  0  0  0  0  0  0
   -6.5623    4.9946  -16.1356 C   0  0  0  0  0  0  0  0  0  0  0  0
   -7.6667    4.7085  -15.2917 C   0  0  0  0  0  0  0  0  0  0  0  0
   -8.7911    4.1530  -15.9506 C   0  0  0  0  0  0  0  0  0  0  0  0
   -8.8206    3.9527  -17.3301 C   0  0  0  0  0  0  0  0  0  0  0  0
   -9.9451    3.5028  -17.9038 F   0  0  0  0  0  0  0  0  0  0  0  0
   -7.7273    4.2429  -18.1378 C   0  0  0  0  0  0  0  0  0  0  0  0
   -6.5998    4.7767  -17.5093 C   0  0  0  0  0  0  0  0  0  0  0  0
   -5.3640    5.2018  -17.9727 N   0  0  0  0  0  0  0  0  0  0  0  0
   -1.0341    7.7561  -16.9282 C   0  0  0  0  0  0  0  0  0  0  0  0
   -1.0380    6.4874  -16.3824 C   0  0  0  0  0  0  0  0  0  0  0  0
   -2.2364    5.7825  -16.3619 C   0  0  0  0  0  0  0  0  0  0  0  0
   -3.3647    6.3802  -16.9022 C   0  0  0  0  0  0  0  0  0  0  0  0
   -3.3345    7.6384  -17.3930 N   0  0  0  0  0  0  0  0  0  0  0  0
   -2.1535    8.3287  -17.4248 N   0  0  0  0  0  0  0  0  0  0  0  0
    0.0857    9.7140  -17.5454 C   0  0  0  0  0  0  0  0  0  0  0  0
    0.1708    8.4265  -16.9425 O   0  0  0  0  0  0  0  0  0  0  0  0
   -4.9578    5.0435  -19.3988 C   0  0  0  0  0  0  0  0  0  0  0  0
   -4.8745    6.3497  -20.1876 C   0  0  0  0  0  0  0  0  0  0  0  0
   -3.4237    6.1759  -20.3556 N   0  0  0  0  0  0  0  0  0  0  0  0
   -3.4667    4.8588  -19.7041 C   0  0  0  0  0  0  0  0  0  0  0  0
   -2.8662    6.8656  -19.8517 H   0  0  0  0  0  0  0  0  0  0  0  0
   -8.6865    6.3139  -13.5340 C   0  0  0  0  0  0  0  0  0  0  0  0
   -9.8313    6.2857  -13.7809 O   0  0  0  0  0  0  0  0  0  0  0  0
   -7.8143    7.4491  -12.9140 N   0  0  0  0  0  0  0  0  0  0  0  0
   -6.8500    7.2544  -12.8762 H   0  0  0  0  0  0  0  0  0  0  0  0
   -8.1924    8.7404  -12.3860 C   0  0  0  0  0  0  0  0  0  0  0  0
   -9.2246    8.5809  -11.2709 C   0  0  0  0  0  0  0  0  0  0  0  0
   -9.5517    9.9316  -10.6561 C   0  0  0  0  0  0  0  0  0  0  0  0
   -8.3622   10.5670  -10.1822 O   0  0  0  0  0  0  0  0  0  0  0  0
   -7.4358   10.8238  -11.2362 C   0  0  0  0  0  0  0  0  0  0  0  0
   -6.9826    9.5210  -11.8793 C   0  0  0  0  0  0  0  0  0  0  0  0
   -8.2025    3.9042  -13.0066 N   0  0  0  0  0  0  0  0  0  0  0  0
   -8.4425    3.0712  -13.4732 H   0  0  0  0  0  0  0  0  0  0  0  0
   -8.3438    3.9813  -11.6033 C   0  0  0  0  0  0  0  0  0  0  0  0
   -7.9821    5.1089  -10.8373 C   0  0  0  0  0  0  0  0  0  0  0  0
   -8.1234    5.1626   -9.4467 C   0  0  0  0  0  0  0  0  0  0  0  0
   -8.5545    4.0325   -8.7980 C   0  0  0  0  0  0  0  0  0  0  0  0
   -8.8381    2.8765   -9.5078 C   0  0  0  0  0  0  0  0  0  0  0  0
   -8.7383    2.8322  -10.8964 C   0  0  0  0  0  0  0  0  0  0  0  0
   -9.2493    1.8175   -8.5409 C   0  0  0  0  0  0  0  0  0  0  0  0
   -8.9522    2.3477   -7.1844 N   0  0  0  0  0  0  0  0  0  0  0  0
   -8.7720    3.8045   -7.3439 C   0  0  0  0  0  0  0  0  0  0  0  0
   -8.1000    1.9238   -6.8176 H   0  0  0  0  0  0  0  0  0  0  0  0
 20 21  1  0  0  0
 21 14  1  0  0  0
 14 15  2  0  0  0
 15 16  1  0  0  0
 16 17  2  0  0  0
 17  4  1  0  0  0
  4  5  2  0  0  0
  5  6  1  0  0  0
  6  7  2  0  0  0
  7  1  1  0  0  0
  1  2  1  0  0  0
  1 37  1  0  0  0
 37 39  1  0  0  0
 39 40  2  0  0  0
 40 41  1  0  0  0
 41 42  2  0  0  0
 42 43  1  0  0  0
 43 44  2  0  0  0
 43 45  1  0  0  0
 45 46  1  0  0  0
 46 47  1  0  0  0
  1 27  1  0  0  0
 27 28  2  0  0  0
 27 29  1  0  0  0
 29 31  1  0  0  0
 31 32  1  0  0  0
 32 33  1  0  0  0
 33 34  1  0  0  0
 34 35  1  0  0  0
 35 36  1  0  0  0
  7  8  1  0  0  0
  8  9  2  0  0  0
  9 10  1  0  0  0
  9 11  1  0  0  0
 11 12  2  0  0  0
 12 13  1  0  0  0
 13 22  1  0  0  0
 22 23  1  0  0  0
 23 24  1  0  0  0
 24 25  1  0  0  0
 17 18  1  0  0  0
 18 19  2  0  0  0
 19 14  1  0  0  0
 13  4  1  0  0  0
 25 22  1  0  0  0
 12  6  1  0  0  0
 44 39  1  0  0  0
 36 31  1  0  0  0
 47 42  1  0  0  0
  2  3  1  0  0  0
 37 38  1  0  0  0
 46 48  1  0  0  0
 29 30  1  0  0  0
 24 26  1  0  0  0
M  END
> <minimizedAffinity>
-9.12228

> <minimizedRMSD>
0.59553

$$$$
P29438


 41 45  0  0  0  0  0  0  0  0999 V2000
   -6.2770    4.9022  -16.9477 C   0  0  0  0  0  0  0  0  0  0  0  0
   -7.1251    4.4676  -17.9784 C   0  0  0  0  0  0  0  0  0  0  0  0
   -8.4678    4.1596  -17.7291 C   0  0  0  0  0  0  0  0  0  0  0  0
   -9.2594    3.7953  -18.7466 F   0  0  0  0  0  0  0  0  0  0  0  0
   -9.0181    4.2599  -16.4604 C   0  0  0  0  0  0  0  0  0  0  0  0
   -8.2104    4.7089  -15.4281 C   0  0  0  0  0  0  0  0  0  0  0  0
   -6.8654    5.0293  -15.6729 C   0  0  0  0  0  0  0  0  0  0  0  0
   -8.7525    5.0037  -14.0770 C   0  0  0  0  0  0  0  0  0  0  0  0
   -9.5473    5.8550  -13.9901 O   0  0  0  0  0  0  0  0  0  0  0  0
   -8.1304    4.0991  -12.9893 N   0  0  0  0  0  0  0  0  0  0  0  0
   -7.5307    3.3968  -13.3306 H   0  0  0  0  0  0  0  0  0  0  0  0
   -8.2801    4.1157  -11.6035 C   0  0  0  0  0  0  0  0  0  0  0  0
   -8.0551    5.2908  -10.8670 C   0  0  0  0  0  0  0  0  0  0  0  0
   -8.1982    5.3056   -9.4758 C   0  0  0  0  0  0  0  0  0  0  0  0
   -8.5682    4.1335   -8.8437 C   0  0  0  0  0  0  0  0  0  0  0  0
   -8.7838    2.9680   -9.5677 C   0  0  0  0  0  0  0  0  0  0  0  0
   -8.6434    2.9376  -10.9472 C   0  0  0  0  0  0  0  0  0  0  0  0
   -9.1341    1.8614   -8.6317 C   0  0  0  0  0  0  0  0  0  0  0  0
   -9.3213    2.4922   -7.2986 N   0  0  0  0  0  0  0  0  0  0  0  0
   -8.7956    3.8696   -7.3950 C   0  0  0  0  0  0  0  0  0  0  0  0
   -8.8076    1.9700   -6.5888 H   0  0  0  0  0  0  0  0  0  0  0  0
   -4.8891    5.2501  -17.1786 N   0  0  0  0  0  0  0  0  0  0  0  0
   -3.5729    5.4721  -15.0156 C   0  0  0  0  0  0  0  0  0  0  0  0
   -3.0144    6.6135  -14.3841 C   0  0  0  0  0  0  0  0  0  0  0  0
   -3.3288    7.7098  -15.1546 C   0  0  0  0  0  0  0  0  0  0  0  0
   -4.0600    7.2635  -16.2211 N   0  0  0  0  0  0  0  0  0  0  0  0
   -4.1923    5.8950  -16.1800 C   0  0  0  0  0  0  0  0  0  0  0  0
   -4.4393    7.8421  -16.9215 H   0  0  0  0  0  0  0  0  0  0  0  0
   -3.5290    4.1947  -14.5685 N   0  0  0  0  0  0  0  0  0  0  0  0
   -3.6158    3.4436  -15.1991 H   0  0  0  0  0  0  0  0  0  0  0  0
   -3.3569    3.9509  -13.1858 N   0  0  0  0  0  0  0  0  0  0  0  0
   -2.7715    3.1252  -13.0601 H   0  0  0  0  0  0  0  0  0  0  0  0
   -4.6567    3.7254  -12.5421 C   0  0  0  0  0  0  0  0  0  0  0  0
   -4.5344    4.1753  -11.0875 C   0  0  0  0  0  0  0  0  0  0  0  0
   -5.1763    1.7602  -11.3159 C   0  0  0  0  0  0  0  0  0  0  0  0
   -4.9601    2.3331  -12.6020 O   0  0  0  0  0  0  0  0  0  0  0  0
   -4.2135    4.9291  -18.4599 C   0  0  0  0  0  0  0  0  0  0  0  0
   -2.6826    5.1398  -18.5091 C   0  0  0  0  0  0  0  0  0  0  0  0
   -2.8695    6.3956  -19.2685 N   0  0  0  0  0  0  0  0  0  0  0  0
   -4.2727    6.0212  -19.5415 C   0  0  0  0  0  0  0  0  0  0  0  0
   -2.2878    6.4680  -20.1033 H   0  0  0  0  0  0  0  0  0  0  0  0
 35 36  1  0  0  0
 36 33  1  0  0  0
 33 34  1  0  0  0
 33 31  1  0  0  0
 31 29  1  0  0  0
 29 23  1  0  0  0
 23 24  1  0  0  0
 24 25  2  0  0  0
 25 26  1  0  0  0
 26 27  1  0  0  0
 27 22  1  0  0  0
 22  1  1  0  0  0
  1  2  2  0  0  0
  2  3  1  0  0  0
  3  4  1  0  0  0
  3  5  2  0  0  0
  5  6  1  0  0  0
  6  8  1  0  0  0
  8  9  2  0  0  0
  8 10  1  0  0  0
 10 12  1  0  0  0
 12 13  2  0  0  0
 13 14  1  0  0  0
 14 15  2  0  0  0
 15 16  1  0  0  0
 16 17  2  0  0  0
 16 18  1  0  0  0
 18 19  1  0  0  0
 19 20  1  0  0  0
  6  7  2  0  0  0
 22 37  1  0  0  0
 37 38  1  0  0  0
 38 39  1  0  0  0
 39 40  1  0  0  0
 27 23  2  0  0  0
  7  1  1  0  0  0
 40 37  1  0  0  0
 17 12  1  0  0  0
 20 15  1  0  0  0
 31 32  1  0  0  0
 29 30  1  0  0  0
 26 28  1  0  0  0
 10 11  1  0  0  0
 19 21  1  0  0  0
 39 41  1  0  0  0
M  END
> <minimizedAffinity>
-8.54935

> <minimizedRMSD>
1.28714

$$$$
P29441


 39 44  0  0  0  0  0  0  0  0999 V2000
   -4.4132    5.7249  -16.9822 C   0  0  0  0  0  0  0  0  0  0  0  0
   -4.9300    5.4274  -15.8018 N   0  0  0  0  0  0  0  0  0  0  0  0
   -6.2093    4.9831  -16.0106 C   0  0  0  0  0  0  0  0  0  0  0  0
   -7.2118    4.6044  -15.0833 C   0  0  0  0  0  0  0  0  0  0  0  0
   -8.4569    4.1840  -15.5721 C   0  0  0  0  0  0  0  0  0  0  0  0
   -8.6850    4.1400  -16.9433 C   0  0  0  0  0  0  0  0  0  0  0  0
   -9.8926    3.7715  -17.3903 F   0  0  0  0  0  0  0  0  0  0  0  0
   -7.7067    4.4923  -17.8736 C   0  0  0  0  0  0  0  0  0  0  0  0
   -6.4710    4.9306  -17.3802 C   0  0  0  0  0  0  0  0  0  0  0  0
   -5.3045    5.3781  -17.9841 N   0  0  0  0  0  0  0  0  0  0  0  0
   -0.6673    7.5032  -17.3688 C   0  0  0  0  0  0  0  0  0  0  0  0
   -0.7021    6.1847  -16.9605 C   0  0  0  0  0  0  0  0  0  0  0  0
   -1.9420    5.5696  -16.8276 C   0  0  0  0  0  0  0  0  0  0  0  0
   -3.0821    6.3009  -17.1250 C   0  0  0  0  0  0  0  0  0  0  0  0
   -3.0125    7.6031  -17.4787 N   0  0  0  0  0  0  0  0  0  0  0  0
   -1.7926    8.2073  -17.6243 N   0  0  0  0  0  0  0  0  0  0  0  0
    1.2362    7.7161  -18.7092 C   0  0  0  0  0  0  0  0  0  0  0  0
    0.5769    8.0838  -17.5019 O   0  0  0  0  0  0  0  0  0  0  0  0
   -5.1141    5.3617  -19.4631 C   0  0  0  0  0  0  0  0  0  0  0  0
   -3.6853    5.1795  -19.9913 C   0  0  0  0  0  0  0  0  0  0  0  0
   -3.6944    6.5466  -20.5323 N   0  0  0  0  0  0  0  0  0  0  0  0
   -5.0932    6.7414  -20.1218 C   0  0  0  0  0  0  0  0  0  0  0  0
   -3.5524    6.5902  -21.5414 H   0  0  0  0  0  0  0  0  0  0  0  0
   -6.9801    4.8166  -13.6249 C   0  0  0  0  0  0  0  0  0  0  0  0
   -6.0280    5.4195  -13.3199 O   0  0  0  0  0  0  0  0  0  0  0  0
   -8.0907    4.1803  -12.7478 N   0  0  0  0  0  0  0  0  0  0  0  0
   -8.7563    3.6519  -13.2448 H   0  0  0  0  0  0  0  0  0  0  0  0
   -8.3019    4.2359  -11.3525 C   0  0  0  0  0  0  0  0  0  0  0  0
   -8.6233    3.0020  -10.7463 C   0  0  0  0  0  0  0  0  0  0  0  0
   -8.8226    2.9356   -9.3730 C   0  0  0  0  0  0  0  0  0  0  0  0
   -8.6832    4.0586   -8.5744 C   0  0  0  0  0  0  0  0  0  0  0  0
   -8.3759    5.2827   -9.1321 C   0  0  0  0  0  0  0  0  0  0  0  0
   -8.2169    5.3891  -10.5333 C   0  0  0  0  0  0  0  0  0  0  0  0
   -8.9408    3.6910   -7.1516 C   0  0  0  0  0  0  0  0  0  0  0  0
   -9.6005    2.3714   -7.2084 N   0  0  0  0  0  0  0  0  0  0  0  0
   -9.1828    1.7713   -8.5043 C   0  0  0  0  0  0  0  0  0  0  0  0
  -10.6143    2.4783   -7.1759 H   0  0  0  0  0  0  0  0  0  0  0  0
   -8.1080    6.7374  -11.0141 C   0  0  0  0  0  0  0  0  0  0  0  0
   -8.0777    7.7676  -11.5527 N   0  0  0  0  0  0  0  0  0  0  0  0
 17 18  1  0  0  0
 18 11  1  0  0  0
 11 12  2  0  0  0
 12 13  1  0  0  0
 13 14  2  0  0  0
 14  1  1  0  0  0
  1  2  2  0  0  0
  2  3  1  0  0  0
  3  4  2  0  0  0
  4 24  1  0  0  0
 24 25  2  0  0  0
 24 26  1  0  0  0
 26 28  1  0  0  0
 28 29  2  0  0  0
 29 30  1  0  0  0
 30 31  2  0  0  0
 31 32  1  0  0  0
 32 33  2  0  0  0
 33 38  1  0  0  0
 38 39  3  0  0  0
 31 34  1  0  0  0
 34 35  1  0  0  0
 35 36  1  0  0  0
  4  5  1  0  0  0
  5  6  2  0  0  0
  6  7  1  0  0  0
  6  8  1  0  0  0
  8  9  2  0  0  0
  9 10  1  0  0  0
 10 19  1  0  0  0
 19 20  1  0  0  0
 20 21  1  0  0  0
 21 22  1  0  0  0
 14 15  1  0  0  0
 15 16  2  0  0  0
 16 11  1  0  0  0
 10  1  1  0  0  0
 22 19  1  0  0  0
  9  3  1  0  0  0
 33 28  1  0  0  0
 36 30  1  0  0  0
 26 27  1  0  0  0
 35 37  1  0  0  0
 21 23  1  0  0  0
M  END
> <minimizedAffinity>
-8.25070

> <minimizedRMSD>
0.65829

$$$$
P29444


 41 47  0  0  0  0  0  0  0  0999 V2000
   -4.4160    5.7861  -16.4522 C   0  0  0  0  0  0  0  0  0  0  0  0
   -4.9040    5.6508  -15.2183 N   0  0  0  0  0  0  0  0  0  0  0  0
   -6.1927    5.1775  -15.3393 C   0  0  0  0  0  0  0  0  0  0  0  0
   -7.2443    4.9203  -14.4349 C   0  0  0  0  0  0  0  0  0  0  0  0
   -8.4956    4.4864  -14.9339 C   0  0  0  0  0  0  0  0  0  0  0  0
   -8.6751    4.2724  -16.2930 C   0  0  0  0  0  0  0  0  0  0  0  0
   -9.8689    3.9019  -16.7676 F   0  0  0  0  0  0  0  0  0  0  0  0
   -7.6256    4.4553  -17.1731 C   0  0  0  0  0  0  0  0  0  0  0  0
   -6.4382    4.9317  -16.6724 C   0  0  0  0  0  0  0  0  0  0  0  0
   -5.3093    5.2584  -17.3559 N   0  0  0  0  0  0  0  0  0  0  0  0
   -5.3059    5.0875  -18.8430 C   0  0  0  0  0  0  0  0  0  0  0  0
   -3.9094    4.7078  -19.3983 C   0  0  0  0  0  0  0  0  0  0  0  0
   -3.6408    6.1191  -19.7017 N   0  0  0  0  0  0  0  0  0  0  0  0
   -5.0755    6.4217  -19.5980 C   0  0  0  0  0  0  0  0  0  0  0  0
   -6.5918    4.2388  -19.3594 C   0  0  0  0  0  0  0  0  0  0  0  0
   -6.7386    3.6652  -20.4440 O   0  0  0  0  0  0  0  0  0  0  0  0
   -7.6821    4.1383  -18.5119 N   0  0  0  0  0  0  0  0  0  0  0  0
   -3.2490    6.2771  -20.6301 H   0  0  0  0  0  0  0  0  0  0  0  0
   -8.5381    3.8253  -18.8840 H   0  0  0  0  0  0  0  0  0  0  0  0
   -1.0672    8.0037  -17.4971 C   0  0  0  0  0  0  0  0  0  0  0  0
   -0.8384    6.7319  -17.0070 C   0  0  0  0  0  0  0  0  0  0  0  0
   -1.9349    5.9594  -16.6410 C   0  0  0  0  0  0  0  0  0  0  0  0
   -3.1973    6.5007  -16.7918 C   0  0  0  0  0  0  0  0  0  0  0  0
   -3.3906    7.7568  -17.2664 N   0  0  0  0  0  0  0  0  0  0  0  0
   -2.3111    8.5158  -17.6279 N   0  0  0  0  0  0  0  0  0  0  0  0
   -0.2876   10.0444  -18.3263 C   0  0  0  0  0  0  0  0  0  0  0  0
    0.0433    8.7425  -17.8540 O   0  0  0  0  0  0  0  0  0  0  0  0
   -7.1094    5.1967  -12.9892 C   0  0  0  0  0  0  0  0  0  0  0  0
   -6.5260    6.1450  -12.6378 O   0  0  0  0  0  0  0  0  0  0  0  0
   -7.8859    4.1346  -12.1704 N   0  0  0  0  0  0  0  0  0  0  0  0
   -8.2319    3.3792  -12.6984 H   0  0  0  0  0  0  0  0  0  0  0  0
   -8.1737    4.0750  -10.8100 C   0  0  0  0  0  0  0  0  0  0  0  0
   -8.0011    5.1871   -9.9718 C   0  0  0  0  0  0  0  0  0  0  0  0
   -8.3053    5.1078   -8.6081 C   0  0  0  0  0  0  0  0  0  0  0  0
   -8.7942    3.9125   -8.1145 C   0  0  0  0  0  0  0  0  0  0  0  0
   -8.9698    2.8107   -8.9457 C   0  0  0  0  0  0  0  0  0  0  0  0
   -8.6607    2.8700  -10.2933 C   0  0  0  0  0  0  0  0  0  0  0  0
   -9.4818    1.6655   -8.1368 C   0  0  0  0  0  0  0  0  0  0  0  0
   -9.9483    2.2715   -6.8622 N   0  0  0  0  0  0  0  0  0  0  0  0
   -9.1940    3.5378   -6.7264 C   0  0  0  0  0  0  0  0  0  0  0  0
   -9.7473    1.6511   -6.0780 H   0  0  0  0  0  0  0  0  0  0  0  0
 26 27  1  0  0  0
 27 20  1  0  0  0
 20 21  2  0  0  0
 21 22  1  0  0  0
 22 23  2  0  0  0
 23  1  1  0  0  0
  1  2  2  0  0  0
  2  3  1  0  0  0
  3  4  2  0  0  0
  4 28  1  0  0  0
 28 29  2  0  0  0
 28 30  1  0  0  0
 30 32  1  0  0  0
 32 33  2  0  0  0
 33 34  1  0  0  0
 34 35  2  0  0  0
 35 36  1  0  0  0
 36 37  2  0  0  0
 36 38  1  0  0  0
 38 39  1  0  0  0
 39 40  1  0  0  0
  4  5  1  0  0  0
  5  6  2  0  0  0
  6  7  1  0  0  0
  6  8  1  0  0  0
  8  9  2  0  0  0
  9 10  1  0  0  0
 10 11  1  0  0  0
 11 12  1  0  0  0
 12 13  1  0  0  0
 13 14  1  0  0  0
 11 15  1  0  0  0
 15 16  2  0  0  0
 15 17  1  0  0  0
 23 24  1  0  0  0
 24 25  2  0  0  0
 25 20  1  0  0  0
 10  1  1  0  0  0
 14 11  1  0  0  0
  9  3  1  0  0  0
 37 32  1  0  0  0
 17  8  1  0  0  0
 40 35  1  0  0  0
 30 31  1  0  0  0
 39 41  1  0  0  0
 13 18  1  0  0  0
 17 19  1  0  0  0
M  END
> <minimizedAffinity>
-7.61527

> <minimizedRMSD>
0.63817

$$$$
P29447


 39 45  0  0  0  0  0  0  0  0999 V2000
   -4.5010    5.6123  -16.9711 C   0  0  0  0  0  0  0  0  0  0  0  0
   -5.0773    5.4569  -15.7899 N   0  0  0  0  0  0  0  0  0  0  0  0
   -6.3535    5.0114  -16.0274 C   0  0  0  0  0  0  0  0  0  0  0  0
   -7.3991    4.6882  -15.1459 C   0  0  0  0  0  0  0  0  0  0  0  0
   -8.5963    4.1730  -15.6604 C   0  0  0  0  0  0  0  0  0  0  0  0
   -8.7777    4.0615  -17.0330 C   0  0  0  0  0  0  0  0  0  0  0  0
   -9.9541    3.6356  -17.5126 F   0  0  0  0  0  0  0  0  0  0  0  0
   -7.7860    4.4350  -17.9327 C   0  0  0  0  0  0  0  0  0  0  0  0
   -6.5747    4.8924  -17.3939 C   0  0  0  0  0  0  0  0  0  0  0  0
   -5.4176    5.3790  -17.9706 N   0  0  0  0  0  0  0  0  0  0  0  0
   -0.6514    6.6937  -17.9290 C   0  0  0  0  0  0  0  0  0  0  0  0
   -1.3842    7.6284  -17.2239 C   0  0  0  0  0  0  0  0  0  0  0  0
   -2.6706    7.2852  -16.8347 C   0  0  0  0  0  0  0  0  0  0  0  0
   -3.1283    6.0229  -17.1648 C   0  0  0  0  0  0  0  0  0  0  0  0
   -2.3369    5.1043  -17.7454 N   0  0  0  0  0  0  0  0  0  0  0  0
   -1.1093    5.4552  -18.1845 N   0  0  0  0  0  0  0  0  0  0  0  0
    1.4717    5.9963  -18.6066 C   0  0  0  0  0  0  0  0  0  0  0  0
    0.5665    7.0803  -18.4189 O   0  0  0  0  0  0  0  0  0  0  0  0
   -5.4262    5.7659  -19.3941 C   0  0  0  0  0  0  0  0  0  0  0  0
   -4.1974    6.0207  -20.2947 C   0  0  0  0  0  0  0  0  0  0  0  0
   -4.9199    7.2376  -20.8066 N   0  0  0  0  0  0  0  0  0  0  0  0
   -5.4764    7.3036  -19.4301 C   0  0  0  0  0  0  0  0  0  0  0  0
   -5.6013    7.0624  -21.5451 H   0  0  0  0  0  0  0  0  0  0  0  0
   -7.2789    5.0429  -13.7173 C   0  0  0  0  0  0  0  0  0  0  0  0
   -6.5736    5.9275  -13.4279 O   0  0  0  0  0  0  0  0  0  0  0  0
   -8.1840    4.1531  -12.8350 N   0  0  0  0  0  0  0  0  0  0  0  0
   -8.7467    3.5165  -13.3322 H   0  0  0  0  0  0  0  0  0  0  0  0
   -8.3333    4.1054  -11.4478 C   0  0  0  0  0  0  0  0  0  0  0  0
   -8.7204    2.8757  -10.8726 C   0  0  0  0  0  0  0  0  0  0  0  0
   -8.8614    2.8066   -9.5023 C   0  0  0  0  0  0  0  0  0  0  0  0
   -8.6249    3.9542   -8.7793 C   0  0  0  0  0  0  0  0  0  0  0  0
   -8.7791    3.8347   -7.4120 C   0  0  0  0  0  0  0  0  0  0  0  0
   -8.4638    4.9829   -6.7542 C   0  0  0  0  0  0  0  0  0  0  0  0
   -8.0262    6.2219   -7.9236 S   0  0  0  0  0  0  0  0  0  0  0  0
   -8.2315    5.1605   -9.2777 C   0  0  0  0  0  0  0  0  0  0  0  0
   -8.0827    5.2697  -10.6658 C   0  0  0  0  0  0  0  0  0  0  0  0
   -9.1797    2.5581   -7.1440 N   0  0  0  0  0  0  0  0  0  0  0  0
   -9.1918    1.7622   -8.4750 C   0  0  0  0  0  0  0  0  0  0  0  0
   -9.4199    2.2031   -6.2576 H   0  0  0  0  0  0  0  0  0  0  0  0
 17 18  1  0  0  0
 18 11  1  0  0  0
 11 12  2  0  0  0
 12 13  1  0  0  0
 13 14  2  0  0  0
 14  1  1  0  0  0
  1  2  2  0  0  0
  2  3  1  0  0  0
  3  4  2  0  0  0
  4 24  1  0  0  0
 24 25  2  0  0  0
 24 26  1  0  0  0
 26 28  1  0  0  0
 28 29  2  0  0  0
 29 30  1  0  0  0
 30 31  2  0  0  0
 31 32  1  0  0  0
 32 33  2  0  0  0
 33 34  1  0  0  0
 34 35  1  0  0  0
 35 36  2  0  0  0
 32 37  1  0  0  0
 37 38  1  0  0  0
  4  5  1  0  0  0
  5  6  2  0  0  0
  6  7  1  0  0  0
  6  8  1  0  0  0
  8  9  2  0  0  0
  9 10  1  0  0  0
 10 19  1  0  0  0
 19 20  1  0  0  0
 20 21  1  0  0  0
 21 22  1  0  0  0
 14 15  1  0  0  0
 15 16  2  0  0  0
 16 11  1  0  0  0
 10  1  1  0  0  0
 22 19  1  0  0  0
  9  3  1  0  0  0
 36 28  1  0  0  0
 38 30  1  0  0  0
 35 31  1  0  0  0
 26 27  1  0  0  0
 37 39  1  0  0  0
 21 23  1  0  0  0
M  END
> <minimizedAffinity>
-9.04455

> <minimizedRMSD>
0.53186

$$$$
P29458


 39 44  0  0  0  0  0  0  0  0999 V2000
   -4.3084    5.1210  -17.2664 C   0  0  0  0  0  0  0  0  0  0  0  0
   -4.8984    5.3812  -15.9029 N   0  0  0  0  0  0  0  0  0  0  0  0
   -6.2529    4.9697  -16.0942 C   0  0  0  0  0  0  0  0  0  0  0  0
   -7.2093    4.6365  -15.1343 C   0  0  0  0  0  0  0  0  0  0  0  0
   -8.4802    4.2231  -15.5656 C   0  0  0  0  0  0  0  0  0  0  0  0
   -8.7830    4.1766  -16.9284 C   0  0  0  0  0  0  0  0  0  0  0  0
  -10.0052    3.8042  -17.3221 F   0  0  0  0  0  0  0  0  0  0  0  0
   -7.8574    4.5570  -17.8822 C   0  0  0  0  0  0  0  0  0  0  0  0
   -6.6060    4.9742  -17.4453 C   0  0  0  0  0  0  0  0  0  0  0  0
   -5.4388    5.3292  -18.3046 N   0  0  0  0  0  0  0  0  0  0  0  0
   -5.4764    4.4653  -19.3361 O   0  0  0  0  0  0  0  0  0  0  0  0
   -4.4648    5.7397  -15.0950 H   0  0  0  0  0  0  0  0  0  0  0  0
   -0.4136    6.6216  -18.0008 C   0  0  0  0  0  0  0  0  0  0  0  0
   -0.9996    6.9606  -16.8008 C   0  0  0  0  0  0  0  0  0  0  0  0
   -2.2840    6.4919  -16.5384 C   0  0  0  0  0  0  0  0  0  0  0  0
   -2.9378    5.7127  -17.4936 C   0  0  0  0  0  0  0  0  0  0  0  0
   -2.3065    5.3826  -18.6421 N   0  0  0  0  0  0  0  0  0  0  0  0
   -1.0428    5.8476  -18.9025 N   0  0  0  0  0  0  0  0  0  0  0  0
    1.4802    6.4488  -19.3502 C   0  0  0  0  0  0  0  0  0  0  0  0
    0.8593    7.0957  -18.2419 O   0  0  0  0  0  0  0  0  0  0  0  0
   -5.6335    6.6905  -18.8680 C   0  0  0  0  0  0  0  0  0  0  0  0
   -5.0968    6.8821  -20.2972 C   0  0  0  0  0  0  0  0  0  0  0  0
   -4.0345    7.7545  -19.7666 N   0  0  0  0  0  0  0  0  0  0  0  0
   -4.7026    7.8420  -18.4689 C   0  0  0  0  0  0  0  0  0  0  0  0
   -3.9575    8.6492  -20.2503 H   0  0  0  0  0  0  0  0  0  0  0  0
   -6.9500    4.7990  -13.6779 C   0  0  0  0  0  0  0  0  0  0  0  0
   -6.0192    5.4253  -13.3517 O   0  0  0  0  0  0  0  0  0  0  0  0
   -8.0352    4.0942  -12.8250 N   0  0  0  0  0  0  0  0  0  0  0  0
   -8.6816    3.5595  -13.3403 H   0  0  0  0  0  0  0  0  0  0  0  0
   -8.2450    4.0943  -11.4467 C   0  0  0  0  0  0  0  0  0  0  0  0
   -8.0658    5.2579  -10.6825 C   0  0  0  0  0  0  0  0  0  0  0  0
   -8.2732    5.2459   -9.2984 C   0  0  0  0  0  0  0  0  0  0  0  0
   -8.6507    4.0573   -8.7007 C   0  0  0  0  0  0  0  0  0  0  0  0
   -8.8304    2.9051   -9.4537 C   0  0  0  0  0  0  0  0  0  0  0  0
   -8.6419    2.9050  -10.8280 C   0  0  0  0  0  0  0  0  0  0  0  0
   -9.1915    1.7733   -8.5525 C   0  0  0  0  0  0  0  0  0  0  0  0
   -9.3896    2.3635   -7.2027 N   0  0  0  0  0  0  0  0  0  0  0  0
   -8.9082    3.7591   -7.2635 C   0  0  0  0  0  0  0  0  0  0  0  0
   -8.8554    1.8391   -6.5098 H   0  0  0  0  0  0  0  0  0  0  0  0
 19 20  1  0  0  0
 20 13  1  0  0  0
 13 14  2  0  0  0
 14 15  1  0  0  0
 15 16  2  0  0  0
  1 16  1  0  0  0
  1  2  1  0  0  0
  2  3  1  0  0  0
  3  4  2  0  0  0
  4 26  1  0  0  0
 26 27  2  0  0  0
 26 28  1  0  0  0
 28 30  1  0  0  0
 30 31  2  0  0  0
 31 32  1  0  0  0
 32 33  2  0  0  0
 33 34  1  0  0  0
 34 35  2  0  0  0
 34 36  1  0  0  0
 36 37  1  0  0  0
 37 38  1  0  0  0
  4  5  1  0  0  0
  5  6  2  0  0  0
  6  7  1  0  0  0
  6  8  1  0  0  0
  8  9  2  0  0  0
  9 10  1  0  0  0
 10 11  1  0  0  0
 10 21  1  0  0  0
 21 22  1  0  0  0
 22 23  1  0  0  0
 23 24  1  0  0  0
 16 17  1  0  0  0
 17 18  2  0  0  0
 18 13  1  0  0  0
 10  1  1  0  0  0
 24 21  1  0  0  0
  9  3  1  0  0  0
 35 30  1  0  0  0
 38 33  1  0  0  0
  2 12  1  0  0  0
 28 29  1  0  0  0
 37 39  1  0  0  0
 23 25  1  0  0  0
M  CHG 1  10   1
M  CHG 1  11  -1
M  END
> <minimizedAffinity>
-9.05749

> <minimizedRMSD>
0.41641

$$$$
P29463


 38 43  0  0  0  0  0  0  0  0999 V2000
   -4.7945    5.6315  -16.6124 C   0  0  0  0  0  0  0  0  0  0  0  0
   -5.5466    5.4996  -15.5299 N   0  0  0  0  0  0  0  0  0  0  0  0
   -6.7649    5.0232  -15.9379 C   0  0  0  0  0  0  0  0  0  0  0  0
   -7.9554    4.7950  -15.2146 C   0  0  0  0  0  0  0  0  0  0  0  0
   -9.0682    4.2634  -15.8788 C   0  0  0  0  0  0  0  0  0  0  0  0
   -8.9984    3.9969  -17.2392 C   0  0  0  0  0  0  0  0  0  0  0  0
  -10.0858    3.5320  -17.8657 F   0  0  0  0  0  0  0  0  0  0  0  0
   -7.8461    4.2381  -17.9852 C   0  0  0  0  0  0  0  0  0  0  0  0
   -6.7360    4.7578  -17.3061 C   0  0  0  0  0  0  0  0  0  0  0  0
   -5.4690    5.1367  -17.7151 N   0  0  0  0  0  0  0  0  0  0  0  0
   -1.1079    7.5551  -16.4355 C   0  0  0  0  0  0  0  0  0  0  0  0
   -1.1840    6.2858  -15.8974 C   0  0  0  0  0  0  0  0  0  0  0  0
   -2.4028    5.6185  -15.9550 C   0  0  0  0  0  0  0  0  0  0  0  0
   -3.4762    6.2470  -16.5661 C   0  0  0  0  0  0  0  0  0  0  0  0
   -3.3792    7.5104  -17.0338 N   0  0  0  0  0  0  0  0  0  0  0  0
   -2.1773    8.1644  -16.9925 N   0  0  0  0  0  0  0  0  0  0  0  0
    0.1142    9.4647  -17.0052 C   0  0  0  0  0  0  0  0  0  0  0  0
    0.1166    8.1872  -16.3751 O   0  0  0  0  0  0  0  0  0  0  0  0
   -5.0310    4.9822  -19.1287 C   0  0  0  0  0  0  0  0  0  0  0  0
   -3.5353    4.8419  -19.4158 C   0  0  0  0  0  0  0  0  0  0  0  0
   -3.4995    6.2163  -19.9431 N   0  0  0  0  0  0  0  0  0  0  0  0
   -4.9662    6.2988  -19.9042 C   0  0  0  0  0  0  0  0  0  0  0  0
   -3.1071    6.2879  -20.8819 H   0  0  0  0  0  0  0  0  0  0  0  0
   -8.0778    5.2709  -13.8149 C   0  0  0  0  0  0  0  0  0  0  0  0
   -8.0963    6.4237  -13.6267 O   0  0  0  0  0  0  0  0  0  0  0  0
   -8.2341    4.0894  -12.8249 N   0  0  0  0  0  0  0  0  0  0  0  0
   -8.2579    3.1996  -13.2454 H   0  0  0  0  0  0  0  0  0  0  0  0
   -8.3468    4.0815  -11.4329 C   0  0  0  0  0  0  0  0  0  0  0  0
   -8.0753    5.2321  -10.6762 C   0  0  0  0  0  0  0  0  0  0  0  0
   -8.1900    5.2095   -9.2816 C   0  0  0  0  0  0  0  0  0  0  0  0
   -7.8071    6.7708   -8.2878 Br  0  0  0  0  0  0  0  0  0  0  0  0
   -8.5790    4.0381   -8.6586 C   0  0  0  0  0  0  0  0  0  0  0  0
   -8.8470    2.8996   -9.4094 C   0  0  0  0  0  0  0  0  0  0  0  0
   -8.7390    2.9020  -10.7936 C   0  0  0  0  0  0  0  0  0  0  0  0
   -9.2079    1.7739   -8.4999 C   0  0  0  0  0  0  0  0  0  0  0  0
   -9.3246    2.3614   -7.1424 N   0  0  0  0  0  0  0  0  0  0  0  0
   -8.7732    3.7313   -7.2132 C   0  0  0  0  0  0  0  0  0  0  0  0
   -8.7932    1.8045   -6.4732 H   0  0  0  0  0  0  0  0  0  0  0  0
 17 18  1  0  0  0
 18 11  1  0  0  0
 11 12  2  0  0  0
 12 13  1  0  0  0
 13 14  2  0  0  0
 14  1  1  0  0  0
  1  2  2  0  0  0
  2  3  1  0  0  0
  3  4  2  0  0  0
  4 24  1  0  0  0
 24 25  2  0  0  0
 24 26  1  0  0  0
 26 28  1  0  0  0
 28 29  2  0  0  0
 29 30  1  0  0  0
 30 31  1  0  0  0
 30 32  2  0  0  0
 32 33  1  0  0  0
 33 34  2  0  0  0
 33 35  1  0  0  0
 35 36  1  0  0  0
 36 37  1  0  0  0
  4  5  1  0  0  0
  5  6  2  0  0  0
  6  7  1  0  0  0
  6  8  1  0  0  0
  8  9  2  0  0  0
  9 10  1  0  0  0
 10 19  1  0  0  0
 19 20  1  0  0  0
 20 21  1  0  0  0
 21 22  1  0  0  0
 14 15  1  0  0  0
 15 16  2  0  0  0
 16 11  1  0  0  0
 10  1  1  0  0  0
 22 19  1  0  0  0
  9  3  1  0  0  0
 34 28  1  0  0  0
 37 32  1  0  0  0
 26 27  1  0  0  0
 36 38  1  0  0  0
 21 23  1  0  0  0
M  END
> <minimizedAffinity>
-8.75468

> <minimizedRMSD>
0.48282

$$$$
P29464


 38 43  0  0  0  0  0  0  0  0999 V2000
   -4.8004    5.2286  -15.7366 C   0  0  0  0  0  0  0  0  0  0  0  0
   -5.8535    5.1130  -14.9432 N   0  0  0  0  0  0  0  0  0  0  0  0
   -6.9317    4.8547  -15.7535 C   0  0  0  0  0  0  0  0  0  0  0  0
   -8.2852    4.6465  -15.4213 C   0  0  0  0  0  0  0  0  0  0  0  0
   -9.1963    4.2531  -16.4053 C   0  0  0  0  0  0  0  0  0  0  0  0
   -8.7645    4.1240  -17.7171 C   0  0  0  0  0  0  0  0  0  0  0  0
   -9.6588    3.7658  -18.6499 F   0  0  0  0  0  0  0  0  0  0  0  0
   -7.4490    4.4178  -18.0986 C   0  0  0  0  0  0  0  0  0  0  0  0
   -6.5399    4.8019  -17.0935 C   0  0  0  0  0  0  0  0  0  0  0  0
   -5.2192    5.2220  -17.0552 N   0  0  0  0  0  0  0  0  0  0  0  0
   -0.8378    5.7077  -14.4622 C   0  0  0  0  0  0  0  0  0  0  0  0
   -1.6752    4.9410  -13.6787 C   0  0  0  0  0  0  0  0  0  0  0  0
   -2.9974    4.7820  -14.0855 C   0  0  0  0  0  0  0  0  0  0  0  0
   -3.4251    5.3980  -15.2554 C   0  0  0  0  0  0  0  0  0  0  0  0
   -2.5739    6.1455  -15.9869 N   0  0  0  0  0  0  0  0  0  0  0  0
   -1.2719    6.3123  -15.5854 N   0  0  0  0  0  0  0  0  0  0  0  0
    0.4684    5.8409  -14.0428 O   0  0  0  0  0  0  0  0  0  0  0  0
    2.2083    4.9407  -15.4792 C   0  0  0  0  0  0  0  0  0  0  0  0
    1.2924    4.6991  -14.2913 C   0  0  0  0  0  0  0  0  0  0  0  0
   -4.3829    5.8401  -18.1206 C   0  0  0  0  0  0  0  0  0  0  0  0
   -3.8310    4.8010  -19.1177 C   0  0  0  0  0  0  0  0  0  0  0  0
   -5.0199    5.0915  -19.9326 N   0  0  0  0  0  0  0  0  0  0  0  0
   -5.0909    6.4296  -19.3344 C   0  0  0  0  0  0  0  0  0  0  0  0
   -5.8234    4.4982  -19.7258 H   0  0  0  0  0  0  0  0  0  0  0  0
   -8.7560    5.0180  -14.0734 C   0  0  0  0  0  0  0  0  0  0  0  0
   -9.5386    5.8810  -13.9887 O   0  0  0  0  0  0  0  0  0  0  0  0
   -8.1484    4.1061  -12.9836 N   0  0  0  0  0  0  0  0  0  0  0  0
   -7.5587    3.3947  -13.3232 H   0  0  0  0  0  0  0  0  0  0  0  0
   -8.2995    4.1269  -11.5986 C   0  0  0  0  0  0  0  0  0  0  0  0
   -8.0617    5.3004  -10.8635 C   0  0  0  0  0  0  0  0  0  0  0  0
   -8.1842    5.3132   -9.4703 C   0  0  0  0  0  0  0  0  0  0  0  0
   -8.5517    4.1419   -8.8354 C   0  0  0  0  0  0  0  0  0  0  0  0
   -8.7958    2.9827   -9.5605 C   0  0  0  0  0  0  0  0  0  0  0  0
   -8.6741    2.9537  -10.9415 C   0  0  0  0  0  0  0  0  0  0  0  0
   -9.1418    1.8760   -8.6242 C   0  0  0  0  0  0  0  0  0  0  0  0
   -9.2776    2.4969   -7.2803 N   0  0  0  0  0  0  0  0  0  0  0  0
   -8.7391    3.8691   -7.3826 C   0  0  0  0  0  0  0  0  0  0  0  0
   -8.7470    1.9627   -6.5922 H   0  0  0  0  0  0  0  0  0  0  0  0
 18 19  1  0  0  0
 19 17  1  0  0  0
 17 11  1  0  0  0
 11 12  2  0  0  0
 12 13  1  0  0  0
 13 14  2  0  0  0
 14  1  1  0  0  0
  1  2  2  0  0  0
  2  3  1  0  0  0
  3  4  2  0  0  0
  4 25  1  0  0  0
 25 26  2  0  0  0
 25 27  1  0  0  0
 27 29  1  0  0  0
 29 30  2  0  0  0
 30 31  1  0  0  0
 31 32  2  0  0  0
 32 33  1  0  0  0
 33 34  2  0  0  0
 33 35  1  0  0  0
 35 36  1  0  0  0
 36 37  1  0  0  0
  4  5  1  0  0  0
  5  6  2  0  0  0
  6  7  1  0  0  0
  6  8  1  0  0  0
  8  9  2  0  0  0
  9 10  1  0  0  0
 10 20  1  0  0  0
 20 21  1  0  0  0
 21 22  1  0  0  0
 22 23  1  0  0  0
 14 15  1  0  0  0
 15 16  2  0  0  0
 16 11  1  0  0  0
 10  1  1  0  0  0
 23 20  1  0  0  0
  9  3  1  0  0  0
 34 29  1  0  0  0
 37 32  1  0  0  0
 27 28  1  0  0  0
 36 38  1  0  0  0
 22 24  1  0  0  0
M  END
> <minimizedAffinity>
-9.62946

> <minimizedRMSD>
1.37434

$$$$
P29466


 39 44  0  0  0  0  0  0  0  0999 V2000
   -4.8901    5.6321  -16.5693 C   0  0  0  0  0  0  0  0  0  0  0  0
   -5.6481    5.4845  -15.4927 N   0  0  0  0  0  0  0  0  0  0  0  0
   -6.8645    5.0159  -15.9138 C   0  0  0  0  0  0  0  0  0  0  0  0
   -8.0616    4.7843  -15.2043 C   0  0  0  0  0  0  0  0  0  0  0  0
   -9.1793    4.2719  -15.8725 C   0  0  0  0  0  0  0  0  0  0  0  0
   -9.1012    4.0128  -17.2318 C   0  0  0  0  0  0  0  0  0  0  0  0
  -10.1887    3.5575  -17.8652 F   0  0  0  0  0  0  0  0  0  0  0  0
   -7.9377    4.2444  -17.9669 C   0  0  0  0  0  0  0  0  0  0  0  0
   -6.8269    4.7592  -17.2827 C   0  0  0  0  0  0  0  0  0  0  0  0
   -5.5521    5.1314  -17.6783 N   0  0  0  0  0  0  0  0  0  0  0  0
   -1.2119    7.5803  -16.3796 C   0  0  0  0  0  0  0  0  0  0  0  0
   -1.2981    6.3329  -15.7944 C   0  0  0  0  0  0  0  0  0  0  0  0
   -2.5141    5.6605  -15.8540 C   0  0  0  0  0  0  0  0  0  0  0  0
   -3.5763    6.2610  -16.5123 C   0  0  0  0  0  0  0  0  0  0  0  0
   -3.4686    7.5038  -17.0299 N   0  0  0  0  0  0  0  0  0  0  0  0
   -2.2691    8.1634  -16.9860 N   0  0  0  0  0  0  0  0  0  0  0  0
    0.0239    9.4622  -17.0092 C   0  0  0  0  0  0  0  0  0  0  0  0
    0.0094    8.2180  -16.3161 O   0  0  0  0  0  0  0  0  0  0  0  0
   -5.0761    4.9388  -19.0754 C   0  0  0  0  0  0  0  0  0  0  0  0
   -3.5738    4.7398  -19.2978 C   0  0  0  0  0  0  0  0  0  0  0  0
   -3.4875    6.0404  -19.9783 N   0  0  0  0  0  0  0  0  0  0  0  0
   -4.9442    6.2259  -19.8881 C   0  0  0  0  0  0  0  0  0  0  0  0
   -3.1390    5.9815  -20.9351 H   0  0  0  0  0  0  0  0  0  0  0  0
   -8.2003    5.2507  -13.8108 C   0  0  0  0  0  0  0  0  0  0  0  0
   -8.4337    6.3817  -13.6336 O   0  0  0  0  0  0  0  0  0  0  0  0
   -8.0561    4.0845  -12.8002 N   0  0  0  0  0  0  0  0  0  0  0  0
   -7.7782    3.2274  -13.1968 H   0  0  0  0  0  0  0  0  0  0  0  0
   -8.2560    4.0520  -11.4206 C   0  0  0  0  0  0  0  0  0  0  0  0
   -8.0370    5.2074  -10.6590 C   0  0  0  0  0  0  0  0  0  0  0  0
   -8.2171    5.1881   -9.2812 C   0  0  0  0  0  0  0  0  0  0  0  0
   -8.0226    6.3167   -8.5982 F   0  0  0  0  0  0  0  0  0  0  0  0
   -8.6061    4.0177   -8.6755 C   0  0  0  0  0  0  0  0  0  0  0  0
   -8.8435    2.8622   -9.4158 C   0  0  0  0  0  0  0  0  0  0  0  0
   -8.6730    2.8663  -10.7967 C   0  0  0  0  0  0  0  0  0  0  0  0
   -9.2478    1.7555   -8.4967 C   0  0  0  0  0  0  0  0  0  0  0  0
   -9.2857    2.4126   -7.2085 N   0  0  0  0  0  0  0  0  0  0  0  0
   -8.8379    3.7149   -7.2612 C   0  0  0  0  0  0  0  0  0  0  0  0
   -8.6497    4.4645   -6.3231 O   0  0  0  0  0  0  0  0  0  0  0  0
   -9.5979    1.9764   -6.3830 H   0  0  0  0  0  0  0  0  0  0  0  0
 17 18  1  0  0  0
 18 11  1  0  0  0
 11 12  2  0  0  0
 12 13  1  0  0  0
 13 14  2  0  0  0
 14  1  1  0  0  0
  1  2  2  0  0  0
  2  3  1  0  0  0
  3  4  2  0  0  0
  4 24  1  0  0  0
 24 25  2  0  0  0
 24 26  1  0  0  0
 26 28  1  0  0  0
 28 29  2  0  0  0
 29 30  1  0  0  0
 30 31  1  0  0  0
 30 32  2  0  0  0
 32 33  1  0  0  0
 33 34  2  0  0  0
 33 35  1  0  0  0
 35 36  1  0  0  0
 36 37  1  0  0  0
 37 38  2  0  0  0
  4  5  1  0  0  0
  5  6  2  0  0  0
  6  7  1  0  0  0
  6  8  1  0  0  0
  8  9  2  0  0  0
  9 10  1  0  0  0
 10 19  1  0  0  0
 19 20  1  0  0  0
 20 21  1  0  0  0
 21 22  1  0  0  0
 14 15  1  0  0  0
 15 16  2  0  0  0
 16 11  1  0  0  0
 10  1  1  0  0  0
 22 19  1  0  0  0
  9  3  1  0  0  0
 34 28  1  0  0  0
 37 32  1  0  0  0
 26 27  1  0  0  0
 36 39  1  0  0  0
 21 23  1  0  0  0
M  END
> <minimizedAffinity>
-8.94448

> <minimizedRMSD>
0.66619

$$$$
P29470


 42 48  0  0  0  0  0  0  0  0999 V2000
   -4.9484    6.1159  -15.7827 C   0  0  0  0  0  0  0  0  0  0  0  0
   -5.8832    5.6798  -14.9570 N   0  0  0  0  0  0  0  0  0  0  0  0
   -6.8586    5.1059  -15.7356 C   0  0  0  0  0  0  0  0  0  0  0  0
   -8.1665    4.6866  -15.4018 C   0  0  0  0  0  0  0  0  0  0  0  0
   -9.0029    4.1899  -16.4111 C   0  0  0  0  0  0  0  0  0  0  0  0
   -8.5358    4.1107  -17.7169 C   0  0  0  0  0  0  0  0  0  0  0  0
   -9.3686    3.6648  -18.6673 F   0  0  0  0  0  0  0  0  0  0  0  0
   -7.2468    4.5148  -18.0788 C   0  0  0  0  0  0  0  0  0  0  0  0
   -6.4259    5.0242  -17.0622 C   0  0  0  0  0  0  0  0  0  0  0  0
   -5.1594    5.5796  -17.0385 N   0  0  0  0  0  0  0  0  0  0  0  0
   -2.1254    8.9461  -14.6180 C   0  0  0  0  0  0  0  0  0  0  0  0
   -1.7512    7.6185  -14.5482 C   0  0  0  0  0  0  0  0  0  0  0  0
   -2.6710    6.6535  -14.9431 C   0  0  0  0  0  0  0  0  0  0  0  0
   -3.9122    7.0686  -15.3999 C   0  0  0  0  0  0  0  0  0  0  0  0
   -4.2559    8.3774  -15.4311 N   0  0  0  0  0  0  0  0  0  0  0  0
   -3.3488    9.3281  -15.0474 N   0  0  0  0  0  0  0  0  0  0  0  0
   -1.6544   11.2205  -14.3510 C   0  0  0  0  0  0  0  0  0  0  0  0
   -1.1899    9.8804  -14.2239 O   0  0  0  0  0  0  0  0  0  0  0  0
   -4.2684    5.7252  -18.2125 C   0  0  0  0  0  0  0  0  0  0  0  0
   -4.8343    5.0806  -19.4937 C   0  0  0  0  0  0  0  0  0  0  0  0
   -3.4720    4.5931  -19.8064 N   0  0  0  0  0  0  0  0  0  0  0  0
   -3.1842    4.6214  -18.3563 C   0  0  0  0  0  0  0  0  0  0  0  0
   -2.9092    5.2367  -20.3625 H   0  0  0  0  0  0  0  0  0  0  0  0
   -8.7041    4.9612  -14.0438 C   0  0  0  0  0  0  0  0  0  0  0  0
   -9.6533    5.6899  -13.9940 O   0  0  0  0  0  0  0  0  0  0  0  0
   -8.0150    4.2388  -13.0050 N   0  0  0  0  0  0  0  0  0  0  0  0
   -7.3014    3.6421  -13.3273 H   0  0  0  0  0  0  0  0  0  0  0  0
   -8.1874    4.2403  -11.6108 C   0  0  0  0  0  0  0  0  0  0  0  0
   -8.5262    3.0111  -11.0173 C   0  0  0  0  0  0  0  0  0  0  0  0
   -8.7584    2.9537   -9.6441 C   0  0  0  0  0  0  0  0  0  0  0  0
   -8.6358    4.0765   -8.8330 C   0  0  0  0  0  0  0  0  0  0  0  0
   -8.2720    5.2727   -9.3954 C   0  0  0  0  0  0  0  0  0  0  0  0
   -8.0614    5.3528  -10.7702 C   0  0  0  0  0  0  0  0  0  0  0  0
   -7.6809    6.6120  -11.1533 O   0  0  0  0  0  0  0  0  0  0  0  0
   -7.8189    7.4627   -9.9886 C   0  0  0  0  0  0  0  0  0  0  0  0
   -6.5411    8.2973   -9.8789 C   0  0  0  0  0  0  0  0  0  0  0  0
   -9.0210    8.3855  -10.2159 C   0  0  0  0  0  0  0  0  0  0  0  0
   -8.0110    6.5735   -8.7458 C   0  0  0  0  0  0  0  0  0  0  0  0
   -8.9374    3.7018   -7.4241 C   0  0  0  0  0  0  0  0  0  0  0  0
   -9.6080    2.3855   -7.5097 N   0  0  0  0  0  0  0  0  0  0  0  0
   -9.1388    1.7881   -8.7890 C   0  0  0  0  0  0  0  0  0  0  0  0
  -10.6214    2.5009   -7.5198 H   0  0  0  0  0  0  0  0  0  0  0  0
 17 18  1  0  0  0
 18 11  1  0  0  0
 11 12  2  0  0  0
 12 13  1  0  0  0
 13 14  2  0  0  0
 14  1  1  0  0  0
  1  2  2  0  0  0
  2  3  1  0  0  0
  3  4  2  0  0  0
  4 24  1  0  0  0
 24 25  2  0  0  0
 24 26  1  0  0  0
 26 28  1  0  0  0
 28 29  2  0  0  0
 29 30  1  0  0  0
 30 31  2  0  0  0
 31 32  1  0  0  0
 32 33  2  0  0  0
 33 34  1  0  0  0
 34 35  1  0  0  0
 35 36  1  0  0  0
 35 37  1  0  0  0
 35 38  1  0  0  0
 31 39  1  0  0  0
 39 40  1  0  0  0
 40 41  1  0  0  0
  4  5  1  0  0  0
  5  6  2  0  0  0
  6  7  1  0  0  0
  6  8  1  0  0  0
  8  9  2  0  0  0
  9 10  1  0  0  0
 10 19  1  0  0  0
 19 20  1  0  0  0
 20 21  1  0  0  0
 21 22  1  0  0  0
 14 15  1  0  0  0
 15 16  2  0  0  0
 16 11  1  0  0  0
 10  1  1  0  0  0
 22 19  1  0  0  0
  9  3  1  0  0  0
 33 28  1  0  0  0
 41 30  1  0  0  0
 38 32  1  0  0  0
 26 27  1  0  0  0
 40 42  1  0  0  0
 21 23  1  0  0  0
M  END
> <minimizedAffinity>
-9.26508

> <minimizedRMSD>
1.46417

$$$$
P29473


 39 44  0  0  0  0  0  0  0  0999 V2000
   -4.6833    5.6196  -16.8336 C   0  0  0  0  0  0  0  0  0  0  0  0
   -5.3285    5.5311  -15.6761 N   0  0  0  0  0  0  0  0  0  0  0  0
   -6.5927    5.0595  -15.9542 C   0  0  0  0  0  0  0  0  0  0  0  0
   -7.7057    4.7937  -15.1317 C   0  0  0  0  0  0  0  0  0  0  0  0
   -8.8712    4.2574  -15.7068 C   0  0  0  0  0  0  0  0  0  0  0  0
   -8.9323    4.0185  -17.0729 C   0  0  0  0  0  0  0  0  0  0  0  0
  -10.0667    3.5601  -17.6137 F   0  0  0  0  0  0  0  0  0  0  0  0
   -7.8718    4.3176  -17.9164 C   0  0  0  0  0  0  0  0  0  0  0  0
   -6.7226    4.8513  -17.3219 C   0  0  0  0  0  0  0  0  0  0  0  0
   -5.5766    5.3985  -17.8554 N   0  0  0  0  0  0  0  0  0  0  0  0
   -0.6372    6.4661  -17.3189 C   0  0  0  0  0  0  0  0  0  0  0  0
   -1.3262    7.2006  -16.3752 C   0  0  0  0  0  0  0  0  0  0  0  0
   -2.6774    6.9287  -16.1902 C   0  0  0  0  0  0  0  0  0  0  0  0
   -3.2699    5.9393  -16.9621 C   0  0  0  0  0  0  0  0  0  0  0  0
   -2.5559    5.2074  -17.8398 N   0  0  0  0  0  0  0  0  0  0  0  0
   -1.2297    5.4891  -18.0365 N   0  0  0  0  0  0  0  0  0  0  0  0
    1.3158    5.9471  -18.4850 C   0  0  0  0  0  0  0  0  0  0  0  0
    0.6942    6.7745  -17.5058 O   0  0  0  0  0  0  0  0  0  0  0  0
   -5.6285    5.9365  -19.2188 C   0  0  0  0  0  0  0  0  0  0  0  0
   -4.8649    7.1824  -19.6593 C   0  0  0  0  0  0  0  0  0  0  0  0
   -4.5753    6.4760  -20.9401 N   0  0  0  0  0  0  0  0  0  0  0  0
   -4.7349    5.1942  -20.1900 C   0  0  0  0  0  0  0  0  0  0  0  0
   -3.6399    6.6373  -21.3133 H   0  0  0  0  0  0  0  0  0  0  0  0
   -7.7209    5.2485  -13.7225 C   0  0  0  0  0  0  0  0  0  0  0  0
   -7.4928    6.3727  -13.5024 O   0  0  0  0  0  0  0  0  0  0  0  0
   -8.1536    4.1077  -12.7700 N   0  0  0  0  0  0  0  0  0  0  0  0
   -8.3602    3.2546  -13.2158 H   0  0  0  0  0  0  0  0  0  0  0  0
   -8.2984    4.0917  -11.3843 C   0  0  0  0  0  0  0  0  0  0  0  0
   -8.0745    5.2464  -10.6174 C   0  0  0  0  0  0  0  0  0  0  0  0
   -8.2306    5.2201   -9.2242 C   0  0  0  0  0  0  0  0  0  0  0  0
   -8.6154    4.0305   -8.6263 C   0  0  0  0  0  0  0  0  0  0  0  0
   -8.8334    2.8887   -9.3886 C   0  0  0  0  0  0  0  0  0  0  0  0
   -8.6837    2.9003  -10.7661 C   0  0  0  0  0  0  0  0  0  0  0  0
   -9.1789    1.7497   -8.4903 C   0  0  0  0  0  0  0  0  0  0  0  0
   -9.4037    2.3469   -7.1515 N   0  0  0  0  0  0  0  0  0  0  0  0
   -8.8426    3.7117   -7.1856 C   0  0  0  0  0  0  0  0  0  0  0  0
   -8.9319    1.7923   -6.4373 H   0  0  0  0  0  0  0  0  0  0  0  0
   -7.9865    6.3916   -8.4393 C   0  0  0  0  0  0  0  0  0  0  0  0
   -7.7842    7.3236   -7.7766 N   0  0  0  0  0  0  0  0  0  0  0  0
 17 18  1  0  0  0
 18 11  1  0  0  0
 11 12  2  0  0  0
 12 13  1  0  0  0
 13 14  2  0  0  0
 14  1  1  0  0  0
  1  2  2  0  0  0
  2  3  1  0  0  0
  3  4  2  0  0  0
  4 24  1  0  0  0
 24 25  2  0  0  0
 24 26  1  0  0  0
 26 28  1  0  0  0
 28 29  2  0  0  0
 29 30  1  0  0  0
 30 38  1  0  0  0
 38 39  3  0  0  0
 30 31  2  0  0  0
 31 32  1  0  0  0
 32 33  2  0  0  0
 32 34  1  0  0  0
 34 35  1  0  0  0
 35 36  1  0  0  0
  4  5  1  0  0  0
  5  6  2  0  0  0
  6  7  1  0  0  0
  6  8  1  0  0  0
  8  9  2  0  0  0
  9 10  1  0  0  0
 10 19  1  0  0  0
 19 20  1  0  0  0
 20 21  1  0  0  0
 21 22  1  0  0  0
 14 15  1  0  0  0
 15 16  2  0  0  0
 16 11  1  0  0  0
 10  1  1  0  0  0
 22 19  1  0  0  0
  9  3  1  0  0  0
 33 28  1  0  0  0
 36 31  1  0  0  0
 26 27  1  0  0  0
 35 37  1  0  0  0
 21 23  1  0  0  0
M  END
> <minimizedAffinity>
-8.40709

> <minimizedRMSD>
0.23790

$$$$
P29485


 41 46  0  0  0  0  0  0  0  0999 V2000
   -5.5711    5.8154  -17.3359 N   0  0  0  0  0  0  0  0  0  0  0  0
   -5.1644    6.2142  -16.0761 C   0  0  0  0  0  0  0  0  0  0  0  0
   -6.0959    5.9177  -15.1877 N   0  0  0  0  0  0  0  0  0  0  0  0
   -7.1047    5.2877  -15.8554 C   0  0  0  0  0  0  0  0  0  0  0  0
   -8.3238    4.7802  -15.3737 C   0  0  0  0  0  0  0  0  0  0  0  0
   -9.1698    4.0817  -16.2360 C   0  0  0  0  0  0  0  0  0  0  0  0
   -8.8169    3.9355  -17.5689 C   0  0  0  0  0  0  0  0  0  0  0  0
   -9.6593    3.2995  -18.3914 F   0  0  0  0  0  0  0  0  0  0  0  0
   -7.6296    4.4590  -18.0879 C   0  0  0  0  0  0  0  0  0  0  0  0
   -6.7844    5.1508  -17.2045 C   0  0  0  0  0  0  0  0  0  0  0  0
   -3.9139    6.8485  -15.6879 C   0  0  0  0  0  0  0  0  0  0  0  0
   -2.8637    6.1091  -15.1664 C   0  0  0  0  0  0  0  0  0  0  0  0
   -1.7367    6.7810  -14.7053 C   0  0  0  0  0  0  0  0  0  0  0  0
   -1.7319    8.1601  -14.7607 C   0  0  0  0  0  0  0  0  0  0  0  0
   -2.7869    8.8647  -15.2234 N   0  0  0  0  0  0  0  0  0  0  0  0
   -3.8962    8.1971  -15.6748 N   0  0  0  0  0  0  0  0  0  0  0  0
   -0.5988    8.8007  -14.3013 O   0  0  0  0  0  0  0  0  0  0  0  0
   -0.5763   10.1857  -14.6301 C   0  0  0  0  0  0  0  0  0  0  0  0
   -3.5332    6.7242  -18.7207 C   0  0  0  0  0  0  0  0  0  0  0  0
   -3.9963    7.0209  -20.1109 N   0  0  0  0  0  0  0  0  0  0  0  0
   -5.3377    6.6003  -19.6996 C   0  0  0  0  0  0  0  0  0  0  0  0
   -4.7616    5.7745  -18.5720 C   0  0  0  0  0  0  0  0  0  0  0  0
   -3.5721    6.4377  -20.8322 H   0  0  0  0  0  0  0  0  0  0  0  0
   -2.0650    6.2644  -18.7468 C   0  0  0  0  0  0  0  0  0  0  0  0
   -2.4957    3.9935  -19.4468 C   0  0  0  0  0  0  0  0  0  0  0  0
   -1.8453    4.8424  -18.4653 N   0  0  0  0  0  0  0  0  0  0  0  0
   -0.8429    4.6541  -18.4779 H   0  0  0  0  0  0  0  0  0  0  0  0
   -8.7537    5.1190  -14.0039 C   0  0  0  0  0  0  0  0  0  0  0  0
   -9.5226    5.9869  -13.8686 O   0  0  0  0  0  0  0  0  0  0  0  0
   -8.1209    4.1705  -12.9619 N   0  0  0  0  0  0  0  0  0  0  0  0
   -7.5511    3.4629  -13.3412 H   0  0  0  0  0  0  0  0  0  0  0  0
   -8.2250    4.1535  -11.5737 C   0  0  0  0  0  0  0  0  0  0  0  0
   -7.9618    5.3068  -10.8152 C   0  0  0  0  0  0  0  0  0  0  0  0
   -8.0833    5.2936   -9.4224 C   0  0  0  0  0  0  0  0  0  0  0  0
   -8.4877    4.1203   -8.8160 C   0  0  0  0  0  0  0  0  0  0  0  0
   -8.7386    2.9737   -9.5641 C   0  0  0  0  0  0  0  0  0  0  0  0
   -8.6006    2.9666  -10.9416 C   0  0  0  0  0  0  0  0  0  0  0  0
   -9.1291    1.8689   -8.6392 C   0  0  0  0  0  0  0  0  0  0  0  0
   -9.4760    2.5439   -7.3601 N   0  0  0  0  0  0  0  0  0  0  0  0
   -8.7258    3.8195   -7.3744 C   0  0  0  0  0  0  0  0  0  0  0  0
   -9.1915    1.9712   -6.5654 H   0  0  0  0  0  0  0  0  0  0  0  0
 25 26  1  0  0  0
 26 24  1  0  0  0
 19 24  1  0  0  0
 19 20  1  0  0  0
 20 21  1  0  0  0
 21 22  1  0  0  0
 22  1  1  0  0  0
  1  2  1  0  0  0
  2 11  1  0  0  0
 11 12  2  0  0  0
 12 13  1  0  0  0
 13 14  2  0  0  0
 14 17  1  0  0  0
 17 18  1  0  0  0
 14 15  1  0  0  0
 15 16  2  0  0  0
  2  3  2  0  0  0
  3  4  1  0  0  0
  4  5  2  0  0  0
  5 28  1  0  0  0
 28 29  2  0  0  0
 28 30  1  0  0  0
 30 32  1  0  0  0
 32 33  2  0  0  0
 33 34  1  0  0  0
 34 35  2  0  0  0
 35 36  1  0  0  0
 36 37  2  0  0  0
 36 38  1  0  0  0
 38 39  1  0  0  0
 39 40  1  0  0  0
  5  6  1  0  0  0
  6  7  2  0  0  0
  7  8  1  0  0  0
  7  9  1  0  0  0
  9 10  2  0  0  0
 22 19  1  0  0  0
 10  1  1  0  0  0
 16 11  1  0  0  0
 10  4  1  0  0  0
 37 32  1  0  0  0
 40 35  1  0  0  0
 26 27  1  0  0  0
 20 23  1  0  0  0
 30 31  1  0  0  0
 39 41  1  0  0  0
M  END
> <minimizedAffinity>
-7.90934

> <minimizedRMSD>
1.04124

$$$$
P29523


 29 33  0  0  0  0  0  0  0  0999 V2000
   -7.4092    4.5075  -15.0444 C   0  0  0  0  0  0  0  0  0  0  0  0
   -8.6479    4.1655  -15.6150 C   0  0  0  0  0  0  0  0  0  0  0  0
   -8.8192    4.1687  -16.9931 C   0  0  0  0  0  0  0  0  0  0  0  0
  -10.0251    3.8921  -17.5094 F   0  0  0  0  0  0  0  0  0  0  0  0
   -7.7738    4.4724  -17.8575 C   0  0  0  0  0  0  0  0  0  0  0  0
   -6.5346    4.7935  -17.2876 C   0  0  0  0  0  0  0  0  0  0  0  0
   -6.3353    4.8186  -15.9075 C   0  0  0  0  0  0  0  0  0  0  0  0
   -4.9813    5.1999  -15.7609 C   0  0  0  0  0  0  0  0  0  0  0  0
   -4.3674    5.4036  -16.9262 N   0  0  0  0  0  0  0  0  0  0  0  0
   -5.3128    5.1121  -17.8392 N   0  0  0  0  0  0  0  0  0  0  0  0
   -5.0561    5.0896  -19.2827 C   0  0  0  0  0  0  0  0  0  0  0  0
   -3.5731    4.9824  -19.6985 C   0  0  0  0  0  0  0  0  0  0  0  0
   -3.9002    5.9244  -20.8194 N   0  0  0  0  0  0  0  0  0  0  0  0
   -4.9571    6.4784  -19.9203 C   0  0  0  0  0  0  0  0  0  0  0  0
   -4.2489    5.4778  -21.6675 H   0  0  0  0  0  0  0  0  0  0  0  0
   -7.2036    4.6237  -13.5796 C   0  0  0  0  0  0  0  0  0  0  0  0
   -6.1224    4.3809  -13.0535 O   0  0  0  0  0  0  0  0  0  0  0  0
   -8.9486    6.1282  -13.1912 O   0  0  0  0  0  0  0  0  0  0  0  0
   -8.2589    5.2328  -12.7113 C   0  0  0  0  0  0  0  0  0  0  0  0
   -8.2386    4.9242  -11.2689 C   0  0  0  0  0  0  0  0  0  0  0  0
   -7.9453    5.9614  -10.3979 C   0  0  0  0  0  0  0  0  0  0  0  0
   -8.0642    5.7113   -9.0424 C   0  0  0  0  0  0  0  0  0  0  0  0
   -8.4989    4.4512   -8.6172 C   0  0  0  0  0  0  0  0  0  0  0  0
   -8.6928    4.1785   -7.2548 C   0  0  0  0  0  0  0  0  0  0  0  0
   -9.1515    2.9300   -6.8744 C   0  0  0  0  0  0  0  0  0  0  0  0
   -9.3828    2.0087   -7.8752 C   0  0  0  0  0  0  0  0  0  0  0  0
   -9.2153    2.2581   -9.1946 N   0  0  0  0  0  0  0  0  0  0  0  0
   -8.7739    3.4512   -9.5801 C   0  0  0  0  0  0  0  0  0  0  0  0
   -8.6244    3.6882  -10.8900 N   0  0  0  0  0  0  0  0  0  0  0  0
 18 19  2  0  0  0
 19 16  1  0  0  0
 16 17  2  0  0  0
 16  1  1  0  0  0
  1  2  2  0  0  0
  2  3  1  0  0  0
  3  4  1  0  0  0
  3  5  2  0  0  0
  5  6  1  0  0  0
  6  7  2  0  0  0
  7  8  1  0  0  0
  8  9  2  0  0  0
  9 10  1  0  0  0
 10 11  1  0  0  0
 11 12  1  0  0  0
 12 13  1  0  0  0
 13 14  1  0  0  0
 19 20  1  0  0  0
 20 21  2  0  0  0
 21 22  1  0  0  0
 22 23  2  0  0  0
 23 24  1  0  0  0
 24 25  2  0  0  0
 25 26  1  0  0  0
 26 27  2  0  0  0
 27 28  1  0  0  0
 28 29  2  0  0  0
  7  1  1  0  0  0
 14 11  1  0  0  0
 29 20  1  0  0  0
 10  6  1  0  0  0
 28 23  1  0  0  0
 13 15  1  0  0  0
M  END
> <minimizedAffinity>
-9.14231

> <minimizedRMSD>
0.38169

$$$$
P29607


 31 34  0  0  0  0  0  0  0  0999 V2000
   -8.2970    4.3187  -17.6647 C   0  0  0  0  0  0  0  0  0  0  0  0
   -8.8353    4.3365  -16.3674 C   0  0  0  0  0  0  0  0  0  0  0  0
   -8.0833    4.7947  -15.2890 C   0  0  0  0  0  0  0  0  0  0  0  0
   -6.7452    5.1508  -15.4352 C   0  0  0  0  0  0  0  0  0  0  0  0
   -6.1650    5.0913  -16.7090 C   0  0  0  0  0  0  0  0  0  0  0  0
   -4.8337    5.2985  -17.1840 C   0  0  0  0  0  0  0  0  0  0  0  0
   -4.8966    5.2163  -18.5612 C   0  0  0  0  0  0  0  0  0  0  0  0
   -6.1849    4.8971  -18.9127 N   0  0  0  0  0  0  0  0  0  0  0  0
   -6.9628    4.7335  -17.7900 C   0  0  0  0  0  0  0  0  0  0  0  0
   -6.5067    4.7990  -19.8380 H   0  0  0  0  0  0  0  0  0  0  0  0
   -8.6723    5.0351  -13.9587 C   0  0  0  0  0  0  0  0  0  0  0  0
   -9.4198    5.9229  -13.8403 O   0  0  0  0  0  0  0  0  0  0  0  0
   -8.0847    4.0770  -12.9057 N   0  0  0  0  0  0  0  0  0  0  0  0
   -7.5271    3.3533  -13.2725 H   0  0  0  0  0  0  0  0  0  0  0  0
   -8.2135    4.0678  -11.5204 C   0  0  0  0  0  0  0  0  0  0  0  0
   -7.9689    5.2344  -10.7770 C   0  0  0  0  0  0  0  0  0  0  0  0
   -8.1024    5.2392   -9.3865 C   0  0  0  0  0  0  0  0  0  0  0  0
   -8.5033    4.0731   -8.7627 C   0  0  0  0  0  0  0  0  0  0  0  0
   -8.7367    2.9186   -9.4957 C   0  0  0  0  0  0  0  0  0  0  0  0
   -8.5795    2.8886  -10.8734 C   0  0  0  0  0  0  0  0  0  0  0  0
   -9.1364    1.8231   -8.5670 C   0  0  0  0  0  0  0  0  0  0  0  0
   -9.3371    2.4584   -7.2380 N   0  0  0  0  0  0  0  0  0  0  0  0
   -8.7539    3.8125   -7.3187 C   0  0  0  0  0  0  0  0  0  0  0  0
   -8.8653    1.9157   -6.5147 H   0  0  0  0  0  0  0  0  0  0  0  0
   -3.6327    5.5469  -16.3453 C   0  0  0  0  0  0  0  0  0  0  0  0
   -3.6549    4.6614  -15.1863 N   0  0  0  0  0  0  0  0  0  0  0  0
   -4.4950    4.8416  -14.6367 H   0  0  0  0  0  0  0  0  0  0  0  0
   -2.8296    4.8326  -14.6118 H   0  0  0  0  0  0  0  0  0  0  0  0
  -10.4427    4.2710  -18.7303 C   0  0  0  0  0  0  0  0  0  0  0  0
   -9.0312    3.9098  -18.7828 N   0  0  0  0  0  0  0  0  0  0  0  0
   -8.6305    3.4216  -19.5380 H   0  0  0  0  0  0  0  0  0  0  0  0
 29 30  1  0  0  0
 30  1  1  0  0  0
  1  2  2  0  0  0
  2  3  1  0  0  0
  3 11  1  0  0  0
 11 12  2  0  0  0
 11 13  1  0  0  0
 13 15  1  0  0  0
 15 16  2  0  0  0
 16 17  1  0  0  0
 17 18  2  0  0  0
 18 19  1  0  0  0
 19 20  2  0  0  0
 19 21  1  0  0  0
 21 22  1  0  0  0
 22 23  1  0  0  0
  3  4  2  0  0  0
  4  5  1  0  0  0
  5  6  1  0  0  0
  6 25  1  0  0  0
 25 26  1  0  0  0
  6  7  2  0  0  0
  7  8  1  0  0  0
  8  9  1  0  0  0
  9  1  1  0  0  0
 20 15  1  0  0  0
  9  5  2  0  0  0
 23 18  1  0  0  0
 30 31  1  0  0  0
 13 14  1  0  0  0
 22 24  1  0  0  0
 26 27  1  0  0  0
 26 28  1  0  0  0
  8 10  1  0  0  0
M  END
> <minimizedAffinity>
-9.58806

> <minimizedRMSD>
0.54163

$$$$
P29611


 31 34  0  0  0  0  0  0  0  0999 V2000
   -7.2810    4.6502  -13.4049 C   0  0  0  0  0  0  0  0  0  0  0  0
   -7.0792    5.9764  -12.9536 O   0  0  0  0  0  0  0  0  0  0  0  0
   -6.2040    3.9694  -12.9413 F   0  0  0  0  0  0  0  0  0  0  0  0
   -6.2798    6.3400  -13.3655 H   0  0  0  0  0  0  0  0  0  0  0  0
   -4.8312    5.4104  -17.7470 C   0  0  0  0  0  0  0  0  0  0  0  0
   -5.2767    5.1939  -19.0339 C   0  0  0  0  0  0  0  0  0  0  0  0
   -6.5678    4.7354  -18.9822 N   0  0  0  0  0  0  0  0  0  0  0  0
   -6.9999    4.6537  -17.6868 C   0  0  0  0  0  0  0  0  0  0  0  0
   -8.2218    4.2466  -17.1374 C   0  0  0  0  0  0  0  0  0  0  0  0
   -9.5255    3.7436  -18.1363 Cl  0  0  0  0  0  0  0  0  0  0  0  0
   -8.3610    4.2690  -15.7412 C   0  0  0  0  0  0  0  0  0  0  0  0
   -7.3110    4.6831  -14.9151 C   0  0  0  0  0  0  0  0  0  0  0  0
   -6.1189    5.1033  -15.5196 C   0  0  0  0  0  0  0  0  0  0  0  0
   -5.9370    5.0876  -16.9033 C   0  0  0  0  0  0  0  0  0  0  0  0
   -7.1094    4.4977  -19.7692 H   0  0  0  0  0  0  0  0  0  0  0  0
   -2.9358    5.2341  -16.2012 N   0  0  0  0  0  0  0  0  0  0  0  0
   -3.4732    5.8992  -17.3777 C   0  0  0  0  0  0  0  0  0  0  0  0
   -2.0087    5.6055  -15.9944 H   0  0  0  0  0  0  0  0  0  0  0  0
   -2.8688    4.2318  -16.3781 H   0  0  0  0  0  0  0  0  0  0  0  0
   -8.4646    4.0846  -12.8074 N   0  0  0  0  0  0  0  0  0  0  0  0
   -9.2329    3.7637  -13.3328 H   0  0  0  0  0  0  0  0  0  0  0  0
   -8.4173    4.0341  -11.3882 C   0  0  0  0  0  0  0  0  0  0  0  0
   -8.1513    5.2035  -10.6393 C   0  0  0  0  0  0  0  0  0  0  0  0
   -8.1618    5.1978   -9.2420 C   0  0  0  0  0  0  0  0  0  0  0  0
   -8.4764    4.0143   -8.6057 C   0  0  0  0  0  0  0  0  0  0  0  0
   -8.7069    2.8479   -9.3292 C   0  0  0  0  0  0  0  0  0  0  0  0
   -8.6575    2.8317  -10.7126 C   0  0  0  0  0  0  0  0  0  0  0  0
   -9.0166    1.7405   -8.3786 C   0  0  0  0  0  0  0  0  0  0  0  0
   -9.3625    2.4214   -7.1025 N   0  0  0  0  0  0  0  0  0  0  0  0
   -8.6736    3.7308   -7.1545 C   0  0  0  0  0  0  0  0  0  0  0  0
   -9.0322    1.8760   -6.3063 H   0  0  0  0  0  0  0  0  0  0  0  0
 16 17  1  0  0  0
 17  5  1  0  0  0
  5  6  2  0  0  0
  6  7  1  0  0  0
  7  8  1  0  0  0
  8  9  2  0  0  0
  9 10  1  0  0  0
  9 11  1  0  0  0
 11 12  2  0  0  0
 12  1  1  0  0  0
  1  2  1  0  0  0
  1  3  1  0  0  0
  1 20  1  0  0  0
 20 22  1  0  0  0
 22 23  2  0  0  0
 23 24  1  0  0  0
 24 25  2  0  0  0
 25 26  1  0  0  0
 26 27  2  0  0  0
 26 28  1  0  0  0
 28 29  1  0  0  0
 29 30  1  0  0  0
 12 13  1  0  0  0
 13 14  2  0  0  0
 14  5  1  0  0  0
 14  8  1  0  0  0
 27 22  1  0  0  0
 30 25  1  0  0  0
 16 18  1  0  0  0
 16 19  1  0  0  0
  7 15  1  0  0  0
  2  4  1  0  0  0
 20 21  1  0  0  0
 29 31  1  0  0  0
M  END
> <minimizedAffinity>
-8.63560

> <minimizedRMSD>
0.33630

$$$$
P29612


 30 33  0  0  0  0  0  0  0  0999 V2000
   -8.3659    4.2596  -17.6337 C   0  0  0  0  0  0  0  0  0  0  0  0
   -8.8503    4.2474  -16.3136 C   0  0  0  0  0  0  0  0  0  0  0  0
   -8.0374    4.6164  -15.2543 C   0  0  0  0  0  0  0  0  0  0  0  0
   -6.6910    4.9006  -15.4434 C   0  0  0  0  0  0  0  0  0  0  0  0
   -6.1835    4.9338  -16.7517 C   0  0  0  0  0  0  0  0  0  0  0  0
   -4.8975    5.2388  -17.2828 C   0  0  0  0  0  0  0  0  0  0  0  0
   -5.0179    5.2198  -18.6574 C   0  0  0  0  0  0  0  0  0  0  0  0
   -6.3021    4.8463  -18.9716 N   0  0  0  0  0  0  0  0  0  0  0  0
   -7.0296    4.6492  -17.8174 C   0  0  0  0  0  0  0  0  0  0  0  0
   -6.6510    4.7358  -19.8855 H   0  0  0  0  0  0  0  0  0  0  0  0
   -8.6016    4.9136  -13.9280 C   0  0  0  0  0  0  0  0  0  0  0  0
   -9.3444    5.8081  -13.8368 O   0  0  0  0  0  0  0  0  0  0  0  0
   -8.0475    3.9631  -12.8524 N   0  0  0  0  0  0  0  0  0  0  0  0
   -7.4871    3.2313  -13.1984 H   0  0  0  0  0  0  0  0  0  0  0  0
   -8.2092    3.9693  -11.4716 C   0  0  0  0  0  0  0  0  0  0  0  0
   -7.9495    5.1344  -10.7288 C   0  0  0  0  0  0  0  0  0  0  0  0
   -8.1043    5.1508   -9.3414 C   0  0  0  0  0  0  0  0  0  0  0  0
   -8.5237    3.9900   -8.7218 C   0  0  0  0  0  0  0  0  0  0  0  0
   -8.7697    2.8340   -9.4541 C   0  0  0  0  0  0  0  0  0  0  0  0
   -8.6171    2.8009  -10.8304 C   0  0  0  0  0  0  0  0  0  0  0  0
   -9.1443    1.7341   -8.5221 C   0  0  0  0  0  0  0  0  0  0  0  0
   -9.3724    2.3771   -7.2039 N   0  0  0  0  0  0  0  0  0  0  0  0
   -8.7728    3.7252   -7.2770 C   0  0  0  0  0  0  0  0  0  0  0  0
   -8.9251    1.8334   -6.4659 H   0  0  0  0  0  0  0  0  0  0  0  0
   -3.6878    5.5055  -16.4721 C   0  0  0  0  0  0  0  0  0  0  0  0
   -2.5324    5.5686  -17.3509 N   0  0  0  0  0  0  0  0  0  0  0  0
   -2.4306    4.6809  -17.8428 H   0  0  0  0  0  0  0  0  0  0  0  0
   -1.6943    5.7491  -16.7982 H   0  0  0  0  0  0  0  0  0  0  0  0
  -10.6710    4.3049  -18.3847 C   0  0  0  0  0  0  0  0  0  0  0  0
   -9.2813    3.8957  -18.7659 C   0  0  0  0  0  0  0  0  0  0  0  0
 29 30  1  0  0  0
 30  1  1  0  0  0
  1  2  2  0  0  0
  2  3  1  0  0  0
  3 11  1  0  0  0
 11 12  2  0  0  0
 11 13  1  0  0  0
 13 15  1  0  0  0
 15 16  2  0  0  0
 16 17  1  0  0  0
 17 18  2  0  0  0
 18 19  1  0  0  0
 19 20  2  0  0  0
 19 21  1  0  0  0
 21 22  1  0  0  0
 22 23  1  0  0  0
  3  4  2  0  0  0
  4  5  1  0  0  0
  5  6  1  0  0  0
  6 25  1  0  0  0
 25 26  1  0  0  0
  6  7  2  0  0  0
  7  8  1  0  0  0
  8  9  1  0  0  0
  9  1  1  0  0  0
 20 15  1  0  0  0
  9  5  2  0  0  0
 23 18  1  0  0  0
 13 14  1  0  0  0
 22 24  1  0  0  0
 26 27  1  0  0  0
 26 28  1  0  0  0
  8 10  1  0  0  0
M  END
> <minimizedAffinity>
-9.96673

> <minimizedRMSD>
0.82020

$$$$
P29628


 41 45  0  0  0  0  0  0  0  0999 V2000
   -4.7328    5.2327  -17.1617 C   0  0  0  0  0  0  0  0  0  0  0  0
   -6.1331    4.9258  -16.7091 C   0  0  0  0  0  0  0  0  0  0  0  0
   -6.6348    4.7629  -15.4306 C   0  0  0  0  0  0  0  0  0  0  0  0
   -7.9923    4.4928  -15.2805 C   0  0  0  0  0  0  0  0  0  0  0  0
   -8.8024    4.2284  -16.3828 C   0  0  0  0  0  0  0  0  0  0  0  0
   -8.2755    4.3832  -17.6702 C   0  0  0  0  0  0  0  0  0  0  0  0
   -9.3157    4.0958  -19.0065 Cl  0  0  0  0  0  0  0  0  0  0  0  0
   -6.9615    4.8284  -17.8258 C   0  0  0  0  0  0  0  0  0  0  0  0
   -6.3588    5.4286  -18.9395 N   0  0  0  0  0  0  0  0  0  0  0  0
   -4.9742    5.7101  -18.6319 C   0  0  0  0  0  0  0  0  0  0  0  0
   -4.1798    4.9521  -19.5085 O   0  0  0  0  0  0  0  0  0  0  0  0
   -6.8061    5.6269  -19.7938 H   0  0  0  0  0  0  0  0  0  0  0  0
   -4.3302    5.2489  -20.4197 H   0  0  0  0  0  0  0  0  0  0  0  0
   -2.9981    5.4545  -15.3657 N   0  0  0  0  0  0  0  0  0  0  0  0
   -3.9266    6.1580  -16.2621 C   0  0  0  0  0  0  0  0  0  0  0  0
   -2.4947    6.1344  -14.7960 H   0  0  0  0  0  0  0  0  0  0  0  0
   -2.3324    4.9162  -15.9202 H   0  0  0  0  0  0  0  0  0  0  0  0
   -8.5615    4.7939  -13.9556 C   0  0  0  0  0  0  0  0  0  0  0  0
   -9.2556    5.7265  -13.8694 O   0  0  0  0  0  0  0  0  0  0  0  0
   -8.0349    3.8403  -12.8724 N   0  0  0  0  0  0  0  0  0  0  0  0
   -7.5197    3.0738  -13.2133 H   0  0  0  0  0  0  0  0  0  0  0  0
   -8.1674    3.8835  -11.4883 C   0  0  0  0  0  0  0  0  0  0  0  0
   -7.9816    5.0957  -10.7958 C   0  0  0  0  0  0  0  0  0  0  0  0
   -8.1406    5.1679   -9.4095 C   0  0  0  0  0  0  0  0  0  0  0  0
   -8.5388    4.0234   -8.7500 C   0  0  0  0  0  0  0  0  0  0  0  0
   -8.7278    2.8189   -9.4381 C   0  0  0  0  0  0  0  0  0  0  0  0
   -8.5046    2.7199  -10.8001 C   0  0  0  0  0  0  0  0  0  0  0  0
   -9.2497    1.7920   -8.4758 C   0  0  0  0  0  0  0  0  0  0  0  0
   -9.7938    2.6329   -7.3767 N   0  0  0  0  0  0  0  0  0  0  0  0
   -9.9504    1.9360   -6.1441 N   0  0  0  0  0  0  0  0  0  0  0  0
   -8.9122    3.8196   -7.3133 C   0  0  0  0  0  0  0  0  0  0  0  0
  -10.5703    1.1377   -6.2813 H   0  0  0  0  0  0  0  0  0  0  0  0
  -10.3527    2.5632   -5.4476 H   0  0  0  0  0  0  0  0  0  0  0  0
   -4.5675    7.0463  -18.8628 O   0  0  0  0  0  0  0  0  0  0  0  0
   -5.3911    7.8018  -19.7210 C   0  0  0  0  0  0  0  0  0  0  0  0
   -5.5742    9.1997  -19.1713 C   0  0  0  0  0  0  0  0  0  0  0  0
   -5.9980   10.2474  -20.0028 C   0  0  0  0  0  0  0  0  0  0  0  0
   -6.2099   11.5285  -19.4871 C   0  0  0  0  0  0  0  0  0  0  0  0
   -6.0078   11.7784  -18.1323 C   0  0  0  0  0  0  0  0  0  0  0  0
   -5.5925   10.7487  -17.2928 C   0  0  0  0  0  0  0  0  0  0  0  0
   -5.3803    9.4685  -17.8081 C   0  0  0  0  0  0  0  0  0  0  0  0
 14 15  1  0  0  0
  1 15  1  0  0  0
  1  2  1  0  0  0
  2  3  2  0  0  0
  3  4  1  0  0  0
  4 18  1  0  0  0
 18 19  2  0  0  0
 18 20  1  0  0  0
 20 22  1  0  0  0
 22 23  2  0  0  0
 23 24  1  0  0  0
 24 25  2  0  0  0
 25 26  1  0  0  0
 26 27  2  0  0  0
 26 28  1  0  0  0
 28 29  1  0  0  0
 29 30  1  0  0  0
 29 31  1  0  0  0
  4  5  2  0  0  0
  5  6  1  0  0  0
  6  7  1  0  0  0
  6  8  2  0  0  0
  8  9  1  0  0  0
  9 10  1  0  0  0
 10 11  1  0  0  0
 10 34  1  0  0  0
 34 35  1  0  0  0
 35 36  1  0  0  0
 36 37  2  0  0  0
 37 38  1  0  0  0
 38 39  2  0  0  0
 39 40  1  0  0  0
 40 41  2  0  0  0
 10  1  1  0  0  0
 41 36  1  0  0  0
  8  2  1  0  0  0
 27 22  1  0  0  0
 31 25  1  0  0  0
 14 16  1  0  0  0
 14 17  1  0  0  0
 20 21  1  0  0  0
 30 32  1  0  0  0
 30 33  1  0  0  0
  9 12  1  0  0  0
 11 13  1  0  0  0
M  END
> <minimizedAffinity>
-10.21286

> <minimizedRMSD>
0.94748

$$$$
P29630


 30 33  0  0  0  0  0  0  0  0999 V2000
   -5.0411    5.2509  -17.3808 C   0  0  0  0  0  0  0  0  0  0  0  0
   -5.2191    5.1408  -18.7500 C   0  0  0  0  0  0  0  0  0  0  0  0
   -6.4970    4.7257  -19.0048 N   0  0  0  0  0  0  0  0  0  0  0  0
   -7.1928    4.5946  -17.8326 C   0  0  0  0  0  0  0  0  0  0  0  0
   -8.5177    4.2130  -17.5998 C   0  0  0  0  0  0  0  0  0  0  0  0
   -9.5551    3.8322  -18.9069 Cl  0  0  0  0  0  0  0  0  0  0  0  0
   -9.0010    4.2474  -16.2926 C   0  0  0  0  0  0  0  0  0  0  0  0
   -8.1891    4.7273  -15.2790 C   0  0  0  0  0  0  0  0  0  0  0  0
   -6.8591    5.0707  -15.5150 C   0  0  0  0  0  0  0  0  0  0  0  0
   -6.3293    4.9838  -16.8100 C   0  0  0  0  0  0  0  0  0  0  0  0
   -6.8636    4.5471  -19.9009 H   0  0  0  0  0  0  0  0  0  0  0  0
   -3.4774    4.9134  -15.3658 C   0  0  0  0  0  0  0  0  0  0  0  0
   -3.7741    5.6489  -16.6693 C   0  0  0  0  0  0  0  0  0  0  0  0
   -2.6403    5.4346  -17.5768 N   0  0  0  0  0  0  0  0  0  0  0  0
   -2.5609    4.4409  -17.7930 H   0  0  0  0  0  0  0  0  0  0  0  0
   -1.7814    5.7549  -17.1294 H   0  0  0  0  0  0  0  0  0  0  0  0
   -8.6874    5.0541  -13.9313 C   0  0  0  0  0  0  0  0  0  0  0  0
   -9.4159    5.9585  -13.8243 O   0  0  0  0  0  0  0  0  0  0  0  0
   -8.0458    4.1581  -12.8589 N   0  0  0  0  0  0  0  0  0  0  0  0
   -7.3986    3.5014  -13.2040 H   0  0  0  0  0  0  0  0  0  0  0  0
   -8.2307    4.1242  -11.4819 C   0  0  0  0  0  0  0  0  0  0  0  0
   -8.0238    5.2776  -10.7055 C   0  0  0  0  0  0  0  0  0  0  0  0
   -8.1626    5.2410   -9.3167 C   0  0  0  0  0  0  0  0  0  0  0  0
   -8.5349    4.0457   -8.7328 C   0  0  0  0  0  0  0  0  0  0  0  0
   -8.7478    2.9069   -9.5008 C   0  0  0  0  0  0  0  0  0  0  0  0
   -8.5834    2.9202  -10.8757 C   0  0  0  0  0  0  0  0  0  0  0  0
   -9.1191    1.7719   -8.6105 C   0  0  0  0  0  0  0  0  0  0  0  0
   -9.3408    2.3643   -7.2653 N   0  0  0  0  0  0  0  0  0  0  0  0
   -8.7615    3.7230   -7.2967 C   0  0  0  0  0  0  0  0  0  0  0  0
   -8.8767    1.8010   -6.5527 H   0  0  0  0  0  0  0  0  0  0  0  0
 13 12  1  0  0  0
 13 14  1  0  0  0
 13  1  1  0  0  0
  1  2  2  0  0  0
  2  3  1  0  0  0
  3  4  1  0  0  0
  4  5  2  0  0  0
  5  6  1  0  0  0
  5  7  1  0  0  0
  7  8  2  0  0  0
  8 17  1  0  0  0
 17 18  2  0  0  0
 17 19  1  0  0  0
 19 21  1  0  0  0
 21 22  2  0  0  0
 22 23  1  0  0  0
 23 24  2  0  0  0
 24 25  1  0  0  0
 25 26  2  0  0  0
 25 27  1  0  0  0
 27 28  1  0  0  0
 28 29  1  0  0  0
  8  9  1  0  0  0
  9 10  2  0  0  0
 10  1  1  0  0  0
 10  4  1  0  0  0
 26 21  1  0  0  0
 29 24  1  0  0  0
 14 15  1  0  0  0
 14 16  1  0  0  0
  3 11  1  0  0  0
 19 20  1  0  0  0
 28 30  1  0  0  0
M  END
> <minimizedAffinity>
-9.83475

> <minimizedRMSD>
0.62288

$$$$
P29631


 34 37  0  0  0  0  0  0  0  0999 V2000
   -4.9957    5.2054  -17.4677 C   0  0  0  0  0  0  0  0  0  0  0  0
   -5.2810    5.1390  -18.8148 C   0  0  0  0  0  0  0  0  0  0  0  0
   -6.5755    4.7588  -18.9734 N   0  0  0  0  0  0  0  0  0  0  0  0
   -7.1709    4.6004  -17.7509 C   0  0  0  0  0  0  0  0  0  0  0  0
   -8.4839    4.2474  -17.4624 C   0  0  0  0  0  0  0  0  0  0  0  0
   -9.6008    3.9260  -18.7223 Cl  0  0  0  0  0  0  0  0  0  0  0  0
   -8.8789    4.2795  -16.1369 C   0  0  0  0  0  0  0  0  0  0  0  0
   -7.9701    4.6411  -15.1424 C   0  0  0  0  0  0  0  0  0  0  0  0
   -6.5961    4.8686  -15.3979 C   0  0  0  0  0  0  0  0  0  0  0  0
   -6.2189    4.8979  -16.7708 C   0  0  0  0  0  0  0  0  0  0  0  0
   -7.0202    4.6179  -19.8403 H   0  0  0  0  0  0  0  0  0  0  0  0
   -5.6548    5.1127  -14.3663 N   0  0  0  0  0  0  0  0  0  0  0  0
   -5.1737    4.0088  -13.6558 N   0  0  0  0  0  0  0  0  0  0  0  0
   -5.3511    6.0257  -14.1579 H   0  0  0  0  0  0  0  0  0  0  0  0
   -5.6043    3.1578  -14.0174 H   0  0  0  0  0  0  0  0  0  0  0  0
   -5.4047    4.1135  -12.6678 H   0  0  0  0  0  0  0  0  0  0  0  0
   -3.7502    6.8657  -16.2667 N   0  0  0  0  0  0  0  0  0  0  0  0
   -3.6713    5.5533  -16.8894 C   0  0  0  0  0  0  0  0  0  0  0  0
   -2.8430    7.1082  -15.8685 H   0  0  0  0  0  0  0  0  0  0  0  0
   -4.4527    6.8496  -15.5274 H   0  0  0  0  0  0  0  0  0  0  0  0
   -8.5464    4.9784  -13.8214 C   0  0  0  0  0  0  0  0  0  0  0  0
   -9.3341    5.8377  -13.7504 O   0  0  0  0  0  0  0  0  0  0  0  0
   -7.9836    4.0444  -12.7296 N   0  0  0  0  0  0  0  0  0  0  0  0
   -7.3781    3.3420  -13.0602 H   0  0  0  0  0  0  0  0  0  0  0  0
   -8.1922    4.0330  -11.3568 C   0  0  0  0  0  0  0  0  0  0  0  0
   -8.0094    5.1962  -10.5902 C   0  0  0  0  0  0  0  0  0  0  0  0
   -8.2123    5.1816   -9.2079 C   0  0  0  0  0  0  0  0  0  0  0  0
   -8.6268    3.9993   -8.6263 C   0  0  0  0  0  0  0  0  0  0  0  0
   -8.8047    2.8465   -9.3866 C   0  0  0  0  0  0  0  0  0  0  0  0
   -8.5732    2.8372  -10.7496 C   0  0  0  0  0  0  0  0  0  0  0  0
   -9.2377    1.7364   -8.4908 C   0  0  0  0  0  0  0  0  0  0  0  0
   -9.6837    2.4053   -7.2404 N   0  0  0  0  0  0  0  0  0  0  0  0
   -8.9520    3.6924   -7.2033 C   0  0  0  0  0  0  0  0  0  0  0  0
   -9.4478    1.8366   -6.4273 H   0  0  0  0  0  0  0  0  0  0  0  0
 17 18  1  0  0  0
 18  1  1  0  0  0
  1  2  2  0  0  0
  2  3  1  0  0  0
  3  4  1  0  0  0
  4  5  2  0  0  0
  5  6  1  0  0  0
  5  7  1  0  0  0
  7  8  2  0  0  0
  8 21  1  0  0  0
 21 22  2  0  0  0
 21 23  1  0  0  0
 23 25  1  0  0  0
 25 26  2  0  0  0
 26 27  1  0  0  0
 27 28  2  0  0  0
 28 29  1  0  0  0
 29 30  2  0  0  0
 29 31  1  0  0  0
 31 32  1  0  0  0
 32 33  1  0  0  0
  8  9  1  0  0  0
  9 12  1  0  0  0
 12 13  1  0  0  0
  9 10  2  0  0  0
 10  1  1  0  0  0
 10  4  1  0  0  0
 30 25  1  0  0  0
 33 28  1  0  0  0
 17 19  1  0  0  0
 17 20  1  0  0  0
  3 11  1  0  0  0
 23 24  1  0  0  0
 32 34  1  0  0  0
 12 14  1  0  0  0
 13 15  1  0  0  0
 13 16  1  0  0  0
M  END
> <minimizedAffinity>
-9.38957

> <minimizedRMSD>
0.59244

$$$$
P29632


 31 34  0  0  0  0  0  0  0  0999 V2000
   -4.9348    5.2055  -17.2926 C   0  0  0  0  0  0  0  0  0  0  0  0
   -5.0509    5.2631  -18.6696 C   0  0  0  0  0  0  0  0  0  0  0  0
   -6.3423    4.9503  -19.0117 N   0  0  0  0  0  0  0  0  0  0  0  0
   -7.0761    4.6689  -17.8817 C   0  0  0  0  0  0  0  0  0  0  0  0
   -8.4083    4.2701  -17.7105 C   0  0  0  0  0  0  0  0  0  0  0  0
   -9.4257    3.9524  -19.0514 Cl  0  0  0  0  0  0  0  0  0  0  0  0
   -8.9240    4.2132  -16.4121 C   0  0  0  0  0  0  0  0  0  0  0  0
   -8.1178    4.5441  -15.3338 C   0  0  0  0  0  0  0  0  0  0  0  0
   -6.7615    4.8117  -15.4991 C   0  0  0  0  0  0  0  0  0  0  0  0
   -6.2352    4.8948  -16.7956 C   0  0  0  0  0  0  0  0  0  0  0  0
   -6.6930    4.9301  -19.9315 H   0  0  0  0  0  0  0  0  0  0  0  0
   -3.7490    6.7431  -15.8888 N   0  0  0  0  0  0  0  0  0  0  0  0
   -3.7352    5.4216  -16.4518 C   0  0  0  0  0  0  0  0  0  0  0  0
   -2.5760    5.2747  -17.1407 F   0  0  0  0  0  0  0  0  0  0  0  0
   -3.6701    4.5652  -15.4054 F   0  0  0  0  0  0  0  0  0  0  0  0
   -2.9174    6.8762  -15.3133 H   0  0  0  0  0  0  0  0  0  0  0  0
   -4.5830    6.8587  -15.3131 H   0  0  0  0  0  0  0  0  0  0  0  0
   -8.6560    4.8578  -13.9988 C   0  0  0  0  0  0  0  0  0  0  0  0
   -9.3318    5.8033  -13.9039 O   0  0  0  0  0  0  0  0  0  0  0  0
   -8.1269    3.8986  -12.9209 N   0  0  0  0  0  0  0  0  0  0  0  0
   -7.6317    3.1217  -13.2679 H   0  0  0  0  0  0  0  0  0  0  0  0
   -8.2337    3.9494  -11.5336 C   0  0  0  0  0  0  0  0  0  0  0  0
   -7.9495    5.1372  -10.8367 C   0  0  0  0  0  0  0  0  0  0  0  0
   -8.0505    5.1952   -9.4444 C   0  0  0  0  0  0  0  0  0  0  0  0
   -8.4619    4.0592   -8.7749 C   0  0  0  0  0  0  0  0  0  0  0  0
   -8.7399    2.8833   -9.4625 C   0  0  0  0  0  0  0  0  0  0  0  0
   -8.6146    2.8025  -10.8399 C   0  0  0  0  0  0  0  0  0  0  0  0
   -9.1363    1.8271   -8.4890 C   0  0  0  0  0  0  0  0  0  0  0  0
   -9.3426    2.5273   -7.1962 N   0  0  0  0  0  0  0  0  0  0  0  0
   -8.6831    3.8436   -7.3167 C   0  0  0  0  0  0  0  0  0  0  0  0
   -8.9233    1.9923   -6.4358 H   0  0  0  0  0  0  0  0  0  0  0  0
 12 13  1  0  0  0
 13 14  1  0  0  0
 13 15  1  0  0  0
 13  1  1  0  0  0
  1  2  2  0  0  0
  2  3  1  0  0  0
  3  4  1  0  0  0
  4  5  2  0  0  0
  5  6  1  0  0  0
  5  7  1  0  0  0
  7  8  2  0  0  0
  8 18  1  0  0  0
 18 19  2  0  0  0
 18 20  1  0  0  0
 20 22  1  0  0  0
 22 23  2  0  0  0
 23 24  1  0  0  0
 24 25  2  0  0  0
 25 26  1  0  0  0
 26 27  2  0  0  0
 26 28  1  0  0  0
 28 29  1  0  0  0
 29 30  1  0  0  0
  8  9  1  0  0  0
  9 10  2  0  0  0
 10  1  1  0  0  0
 10  4  1  0  0  0
 27 22  1  0  0  0
 30 25  1  0  0  0
 12 16  1  0  0  0
 12 17  1  0  0  0
  3 11  1  0  0  0
 20 21  1  0  0  0
 29 31  1  0  0  0
M  END
> <minimizedAffinity>
-10.21074

> <minimizedRMSD>
0.59497

$$$$
P29641


 29 33  0  0  0  0  0  0  0  0999 V2000
   -4.8299    5.2458  -17.3257 C   0  0  0  0  0  0  0  0  0  0  0  0
   -5.1249    5.3911  -18.6711 C   0  0  0  0  0  0  0  0  0  0  0  0
   -6.4725    5.2116  -18.8517 N   0  0  0  0  0  0  0  0  0  0  0  0
   -7.0562    4.8969  -17.6536 C   0  0  0  0  0  0  0  0  0  0  0  0
   -6.0809    5.0058  -16.6823 C   0  0  0  0  0  0  0  0  0  0  0  0
   -6.3805    4.8431  -15.2349 C   0  0  0  0  0  0  0  0  0  0  0  0
   -7.8538    4.7323  -14.9340 C   0  0  0  0  0  0  0  0  0  0  0  0
   -8.7390    4.0907  -15.9802 C   0  0  0  0  0  0  0  0  0  0  0  0
   -8.4937    4.5626  -17.4211 C   0  0  0  0  0  0  0  0  0  0  0  0
   -9.1022    3.3725  -18.5759 Cl  0  0  0  0  0  0  0  0  0  0  0  0
   -8.4562    5.8152  -13.9653 N   0  0  0  0  0  0  0  0  0  0  0  0
   -8.2406    4.6554  -13.5709 C   0  0  0  0  0  0  0  0  0  0  0  0
   -6.9470    5.2960  -19.7102 H   0  0  0  0  0  0  0  0  0  0  0  0
   -3.1897    6.5877  -16.1112 N   0  0  0  0  0  0  0  0  0  0  0  0
   -3.4607    5.3035  -16.7387 C   0  0  0  0  0  0  0  0  0  0  0  0
   -2.2461    6.5845  -15.7239 H   0  0  0  0  0  0  0  0  0  0  0  0
   -3.8638    6.7495  -15.3630 H   0  0  0  0  0  0  0  0  0  0  0  0
   -8.2066    3.6504  -12.7107 N   0  0  0  0  0  0  0  0  0  0  0  0
   -8.1005    2.7462  -13.0853 H   0  0  0  0  0  0  0  0  0  0  0  0
   -8.3071    3.7519  -11.3198 C   0  0  0  0  0  0  0  0  0  0  0  0
   -8.0952    4.9600  -10.6272 C   0  0  0  0  0  0  0  0  0  0  0  0
   -8.2057    5.0269   -9.2332 C   0  0  0  0  0  0  0  0  0  0  0  0
   -8.5751    3.8831   -8.5507 C   0  0  0  0  0  0  0  0  0  0  0  0
   -8.8476    2.7064   -9.2307 C   0  0  0  0  0  0  0  0  0  0  0  0
   -8.7111    2.6211  -10.6023 C   0  0  0  0  0  0  0  0  0  0  0  0
   -9.3154    1.6668   -8.2763 C   0  0  0  0  0  0  0  0  0  0  0  0
   -9.0765    2.2249   -6.9198 N   0  0  0  0  0  0  0  0  0  0  0  0
   -8.7974    3.6689   -7.0942 C   0  0  0  0  0  0  0  0  0  0  0  0
   -8.2774    1.7628   -6.4858 H   0  0  0  0  0  0  0  0  0  0  0  0
 14 15  1  0  0  0
 15  1  1  0  0  0
  1  2  2  0  0  0
  2  3  1  0  0  0
  3  4  1  0  0  0
  4  5  2  0  0  0
  5  6  1  0  0  0
  7  6  1  0  0  0
  7  8  1  0  0  0
  8  9  1  0  0  0
  9 10  1  0  0  0
  7 11  1  0  0  0
 11 12  2  0  0  0
 12 18  1  0  0  0
 18 20  1  0  0  0
 20 21  2  0  0  0
 21 22  1  0  0  0
 22 23  2  0  0  0
 23 24  1  0  0  0
 24 25  2  0  0  0
 24 26  1  0  0  0
 26 27  1  0  0  0
 27 28  1  0  0  0
  5  1  1  0  0  0
 12  7  1  0  0  0
 25 20  1  0  0  0
  9  4  1  0  0  0
 28 23  1  0  0  0
 14 16  1  0  0  0
 14 17  1  0  0  0
  3 13  1  0  0  0
 18 19  1  0  0  0
 27 29  1  0  0  0
M  END
> <minimizedAffinity>
-9.41438

> <minimizedRMSD>
0.37248

$$$$
P29643


 34 37  0  0  0  0  0  0  0  0999 V2000
   -8.6304    4.9597  -14.0025 C   0  0  0  0  0  0  0  0  0  0  0  0
   -9.4265    5.8101  -13.9689 O   0  0  0  0  0  0  0  0  0  0  0  0
   -7.9479    4.1882  -12.8630 N   0  0  0  0  0  0  0  0  0  0  0  0
   -7.2456    3.5618  -13.1522 H   0  0  0  0  0  0  0  0  0  0  0  0
   -4.9361    5.2113  -17.3472 C   0  0  0  0  0  0  0  0  0  0  0  0
   -5.0604    5.2195  -18.7185 C   0  0  0  0  0  0  0  0  0  0  0  0
   -6.3510    4.8831  -19.0236 N   0  0  0  0  0  0  0  0  0  0  0  0
   -7.0791    4.6385  -17.8800 C   0  0  0  0  0  0  0  0  0  0  0  0
   -8.4190    4.2752  -17.6807 C   0  0  0  0  0  0  0  0  0  0  0  0
   -9.4777    3.9639  -18.9864 Cl  0  0  0  0  0  0  0  0  0  0  0  0
   -8.9186    4.2646  -16.3767 C   0  0  0  0  0  0  0  0  0  0  0  0
   -8.0839    4.5896  -15.3175 C   0  0  0  0  0  0  0  0  0  0  0  0
   -6.7244    4.8368  -15.5059 C   0  0  0  0  0  0  0  0  0  0  0  0
   -6.2190    4.8844  -16.8147 C   0  0  0  0  0  0  0  0  0  0  0  0
   -6.7112    4.8238  -19.9380 H   0  0  0  0  0  0  0  0  0  0  0  0
   -3.4868    6.9588  -16.6521 N   0  0  0  0  0  0  0  0  0  0  0  0
   -3.7303    5.5299  -16.5505 C   0  0  0  0  0  0  0  0  0  0  0  0
   -2.6582    7.2020  -16.1093 H   0  0  0  0  0  0  0  0  0  0  0  0
   -4.2927    7.4677  -16.2888 H   0  0  0  0  0  0  0  0  0  0  0  0
   -8.1604    4.2303  -11.4895 C   0  0  0  0  0  0  0  0  0  0  0  0
   -8.0504    5.4495  -10.7981 C   0  0  0  0  0  0  0  0  0  0  0  0
   -8.2628    5.5144   -9.4192 C   0  0  0  0  0  0  0  0  0  0  0  0
   -8.6173    4.3527   -8.7576 C   0  0  0  0  0  0  0  0  0  0  0  0
   -8.7322    3.1476   -9.4471 C   0  0  0  0  0  0  0  0  0  0  0  0
   -8.4779    3.0589  -10.8072 C   0  0  0  0  0  0  0  0  0  0  0  0
   -9.1517    2.0706   -8.5064 C   0  0  0  0  0  0  0  0  0  0  0  0
   -9.5271    2.7610   -7.2444 N   0  0  0  0  0  0  0  0  0  0  0  0
   -8.9634    4.1418   -7.3111 C   0  0  0  0  0  0  0  0  0  0  0  0
   -9.1371    2.2628   -6.4444 H   0  0  0  0  0  0  0  0  0  0  0  0
   -7.7631    4.2952   -6.3806 C   0  0  0  0  0  0  0  0  0  0  0  0
   -8.1135    3.9867   -4.9545 C   0  0  0  0  0  0  0  0  0  0  0  0
   -9.1753    4.1521   -4.3788 O   0  0  0  0  0  0  0  0  0  0  0  0
   -7.0690    3.4340   -4.2952 O   0  0  0  0  0  0  0  0  0  0  0  0
   -6.2519    3.3059   -4.7354 H   0  0  0  0  0  0  0  0  0  0  0  0
 16 17  1  0  0  0
 17  5  1  0  0  0
  5  6  2  0  0  0
  6  7  1  0  0  0
  7  8  1  0  0  0
  8  9  2  0  0  0
  9 10  1  0  0  0
  9 11  1  0  0  0
 11 12  2  0  0  0
 12  1  1  0  0  0
  1  2  2  0  0  0
  1  3  1  0  0  0
  3 20  1  0  0  0
 20 21  2  0  0  0
 21 22  1  0  0  0
 22 23  2  0  0  0
 23 24  1  0  0  0
 24 25  2  0  0  0
 24 26  1  0  0  0
 26 27  1  0  0  0
 27 28  1  0  0  0
 28 30  1  0  0  0
 30 31  1  0  0  0
 31 32  2  0  0  0
 31 33  1  0  0  0
 12 13  1  0  0  0
 13 14  2  0  0  0
 14  5  1  0  0  0
 14  8  1  0  0  0
 25 20  1  0  0  0
 28 23  1  0  0  0
 16 18  1  0  0  0
 16 19  1  0  0  0
  7 15  1  0  0  0
  3  4  1  0  0  0
 27 29  1  0  0  0
 33 34  1  0  0  0
M  END
> <minimizedAffinity>
-9.51289

> <minimizedRMSD>
0.91749

$$$$
P29646


 35 39  0  0  0  0  0  0  0  0999 V2000
   -8.6616    4.8520  -13.9969 C   0  0  0  0  0  0  0  0  0  0  0  0
   -9.3358    5.7990  -13.9052 O   0  0  0  0  0  0  0  0  0  0  0  0
   -8.1460    3.8863  -12.9165 N   0  0  0  0  0  0  0  0  0  0  0  0
   -7.6493    3.1094  -13.2613 H   0  0  0  0  0  0  0  0  0  0  0  0
   -4.9312    5.2350  -17.2930 C   0  0  0  0  0  0  0  0  0  0  0  0
   -5.0344    5.2802  -18.6653 C   0  0  0  0  0  0  0  0  0  0  0  0
   -6.3210    4.9542  -19.0016 N   0  0  0  0  0  0  0  0  0  0  0  0
   -7.0638    4.6653  -17.8772 C   0  0  0  0  0  0  0  0  0  0  0  0
   -8.3999    4.2729  -17.7058 C   0  0  0  0  0  0  0  0  0  0  0  0
   -9.4328    3.9744  -19.0375 Cl  0  0  0  0  0  0  0  0  0  0  0  0
   -8.9187    4.2168  -16.4073 C   0  0  0  0  0  0  0  0  0  0  0  0
   -8.1093    4.5412  -15.3283 C   0  0  0  0  0  0  0  0  0  0  0  0
   -6.7522    4.8175  -15.4954 C   0  0  0  0  0  0  0  0  0  0  0  0
   -6.2241    4.8967  -16.7930 C   0  0  0  0  0  0  0  0  0  0  0  0
   -6.6686    4.9295  -19.9223 H   0  0  0  0  0  0  0  0  0  0  0  0
   -3.3658    6.8984  -16.6451 N   0  0  0  0  0  0  0  0  0  0  0  0
   -3.7379    5.5078  -16.4615 C   0  0  0  0  0  0  0  0  0  0  0  0
   -2.5434    7.1079  -16.0793 H   0  0  0  0  0  0  0  0  0  0  0  0
   -4.1388    7.4981  -16.3565 H   0  0  0  0  0  0  0  0  0  0  0  0
   -8.2673    3.9318  -11.5298 C   0  0  0  0  0  0  0  0  0  0  0  0
   -8.6076    2.7754  -10.8359 C   0  0  0  0  0  0  0  0  0  0  0  0
   -8.7372    2.8530   -9.4584 C   0  0  0  0  0  0  0  0  0  0  0  0
   -8.5105    4.0432   -8.7667 C   0  0  0  0  0  0  0  0  0  0  0  0
   -8.1346    5.2100   -9.4292 C   0  0  0  0  0  0  0  0  0  0  0  0
   -8.0279    5.1303  -10.8320 C   0  0  0  0  0  0  0  0  0  0  0  0
   -8.7564    3.8037   -7.3104 C   0  0  0  0  0  0  0  0  0  0  0  0
   -9.3567    2.4578   -7.2066 N   0  0  0  0  0  0  0  0  0  0  0  0
   -9.0994    1.7740   -8.4936 C   0  0  0  0  0  0  0  0  0  0  0  0
  -10.3607    2.5328   -7.0435 H   0  0  0  0  0  0  0  0  0  0  0  0
   -7.8625    6.4741   -8.7300 C   0  0  0  0  0  0  0  0  0  0  0  0
   -8.8690    7.4263   -8.5343 C   0  0  0  0  0  0  0  0  0  0  0  0
   -8.5645    8.6042   -7.8708 C   0  0  0  0  0  0  0  0  0  0  0  0
   -7.3370    8.9057   -7.3978 N   0  0  0  0  0  0  0  0  0  0  0  0
   -6.3726    7.9871   -7.6080 C   0  0  0  0  0  0  0  0  0  0  0  0
   -6.5815    6.7802   -8.2577 C   0  0  0  0  0  0  0  0  0  0  0  0
 16 17  1  0  0  0
 17  5  1  0  0  0
  5  6  2  0  0  0
  6  7  1  0  0  0
  7  8  1  0  0  0
  8  9  2  0  0  0
  9 10  1  0  0  0
  9 11  1  0  0  0
 11 12  2  0  0  0
 12  1  1  0  0  0
  1  2  2  0  0  0
  1  3  1  0  0  0
  3 20  1  0  0  0
 20 21  2  0  0  0
 21 22  1  0  0  0
 22 23  2  0  0  0
 23 24  1  0  0  0
 24 30  1  0  0  0
 30 31  2  0  0  0
 31 32  1  0  0  0
 32 33  2  0  0  0
 33 34  1  0  0  0
 34 35  2  0  0  0
 24 25  2  0  0  0
 23 26  1  0  0  0
 26 27  1  0  0  0
 27 28  1  0  0  0
 12 13  1  0  0  0
 13 14  2  0  0  0
 14  5  1  0  0  0
 14  8  1  0  0  0
 25 20  1  0  0  0
 28 22  1  0  0  0
 35 30  1  0  0  0
 16 18  1  0  0  0
 16 19  1  0  0  0
  7 15  1  0  0  0
  3  4  1  0  0  0
 27 29  1  0  0  0
M  END
> <minimizedAffinity>
-9.83584

> <minimizedRMSD>
0.52838

$$$$
P29647


 34 37  0  0  0  0  0  0  0  0999 V2000
   -4.8732    5.3023  -18.5124 C   0  0  0  0  0  0  0  0  0  0  0  0
   -6.1552    4.9627  -18.9049 N   0  0  0  0  0  0  0  0  0  0  0  0
   -6.9446    4.7098  -17.7933 C   0  0  0  0  0  0  0  0  0  0  0  0
   -8.2539    4.2203  -17.6303 C   0  0  0  0  0  0  0  0  0  0  0  0
   -9.2097    3.7122  -18.9559 Cl  0  0  0  0  0  0  0  0  0  0  0  0
   -8.8171    4.2016  -16.3433 C   0  0  0  0  0  0  0  0  0  0  0  0
   -8.0933    4.6905  -15.2678 C   0  0  0  0  0  0  0  0  0  0  0  0
   -6.7779    5.1165  -15.4213 C   0  0  0  0  0  0  0  0  0  0  0  0
   -6.1884    5.1000  -16.6924 C   0  0  0  0  0  0  0  0  0  0  0  0
   -4.8745    5.4129  -17.1331 C   0  0  0  0  0  0  0  0  0  0  0  0
   -6.4628    4.9083  -19.8386 H   0  0  0  0  0  0  0  0  0  0  0  0
   -8.6651    4.9659  -13.9389 C   0  0  0  0  0  0  0  0  0  0  0  0
   -9.3731    5.8859  -13.8327 O   0  0  0  0  0  0  0  0  0  0  0  0
   -8.1179    4.0000  -12.8737 N   0  0  0  0  0  0  0  0  0  0  0  0
   -7.5927    3.2476  -13.2306 H   0  0  0  0  0  0  0  0  0  0  0  0
   -8.2445    4.0164  -11.4870 C   0  0  0  0  0  0  0  0  0  0  0  0
   -8.0358    5.2094  -10.7750 C   0  0  0  0  0  0  0  0  0  0  0  0
   -8.1441    5.2244   -9.3880 C   0  0  0  0  0  0  0  0  0  0  0  0
   -7.9268    6.3575   -8.7073 F   0  0  0  0  0  0  0  0  0  0  0  0
   -8.5104    4.0741   -8.7293 C   0  0  0  0  0  0  0  0  0  0  0  0
   -8.7297    2.8978   -9.4338 C   0  0  0  0  0  0  0  0  0  0  0  0
   -8.5606    2.8380  -10.8098 C   0  0  0  0  0  0  0  0  0  0  0  0
   -9.1455    1.8300   -8.4807 C   0  0  0  0  0  0  0  0  0  0  0  0
   -9.3559    2.5074   -7.1750 N   0  0  0  0  0  0  0  0  0  0  0  0
   -8.7436    3.8489   -7.2807 C   0  0  0  0  0  0  0  0  0  0  0  0
   -8.9083    1.9758   -6.4284 H   0  0  0  0  0  0  0  0  0  0  0  0
   -3.7469    5.7777  -16.2355 C   0  0  0  0  0  0  0  0  0  0  0  0
   -3.5096    4.6757  -15.3133 N   0  0  0  0  0  0  0  0  0  0  0  0
   -4.3528    4.5028  -14.7660 H   0  0  0  0  0  0  0  0  0  0  0  0
   -2.7411    4.9160  -14.6870 H   0  0  0  0  0  0  0  0  0  0  0  0
   -3.7591    5.4784  -19.4818 C   0  0  0  0  0  0  0  0  0  0  0  0
   -4.0672    7.7094  -20.3702 C   0  0  0  0  0  0  0  0  0  0  0  0
   -4.1581    6.2809  -20.6310 N   0  0  0  0  0  0  0  0  0  0  0  0
   -3.5496    6.0523  -21.4170 H   0  0  0  0  0  0  0  0  0  0  0  0
 32 33  1  0  0  0
 33 31  1  0  0  0
 31  1  1  0  0  0
  1  2  1  0  0  0
  2  3  1  0  0  0
  3  4  2  0  0  0
  4  5  1  0  0  0
  4  6  1  0  0  0
  6  7  2  0  0  0
  7 12  1  0  0  0
 12 13  2  0  0  0
 12 14  1  0  0  0
 14 16  1  0  0  0
 16 17  2  0  0  0
 17 18  1  0  0  0
 18 19  1  0  0  0
 18 20  2  0  0  0
 20 21  1  0  0  0
 21 22  2  0  0  0
 21 23  1  0  0  0
 23 24  1  0  0  0
 24 25  1  0  0  0
  7  8  1  0  0  0
  8  9  2  0  0  0
  9 10  1  0  0  0
 10 27  1  0  0  0
 27 28  1  0  0  0
 10  1  2  0  0  0
  9  3  1  0  0  0
 22 16  1  0  0  0
 25 20  1  0  0  0
 33 34  1  0  0  0
  2 11  1  0  0  0
 14 15  1  0  0  0
 24 26  1  0  0  0
 28 29  1  0  0  0
 28 30  1  0  0  0
M  END
> <minimizedAffinity>
-9.52042

> <minimizedRMSD>
0.41495

$$$$
P29649


 34 37  0  0  0  0  0  0  0  0999 V2000
   -4.8527    5.2616  -18.4858 C   0  0  0  0  0  0  0  0  0  0  0  0
   -6.1254    4.9007  -18.8914 N   0  0  0  0  0  0  0  0  0  0  0  0
   -6.9434    4.6998  -17.7882 C   0  0  0  0  0  0  0  0  0  0  0  0
   -8.2599    4.2242  -17.6311 C   0  0  0  0  0  0  0  0  0  0  0  0
   -9.2058    3.7019  -18.9596 Cl  0  0  0  0  0  0  0  0  0  0  0  0
   -8.8388    4.2278  -16.3490 C   0  0  0  0  0  0  0  0  0  0  0  0
   -8.1241    4.7287  -15.2726 C   0  0  0  0  0  0  0  0  0  0  0  0
   -6.8081    5.1540  -15.4226 C   0  0  0  0  0  0  0  0  0  0  0  0
   -6.2040    5.1148  -16.6859 C   0  0  0  0  0  0  0  0  0  0  0  0
   -4.8834    5.4150  -17.1114 C   0  0  0  0  0  0  0  0  0  0  0  0
   -6.4101    4.8007  -19.8285 H   0  0  0  0  0  0  0  0  0  0  0  0
   -8.6894    5.0052  -13.9406 C   0  0  0  0  0  0  0  0  0  0  0  0
   -9.3844    5.9350  -13.8305 O   0  0  0  0  0  0  0  0  0  0  0  0
   -8.1547    4.0277  -12.8787 N   0  0  0  0  0  0  0  0  0  0  0  0
   -7.6404    3.2692  -13.2386 H   0  0  0  0  0  0  0  0  0  0  0  0
   -8.2798    4.0414  -11.4911 C   0  0  0  0  0  0  0  0  0  0  0  0
   -8.0519    5.2310  -10.7768 C   0  0  0  0  0  0  0  0  0  0  0  0
   -8.1321    5.2511   -9.3826 C   0  0  0  0  0  0  0  0  0  0  0  0
   -7.7306    6.8414   -8.4432 Br  0  0  0  0  0  0  0  0  0  0  0  0
   -8.5056    4.0970   -8.7230 C   0  0  0  0  0  0  0  0  0  0  0  0
   -8.7368    2.9227   -9.4341 C   0  0  0  0  0  0  0  0  0  0  0  0
   -8.5907    2.8645  -10.8131 C   0  0  0  0  0  0  0  0  0  0  0  0
   -9.1243    1.8383   -8.4870 C   0  0  0  0  0  0  0  0  0  0  0  0
   -9.3305    2.4988   -7.1749 N   0  0  0  0  0  0  0  0  0  0  0  0
   -8.7277    3.8440   -7.2716 C   0  0  0  0  0  0  0  0  0  0  0  0
   -8.8745    1.9625   -6.4368 H   0  0  0  0  0  0  0  0  0  0  0  0
   -3.7725    5.8026  -16.2051 C   0  0  0  0  0  0  0  0  0  0  0  0
   -3.4928    4.6893  -15.3076 N   0  0  0  0  0  0  0  0  0  0  0  0
   -4.3290    4.4710  -14.7657 H   0  0  0  0  0  0  0  0  0  0  0  0
   -2.7347    4.9448  -14.6748 H   0  0  0  0  0  0  0  0  0  0  0  0
   -3.6934    5.3857  -19.4097 C   0  0  0  0  0  0  0  0  0  0  0  0
   -4.0880    7.1440  -21.0313 C   0  0  0  0  0  0  0  0  0  0  0  0
   -3.4154    6.7659  -19.7972 N   0  0  0  0  0  0  0  0  0  0  0  0
   -3.7299    7.3852  -19.0502 H   0  0  0  0  0  0  0  0  0  0  0  0
 32 33  1  0  0  0
 33 31  1  0  0  0
 31  1  1  0  0  0
  1  2  1  0  0  0
  2  3  1  0  0  0
  3  4  2  0  0  0
  4  5  1  0  0  0
  4  6  1  0  0  0
  6  7  2  0  0  0
  7 12  1  0  0  0
 12 13  2  0  0  0
 12 14  1  0  0  0
 14 16  1  0  0  0
 16 17  2  0  0  0
 17 18  1  0  0  0
 18 19  1  0  0  0
 18 20  2  0  0  0
 20 21  1  0  0  0
 21 22  2  0  0  0
 21 23  1  0  0  0
 23 24  1  0  0  0
 24 25  1  0  0  0
  7  8  1  0  0  0
  8  9  2  0  0  0
  9 10  1  0  0  0
 10 27  1  0  0  0
 27 28  1  0  0  0
 10  1  2  0  0  0
  9  3  1  0  0  0
 22 16  1  0  0  0
 25 20  1  0  0  0
 33 34  1  0  0  0
  2 11  1  0  0  0
 14 15  1  0  0  0
 24 26  1  0  0  0
 28 29  1  0  0  0
 28 30  1  0  0  0
M  END
> <minimizedAffinity>
-9.31859

> <minimizedRMSD>
0.41031

$$$$
P29650


 33 36  0  0  0  0  0  0  0  0999 V2000
   -4.7894    5.1472  -18.4933 C   0  0  0  0  0  0  0  0  0  0  0  0
   -6.0722    4.8127  -18.9093 N   0  0  0  0  0  0  0  0  0  0  0  0
   -6.9266    4.7081  -17.8124 C   0  0  0  0  0  0  0  0  0  0  0  0
   -8.2521    4.2497  -17.6434 C   0  0  0  0  0  0  0  0  0  0  0  0
   -9.2018    3.6667  -18.9407 Cl  0  0  0  0  0  0  0  0  0  0  0  0
   -8.8396    4.2919  -16.3655 C   0  0  0  0  0  0  0  0  0  0  0  0
   -8.1254    4.8043  -15.2962 C   0  0  0  0  0  0  0  0  0  0  0  0
   -6.8218    5.2647  -15.4618 C   0  0  0  0  0  0  0  0  0  0  0  0
   -6.2122    5.1983  -16.7256 C   0  0  0  0  0  0  0  0  0  0  0  0
   -4.8934    5.5046  -17.1562 C   0  0  0  0  0  0  0  0  0  0  0  0
   -6.3399    4.6699  -19.8459 H   0  0  0  0  0  0  0  0  0  0  0  0
   -8.7028    5.0505  -13.9629 C   0  0  0  0  0  0  0  0  0  0  0  0
   -9.4274    5.9547  -13.8339 O   0  0  0  0  0  0  0  0  0  0  0  0
   -8.1321    4.0707  -12.9191 N   0  0  0  0  0  0  0  0  0  0  0  0
   -7.5946    3.3361  -13.2941 H   0  0  0  0  0  0  0  0  0  0  0  0
   -8.2529    4.0553  -11.5332 C   0  0  0  0  0  0  0  0  0  0  0  0
   -8.0135    5.2357  -10.8057 C   0  0  0  0  0  0  0  0  0  0  0  0
   -8.0964    5.2499   -9.4113 C   0  0  0  0  0  0  0  0  0  0  0  0
   -8.4969    4.0914   -8.7762 C   0  0  0  0  0  0  0  0  0  0  0  0
   -8.7594    2.9288   -9.4968 C   0  0  0  0  0  0  0  0  0  0  0  0
   -8.5880    2.8748  -10.8721 C   0  0  0  0  0  0  0  0  0  0  0  0
   -9.2344    1.8745   -8.5505 C   0  0  0  0  0  0  0  0  0  0  0  0
   -9.5388    2.5919   -7.2804 N   0  0  0  0  0  0  0  0  0  0  0  0
   -8.7377    3.8337   -7.3271 C   0  0  0  0  0  0  0  0  0  0  0  0
   -9.2698    2.0240   -6.4769 H   0  0  0  0  0  0  0  0  0  0  0  0
   -3.8183    5.9788  -16.2455 C   0  0  0  0  0  0  0  0  0  0  0  0
   -3.3992    4.8499  -15.4292 N   0  0  0  0  0  0  0  0  0  0  0  0
   -4.1972    4.4981  -14.9001 H   0  0  0  0  0  0  0  0  0  0  0  0
   -2.6687    5.1498  -14.7836 H   0  0  0  0  0  0  0  0  0  0  0  0
   -3.5224    5.0133  -19.2939 C   0  0  0  0  0  0  0  0  0  0  0  0
   -3.7560    7.1299  -20.4281 C   0  0  0  0  0  0  0  0  0  0  0  0
   -3.4723    5.7116  -20.5665 N   0  0  0  0  0  0  0  0  0  0  0  0
   -2.5399    5.6008  -20.9650 H   0  0  0  0  0  0  0  0  0  0  0  0
 31 32  1  0  0  0
 32 30  1  0  0  0
 30  1  1  0  0  0
  1  2  1  0  0  0
  2  3  1  0  0  0
  3  4  2  0  0  0
  4  5  1  0  0  0
  4  6  1  0  0  0
  6  7  2  0  0  0
  7 12  1  0  0  0
 12 13  2  0  0  0
 12 14  1  0  0  0
 14 16  1  0  0  0
 16 17  2  0  0  0
 17 18  1  0  0  0
 18 19  2  0  0  0
 19 20  1  0  0  0
 20 21  2  0  0  0
 20 22  1  0  0  0
 22 23  1  0  0  0
 23 24  1  0  0  0
  7  8  1  0  0  0
  8  9  2  0  0  0
  9 10  1  0  0  0
 10 26  1  0  0  0
 26 27  1  0  0  0
 10  1  2  0  0  0
  9  3  1  0  0  0
 21 16  1  0  0  0
 24 19  1  0  0  0
 32 33  1  0  0  0
  2 11  1  0  0  0
 14 15  1  0  0  0
 23 25  1  0  0  0
 27 28  1  0  0  0
 27 29  1  0  0  0
M  END
> <minimizedAffinity>
-9.49286

> <minimizedRMSD>
0.28398

$$$$
P29673


 29 33  0  0  0  0  0  0  0  0999 V2000
   -5.8520    5.0421  -18.6962 C   0  0  0  0  0  0  0  0  0  0  0  0
   -7.1514    4.6631  -18.6810 N   0  0  0  0  0  0  0  0  0  0  0  0
   -7.4817    4.6031  -17.3748 C   0  0  0  0  0  0  0  0  0  0  0  0
   -8.5080    4.4607  -16.4015 C   0  0  0  0  0  0  0  0  0  0  0  0
   -7.9929    4.6440  -15.1342 C   0  0  0  0  0  0  0  0  0  0  0  0
   -6.5187    4.9218  -15.2953 C   0  0  0  0  0  0  0  0  0  0  0  0
   -5.4677    5.1862  -14.5953 N   0  0  0  0  0  0  0  0  0  0  0  0
   -4.2733    5.4009  -15.3350 C   0  0  0  0  0  0  0  0  0  0  0  0
   -4.1818    5.3935  -16.6929 C   0  0  0  0  0  0  0  0  0  0  0  0
   -5.3403    5.1387  -17.4044 N   0  0  0  0  0  0  0  0  0  0  0  0
   -6.4014    4.8874  -16.6691 C   0  0  0  0  0  0  0  0  0  0  0  0
   -8.7122    4.9088  -13.8787 C   0  0  0  0  0  0  0  0  0  0  0  0
   -9.5662    5.7043  -13.8355 O   0  0  0  0  0  0  0  0  0  0  0  0
   -8.0672    4.0680  -12.7517 N   0  0  0  0  0  0  0  0  0  0  0  0
   -7.4093    3.4030  -13.0586 H   0  0  0  0  0  0  0  0  0  0  0  0
   -8.2654    4.0987  -11.3762 C   0  0  0  0  0  0  0  0  0  0  0  0
   -8.0948    5.3080  -10.6793 C   0  0  0  0  0  0  0  0  0  0  0  0
   -8.2070    5.3529   -9.2866 C   0  0  0  0  0  0  0  0  0  0  0  0
   -8.5857    4.1980   -8.6293 C   0  0  0  0  0  0  0  0  0  0  0  0
   -8.8130    3.0148   -9.3272 C   0  0  0  0  0  0  0  0  0  0  0  0
   -8.5919    2.9288  -10.6929 C   0  0  0  0  0  0  0  0  0  0  0  0
   -9.3175    1.9789   -8.3747 C   0  0  0  0  0  0  0  0  0  0  0  0
   -9.6427    2.7221   -7.1243 N   0  0  0  0  0  0  0  0  0  0  0  0
   -8.8307    3.9551   -7.1784 C   0  0  0  0  0  0  0  0  0  0  0  0
   -9.3951    2.1674   -6.3048 H   0  0  0  0  0  0  0  0  0  0  0  0
   -5.0780    5.2780  -19.7831 N   0  0  0  0  0  0  0  0  0  0  0  0
   -4.9099    4.5560  -20.4310 H   0  0  0  0  0  0  0  0  0  0  0  0
   -5.5128    7.6972  -19.7823 C   0  0  0  0  0  0  0  0  0  0  0  0
   -4.4947    6.5923  -19.9970 C   0  0  0  0  0  0  0  0  0  0  0  0
 28 29  1  0  0  0
 29 26  1  0  0  0
 26  1  1  0  0  0
  1  2  2  0  0  0
  2  3  1  0  0  0
  3  4  1  0  0  0
  4  5  2  0  0  0
  5 12  1  0  0  0
 12 13  2  0  0  0
 12 14  1  0  0  0
 14 16  1  0  0  0
 16 17  2  0  0  0
 17 18  1  0  0  0
 18 19  2  0  0  0
 19 20  1  0  0  0
 20 21  2  0  0  0
 20 22  1  0  0  0
 22 23  1  0  0  0
 23 24  1  0  0  0
  5  6  1  0  0  0
  6  7  2  0  0  0
  7  8  1  0  0  0
  8  9  2  0  0  0
  9 10  1  0  0  0
 10 11  1  0  0  0
 10  1  1  0  0  0
 11  3  2  0  0  0
 21 16  1  0  0  0
 11  6  1  0  0  0
 24 19  1  0  0  0
 26 27  1  0  0  0
 14 15  1  0  0  0
 23 25  1  0  0  0
M  END
> <minimizedAffinity>
-8.49249

> <minimizedRMSD>
0.38598

$$$$
P29698


 29 32  0  0  0  0  0  0  0  0999 V2000
   -6.1369    4.8587  -18.4452 C   0  0  0  0  0  0  0  0  0  0  0  0
   -5.4698    5.1441  -17.2916 N   0  0  0  0  0  0  0  0  0  0  0  0
   -6.3611    4.9072  -16.2639 C   0  0  0  0  0  0  0  0  0  0  0  0
   -6.1435    5.0248  -14.8978 C   0  0  0  0  0  0  0  0  0  0  0  0
   -7.2202    4.7214  -14.0623 C   0  0  0  0  0  0  0  0  0  0  0  0
   -8.4642    4.3085  -14.5582 C   0  0  0  0  0  0  0  0  0  0  0  0
   -8.6949    4.1969  -15.9277 C   0  0  0  0  0  0  0  0  0  0  0  0
   -7.6196    4.5036  -16.7560 C   0  0  0  0  0  0  0  0  0  0  0  0
   -7.5228    4.4614  -18.1025 N   0  0  0  0  0  0  0  0  0  0  0  0
   -8.3523    4.0833  -18.9625 O   0  0  0  0  0  0  0  0  0  0  0  0
   -4.5399    5.4563  -17.2078 H   0  0  0  0  0  0  0  0  0  0  0  0
   -7.0006    4.8889  -12.6128 C   0  0  0  0  0  0  0  0  0  0  0  0
   -6.0291    5.4148  -12.2395 O   0  0  0  0  0  0  0  0  0  0  0  0
   -8.1695    4.2742  -11.8225 N   0  0  0  0  0  0  0  0  0  0  0  0
   -8.9178    3.9537  -12.3761 H   0  0  0  0  0  0  0  0  0  0  0  0
   -8.3400    4.0984  -10.4594 C   0  0  0  0  0  0  0  0  0  0  0  0
   -8.1232    5.1570   -9.5624 C   0  0  0  0  0  0  0  0  0  0  0  0
   -8.3376    4.9841   -8.1951 C   0  0  0  0  0  0  0  0  0  0  0  0
   -8.7887    3.7525   -7.7642 C   0  0  0  0  0  0  0  0  0  0  0  0
   -8.9840    2.6999   -8.6561 C   0  0  0  0  0  0  0  0  0  0  0  0
   -8.7539    2.8466  -10.0077 C   0  0  0  0  0  0  0  0  0  0  0  0
   -9.4328    1.4997   -7.8976 C   0  0  0  0  0  0  0  0  0  0  0  0
   -9.9122    2.0368   -6.5997 N   0  0  0  0  0  0  0  0  0  0  0  0
   -9.1491    3.2893   -6.3929 C   0  0  0  0  0  0  0  0  0  0  0  0
   -9.7240    1.3747   -5.8470 H   0  0  0  0  0  0  0  0  0  0  0  0
   -5.5231    4.9132  -19.6974 N   0  0  0  0  0  0  0  0  0  0  0  0
   -5.9764    4.4909  -20.4625 H   0  0  0  0  0  0  0  0  0  0  0  0
   -3.0516    4.6474  -19.7077 C   0  0  0  0  0  0  0  0  0  0  0  0
   -4.2305    5.5731  -19.9238 C   0  0  0  0  0  0  0  0  0  0  0  0
 28 29  1  0  0  0
 29 26  1  0  0  0
 26  1  1  0  0  0
  1  2  1  0  0  0
  2  3  1  0  0  0
  3  4  2  0  0  0
  4  5  1  0  0  0
  5 12  1  0  0  0
 12 13  2  0  0  0
 12 14  1  0  0  0
 14 16  1  0  0  0
 16 17  2  0  0  0
 17 18  1  0  0  0
 18 19  2  0  0  0
 19 20  1  0  0  0
 20 21  2  0  0  0
 20 22  1  0  0  0
 22 23  1  0  0  0
 23 24  1  0  0  0
  5  6  2  0  0  0
  6  7  1  0  0  0
  7  8  2  0  0  0
  8  9  1  0  0  0
  9 10  1  0  0  0
  9  1  2  0  0  0
  8  3  1  0  0  0
 21 16  1  0  0  0
 24 19  1  0  0  0
 26 27  1  0  0  0
  2 11  1  0  0  0
 14 15  1  0  0  0
 23 25  1  0  0  0
M  CHG 1   9   1
M  CHG 1  10  -1
M  END
> <minimizedAffinity>
-8.30897

> <minimizedRMSD>
0.72566

$$$$
P29708


 30 33  0  0  0  0  0  0  0  0999 V2000
   -5.0500    5.1547  -18.7186 C   0  0  0  0  0  0  0  0  0  0  0  0
   -6.2342    4.7883  -19.1620 N   0  0  0  0  0  0  0  0  0  0  0  0
   -6.9892    4.5505  -18.0357 C   0  0  0  0  0  0  0  0  0  0  0  0
   -8.3105    4.1185  -17.8560 C   0  0  0  0  0  0  0  0  0  0  0  0
   -9.0894    3.7529  -18.8840 F   0  0  0  0  0  0  0  0  0  0  0  0
   -8.8508    4.1342  -16.5692 C   0  0  0  0  0  0  0  0  0  0  0  0
   -8.0906    4.5792  -15.4924 C   0  0  0  0  0  0  0  0  0  0  0  0
   -6.7401    4.8847  -15.6103 C   0  0  0  0  0  0  0  0  0  0  0  0
   -6.2456    4.8456  -16.8982 C   0  0  0  0  0  0  0  0  0  0  0  0
   -4.9950    5.0495  -17.3615 N   0  0  0  0  0  0  0  0  0  0  0  0
   -4.1806    5.1117  -16.8119 H   0  0  0  0  0  0  0  0  0  0  0  0
   -8.6697    4.8837  -14.1806 C   0  0  0  0  0  0  0  0  0  0  0  0
   -9.4193    5.7701  -14.0879 O   0  0  0  0  0  0  0  0  0  0  0  0
   -8.0632    3.9769  -13.1028 N   0  0  0  0  0  0  0  0  0  0  0  0
   -7.5069    3.2417  -13.4482 H   0  0  0  0  0  0  0  0  0  0  0  0
   -8.1704    4.0234  -11.7223 C   0  0  0  0  0  0  0  0  0  0  0  0
   -7.9280    5.2210  -11.0265 C   0  0  0  0  0  0  0  0  0  0  0  0
   -8.0375    5.2715   -9.6358 C   0  0  0  0  0  0  0  0  0  0  0  0
   -8.4475    4.1270   -8.9813 C   0  0  0  0  0  0  0  0  0  0  0  0
   -8.6881    2.9439   -9.6764 C   0  0  0  0  0  0  0  0  0  0  0  0
   -8.5151    2.8600  -11.0431 C   0  0  0  0  0  0  0  0  0  0  0  0
   -9.1393    1.8975   -8.7167 C   0  0  0  0  0  0  0  0  0  0  0  0
   -9.5221    2.6472   -7.4925 N   0  0  0  0  0  0  0  0  0  0  0  0
   -8.7333    3.8988   -7.5356 C   0  0  0  0  0  0  0  0  0  0  0  0
   -9.2917    2.1087   -6.6575 H   0  0  0  0  0  0  0  0  0  0  0  0
   -3.8438    5.5952  -19.4650 C   0  0  0  0  0  0  0  0  0  0  0  0
   -4.2199    6.4149  -20.6999 C   0  0  0  0  0  0  0  0  0  0  0  0
   -2.8298    7.7232  -18.6326 C   0  0  0  0  0  0  0  0  0  0  0  0
   -2.8781    6.2701  -18.5504 N   0  0  0  0  0  0  0  0  0  0  0  0
   -3.1275    6.0198  -17.5936 H   0  0  0  0  0  0  0  0  0  0  0  0
 28 29  1  0  0  0
 29 26  1  0  0  0
 26 27  1  0  0  0
 26  1  1  0  0  0
  1  2  2  0  0  0
  2  3  1  0  0  0
  3  4  2  0  0  0
  4  5  1  0  0  0
  4  6  1  0  0  0
  6  7  2  0  0  0
  7 12  1  0  0  0
 12 13  2  0  0  0
 12 14  1  0  0  0
 14 16  1  0  0  0
 16 17  2  0  0  0
 17 18  1  0  0  0
 18 19  2  0  0  0
 19 20  1  0  0  0
 20 21  2  0  0  0
 20 22  1  0  0  0
 22 23  1  0  0  0
 23 24  1  0  0  0
  7  8  1  0  0  0
  8  9  2  0  0  0
  9 10  1  0  0  0
 10  1  1  0  0  0
  9  3  1  0  0  0
 21 16  1  0  0  0
 24 19  1  0  0  0
 29 30  1  0  0  0
 14 15  1  0  0  0
 23 25  1  0  0  0
 10 11  1  0  0  0
M  END
> <minimizedAffinity>
-9.33073

> <minimizedRMSD>
0.85100

$$$$
P29709


 32 35  0  0  0  0  0  0  0  0999 V2000
   -4.9699    5.0879  -18.5839 C   0  0  0  0  0  0  0  0  0  0  0  0
   -6.1407    4.6351  -18.9515 N   0  0  0  0  0  0  0  0  0  0  0  0
   -6.8934    4.5572  -17.8020 C   0  0  0  0  0  0  0  0  0  0  0  0
   -8.2389    4.2162  -17.5803 C   0  0  0  0  0  0  0  0  0  0  0  0
   -9.1596    3.8388  -18.9630 Cl  0  0  0  0  0  0  0  0  0  0  0  0
   -8.8000    4.2654  -16.3032 C   0  0  0  0  0  0  0  0  0  0  0  0
   -8.0019    4.6627  -15.2327 C   0  0  0  0  0  0  0  0  0  0  0  0
   -6.6423    4.9630  -15.3959 C   0  0  0  0  0  0  0  0  0  0  0  0
   -6.1235    4.9065  -16.6953 C   0  0  0  0  0  0  0  0  0  0  0  0
   -4.8725    5.1544  -17.2163 N   0  0  0  0  0  0  0  0  0  0  0  0
   -8.5929    4.9316  -13.9021 C   0  0  0  0  0  0  0  0  0  0  0  0
   -9.3992    5.7716  -13.8213 O   0  0  0  0  0  0  0  0  0  0  0  0
   -7.9921    4.0143  -12.8171 N   0  0  0  0  0  0  0  0  0  0  0  0
   -7.3749    3.3258  -13.1551 H   0  0  0  0  0  0  0  0  0  0  0  0
   -8.1807    4.0014  -11.4367 C   0  0  0  0  0  0  0  0  0  0  0  0
   -7.9563    5.1557  -10.6655 C   0  0  0  0  0  0  0  0  0  0  0  0
   -8.1483    5.1446   -9.2801 C   0  0  0  0  0  0  0  0  0  0  0  0
   -8.5747    3.9697   -8.6928 C   0  0  0  0  0  0  0  0  0  0  0  0
   -8.7823    2.8210   -9.4517 C   0  0  0  0  0  0  0  0  0  0  0  0
   -8.5869    2.8149  -10.8228 C   0  0  0  0  0  0  0  0  0  0  0  0
   -9.1931    1.7108   -8.5426 C   0  0  0  0  0  0  0  0  0  0  0  0
   -9.6128    2.3822   -7.2847 N   0  0  0  0  0  0  0  0  0  0  0  0
   -8.8797    3.6681   -7.2634 C   0  0  0  0  0  0  0  0  0  0  0  0
   -9.3612    1.8143   -6.4757 H   0  0  0  0  0  0  0  0  0  0  0  0
   -3.6491    5.3014  -16.4554 C   0  0  0  0  0  0  0  0  0  0  0  0
   -3.1469    6.6517  -16.6759 N   0  0  0  0  0  0  0  0  0  0  0  0
   -2.9756    6.7924  -17.6715 H   0  0  0  0  0  0  0  0  0  0  0  0
   -2.2763    6.7791  -16.1598 H   0  0  0  0  0  0  0  0  0  0  0  0
   -3.9444    5.4168  -19.4080 N   0  0  0  0  0  0  0  0  0  0  0  0
   -3.0441    5.0283  -19.3201 H   0  0  0  0  0  0  0  0  0  0  0  0
   -3.1778    6.4792  -21.4715 C   0  0  0  0  0  0  0  0  0  0  0  0
   -4.2873    6.3974  -20.4388 C   0  0  0  0  0  0  0  0  0  0  0  0
 31 32  1  0  0  0
 32 29  1  0  0  0
 29  1  1  0  0  0
  1  2  2  0  0  0
  2  3  1  0  0  0
  3  4  2  0  0  0
  4  5  1  0  0  0
  4  6  1  0  0  0
  6  7  2  0  0  0
  7 11  1  0  0  0
 11 12  2  0  0  0
 11 13  1  0  0  0
 13 15  1  0  0  0
 15 16  2  0  0  0
 16 17  1  0  0  0
 17 18  2  0  0  0
 18 19  1  0  0  0
 19 20  2  0  0  0
 19 21  1  0  0  0
 21 22  1  0  0  0
 22 23  1  0  0  0
  7  8  1  0  0  0
  8  9  2  0  0  0
  9 10  1  0  0  0
 10 25  1  0  0  0
 25 26  1  0  0  0
 10  1  1  0  0  0
  9  3  1  0  0  0
 20 15  1  0  0  0
 23 18  1  0  0  0
 29 30  1  0  0  0
 13 14  1  0  0  0
 22 24  1  0  0  0
 26 27  1  0  0  0
 26 28  1  0  0  0
M  END
> <minimizedAffinity>
-8.89729

> <minimizedRMSD>
0.68564

$$$$
P29718


 33 38  0  0  0  0  0  0  0  0999 V2000
   -4.7891    6.5968  -21.7497 C   0  0  0  0  0  0  0  0  0  0  0  0
   -3.6615    6.0016  -20.9052 C   0  0  0  0  0  0  0  0  0  0  0  0
   -2.3911    6.8113  -21.1492 C   0  0  0  0  0  0  0  0  0  0  0  0
   -2.5454    7.9019  -20.2442 O   0  0  0  0  0  0  0  0  0  0  0  0
   -3.0542    7.2713  -19.0673 C   0  0  0  0  0  0  0  0  0  0  0  0
   -4.0306    8.2141  -18.3971 C   0  0  0  0  0  0  0  0  0  0  0  0
   -5.3735    7.5554  -18.6348 C   0  0  0  0  0  0  0  0  0  0  0  0
   -5.0621    6.0510  -18.7815 C   0  0  0  0  0  0  0  0  0  0  0  0
   -6.2847    5.3560  -19.2395 N   0  0  0  0  0  0  0  0  0  0  0  0
   -6.9160    4.8678  -18.0662 C   0  0  0  0  0  0  0  0  0  0  0  0
   -8.2172    4.4029  -17.9682 C   0  0  0  0  0  0  0  0  0  0  0  0
   -8.7658    4.2205  -16.6826 C   0  0  0  0  0  0  0  0  0  0  0  0
   -7.9785    4.4313  -15.5313 C   0  0  0  0  0  0  0  0  0  0  0  0
   -6.6254    4.7503  -15.6389 C   0  0  0  0  0  0  0  0  0  0  0  0
   -6.1458    4.9624  -16.9162 C   0  0  0  0  0  0  0  0  0  0  0  0
   -4.8767    5.5198  -17.3292 C   0  0  0  0  0  0  0  0  0  0  0  0
   -3.9112    5.6097  -16.5905 O   0  0  0  0  0  0  0  0  0  0  0  0
   -3.7634    6.0383  -19.4489 N   0  0  0  0  0  0  0  0  0  0  0  0
   -6.5965    5.2533  -20.1676 H   0  0  0  0  0  0  0  0  0  0  0  0
   -8.6197    4.6631  -14.2141 C   0  0  0  0  0  0  0  0  0  0  0  0
   -9.4752    5.4548  -14.1680 O   0  0  0  0  0  0  0  0  0  0  0  0
   -7.9459    3.8552  -13.0904 N   0  0  0  0  0  0  0  0  0  0  0  0
   -7.2927    3.1862  -13.3987 H   0  0  0  0  0  0  0  0  0  0  0  0
   -8.1097    3.9166  -11.7076 C   0  0  0  0  0  0  0  0  0  0  0  0
   -7.9567    5.1410  -11.0324 C   0  0  0  0  0  0  0  0  0  0  0  0
   -8.1009    5.2198   -9.6425 C   0  0  0  0  0  0  0  0  0  0  0  0
   -8.4810    4.0785   -8.9629 C   0  0  0  0  0  0  0  0  0  0  0  0
   -8.6780    2.8762   -9.6358 C   0  0  0  0  0  0  0  0  0  0  0  0
   -8.4399    2.7626  -10.9977 C   0  0  0  0  0  0  0  0  0  0  0  0
   -9.1744    1.8521   -8.6670 C   0  0  0  0  0  0  0  0  0  0  0  0
   -9.5306    2.6143   -7.4380 N   0  0  0  0  0  0  0  0  0  0  0  0
   -8.7553    3.8712   -7.5116 C   0  0  0  0  0  0  0  0  0  0  0  0
   -9.2738    2.0858   -6.6042 H   0  0  0  0  0  0  0  0  0  0  0  0
  2  1  1  0  0  0
  2  3  1  0  0  0
  3  4  1  0  0  0
  4  5  1  0  0  0
  5  6  1  0  0  0
  6  7  1  0  0  0
  8  7  1  0  0  0
  8  9  1  0  0  0
  9 10  1  0  0  0
 10 11  2  0  0  0
 11 12  1  0  0  0
 12 13  2  0  0  0
 13 20  1  0  0  0
 20 21  2  0  0  0
 20 22  1  0  0  0
 22 24  1  0  0  0
 24 25  2  0  0  0
 25 26  1  0  0  0
 26 27  2  0  0  0
 27 28  1  0  0  0
 28 29  2  0  0  0
 28 30  1  0  0  0
 30 31  1  0  0  0
 31 32  1  0  0  0
 13 14  1  0  0  0
 14 15  2  0  0  0
 15 16  1  0  0  0
 16 17  2  0  0  0
  8 18  1  0  0  0
 18  2  1  0  0  0
 18  5  1  0  0  0
 16  8  1  0  0  0
 15 10  1  0  0  0
 29 24  1  0  0  0
 32 27  1  0  0  0
  9 19  1  0  0  0
 22 23  1  0  0  0
 31 33  1  0  0  0
M  END
> <minimizedAffinity>
-11.09470

> <minimizedRMSD>
0.33734

$$$$
P29720


 33 36  0  0  0  0  0  0  0  0999 V2000
   -9.0440    3.6781  -18.7612 C   0  0  0  0  0  0  0  0  0  0  0  0
   -8.2040    4.1361  -17.6018 C   0  0  0  0  0  0  0  0  0  0  0  0
   -8.7590    4.1721  -16.3000 C   0  0  0  0  0  0  0  0  0  0  0  0
   -8.0282    4.6877  -15.2270 C   0  0  0  0  0  0  0  0  0  0  0  0
   -6.7076    5.1208  -15.3836 C   0  0  0  0  0  0  0  0  0  0  0  0
   -6.1487    5.0239  -16.6588 C   0  0  0  0  0  0  0  0  0  0  0  0
   -6.8693    4.5780  -17.7629 C   0  0  0  0  0  0  0  0  0  0  0  0
   -6.1151    4.7019  -18.9057 N   0  0  0  0  0  0  0  0  0  0  0  0
   -4.9808    5.2411  -18.5318 C   0  0  0  0  0  0  0  0  0  0  0  0
   -4.8956    5.3107  -17.1601 N   0  0  0  0  0  0  0  0  0  0  0  0
   -8.6358    4.9351  -13.8961 C   0  0  0  0  0  0  0  0  0  0  0  0
   -9.3693    5.8385  -13.7971 O   0  0  0  0  0  0  0  0  0  0  0  0
   -8.0861    3.9703  -12.8238 N   0  0  0  0  0  0  0  0  0  0  0  0
   -7.5352    3.2340  -13.1755 H   0  0  0  0  0  0  0  0  0  0  0  0
   -8.2428    3.9718  -11.4367 C   0  0  0  0  0  0  0  0  0  0  0  0
   -8.0051    5.1400  -10.6911 C   0  0  0  0  0  0  0  0  0  0  0  0
   -8.1418    5.1481   -9.2995 C   0  0  0  0  0  0  0  0  0  0  0  0
   -8.5291    3.9780   -8.6750 C   0  0  0  0  0  0  0  0  0  0  0  0
   -8.7622    2.8194   -9.4065 C   0  0  0  0  0  0  0  0  0  0  0  0
   -8.6192    2.7939  -10.7870 C   0  0  0  0  0  0  0  0  0  0  0  0
   -9.1331    1.7162   -8.4734 C   0  0  0  0  0  0  0  0  0  0  0  0
   -9.3412    2.3534   -7.1476 N   0  0  0  0  0  0  0  0  0  0  0  0
   -8.7620    3.7096   -7.2277 C   0  0  0  0  0  0  0  0  0  0  0  0
   -8.8708    1.8134   -6.4213 H   0  0  0  0  0  0  0  0  0  0  0  0
   -3.7399    5.7549  -16.4012 C   0  0  0  0  0  0  0  0  0  0  0  0
   -3.3985    4.7711  -15.3805 N   0  0  0  0  0  0  0  0  0  0  0  0
   -4.1861    4.6557  -14.7427 H   0  0  0  0  0  0  0  0  0  0  0  0
   -2.5826    5.0915  -14.8589 H   0  0  0  0  0  0  0  0  0  0  0  0
   -3.9828    5.6703  -19.3536 N   0  0  0  0  0  0  0  0  0  0  0  0
   -3.0318    5.5254  -19.1442 H   0  0  0  0  0  0  0  0  0  0  0  0
   -4.4209    6.3662  -20.5775 C   0  0  0  0  0  0  0  0  0  0  0  0
   -5.0383    7.7329  -20.2820 C   0  0  0  0  0  0  0  0  0  0  0  0
   -3.2199    6.5410  -21.5067 C   0  0  0  0  0  0  0  0  0  0  0  0
  1  2  1  0  0  0
  2  3  2  0  0  0
  3  4  1  0  0  0
  4 11  1  0  0  0
 11 12  2  0  0  0
 11 13  1  0  0  0
 13 15  1  0  0  0
 15 16  2  0  0  0
 16 17  1  0  0  0
 17 18  2  0  0  0
 18 19  1  0  0  0
 19 20  2  0  0  0
 19 21  1  0  0  0
 21 22  1  0  0  0
 22 23  1  0  0  0
  4  5  2  0  0  0
  5  6  1  0  0  0
  6  7  2  0  0  0
  7  8  1  0  0  0
  8  9  2  0  0  0
  9 29  1  0  0  0
 29 31  1  0  0  0
 31 32  1  0  0  0
 31 33  1  0  0  0
  9 10  1  0  0  0
 10 25  1  0  0  0
 25 26  1  0  0  0
  7  2  1  0  0  0
 20 15  1  0  0  0
 10  6  1  0  0  0
 23 18  1  0  0  0
 13 14  1  0  0  0
 22 24  1  0  0  0
 29 30  1  0  0  0
 26 27  1  0  0  0
 26 28  1  0  0  0
M  END
> <minimizedAffinity>
-9.33859

> <minimizedRMSD>
0.68672

$$$$
P29722


 33 37  0  0  0  0  0  0  0  0999 V2000
   -4.2702    6.7196  -21.6297 C   0  0  0  0  0  0  0  0  0  0  0  0
   -4.7527    6.4778  -20.2056 C   0  0  0  0  0  0  0  0  0  0  0  0
   -3.5816    6.1837  -19.2658 C   0  0  0  0  0  0  0  0  0  0  0  0
   -4.0764    5.8837  -17.8290 C   0  0  0  0  0  0  0  0  0  0  0  0
   -5.3765    5.2200  -17.8272 N   0  0  0  0  0  0  0  0  0  0  0  0
   -6.0847    4.9435  -18.9675 C   0  0  0  0  0  0  0  0  0  0  0  0
   -7.2331    4.3869  -18.7071 N   0  0  0  0  0  0  0  0  0  0  0  0
   -7.3605    4.4549  -17.3534 C   0  0  0  0  0  0  0  0  0  0  0  0
   -8.4704    4.1233  -16.5665 C   0  0  0  0  0  0  0  0  0  0  0  0
   -8.4066    4.3557  -15.1920 C   0  0  0  0  0  0  0  0  0  0  0  0
   -7.2498    4.8926  -14.6146 C   0  0  0  0  0  0  0  0  0  0  0  0
   -6.1247    5.2234  -15.3869 C   0  0  0  0  0  0  0  0  0  0  0  0
   -6.2151    4.9897  -16.7622 C   0  0  0  0  0  0  0  0  0  0  0  0
   -5.6371    5.3286  -20.1762 N   0  0  0  0  0  0  0  0  0  0  0  0
   -5.8967    4.8545  -20.9991 H   0  0  0  0  0  0  0  0  0  0  0  0
   -3.0205    5.0704  -17.0567 C   0  0  0  0  0  0  0  0  0  0  0  0
   -1.8810    5.8873  -16.6173 N   0  0  0  0  0  0  0  0  0  0  0  0
   -1.4069    6.2760  -17.4325 H   0  0  0  0  0  0  0  0  0  0  0  0
   -1.2293    5.3061  -16.0901 H   0  0  0  0  0  0  0  0  0  0  0  0
   -7.2233    5.2289  -13.1663 C   0  0  0  0  0  0  0  0  0  0  0  0
   -6.6524    6.1891  -12.8258 O   0  0  0  0  0  0  0  0  0  0  0  0
   -8.0401    4.2050  -12.3456 N   0  0  0  0  0  0  0  0  0  0  0  0
   -8.4935    3.5150  -12.8817 H   0  0  0  0  0  0  0  0  0  0  0  0
   -8.2388    4.1000  -10.9730 C   0  0  0  0  0  0  0  0  0  0  0  0
   -8.0403    5.2012  -10.1243 C   0  0  0  0  0  0  0  0  0  0  0  0
   -8.2777    5.0969   -8.7505 C   0  0  0  0  0  0  0  0  0  0  0  0
   -8.7187    3.8844   -8.2562 C   0  0  0  0  0  0  0  0  0  0  0  0
   -8.8993    2.7881   -9.0952 C   0  0  0  0  0  0  0  0  0  0  0  0
   -8.6655    2.8746  -10.4557 C   0  0  0  0  0  0  0  0  0  0  0  0
   -9.3295    1.6176   -8.2767 C   0  0  0  0  0  0  0  0  0  0  0  0
   -9.7928    2.2020   -6.9917 N   0  0  0  0  0  0  0  0  0  0  0  0
   -9.0670    3.4861   -6.8608 C   0  0  0  0  0  0  0  0  0  0  0  0
   -9.5645    1.5820   -6.2145 H   0  0  0  0  0  0  0  0  0  0  0  0
  2  1  1  0  0  0
  2  3  1  0  0  0
  3  4  1  0  0  0
  4 16  1  0  0  0
 16 17  1  0  0  0
  4  5  1  0  0  0
  5  6  1  0  0  0
  6  7  2  0  0  0
  7  8  1  0  0  0
  8  9  2  0  0  0
  9 10  1  0  0  0
 10 11  2  0  0  0
 11 20  1  0  0  0
 20 21  2  0  0  0
 20 22  1  0  0  0
 22 24  1  0  0  0
 24 25  2  0  0  0
 25 26  1  0  0  0
 26 27  2  0  0  0
 27 28  1  0  0  0
 28 29  2  0  0  0
 28 30  1  0  0  0
 30 31  1  0  0  0
 31 32  1  0  0  0
 11 12  1  0  0  0
 12 13  2  0  0  0
  6 14  1  0  0  0
 14  2  1  0  0  0
 13  5  1  0  0  0
 13  8  1  0  0  0
 29 24  1  0  0  0
 32 27  1  0  0  0
 17 18  1  0  0  0
 17 19  1  0  0  0
 22 23  1  0  0  0
 31 33  1  0  0  0
 14 15  1  0  0  0
M  END
> <minimizedAffinity>
-9.08799

> <minimizedRMSD>
0.21994

$$$$
P29728


 46 51  0  0  0  0  0  0  0  0999 V2000
   -5.5627    5.0837  -19.1600 C   0  0  0  0  0  0  0  0  0  0  0  0
   -6.7211    4.5261  -19.4059 N   0  0  0  0  0  0  0  0  0  0  0  0
   -7.3901    4.5115  -18.2059 C   0  0  0  0  0  0  0  0  0  0  0  0
   -8.7025    4.1156  -17.8977 C   0  0  0  0  0  0  0  0  0  0  0  0
   -9.1645    4.2486  -16.5760 C   0  0  0  0  0  0  0  0  0  0  0  0
   -8.3250    4.7640  -15.5809 C   0  0  0  0  0  0  0  0  0  0  0  0
   -7.0011    5.1412  -15.8690 C   0  0  0  0  0  0  0  0  0  0  0  0
   -6.5796    5.0012  -17.1898 C   0  0  0  0  0  0  0  0  0  0  0  0
   -5.3985    5.2939  -17.8165 N   0  0  0  0  0  0  0  0  0  0  0  0
   -4.5732    5.6024  -17.3774 H   0  0  0  0  0  0  0  0  0  0  0  0
   -8.8111    5.0435  -14.1995 C   0  0  0  0  0  0  0  0  0  0  0  0
   -9.6154    5.9294  -14.1137 O   0  0  0  0  0  0  0  0  0  0  0  0
   -8.1917    4.2369  -13.1869 N   0  0  0  0  0  0  0  0  0  0  0  0
   -7.6156    3.5177  -13.5336 H   0  0  0  0  0  0  0  0  0  0  0  0
   -8.2666    4.2983  -11.7925 C   0  0  0  0  0  0  0  0  0  0  0  0
   -7.9652    5.4845  -11.0988 C   0  0  0  0  0  0  0  0  0  0  0  0
   -8.0055    5.5346   -9.7010 C   0  0  0  0  0  0  0  0  0  0  0  0
   -8.3580    4.3874   -9.0163 C   0  0  0  0  0  0  0  0  0  0  0  0
   -8.6611    3.2134   -9.6965 C   0  0  0  0  0  0  0  0  0  0  0  0
   -8.6213    3.1478  -11.0824 C   0  0  0  0  0  0  0  0  0  0  0  0
   -8.9612    2.1372   -8.7069 C   0  0  0  0  0  0  0  0  0  0  0  0
   -9.0916    2.8233   -7.3931 N   0  0  0  0  0  0  0  0  0  0  0  0
   -8.4644    4.1507   -7.5483 C   0  0  0  0  0  0  0  0  0  0  0  0
   -8.6121    2.2897   -6.6680 H   0  0  0  0  0  0  0  0  0  0  0  0
   -4.6240    5.4452  -20.0695 N   0  0  0  0  0  0  0  0  0  0  0  0
   -4.1837    4.7682  -20.6325 H   0  0  0  0  0  0  0  0  0  0  0  0
   -5.5311    7.7247  -20.4098 C   0  0  0  0  0  0  0  0  0  0  0  0
   -4.2754    6.8735  -20.1987 C   0  0  0  0  0  0  0  0  0  0  0  0
   -3.2389    7.0943  -21.3304 C   0  0  0  0  0  0  0  0  0  0  0  0
   -3.8184    7.0427  -22.6796 N   0  0  0  0  0  0  0  0  0  0  0  0
   -4.2072    7.9548  -22.9192 H   0  0  0  0  0  0  0  0  0  0  0  0
   -2.7761    6.6912  -23.6341 N   0  0  0  0  0  0  0  0  0  0  0  0
   -2.3650    5.7988  -23.3604 H   0  0  0  0  0  0  0  0  0  0  0  0
   -3.3106    6.5713  -25.0124 C   0  0  0  0  0  0  0  0  0  0  0  0
   -2.1712    6.8479  -25.9955 C   0  0  0  0  0  0  0  0  0  0  0  0
   -4.4624    7.4955  -25.2478 C   0  0  0  0  0  0  0  0  0  0  0  0
   -5.6973    7.2163  -25.7943 C   0  0  0  0  0  0  0  0  0  0  0  0
   -6.3593    8.4204  -25.8104 N   0  0  0  0  0  0  0  0  0  0  0  0
   -5.5643    9.3774  -25.2678 N   0  0  0  0  0  0  0  0  0  0  0  0
   -4.4022    8.8282  -24.9422 N   0  0  0  0  0  0  0  0  0  0  0  0
   -7.6525    8.7168  -26.3113 C   0  0  0  0  0  0  0  0  0  0  0  0
   -8.5231    7.6949  -26.7149 C   0  0  0  0  0  0  0  0  0  0  0  0
   -9.7828    8.0171  -27.2275 C   0  0  0  0  0  0  0  0  0  0  0  0
  -10.1864    9.3475  -27.3245 C   0  0  0  0  0  0  0  0  0  0  0  0
   -9.3268   10.3661  -26.9204 C   0  0  0  0  0  0  0  0  0  0  0  0
   -8.0606   10.0556  -26.4206 C   0  0  0  0  0  0  0  0  0  0  0  0
 28 27  1  0  0  0
 28 29  1  0  0  0
 29 30  1  0  0  0
 30 32  1  0  0  0
 32 34  1  0  0  0
 34 35  1  0  0  0
 34 36  1  0  0  0
 36 37  2  0  0  0
 37 38  1  0  0  0
 38 41  1  0  0  0
 41 42  2  0  0  0
 42 43  1  0  0  0
 43 44  2  0  0  0
 44 45  1  0  0  0
 45 46  2  0  0  0
 38 39  1  0  0  0
 39 40  2  0  0  0
 28 25  1  0  0  0
 25  1  1  0  0  0
  1  2  2  0  0  0
  2  3  1  0  0  0
  3  4  2  0  0  0
  4  5  1  0  0  0
  5  6  2  0  0  0
  6 11  1  0  0  0
 11 12  2  0  0  0
 11 13  1  0  0  0
 13 15  1  0  0  0
 15 16  2  0  0  0
 16 17  1  0  0  0
 17 18  2  0  0  0
 18 19  1  0  0  0
 19 20  2  0  0  0
 19 21  1  0  0  0
 21 22  1  0  0  0
 22 23  1  0  0  0
  6  7  1  0  0  0
  7  8  2  0  0  0
  8  9  1  0  0  0
 40 36  1  0  0  0
  9  1  1  0  0  0
 46 41  1  0  0  0
  8  3  1  0  0  0
 20 15  1  0  0  0
 23 18  1  0  0  0
 30 31  1  0  0  0
 32 33  1  0  0  0
 25 26  1  0  0  0
 13 14  1  0  0  0
 22 24  1  0  0  0
  9 10  1  0  0  0
M  END
> <minimizedAffinity>
-8.89861

> <minimizedRMSD>
0.77387

$$$$
P29738


 29 32  0  0  0  0  0  0  0  0999 V2000
   -5.6116    4.9342  -18.9363 C   0  0  0  0  0  0  0  0  0  0  0  0
   -5.3328    5.3423  -17.7282 N   0  0  0  0  0  0  0  0  0  0  0  0
   -6.4204    5.0283  -16.9861 C   0  0  0  0  0  0  0  0  0  0  0  0
   -6.6222    5.2740  -15.6349 C   0  0  0  0  0  0  0  0  0  0  0  0
   -7.8528    4.9155  -15.0908 C   0  0  0  0  0  0  0  0  0  0  0  0
   -8.8350    4.2771  -15.8549 C   0  0  0  0  0  0  0  0  0  0  0  0
   -8.6380    4.0234  -17.2217 C   0  0  0  0  0  0  0  0  0  0  0  0
   -7.4154    4.4368  -17.7550 C   0  0  0  0  0  0  0  0  0  0  0  0
   -6.8847    4.4317  -19.0228 N   0  0  0  0  0  0  0  0  0  0  0  0
   -7.3355    4.1241  -19.8422 H   0  0  0  0  0  0  0  0  0  0  0  0
   -8.0679    5.3417  -13.6947 C   0  0  0  0  0  0  0  0  0  0  0  0
   -8.1058    6.4857  -13.4699 O   0  0  0  0  0  0  0  0  0  0  0  0
   -8.1071    4.1352  -12.7398 N   0  0  0  0  0  0  0  0  0  0  0  0
   -7.9826    3.2610  -13.1752 H   0  0  0  0  0  0  0  0  0  0  0  0
   -8.2897    4.0787  -11.3636 C   0  0  0  0  0  0  0  0  0  0  0  0
   -8.0623    5.2165  -10.5699 C   0  0  0  0  0  0  0  0  0  0  0  0
   -8.1815    5.1564   -9.1806 C   0  0  0  0  0  0  0  0  0  0  0  0
   -8.5538    3.9538   -8.6130 C   0  0  0  0  0  0  0  0  0  0  0  0
   -8.7882    2.8300   -9.3982 C   0  0  0  0  0  0  0  0  0  0  0  0
   -8.6497    2.8672  -10.7756 C   0  0  0  0  0  0  0  0  0  0  0  0
   -9.1342    1.6793   -8.5170 C   0  0  0  0  0  0  0  0  0  0  0  0
   -9.3585    2.2573   -7.1683 N   0  0  0  0  0  0  0  0  0  0  0  0
   -8.7566    3.6057   -7.1784 C   0  0  0  0  0  0  0  0  0  0  0  0
   -8.9105    1.6777   -6.4586 H   0  0  0  0  0  0  0  0  0  0  0  0
   -4.7950    4.9739  -19.9968 N   0  0  0  0  0  0  0  0  0  0  0  0
   -5.1555    4.8485  -20.9043 H   0  0  0  0  0  0  0  0  0  0  0  0
   -3.0490    6.6821  -19.5673 C   0  0  0  0  0  0  0  0  0  0  0  0
   -3.3646    5.2047  -19.7991 C   0  0  0  0  0  0  0  0  0  0  0  0
   -2.7463    4.3044  -18.7366 C   0  0  0  0  0  0  0  0  0  0  0  0
 27 28  1  0  0  0
 28 29  1  0  0  0
 28 25  1  0  0  0
 25  1  1  0  0  0
  1  2  2  0  0  0
  2  3  1  0  0  0
  3  4  2  0  0  0
  4  5  1  0  0  0
  5 11  1  0  0  0
 11 12  2  0  0  0
 11 13  1  0  0  0
 13 15  1  0  0  0
 15 16  2  0  0  0
 16 17  1  0  0  0
 17 18  2  0  0  0
 18 19  1  0  0  0
 19 20  2  0  0  0
 19 21  1  0  0  0
 21 22  1  0  0  0
 22 23  1  0  0  0
  5  6  2  0  0  0
  6  7  1  0  0  0
  7  8  2  0  0  0
  8  9  1  0  0  0
  9  1  1  0  0  0
  8  3  1  0  0  0
 20 15  1  0  0  0
 23 18  1  0  0  0
 25 26  1  0  0  0
 13 14  1  0  0  0
 22 24  1  0  0  0
  9 10  1  0  0  0
M  END
> <minimizedAffinity>
-8.88861

> <minimizedRMSD>
0.56692

$$$$
P29743


 32 35  0  0  0  0  0  0  0  0999 V2000
   -5.6785    4.9412  -18.6500 C   0  0  0  0  0  0  0  0  0  0  0  0
   -5.4240    5.4084  -17.4530 N   0  0  0  0  0  0  0  0  0  0  0  0
   -6.5049    5.0534  -16.6988 C   0  0  0  0  0  0  0  0  0  0  0  0
   -6.6649    5.2875  -15.3289 C   0  0  0  0  0  0  0  0  0  0  0  0
   -5.5995    5.8185  -14.5879 N   0  0  0  0  0  0  0  0  0  0  0  0
   -7.8993    4.9171  -14.7786 C   0  0  0  0  0  0  0  0  0  0  0  0
   -8.9026    4.3070  -15.5470 C   0  0  0  0  0  0  0  0  0  0  0  0
   -8.7187    4.0388  -16.9079 C   0  0  0  0  0  0  0  0  0  0  0  0
   -7.4958    4.4382  -17.4503 C   0  0  0  0  0  0  0  0  0  0  0  0
   -6.9189    4.3439  -18.6852 N   0  0  0  0  0  0  0  0  0  0  0  0
   -7.5613    3.4158  -19.9765 Cl  0  0  0  0  0  0  0  0  0  0  0  0
   -4.7576    6.0580  -15.0385 H   0  0  0  0  0  0  0  0  0  0  0  0
   -5.6933    5.9517  -13.6169 H   0  0  0  0  0  0  0  0  0  0  0  0
   -8.1773    5.3112  -13.3819 C   0  0  0  0  0  0  0  0  0  0  0  0
   -8.2980    6.4473  -13.1395 O   0  0  0  0  0  0  0  0  0  0  0  0
   -8.2340    4.0795  -12.4553 N   0  0  0  0  0  0  0  0  0  0  0  0
   -8.1773    3.2126  -12.9184 H   0  0  0  0  0  0  0  0  0  0  0  0
   -8.3520    3.9941  -11.0735 C   0  0  0  0  0  0  0  0  0  0  0  0
   -8.0852    5.1098  -10.2624 C   0  0  0  0  0  0  0  0  0  0  0  0
   -8.1856    5.0239   -8.8723 C   0  0  0  0  0  0  0  0  0  0  0  0
   -8.5733    3.8175   -8.3219 C   0  0  0  0  0  0  0  0  0  0  0  0
   -8.8370    2.7128   -9.1243 C   0  0  0  0  0  0  0  0  0  0  0  0
   -8.7207    2.7762  -10.5025 C   0  0  0  0  0  0  0  0  0  0  0  0
   -9.1944    1.5518   -8.2612 C   0  0  0  0  0  0  0  0  0  0  0  0
   -9.3958    2.1091   -6.9001 N   0  0  0  0  0  0  0  0  0  0  0  0
   -8.7695    3.4469   -6.8919 C   0  0  0  0  0  0  0  0  0  0  0  0
   -8.9516    1.5089   -6.2052 H   0  0  0  0  0  0  0  0  0  0  0  0
   -4.8235    4.9964  -19.6888 N   0  0  0  0  0  0  0  0  0  0  0  0
   -5.1179    4.7773  -20.6023 H   0  0  0  0  0  0  0  0  0  0  0  0
   -2.8366    5.9451  -20.7037 C   0  0  0  0  0  0  0  0  0  0  0  0
   -3.4438    5.3926  -19.4146 C   0  0  0  0  0  0  0  0  0  0  0  0
   -2.6190    4.2180  -18.9049 C   0  0  0  0  0  0  0  0  0  0  0  0
 30 31  1  0  0  0
 31 32  1  0  0  0
 31 28  1  0  0  0
 28  1  1  0  0  0
  1  2  2  0  0  0
  2  3  1  0  0  0
  3  4  2  0  0  0
  4  5  1  0  0  0
  4  6  1  0  0  0
  6 14  1  0  0  0
 14 15  2  0  0  0
 14 16  1  0  0  0
 16 18  1  0  0  0
 18 19  2  0  0  0
 19 20  1  0  0  0
 20 21  2  0  0  0
 21 22  1  0  0  0
 22 23  2  0  0  0
 22 24  1  0  0  0
 24 25  1  0  0  0
 25 26  1  0  0  0
  6  7  2  0  0  0
  7  8  1  0  0  0
  8  9  2  0  0  0
  9 10  1  0  0  0
 10 11  1  0  0  0
 10  1  1  0  0  0
  9  3  1  0  0  0
 23 18  1  0  0  0
 26 21  1  0  0  0
 28 29  1  0  0  0
  5 12  1  0  0  0
  5 13  1  0  0  0
 16 17  1  0  0  0
 25 27  1  0  0  0
M  END
> <minimizedAffinity>
-8.24518

> <minimizedRMSD>
0.31370

$$$$
P29749


 40 44  0  0  0  0  0  0  0  0999 V2000
   -5.1543    5.2638  -18.6651 C   0  0  0  0  0  0  0  0  0  0  0  0
   -6.3498    4.7940  -18.9381 N   0  0  0  0  0  0  0  0  0  0  0  0
   -6.9572    4.5647  -17.7169 C   0  0  0  0  0  0  0  0  0  0  0  0
   -8.2464    4.1255  -17.3474 C   0  0  0  0  0  0  0  0  0  0  0  0
   -9.2881    3.6081  -18.5990 Cl  0  0  0  0  0  0  0  0  0  0  0  0
   -8.6767    4.1946  -16.0163 C   0  0  0  0  0  0  0  0  0  0  0  0
   -7.7970    4.6839  -15.0508 C   0  0  0  0  0  0  0  0  0  0  0  0
   -6.4661    5.0133  -15.3536 C   0  0  0  0  0  0  0  0  0  0  0  0
   -6.0898    4.9369  -16.6911 C   0  0  0  0  0  0  0  0  0  0  0  0
   -4.9116    5.2258  -17.3211 N   0  0  0  0  0  0  0  0  0  0  0  0
   -4.0428    5.3792  -16.8842 H   0  0  0  0  0  0  0  0  0  0  0  0
   -8.2630    5.0773  -13.7034 C   0  0  0  0  0  0  0  0  0  0  0  0
   -8.5711    6.1943  -13.5589 O   0  0  0  0  0  0  0  0  0  0  0  0
   -8.1664    3.9260  -12.6810 N   0  0  0  0  0  0  0  0  0  0  0  0
   -7.9540    3.0466  -13.0694 H   0  0  0  0  0  0  0  0  0  0  0  0
   -8.3309    3.9282  -11.2954 C   0  0  0  0  0  0  0  0  0  0  0  0
   -8.0296    5.0888  -10.5602 C   0  0  0  0  0  0  0  0  0  0  0  0
   -8.1308    5.1073   -9.1695 C   0  0  0  0  0  0  0  0  0  0  0  0
   -8.5500    3.9555   -8.5338 C   0  0  0  0  0  0  0  0  0  0  0  0
   -8.8665    2.8064   -9.2520 C   0  0  0  0  0  0  0  0  0  0  0  0
   -8.7571    2.7709  -10.6371 C   0  0  0  0  0  0  0  0  0  0  0  0
   -9.2667    1.7222   -8.2979 C   0  0  0  0  0  0  0  0  0  0  0  0
   -9.2807    2.3450   -6.9363 N   0  0  0  0  0  0  0  0  0  0  0  0
  -10.6108    2.4018   -6.3532 N   0  0  0  0  0  0  0  0  0  0  0  0
   -8.7240    3.7125   -7.0714 C   0  0  0  0  0  0  0  0  0  0  0  0
  -10.9840    1.4567   -6.2649 H   0  0  0  0  0  0  0  0  0  0  0  0
  -11.2224    2.9540   -6.9544 H   0  0  0  0  0  0  0  0  0  0  0  0
   -4.2685    5.9420  -19.4325 N   0  0  0  0  0  0  0  0  0  0  0  0
   -3.0510    5.2754  -19.8423 C   0  0  0  0  0  0  0  0  0  0  0  0
   -2.7824    4.1778  -18.9818 O   0  0  0  0  0  0  0  0  0  0  0  0
   -2.6749    4.4984  -18.0726 H   0  0  0  0  0  0  0  0  0  0  0  0
   -4.6855    6.7984  -21.7428 C   0  0  0  0  0  0  0  0  0  0  0  0
   -4.8208    7.0413  -20.2432 C   0  0  0  0  0  0  0  0  0  0  0  0
   -4.1529    8.3683  -19.8116 C   0  0  0  0  0  0  0  0  0  0  0  0
   -5.1378    9.5038  -19.6468 C   0  0  0  0  0  0  0  0  0  0  0  0
   -5.5723   10.2477  -20.7499 C   0  0  0  0  0  0  0  0  0  0  0  0
   -6.4686   11.3036  -20.5773 C   0  0  0  0  0  0  0  0  0  0  0  0
   -6.9413   11.6204  -19.3040 C   0  0  0  0  0  0  0  0  0  0  0  0
   -6.5254   10.8775  -18.2011 C   0  0  0  0  0  0  0  0  0  0  0  0
   -5.6285    9.8229  -18.3713 C   0  0  0  0  0  0  0  0  0  0  0  0
 33 32  1  0  0  0
 33 34  1  0  0  0
 34 35  1  0  0  0
 35 36  2  0  0  0
 36 37  1  0  0  0
 37 38  2  0  0  0
 38 39  1  0  0  0
 39 40  2  0  0  0
 33 28  1  0  0  0
 28 29  1  0  0  0
 29 30  1  0  0  0
 28  1  1  0  0  0
  1  2  2  0  0  0
  2  3  1  0  0  0
  3  4  2  0  0  0
  4  5  1  0  0  0
  4  6  1  0  0  0
  6  7  2  0  0  0
  7 12  1  0  0  0
 12 13  2  0  0  0
 12 14  1  0  0  0
 14 16  1  0  0  0
 16 17  2  0  0  0
 17 18  1  0  0  0
 18 19  2  0  0  0
 19 20  1  0  0  0
 20 21  2  0  0  0
 20 22  1  0  0  0
 22 23  1  0  0  0
 23 24  1  0  0  0
 23 25  1  0  0  0
  7  8  1  0  0  0
  8  9  2  0  0  0
  9 10  1  0  0  0
 40 35  1  0  0  0
 10  1  1  0  0  0
  9  3  1  0  0  0
 21 16  1  0  0  0
 25 19  1  0  0  0
 30 31  1  0  0  0
 14 15  1  0  0  0
 24 26  1  0  0  0
 24 27  1  0  0  0
 10 11  1  0  0  0
M  END
> <minimizedAffinity>
-9.45666

> <minimizedRMSD>
0.66520

$$$$
P29750


 30 33  0  0  0  0  0  0  0  0999 V2000
   -5.0361    5.4021  -18.6875 C   0  0  0  0  0  0  0  0  0  0  0  0
   -6.1133    4.7933  -19.1144 N   0  0  0  0  0  0  0  0  0  0  0  0
   -6.9004    4.6044  -18.0046 C   0  0  0  0  0  0  0  0  0  0  0  0
   -8.1869    4.0582  -17.8432 C   0  0  0  0  0  0  0  0  0  0  0  0
   -8.8817    3.5712  -18.8838 F   0  0  0  0  0  0  0  0  0  0  0  0
   -8.7854    4.0814  -16.5775 C   0  0  0  0  0  0  0  0  0  0  0  0
   -8.1095    4.6523  -15.4985 C   0  0  0  0  0  0  0  0  0  0  0  0
   -6.8140    5.1593  -15.6160 C   0  0  0  0  0  0  0  0  0  0  0  0
   -6.2590    5.1178  -16.8821 C   0  0  0  0  0  0  0  0  0  0  0  0
   -5.0735    5.5972  -17.3445 N   0  0  0  0  0  0  0  0  0  0  0  0
   -4.3661    6.0131  -16.8006 H   0  0  0  0  0  0  0  0  0  0  0  0
   -8.7309    4.8613  -14.1789 C   0  0  0  0  0  0  0  0  0  0  0  0
   -9.5672    5.6692  -14.0898 O   0  0  0  0  0  0  0  0  0  0  0  0
   -8.0581    3.9991  -13.0979 N   0  0  0  0  0  0  0  0  0  0  0  0
   -7.4253    3.3277  -13.4412 H   0  0  0  0  0  0  0  0  0  0  0  0
   -8.1979    4.0133  -11.7154 C   0  0  0  0  0  0  0  0  0  0  0  0
   -7.9581    5.1930  -10.9889 C   0  0  0  0  0  0  0  0  0  0  0  0
   -8.0684    5.2126   -9.5978 C   0  0  0  0  0  0  0  0  0  0  0  0
   -8.4470    4.0468   -8.9623 C   0  0  0  0  0  0  0  0  0  0  0  0
   -8.6838    2.8793   -9.6810 C   0  0  0  0  0  0  0  0  0  0  0  0
   -8.5489    2.8360  -11.0579 C   0  0  0  0  0  0  0  0  0  0  0  0
   -9.0428    1.7858   -8.7348 C   0  0  0  0  0  0  0  0  0  0  0  0
   -9.2893    2.4500   -7.4309 N   0  0  0  0  0  0  0  0  0  0  0  0
   -8.6673    3.7866   -7.5117 C   0  0  0  0  0  0  0  0  0  0  0  0
   -8.8660    1.9104   -6.6758 H   0  0  0  0  0  0  0  0  0  0  0  0
   -4.0661    5.9480  -19.4347 N   0  0  0  0  0  0  0  0  0  0  0  0
   -4.2689    6.7666  -19.9427 H   0  0  0  0  0  0  0  0  0  0  0  0
   -1.7918    6.3509  -18.7756 C   0  0  0  0  0  0  0  0  0  0  0  0
   -2.7157    5.3815  -19.5301 C   0  0  0  0  0  0  0  0  0  0  0  0
   -2.5571    3.9957  -18.9118 C   0  0  0  0  0  0  0  0  0  0  0  0
 28 29  1  0  0  0
 29 30  1  0  0  0
 29 26  1  0  0  0
 26  1  1  0  0  0
  1  2  2  0  0  0
  2  3  1  0  0  0
  3  4  2  0  0  0
  4  5  1  0  0  0
  4  6  1  0  0  0
  6  7  2  0  0  0
  7 12  1  0  0  0
 12 13  2  0  0  0
 12 14  1  0  0  0
 14 16  1  0  0  0
 16 17  2  0  0  0
 17 18  1  0  0  0
 18 19  2  0  0  0
 19 20  1  0  0  0
 20 21  2  0  0  0
 20 22  1  0  0  0
 22 23  1  0  0  0
 23 24  1  0  0  0
  7  8  1  0  0  0
  8  9  2  0  0  0
  9 10  1  0  0  0
 10  1  1  0  0  0
  9  3  1  0  0  0
 21 16  1  0  0  0
 24 19  1  0  0  0
 26 27  1  0  0  0
 14 15  1  0  0  0
 23 25  1  0  0  0
 10 11  1  0  0  0
M  END
> <minimizedAffinity>
-9.19851

> <minimizedRMSD>
1.10887

$$$$
P29752


 35 39  0  0  0  0  0  0  0  0999 V2000
   -3.8924    7.4300  -21.3316 C   0  0  0  0  0  0  0  0  0  0  0  0
   -4.6407    6.9576  -20.0901 C   0  0  0  0  0  0  0  0  0  0  0  0
   -3.7194    6.8771  -18.8796 C   0  0  0  0  0  0  0  0  0  0  0  0
   -4.4242    6.2554  -17.6175 C   0  0  0  0  0  0  0  0  0  0  0  0
   -4.9897    7.4054  -16.7660 C   0  0  0  0  0  0  0  0  0  0  0  0
   -5.5062    5.3350  -17.9980 N   0  0  0  0  0  0  0  0  0  0  0  0
   -5.8110    5.0508  -19.3012 C   0  0  0  0  0  0  0  0  0  0  0  0
   -6.8751    4.3120  -19.4169 N   0  0  0  0  0  0  0  0  0  0  0  0
   -7.4173    4.2708  -18.1719 C   0  0  0  0  0  0  0  0  0  0  0  0
   -8.6748    3.8045  -17.7605 C   0  0  0  0  0  0  0  0  0  0  0  0
   -9.5539    3.3137  -18.6482 F   0  0  0  0  0  0  0  0  0  0  0  0
   -9.0587    3.9657  -16.4326 C   0  0  0  0  0  0  0  0  0  0  0  0
   -8.1826    4.5499  -15.5217 C   0  0  0  0  0  0  0  0  0  0  0  0
   -6.8966    4.9588  -15.8914 C   0  0  0  0  0  0  0  0  0  0  0  0
   -6.5587    4.8644  -17.2417 C   0  0  0  0  0  0  0  0  0  0  0  0
   -5.1535    5.6331  -20.3130 N   0  0  0  0  0  0  0  0  0  0  0  0
   -5.0267    5.1727  -21.1740 H   0  0  0  0  0  0  0  0  0  0  0  0
   -3.1244    5.4044  -16.6690 S   0  0  0  0  0  0  0  0  0  0  0  0
   -1.9672    6.6787  -16.2042 C   0  0  0  0  0  0  0  0  0  0  0  0
   -3.6828    4.9061  -15.4247 O   0  0  0  0  0  0  0  0  0  0  0  0
   -2.4097    4.5222  -17.5686 O   0  0  0  0  0  0  0  0  0  0  0  0
   -8.6380    4.9398  -14.1685 C   0  0  0  0  0  0  0  0  0  0  0  0
   -9.3156    5.8853  -14.0715 O   0  0  0  0  0  0  0  0  0  0  0  0
   -8.1035    3.9791  -13.0897 N   0  0  0  0  0  0  0  0  0  0  0  0
   -7.6080    3.2029  -13.4380 H   0  0  0  0  0  0  0  0  0  0  0  0
   -8.2067    4.0294  -11.7041 C   0  0  0  0  0  0  0  0  0  0  0  0
   -7.9004    5.2079  -11.0034 C   0  0  0  0  0  0  0  0  0  0  0  0
   -7.9992    5.2580   -9.6109 C   0  0  0  0  0  0  0  0  0  0  0  0
   -8.4112    4.1183   -8.9462 C   0  0  0  0  0  0  0  0  0  0  0  0
   -8.7094    2.9508   -9.6397 C   0  0  0  0  0  0  0  0  0  0  0  0
   -8.6139    2.8852  -11.0190 C   0  0  0  0  0  0  0  0  0  0  0  0
   -9.0626    1.8773   -8.6689 C   0  0  0  0  0  0  0  0  0  0  0  0
   -9.2434    2.5614   -7.3623 N   0  0  0  0  0  0  0  0  0  0  0  0
   -8.5937    3.8832   -7.4860 C   0  0  0  0  0  0  0  0  0  0  0  0
   -8.8031    2.0207   -6.6179 H   0  0  0  0  0  0  0  0  0  0  0  0
  2  1  1  0  0  0
  2  3  1  0  0  0
  3  4  1  0  0  0
  4  5  1  0  0  0
  4 18  1  0  0  0
 18 19  1  0  0  0
 18 20  2  0  0  0
 18 21  2  0  0  0
  4  6  1  0  0  0
  6  7  1  0  0  0
  7  8  2  0  0  0
  8  9  1  0  0  0
  9 10  2  0  0  0
 10 11  1  0  0  0
 10 12  1  0  0  0
 12 13  2  0  0  0
 13 22  1  0  0  0
 22 23  2  0  0  0
 22 24  1  0  0  0
 24 26  1  0  0  0
 26 27  2  0  0  0
 27 28  1  0  0  0
 28 29  2  0  0  0
 29 30  1  0  0  0
 30 31  2  0  0  0
 30 32  1  0  0  0
 32 33  1  0  0  0
 33 34  1  0  0  0
 13 14  1  0  0  0
 14 15  2  0  0  0
  7 16  1  0  0  0
 16  2  1  0  0  0
 15  6  1  0  0  0
 15  9  1  0  0  0
 31 26  1  0  0  0
 34 29  1  0  0  0
 24 25  1  0  0  0
 33 35  1  0  0  0
 16 17  1  0  0  0
M  END
> <minimizedAffinity>
-10.06771

> <minimizedRMSD>
0.82458

$$$$
P29754


 40 45  0  0  0  0  0  0  0  0999 V2000
   -4.3894    7.4759  -16.8951 C   0  0  0  0  0  0  0  0  0  0  0  0
   -3.8053    5.7216  -16.7885 S   0  0  0  0  0  0  0  0  0  0  0  0
   -5.0704    5.0540  -17.5894 N   0  0  0  0  0  0  0  0  0  0  0  0
   -6.3561    4.7829  -17.1126 C   0  0  0  0  0  0  0  0  0  0  0  0
   -6.8375    4.8716  -15.8223 C   0  0  0  0  0  0  0  0  0  0  0  0
   -8.1959    4.6206  -15.5976 C   0  0  0  0  0  0  0  0  0  0  0  0
   -9.0500    4.2549  -16.6480 C   0  0  0  0  0  0  0  0  0  0  0  0
   -8.5391    4.1736  -17.9459 C   0  0  0  0  0  0  0  0  0  0  0  0
   -9.3688    3.8736  -18.9546 F   0  0  0  0  0  0  0  0  0  0  0  0
   -7.1976    4.4488  -18.1770 C   0  0  0  0  0  0  0  0  0  0  0  0
   -6.4895    4.4412  -19.4057 N   0  0  0  0  0  0  0  0  0  0  0  0
   -5.0983    4.7397  -19.0200 C   0  0  0  0  0  0  0  0  0  0  0  0
   -4.2143    5.4447  -19.9327 N   0  0  0  0  0  0  0  0  0  0  0  0
   -4.4177    6.8929  -20.0427 C   0  0  0  0  0  0  0  0  0  0  0  0
   -4.3022    7.1049  -21.5633 C   0  0  0  0  0  0  0  0  0  0  0  0
   -3.3336    7.7147  -19.2338 C   0  0  0  0  0  0  0  0  0  0  0  0
   -2.9178    9.0368  -19.8944 C   0  0  0  0  0  0  0  0  0  0  0  0
   -4.0254    9.9238  -19.5458 N   0  0  0  0  0  0  0  0  0  0  0  0
   -4.3273    9.5651  -18.1658 C   0  0  0  0  0  0  0  0  0  0  0  0
   -3.7059    8.2716  -17.9155 N   0  0  0  0  0  0  0  0  0  0  0  0
   -6.8452    4.2748  -20.3085 H   0  0  0  0  0  0  0  0  0  0  0  0
   -4.3399    5.0414  -20.8611 H   0  0  0  0  0  0  0  0  0  0  0  0
   -4.8300    9.7572  -20.1502 H   0  0  0  0  0  0  0  0  0  0  0  0
   -8.7045    4.9188  -14.2391 C   0  0  0  0  0  0  0  0  0  0  0  0
   -9.4349    5.8226  -14.1253 O   0  0  0  0  0  0  0  0  0  0  0  0
   -8.1030    3.9781  -13.1739 N   0  0  0  0  0  0  0  0  0  0  0  0
   -7.5671    3.2355  -13.5352 H   0  0  0  0  0  0  0  0  0  0  0  0
   -8.1950    4.0088  -11.7819 C   0  0  0  0  0  0  0  0  0  0  0  0
   -7.9248    5.1917  -11.0705 C   0  0  0  0  0  0  0  0  0  0  0  0
   -8.0093    5.2301   -9.6751 C   0  0  0  0  0  0  0  0  0  0  0  0
   -8.3852    4.0768   -9.0155 C   0  0  0  0  0  0  0  0  0  0  0  0
   -8.6461    2.9010   -9.7148 C   0  0  0  0  0  0  0  0  0  0  0  0
   -8.5481    2.8438  -11.0963 C   0  0  0  0  0  0  0  0  0  0  0  0
   -8.9970    1.8286   -8.7364 C   0  0  0  0  0  0  0  0  0  0  0  0
   -9.3187    2.5488   -7.4760 N   0  0  0  0  0  0  0  0  0  0  0  0
   -8.5826    3.8298   -7.5571 C   0  0  0  0  0  0  0  0  0  0  0  0
   -9.0086    2.0095   -6.6677 H   0  0  0  0  0  0  0  0  0  0  0  0
   -2.8625    8.5939  -15.1108 C   0  0  0  0  0  0  0  0  0  0  0  0
   -4.2580    8.0403  -15.4344 C   0  0  0  0  0  0  0  0  0  0  0  0
   -5.3183    9.0866  -15.0700 C   0  0  0  0  0  0  0  0  0  0  0  0
 38 39  1  0  0  0
 39 40  1  0  0  0
  1 39  1  0  0  0
  1  2  1  0  0  0
  2  3  1  0  0  0
  3  4  1  0  0  0
  4  5  2  0  0  0
  5  6  1  0  0  0
  6 24  1  0  0  0
 24 25  2  0  0  0
 24 26  1  0  0  0
 26 28  1  0  0  0
 28 29  2  0  0  0
 29 30  1  0  0  0
 30 31  2  0  0  0
 31 32  1  0  0  0
 32 33  2  0  0  0
 32 34  1  0  0  0
 34 35  1  0  0  0
 35 36  1  0  0  0
  6  7  2  0  0  0
  7  8  1  0  0  0
  8  9  1  0  0  0
  8 10  2  0  0  0
 10 11  1  0  0  0
 12 11  1  0  0  0
 12 13  1  0  0  0
 13 14  1  0  0  0
 14 15  1  0  0  0
 14 16  1  0  0  0
 16 17  1  0  0  0
 17 18  1  0  0  0
 18 19  1  0  0  0
 19 20  1  0  0  0
 20  1  1  0  0  0
 12  3  1  0  0  0
 20 16  1  0  0  0
 10  4  1  0  0  0
 33 28  1  0  0  0
 36 31  1  0  0  0
 26 27  1  0  0  0
 35 37  1  0  0  0
 11 21  1  0  0  0
 13 22  1  0  0  0
 18 23  1  0  0  0
M  END
> <minimizedAffinity>
-10.80117

> <minimizedRMSD>
0.93375

$$$$
P29758


 44 47  0  0  0  0  0  0  0  0999 V2000
   -7.1369    4.9097  -12.9660 C   0  0  0  0  0  0  0  0  0  0  0  0
   -5.5693    4.9624  -18.8190 C   0  0  0  0  0  0  0  0  0  0  0  0
   -6.8105    4.5578  -18.7249 N   0  0  0  0  0  0  0  0  0  0  0  0
   -7.1063    4.5526  -17.3780 C   0  0  0  0  0  0  0  0  0  0  0  0
   -8.2734    4.2438  -16.6640 C   0  0  0  0  0  0  0  0  0  0  0  0
   -9.6250    3.7738  -17.6011 Cl  0  0  0  0  0  0  0  0  0  0  0  0
   -8.3092    4.3432  -15.2617 C   0  0  0  0  0  0  0  0  0  0  0  0
   -7.1595    4.7185  -14.5290 C   0  0  0  0  0  0  0  0  0  0  0  0
   -5.9784    5.0280  -15.2498 C   0  0  0  0  0  0  0  0  0  0  0  0
   -5.9938    4.9419  -16.6433 C   0  0  0  0  0  0  0  0  0  0  0  0
   -5.0243    5.1708  -17.5819 N   0  0  0  0  0  0  0  0  0  0  0  0
   -4.0950    5.4391  -17.3982 H   0  0  0  0  0  0  0  0  0  0  0  0
   -4.8518    5.1106  -19.9519 N   0  0  0  0  0  0  0  0  0  0  0  0
   -4.7469    4.3436  -20.5600 H   0  0  0  0  0  0  0  0  0  0  0  0
   -5.1355    7.1856  -21.2243 C   0  0  0  0  0  0  0  0  0  0  0  0
   -4.2285    6.3834  -20.2939 C   0  0  0  0  0  0  0  0  0  0  0  0
   -2.8942    6.1110  -20.9803 C   0  0  0  0  0  0  0  0  0  0  0  0
   -7.3589    6.5671  -12.7943 C   0  0  0  0  0  0  0  0  0  0  0  0
   -6.4989    7.2930  -12.4701 O   0  0  0  0  0  0  0  0  0  0  0  0
   -8.8481    6.8594  -13.1391 N   0  0  0  0  0  0  0  0  0  0  0  0
   -9.3572    6.0808  -13.4614 H   0  0  0  0  0  0  0  0  0  0  0  0
   -9.6080    8.0928  -13.0626 C   0  0  0  0  0  0  0  0  0  0  0  0
   -8.9203    9.2596  -12.3540 C   0  0  0  0  0  0  0  0  0  0  0  0
   -9.8637   10.1550  -11.9526 F   0  0  0  0  0  0  0  0  0  0  0  0
   -8.1129    9.9306  -13.2147 F   0  0  0  0  0  0  0  0  0  0  0  0
   -5.7654    4.6536  -12.4677 N   0  0  0  0  0  0  0  0  0  0  0  0
   -5.5992    5.2836  -11.6828 H   0  0  0  0  0  0  0  0  0  0  0  0
   -5.4717    3.2838  -12.0104 C   0  0  0  0  0  0  0  0  0  0  0  0
   -4.9583    3.2932  -10.5673 C   0  0  0  0  0  0  0  0  0  0  0  0
   -4.2275    4.1432  -10.0756 O   0  0  0  0  0  0  0  0  0  0  0  0
   -5.4047    2.2435   -9.8501 O   0  0  0  0  0  0  0  0  0  0  0  0
   -5.9633    1.6064  -10.2502 H   0  0  0  0  0  0  0  0  0  0  0  0
   -8.3115    4.2060  -12.3708 N   0  0  0  0  0  0  0  0  0  0  0  0
   -9.0152    3.8298  -12.9475 H   0  0  0  0  0  0  0  0  0  0  0  0
   -8.3956    4.0894  -10.9627 C   0  0  0  0  0  0  0  0  0  0  0  0
   -8.1236    5.1592  -10.0860 C   0  0  0  0  0  0  0  0  0  0  0  0
   -8.2293    5.0249   -8.6969 C   0  0  0  0  0  0  0  0  0  0  0  0
   -8.6110    3.8041   -8.1841 C   0  0  0  0  0  0  0  0  0  0  0  0
   -8.8822    2.7350   -9.0243 C   0  0  0  0  0  0  0  0  0  0  0  0
   -8.8096    2.8655  -10.4044 C   0  0  0  0  0  0  0  0  0  0  0  0
   -9.1715    1.5273   -8.1980 C   0  0  0  0  0  0  0  0  0  0  0  0
   -9.3730    2.0292   -6.8162 N   0  0  0  0  0  0  0  0  0  0  0  0
   -8.7964    3.3872   -6.7658 C   0  0  0  0  0  0  0  0  0  0  0  0
   -8.8977    1.4212   -6.1492 H   0  0  0  0  0  0  0  0  0  0  0  0
 15 16  1  0  0  0
 16 17  1  0  0  0
 16 13  1  0  0  0
 13  2  1  0  0  0
  2  3  2  0  0  0
  3  4  1  0  0  0
  4  5  2  0  0  0
  5  6  1  0  0  0
  5  7  1  0  0  0
  7  8  2  0  0  0
  8  1  1  0  0  0
  1 26  1  0  0  0
 26 28  1  0  0  0
 28 29  1  0  0  0
 29 30  2  0  0  0
 29 31  1  0  0  0
  1 33  1  0  0  0
 33 35  1  0  0  0
 35 36  2  0  0  0
 36 37  1  0  0  0
 37 38  2  0  0  0
 38 39  1  0  0  0
 39 40  2  0  0  0
 39 41  1  0  0  0
 41 42  1  0  0  0
 42 43  1  0  0  0
  1 18  1  0  0  0
 18 19  2  0  0  0
 18 20  1  0  0  0
 20 22  1  0  0  0
 22 23  1  0  0  0
 23 24  1  0  0  0
 23 25  1  0  0  0
  8  9  1  0  0  0
  9 10  2  0  0  0
 10 11  1  0  0  0
 11  2  1  0  0  0
 10  4  1  0  0  0
 40 35  1  0  0  0
 43 38  1  0  0  0
 13 14  1  0  0  0
 26 27  1  0  0  0
 31 32  1  0  0  0
 33 34  1  0  0  0
 42 44  1  0  0  0
 20 21  1  0  0  0
 11 12  1  0  0  0
M  END
> <minimizedAffinity>
-8.06376

> <minimizedRMSD>
0.42581

$$$$
P29763


 35 40  0  0  0  0  0  0  0  0999 V2000
   -2.5153    6.1758  -21.4243 C   0  0  0  0  0  0  0  0  0  0  0  0
   -3.1785    5.6254  -20.1518 C   0  0  0  0  0  0  0  0  0  0  0  0
   -2.3302    6.1219  -18.9688 C   0  0  0  0  0  0  0  0  0  0  0  0
   -2.5342    5.4088  -17.6217 C   0  0  0  0  0  0  0  0  0  0  0  0
   -3.8790    4.7113  -17.4776 C   0  0  0  0  0  0  0  0  0  0  0  0
   -5.0199    5.7159  -17.6386 C   0  0  0  0  0  0  0  0  0  0  0  0
   -4.6555    7.1033  -17.0634 C   0  0  0  0  0  0  0  0  0  0  0  0
   -3.5246    7.0383  -16.0288 C   0  0  0  0  0  0  0  0  0  0  0  0
   -2.3459    6.2695  -16.4429 N   0  0  0  0  0  0  0  0  0  0  0  0
   -1.1088    7.0334  -16.4254 C   0  0  0  0  0  0  0  0  0  0  0  0
   -6.2873    5.1299  -17.0680 C   0  0  0  0  0  0  0  0  0  0  0  0
   -6.7665    5.1587  -15.7736 C   0  0  0  0  0  0  0  0  0  0  0  0
   -8.0405    4.6337  -15.5285 C   0  0  0  0  0  0  0  0  0  0  0  0
   -8.7847    4.0192  -16.5516 C   0  0  0  0  0  0  0  0  0  0  0  0
   -8.2657    3.9646  -17.8513 C   0  0  0  0  0  0  0  0  0  0  0  0
   -7.0464    4.5729  -18.0984 C   0  0  0  0  0  0  0  0  0  0  0  0
   -6.4205    4.6933  -19.3695 N   0  0  0  0  0  0  0  0  0  0  0  0
   -5.4907    5.8145  -19.1344 C   0  0  0  0  0  0  0  0  0  0  0  0
   -4.5377    6.1560  -20.1753 N   0  0  0  0  0  0  0  0  0  0  0  0
   -6.5684    4.1680  -20.1889 H   0  0  0  0  0  0  0  0  0  0  0  0
   -4.4527    7.1724  -20.1688 H   0  0  0  0  0  0  0  0  0  0  0  0
   -8.6188    4.9142  -14.1932 C   0  0  0  0  0  0  0  0  0  0  0  0
   -9.4288    5.7518  -14.1208 O   0  0  0  0  0  0  0  0  0  0  0  0
   -7.9969    4.0273  -13.0956 N   0  0  0  0  0  0  0  0  0  0  0  0
   -7.3809    3.3340  -13.4259 H   0  0  0  0  0  0  0  0  0  0  0  0
   -8.1647    4.0473  -11.7137 C   0  0  0  0  0  0  0  0  0  0  0  0
   -7.9084    5.2210  -10.9819 C   0  0  0  0  0  0  0  0  0  0  0  0
   -8.0512    5.2500   -9.5925 C   0  0  0  0  0  0  0  0  0  0  0  0
   -8.4686    4.0960   -8.9611 C   0  0  0  0  0  0  0  0  0  0  0  0
   -8.7215    2.9315   -9.6825 C   0  0  0  0  0  0  0  0  0  0  0  0
   -8.5698    2.8837  -11.0586 C   0  0  0  0  0  0  0  0  0  0  0  0
   -9.1209    1.8551   -8.7293 C   0  0  0  0  0  0  0  0  0  0  0  0
   -9.4827    2.5676   -7.4757 N   0  0  0  0  0  0  0  0  0  0  0  0
   -8.7192    3.8351   -7.5135 C   0  0  0  0  0  0  0  0  0  0  0  0
   -9.2171    2.0145   -6.6609 H   0  0  0  0  0  0  0  0  0  0  0  0
  2  1  1  0  0  0
  2  3  1  0  0  0
  4  3  1  0  0  0
  4  5  1  0  0  0
  5  6  1  0  0  0
  6  7  1  0  0  0
  7  8  1  0  0  0
  8  9  1  0  0  0
  9 10  1  0  0  0
  6 11  1  0  0  0
 11 12  2  0  0  0
 12 13  1  0  0  0
 13 22  1  0  0  0
 22 23  2  0  0  0
 22 24  1  0  0  0
 24 26  1  0  0  0
 26 27  2  0  0  0
 27 28  1  0  0  0
 28 29  2  0  0  0
 29 30  1  0  0  0
 30 31  2  0  0  0
 30 32  1  0  0  0
 32 33  1  0  0  0
 33 34  1  0  0  0
 13 14  2  0  0  0
 14 15  1  0  0  0
 15 16  2  0  0  0
 16 17  1  0  0  0
 18 17  1  0  0  0
 18 19  1  0  0  0
 19  2  1  0  0  0
  9  4  1  0  0  0
 16 11  1  0  0  0
 18  6  1  0  0  0
 31 26  1  0  0  0
 34 29  1  0  0  0
 24 25  1  0  0  0
 33 35  1  0  0  0
 17 20  1  0  0  0
 19 21  1  0  0  0
M  END
> <minimizedAffinity>
-11.33662

> <minimizedRMSD>
0.85557

$$$$
P29764


 36 40  0  0  0  0  0  0  0  0999 V2000
   -5.5866    5.6926  -19.2013 C   0  0  0  0  0  0  0  0  0  0  0  0
   -6.5759    4.6013  -19.1991 N   0  0  0  0  0  0  0  0  0  0  0  0
   -7.0513    4.6020  -17.8553 C   0  0  0  0  0  0  0  0  0  0  0  0
   -8.2507    4.0882  -17.3553 C   0  0  0  0  0  0  0  0  0  0  0  0
   -9.4452    3.4300  -18.4050 Cl  0  0  0  0  0  0  0  0  0  0  0  0
   -8.5480    4.2187  -15.9877 C   0  0  0  0  0  0  0  0  0  0  0  0
   -7.6162    4.8282  -15.1351 C   0  0  0  0  0  0  0  0  0  0  0  0
   -6.3786    5.2657  -15.6239 C   0  0  0  0  0  0  0  0  0  0  0  0
   -6.1158    5.1614  -16.9815 C   0  0  0  0  0  0  0  0  0  0  0  0
   -4.9132    5.6660  -17.7593 C   0  0  0  0  0  0  0  0  0  0  0  0
   -3.7608    4.6559  -17.6186 C   0  0  0  0  0  0  0  0  0  0  0  0
   -2.4145    5.1802  -18.0992 C   0  0  0  0  0  0  0  0  0  0  0  0
   -2.0820    6.4469  -17.4473 N   0  0  0  0  0  0  0  0  0  0  0  0
   -3.0716    7.4606  -17.7922 C   0  0  0  0  0  0  0  0  0  0  0  0
   -4.4579    7.0674  -17.2904 C   0  0  0  0  0  0  0  0  0  0  0  0
   -6.8432    4.0150  -19.9434 H   0  0  0  0  0  0  0  0  0  0  0  0
   -1.1606    6.7550  -17.7579 H   0  0  0  0  0  0  0  0  0  0  0  0
   -7.9518    5.2319  -13.7440 C   0  0  0  0  0  0  0  0  0  0  0  0
   -8.1049    6.3739  -13.5517 O   0  0  0  0  0  0  0  0  0  0  0  0
   -7.9397    4.0435  -12.7582 N   0  0  0  0  0  0  0  0  0  0  0  0
   -7.7122    3.1751  -13.1624 H   0  0  0  0  0  0  0  0  0  0  0  0
   -8.1989    3.9999  -11.3863 C   0  0  0  0  0  0  0  0  0  0  0  0
   -8.0059    5.1430  -10.5883 C   0  0  0  0  0  0  0  0  0  0  0  0
   -8.2092    5.1046   -9.2050 C   0  0  0  0  0  0  0  0  0  0  0  0
   -8.6250    3.9146   -8.6426 C   0  0  0  0  0  0  0  0  0  0  0  0
   -8.8263    2.7815   -9.4266 C   0  0  0  0  0  0  0  0  0  0  0  0
   -8.6125    2.8018  -10.7980 C   0  0  0  0  0  0  0  0  0  0  0  0
   -9.2407    1.6531   -8.5388 C   0  0  0  0  0  0  0  0  0  0  0  0
   -9.6408    2.2941   -7.2576 N   0  0  0  0  0  0  0  0  0  0  0  0
   -8.9098    3.5793   -7.2166 C   0  0  0  0  0  0  0  0  0  0  0  0
   -9.3754    1.7071   -6.4667 H   0  0  0  0  0  0  0  0  0  0  0  0
   -4.6219    5.7547  -20.3024 N   0  0  0  0  0  0  0  0  0  0  0  0
   -3.7055    5.9753  -19.9126 H   0  0  0  0  0  0  0  0  0  0  0  0
   -5.2449    8.1410  -20.7405 C   0  0  0  0  0  0  0  0  0  0  0  0
   -4.9404    6.7577  -21.3258 C   0  0  0  0  0  0  0  0  0  0  0  0
   -3.7750    6.9076  -22.3031 C   0  0  0  0  0  0  0  0  0  0  0  0
 34 35  1  0  0  0
 35 36  1  0  0  0
 35 32  1  0  0  0
  1 32  1  0  0  0
  1  2  1  0  0  0
  2  3  1  0  0  0
  3  4  2  0  0  0
  4  5  1  0  0  0
  4  6  1  0  0  0
  6  7  2  0  0  0
  7 18  1  0  0  0
 18 19  2  0  0  0
 18 20  1  0  0  0
 20 22  1  0  0  0
 22 23  2  0  0  0
 23 24  1  0  0  0
 24 25  2  0  0  0
 25 26  1  0  0  0
 26 27  2  0  0  0
 26 28  1  0  0  0
 28 29  1  0  0  0
 29 30  1  0  0  0
  7  8  1  0  0  0
  8  9  2  0  0  0
  9 10  1  0  0  0
 10 11  1  0  0  0
 11 12  1  0  0  0
 12 13  1  0  0  0
 13 14  1  0  0  0
 14 15  1  0  0  0
 10  1  1  0  0  0
  9  3  1  0  0  0
 15 10  1  0  0  0
 27 22  1  0  0  0
 30 25  1  0  0  0
 32 33  1  0  0  0
  2 16  1  0  0  0
 20 21  1  0  0  0
 29 31  1  0  0  0
 13 17  1  0  0  0
M  END
> <minimizedAffinity>
-9.96166

> <minimizedRMSD>
0.39928

$$$$
P29765


 39 42  0  0  0  0  0  0  0  0999 V2000
   -7.1988    4.7522  -12.8853 C   0  0  0  0  0  0  0  0  0  0  0  0
   -7.3496    6.1392  -12.6329 O   0  0  0  0  0  0  0  0  0  0  0  0
   -8.1942    6.4446  -12.9994 H   0  0  0  0  0  0  0  0  0  0  0  0
   -5.6337    5.0029  -18.6358 C   0  0  0  0  0  0  0  0  0  0  0  0
   -6.8748    4.5920  -18.5880 N   0  0  0  0  0  0  0  0  0  0  0  0
   -7.2135    4.5972  -17.2502 C   0  0  0  0  0  0  0  0  0  0  0  0
   -8.3747    4.2530  -16.5471 C   0  0  0  0  0  0  0  0  0  0  0  0
   -9.7408    3.8662  -17.4923 Cl  0  0  0  0  0  0  0  0  0  0  0  0
   -8.3908    4.2881  -15.1426 C   0  0  0  0  0  0  0  0  0  0  0  0
   -7.2417    4.6609  -14.4109 C   0  0  0  0  0  0  0  0  0  0  0  0
   -6.1018    5.0876  -15.1134 C   0  0  0  0  0  0  0  0  0  0  0  0
   -6.1386    5.0455  -16.4986 C   0  0  0  0  0  0  0  0  0  0  0  0
   -5.2138    5.4249  -17.4176 N   0  0  0  0  0  0  0  0  0  0  0  0
   -4.3833    5.9199  -17.2318 H   0  0  0  0  0  0  0  0  0  0  0  0
   -4.7938    5.0218  -19.6786 N   0  0  0  0  0  0  0  0  0  0  0  0
   -5.1470    4.8161  -20.5742 H   0  0  0  0  0  0  0  0  0  0  0  0
   -2.8657    5.8668  -20.8777 C   0  0  0  0  0  0  0  0  0  0  0  0
   -3.3756    5.3354  -19.5394 C   0  0  0  0  0  0  0  0  0  0  0  0
   -2.5648    4.1220  -19.1042 C   0  0  0  0  0  0  0  0  0  0  0  0
   -5.8135    4.1222  -12.3149 C   0  0  0  0  0  0  0  0  0  0  0  0
   -5.4974    3.0042  -12.4481 O   0  0  0  0  0  0  0  0  0  0  0  0
   -5.1096    5.2860  -11.5548 N   0  0  0  0  0  0  0  0  0  0  0  0
   -5.6200    6.1274  -11.5249 H   0  0  0  0  0  0  0  0  0  0  0  0
   -3.8309    5.3306  -10.8874 C   0  0  0  0  0  0  0  0  0  0  0  0
   -3.7452    4.3756   -9.7001 C   0  0  0  0  0  0  0  0  0  0  0  0
   -3.0062    4.9518   -8.7151 F   0  0  0  0  0  0  0  0  0  0  0  0
   -4.9895    4.1916   -9.1801 F   0  0  0  0  0  0  0  0  0  0  0  0
   -8.3407    4.0971  -12.2539 N   0  0  0  0  0  0  0  0  0  0  0  0
   -9.0707    3.7287  -12.8022 H   0  0  0  0  0  0  0  0  0  0  0  0
   -8.3836    3.9990  -10.8410 C   0  0  0  0  0  0  0  0  0  0  0  0
   -8.1997    5.1012   -9.9732 C   0  0  0  0  0  0  0  0  0  0  0  0
   -8.3290    4.9881   -8.5845 C   0  0  0  0  0  0  0  0  0  0  0  0
   -8.7009    3.7680   -8.0687 C   0  0  0  0  0  0  0  0  0  0  0  0
   -8.9050    2.6752   -8.9019 C   0  0  0  0  0  0  0  0  0  0  0  0
   -8.7611    2.7725  -10.2758 C   0  0  0  0  0  0  0  0  0  0  0  0
   -9.2618    1.4941   -8.0646 C   0  0  0  0  0  0  0  0  0  0  0  0
   -9.6893    2.0716   -6.7631 N   0  0  0  0  0  0  0  0  0  0  0  0
   -8.9745    3.3634   -6.6595 C   0  0  0  0  0  0  0  0  0  0  0  0
   -9.4268    1.4547   -5.9944 H   0  0  0  0  0  0  0  0  0  0  0  0
 17 18  1  0  0  0
 18 19  1  0  0  0
 18 15  1  0  0  0
 15  4  1  0  0  0
  4  5  2  0  0  0
  5  6  1  0  0  0
  6  7  2  0  0  0
  7  8  1  0  0  0
  7  9  1  0  0  0
  9 10  2  0  0  0
 10  1  1  0  0  0
  1  2  1  0  0  0
  1 28  1  0  0  0
 28 30  1  0  0  0
 30 31  2  0  0  0
 31 32  1  0  0  0
 32 33  2  0  0  0
 33 34  1  0  0  0
 34 35  2  0  0  0
 34 36  1  0  0  0
 36 37  1  0  0  0
 37 38  1  0  0  0
  1 20  1  0  0  0
 20 21  2  0  0  0
 20 22  1  0  0  0
 22 24  1  0  0  0
 24 25  1  0  0  0
 25 26  1  0  0  0
 25 27  1  0  0  0
 10 11  1  0  0  0
 11 12  2  0  0  0
 12 13  1  0  0  0
 13  4  1  0  0  0
 12  6  1  0  0  0
 35 30  1  0  0  0
 38 33  1  0  0  0
 15 16  1  0  0  0
  2  3  1  0  0  0
 28 29  1  0  0  0
 37 39  1  0  0  0
 22 23  1  0  0  0
 13 14  1  0  0  0
M  END
> <minimizedAffinity>
-8.25250

> <minimizedRMSD>
0.89540

$$$$
P29766


 40 43  0  0  0  0  0  0  0  0999 V2000
   -7.5896    5.1312  -13.5574 C   0  0  0  0  0  0  0  0  0  0  0  0
   -6.3126    5.4852  -13.0302 O   0  0  0  0  0  0  0  0  0  0  0  0
   -6.4033    5.7194  -12.0933 H   0  0  0  0  0  0  0  0  0  0  0  0
   -7.4056    4.7687  -15.0353 C   0  0  0  0  0  0  0  0  0  0  0  0
   -8.4592    4.2454  -15.8257 C   0  0  0  0  0  0  0  0  0  0  0  0
   -8.3316    4.0964  -17.2195 C   0  0  0  0  0  0  0  0  0  0  0  0
   -9.6662    3.4974  -18.1267 Cl  0  0  0  0  0  0  0  0  0  0  0  0
   -7.1509    4.4806  -17.8411 C   0  0  0  0  0  0  0  0  0  0  0  0
   -6.1046    4.9389  -17.0510 C   0  0  0  0  0  0  0  0  0  0  0  0
   -6.2034    5.0848  -15.6789 C   0  0  0  0  0  0  0  0  0  0  0  0
   -4.9501    5.3464  -17.8812 C   0  0  0  0  0  0  0  0  0  0  0  0
   -3.7887    4.7039  -17.5785 F   0  0  0  0  0  0  0  0  0  0  0  0
   -4.6894    6.6803  -17.7679 F   0  0  0  0  0  0  0  0  0  0  0  0
   -5.4536    4.9559  -19.3349 C   0  0  0  0  0  0  0  0  0  0  0  0
   -6.8208    4.4058  -19.2112 N   0  0  0  0  0  0  0  0  0  0  0  0
   -7.3864    4.0577  -19.9380 H   0  0  0  0  0  0  0  0  0  0  0  0
   -5.2161    5.9745  -20.3689 N   0  0  0  0  0  0  0  0  0  0  0  0
   -5.9022    6.7216  -20.2612 H   0  0  0  0  0  0  0  0  0  0  0  0
   -3.8658    6.5485  -20.2654 C   0  0  0  0  0  0  0  0  0  0  0  0
   -3.8997    7.9150  -20.9529 C   0  0  0  0  0  0  0  0  0  0  0  0
   -2.8391    5.6533  -20.9515 C   0  0  0  0  0  0  0  0  0  0  0  0
   -7.8043    7.5747  -12.9497 N   0  0  0  0  0  0  0  0  0  0  0  0
   -8.6202    6.3613  -13.4959 C   0  0  0  0  0  0  0  0  0  0  0  0
   -9.7379    6.2920  -13.8406 O   0  0  0  0  0  0  0  0  0  0  0  0
   -6.8482    7.3945  -12.7993 H   0  0  0  0  0  0  0  0  0  0  0  0
   -7.0536    9.8842  -12.7469 C   0  0  0  0  0  0  0  0  0  0  0  0
   -8.2241    8.9179  -12.6294 C   0  0  0  0  0  0  0  0  0  0  0  0
   -8.8388    8.9596  -11.2352 C   0  0  0  0  0  0  0  0  0  0  0  0
   -8.0331    3.9910  -12.7676 N   0  0  0  0  0  0  0  0  0  0  0  0
   -8.1695    3.1339  -13.2324 H   0  0  0  0  0  0  0  0  0  0  0  0
   -8.2783    4.0349  -11.3880 C   0  0  0  0  0  0  0  0  0  0  0  0
   -8.0383    5.1610  -10.5703 C   0  0  0  0  0  0  0  0  0  0  0  0
   -8.2000    5.1308   -9.1793 C   0  0  0  0  0  0  0  0  0  0  0  0
   -8.5867    3.9455   -8.5957 C   0  0  0  0  0  0  0  0  0  0  0  0
   -8.7970    2.8148   -9.3693 C   0  0  0  0  0  0  0  0  0  0  0  0
   -8.6466    2.8417  -10.7500 C   0  0  0  0  0  0  0  0  0  0  0  0
   -9.1139    1.6646   -8.4758 C   0  0  0  0  0  0  0  0  0  0  0  0
   -9.3685    2.2520   -7.1342 N   0  0  0  0  0  0  0  0  0  0  0  0
   -8.8142    3.6202   -7.1601 C   0  0  0  0  0  0  0  0  0  0  0  0
   -8.9050    1.6982   -6.4138 H   0  0  0  0  0  0  0  0  0  0  0  0
 26 27  1  0  0  0
 27 28  1  0  0  0
 27 22  1  0  0  0
 22 23  1  0  0  0
 23 24  2  0  0  0
 23  1  1  0  0  0
  1  2  1  0  0  0
  1 29  1  0  0  0
 29 31  1  0  0  0
 31 32  2  0  0  0
 32 33  1  0  0  0
 33 34  2  0  0  0
 34 35  1  0  0  0
 35 36  2  0  0  0
 35 37  1  0  0  0
 37 38  1  0  0  0
 38 39  1  0  0  0
  1  4  1  0  0  0
  4  5  2  0  0  0
  5  6  1  0  0  0
  6  7  1  0  0  0
  6  8  2  0  0  0
  8  9  1  0  0  0
  9 10  2  0  0  0
  9 11  1  0  0  0
 11 12  1  0  0  0
 11 13  1  0  0  0
 11 14  1  0  0  0
 14 17  1  0  0  0
 17 19  1  0  0  0
 19 20  1  0  0  0
 19 21  1  0  0  0
 14 15  1  0  0  0
 36 31  1  0  0  0
 10  4  1  0  0  0
 39 34  1  0  0  0
 15  8  1  0  0  0
 22 25  1  0  0  0
  2  3  1  0  0  0
 29 30  1  0  0  0
 38 40  1  0  0  0
 17 18  1  0  0  0
 15 16  1  0  0  0
M  END
> <minimizedAffinity>
-9.62902

> <minimizedRMSD>
0.42109

$$$$
P29767


 32 35  0  0  0  0  0  0  0  0999 V2000
   -5.2482    5.3250  -18.6620 C   0  0  0  0  0  0  0  0  0  0  0  0
   -6.3116    4.6039  -18.9186 N   0  0  0  0  0  0  0  0  0  0  0  0
   -7.0378    4.5874  -17.7557 C   0  0  0  0  0  0  0  0  0  0  0  0
   -8.2992    4.0228  -17.4842 C   0  0  0  0  0  0  0  0  0  0  0  0
   -8.8577    4.1652  -16.2025 C   0  0  0  0  0  0  0  0  0  0  0  0
   -8.1647    4.8723  -15.2200 C   0  0  0  0  0  0  0  0  0  0  0  0
   -6.9147    5.4456  -15.4747 C   0  0  0  0  0  0  0  0  0  0  0  0
   -6.3782    5.2902  -16.7534 C   0  0  0  0  0  0  0  0  0  0  0  0
   -5.2443    5.7853  -17.3603 N   0  0  0  0  0  0  0  0  0  0  0  0
   -8.7184    5.1322  -13.8705 C   0  0  0  0  0  0  0  0  0  0  0  0
   -9.5131    5.9790  -13.7534 O   0  0  0  0  0  0  0  0  0  0  0  0
   -8.0312    4.2517  -12.8069 N   0  0  0  0  0  0  0  0  0  0  0  0
   -7.3319    3.6534  -13.1565 H   0  0  0  0  0  0  0  0  0  0  0  0
   -8.2387    4.1653  -11.4336 C   0  0  0  0  0  0  0  0  0  0  0  0
   -8.0445    5.2889  -10.6105 C   0  0  0  0  0  0  0  0  0  0  0  0
   -8.1834    5.1970   -9.2233 C   0  0  0  0  0  0  0  0  0  0  0  0
   -8.5553    3.9799   -8.6887 C   0  0  0  0  0  0  0  0  0  0  0  0
   -8.7649    2.8698   -9.5033 C   0  0  0  0  0  0  0  0  0  0  0  0
   -8.5917    2.9357  -10.8757 C   0  0  0  0  0  0  0  0  0  0  0  0
   -9.1517    1.7105   -8.6473 C   0  0  0  0  0  0  0  0  0  0  0  0
   -9.5218    2.3053   -7.3363 N   0  0  0  0  0  0  0  0  0  0  0  0
   -8.7945    3.5920   -7.2683 C   0  0  0  0  0  0  0  0  0  0  0  0
   -9.2349    1.6927   -6.5729 H   0  0  0  0  0  0  0  0  0  0  0  0
   -4.3609    5.7529  -19.5896 N   0  0  0  0  0  0  0  0  0  0  0  0
   -4.4329    6.6733  -19.9315 H   0  0  0  0  0  0  0  0  0  0  0  0
   -2.3779    5.7818  -20.9368 C   0  0  0  0  0  0  0  0  0  0  0  0
   -3.2941    4.8842  -20.1004 C   0  0  0  0  0  0  0  0  0  0  0  0
   -2.5227    4.0841  -19.0579 C   0  0  0  0  0  0  0  0  0  0  0  0
   -4.3988    6.8758  -16.8800 C   0  0  0  0  0  0  0  0  0  0  0  0
   -2.9892    6.4742  -16.7285 N   0  0  0  0  0  0  0  0  0  0  0  0
   -2.0589    7.4489  -17.2873 C   0  0  0  0  0  0  0  0  0  0  0  0
   -2.6843    6.2401  -15.3173 C   0  0  0  0  0  0  0  0  0  0  0  0
 26 27  1  0  0  0
 27 28  1  0  0  0
 27 24  1  0  0  0
 24  1  1  0  0  0
  1  2  2  0  0  0
  2  3  1  0  0  0
  3  4  2  0  0  0
  4  5  1  0  0  0
  5  6  2  0  0  0
  6 10  1  0  0  0
 10 11  2  0  0  0
 10 12  1  0  0  0
 12 14  1  0  0  0
 14 15  2  0  0  0
 15 16  1  0  0  0
 16 17  2  0  0  0
 17 18  1  0  0  0
 18 19  2  0  0  0
 18 20  1  0  0  0
 20 21  1  0  0  0
 21 22  1  0  0  0
  6  7  1  0  0  0
  7  8  2  0  0  0
  8  9  1  0  0  0
  9 29  1  0  0  0
 29 30  1  0  0  0
 30 31  1  0  0  0
 30 32  1  0  0  0
  9  1  1  0  0  0
  8  3  1  0  0  0
 19 14  1  0  0  0
 22 17  1  0  0  0
 24 25  1  0  0  0
 12 13  1  0  0  0
 21 23  1  0  0  0
M  END
> <minimizedAffinity>
-7.75485

> <minimizedRMSD>
0.87673

$$$$
P29836


 30 35  0  0  0  0  0  0  0  0999 V2000
   -7.3770    5.2106  -14.2547 C   0  0  0  0  0  0  0  0  0  0  0  0
   -6.2042    5.4511  -15.0083 C   0  0  0  0  0  0  0  0  0  0  0  0
   -6.2601    5.2615  -16.3694 C   0  0  0  0  0  0  0  0  0  0  0  0
   -7.4753    4.8470  -16.8904 C   0  0  0  0  0  0  0  0  0  0  0  0
   -7.5075    4.6847  -18.2573 C   0  0  0  0  0  0  0  0  0  0  0  0
   -8.7330    4.3202  -18.7059 C   0  0  0  0  0  0  0  0  0  0  0  0
   -9.8495    4.2590  -17.3792 S   0  0  0  0  0  0  0  0  0  0  0  0
   -8.6407    4.6296  -16.2133 C   0  0  0  0  0  0  0  0  0  0  0  0
   -8.6132    4.7969  -14.8309 C   0  0  0  0  0  0  0  0  0  0  0  0
   -6.1876    5.0176  -18.6713 C   0  0  0  0  0  0  0  0  0  0  0  0
   -5.4282    5.3762  -17.5874 C   0  0  0  0  0  0  0  0  0  0  0  0
   -4.0258    5.7789  -17.7236 C   0  0  0  0  0  0  0  0  0  0  0  0
   -3.5886    7.1594  -17.1927 C   0  0  0  0  0  0  0  0  0  0  0  0
   -2.3211    6.5227  -16.7406 N   0  0  0  0  0  0  0  0  0  0  0  0
   -3.0421    5.2293  -16.6744 C   0  0  0  0  0  0  0  0  0  0  0  0
   -1.9764    6.8603  -15.8419 H   0  0  0  0  0  0  0  0  0  0  0  0
   -6.8858    6.5361  -12.4589 O   0  0  0  0  0  0  0  0  0  0  0  0
   -7.3397    5.5165  -12.8026 C   0  0  0  0  0  0  0  0  0  0  0  0
   -7.9580    4.3656  -11.9765 N   0  0  0  0  0  0  0  0  0  0  0  0
   -8.2038    3.5686  -12.4997 H   0  0  0  0  0  0  0  0  0  0  0  0
   -8.2235    4.2727  -10.6149 C   0  0  0  0  0  0  0  0  0  0  0  0
   -8.0481    5.3747   -9.7640 C   0  0  0  0  0  0  0  0  0  0  0  0
   -8.3362    5.2765   -8.3997 C   0  0  0  0  0  0  0  0  0  0  0  0
   -8.7970    4.0669   -7.9154 C   0  0  0  0  0  0  0  0  0  0  0  0
   -8.9573    2.9695   -8.7556 C   0  0  0  0  0  0  0  0  0  0  0  0
   -8.6816    3.0546  -10.1089 C   0  0  0  0  0  0  0  0  0  0  0  0
   -9.4057    1.7995   -7.9463 C   0  0  0  0  0  0  0  0  0  0  0  0
   -9.8713    2.3754   -6.6569 N   0  0  0  0  0  0  0  0  0  0  0  0
   -9.1705    3.6727   -6.5264 C   0  0  0  0  0  0  0  0  0  0  0  0
   -9.6267    1.7587   -5.8822 H   0  0  0  0  0  0  0  0  0  0  0  0
 17 18  2  0  0  0
 18 19  1  0  0  0
 19 21  1  0  0  0
 21 22  2  0  0  0
 22 23  1  0  0  0
 23 24  2  0  0  0
 24 25  1  0  0  0
 25 26  2  0  0  0
 25 27  1  0  0  0
 27 28  1  0  0  0
 28 29  1  0  0  0
 18  1  1  0  0  0
  1  2  2  0  0  0
  2  3  1  0  0  0
  3  4  2  0  0  0
  4  5  1  0  0  0
  5  6  2  0  0  0
  6  7  1  0  0  0
  7  8  1  0  0  0
  8  9  2  0  0  0
  5 10  1  0  0  0
 10 11  2  0  0  0
 11 12  1  0  0  0
 12 13  1  0  0  0
 13 14  1  0  0  0
 14 15  1  0  0  0
 26 21  1  0  0  0
  9  1  1  0  0  0
 15 12  1  0  0  0
 29 24  1  0  0  0
 11  3  1  0  0  0
  8  4  1  0  0  0
 19 20  1  0  0  0
 28 30  1  0  0  0
 14 16  1  0  0  0
M  END
> <minimizedAffinity>
-8.42720

> <minimizedRMSD>
0.45697

$$$$
P29852


 35 39  0  0  0  0  0  0  0  0999 V2000
   -5.2549    5.6168  -18.6906 C   0  0  0  0  0  0  0  0  0  0  0  0
   -6.4277    4.9228  -18.9019 N   0  0  0  0  0  0  0  0  0  0  0  0
   -7.0548    4.6673  -17.7023 C   0  0  0  0  0  0  0  0  0  0  0  0
   -8.2872    4.0658  -17.4286 C   0  0  0  0  0  0  0  0  0  0  0  0
   -9.2410    3.4167  -18.6905 Cl  0  0  0  0  0  0  0  0  0  0  0  0
   -8.7678    4.0902  -16.1186 C   0  0  0  0  0  0  0  0  0  0  0  0
   -8.0145    4.7011  -15.1225 C   0  0  0  0  0  0  0  0  0  0  0  0
   -6.7433    5.2203  -15.3871 C   0  0  0  0  0  0  0  0  0  0  0  0
   -6.2519    5.2017  -16.6997 C   0  0  0  0  0  0  0  0  0  0  0  0
   -5.0761    5.6741  -17.3237 C   0  0  0  0  0  0  0  0  0  0  0  0
   -6.7682    4.6491  -19.7842 H   0  0  0  0  0  0  0  0  0  0  0  0
   -8.5708    4.9980  -13.7853 C   0  0  0  0  0  0  0  0  0  0  0  0
   -9.2495    5.9418  -13.6818 O   0  0  0  0  0  0  0  0  0  0  0  0
   -8.0891    3.9930  -12.7223 N   0  0  0  0  0  0  0  0  0  0  0  0
   -7.5804    3.2290  -13.0782 H   0  0  0  0  0  0  0  0  0  0  0  0
   -8.2558    3.9889  -11.3412 C   0  0  0  0  0  0  0  0  0  0  0  0
   -7.9898    5.1475  -10.5900 C   0  0  0  0  0  0  0  0  0  0  0  0
   -8.1558    5.1594   -9.2039 C   0  0  0  0  0  0  0  0  0  0  0  0
   -8.5937    4.0014   -8.5932 C   0  0  0  0  0  0  0  0  0  0  0  0
   -8.8518    2.8552   -9.3342 C   0  0  0  0  0  0  0  0  0  0  0  0
   -8.6843    2.8237  -10.7091 C   0  0  0  0  0  0  0  0  0  0  0  0
   -9.3066    1.7692   -8.4257 C   0  0  0  0  0  0  0  0  0  0  0  0
   -9.2188    2.3087   -7.0419 N   0  0  0  0  0  0  0  0  0  0  0  0
   -8.8902    3.7462   -7.1577 C   0  0  0  0  0  0  0  0  0  0  0  0
   -8.4876    1.8230   -6.5224 H   0  0  0  0  0  0  0  0  0  0  0  0
   -3.8526    6.2913  -16.5922 C   0  0  0  0  0  0  0  0  0  0  0  0
   -2.4811    6.0019  -17.2399 C   0  0  0  0  0  0  0  0  0  0  0  0
   -1.9128    5.7459  -15.8935 N   0  0  0  0  0  0  0  0  0  0  0  0
   -3.2784    5.4960  -15.3945 C   0  0  0  0  0  0  0  0  0  0  0  0
   -1.5387    7.0603  -15.3730 O   0  0  0  0  0  0  0  0  0  0  0  0
   -0.2063    6.9672  -14.8809 C   0  0  0  0  0  0  0  0  0  0  0  0
   -4.4606    6.1370  -19.8340 C   0  0  0  0  0  0  0  0  0  0  0  0
   -5.2731    8.1465  -20.8595 C   0  0  0  0  0  0  0  0  0  0  0  0
   -5.3399    6.6930  -20.8606 N   0  0  0  0  0  0  0  0  0  0  0  0
   -5.0503    6.3448  -21.7746 H   0  0  0  0  0  0  0  0  0  0  0  0
 33 34  1  0  0  0
 34 32  1  0  0  0
 32  1  1  0  0  0
  1  2  1  0  0  0
  2  3  1  0  0  0
  3  4  2  0  0  0
  4  5  1  0  0  0
  4  6  1  0  0  0
  6  7  2  0  0  0
  7 12  1  0  0  0
 12 13  2  0  0  0
 12 14  1  0  0  0
 14 16  1  0  0  0
 16 17  2  0  0  0
 17 18  1  0  0  0
 18 19  2  0  0  0
 19 20  1  0  0  0
 20 21  2  0  0  0
 20 22  1  0  0  0
 22 23  1  0  0  0
 23 24  1  0  0  0
  7  8  1  0  0  0
  8  9  2  0  0  0
  9 10  1  0  0  0
 10 26  1  0  0  0
 26 27  1  0  0  0
 27 28  1  0  0  0
 28 30  1  0  0  0
 30 31  1  0  0  0
 28 29  1  0  0  0
 10  1  2  0  0  0
 29 26  1  0  0  0
  9  3  1  0  0  0
 21 16  1  0  0  0
 24 19  1  0  0  0
 34 35  1  0  0  0
  2 11  1  0  0  0
 14 15  1  0  0  0
 23 25  1  0  0  0
M  END
> <minimizedAffinity>
-8.99353

> <minimizedRMSD>
0.77313

$$$$
P29853


 34 38  0  0  0  0  0  0  0  0999 V2000
   -5.1169    5.3906  -18.6639 C   0  0  0  0  0  0  0  0  0  0  0  0
   -6.3711    4.8849  -18.9368 N   0  0  0  0  0  0  0  0  0  0  0  0
   -7.0664    4.6801  -17.7586 C   0  0  0  0  0  0  0  0  0  0  0  0
   -8.3843    4.2527  -17.5327 C   0  0  0  0  0  0  0  0  0  0  0  0
   -9.4144    3.8169  -18.8306 Cl  0  0  0  0  0  0  0  0  0  0  0  0
   -8.8849    4.2665  -16.2276 C   0  0  0  0  0  0  0  0  0  0  0  0
   -8.0609    4.6662  -15.1822 C   0  0  0  0  0  0  0  0  0  0  0  0
   -6.7176    4.9950  -15.3993 C   0  0  0  0  0  0  0  0  0  0  0  0
   -6.2168    5.0389  -16.7102 C   0  0  0  0  0  0  0  0  0  0  0  0
   -4.9949    5.4561  -17.2909 C   0  0  0  0  0  0  0  0  0  0  0  0
   -6.7201    4.6972  -19.8380 H   0  0  0  0  0  0  0  0  0  0  0  0
   -3.7321    6.0023  -16.5641 C   0  0  0  0  0  0  0  0  0  0  0  0
   -3.2678    5.2193  -15.3309 C   0  0  0  0  0  0  0  0  0  0  0  0
   -2.9879    6.5033  -14.6469 N   0  0  0  0  0  0  0  0  0  0  0  0
   -3.8842    7.1908  -15.6056 C   0  0  0  0  0  0  0  0  0  0  0  0
   -2.0136    6.8009  -14.6974 H   0  0  0  0  0  0  0  0  0  0  0  0
   -8.5979    4.9712  -13.8370 C   0  0  0  0  0  0  0  0  0  0  0  0
   -9.2928    5.9038  -13.7382 O   0  0  0  0  0  0  0  0  0  0  0  0
   -8.0926    3.9836  -12.7671 N   0  0  0  0  0  0  0  0  0  0  0  0
   -7.5722    3.2255  -13.1190 H   0  0  0  0  0  0  0  0  0  0  0  0
   -8.2523    3.9887  -11.3830 C   0  0  0  0  0  0  0  0  0  0  0  0
   -7.9699    5.1497  -10.6391 C   0  0  0  0  0  0  0  0  0  0  0  0
   -8.1290    5.1751   -9.2512 C   0  0  0  0  0  0  0  0  0  0  0  0
   -8.5929    4.0323   -8.6334 C   0  0  0  0  0  0  0  0  0  0  0  0
   -8.8651    2.8792   -9.3663 C   0  0  0  0  0  0  0  0  0  0  0  0
   -8.6895    2.8314  -10.7395 C   0  0  0  0  0  0  0  0  0  0  0  0
   -9.3132    1.8114   -8.4261 C   0  0  0  0  0  0  0  0  0  0  0  0
   -9.6844    2.5290   -7.1767 N   0  0  0  0  0  0  0  0  0  0  0  0
   -8.8788    3.7711   -7.1925 C   0  0  0  0  0  0  0  0  0  0  0  0
   -9.4565    1.9646   -6.3582 H   0  0  0  0  0  0  0  0  0  0  0  0
   -4.1951    5.8779  -19.7239 C   0  0  0  0  0  0  0  0  0  0  0  0
   -1.7972    5.6702  -19.7671 C   0  0  0  0  0  0  0  0  0  0  0  0
   -3.0645    4.9505  -19.9333 N   0  0  0  0  0  0  0  0  0  0  0  0
   -3.1163    4.1934  -19.2518 H   0  0  0  0  0  0  0  0  0  0  0  0
 32 33  1  0  0  0
 33 31  1  0  0  0
 31  1  1  0  0  0
  1  2  1  0  0  0
  2  3  1  0  0  0
  3  4  2  0  0  0
  4  5  1  0  0  0
  4  6  1  0  0  0
  6  7  2  0  0  0
  7 17  1  0  0  0
 17 18  2  0  0  0
 17 19  1  0  0  0
 19 21  1  0  0  0
 21 22  2  0  0  0
 22 23  1  0  0  0
 23 24  2  0  0  0
 24 25  1  0  0  0
 25 26  2  0  0  0
 25 27  1  0  0  0
 27 28  1  0  0  0
 28 29  1  0  0  0
  7  8  1  0  0  0
  8  9  2  0  0  0
  9 10  1  0  0  0
 10 12  1  0  0  0
 12 13  1  0  0  0
 13 14  1  0  0  0
 14 15  1  0  0  0
 10  1  2  0  0  0
 15 12  1  0  0  0
  9  3  1  0  0  0
 26 21  1  0  0  0
 29 24  1  0  0  0
 33 34  1  0  0  0
  2 11  1  0  0  0
 19 20  1  0  0  0
 28 30  1  0  0  0
 14 16  1  0  0  0
M  END
> <minimizedAffinity>
-9.25832

> <minimizedRMSD>
0.84117

$$$$
P29854


 35 39  0  0  0  0  0  0  0  0999 V2000
   -5.3680    5.4768  -18.5515 C   0  0  0  0  0  0  0  0  0  0  0  0
   -6.6135    4.9143  -18.7091 N   0  0  0  0  0  0  0  0  0  0  0  0
   -7.1930    4.6719  -17.4842 C   0  0  0  0  0  0  0  0  0  0  0  0
   -8.4810    4.2280  -17.1645 C   0  0  0  0  0  0  0  0  0  0  0  0
   -9.5796    3.7855  -18.4012 Cl  0  0  0  0  0  0  0  0  0  0  0  0
   -8.8870    4.2581  -15.8301 C   0  0  0  0  0  0  0  0  0  0  0  0
   -7.9889    4.6798  -14.8535 C   0  0  0  0  0  0  0  0  0  0  0  0
   -6.6593    4.9941  -15.1684 C   0  0  0  0  0  0  0  0  0  0  0  0
   -6.2587    5.0215  -16.5135 C   0  0  0  0  0  0  0  0  0  0  0  0
   -5.0822    5.4136  -17.2031 C   0  0  0  0  0  0  0  0  0  0  0  0
   -7.0321    4.7131  -19.5772 H   0  0  0  0  0  0  0  0  0  0  0  0
   -3.7293    5.8506  -16.5788 C   0  0  0  0  0  0  0  0  0  0  0  0
   -3.3251    5.1545  -15.2786 C   0  0  0  0  0  0  0  0  0  0  0  0
   -3.5357    6.3966  -14.5270 N   0  0  0  0  0  0  0  0  0  0  0  0
   -3.7018    7.1534  -15.7741 C   0  0  0  0  0  0  0  0  0  0  0  0
   -2.7295    6.6856  -13.9730 H   0  0  0  0  0  0  0  0  0  0  0  0
   -8.4417    5.0348  -13.4889 C   0  0  0  0  0  0  0  0  0  0  0  0
   -8.9781    6.0630  -13.3544 O   0  0  0  0  0  0  0  0  0  0  0  0
   -8.0478    3.9694  -12.4470 N   0  0  0  0  0  0  0  0  0  0  0  0
   -7.5298    3.2133  -12.8065 H   0  0  0  0  0  0  0  0  0  0  0  0
   -8.3052    3.9020  -11.0803 C   0  0  0  0  0  0  0  0  0  0  0  0
   -8.0939    5.0244  -10.2589 C   0  0  0  0  0  0  0  0  0  0  0  0
   -8.3089    4.9714   -8.8729 C   0  0  0  0  0  0  0  0  0  0  0  0
   -8.0383    6.1662   -8.0140 C   0  0  0  0  0  0  0  0  0  0  0  0
   -8.7175    3.7581   -8.3395 C   0  0  0  0  0  0  0  0  0  0  0  0
   -8.9352    2.6514   -9.1541 C   0  0  0  0  0  0  0  0  0  0  0  0
   -8.7390    2.7013  -10.5254 C   0  0  0  0  0  0  0  0  0  0  0  0
   -9.3659    1.4950   -8.3224 C   0  0  0  0  0  0  0  0  0  0  0  0
   -9.2742    1.9340   -6.9055 N   0  0  0  0  0  0  0  0  0  0  0  0
   -9.0016    3.3871   -6.9231 C   0  0  0  0  0  0  0  0  0  0  0  0
   -8.5164    1.4405   -6.4337 H   0  0  0  0  0  0  0  0  0  0  0  0
   -4.6144    6.0266  -19.7109 C   0  0  0  0  0  0  0  0  0  0  0  0
   -5.1985    7.8989  -21.0930 C   0  0  0  0  0  0  0  0  0  0  0  0
   -5.5472    6.5361  -20.7178 N   0  0  0  0  0  0  0  0  0  0  0  0
   -5.5074    5.9398  -21.5443 H   0  0  0  0  0  0  0  0  0  0  0  0
 33 34  1  0  0  0
 34 32  1  0  0  0
 32  1  1  0  0  0
  1  2  1  0  0  0
  2  3  1  0  0  0
  3  4  2  0  0  0
  4  5  1  0  0  0
  4  6  1  0  0  0
  6  7  2  0  0  0
  7 17  1  0  0  0
 17 18  2  0  0  0
 17 19  1  0  0  0
 19 21  1  0  0  0
 21 22  2  0  0  0
 22 23  1  0  0  0
 23 24  1  0  0  0
 23 25  2  0  0  0
 25 26  1  0  0  0
 26 27  2  0  0  0
 26 28  1  0  0  0
 28 29  1  0  0  0
 29 30  1  0  0  0
  7  8  1  0  0  0
  8  9  2  0  0  0
  9 10  1  0  0  0
 10 12  1  0  0  0
 12 13  1  0  0  0
 13 14  1  0  0  0
 14 15  1  0  0  0
 10  1  2  0  0  0
 15 12  1  0  0  0
  9  3  1  0  0  0
 27 21  1  0  0  0
 30 25  1  0  0  0
 34 35  1  0  0  0
  2 11  1  0  0  0
 19 20  1  0  0  0
 29 31  1  0  0  0
 14 16  1  0  0  0
M  END
> <minimizedAffinity>
-9.56098

> <minimizedRMSD>
0.85410

$$$$
P29855


 33 37  0  0  0  0  0  0  0  0999 V2000
   -4.5258    5.4256  -20.0618 N   0  0  0  0  0  0  0  0  0  0  0  0
   -5.2653    5.2142  -18.9530 C   0  0  0  0  0  0  0  0  0  0  0  0
   -6.5525    4.7405  -19.0409 N   0  0  0  0  0  0  0  0  0  0  0  0
   -7.1080    4.6276  -17.7813 C   0  0  0  0  0  0  0  0  0  0  0  0
   -8.3601    4.1650  -17.3611 C   0  0  0  0  0  0  0  0  0  0  0  0
   -9.4818    3.5303  -18.4812 Cl  0  0  0  0  0  0  0  0  0  0  0  0
   -8.7060    4.2797  -16.0123 C   0  0  0  0  0  0  0  0  0  0  0  0
   -7.8030    4.8368  -15.1195 C   0  0  0  0  0  0  0  0  0  0  0  0
   -6.5161    5.1981  -15.5220 C   0  0  0  0  0  0  0  0  0  0  0  0
   -6.1633    5.1025  -16.8772 C   0  0  0  0  0  0  0  0  0  0  0  0
   -4.9910    5.3839  -17.6204 C   0  0  0  0  0  0  0  0  0  0  0  0
   -4.9069    5.2402  -20.9504 H   0  0  0  0  0  0  0  0  0  0  0  0
   -3.6051    5.7652  -19.9821 H   0  0  0  0  0  0  0  0  0  0  0  0
   -7.0127    4.5140  -19.8812 H   0  0  0  0  0  0  0  0  0  0  0  0
   -3.6395    5.7240  -16.9603 C   0  0  0  0  0  0  0  0  0  0  0  0
   -2.3513    5.3771  -17.7118 C   0  0  0  0  0  0  0  0  0  0  0  0
   -1.7746    6.6650  -17.2484 N   0  0  0  0  0  0  0  0  0  0  0  0
   -3.1554    7.1795  -17.1256 C   0  0  0  0  0  0  0  0  0  0  0  0
   -1.2030    7.1472  -17.9421 H   0  0  0  0  0  0  0  0  0  0  0  0
   -8.1864    5.2336  -13.7504 C   0  0  0  0  0  0  0  0  0  0  0  0
   -8.5120    6.3417  -13.5842 O   0  0  0  0  0  0  0  0  0  0  0  0
   -7.9836    4.0902  -12.7391 N   0  0  0  0  0  0  0  0  0  0  0  0
   -7.6280    3.2572  -13.1249 H   0  0  0  0  0  0  0  0  0  0  0  0
   -8.2212    4.0426  -11.3683 C   0  0  0  0  0  0  0  0  0  0  0  0
   -7.9737    5.1680  -10.5606 C   0  0  0  0  0  0  0  0  0  0  0  0
   -8.1835    5.1254   -9.1796 C   0  0  0  0  0  0  0  0  0  0  0  0
   -8.6620    3.9516   -8.6348 C   0  0  0  0  0  0  0  0  0  0  0  0
   -8.9036    2.8354   -9.4323 C   0  0  0  0  0  0  0  0  0  0  0  0
   -8.6771    2.8546  -10.7980 C   0  0  0  0  0  0  0  0  0  0  0  0
   -9.3742    1.7189   -8.5624 C   0  0  0  0  0  0  0  0  0  0  0  0
   -9.7878    2.3705   -7.2908 N   0  0  0  0  0  0  0  0  0  0  0  0
   -8.9889    3.6149   -7.2184 C   0  0  0  0  0  0  0  0  0  0  0  0
   -9.5823    1.7662   -6.4952 H   0  0  0  0  0  0  0  0  0  0  0  0
  1  2  1  0  0  0
  2  3  1  0  0  0
  3  4  1  0  0  0
  4  5  2  0  0  0
  5  6  1  0  0  0
  5  7  1  0  0  0
  7  8  2  0  0  0
  8 20  1  0  0  0
 20 21  2  0  0  0
 20 22  1  0  0  0
 22 24  1  0  0  0
 24 25  2  0  0  0
 25 26  1  0  0  0
 26 27  2  0  0  0
 27 28  1  0  0  0
 28 29  2  0  0  0
 28 30  1  0  0  0
 30 31  1  0  0  0
 31 32  1  0  0  0
  8  9  1  0  0  0
  9 10  2  0  0  0
 10 11  1  0  0  0
 11 15  1  0  0  0
 15 16  1  0  0  0
 16 17  1  0  0  0
 17 18  1  0  0  0
 11  2  2  0  0  0
 18 15  1  0  0  0
 10  4  1  0  0  0
 29 24  1  0  0  0
 32 27  1  0  0  0
  1 12  1  0  0  0
  1 13  1  0  0  0
  3 14  1  0  0  0
 22 23  1  0  0  0
 31 33  1  0  0  0
 17 19  1  0  0  0
M  END
> <minimizedAffinity>
-9.75155

> <minimizedRMSD>
0.50095

$$$$
P29891


 31 35  0  0  0  0  0  0  0  0999 V2000
   -2.6965    5.7247  -17.1581 C   0  0  0  0  0  0  0  0  0  0  0  0
   -4.1407    5.4895  -16.9565 C   0  0  0  0  0  0  0  0  0  0  0  0
   -4.8157    5.4431  -15.7538 C   0  0  0  0  0  0  0  0  0  0  0  0
   -6.1732    5.1095  -15.9915 C   0  0  0  0  0  0  0  0  0  0  0  0
   -7.3066    4.9241  -15.1624 C   0  0  0  0  0  0  0  0  0  0  0  0
   -8.5244    4.5391  -15.7385 C   0  0  0  0  0  0  0  0  0  0  0  0
   -8.6034    4.3701  -17.1210 C   0  0  0  0  0  0  0  0  0  0  0  0
  -10.1002    4.0265  -17.8846 Cl  0  0  0  0  0  0  0  0  0  0  0  0
   -7.5019    4.5680  -17.9552 C   0  0  0  0  0  0  0  0  0  0  0  0
   -6.2941    4.9544  -17.3677 C   0  0  0  0  0  0  0  0  0  0  0  0
   -5.0810    5.2943  -17.9339 N   0  0  0  0  0  0  0  0  0  0  0  0
   -4.9252    5.4096  -19.3934 C   0  0  0  0  0  0  0  0  0  0  0  0
   -5.4240    6.7809  -19.8900 C   0  0  0  0  0  0  0  0  0  0  0  0
   -4.4007    6.7025  -20.9693 N   0  0  0  0  0  0  0  0  0  0  0  0
   -3.5936    5.9162  -19.9928 C   0  0  0  0  0  0  0  0  0  0  0  0
   -3.9942    7.5966  -21.2446 H   0  0  0  0  0  0  0  0  0  0  0  0
   -7.1615    5.2978  -13.7283 C   0  0  0  0  0  0  0  0  0  0  0  0
   -6.7460    6.3649  -13.5157 O   0  0  0  0  0  0  0  0  0  0  0  0
   -7.4988    4.1520  -12.7659 N   0  0  0  0  0  0  0  0  0  0  0  0
   -7.7671    3.3119  -13.2034 H   0  0  0  0  0  0  0  0  0  0  0  0
   -7.4871    4.1053  -11.3416 C   0  0  0  0  0  0  0  0  0  0  0  0
   -7.9161    5.4486  -10.7293 C   0  0  0  0  0  0  0  0  0  0  0  0
   -8.0455    5.3766   -9.2034 C   0  0  0  0  0  0  0  0  0  0  0  0
   -8.6207    4.0774   -8.7790 C   0  0  0  0  0  0  0  0  0  0  0  0
   -8.7570    3.0321   -9.5960 C   0  0  0  0  0  0  0  0  0  0  0  0
   -9.2709    1.8636   -8.8178 C   0  0  0  0  0  0  0  0  0  0  0  0
   -9.7306    2.4363   -7.5267 N   0  0  0  0  0  0  0  0  0  0  0  0
   -9.0317    3.7281   -7.3979 C   0  0  0  0  0  0  0  0  0  0  0  0
   -8.3746    3.0350  -10.9282 N   0  0  0  0  0  0  0  0  0  0  0  0
   -9.4826    1.8182   -6.7541 H   0  0  0  0  0  0  0  0  0  0  0  0
   -8.6884    2.3479  -11.5597 H   0  0  0  0  0  0  0  0  0  0  0  0
  1  2  1  0  0  0
  2  3  2  0  0  0
  3  4  1  0  0  0
  4  5  2  0  0  0
  5 17  1  0  0  0
 17 18  2  0  0  0
 17 19  1  0  0  0
 21 19  1  0  0  0
 21 22  1  0  0  0
 22 23  1  0  0  0
 23 24  1  0  0  0
 24 25  2  0  0  0
 25 26  1  0  0  0
 26 27  1  0  0  0
 27 28  1  0  0  0
 25 29  1  0  0  0
  5  6  1  0  0  0
  6  7  2  0  0  0
  7  8  1  0  0  0
  7  9  1  0  0  0
  9 10  2  0  0  0
 10 11  1  0  0  0
 11 12  1  0  0  0
 12 13  1  0  0  0
 13 14  1  0  0  0
 14 15  1  0  0  0
 11  2  1  0  0  0
 15 12  1  0  0  0
 10  4  1  0  0  0
 29 21  1  0  0  0
 28 24  1  0  0  0
 19 20  1  0  0  0
 27 30  1  0  0  0
 29 31  1  0  0  0
 14 16  1  0  0  0
M  END
> <minimizedAffinity>
-9.08530

> <minimizedRMSD>
0.21074

$$$$
P29906


 36 41  0  0  0  0  0  0  0  0999 V2000
   -8.1694    4.8208  -15.1954 C   0  0  0  0  0  0  0  0  0  0  0  0
   -9.2135    4.3328  -15.9731 C   0  0  0  0  0  0  0  0  0  0  0  0
   -9.0259    4.2083  -17.3564 C   0  0  0  0  0  0  0  0  0  0  0  0
  -10.3625    3.7775  -18.3447 Cl  0  0  0  0  0  0  0  0  0  0  0  0
   -7.8025    4.5154  -17.9654 C   0  0  0  0  0  0  0  0  0  0  0  0
   -6.7581    4.9738  -17.1791 C   0  0  0  0  0  0  0  0  0  0  0  0
   -6.9601    5.1386  -15.8147 C   0  0  0  0  0  0  0  0  0  0  0  0
   -5.7394    5.7067  -15.1832 C   0  0  0  0  0  0  0  0  0  0  0  0
   -4.7101    5.7754  -16.3750 C   0  0  0  0  0  0  0  0  0  0  0  0
   -3.5248    4.8615  -16.0169 C   0  0  0  0  0  0  0  0  0  0  0  0
   -2.7694    5.3575  -14.7696 C   0  0  0  0  0  0  0  0  0  0  0  0
   -2.9014    6.7924  -14.5215 N   0  0  0  0  0  0  0  0  0  0  0  0
   -2.9426    7.5426  -15.7643 C   0  0  0  0  0  0  0  0  0  0  0  0
   -4.2219    7.2341  -16.5421 C   0  0  0  0  0  0  0  0  0  0  0  0
   -5.4527    5.3317  -17.5989 N   0  0  0  0  0  0  0  0  0  0  0  0
   -2.1044    7.1085  -13.9691 H   0  0  0  0  0  0  0  0  0  0  0  0
   -4.9529    5.1400  -18.9411 C   0  0  0  0  0  0  0  0  0  0  0  0
   -5.0461    6.3770  -19.8630 C   0  0  0  0  0  0  0  0  0  0  0  0
   -3.7665    5.9541  -20.4883 N   0  0  0  0  0  0  0  0  0  0  0  0
   -3.4402    5.2292  -19.2366 C   0  0  0  0  0  0  0  0  0  0  0  0
   -3.1314    6.7209  -20.7096 H   0  0  0  0  0  0  0  0  0  0  0  0
   -8.7721    6.2729  -13.5714 O   0  0  0  0  0  0  0  0  0  0  0  0
   -8.3711    5.1983  -13.7756 C   0  0  0  0  0  0  0  0  0  0  0  0
   -7.9233    4.1002  -12.7992 N   0  0  0  0  0  0  0  0  0  0  0  0
   -7.6947    3.2410  -13.2221 H   0  0  0  0  0  0  0  0  0  0  0  0
   -7.7844    4.1225  -11.3771 C   0  0  0  0  0  0  0  0  0  0  0  0
   -8.1632    5.4632  -10.7371 C   0  0  0  0  0  0  0  0  0  0  0  0
   -8.0492    5.4105   -9.2051 C   0  0  0  0  0  0  0  0  0  0  0  0
   -8.5305    4.1107   -8.6703 C   0  0  0  0  0  0  0  0  0  0  0  0
   -8.7861    3.0564   -9.4436 C   0  0  0  0  0  0  0  0  0  0  0  0
   -9.2856    1.9292   -8.5979 C   0  0  0  0  0  0  0  0  0  0  0  0
   -9.3962    2.4700   -7.2151 N   0  0  0  0  0  0  0  0  0  0  0  0
   -8.7940    3.8140   -7.2428 C   0  0  0  0  0  0  0  0  0  0  0  0
   -8.5685    3.0362  -10.8150 N   0  0  0  0  0  0  0  0  0  0  0  0
   -8.8920    1.8713   -6.5612 H   0  0  0  0  0  0  0  0  0  0  0  0
   -8.9299    2.3169  -11.3818 H   0  0  0  0  0  0  0  0  0  0  0  0
 22 23  2  0  0  0
 23 24  1  0  0  0
 26 24  1  0  0  0
 26 27  1  0  0  0
 27 28  1  0  0  0
 28 29  1  0  0  0
 29 30  2  0  0  0
 30 31  1  0  0  0
 31 32  1  0  0  0
 32 33  1  0  0  0
 30 34  1  0  0  0
 23  1  1  0  0  0
  1  2  2  0  0  0
  2  3  1  0  0  0
  3  4  1  0  0  0
  3  5  2  0  0  0
  5  6  1  0  0  0
  6  7  2  0  0  0
  7  8  1  0  0  0
  8  9  1  0  0  0
  9 10  1  0  0  0
 10 11  1  0  0  0
 11 12  1  0  0  0
 12 13  1  0  0  0
 13 14  1  0  0  0
  9 15  1  0  0  0
 15 17  1  0  0  0
 17 18  1  0  0  0
 18 19  1  0  0  0
 19 20  1  0  0  0
 34 26  1  0  0  0
  7  1  1  0  0  0
 14  9  1  0  0  0
 20 17  1  0  0  0
 33 29  1  0  0  0
 15  6  1  0  0  0
 24 25  1  0  0  0
 32 35  1  0  0  0
 34 36  1  0  0  0
 12 16  1  0  0  0
 19 21  1  0  0  0
M  END
> <minimizedAffinity>
-8.59288

> <minimizedRMSD>
0.75824

$$$$
P29909


 30 34  0  0  0  0  0  0  0  0999 V2000
   -6.3122    6.2205  -12.9264 O   0  0  0  0  0  0  0  0  0  0  0  0
   -6.8360    5.2191  -13.2092 C   0  0  0  0  0  0  0  0  0  0  0  0
   -7.3943    4.1027  -12.3179 N   0  0  0  0  0  0  0  0  0  0  0  0
   -7.7248    3.3134  -12.8046 H   0  0  0  0  0  0  0  0  0  0  0  0
   -6.9900    4.9870  -14.6835 C   0  0  0  0  0  0  0  0  0  0  0  0
   -8.1741    4.5261  -15.3602 C   0  0  0  0  0  0  0  0  0  0  0  0
   -8.2278    4.3762  -16.7924 C   0  0  0  0  0  0  0  0  0  0  0  0
   -9.6100    3.7047  -17.5527 Cl  0  0  0  0  0  0  0  0  0  0  0  0
   -7.1306    4.7474  -17.5247 C   0  0  0  0  0  0  0  0  0  0  0  0
   -6.6653    4.7161  -18.8546 N   0  0  0  0  0  0  0  0  0  0  0  0
   -5.2546    5.0902  -18.8668 C   0  0  0  0  0  0  0  0  0  0  0  0
   -4.4411    4.9963  -19.7716 O   0  0  0  0  0  0  0  0  0  0  0  0
   -5.0052    5.5359  -17.5495 N   0  0  0  0  0  0  0  0  0  0  0  0
   -6.0901    5.2274  -16.8018 C   0  0  0  0  0  0  0  0  0  0  0  0
   -5.9002    5.3146  -15.4678 C   0  0  0  0  0  0  0  0  0  0  0  0
   -4.4569    5.7188  -15.3170 C   0  0  0  0  0  0  0  0  0  0  0  0
   -3.8751    5.7104  -16.7395 N   0  0  0  0  0  0  0  0  0  0  0  0
   -7.2031    4.4807  -19.6449 H   0  0  0  0  0  0  0  0  0  0  0  0
   -3.2167    4.9407  -16.8603 H   0  0  0  0  0  0  0  0  0  0  0  0
   -7.5125    4.0220  -10.9022 C   0  0  0  0  0  0  0  0  0  0  0  0
   -7.9934    5.3580  -10.3149 C   0  0  0  0  0  0  0  0  0  0  0  0
   -8.1900    5.2701   -8.7950 C   0  0  0  0  0  0  0  0  0  0  0  0
   -8.7223    3.9414   -8.3956 C   0  0  0  0  0  0  0  0  0  0  0  0
   -8.8382    2.9128   -9.2360 C   0  0  0  0  0  0  0  0  0  0  0  0
   -9.2934    1.7035   -8.4883 C   0  0  0  0  0  0  0  0  0  0  0  0
   -9.4423    2.1240   -7.0710 N   0  0  0  0  0  0  0  0  0  0  0  0
   -9.0816    3.5519   -7.0128 C   0  0  0  0  0  0  0  0  0  0  0  0
   -8.4371    2.9596  -10.5645 N   0  0  0  0  0  0  0  0  0  0  0  0
   -8.8187    1.5793   -6.4753 H   0  0  0  0  0  0  0  0  0  0  0  0
   -8.7601    2.3131  -11.2330 H   0  0  0  0  0  0  0  0  0  0  0  0
  1  2  2  0  0  0
  2  3  1  0  0  0
 20  3  1  0  0  0
 20 21  1  0  0  0
 21 22  1  0  0  0
 22 23  1  0  0  0
 23 24  2  0  0  0
 24 25  1  0  0  0
 25 26  1  0  0  0
 26 27  1  0  0  0
 24 28  1  0  0  0
  2  5  1  0  0  0
  5  6  2  0  0  0
  6  7  1  0  0  0
  7  8  1  0  0  0
  7  9  2  0  0  0
  9 10  1  0  0  0
 10 11  1  0  0  0
 11 12  2  0  0  0
 11 13  1  0  0  0
 13 14  1  0  0  0
 14 15  2  0  0  0
 15 16  1  0  0  0
 16 17  1  0  0  0
 28 20  1  0  0  0
 15  5  1  0  0  0
 27 23  1  0  0  0
 14  9  1  0  0  0
 17 13  1  0  0  0
  3  4  1  0  0  0
 26 29  1  0  0  0
 28 30  1  0  0  0
 10 18  1  0  0  0
 17 19  1  0  0  0
M  END
> <minimizedAffinity>
-8.72185

> <minimizedRMSD>
0.52458

$$$$
P29934


 30 32  0  0  0  0  0  0  0  0999 V2000
   -7.6567    4.4546  -13.2902 C   0  0  0  0  0  0  0  0  0  0  0  0
   -6.1915    4.2637  -12.9018 C   0  0  0  0  0  0  0  0  0  0  0  0
   -8.2994    5.0306  -12.0232 C   0  0  0  0  0  0  0  0  0  0  0  0
   -8.7980    6.0872  -11.9790 O   0  0  0  0  0  0  0  0  0  0  0  0
   -8.0404    3.9926  -10.8984 N   0  0  0  0  0  0  0  0  0  0  0  0
   -7.5297    3.1991  -11.1793 H   0  0  0  0  0  0  0  0  0  0  0  0
   -8.4104    4.0013   -9.5659 C   0  0  0  0  0  0  0  0  0  0  0  0
   -8.2208    5.1407   -8.7706 C   0  0  0  0  0  0  0  0  0  0  0  0
   -8.5275    5.1060   -7.4084 C   0  0  0  0  0  0  0  0  0  0  0  0
   -9.0750    3.9446   -6.8921 C   0  0  0  0  0  0  0  0  0  0  0  0
   -9.2988    2.8359   -7.6986 C   0  0  0  0  0  0  0  0  0  0  0  0
   -8.9365    2.8302   -9.0293 C   0  0  0  0  0  0  0  0  0  0  0  0
   -9.9211    1.7489   -6.8963 C   0  0  0  0  0  0  0  0  0  0  0  0
  -10.2565    2.3568   -5.5860 N   0  0  0  0  0  0  0  0  0  0  0  0
   -9.5040    3.6249   -5.5010 C   0  0  0  0  0  0  0  0  0  0  0  0
   -9.9803    1.7327   -4.8280 H   0  0  0  0  0  0  0  0  0  0  0  0
   -7.9400    5.4059  -14.4545 C   0  0  0  0  0  0  0  0  0  0  0  0
   -8.1054    4.8607  -15.8702 C   0  0  0  0  0  0  0  0  0  0  0  0
   -8.5500    3.5827  -15.8094 F   0  0  0  0  0  0  0  0  0  0  0  0
   -5.4090    5.1314  -18.4302 C   0  0  0  0  0  0  0  0  0  0  0  0
   -4.7507    5.4519  -17.2758 C   0  0  0  0  0  0  0  0  0  0  0  0
   -5.6782    5.4675  -16.2761 N   0  0  0  0  0  0  0  0  0  0  0  0
   -6.8971    5.0232  -16.7392 C   0  0  0  0  0  0  0  0  0  0  0  0
   -6.7561    4.8772  -18.1074 C   0  0  0  0  0  0  0  0  0  0  0  0
   -5.5012    5.7563  -15.3517 H   0  0  0  0  0  0  0  0  0  0  0  0
   -4.8632    5.0749  -19.6615 N   0  0  0  0  0  0  0  0  0  0  0  0
   -5.4362    4.9943  -20.4580 H   0  0  0  0  0  0  0  0  0  0  0  0
   -3.4138    5.1349  -19.7977 C   0  0  0  0  0  0  0  0  0  0  0  0
   -1.6762    6.0107  -21.3975 C   0  0  0  0  0  0  0  0  0  0  0  0
   -3.0079    6.2772  -20.7159 C   0  0  0  0  0  0  0  0  0  0  0  0
 29 30  1  0  0  0
 30 28  1  0  0  0
 28 26  1  0  0  0
 26 20  1  0  0  0
 20 21  2  0  0  0
 21 22  1  0  0  0
 22 23  1  0  0  0
 23 18  1  0  0  0
 18 19  1  0  0  0
 18 17  1  0  0  0
 17  1  1  0  0  0
  1  2  1  0  0  0
  1  3  1  0  0  0
  3  4  2  0  0  0
  3  5  1  0  0  0
  5  7  1  0  0  0
  7  8  2  0  0  0
  8  9  1  0  0  0
  9 10  2  0  0  0
 10 11  1  0  0  0
 11 12  2  0  0  0
 11 13  1  0  0  0
 13 14  1  0  0  0
 14 15  1  0  0  0
 23 24  2  0  0  0
 24 20  1  0  0  0
 12  7  1  0  0  0
 15 10  1  0  0  0
 26 27  1  0  0  0
 22 25  1  0  0  0
  5  6  1  0  0  0
 14 16  1  0  0  0
M  END
> <minimizedAffinity>
-7.03264

> <minimizedRMSD>
1.17324

$$$$
P29936


 32 35  0  0  0  0  0  0  0  0999 V2000
   -5.0418    5.4607  -17.4391 C   0  0  0  0  0  0  0  0  0  0  0  0
   -5.0983    5.2570  -18.8055 C   0  0  0  0  0  0  0  0  0  0  0  0
   -4.1970    5.4666  -19.7889 N   0  0  0  0  0  0  0  0  0  0  0  0
   -6.3500    4.7834  -19.1198 N   0  0  0  0  0  0  0  0  0  0  0  0
   -7.0949    4.6192  -17.9769 C   0  0  0  0  0  0  0  0  0  0  0  0
   -8.4036    4.1760  -17.7828 C   0  0  0  0  0  0  0  0  0  0  0  0
   -9.1617    3.7814  -18.8128 F   0  0  0  0  0  0  0  0  0  0  0  0
   -8.9384    4.2034  -16.4942 C   0  0  0  0  0  0  0  0  0  0  0  0
   -8.1635    4.6603  -15.4357 C   0  0  0  0  0  0  0  0  0  0  0  0
   -6.8316    5.0288  -15.6207 C   0  0  0  0  0  0  0  0  0  0  0  0
   -6.2981    5.0334  -16.9168 C   0  0  0  0  0  0  0  0  0  0  0  0
   -3.2991    5.8057  -19.5696 H   0  0  0  0  0  0  0  0  0  0  0  0
   -4.4378    5.2804  -20.7252 H   0  0  0  0  0  0  0  0  0  0  0  0
   -6.6668    4.5900  -20.0317 H   0  0  0  0  0  0  0  0  0  0  0  0
   -3.9751    7.4632  -16.6363 N   0  0  0  0  0  0  0  0  0  0  0  0
   -3.9457    6.0006  -16.5903 C   0  0  0  0  0  0  0  0  0  0  0  0
   -3.2247    7.8368  -16.0552 H   0  0  0  0  0  0  0  0  0  0  0  0
   -4.8736    7.7964  -16.2868 H   0  0  0  0  0  0  0  0  0  0  0  0
   -8.7130    4.9515  -14.0977 C   0  0  0  0  0  0  0  0  0  0  0  0
   -9.4317    5.8648  -13.9978 O   0  0  0  0  0  0  0  0  0  0  0  0
   -8.1343    4.0158  -13.0234 N   0  0  0  0  0  0  0  0  0  0  0  0
   -7.6054    3.2632  -13.3741 H   0  0  0  0  0  0  0  0  0  0  0  0
   -8.2365    4.0593  -11.6360 C   0  0  0  0  0  0  0  0  0  0  0  0
   -7.9739    5.2497  -10.9335 C   0  0  0  0  0  0  0  0  0  0  0  0
   -8.0937    5.3055   -9.5425 C   0  0  0  0  0  0  0  0  0  0  0  0
   -8.5108    4.1665   -8.8841 C   0  0  0  0  0  0  0  0  0  0  0  0
   -8.7604    2.9853   -9.5783 C   0  0  0  0  0  0  0  0  0  0  0  0
   -8.6056    2.9034  -10.9506 C   0  0  0  0  0  0  0  0  0  0  0  0
   -9.1843    1.9357   -8.6083 C   0  0  0  0  0  0  0  0  0  0  0  0
   -9.5504    2.6792   -7.3748 N   0  0  0  0  0  0  0  0  0  0  0  0
   -8.7810    3.9418   -7.4346 C   0  0  0  0  0  0  0  0  0  0  0  0
   -9.2935    2.1435   -6.5457 H   0  0  0  0  0  0  0  0  0  0  0  0
 15 16  1  0  0  0
 16  1  1  0  0  0
  1  2  2  0  0  0
  2  3  1  0  0  0
  2  4  1  0  0  0
  4  5  1  0  0  0
  5  6  2  0  0  0
  6  7  1  0  0  0
  6  8  1  0  0  0
  8  9  2  0  0  0
  9 19  1  0  0  0
 19 20  2  0  0  0
 19 21  1  0  0  0
 21 23  1  0  0  0
 23 24  2  0  0  0
 24 25  1  0  0  0
 25 26  2  0  0  0
 26 27  1  0  0  0
 27 28  2  0  0  0
 27 29  1  0  0  0
 29 30  1  0  0  0
 30 31  1  0  0  0
  9 10  1  0  0  0
 10 11  2  0  0  0
 11  1  1  0  0  0
 11  5  1  0  0  0
 28 23  1  0  0  0
 31 26  1  0  0  0
 15 17  1  0  0  0
 15 18  1  0  0  0
  3 12  1  0  0  0
  3 13  1  0  0  0
  4 14  1  0  0  0
 21 22  1  0  0  0
 30 32  1  0  0  0
M  END
> <minimizedAffinity>
-9.91500

> <minimizedRMSD>
0.74009

$$$$
P29937


 29 33  0  0  0  0  0  0  0  0999 V2000
   -8.5430    4.3588  -17.3816 C   0  0  0  0  0  0  0  0  0  0  0  0
   -7.7488    4.3971  -18.5563 C   0  0  0  0  0  0  0  0  0  0  0  0
   -6.5726    4.8589  -18.1534 N   0  0  0  0  0  0  0  0  0  0  0  0
   -5.3807    5.1845  -18.6447 C   0  0  0  0  0  0  0  0  0  0  0  0
   -4.5597    5.4996  -17.6144 N   0  0  0  0  0  0  0  0  0  0  0  0
   -5.3196    5.3327  -16.4497 C   0  0  0  0  0  0  0  0  0  0  0  0
   -5.2088    5.4261  -15.0616 C   0  0  0  0  0  0  0  0  0  0  0  0
   -6.3954    5.1051  -14.3070 C   0  0  0  0  0  0  0  0  0  0  0  0
   -7.6635    4.7383  -14.8803 C   0  0  0  0  0  0  0  0  0  0  0  0
   -7.6997    4.6559  -16.2649 C   0  0  0  0  0  0  0  0  0  0  0  0
   -6.5415    4.9623  -16.8647 C   0  0  0  0  0  0  0  0  0  0  0  0
  -10.8078    4.8360  -18.0518 N   0  0  0  0  0  0  0  0  0  0  0  0
   -9.9522    3.9722  -17.2768 C   0  0  0  0  0  0  0  0  0  0  0  0
  -11.7767    4.5334  -17.9517 H   0  0  0  0  0  0  0  0  0  0  0  0
  -10.5370    4.7903  -19.0341 H   0  0  0  0  0  0  0  0  0  0  0  0
   -6.3573    5.2233  -12.8265 C   0  0  0  0  0  0  0  0  0  0  0  0
   -5.5184    5.8648  -12.3278 O   0  0  0  0  0  0  0  0  0  0  0  0
   -7.5758    4.5010  -12.1992 N   0  0  0  0  0  0  0  0  0  0  0  0
   -8.1868    4.0838  -12.8486 H   0  0  0  0  0  0  0  0  0  0  0  0
   -7.9470    4.3460  -10.8675 C   0  0  0  0  0  0  0  0  0  0  0  0
   -7.9128    5.4258   -9.9734 C   0  0  0  0  0  0  0  0  0  0  0  0
   -8.3285    5.2679   -8.6479 C   0  0  0  0  0  0  0  0  0  0  0  0
   -8.7799    4.0244   -8.2480 C   0  0  0  0  0  0  0  0  0  0  0  0
   -8.8140    2.9525   -9.1349 C   0  0  0  0  0  0  0  0  0  0  0  0
   -8.4027    3.0913  -10.4486 C   0  0  0  0  0  0  0  0  0  0  0  0
   -9.3059    1.7426   -8.4139 C   0  0  0  0  0  0  0  0  0  0  0  0
   -9.9220    2.2611   -7.1650 N   0  0  0  0  0  0  0  0  0  0  0  0
   -9.2637    3.5632   -6.9135 C   0  0  0  0  0  0  0  0  0  0  0  0
   -9.7521    1.6198   -6.3902 H   0  0  0  0  0  0  0  0  0  0  0  0
 12 13  1  0  0  0
 13  1  1  0  0  0
  1  2  2  0  0  0
  2  3  1  0  0  0
  3  4  1  0  0  0
  4  5  2  0  0  0
  5  6  1  0  0  0
  6  7  1  0  0  0
  7  8  2  0  0  0
  8 16  1  0  0  0
 16 17  2  0  0  0
 16 18  1  0  0  0
 18 20  1  0  0  0
 20 21  2  0  0  0
 21 22  1  0  0  0
 22 23  2  0  0  0
 23 24  1  0  0  0
 24 25  2  0  0  0
 24 26  1  0  0  0
 26 27  1  0  0  0
 27 28  1  0  0  0
  8  9  1  0  0  0
  9 10  2  0  0  0
 10 11  1  0  0  0
 10  1  1  0  0  0
 11  3  1  0  0  0
 11  6  2  0  0  0
 25 20  1  0  0  0
 28 23  1  0  0  0
 12 14  1  0  0  0
 12 15  1  0  0  0
 18 19  1  0  0  0
 27 29  1  0  0  0
M  END
> <minimizedAffinity>
-8.53761

> <minimizedRMSD>
0.43057

$$$$
P29940


 32 35  0  0  0  0  0  0  0  0999 V2000
   -6.1941    4.9427  -14.4194 C   0  0  0  0  0  0  0  0  0  0  0  0
   -7.6006    5.2204  -14.9660 C   0  0  0  0  0  0  0  0  0  0  0  0
   -8.5215    5.2085  -13.7424 C   0  0  0  0  0  0  0  0  0  0  0  0
   -9.5512    5.7640  -13.7503 O   0  0  0  0  0  0  0  0  0  0  0  0
   -7.7862    4.4631  -12.5899 N   0  0  0  0  0  0  0  0  0  0  0  0
   -6.9560    4.0067  -12.8576 H   0  0  0  0  0  0  0  0  0  0  0  0
   -8.1113    4.3378  -11.2471 C   0  0  0  0  0  0  0  0  0  0  0  0
   -8.0478    5.4603  -10.4046 C   0  0  0  0  0  0  0  0  0  0  0  0
   -8.3101    5.3424   -9.0391 C   0  0  0  0  0  0  0  0  0  0  0  0
   -8.7027    4.1083   -8.5602 C   0  0  0  0  0  0  0  0  0  0  0  0
   -8.7857    3.0008   -9.4010 C   0  0  0  0  0  0  0  0  0  0  0  0
   -8.4490    3.0826  -10.7406 C   0  0  0  0  0  0  0  0  0  0  0  0
   -9.2790    1.8330   -8.6150 C   0  0  0  0  0  0  0  0  0  0  0  0
   -9.8091    2.4113   -7.3522 N   0  0  0  0  0  0  0  0  0  0  0  0
   -9.1123    3.7046   -7.1842 C   0  0  0  0  0  0  0  0  0  0  0  0
   -9.6080    1.7937   -6.5657 H   0  0  0  0  0  0  0  0  0  0  0  0
   -8.0702    4.3246  -16.1207 C   0  0  0  0  0  0  0  0  0  0  0  0
   -7.9797    4.8792  -17.5555 C   0  0  0  0  0  0  0  0  0  0  0  0
   -8.3474    3.8603  -18.3909 F   0  0  0  0  0  0  0  0  0  0  0  0
   -6.6435    5.4381  -17.9449 C   0  0  0  0  0  0  0  0  0  0  0  0
   -6.2411    6.6604  -18.4442 C   0  0  0  0  0  0  0  0  0  0  0  0
   -4.8339    6.6469  -18.6966 C   0  0  0  0  0  0  0  0  0  0  0  0
   -4.4042    5.4213  -18.2449 C   0  0  0  0  0  0  0  0  0  0  0  0
   -5.4974    4.7145  -17.8385 N   0  0  0  0  0  0  0  0  0  0  0  0
   -5.4610    3.7883  -17.5067 H   0  0  0  0  0  0  0  0  0  0  0  0
   -4.0123    7.7244  -19.2417 C   0  0  0  0  0  0  0  0  0  0  0  0
   -4.0514    8.8588  -18.7746 O   0  0  0  0  0  0  0  0  0  0  0  0
   -2.9993    7.3467  -20.2388 C   0  0  0  0  0  0  0  0  0  0  0  0
   -1.6622    7.6846  -20.0886 C   0  0  0  0  0  0  0  0  0  0  0  0
   -0.7781    7.3134  -21.5012 S   0  0  0  0  0  0  0  0  0  0  0  0
   -2.2219    6.7438  -22.2235 C   0  0  0  0  0  0  0  0  0  0  0  0
   -3.3036    6.7433  -21.4701 N   0  0  0  0  0  0  0  0  0  0  0  0
  2  1  1  0  0  0
  2 17  1  0  0  0
 17 18  1  0  0  0
 18 19  1  0  0  0
 18 20  1  0  0  0
 20 21  2  0  0  0
 21 22  1  0  0  0
 22 26  1  0  0  0
 26 27  2  0  0  0
 26 28  1  0  0  0
 28 29  2  0  0  0
 29 30  1  0  0  0
 30 31  1  0  0  0
 31 32  2  0  0  0
 22 23  2  0  0  0
 23 24  1  0  0  0
  2  3  1  0  0  0
  3  4  2  0  0  0
  3  5  1  0  0  0
  5  7  1  0  0  0
  7  8  2  0  0  0
  8  9  1  0  0  0
  9 10  2  0  0  0
 10 11  1  0  0  0
 11 12  2  0  0  0
 11 13  1  0  0  0
 13 14  1  0  0  0
 14 15  1  0  0  0
 24 20  1  0  0  0
 12  7  1  0  0  0
 32 28  1  0  0  0
 15 10  1  0  0  0
 24 25  1  0  0  0
  5  6  1  0  0  0
 14 16  1  0  0  0
M  END
> <minimizedAffinity>
-7.05172

> <minimizedRMSD>
1.10213

$$$$
P29941


 32 35  0  0  0  0  0  0  0  0999 V2000
   -7.3953    5.1610  -12.9694 C   0  0  0  0  0  0  0  0  0  0  0  0
   -7.9922    6.4199  -12.8386 O   0  0  0  0  0  0  0  0  0  0  0  0
   -6.1094    5.1663  -12.4126 O   0  0  0  0  0  0  0  0  0  0  0  0
   -8.8576    6.5646  -13.1675 H   0  0  0  0  0  0  0  0  0  0  0  0
   -5.5888    4.3874  -12.4283 H   0  0  0  0  0  0  0  0  0  0  0  0
   -5.1354    5.2486  -17.6794 C   0  0  0  0  0  0  0  0  0  0  0  0
   -5.8161    5.0815  -18.8661 C   0  0  0  0  0  0  0  0  0  0  0  0
   -7.0959    4.7003  -18.5932 N   0  0  0  0  0  0  0  0  0  0  0  0
   -7.3144    4.6789  -17.2462 C   0  0  0  0  0  0  0  0  0  0  0  0
   -8.4718    4.3508  -16.5456 C   0  0  0  0  0  0  0  0  0  0  0  0
   -9.5704    3.9246  -17.1842 F   0  0  0  0  0  0  0  0  0  0  0  0
   -8.4794    4.4853  -15.1636 C   0  0  0  0  0  0  0  0  0  0  0  0
   -7.3331    4.9088  -14.4704 C   0  0  0  0  0  0  0  0  0  0  0  0
   -6.1510    5.1914  -15.2160 C   0  0  0  0  0  0  0  0  0  0  0  0
   -6.1277    5.0735  -16.6302 C   0  0  0  0  0  0  0  0  0  0  0  0
   -7.7697    4.4720  -19.2737 H   0  0  0  0  0  0  0  0  0  0  0  0
   -2.8778    4.9389  -18.5803 N   0  0  0  0  0  0  0  0  0  0  0  0
   -3.6809    5.5617  -17.5266 C   0  0  0  0  0  0  0  0  0  0  0  0
   -1.8950    5.1744  -18.4428 H   0  0  0  0  0  0  0  0  0  0  0  0
   -3.1856    5.2821  -19.4902 H   0  0  0  0  0  0  0  0  0  0  0  0
   -8.2015    4.1901  -12.2707 N   0  0  0  0  0  0  0  0  0  0  0  0
   -8.6970    3.5398  -12.8192 H   0  0  0  0  0  0  0  0  0  0  0  0
   -8.3415    4.0912  -10.8787 C   0  0  0  0  0  0  0  0  0  0  0  0
   -8.1990    5.1817   -9.9909 C   0  0  0  0  0  0  0  0  0  0  0  0
   -8.4261    5.0601   -8.6123 C   0  0  0  0  0  0  0  0  0  0  0  0
   -8.8015    3.8305   -8.1187 C   0  0  0  0  0  0  0  0  0  0  0  0
   -8.9441    2.7422   -8.9675 C   0  0  0  0  0  0  0  0  0  0  0  0
   -8.7435    2.8596  -10.3357 C   0  0  0  0  0  0  0  0  0  0  0  0
   -9.2856    1.5387   -8.1529 C   0  0  0  0  0  0  0  0  0  0  0  0
   -9.7306    2.0732   -6.8393 N   0  0  0  0  0  0  0  0  0  0  0  0
   -9.0910    3.4021   -6.7193 C   0  0  0  0  0  0  0  0  0  0  0  0
   -9.4257    1.4606   -6.0829 H   0  0  0  0  0  0  0  0  0  0  0  0
 17 18  1  0  0  0
 18  6  1  0  0  0
  6  7  2  0  0  0
  7  8  1  0  0  0
  8  9  1  0  0  0
  9 10  2  0  0  0
 10 11  1  0  0  0
 10 12  1  0  0  0
 12 13  2  0  0  0
 13  1  1  0  0  0
  1  2  1  0  0  0
  1  3  1  0  0  0
  1 21  1  0  0  0
 21 23  1  0  0  0
 23 24  2  0  0  0
 24 25  1  0  0  0
 25 26  2  0  0  0
 26 27  1  0  0  0
 27 28  2  0  0  0
 27 29  1  0  0  0
 29 30  1  0  0  0
 30 31  1  0  0  0
 13 14  1  0  0  0
 14 15  2  0  0  0
 15  6  1  0  0  0
 15  9  1  0  0  0
 28 23  1  0  0  0
 31 26  1  0  0  0
 17 19  1  0  0  0
 17 20  1  0  0  0
  8 16  1  0  0  0
  2  4  1  0  0  0
  3  5  1  0  0  0
 21 22  1  0  0  0
 30 32  1  0  0  0
M  END
> <minimizedAffinity>
-8.30541

> <minimizedRMSD>
0.59984

$$$$
P29942


 35 39  0  0  0  0  0  0  0  0999 V2000
   -4.9960    7.4054  -17.2281 C   0  0  0  0  0  0  0  0  0  0  0  0
   -4.0669    7.5710  -16.0644 N   0  0  0  0  0  0  0  0  0  0  0  0
   -2.9815    6.6270  -16.3528 C   0  0  0  0  0  0  0  0  0  0  0  0
   -3.6698    5.3867  -16.8925 C   0  0  0  0  0  0  0  0  0  0  0  0
   -5.0148    5.8724  -17.4529 C   0  0  0  0  0  0  0  0  0  0  0  0
   -5.2339    5.3339  -18.8848 C   0  0  0  0  0  0  0  0  0  0  0  0
   -6.6615    5.1430  -19.0271 N   0  0  0  0  0  0  0  0  0  0  0  0
   -7.0872    4.7327  -17.7611 C   0  0  0  0  0  0  0  0  0  0  0  0
   -8.2989    4.1280  -17.4601 C   0  0  0  0  0  0  0  0  0  0  0  0
   -9.0519    3.6088  -18.4395 F   0  0  0  0  0  0  0  0  0  0  0  0
   -8.7586    4.1280  -16.1497 C   0  0  0  0  0  0  0  0  0  0  0  0
   -7.9681    4.7271  -15.1523 C   0  0  0  0  0  0  0  0  0  0  0  0
   -6.6883    5.2520  -15.4512 C   0  0  0  0  0  0  0  0  0  0  0  0
   -6.2479    5.2458  -16.7692 C   0  0  0  0  0  0  0  0  0  0  0  0
   -4.5335    7.3331  -15.1891 H   0  0  0  0  0  0  0  0  0  0  0  0
   -7.2095    5.2731  -19.8346 H   0  0  0  0  0  0  0  0  0  0  0  0
   -4.2575    9.6815  -17.9733 C   0  0  0  0  0  0  0  0  0  0  0  0
   -4.6008    8.2944  -18.4442 N   0  0  0  0  0  0  0  0  0  0  0  0
   -3.6084    7.8035  -19.2199 O   0  0  0  0  0  0  0  0  0  0  0  0
   -5.7091    8.4112  -19.3383 O   0  0  0  0  0  0  0  0  0  0  0  0
   -5.4580    8.9655  -20.0937 H   0  0  0  0  0  0  0  0  0  0  0  0
   -8.5619    5.0422  -13.8185 C   0  0  0  0  0  0  0  0  0  0  0  0
   -9.5510    5.6656  -13.8144 O   0  0  0  0  0  0  0  0  0  0  0  0
   -7.7737    4.4030  -12.6492 N   0  0  0  0  0  0  0  0  0  0  0  0
   -6.9188    3.9881  -12.9066 H   0  0  0  0  0  0  0  0  0  0  0  0
   -8.0782    4.3193  -11.2886 C   0  0  0  0  0  0  0  0  0  0  0  0
   -7.9561    5.4421  -10.4516 C   0  0  0  0  0  0  0  0  0  0  0  0
   -8.2547    5.3622   -9.0859 C   0  0  0  0  0  0  0  0  0  0  0  0
   -8.6653    4.1455   -8.5775 C   0  0  0  0  0  0  0  0  0  0  0  0
   -8.7882    3.0307   -9.4012 C   0  0  0  0  0  0  0  0  0  0  0  0
   -8.5123    3.1001  -10.7595 C   0  0  0  0  0  0  0  0  0  0  0  0
   -9.1805    1.8566   -8.5654 C   0  0  0  0  0  0  0  0  0  0  0  0
   -9.6491    2.4317   -7.2765 N   0  0  0  0  0  0  0  0  0  0  0  0
   -8.9929    3.7544   -7.1751 C   0  0  0  0  0  0  0  0  0  0  0  0
   -9.3713    1.8349   -6.4974 H   0  0  0  0  0  0  0  0  0  0  0  0
 18 17  1  0  0  0
 18 19  1  0  0  0
 18 20  1  0  0  0
 18  1  1  0  0  0
  1  2  1  0  0  0
  2  3  1  0  0  0
  3  4  1  0  0  0
  5  4  1  0  0  0
  5  6  1  0  0  0
  6  7  1  0  0  0
  7  8  1  0  0  0
  8  9  2  0  0  0
  9 10  1  0  0  0
  9 11  1  0  0  0
 11 12  2  0  0  0
 12 22  1  0  0  0
 22 23  2  0  0  0
 22 24  1  0  0  0
 24 26  1  0  0  0
 26 27  2  0  0  0
 27 28  1  0  0  0
 28 29  2  0  0  0
 29 30  1  0  0  0
 30 31  2  0  0  0
 30 32  1  0  0  0
 32 33  1  0  0  0
 33 34  1  0  0  0
 12 13  1  0  0  0
 13 14  2  0  0  0
  5  1  1  0  0  0
 14  8  1  0  0  0
 14  5  1  0  0  0
 31 26  1  0  0  0
 34 29  1  0  0  0
 20 21  1  0  0  0
  2 15  1  0  0  0
  7 16  1  0  0  0
 24 25  1  0  0  0
 33 35  1  0  0  0
M  CHG 1  18   1
M  CHG 1  19  -1
M  END
> <minimizedAffinity>
-9.82184

> <minimizedRMSD>
1.09579

$$$$
P29945


 53 59  0  0  0  0  0  0  0  0999 V2000
   -8.1413    4.5101  -11.5161 C   0  0  0  0  0  0  0  0  0  0  0  0
   -8.3560    3.2234  -10.9758 C   0  0  0  0  0  0  0  0  0  0  0  0
   -8.5907    3.0792   -9.6196 C   0  0  0  0  0  0  0  0  0  0  0  0
   -8.5988    4.1761   -8.7772 C   0  0  0  0  0  0  0  0  0  0  0  0
   -8.3768    5.4470   -9.2694 C   0  0  0  0  0  0  0  0  0  0  0  0
   -8.1338    5.6460  -10.6480 C   0  0  0  0  0  0  0  0  0  0  0  0
   -8.8960    3.7267   -7.3863 C   0  0  0  0  0  0  0  0  0  0  0  0
   -9.4295    2.3548   -7.5302 N   0  0  0  0  0  0  0  0  0  0  0  0
   -8.8824    1.8535   -8.8184 C   0  0  0  0  0  0  0  0  0  0  0  0
  -10.4490    2.3690   -7.5566 H   0  0  0  0  0  0  0  0  0  0  0  0
   -8.6401    5.1639  -13.9738 C   0  0  0  0  0  0  0  0  0  0  0  0
   -9.5514    5.9415  -13.9438 O   0  0  0  0  0  0  0  0  0  0  0  0
   -7.9296    4.5113  -12.9146 N   0  0  0  0  0  0  0  0  0  0  0  0
   -7.1621    3.9708  -13.2111 H   0  0  0  0  0  0  0  0  0  0  0  0
   -5.0152    5.4617  -17.5131 C   0  0  0  0  0  0  0  0  0  0  0  0
   -5.1505    5.1670  -18.8574 C   0  0  0  0  0  0  0  0  0  0  0  0
   -6.4268    4.7170  -19.0795 N   0  0  0  0  0  0  0  0  0  0  0  0
   -7.1155    4.6503  -17.8942 C   0  0  0  0  0  0  0  0  0  0  0  0
   -8.4246    4.2420  -17.6301 C   0  0  0  0  0  0  0  0  0  0  0  0
   -9.2090    3.7629  -18.6040 F   0  0  0  0  0  0  0  0  0  0  0  0
   -8.9239    4.3600  -16.3360 C   0  0  0  0  0  0  0  0  0  0  0  0
   -8.1090    4.8722  -15.3292 C   0  0  0  0  0  0  0  0  0  0  0  0
   -6.7793    5.2515  -15.5926 C   0  0  0  0  0  0  0  0  0  0  0  0
   -6.2690    5.1377  -16.8997 C   0  0  0  0  0  0  0  0  0  0  0  0
   -6.7952    4.4769  -19.9603 H   0  0  0  0  0  0  0  0  0  0  0  0
   -3.9262    7.4824  -16.8526 N   0  0  0  0  0  0  0  0  0  0  0  0
   -3.8102    6.0283  -16.8452 C   0  0  0  0  0  0  0  0  0  0  0  0
   -3.1092    7.8910  -16.3988 H   0  0  0  0  0  0  0  0  0  0  0  0
   -4.7688    7.7588  -16.3485 H   0  0  0  0  0  0  0  0  0  0  0  0
   -7.9782    6.9665  -11.0982 N   0  0  0  0  0  0  0  0  0  0  0  0
   -8.3097    7.2338  -11.9859 H   0  0  0  0  0  0  0  0  0  0  0  0
   -7.3187    7.9365  -10.2321 C   0  0  0  0  0  0  0  0  0  0  0  0
   -5.9741    8.3341  -10.8025 C   0  0  0  0  0  0  0  0  0  0  0  0
   -5.6196    9.6833  -10.9226 C   0  0  0  0  0  0  0  0  0  0  0  0
   -4.3808   10.0391  -11.4525 C   0  0  0  0  0  0  0  0  0  0  0  0
   -3.4981    9.0508  -11.8794 C   0  0  0  0  0  0  0  0  0  0  0  0
   -2.3050    9.4793  -12.3938 O   0  0  0  0  0  0  0  0  0  0  0  0
   -3.8234    7.6901  -11.7934 C   0  0  0  0  0  0  0  0  0  0  0  0
   -5.0706    7.3487  -11.2400 C   0  0  0  0  0  0  0  0  0  0  0  0
   -2.1162   10.3960  -12.4382 H   0  0  0  0  0  0  0  0  0  0  0  0
   -2.8662    6.5808  -12.1597 C   0  0  0  0  0  0  0  0  0  0  0  0
   -2.4432    6.6888  -13.5603 N   0  0  0  0  0  0  0  0  0  0  0  0
   -2.9795    7.2046  -14.2050 H   0  0  0  0  0  0  0  0  0  0  0  0
   -1.3067    6.0703  -13.9541 C   0  0  0  0  0  0  0  0  0  0  0  0
   -0.6159    6.3211  -15.0378 N   0  0  0  0  0  0  0  0  0  0  0  0
    0.4864    5.5008  -14.9648 C   0  0  0  0  0  0  0  0  0  0  0  0
    1.5585    5.3523  -15.8562 C   0  0  0  0  0  0  0  0  0  0  0  0
    2.5756    4.4414  -15.5430 C   0  0  0  0  0  0  0  0  0  0  0  0
    2.5276    3.6951  -14.3629 C   0  0  0  0  0  0  0  0  0  0  0  0
    1.4686    3.8307  -13.4578 C   0  0  0  0  0  0  0  0  0  0  0  0
    0.4686    4.7435  -13.7991 C   0  0  0  0  0  0  0  0  0  0  0  0
   -0.6792    5.1402  -13.1648 N   0  0  0  0  0  0  0  0  0  0  0  0
   -0.9987    4.8139  -12.2926 H   0  0  0  0  0  0  0  0  0  0  0  0
 26 27  1  0  0  0
 27 15  1  0  0  0
 15 16  2  0  0  0
 16 17  1  0  0  0
 17 18  1  0  0  0
 18 19  2  0  0  0
 19 20  1  0  0  0
 19 21  1  0  0  0
 21 22  2  0  0  0
 22 11  1  0  0  0
 11 12  2  0  0  0
 11 13  1  0  0  0
 13  1  1  0  0  0
  1  2  2  0  0  0
  2  3  1  0  0  0
  3  4  2  0  0  0
  4  5  1  0  0  0
  5  6  2  0  0  0
  6 30  1  0  0  0
 30 32  1  0  0  0
 32 33  1  0  0  0
 33 34  2  0  0  0
 34 35  1  0  0  0
 35 36  2  0  0  0
 36 37  1  0  0  0
 36 38  1  0  0  0
 38 41  1  0  0  0
 41 42  1  0  0  0
 42 44  1  0  0  0
 44 45  2  0  0  0
 45 46  1  0  0  0
 46 47  2  0  0  0
 47 48  1  0  0  0
 48 49  2  0  0  0
 49 50  1  0  0  0
 50 51  2  0  0  0
 51 52  1  0  0  0
 38 39  2  0  0  0
  4  7  1  0  0  0
  7  8  1  0  0  0
  8  9  1  0  0  0
 22 23  1  0  0  0
 23 24  2  0  0  0
 24 15  1  0  0  0
 24 18  1  0  0  0
  6  1  1  0  0  0
 39 33  1  0  0  0
  9  3  1  0  0  0
 52 44  1  0  0  0
 51 46  1  0  0  0
 26 28  1  0  0  0
 26 29  1  0  0  0
 17 25  1  0  0  0
 13 14  1  0  0  0
 30 31  1  0  0  0
 37 40  1  0  0  0
 42 43  1  0  0  0
 52 53  1  0  0  0
  8 10  1  0  0  0
M  END
> <minimizedAffinity>
-8.28289

> <minimizedRMSD>
1.14212

$$$$
P29957


 39 42  0  0  0  0  0  0  0  0999 V2000
   -8.1511    4.6219  -15.4493 C   0  0  0  0  0  0  0  0  0  0  0  0
   -8.9235    4.2220  -16.5298 C   0  0  0  0  0  0  0  0  0  0  0  0
   -8.3559    4.2192  -17.8073 C   0  0  0  0  0  0  0  0  0  0  0  0
   -9.0927    3.8683  -18.8626 F   0  0  0  0  0  0  0  0  0  0  0  0
   -7.0322    4.6301  -17.9764 C   0  0  0  0  0  0  0  0  0  0  0  0
   -6.2677    4.8036  -19.1055 N   0  0  0  0  0  0  0  0  0  0  0  0
   -4.9682    5.1666  -18.7812 C   0  0  0  0  0  0  0  0  0  0  0  0
   -4.9367    5.3332  -17.3930 C   0  0  0  0  0  0  0  0  0  0  0  0
   -6.2383    4.9782  -16.8990 C   0  0  0  0  0  0  0  0  0  0  0  0
   -6.8035    4.9613  -15.6094 C   0  0  0  0  0  0  0  0  0  0  0  0
   -6.5991    4.6856  -20.0250 H   0  0  0  0  0  0  0  0  0  0  0  0
   -8.1710    4.0185  -13.0188 N   0  0  0  0  0  0  0  0  0  0  0  0
   -8.7180    4.9405  -14.1246 C   0  0  0  0  0  0  0  0  0  0  0  0
   -9.4268    5.8647  -14.0570 O   0  0  0  0  0  0  0  0  0  0  0  0
   -7.6452    3.2523  -13.3439 H   0  0  0  0  0  0  0  0  0  0  0  0
  -10.3210    2.6016   -6.4253 C   0  0  0  0  0  0  0  0  0  0  0  0
   -9.0892    2.7105   -7.1872 N   0  0  0  0  0  0  0  0  0  0  0  0
   -9.1764    2.0488   -8.5138 C   0  0  0  0  0  0  0  0  0  0  0  0
   -8.7492    3.0717   -9.5179 C   0  0  0  0  0  0  0  0  0  0  0  0
   -8.6292    2.9516  -10.8974 C   0  0  0  0  0  0  0  0  0  0  0  0
   -8.2993    4.0921  -11.6317 C   0  0  0  0  0  0  0  0  0  0  0  0
   -8.0665    5.3143  -10.9740 C   0  0  0  0  0  0  0  0  0  0  0  0
   -8.1496    5.3985   -9.5854 C   0  0  0  0  0  0  0  0  0  0  0  0
   -7.9289    6.5723   -8.9299 O   0  0  0  0  0  0  0  0  0  0  0  0
   -8.4913    4.2744   -8.8687 C   0  0  0  0  0  0  0  0  0  0  0  0
   -8.6799    4.1129   -7.4001 C   0  0  0  0  0  0  0  0  0  0  0  0
   -7.6959    7.3413   -9.4118 H   0  0  0  0  0  0  0  0  0  0  0  0
   -3.8653    5.7516  -16.4341 C   0  0  0  0  0  0  0  0  0  0  0  0
   -3.9256    7.2015  -16.2275 N   0  0  0  0  0  0  0  0  0  0  0  0
   -3.7849    7.6780  -17.1183 H   0  0  0  0  0  0  0  0  0  0  0  0
   -3.1957    7.4823  -15.5726 H   0  0  0  0  0  0  0  0  0  0  0  0
   -4.0792    5.2814  -19.8178 N   0  0  0  0  0  0  0  0  0  0  0  0
   -4.0516    4.5444  -20.4699 H   0  0  0  0  0  0  0  0  0  0  0  0
   -3.1573    6.4163  -20.0422 C   0  0  0  0  0  0  0  0  0  0  0  0
   -3.9091    7.7433  -19.8955 C   0  0  0  0  0  0  0  0  0  0  0  0
   -1.9180    6.2886  -19.1357 C   0  0  0  0  0  0  0  0  0  0  0  0
   -2.6568    6.4712  -21.5203 C   0  0  0  0  0  0  0  0  0  0  0  0
   -1.7074    5.4562  -21.8290 O   0  0  0  0  0  0  0  0  0  0  0  0
   -0.9203    5.5701  -21.2737 H   0  0  0  0  0  0  0  0  0  0  0  0
 16 17  1  0  0  0
 17 18  1  0  0  0
 18 19  1  0  0  0
 19 20  2  0  0  0
 20 21  1  0  0  0
 21 12  1  0  0  0
 12 13  1  0  0  0
 13 14  2  0  0  0
 13  1  1  0  0  0
  1  2  2  0  0  0
  2  3  1  0  0  0
  3  4  1  0  0  0
  3  5  2  0  0  0
  5  6  1  0  0  0
  6  7  1  0  0  0
  7 32  1  0  0  0
 32 34  1  0  0  0
 34 35  1  0  0  0
 34 36  1  0  0  0
 34 37  1  0  0  0
 37 38  1  0  0  0
  7  8  2  0  0  0
  8 28  1  0  0  0
 28 29  1  0  0  0
  8  9  1  0  0  0
  9 10  2  0  0  0
 21 22  2  0  0  0
 22 23  1  0  0  0
 23 24  1  0  0  0
 23 25  2  0  0  0
 25 26  1  0  0  0
 26 17  1  0  0  0
 25 19  1  0  0  0
 10  1  1  0  0  0
  9  5  1  0  0  0
 12 15  1  0  0  0
  6 11  1  0  0  0
 32 33  1  0  0  0
 38 39  1  0  0  0
 29 30  1  0  0  0
 29 31  1  0  0  0
 24 27  1  0  0  0
M  END
> <minimizedAffinity>
-9.87365

> <minimizedRMSD>
0.75227

$$$$
P29958


 36 38  0  0  0  0  0  0  0  0999 V2000
   -8.1381    4.8634  -15.9624 C   0  0  0  0  0  0  0  0  0  0  0  0
   -8.5296    3.5686  -15.8249 F   0  0  0  0  0  0  0  0  0  0  0  0
   -5.2114    5.3275  -18.2426 C   0  0  0  0  0  0  0  0  0  0  0  0
   -6.1721    4.7642  -19.0503 C   0  0  0  0  0  0  0  0  0  0  0  0
   -7.3274    4.6224  -18.3201 N   0  0  0  0  0  0  0  0  0  0  0  0
   -7.1087    5.0392  -17.0313 C   0  0  0  0  0  0  0  0  0  0  0  0
   -5.8714    5.6568  -17.0408 C   0  0  0  0  0  0  0  0  0  0  0  0
   -8.1804    4.2753  -18.6680 H   0  0  0  0  0  0  0  0  0  0  0  0
   -3.8996    5.5667  -18.5451 N   0  0  0  0  0  0  0  0  0  0  0  0
   -3.3166    4.8428  -19.6215 N   0  0  0  0  0  0  0  0  0  0  0  0
   -2.3418    5.1224  -19.7307 H   0  0  0  0  0  0  0  0  0  0  0  0
   -3.8264    5.0436  -20.4818 H   0  0  0  0  0  0  0  0  0  0  0  0
   -2.9957    6.2503  -17.5691 C   0  0  0  0  0  0  0  0  0  0  0  0
   -1.9190    5.5049  -16.8694 N   0  0  0  0  0  0  0  0  0  0  0  0
   -0.5754    5.7665  -17.3571 C   0  0  0  0  0  0  0  0  0  0  0  0
   -2.1051    4.5075  -16.9738 H   0  0  0  0  0  0  0  0  0  0  0  0
   -3.5400    8.6994  -18.1607 C   0  0  0  0  0  0  0  0  0  0  0  0
   -2.5137    7.5747  -18.2230 C   0  0  0  0  0  0  0  0  0  0  0  0
   -7.7043    5.4027  -14.5980 C   0  0  0  0  0  0  0  0  0  0  0  0
   -7.4745    4.4319  -13.4416 C   0  0  0  0  0  0  0  0  0  0  0  0
   -6.0332    4.2867  -12.9588 C   0  0  0  0  0  0  0  0  0  0  0  0
   -8.2178    4.9525  -12.2083 C   0  0  0  0  0  0  0  0  0  0  0  0
   -8.8172    5.9557  -12.1865 O   0  0  0  0  0  0  0  0  0  0  0  0
   -7.9007    3.9453  -11.0706 N   0  0  0  0  0  0  0  0  0  0  0  0
   -7.3059    3.2047  -11.3295 H   0  0  0  0  0  0  0  0  0  0  0  0
   -8.3174    3.9193   -9.7543 C   0  0  0  0  0  0  0  0  0  0  0  0
   -8.2219    5.0629   -8.9459 C   0  0  0  0  0  0  0  0  0  0  0  0
   -8.6081    5.0222   -7.5991 C   0  0  0  0  0  0  0  0  0  0  0  0
   -8.4216    6.2134   -6.7138 C   0  0  0  0  0  0  0  0  0  0  0  0
   -9.1371    3.8271   -7.1297 C   0  0  0  0  0  0  0  0  0  0  0  0
   -9.2448    2.7047   -7.9513 C   0  0  0  0  0  0  0  0  0  0  0  0
   -8.8001    2.7174   -9.2532 C   0  0  0  0  0  0  0  0  0  0  0  0
   -9.8715    1.5880   -7.1925 C   0  0  0  0  0  0  0  0  0  0  0  0
  -10.4703    2.2342   -5.9996 N   0  0  0  0  0  0  0  0  0  0  0  0
   -9.6769    3.4649   -5.7849 C   0  0  0  0  0  0  0  0  0  0  0  0
  -10.4033    1.6194   -5.1885 H   0  0  0  0  0  0  0  0  0  0  0  0
 17 18  1  0  0  0
 13 18  1  0  0  0
 13 14  1  0  0  0
 14 15  1  0  0  0
 13  9  1  0  0  0
  9 10  1  0  0  0
  9  3  1  0  0  0
  3  4  2  0  0  0
  4  5  1  0  0  0
  5  6  1  0  0  0
  6  1  1  0  0  0
  1  2  1  0  0  0
  1 19  1  0  0  0
 19 20  1  0  0  0
 20 21  1  0  0  0
 20 22  1  0  0  0
 22 23  2  0  0  0
 22 24  1  0  0  0
 24 26  1  0  0  0
 26 27  2  0  0  0
 27 28  1  0  0  0
 28 29  1  0  0  0
 28 30  2  0  0  0
 30 31  1  0  0  0
 31 32  2  0  0  0
 31 33  1  0  0  0
 33 34  1  0  0  0
 34 35  1  0  0  0
  6  7  2  0  0  0
  7  3  1  0  0  0
 32 26  1  0  0  0
 35 30  1  0  0  0
 14 16  1  0  0  0
 10 11  1  0  0  0
 10 12  1  0  0  0
  5  8  1  0  0  0
 24 25  1  0  0  0
 34 36  1  0  0  0
M  END
> <minimizedAffinity>
-6.86453

> <minimizedRMSD>
1.28835

$$$$
P29970


 38 41  0  0  0  0  0  0  0  0999 V2000
   -8.0231    5.0277  -14.8196 C   0  0  0  0  0  0  0  0  0  0  0  0
   -9.0140    4.4928  -15.6445 C   0  0  0  0  0  0  0  0  0  0  0  0
   -8.7482    4.2824  -16.9824 C   0  0  0  0  0  0  0  0  0  0  0  0
   -9.6879    3.7701  -17.7925 F   0  0  0  0  0  0  0  0  0  0  0  0
   -7.4873    4.6127  -17.4686 C   0  0  0  0  0  0  0  0  0  0  0  0
   -7.0317    4.4949  -18.7442 N   0  0  0  0  0  0  0  0  0  0  0  0
   -5.7386    4.8829  -18.8150 C   0  0  0  0  0  0  0  0  0  0  0  0
   -5.2977    5.3007  -17.5785 C   0  0  0  0  0  0  0  0  0  0  0  0
   -6.4481    5.1472  -16.6963 C   0  0  0  0  0  0  0  0  0  0  0  0
   -6.7445    5.3789  -15.3283 C   0  0  0  0  0  0  0  0  0  0  0  0
   -7.5661    4.1735  -19.5060 H   0  0  0  0  0  0  0  0  0  0  0  0
   -3.8777    5.7534  -17.4076 C   0  0  0  0  0  0  0  0  0  0  0  0
   -3.4331    5.5684  -16.0637 N   0  0  0  0  0  0  0  0  0  0  0  0
   -3.9984    6.1410  -15.4368 H   0  0  0  0  0  0  0  0  0  0  0  0
   -2.4545    5.8460  -15.9880 H   0  0  0  0  0  0  0  0  0  0  0  0
   -3.7301    7.1724  -17.6026 N   0  0  0  0  0  0  0  0  0  0  0  0
   -3.2534    7.5580  -16.7874 H   0  0  0  0  0  0  0  0  0  0  0  0
   -2.9704    7.5448  -18.7939 C   0  0  0  0  0  0  0  0  0  0  0  0
   -3.7747    7.5942  -20.1095 C   0  0  0  0  0  0  0  0  0  0  0  0
   -3.9985    9.0304  -20.5903 C   0  0  0  0  0  0  0  0  0  0  0  0
   -3.0616    6.7835  -21.2015 C   0  0  0  0  0  0  0  0  0  0  0  0
   -2.9978    5.4034  -20.8665 O   0  0  0  0  0  0  0  0  0  0  0  0
   -2.4972    5.2933  -20.0430 H   0  0  0  0  0  0  0  0  0  0  0  0
   -8.3393    5.2462  -13.3837 C   0  0  0  0  0  0  0  0  0  0  0  0
   -9.0106    6.2142  -13.0589 O   0  0  0  0  0  0  0  0  0  0  0  0
   -7.8080    4.2431  -12.3637 C   0  0  0  0  0  0  0  0  0  0  0  0
   -7.0293    3.3910  -12.7760 O   0  0  0  0  0  0  0  0  0  0  0  0
   -8.2183    6.4444   -7.8073 C   0  0  0  0  0  0  0  0  0  0  0  0
   -8.3458    5.2536   -8.7065 C   0  0  0  0  0  0  0  0  0  0  0  0
   -8.0459    5.3504  -10.0786 C   0  0  0  0  0  0  0  0  0  0  0  0
   -8.1414    4.2296  -10.9209 C   0  0  0  0  0  0  0  0  0  0  0  0
   -8.5662    2.9978  -10.3907 C   0  0  0  0  0  0  0  0  0  0  0  0
   -8.8468    2.9083   -9.0429 C   0  0  0  0  0  0  0  0  0  0  0  0
   -8.7206    4.0103   -8.2089 C   0  0  0  0  0  0  0  0  0  0  0  0
   -9.0649    3.5952   -6.8167 C   0  0  0  0  0  0  0  0  0  0  0  0
   -9.2016    2.1218   -6.8366 N   0  0  0  0  0  0  0  0  0  0  0  0
   -9.3198    1.7297   -8.2651 C   0  0  0  0  0  0  0  0  0  0  0  0
  -10.0359    1.8382   -6.3229 H   0  0  0  0  0  0  0  0  0  0  0  0
 28 29  1  0  0  0
 29 30  2  0  0  0
 30 31  1  0  0  0
 31 26  1  0  0  0
 26 27  2  0  0  0
 26 24  1  0  0  0
 24 25  2  0  0  0
 24  1  1  0  0  0
  1  2  2  0  0  0
  2  3  1  0  0  0
  3  4  1  0  0  0
  3  5  2  0  0  0
  5  6  1  0  0  0
  6  7  1  0  0  0
  7  8  2  0  0  0
  8 12  1  0  0  0
 12 13  1  0  0  0
 12 16  1  0  0  0
 16 18  1  0  0  0
 18 19  1  0  0  0
 19 20  1  0  0  0
 19 21  1  0  0  0
 21 22  1  0  0  0
  8  9  1  0  0  0
  9 10  2  0  0  0
 31 32  2  0  0  0
 32 33  1  0  0  0
 33 34  2  0  0  0
 34 35  1  0  0  0
 35 36  1  0  0  0
 36 37  1  0  0  0
 34 29  1  0  0  0
 10  1  1  0  0  0
 37 33  1  0  0  0
  9  5  1  0  0  0
  6 11  1  0  0  0
 13 14  1  0  0  0
 13 15  1  0  0  0
 16 17  1  0  0  0
 22 23  1  0  0  0
 36 38  1  0  0  0
M  END
> <minimizedAffinity>
-8.58284

> <minimizedRMSD>
1.10358

$$$$
P29971


 34 37  0  0  0  0  0  0  0  0999 V2000
   -4.8980    5.4436  -18.5958 C   0  0  0  0  0  0  0  0  0  0  0  0
   -6.1256    4.9444  -18.9809 N   0  0  0  0  0  0  0  0  0  0  0  0
   -6.9172    4.7029  -17.8822 C   0  0  0  0  0  0  0  0  0  0  0  0
   -8.2418    4.2541  -17.7724 C   0  0  0  0  0  0  0  0  0  0  0  0
   -8.9806    3.9423  -18.8496 F   0  0  0  0  0  0  0  0  0  0  0  0
   -8.8283    4.2228  -16.5052 C   0  0  0  0  0  0  0  0  0  0  0  0
   -8.1000    4.6428  -15.3959 C   0  0  0  0  0  0  0  0  0  0  0  0
   -6.7660    5.0410  -15.5054 C   0  0  0  0  0  0  0  0  0  0  0  0
   -6.1696    5.0889  -16.7722 C   0  0  0  0  0  0  0  0  0  0  0  0
   -4.9161    5.6074  -17.2227 C   0  0  0  0  0  0  0  0  0  0  0  0
   -6.3973    4.7834  -19.9133 H   0  0  0  0  0  0  0  0  0  0  0  0
   -8.7122    4.8917  -14.0767 C   0  0  0  0  0  0  0  0  0  0  0  0
   -9.5061    5.7419  -13.9985 O   0  0  0  0  0  0  0  0  0  0  0  0
   -8.0887    4.0069  -12.9856 N   0  0  0  0  0  0  0  0  0  0  0  0
   -7.4898    3.3007  -13.3201 H   0  0  0  0  0  0  0  0  0  0  0  0
   -8.2325    4.0412  -11.6030 C   0  0  0  0  0  0  0  0  0  0  0  0
   -8.0117    5.2364  -10.8924 C   0  0  0  0  0  0  0  0  0  0  0  0
   -8.1552    5.2870   -9.5035 C   0  0  0  0  0  0  0  0  0  0  0  0
   -8.5578    4.1375   -8.8554 C   0  0  0  0  0  0  0  0  0  0  0  0
   -8.7716    2.9539   -9.5583 C   0  0  0  0  0  0  0  0  0  0  0  0
   -8.5875    2.8766  -10.9283 C   0  0  0  0  0  0  0  0  0  0  0  0
   -9.1952    1.8944   -8.5965 C   0  0  0  0  0  0  0  0  0  0  0  0
   -9.5942    2.6279   -7.3650 N   0  0  0  0  0  0  0  0  0  0  0  0
   -8.8440    3.9028   -7.4107 C   0  0  0  0  0  0  0  0  0  0  0  0
   -9.3416    2.0941   -6.5333 H   0  0  0  0  0  0  0  0  0  0  0  0
   -3.9443    6.3451  -16.3601 C   0  0  0  0  0  0  0  0  0  0  0  0
   -3.0613    5.4023  -15.6801 N   0  0  0  0  0  0  0  0  0  0  0  0
   -3.6164    4.7784  -15.0944 H   0  0  0  0  0  0  0  0  0  0  0  0
   -2.3993    5.9155  -15.0981 H   0  0  0  0  0  0  0  0  0  0  0  0
   -3.9989    5.8320  -19.5396 N   0  0  0  0  0  0  0  0  0  0  0  0
   -4.0588    6.7382  -19.9196 H   0  0  0  0  0  0  0  0  0  0  0  0
   -2.0735    4.2460  -18.9538 C   0  0  0  0  0  0  0  0  0  0  0  0
   -2.9380    4.9235  -20.0039 C   0  0  0  0  0  0  0  0  0  0  0  0
   -2.0400    5.7152  -20.9599 C   0  0  0  0  0  0  0  0  0  0  0  0
 32 33  1  0  0  0
 33 34  1  0  0  0
 33 30  1  0  0  0
 30  1  1  0  0  0
  1  2  1  0  0  0
  2  3  1  0  0  0
  3  4  2  0  0  0
  4  5  1  0  0  0
  4  6  1  0  0  0
  6  7  2  0  0  0
  7 12  1  0  0  0
 12 13  2  0  0  0
 12 14  1  0  0  0
 14 16  1  0  0  0
 16 17  2  0  0  0
 17 18  1  0  0  0
 18 19  2  0  0  0
 19 20  1  0  0  0
 20 21  2  0  0  0
 20 22  1  0  0  0
 22 23  1  0  0  0
 23 24  1  0  0  0
  7  8  1  0  0  0
  8  9  2  0  0  0
  9 10  1  0  0  0
 10 26  1  0  0  0
 26 27  1  0  0  0
 10  1  2  0  0  0
  9  3  1  0  0  0
 21 16  1  0  0  0
 24 19  1  0  0  0
 30 31  1  0  0  0
  2 11  1  0  0  0
 14 15  1  0  0  0
 23 25  1  0  0  0
 27 28  1  0  0  0
 27 29  1  0  0  0
M  END
> <minimizedAffinity>
-9.80181

> <minimizedRMSD>
0.74353

$$$$
P29973


 39 43  0  0  0  0  0  0  0  0999 V2000
   -5.5660    5.0591  -18.6188 C   0  0  0  0  0  0  0  0  0  0  0  0
   -6.3776    4.6010  -19.6426 C   0  0  0  0  0  0  0  0  0  0  0  0
   -7.5856    4.2168  -19.1478 N   0  0  0  0  0  0  0  0  0  0  0  0
   -7.5779    4.3263  -17.7862 C   0  0  0  0  0  0  0  0  0  0  0  0
   -8.5751    3.9596  -16.8860 C   0  0  0  0  0  0  0  0  0  0  0  0
   -9.7017    3.3745  -17.3167 F   0  0  0  0  0  0  0  0  0  0  0  0
   -8.3938    4.2244  -15.5394 C   0  0  0  0  0  0  0  0  0  0  0  0
   -7.2106    4.8288  -15.1064 C   0  0  0  0  0  0  0  0  0  0  0  0
   -6.1914    5.1813  -16.0248 C   0  0  0  0  0  0  0  0  0  0  0  0
   -6.3622    4.9131  -17.4086 C   0  0  0  0  0  0  0  0  0  0  0  0
   -8.3482    3.9075  -19.6882 H   0  0  0  0  0  0  0  0  0  0  0  0
   -3.8123    6.6747  -18.1153 N   0  0  0  0  0  0  0  0  0  0  0  0
   -4.1397    5.4990  -18.8798 C   0  0  0  0  0  0  0  0  0  0  0  0
   -2.8491    6.9489  -18.3090 H   0  0  0  0  0  0  0  0  0  0  0  0
   -3.9149    6.4730  -17.1207 H   0  0  0  0  0  0  0  0  0  0  0  0
   -3.9559    5.8552  -20.2429 O   0  0  0  0  0  0  0  0  0  0  0  0
   -3.1839    4.8912  -20.9535 C   0  0  0  0  0  0  0  0  0  0  0  0
   -3.1351    5.2319  -22.4236 C   0  0  0  0  0  0  0  0  0  0  0  0
   -2.0127    4.8741  -23.1847 C   0  0  0  0  0  0  0  0  0  0  0  0
   -1.9688    5.1416  -24.5544 C   0  0  0  0  0  0  0  0  0  0  0  0
   -3.0496    5.7601  -25.1802 C   0  0  0  0  0  0  0  0  0  0  0  0
   -4.1778    6.1064  -24.4391 C   0  0  0  0  0  0  0  0  0  0  0  0
   -4.2221    5.8402  -23.0697 C   0  0  0  0  0  0  0  0  0  0  0  0
   -7.0664    5.1874  -13.6603 C   0  0  0  0  0  0  0  0  0  0  0  0
   -6.5987    6.2234  -13.3867 O   0  0  0  0  0  0  0  0  0  0  0  0
   -7.6689    4.0838  -12.7498 N   0  0  0  0  0  0  0  0  0  0  0  0
   -7.9322    3.2599  -13.2199 H   0  0  0  0  0  0  0  0  0  0  0  0
   -7.8981    4.0697  -11.3723 C   0  0  0  0  0  0  0  0  0  0  0  0
   -7.6015    5.1726  -10.5559 C   0  0  0  0  0  0  0  0  0  0  0  0
   -7.8696    5.1441   -9.1790 C   0  0  0  0  0  0  0  0  0  0  0  0
   -8.4378    4.0031   -8.6426 C   0  0  0  0  0  0  0  0  0  0  0  0
   -8.7296    2.9061   -9.4507 C   0  0  0  0  0  0  0  0  0  0  0  0
   -8.4697    2.9215  -10.8120 C   0  0  0  0  0  0  0  0  0  0  0  0
   -9.3107    1.8127   -8.6089 C   0  0  0  0  0  0  0  0  0  0  0  0
   -9.6896    2.4889   -7.3417 N   0  0  0  0  0  0  0  0  0  0  0  0
   -9.5678    1.5873   -6.2392 N   0  0  0  0  0  0  0  0  0  0  0  0
   -8.8261    3.6897   -7.2285 C   0  0  0  0  0  0  0  0  0  0  0  0
  -10.1862    0.7890   -6.3830 H   0  0  0  0  0  0  0  0  0  0  0  0
   -9.8268    2.0673   -5.3773 H   0  0  0  0  0  0  0  0  0  0  0  0
 13 12  1  0  0  0
 13 16  1  0  0  0
 16 17  1  0  0  0
 17 18  1  0  0  0
 18 19  2  0  0  0
 19 20  1  0  0  0
 20 21  2  0  0  0
 21 22  1  0  0  0
 22 23  2  0  0  0
 13  1  1  0  0  0
  1  2  2  0  0  0
  2  3  1  0  0  0
  3  4  1  0  0  0
  4  5  2  0  0  0
  5  6  1  0  0  0
  5  7  1  0  0  0
  7  8  2  0  0  0
  8 24  1  0  0  0
 24 25  2  0  0  0
 24 26  1  0  0  0
 26 28  1  0  0  0
 28 29  2  0  0  0
 29 30  1  0  0  0
 30 31  2  0  0  0
 31 32  1  0  0  0
 32 33  2  0  0  0
 32 34  1  0  0  0
 34 35  1  0  0  0
 35 36  1  0  0  0
 35 37  1  0  0  0
  8  9  1  0  0  0
  9 10  2  0  0  0
 23 18  1  0  0  0
 10  1  1  0  0  0
 10  4  1  0  0  0
 33 28  1  0  0  0
 37 31  1  0  0  0
 12 14  1  0  0  0
 12 15  1  0  0  0
  3 11  1  0  0  0
 26 27  1  0  0  0
 36 38  1  0  0  0
 36 39  1  0  0  0
M  END
> <minimizedAffinity>
-9.48253

> <minimizedRMSD>
0.46592

$$$$
P29976


 33 37  0  0  0  0  0  0  0  0999 V2000
   -5.0526    5.3567  -17.7897 C   0  0  0  0  0  0  0  0  0  0  0  0
   -5.6390    5.0526  -19.0061 C   0  0  0  0  0  0  0  0  0  0  0  0
   -6.9127    4.6145  -18.8020 N   0  0  0  0  0  0  0  0  0  0  0  0
   -7.2207    4.6571  -17.4718 C   0  0  0  0  0  0  0  0  0  0  0  0
   -8.4216    4.3273  -16.8386 C   0  0  0  0  0  0  0  0  0  0  0  0
   -9.4618    3.8490  -17.5392 F   0  0  0  0  0  0  0  0  0  0  0  0
   -8.5400    4.5361  -15.4715 C   0  0  0  0  0  0  0  0  0  0  0  0
   -7.4535    5.0460  -14.7640 C   0  0  0  0  0  0  0  0  0  0  0  0
   -6.2264    5.3259  -15.4030 C   0  0  0  0  0  0  0  0  0  0  0  0
   -6.0922    5.1376  -16.7989 C   0  0  0  0  0  0  0  0  0  0  0  0
   -7.5238    4.3107  -19.5117 H   0  0  0  0  0  0  0  0  0  0  0  0
   -3.0229    5.7945  -19.0088 N   0  0  0  0  0  0  0  0  0  0  0  0
   -3.6313    5.8630  -17.6712 C   0  0  0  0  0  0  0  0  0  0  0  0
   -2.7366    5.1503  -16.6498 C   0  0  0  0  0  0  0  0  0  0  0  0
   -1.5677    6.1026  -16.4030 C   0  0  0  0  0  0  0  0  0  0  0  0
   -2.1266    7.5041  -16.6431 C   0  0  0  0  0  0  0  0  0  0  0  0
   -3.5625    7.3087  -17.1343 C   0  0  0  0  0  0  0  0  0  0  0  0
   -3.0723    4.8367  -19.3561 H   0  0  0  0  0  0  0  0  0  0  0  0
   -2.0470    6.0863  -18.9538 H   0  0  0  0  0  0  0  0  0  0  0  0
   -7.6121    5.4521  -13.3412 C   0  0  0  0  0  0  0  0  0  0  0  0
   -7.5590    6.5922  -13.0909 O   0  0  0  0  0  0  0  0  0  0  0  0
   -7.8403    4.2320  -12.4174 N   0  0  0  0  0  0  0  0  0  0  0  0
   -7.7653    3.3575  -12.8635 H   0  0  0  0  0  0  0  0  0  0  0  0
   -8.1350    4.1693  -11.0547 C   0  0  0  0  0  0  0  0  0  0  0  0
   -8.0022    5.2993  -10.2302 C   0  0  0  0  0  0  0  0  0  0  0  0
   -8.2856    5.2303   -8.8610 C   0  0  0  0  0  0  0  0  0  0  0  0
   -8.7066    4.0215   -8.3413 C   0  0  0  0  0  0  0  0  0  0  0  0
   -8.8430    2.9003   -9.1542 C   0  0  0  0  0  0  0  0  0  0  0  0
   -8.5626    2.9539  -10.5111 C   0  0  0  0  0  0  0  0  0  0  0  0
   -9.2722    1.7434   -8.3131 C   0  0  0  0  0  0  0  0  0  0  0  0
   -9.7404    2.3433   -7.0350 N   0  0  0  0  0  0  0  0  0  0  0  0
   -9.0494    3.6484   -6.9378 C   0  0  0  0  0  0  0  0  0  0  0  0
   -9.4886    1.7464   -6.2472 H   0  0  0  0  0  0  0  0  0  0  0  0
 12 13  1  0  0  0
 13  1  1  0  0  0
  1  2  2  0  0  0
  2  3  1  0  0  0
  3  4  1  0  0  0
  4  5  2  0  0  0
  5  6  1  0  0  0
  5  7  1  0  0  0
  7  8  2  0  0  0
  8 20  1  0  0  0
 20 21  2  0  0  0
 20 22  1  0  0  0
 22 24  1  0  0  0
 24 25  2  0  0  0
 25 26  1  0  0  0
 26 27  2  0  0  0
 27 28  1  0  0  0
 28 29  2  0  0  0
 28 30  1  0  0  0
 30 31  1  0  0  0
 31 32  1  0  0  0
  8  9  1  0  0  0
  9 10  2  0  0  0
 13 14  1  0  0  0
 14 15  1  0  0  0
 15 16  1  0  0  0
 16 17  1  0  0  0
 17 13  1  0  0  0
 10  1  1  0  0  0
 10  4  1  0  0  0
 29 24  1  0  0  0
 32 27  1  0  0  0
 12 18  1  0  0  0
 12 19  1  0  0  0
  3 11  1  0  0  0
 22 23  1  0  0  0
 31 33  1  0  0  0
M  END
> <minimizedAffinity>
-9.19261

> <minimizedRMSD>
0.75793

$$$$
P29977


 40 44  0  0  0  0  0  0  0  0999 V2000
   -8.7108    5.1594  -14.0906 C   0  0  0  0  0  0  0  0  0  0  0  0
   -9.5906    5.9210  -14.0872 O   0  0  0  0  0  0  0  0  0  0  0  0
   -8.0293    4.4227  -12.9319 N   0  0  0  0  0  0  0  0  0  0  0  0
   -7.2478    3.8824  -13.1901 H   0  0  0  0  0  0  0  0  0  0  0  0
   -8.3482    4.3919  -11.5164 C   0  0  0  0  0  0  0  0  0  0  0  0
   -8.4984    2.9650  -10.9605 C   0  0  0  0  0  0  0  0  0  0  0  0
   -8.6662    3.0167   -9.4816 C   0  0  0  0  0  0  0  0  0  0  0  0
   -8.3960    4.0818   -8.7158 C   0  0  0  0  0  0  0  0  0  0  0  0
   -8.7624    3.7764   -7.3061 C   0  0  0  0  0  0  0  0  0  0  0  0
   -9.4601    2.4789   -7.3486 N   0  0  0  0  0  0  0  0  0  0  0  0
   -9.1261    1.8771   -8.6545 C   0  0  0  0  0  0  0  0  0  0  0  0
   -7.7739    5.3581   -9.2108 C   0  0  0  0  0  0  0  0  0  0  0  0
   -7.3206    5.1811  -10.6926 C   0  0  0  0  0  0  0  0  0  0  0  0
   -6.6191    5.7837   -8.4050 N   0  0  0  0  0  0  0  0  0  0  0  0
   -6.5539    7.2053   -8.5971 N   0  0  0  0  0  0  0  0  0  0  0  0
   -7.8589    7.6599   -8.9072 N   0  0  0  0  0  0  0  0  0  0  0  0
   -8.6957    6.4928   -9.0815 N   0  0  0  0  0  0  0  0  0  0  0  0
  -10.4678    2.6160   -7.2693 H   0  0  0  0  0  0  0  0  0  0  0  0
   -5.7642    5.3354   -8.7344 H   0  0  0  0  0  0  0  0  0  0  0  0
   -5.9190    7.4229   -9.3652 H   0  0  0  0  0  0  0  0  0  0  0  0
   -7.8417    8.2077   -9.7674 H   0  0  0  0  0  0  0  0  0  0  0  0
   -9.2650    6.5860   -9.9226 H   0  0  0  0  0  0  0  0  0  0  0  0
   -4.9997    5.5121  -17.5229 C   0  0  0  0  0  0  0  0  0  0  0  0
   -5.1193    5.2405  -18.8725 C   0  0  0  0  0  0  0  0  0  0  0  0
   -4.2558    5.3913  -19.8924 N   0  0  0  0  0  0  0  0  0  0  0  0
   -6.3737    4.7488  -19.1087 N   0  0  0  0  0  0  0  0  0  0  0  0
   -7.0674    4.6460  -17.9291 C   0  0  0  0  0  0  0  0  0  0  0  0
   -8.3534    4.1707  -17.6839 C   0  0  0  0  0  0  0  0  0  0  0  0
   -9.0832    3.6617  -18.6797 F   0  0  0  0  0  0  0  0  0  0  0  0
   -8.8774    4.2602  -16.3998 C   0  0  0  0  0  0  0  0  0  0  0  0
   -8.0992    4.8217  -15.3912 C   0  0  0  0  0  0  0  0  0  0  0  0
   -6.7813    5.2475  -15.6209 C   0  0  0  0  0  0  0  0  0  0  0  0
   -6.2528    5.1571  -16.9228 C   0  0  0  0  0  0  0  0  0  0  0  0
   -3.3525    5.7451  -19.7244 H   0  0  0  0  0  0  0  0  0  0  0  0
   -4.5268    5.1480  -20.8070 H   0  0  0  0  0  0  0  0  0  0  0  0
   -6.7269    4.5046  -19.9946 H   0  0  0  0  0  0  0  0  0  0  0  0
   -3.0982    4.9766  -16.1696 N   0  0  0  0  0  0  0  0  0  0  0  0
   -3.8131    6.0720  -16.8162 C   0  0  0  0  0  0  0  0  0  0  0  0
   -2.2821    5.3449  -15.6810 H   0  0  0  0  0  0  0  0  0  0  0  0
   -2.7973    4.3039  -16.8748 H   0  0  0  0  0  0  0  0  0  0  0  0
 37 38  1  0  0  0
 38 23  1  0  0  0
 23 24  2  0  0  0
 24 25  1  0  0  0
 24 26  1  0  0  0
 26 27  1  0  0  0
 27 28  2  0  0  0
 28 29  1  0  0  0
 28 30  1  0  0  0
 30 31  2  0  0  0
 31  1  1  0  0  0
  1  2  2  0  0  0
  1  3  1  0  0  0
  5  3  1  0  0  0
  5  6  1  0  0  0
  6  7  1  0  0  0
  7  8  2  0  0  0
  8  9  1  0  0  0
  9 10  1  0  0  0
 10 11  1  0  0  0
  8 12  1  0  0  0
 12 13  1  0  0  0
 12 14  1  0  0  0
 14 15  1  0  0  0
 15 16  1  0  0  0
 16 17  1  0  0  0
 31 32  1  0  0  0
 32 33  2  0  0  0
 33 23  1  0  0  0
 33 27  1  0  0  0
 13  5  1  0  0  0
 11  7  1  0  0  0
 17 12  1  0  0  0
 37 39  1  0  0  0
 37 40  1  0  0  0
 25 34  1  0  0  0
 25 35  1  0  0  0
 26 36  1  0  0  0
  3  4  1  0  0  0
 10 18  1  0  0  0
 14 19  1  0  0  0
 15 20  1  0  0  0
 16 21  1  0  0  0
 17 22  1  0  0  0
M  END
> <minimizedAffinity>
-10.21996

> <minimizedRMSD>
0.70985

$$$$
P29978


 37 40  0  0  0  0  0  0  0  0999 V2000
   -6.8080    4.9488  -12.8357 C   0  0  0  0  0  0  0  0  0  0  0  0
   -6.5252    6.3287  -12.6426 O   0  0  0  0  0  0  0  0  0  0  0  0
   -6.4511    6.5138  -11.6934 H   0  0  0  0  0  0  0  0  0  0  0  0
   -6.8957    4.8087  -14.3634 C   0  0  0  0  0  0  0  0  0  0  0  0
   -8.1238    4.4725  -14.9666 C   0  0  0  0  0  0  0  0  0  0  0  0
   -8.2745    4.4624  -16.3500 C   0  0  0  0  0  0  0  0  0  0  0  0
   -9.4629    4.1607  -16.9004 F   0  0  0  0  0  0  0  0  0  0  0  0
   -7.1781    4.8087  -17.1373 C   0  0  0  0  0  0  0  0  0  0  0  0
   -7.0905    4.9406  -18.4941 N   0  0  0  0  0  0  0  0  0  0  0  0
   -5.8386    5.3372  -18.8562 C   0  0  0  0  0  0  0  0  0  0  0  0
   -5.0442    5.4044  -17.7329 C   0  0  0  0  0  0  0  0  0  0  0  0
   -5.9234    5.1232  -16.6163 C   0  0  0  0  0  0  0  0  0  0  0  0
   -5.7936    5.1261  -15.2048 C   0  0  0  0  0  0  0  0  0  0  0  0
   -7.8293    4.7725  -19.1228 H   0  0  0  0  0  0  0  0  0  0  0  0
   -3.5989    5.7850  -17.7312 C   0  0  0  0  0  0  0  0  0  0  0  0
   -2.8194    4.9021  -18.5983 N   0  0  0  0  0  0  0  0  0  0  0  0
   -2.8925    3.9425  -18.2604 H   0  0  0  0  0  0  0  0  0  0  0  0
   -1.8416    5.1925  -18.5883 H   0  0  0  0  0  0  0  0  0  0  0  0
   -4.8482    4.8505  -11.2527 N   0  0  0  0  0  0  0  0  0  0  0  0
   -5.6993    3.9618  -12.2131 C   0  0  0  0  0  0  0  0  0  0  0  0
   -5.6141    2.8216  -12.4659 O   0  0  0  0  0  0  0  0  0  0  0  0
   -5.1696    5.7758  -11.1537 H   0  0  0  0  0  0  0  0  0  0  0  0
   -2.8946    5.8017  -10.1423 C   0  0  0  0  0  0  0  0  0  0  0  0
   -3.6673    4.5358  -10.4869 C   0  0  0  0  0  0  0  0  0  0  0  0
   -4.0507    3.7617   -9.2306 C   0  0  0  0  0  0  0  0  0  0  0  0
   -8.1146    4.7064  -12.2062 N   0  0  0  0  0  0  0  0  0  0  0  0
   -8.9205    4.7092  -12.7717 H   0  0  0  0  0  0  0  0  0  0  0  0
   -8.2572    4.4701  -10.8230 C   0  0  0  0  0  0  0  0  0  0  0  0
   -8.1754    5.4746   -9.8356 C   0  0  0  0  0  0  0  0  0  0  0  0
   -8.3979    5.2058   -8.4776 C   0  0  0  0  0  0  0  0  0  0  0  0
   -8.7246    3.9189   -8.1078 C   0  0  0  0  0  0  0  0  0  0  0  0
   -8.8502    2.9225   -9.0610 C   0  0  0  0  0  0  0  0  0  0  0  0
   -8.6425    3.1828  -10.4095 C   0  0  0  0  0  0  0  0  0  0  0  0
   -9.2407    1.6472   -8.3967 C   0  0  0  0  0  0  0  0  0  0  0  0
   -9.1888    1.9055   -6.9313 N   0  0  0  0  0  0  0  0  0  0  0  0
   -9.0224    3.3643   -6.7594 C   0  0  0  0  0  0  0  0  0  0  0  0
   -8.3997    1.4108   -6.5154 H   0  0  0  0  0  0  0  0  0  0  0  0
 23 24  1  0  0  0
 24 25  1  0  0  0
 24 19  1  0  0  0
 19 20  1  0  0  0
 20 21  2  0  0  0
 20  1  1  0  0  0
  1  2  1  0  0  0
  1 26  1  0  0  0
 26 28  1  0  0  0
 28 29  2  0  0  0
 29 30  1  0  0  0
 30 31  2  0  0  0
 31 32  1  0  0  0
 32 33  2  0  0  0
 32 34  1  0  0  0
 34 35  1  0  0  0
 35 36  1  0  0  0
  1  4  1  0  0  0
  4  5  2  0  0  0
  5  6  1  0  0  0
  6  7  1  0  0  0
  6  8  2  0  0  0
  8  9  1  0  0  0
  9 10  1  0  0  0
 10 11  2  0  0  0
 11 15  1  0  0  0
 15 16  1  0  0  0
 11 12  1  0  0  0
 12 13  2  0  0  0
 33 28  1  0  0  0
 13  4  1  0  0  0
 36 31  1  0  0  0
 12  8  1  0  0  0
 19 22  1  0  0  0
  2  3  1  0  0  0
 26 27  1  0  0  0
 35 37  1  0  0  0
  9 14  1  0  0  0
 16 17  1  0  0  0
 16 18  1  0  0  0
M  END
> <minimizedAffinity>
-8.26550

> <minimizedRMSD>
1.42929

$$$$
P29979


 39 42  0  0  0  0  0  0  0  0999 V2000
   -7.6674    4.6793  -13.1448 C   0  0  0  0  0  0  0  0  0  0  0  0
   -9.0620    4.7187  -12.9827 O   0  0  0  0  0  0  0  0  0  0  0  0
   -9.4088    5.5404  -13.3640 H   0  0  0  0  0  0  0  0  0  0  0  0
   -5.0069    5.4729  -17.5158 C   0  0  0  0  0  0  0  0  0  0  0  0
   -5.4366    5.2202  -18.8053 C   0  0  0  0  0  0  0  0  0  0  0  0
   -6.7355    4.7892  -18.7656 N   0  0  0  0  0  0  0  0  0  0  0  0
   -7.1485    4.7183  -17.4613 C   0  0  0  0  0  0  0  0  0  0  0  0
   -8.3496    4.2870  -16.9292 C   0  0  0  0  0  0  0  0  0  0  0  0
   -9.3590    3.8484  -17.6936 F   0  0  0  0  0  0  0  0  0  0  0  0
   -8.4868    4.3188  -15.5468 C   0  0  0  0  0  0  0  0  0  0  0  0
   -7.4845    4.7902  -14.6677 C   0  0  0  0  0  0  0  0  0  0  0  0
   -6.3107    5.2723  -15.2548 C   0  0  0  0  0  0  0  0  0  0  0  0
   -6.1140    5.1923  -16.6557 C   0  0  0  0  0  0  0  0  0  0  0  0
   -7.2860    4.5656  -19.5506 H   0  0  0  0  0  0  0  0  0  0  0  0
   -2.9903    5.0826  -16.0389 C   0  0  0  0  0  0  0  0  0  0  0  0
   -3.6444    5.9305  -17.1194 C   0  0  0  0  0  0  0  0  0  0  0  0
   -3.7450    7.3217  -16.6727 N   0  0  0  0  0  0  0  0  0  0  0  0
   -4.3541    7.3734  -15.8562 H   0  0  0  0  0  0  0  0  0  0  0  0
   -4.1335    7.8926  -17.4234 H   0  0  0  0  0  0  0  0  0  0  0  0
   -6.9333    3.3595  -12.5555 C   0  0  0  0  0  0  0  0  0  0  0  0
   -7.5603    2.4498  -12.1661 O   0  0  0  0  0  0  0  0  0  0  0  0
   -5.3929    3.5697  -12.6156 N   0  0  0  0  0  0  0  0  0  0  0  0
   -5.1102    4.4625  -12.9194 H   0  0  0  0  0  0  0  0  0  0  0  0
   -4.3088    2.6666  -12.2976 C   0  0  0  0  0  0  0  0  0  0  0  0
   -4.4003    2.0278  -10.9156 C   0  0  0  0  0  0  0  0  0  0  0  0
   -3.1481    1.7018  -10.4881 F   0  0  0  0  0  0  0  0  0  0  0  0
   -4.8604    2.9498  -10.0240 F   0  0  0  0  0  0  0  0  0  0  0  0
   -7.1992    5.8400  -12.3912 N   0  0  0  0  0  0  0  0  0  0  0  0
   -6.9348    6.6783  -12.8347 H   0  0  0  0  0  0  0  0  0  0  0  0
   -7.1481    5.6848  -10.9697 C   0  0  0  0  0  0  0  0  0  0  0  0
   -6.0138    6.1859  -10.3107 C   0  0  0  0  0  0  0  0  0  0  0  0
   -5.8429    6.0313   -8.9269 C   0  0  0  0  0  0  0  0  0  0  0  0
   -6.8146    5.3612   -8.2052 C   0  0  0  0  0  0  0  0  0  0  0  0
   -7.9545    4.8912   -8.8254 C   0  0  0  0  0  0  0  0  0  0  0  0
   -8.1493    5.0836  -10.1790 C   0  0  0  0  0  0  0  0  0  0  0  0
   -8.8538    4.2398   -7.8297 C   0  0  0  0  0  0  0  0  0  0  0  0
   -8.0385    4.1212   -6.5912 N   0  0  0  0  0  0  0  0  0  0  0  0
   -6.9010    5.0565   -6.7508 C   0  0  0  0  0  0  0  0  0  0  0  0
   -7.6977    3.1659   -6.4828 H   0  0  0  0  0  0  0  0  0  0  0  0
 16 15  1  0  0  0
 16 17  1  0  0  0
 16  4  1  0  0  0
  4  5  2  0  0  0
  5  6  1  0  0  0
  6  7  1  0  0  0
  7  8  2  0  0  0
  8  9  1  0  0  0
  8 10  1  0  0  0
 10 11  2  0  0  0
 11  1  1  0  0  0
  1  2  1  0  0  0
  1 28  1  0  0  0
 28 30  1  0  0  0
 30 31  2  0  0  0
 31 32  1  0  0  0
 32 33  2  0  0  0
 33 34  1  0  0  0
 34 35  2  0  0  0
 34 36  1  0  0  0
 36 37  1  0  0  0
 37 38  1  0  0  0
  1 20  1  0  0  0
 20 21  2  0  0  0
 20 22  1  0  0  0
 22 24  1  0  0  0
 24 25  1  0  0  0
 25 26  1  0  0  0
 25 27  1  0  0  0
 11 12  1  0  0  0
 12 13  2  0  0  0
 13  4  1  0  0  0
 13  7  1  0  0  0
 35 30  1  0  0  0
 38 33  1  0  0  0
 17 18  1  0  0  0
 17 19  1  0  0  0
  6 14  1  0  0  0
  2  3  1  0  0  0
 28 29  1  0  0  0
 37 39  1  0  0  0
 22 23  1  0  0  0
M  END
> <minimizedAffinity>
-7.78492

> <minimizedRMSD>
0.90108

$$$$
P29983


 30 33  0  0  0  0  0  0  0  0999 V2000
   -4.9602    5.3788  -17.5294 C   0  0  0  0  0  0  0  0  0  0  0  0
   -5.1688    5.2254  -18.8807 C   0  0  0  0  0  0  0  0  0  0  0  0
   -6.4274    4.7446  -19.0872 N   0  0  0  0  0  0  0  0  0  0  0  0
   -7.1018    4.6366  -17.9043 C   0  0  0  0  0  0  0  0  0  0  0  0
   -8.4192    4.2394  -17.6641 C   0  0  0  0  0  0  0  0  0  0  0  0
   -9.2227    3.8394  -18.6619 F   0  0  0  0  0  0  0  0  0  0  0  0
   -8.9071    4.3154  -16.3678 C   0  0  0  0  0  0  0  0  0  0  0  0
   -8.0753    4.7803  -15.3483 C   0  0  0  0  0  0  0  0  0  0  0  0
   -6.7337    5.1393  -15.5905 C   0  0  0  0  0  0  0  0  0  0  0  0
   -6.2257    5.0631  -16.9036 C   0  0  0  0  0  0  0  0  0  0  0  0
   -6.7992    4.5079  -19.9676 H   0  0  0  0  0  0  0  0  0  0  0  0
   -2.4049    5.2929  -17.4770 C   0  0  0  0  0  0  0  0  0  0  0  0
   -3.6927    5.8694  -16.8931 C   0  0  0  0  0  0  0  0  0  0  0  0
   -3.6752    7.3281  -17.0216 N   0  0  0  0  0  0  0  0  0  0  0  0
   -3.6642    7.5823  -18.0093 H   0  0  0  0  0  0  0  0  0  0  0  0
   -2.8419    7.6996  -16.5656 H   0  0  0  0  0  0  0  0  0  0  0  0
   -8.6468    5.0699  -14.0112 C   0  0  0  0  0  0  0  0  0  0  0  0
   -9.5509    5.8078  -13.9555 O   0  0  0  0  0  0  0  0  0  0  0  0
   -7.9642    4.2354  -12.9025 N   0  0  0  0  0  0  0  0  0  0  0  0
   -7.2609    3.6244  -13.2207 H   0  0  0  0  0  0  0  0  0  0  0  0
   -8.1825    4.2075  -11.5271 C   0  0  0  0  0  0  0  0  0  0  0  0
   -8.0360    5.3676  -10.7500 C   0  0  0  0  0  0  0  0  0  0  0  0
   -8.2535    5.3381   -9.3695 C   0  0  0  0  0  0  0  0  0  0  0  0
   -8.6022    4.1342   -8.7883 C   0  0  0  0  0  0  0  0  0  0  0  0
   -8.7516    2.9848   -9.5540 C   0  0  0  0  0  0  0  0  0  0  0  0
   -8.5541    3.0017  -10.9262 C   0  0  0  0  0  0  0  0  0  0  0  0
   -9.1469    1.8511   -8.6713 C   0  0  0  0  0  0  0  0  0  0  0  0
   -9.0352    2.3534   -7.2744 N   0  0  0  0  0  0  0  0  0  0  0  0
   -8.8898    3.8226   -7.3614 C   0  0  0  0  0  0  0  0  0  0  0  0
   -8.2189    1.9458   -6.8185 H   0  0  0  0  0  0  0  0  0  0  0  0
 13 12  1  0  0  0
 13 14  1  0  0  0
 13  1  1  0  0  0
  1  2  2  0  0  0
  2  3  1  0  0  0
  3  4  1  0  0  0
  4  5  2  0  0  0
  5  6  1  0  0  0
  5  7  1  0  0  0
  7  8  2  0  0  0
  8 17  1  0  0  0
 17 18  2  0  0  0
 17 19  1  0  0  0
 19 21  1  0  0  0
 21 22  2  0  0  0
 22 23  1  0  0  0
 23 24  2  0  0  0
 24 25  1  0  0  0
 25 26  2  0  0  0
 25 27  1  0  0  0
 27 28  1  0  0  0
 28 29  1  0  0  0
  8  9  1  0  0  0
  9 10  2  0  0  0
 10  1  1  0  0  0
 10  4  1  0  0  0
 26 21  1  0  0  0
 29 24  1  0  0  0
 14 15  1  0  0  0
 14 16  1  0  0  0
  3 11  1  0  0  0
 19 20  1  0  0  0
 28 30  1  0  0  0
M  END
> <minimizedAffinity>
-9.88846

> <minimizedRMSD>
0.91481

$$$$
P29984


 34 37  0  0  0  0  0  0  0  0999 V2000
   -4.8749    5.3143  -17.6098 C   0  0  0  0  0  0  0  0  0  0  0  0
   -5.2370    5.2984  -18.9384 C   0  0  0  0  0  0  0  0  0  0  0  0
   -6.5034    4.8342  -19.0377 N   0  0  0  0  0  0  0  0  0  0  0  0
   -7.0544    4.6804  -17.8010 C   0  0  0  0  0  0  0  0  0  0  0  0
   -8.3356    4.2272  -17.5054 C   0  0  0  0  0  0  0  0  0  0  0  0
   -9.1545    3.8033  -18.4782 F   0  0  0  0  0  0  0  0  0  0  0  0
   -8.7747    4.2709  -16.2026 C   0  0  0  0  0  0  0  0  0  0  0  0
   -7.9100    4.7501  -15.2188 C   0  0  0  0  0  0  0  0  0  0  0  0
   -6.5506    5.1556  -15.4860 C   0  0  0  0  0  0  0  0  0  0  0  0
   -6.1051    5.0868  -16.8491 C   0  0  0  0  0  0  0  0  0  0  0  0
   -6.9630    4.6352  -19.8853 H   0  0  0  0  0  0  0  0  0  0  0  0
   -5.7823    5.5766  -14.3490 N   0  0  0  0  0  0  0  0  0  0  0  0
   -5.5039    6.9218  -14.1589 N   0  0  0  0  0  0  0  0  0  0  0  0
   -5.4527    4.9100  -13.7038 H   0  0  0  0  0  0  0  0  0  0  0  0
   -5.9187    7.4652  -14.9160 H   0  0  0  0  0  0  0  0  0  0  0  0
   -4.4937    7.0625  -14.1534 H   0  0  0  0  0  0  0  0  0  0  0  0
   -3.3225    6.5864  -16.2650 N   0  0  0  0  0  0  0  0  0  0  0  0
   -3.4430    5.4955  -17.2224 C   0  0  0  0  0  0  0  0  0  0  0  0
   -2.3432    6.7042  -16.0053 H   0  0  0  0  0  0  0  0  0  0  0  0
   -3.8714    6.3706  -15.4328 H   0  0  0  0  0  0  0  0  0  0  0  0
   -8.5157    5.0354  -13.8853 C   0  0  0  0  0  0  0  0  0  0  0  0
   -9.4091    5.7902  -13.8538 O   0  0  0  0  0  0  0  0  0  0  0  0
   -7.8899    4.1731  -12.7612 N   0  0  0  0  0  0  0  0  0  0  0  0
   -7.1860    3.5534  -13.0606 H   0  0  0  0  0  0  0  0  0  0  0  0
   -8.1613    4.1316  -11.3940 C   0  0  0  0  0  0  0  0  0  0  0  0
   -8.0580    5.2910  -10.6077 C   0  0  0  0  0  0  0  0  0  0  0  0
   -8.3249    5.2554   -9.2359 C   0  0  0  0  0  0  0  0  0  0  0  0
   -8.6794    4.0456   -8.6711 C   0  0  0  0  0  0  0  0  0  0  0  0
   -8.7973    2.8991   -9.4472 C   0  0  0  0  0  0  0  0  0  0  0  0
   -8.5540    2.9228  -10.8127 C   0  0  0  0  0  0  0  0  0  0  0  0
   -9.2113    1.7587   -8.5806 C   0  0  0  0  0  0  0  0  0  0  0  0
   -9.1199    2.2502   -7.1780 N   0  0  0  0  0  0  0  0  0  0  0  0
   -8.9963    3.7220   -7.2529 C   0  0  0  0  0  0  0  0  0  0  0  0
   -8.3015    1.8513   -6.7181 H   0  0  0  0  0  0  0  0  0  0  0  0
 17 18  1  0  0  0
 18  1  1  0  0  0
  1  2  2  0  0  0
  2  3  1  0  0  0
  3  4  1  0  0  0
  4  5  2  0  0  0
  5  6  1  0  0  0
  5  7  1  0  0  0
  7  8  2  0  0  0
  8 21  1  0  0  0
 21 22  2  0  0  0
 21 23  1  0  0  0
 23 25  1  0  0  0
 25 26  2  0  0  0
 26 27  1  0  0  0
 27 28  2  0  0  0
 28 29  1  0  0  0
 29 30  2  0  0  0
 29 31  1  0  0  0
 31 32  1  0  0  0
 32 33  1  0  0  0
  8  9  1  0  0  0
  9 12  1  0  0  0
 12 13  1  0  0  0
  9 10  2  0  0  0
 10  1  1  0  0  0
 10  4  1  0  0  0
 30 25  1  0  0  0
 33 28  1  0  0  0
 17 19  1  0  0  0
 17 20  1  0  0  0
  3 11  1  0  0  0
 23 24  1  0  0  0
 32 34  1  0  0  0
 12 14  1  0  0  0
 13 15  1  0  0  0
 13 16  1  0  0  0
M  END
> <minimizedAffinity>
-9.18899

> <minimizedRMSD>
1.21547

$$$$
P29990


 38 42  0  0  0  0  0  0  0  0999 V2000
   -7.4846    5.1370  -13.1617 C   0  0  0  0  0  0  0  0  0  0  0  0
   -5.0211    5.3817  -17.6296 C   0  0  0  0  0  0  0  0  0  0  0  0
   -5.5442    5.1553  -18.8872 C   0  0  0  0  0  0  0  0  0  0  0  0
   -6.8435    4.7375  -18.7497 N   0  0  0  0  0  0  0  0  0  0  0  0
   -7.1862    4.6768  -17.4238 C   0  0  0  0  0  0  0  0  0  0  0  0
   -8.3796    4.2924  -16.8082 C   0  0  0  0  0  0  0  0  0  0  0  0
   -9.4276    3.8451  -17.5163 F   0  0  0  0  0  0  0  0  0  0  0  0
   -8.4780    4.4145  -15.4234 C   0  0  0  0  0  0  0  0  0  0  0  0
   -7.3999    4.8851  -14.6612 C   0  0  0  0  0  0  0  0  0  0  0  0
   -6.1928    5.2220  -15.3061 C   0  0  0  0  0  0  0  0  0  0  0  0
   -6.0785    5.1178  -16.7025 C   0  0  0  0  0  0  0  0  0  0  0  0
   -7.4442    4.5133  -19.4968 H   0  0  0  0  0  0  0  0  0  0  0  0
   -3.6458    7.2645  -17.0954 N   0  0  0  0  0  0  0  0  0  0  0  0
   -3.6359    5.8204  -17.3041 C   0  0  0  0  0  0  0  0  0  0  0  0
   -2.7029    7.5821  -16.8710 H   0  0  0  0  0  0  0  0  0  0  0  0
   -4.2737    7.4922  -16.3245 H   0  0  0  0  0  0  0  0  0  0  0  0
   -7.7831    6.5585  -12.9119 N   0  0  0  0  0  0  0  0  0  0  0  0
   -8.9279    6.9095  -13.0338 C   0  0  0  0  0  0  0  0  0  0  0  0
   -9.6126    8.2848  -12.7091 N   0  0  0  0  0  0  0  0  0  0  0  0
  -10.4877    8.4205  -13.1391 H   0  0  0  0  0  0  0  0  0  0  0  0
   -9.1723    9.3750  -11.8894 C   0  0  0  0  0  0  0  0  0  0  0  0
   -8.7515    8.8990  -10.4979 C   0  0  0  0  0  0  0  0  0  0  0  0
   -9.9099    8.4858   -9.6014 C   0  0  0  0  0  0  0  0  0  0  0  0
   -9.2852    8.6216   -8.2359 C   0  0  0  0  0  0  0  0  0  0  0  0
   -8.4435    9.8701   -8.3985 C   0  0  0  0  0  0  0  0  0  0  0  0
   -8.0774    9.9588   -9.7845 O   0  0  0  0  0  0  0  0  0  0  0  0
   -8.3443    4.1545  -12.5075 N   0  0  0  0  0  0  0  0  0  0  0  0
   -8.9258    3.5631  -13.0380 H   0  0  0  0  0  0  0  0  0  0  0  0
   -8.3243    4.0703  -11.0997 C   0  0  0  0  0  0  0  0  0  0  0  0
   -8.0704    5.1753  -10.2573 C   0  0  0  0  0  0  0  0  0  0  0  0
   -8.2400    5.1198   -8.8717 C   0  0  0  0  0  0  0  0  0  0  0  0
   -8.6527    3.9306   -8.3211 C   0  0  0  0  0  0  0  0  0  0  0  0
   -8.8732    2.8176   -9.1179 C   0  0  0  0  0  0  0  0  0  0  0  0
   -8.7380    2.8743  -10.4976 C   0  0  0  0  0  0  0  0  0  0  0  0
   -9.3062    1.6831   -8.2580 C   0  0  0  0  0  0  0  0  0  0  0  0
   -9.1291    2.1357   -6.8515 N   0  0  0  0  0  0  0  0  0  0  0  0
   -8.9768    3.6047   -6.9073 C   0  0  0  0  0  0  0  0  0  0  0  0
   -8.2966    1.7090   -6.4449 H   0  0  0  0  0  0  0  0  0  0  0  0
 13 14  1  0  0  0
 14  2  1  0  0  0
  2  3  2  0  0  0
  3  4  1  0  0  0
  4  5  1  0  0  0
  5  6  2  0  0  0
  6  7  1  0  0  0
  6  8  1  0  0  0
  8  9  2  0  0  0
  9  1  1  0  0  0
  1 17  1  0  0  0
 17 18  2  0  0  0
 18 19  1  0  0  0
 19 21  1  0  0  0
 22 21  1  0  0  0
 22 23  1  0  0  0
 23 24  1  0  0  0
 24 25  1  0  0  0
 25 26  1  0  0  0
  1 27  1  0  0  0
 27 29  1  0  0  0
 29 30  2  0  0  0
 30 31  1  0  0  0
 31 32  2  0  0  0
 32 33  1  0  0  0
 33 34  2  0  0  0
 33 35  1  0  0  0
 35 36  1  0  0  0
 36 37  1  0  0  0
  9 10  1  0  0  0
 10 11  2  0  0  0
 11  2  1  0  0  0
 11  5  1  0  0  0
 26 22  1  0  0  0
 34 29  1  0  0  0
 37 32  1  0  0  0
 13 15  1  0  0  0
 13 16  1  0  0  0
  4 12  1  0  0  0
 19 20  1  0  0  0
 27 28  1  0  0  0
 36 38  1  0  0  0
M  END
> <minimizedAffinity>
-8.12234

> <minimizedRMSD>
0.54616

$$$$
P29995


 31 34  0  0  0  0  0  0  0  0999 V2000
   -7.8990    4.2774  -12.3206 N   0  0  0  0  0  0  0  0  0  0  0  0
   -6.6721    4.8594  -13.0657 C   0  0  0  0  0  0  0  0  0  0  0  0
   -5.6984    5.3523  -12.6503 O   0  0  0  0  0  0  0  0  0  0  0  0
   -8.5658    3.8436  -12.9007 H   0  0  0  0  0  0  0  0  0  0  0  0
   -6.8146    4.7832  -14.5502 C   0  0  0  0  0  0  0  0  0  0  0  0
   -8.0545    4.5434  -15.1465 C   0  0  0  0  0  0  0  0  0  0  0  0
   -8.1748    4.6027  -16.5294 C   0  0  0  0  0  0  0  0  0  0  0  0
   -9.3659    4.3893  -17.1074 F   0  0  0  0  0  0  0  0  0  0  0  0
   -7.0489    4.9244  -17.2899 C   0  0  0  0  0  0  0  0  0  0  0  0
   -6.9317    5.1117  -18.6381 N   0  0  0  0  0  0  0  0  0  0  0  0
   -5.6551    5.4609  -18.9639 C   0  0  0  0  0  0  0  0  0  0  0  0
   -4.8773    5.4481  -17.8283 C   0  0  0  0  0  0  0  0  0  0  0  0
   -5.7859    5.1556  -16.7399 C   0  0  0  0  0  0  0  0  0  0  0  0
   -5.6776    5.0873  -15.3343 C   0  0  0  0  0  0  0  0  0  0  0  0
   -7.6672    5.0088  -19.2844 H   0  0  0  0  0  0  0  0  0  0  0  0
   -3.4207    5.7869  -17.7863 C   0  0  0  0  0  0  0  0  0  0  0  0
   -2.6298    4.8173  -18.5438 N   0  0  0  0  0  0  0  0  0  0  0  0
   -2.7483    3.8896  -18.1367 H   0  0  0  0  0  0  0  0  0  0  0  0
   -1.6450    5.0806  -18.5091 H   0  0  0  0  0  0  0  0  0  0  0  0
   -8.1909    5.4012  -10.1042 C   0  0  0  0  0  0  0  0  0  0  0  0
   -8.4489    5.2610   -8.7251 C   0  0  0  0  0  0  0  0  0  0  0  0
   -8.7805    4.0162   -8.2286 C   0  0  0  0  0  0  0  0  0  0  0  0
   -8.8577    2.9139   -9.0678 C   0  0  0  0  0  0  0  0  0  0  0  0
   -8.5798    3.0180  -10.4217 C   0  0  0  0  0  0  0  0  0  0  0  0
   -8.2147    4.2677  -10.9530 C   0  0  0  0  0  0  0  0  0  0  0  0
   -9.2387    1.7175   -8.2577 C   0  0  0  0  0  0  0  0  0  0  0  0
   -9.7491    2.2680   -6.9749 N   0  0  0  0  0  0  0  0  0  0  0  0
   -9.1213    3.5990   -6.8369 C   0  0  0  0  0  0  0  0  0  0  0  0
   -9.4810    1.6653   -6.1969 H   0  0  0  0  0  0  0  0  0  0  0  0
   -7.9573    7.7937  -11.0809 N   0  0  0  0  0  0  0  0  0  0  0  0
   -8.0776    6.7527  -10.5774 C   0  0  0  0  0  0  0  0  0  0  0  0
 30 31  3  0  0  0
 31 20  1  0  0  0
 20 21  2  0  0  0
 21 22  1  0  0  0
 22 23  2  0  0  0
 23 24  1  0  0  0
 24 25  2  0  0  0
 25  1  1  0  0  0
  1  2  1  0  0  0
  2  3  2  0  0  0
  2  5  1  0  0  0
  5  6  2  0  0  0
  6  7  1  0  0  0
  7  8  1  0  0  0
  7  9  2  0  0  0
  9 10  1  0  0  0
 10 11  1  0  0  0
 11 12  2  0  0  0
 12 16  1  0  0  0
 16 17  1  0  0  0
 12 13  1  0  0  0
 13 14  2  0  0  0
 23 26  1  0  0  0
 26 27  1  0  0  0
 27 28  1  0  0  0
 25 20  1  0  0  0
 14  5  1  0  0  0
 28 22  1  0  0  0
 13  9  1  0  0  0
  1  4  1  0  0  0
 10 15  1  0  0  0
 17 18  1  0  0  0
 17 19  1  0  0  0
 27 29  1  0  0  0
M  END
> <minimizedAffinity>
-8.05659

> <minimizedRMSD>
0.52624

$$$$
P30001


 34 37  0  0  0  0  0  0  0  0999 V2000
   -8.6088    5.0065  -14.0314 C   0  0  0  0  0  0  0  0  0  0  0  0
   -9.5051    5.7558  -13.9814 O   0  0  0  0  0  0  0  0  0  0  0  0
   -7.9555    4.1457  -12.9194 N   0  0  0  0  0  0  0  0  0  0  0  0
   -7.2543    3.5300  -13.2332 H   0  0  0  0  0  0  0  0  0  0  0  0
   -4.9095    5.4897  -17.5573 C   0  0  0  0  0  0  0  0  0  0  0  0
   -5.1191    5.3362  -18.9117 C   0  0  0  0  0  0  0  0  0  0  0  0
   -6.3655    4.8254  -19.1177 N   0  0  0  0  0  0  0  0  0  0  0  0
   -7.0238    4.6767  -17.9302 C   0  0  0  0  0  0  0  0  0  0  0  0
   -8.3132    4.1967  -17.6923 C   0  0  0  0  0  0  0  0  0  0  0  0
   -9.0925    3.7573  -18.6948 F   0  0  0  0  0  0  0  0  0  0  0  0
   -8.8085    4.2414  -16.3974 C   0  0  0  0  0  0  0  0  0  0  0  0
   -8.0110    4.7487  -15.3704 C   0  0  0  0  0  0  0  0  0  0  0  0
   -6.6857    5.1810  -15.6113 C   0  0  0  0  0  0  0  0  0  0  0  0
   -6.1687    5.1413  -16.9252 C   0  0  0  0  0  0  0  0  0  0  0  0
   -6.7391    4.5956  -19.9990 H   0  0  0  0  0  0  0  0  0  0  0  0
   -3.1270    4.9546  -15.9577 N   0  0  0  0  0  0  0  0  0  0  0  0
   -3.6404    5.9447  -16.9057 C   0  0  0  0  0  0  0  0  0  0  0  0
   -2.2650    5.3016  -15.5372 H   0  0  0  0  0  0  0  0  0  0  0  0
   -2.9383    4.0803  -16.4480 H   0  0  0  0  0  0  0  0  0  0  0  0
   -8.1998    4.1019  -11.5458 C   0  0  0  0  0  0  0  0  0  0  0  0
   -7.9859    5.2397  -10.7521 C   0  0  0  0  0  0  0  0  0  0  0  0
   -8.1511    5.1942   -9.3645 C   0  0  0  0  0  0  0  0  0  0  0  0
   -8.5375    3.9989   -8.7874 C   0  0  0  0  0  0  0  0  0  0  0  0
   -8.7921    2.8775   -9.5772 C   0  0  0  0  0  0  0  0  0  0  0  0
   -8.6333    2.9099  -10.9574 C   0  0  0  0  0  0  0  0  0  0  0  0
   -9.1439    1.7249   -8.6935 C   0  0  0  0  0  0  0  0  0  0  0  0
   -9.3302    2.3115   -7.3411 N   0  0  0  0  0  0  0  0  0  0  0  0
   -8.5933    3.5988   -7.3403 C   0  0  0  0  0  0  0  0  0  0  0  0
   -8.9505    1.6867   -6.6298 H   0  0  0  0  0  0  0  0  0  0  0  0
   -9.1895    4.6121   -6.3743 C   0  0  0  0  0  0  0  0  0  0  0  0
   -8.6934    4.4546   -4.9605 C   0  0  0  0  0  0  0  0  0  0  0  0
   -8.9795    5.1900   -4.0262 O   0  0  0  0  0  0  0  0  0  0  0  0
   -7.7876    3.4768   -4.7422 O   0  0  0  0  0  0  0  0  0  0  0  0
   -7.5473    2.8970   -5.4379 H   0  0  0  0  0  0  0  0  0  0  0  0
 16 17  1  0  0  0
 17  5  1  0  0  0
  5  6  2  0  0  0
  6  7  1  0  0  0
  7  8  1  0  0  0
  8  9  2  0  0  0
  9 10  1  0  0  0
  9 11  1  0  0  0
 11 12  2  0  0  0
 12  1  1  0  0  0
  1  2  2  0  0  0
  1  3  1  0  0  0
  3 20  1  0  0  0
 20 21  2  0  0  0
 21 22  1  0  0  0
 22 23  2  0  0  0
 23 24  1  0  0  0
 24 25  2  0  0  0
 24 26  1  0  0  0
 26 27  1  0  0  0
 27 28  1  0  0  0
 28 30  1  0  0  0
 30 31  1  0  0  0
 31 32  2  0  0  0
 31 33  1  0  0  0
 12 13  1  0  0  0
 13 14  2  0  0  0
 14  5  1  0  0  0
 14  8  1  0  0  0
 25 20  1  0  0  0
 28 23  1  0  0  0
 16 18  1  0  0  0
 16 19  1  0  0  0
  7 15  1  0  0  0
  3  4  1  0  0  0
 27 29  1  0  0  0
 33 34  1  0  0  0
M  END
> <minimizedAffinity>
-9.89474

> <minimizedRMSD>
1.11872

$$$$
P30004


 45 49  0  0  0  0  0  0  0  0999 V2000
   -7.3130    5.0658  -12.9154 C   0  0  0  0  0  0  0  0  0  0  0  0
   -5.0944    5.2983  -17.6462 C   0  0  0  0  0  0  0  0  0  0  0  0
   -5.7525    5.2126  -18.8597 C   0  0  0  0  0  0  0  0  0  0  0  0
   -7.0566    4.8591  -18.6297 N   0  0  0  0  0  0  0  0  0  0  0  0
   -7.2746    4.7191  -17.2837 C   0  0  0  0  0  0  0  0  0  0  0  0
   -8.4171    4.3534  -16.5784 C   0  0  0  0  0  0  0  0  0  0  0  0
   -9.5393    3.9994  -17.2167 F   0  0  0  0  0  0  0  0  0  0  0  0
   -8.3932    4.4028  -15.1811 C   0  0  0  0  0  0  0  0  0  0  0  0
   -7.2457    4.7945  -14.4657 C   0  0  0  0  0  0  0  0  0  0  0  0
   -6.0774    5.0461  -15.2301 C   0  0  0  0  0  0  0  0  0  0  0  0
   -6.0847    5.0354  -16.6421 C   0  0  0  0  0  0  0  0  0  0  0  0
   -7.7370    4.7254  -19.3287 H   0  0  0  0  0  0  0  0  0  0  0  0
   -2.8310    4.9896  -18.4195 N   0  0  0  0  0  0  0  0  0  0  0  0
   -3.6597    5.6404  -17.4108 C   0  0  0  0  0  0  0  0  0  0  0  0
   -1.8516    5.2240  -18.2577 H   0  0  0  0  0  0  0  0  0  0  0  0
   -3.1088    5.3111  -19.3468 H   0  0  0  0  0  0  0  0  0  0  0  0
   -7.9743    6.6086  -12.7887 C   0  0  0  0  0  0  0  0  0  0  0  0
   -9.1052    6.8348  -13.0033 O   0  0  0  0  0  0  0  0  0  0  0  0
   -6.8167    7.5629  -12.3579 N   0  0  0  0  0  0  0  0  0  0  0  0
   -5.9624    7.1136  -12.1643 H   0  0  0  0  0  0  0  0  0  0  0  0
   -6.7953    9.0003  -12.1970 C   0  0  0  0  0  0  0  0  0  0  0  0
   -7.6963    9.5138  -11.0805 C   0  0  0  0  0  0  0  0  0  0  0  0
   -7.7732    8.6102  -10.0730 F   0  0  0  0  0  0  0  0  0  0  0  0
   -8.9582    9.6824  -11.5525 F   0  0  0  0  0  0  0  0  0  0  0  0
   -5.9403    5.1286  -12.3287 N   0  0  0  0  0  0  0  0  0  0  0  0
   -5.9572    5.7330  -11.5072 H   0  0  0  0  0  0  0  0  0  0  0  0
   -5.4669    3.7906  -11.9311 C   0  0  0  0  0  0  0  0  0  0  0  0
   -3.9696    3.6381  -12.1686 C   0  0  0  0  0  0  0  0  0  0  0  0
   -3.4530    2.3903  -12.5101 C   0  0  0  0  0  0  0  0  0  0  0  0
   -2.0913    2.2769  -12.7734 C   0  0  0  0  0  0  0  0  0  0  0  0
   -1.2855    3.4064  -12.6973 C   0  0  0  0  0  0  0  0  0  0  0  0
   -1.8769    4.6129  -12.3631 C   0  0  0  0  0  0  0  0  0  0  0  0
   -3.1950    4.7610  -12.1051 N   0  0  0  0  0  0  0  0  0  0  0  0
   -8.2653    4.1396  -12.2750 N   0  0  0  0  0  0  0  0  0  0  0  0
   -8.7729    3.5200  -12.8474 H   0  0  0  0  0  0  0  0  0  0  0  0
   -8.4832    4.0986  -10.8877 C   0  0  0  0  0  0  0  0  0  0  0  0
   -8.2656    5.1756  -10.0021 C   0  0  0  0  0  0  0  0  0  0  0  0
   -8.4316    5.0713   -8.6153 C   0  0  0  0  0  0  0  0  0  0  0  0
   -8.7843    3.8489   -8.0972 C   0  0  0  0  0  0  0  0  0  0  0  0
   -8.9644    2.7598   -8.9339 C   0  0  0  0  0  0  0  0  0  0  0  0
   -8.8234    2.8665  -10.3137 C   0  0  0  0  0  0  0  0  0  0  0  0
   -9.2292    1.5524   -8.1041 C   0  0  0  0  0  0  0  0  0  0  0  0
   -9.4644    2.0429   -6.7205 N   0  0  0  0  0  0  0  0  0  0  0  0
   -8.9861    3.4391   -6.6808 C   0  0  0  0  0  0  0  0  0  0  0  0
   -8.9448    1.4737   -6.0523 H   0  0  0  0  0  0  0  0  0  0  0  0
 13 14  1  0  0  0
 14  2  1  0  0  0
  2  3  2  0  0  0
  3  4  1  0  0  0
  4  5  1  0  0  0
  5  6  2  0  0  0
  6  7  1  0  0  0
  6  8  1  0  0  0
  8  9  2  0  0  0
  9  1  1  0  0  0
  1 25  1  0  0  0
 25 27  1  0  0  0
 27 28  1  0  0  0
 28 29  2  0  0  0
 29 30  1  0  0  0
 30 31  2  0  0  0
 31 32  1  0  0  0
 32 33  2  0  0  0
  1 34  1  0  0  0
 34 36  1  0  0  0
 36 37  2  0  0  0
 37 38  1  0  0  0
 38 39  2  0  0  0
 39 40  1  0  0  0
 40 41  2  0  0  0
 40 42  1  0  0  0
 42 43  1  0  0  0
 43 44  1  0  0  0
  1 17  1  0  0  0
 17 18  2  0  0  0
 17 19  1  0  0  0
 19 21  1  0  0  0
 21 22  1  0  0  0
 22 23  1  0  0  0
 22 24  1  0  0  0
  9 10  1  0  0  0
 10 11  2  0  0  0
 11  2  1  0  0  0
 11  5  1  0  0  0
 33 28  1  0  0  0
 41 36  1  0  0  0
 44 39  1  0  0  0
 13 15  1  0  0  0
 13 16  1  0  0  0
  4 12  1  0  0  0
 25 26  1  0  0  0
 34 35  1  0  0  0
 43 45  1  0  0  0
 19 20  1  0  0  0
M  END
> <minimizedAffinity>
-7.98433

> <minimizedRMSD>
1.16909

$$$$
P30005


 30 33  0  0  0  0  0  0  0  0999 V2000
   -4.9059    5.3740  -17.5662 C   0  0  0  0  0  0  0  0  0  0  0  0
   -5.1272    5.1958  -18.9159 C   0  0  0  0  0  0  0  0  0  0  0  0
   -6.4001    4.7482  -19.1068 N   0  0  0  0  0  0  0  0  0  0  0  0
   -7.0592    4.6627  -17.9126 C   0  0  0  0  0  0  0  0  0  0  0  0
   -8.3631    4.2368  -17.6531 C   0  0  0  0  0  0  0  0  0  0  0  0
   -9.1527    3.7682  -18.6326 F   0  0  0  0  0  0  0  0  0  0  0  0
   -8.8521    4.3418  -16.3596 C   0  0  0  0  0  0  0  0  0  0  0  0
   -8.0298    4.8481  -15.3511 C   0  0  0  0  0  0  0  0  0  0  0  0
   -6.6912    5.2224  -15.6085 C   0  0  0  0  0  0  0  0  0  0  0  0
   -6.1814    5.1196  -16.9233 C   0  0  0  0  0  0  0  0  0  0  0  0
   -6.7898    4.5189  -19.9814 H   0  0  0  0  0  0  0  0  0  0  0  0
   -2.4664    5.1113  -17.5748 N   0  0  0  0  0  0  0  0  0  0  0  0
   -3.6077    5.7573  -16.9256 C   0  0  0  0  0  0  0  0  0  0  0  0
   -1.6044    5.3974  -17.1105 H   0  0  0  0  0  0  0  0  0  0  0  0
   -2.4320    5.3880  -18.5560 H   0  0  0  0  0  0  0  0  0  0  0  0
   -8.6177    5.1436  -14.0159 C   0  0  0  0  0  0  0  0  0  0  0  0
   -9.6064    5.7664  -13.9830 O   0  0  0  0  0  0  0  0  0  0  0  0
   -7.8027    4.4916  -12.8703 N   0  0  0  0  0  0  0  0  0  0  0  0
   -6.9538    4.0795  -13.1510 H   0  0  0  0  0  0  0  0  0  0  0  0
   -8.0767    4.3935  -11.5046 C   0  0  0  0  0  0  0  0  0  0  0  0
   -7.9550    5.5156  -10.6632 C   0  0  0  0  0  0  0  0  0  0  0  0
   -8.2139    5.4188   -9.2922 C   0  0  0  0  0  0  0  0  0  0  0  0
   -8.5818    4.1834   -8.7999 C   0  0  0  0  0  0  0  0  0  0  0  0
   -8.7130    3.0613   -9.6143 C   0  0  0  0  0  0  0  0  0  0  0  0
   -8.4746    3.1547  -10.9786 C   0  0  0  0  0  0  0  0  0  0  0  0
   -9.0743    1.8779   -8.7783 C   0  0  0  0  0  0  0  0  0  0  0  0
   -9.2116    2.4502   -7.4556 N   0  0  0  0  0  0  0  0  0  0  0  0
   -8.8669    3.7827   -7.4166 C   0  0  0  0  0  0  0  0  0  0  0  0
   -8.7904    4.5036   -6.4397 O   0  0  0  0  0  0  0  0  0  0  0  0
   -9.5179    1.9422   -6.6699 H   0  0  0  0  0  0  0  0  0  0  0  0
 12 13  1  0  0  0
 13  1  1  0  0  0
  1  2  2  0  0  0
  2  3  1  0  0  0
  3  4  1  0  0  0
  4  5  2  0  0  0
  5  6  1  0  0  0
  5  7  1  0  0  0
  7  8  2  0  0  0
  8 16  1  0  0  0
 16 17  2  0  0  0
 16 18  1  0  0  0
 18 20  1  0  0  0
 20 21  2  0  0  0
 21 22  1  0  0  0
 22 23  2  0  0  0
 23 24  1  0  0  0
 24 25  2  0  0  0
 24 26  1  0  0  0
 26 27  1  0  0  0
 27 28  1  0  0  0
 28 29  2  0  0  0
  8  9  1  0  0  0
  9 10  2  0  0  0
 10  1  1  0  0  0
 10  4  1  0  0  0
 25 20  1  0  0  0
 28 23  1  0  0  0
 12 14  1  0  0  0
 12 15  1  0  0  0
  3 11  1  0  0  0
 18 19  1  0  0  0
 27 30  1  0  0  0
M  END
> <minimizedAffinity>
-9.69384

> <minimizedRMSD>
1.03264

$$$$
P30006


 33 36  0  0  0  0  0  0  0  0999 V2000
   -5.0075    5.4355  -18.6853 C   0  0  0  0  0  0  0  0  0  0  0  0
   -6.2345    4.8940  -19.0342 N   0  0  0  0  0  0  0  0  0  0  0  0
   -7.0074    4.6743  -17.9116 C   0  0  0  0  0  0  0  0  0  0  0  0
   -8.3308    4.2323  -17.7547 C   0  0  0  0  0  0  0  0  0  0  0  0
   -9.1002    3.9150  -18.8063 F   0  0  0  0  0  0  0  0  0  0  0  0
   -8.8857    4.2030  -16.4712 C   0  0  0  0  0  0  0  0  0  0  0  0
   -8.1274    4.6180  -15.3835 C   0  0  0  0  0  0  0  0  0  0  0  0
   -6.7945    5.0049  -15.5352 C   0  0  0  0  0  0  0  0  0  0  0  0
   -6.2315    5.0510  -16.8197 C   0  0  0  0  0  0  0  0  0  0  0  0
   -4.9796    5.5386  -17.3013 C   0  0  0  0  0  0  0  0  0  0  0  0
   -6.5163    4.6935  -19.9559 H   0  0  0  0  0  0  0  0  0  0  0  0
   -8.7069    4.8979  -14.0546 C   0  0  0  0  0  0  0  0  0  0  0  0
   -9.4502    5.7926  -13.9704 O   0  0  0  0  0  0  0  0  0  0  0  0
   -8.1237    3.9800  -12.9671 N   0  0  0  0  0  0  0  0  0  0  0  0
   -7.5698    3.2400  -13.3061 H   0  0  0  0  0  0  0  0  0  0  0  0
   -8.2514    4.0250  -11.5810 C   0  0  0  0  0  0  0  0  0  0  0  0
   -8.0274    5.2249  -10.8804 C   0  0  0  0  0  0  0  0  0  0  0  0
   -8.1630    5.2847   -9.4903 C   0  0  0  0  0  0  0  0  0  0  0  0
   -8.5630    4.1401   -8.8303 C   0  0  0  0  0  0  0  0  0  0  0  0
   -8.7805    2.9510   -9.5215 C   0  0  0  0  0  0  0  0  0  0  0  0
   -8.5995    2.8646  -10.8917 C   0  0  0  0  0  0  0  0  0  0  0  0
   -9.2123    1.9015   -8.5531 C   0  0  0  0  0  0  0  0  0  0  0  0
   -9.5977    2.6456   -7.3239 N   0  0  0  0  0  0  0  0  0  0  0  0
   -8.8432    3.9172   -7.3826 C   0  0  0  0  0  0  0  0  0  0  0  0
   -9.3407    2.1161   -6.4908 H   0  0  0  0  0  0  0  0  0  0  0  0
   -3.9308    6.1667  -16.4476 C   0  0  0  0  0  0  0  0  0  0  0  0
   -3.0406    5.1300  -15.9427 N   0  0  0  0  0  0  0  0  0  0  0  0
   -3.5771    4.4598  -15.3919 H   0  0  0  0  0  0  0  0  0  0  0  0
   -2.3223    5.5547  -15.3561 H   0  0  0  0  0  0  0  0  0  0  0  0
   -4.0450    5.9490  -19.7056 C   0  0  0  0  0  0  0  0  0  0  0  0
   -2.2338    4.3121  -19.4456 C   0  0  0  0  0  0  0  0  0  0  0  0
   -3.1718    4.9590  -20.3558 N   0  0  0  0  0  0  0  0  0  0  0  0
   -3.7594    4.2393  -20.7765 H   0  0  0  0  0  0  0  0  0  0  0  0
 31 32  1  0  0  0
 32 30  1  0  0  0
 30  1  1  0  0  0
  1  2  1  0  0  0
  2  3  1  0  0  0
  3  4  2  0  0  0
  4  5  1  0  0  0
  4  6  1  0  0  0
  6  7  2  0  0  0
  7 12  1  0  0  0
 12 13  2  0  0  0
 12 14  1  0  0  0
 14 16  1  0  0  0
 16 17  2  0  0  0
 17 18  1  0  0  0
 18 19  2  0  0  0
 19 20  1  0  0  0
 20 21  2  0  0  0
 20 22  1  0  0  0
 22 23  1  0  0  0
 23 24  1  0  0  0
  7  8  1  0  0  0
  8  9  2  0  0  0
  9 10  1  0  0  0
 10 26  1  0  0  0
 26 27  1  0  0  0
 10  1  2  0  0  0
  9  3  1  0  0  0
 21 16  1  0  0  0
 24 19  1  0  0  0
 32 33  1  0  0  0
  2 11  1  0  0  0
 14 15  1  0  0  0
 23 25  1  0  0  0
 27 28  1  0  0  0
 27 29  1  0  0  0
M  END
> <minimizedAffinity>
-9.78060

> <minimizedRMSD>
0.58853

$$$$
P30011


 33 36  0  0  0  0  0  0  0  0999 V2000
   -7.2779    5.4799  -13.9816 C   0  0  0  0  0  0  0  0  0  0  0  0
   -7.5049    6.6710  -13.8179 N   0  0  0  0  0  0  0  0  0  0  0  0
   -4.3336    5.3612  -18.2010 C   0  0  0  0  0  0  0  0  0  0  0  0
   -4.8651    5.2186  -19.4638 C   0  0  0  0  0  0  0  0  0  0  0  0
   -6.1658    4.8354  -19.3594 N   0  0  0  0  0  0  0  0  0  0  0  0
   -6.5495    4.7940  -18.0501 C   0  0  0  0  0  0  0  0  0  0  0  0
   -7.7913    4.4596  -17.5105 C   0  0  0  0  0  0  0  0  0  0  0  0
   -8.8063    4.0481  -18.2880 F   0  0  0  0  0  0  0  0  0  0  0  0
   -7.9707    4.6051  -16.1469 C   0  0  0  0  0  0  0  0  0  0  0  0
   -6.9167    5.0806  -15.3651 C   0  0  0  0  0  0  0  0  0  0  0  0
   -5.6420    5.3514  -15.8957 C   0  0  0  0  0  0  0  0  0  0  0  0
   -5.4472    5.1942  -17.2885 C   0  0  0  0  0  0  0  0  0  0  0  0
   -6.7494    4.6181  -20.1219 H   0  0  0  0  0  0  0  0  0  0  0  0
   -2.0377    5.4856  -19.0435 N   0  0  0  0  0  0  0  0  0  0  0  0
   -2.9043    5.6570  -17.8770 C   0  0  0  0  0  0  0  0  0  0  0  0
   -1.0736    5.6954  -18.7846 H   0  0  0  0  0  0  0  0  0  0  0  0
   -2.3362    6.1192  -19.7849 H   0  0  0  0  0  0  0  0  0  0  0  0
   -8.2129    7.2072  -12.8143 C   0  0  0  0  0  0  0  0  0  0  0  0
   -9.3610    6.9520  -12.4977 O   0  0  0  0  0  0  0  0  0  0  0  0
   -7.5343    8.1898  -12.1964 O   0  0  0  0  0  0  0  0  0  0  0  0
   -6.6514    8.3788  -12.4470 H   0  0  0  0  0  0  0  0  0  0  0  0
   -7.3531    4.2572  -12.9550 N   0  0  0  0  0  0  0  0  0  0  0  0
   -7.2322    3.3694  -13.3629 H   0  0  0  0  0  0  0  0  0  0  0  0
   -7.5627    4.2415  -11.5706 C   0  0  0  0  0  0  0  0  0  0  0  0
   -6.9677    5.1252  -10.6604 C   0  0  0  0  0  0  0  0  0  0  0  0
   -7.2553    5.0944   -9.2861 C   0  0  0  0  0  0  0  0  0  0  0  0
   -8.0984    4.1105   -8.8143 C   0  0  0  0  0  0  0  0  0  0  0  0
   -8.6268    3.1655   -9.6798 C   0  0  0  0  0  0  0  0  0  0  0  0
   -8.3954    3.2327  -11.0468 C   0  0  0  0  0  0  0  0  0  0  0  0
   -9.3484    2.1312   -8.8818 C   0  0  0  0  0  0  0  0  0  0  0  0
   -9.5711    2.7501   -7.5496 N   0  0  0  0  0  0  0  0  0  0  0  0
   -8.5298    3.7956   -7.4211 C   0  0  0  0  0  0  0  0  0  0  0  0
   -9.4701    2.0535   -6.8114 H   0  0  0  0  0  0  0  0  0  0  0  0
 14 15  1  0  0  0
 15  3  1  0  0  0
  3  4  2  0  0  0
  4  5  1  0  0  0
  5  6  1  0  0  0
  6  7  2  0  0  0
  7  8  1  0  0  0
  7  9  1  0  0  0
  9 10  2  0  0  0
 10  1  1  0  0  0
  1  2  2  0  0  0
  2 18  1  0  0  0
 18 19  2  0  0  0
 18 20  1  0  0  0
  1 22  1  0  0  0
 22 24  1  0  0  0
 24 25  2  0  0  0
 25 26  1  0  0  0
 26 27  2  0  0  0
 27 28  1  0  0  0
 28 29  2  0  0  0
 28 30  1  0  0  0
 30 31  1  0  0  0
 31 32  1  0  0  0
 10 11  1  0  0  0
 11 12  2  0  0  0
 12  3  1  0  0  0
 12  6  1  0  0  0
 29 24  1  0  0  0
 32 27  1  0  0  0
 14 16  1  0  0  0
 14 17  1  0  0  0
  5 13  1  0  0  0
 20 21  1  0  0  0
 22 23  1  0  0  0
 31 33  1  0  0  0
M  END
> <minimizedAffinity>
-7.55221

> <minimizedRMSD>
0.47612

$$$$
P30012


 34 37  0  0  0  0  0  0  0  0999 V2000
   -4.9873    5.4204  -18.6994 C   0  0  0  0  0  0  0  0  0  0  0  0
   -6.2191    4.8904  -19.0365 N   0  0  0  0  0  0  0  0  0  0  0  0
   -6.9719    4.6762  -17.9030 C   0  0  0  0  0  0  0  0  0  0  0  0
   -8.2817    4.2174  -17.7426 C   0  0  0  0  0  0  0  0  0  0  0  0
   -8.9919    3.8214  -18.8027 F   0  0  0  0  0  0  0  0  0  0  0  0
   -8.8620    4.2160  -16.4713 C   0  0  0  0  0  0  0  0  0  0  0  0
   -8.1162    4.6615  -15.3853 C   0  0  0  0  0  0  0  0  0  0  0  0
   -6.7784    5.0511  -15.5353 C   0  0  0  0  0  0  0  0  0  0  0  0
   -6.1988    5.0646  -16.8168 C   0  0  0  0  0  0  0  0  0  0  0  0
   -4.9275    5.4878  -17.3099 C   0  0  0  0  0  0  0  0  0  0  0  0
   -6.5155    4.6944  -19.9546 H   0  0  0  0  0  0  0  0  0  0  0  0
   -8.7219    4.9272  -14.0608 C   0  0  0  0  0  0  0  0  0  0  0  0
   -9.4854    5.8067  -13.9870 O   0  0  0  0  0  0  0  0  0  0  0  0
   -8.1425    4.0116  -12.9635 N   0  0  0  0  0  0  0  0  0  0  0  0
   -7.5662    3.2853  -13.2946 H   0  0  0  0  0  0  0  0  0  0  0  0
   -8.3020    4.0450  -11.5776 C   0  0  0  0  0  0  0  0  0  0  0  0
   -8.1153    5.2432  -10.8666 C   0  0  0  0  0  0  0  0  0  0  0  0
   -8.2384    5.2738   -9.4743 C   0  0  0  0  0  0  0  0  0  0  0  0
   -7.9251    6.8879   -8.5417 Br  0  0  0  0  0  0  0  0  0  0  0  0
   -8.5799    4.1125   -8.8092 C   0  0  0  0  0  0  0  0  0  0  0  0
   -8.7674    2.9281   -9.5149 C   0  0  0  0  0  0  0  0  0  0  0  0
   -8.6158    2.8696  -10.8941 C   0  0  0  0  0  0  0  0  0  0  0  0
   -9.1005    1.8309   -8.5617 C   0  0  0  0  0  0  0  0  0  0  0  0
   -9.3196    2.4823   -7.2470 N   0  0  0  0  0  0  0  0  0  0  0  0
   -8.7913    3.8577   -7.3562 C   0  0  0  0  0  0  0  0  0  0  0  0
   -8.8230    1.9729   -6.5161 H   0  0  0  0  0  0  0  0  0  0  0  0
   -3.8206    5.9961  -16.4510 C   0  0  0  0  0  0  0  0  0  0  0  0
   -3.9805    7.4379  -16.2959 N   0  0  0  0  0  0  0  0  0  0  0  0
   -3.9511    7.8838  -17.2128 H   0  0  0  0  0  0  0  0  0  0  0  0
   -3.2253    7.8033  -15.7158 H   0  0  0  0  0  0  0  0  0  0  0  0
   -4.0546    5.9517  -19.7339 C   0  0  0  0  0  0  0  0  0  0  0  0
   -2.2374    4.3284  -19.4798 C   0  0  0  0  0  0  0  0  0  0  0  0
   -3.1714    4.9772  -20.3897 N   0  0  0  0  0  0  0  0  0  0  0  0
   -3.7508    4.2582  -20.8231 H   0  0  0  0  0  0  0  0  0  0  0  0
 32 33  1  0  0  0
 33 31  1  0  0  0
 31  1  1  0  0  0
  1  2  1  0  0  0
  2  3  1  0  0  0
  3  4  2  0  0  0
  4  5  1  0  0  0
  4  6  1  0  0  0
  6  7  2  0  0  0
  7 12  1  0  0  0
 12 13  2  0  0  0
 12 14  1  0  0  0
 14 16  1  0  0  0
 16 17  2  0  0  0
 17 18  1  0  0  0
 18 19  1  0  0  0
 18 20  2  0  0  0
 20 21  1  0  0  0
 21 22  2  0  0  0
 21 23  1  0  0  0
 23 24  1  0  0  0
 24 25  1  0  0  0
  7  8  1  0  0  0
  8  9  2  0  0  0
  9 10  1  0  0  0
 10 27  1  0  0  0
 27 28  1  0  0  0
 10  1  2  0  0  0
  9  3  1  0  0  0
 22 16  1  0  0  0
 25 20  1  0  0  0
 33 34  1  0  0  0
  2 11  1  0  0  0
 14 15  1  0  0  0
 24 26  1  0  0  0
 28 29  1  0  0  0
 28 30  1  0  0  0
M  END
> <minimizedAffinity>
-9.85317

> <minimizedRMSD>
0.67391

$$$$
P30019


 35 38  0  0  0  0  0  0  0  0999 V2000
   -5.1646    5.5873  -18.7723 C   0  0  0  0  0  0  0  0  0  0  0  0
   -6.3811    5.0244  -19.0821 N   0  0  0  0  0  0  0  0  0  0  0  0
   -7.0657    4.7323  -17.9238 C   0  0  0  0  0  0  0  0  0  0  0  0
   -8.3316    4.1795  -17.7194 C   0  0  0  0  0  0  0  0  0  0  0  0
   -9.0746    3.7520  -18.7479 F   0  0  0  0  0  0  0  0  0  0  0  0
   -8.8514    4.1468  -16.4252 C   0  0  0  0  0  0  0  0  0  0  0  0
   -8.0914    4.6318  -15.3658 C   0  0  0  0  0  0  0  0  0  0  0  0
   -6.7781    5.0722  -15.5563 C   0  0  0  0  0  0  0  0  0  0  0  0
   -6.2646    5.1394  -16.8593 C   0  0  0  0  0  0  0  0  0  0  0  0
   -5.0313    5.5952  -17.3928 C   0  0  0  0  0  0  0  0  0  0  0  0
   -6.7120    4.8560  -19.9939 H   0  0  0  0  0  0  0  0  0  0  0  0
   -8.6790    4.9056  -14.0373 C   0  0  0  0  0  0  0  0  0  0  0  0
   -9.4343    5.7921  -13.9629 O   0  0  0  0  0  0  0  0  0  0  0  0
   -8.1136    3.9801  -12.9424 N   0  0  0  0  0  0  0  0  0  0  0  0
   -7.5427    3.2500  -13.2743 H   0  0  0  0  0  0  0  0  0  0  0  0
   -8.2790    4.0085  -11.5582 C   0  0  0  0  0  0  0  0  0  0  0  0
   -8.0737    5.2067  -10.8483 C   0  0  0  0  0  0  0  0  0  0  0  0
   -8.2111    5.2424   -9.4633 C   0  0  0  0  0  0  0  0  0  0  0  0
   -8.0048    6.3896   -8.8041 F   0  0  0  0  0  0  0  0  0  0  0  0
   -8.5703    4.0876   -8.8133 C   0  0  0  0  0  0  0  0  0  0  0  0
   -8.7890    2.8955   -9.5025 C   0  0  0  0  0  0  0  0  0  0  0  0
   -8.6331    2.8359  -10.8810 C   0  0  0  0  0  0  0  0  0  0  0  0
   -9.1527    1.8211   -8.5348 C   0  0  0  0  0  0  0  0  0  0  0  0
   -9.2019    2.5302   -7.2742 N   0  0  0  0  0  0  0  0  0  0  0  0
   -8.7867    3.8400   -7.3863 C   0  0  0  0  0  0  0  0  0  0  0  0
   -8.6123    4.6305   -6.4791 O   0  0  0  0  0  0  0  0  0  0  0  0
   -9.4994    2.1220   -6.4292 H   0  0  0  0  0  0  0  0  0  0  0  0
   -3.8353    6.0377  -16.6264 C   0  0  0  0  0  0  0  0  0  0  0  0
   -2.7794    5.0588  -16.8307 N   0  0  0  0  0  0  0  0  0  0  0  0
   -3.0960    4.1448  -16.5070 H   0  0  0  0  0  0  0  0  0  0  0  0
   -1.9510    5.3375  -16.3050 H   0  0  0  0  0  0  0  0  0  0  0  0
   -4.2035    6.0765  -19.7886 C   0  0  0  0  0  0  0  0  0  0  0  0
   -1.9856    5.3381  -20.4316 C   0  0  0  0  0  0  0  0  0  0  0  0
   -3.3527    4.9529  -20.1582 N   0  0  0  0  0  0  0  0  0  0  0  0
   -3.3526    4.2805  -19.3912 H   0  0  0  0  0  0  0  0  0  0  0  0
 33 34  1  0  0  0
 34 32  1  0  0  0
 32  1  1  0  0  0
  1  2  1  0  0  0
  2  3  1  0  0  0
  3  4  2  0  0  0
  4  5  1  0  0  0
  4  6  1  0  0  0
  6  7  2  0  0  0
  7 12  1  0  0  0
 12 13  2  0  0  0
 12 14  1  0  0  0
 14 16  1  0  0  0
 16 17  2  0  0  0
 17 18  1  0  0  0
 18 19  1  0  0  0
 18 20  2  0  0  0
 20 21  1  0  0  0
 21 22  2  0  0  0
 21 23  1  0  0  0
 23 24  1  0  0  0
 24 25  1  0  0  0
 25 26  2  0  0  0
  7  8  1  0  0  0
  8  9  2  0  0  0
  9 10  1  0  0  0
 10 28  1  0  0  0
 28 29  1  0  0  0
 10  1  2  0  0  0
  9  3  1  0  0  0
 22 16  1  0  0  0
 25 20  1  0  0  0
 34 35  1  0  0  0
  2 11  1  0  0  0
 14 15  1  0  0  0
 24 27  1  0  0  0
 29 30  1  0  0  0
 29 31  1  0  0  0
M  END
> <minimizedAffinity>
-9.97415

> <minimizedRMSD>
0.74121

$$$$
P30021


 38 42  0  0  0  0  0  0  0  0999 V2000
   -5.0525    5.4918  -18.7187 C   0  0  0  0  0  0  0  0  0  0  0  0
   -6.2944    4.9716  -19.0516 N   0  0  0  0  0  0  0  0  0  0  0  0
   -7.0253    4.6986  -17.9163 C   0  0  0  0  0  0  0  0  0  0  0  0
   -8.3372    4.2313  -17.7492 C   0  0  0  0  0  0  0  0  0  0  0  0
   -9.0970    3.8860  -18.7985 F   0  0  0  0  0  0  0  0  0  0  0  0
   -8.8842    4.1901  -16.4654 C   0  0  0  0  0  0  0  0  0  0  0  0
   -8.1156    4.6042  -15.3841 C   0  0  0  0  0  0  0  0  0  0  0  0
   -6.7749    4.9767  -15.5405 C   0  0  0  0  0  0  0  0  0  0  0  0
   -6.2190    5.0309  -16.8320 C   0  0  0  0  0  0  0  0  0  0  0  0
   -4.9379    5.4356  -17.3306 C   0  0  0  0  0  0  0  0  0  0  0  0
   -6.6099    4.8187  -19.9716 H   0  0  0  0  0  0  0  0  0  0  0  0
   -8.7186    4.8877  -14.0661 C   0  0  0  0  0  0  0  0  0  0  0  0
   -9.5034    5.7499  -14.0106 O   0  0  0  0  0  0  0  0  0  0  0  0
   -8.1052    4.0196  -12.9476 N   0  0  0  0  0  0  0  0  0  0  0  0
   -7.5141    3.2983  -13.2631 H   0  0  0  0  0  0  0  0  0  0  0  0
   -8.2526    4.0907  -11.5545 C   0  0  0  0  0  0  0  0  0  0  0  0
   -8.5034    2.8880  -10.8756 C   0  0  0  0  0  0  0  0  0  0  0  0
   -8.6957    2.9120   -9.4962 C   0  0  0  0  0  0  0  0  0  0  0  0
   -8.6042    4.0906   -8.7635 C   0  0  0  0  0  0  0  0  0  0  0  0
   -8.3080    5.2622   -9.4107 C   0  0  0  0  0  0  0  0  0  0  0  0
   -8.1504    5.2612  -10.7929 C   0  0  0  0  0  0  0  0  0  0  0  0
   -7.8415    6.5054  -11.2742 O   0  0  0  0  0  0  0  0  0  0  0  0
   -7.8682    7.4156  -10.1463 C   0  0  0  0  0  0  0  0  0  0  0  0
   -6.5223    8.1448  -10.1210 C   0  0  0  0  0  0  0  0  0  0  0  0
   -8.9975    8.4225  -10.3823 C   0  0  0  0  0  0  0  0  0  0  0  0
   -8.0906    6.6108   -8.8514 C   0  0  0  0  0  0  0  0  0  0  0  0
   -8.8536    3.7982   -7.3260 C   0  0  0  0  0  0  0  0  0  0  0  0
   -9.4543    2.4463   -7.3046 N   0  0  0  0  0  0  0  0  0  0  0  0
   -8.9962    1.7895   -8.5582 C   0  0  0  0  0  0  0  0  0  0  0  0
  -10.4722    2.5086   -7.2858 H   0  0  0  0  0  0  0  0  0  0  0  0
   -3.7812    5.7968  -16.4541 C   0  0  0  0  0  0  0  0  0  0  0  0
   -3.7851    7.2231  -16.1715 N   0  0  0  0  0  0  0  0  0  0  0  0
   -3.7067    7.7431  -17.0455 H   0  0  0  0  0  0  0  0  0  0  0  0
   -2.9956    7.4522  -15.5676 H   0  0  0  0  0  0  0  0  0  0  0  0
   -4.1927    6.1326  -19.7595 C   0  0  0  0  0  0  0  0  0  0  0  0
   -2.3673    4.4727  -19.7358 C   0  0  0  0  0  0  0  0  0  0  0  0
   -3.2796    5.2778  -20.5303 N   0  0  0  0  0  0  0  0  0  0  0  0
   -3.8434    4.6466  -21.0996 H   0  0  0  0  0  0  0  0  0  0  0  0
 36 37  1  0  0  0
 37 35  1  0  0  0
 35  1  1  0  0  0
  1  2  1  0  0  0
  2  3  1  0  0  0
  3  4  2  0  0  0
  4  5  1  0  0  0
  4  6  1  0  0  0
  6  7  2  0  0  0
  7 12  1  0  0  0
 12 13  2  0  0  0
 12 14  1  0  0  0
 14 16  1  0  0  0
 16 17  2  0  0  0
 17 18  1  0  0  0
 18 19  2  0  0  0
 19 20  1  0  0  0
 20 21  2  0  0  0
 21 22  1  0  0  0
 22 23  1  0  0  0
 23 24  1  0  0  0
 23 25  1  0  0  0
 23 26  1  0  0  0
 19 27  1  0  0  0
 27 28  1  0  0  0
 28 29  1  0  0  0
  7  8  1  0  0  0
  8  9  2  0  0  0
  9 10  1  0  0  0
 10 31  1  0  0  0
 31 32  1  0  0  0
 10  1  2  0  0  0
  9  3  1  0  0  0
 21 16  1  0  0  0
 29 18  1  0  0  0
 26 20  1  0  0  0
 37 38  1  0  0  0
  2 11  1  0  0  0
 14 15  1  0  0  0
 28 30  1  0  0  0
 32 33  1  0  0  0
 32 34  1  0  0  0
M  END
> <minimizedAffinity>
-10.16919

> <minimizedRMSD>
0.64965

$$$$
P30022


 34 37  0  0  0  0  0  0  0  0999 V2000
   -5.0763    5.6001  -18.7138 C   0  0  0  0  0  0  0  0  0  0  0  0
   -6.2963    5.0381  -19.0482 N   0  0  0  0  0  0  0  0  0  0  0  0
   -7.0091    4.7313  -17.9076 C   0  0  0  0  0  0  0  0  0  0  0  0
   -8.2957    4.2032  -17.7298 C   0  0  0  0  0  0  0  0  0  0  0  0
   -9.0484    3.8200  -18.7712 F   0  0  0  0  0  0  0  0  0  0  0  0
   -8.8329    4.1495  -16.4410 C   0  0  0  0  0  0  0  0  0  0  0  0
   -8.0798    4.6084  -15.3664 C   0  0  0  0  0  0  0  0  0  0  0  0
   -6.7605    5.0423  -15.5322 C   0  0  0  0  0  0  0  0  0  0  0  0
   -6.2193    5.1130  -16.8264 C   0  0  0  0  0  0  0  0  0  0  0  0
   -4.9702    5.5859  -17.3294 C   0  0  0  0  0  0  0  0  0  0  0  0
   -6.6102    4.8801  -19.9679 H   0  0  0  0  0  0  0  0  0  0  0  0
   -8.6829    4.8854  -14.0475 C   0  0  0  0  0  0  0  0  0  0  0  0
   -9.4589    5.7543  -13.9895 O   0  0  0  0  0  0  0  0  0  0  0  0
   -8.0811    4.0074  -12.9338 N   0  0  0  0  0  0  0  0  0  0  0  0
   -7.4964    3.2819  -13.2517 H   0  0  0  0  0  0  0  0  0  0  0  0
   -8.2303    4.0733  -11.5411 C   0  0  0  0  0  0  0  0  0  0  0  0
   -8.5856    2.8960  -10.8731 C   0  0  0  0  0  0  0  0  0  0  0  0
   -8.7895    2.9463   -9.5016 C   0  0  0  0  0  0  0  0  0  0  0  0
   -8.5999    4.1194   -8.7772 C   0  0  0  0  0  0  0  0  0  0  0  0
   -8.2025    5.2802   -9.4048 C   0  0  0  0  0  0  0  0  0  0  0  0
   -8.0362    5.2522  -10.7906 C   0  0  0  0  0  0  0  0  0  0  0  0
   -7.6484    6.3968  -11.3669 F   0  0  0  0  0  0  0  0  0  0  0  0
   -8.8929    3.8598   -7.3386 C   0  0  0  0  0  0  0  0  0  0  0  0
   -9.6202    2.5732   -7.3194 N   0  0  0  0  0  0  0  0  0  0  0  0
   -9.2137    1.8661   -8.5620 C   0  0  0  0  0  0  0  0  0  0  0  0
  -10.6275    2.7336   -7.3143 H   0  0  0  0  0  0  0  0  0  0  0  0
   -3.8386    6.0803  -16.4916 C   0  0  0  0  0  0  0  0  0  0  0  0
   -3.0659    4.9409  -16.0156 N   0  0  0  0  0  0  0  0  0  0  0  0
   -3.6664    4.3308  -15.4610 H   0  0  0  0  0  0  0  0  0  0  0  0
   -2.2921    5.2717  -15.4392 H   0  0  0  0  0  0  0  0  0  0  0  0
   -4.1543    6.1855  -19.7356 C   0  0  0  0  0  0  0  0  0  0  0  0
   -2.3621    4.5204  -19.6619 C   0  0  0  0  0  0  0  0  0  0  0  0
   -3.3790    5.1836  -20.4633 N   0  0  0  0  0  0  0  0  0  0  0  0
   -4.0223    4.4744  -20.8149 H   0  0  0  0  0  0  0  0  0  0  0  0
 32 33  1  0  0  0
 33 31  1  0  0  0
 31  1  1  0  0  0
  1  2  1  0  0  0
  2  3  1  0  0  0
  3  4  2  0  0  0
  4  5  1  0  0  0
  4  6  1  0  0  0
  6  7  2  0  0  0
  7 12  1  0  0  0
 12 13  2  0  0  0
 12 14  1  0  0  0
 14 16  1  0  0  0
 16 17  2  0  0  0
 17 18  1  0  0  0
 18 19  2  0  0  0
 19 20  1  0  0  0
 20 21  2  0  0  0
 21 22  1  0  0  0
 19 23  1  0  0  0
 23 24  1  0  0  0
 24 25  1  0  0  0
  7  8  1  0  0  0
  8  9  2  0  0  0
  9 10  1  0  0  0
 10 27  1  0  0  0
 27 28  1  0  0  0
 10  1  2  0  0  0
  9  3  1  0  0  0
 21 16  1  0  0  0
 25 18  1  0  0  0
 33 34  1  0  0  0
  2 11  1  0  0  0
 14 15  1  0  0  0
 24 26  1  0  0  0
 28 29  1  0  0  0
 28 30  1  0  0  0
M  END
> <minimizedAffinity>
-9.79066

> <minimizedRMSD>
0.59657

$$$$
P30023


 35 38  0  0  0  0  0  0  0  0999 V2000
   -5.0048    5.4394  -18.6945 C   0  0  0  0  0  0  0  0  0  0  0  0
   -6.2207    4.8729  -19.0402 N   0  0  0  0  0  0  0  0  0  0  0  0
   -6.9938    4.6691  -17.9147 C   0  0  0  0  0  0  0  0  0  0  0  0
   -8.3090    4.2034  -17.7543 C   0  0  0  0  0  0  0  0  0  0  0  0
   -9.0614    3.8342  -18.8030 F   0  0  0  0  0  0  0  0  0  0  0  0
   -8.8753    4.1988  -16.4742 C   0  0  0  0  0  0  0  0  0  0  0  0
   -8.1307    4.6493  -15.3892 C   0  0  0  0  0  0  0  0  0  0  0  0
   -6.8022    5.0594  -15.5450 C   0  0  0  0  0  0  0  0  0  0  0  0
   -6.2310    5.0869  -16.8269 C   0  0  0  0  0  0  0  0  0  0  0  0
   -4.9863    5.5867  -17.3131 C   0  0  0  0  0  0  0  0  0  0  0  0
   -6.4948    4.6476  -19.9585 H   0  0  0  0  0  0  0  0  0  0  0  0
   -8.7223    4.9157  -14.0586 C   0  0  0  0  0  0  0  0  0  0  0  0
   -9.4632    5.8139  -13.9772 O   0  0  0  0  0  0  0  0  0  0  0  0
   -8.1556    3.9863  -12.9682 N   0  0  0  0  0  0  0  0  0  0  0  0
   -7.6006    3.2463  -13.3052 H   0  0  0  0  0  0  0  0  0  0  0  0
   -8.3009    4.0225  -11.5811 C   0  0  0  0  0  0  0  0  0  0  0  0
   -8.1124    5.2240  -10.8745 C   0  0  0  0  0  0  0  0  0  0  0  0
   -8.2303    5.2641   -9.4788 C   0  0  0  0  0  0  0  0  0  0  0  0
   -8.5746    4.0982   -8.8168 C   0  0  0  0  0  0  0  0  0  0  0  0
   -8.7628    2.9109   -9.5166 C   0  0  0  0  0  0  0  0  0  0  0  0
   -8.6105    2.8481  -10.8941 C   0  0  0  0  0  0  0  0  0  0  0  0
   -9.0990    1.8214   -8.5553 C   0  0  0  0  0  0  0  0  0  0  0  0
   -9.3494    2.4931   -7.2570 N   0  0  0  0  0  0  0  0  0  0  0  0
   -8.7906    3.8540   -7.3602 C   0  0  0  0  0  0  0  0  0  0  0  0
   -8.8894    1.9819   -6.5037 H   0  0  0  0  0  0  0  0  0  0  0  0
   -7.9984    6.4786   -8.7583 C   0  0  0  0  0  0  0  0  0  0  0  0
   -7.8038    7.4451   -8.1445 N   0  0  0  0  0  0  0  0  0  0  0  0
   -3.9413    6.2452  -16.4690 C   0  0  0  0  0  0  0  0  0  0  0  0
   -4.1879    7.6847  -16.4763 N   0  0  0  0  0  0  0  0  0  0  0  0
   -4.1452    8.0321  -17.4344 H   0  0  0  0  0  0  0  0  0  0  0  0
   -3.4791    8.1540  -15.9126 H   0  0  0  0  0  0  0  0  0  0  0  0
   -4.0351    5.9267  -19.7187 C   0  0  0  0  0  0  0  0  0  0  0  0
   -2.2211    4.2972  -19.4092 C   0  0  0  0  0  0  0  0  0  0  0  0
   -3.1701    4.9083  -20.3310 N   0  0  0  0  0  0  0  0  0  0  0  0
   -3.7639    4.1723  -20.7132 H   0  0  0  0  0  0  0  0  0  0  0  0
 33 34  1  0  0  0
 34 32  1  0  0  0
 32  1  1  0  0  0
  1  2  1  0  0  0
  2  3  1  0  0  0
  3  4  2  0  0  0
  4  5  1  0  0  0
  4  6  1  0  0  0
  6  7  2  0  0  0
  7 12  1  0  0  0
 12 13  2  0  0  0
 12 14  1  0  0  0
 14 16  1  0  0  0
 16 17  2  0  0  0
 17 18  1  0  0  0
 18 26  1  0  0  0
 26 27  3  0  0  0
 18 19  2  0  0  0
 19 20  1  0  0  0
 20 21  2  0  0  0
 20 22  1  0  0  0
 22 23  1  0  0  0
 23 24  1  0  0  0
  7  8  1  0  0  0
  8  9  2  0  0  0
  9 10  1  0  0  0
 10 28  1  0  0  0
 28 29  1  0  0  0
 10  1  2  0  0  0
  9  3  1  0  0  0
 21 16  1  0  0  0
 24 19  1  0  0  0
 34 35  1  0  0  0
  2 11  1  0  0  0
 14 15  1  0  0  0
 23 25  1  0  0  0
 29 30  1  0  0  0
 29 31  1  0  0  0
M  END
> <minimizedAffinity>
-9.47831

> <minimizedRMSD>
0.70913

$$$$
P30024


 36 39  0  0  0  0  0  0  0  0999 V2000
   -5.2046    5.6686  -18.7612 C   0  0  0  0  0  0  0  0  0  0  0  0
   -6.4390    5.1499  -19.0708 N   0  0  0  0  0  0  0  0  0  0  0  0
   -7.0872    4.7686  -17.9193 C   0  0  0  0  0  0  0  0  0  0  0  0
   -8.3703    4.2500  -17.7198 C   0  0  0  0  0  0  0  0  0  0  0  0
   -9.1766    3.9563  -18.7470 F   0  0  0  0  0  0  0  0  0  0  0  0
   -8.8489    4.1325  -16.4199 C   0  0  0  0  0  0  0  0  0  0  0  0
   -8.0249    4.4896  -15.3630 C   0  0  0  0  0  0  0  0  0  0  0  0
   -6.6933    4.8750  -15.5502 C   0  0  0  0  0  0  0  0  0  0  0  0
   -6.2272    5.0458  -16.8581 C   0  0  0  0  0  0  0  0  0  0  0  0
   -5.0066    5.5311  -17.3955 C   0  0  0  0  0  0  0  0  0  0  0  0
   -6.8046    5.0641  -19.9808 H   0  0  0  0  0  0  0  0  0  0  0  0
   -8.5768    4.8200  -14.0480 C   0  0  0  0  0  0  0  0  0  0  0  0
   -9.3486    5.6952  -14.0203 O   0  0  0  0  0  0  0  0  0  0  0  0
   -7.9530    4.0031  -12.9027 N   0  0  0  0  0  0  0  0  0  0  0  0
   -7.3785    3.2582  -13.1933 H   0  0  0  0  0  0  0  0  0  0  0  0
   -8.0684    4.1454  -11.5261 C   0  0  0  0  0  0  0  0  0  0  0  0
   -7.6842    5.3857  -10.9769 C   0  0  0  0  0  0  0  0  0  0  0  0
   -7.7729    5.6300   -9.6200 C   0  0  0  0  0  0  0  0  0  0  0  0
   -8.2921    4.6250   -8.8414 C   0  0  0  0  0  0  0  0  0  0  0  0
   -8.6886    3.3850   -9.3603 C   0  0  0  0  0  0  0  0  0  0  0  0
   -8.5450    3.1112  -10.7125 C   0  0  0  0  0  0  0  0  0  0  0  0
   -9.2979    2.5802   -8.2393 C   0  0  0  0  0  0  0  0  0  0  0  0
   -9.5321    3.6039   -7.2000 N   0  0  0  0  0  0  0  0  0  0  0  0
   -8.5647    4.6748   -7.3858 C   0  0  0  0  0  0  0  0  0  0  0  0
   -9.8235    3.1958   -5.8334 C   0  0  0  0  0  0  0  0  0  0  0  0
   -9.1886    4.0325   -4.6994 C   0  0  0  0  0  0  0  0  0  0  0  0
   -9.5556    5.3437   -4.7964 F   0  0  0  0  0  0  0  0  0  0  0  0
   -9.6216    3.6519   -3.4738 F   0  0  0  0  0  0  0  0  0  0  0  0
   -3.7696    5.8928  -16.6454 C   0  0  0  0  0  0  0  0  0  0  0  0
   -2.7047    4.9897  -17.0661 N   0  0  0  0  0  0  0  0  0  0  0  0
   -2.9773    4.0270  -16.8679 H   0  0  0  0  0  0  0  0  0  0  0  0
   -1.8492    5.2124  -16.5572 H   0  0  0  0  0  0  0  0  0  0  0  0
   -4.2870    6.2616  -19.7623 C   0  0  0  0  0  0  0  0  0  0  0  0
   -2.1198    5.6026  -20.6116 C   0  0  0  0  0  0  0  0  0  0  0  0
   -3.4616    5.1774  -20.2813 N   0  0  0  0  0  0  0  0  0  0  0  0
   -3.4062    4.4435  -19.5751 H   0  0  0  0  0  0  0  0  0  0  0  0
 34 35  1  0  0  0
 35 33  1  0  0  0
 33  1  1  0  0  0
  1  2  1  0  0  0
  2  3  1  0  0  0
  3  4  2  0  0  0
  4  5  1  0  0  0
  4  6  1  0  0  0
  6  7  2  0  0  0
  7 12  1  0  0  0
 12 13  2  0  0  0
 12 14  1  0  0  0
 14 16  1  0  0  0
 16 17  2  0  0  0
 17 18  1  0  0  0
 18 19  2  0  0  0
 19 20  1  0  0  0
 20 21  2  0  0  0
 20 22  1  0  0  0
 22 23  1  0  0  0
 23 25  1  0  0  0
 25 26  1  0  0  0
 26 27  1  0  0  0
 26 28  1  0  0  0
 23 24  1  0  0  0
  7  8  1  0  0  0
  8  9  2  0  0  0
  9 10  1  0  0  0
 10 29  1  0  0  0
 29 30  1  0  0  0
 10  1  2  0  0  0
  9  3  1  0  0  0
 21 16  1  0  0  0
 24 19  1  0  0  0
 35 36  1  0  0  0
  2 11  1  0  0  0
 14 15  1  0  0  0
 30 31  1  0  0  0
 30 32  1  0  0  0
M  END
> <minimizedAffinity>
-9.29944

> <minimizedRMSD>
0.57006

$$$$
P30026


 35 39  0  0  0  0  0  0  0  0999 V2000
   -4.9496    5.3624  -17.4324 C   0  0  0  0  0  0  0  0  0  0  0  0
   -5.0882    5.3741  -18.8155 C   0  0  0  0  0  0  0  0  0  0  0  0
   -6.3699    4.9532  -19.1076 N   0  0  0  0  0  0  0  0  0  0  0  0
   -7.0729    4.6811  -17.9580 C   0  0  0  0  0  0  0  0  0  0  0  0
   -8.3754    4.2063  -17.7585 C   0  0  0  0  0  0  0  0  0  0  0  0
   -9.1612    3.8430  -18.7838 F   0  0  0  0  0  0  0  0  0  0  0  0
   -8.8865    4.1776  -16.4600 C   0  0  0  0  0  0  0  0  0  0  0  0
   -8.0972    4.6104  -15.4009 C   0  0  0  0  0  0  0  0  0  0  0  0
   -6.7600    4.9763  -15.5919 C   0  0  0  0  0  0  0  0  0  0  0  0
   -6.2377    5.0179  -16.8979 C   0  0  0  0  0  0  0  0  0  0  0  0
   -6.7324    4.8602  -20.0182 H   0  0  0  0  0  0  0  0  0  0  0  0
   -3.1682    6.9147  -16.9027 N   0  0  0  0  0  0  0  0  0  0  0  0
   -3.7491    5.6165  -16.5777 C   0  0  0  0  0  0  0  0  0  0  0  0
   -2.3509    7.0782  -16.3147 H   0  0  0  0  0  0  0  0  0  0  0  0
   -3.8584    7.6472  -16.7368 H   0  0  0  0  0  0  0  0  0  0  0  0
   -8.6725    4.9087  -14.0727 C   0  0  0  0  0  0  0  0  0  0  0  0
   -9.4343    5.7903  -14.0060 O   0  0  0  0  0  0  0  0  0  0  0  0
   -8.0946    4.0023  -12.9691 N   0  0  0  0  0  0  0  0  0  0  0  0
   -7.5200    3.2722  -13.2945 H   0  0  0  0  0  0  0  0  0  0  0  0
   -8.2529    4.0475  -11.5845 C   0  0  0  0  0  0  0  0  0  0  0  0
   -8.0409    5.2429  -10.8753 C   0  0  0  0  0  0  0  0  0  0  0  0
   -8.1836    5.2911   -9.4848 C   0  0  0  0  0  0  0  0  0  0  0  0
   -8.5525    4.1339   -8.8261 C   0  0  0  0  0  0  0  0  0  0  0  0
   -8.7628    2.9510   -9.5240 C   0  0  0  0  0  0  0  0  0  0  0  0
   -8.6072    2.8840  -10.9008 C   0  0  0  0  0  0  0  0  0  0  0  0
   -9.1273    1.8709   -8.5636 C   0  0  0  0  0  0  0  0  0  0  0  0
   -9.3455    2.5408   -7.2560 N   0  0  0  0  0  0  0  0  0  0  0  0
   -8.7794    3.9000   -7.3718 C   0  0  0  0  0  0  0  0  0  0  0  0
   -8.8716    2.0253   -6.5143 H   0  0  0  0  0  0  0  0  0  0  0  0
   -4.2724    5.7056  -19.8520 N   0  0  0  0  0  0  0  0  0  0  0  0
   -3.8860    4.9622  -20.3690 H   0  0  0  0  0  0  0  0  0  0  0  0
   -3.9196    7.0361  -20.2657 C   0  0  0  0  0  0  0  0  0  0  0  0
   -5.1072    8.0256  -20.3044 C   0  0  0  0  0  0  0  0  0  0  0  0
   -5.2991    7.6960  -21.7916 C   0  0  0  0  0  0  0  0  0  0  0  0
   -3.8489    7.1998  -21.8085 C   0  0  0  0  0  0  0  0  0  0  0  0
 12 13  1  0  0  0
 13  1  1  0  0  0
  1  2  2  0  0  0
  2 30  1  0  0  0
 30 32  1  0  0  0
 32 33  1  0  0  0
 33 34  1  0  0  0
 34 35  1  0  0  0
  2  3  1  0  0  0
  3  4  1  0  0  0
  4  5  2  0  0  0
  5  6  1  0  0  0
  5  7  1  0  0  0
  7  8  2  0  0  0
  8 16  1  0  0  0
 16 17  2  0  0  0
 16 18  1  0  0  0
 18 20  1  0  0  0
 20 21  2  0  0  0
 21 22  1  0  0  0
 22 23  2  0  0  0
 23 24  1  0  0  0
 24 25  2  0  0  0
 24 26  1  0  0  0
 26 27  1  0  0  0
 27 28  1  0  0  0
  8  9  1  0  0  0
  9 10  2  0  0  0
 10  1  1  0  0  0
 35 32  1  0  0  0
 10  4  1  0  0  0
 25 20  1  0  0  0
 28 23  1  0  0  0
 12 14  1  0  0  0
 12 15  1  0  0  0
 30 31  1  0  0  0
  3 11  1  0  0  0
 18 19  1  0  0  0
 27 29  1  0  0  0
M  END
> <minimizedAffinity>
-9.80166

> <minimizedRMSD>
0.91539

$$$$
P30027


 34 37  0  0  0  0  0  0  0  0999 V2000
   -4.9738    5.5743  -18.6622 C   0  0  0  0  0  0  0  0  0  0  0  0
   -6.1855    5.0190  -19.0275 N   0  0  0  0  0  0  0  0  0  0  0  0
   -6.9368    4.7383  -17.9062 C   0  0  0  0  0  0  0  0  0  0  0  0
   -8.2086    4.1769  -17.7496 C   0  0  0  0  0  0  0  0  0  0  0  0
   -8.9297    3.7509  -18.7961 F   0  0  0  0  0  0  0  0  0  0  0  0
   -8.7640    4.1237  -16.4686 C   0  0  0  0  0  0  0  0  0  0  0  0
   -8.0649    4.6408  -15.3869 C   0  0  0  0  0  0  0  0  0  0  0  0
   -6.7688    5.1287  -15.5317 C   0  0  0  0  0  0  0  0  0  0  0  0
   -6.1983    5.1727  -16.8114 C   0  0  0  0  0  0  0  0  0  0  0  0
   -4.9340    5.6219  -17.2770 C   0  0  0  0  0  0  0  0  0  0  0  0
   -6.4708    4.8485  -19.9542 H   0  0  0  0  0  0  0  0  0  0  0  0
   -8.6797    4.8972  -14.0726 C   0  0  0  0  0  0  0  0  0  0  0  0
   -9.4613    5.7593  -14.0013 O   0  0  0  0  0  0  0  0  0  0  0  0
   -8.0773    4.0048  -12.9760 N   0  0  0  0  0  0  0  0  0  0  0  0
   -7.4867    3.2893  -13.3054 H   0  0  0  0  0  0  0  0  0  0  0  0
   -8.2306    4.0431  -11.5933 C   0  0  0  0  0  0  0  0  0  0  0  0
   -8.0559    5.2484  -10.8871 C   0  0  0  0  0  0  0  0  0  0  0  0
   -8.2244    5.3139   -9.4943 C   0  0  0  0  0  0  0  0  0  0  0  0
   -7.9749    6.5890   -8.7531 C   0  0  0  0  0  0  0  0  0  0  0  0
   -8.6023    4.1465   -8.8478 C   0  0  0  0  0  0  0  0  0  0  0  0
   -8.7659    2.9520   -9.5500 C   0  0  0  0  0  0  0  0  0  0  0  0
   -8.5510    2.8718  -10.9146 C   0  0  0  0  0  0  0  0  0  0  0  0
   -9.1839    1.8789   -8.6022 C   0  0  0  0  0  0  0  0  0  0  0  0
   -9.6166    2.5947   -7.3753 N   0  0  0  0  0  0  0  0  0  0  0  0
   -8.9065    3.8923   -7.4067 C   0  0  0  0  0  0  0  0  0  0  0  0
   -9.3565    2.0656   -6.5429 H   0  0  0  0  0  0  0  0  0  0  0  0
   -3.8382    6.0865  -16.3885 C   0  0  0  0  0  0  0  0  0  0  0  0
   -3.0955    4.9187  -15.9425 N   0  0  0  0  0  0  0  0  0  0  0  0
   -3.7222    4.2874  -15.4434 H   0  0  0  0  0  0  0  0  0  0  0  0
   -2.3422    5.2120  -15.3205 H   0  0  0  0  0  0  0  0  0  0  0  0
   -3.9676    6.0476  -19.6595 C   0  0  0  0  0  0  0  0  0  0  0  0
   -2.2497    4.3558  -19.4556 C   0  0  0  0  0  0  0  0  0  0  0  0
   -3.3038    4.9059  -20.2946 N   0  0  0  0  0  0  0  0  0  0  0  0
   -3.9967    4.1789  -20.4727 H   0  0  0  0  0  0  0  0  0  0  0  0
 32 33  1  0  0  0
 33 31  1  0  0  0
 31  1  1  0  0  0
  1  2  1  0  0  0
  2  3  1  0  0  0
  3  4  2  0  0  0
  4  5  1  0  0  0
  4  6  1  0  0  0
  6  7  2  0  0  0
  7 12  1  0  0  0
 12 13  2  0  0  0
 12 14  1  0  0  0
 14 16  1  0  0  0
 16 17  2  0  0  0
 17 18  1  0  0  0
 18 19  1  0  0  0
 18 20  2  0  0  0
 20 21  1  0  0  0
 21 22  2  0  0  0
 21 23  1  0  0  0
 23 24  1  0  0  0
 24 25  1  0  0  0
  7  8  1  0  0  0
  8  9  2  0  0  0
  9 10  1  0  0  0
 10 27  1  0  0  0
 27 28  1  0  0  0
 10  1  2  0  0  0
  9  3  1  0  0  0
 22 16  1  0  0  0
 25 20  1  0  0  0
 33 34  1  0  0  0
  2 11  1  0  0  0
 14 15  1  0  0  0
 24 26  1  0  0  0
 28 29  1  0  0  0
 28 30  1  0  0  0
M  END
> <minimizedAffinity>
-9.87887

> <minimizedRMSD>
0.60827

$$$$
P30028


 33 36  0  0  0  0  0  0  0  0999 V2000
   -4.8157    5.4660  -17.6717 C   0  0  0  0  0  0  0  0  0  0  0  0
   -5.0810    5.2215  -19.0009 C   0  0  0  0  0  0  0  0  0  0  0  0
   -4.3270    5.3731  -20.1040 N   0  0  0  0  0  0  0  0  0  0  0  0
   -6.3764    4.7765  -19.1069 N   0  0  0  0  0  0  0  0  0  0  0  0
   -6.9615    4.7100  -17.8663 C   0  0  0  0  0  0  0  0  0  0  0  0
   -8.2424    4.3374  -17.4593 C   0  0  0  0  0  0  0  0  0  0  0  0
   -9.1650    3.9212  -18.3407 F   0  0  0  0  0  0  0  0  0  0  0  0
   -8.5667    4.4431  -16.0986 C   0  0  0  0  0  0  0  0  0  0  0  0
   -7.6300    4.8732  -15.1488 C   0  0  0  0  0  0  0  0  0  0  0  0
   -6.3436    5.2128  -15.6001 C   0  0  0  0  0  0  0  0  0  0  0  0
   -6.0077    5.1474  -16.9591 C   0  0  0  0  0  0  0  0  0  0  0  0
   -3.3989    5.6921  -20.0258 H   0  0  0  0  0  0  0  0  0  0  0  0
   -4.7031    5.1651  -20.9897 H   0  0  0  0  0  0  0  0  0  0  0  0
   -6.8220    4.5391  -19.9521 H   0  0  0  0  0  0  0  0  0  0  0  0
   -2.4324    5.2542  -17.5495 N   0  0  0  0  0  0  0  0  0  0  0  0
   -3.5817    5.9953  -17.0437 C   0  0  0  0  0  0  0  0  0  0  0  0
   -1.5800    5.6144  -17.1205 H   0  0  0  0  0  0  0  0  0  0  0  0
   -2.3760    5.3637  -18.5620 H   0  0  0  0  0  0  0  0  0  0  0  0
   -7.8852    5.0474  -13.6523 C   0  0  0  0  0  0  0  0  0  0  0  0
   -8.8399    6.2047  -13.4435 N   0  0  0  0  0  0  0  0  0  0  0  0
   -9.9297    6.0537  -14.0124 O   0  0  0  0  0  0  0  0  0  0  0  0
   -8.2791    3.8061  -12.9793 N   0  0  0  0  0  0  0  0  0  0  0  0
   -8.5175    2.9900  -13.4757 H   0  0  0  0  0  0  0  0  0  0  0  0
   -8.2924    3.8645  -11.5611 C   0  0  0  0  0  0  0  0  0  0  0  0
   -8.0443    5.0699  -10.8670 C   0  0  0  0  0  0  0  0  0  0  0  0
   -8.1301    5.1589   -9.4742 C   0  0  0  0  0  0  0  0  0  0  0  0
   -8.5188    4.0356   -8.7781 C   0  0  0  0  0  0  0  0  0  0  0  0
   -8.7685    2.8405   -9.4389 C   0  0  0  0  0  0  0  0  0  0  0  0
   -8.6418    2.7296  -10.8171 C   0  0  0  0  0  0  0  0  0  0  0  0
   -9.1811    1.8101   -8.4443 C   0  0  0  0  0  0  0  0  0  0  0  0
   -9.4179    2.5430   -7.1742 N   0  0  0  0  0  0  0  0  0  0  0  0
   -8.7857    3.8682   -7.3225 C   0  0  0  0  0  0  0  0  0  0  0  0
   -8.9971    2.0385   -6.3940 H   0  0  0  0  0  0  0  0  0  0  0  0
 15 16  1  0  0  0
 16  1  1  0  0  0
  1  2  2  0  0  0
  2  3  1  0  0  0
  2  4  1  0  0  0
  4  5  1  0  0  0
  5  6  2  0  0  0
  6  7  1  0  0  0
  6  8  1  0  0  0
  8  9  2  0  0  0
  9 19  1  0  0  0
 19 20  1  0  0  0
 20 21  2  0  0  0
 19 22  1  0  0  0
 22 24  1  0  0  0
 24 25  2  0  0  0
 25 26  1  0  0  0
 26 27  2  0  0  0
 27 28  1  0  0  0
 28 29  2  0  0  0
 28 30  1  0  0  0
 30 31  1  0  0  0
 31 32  1  0  0  0
  9 10  1  0  0  0
 10 11  2  0  0  0
 11  1  1  0  0  0
 11  5  1  0  0  0
 29 24  1  0  0  0
 32 27  1  0  0  0
 15 17  1  0  0  0
 15 18  1  0  0  0
  3 12  1  0  0  0
  3 13  1  0  0  0
  4 14  1  0  0  0
 22 23  1  0  0  0
 31 33  1  0  0  0
M  END
> <minimizedAffinity>
-9.64633

> <minimizedRMSD>
0.85787

$$$$
P30037


 28 31  0  0  0  0  0  0  0  0999 V2000
   -5.2268    5.2863  -17.7448 N   0  0  0  0  0  0  0  0  0  0  0  0
   -4.3511    5.6154  -16.7797 N   0  0  0  0  0  0  0  0  0  0  0  0
   -5.0880    5.5322  -15.6673 C   0  0  0  0  0  0  0  0  0  0  0  0
   -6.4264    5.1234  -15.9177 C   0  0  0  0  0  0  0  0  0  0  0  0
   -7.6135    4.9080  -15.1853 C   0  0  0  0  0  0  0  0  0  0  0  0
   -8.7671    4.4605  -15.8591 C   0  0  0  0  0  0  0  0  0  0  0  0
   -8.7374    4.2285  -17.2264 C   0  0  0  0  0  0  0  0  0  0  0  0
   -9.8451    3.8358  -17.8669 F   0  0  0  0  0  0  0  0  0  0  0  0
   -7.5952    4.4540  -17.9731 C   0  0  0  0  0  0  0  0  0  0  0  0
   -6.4620    4.9107  -17.2890 C   0  0  0  0  0  0  0  0  0  0  0  0
   -3.6413    5.9915  -19.6355 C   0  0  0  0  0  0  0  0  0  0  0  0
   -4.4272    6.7185  -20.6994 N   0  0  0  0  0  0  0  0  0  0  0  0
   -5.5563    6.6958  -19.7350 C   0  0  0  0  0  0  0  0  0  0  0  0
   -4.9806    5.3884  -19.1775 C   0  0  0  0  0  0  0  0  0  0  0  0
   -4.5829    6.1890  -21.5571 H   0  0  0  0  0  0  0  0  0  0  0  0
   -2.0110    4.2306  -19.0257 C   0  0  0  0  0  0  0  0  0  0  0  0
   -2.6686    4.9620  -20.1902 C   0  0  0  0  0  0  0  0  0  0  0  0
   -1.6210    5.6170  -21.0833 C   0  0  0  0  0  0  0  0  0  0  0  0
   -7.6799    5.2806  -13.7524 C   0  0  0  0  0  0  0  0  0  0  0  0
   -7.4619    6.3891  -13.4645 O   0  0  0  0  0  0  0  0  0  0  0  0
   -8.1290    4.0945  -12.8835 N   0  0  0  0  0  0  0  0  0  0  0  0
   -8.3212    3.2678  -13.3824 H   0  0  0  0  0  0  0  0  0  0  0  0
   -8.3054    4.0002  -11.5287 C   0  0  0  0  0  0  0  0  0  0  0  0
   -8.6197    2.7766  -11.0891 N   0  0  0  0  0  0  0  0  0  0  0  0
   -8.7581    2.6341   -9.7575 C   0  0  0  0  0  0  0  0  0  0  0  0
   -8.6326    3.6740   -8.8708 C   0  0  0  0  0  0  0  0  0  0  0  0
   -8.3420    4.8927   -9.4333 C   0  0  0  0  0  0  0  0  0  0  0  0
   -8.1693    5.0840  -10.7543 N   0  0  0  0  0  0  0  0  0  0  0  0
 16 17  1  0  0  0
 17 18  1  0  0  0
 11 17  1  0  0  0
 11 12  1  0  0  0
 12 13  1  0  0  0
 13 14  1  0  0  0
 14  1  1  0  0  0
  1  2  1  0  0  0
  2  3  2  0  0  0
  3  4  1  0  0  0
  4  5  2  0  0  0
  5 19  1  0  0  0
 19 20  2  0  0  0
 19 21  1  0  0  0
 21 23  1  0  0  0
 23 24  2  0  0  0
 24 25  1  0  0  0
 25 26  2  0  0  0
 26 27  1  0  0  0
 27 28  2  0  0  0
  5  6  1  0  0  0
  6  7  2  0  0  0
  7  8  1  0  0  0
  7  9  1  0  0  0
  9 10  2  0  0  0
 14 11  1  0  0  0
 10  1  1  0  0  0
 10  4  1  0  0  0
 28 23  1  0  0  0
 12 15  1  0  0  0
 21 22  1  0  0  0
M  END
> <minimizedAffinity>
-8.40524

> <minimizedRMSD>
0.43767

$$$$
P30038


 29 32  0  0  0  0  0  0  0  0999 V2000
   -5.2588    6.2259  -17.0023 N   0  0  0  0  0  0  0  0  0  0  0  0
   -4.8494    6.5346  -15.7515 N   0  0  0  0  0  0  0  0  0  0  0  0
   -5.8128    6.0483  -14.9694 C   0  0  0  0  0  0  0  0  0  0  0  0
   -6.8087    5.3636  -15.6956 C   0  0  0  0  0  0  0  0  0  0  0  0
   -8.0468    4.7579  -15.3965 C   0  0  0  0  0  0  0  0  0  0  0  0
   -8.7643    4.1284  -16.4190 C   0  0  0  0  0  0  0  0  0  0  0  0
   -8.2636    4.1471  -17.7178 C   0  0  0  0  0  0  0  0  0  0  0  0
   -8.9732    3.5838  -18.7017 F   0  0  0  0  0  0  0  0  0  0  0  0
   -7.0794    4.8000  -18.0563 C   0  0  0  0  0  0  0  0  0  0  0  0
   -6.3691    5.4077  -17.0178 C   0  0  0  0  0  0  0  0  0  0  0  0
   -4.7035    7.1643  -20.6600 C   0  0  0  0  0  0  0  0  0  0  0  0
   -4.2749    6.4714  -19.3621 C   0  0  0  0  0  0  0  0  0  0  0  0
   -4.9373    7.1200  -18.1399 C   0  0  0  0  0  0  0  0  0  0  0  0
   -3.6220    7.8950  -17.9688 C   0  0  0  0  0  0  0  0  0  0  0  0
   -2.9630    7.0385  -18.9750 N   0  0  0  0  0  0  0  0  0  0  0  0
   -2.0687    6.0755  -18.3242 C   0  0  0  0  0  0  0  0  0  0  0  0
   -0.7211    6.0552  -19.0681 C   0  0  0  0  0  0  0  0  0  0  0  0
    0.0495    4.9192  -18.7100 O   0  0  0  0  0  0  0  0  0  0  0  0
    0.2364    4.9421  -17.7585 H   0  0  0  0  0  0  0  0  0  0  0  0
   -8.6334    4.9974  -14.0572 C   0  0  0  0  0  0  0  0  0  0  0  0
   -9.4247    5.8493  -13.9735 O   0  0  0  0  0  0  0  0  0  0  0  0
   -8.0675    4.0567  -12.9861 N   0  0  0  0  0  0  0  0  0  0  0  0
   -7.4581    3.3630  -13.3275 H   0  0  0  0  0  0  0  0  0  0  0  0
   -8.2719    4.0241  -11.6298 C   0  0  0  0  0  0  0  0  0  0  0  0
   -8.5619    2.8240  -11.1170 N   0  0  0  0  0  0  0  0  0  0  0  0
   -8.6924    2.7606   -9.7765 C   0  0  0  0  0  0  0  0  0  0  0  0
   -8.5646    3.8479   -8.9485 C   0  0  0  0  0  0  0  0  0  0  0  0
   -8.2885    5.0336   -9.5814 C   0  0  0  0  0  0  0  0  0  0  0  0
   -8.1330    5.1489  -10.9133 N   0  0  0  0  0  0  0  0  0  0  0  0
 12 11  1  0  0  0
 12 13  1  0  0  0
 13  1  1  0  0  0
  1  2  1  0  0  0
  2  3  2  0  0  0
  3  4  1  0  0  0
  4  5  2  0  0  0
  5 20  1  0  0  0
 20 21  2  0  0  0
 20 22  1  0  0  0
 22 24  1  0  0  0
 24 25  2  0  0  0
 25 26  1  0  0  0
 26 27  2  0  0  0
 27 28  1  0  0  0
 28 29  2  0  0  0
  5  6  1  0  0  0
  6  7  2  0  0  0
  7  8  1  0  0  0
  7  9  1  0  0  0
  9 10  2  0  0  0
 13 14  1  0  0  0
 14 15  1  0  0  0
 15 16  1  0  0  0
 16 17  1  0  0  0
 17 18  1  0  0  0
 15 12  1  0  0  0
 10  1  1  0  0  0
 10  4  1  0  0  0
 29 24  1  0  0  0
 22 23  1  0  0  0
 18 19  1  0  0  0
M  END
> <minimizedAffinity>
-7.91692

> <minimizedRMSD>
0.77537

$$$$
P30039


 25 28  0  0  0  0  0  0  0  0999 V2000
   -8.0329    4.7488  -15.4024 C   0  0  0  0  0  0  0  0  0  0  0  0
   -8.8347    4.3044  -16.4611 C   0  0  0  0  0  0  0  0  0  0  0  0
   -8.3190    4.2418  -17.7461 C   0  0  0  0  0  0  0  0  0  0  0  0
   -9.1093    3.8357  -18.7475 F   0  0  0  0  0  0  0  0  0  0  0  0
   -7.0226    4.6517  -18.0388 C   0  0  0  0  0  0  0  0  0  0  0  0
   -6.2223    5.0815  -16.9703 C   0  0  0  0  0  0  0  0  0  0  0  0
   -6.6958    5.1142  -15.6592 C   0  0  0  0  0  0  0  0  0  0  0  0
   -5.6057    5.5936  -14.9008 C   0  0  0  0  0  0  0  0  0  0  0  0
   -4.5453    5.8945  -15.6521 N   0  0  0  0  0  0  0  0  0  0  0  0
   -4.9465    5.6019  -16.9067 N   0  0  0  0  0  0  0  0  0  0  0  0
   -4.2586    6.1722  -18.0805 C   0  0  0  0  0  0  0  0  0  0  0  0
   -4.8228    5.7211  -19.4204 C   0  0  0  0  0  0  0  0  0  0  0  0
   -3.7621    4.6892  -19.5265 N   0  0  0  0  0  0  0  0  0  0  0  0
   -2.9847    5.4317  -18.5129 C   0  0  0  0  0  0  0  0  0  0  0  0
   -3.3168    4.6357  -20.4426 H   0  0  0  0  0  0  0  0  0  0  0  0
   -9.4198    5.8323  -13.9668 O   0  0  0  0  0  0  0  0  0  0  0  0
   -8.6077    5.0014  -14.0590 C   0  0  0  0  0  0  0  0  0  0  0  0
   -8.0311    4.0510  -13.0003 N   0  0  0  0  0  0  0  0  0  0  0  0
   -7.4015    3.3793  -13.3491 H   0  0  0  0  0  0  0  0  0  0  0  0
   -8.2495    3.9849  -11.6499 C   0  0  0  0  0  0  0  0  0  0  0  0
   -8.5801    2.7743  -11.1889 N   0  0  0  0  0  0  0  0  0  0  0  0
   -8.7458    2.6669   -9.8568 C   0  0  0  0  0  0  0  0  0  0  0  0
   -8.6230    3.7257   -8.9917 C   0  0  0  0  0  0  0  0  0  0  0  0
   -8.3072    4.9272   -9.5762 C   0  0  0  0  0  0  0  0  0  0  0  0
   -8.1125    5.0848  -10.8979 N   0  0  0  0  0  0  0  0  0  0  0  0
 16 17  2  0  0  0
 17 18  1  0  0  0
 18 20  1  0  0  0
 20 21  2  0  0  0
 21 22  1  0  0  0
 22 23  2  0  0  0
 23 24  1  0  0  0
 24 25  2  0  0  0
 17  1  1  0  0  0
  1  2  2  0  0  0
  2  3  1  0  0  0
  3  4  1  0  0  0
  3  5  2  0  0  0
  5  6  1  0  0  0
  6  7  2  0  0  0
  7  8  1  0  0  0
  8  9  2  0  0  0
  9 10  1  0  0  0
 10 11  1  0  0  0
 11 12  1  0  0  0
 12 13  1  0  0  0
 13 14  1  0  0  0
 25 20  1  0  0  0
  7  1  1  0  0  0
 14 11  1  0  0  0
 10  6  1  0  0  0
 18 19  1  0  0  0
 13 15  1  0  0  0
M  END
> <minimizedAffinity>
-8.45273

> <minimizedRMSD>
0.93579

$$$$
P30045


 26 29  0  0  0  0  0  0  0  0999 V2000
   -8.4431    4.5197  -17.0782 C   0  0  0  0  0  0  0  0  0  0  0  0
   -8.3121    4.5778  -15.6898 C   0  0  0  0  0  0  0  0  0  0  0  0
   -7.0758    4.8798  -15.1004 C   0  0  0  0  0  0  0  0  0  0  0  0
   -5.9643    5.1157  -15.9299 C   0  0  0  0  0  0  0  0  0  0  0  0
   -4.6047    5.4650  -15.7612 C   0  0  0  0  0  0  0  0  0  0  0  0
   -3.9457    5.5467  -16.9207 N   0  0  0  0  0  0  0  0  0  0  0  0
   -4.8861    5.2704  -17.8429 N   0  0  0  0  0  0  0  0  0  0  0  0
   -6.1247    5.0160  -17.3099 C   0  0  0  0  0  0  0  0  0  0  0  0
   -7.3490    4.7190  -17.9188 C   0  0  0  0  0  0  0  0  0  0  0  0
   -4.6212    5.1363  -19.2789 C   0  0  0  0  0  0  0  0  0  0  0  0
   -4.4239    6.4679  -20.0071 C   0  0  0  0  0  0  0  0  0  0  0  0
   -3.3497    5.7959  -20.8016 N   0  0  0  0  0  0  0  0  0  0  0  0
   -3.1561    4.8752  -19.6557 C   0  0  0  0  0  0  0  0  0  0  0  0
   -2.5451    6.3866  -21.0118 H   0  0  0  0  0  0  0  0  0  0  0  0
   -6.9834    5.0895  -13.6365 C   0  0  0  0  0  0  0  0  0  0  0  0
   -6.2663    5.9198  -13.2427 O   0  0  0  0  0  0  0  0  0  0  0  0
   -7.9736    4.1867  -12.8820 N   0  0  0  0  0  0  0  0  0  0  0  0
   -8.5263    3.6101  -13.4576 H   0  0  0  0  0  0  0  0  0  0  0  0
   -8.2120    4.0539  -11.5398 C   0  0  0  0  0  0  0  0  0  0  0  0
   -8.5409    2.8157  -11.1536 N   0  0  0  0  0  0  0  0  0  0  0  0
   -8.7533    2.6346   -9.8364 C   0  0  0  0  0  0  0  0  0  0  0  0
   -8.6826    3.6495   -8.9152 C   0  0  0  0  0  0  0  0  0  0  0  0
   -8.3676    4.8851   -9.4261 C   0  0  0  0  0  0  0  0  0  0  0  0
   -8.1239    5.1154  -10.7300 N   0  0  0  0  0  0  0  0  0  0  0  0
  -10.8376    4.4351  -18.0313 N   0  0  0  0  0  0  0  0  0  0  0  0
   -9.7480    4.4168  -17.6435 C   0  0  0  0  0  0  0  0  0  0  0  0
 25 26  3  0  0  0
 26  1  1  0  0  0
  1  2  2  0  0  0
  2  3  1  0  0  0
  3 15  1  0  0  0
 15 16  2  0  0  0
 15 17  1  0  0  0
 17 19  1  0  0  0
 19 20  2  0  0  0
 20 21  1  0  0  0
 21 22  2  0  0  0
 22 23  1  0  0  0
 23 24  2  0  0  0
  3  4  2  0  0  0
  4  5  1  0  0  0
  5  6  2  0  0  0
  6  7  1  0  0  0
  7 10  1  0  0  0
 10 11  1  0  0  0
 11 12  1  0  0  0
 12 13  1  0  0  0
  7  8  1  0  0  0
  8  9  2  0  0  0
  9  1  1  0  0  0
 24 19  1  0  0  0
  8  4  1  0  0  0
 13 10  1  0  0  0
 17 18  1  0  0  0
 12 14  1  0  0  0
M  END
> <minimizedAffinity>
-8.28883

> <minimizedRMSD>
0.39630

$$$$
P30061


 30 33  0  0  0  0  0  0  0  0999 V2000
   -5.0452    5.9945  -16.9704 N   0  0  0  0  0  0  0  0  0  0  0  0
   -4.6298    6.2357  -15.6993 N   0  0  0  0  0  0  0  0  0  0  0  0
   -5.6642    5.8745  -14.9404 C   0  0  0  0  0  0  0  0  0  0  0  0
   -6.7150    5.3031  -15.6838 C   0  0  0  0  0  0  0  0  0  0  0  0
   -8.0098    4.8163  -15.4046 C   0  0  0  0  0  0  0  0  0  0  0  0
   -8.7702    4.2489  -16.4326 C   0  0  0  0  0  0  0  0  0  0  0  0
   -8.2470    4.1849  -17.7149 C   0  0  0  0  0  0  0  0  0  0  0  0
   -8.9768    3.6277  -18.6893 F   0  0  0  0  0  0  0  0  0  0  0  0
   -6.9996    4.7183  -18.0354 C   0  0  0  0  0  0  0  0  0  0  0  0
   -6.2432    5.2858  -16.9983 C   0  0  0  0  0  0  0  0  0  0  0  0
   -3.5316    6.8246  -18.9760 C   0  0  0  0  0  0  0  0  0  0  0  0
   -2.3743    7.6054  -18.6915 O   0  0  0  0  0  0  0  0  0  0  0  0
   -4.3591    7.5709  -19.9578 N   0  0  0  0  0  0  0  0  0  0  0  0
   -5.5630    7.0298  -19.2569 C   0  0  0  0  0  0  0  0  0  0  0  0
   -4.7173    6.9890  -18.0010 C   0  0  0  0  0  0  0  0  0  0  0  0
   -1.6931    7.4291  -19.3592 H   0  0  0  0  0  0  0  0  0  0  0  0
   -4.2547    7.2616  -20.9242 H   0  0  0  0  0  0  0  0  0  0  0  0
   -2.4249    4.7001  -18.6351 C   0  0  0  0  0  0  0  0  0  0  0  0
   -3.2426    5.4986  -19.5505 N   0  0  0  0  0  0  0  0  0  0  0  0
   -2.4852    5.6539  -20.8056 C   0  0  0  0  0  0  0  0  0  0  0  0
   -8.5928    5.0497  -14.0629 C   0  0  0  0  0  0  0  0  0  0  0  0
   -9.4569    5.8273  -13.9784 O   0  0  0  0  0  0  0  0  0  0  0  0
   -7.9215    4.1860  -12.9856 N   0  0  0  0  0  0  0  0  0  0  0  0
   -7.1534    3.6571  -13.3012 H   0  0  0  0  0  0  0  0  0  0  0  0
   -8.2170    4.0310  -11.6559 C   0  0  0  0  0  0  0  0  0  0  0  0
   -8.5337    2.7845  -11.2892 N   0  0  0  0  0  0  0  0  0  0  0  0
   -8.7419    2.5811   -9.9737 C   0  0  0  0  0  0  0  0  0  0  0  0
   -8.6798    3.5800   -9.0345 C   0  0  0  0  0  0  0  0  0  0  0  0
   -8.3843    4.8274   -9.5259 C   0  0  0  0  0  0  0  0  0  0  0  0
   -8.1446    5.0799  -10.8262 N   0  0  0  0  0  0  0  0  0  0  0  0
 18 19  1  0  0  0
 19 20  1  0  0  0
 19 11  1  0  0  0
 11 12  1  0  0  0
 11 13  1  0  0  0
 13 14  1  0  0  0
 14 15  1  0  0  0
 15  1  1  0  0  0
  1  2  1  0  0  0
  2  3  2  0  0  0
  3  4  1  0  0  0
  4  5  2  0  0  0
  5 21  1  0  0  0
 21 22  2  0  0  0
 21 23  1  0  0  0
 23 25  1  0  0  0
 25 26  2  0  0  0
 26 27  1  0  0  0
 27 28  2  0  0  0
 28 29  1  0  0  0
 29 30  2  0  0  0
  5  6  1  0  0  0
  6  7  2  0  0  0
  7  8  1  0  0  0
  7  9  1  0  0  0
  9 10  2  0  0  0
 15 11  1  0  0  0
 10  1  1  0  0  0
 10  4  1  0  0  0
 30 25  1  0  0  0
 12 16  1  0  0  0
 13 17  1  0  0  0
 23 24  1  0  0  0
M  END
> <minimizedAffinity>
-8.34626

> <minimizedRMSD>
0.87151

$$$$
P30062


 27 30  0  0  0  0  0  0  0  0999 V2000
   -7.1161    4.8369  -14.9305 C   0  0  0  0  0  0  0  0  0  0  0  0
   -8.2359    4.4851  -15.7249 C   0  0  0  0  0  0  0  0  0  0  0  0
   -8.1870    4.4931  -17.1139 C   0  0  0  0  0  0  0  0  0  0  0  0
   -9.2564    4.1304  -17.8328 F   0  0  0  0  0  0  0  0  0  0  0  0
   -7.0530    4.8922  -17.7975 C   0  0  0  0  0  0  0  0  0  0  0  0
   -5.9278    5.2099  -17.0344 C   0  0  0  0  0  0  0  0  0  0  0  0
   -5.9299    5.1625  -15.6417 C   0  0  0  0  0  0  0  0  0  0  0  0
   -4.6048    5.5146  -15.2879 C   0  0  0  0  0  0  0  0  0  0  0  0
   -3.8456    5.8283  -16.3395 N   0  0  0  0  0  0  0  0  0  0  0  0
   -4.6665    5.6334  -17.3904 N   0  0  0  0  0  0  0  0  0  0  0  0
   -4.3527    6.1539  -18.7350 C   0  0  0  0  0  0  0  0  0  0  0  0
   -4.7140    5.2025  -19.8717 C   0  0  0  0  0  0  0  0  0  0  0  0
   -3.3091    4.7272  -19.9255 N   0  0  0  0  0  0  0  0  0  0  0  0
   -2.9036    5.9469  -19.1961 C   0  0  0  0  0  0  0  0  0  0  0  0
   -2.9255    4.6529  -20.8677 H   0  0  0  0  0  0  0  0  0  0  0  0
   -6.9444    6.1487  -12.9737 O   0  0  0  0  0  0  0  0  0  0  0  0
   -7.1749    4.8219  -13.4129 C   0  0  0  0  0  0  0  0  0  0  0  0
   -6.1803    4.0986  -12.8534 F   0  0  0  0  0  0  0  0  0  0  0  0
   -6.9746    6.1783  -12.0046 H   0  0  0  0  0  0  0  0  0  0  0  0
   -8.4767    4.4821  -12.9172 N   0  0  0  0  0  0  0  0  0  0  0  0
   -9.2972    4.4547  -13.4606 H   0  0  0  0  0  0  0  0  0  0  0  0
   -8.4122    4.1965  -11.5561 C   0  0  0  0  0  0  0  0  0  0  0  0
   -8.4902    2.9362  -11.1312 N   0  0  0  0  0  0  0  0  0  0  0  0
   -8.4815    2.7434   -9.7971 C   0  0  0  0  0  0  0  0  0  0  0  0
   -8.4058    3.7637   -8.8837 C   0  0  0  0  0  0  0  0  0  0  0  0
   -8.3276    5.0212   -9.4228 C   0  0  0  0  0  0  0  0  0  0  0  0
   -8.3256    5.2675  -10.7482 N   0  0  0  0  0  0  0  0  0  0  0  0
 17 16  1  0  0  0
 17 18  1  0  0  0
 17 20  1  0  0  0
 20 22  1  0  0  0
 22 23  2  0  0  0
 23 24  1  0  0  0
 24 25  2  0  0  0
 25 26  1  0  0  0
 26 27  2  0  0  0
 17  1  1  0  0  0
  1  2  2  0  0  0
  2  3  1  0  0  0
  3  4  1  0  0  0
  3  5  2  0  0  0
  5  6  1  0  0  0
  6  7  2  0  0  0
  7  8  1  0  0  0
  8  9  2  0  0  0
  9 10  1  0  0  0
 10 11  1  0  0  0
 11 12  1  0  0  0
 12 13  1  0  0  0
 13 14  1  0  0  0
 27 22  1  0  0  0
  7  1  1  0  0  0
 14 11  1  0  0  0
 10  6  1  0  0  0
 16 19  1  0  0  0
 20 21  1  0  0  0
 13 15  1  0  0  0
M  END
> <minimizedAffinity>
-7.14103

> <minimizedRMSD>
0.34963

$$$$
P30064


 26 29  0  0  0  0  0  0  0  0999 V2000
   -7.4460    5.0716  -14.6046 C   0  0  0  0  0  0  0  0  0  0  0  0
   -8.5684    4.7268  -15.3720 C   0  0  0  0  0  0  0  0  0  0  0  0
   -8.4453    4.5423  -16.7420 C   0  0  0  0  0  0  0  0  0  0  0  0
   -9.5248    4.2004  -17.4585 F   0  0  0  0  0  0  0  0  0  0  0  0
   -7.2412    4.7550  -17.4086 C   0  0  0  0  0  0  0  0  0  0  0  0
   -6.1128    5.0471  -16.6279 C   0  0  0  0  0  0  0  0  0  0  0  0
   -6.1884    5.1481  -15.2349 C   0  0  0  0  0  0  0  0  0  0  0  0
   -4.8553    5.3460  -14.8193 C   0  0  0  0  0  0  0  0  0  0  0  0
   -4.0096    5.4640  -15.8416 N   0  0  0  0  0  0  0  0  0  0  0  0
   -4.7949    5.3161  -16.9307 N   0  0  0  0  0  0  0  0  0  0  0  0
   -4.2881    5.7571  -18.2389 C   0  0  0  0  0  0  0  0  0  0  0  0
   -4.9228    5.1380  -19.4792 C   0  0  0  0  0  0  0  0  0  0  0  0
   -3.5520    4.9505  -20.0478 N   0  0  0  0  0  0  0  0  0  0  0  0
   -3.0324    4.9772  -18.6633 C   0  0  0  0  0  0  0  0  0  0  0  0
   -3.2287    5.7181  -20.6367 H   0  0  0  0  0  0  0  0  0  0  0  0
   -6.9864    7.7340  -13.3240 C   0  0  0  0  0  0  0  0  0  0  0  0
   -7.3937    6.4965  -12.7286 N   0  0  0  0  0  0  0  0  0  0  0  0
   -7.6084    5.3837  -13.1340 C   0  0  0  0  0  0  0  0  0  0  0  0
   -8.1006    4.1031  -12.3771 N   0  0  0  0  0  0  0  0  0  0  0  0
   -8.2433    3.3157  -12.9505 H   0  0  0  0  0  0  0  0  0  0  0  0
   -8.3652    3.8990  -11.0474 C   0  0  0  0  0  0  0  0  0  0  0  0
   -8.7811    2.6736  -10.7059 N   0  0  0  0  0  0  0  0  0  0  0  0
   -8.9834    2.4399   -9.3940 C   0  0  0  0  0  0  0  0  0  0  0  0
   -8.8210    3.3897   -8.4190 C   0  0  0  0  0  0  0  0  0  0  0  0
   -8.4286    4.6217   -8.8702 C   0  0  0  0  0  0  0  0  0  0  0  0
   -8.1968    4.8983  -10.1650 N   0  0  0  0  0  0  0  0  0  0  0  0
 16 17  1  0  0  0
 17 18  2  0  0  0
 18 19  1  0  0  0
 19 21  1  0  0  0
 21 22  2  0  0  0
 22 23  1  0  0  0
 23 24  2  0  0  0
 24 25  1  0  0  0
 25 26  2  0  0  0
 18  1  1  0  0  0
  1  2  2  0  0  0
  2  3  1  0  0  0
  3  4  1  0  0  0
  3  5  2  0  0  0
  5  6  1  0  0  0
  6  7  2  0  0  0
  7  8  1  0  0  0
  8  9  2  0  0  0
  9 10  1  0  0  0
 10 11  1  0  0  0
 11 12  1  0  0  0
 12 13  1  0  0  0
 13 14  1  0  0  0
 26 21  1  0  0  0
  7  1  1  0  0  0
 14 11  1  0  0  0
 10  6  1  0  0  0
 19 20  1  0  0  0
 13 15  1  0  0  0
M  END
> <minimizedAffinity>
-7.17130

> <minimizedRMSD>
0.36752

$$$$
P30065


 32 36  0  0  0  0  0  0  0  0999 V2000
   -9.3286    5.7745  -13.9011 O   0  0  0  0  0  0  0  0  0  0  0  0
   -8.5112    4.9373  -13.9727 C   0  0  0  0  0  0  0  0  0  0  0  0
   -7.8991    4.0249  -12.8649 N   0  0  0  0  0  0  0  0  0  0  0  0
   -7.2751    3.3384  -13.1945 H   0  0  0  0  0  0  0  0  0  0  0  0
   -8.0896    4.0238  -11.5032 C   0  0  0  0  0  0  0  0  0  0  0  0
   -8.0297    5.1677  -10.9026 N   0  0  0  0  0  0  0  0  0  0  0  0
   -8.2232    5.1635   -9.5486 C   0  0  0  0  0  0  0  0  0  0  0  0
   -8.6739    4.1167   -8.8356 C   0  0  0  0  0  0  0  0  0  0  0  0
   -8.9214    4.1794   -7.4566 N   0  0  0  0  0  0  0  0  0  0  0  0
   -9.0087    2.9615   -6.6532 C   0  0  0  0  0  0  0  0  0  0  0  0
   -9.5048    1.7749   -7.4962 C   0  0  0  0  0  0  0  0  0  0  0  0
   -8.7912    1.6203   -8.7737 N   0  0  0  0  0  0  0  0  0  0  0  0
   -8.9832    2.8108   -9.6002 C   0  0  0  0  0  0  0  0  0  0  0  0
   -8.3160    2.8321  -10.8837 N   0  0  0  0  0  0  0  0  0  0  0  0
   -9.0378    5.0560   -7.0237 H   0  0  0  0  0  0  0  0  0  0  0  0
   -9.1540    0.8045   -9.2669 H   0  0  0  0  0  0  0  0  0  0  0  0
   -8.0276    1.9910  -11.3065 H   0  0  0  0  0  0  0  0  0  0  0  0
   -7.9988    4.6392  -15.3261 C   0  0  0  0  0  0  0  0  0  0  0  0
   -8.8592    4.2160  -16.3439 C   0  0  0  0  0  0  0  0  0  0  0  0
   -8.4110    4.2149  -17.6587 C   0  0  0  0  0  0  0  0  0  0  0  0
   -9.2314    3.8317  -18.6430 F   0  0  0  0  0  0  0  0  0  0  0  0
   -7.1382    4.6515  -18.0124 C   0  0  0  0  0  0  0  0  0  0  0  0
   -6.2725    5.0390  -16.9830 C   0  0  0  0  0  0  0  0  0  0  0  0
   -6.6782    5.0209  -15.6461 C   0  0  0  0  0  0  0  0  0  0  0  0
   -5.5588    5.4911  -14.9278 C   0  0  0  0  0  0  0  0  0  0  0  0
   -4.5284    5.7921  -15.7177 N   0  0  0  0  0  0  0  0  0  0  0  0
   -4.9861    5.5342  -16.9625 N   0  0  0  0  0  0  0  0  0  0  0  0
   -4.2364    6.0520  -18.1177 C   0  0  0  0  0  0  0  0  0  0  0  0
   -5.0193    6.3424  -19.3943 C   0  0  0  0  0  0  0  0  0  0  0  0
   -3.9328    5.6765  -20.1756 N   0  0  0  0  0  0  0  0  0  0  0  0
   -3.5934    4.9247  -18.9435 C   0  0  0  0  0  0  0  0  0  0  0  0
   -3.2002    6.3048  -20.5056 H   0  0  0  0  0  0  0  0  0  0  0  0
  1  2  2  0  0  0
  2  3  1  0  0  0
  3  5  1  0  0  0
  5  6  2  0  0  0
  6  7  1  0  0  0
  7  8  2  0  0  0
  8  9  1  0  0  0
  9 10  1  0  0  0
 10 11  1  0  0  0
 11 12  1  0  0  0
 13 12  1  0  0  0
 13 14  1  0  0  0
  2 18  1  0  0  0
 18 19  2  0  0  0
 19 20  1  0  0  0
 20 21  1  0  0  0
 20 22  2  0  0  0
 22 23  1  0  0  0
 23 24  2  0  0  0
 24 25  1  0  0  0
 25 26  2  0  0  0
 26 27  1  0  0  0
 27 28  1  0  0  0
 28 29  1  0  0  0
 29 30  1  0  0  0
 30 31  1  0  0  0
 14  5  1  0  0  0
 24 18  1  0  0  0
 31 28  1  0  0  0
 13  8  1  0  0  0
 27 23  1  0  0  0
  3  4  1  0  0  0
  9 15  1  0  0  0
 12 16  1  0  0  0
 14 17  1  0  0  0
 30 32  1  0  0  0
M  END
> <minimizedAffinity>
-10.17691

> <minimizedRMSD>
0.75626

$$$$
P30066


 27 30  0  0  0  0  0  0  0  0999 V2000
   -8.1004    4.7316  -15.4274 C   0  0  0  0  0  0  0  0  0  0  0  0
   -8.9953    4.2958  -16.4065 C   0  0  0  0  0  0  0  0  0  0  0  0
   -8.5674    4.1751  -17.7167 C   0  0  0  0  0  0  0  0  0  0  0  0
   -9.4280    3.7499  -18.6500 F   0  0  0  0  0  0  0  0  0  0  0  0
   -7.2784    4.5320  -18.1091 C   0  0  0  0  0  0  0  0  0  0  0  0
   -6.3737    4.9360  -17.1147 C   0  0  0  0  0  0  0  0  0  0  0  0
   -6.7624    4.9895  -15.7688 C   0  0  0  0  0  0  0  0  0  0  0  0
   -5.5840    5.3241  -15.0968 C   0  0  0  0  0  0  0  0  0  0  0  0
   -5.3466    5.4531  -13.7950 O   0  0  0  0  0  0  0  0  0  0  0  0
   -4.5361    5.5177  -15.8778 N   0  0  0  0  0  0  0  0  0  0  0  0
   -5.0646    5.3831  -17.1202 N   0  0  0  0  0  0  0  0  0  0  0  0
   -6.0409    5.3306  -13.1778 H   0  0  0  0  0  0  0  0  0  0  0  0
   -4.3340    6.0088  -18.2268 C   0  0  0  0  0  0  0  0  0  0  0  0
   -3.8248    4.9782  -19.2481 C   0  0  0  0  0  0  0  0  0  0  0  0
   -3.9869    6.0415  -20.2750 N   0  0  0  0  0  0  0  0  0  0  0  0
   -5.0882    6.5718  -19.4267 C   0  0  0  0  0  0  0  0  0  0  0  0
   -4.2768    5.7083  -21.1945 H   0  0  0  0  0  0  0  0  0  0  0  0
   -9.3743    5.9206  -13.9714 O   0  0  0  0  0  0  0  0  0  0  0  0
   -8.5900    5.0663  -14.0776 C   0  0  0  0  0  0  0  0  0  0  0  0
   -7.9616    4.1560  -13.0169 N   0  0  0  0  0  0  0  0  0  0  0  0
   -7.2581    3.5555  -13.3540 H   0  0  0  0  0  0  0  0  0  0  0  0
   -8.2189    4.0416  -11.6768 C   0  0  0  0  0  0  0  0  0  0  0  0
   -8.5377    2.8081  -11.2695 N   0  0  0  0  0  0  0  0  0  0  0  0
   -8.7333    2.6446   -9.9472 C   0  0  0  0  0  0  0  0  0  0  0  0
   -8.6402    3.6685   -9.0380 C   0  0  0  0  0  0  0  0  0  0  0  0
   -8.3282    4.8964   -9.5675 C   0  0  0  0  0  0  0  0  0  0  0  0
   -8.1130    5.1107  -10.8779 N   0  0  0  0  0  0  0  0  0  0  0  0
 18 19  2  0  0  0
 19 20  1  0  0  0
 20 22  1  0  0  0
 22 23  2  0  0  0
 23 24  1  0  0  0
 24 25  2  0  0  0
 25 26  1  0  0  0
 26 27  2  0  0  0
 19  1  1  0  0  0
  1  2  2  0  0  0
  2  3  1  0  0  0
  3  4  1  0  0  0
  3  5  2  0  0  0
  5  6  1  0  0  0
  6  7  2  0  0  0
  7  8  1  0  0  0
  8  9  1  0  0  0
  8 10  2  0  0  0
 10 11  1  0  0  0
 11 13  1  0  0  0
 13 14  1  0  0  0
 14 15  1  0  0  0
 15 16  1  0  0  0
 27 22  1  0  0  0
  7  1  1  0  0  0
 16 13  1  0  0  0
 11  6  1  0  0  0
 20 21  1  0  0  0
  9 12  1  0  0  0
 15 17  1  0  0  0
M  END
> <minimizedAffinity>
-8.59180

> <minimizedRMSD>
0.80954

$$$$
P30068


 28 31  0  0  0  0  0  0  0  0999 V2000
   -5.1803    5.5221  -15.5146 C   0  0  0  0  0  0  0  0  0  0  0  0
   -4.4417    5.5405  -16.6288 N   0  0  0  0  0  0  0  0  0  0  0  0
   -5.3217    5.1929  -17.5843 N   0  0  0  0  0  0  0  0  0  0  0  0
   -6.5774    4.9095  -17.1121 C   0  0  0  0  0  0  0  0  0  0  0  0
   -7.7300    4.4623  -17.7655 C   0  0  0  0  0  0  0  0  0  0  0  0
   -8.8505    4.2324  -16.9832 C   0  0  0  0  0  0  0  0  0  0  0  0
   -9.9581    3.7821  -17.5822 F   0  0  0  0  0  0  0  0  0  0  0  0
   -8.8591    4.4939  -15.6210 C   0  0  0  0  0  0  0  0  0  0  0  0
   -7.7055    4.9790  -14.9865 C   0  0  0  0  0  0  0  0  0  0  0  0
   -6.5275    5.1539  -15.7410 C   0  0  0  0  0  0  0  0  0  0  0  0
   -4.9996    5.0625  -19.0074 C   0  0  0  0  0  0  0  0  0  0  0  0
   -3.5169    5.0885  -19.3723 C   0  0  0  0  0  0  0  0  0  0  0  0
   -3.8913    5.8930  -20.5767 N   0  0  0  0  0  0  0  0  0  0  0  0
   -5.0377    6.3996  -19.7617 C   0  0  0  0  0  0  0  0  0  0  0  0
   -4.1552    5.3443  -21.3950 H   0  0  0  0  0  0  0  0  0  0  0  0
   -7.7817    5.4567  -13.5880 C   0  0  0  0  0  0  0  0  0  0  0  0
   -7.6377    6.5986  -13.4002 O   0  0  0  0  0  0  0  0  0  0  0  0
   -8.1400    4.3221  -12.6118 N   0  0  0  0  0  0  0  0  0  0  0  0
   -8.2796    3.4439  -13.0343 H   0  0  0  0  0  0  0  0  0  0  0  0
   -8.2968    4.3349  -11.2481 C   0  0  0  0  0  0  0  0  0  0  0  0
   -8.0940    5.4762  -10.5792 N   0  0  0  0  0  0  0  0  0  0  0  0
   -8.2307    5.4181   -9.2451 C   0  0  0  0  0  0  0  0  0  0  0  0
   -8.5653    4.2750   -8.5644 C   0  0  0  0  0  0  0  0  0  0  0  0
   -8.7857    3.1568   -9.3392 C   0  0  0  0  0  0  0  0  0  0  0  0
   -9.1432    1.8572   -8.6856 C   0  0  0  0  0  0  0  0  0  0  0  0
   -8.6506    3.1713  -10.6856 N   0  0  0  0  0  0  0  0  0  0  0  0
   -3.2775    6.2331  -14.3656 C   0  0  0  0  0  0  0  0  0  0  0  0
   -4.6176    5.7647  -14.3103 O   0  0  0  0  0  0  0  0  0  0  0  0
 27 28  1  0  0  0
 28  1  1  0  0  0
  1  2  2  0  0  0
  2  3  1  0  0  0
  3 11  1  0  0  0
 11 12  1  0  0  0
 12 13  1  0  0  0
 13 14  1  0  0  0
  3  4  1  0  0  0
  4  5  2  0  0  0
  5  6  1  0  0  0
  6  7  1  0  0  0
  6  8  2  0  0  0
  8  9  1  0  0  0
  9 16  1  0  0  0
 16 17  2  0  0  0
 16 18  1  0  0  0
 18 20  1  0  0  0
 20 21  2  0  0  0
 21 22  1  0  0  0
 22 23  2  0  0  0
 23 24  1  0  0  0
 24 25  1  0  0  0
 24 26  2  0  0  0
  9 10  2  0  0  0
 10  1  1  0  0  0
 14 11  1  0  0  0
 10  4  1  0  0  0
 26 20  1  0  0  0
 13 15  1  0  0  0
 18 19  1  0  0  0
M  END
> <minimizedAffinity>
-7.98990

> <minimizedRMSD>
0.24426

$$$$
P30075


 26 29  0  0  0  0  0  0  0  0999 V2000
   -7.5607    5.0659  -15.1211 C   0  0  0  0  0  0  0  0  0  0  0  0
   -8.6918    4.5003  -15.7225 C   0  0  0  0  0  0  0  0  0  0  0  0
   -8.6827    4.2147  -17.0821 C   0  0  0  0  0  0  0  0  0  0  0  0
   -9.7806    3.7049  -17.6539 F   0  0  0  0  0  0  0  0  0  0  0  0
   -7.5734    4.4629  -17.8858 C   0  0  0  0  0  0  0  0  0  0  0  0
   -6.4464    5.0197  -17.2690 C   0  0  0  0  0  0  0  0  0  0  0  0
   -6.4195    5.3268  -15.9104 C   0  0  0  0  0  0  0  0  0  0  0  0
   -5.1323    5.8740  -15.7027 C   0  0  0  0  0  0  0  0  0  0  0  0
   -4.3894    5.8975  -16.8095 N   0  0  0  0  0  0  0  0  0  0  0  0
   -5.2056    5.3752  -17.7435 N   0  0  0  0  0  0  0  0  0  0  0  0
   -4.7309    5.0459  -19.0842 C   0  0  0  0  0  0  0  0  0  0  0  0
   -4.4963    6.2616  -19.9909 C   0  0  0  0  0  0  0  0  0  0  0  0
   -3.3196    5.5182  -20.5424 N   0  0  0  0  0  0  0  0  0  0  0  0
   -3.2089    4.8651  -19.2105 C   0  0  0  0  0  0  0  0  0  0  0  0
   -2.5252    6.1047  -20.7981 H   0  0  0  0  0  0  0  0  0  0  0  0
   -8.1813    4.4695  -12.7600 N   0  0  0  0  0  0  0  0  0  0  0  0
   -7.5754    5.5181  -13.7097 C   0  0  0  0  0  0  0  0  0  0  0  0
   -7.1426    6.5787  -13.4887 O   0  0  0  0  0  0  0  0  0  0  0  0
   -8.5496    3.6731  -13.2065 H   0  0  0  0  0  0  0  0  0  0  0  0
   -9.0694    1.9810   -8.8084 C   0  0  0  0  0  0  0  0  0  0  0  0
   -8.7109    3.2755   -9.4720 C   0  0  0  0  0  0  0  0  0  0  0  0
   -8.4265    4.3794   -8.6971 C   0  0  0  0  0  0  0  0  0  0  0  0
   -8.0985    5.5218   -9.3811 C   0  0  0  0  0  0  0  0  0  0  0  0
   -8.0257    5.5912  -10.7197 N   0  0  0  0  0  0  0  0  0  0  0  0
   -8.2919    4.4635  -11.3906 C   0  0  0  0  0  0  0  0  0  0  0  0
   -8.6394    3.3002  -10.8244 N   0  0  0  0  0  0  0  0  0  0  0  0
 20 21  1  0  0  0
 21 22  2  0  0  0
 22 23  1  0  0  0
 23 24  2  0  0  0
 24 25  1  0  0  0
 25 16  1  0  0  0
 16 17  1  0  0  0
 17 18  2  0  0  0
 17  1  1  0  0  0
  1  2  2  0  0  0
  2  3  1  0  0  0
  3  4  1  0  0  0
  3  5  2  0  0  0
  5  6  1  0  0  0
  6  7  2  0  0  0
  7  8  1  0  0  0
  8  9  2  0  0  0
  9 10  1  0  0  0
 10 11  1  0  0  0
 11 12  1  0  0  0
 12 13  1  0  0  0
 13 14  1  0  0  0
 25 26  2  0  0  0
 26 21  1  0  0  0
  7  1  1  0  0  0
 14 11  1  0  0  0
 10  6  1  0  0  0
 16 19  1  0  0  0
 13 15  1  0  0  0
M  END
> <minimizedAffinity>
-8.09224

> <minimizedRMSD>
0.48573

$$$$
P30082


 36 41  0  0  0  0  0  0  0  0999 V2000
   -8.8210    6.1654  -13.6663 N   0  0  0  0  0  0  0  0  0  0  0  0
   -8.2649    5.0856  -13.8345 C   0  0  0  0  0  0  0  0  0  0  0  0
   -7.8774    4.7924  -15.2517 C   0  0  0  0  0  0  0  0  0  0  0  0
   -8.8217    4.4005  -16.2113 C   0  0  0  0  0  0  0  0  0  0  0  0
   -8.4427    4.3146  -17.5471 C   0  0  0  0  0  0  0  0  0  0  0  0
   -9.3233    3.9576  -18.4870 F   0  0  0  0  0  0  0  0  0  0  0  0
   -7.1662    4.6429  -17.9785 C   0  0  0  0  0  0  0  0  0  0  0  0
   -6.2224    4.9831  -17.0084 C   0  0  0  0  0  0  0  0  0  0  0  0
   -6.5438    5.0349  -15.6549 C   0  0  0  0  0  0  0  0  0  0  0  0
   -5.3295    5.3853  -15.0228 C   0  0  0  0  0  0  0  0  0  0  0  0
   -4.3385    5.6080  -15.8881 N   0  0  0  0  0  0  0  0  0  0  0  0
   -4.9053    5.3771  -17.0915 N   0  0  0  0  0  0  0  0  0  0  0  0
   -4.3090    5.8973  -18.3382 C   0  0  0  0  0  0  0  0  0  0  0  0
   -3.3427    4.9443  -19.0320 C   0  0  0  0  0  0  0  0  0  0  0  0
   -2.1915    5.6637  -18.4430 N   0  0  0  0  0  0  0  0  0  0  0  0
   -3.0850    6.8008  -18.1452 C   0  0  0  0  0  0  0  0  0  0  0  0
   -1.4465    5.8777  -19.1059 H   0  0  0  0  0  0  0  0  0  0  0  0
   -7.9072    3.9311  -12.7946 N   0  0  0  0  0  0  0  0  0  0  0  0
   -7.5269    3.1176  -13.1981 H   0  0  0  0  0  0  0  0  0  0  0  0
   -8.0429    3.8844  -11.4235 C   0  0  0  0  0  0  0  0  0  0  0  0
   -8.8213    2.8870  -10.9788 N   0  0  0  0  0  0  0  0  0  0  0  0
   -8.9504    2.7390   -9.6445 C   0  0  0  0  0  0  0  0  0  0  0  0
   -8.3556    3.5675   -8.7316 C   0  0  0  0  0  0  0  0  0  0  0  0
   -7.6208    4.5849   -9.2761 C   0  0  0  0  0  0  0  0  0  0  0  0
   -7.4736    4.7708  -10.6016 N   0  0  0  0  0  0  0  0  0  0  0  0
   -9.0912    6.5199  -12.3531 O   0  0  0  0  0  0  0  0  0  0  0  0
  -11.1808   10.6517  -14.1788 C   0  0  0  0  0  0  0  0  0  0  0  0
  -10.5350    9.9042  -13.0381 C   0  0  0  0  0  0  0  0  0  0  0  0
  -10.1100    8.5003  -13.3022 C   0  0  0  0  0  0  0  0  0  0  0  0
   -9.5276    7.8375  -12.2834 C   0  0  0  0  0  0  0  0  0  0  0  0
   -9.3731    8.5006  -11.0575 N   0  0  0  0  0  0  0  0  0  0  0  0
   -8.8234    8.0762   -9.8842 N   0  0  0  0  0  0  0  0  0  0  0  0
   -8.9573    9.1444   -9.1042 C   0  0  0  0  0  0  0  0  0  0  0  0
   -9.5481   10.2273   -9.6687 N   0  0  0  0  0  0  0  0  0  0  0  0
   -9.8070    9.8286  -10.8958 C   0  0  0  0  0  0  0  0  0  0  0  0
  -10.3949   10.5293  -11.9085 N   0  0  0  0  0  0  0  0  0  0  0  0
 27 28  1  0  0  0
 28 29  1  0  0  0
 29 30  2  0  0  0
 30 26  1  0  0  0
 26  1  1  0  0  0
  1  2  2  0  0  0
  2 18  1  0  0  0
 18 20  1  0  0  0
 20 21  2  0  0  0
 21 22  1  0  0  0
 22 23  2  0  0  0
 23 24  1  0  0  0
 24 25  2  0  0  0
  2  3  1  0  0  0
  3  4  2  0  0  0
  4  5  1  0  0  0
  5  6  1  0  0  0
  5  7  2  0  0  0
  7  8  1  0  0  0
  8  9  2  0  0  0
  9 10  1  0  0  0
 10 11  2  0  0  0
 11 12  1  0  0  0
 12 13  1  0  0  0
 13 14  1  0  0  0
 14 15  1  0  0  0
 15 16  1  0  0  0
 30 31  1  0  0  0
 31 32  1  0  0  0
 32 33  2  0  0  0
 33 34  1  0  0  0
 34 35  2  0  0  0
 35 36  1  0  0  0
 36 28  2  0  0  0
 25 20  1  0  0  0
  9  3  1  0  0  0
 16 13  1  0  0  0
 35 31  1  0  0  0
 12  8  1  0  0  0
 18 19  1  0  0  0
 15 17  1  0  0  0
M  END
> <minimizedAffinity>
-8.07943

> <minimizedRMSD>
2.27493

$$$$
P30086


 26 29  0  0  0  0  0  0  0  0999 V2000
   -3.9460    5.8027  -14.6154 C   0  0  0  0  0  0  0  0  0  0  0  0
   -4.7797    5.5086  -15.8095 C   0  0  0  0  0  0  0  0  0  0  0  0
   -4.2132    5.5617  -17.0219 N   0  0  0  0  0  0  0  0  0  0  0  0
   -5.1999    5.2219  -17.8662 N   0  0  0  0  0  0  0  0  0  0  0  0
   -6.3835    4.9160  -17.2362 C   0  0  0  0  0  0  0  0  0  0  0  0
   -7.6178    4.4818  -17.7360 C   0  0  0  0  0  0  0  0  0  0  0  0
   -8.6454    4.2894  -16.8263 C   0  0  0  0  0  0  0  0  0  0  0  0
   -9.8265    3.8530  -17.2811 F   0  0  0  0  0  0  0  0  0  0  0  0
   -8.4898    4.5823  -15.4811 C   0  0  0  0  0  0  0  0  0  0  0  0
   -7.2522    5.0227  -14.9826 C   0  0  0  0  0  0  0  0  0  0  0  0
   -6.1633    5.1656  -15.8785 C   0  0  0  0  0  0  0  0  0  0  0  0
   -5.1153    5.4849  -19.3165 C   0  0  0  0  0  0  0  0  0  0  0  0
   -3.6965    5.7269  -19.8207 C   0  0  0  0  0  0  0  0  0  0  0  0
   -3.9168    7.1932  -19.7412 N   0  0  0  0  0  0  0  0  0  0  0  0
   -5.3729    6.9384  -19.7389 C   0  0  0  0  0  0  0  0  0  0  0  0
   -3.5814    7.7142  -20.5514 H   0  0  0  0  0  0  0  0  0  0  0  0
   -7.1132    5.3920  -13.5532 C   0  0  0  0  0  0  0  0  0  0  0  0
   -7.2721    6.5586  -13.2240 O   0  0  0  0  0  0  0  0  0  0  0  0
   -6.7416    4.3216  -12.5503 C   0  0  0  0  0  0  0  0  0  0  0  0
   -5.7707    3.6200  -12.8145 O   0  0  0  0  0  0  0  0  0  0  0  0
   -7.4650    4.1530  -11.2733 C   0  0  0  0  0  0  0  0  0  0  0  0
   -8.2346    3.0488  -11.2038 N   0  0  0  0  0  0  0  0  0  0  0  0
   -8.8322    2.7972  -10.0308 C   0  0  0  0  0  0  0  0  0  0  0  0
   -8.7041    3.6235   -8.9421 C   0  0  0  0  0  0  0  0  0  0  0  0
   -7.9249    4.7449   -9.1277 C   0  0  0  0  0  0  0  0  0  0  0  0
   -7.2955    5.0437  -10.2809 N   0  0  0  0  0  0  0  0  0  0  0  0
  1  2  1  0  0  0
  2  3  2  0  0  0
  3  4  1  0  0  0
  4 12  1  0  0  0
 12 13  1  0  0  0
 13 14  1  0  0  0
 14 15  1  0  0  0
  4  5  1  0  0  0
  5  6  2  0  0  0
  6  7  1  0  0  0
  7  8  1  0  0  0
  7  9  2  0  0  0
  9 10  1  0  0  0
 10 17  1  0  0  0
 17 18  2  0  0  0
 17 19  1  0  0  0
 19 20  2  0  0  0
 19 21  1  0  0  0
 21 22  2  0  0  0
 22 23  1  0  0  0
 23 24  2  0  0  0
 24 25  1  0  0  0
 25 26  2  0  0  0
 10 11  2  0  0  0
 11  2  1  0  0  0
 15 12  1  0  0  0
 11  5  1  0  0  0
 26 21  1  0  0  0
 14 16  1  0  0  0
M  END
> <minimizedAffinity>
-7.35065

> <minimizedRMSD>
1.02425

$$$$
P30095


 39 43  0  0  0  0  0  0  0  0999 V2000
   -5.5566    5.5474  -13.1277 C   0  0  0  0  0  0  0  0  0  0  0  0
   -6.3241    5.1888  -14.3640 C   0  0  0  0  0  0  0  0  0  0  0  0
   -7.7108    4.9337  -14.3966 C   0  0  0  0  0  0  0  0  0  0  0  0
   -8.3998    4.6510  -15.5764 C   0  0  0  0  0  0  0  0  0  0  0  0
   -7.7177    4.6327  -16.7958 C   0  0  0  0  0  0  0  0  0  0  0  0
   -8.4202    4.4167  -17.9154 F   0  0  0  0  0  0  0  0  0  0  0  0
   -6.3477    4.9307  -16.7759 C   0  0  0  0  0  0  0  0  0  0  0  0
   -5.6744    5.1776  -15.5882 C   0  0  0  0  0  0  0  0  0  0  0  0
   -4.3653    5.4604  -15.8029 N   0  0  0  0  0  0  0  0  0  0  0  0
   -4.1772    5.4711  -17.0932 N   0  0  0  0  0  0  0  0  0  0  0  0
   -5.3516    5.1699  -17.6974 N   0  0  0  0  0  0  0  0  0  0  0  0
   -5.3586    5.1944  -19.0791 C   0  0  0  0  0  0  0  0  0  0  0  0
   -6.1241    4.3956  -19.6009 O   0  0  0  0  0  0  0  0  0  0  0  0
   -4.2956    6.2392  -19.7676 C   0  0  0  0  0  0  0  0  0  0  0  0
   -4.9804    7.2700  -20.7353 C   0  0  0  0  0  0  0  0  0  0  0  0
   -5.0982    8.1586  -19.4843 C   0  0  0  0  0  0  0  0  0  0  0  0
   -3.9238    7.4724  -18.9551 N   0  0  0  0  0  0  0  0  0  0  0  0
   -3.9426    7.3294  -17.9453 H   0  0  0  0  0  0  0  0  0  0  0  0
   -3.0731    5.5297  -20.3661 C   0  0  0  0  0  0  0  0  0  0  0  0
   -1.7351    5.9175  -19.7819 C   0  0  0  0  0  0  0  0  0  0  0  0
   -1.1829    5.2182  -18.7039 C   0  0  0  0  0  0  0  0  0  0  0  0
    0.0507    5.5978  -18.1698 C   0  0  0  0  0  0  0  0  0  0  0  0
    0.7486    6.6749  -18.7114 C   0  0  0  0  0  0  0  0  0  0  0  0
    0.2113    7.3783  -19.7858 C   0  0  0  0  0  0  0  0  0  0  0  0
   -1.0238    7.0035  -20.3169 C   0  0  0  0  0  0  0  0  0  0  0  0
   -8.4099    5.2808  -13.1545 C   0  0  0  0  0  0  0  0  0  0  0  0
   -9.0022    6.2816  -13.1052 O   0  0  0  0  0  0  0  0  0  0  0  0
   -8.1272    4.2398  -12.0694 N   0  0  0  0  0  0  0  0  0  0  0  0
   -7.6618    3.4318  -12.3851 H   0  0  0  0  0  0  0  0  0  0  0  0
   -8.4143    4.2485  -10.7385 C   0  0  0  0  0  0  0  0  0  0  0  0
   -8.1665    5.3962  -10.0884 N   0  0  0  0  0  0  0  0  0  0  0  0
   -8.2209    5.3417   -8.7534 C   0  0  0  0  0  0  0  0  0  0  0  0
   -8.5684    4.2095   -8.0668 C   0  0  0  0  0  0  0  0  0  0  0  0
   -8.8311    3.0825   -8.8261 C   0  0  0  0  0  0  0  0  0  0  0  0
   -8.6716    3.0732  -10.1672 N   0  0  0  0  0  0  0  0  0  0  0  0
   -9.3877    1.8255   -8.1992 C   0  0  0  0  0  0  0  0  0  0  0  0
   -9.1639    1.7454   -6.7508 N   0  0  0  0  0  0  0  0  0  0  0  0
   -8.1617    1.7306   -6.5619 H   0  0  0  0  0  0  0  0  0  0  0  0
   -9.5910    0.8933   -6.3874 H   0  0  0  0  0  0  0  0  0  0  0  0
  1  2  1  0  0  0
  2  3  2  0  0  0
  3 26  1  0  0  0
 26 27  2  0  0  0
 26 28  1  0  0  0
 28 30  1  0  0  0
 30 31  2  0  0  0
 31 32  1  0  0  0
 32 33  2  0  0  0
 33 34  1  0  0  0
 34 36  1  0  0  0
 36 37  1  0  0  0
 34 35  2  0  0  0
  3  4  1  0  0  0
  4  5  2  0  0  0
  5  6  1  0  0  0
  5  7  1  0  0  0
  7  8  2  0  0  0
  8  9  1  0  0  0
  9 10  2  0  0  0
 10 11  1  0  0  0
 11 12  1  0  0  0
 12 13  2  0  0  0
 12 14  1  0  0  0
 14 19  1  0  0  0
 19 20  1  0  0  0
 20 21  2  0  0  0
 21 22  1  0  0  0
 22 23  2  0  0  0
 23 24  1  0  0  0
 24 25  2  0  0  0
 14 15  1  0  0  0
 15 16  1  0  0  0
 16 17  1  0  0  0
  8  2  1  0  0  0
 17 14  1  0  0  0
 35 30  1  0  0  0
 11  7  1  0  0  0
 25 20  1  0  0  0
 28 29  1  0  0  0
 37 38  1  0  0  0
 37 39  1  0  0  0
 17 18  1  0  0  0
M  END
> <minimizedAffinity>
-8.76101

> <minimizedRMSD>
0.38620

$$$$
P30103


 38 42  0  0  0  0  0  0  0  0999 V2000
   -7.4523    5.1984  -13.6739 C   0  0  0  0  0  0  0  0  0  0  0  0
   -6.1523    5.6119  -13.2927 O   0  0  0  0  0  0  0  0  0  0  0  0
   -6.1454    5.8254  -12.3466 H   0  0  0  0  0  0  0  0  0  0  0  0
   -7.4738    4.8574  -15.1736 C   0  0  0  0  0  0  0  0  0  0  0  0
   -8.6920    4.4207  -15.7634 C   0  0  0  0  0  0  0  0  0  0  0  0
   -8.8089    4.1705  -17.1187 C   0  0  0  0  0  0  0  0  0  0  0  0
   -9.9784    3.7375  -17.6127 F   0  0  0  0  0  0  0  0  0  0  0  0
   -7.7419    4.3816  -17.9782 C   0  0  0  0  0  0  0  0  0  0  0  0
   -6.5257    4.8069  -17.4203 C   0  0  0  0  0  0  0  0  0  0  0  0
   -6.3770    5.0331  -16.0490 C   0  0  0  0  0  0  0  0  0  0  0  0
   -5.0339    5.4503  -15.9050 C   0  0  0  0  0  0  0  0  0  0  0  0
   -4.3850    5.5277  -17.0644 N   0  0  0  0  0  0  0  0  0  0  0  0
   -5.2945    5.1026  -17.9645 N   0  0  0  0  0  0  0  0  0  0  0  0
   -4.9809    5.2203  -19.3925 C   0  0  0  0  0  0  0  0  0  0  0  0
   -3.5176    5.4216  -19.7606 C   0  0  0  0  0  0  0  0  0  0  0  0
   -3.9347    6.4869  -20.7239 N   0  0  0  0  0  0  0  0  0  0  0  0
   -5.1558    6.6619  -19.9025 C   0  0  0  0  0  0  0  0  0  0  0  0
   -4.1050    6.1580  -21.6743 H   0  0  0  0  0  0  0  0  0  0  0  0
   -8.3191    8.8209  -12.3946 C   0  0  0  0  0  0  0  0  0  0  0  0
   -7.8298    7.5510  -12.8322 N   0  0  0  0  0  0  0  0  0  0  0  0
   -8.5777    6.3492  -13.4923 C   0  0  0  0  0  0  0  0  0  0  0  0
   -9.6918    6.2496  -13.8468 O   0  0  0  0  0  0  0  0  0  0  0  0
   -6.8649    7.4114  -12.6953 H   0  0  0  0  0  0  0  0  0  0  0  0
   -7.7776    4.0068  -12.9207 N   0  0  0  0  0  0  0  0  0  0  0  0
   -7.0376    3.3331  -13.1179 H   0  0  0  0  0  0  0  0  0  0  0  0
   -7.9303    4.0289  -11.5053 C   0  0  0  0  0  0  0  0  0  0  0  0
   -6.6244    3.9778  -10.9206 N   0  0  0  0  0  0  0  0  0  0  0  0
   -6.6918    3.8654   -9.4345 C   0  0  0  0  0  0  0  0  0  0  0  0
   -7.9736    4.4114   -8.7881 C   0  0  0  0  0  0  0  0  0  0  0  0
   -7.8651    4.9470   -7.3573 C   0  0  0  0  0  0  0  0  0  0  0  0
   -8.3191    3.8133   -6.4755 C   0  0  0  0  0  0  0  0  0  0  0  0
   -9.2403    3.0861   -7.2617 O   0  0  0  0  0  0  0  0  0  0  0  0
   -8.9253    3.2562   -8.5705 C   0  0  0  0  0  0  0  0  0  0  0  0
   -9.3602    2.5242   -9.4400 O   0  0  0  0  0  0  0  0  0  0  0  0
   -8.4775    5.5357   -9.6792 C   0  0  0  0  0  0  0  0  0  0  0  0
   -8.5470    5.2495  -11.1019 N   0  0  0  0  0  0  0  0  0  0  0  0
   -6.1185    4.8290  -11.1656 H   0  0  0  0  0  0  0  0  0  0  0  0
   -8.0908    6.0135  -11.6004 H   0  0  0  0  0  0  0  0  0  0  0  0
 19 20  1  0  0  0
 20 21  1  0  0  0
 21 22  2  0  0  0
 21  1  1  0  0  0
  1  2  1  0  0  0
  1 24  1  0  0  0
 26 24  1  0  0  0
 26 27  1  0  0  0
 27 28  1  0  0  0
 29 28  1  0  0  0
 29 30  1  0  0  0
 30 31  1  0  0  0
 31 32  1  0  0  0
 32 33  1  0  0  0
 33 34  2  0  0  0
 29 35  1  0  0  0
 35 36  1  0  0  0
  1  4  1  0  0  0
  4  5  2  0  0  0
  5  6  1  0  0  0
  6  7  1  0  0  0
  6  8  2  0  0  0
  8  9  1  0  0  0
  9 10  2  0  0  0
 10 11  1  0  0  0
 11 12  2  0  0  0
 12 13  1  0  0  0
 13 14  1  0  0  0
 14 15  1  0  0  0
 15 16  1  0  0  0
 16 17  1  0  0  0
 36 26  1  0  0  0
 10  4  1  0  0  0
 17 14  1  0  0  0
 33 29  1  0  0  0
 13  9  1  0  0  0
 20 23  1  0  0  0
  2  3  1  0  0  0
 24 25  1  0  0  0
 27 37  1  0  0  0
 36 38  1  0  0  0
 16 18  1  0  0  0
M  END
> <minimizedAffinity>
-8.89321

> <minimizedRMSD>
0.90977

$$$$
P30104


 33 37  0  0  0  0  0  0  0  0999 V2000
   -7.3454    5.2308  -14.0177 C   0  0  0  0  0  0  0  0  0  0  0  0
   -6.9665    5.0157  -15.4749 C   0  0  0  0  0  0  0  0  0  0  0  0
   -7.9226    4.5445  -16.4020 C   0  0  0  0  0  0  0  0  0  0  0  0
   -7.6338    4.4468  -17.7525 C   0  0  0  0  0  0  0  0  0  0  0  0
   -8.5771    3.9933  -18.5883 F   0  0  0  0  0  0  0  0  0  0  0  0
   -6.4025    4.8387  -18.2615 C   0  0  0  0  0  0  0  0  0  0  0  0
   -5.4287    5.2736  -17.3498 C   0  0  0  0  0  0  0  0  0  0  0  0
   -5.6849    5.3404  -15.9789 C   0  0  0  0  0  0  0  0  0  0  0  0
   -4.4755    5.8012  -15.4123 C   0  0  0  0  0  0  0  0  0  0  0  0
   -3.5431    6.0598  -16.3240 N   0  0  0  0  0  0  0  0  0  0  0  0
   -4.1329    5.7246  -17.4918 N   0  0  0  0  0  0  0  0  0  0  0  0
   -3.4774    6.1089  -18.7472 C   0  0  0  0  0  0  0  0  0  0  0  0
   -4.3813    6.4675  -19.9180 C   0  0  0  0  0  0  0  0  0  0  0  0
   -3.5117    5.6377  -20.8075 N   0  0  0  0  0  0  0  0  0  0  0  0
   -3.1012    4.8844  -19.5999 C   0  0  0  0  0  0  0  0  0  0  0  0
   -2.7582    6.1513  -21.2645 H   0  0  0  0  0  0  0  0  0  0  0  0
   -9.7564    6.3281  -13.9558 N   0  0  0  0  0  0  0  0  0  0  0  0
   -8.6970    5.8497  -13.9537 C   0  0  0  0  0  0  0  0  0  0  0  0
   -7.1834    3.9859  -13.2682 N   0  0  0  0  0  0  0  0  0  0  0  0
   -6.3128    3.5403  -13.5576 H   0  0  0  0  0  0  0  0  0  0  0  0
   -7.1414    4.2005  -11.8621 C   0  0  0  0  0  0  0  0  0  0  0  0
   -7.0192    2.8967  -11.3118 N   0  0  0  0  0  0  0  0  0  0  0  0
   -6.9988    2.9434   -9.8362 C   0  0  0  0  0  0  0  0  0  0  0  0
   -8.3383    3.5116   -9.3430 C   0  0  0  0  0  0  0  0  0  0  0  0
   -8.5379    3.6995   -7.8396 C   0  0  0  0  0  0  0  0  0  0  0  0
   -9.0232    2.3521   -7.3214 C   0  0  0  0  0  0  0  0  0  0  0  0
   -9.3684    1.5322   -8.4830 N   0  0  0  0  0  0  0  0  0  0  0  0
   -9.4026    2.4567   -9.6194 C   0  0  0  0  0  0  0  0  0  0  0  0
   -8.5042    4.8651  -10.0400 C   0  0  0  0  0  0  0  0  0  0  0  0
   -8.4084    4.7289  -11.4862 N   0  0  0  0  0  0  0  0  0  0  0  0
   -6.1520    2.4748  -11.6439 H   0  0  0  0  0  0  0  0  0  0  0  0
  -10.2804    1.0947   -8.3521 H   0  0  0  0  0  0  0  0  0  0  0  0
   -8.5294    5.6455  -11.9170 H   0  0  0  0  0  0  0  0  0  0  0  0
 17 18  3  0  0  0
  1 18  1  0  0  0
  1 19  1  0  0  0
 21 19  1  0  0  0
 21 22  1  0  0  0
 22 23  1  0  0  0
 24 23  1  0  0  0
 24 25  1  0  0  0
 25 26  1  0  0  0
 26 27  1  0  0  0
 27 28  1  0  0  0
 24 29  1  0  0  0
 29 30  1  0  0  0
  1  2  1  0  0  0
  2  3  2  0  0  0
  3  4  1  0  0  0
  4  5  1  0  0  0
  4  6  2  0  0  0
  6  7  1  0  0  0
  7  8  2  0  0  0
  8  9  1  0  0  0
  9 10  2  0  0  0
 10 11  1  0  0  0
 11 12  1  0  0  0
 12 13  1  0  0  0
 13 14  1  0  0  0
 14 15  1  0  0  0
 30 21  1  0  0  0
  8  2  1  0  0  0
 15 12  1  0  0  0
 28 24  1  0  0  0
 11  7  1  0  0  0
 19 20  1  0  0  0
 22 31  1  0  0  0
 27 32  1  0  0  0
 30 33  1  0  0  0
 14 16  1  0  0  0
M  END
> <minimizedAffinity>
-8.20856

> <minimizedRMSD>
0.81428

$$$$
P30106


 34 39  0  0  0  0  0  0  0  0999 V2000
   -7.3343    4.9707  -14.4113 C   0  0  0  0  0  0  0  0  0  0  0  0
   -8.5992    4.5839  -14.9169 C   0  0  0  0  0  0  0  0  0  0  0  0
   -8.7995    4.4045  -16.2869 C   0  0  0  0  0  0  0  0  0  0  0  0
   -9.9899    4.0012  -16.7569 F   0  0  0  0  0  0  0  0  0  0  0  0
   -7.7653    4.6195  -17.1793 C   0  0  0  0  0  0  0  0  0  0  0  0
   -6.5682    5.0676  -16.6773 C   0  0  0  0  0  0  0  0  0  0  0  0
   -6.3025    5.2540  -15.3413 C   0  0  0  0  0  0  0  0  0  0  0  0
   -4.9436    5.6710  -15.3497 C   0  0  0  0  0  0  0  0  0  0  0  0
   -4.4176    5.7485  -16.5847 N   0  0  0  0  0  0  0  0  0  0  0  0
   -5.4339    5.3383  -17.3699 N   0  0  0  0  0  0  0  0  0  0  0  0
   -5.4508    5.1767  -18.8483 C   0  0  0  0  0  0  0  0  0  0  0  0
   -5.3216    6.5399  -19.5640 C   0  0  0  0  0  0  0  0  0  0  0  0
   -3.8515    6.3737  -19.6186 N   0  0  0  0  0  0  0  0  0  0  0  0
   -4.0378    4.9233  -19.4192 C   0  0  0  0  0  0  0  0  0  0  0  0
   -6.6974    4.2765  -19.3219 C   0  0  0  0  0  0  0  0  0  0  0  0
   -6.7795    3.5113  -20.2855 O   0  0  0  0  0  0  0  0  0  0  0  0
   -7.8281    4.3130  -18.5241 N   0  0  0  0  0  0  0  0  0  0  0  0
   -3.3472    6.8405  -18.8649 H   0  0  0  0  0  0  0  0  0  0  0  0
   -8.7037    4.1144  -18.9279 H   0  0  0  0  0  0  0  0  0  0  0  0
   -6.1741    5.8573  -12.6868 O   0  0  0  0  0  0  0  0  0  0  0  0
   -7.0062    5.0885  -12.9610 C   0  0  0  0  0  0  0  0  0  0  0  0
   -7.7679    4.0855  -12.0773 N   0  0  0  0  0  0  0  0  0  0  0  0
   -8.3772    3.4858  -12.5656 H   0  0  0  0  0  0  0  0  0  0  0  0
   -7.7357    3.8864  -10.6903 C   0  0  0  0  0  0  0  0  0  0  0  0
   -8.1735    5.1112  -10.0819 N   0  0  0  0  0  0  0  0  0  0  0  0
   -7.9326    5.0367   -8.6357 C   0  0  0  0  0  0  0  0  0  0  0  0
   -8.5395    3.7968   -8.1123 C   0  0  0  0  0  0  0  0  0  0  0  0
   -9.3308    3.5707   -7.0631 C   0  0  0  0  0  0  0  0  0  0  0  0
   -9.9243    2.3381   -7.0975 N   0  0  0  0  0  0  0  0  0  0  0  0
   -9.4827    1.8015   -8.2000 C   0  0  0  0  0  0  0  0  0  0  0  0
   -8.4308    2.5705   -8.9478 C   0  0  0  0  0  0  0  0  0  0  0  0
   -8.7038    2.8760  -10.3592 N   0  0  0  0  0  0  0  0  0  0  0  0
   -9.1696    5.2433  -10.2567 H   0  0  0  0  0  0  0  0  0  0  0  0
   -9.6528    3.2310  -10.4763 H   0  0  0  0  0  0  0  0  0  0  0  0
 20 21  2  0  0  0
 21 22  1  0  0  0
 24 22  1  0  0  0
 24 25  1  0  0  0
 25 26  1  0  0  0
 26 27  1  0  0  0
 27 28  2  0  0  0
 28 29  1  0  0  0
 29 30  2  0  0  0
 30 31  1  0  0  0
 31 32  1  0  0  0
 21  1  1  0  0  0
  1  2  2  0  0  0
  2  3  1  0  0  0
  3  4  1  0  0  0
  3  5  2  0  0  0
  5  6  1  0  0  0
  6  7  2  0  0  0
  7  8  1  0  0  0
  8  9  2  0  0  0
  9 10  1  0  0  0
 10 11  1  0  0  0
 11 12  1  0  0  0
 12 13  1  0  0  0
 13 14  1  0  0  0
 11 15  1  0  0  0
 15 16  2  0  0  0
 15 17  1  0  0  0
 32 24  1  0  0  0
  7  1  1  0  0  0
 14 11  1  0  0  0
 31 27  1  0  0  0
 17  5  1  0  0  0
 10  6  1  0  0  0
 22 23  1  0  0  0
 25 33  1  0  0  0
 32 34  1  0  0  0
 13 18  1  0  0  0
 17 19  1  0  0  0
M  END
> <minimizedAffinity>
-7.68567

> <minimizedRMSD>
0.24701

$$$$
P30107


 31 35  0  0  0  0  0  0  0  0999 V2000
   -8.1237    4.3296  -12.7925 N   0  0  0  0  0  0  0  0  0  0  0  0
   -8.6903    5.1674  -13.9404 C   0  0  0  0  0  0  0  0  0  0  0  0
   -9.4570    6.0416  -13.9291 O   0  0  0  0  0  0  0  0  0  0  0  0
   -7.5391    3.5888  -13.0727 H   0  0  0  0  0  0  0  0  0  0  0  0
   -7.1153    4.9642  -10.7058 N   0  0  0  0  0  0  0  0  0  0  0  0
   -7.3834    5.1872   -9.2604 C   0  0  0  0  0  0  0  0  0  0  0  0
   -8.1703    4.0464   -8.7710 C   0  0  0  0  0  0  0  0  0  0  0  0
   -8.9749    3.9085   -7.7165 C   0  0  0  0  0  0  0  0  0  0  0  0
   -9.6273    2.7070   -7.6954 N   0  0  0  0  0  0  0  0  0  0  0  0
   -9.1975    2.0873   -8.7578 C   0  0  0  0  0  0  0  0  0  0  0  0
   -8.2038    2.8299   -9.6210 C   0  0  0  0  0  0  0  0  0  0  0  0
   -8.6981    3.1256  -10.9650 N   0  0  0  0  0  0  0  0  0  0  0  0
   -8.3030    4.4459  -11.3936 C   0  0  0  0  0  0  0  0  0  0  0  0
   -9.7165    3.0680  -10.9641 H   0  0  0  0  0  0  0  0  0  0  0  0
   -5.2568    6.2102  -11.8144 N   0  0  0  0  0  0  0  0  0  0  0  0
   -6.1273    5.6299  -11.3169 C   0  0  0  0  0  0  0  0  0  0  0  0
   -8.1662    4.7584  -15.2628 C   0  0  0  0  0  0  0  0  0  0  0  0
   -9.0512    4.3502  -16.2669 C   0  0  0  0  0  0  0  0  0  0  0  0
   -8.6192    4.2549  -17.5840 C   0  0  0  0  0  0  0  0  0  0  0  0
   -9.4982    3.9519  -18.5490 F   0  0  0  0  0  0  0  0  0  0  0  0
   -7.3091    4.5420  -17.9512 C   0  0  0  0  0  0  0  0  0  0  0  0
   -6.4291    4.9288  -16.9324 C   0  0  0  0  0  0  0  0  0  0  0  0
   -6.8256    5.0367  -15.5992 C   0  0  0  0  0  0  0  0  0  0  0  0
   -5.6754    5.5133  -14.9285 C   0  0  0  0  0  0  0  0  0  0  0  0
   -4.6445    5.7207  -15.7547 N   0  0  0  0  0  0  0  0  0  0  0  0
   -5.1082    5.3138  -16.9543 N   0  0  0  0  0  0  0  0  0  0  0  0
   -4.3319    5.4318  -18.2019 C   0  0  0  0  0  0  0  0  0  0  0  0
   -2.8596    5.0833  -17.9835 C   0  0  0  0  0  0  0  0  0  0  0  0
   -2.4798    6.2511  -18.8127 N   0  0  0  0  0  0  0  0  0  0  0  0
   -3.8041    6.8430  -18.5022 C   0  0  0  0  0  0  0  0  0  0  0  0
   -2.3322    6.0391  -19.7995 H   0  0  0  0  0  0  0  0  0  0  0  0
 15 16  3  0  0  0
 16  5  1  0  0  0
  5  6  1  0  0  0
  6  7  1  0  0  0
  7  8  2  0  0  0
  8  9  1  0  0  0
  9 10  2  0  0  0
 10 11  1  0  0  0
 11 12  1  0  0  0
 12 13  1  0  0  0
 13  1  1  0  0  0
  1  2  1  0  0  0
  2  3  2  0  0  0
  2 17  1  0  0  0
 17 18  2  0  0  0
 18 19  1  0  0  0
 19 20  1  0  0  0
 19 21  2  0  0  0
 21 22  1  0  0  0
 22 23  2  0  0  0
 23 24  1  0  0  0
 24 25  2  0  0  0
 25 26  1  0  0  0
 26 27  1  0  0  0
 27 28  1  0  0  0
 28 29  1  0  0  0
 29 30  1  0  0  0
 13  5  1  0  0  0
 23 17  1  0  0  0
 30 27  1  0  0  0
 11  7  1  0  0  0
 26 22  1  0  0  0
 12 14  1  0  0  0
  1  4  1  0  0  0
 29 31  1  0  0  0
M  END
> <minimizedAffinity>
-8.62464

> <minimizedRMSD>
0.92781

$$$$
P30108


 37 42  0  0  0  0  0  0  0  0999 V2000
   -8.1632    4.9845  -12.7865 N   0  0  0  0  0  0  0  0  0  0  0  0
   -6.9588    4.5900  -13.6583 C   0  0  0  0  0  0  0  0  0  0  0  0
   -5.9021    4.2042  -13.3561 O   0  0  0  0  0  0  0  0  0  0  0  0
   -8.9273    5.3567  -13.2834 H   0  0  0  0  0  0  0  0  0  0  0  0
   -8.5078    8.3360   -8.7047 C   0  0  0  0  0  0  0  0  0  0  0  0
   -8.8731    6.8513   -8.8857 C   0  0  0  0  0  0  0  0  0  0  0  0
   -7.6499    5.8999   -9.0988 C   0  0  0  0  0  0  0  0  0  0  0  0
   -6.4019    6.5994   -8.4551 C   0  0  0  0  0  0  0  0  0  0  0  0
   -6.7700    7.4288   -7.2300 C   0  0  0  0  0  0  0  0  0  0  0  0
   -7.6669    8.5451   -7.5294 N   0  0  0  0  0  0  0  0  0  0  0  0
   -7.3323    5.7452  -10.6071 C   0  0  0  0  0  0  0  0  0  0  0  0
   -8.3565    4.8974  -11.3525 C   0  0  0  0  0  0  0  0  0  0  0  0
   -8.3207    3.4471  -10.9003 C   0  0  0  0  0  0  0  0  0  0  0  0
   -8.1002    3.2482   -9.4063 C   0  0  0  0  0  0  0  0  0  0  0  0
   -9.2158    2.4724   -8.7073 C   0  0  0  0  0  0  0  0  0  0  0  0
   -9.0534    2.8163   -7.2872 N   0  0  0  0  0  0  0  0  0  0  0  0
   -8.7849    4.2561   -7.3111 C   0  0  0  0  0  0  0  0  0  0  0  0
   -7.8206    4.4611   -8.4855 C   0  0  0  0  0  0  0  0  0  0  0  0
   -7.0999    9.3785   -7.6854 H   0  0  0  0  0  0  0  0  0  0  0  0
   -8.2713    2.3066   -6.8760 H   0  0  0  0  0  0  0  0  0  0  0  0
   -7.3531   10.1209   -9.7602 C   0  0  0  0  0  0  0  0  0  0  0  0
   -7.8898    8.8130   -9.8945 O   0  0  0  0  0  0  0  0  0  0  0  0
   -7.2485    4.7438  -15.1143 C   0  0  0  0  0  0  0  0  0  0  0  0
   -8.4532    4.3203  -15.6980 C   0  0  0  0  0  0  0  0  0  0  0  0
   -8.6126    4.3359  -17.0785 C   0  0  0  0  0  0  0  0  0  0  0  0
   -9.7709    3.9277  -17.6111 F   0  0  0  0  0  0  0  0  0  0  0  0
   -7.5942    4.7405  -17.9324 C   0  0  0  0  0  0  0  0  0  0  0  0
   -6.4086    5.1861  -17.3406 C   0  0  0  0  0  0  0  0  0  0  0  0
   -6.2298    5.2289  -15.9591 C   0  0  0  0  0  0  0  0  0  0  0  0
   -4.9428    5.7869  -15.7896 C   0  0  0  0  0  0  0  0  0  0  0  0
   -4.3510    6.0777  -16.9506 N   0  0  0  0  0  0  0  0  0  0  0  0
   -5.1939    5.5579  -17.8686 N   0  0  0  0  0  0  0  0  0  0  0  0
   -4.7918    5.2227  -19.2462 C   0  0  0  0  0  0  0  0  0  0  0  0
   -4.4727    6.4354  -20.1286 C   0  0  0  0  0  0  0  0  0  0  0  0
   -3.3288    5.6564  -20.6834 N   0  0  0  0  0  0  0  0  0  0  0  0
   -3.2930    4.9000  -19.4050 C   0  0  0  0  0  0  0  0  0  0  0  0
   -2.4922    6.2085  -20.8727 H   0  0  0  0  0  0  0  0  0  0  0  0
 21 22  1  0  0  0
  5 22  1  0  0  0
  5  6  1  0  0  0
  7  6  1  0  0  0
  7  8  1  0  0  0
  8  9  1  0  0  0
  9 10  1  0  0  0
  7 11  1  0  0  0
 11 12  1  0  0  0
 12  1  1  0  0  0
  1  2  1  0  0  0
  2  3  2  0  0  0
  2 23  1  0  0  0
 23 24  2  0  0  0
 24 25  1  0  0  0
 25 26  1  0  0  0
 25 27  2  0  0  0
 27 28  1  0  0  0
 28 29  2  0  0  0
 29 30  1  0  0  0
 30 31  2  0  0  0
 31 32  1  0  0  0
 32 33  1  0  0  0
 33 34  1  0  0  0
 34 35  1  0  0  0
 35 36  1  0  0  0
 12 13  1  0  0  0
 14 13  1  0  0  0
 14 15  1  0  0  0
 15 16  1  0  0  0
 16 17  1  0  0  0
 18 17  1  0  0  0
 10  5  1  0  0  0
 29 23  1  0  0  0
 36 33  1  0  0  0
 18 14  1  0  0  0
 18  7  1  0  0  0
 32 28  1  0  0  0
 10 19  1  0  0  0
  1  4  1  0  0  0
 35 37  1  0  0  0
 16 20  1  0  0  0
M  END
> <minimizedAffinity>
-8.93283

> <minimizedRMSD>
0.36868

$$$$
P30109


 30 34  0  0  0  0  0  0  0  0999 V2000
   -7.4768    6.4037  -13.2857 O   0  0  0  0  0  0  0  0  0  0  0  0
   -7.5109    5.2643  -13.5273 C   0  0  0  0  0  0  0  0  0  0  0  0
   -7.5385    4.0485  -12.5902 N   0  0  0  0  0  0  0  0  0  0  0  0
   -7.6447    3.1811  -13.0436 H   0  0  0  0  0  0  0  0  0  0  0  0
   -7.4364    3.9716  -11.1853 C   0  0  0  0  0  0  0  0  0  0  0  0
   -8.1016    5.1707  -10.7475 N   0  0  0  0  0  0  0  0  0  0  0  0
   -8.0849    5.2788   -9.2967 C   0  0  0  0  0  0  0  0  0  0  0  0
   -8.6433    4.0338   -8.7520 C   0  0  0  0  0  0  0  0  0  0  0  0
   -8.7516    3.5741   -7.5055 C   0  0  0  0  0  0  0  0  0  0  0  0
   -9.1733    2.2747   -7.4516 N   0  0  0  0  0  0  0  0  0  0  0  0
   -9.2642    1.9140   -8.7005 C   0  0  0  0  0  0  0  0  0  0  0  0
   -9.0737    3.0015   -9.7280 C   0  0  0  0  0  0  0  0  0  0  0  0
   -8.0956    2.7548  -10.7814 N   0  0  0  0  0  0  0  0  0  0  0  0
   -9.0694    5.1510  -11.0690 H   0  0  0  0  0  0  0  0  0  0  0  0
   -8.5721    2.3523  -11.5885 H   0  0  0  0  0  0  0  0  0  0  0  0
   -7.5900    4.8976  -14.9695 C   0  0  0  0  0  0  0  0  0  0  0  0
   -8.7671    4.4373  -15.5838 C   0  0  0  0  0  0  0  0  0  0  0  0
   -8.7975    4.2161  -16.9611 C   0  0  0  0  0  0  0  0  0  0  0  0
   -9.9153    3.7669  -17.5465 F   0  0  0  0  0  0  0  0  0  0  0  0
   -7.6987    4.4611  -17.7767 C   0  0  0  0  0  0  0  0  0  0  0  0
   -6.5318    4.9033  -17.1475 C   0  0  0  0  0  0  0  0  0  0  0  0
   -6.4528    5.1236  -15.7755 C   0  0  0  0  0  0  0  0  0  0  0  0
   -5.1200    5.5496  -15.5665 C   0  0  0  0  0  0  0  0  0  0  0  0
   -4.4001    5.5713  -16.6903 N   0  0  0  0  0  0  0  0  0  0  0  0
   -5.2828    5.1998  -17.6350 N   0  0  0  0  0  0  0  0  0  0  0  0
   -4.9630    5.0895  -19.0583 C   0  0  0  0  0  0  0  0  0  0  0  0
   -4.9610    6.4512  -19.7586 C   0  0  0  0  0  0  0  0  0  0  0  0
   -3.8136    5.9590  -20.5796 N   0  0  0  0  0  0  0  0  0  0  0  0
   -3.4722    5.0793  -19.4241 C   0  0  0  0  0  0  0  0  0  0  0  0
   -3.1120    6.6654  -20.8014 H   0  0  0  0  0  0  0  0  0  0  0  0
  1  2  2  0  0  0
  2  3  1  0  0  0
  5  3  1  0  0  0
  5  6  1  0  0  0
  6  7  1  0  0  0
  7  8  1  0  0  0
  8  9  2  0  0  0
  9 10  1  0  0  0
 10 11  2  0  0  0
 11 12  1  0  0  0
 12 13  1  0  0  0
  2 16  1  0  0  0
 16 17  2  0  0  0
 17 18  1  0  0  0
 18 19  1  0  0  0
 18 20  2  0  0  0
 20 21  1  0  0  0
 21 22  2  0  0  0
 22 23  1  0  0  0
 23 24  2  0  0  0
 24 25  1  0  0  0
 25 26  1  0  0  0
 26 27  1  0  0  0
 27 28  1  0  0  0
 28 29  1  0  0  0
 13  5  1  0  0  0
 22 16  1  0  0  0
 29 26  1  0  0  0
 12  8  1  0  0  0
 25 21  1  0  0  0
  3  4  1  0  0  0
  6 14  1  0  0  0
 13 15  1  0  0  0
 28 30  1  0  0  0
M  END
> <minimizedAffinity>
-8.47695

> <minimizedRMSD>
0.46799

$$$$
P30110


 30 33  0  0  0  0  0  0  0  0999 V2000
   -8.0160    4.7460  -15.3966 C   0  0  0  0  0  0  0  0  0  0  0  0
   -8.8632    4.2552  -16.3954 C   0  0  0  0  0  0  0  0  0  0  0  0
   -8.4047    4.1580  -17.6988 C   0  0  0  0  0  0  0  0  0  0  0  0
   -9.2311    3.7046  -18.6497 F   0  0  0  0  0  0  0  0  0  0  0  0
   -7.1244    4.5631  -18.0687 C   0  0  0  0  0  0  0  0  0  0  0  0
   -6.2657    5.0200  -17.0623 C   0  0  0  0  0  0  0  0  0  0  0  0
   -6.6779    5.1080  -15.7010 C   0  0  0  0  0  0  0  0  0  0  0  0
   -5.5924    5.6325  -14.8793 C   0  0  0  0  0  0  0  0  0  0  0  0
   -4.5644    5.8711  -15.7029 N   0  0  0  0  0  0  0  0  0  0  0  0
   -3.4424    6.3869  -15.4811 O   0  0  0  0  0  0  0  0  0  0  0  0
   -4.9713    5.5070  -17.0600 N   0  0  0  0  0  0  0  0  0  0  0  0
   -4.1858    5.9242  -18.2312 C   0  0  0  0  0  0  0  0  0  0  0  0
   -4.8825    5.8697  -19.5893 C   0  0  0  0  0  0  0  0  0  0  0  0
   -3.6530    5.2468  -20.1621 N   0  0  0  0  0  0  0  0  0  0  0  0
   -3.3141    4.7864  -18.7991 C   0  0  0  0  0  0  0  0  0  0  0  0
   -2.9893    5.9098  -20.5625 H   0  0  0  0  0  0  0  0  0  0  0  0
   -7.8908    4.2542  -12.9398 N   0  0  0  0  0  0  0  0  0  0  0  0
   -8.5566    5.0727  -14.0562 C   0  0  0  0  0  0  0  0  0  0  0  0
   -9.4155    5.8596  -14.0074 O   0  0  0  0  0  0  0  0  0  0  0  0
   -7.2318    3.5924  -13.2512 H   0  0  0  0  0  0  0  0  0  0  0  0
   -8.6941    3.2111   -9.6578 C   0  0  0  0  0  0  0  0  0  0  0  0
   -8.4475    4.3546   -8.9203 C   0  0  0  0  0  0  0  0  0  0  0  0
   -7.9907    5.4419   -9.6158 C   0  0  0  0  0  0  0  0  0  0  0  0
   -7.7869    5.4361  -10.9393 N   0  0  0  0  0  0  0  0  0  0  0  0
   -8.0647    4.2948  -11.5805 C   0  0  0  0  0  0  0  0  0  0  0  0
   -8.5035    3.1717  -11.0001 N   0  0  0  0  0  0  0  0  0  0  0  0
   -8.8871    1.8451   -7.5637 N   0  0  0  0  0  0  0  0  0  0  0  0
   -9.2034    1.9489   -8.9956 C   0  0  0  0  0  0  0  0  0  0  0  0
   -9.2628    0.9714   -7.1950 H   0  0  0  0  0  0  0  0  0  0  0  0
   -9.3038    2.6316   -7.0656 H   0  0  0  0  0  0  0  0  0  0  0  0
 27 28  1  0  0  0
 28 21  1  0  0  0
 21 22  2  0  0  0
 22 23  1  0  0  0
 23 24  2  0  0  0
 24 25  1  0  0  0
 25 17  1  0  0  0
 17 18  1  0  0  0
 18 19  2  0  0  0
 18  1  1  0  0  0
  1  2  2  0  0  0
  2  3  1  0  0  0
  3  4  1  0  0  0
  3  5  2  0  0  0
  5  6  1  0  0  0
  6  7  2  0  0  0
  7  8  1  0  0  0
  8  9  2  0  0  0
  9 10  1  0  0  0
  9 11  1  0  0  0
 11 12  1  0  0  0
 12 13  1  0  0  0
 13 14  1  0  0  0
 14 15  1  0  0  0
 25 26  2  0  0  0
 26 21  1  0  0  0
  7  1  1  0  0  0
 15 12  1  0  0  0
 11  6  1  0  0  0
 27 29  1  0  0  0
 27 30  1  0  0  0
 17 20  1  0  0  0
 14 16  1  0  0  0
M  CHG 1   9   1
M  CHG 1  10  -1
M  END
> <minimizedAffinity>
-8.83301

> <minimizedRMSD>
0.93297

$$$$
P30112


 39 43  0  0  0  0  0  0  0  0999 V2000
   -7.6148    5.1206  -13.3960 C   0  0  0  0  0  0  0  0  0  0  0  0
   -6.3959    5.5809  -12.8267 O   0  0  0  0  0  0  0  0  0  0  0  0
   -6.5262    5.7554  -11.8814 H   0  0  0  0  0  0  0  0  0  0  0  0
   -7.3520    4.8601  -14.8915 C   0  0  0  0  0  0  0  0  0  0  0  0
   -8.4182    4.4522  -15.7317 C   0  0  0  0  0  0  0  0  0  0  0  0
   -8.2881    4.3767  -17.1110 C   0  0  0  0  0  0  0  0  0  0  0  0
   -9.3410    4.0030  -17.8500 F   0  0  0  0  0  0  0  0  0  0  0  0
   -7.1085    4.7228  -17.7505 C   0  0  0  0  0  0  0  0  0  0  0  0
   -6.0139    5.0612  -16.9453 C   0  0  0  0  0  0  0  0  0  0  0  0
   -6.1086    5.1001  -15.5477 C   0  0  0  0  0  0  0  0  0  0  0  0
   -4.7949    5.4303  -15.1308 C   0  0  0  0  0  0  0  0  0  0  0  0
   -3.9516    5.6269  -16.1409 N   0  0  0  0  0  0  0  0  0  0  0  0
   -4.7142    5.4289  -17.2336 N   0  0  0  0  0  0  0  0  0  0  0  0
   -4.2006    5.8921  -18.5307 C   0  0  0  0  0  0  0  0  0  0  0  0
   -4.7291    5.2067  -19.7834 C   0  0  0  0  0  0  0  0  0  0  0  0
   -3.3267    5.1614  -20.3089 N   0  0  0  0  0  0  0  0  0  0  0  0
   -2.8665    5.2242  -18.9009 C   0  0  0  0  0  0  0  0  0  0  0  0
   -3.0602    5.9635  -20.8798 H   0  0  0  0  0  0  0  0  0  0  0  0
   -9.7563    6.2258  -13.8825 O   0  0  0  0  0  0  0  0  0  0  0  0
   -8.7516    6.2619  -13.2832 C   0  0  0  0  0  0  0  0  0  0  0  0
   -8.2373    7.2939  -12.2417 N   0  0  0  0  0  0  0  0  0  0  0  0
   -7.3153    7.1424  -11.9317 H   0  0  0  0  0  0  0  0  0  0  0  0
   -8.8934    8.4416  -11.6535 C   0  0  0  0  0  0  0  0  0  0  0  0
   -8.1778    9.7620  -11.9129 C   0  0  0  0  0  0  0  0  0  0  0  0
   -8.2620   10.1034  -13.2230 F   0  0  0  0  0  0  0  0  0  0  0  0
   -6.8570    9.6365  -11.6232 F   0  0  0  0  0  0  0  0  0  0  0  0
   -8.0407    3.9250  -12.6526 N   0  0  0  0  0  0  0  0  0  0  0  0
   -7.2698    3.2571  -12.6625 H   0  0  0  0  0  0  0  0  0  0  0  0
   -8.4149    4.1514  -11.2797 C   0  0  0  0  0  0  0  0  0  0  0  0
   -7.2283    4.6412  -10.6174 N   0  0  0  0  0  0  0  0  0  0  0  0
   -7.5258    4.9816   -9.2192 C   0  0  0  0  0  0  0  0  0  0  0  0
   -8.2757    3.8748   -8.6114 C   0  0  0  0  0  0  0  0  0  0  0  0
   -9.0446    3.7983   -7.5257 C   0  0  0  0  0  0  0  0  0  0  0  0
   -9.7092    2.6072   -7.4253 N   0  0  0  0  0  0  0  0  0  0  0  0
   -9.3328    1.9383   -8.4781 C   0  0  0  0  0  0  0  0  0  0  0  0
   -8.3394    2.6126   -9.3893 C   0  0  0  0  0  0  0  0  0  0  0  0
   -8.8076    2.8662  -10.7568 N   0  0  0  0  0  0  0  0  0  0  0  0
   -6.8924    5.4736  -11.1019 H   0  0  0  0  0  0  0  0  0  0  0  0
   -9.8263    2.8149  -10.7622 H   0  0  0  0  0  0  0  0  0  0  0  0
 19 20  2  0  0  0
 20 21  1  0  0  0
 21 23  1  0  0  0
 23 24  1  0  0  0
 24 25  1  0  0  0
 24 26  1  0  0  0
 20  1  1  0  0  0
  1  2  1  0  0  0
  1 27  1  0  0  0
 29 27  1  0  0  0
 29 30  1  0  0  0
 30 31  1  0  0  0
 31 32  1  0  0  0
 32 33  2  0  0  0
 33 34  1  0  0  0
 34 35  2  0  0  0
 35 36  1  0  0  0
 36 37  1  0  0  0
  1  4  1  0  0  0
  4  5  2  0  0  0
  5  6  1  0  0  0
  6  7  1  0  0  0
  6  8  2  0  0  0
  8  9  1  0  0  0
  9 10  2  0  0  0
 10 11  1  0  0  0
 11 12  2  0  0  0
 12 13  1  0  0  0
 13 14  1  0  0  0
 14 15  1  0  0  0
 15 16  1  0  0  0
 16 17  1  0  0  0
 37 29  1  0  0  0
 10  4  1  0  0  0
 17 14  1  0  0  0
 36 32  1  0  0  0
 13  9  1  0  0  0
 21 22  1  0  0  0
  2  3  1  0  0  0
 27 28  1  0  0  0
 30 38  1  0  0  0
 37 39  1  0  0  0
 16 18  1  0  0  0
M  END
> <minimizedAffinity>
-8.49893

> <minimizedRMSD>
0.22233

$$$$
P30118


 30 34  0  0  0  0  0  0  0  0999 V2000
   -9.3691    5.8422  -13.8985 O   0  0  0  0  0  0  0  0  0  0  0  0
   -8.5395    5.0244  -13.8582 C   0  0  0  0  0  0  0  0  0  0  0  0
   -7.9918    4.2202  -12.6717 N   0  0  0  0  0  0  0  0  0  0  0  0
   -7.2289    3.6362  -12.8867 H   0  0  0  0  0  0  0  0  0  0  0  0
   -7.9214    4.6888  -15.1533 C   0  0  0  0  0  0  0  0  0  0  0  0
   -8.8203    4.3048  -16.1990 C   0  0  0  0  0  0  0  0  0  0  0  0
   -8.4433    4.3025  -17.5572 C   0  0  0  0  0  0  0  0  0  0  0  0
   -9.3716    4.1008  -18.4956 F   0  0  0  0  0  0  0  0  0  0  0  0
   -7.1517    4.6232  -17.8567 C   0  0  0  0  0  0  0  0  0  0  0  0
   -6.4278    4.9861  -18.9997 N   0  0  0  0  0  0  0  0  0  0  0  0
   -5.1605    5.5529  -18.5836 C   0  0  0  0  0  0  0  0  0  0  0  0
   -4.3748    6.1662  -19.2869 O   0  0  0  0  0  0  0  0  0  0  0  0
   -5.0938    5.3076  -17.1725 N   0  0  0  0  0  0  0  0  0  0  0  0
   -6.3235    4.8563  -16.8005 C   0  0  0  0  0  0  0  0  0  0  0  0
   -6.6247    5.0058  -15.4828 C   0  0  0  0  0  0  0  0  0  0  0  0
   -5.4316    5.6845  -14.8893 C   0  0  0  0  0  0  0  0  0  0  0  0
   -4.5061    6.0027  -16.0793 N   0  0  0  0  0  0  0  0  0  0  0  0
   -6.7295    4.8747  -19.9302 H   0  0  0  0  0  0  0  0  0  0  0  0
   -3.5599    5.6653  -15.9024 H   0  0  0  0  0  0  0  0  0  0  0  0
   -8.4014    4.1816  -11.3297 C   0  0  0  0  0  0  0  0  0  0  0  0
   -7.5806    5.0615  -10.5490 N   0  0  0  0  0  0  0  0  0  0  0  0
   -8.2698    5.3214   -9.2732 C   0  0  0  0  0  0  0  0  0  0  0  0
   -8.7402    4.0505   -8.6742 C   0  0  0  0  0  0  0  0  0  0  0  0
   -8.7458    3.6089   -7.4163 C   0  0  0  0  0  0  0  0  0  0  0  0
   -9.0657    2.2816   -7.3173 N   0  0  0  0  0  0  0  0  0  0  0  0
   -9.1686    1.8720   -8.5501 C   0  0  0  0  0  0  0  0  0  0  0  0
   -9.1933    2.9586   -9.5827 C   0  0  0  0  0  0  0  0  0  0  0  0
   -8.3403    2.8597  -10.7700 N   0  0  0  0  0  0  0  0  0  0  0  0
   -7.4401    5.9385  -11.0506 H   0  0  0  0  0  0  0  0  0  0  0  0
   -8.7044    2.1680  -11.4252 H   0  0  0  0  0  0  0  0  0  0  0  0
  1  2  2  0  0  0
  2  3  1  0  0  0
 20  3  1  0  0  0
 20 21  1  0  0  0
 21 22  1  0  0  0
 22 23  1  0  0  0
 23 24  2  0  0  0
 24 25  1  0  0  0
 25 26  2  0  0  0
 26 27  1  0  0  0
 27 28  1  0  0  0
  2  5  1  0  0  0
  5  6  2  0  0  0
  6  7  1  0  0  0
  7  8  1  0  0  0
  7  9  2  0  0  0
  9 10  1  0  0  0
 10 11  1  0  0  0
 11 12  2  0  0  0
 11 13  1  0  0  0
 13 14  1  0  0  0
 14 15  2  0  0  0
 15 16  1  0  0  0
 16 17  1  0  0  0
 28 20  1  0  0  0
 15  5  1  0  0  0
 27 23  1  0  0  0
 14  9  1  0  0  0
 17 13  1  0  0  0
  3  4  1  0  0  0
 21 29  1  0  0  0
 28 30  1  0  0  0
 10 18  1  0  0  0
 17 19  1  0  0  0
M  END
> <minimizedAffinity>
-8.93695

> <minimizedRMSD>
0.21286

$$$$
P30126


 26 29  0  0  0  0  0  0  0  0999 V2000
   -7.7163    4.8564  -15.2224 C   0  0  0  0  0  0  0  0  0  0  0  0
   -8.9199    4.4377  -15.8021 C   0  0  0  0  0  0  0  0  0  0  0  0
   -8.9786    4.2066  -17.1719 C   0  0  0  0  0  0  0  0  0  0  0  0
  -10.1409    3.8298  -17.7215 F   0  0  0  0  0  0  0  0  0  0  0  0
   -7.8827    4.4133  -18.0106 C   0  0  0  0  0  0  0  0  0  0  0  0
   -6.6758    4.8014  -17.4122 C   0  0  0  0  0  0  0  0  0  0  0  0
   -6.5691    4.9965  -16.0355 C   0  0  0  0  0  0  0  0  0  0  0  0
   -5.2186    5.3616  -15.8348 C   0  0  0  0  0  0  0  0  0  0  0  0
   -4.5205    5.4127  -16.9703 N   0  0  0  0  0  0  0  0  0  0  0  0
   -5.4369    5.1390  -17.9191 N   0  0  0  0  0  0  0  0  0  0  0  0
   -5.2123    5.5466  -19.3184 C   0  0  0  0  0  0  0  0  0  0  0  0
   -3.7637    5.8520  -19.6560 C   0  0  0  0  0  0  0  0  0  0  0  0
   -3.9923    7.2894  -19.3985 N   0  0  0  0  0  0  0  0  0  0  0  0
   -5.4394    7.0431  -19.6007 C   0  0  0  0  0  0  0  0  0  0  0  0
   -3.5693    7.9150  -20.0841 H   0  0  0  0  0  0  0  0  0  0  0  0
   -7.2697    6.4517  -13.6918 O   0  0  0  0  0  0  0  0  0  0  0  0
   -7.6530    5.3585  -13.8287 C   0  0  0  0  0  0  0  0  0  0  0  0
   -8.0989    4.3204  -12.7860 N   0  0  0  0  0  0  0  0  0  0  0  0
   -8.3096    3.4317  -13.1535 H   0  0  0  0  0  0  0  0  0  0  0  0
   -8.2513    4.4307  -11.4261 C   0  0  0  0  0  0  0  0  0  0  0  0
   -8.0010    5.6244  -10.8681 N   0  0  0  0  0  0  0  0  0  0  0  0
   -8.0887    5.7091   -9.5339 C   0  0  0  0  0  0  0  0  0  0  0  0
   -8.4179    4.6478   -8.7414 C   0  0  0  0  0  0  0  0  0  0  0  0
   -8.6800    3.4771   -9.4133 C   0  0  0  0  0  0  0  0  0  0  0  0
   -9.1887    2.0008   -8.3509 Br  0  0  0  0  0  0  0  0  0  0  0  0
   -8.6125    3.3377  -10.7536 N   0  0  0  0  0  0  0  0  0  0  0  0
 16 17  2  0  0  0
 17 18  1  0  0  0
 18 20  1  0  0  0
 20 21  2  0  0  0
 21 22  1  0  0  0
 22 23  2  0  0  0
 23 24  1  0  0  0
 24 25  1  0  0  0
 24 26  2  0  0  0
 17  1  1  0  0  0
  1  2  2  0  0  0
  2  3  1  0  0  0
  3  4  1  0  0  0
  3  5  2  0  0  0
  5  6  1  0  0  0
  6  7  2  0  0  0
  7  8  1  0  0  0
  8  9  2  0  0  0
  9 10  1  0  0  0
 10 11  1  0  0  0
 11 12  1  0  0  0
 12 13  1  0  0  0
 13 14  1  0  0  0
 26 20  1  0  0  0
  7  1  1  0  0  0
 14 11  1  0  0  0
 10  6  1  0  0  0
 18 19  1  0  0  0
 13 15  1  0  0  0
M  END
> <minimizedAffinity>
-7.83636

> <minimizedRMSD>
0.92561

$$$$
P30127


 26 29  0  0  0  0  0  0  0  0999 V2000
   -7.3076    4.8081  -14.9502 C   0  0  0  0  0  0  0  0  0  0  0  0
   -8.5044    4.3515  -15.5093 C   0  0  0  0  0  0  0  0  0  0  0  0
   -8.6465    4.2703  -16.8879 C   0  0  0  0  0  0  0  0  0  0  0  0
   -9.8231    3.8954  -17.4102 F   0  0  0  0  0  0  0  0  0  0  0  0
   -7.6088    4.6005  -17.7536 C   0  0  0  0  0  0  0  0  0  0  0  0
   -6.4064    5.0458  -17.1846 C   0  0  0  0  0  0  0  0  0  0  0  0
   -6.2481    5.1698  -15.8047 C   0  0  0  0  0  0  0  0  0  0  0  0
   -4.9432    5.6804  -15.6347 C   0  0  0  0  0  0  0  0  0  0  0  0
   -4.3068    5.8594  -16.7917 N   0  0  0  0  0  0  0  0  0  0  0  0
   -5.1883    5.4124  -17.7153 N   0  0  0  0  0  0  0  0  0  0  0  0
   -4.7589    5.1052  -19.0846 C   0  0  0  0  0  0  0  0  0  0  0  0
   -4.5040    6.3189  -19.9896 C   0  0  0  0  0  0  0  0  0  0  0  0
   -3.3707    5.5406  -20.5784 N   0  0  0  0  0  0  0  0  0  0  0  0
   -3.2447    4.8818  -19.2477 C   0  0  0  0  0  0  0  0  0  0  0  0
   -2.5653    6.1011  -20.8567 H   0  0  0  0  0  0  0  0  0  0  0  0
   -6.1900    5.6076  -13.1521 O   0  0  0  0  0  0  0  0  0  0  0  0
   -7.1431    5.0297  -13.4946 C   0  0  0  0  0  0  0  0  0  0  0  0
   -8.2665    4.3815  -12.6691 N   0  0  0  0  0  0  0  0  0  0  0  0
   -9.0096    4.0149  -13.2009 H   0  0  0  0  0  0  0  0  0  0  0  0
   -8.4026    4.2303  -11.3103 C   0  0  0  0  0  0  0  0  0  0  0  0
   -8.2005    5.3003  -10.5264 N   0  0  0  0  0  0  0  0  0  0  0  0
   -8.2842    5.1077   -9.2005 C   0  0  0  0  0  0  0  0  0  0  0  0
   -8.5807    3.8976   -8.6401 C   0  0  0  0  0  0  0  0  0  0  0  0
   -8.7923    2.8813   -9.5357 C   0  0  0  0  0  0  0  0  0  0  0  0
   -9.1494    1.6892   -9.0377 F   0  0  0  0  0  0  0  0  0  0  0  0
   -8.7022    3.0083  -10.8728 N   0  0  0  0  0  0  0  0  0  0  0  0
 16 17  2  0  0  0
 17 18  1  0  0  0
 18 20  1  0  0  0
 20 21  2  0  0  0
 21 22  1  0  0  0
 22 23  2  0  0  0
 23 24  1  0  0  0
 24 25  1  0  0  0
 24 26  2  0  0  0
 17  1  1  0  0  0
  1  2  2  0  0  0
  2  3  1  0  0  0
  3  4  1  0  0  0
  3  5  2  0  0  0
  5  6  1  0  0  0
  6  7  2  0  0  0
  7  8  1  0  0  0
  8  9  2  0  0  0
  9 10  1  0  0  0
 10 11  1  0  0  0
 11 12  1  0  0  0
 12 13  1  0  0  0
 13 14  1  0  0  0
 26 20  1  0  0  0
  7  1  1  0  0  0
 14 11  1  0  0  0
 10  6  1  0  0  0
 18 19  1  0  0  0
 13 15  1  0  0  0
M  END
> <minimizedAffinity>
-8.33686

> <minimizedRMSD>
0.69289

$$$$
P30136


 28 31  0  0  0  0  0  0  0  0999 V2000
   -7.7653    4.8575  -15.0159 C   0  0  0  0  0  0  0  0  0  0  0  0
   -8.9548    4.4713  -15.6548 C   0  0  0  0  0  0  0  0  0  0  0  0
   -8.9811    4.2693  -17.0301 C   0  0  0  0  0  0  0  0  0  0  0  0
  -10.1375    3.9760  -17.6398 F   0  0  0  0  0  0  0  0  0  0  0  0
   -7.8494    4.4358  -17.8173 C   0  0  0  0  0  0  0  0  0  0  0  0
   -6.6749    4.8410  -17.1720 C   0  0  0  0  0  0  0  0  0  0  0  0
   -6.6062    5.0520  -15.7981 C   0  0  0  0  0  0  0  0  0  0  0  0
   -5.2786    5.4968  -15.5825 C   0  0  0  0  0  0  0  0  0  0  0  0
   -4.5723    5.5965  -16.7132 N   0  0  0  0  0  0  0  0  0  0  0  0
   -5.4227    5.1460  -17.6516 N   0  0  0  0  0  0  0  0  0  0  0  0
   -5.1098    5.1048  -19.0832 C   0  0  0  0  0  0  0  0  0  0  0  0
   -3.5979    5.0852  -19.2879 C   0  0  0  0  0  0  0  0  0  0  0  0
   -3.7769    5.9697  -20.4711 N   0  0  0  0  0  0  0  0  0  0  0  0
   -5.0270    6.4553  -19.8104 C   0  0  0  0  0  0  0  0  0  0  0  0
   -3.9217    5.4798  -21.3540 H   0  0  0  0  0  0  0  0  0  0  0  0
   -8.1481    4.0778  -12.6579 N   0  0  0  0  0  0  0  0  0  0  0  0
   -7.7395    5.2395  -13.5793 C   0  0  0  0  0  0  0  0  0  0  0  0
   -7.4170    6.3305  -13.3230 O   0  0  0  0  0  0  0  0  0  0  0  0
   -8.3050    3.2221  -13.1187 H   0  0  0  0  0  0  0  0  0  0  0  0
   -8.6603    3.8852   -8.6033 C   0  0  0  0  0  0  0  0  0  0  0  0
   -8.3081    5.0485   -9.2502 C   0  0  0  0  0  0  0  0  0  0  0  0
   -8.1461    5.1539  -10.5808 N   0  0  0  0  0  0  0  0  0  0  0  0
   -8.3296    4.0395  -11.2979 C   0  0  0  0  0  0  0  0  0  0  0  0
   -8.6775    2.8605  -10.7917 N   0  0  0  0  0  0  0  0  0  0  0  0
   -8.8283    2.8131   -9.4536 C   0  0  0  0  0  0  0  0  0  0  0  0
   -9.1937    1.6293   -8.9428 F   0  0  0  0  0  0  0  0  0  0  0  0
  -10.0568    3.2239   -6.5420 C   0  0  0  0  0  0  0  0  0  0  0  0
   -8.8008    3.8619   -7.1126 C   0  0  0  0  0  0  0  0  0  0  0  0
 27 28  1  0  0  0
 28 20  1  0  0  0
 20 21  2  0  0  0
 21 22  1  0  0  0
 22 23  2  0  0  0
 23 16  1  0  0  0
 16 17  1  0  0  0
 17 18  2  0  0  0
 17  1  1  0  0  0
  1  2  2  0  0  0
  2  3  1  0  0  0
  3  4  1  0  0  0
  3  5  2  0  0  0
  5  6  1  0  0  0
  6  7  2  0  0  0
  7  8  1  0  0  0
  8  9  2  0  0  0
  9 10  1  0  0  0
 10 11  1  0  0  0
 11 12  1  0  0  0
 12 13  1  0  0  0
 13 14  1  0  0  0
 23 24  1  0  0  0
 24 25  2  0  0  0
 25 26  1  0  0  0
 25 20  1  0  0  0
  7  1  1  0  0  0
 14 11  1  0  0  0
 10  6  1  0  0  0
 16 19  1  0  0  0
 13 15  1  0  0  0
M  END
> <minimizedAffinity>
-8.66497

> <minimizedRMSD>
0.69995

$$$$
P30138


 27 30  0  0  0  0  0  0  0  0999 V2000
   -8.1326    4.6681  -15.4631 C   0  0  0  0  0  0  0  0  0  0  0  0
   -8.9236    4.1378  -16.4790 C   0  0  0  0  0  0  0  0  0  0  0  0
   -8.4512    4.1300  -17.7857 C   0  0  0  0  0  0  0  0  0  0  0  0
   -9.2636    3.6943  -18.7601 F   0  0  0  0  0  0  0  0  0  0  0  0
   -7.1892    4.6305  -18.1287 C   0  0  0  0  0  0  0  0  0  0  0  0
   -6.3894    5.1552  -17.0979 C   0  0  0  0  0  0  0  0  0  0  0  0
   -6.8484    5.1628  -15.7757 C   0  0  0  0  0  0  0  0  0  0  0  0
   -5.8271    5.7945  -15.0373 C   0  0  0  0  0  0  0  0  0  0  0  0
   -4.8024    6.1639  -15.7966 N   0  0  0  0  0  0  0  0  0  0  0  0
   -5.1525    5.7769  -17.0409 N   0  0  0  0  0  0  0  0  0  0  0  0
   -4.2034    6.1055  -18.1089 C   0  0  0  0  0  0  0  0  0  0  0  0
   -3.8064    4.9536  -19.0151 C   0  0  0  0  0  0  0  0  0  0  0  0
   -3.7397    5.9366  -20.1256 N   0  0  0  0  0  0  0  0  0  0  0  0
   -4.7533    6.7396  -19.3838 C   0  0  0  0  0  0  0  0  0  0  0  0
   -4.0552    5.5815  -21.0283 H   0  0  0  0  0  0  0  0  0  0  0  0
   -8.0855    4.1175  -12.9911 N   0  0  0  0  0  0  0  0  0  0  0  0
   -8.6683    4.9830  -14.1205 C   0  0  0  0  0  0  0  0  0  0  0  0
   -9.4088    5.8836  -14.0782 O   0  0  0  0  0  0  0  0  0  0  0  0
   -7.5348    3.3601  -13.2947 H   0  0  0  0  0  0  0  0  0  0  0  0
   -8.6146    3.3580   -9.5655 C   0  0  0  0  0  0  0  0  0  0  0  0
   -8.3244    4.5563   -8.9449 C   0  0  0  0  0  0  0  0  0  0  0  0
   -7.9903    5.5806   -9.7788 C   0  0  0  0  0  0  0  0  0  0  0  0
   -7.9365    5.4390  -11.1076 N   0  0  0  0  0  0  0  0  0  0  0  0
   -8.2083    4.2291  -11.6253 C   0  0  0  0  0  0  0  0  0  0  0  0
   -8.5483    3.1553  -10.9065 N   0  0  0  0  0  0  0  0  0  0  0  0
   -9.4589    1.6119   -7.8597 N   0  0  0  0  0  0  0  0  0  0  0  0
   -9.1221    2.3127   -8.7226 C   0  0  0  0  0  0  0  0  0  0  0  0
 26 27  3  0  0  0
 27 20  1  0  0  0
 20 21  2  0  0  0
 21 22  1  0  0  0
 22 23  2  0  0  0
 23 24  1  0  0  0
 24 16  1  0  0  0
 16 17  1  0  0  0
 17 18  2  0  0  0
 17  1  1  0  0  0
  1  2  2  0  0  0
  2  3  1  0  0  0
  3  4  1  0  0  0
  3  5  2  0  0  0
  5  6  1  0  0  0
  6  7  2  0  0  0
  7  8  1  0  0  0
  8  9  2  0  0  0
  9 10  1  0  0  0
 10 11  1  0  0  0
 11 12  1  0  0  0
 12 13  1  0  0  0
 13 14  1  0  0  0
 24 25  2  0  0  0
 25 20  1  0  0  0
  7  1  1  0  0  0
 14 11  1  0  0  0
 10  6  1  0  0  0
 16 19  1  0  0  0
 13 15  1  0  0  0
M  END
> <minimizedAffinity>
-8.54762

> <minimizedRMSD>
0.68127

$$$$
P30154


 31 35  0  0  0  0  0  0  0  0999 V2000
   -7.2434    4.5769  -15.1031 C   0  0  0  0  0  0  0  0  0  0  0  0
   -8.6140    4.6027  -15.7621 C   0  0  0  0  0  0  0  0  0  0  0  0
   -8.5841    4.1695  -17.2263 C   0  0  0  0  0  0  0  0  0  0  0  0
  -10.1920    4.4598  -17.9215 Cl  0  0  0  0  0  0  0  0  0  0  0  0
   -7.4877    4.8050  -18.0976 C   0  0  0  0  0  0  0  0  0  0  0  0
   -6.2527    5.1441  -17.3319 C   0  0  0  0  0  0  0  0  0  0  0  0
   -6.1715    5.0644  -16.0019 C   0  0  0  0  0  0  0  0  0  0  0  0
   -4.7824    5.3532  -15.5815 C   0  0  0  0  0  0  0  0  0  0  0  0
   -4.0430    5.5568  -16.8498 N   0  0  0  0  0  0  0  0  0  0  0  0
   -5.0323    5.5021  -17.8891 N   0  0  0  0  0  0  0  0  0  0  0  0
   -3.3497    4.8200  -16.9795 H   0  0  0  0  0  0  0  0  0  0  0  0
   -4.6289    5.2079  -19.2509 C   0  0  0  0  0  0  0  0  0  0  0  0
   -4.2552    6.4576  -20.0741 C   0  0  0  0  0  0  0  0  0  0  0  0
   -3.1062    5.6984  -20.6456 N   0  0  0  0  0  0  0  0  0  0  0  0
   -3.1351    4.8329  -19.4445 C   0  0  0  0  0  0  0  0  0  0  0  0
   -2.2509    6.2438  -20.7525 H   0  0  0  0  0  0  0  0  0  0  0  0
   -6.8298    6.3064  -13.4800 O   0  0  0  0  0  0  0  0  0  0  0  0
   -7.3282    5.2788  -13.7384 C   0  0  0  0  0  0  0  0  0  0  0  0
   -8.1198    4.2798  -12.8308 N   0  0  0  0  0  0  0  0  0  0  0  0
   -8.5098    3.5110  -13.3062 H   0  0  0  0  0  0  0  0  0  0  0  0
   -8.3602    4.3019  -11.4695 C   0  0  0  0  0  0  0  0  0  0  0  0
   -8.6613    3.0895  -10.8569 C   0  0  0  0  0  0  0  0  0  0  0  0
   -8.7338    3.0149   -9.4700 C   0  0  0  0  0  0  0  0  0  0  0  0
   -8.5315    4.1459   -8.6594 C   0  0  0  0  0  0  0  0  0  0  0  0
   -8.3128    5.3704   -9.3207 C   0  0  0  0  0  0  0  0  0  0  0  0
   -8.2198    5.4531  -10.7110 C   0  0  0  0  0  0  0  0  0  0  0  0
   -8.4292    4.0265   -7.0983 C   0  0  0  0  0  0  0  0  0  0  0  0
   -9.1560    5.0210   -6.1693 C   0  0  0  0  0  0  0  0  0  0  0  0
   -9.2726    3.9149   -5.1839 N   0  0  0  0  0  0  0  0  0  0  0  0
   -9.2813    2.9784   -6.3433 C   0  0  0  0  0  0  0  0  0  0  0  0
  -10.1324    3.9218   -4.6351 H   0  0  0  0  0  0  0  0  0  0  0  0
 17 18  2  0  0  0
 18 19  1  0  0  0
 19 21  1  0  0  0
 21 22  2  0  0  0
 22 23  1  0  0  0
 23 24  2  0  0  0
 24 27  1  0  0  0
 27 28  1  0  0  0
 28 29  1  0  0  0
 29 30  1  0  0  0
 24 25  1  0  0  0
 25 26  2  0  0  0
  1 18  1  0  0  0
  1  2  1  0  0  0
  2  3  1  0  0  0
  3  4  1  0  0  0
  3  5  1  0  0  0
  5  6  1  0  0  0
  6  7  2  0  0  0
  7  8  1  0  0  0
  8  9  1  0  0  0
  9 10  1  0  0  0
 10 12  1  0  0  0
 12 13  1  0  0  0
 13 14  1  0  0  0
 14 15  1  0  0  0
 26 21  1  0  0  0
  7  1  1  0  0  0
 15 12  1  0  0  0
 30 27  1  0  0  0
 10  6  1  0  0  0
 19 20  1  0  0  0
 29 31  1  0  0  0
  9 11  1  0  0  0
 14 16  1  0  0  0
M  END
> <minimizedAffinity>
-8.28701

> <minimizedRMSD>
0.31737

$$$$
P30165


 32 36  0  0  0  0  0  0  0  0999 V2000
   -7.2375    4.8838  -15.1161 C   0  0  0  0  0  0  0  0  0  0  0  0
   -8.4598    4.5193  -15.7150 C   0  0  0  0  0  0  0  0  0  0  0  0
   -8.5587    4.3346  -17.0930 C   0  0  0  0  0  0  0  0  0  0  0  0
   -7.4260    4.4928  -17.8968 C   0  0  0  0  0  0  0  0  0  0  0  0
   -6.2308    4.8933  -17.2888 C   0  0  0  0  0  0  0  0  0  0  0  0
   -6.1056    5.0824  -15.9205 C   0  0  0  0  0  0  0  0  0  0  0  0
   -4.7646    5.4945  -15.7440 C   0  0  0  0  0  0  0  0  0  0  0  0
   -4.0974    5.5969  -16.8981 N   0  0  0  0  0  0  0  0  0  0  0  0
   -5.0107    5.2362  -17.8162 N   0  0  0  0  0  0  0  0  0  0  0  0
   -4.8056    5.3173  -19.2637 C   0  0  0  0  0  0  0  0  0  0  0  0
   -3.4093    4.8150  -19.6124 C   0  0  0  0  0  0  0  0  0  0  0  0
   -3.3381    5.8531  -20.6775 N   0  0  0  0  0  0  0  0  0  0  0  0
   -4.2870    6.6460  -19.8286 C   0  0  0  0  0  0  0  0  0  0  0  0
   -3.7087    5.5660  -21.5834 H   0  0  0  0  0  0  0  0  0  0  0  0
   -6.5936    6.1137  -13.2897 O   0  0  0  0  0  0  0  0  0  0  0  0
   -7.1680    5.1725  -13.6671 C   0  0  0  0  0  0  0  0  0  0  0  0
   -7.9635    4.1099  -12.8881 N   0  0  0  0  0  0  0  0  0  0  0  0
   -8.2961    3.3616  -13.4346 H   0  0  0  0  0  0  0  0  0  0  0  0
   -8.2865    4.0350  -11.5483 C   0  0  0  0  0  0  0  0  0  0  0  0
   -8.7120    2.8026  -11.0836 C   0  0  0  0  0  0  0  0  0  0  0  0
   -8.9576    2.6285   -9.7331 C   0  0  0  0  0  0  0  0  0  0  0  0
   -8.7370    3.6510   -8.7929 C   0  0  0  0  0  0  0  0  0  0  0  0
   -8.3905    4.9126   -9.3109 C   0  0  0  0  0  0  0  0  0  0  0  0
   -8.1704    5.1093  -10.6777 C   0  0  0  0  0  0  0  0  0  0  0  0
   -8.7225    3.3425   -7.2415 C   0  0  0  0  0  0  0  0  0  0  0  0
   -9.5949    4.0818   -6.2163 C   0  0  0  0  0  0  0  0  0  0  0  0
  -10.5916    3.0020   -6.3119 N   0  0  0  0  0  0  0  0  0  0  0  0
   -9.5228    2.1040   -6.7747 C   0  0  0  0  0  0  0  0  0  0  0  0
  -11.3285    3.1683   -6.9972 H   0  0  0  0  0  0  0  0  0  0  0  0
   -9.8856    4.0329  -17.7243 C   0  0  0  0  0  0  0  0  0  0  0  0
   -9.9782    4.7051  -18.9602 O   0  0  0  0  0  0  0  0  0  0  0  0
   -9.8967    5.6608  -18.8154 H   0  0  0  0  0  0  0  0  0  0  0  0
 15 16  2  0  0  0
 16 17  1  0  0  0
 17 19  1  0  0  0
 19 20  2  0  0  0
 20 21  1  0  0  0
 21 22  2  0  0  0
 22 25  1  0  0  0
 25 26  1  0  0  0
 26 27  1  0  0  0
 27 28  1  0  0  0
 22 23  1  0  0  0
 23 24  2  0  0  0
 16  1  1  0  0  0
  1  2  2  0  0  0
  2  3  1  0  0  0
  3 30  1  0  0  0
 30 31  1  0  0  0
  3  4  2  0  0  0
  4  5  1  0  0  0
  5  6  2  0  0  0
  6  7  1  0  0  0
  7  8  2  0  0  0
  8  9  1  0  0  0
  9 10  1  0  0  0
 10 11  1  0  0  0
 11 12  1  0  0  0
 12 13  1  0  0  0
 24 19  1  0  0  0
  6  1  1  0  0  0
 13 10  1  0  0  0
 28 25  1  0  0  0
  9  5  1  0  0  0
 17 18  1  0  0  0
 27 29  1  0  0  0
 31 32  1  0  0  0
 12 14  1  0  0  0
M  END
> <minimizedAffinity>
-8.96574

> <minimizedRMSD>
0.66115

$$$$
P30242


 32 36  0  0  0  0  0  0  0  0999 V2000
   -7.7394    4.9373  -15.1812 C   0  0  0  0  0  0  0  0  0  0  0  0
   -8.8279    4.4055  -15.8662 C   0  0  0  0  0  0  0  0  0  0  0  0
   -8.7288    4.1985  -17.2385 C   0  0  0  0  0  0  0  0  0  0  0  0
  -10.1307    3.7278  -18.0847 Cl  0  0  0  0  0  0  0  0  0  0  0  0
   -7.5587    4.4903  -17.9377 C   0  0  0  0  0  0  0  0  0  0  0  0
   -6.4731    5.0033  -17.2430 C   0  0  0  0  0  0  0  0  0  0  0  0
   -6.5671    5.2185  -15.8725 C   0  0  0  0  0  0  0  0  0  0  0  0
   -5.2741    5.7401  -15.3434 C   0  0  0  0  0  0  0  0  0  0  0  0
   -4.6940    4.8233  -14.3950 O   0  0  0  0  0  0  0  0  0  0  0  0
   -4.3584    5.8577  -16.6736 C   0  0  0  0  0  0  0  0  0  0  0  0
   -4.0518    7.3702  -16.9110 C   0  0  0  0  0  0  0  0  0  0  0  0
   -2.2587    7.5153  -17.0288 S   0  0  0  0  0  0  0  0  0  0  0  0
   -2.0363    6.0371  -16.0456 C   0  0  0  0  0  0  0  0  0  0  0  0
   -3.0950    5.1203  -16.4150 N   0  0  0  0  0  0  0  0  0  0  0  0
   -5.2245    5.3679  -17.7844 N   0  0  0  0  0  0  0  0  0  0  0  0
   -4.5745    3.9568  -14.8143 H   0  0  0  0  0  0  0  0  0  0  0  0
   -3.2438    4.4565  -15.6550 H   0  0  0  0  0  0  0  0  0  0  0  0
   -4.8103    5.1013  -19.1467 C   0  0  0  0  0  0  0  0  0  0  0  0
   -3.3206    5.1755  -19.5183 C   0  0  0  0  0  0  0  0  0  0  0  0
   -3.5264    6.4785  -20.1756 N   0  0  0  0  0  0  0  0  0  0  0  0
   -4.9898    6.2853  -20.1173 C   0  0  0  0  0  0  0  0  0  0  0  0
   -3.1517    6.5296  -21.1229 H   0  0  0  0  0  0  0  0  0  0  0  0
   -8.0376    6.4476  -13.5011 O   0  0  0  0  0  0  0  0  0  0  0  0
   -7.9004    5.3205  -13.7641 C   0  0  0  0  0  0  0  0  0  0  0  0
   -7.8935    4.0792  -12.8579 N   0  0  0  0  0  0  0  0  0  0  0  0
   -7.6801    3.2350  -13.3173 H   0  0  0  0  0  0  0  0  0  0  0  0
   -8.1367    3.9551  -11.5101 C   0  0  0  0  0  0  0  0  0  0  0  0
   -7.9633    5.0126  -10.6311 C   0  0  0  0  0  0  0  0  0  0  0  0
   -8.2345    4.8021   -9.2824 C   0  0  0  0  0  0  0  0  0  0  0  0
   -8.6617    3.5479   -8.8631 C   0  0  0  0  0  0  0  0  0  0  0  0
   -8.8133    2.5561   -9.8166 C   0  0  0  0  0  0  0  0  0  0  0  0
   -8.5655    2.7400  -11.1309 N   0  0  0  0  0  0  0  0  0  0  0  0
 23 24  2  0  0  0
 24 25  1  0  0  0
 25 27  1  0  0  0
 27 28  2  0  0  0
 28 29  1  0  0  0
 29 30  2  0  0  0
 30 31  1  0  0  0
 31 32  2  0  0  0
 24  1  1  0  0  0
  1  2  2  0  0  0
  2  3  1  0  0  0
  3  4  1  0  0  0
  3  5  2  0  0  0
  5  6  1  0  0  0
  6  7  2  0  0  0
  7  8  1  0  0  0
  8  9  1  0  0  0
  8 10  1  0  0  0
 10 11  1  0  0  0
 11 12  1  0  0  0
 12 13  1  0  0  0
 13 14  1  0  0  0
 10 15  1  0  0  0
 15 18  1  0  0  0
 18 19  1  0  0  0
 19 20  1  0  0  0
 20 21  1  0  0  0
 32 27  1  0  0  0
  7  1  1  0  0  0
 14 10  1  0  0  0
 21 18  1  0  0  0
 15  6  1  0  0  0
 25 26  1  0  0  0
  9 16  1  0  0  0
 14 17  1  0  0  0
 20 22  1  0  0  0
M  END
> <minimizedAffinity>
-8.07855

> <minimizedRMSD>
0.62768

$$$$
P30315


 26 29  0  0  0  0  0  0  0  0999 V2000
   -4.8774    5.3747  -17.1562 N   0  0  0  0  0  0  0  0  0  0  0  0
   -4.4675    5.5424  -15.8744 N   0  0  0  0  0  0  0  0  0  0  0  0
   -5.5587    5.3370  -15.1443 C   0  0  0  0  0  0  0  0  0  0  0  0
   -6.6636    4.9403  -15.9186 C   0  0  0  0  0  0  0  0  0  0  0  0
   -8.0067    4.6087  -15.6453 C   0  0  0  0  0  0  0  0  0  0  0  0
   -8.8439    4.1928  -16.6807 C   0  0  0  0  0  0  0  0  0  0  0  0
   -8.3619    4.1566  -17.9766 C   0  0  0  0  0  0  0  0  0  0  0  0
   -9.1880    3.8060  -18.9732 F   0  0  0  0  0  0  0  0  0  0  0  0
   -7.0518    4.5256  -18.2851 C   0  0  0  0  0  0  0  0  0  0  0  0
   -6.1935    4.9202  -17.2379 C   0  0  0  0  0  0  0  0  0  0  0  0
   -4.4292    7.0220  -19.0342 C   0  0  0  0  0  0  0  0  0  0  0  0
   -3.9737    5.8007  -18.2745 C   0  0  0  0  0  0  0  0  0  0  0  0
   -2.4953    5.9367  -17.8085 C   0  0  0  0  0  0  0  0  0  0  0  0
   -2.0871    5.2792  -19.0744 N   0  0  0  0  0  0  0  0  0  0  0  0
   -3.4226    4.6277  -19.1244 C   0  0  0  0  0  0  0  0  0  0  0  0
   -1.3052    4.6311  -18.9796 H   0  0  0  0  0  0  0  0  0  0  0  0
   -8.5474    4.8706  -14.2945 C   0  0  0  0  0  0  0  0  0  0  0  0
   -9.3698    5.6932  -14.2025 O   0  0  0  0  0  0  0  0  0  0  0  0
   -7.9381    3.9422  -13.2250 N   0  0  0  0  0  0  0  0  0  0  0  0
   -7.3054    3.2728  -13.5725 H   0  0  0  0  0  0  0  0  0  0  0  0
   -8.1365    3.8965  -11.8526 C   0  0  0  0  0  0  0  0  0  0  0  0
   -8.4201    2.6898  -11.2517 C   0  0  0  0  0  0  0  0  0  0  0  0
   -8.5956    2.7225   -9.8856 C   0  0  0  0  0  0  0  0  0  0  0  0
   -8.5244    3.8520   -9.1570 N   0  0  0  0  0  0  0  0  0  0  0  0
   -8.2426    4.9624   -9.8477 C   0  0  0  0  0  0  0  0  0  0  0  0
   -8.0364    5.0437  -11.1671 N   0  0  0  0  0  0  0  0  0  0  0  0
 11 12  1  0  0  0
 12  1  1  0  0  0
  1  2  1  0  0  0
  2  3  2  0  0  0
  3  4  1  0  0  0
  4  5  2  0  0  0
  5 17  1  0  0  0
 17 18  2  0  0  0
 17 19  1  0  0  0
 19 21  1  0  0  0
 21 22  2  0  0  0
 22 23  1  0  0  0
 23 24  2  0  0  0
 24 25  1  0  0  0
 25 26  2  0  0  0
  5  6  1  0  0  0
  6  7  2  0  0  0
  7  8  1  0  0  0
  7  9  1  0  0  0
  9 10  2  0  0  0
 12 13  1  0  0  0
 13 14  1  0  0  0
 14 15  1  0  0  0
 15 12  1  0  0  0
 10  1  1  0  0  0
 10  4  1  0  0  0
 26 21  1  0  0  0
 19 20  1  0  0  0
 14 16  1  0  0  0
M  END
> <minimizedAffinity>
-9.11680

> <minimizedRMSD>
1.10149

$$$$
P30328


 39 43  0  0  0  0  0  0  0  0999 V2000
   -8.4321    4.8559  -15.5338 C   0  0  0  0  0  0  0  0  0  0  0  0
   -9.3629    4.1764  -16.3204 C   0  0  0  0  0  0  0  0  0  0  0  0
   -9.1193    3.9901  -17.6725 C   0  0  0  0  0  0  0  0  0  0  0  0
  -10.0464    3.3948  -18.4349 F   0  0  0  0  0  0  0  0  0  0  0  0
   -7.9497    4.4413  -18.2764 C   0  0  0  0  0  0  0  0  0  0  0  0
   -6.9945    5.0801  -17.4688 C   0  0  0  0  0  0  0  0  0  0  0  0
   -7.2200    5.2852  -16.1083 C   0  0  0  0  0  0  0  0  0  0  0  0
   -6.0713    5.9581  -15.6513 C   0  0  0  0  0  0  0  0  0  0  0  0
   -5.1786    6.1628  -16.6152 N   0  0  0  0  0  0  0  0  0  0  0  0
   -5.7533    5.6412  -17.7211 N   0  0  0  0  0  0  0  0  0  0  0  0
   -5.1590    5.7476  -19.0940 C   0  0  0  0  0  0  0  0  0  0  0  0
   -5.5692    4.7081  -20.0371 O   0  0  0  0  0  0  0  0  0  0  0  0
   -5.3025    7.1977  -19.6499 C   0  0  0  0  0  0  0  0  0  0  0  0
   -3.9776    7.0263  -20.3077 N   0  0  0  0  0  0  0  0  0  0  0  0
   -3.6039    6.1184  -19.1520 C   0  0  0  0  0  0  0  0  0  0  0  0
   -6.5199    4.5412  -19.9408 H   0  0  0  0  0  0  0  0  0  0  0  0
   -3.4224    7.8791  -20.3767 H   0  0  0  0  0  0  0  0  0  0  0  0
   -2.8450    6.8859  -18.0489 C   0  0  0  0  0  0  0  0  0  0  0  0
   -1.4205    6.4030  -17.8736 C   0  0  0  0  0  0  0  0  0  0  0  0
   -0.8847    6.1951  -16.6004 C   0  0  0  0  0  0  0  0  0  0  0  0
    0.4380    5.7711  -16.4492 C   0  0  0  0  0  0  0  0  0  0  0  0
    1.2375    5.5462  -17.5673 C   0  0  0  0  0  0  0  0  0  0  0  0
    0.7149    5.7469  -18.8415 C   0  0  0  0  0  0  0  0  0  0  0  0
   -0.6053    6.1739  -18.9930 C   0  0  0  0  0  0  0  0  0  0  0  0
   -8.1109    4.4608  -13.0674 N   0  0  0  0  0  0  0  0  0  0  0  0
   -8.7652    5.3156  -14.1701 C   0  0  0  0  0  0  0  0  0  0  0  0
   -9.4508    6.2570  -14.0911 O   0  0  0  0  0  0  0  0  0  0  0  0
   -7.5078    3.7556  -13.3962 H   0  0  0  0  0  0  0  0  0  0  0  0
   -8.6684    3.4568   -9.7074 C   0  0  0  0  0  0  0  0  0  0  0  0
   -8.4524    4.5789   -8.9862 N   0  0  0  0  0  0  0  0  0  0  0  0
   -8.1144    5.6801   -9.6710 C   0  0  0  0  0  0  0  0  0  0  0  0
   -7.9802    5.7065  -11.0334 C   0  0  0  0  0  0  0  0  0  0  0  0
   -8.2329    4.5231  -11.6896 C   0  0  0  0  0  0  0  0  0  0  0  0
   -8.5740    3.3926  -11.0557 N   0  0  0  0  0  0  0  0  0  0  0  0
   -8.9043    2.1639   -8.9670 C   0  0  0  0  0  0  0  0  0  0  0  0
   -8.8365    2.5218   -6.4552 N   0  0  0  0  0  0  0  0  0  0  0  0
   -9.6586    2.2477   -7.6335 C   0  0  0  0  0  0  0  0  0  0  0  0
   -9.4306    2.5570   -5.6268 H   0  0  0  0  0  0  0  0  0  0  0  0
   -8.3627    3.4175   -6.5721 H   0  0  0  0  0  0  0  0  0  0  0  0
 36 37  1  0  0  0
 37 35  1  0  0  0
 35 29  1  0  0  0
 29 30  2  0  0  0
 30 31  1  0  0  0
 31 32  2  0  0  0
 32 33  1  0  0  0
 33 25  1  0  0  0
 25 26  1  0  0  0
 26 27  2  0  0  0
 26  1  1  0  0  0
  1  2  2  0  0  0
  2  3  1  0  0  0
  3  4  1  0  0  0
  3  5  2  0  0  0
  5  6  1  0  0  0
  6  7  2  0  0  0
  7  8  1  0  0  0
  8  9  2  0  0  0
  9 10  1  0  0  0
 10 11  1  0  0  0
 11 12  1  0  0  0
 11 13  1  0  0  0
 13 14  1  0  0  0
 14 15  1  0  0  0
 15 18  1  0  0  0
 18 19  1  0  0  0
 19 20  2  0  0  0
 20 21  1  0  0  0
 21 22  2  0  0  0
 22 23  1  0  0  0
 23 24  2  0  0  0
 33 34  2  0  0  0
 34 29  1  0  0  0
  7  1  1  0  0  0
 15 11  1  0  0  0
 24 19  1  0  0  0
 10  6  1  0  0  0
 36 38  1  0  0  0
 36 39  1  0  0  0
 25 28  1  0  0  0
 12 16  1  0  0  0
 14 17  1  0  0  0
M  END
> <minimizedAffinity>
-8.57915

> <minimizedRMSD>
1.57441

$$$$
P30336


 30 33  0  0  0  0  0  0  0  0999 V2000
   -8.4525    4.6894  -15.7235 C   0  0  0  0  0  0  0  0  0  0  0  0
   -9.5353    4.3310  -16.5324 C   0  0  0  0  0  0  0  0  0  0  0  0
   -9.3615    4.2070  -17.9046 C   0  0  0  0  0  0  0  0  0  0  0  0
  -10.4220    3.9097  -18.6702 F   0  0  0  0  0  0  0  0  0  0  0  0
   -8.1238    4.4110  -18.5174 C   0  0  0  0  0  0  0  0  0  0  0  0
   -7.0304    4.7158  -17.6956 C   0  0  0  0  0  0  0  0  0  0  0  0
   -7.1615    4.8567  -16.2882 C   0  0  0  0  0  0  0  0  0  0  0  0
   -5.8759    5.2003  -15.7015 C   0  0  0  0  0  0  0  0  0  0  0  0
   -4.9926    5.2842  -16.7053 N   0  0  0  0  0  0  0  0  0  0  0  0
   -3.7836    5.6032  -16.6680 O   0  0  0  0  0  0  0  0  0  0  0  0
   -5.6916    4.9792  -17.9533 N   0  0  0  0  0  0  0  0  0  0  0  0
   -5.1372    5.0426  -19.3159 C   0  0  0  0  0  0  0  0  0  0  0  0
   -4.8523    6.4797  -19.7883 C   0  0  0  0  0  0  0  0  0  0  0  0
   -3.6733    5.9427  -20.5215 N   0  0  0  0  0  0  0  0  0  0  0  0
   -3.6172    4.8523  -19.5044 C   0  0  0  0  0  0  0  0  0  0  0  0
   -2.8606    6.5590  -20.5293 H   0  0  0  0  0  0  0  0  0  0  0  0
   -7.9853    4.1297  -13.3089 N   0  0  0  0  0  0  0  0  0  0  0  0
   -8.6525    5.0918  -14.3093 C   0  0  0  0  0  0  0  0  0  0  0  0
   -9.2648    6.0684  -14.1265 O   0  0  0  0  0  0  0  0  0  0  0  0
   -7.5874    3.3253  -13.7137 H   0  0  0  0  0  0  0  0  0  0  0  0
   -8.4447    3.4374   -9.8682 C   0  0  0  0  0  0  0  0  0  0  0  0
   -7.6498    4.3250   -9.2288 N   0  0  0  0  0  0  0  0  0  0  0  0
   -6.9643    5.1738  -10.0044 C   0  0  0  0  0  0  0  0  0  0  0  0
   -7.0369    5.1678  -11.3734 C   0  0  0  0  0  0  0  0  0  0  0  0
   -7.8539    4.2115  -11.9343 C   0  0  0  0  0  0  0  0  0  0  0  0
   -8.5539    3.3318  -11.2112 N   0  0  0  0  0  0  0  0  0  0  0  0
   -8.5441    1.5319   -8.2450 N   0  0  0  0  0  0  0  0  0  0  0  0
   -9.2884    2.5232   -9.0044 C   0  0  0  0  0  0  0  0  0  0  0  0
   -9.1924    0.9664   -7.6970 H   0  0  0  0  0  0  0  0  0  0  0  0
   -7.8912    2.0032   -7.6189 H   0  0  0  0  0  0  0  0  0  0  0  0
 27 28  1  0  0  0
 28 21  1  0  0  0
 21 22  2  0  0  0
 22 23  1  0  0  0
 23 24  2  0  0  0
 24 25  1  0  0  0
 25 17  1  0  0  0
 17 18  1  0  0  0
 18 19  2  0  0  0
 18  1  1  0  0  0
  1  2  2  0  0  0
  2  3  1  0  0  0
  3  4  1  0  0  0
  3  5  2  0  0  0
  5  6  1  0  0  0
  6  7  2  0  0  0
  7  8  1  0  0  0
  8  9  2  0  0  0
  9 10  1  0  0  0
  9 11  1  0  0  0
 11 12  1  0  0  0
 12 13  1  0  0  0
 13 14  1  0  0  0
 14 15  1  0  0  0
 25 26  2  0  0  0
 26 21  1  0  0  0
  7  1  1  0  0  0
 15 12  1  0  0  0
 11  6  1  0  0  0
 27 29  1  0  0  0
 27 30  1  0  0  0
 17 20  1  0  0  0
 14 16  1  0  0  0
M  CHG 1   9   1
M  CHG 1  10  -1
M  END
> <minimizedAffinity>
-8.60874

> <minimizedRMSD>
0.87279

$$$$
P30337


 31 34  0  0  0  0  0  0  0  0999 V2000
   -8.2772    4.7736  -15.7228 C   0  0  0  0  0  0  0  0  0  0  0  0
   -9.3390    4.3769  -16.5408 C   0  0  0  0  0  0  0  0  0  0  0  0
   -9.1448    4.2285  -17.9063 C   0  0  0  0  0  0  0  0  0  0  0  0
  -10.1925    3.9176  -18.6834 F   0  0  0  0  0  0  0  0  0  0  0  0
   -7.8989    4.4230  -18.5017 C   0  0  0  0  0  0  0  0  0  0  0  0
   -6.8276    4.7738  -17.6700 C   0  0  0  0  0  0  0  0  0  0  0  0
   -6.9848    4.9614  -16.2703 C   0  0  0  0  0  0  0  0  0  0  0  0
   -5.7288    5.3922  -15.6812 C   0  0  0  0  0  0  0  0  0  0  0  0
   -4.8400    5.4944  -16.6792 N   0  0  0  0  0  0  0  0  0  0  0  0
   -3.6870    5.9810  -16.6544 O   0  0  0  0  0  0  0  0  0  0  0  0
   -5.4945    5.0637  -17.9172 N   0  0  0  0  0  0  0  0  0  0  0  0
   -4.8954    4.9788  -19.2590 C   0  0  0  0  0  0  0  0  0  0  0  0
   -4.5872    6.3429  -19.8985 C   0  0  0  0  0  0  0  0  0  0  0  0
   -3.3753    5.7168  -20.5002 N   0  0  0  0  0  0  0  0  0  0  0  0
   -3.3720    4.7691  -19.3468 C   0  0  0  0  0  0  0  0  0  0  0  0
   -2.5607    6.3287  -20.5503 H   0  0  0  0  0  0  0  0  0  0  0  0
   -8.3333    4.0847  -13.3152 N   0  0  0  0  0  0  0  0  0  0  0  0
   -8.5324    5.2129  -14.3302 C   0  0  0  0  0  0  0  0  0  0  0  0
   -8.8565    6.3192  -14.1745 O   0  0  0  0  0  0  0  0  0  0  0  0
   -8.1270    3.2068  -13.7102 H   0  0  0  0  0  0  0  0  0  0  0  0
   -8.3901    3.7858   -9.3051 N   0  0  0  0  0  0  0  0  0  0  0  0
   -7.0226    3.9486   -9.8044 C   0  0  0  0  0  0  0  0  0  0  0  0
   -7.0471    4.4018  -11.2603 C   0  0  0  0  0  0  0  0  0  0  0  0
   -8.3979    4.0977  -11.8906 C   0  0  0  0  0  0  0  0  0  0  0  0
   -8.8601    2.7988  -11.5011 N   0  0  0  0  0  0  0  0  0  0  0  0
   -9.0441    2.6923  -10.0515 C   0  0  0  0  0  0  0  0  0  0  0  0
   -8.1756    2.1032  -11.7979 H   0  0  0  0  0  0  0  0  0  0  0  0
   -8.3728    4.7275   -7.1656 N   0  0  0  0  0  0  0  0  0  0  0  0
   -8.4343    3.4724   -7.8869 C   0  0  0  0  0  0  0  0  0  0  0  0
   -8.4017    4.5449   -6.1625 H   0  0  0  0  0  0  0  0  0  0  0  0
   -9.1678    5.3100   -7.4282 H   0  0  0  0  0  0  0  0  0  0  0  0
 28 29  1  0  0  0
 29 21  1  0  0  0
 21 22  1  0  0  0
 22 23  1  0  0  0
 23 24  1  0  0  0
 24 17  1  0  0  0
 17 18  1  0  0  0
 18 19  2  0  0  0
 18  1  1  0  0  0
  1  2  2  0  0  0
  2  3  1  0  0  0
  3  4  1  0  0  0
  3  5  2  0  0  0
  5  6  1  0  0  0
  6  7  2  0  0  0
  7  8  1  0  0  0
  8  9  2  0  0  0
  9 10  1  0  0  0
  9 11  1  0  0  0
 11 12  1  0  0  0
 12 13  1  0  0  0
 13 14  1  0  0  0
 14 15  1  0  0  0
 24 25  1  0  0  0
 25 26  1  0  0  0
 26 21  1  0  0  0
  7  1  1  0  0  0
 15 12  1  0  0  0
 11  6  1  0  0  0
 28 30  1  0  0  0
 28 31  1  0  0  0
 17 20  1  0  0  0
 14 16  1  0  0  0
 25 27  1  0  0  0
M  CHG 1   9   1
M  CHG 1  10  -1
M  END
> <minimizedAffinity>
-7.83985

> <minimizedRMSD>
0.78053

$$$$
P30341


 31 34  0  0  0  0  0  0  0  0999 V2000
   -8.4176    4.9068  -15.6189 C   0  0  0  0  0  0  0  0  0  0  0  0
   -9.3561    4.5217  -16.5790 C   0  0  0  0  0  0  0  0  0  0  0  0
   -8.9588    4.3525  -17.8989 C   0  0  0  0  0  0  0  0  0  0  0  0
   -9.8919    4.0614  -18.8170 F   0  0  0  0  0  0  0  0  0  0  0  0
   -7.6299    4.5082  -18.3037 C   0  0  0  0  0  0  0  0  0  0  0  0
   -6.6893    4.8518  -17.3218 C   0  0  0  0  0  0  0  0  0  0  0  0
   -7.0552    5.0754  -15.9686 C   0  0  0  0  0  0  0  0  0  0  0  0
   -5.8943    5.5007  -15.2004 C   0  0  0  0  0  0  0  0  0  0  0  0
   -4.8592    5.5463  -16.0485 N   0  0  0  0  0  0  0  0  0  0  0  0
   -3.7031    5.9946  -15.8702 O   0  0  0  0  0  0  0  0  0  0  0  0
   -5.3216    5.0792  -17.3488 N   0  0  0  0  0  0  0  0  0  0  0  0
   -4.4752    4.7669  -18.5035 C   0  0  0  0  0  0  0  0  0  0  0  0
   -3.9869    5.9895  -19.2985 C   0  0  0  0  0  0  0  0  0  0  0  0
   -2.7081    5.2375  -19.5219 N   0  0  0  0  0  0  0  0  0  0  0  0
   -2.9713    4.5366  -18.2317 C   0  0  0  0  0  0  0  0  0  0  0  0
   -1.8690    5.8174  -19.5276 H   0  0  0  0  0  0  0  0  0  0  0  0
   -8.2028    4.4347  -13.1668 N   0  0  0  0  0  0  0  0  0  0  0  0
   -8.8377    5.3116  -14.2602 C   0  0  0  0  0  0  0  0  0  0  0  0
   -9.5189    6.2544  -14.1726 O   0  0  0  0  0  0  0  0  0  0  0  0
   -7.7258    3.6408  -13.5008 H   0  0  0  0  0  0  0  0  0  0  0  0
   -7.8110    7.1847   -9.1433 C   0  0  0  0  0  0  0  0  0  0  0  0
   -8.0084    5.8785   -9.8495 C   0  0  0  0  0  0  0  0  0  0  0  0
   -7.9879    5.8188  -11.2241 C   0  0  0  0  0  0  0  0  0  0  0  0
   -8.1927    4.5799  -11.7905 C   0  0  0  0  0  0  0  0  0  0  0  0
   -8.3823    3.4659  -11.0751 N   0  0  0  0  0  0  0  0  0  0  0  0
   -8.4081    3.6131   -9.7309 C   0  0  0  0  0  0  0  0  0  0  0  0
   -8.2258    4.7912   -9.0921 N   0  0  0  0  0  0  0  0  0  0  0  0
   -8.6622    2.3596   -8.9031 C   0  0  0  0  0  0  0  0  0  0  0  0
   -9.8754    2.3560   -8.0706 N   0  0  0  0  0  0  0  0  0  0  0  0
   -9.8043    3.0872   -7.3630 H   0  0  0  0  0  0  0  0  0  0  0  0
   -9.9715    1.4491   -7.6138 H   0  0  0  0  0  0  0  0  0  0  0  0
 21 22  1  0  0  0
 22 23  2  0  0  0
 23 24  1  0  0  0
 24 17  1  0  0  0
 17 18  1  0  0  0
 18 19  2  0  0  0
 18  1  1  0  0  0
  1  2  2  0  0  0
  2  3  1  0  0  0
  3  4  1  0  0  0
  3  5  2  0  0  0
  5  6  1  0  0  0
  6  7  2  0  0  0
  7  8  1  0  0  0
  8  9  2  0  0  0
  9 10  1  0  0  0
  9 11  1  0  0  0
 11 12  1  0  0  0
 12 13  1  0  0  0
 13 14  1  0  0  0
 14 15  1  0  0  0
 24 25  2  0  0  0
 25 26  1  0  0  0
 26 28  1  0  0  0
 28 29  1  0  0  0
 26 27  2  0  0  0
 27 22  1  0  0  0
  7  1  1  0  0  0
 15 12  1  0  0  0
 11  6  1  0  0  0
 17 20  1  0  0  0
 14 16  1  0  0  0
 29 30  1  0  0  0
 29 31  1  0  0  0
M  CHG 1   9   1
M  CHG 1  10  -1
M  END
> <minimizedAffinity>
-8.31495

> <minimizedRMSD>
0.79436

$$$$
P30355


 34 39  0  0  0  0  0  0  0  0999 V2000
   -7.4071    6.7735  -13.9956 O   0  0  0  0  0  0  0  0  0  0  0  0
   -7.7464    5.6623  -14.0613 C   0  0  0  0  0  0  0  0  0  0  0  0
   -8.1006    4.6650  -12.9542 N   0  0  0  0  0  0  0  0  0  0  0  0
   -8.2872    3.7506  -13.2677 H   0  0  0  0  0  0  0  0  0  0  0  0
   -8.2040    4.8447  -11.5454 C   0  0  0  0  0  0  0  0  0  0  0  0
   -6.8464    5.2572  -10.9843 C   0  0  0  0  0  0  0  0  0  0  0  0
   -6.5965    4.6604   -9.6098 C   0  0  0  0  0  0  0  0  0  0  0  0
   -5.6028    5.3714   -9.0118 F   0  0  0  0  0  0  0  0  0  0  0  0
   -7.8658    4.6212   -8.7471 C   0  0  0  0  0  0  0  0  0  0  0  0
   -8.3214    6.0386   -8.3572 C   0  0  0  0  0  0  0  0  0  0  0  0
   -7.4215    6.4742   -7.2040 C   0  0  0  0  0  0  0  0  0  0  0  0
   -6.9757    5.1820   -6.5250 C   0  0  0  0  0  0  0  0  0  0  0  0
   -7.5884    4.0407   -7.3491 C   0  0  0  0  0  0  0  0  0  0  0  0
   -8.8651    3.5011   -6.6782 C   0  0  0  0  0  0  0  0  0  0  0  0
   -9.7075    2.6989   -7.5007 O   0  0  0  0  0  0  0  0  0  0  0  0
   -9.2137    2.4577   -8.8171 C   0  0  0  0  0  0  0  0  0  0  0  0
   -8.9364    3.7946   -9.5226 C   0  0  0  0  0  0  0  0  0  0  0  0
   -8.6544    3.6057  -10.9690 N   0  0  0  0  0  0  0  0  0  0  0  0
   -9.5050    3.3017  -11.4426 H   0  0  0  0  0  0  0  0  0  0  0  0
   -7.7513    5.0655  -15.4143 C   0  0  0  0  0  0  0  0  0  0  0  0
   -8.9198    4.5928  -16.0128 C   0  0  0  0  0  0  0  0  0  0  0  0
   -8.9248    4.3099  -17.3752 C   0  0  0  0  0  0  0  0  0  0  0  0
  -10.0697    3.9114  -17.9497 F   0  0  0  0  0  0  0  0  0  0  0  0
   -7.7843    4.4560  -18.1731 C   0  0  0  0  0  0  0  0  0  0  0  0
   -6.6015    4.8674  -17.5408 C   0  0  0  0  0  0  0  0  0  0  0  0
   -6.5714    5.1674  -16.1791 C   0  0  0  0  0  0  0  0  0  0  0  0
   -5.2427    5.5654  -15.9270 C   0  0  0  0  0  0  0  0  0  0  0  0
   -4.4733    5.5028  -17.0105 N   0  0  0  0  0  0  0  0  0  0  0  0
   -5.3169    5.1034  -17.9881 N   0  0  0  0  0  0  0  0  0  0  0  0
   -4.8807    4.9751  -19.3909 C   0  0  0  0  0  0  0  0  0  0  0  0
   -4.7028    6.3388  -20.0827 C   0  0  0  0  0  0  0  0  0  0  0  0
   -3.4392    5.8333  -20.6697 N   0  0  0  0  0  0  0  0  0  0  0  0
   -3.3503    4.8483  -19.5696 C   0  0  0  0  0  0  0  0  0  0  0  0
   -2.6810    6.5153  -20.6848 H   0  0  0  0  0  0  0  0  0  0  0  0
  1  2  2  0  0  0
  2  3  1  0  0  0
  5  3  1  0  0  0
  5  6  1  0  0  0
  6  7  1  0  0  0
  7  8  1  0  0  0
  7  9  1  0  0  0
  9 10  1  0  0  0
 10 11  1  0  0  0
 11 12  1  0  0  0
 13 12  1  0  0  0
 13 14  1  0  0  0
 14 15  1  0  0  0
 15 16  1  0  0  0
 17 16  1  0  0  0
 17 18  1  0  0  0
  2 20  1  0  0  0
 20 21  2  0  0  0
 21 22  1  0  0  0
 22 23  1  0  0  0
 22 24  2  0  0  0
 24 25  1  0  0  0
 25 26  2  0  0  0
 26 27  1  0  0  0
 27 28  2  0  0  0
 28 29  1  0  0  0
 29 30  1  0  0  0
 30 31  1  0  0  0
 31 32  1  0  0  0
 32 33  1  0  0  0
 18  5  1  0  0  0
 26 20  1  0  0  0
 33 30  1  0  0  0
 13  9  1  0  0  0
 29 25  1  0  0  0
 17  9  1  0  0  0
  3  4  1  0  0  0
 18 19  1  0  0  0
 32 34  1  0  0  0
M  END
> <minimizedAffinity>
-8.23129

> <minimizedRMSD>
0.34638

$$$$
P30356


 29 32  0  0  0  0  0  0  0  0999 V2000
   -7.9148    4.8379  -15.6217 C   0  0  0  0  0  0  0  0  0  0  0  0
   -9.0572    4.4508  -16.3310 C   0  0  0  0  0  0  0  0  0  0  0  0
   -8.9865    4.2733  -17.7059 C   0  0  0  0  0  0  0  0  0  0  0  0
  -10.0976    3.9401  -18.3790 F   0  0  0  0  0  0  0  0  0  0  0  0
   -7.7965    4.4550  -18.4129 C   0  0  0  0  0  0  0  0  0  0  0  0
   -6.6508    4.7995  -17.6783 C   0  0  0  0  0  0  0  0  0  0  0  0
   -6.6914    4.9890  -16.2981 C   0  0  0  0  0  0  0  0  0  0  0  0
   -5.3719    5.3360  -15.9430 C   0  0  0  0  0  0  0  0  0  0  0  0
   -4.5446    5.3431  -16.9876 N   0  0  0  0  0  0  0  0  0  0  0  0
   -5.3427    5.0483  -18.0342 N   0  0  0  0  0  0  0  0  0  0  0  0
   -4.8593    5.0108  -19.4209 C   0  0  0  0  0  0  0  0  0  0  0  0
   -4.6409    6.4120  -20.0198 C   0  0  0  0  0  0  0  0  0  0  0  0
   -3.4374    5.8646  -20.7119 N   0  0  0  0  0  0  0  0  0  0  0  0
   -3.3307    4.8858  -19.5880 C   0  0  0  0  0  0  0  0  0  0  0  0
   -2.6554    6.5151  -20.7871 H   0  0  0  0  0  0  0  0  0  0  0  0
   -8.2564    4.1194  -13.2525 N   0  0  0  0  0  0  0  0  0  0  0  0
   -8.0121    5.2827  -14.2183 C   0  0  0  0  0  0  0  0  0  0  0  0
   -7.9560    6.4282  -14.0210 O   0  0  0  0  0  0  0  0  0  0  0  0
   -8.1804    3.2251  -13.6572 H   0  0  0  0  0  0  0  0  0  0  0  0
   -8.2689    3.4242   -9.1717 N   0  0  0  0  0  0  0  0  0  0  0  0
   -9.0665    2.6257  -10.0902 C   0  0  0  0  0  0  0  0  0  0  0  0
   -8.5788    2.7477  -11.4565 N   0  0  0  0  0  0  0  0  0  0  0  0
   -8.5744    4.1201  -11.8697 C   0  0  0  0  0  0  0  0  0  0  0  0
   -7.6500    4.9425  -11.0093 C   0  0  0  0  0  0  0  0  0  0  0  0
   -8.1720    4.8191   -9.5956 C   0  0  0  0  0  0  0  0  0  0  0  0
   -7.3048    5.4758   -8.7752 F   0  0  0  0  0  0  0  0  0  0  0  0
   -9.1852    2.2124  -12.0779 H   0  0  0  0  0  0  0  0  0  0  0  0
   -9.5543    2.1336   -7.3658 C   0  0  0  0  0  0  0  0  0  0  0  0
   -8.7532    3.3714   -7.7775 C   0  0  0  0  0  0  0  0  0  0  0  0
 28 29  1  0  0  0
 29 20  1  0  0  0
 20 21  1  0  0  0
 21 22  1  0  0  0
 22 23  1  0  0  0
 23 16  1  0  0  0
 16 17  1  0  0  0
 17 18  2  0  0  0
 17  1  1  0  0  0
  1  2  2  0  0  0
  2  3  1  0  0  0
  3  4  1  0  0  0
  3  5  2  0  0  0
  5  6  1  0  0  0
  6  7  2  0  0  0
  7  8  1  0  0  0
  8  9  2  0  0  0
  9 10  1  0  0  0
 10 11  1  0  0  0
 11 12  1  0  0  0
 12 13  1  0  0  0
 13 14  1  0  0  0
 23 24  1  0  0  0
 24 25  1  0  0  0
 25 26  1  0  0  0
 25 20  1  0  0  0
  7  1  1  0  0  0
 14 11  1  0  0  0
 10  6  1  0  0  0
 22 27  1  0  0  0
 16 19  1  0  0  0
 13 15  1  0  0  0
M  END
> <minimizedAffinity>
-8.07220

> <minimizedRMSD>
0.57012

$$$$
P30357


 31 35  0  0  0  0  0  0  0  0999 V2000
   -9.4885    5.8756  -14.4220 O   0  0  0  0  0  0  0  0  0  0  0  0
   -8.7165    5.0250  -14.5834 C   0  0  0  0  0  0  0  0  0  0  0  0
   -8.0172    4.1238  -13.5779 N   0  0  0  0  0  0  0  0  0  0  0  0
   -7.4565    3.4195  -13.9764 H   0  0  0  0  0  0  0  0  0  0  0  0
   -8.0408    4.1318  -12.1626 C   0  0  0  0  0  0  0  0  0  0  0  0
   -7.0789    3.1238  -11.8284 N   0  0  0  0  0  0  0  0  0  0  0  0
   -6.8740    2.9488  -10.3978 C   0  0  0  0  0  0  0  0  0  0  0  0
   -7.1348    4.1894   -9.5229 C   0  0  0  0  0  0  0  0  0  0  0  0
   -8.4506    4.1976   -8.7750 C   0  0  0  0  0  0  0  0  0  0  0  0
   -8.1768    5.0496   -7.5558 C   0  0  0  0  0  0  0  0  0  0  0  0
   -6.7865    4.9179   -7.2798 O   0  0  0  0  0  0  0  0  0  0  0  0
   -6.1935    4.1441   -8.3379 C   0  0  0  0  0  0  0  0  0  0  0  0
   -6.9181    5.4820  -10.3190 C   0  0  0  0  0  0  0  0  0  0  0  0
   -7.7625    5.5370  -11.5790 C   0  0  0  0  0  0  0  0  0  0  0  0
   -7.0964    6.3322  -12.4707 F   0  0  0  0  0  0  0  0  0  0  0  0
   -6.1866    3.3799  -12.2509 H   0  0  0  0  0  0  0  0  0  0  0  0
   -8.2691    4.7291  -15.9549 C   0  0  0  0  0  0  0  0  0  0  0  0
   -9.1857    4.3718  -16.9461 C   0  0  0  0  0  0  0  0  0  0  0  0
   -8.7690    4.3016  -18.2654 C   0  0  0  0  0  0  0  0  0  0  0  0
   -9.6734    4.0082  -19.2106 F   0  0  0  0  0  0  0  0  0  0  0  0
   -7.4431    4.5427  -18.6358 C   0  0  0  0  0  0  0  0  0  0  0  0
   -6.5244    4.8376  -17.6153 C   0  0  0  0  0  0  0  0  0  0  0  0
   -6.9182    4.9285  -16.2819 C   0  0  0  0  0  0  0  0  0  0  0  0
   -5.7411    5.2394  -15.5731 C   0  0  0  0  0  0  0  0  0  0  0  0
   -4.6782    5.3420  -16.3696 N   0  0  0  0  0  0  0  0  0  0  0  0
   -5.1731    5.1096  -17.6051 N   0  0  0  0  0  0  0  0  0  0  0  0
   -4.3327    5.1662  -18.8130 C   0  0  0  0  0  0  0  0  0  0  0  0
   -4.2876    6.5683  -19.4437 C   0  0  0  0  0  0  0  0  0  0  0  0
   -2.8280    6.3848  -19.6418 N   0  0  0  0  0  0  0  0  0  0  0  0
   -2.8319    5.3991  -18.5363 C   0  0  0  0  0  0  0  0  0  0  0  0
   -2.2706    7.2193  -19.4591 H   0  0  0  0  0  0  0  0  0  0  0  0
  1  2  2  0  0  0
  2  3  1  0  0  0
  5  3  1  0  0  0
  5  6  1  0  0  0
  6  7  1  0  0  0
  8  7  1  0  0  0
  8  9  1  0  0  0
  9 10  1  0  0  0
 10 11  1  0  0  0
 11 12  1  0  0  0
  8 13  1  0  0  0
 13 14  1  0  0  0
 14 15  1  0  0  0
  2 17  1  0  0  0
 17 18  2  0  0  0
 18 19  1  0  0  0
 19 20  1  0  0  0
 19 21  2  0  0  0
 21 22  1  0  0  0
 22 23  2  0  0  0
 23 24  1  0  0  0
 24 25  2  0  0  0
 25 26  1  0  0  0
 26 27  1  0  0  0
 27 28  1  0  0  0
 28 29  1  0  0  0
 29 30  1  0  0  0
 14  5  1  0  0  0
 23 17  1  0  0  0
 30 27  1  0  0  0
 12  8  1  0  0  0
 26 22  1  0  0  0
  3  4  1  0  0  0
  6 16  1  0  0  0
 29 31  1  0  0  0
M  END
> <minimizedAffinity>
-8.12519

> <minimizedRMSD>
1.02835

$$$$
P30363


 37 42  0  0  0  0  0  0  0  0999 V2000
   -3.2493    8.4385  -15.2188 C   0  0  0  0  0  0  0  0  0  0  0  0
   -2.5115    7.1387  -15.5271 C   0  0  0  0  0  0  0  0  0  0  0  0
   -3.4005    5.9141  -15.2983 C   0  0  0  0  0  0  0  0  0  0  0  0
   -4.8288    6.0248  -15.9024 C   0  0  0  0  0  0  0  0  0  0  0  0
   -5.7247    5.0992  -15.0207 C   0  0  0  0  0  0  0  0  0  0  0  0
   -6.8377    4.8615  -15.9765 C   0  0  0  0  0  0  0  0  0  0  0  0
   -8.1679    4.5917  -15.6883 C   0  0  0  0  0  0  0  0  0  0  0  0
   -9.0067    4.2790  -16.7432 C   0  0  0  0  0  0  0  0  0  0  0  0
   -8.5075    4.3035  -18.0491 C   0  0  0  0  0  0  0  0  0  0  0  0
   -9.3470    3.9910  -19.0475 F   0  0  0  0  0  0  0  0  0  0  0  0
   -7.1864    4.6834  -18.3381 C   0  0  0  0  0  0  0  0  0  0  0  0
   -6.3366    4.9713  -17.2832 C   0  0  0  0  0  0  0  0  0  0  0  0
   -4.9627    5.4015  -17.2705 N   0  0  0  0  0  0  0  0  0  0  0  0
   -5.3663    7.4032  -15.6788 N   0  0  0  0  0  0  0  0  0  0  0  0
   -4.4637    8.4817  -16.0295 N   0  0  0  0  0  0  0  0  0  0  0  0
   -5.5983    7.4949  -14.6898 H   0  0  0  0  0  0  0  0  0  0  0  0
   -4.9349    9.3732  -15.8758 H   0  0  0  0  0  0  0  0  0  0  0  0
   -4.1553    5.8901  -18.3590 C   0  0  0  0  0  0  0  0  0  0  0  0
   -3.7538    4.7602  -19.3537 C   0  0  0  0  0  0  0  0  0  0  0  0
   -3.9179    5.7102  -20.4594 N   0  0  0  0  0  0  0  0  0  0  0  0
   -4.8528    6.4829  -19.5921 C   0  0  0  0  0  0  0  0  0  0  0  0
   -4.3462    5.3152  -21.2966 H   0  0  0  0  0  0  0  0  0  0  0  0
   -8.6777    4.9379  -14.3405 C   0  0  0  0  0  0  0  0  0  0  0  0
   -9.3555    5.8924  -14.2783 O   0  0  0  0  0  0  0  0  0  0  0  0
   -8.1537    3.9987  -13.2160 N   0  0  0  0  0  0  0  0  0  0  0  0
   -7.6577    3.2105  -13.5353 H   0  0  0  0  0  0  0  0  0  0  0  0
   -8.2705    4.0903  -11.8497 C   0  0  0  0  0  0  0  0  0  0  0  0
   -7.9176    5.4149  -11.2451 C   0  0  0  0  0  0  0  0  0  0  0  0
   -8.0125    5.4852   -9.9103 C   0  0  0  0  0  0  0  0  0  0  0  0
   -8.4356    4.3721   -9.2055 N   0  0  0  0  0  0  0  0  0  0  0  0
   -8.6543    4.2077   -7.8644 C   0  0  0  0  0  0  0  0  0  0  0  0
   -9.1229    3.0149   -7.5841 N   0  0  0  0  0  0  0  0  0  0  0  0
   -9.1346    2.3563   -8.7934 C   0  0  0  0  0  0  0  0  0  0  0  0
   -8.7545    3.1810   -9.8347 C   0  0  0  0  0  0  0  0  0  0  0  0
   -8.6592    3.0399  -11.1962 N   0  0  0  0  0  0  0  0  0  0  0  0
   -2.9403   10.3656  -16.5548 C   0  0  0  0  0  0  0  0  0  0  0  0
   -2.3784    9.5105  -15.5672 O   0  0  0  0  0  0  0  0  0  0  0  0
 36 37  1  0  0  0
  1 37  1  0  0  0
  1  2  1  0  0  0
  2  3  1  0  0  0
  4  3  1  0  0  0
  4  5  1  0  0  0
  5  6  1  0  0  0
  6  7  2  0  0  0
  7 23  1  0  0  0
 23 24  2  0  0  0
 23 25  1  0  0  0
 25 27  1  0  0  0
 27 28  1  0  0  0
 28 29  2  0  0  0
 29 30  1  0  0  0
 30 31  1  0  0  0
 31 32  2  0  0  0
 32 33  1  0  0  0
 33 34  2  0  0  0
 34 35  1  0  0  0
  7  8  1  0  0  0
  8  9  2  0  0  0
  9 10  1  0  0  0
  9 11  1  0  0  0
 11 12  2  0  0  0
 12 13  1  0  0  0
 13 18  1  0  0  0
 18 19  1  0  0  0
 19 20  1  0  0  0
 20 21  1  0  0  0
  4 14  1  0  0  0
 14 15  1  0  0  0
 15  1  1  0  0  0
 13  4  1  0  0  0
 21 18  1  0  0  0
 12  6  1  0  0  0
 35 27  2  0  0  0
 34 30  1  0  0  0
 25 26  1  0  0  0
 20 22  1  0  0  0
 14 16  1  0  0  0
 15 17  1  0  0  0
M  END
> <minimizedAffinity>
-9.19815

> <minimizedRMSD>
0.83377

$$$$
P30366


 30 33  0  0  0  0  0  0  0  0999 V2000
   -8.0748    3.9121  -13.4617 N   0  0  0  0  0  0  0  0  0  0  0  0
   -8.1438    5.1576  -14.3494 C   0  0  0  0  0  0  0  0  0  0  0  0
   -8.1337    6.2867  -14.0676 O   0  0  0  0  0  0  0  0  0  0  0  0
   -8.1789    3.0584  -13.9408 H   0  0  0  0  0  0  0  0  0  0  0  0
   -8.1225    4.8255  -15.7948 C   0  0  0  0  0  0  0  0  0  0  0  0
   -9.2606    4.4729  -16.5254 C   0  0  0  0  0  0  0  0  0  0  0  0
   -9.1632    4.2911  -17.9025 C   0  0  0  0  0  0  0  0  0  0  0  0
  -10.2681    3.9809  -18.5964 F   0  0  0  0  0  0  0  0  0  0  0  0
   -7.9570    4.4487  -18.5949 C   0  0  0  0  0  0  0  0  0  0  0  0
   -6.8174    4.7643  -17.8409 C   0  0  0  0  0  0  0  0  0  0  0  0
   -6.8849    4.9444  -16.4603 C   0  0  0  0  0  0  0  0  0  0  0  0
   -5.5601    5.2283  -16.0679 C   0  0  0  0  0  0  0  0  0  0  0  0
   -4.7097    5.2241  -17.0906 N   0  0  0  0  0  0  0  0  0  0  0  0
   -5.4925    4.9765  -18.1639 N   0  0  0  0  0  0  0  0  0  0  0  0
   -4.9561    4.9730  -19.5378 C   0  0  0  0  0  0  0  0  0  0  0  0
   -4.7394    6.3955  -20.0849 C   0  0  0  0  0  0  0  0  0  0  0  0
   -3.4324    5.9521  -20.6218 N   0  0  0  0  0  0  0  0  0  0  0  0
   -3.4164    4.8631  -19.6208 C   0  0  0  0  0  0  0  0  0  0  0  0
   -2.6811    6.6334  -20.5127 H   0  0  0  0  0  0  0  0  0  0  0  0
   -8.8568    3.5573   -9.4073 N   0  0  0  0  0  0  0  0  0  0  0  0
   -8.1554    4.7800   -9.8104 C   0  0  0  0  0  0  0  0  0  0  0  0
   -8.2755    5.0430  -11.3023 C   0  0  0  0  0  0  0  0  0  0  0  0
   -7.8850    3.7872  -12.0578 C   0  0  0  0  0  0  0  0  0  0  0  0
   -8.6990    2.6813  -11.6489 N   0  0  0  0  0  0  0  0  0  0  0  0
   -8.4722    2.4118  -10.2292 C   0  0  0  0  0  0  0  0  0  0  0  0
   -8.4525    1.8564  -12.1958 H   0  0  0  0  0  0  0  0  0  0  0  0
   -8.5911    3.3044   -7.9877 C   0  0  0  0  0  0  0  0  0  0  0  0
   -9.9043    1.6971   -6.7485 C   0  0  0  0  0  0  0  0  0  0  0  0
   -8.7962    1.9224   -7.6325 N   0  0  0  0  0  0  0  0  0  0  0  0
   -8.9586    1.3932   -8.4892 H   0  0  0  0  0  0  0  0  0  0  0  0
 28 29  1  0  0  0
 29 27  1  0  0  0
 27 20  1  0  0  0
 20 21  1  0  0  0
 21 22  1  0  0  0
 22 23  1  0  0  0
 23  1  1  0  0  0
  1  2  1  0  0  0
  2  3  2  0  0  0
  2  5  1  0  0  0
  5  6  2  0  0  0
  6  7  1  0  0  0
  7  8  1  0  0  0
  7  9  2  0  0  0
  9 10  1  0  0  0
 10 11  2  0  0  0
 11 12  1  0  0  0
 12 13  2  0  0  0
 13 14  1  0  0  0
 14 15  1  0  0  0
 15 16  1  0  0  0
 16 17  1  0  0  0
 17 18  1  0  0  0
 23 24  1  0  0  0
 24 25  1  0  0  0
 25 20  1  0  0  0
 11  5  1  0  0  0
 18 15  1  0  0  0
 14 10  1  0  0  0
 29 30  1  0  0  0
  1  4  1  0  0  0
 17 19  1  0  0  0
 24 26  1  0  0  0
M  END
> <minimizedAffinity>
-8.09569

> <minimizedRMSD>
0.72280

$$$$
P30369


 41 46  0  0  0  0  0  0  0  0999 V2000
   -8.1155    5.1461  -14.1335 C   0  0  0  0  0  0  0  0  0  0  0  0
   -9.5444    4.9857  -13.9543 O   0  0  0  0  0  0  0  0  0  0  0  0
   -9.7773    5.1707  -13.0311 H   0  0  0  0  0  0  0  0  0  0  0  0
   -7.7957    4.8421  -15.6130 C   0  0  0  0  0  0  0  0  0  0  0  0
   -8.8340    4.4091  -16.4663 C   0  0  0  0  0  0  0  0  0  0  0  0
   -8.6730    4.3005  -17.8463 C   0  0  0  0  0  0  0  0  0  0  0  0
   -9.7264    3.9370  -18.5916 F   0  0  0  0  0  0  0  0  0  0  0  0
   -7.4570    4.5761  -18.4455 C   0  0  0  0  0  0  0  0  0  0  0  0
   -6.3762    4.8728  -17.6311 C   0  0  0  0  0  0  0  0  0  0  0  0
   -6.5435    4.9456  -16.2330 C   0  0  0  0  0  0  0  0  0  0  0  0
   -5.1713    4.9685  -15.6530 C   0  0  0  0  0  0  0  0  0  0  0  0
   -4.3077    5.5868  -16.8307 C   0  0  0  0  0  0  0  0  0  0  0  0
   -2.8900    4.9963  -16.6410 C   0  0  0  0  0  0  0  0  0  0  0  0
   -1.7003    5.9120  -16.9339 C   0  0  0  0  0  0  0  0  0  0  0  0
   -1.9016    7.3151  -16.3937 C   0  0  0  0  0  0  0  0  0  0  0  0
   -3.1392    7.9370  -17.0110 C   0  0  0  0  0  0  0  0  0  0  0  0
   -4.3923    7.1366  -16.6841 C   0  0  0  0  0  0  0  0  0  0  0  0
   -5.0221    5.0973  -18.0627 N   0  0  0  0  0  0  0  0  0  0  0  0
   -4.6707    5.1718  -19.4728 C   0  0  0  0  0  0  0  0  0  0  0  0
   -4.6457    6.5627  -20.1150 C   0  0  0  0  0  0  0  0  0  0  0  0
   -3.1948    6.4385  -20.3574 N   0  0  0  0  0  0  0  0  0  0  0  0
   -3.2239    5.0304  -19.9391 C   0  0  0  0  0  0  0  0  0  0  0  0
   -2.6232    7.0356  -19.7597 H   0  0  0  0  0  0  0  0  0  0  0  0
   -9.3006    7.2449  -13.3156 N   0  0  0  0  0  0  0  0  0  0  0  0
   -7.8897    6.6999  -13.7151 C   0  0  0  0  0  0  0  0  0  0  0  0
   -6.8569    7.2463  -13.7782 O   0  0  0  0  0  0  0  0  0  0  0  0
  -10.0078    6.5618  -13.2657 H   0  0  0  0  0  0  0  0  0  0  0  0
  -11.1841    8.7975  -13.4318 C   0  0  0  0  0  0  0  0  0  0  0  0
   -9.7345    8.5905  -13.0074 C   0  0  0  0  0  0  0  0  0  0  0  0
   -9.5401    8.9108  -11.5315 C   0  0  0  0  0  0  0  0  0  0  0  0
   -7.4475    4.1825  -13.2821 N   0  0  0  0  0  0  0  0  0  0  0  0
   -6.9342    3.4745  -13.7344 H   0  0  0  0  0  0  0  0  0  0  0  0
   -7.4568    4.1553  -11.9049 C   0  0  0  0  0  0  0  0  0  0  0  0
   -6.3876    4.8193  -11.0769 C   0  0  0  0  0  0  0  0  0  0  0  0
   -6.5172    4.7578   -9.7439 C   0  0  0  0  0  0  0  0  0  0  0  0
   -7.5696    4.0443   -9.1994 N   0  0  0  0  0  0  0  0  0  0  0  0
   -7.9097    3.8132   -7.8924 C   0  0  0  0  0  0  0  0  0  0  0  0
   -8.9685    3.0451   -7.7873 N   0  0  0  0  0  0  0  0  0  0  0  0
   -9.2931    2.7299   -9.0885 C   0  0  0  0  0  0  0  0  0  0  0  0
   -8.4807    3.3821   -9.9958 C   0  0  0  0  0  0  0  0  0  0  0  0
   -8.4286    3.4568  -11.3612 N   0  0  0  0  0  0  0  0  0  0  0  0
 28 29  1  0  0  0
 29 30  1  0  0  0
 29 24  1  0  0  0
 24 25  1  0  0  0
 25 26  2  0  0  0
 25  1  1  0  0  0
  1  2  1  0  0  0
  1 31  1  0  0  0
 31 33  1  0  0  0
 33 34  1  0  0  0
 34 35  2  0  0  0
 35 36  1  0  0  0
 36 37  1  0  0  0
 37 38  2  0  0  0
 38 39  1  0  0  0
 39 40  2  0  0  0
 40 41  1  0  0  0
  1  4  1  0  0  0
  4  5  2  0  0  0
  5  6  1  0  0  0
  6  7  1  0  0  0
  6  8  2  0  0  0
  8  9  1  0  0  0
  9 10  2  0  0  0
 10 11  1  0  0  0
 11 12  1  0  0  0
 12 13  1  0  0  0
 13 14  1  0  0  0
 14 15  1  0  0  0
 15 16  1  0  0  0
 16 17  1  0  0  0
 12 18  1  0  0  0
 18 19  1  0  0  0
 19 20  1  0  0  0
 20 21  1  0  0  0
 21 22  1  0  0  0
 41 33  2  0  0  0
 10  4  1  0  0  0
 17 12  1  0  0  0
 22 19  1  0  0  0
 40 36  1  0  0  0
 18  9  1  0  0  0
 24 27  1  0  0  0
  2  3  1  0  0  0
 31 32  1  0  0  0
 21 23  1  0  0  0
M  END
> <minimizedAffinity>
-8.75999

> <minimizedRMSD>
0.57348

$$$$
P30373


 29 32  0  0  0  0  0  0  0  0999 V2000
   -8.4779    4.6740  -15.8234 C   0  0  0  0  0  0  0  0  0  0  0  0
   -9.5619    4.3134  -16.6283 C   0  0  0  0  0  0  0  0  0  0  0  0
   -9.3899    4.1960  -18.0018 C   0  0  0  0  0  0  0  0  0  0  0  0
  -10.4502    3.8991  -18.7672 F   0  0  0  0  0  0  0  0  0  0  0  0
   -8.1531    4.4070  -18.6150 C   0  0  0  0  0  0  0  0  0  0  0  0
   -7.0628    4.7116  -17.7862 C   0  0  0  0  0  0  0  0  0  0  0  0
   -7.2052    4.8397  -16.4058 C   0  0  0  0  0  0  0  0  0  0  0  0
   -5.9128    5.1630  -15.9410 C   0  0  0  0  0  0  0  0  0  0  0  0
   -5.0115    5.2123  -16.9202 N   0  0  0  0  0  0  0  0  0  0  0  0
   -5.7322    4.9742  -18.0352 N   0  0  0  0  0  0  0  0  0  0  0  0
   -5.1495    5.0193  -19.3834 C   0  0  0  0  0  0  0  0  0  0  0  0
   -4.8635    6.4534  -19.8661 C   0  0  0  0  0  0  0  0  0  0  0  0
   -3.6202    5.9298  -20.5031 N   0  0  0  0  0  0  0  0  0  0  0  0
   -3.6141    4.8741  -19.4463 C   0  0  0  0  0  0  0  0  0  0  0  0
   -2.8246    6.5675  -20.4739 H   0  0  0  0  0  0  0  0  0  0  0  0
   -7.9833    4.1556  -13.4071 N   0  0  0  0  0  0  0  0  0  0  0  0
   -8.6637    5.0953  -14.4192 C   0  0  0  0  0  0  0  0  0  0  0  0
   -9.3037    6.0559  -14.2480 O   0  0  0  0  0  0  0  0  0  0  0  0
   -7.5595    3.3603  -13.8035 H   0  0  0  0  0  0  0  0  0  0  0  0
   -8.4669    3.4906   -9.9578 C   0  0  0  0  0  0  0  0  0  0  0  0
   -7.6888    4.4107   -9.3386 N   0  0  0  0  0  0  0  0  0  0  0  0
   -6.9819    5.2341  -10.1173 C   0  0  0  0  0  0  0  0  0  0  0  0
   -7.0290    5.1896  -11.4834 C   0  0  0  0  0  0  0  0  0  0  0  0
   -7.8705    4.2466  -12.0314 C   0  0  0  0  0  0  0  0  0  0  0  0
   -8.5986    3.3934  -11.3009 N   0  0  0  0  0  0  0  0  0  0  0  0
   -9.2120    2.4749   -9.0961 C   0  0  0  0  0  0  0  0  0  0  0  0
   -9.8164    2.0094   -6.7705 C   0  0  0  0  0  0  0  0  0  0  0  0
   -8.7889    2.4258   -7.6895 N   0  0  0  0  0  0  0  0  0  0  0  0
   -8.0098    1.7718   -7.6139 H   0  0  0  0  0  0  0  0  0  0  0  0
 27 28  1  0  0  0
 28 26  1  0  0  0
 26 20  1  0  0  0
 20 21  2  0  0  0
 21 22  1  0  0  0
 22 23  2  0  0  0
 23 24  1  0  0  0
 24 16  1  0  0  0
 16 17  1  0  0  0
 17 18  2  0  0  0
 17  1  1  0  0  0
  1  2  2  0  0  0
  2  3  1  0  0  0
  3  4  1  0  0  0
  3  5  2  0  0  0
  5  6  1  0  0  0
  6  7  2  0  0  0
  7  8  1  0  0  0
  8  9  2  0  0  0
  9 10  1  0  0  0
 10 11  1  0  0  0
 11 12  1  0  0  0
 12 13  1  0  0  0
 13 14  1  0  0  0
 24 25  2  0  0  0
 25 20  1  0  0  0
  7  1  1  0  0  0
 14 11  1  0  0  0
 10  6  1  0  0  0
 28 29  1  0  0  0
 16 19  1  0  0  0
 13 15  1  0  0  0
M  END
> <minimizedAffinity>
-8.14322

> <minimizedRMSD>
0.90720

$$$$
P30416


 32 37  0  0  0  0  0  0  0  0999 V2000
   -3.8636    5.1122  -19.1893 O   0  0  0  0  0  0  0  0  0  0  0  0
   -4.8880    5.0730  -18.4624 N   0  0  0  0  0  0  0  0  0  0  0  0
   -6.1563    4.7135  -18.7169 C   0  0  0  0  0  0  0  0  0  0  0  0
   -6.8854    4.8108  -17.4626 C   0  0  0  0  0  0  0  0  0  0  0  0
   -6.0083    5.1790  -16.4259 C   0  0  0  0  0  0  0  0  0  0  0  0
   -4.7979    5.4343  -17.0330 N   0  0  0  0  0  0  0  0  0  0  0  0
   -6.3640    5.2458  -14.9825 C   0  0  0  0  0  0  0  0  0  0  0  0
   -7.8273    4.9427  -14.7019 C   0  0  0  0  0  0  0  0  0  0  0  0
   -8.6438    4.2179  -15.7538 C   0  0  0  0  0  0  0  0  0  0  0  0
   -8.3452    4.6054  -17.1963 C   0  0  0  0  0  0  0  0  0  0  0  0
   -9.0761    3.4703  -18.3244 Cl  0  0  0  0  0  0  0  0  0  0  0  0
   -8.5351    5.9864  -13.7650 N   0  0  0  0  0  0  0  0  0  0  0  0
   -8.3056    4.8310  -13.3653 C   0  0  0  0  0  0  0  0  0  0  0  0
   -3.5644    6.0033  -16.5147 C   0  0  0  0  0  0  0  0  0  0  0  0
   -3.0118    5.1977  -15.3411 C   0  0  0  0  0  0  0  0  0  0  0  0
   -1.6492    5.7510  -14.9207 C   0  0  0  0  0  0  0  0  0  0  0  0
   -1.7120    7.1810  -14.6167 N   0  0  0  0  0  0  0  0  0  0  0  0
   -2.1964    7.9612  -15.7536 C   0  0  0  0  0  0  0  0  0  0  0  0
   -3.5908    7.4956  -16.1654 C   0  0  0  0  0  0  0  0  0  0  0  0
   -0.7778    7.5062  -14.3681 H   0  0  0  0  0  0  0  0  0  0  0  0
   -8.3235    3.8091  -12.5213 N   0  0  0  0  0  0  0  0  0  0  0  0
   -8.2738    2.9051  -12.9081 H   0  0  0  0  0  0  0  0  0  0  0  0
   -8.4073    3.9050  -11.1258 C   0  0  0  0  0  0  0  0  0  0  0  0
   -8.1687    5.1092  -10.4358 C   0  0  0  0  0  0  0  0  0  0  0  0
   -8.2107    5.1650   -9.0364 C   0  0  0  0  0  0  0  0  0  0  0  0
   -8.5583    4.0198   -8.3427 C   0  0  0  0  0  0  0  0  0  0  0  0
   -8.8775    2.8524   -9.0173 C   0  0  0  0  0  0  0  0  0  0  0  0
   -8.7910    2.7727  -10.3963 C   0  0  0  0  0  0  0  0  0  0  0  0
   -9.2707    1.7951   -8.0449 C   0  0  0  0  0  0  0  0  0  0  0  0
   -9.2510    2.4378   -6.7041 N   0  0  0  0  0  0  0  0  0  0  0  0
   -8.6500    3.7783   -6.8751 C   0  0  0  0  0  0  0  0  0  0  0  0
   -8.6903    1.8825   -6.0578 H   0  0  0  0  0  0  0  0  0  0  0  0
  1  2  1  0  0  0
  2  3  2  0  0  0
  3  4  1  0  0  0
  4  5  2  0  0  0
  5  6  1  0  0  0
  6 14  1  0  0  0
 14 15  1  0  0  0
 15 16  1  0  0  0
 16 17  1  0  0  0
 17 18  1  0  0  0
 18 19  1  0  0  0
  5  7  1  0  0  0
  8  7  1  0  0  0
  8  9  1  0  0  0
  9 10  1  0  0  0
 10 11  1  0  0  0
  8 12  1  0  0  0
 12 13  2  0  0  0
 13 21  1  0  0  0
 21 23  1  0  0  0
 23 24  2  0  0  0
 24 25  1  0  0  0
 25 26  2  0  0  0
 26 27  1  0  0  0
 27 28  2  0  0  0
 27 29  1  0  0  0
 29 30  1  0  0  0
 30 31  1  0  0  0
  6  2  1  0  0  0
 19 14  1  0  0  0
 13  8  1  0  0  0
 28 23  1  0  0  0
 10  4  1  0  0  0
 31 26  1  0  0  0
 17 20  1  0  0  0
 21 22  1  0  0  0
 30 32  1  0  0  0
M  CHG 1   1  -1
M  CHG 1   2   1
M  END
> <minimizedAffinity>
-9.03963

> <minimizedRMSD>
0.68229

$$$$
P30443


 36 40  0  0  0  0  0  0  0  0999 V2000
   -5.3239    5.0684  -18.7159 C   0  0  0  0  0  0  0  0  0  0  0  0
   -6.6123    4.5666  -18.7369 C   0  0  0  0  0  0  0  0  0  0  0  0
   -7.1495    4.5903  -17.4199 C   0  0  0  0  0  0  0  0  0  0  0  0
   -8.3788    4.2465  -16.8023 C   0  0  0  0  0  0  0  0  0  0  0  0
   -9.6273    3.6485  -17.8052 Cl  0  0  0  0  0  0  0  0  0  0  0  0
   -8.5948    4.4307  -15.4344 C   0  0  0  0  0  0  0  0  0  0  0  0
   -7.5680    4.9575  -14.6658 C   0  0  0  0  0  0  0  0  0  0  0  0
   -6.3255    5.2715  -15.2292 C   0  0  0  0  0  0  0  0  0  0  0  0
   -6.1386    5.1167  -16.6093 C   0  0  0  0  0  0  0  0  0  0  0  0
   -5.0665    5.4754  -17.4207 N   0  0  0  0  0  0  0  0  0  0  0  0
   -3.9371    6.2901  -16.9648 C   0  0  0  0  0  0  0  0  0  0  0  0
   -3.0757    5.5718  -15.9098 C   0  0  0  0  0  0  0  0  0  0  0  0
   -2.5175    6.5373  -14.8668 C   0  0  0  0  0  0  0  0  0  0  0  0
   -2.0095    7.7391  -15.5144 N   0  0  0  0  0  0  0  0  0  0  0  0
   -3.0601    8.5195  -16.1712 C   0  0  0  0  0  0  0  0  0  0  0  0
   -4.3128    7.7189  -16.5386 C   0  0  0  0  0  0  0  0  0  0  0  0
   -1.3211    7.4649  -16.2154 H   0  0  0  0  0  0  0  0  0  0  0  0
   -7.7462    5.3583  -13.2500 C   0  0  0  0  0  0  0  0  0  0  0  0
   -7.4072    6.4355  -12.9531 O   0  0  0  0  0  0  0  0  0  0  0  0
   -8.2778    4.2017  -12.3791 N   0  0  0  0  0  0  0  0  0  0  0  0
   -8.5712    3.4081  -12.8824 H   0  0  0  0  0  0  0  0  0  0  0  0
   -8.4106    4.0971  -10.9959 C   0  0  0  0  0  0  0  0  0  0  0  0
   -8.1724    5.2111  -10.1719 C   0  0  0  0  0  0  0  0  0  0  0  0
   -8.2698    5.1125   -8.7816 C   0  0  0  0  0  0  0  0  0  0  0  0
   -8.6316    3.8948   -8.2392 C   0  0  0  0  0  0  0  0  0  0  0  0
   -8.8761    2.7935   -9.0511 C   0  0  0  0  0  0  0  0  0  0  0  0
   -8.7581    2.8694  -10.4312 C   0  0  0  0  0  0  0  0  0  0  0  0
   -9.2269    1.6222   -8.1982 C   0  0  0  0  0  0  0  0  0  0  0  0
   -9.3977    2.1536   -6.8201 N   0  0  0  0  0  0  0  0  0  0  0  0
   -8.8203    3.5129   -6.8116 C   0  0  0  0  0  0  0  0  0  0  0  0
   -8.9071    1.5597   -6.1515 H   0  0  0  0  0  0  0  0  0  0  0  0
   -4.4916    5.2283  -19.7884 N   0  0  0  0  0  0  0  0  0  0  0  0
   -4.8858    5.2889  -20.6885 H   0  0  0  0  0  0  0  0  0  0  0  0
   -2.4100    3.9388  -19.4684 C   0  0  0  0  0  0  0  0  0  0  0  0
   -3.0321    5.3132  -19.6496 C   0  0  0  0  0  0  0  0  0  0  0  0
   -2.4659    6.0274  -20.8762 C   0  0  0  0  0  0  0  0  0  0  0  0
 34 35  1  0  0  0
 35 36  1  0  0  0
 35 32  1  0  0  0
 32  1  1  0  0  0
  1  2  2  0  0  0
  2  3  1  0  0  0
  3  4  2  0  0  0
  4  5  1  0  0  0
  4  6  1  0  0  0
  6  7  2  0  0  0
  7 18  1  0  0  0
 18 19  2  0  0  0
 18 20  1  0  0  0
 20 22  1  0  0  0
 22 23  2  0  0  0
 23 24  1  0  0  0
 24 25  2  0  0  0
 25 26  1  0  0  0
 26 27  2  0  0  0
 26 28  1  0  0  0
 28 29  1  0  0  0
 29 30  1  0  0  0
  7  8  1  0  0  0
  8  9  2  0  0  0
  9 10  1  0  0  0
 10 11  1  0  0  0
 11 12  1  0  0  0
 12 13  1  0  0  0
 13 14  1  0  0  0
 14 15  1  0  0  0
 15 16  1  0  0  0
 10  1  1  0  0  0
 16 11  1  0  0  0
  9  3  1  0  0  0
 27 22  1  0  0  0
 30 25  1  0  0  0
 32 33  1  0  0  0
 20 21  1  0  0  0
 29 31  1  0  0  0
 14 17  1  0  0  0
M  END
> <minimizedAffinity>
-9.01893

> <minimizedRMSD>
0.60079

$$$$
P30482


 30 34  0  0  0  0  0  0  0  0999 V2000
   -7.5957    5.1971  -15.3537 C   0  0  0  0  0  0  0  0  0  0  0  0
   -8.7943    4.8785  -15.9890 C   0  0  0  0  0  0  0  0  0  0  0  0
   -8.8174    4.6942  -17.3689 C   0  0  0  0  0  0  0  0  0  0  0  0
  -10.3173    4.5002  -18.1673 Cl  0  0  0  0  0  0  0  0  0  0  0  0
   -7.6637    4.7549  -18.1517 C   0  0  0  0  0  0  0  0  0  0  0  0
   -6.4629    5.0283  -17.4964 C   0  0  0  0  0  0  0  0  0  0  0  0
   -6.3946    5.2642  -16.0993 C   0  0  0  0  0  0  0  0  0  0  0  0
   -5.0255    5.5445  -15.7064 C   0  0  0  0  0  0  0  0  0  0  0  0
   -4.2778    5.4738  -16.8129 N   0  0  0  0  0  0  0  0  0  0  0  0
   -3.0385    5.6095  -16.9323 O   0  0  0  0  0  0  0  0  0  0  0  0
   -5.1609    5.1639  -17.9405 N   0  0  0  0  0  0  0  0  0  0  0  0
   -4.7770    5.0469  -19.3644 C   0  0  0  0  0  0  0  0  0  0  0  0
   -3.2780    4.9061  -19.6245 C   0  0  0  0  0  0  0  0  0  0  0  0
   -3.1890    6.3475  -19.9121 N   0  0  0  0  0  0  0  0  0  0  0  0
   -4.6591    6.4036  -20.0720 C   0  0  0  0  0  0  0  0  0  0  0  0
   -2.6686    6.5719  -20.7601 H   0  0  0  0  0  0  0  0  0  0  0  0
   -7.3140    6.6957  -13.6814 O   0  0  0  0  0  0  0  0  0  0  0  0
   -7.5365    5.5785  -13.9219 C   0  0  0  0  0  0  0  0  0  0  0  0
   -7.6877    4.3715  -12.9884 N   0  0  0  0  0  0  0  0  0  0  0  0
   -7.9539    3.5358  -13.4355 H   0  0  0  0  0  0  0  0  0  0  0  0
   -7.5062    4.2626  -11.5836 C   0  0  0  0  0  0  0  0  0  0  0  0
   -7.9876    5.4763  -10.7785 C   0  0  0  0  0  0  0  0  0  0  0  0
   -7.6027    5.2216   -9.3378 C   0  0  0  0  0  0  0  0  0  0  0  0
   -8.3187    5.9968   -8.2648 C   0  0  0  0  0  0  0  0  0  0  0  0
   -8.9080    5.2950   -7.3422 N   0  0  0  0  0  0  0  0  0  0  0  0
   -8.7621    3.9959   -7.7596 C   0  0  0  0  0  0  0  0  0  0  0  0
   -8.0868    3.8813   -8.9046 C   0  0  0  0  0  0  0  0  0  0  0  0
   -7.8675    2.7049   -9.7851 C   0  0  0  0  0  0  0  0  0  0  0  0
   -8.1717    3.0394  -11.1909 N   0  0  0  0  0  0  0  0  0  0  0  0
   -9.1792    3.1583  -11.2959 H   0  0  0  0  0  0  0  0  0  0  0  0
 17 18  2  0  0  0
 18 19  1  0  0  0
 21 19  1  0  0  0
 21 22  1  0  0  0
 23 22  1  0  0  0
 23 24  1  0  0  0
 24 25  2  0  0  0
 25 26  1  0  0  0
 26 27  2  0  0  0
 27 28  1  0  0  0
 28 29  1  0  0  0
 18  1  1  0  0  0
  1  2  2  0  0  0
  2  3  1  0  0  0
  3  4  1  0  0  0
  3  5  2  0  0  0
  5  6  1  0  0  0
  6  7  2  0  0  0
  7  8  1  0  0  0
  8  9  2  0  0  0
  9 10  1  0  0  0
  9 11  1  0  0  0
 11 12  1  0  0  0
 12 13  1  0  0  0
 13 14  1  0  0  0
 14 15  1  0  0  0
 29 21  1  0  0  0
  7  1  1  0  0  0
 15 12  1  0  0  0
 27 23  1  0  0  0
 11  6  1  0  0  0
 19 20  1  0  0  0
 29 30  1  0  0  0
 14 16  1  0  0  0
M  CHG 1   9   1
M  CHG 1  10  -1
M  END
> <minimizedAffinity>
-7.04780

> <minimizedRMSD>
0.34809

$$$$
P30485


 30 34  0  0  0  0  0  0  0  0999 V2000
   -7.7250    4.6507  -15.3726 C   0  0  0  0  0  0  0  0  0  0  0  0
   -8.8317    4.5917  -16.2202 C   0  0  0  0  0  0  0  0  0  0  0  0
   -8.6482    4.6356  -17.5964 C   0  0  0  0  0  0  0  0  0  0  0  0
  -10.0249    4.5638  -18.6132 Cl  0  0  0  0  0  0  0  0  0  0  0  0
   -7.3864    4.8059  -18.1758 C   0  0  0  0  0  0  0  0  0  0  0  0
   -6.2788    4.8544  -17.3241 C   0  0  0  0  0  0  0  0  0  0  0  0
   -6.4167    4.7054  -15.9147 C   0  0  0  0  0  0  0  0  0  0  0  0
   -5.1049    4.6368  -15.2862 C   0  0  0  0  0  0  0  0  0  0  0  0
   -4.2079    4.7451  -16.2685 N   0  0  0  0  0  0  0  0  0  0  0  0
   -2.9585    4.6363  -16.2594 O   0  0  0  0  0  0  0  0  0  0  0  0
   -4.9175    5.0434  -17.5055 N   0  0  0  0  0  0  0  0  0  0  0  0
   -4.2571    5.9648  -18.4458 C   0  0  0  0  0  0  0  0  0  0  0  0
   -3.5571    5.2270  -19.6060 C   0  0  0  0  0  0  0  0  0  0  0  0
   -3.9314    6.3781  -20.4654 N   0  0  0  0  0  0  0  0  0  0  0  0
   -5.0769    6.6114  -19.5450 C   0  0  0  0  0  0  0  0  0  0  0  0
   -4.1957    6.1289  -21.4185 H   0  0  0  0  0  0  0  0  0  0  0  0
   -8.2250    5.9512  -13.6099 O   0  0  0  0  0  0  0  0  0  0  0  0
   -7.8808    4.8797  -13.9164 C   0  0  0  0  0  0  0  0  0  0  0  0
   -7.6153    3.6322  -13.0547 N   0  0  0  0  0  0  0  0  0  0  0  0
   -7.2553    2.8598  -13.5477 H   0  0  0  0  0  0  0  0  0  0  0  0
   -7.8069    3.4117  -11.6508 C   0  0  0  0  0  0  0  0  0  0  0  0
   -8.2974    4.6917  -10.9500 C   0  0  0  0  0  0  0  0  0  0  0  0
   -8.3931    4.4572   -9.4660 C   0  0  0  0  0  0  0  0  0  0  0  0
   -8.3476    5.6944   -8.6123 C   0  0  0  0  0  0  0  0  0  0  0  0
   -7.3512    5.7906   -7.7867 N   0  0  0  0  0  0  0  0  0  0  0  0
   -6.5946    4.6745   -8.0425 C   0  0  0  0  0  0  0  0  0  0  0  0
   -7.1114    3.8861   -8.9877 C   0  0  0  0  0  0  0  0  0  0  0  0
   -6.5857    2.6893   -9.6840 C   0  0  0  0  0  0  0  0  0  0  0  0
   -6.5367    2.9286  -11.1393 N   0  0  0  0  0  0  0  0  0  0  0  0
   -6.3026    2.0544  -11.6097 H   0  0  0  0  0  0  0  0  0  0  0  0
 17 18  2  0  0  0
 18 19  1  0  0  0
 21 19  1  0  0  0
 21 22  1  0  0  0
 23 22  1  0  0  0
 23 24  1  0  0  0
 24 25  2  0  0  0
 25 26  1  0  0  0
 26 27  2  0  0  0
 27 28  1  0  0  0
 28 29  1  0  0  0
 18  1  1  0  0  0
  1  2  2  0  0  0
  2  3  1  0  0  0
  3  4  1  0  0  0
  3  5  2  0  0  0
  5  6  1  0  0  0
  6  7  2  0  0  0
  7  8  1  0  0  0
  8  9  2  0  0  0
  9 10  1  0  0  0
  9 11  1  0  0  0
 11 12  1  0  0  0
 12 13  1  0  0  0
 13 14  1  0  0  0
 14 15  1  0  0  0
 29 21  1  0  0  0
  7  1  1  0  0  0
 15 12  1  0  0  0
 27 23  1  0  0  0
 11  6  1  0  0  0
 19 20  1  0  0  0
 29 30  1  0  0  0
 14 16  1  0  0  0
M  CHG 1   9   1
M  CHG 1  10  -1
M  END
> <minimizedAffinity>
-7.73763

> <minimizedRMSD>
0.77348

$$$$
P30504


 30 34  0  0  0  0  0  0  0  0999 V2000
   -7.8792    4.4261  -12.7146 N   0  0  0  0  0  0  0  0  0  0  0  0
   -7.5274    5.5468  -13.7196 C   0  0  0  0  0  0  0  0  0  0  0  0
   -7.2954    6.6779  -13.5420 O   0  0  0  0  0  0  0  0  0  0  0  0
   -7.9566    3.5276  -13.1095 H   0  0  0  0  0  0  0  0  0  0  0  0
   -8.1138    3.3434   -5.9993 C   0  0  0  0  0  0  0  0  0  0  0  0
   -9.2742    3.4464   -6.9916 C   0  0  0  0  0  0  0  0  0  0  0  0
  -10.5578    3.2260   -6.1828 C   0  0  0  0  0  0  0  0  0  0  0  0
   -9.2511    2.5422   -8.2597 C   0  0  0  0  0  0  0  0  0  0  0  0
   -8.7860    3.5065   -9.2892 C   0  0  0  0  0  0  0  0  0  0  0  0
   -8.5183    3.3476  -10.6445 C   0  0  0  0  0  0  0  0  0  0  0  0
   -8.1036    4.4806  -11.3466 C   0  0  0  0  0  0  0  0  0  0  0  0
   -7.9446    5.6940  -10.7674 N   0  0  0  0  0  0  0  0  0  0  0  0
   -8.2807    5.8197   -9.4666 C   0  0  0  0  0  0  0  0  0  0  0  0
   -8.7153    4.7565   -8.7202 C   0  0  0  0  0  0  0  0  0  0  0  0
   -9.1848    4.8335   -7.4387 O   0  0  0  0  0  0  0  0  0  0  0  0
   -7.5496    5.0960  -15.1266 C   0  0  0  0  0  0  0  0  0  0  0  0
   -8.7620    4.7789  -15.7447 C   0  0  0  0  0  0  0  0  0  0  0  0
   -8.8131    4.6282  -17.1272 C   0  0  0  0  0  0  0  0  0  0  0  0
  -10.3298    4.4750  -17.8998 Cl  0  0  0  0  0  0  0  0  0  0  0  0
   -7.6743    4.7081  -17.9285 C   0  0  0  0  0  0  0  0  0  0  0  0
   -6.4681    5.0084  -17.2892 C   0  0  0  0  0  0  0  0  0  0  0  0
   -6.3889    5.2237  -15.9145 C   0  0  0  0  0  0  0  0  0  0  0  0
   -5.0431    5.5845  -15.6916 C   0  0  0  0  0  0  0  0  0  0  0  0
   -4.3100    5.5626  -16.8060 N   0  0  0  0  0  0  0  0  0  0  0  0
   -5.1918    5.2015  -17.7640 N   0  0  0  0  0  0  0  0  0  0  0  0
   -4.8152    5.0246  -19.1834 C   0  0  0  0  0  0  0  0  0  0  0  0
   -3.3034    4.9795  -19.4167 C   0  0  0  0  0  0  0  0  0  0  0  0
   -3.3171    6.3890  -19.8433 N   0  0  0  0  0  0  0  0  0  0  0  0
   -4.7909    6.3443  -19.9622 C   0  0  0  0  0  0  0  0  0  0  0  0
   -2.8340    6.5611  -20.7250 H   0  0  0  0  0  0  0  0  0  0  0  0
  5  6  1  0  0  0
  6  7  1  0  0  0
  6  8  1  0  0  0
  8  9  1  0  0  0
  9 10  2  0  0  0
 10 11  1  0  0  0
 11  1  1  0  0  0
  1  2  1  0  0  0
  2  3  2  0  0  0
  2 16  1  0  0  0
 16 17  2  0  0  0
 17 18  1  0  0  0
 18 19  1  0  0  0
 18 20  2  0  0  0
 20 21  1  0  0  0
 21 22  2  0  0  0
 22 23  1  0  0  0
 23 24  2  0  0  0
 24 25  1  0  0  0
 25 26  1  0  0  0
 26 27  1  0  0  0
 27 28  1  0  0  0
 28 29  1  0  0  0
 11 12  2  0  0  0
 12 13  1  0  0  0
 13 14  2  0  0  0
 14 15  1  0  0  0
 15  6  1  0  0  0
 14  9  1  0  0  0
 22 16  1  0  0  0
 29 26  1  0  0  0
 25 21  1  0  0  0
  1  4  1  0  0  0
 28 30  1  0  0  0
M  END
> <minimizedAffinity>
-7.45225

> <minimizedRMSD>
0.48409

$$$$
P30505


 29 33  0  0  0  0  0  0  0  0999 V2000
   -7.4591    4.9796  -15.4567 C   0  0  0  0  0  0  0  0  0  0  0  0
   -8.6999    4.7239  -16.0249 C   0  0  0  0  0  0  0  0  0  0  0  0
   -8.8036    4.6491  -17.4038 C   0  0  0  0  0  0  0  0  0  0  0  0
  -10.3754    4.6181  -18.0567 Cl  0  0  0  0  0  0  0  0  0  0  0  0
   -7.6905    4.7290  -18.2498 C   0  0  0  0  0  0  0  0  0  0  0  0
   -6.4455    4.9548  -17.6439 C   0  0  0  0  0  0  0  0  0  0  0  0
   -6.3209    5.0972  -16.2632 C   0  0  0  0  0  0  0  0  0  0  0  0
   -4.9603    5.3721  -16.0390 C   0  0  0  0  0  0  0  0  0  0  0  0
   -4.2542    5.3882  -17.1649 N   0  0  0  0  0  0  0  0  0  0  0  0
   -5.1677    5.1266  -18.1289 N   0  0  0  0  0  0  0  0  0  0  0  0
   -4.7890    5.0716  -19.5486 C   0  0  0  0  0  0  0  0  0  0  0  0
   -3.2683    4.9449  -19.7811 C   0  0  0  0  0  0  0  0  0  0  0  0
   -3.3556    6.0205  -20.7865 N   0  0  0  0  0  0  0  0  0  0  0  0
   -4.6290    6.4699  -20.1701 C   0  0  0  0  0  0  0  0  0  0  0  0
   -3.4490    5.6896  -21.7468 H   0  0  0  0  0  0  0  0  0  0  0  0
   -6.7906    6.2611  -13.7139 O   0  0  0  0  0  0  0  0  0  0  0  0
   -7.3637    5.2970  -14.0301 C   0  0  0  0  0  0  0  0  0  0  0  0
   -8.0638    4.2304  -13.1774 N   0  0  0  0  0  0  0  0  0  0  0  0
   -8.4147    3.4628  -13.6843 H   0  0  0  0  0  0  0  0  0  0  0  0
   -8.2803    4.1719  -11.8247 C   0  0  0  0  0  0  0  0  0  0  0  0
   -8.2334    5.3260  -11.0576 C   0  0  0  0  0  0  0  0  0  0  0  0
   -8.4144    5.2228   -9.6824 C   0  0  0  0  0  0  0  0  0  0  0  0
   -8.3821    6.3475   -8.8405 C   0  0  0  0  0  0  0  0  0  0  0  0
   -8.5444    6.2058   -7.4618 C   0  0  0  0  0  0  0  0  0  0  0  0
   -8.7390    4.9419   -6.9113 C   0  0  0  0  0  0  0  0  0  0  0  0
   -8.7772    3.8190   -7.7406 C   0  0  0  0  0  0  0  0  0  0  0  0
   -8.6226    3.9462   -9.1260 C   0  0  0  0  0  0  0  0  0  0  0  0
   -8.6667    2.8529   -9.9933 C   0  0  0  0  0  0  0  0  0  0  0  0
   -8.5088    2.9467  -11.3304 N   0  0  0  0  0  0  0  0  0  0  0  0
 16 17  2  0  0  0
 17 18  1  0  0  0
 18 20  1  0  0  0
 20 21  2  0  0  0
 21 22  1  0  0  0
 22 23  2  0  0  0
 23 24  1  0  0  0
 24 25  2  0  0  0
 25 26  1  0  0  0
 26 27  2  0  0  0
 27 28  1  0  0  0
 28 29  2  0  0  0
 17  1  1  0  0  0
  1  2  2  0  0  0
  2  3  1  0  0  0
  3  4  1  0  0  0
  3  5  2  0  0  0
  5  6  1  0  0  0
  6  7  2  0  0  0
  7  8  1  0  0  0
  8  9  2  0  0  0
  9 10  1  0  0  0
 10 11  1  0  0  0
 11 12  1  0  0  0
 12 13  1  0  0  0
 13 14  1  0  0  0
 29 20  1  0  0  0
  7  1  1  0  0  0
 14 11  1  0  0  0
 27 22  1  0  0  0
 10  6  1  0  0  0
 18 19  1  0  0  0
 13 15  1  0  0  0
M  END
> <minimizedAffinity>
-8.32851

> <minimizedRMSD>
0.56629

$$$$
P30506


 32 36  0  0  0  0  0  0  0  0999 V2000
   -8.0429    4.3136  -13.3088 N   0  0  0  0  0  0  0  0  0  0  0  0
   -7.7483    5.4933  -14.2444 C   0  0  0  0  0  0  0  0  0  0  0  0
   -7.6441    6.6299  -14.0161 O   0  0  0  0  0  0  0  0  0  0  0  0
   -8.0043    3.4282  -13.7376 H   0  0  0  0  0  0  0  0  0  0  0  0
   -8.9320    3.5152   -7.8202 C   0  0  0  0  0  0  0  0  0  0  0  0
   -8.7702    3.8955   -9.2933 C   0  0  0  0  0  0  0  0  0  0  0  0
   -8.3744    2.6684  -10.1302 C   0  0  0  0  0  0  0  0  0  0  0  0
   -7.1163    2.3063   -9.7797 F   0  0  0  0  0  0  0  0  0  0  0  0
   -8.3805    2.8930  -11.5776 N   0  0  0  0  0  0  0  0  0  0  0  0
   -8.3623    4.2905  -11.9243 C   0  0  0  0  0  0  0  0  0  0  0  0
   -7.3886    5.0894  -11.0668 C   0  0  0  0  0  0  0  0  0  0  0  0
   -7.8356    5.1074   -9.5741 C   0  0  0  0  0  0  0  0  0  0  0  0
   -8.5451    6.4427   -9.2508 C   0  0  0  0  0  0  0  0  0  0  0  0
   -7.4299    7.4689   -9.0365 C   0  0  0  0  0  0  0  0  0  0  0  0
   -6.1490    6.6697   -8.8076 C   0  0  0  0  0  0  0  0  0  0  0  0
   -6.6000    5.2203   -8.6585 C   0  0  0  0  0  0  0  0  0  0  0  0
   -9.2222    2.4708  -11.9696 H   0  0  0  0  0  0  0  0  0  0  0  0
   -7.6910    5.0712  -15.6569 C   0  0  0  0  0  0  0  0  0  0  0  0
   -8.8745    4.7739  -16.3370 C   0  0  0  0  0  0  0  0  0  0  0  0
   -8.8543    4.6056  -17.7146 C   0  0  0  0  0  0  0  0  0  0  0  0
  -10.3372    4.4554  -18.5481 Cl  0  0  0  0  0  0  0  0  0  0  0  0
   -7.6720    4.6652  -18.4511 C   0  0  0  0  0  0  0  0  0  0  0  0
   -6.4944    4.9447  -17.7473 C   0  0  0  0  0  0  0  0  0  0  0  0
   -6.4836    5.1573  -16.3701 C   0  0  0  0  0  0  0  0  0  0  0  0
   -5.1391    5.4527  -16.0670 C   0  0  0  0  0  0  0  0  0  0  0  0
   -4.3478    5.4090  -17.1397 N   0  0  0  0  0  0  0  0  0  0  0  0
   -5.1913    5.1210  -18.1513 N   0  0  0  0  0  0  0  0  0  0  0  0
   -4.7701    5.0526  -19.5568 C   0  0  0  0  0  0  0  0  0  0  0  0
   -3.2638    4.8453  -19.7841 C   0  0  0  0  0  0  0  0  0  0  0  0
   -3.3536    5.8318  -20.9012 N   0  0  0  0  0  0  0  0  0  0  0  0
   -4.5059    6.4393  -20.1707 C   0  0  0  0  0  0  0  0  0  0  0  0
   -3.5878    5.4290  -21.8085 H   0  0  0  0  0  0  0  0  0  0  0  0
  6  5  1  0  0  0
  6  7  1  0  0  0
  7  8  1  0  0  0
  7  9  1  0  0  0
  9 10  1  0  0  0
 10  1  1  0  0  0
  1  2  1  0  0  0
  2  3  2  0  0  0
  2 18  1  0  0  0
 18 19  2  0  0  0
 19 20  1  0  0  0
 20 21  1  0  0  0
 20 22  2  0  0  0
 22 23  1  0  0  0
 23 24  2  0  0  0
 24 25  1  0  0  0
 25 26  2  0  0  0
 26 27  1  0  0  0
 27 28  1  0  0  0
 28 29  1  0  0  0
 29 30  1  0  0  0
 30 31  1  0  0  0
 10 11  1  0  0  0
 11 12  1  0  0  0
 12 13  1  0  0  0
 13 14  1  0  0  0
 14 15  1  0  0  0
 15 16  1  0  0  0
 12  6  1  0  0  0
 24 18  1  0  0  0
 31 28  1  0  0  0
 16 12  1  0  0  0
 27 23  1  0  0  0
  9 17  1  0  0  0
  1  4  1  0  0  0
 30 32  1  0  0  0
M  END
> <minimizedAffinity>
-8.15719

> <minimizedRMSD>
0.52993

$$$$
P30517


 30 34  0  0  0  0  0  0  0  0999 V2000
   -5.0479    5.0784  -18.1186 N   0  0  0  0  0  0  0  0  0  0  0  0
   -4.1071    5.1981  -17.1618 N   0  0  0  0  0  0  0  0  0  0  0  0
   -4.8061    5.1836  -16.0261 C   0  0  0  0  0  0  0  0  0  0  0  0
   -6.1942    5.0160  -16.2317 C   0  0  0  0  0  0  0  0  0  0  0  0
   -7.3429    4.9535  -15.4097 C   0  0  0  0  0  0  0  0  0  0  0  0
   -8.5934    4.8166  -16.0448 C   0  0  0  0  0  0  0  0  0  0  0  0
   -8.6857    4.6942  -17.4295 C   0  0  0  0  0  0  0  0  0  0  0  0
  -10.2260    4.5504  -18.1696 Cl  0  0  0  0  0  0  0  0  0  0  0  0
   -7.5607    4.7448  -18.2465 C   0  0  0  0  0  0  0  0  0  0  0  0
   -6.3233    4.9267  -17.6195 C   0  0  0  0  0  0  0  0  0  0  0  0
   -5.2529    7.4288  -20.7786 C   0  0  0  0  0  0  0  0  0  0  0  0
   -4.2721    6.5709  -20.0150 C   0  0  0  0  0  0  0  0  0  0  0  0
   -3.3001    5.8728  -20.9266 N   0  0  0  0  0  0  0  0  0  0  0  0
   -3.2945    4.7737  -19.9175 C   0  0  0  0  0  0  0  0  0  0  0  0
   -4.7361    5.1656  -19.5561 C   0  0  0  0  0  0  0  0  0  0  0  0
   -2.4065    6.3493  -21.0481 H   0  0  0  0  0  0  0  0  0  0  0  0
   -7.2119    5.2333  -13.9368 C   0  0  0  0  0  0  0  0  0  0  0  0
   -6.5672    6.1536  -13.6227 O   0  0  0  0  0  0  0  0  0  0  0  0
   -8.0662    4.2736  -13.0838 N   0  0  0  0  0  0  0  0  0  0  0  0
   -8.4586    3.5195  -13.5805 H   0  0  0  0  0  0  0  0  0  0  0  0
   -8.3809    4.3003  -11.6911 C   0  0  0  0  0  0  0  0  0  0  0  0
   -8.3350    2.9728  -10.9333 C   0  0  0  0  0  0  0  0  0  0  0  0
   -9.1324    3.2330   -9.6709 C   0  0  0  0  0  0  0  0  0  0  0  0
   -9.1306    2.3094   -8.4866 C   0  0  0  0  0  0  0  0  0  0  0  0
   -8.9249    2.8810   -7.3356 N   0  0  0  0  0  0  0  0  0  0  0  0
   -8.5333    4.1533   -7.6413 C   0  0  0  0  0  0  0  0  0  0  0  0
   -8.5861    4.4243   -8.9462 C   0  0  0  0  0  0  0  0  0  0  0  0
   -8.1443    5.6324   -9.6891 C   0  0  0  0  0  0  0  0  0  0  0  0
   -7.6328    5.3480  -11.0297 N   0  0  0  0  0  0  0  0  0  0  0  0
   -6.6579    5.0577  -10.9542 H   0  0  0  0  0  0  0  0  0  0  0  0
 12 11  1  0  0  0
 12 13  1  0  0  0
 13 14  1  0  0  0
 14 15  1  0  0  0
 15  1  1  0  0  0
  1  2  1  0  0  0
  2  3  2  0  0  0
  3  4  1  0  0  0
  4  5  2  0  0  0
  5 17  1  0  0  0
 17 18  2  0  0  0
 17 19  1  0  0  0
 21 19  1  0  0  0
 21 22  1  0  0  0
 23 22  1  0  0  0
 23 24  1  0  0  0
 24 25  2  0  0  0
 25 26  1  0  0  0
 26 27  2  0  0  0
 27 28  1  0  0  0
 28 29  1  0  0  0
  5  6  1  0  0  0
  6  7  2  0  0  0
  7  8  1  0  0  0
  7  9  1  0  0  0
  9 10  2  0  0  0
 15 12  1  0  0  0
 10  1  1  0  0  0
 10  4  1  0  0  0
 29 21  1  0  0  0
 27 23  1  0  0  0
 13 16  1  0  0  0
 19 20  1  0  0  0
 29 30  1  0  0  0
M  END
> <minimizedAffinity>
-8.02684

> <minimizedRMSD>
0.38161

$$$$
P30518


 30 33  0  0  0  0  0  0  0  0999 V2000
   -7.5912    4.3646  -13.1836 N   0  0  0  0  0  0  0  0  0  0  0  0
   -7.5310    5.5422  -14.1767 C   0  0  0  0  0  0  0  0  0  0  0  0
   -7.4918    6.6928  -13.9849 O   0  0  0  0  0  0  0  0  0  0  0  0
   -7.6950    3.4788  -13.6005 H   0  0  0  0  0  0  0  0  0  0  0  0
   -7.5573    5.1060  -15.5916 C   0  0  0  0  0  0  0  0  0  0  0  0
   -8.7554    4.8193  -16.2534 C   0  0  0  0  0  0  0  0  0  0  0  0
   -8.7505    4.6187  -17.6311 C   0  0  0  0  0  0  0  0  0  0  0  0
  -10.2412    4.4732  -18.4527 Cl  0  0  0  0  0  0  0  0  0  0  0  0
   -7.5772    4.6454  -18.3877 C   0  0  0  0  0  0  0  0  0  0  0  0
   -6.3929    4.9486  -17.7086 C   0  0  0  0  0  0  0  0  0  0  0  0
   -6.3617    5.1729  -16.3355 C   0  0  0  0  0  0  0  0  0  0  0  0
   -5.0102    5.4749  -16.0572 C   0  0  0  0  0  0  0  0  0  0  0  0
   -4.2430    5.4610  -17.1469 N   0  0  0  0  0  0  0  0  0  0  0  0
   -5.0998    5.1506  -18.1349 N   0  0  0  0  0  0  0  0  0  0  0  0
   -4.6923    5.0650  -19.5392 C   0  0  0  0  0  0  0  0  0  0  0  0
   -4.3806    6.3972  -20.2468 C   0  0  0  0  0  0  0  0  0  0  0  0
   -3.1825    5.7361  -20.8484 N   0  0  0  0  0  0  0  0  0  0  0  0
   -3.1867    4.8514  -19.6496 C   0  0  0  0  0  0  0  0  0  0  0  0
   -2.3613    6.3345  -20.9376 H   0  0  0  0  0  0  0  0  0  0  0  0
   -8.3371    3.5858   -9.6716 C   0  0  0  0  0  0  0  0  0  0  0  0
   -8.3568    3.5171  -11.0767 C   0  0  0  0  0  0  0  0  0  0  0  0
   -7.5230    4.3501  -11.8024 C   0  0  0  0  0  0  0  0  0  0  0  0
   -6.6599    5.1981  -11.2234 N   0  0  0  0  0  0  0  0  0  0  0  0
   -6.6199    5.2234   -9.8779 C   0  0  0  0  0  0  0  0  0  0  0  0
   -7.4309    4.4594   -9.0510 C   0  0  0  0  0  0  0  0  0  0  0  0
   -7.3274    4.6130   -7.5646 C   0  0  0  0  0  0  0  0  0  0  0  0
   -9.3987    2.8496   -8.8913 C   0  0  0  0  0  0  0  0  0  0  0  0
   -9.6173    1.5978   -6.8470 C   0  0  0  0  0  0  0  0  0  0  0  0
   -8.9273    1.7424   -8.1054 N   0  0  0  0  0  0  0  0  0  0  0  0
   -9.0550    0.8858   -8.6443 H   0  0  0  0  0  0  0  0  0  0  0  0
 28 29  1  0  0  0
 29 27  1  0  0  0
 27 20  1  0  0  0
 20 21  2  0  0  0
 21 22  1  0  0  0
 22  1  1  0  0  0
  1  2  1  0  0  0
  2  3  2  0  0  0
  2  5  1  0  0  0
  5  6  2  0  0  0
  6  7  1  0  0  0
  7  8  1  0  0  0
  7  9  2  0  0  0
  9 10  1  0  0  0
 10 11  2  0  0  0
 11 12  1  0  0  0
 12 13  2  0  0  0
 13 14  1  0  0  0
 14 15  1  0  0  0
 15 16  1  0  0  0
 16 17  1  0  0  0
 17 18  1  0  0  0
 22 23  2  0  0  0
 23 24  1  0  0  0
 24 25  2  0  0  0
 25 26  1  0  0  0
 25 20  1  0  0  0
 11  5  1  0  0  0
 18 15  1  0  0  0
 14 10  1  0  0  0
 29 30  1  0  0  0
  1  4  1  0  0  0
 17 19  1  0  0  0
M  END
> <minimizedAffinity>
-7.67404

> <minimizedRMSD>
0.77803

$$$$
P30525


 33 37  0  0  0  0  0  0  0  0999 V2000
   -5.1104    5.1865  -17.5455 C   0  0  0  0  0  0  0  0  0  0  0  0
   -5.2474    5.2491  -18.9167 C   0  0  0  0  0  0  0  0  0  0  0  0
   -6.5632    4.9830  -19.2241 N   0  0  0  0  0  0  0  0  0  0  0  0
   -7.2867    4.7909  -18.0765 C   0  0  0  0  0  0  0  0  0  0  0  0
   -8.6345    4.4615  -17.9043 C   0  0  0  0  0  0  0  0  0  0  0  0
   -9.1304    4.4769  -16.5989 C   0  0  0  0  0  0  0  0  0  0  0  0
   -8.3183    4.8472  -15.5358 C   0  0  0  0  0  0  0  0  0  0  0  0
   -6.9592    5.0837  -15.7167 C   0  0  0  0  0  0  0  0  0  0  0  0
   -6.4195    5.0305  -17.0102 C   0  0  0  0  0  0  0  0  0  0  0  0
   -6.9307    4.9375  -20.1363 H   0  0  0  0  0  0  0  0  0  0  0  0
   -4.2468    5.5058  -20.0620 C   0  0  0  0  0  0  0  0  0  0  0  0
   -3.4800    6.8458  -19.9994 C   0  0  0  0  0  0  0  0  0  0  0  0
   -2.3721    6.1865  -20.7431 N   0  0  0  0  0  0  0  0  0  0  0  0
   -2.8391    4.8996  -20.1593 C   0  0  0  0  0  0  0  0  0  0  0  0
   -1.4363    6.4708  -20.4536 H   0  0  0  0  0  0  0  0  0  0  0  0
   -3.4973    7.0737  -16.3607 C   0  0  0  0  0  0  0  0  0  0  0  0
   -3.6900    5.3220  -16.5741 S   0  0  0  0  0  0  0  0  0  0  0  0
   -4.0009    4.7410  -15.2850 O   0  0  0  0  0  0  0  0  0  0  0  0
   -2.6303    4.7559  -17.3799 O   0  0  0  0  0  0  0  0  0  0  0  0
   -8.8655    5.1505  -14.1999 C   0  0  0  0  0  0  0  0  0  0  0  0
   -9.6643    5.9964  -14.1164 O   0  0  0  0  0  0  0  0  0  0  0  0
   -8.1969    4.2985  -13.1075 N   0  0  0  0  0  0  0  0  0  0  0  0
   -7.6034    3.5888  -13.4441 H   0  0  0  0  0  0  0  0  0  0  0  0
   -8.2940    4.3673  -11.7223 C   0  0  0  0  0  0  0  0  0  0  0  0
   -8.0392    5.5689  -11.0402 C   0  0  0  0  0  0  0  0  0  0  0  0
   -8.1353    5.6370   -9.6481 C   0  0  0  0  0  0  0  0  0  0  0  0
   -8.5072    4.4946   -8.9674 C   0  0  0  0  0  0  0  0  0  0  0  0
   -8.7491    3.3014   -9.6420 C   0  0  0  0  0  0  0  0  0  0  0  0
   -8.6395    3.2165  -11.0181 C   0  0  0  0  0  0  0  0  0  0  0  0
   -9.0928    2.2454   -8.6471 C   0  0  0  0  0  0  0  0  0  0  0  0
   -9.4385    2.9868   -7.4067 N   0  0  0  0  0  0  0  0  0  0  0  0
   -8.7188    4.2761   -7.5073 C   0  0  0  0  0  0  0  0  0  0  0  0
   -9.1302    2.4691   -6.5837 H   0  0  0  0  0  0  0  0  0  0  0  0
 16 17  1  0  0  0
 17 18  2  0  0  0
 17 19  2  0  0  0
 17  1  1  0  0  0
  1  2  2  0  0  0
  2 11  1  0  0  0
 11 12  1  0  0  0
 12 13  1  0  0  0
 13 14  1  0  0  0
  2  3  1  0  0  0
  3  4  1  0  0  0
  4  5  2  0  0  0
  5  6  1  0  0  0
  6  7  2  0  0  0
  7 20  1  0  0  0
 20 21  2  0  0  0
 20 22  1  0  0  0
 22 24  1  0  0  0
 24 25  2  0  0  0
 25 26  1  0  0  0
 26 27  2  0  0  0
 27 28  1  0  0  0
 28 29  2  0  0  0
 28 30  1  0  0  0
 30 31  1  0  0  0
 31 32  1  0  0  0
  7  8  1  0  0  0
  8  9  2  0  0  0
  9  1  1  0  0  0
 14 11  1  0  0  0
  9  4  1  0  0  0
 29 24  1  0  0  0
 32 27  1  0  0  0
 13 15  1  0  0  0
  3 10  1  0  0  0
 22 23  1  0  0  0
 31 33  1  0  0  0
M  END
> <minimizedAffinity>
-8.93382

> <minimizedRMSD>
1.07939

$$$$
P30566


 38 42  0  0  0  0  0  0  0  0999 V2000
   -6.8846    5.2097  -15.4475 C   0  0  0  0  0  0  0  0  0  0  0  0
   -8.2495    4.9701  -15.1714 C   0  0  0  0  0  0  0  0  0  0  0  0
   -9.1673    4.5446  -16.1522 C   0  0  0  0  0  0  0  0  0  0  0  0
   -8.7559    4.3842  -17.4641 C   0  0  0  0  0  0  0  0  0  0  0  0
   -9.6313    3.9958  -18.4012 F   0  0  0  0  0  0  0  0  0  0  0  0
   -7.4453    4.6610  -17.7871 C   0  0  0  0  0  0  0  0  0  0  0  0
   -6.5492    5.0636  -16.7858 C   0  0  0  0  0  0  0  0  0  0  0  0
   -5.3016    5.2850  -17.5061 C   0  0  0  0  0  0  0  0  0  0  0  0
   -4.2056    5.6075  -17.1160 O   0  0  0  0  0  0  0  0  0  0  0  0
   -5.6684    5.0340  -18.9397 C   0  0  0  0  0  0  0  0  0  0  0  0
   -6.8938    4.6296  -19.0778 N   0  0  0  0  0  0  0  0  0  0  0  0
   -4.7028    5.2840  -20.0494 C   0  0  0  0  0  0  0  0  0  0  0  0
   -3.2083    4.9516  -19.9304 C   0  0  0  0  0  0  0  0  0  0  0  0
   -2.9325    6.1073  -20.8288 N   0  0  0  0  0  0  0  0  0  0  0  0
   -4.1957    6.7121  -20.3156 C   0  0  0  0  0  0  0  0  0  0  0  0
   -2.9395    5.8851  -21.8243 H   0  0  0  0  0  0  0  0  0  0  0  0
   -8.7957    5.3136  -13.8383 C   0  0  0  0  0  0  0  0  0  0  0  0
   -9.5297    6.2148  -13.7403 O   0  0  0  0  0  0  0  0  0  0  0  0
   -8.2328    4.3614  -12.7637 N   0  0  0  0  0  0  0  0  0  0  0  0
   -7.6837    3.6231  -13.1141 H   0  0  0  0  0  0  0  0  0  0  0  0
   -8.3742    4.3755  -11.3830 C   0  0  0  0  0  0  0  0  0  0  0  0
   -8.1777    5.5536  -10.6464 C   0  0  0  0  0  0  0  0  0  0  0  0
   -8.2915    5.5507   -9.2538 C   0  0  0  0  0  0  0  0  0  0  0  0
   -8.6357    4.3660   -8.6313 C   0  0  0  0  0  0  0  0  0  0  0  0
   -8.8382    3.2007   -9.3640 C   0  0  0  0  0  0  0  0  0  0  0  0
   -8.6937    3.1818  -10.7387 C   0  0  0  0  0  0  0  0  0  0  0  0
   -9.1904    2.0935   -8.4299 C   0  0  0  0  0  0  0  0  0  0  0  0
   -9.5456    2.7642   -7.1527 N   0  0  0  0  0  0  0  0  0  0  0  0
   -8.8517    4.0706   -7.1856 C   0  0  0  0  0  0  0  0  0  0  0  0
   -9.2253    2.2104   -6.3582 H   0  0  0  0  0  0  0  0  0  0  0  0
   -5.9895    5.5483  -14.4402 N   0  0  0  0  0  0  0  0  0  0  0  0
   -3.6628    4.9374  -13.8130 C   0  0  0  0  0  0  0  0  0  0  0  0
   -5.1092    4.4787  -13.9466 C   0  0  0  0  0  0  0  0  0  0  0  0
   -5.5589    6.9408  -14.2774 C   0  0  0  0  0  0  0  0  0  0  0  0
   -6.0567    7.5118  -12.9498 C   0  0  0  0  0  0  0  0  0  0  0  0
   -7.0244    8.6625  -13.1859 C   0  0  0  0  0  0  0  0  0  0  0  0
   -7.8755    8.8013  -12.0569 O   0  0  0  0  0  0  0  0  0  0  0  0
   -8.3739    7.9797  -11.9247 H   0  0  0  0  0  0  0  0  0  0  0  0
 32 33  1  0  0  0
 33 31  1  0  0  0
 31 34  1  0  0  0
 34 35  1  0  0  0
 35 36  1  0  0  0
 36 37  1  0  0  0
 31  1  1  0  0  0
  1  2  2  0  0  0
  2 17  1  0  0  0
 17 18  2  0  0  0
 17 19  1  0  0  0
 19 21  1  0  0  0
 21 22  2  0  0  0
 22 23  1  0  0  0
 23 24  2  0  0  0
 24 25  1  0  0  0
 25 26  2  0  0  0
 25 27  1  0  0  0
 27 28  1  0  0  0
 28 29  1  0  0  0
  2  3  1  0  0  0
  3  4  2  0  0  0
  4  5  1  0  0  0
  4  6  1  0  0  0
  6  7  2  0  0  0
  7  8  1  0  0  0
  8  9  2  0  0  0
  8 10  1  0  0  0
 10 12  1  0  0  0
 12 13  1  0  0  0
 13 14  1  0  0  0
 14 15  1  0  0  0
 10 11  2  0  0  0
  7  1  1  0  0  0
 15 12  1  0  0  0
 26 21  1  0  0  0
 11  6  1  0  0  0
 29 24  1  0  0  0
 37 38  1  0  0  0
 19 20  1  0  0  0
 28 30  1  0  0  0
 14 16  1  0  0  0
M  END
> <minimizedAffinity>
-7.58035

> <minimizedRMSD>
1.21237

$$$$
P30646


 41 44  0  0  0  0  0  0  0  0999 V2000
   -7.1999    4.3967  -13.5699 C   0  0  0  0  0  0  0  0  0  0  0  0
   -5.0023    6.1090  -18.8104 C   0  0  0  0  0  0  0  0  0  0  0  0
   -6.1791    5.5386  -19.0058 N   0  0  0  0  0  0  0  0  0  0  0  0
   -6.6887    5.2345  -17.7688 C   0  0  0  0  0  0  0  0  0  0  0  0
   -7.9431    4.7253  -17.3781 C   0  0  0  0  0  0  0  0  0  0  0  0
   -9.0783    4.4734  -18.3315 C   0  0  0  0  0  0  0  0  0  0  0  0
   -8.1132    4.4548  -15.9990 C   0  0  0  0  0  0  0  0  0  0  0  0
   -7.1211    4.7479  -15.0460 C   0  0  0  0  0  0  0  0  0  0  0  0
   -5.9328    5.3545  -15.4476 C   0  0  0  0  0  0  0  0  0  0  0  0
   -5.7493    5.5447  -16.8014 C   0  0  0  0  0  0  0  0  0  0  0  0
   -4.6845    6.0410  -17.4865 N   0  0  0  0  0  0  0  0  0  0  0  0
   -4.1702    6.8192  -19.8255 C   0  0  0  0  0  0  0  0  0  0  0  0
   -2.6387    4.9759  -20.2297 C   0  0  0  0  0  0  0  0  0  0  0  0
   -2.7655    6.3863  -19.9211 N   0  0  0  0  0  0  0  0  0  0  0  0
   -2.3067    6.9245  -20.6562 H   0  0  0  0  0  0  0  0  0  0  0  0
   -3.5172    6.5167  -16.8814 O   0  0  0  0  0  0  0  0  0  0  0  0
   -2.6963    5.4121  -16.5295 C   0  0  0  0  0  0  0  0  0  0  0  0
   -1.4659    5.6666  -17.0472 F   0  0  0  0  0  0  0  0  0  0  0  0
   -6.5709    3.0125  -13.3256 C   0  0  0  0  0  0  0  0  0  0  0  0
   -7.0141    2.0224  -13.7632 O   0  0  0  0  0  0  0  0  0  0  0  0
   -5.2552    3.2625  -12.5166 N   0  0  0  0  0  0  0  0  0  0  0  0
   -5.0627    4.2086  -12.3239 H   0  0  0  0  0  0  0  0  0  0  0  0
   -4.2772    2.3300  -12.0067 C   0  0  0  0  0  0  0  0  0  0  0  0
   -4.6333    1.7035  -10.6685 C   0  0  0  0  0  0  0  0  0  0  0  0
   -3.4876    1.2464  -10.0873 F   0  0  0  0  0  0  0  0  0  0  0  0
   -5.1315    2.6583   -9.8521 F   0  0  0  0  0  0  0  0  0  0  0  0
   -8.5183    4.6403  -12.9006 C   0  0  0  0  0  0  0  0  0  0  0  0
   -9.4633    5.1850  -13.4670 O   0  0  0  0  0  0  0  0  0  0  0  0
   -8.5014    4.5433  -11.4249 C   0  0  0  0  0  0  0  0  0  0  0  0
   -8.3022    5.7473  -10.7172 C   0  0  0  0  0  0  0  0  0  0  0  0
   -8.2615    5.7487   -9.3253 C   0  0  0  0  0  0  0  0  0  0  0  0
   -8.4156    4.5384   -8.6761 C   0  0  0  0  0  0  0  0  0  0  0  0
   -8.5743    3.3403   -9.3801 C   0  0  0  0  0  0  0  0  0  0  0  0
   -8.6306    3.3204  -10.7660 C   0  0  0  0  0  0  0  0  0  0  0  0
   -8.6634    2.2145   -8.3976 C   0  0  0  0  0  0  0  0  0  0  0  0
   -7.5995    1.2795   -8.5464 N   0  0  0  0  0  0  0  0  0  0  0  0
   -8.3858    2.8115   -7.1028 N   0  0  0  0  0  0  0  0  0  0  0  0
   -8.5016    4.2595   -7.2115 C   0  0  0  0  0  0  0  0  0  0  0  0
   -6.7069    1.7579   -8.4247 H   0  0  0  0  0  0  0  0  0  0  0  0
   -7.6389    0.8650   -9.4775 H   0  0  0  0  0  0  0  0  0  0  0  0
   -7.4407    2.5654   -6.8088 H   0  0  0  0  0  0  0  0  0  0  0  0
 13 14  1  0  0  0
 14 12  1  0  0  0
 12  2  1  0  0  0
  2  3  2  0  0  0
  3  4  1  0  0  0
  4  5  2  0  0  0
  5  6  1  0  0  0
  5  7  1  0  0  0
  7  8  2  0  0  0
  8  1  1  0  0  0
  1 19  1  0  0  0
 19 20  2  0  0  0
 19 21  1  0  0  0
 21 23  1  0  0  0
 23 24  1  0  0  0
 24 25  1  0  0  0
 24 26  1  0  0  0
  1 27  1  0  0  0
 27 28  2  0  0  0
 27 29  1  0  0  0
 29 30  2  0  0  0
 30 31  1  0  0  0
 31 32  2  0  0  0
 32 33  1  0  0  0
 33 34  2  0  0  0
 33 35  1  0  0  0
 35 36  1  0  0  0
 35 37  1  0  0  0
 37 38  1  0  0  0
  8  9  1  0  0  0
  9 10  2  0  0  0
 10 11  1  0  0  0
 11 16  1  0  0  0
 16 17  1  0  0  0
 17 18  1  0  0  0
 11  2  1  0  0  0
 10  4  1  0  0  0
 34 29  1  0  0  0
 38 32  1  0  0  0
 14 15  1  0  0  0
 21 22  1  0  0  0
 36 39  1  0  0  0
 36 40  1  0  0  0
 37 41  1  0  0  0
M  END
> <minimizedAffinity>
-8.01329

> <minimizedRMSD>
0.81211

$$$$
P30669


 34 37  0  0  0  0  0  0  0  0999 V2000
   -5.4548    4.3839  -12.6578 C   0  0  0  0  0  0  0  0  0  0  0  0
   -9.3735    2.6068  -10.0657 C   0  0  0  0  0  0  0  0  0  0  0  0
   -8.4477    3.7933  -10.2451 C   0  0  0  0  0  0  0  0  0  0  0  0
   -7.3515    3.4442  -11.2562 C   0  0  0  0  0  0  0  0  0  0  0  0
   -6.4511    4.6617  -11.5152 C   0  0  0  0  0  0  0  0  0  0  0  0
   -5.7839    5.1780  -10.2162 C   0  0  0  0  0  0  0  0  0  0  0  0
   -6.6642    5.0284   -9.0185 C   0  0  0  0  0  0  0  0  0  0  0  0
   -7.8410    4.3892   -9.0176 C   0  0  0  0  0  0  0  0  0  0  0  0
   -8.4011    4.3354   -7.6213 C   0  0  0  0  0  0  0  0  0  0  0  0
   -7.2021    4.8098   -6.7720 C   0  0  0  0  0  0  0  0  0  0  0  0
   -6.3023    5.4449   -7.7482 N   0  0  0  0  0  0  0  0  0  0  0  0
   -5.5662    6.0625   -7.5340 H   0  0  0  0  0  0  0  0  0  0  0  0
   -8.7874    2.9827   -7.2606 C   0  0  0  0  0  0  0  0  0  0  0  0
   -9.1357    1.9562   -6.8596 N   0  0  0  0  0  0  0  0  0  0  0  0
   -4.0501    3.9595  -12.1875 C   0  0  0  0  0  0  0  0  0  0  0  0
   -3.1401    4.6900  -12.1965 O   0  0  0  0  0  0  0  0  0  0  0  0
   -4.1336    2.4670  -11.7867 N   0  0  0  0  0  0  0  0  0  0  0  0
   -5.0108    2.0473  -11.9408 H   0  0  0  0  0  0  0  0  0  0  0  0
   -3.1314    1.5874  -11.2218 C   0  0  0  0  0  0  0  0  0  0  0  0
   -3.5119    1.0271   -9.8534 C   0  0  0  0  0  0  0  0  0  0  0  0
   -4.5712    0.1901   -9.9581 F   0  0  0  0  0  0  0  0  0  0  0  0
   -3.8943    2.0428   -9.0339 F   0  0  0  0  0  0  0  0  0  0  0  0
   -5.3885    5.5896  -13.5732 C   0  0  0  0  0  0  0  0  0  0  0  0
   -4.9425    6.6924  -13.2809 O   0  0  0  0  0  0  0  0  0  0  0  0
   -5.8967    5.3929  -14.9264 C   0  0  0  0  0  0  0  0  0  0  0  0
   -4.9802    5.5110  -15.9817 C   0  0  0  0  0  0  0  0  0  0  0  0
   -5.4065    5.2901  -17.2744 C   0  0  0  0  0  0  0  0  0  0  0  0
   -6.7414    4.9900  -17.4565 C   0  0  0  0  0  0  0  0  0  0  0  0
   -7.6609    4.9123  -16.4150 C   0  0  0  0  0  0  0  0  0  0  0  0
   -7.2489    5.0973  -15.1168 C   0  0  0  0  0  0  0  0  0  0  0  0
   -9.0202    4.6511  -16.9635 C   0  0  0  0  0  0  0  0  0  0  0  0
   -8.8389    4.5131  -18.4247 N   0  0  0  0  0  0  0  0  0  0  0  0
   -7.4148    4.7520  -18.7450 C   0  0  0  0  0  0  0  0  0  0  0  0
   -9.4201    5.1968  -18.9097 H   0  0  0  0  0  0  0  0  0  0  0  0
  3  2  1  0  0  0
  3  4  1  0  0  0
  5  4  1  0  0  0
  5  1  1  0  0  0
  1 15  1  0  0  0
 15 16  2  0  0  0
 15 17  1  0  0  0
 17 19  1  0  0  0
 19 20  1  0  0  0
 20 21  1  0  0  0
 20 22  1  0  0  0
  1 23  1  0  0  0
 23 24  2  0  0  0
 23 25  1  0  0  0
 25 26  2  0  0  0
 26 27  1  0  0  0
 27 28  2  0  0  0
 28 29  1  0  0  0
 29 30  2  0  0  0
 29 31  1  0  0  0
 31 32  1  0  0  0
 32 33  1  0  0  0
  5  6  1  0  0  0
  6  7  1  0  0  0
  7  8  2  0  0  0
  8  9  1  0  0  0
  9 13  1  0  0  0
 13 14  3  0  0  0
  9 10  1  0  0  0
 10 11  1  0  0  0
  8  3  1  0  0  0
 30 25  1  0  0  0
 11  7  1  0  0  0
 33 28  1  0  0  0
 17 18  1  0  0  0
 32 34  1  0  0  0
 11 12  1  0  0  0
M  END
> <minimizedAffinity>
-6.32043

> <minimizedRMSD>
1.40822

$$$$
P30757


 43 48  0  0  0  0  0  0  0  0999 V2000
   -7.4364    5.0298  -13.5620 C   0  0  0  0  0  0  0  0  0  0  0  0
   -6.2340    4.5227  -13.0016 O   0  0  0  0  0  0  0  0  0  0  0  0
   -6.1703    4.7946  -12.0727 H   0  0  0  0  0  0  0  0  0  0  0  0
   -7.5580    4.6054  -15.0504 C   0  0  0  0  0  0  0  0  0  0  0  0
   -8.7918    4.3932  -15.7016 C   0  0  0  0  0  0  0  0  0  0  0  0
   -8.8981    4.3399  -17.1166 C   0  0  0  0  0  0  0  0  0  0  0  0
  -10.4320    4.1295  -17.8742 Cl  0  0  0  0  0  0  0  0  0  0  0  0
   -7.7909    4.5320  -17.9398 C   0  0  0  0  0  0  0  0  0  0  0  0
   -6.5824    4.7349  -17.3196 C   0  0  0  0  0  0  0  0  0  0  0  0
   -6.4727    4.7347  -15.9117 C   0  0  0  0  0  0  0  0  0  0  0  0
   -5.0795    4.8502  -15.5554 N   0  0  0  0  0  0  0  0  0  0  0  0
   -4.4158    5.1599  -16.7937 C   0  0  0  0  0  0  0  0  0  0  0  0
   -3.1262    5.5858  -16.8080 C   0  0  0  0  0  0  0  0  0  0  0  0
   -2.4179    5.7525  -15.5145 C   0  0  0  0  0  0  0  0  0  0  0  0
   -1.1652    6.2338  -15.4553 C   0  0  0  0  0  0  0  0  0  0  0  0
   -0.4441    6.6048  -16.6508 C   0  0  0  0  0  0  0  0  0  0  0  0
   -0.9983    6.4753  -17.8665 C   0  0  0  0  0  0  0  0  0  0  0  0
   -2.3676    5.9495  -18.0307 C   0  0  0  0  0  0  0  0  0  0  0  0
   -2.8000    5.8305  -19.2946 C   0  0  0  0  0  0  0  0  0  0  0  0
   -4.0962    5.3282  -19.7781 C   0  0  0  0  0  0  0  0  0  0  0  0
   -5.1795    4.9814  -19.1866 N   0  0  0  0  0  0  0  0  0  0  0  0
   -5.3021    5.0068  -17.8637 N   0  0  0  0  0  0  0  0  0  0  0  0
   -4.6740    4.7415  -14.6649 H   0  0  0  0  0  0  0  0  0  0  0  0
   -7.4891    6.6468  -13.6672 C   0  0  0  0  0  0  0  0  0  0  0  0
   -8.4892    7.2358  -13.8429 O   0  0  0  0  0  0  0  0  0  0  0  0
   -6.0093    7.1602  -13.5849 N   0  0  0  0  0  0  0  0  0  0  0  0
   -5.3306    6.4515  -13.5049 H   0  0  0  0  0  0  0  0  0  0  0  0
   -5.4806    8.5053  -13.6076 C   0  0  0  0  0  0  0  0  0  0  0  0
   -4.7056    8.8164  -12.3328 C   0  0  0  0  0  0  0  0  0  0  0  0
   -4.6038    8.7025  -14.8381 C   0  0  0  0  0  0  0  0  0  0  0  0
   -8.5456    4.5369  -12.7292 N   0  0  0  0  0  0  0  0  0  0  0  0
   -9.3782    4.2493  -13.1688 H   0  0  0  0  0  0  0  0  0  0  0  0
   -8.0615    6.9788  -10.7779 C   0  0  0  0  0  0  0  0  0  0  0  0
   -8.2460    5.5436  -10.4058 C   0  0  0  0  0  0  0  0  0  0  0  0
   -8.2758    5.3424   -9.0038 C   0  0  0  0  0  0  0  0  0  0  0  0
   -8.5906    4.1084   -8.5000 C   0  0  0  0  0  0  0  0  0  0  0  0
   -8.8095    3.0451   -9.3506 C   0  0  0  0  0  0  0  0  0  0  0  0
   -8.7359    3.2001  -10.7319 C   0  0  0  0  0  0  0  0  0  0  0  0
   -8.4566    4.4617  -11.3120 C   0  0  0  0  0  0  0  0  0  0  0  0
   -9.1348    1.8490   -8.5197 C   0  0  0  0  0  0  0  0  0  0  0  0
   -9.5084    2.3883   -7.1798 N   0  0  0  0  0  0  0  0  0  0  0  0
   -8.8167    3.6907   -7.0898 C   0  0  0  0  0  0  0  0  0  0  0  0
   -9.1921    1.7618   -6.4396 H   0  0  0  0  0  0  0  0  0  0  0  0
 33 34  1  0  0  0
 34 35  2  0  0  0
 35 36  1  0  0  0
 36 37  2  0  0  0
 37 38  1  0  0  0
 38 39  2  0  0  0
 39 31  1  0  0  0
 31  1  1  0  0  0
  1  2  1  0  0  0
  1 24  1  0  0  0
 24 25  2  0  0  0
 24 26  1  0  0  0
 26 28  1  0  0  0
 28 29  1  0  0  0
 28 30  1  0  0  0
  1  4  1  0  0  0
  4  5  2  0  0  0
  5  6  1  0  0  0
  6  7  1  0  0  0
  6  8  2  0  0  0
  8  9  1  0  0  0
  9 10  2  0  0  0
 10 11  1  0  0  0
 11 12  1  0  0  0
 12 13  2  0  0  0
 13 14  1  0  0  0
 14 15  2  0  0  0
 15 16  1  0  0  0
 16 17  2  0  0  0
 17 18  1  0  0  0
 18 19  2  0  0  0
 19 20  1  0  0  0
 20 21  2  0  0  0
 21 22  1  0  0  0
 37 40  1  0  0  0
 40 41  1  0  0  0
 41 42  1  0  0  0
 39 34  1  0  0  0
 10  4  1  0  0  0
 22 12  1  0  0  0
 42 36  1  0  0  0
 22  9  1  0  0  0
 18 13  1  0  0  0
 31 32  1  0  0  0
  2  3  1  0  0  0
 26 27  1  0  0  0
 11 23  1  0  0  0
 41 43  1  0  0  0
M  END
> <minimizedAffinity>
-8.37015

> <minimizedRMSD>
0.34328

$$$$
P30758


 41 45  0  0  0  0  0  0  0  0999 V2000
   -7.0803    4.4240  -13.8877 C   0  0  0  0  0  0  0  0  0  0  0  0
   -7.3361    4.5041  -15.4318 C   0  0  0  0  0  0  0  0  0  0  0  0
   -8.6376    4.3740  -15.9913 C   0  0  0  0  0  0  0  0  0  0  0  0
   -8.8672    4.4187  -17.3658 C   0  0  0  0  0  0  0  0  0  0  0  0
  -10.4560    4.3101  -18.0098 Cl  0  0  0  0  0  0  0  0  0  0  0  0
   -7.8270    4.6117  -18.2587 C   0  0  0  0  0  0  0  0  0  0  0  0
   -6.5411    4.7822  -17.7400 C   0  0  0  0  0  0  0  0  0  0  0  0
   -6.2760    4.7216  -16.3676 C   0  0  0  0  0  0  0  0  0  0  0  0
   -4.8784    4.9251  -16.2651 C   0  0  0  0  0  0  0  0  0  0  0  0
   -4.1808    4.9276  -15.1251 F   0  0  0  0  0  0  0  0  0  0  0  0
   -4.3166    5.1671  -17.4979 C   0  0  0  0  0  0  0  0  0  0  0  0
   -5.3502    5.0424  -18.4024 N   0  0  0  0  0  0  0  0  0  0  0  0
   -5.2640    5.2525  -19.8338 C   0  0  0  0  0  0  0  0  0  0  0  0
   -2.9512    5.5766  -17.8157 C   0  0  0  0  0  0  0  0  0  0  0  0
   -2.3702    6.6408  -17.1121 C   0  0  0  0  0  0  0  0  0  0  0  0
   -1.0761    7.0705  -17.4120 C   0  0  0  0  0  0  0  0  0  0  0  0
   -0.3509    6.4390  -18.4190 C   0  0  0  0  0  0  0  0  0  0  0  0
   -0.9150    5.3718  -19.1149 C   0  0  0  0  0  0  0  0  0  0  0  0
   -2.2049    4.9313  -18.8060 C   0  0  0  0  0  0  0  0  0  0  0  0
   -6.4478    5.8453  -13.4382 C   0  0  0  0  0  0  0  0  0  0  0  0
   -6.9224    6.8364  -13.8471 O   0  0  0  0  0  0  0  0  0  0  0  0
   -5.2138    5.6245  -12.5137 N   0  0  0  0  0  0  0  0  0  0  0  0
   -4.9673    4.6818  -12.3732 H   0  0  0  0  0  0  0  0  0  0  0  0
   -4.3737    6.5766  -11.8303 C   0  0  0  0  0  0  0  0  0  0  0  0
   -2.9525    6.5171  -12.3751 C   0  0  0  0  0  0  0  0  0  0  0  0
   -4.3981    6.3461  -10.3265 C   0  0  0  0  0  0  0  0  0  0  0  0
   -8.3965    4.1884  -13.1667 N   0  0  0  0  0  0  0  0  0  0  0  0
   -9.2214    3.9911  -13.6666 H   0  0  0  0  0  0  0  0  0  0  0  0
   -7.9249    6.8562   -8.9769 C   0  0  0  0  0  0  0  0  0  0  0  0
   -8.1836    5.5597   -9.6758 C   0  0  0  0  0  0  0  0  0  0  0  0
   -8.1447    5.4680  -11.0790 C   0  0  0  0  0  0  0  0  0  0  0  0
   -8.3987    4.2613  -11.7578 C   0  0  0  0  0  0  0  0  0  0  0  0
   -8.7102    3.1232  -11.0026 C   0  0  0  0  0  0  0  0  0  0  0  0
   -8.7733    3.2212   -9.6205 C   0  0  0  0  0  0  0  0  0  0  0  0
   -8.4993    4.4118   -8.9654 C   0  0  0  0  0  0  0  0  0  0  0  0
   -8.6547    4.2133   -7.4959 C   0  0  0  0  0  0  0  0  0  0  0  0
   -9.1658    2.8423   -7.2981 N   0  0  0  0  0  0  0  0  0  0  0  0
   -9.1553    2.1782   -8.6289 C   0  0  0  0  0  0  0  0  0  0  0  0
  -10.1162    2.8725   -6.9292 H   0  0  0  0  0  0  0  0  0  0  0  0
   -6.2230    3.1636  -13.6630 C   0  0  0  0  0  0  0  0  0  0  0  0
   -5.5861    2.8667  -12.6529 O   0  0  0  0  0  0  0  0  0  0  0  0
 29 30  1  0  0  0
 30 31  2  0  0  0
 31 32  1  0  0  0
 32 27  1  0  0  0
  1 27  1  0  0  0
  1 40  1  0  0  0
 40 41  2  0  0  0
  1 20  1  0  0  0
 20 21  2  0  0  0
 20 22  1  0  0  0
 22 24  1  0  0  0
 24 25  1  0  0  0
 24 26  1  0  0  0
  1  2  1  0  0  0
  2  3  2  0  0  0
  3  4  1  0  0  0
  4  5  1  0  0  0
  4  6  2  0  0  0
  6  7  1  0  0  0
  7  8  2  0  0  0
  8  9  1  0  0  0
  9 10  1  0  0  0
  9 11  2  0  0  0
 11 14  1  0  0  0
 14 15  2  0  0  0
 15 16  1  0  0  0
 16 17  2  0  0  0
 17 18  1  0  0  0
 18 19  2  0  0  0
 11 12  1  0  0  0
 12 13  1  0  0  0
 32 33  2  0  0  0
 33 34  1  0  0  0
 34 35  2  0  0  0
 35 36  1  0  0  0
 36 37  1  0  0  0
 37 38  1  0  0  0
 35 30  1  0  0  0
  8  2  1  0  0  0
 19 14  1  0  0  0
 38 34  1  0  0  0
 12  7  1  0  0  0
 27 28  1  0  0  0
 22 23  1  0  0  0
 37 39  1  0  0  0
M  END
> <minimizedAffinity>
-8.74055

> <minimizedRMSD>
0.47730

$$$$
P30889


 44 49  0  0  0  0  0  0  0  0999 V2000
   -5.7009    6.3735  -17.9303 N   0  0  0  0  0  0  0  0  0  0  0  0
   -5.2513    7.1326  -16.8986 C   0  0  0  0  0  0  0  0  0  0  0  0
   -5.6876    6.6914  -15.7416 N   0  0  0  0  0  0  0  0  0  0  0  0
   -6.5859    5.6890  -16.0396 C   0  0  0  0  0  0  0  0  0  0  0  0
   -7.4656    4.9904  -15.1687 C   0  0  0  0  0  0  0  0  0  0  0  0
   -8.4874    4.2622  -15.8167 C   0  0  0  0  0  0  0  0  0  0  0  0
   -8.5502    4.1518  -17.2045 C   0  0  0  0  0  0  0  0  0  0  0  0
   -9.9721    3.5547  -17.9342 Cl  0  0  0  0  0  0  0  0  0  0  0  0
   -7.5717    4.6739  -18.0375 C   0  0  0  0  0  0  0  0  0  0  0  0
   -6.6383    5.5024  -17.4244 C   0  0  0  0  0  0  0  0  0  0  0  0
   -4.0993    6.9329  -20.0925 C   0  0  0  0  0  0  0  0  0  0  0  0
   -5.2692    7.8824  -20.0355 C   0  0  0  0  0  0  0  0  0  0  0  0
   -5.3985    6.5398  -19.3790 C   0  0  0  0  0  0  0  0  0  0  0  0
   -2.7088    7.2859  -19.5411 C   0  0  0  0  0  0  0  0  0  0  0  0
   -1.7080    7.3976  -20.7597 C   0  0  0  0  0  0  0  0  0  0  0  0
   -1.5995    8.8165  -21.3114 C   0  0  0  0  0  0  0  0  0  0  0  0
   -0.9949    9.7602  -20.2726 C   0  0  0  0  0  0  0  0  0  0  0  0
   -1.3482    9.3623  -18.8397 C   0  0  0  0  0  0  0  0  0  0  0  0
   -2.7016    8.6578  -18.7882 C   0  0  0  0  0  0  0  0  0  0  0  0
   -2.1825    6.1739  -18.5947 C   0  0  0  0  0  0  0  0  0  0  0  0
   -2.1256    3.8776  -19.6267 C   0  0  0  0  0  0  0  0  0  0  0  0
   -2.8634    4.8112  -18.7107 C   0  0  0  0  0  0  0  0  0  0  0  0
   -7.5055    5.2332  -13.6600 C   0  0  0  0  0  0  0  0  0  0  0  0
   -6.1712    5.3786  -13.2090 O   0  0  0  0  0  0  0  0  0  0  0  0
   -5.6809    4.5592  -13.3799 H   0  0  0  0  0  0  0  0  0  0  0  0
   -8.4202    6.5369  -13.4279 C   0  0  0  0  0  0  0  0  0  0  0  0
   -9.5886    6.5496  -13.5344 O   0  0  0  0  0  0  0  0  0  0  0  0
   -7.4268    7.6782  -13.0320 N   0  0  0  0  0  0  0  0  0  0  0  0
   -6.4747    7.4342  -13.0882 H   0  0  0  0  0  0  0  0  0  0  0  0
   -7.6798    9.0313  -12.5974 C   0  0  0  0  0  0  0  0  0  0  0  0
   -6.5167    9.9394  -12.9730 C   0  0  0  0  0  0  0  0  0  0  0  0
   -7.9474    9.0667  -11.0968 C   0  0  0  0  0  0  0  0  0  0  0  0
   -8.0135    4.0988  -12.8703 N   0  0  0  0  0  0  0  0  0  0  0  0
   -8.2209    3.2552  -13.3335 H   0  0  0  0  0  0  0  0  0  0  0  0
   -8.2144    4.1738  -11.4766 C   0  0  0  0  0  0  0  0  0  0  0  0
   -7.8529    5.2797  -10.6787 C   0  0  0  0  0  0  0  0  0  0  0  0
   -8.0411    5.3076   -9.2914 C   0  0  0  0  0  0  0  0  0  0  0  0
   -8.5229    4.1756   -8.6765 C   0  0  0  0  0  0  0  0  0  0  0  0
   -8.8041    3.0413   -9.4169 C   0  0  0  0  0  0  0  0  0  0  0  0
   -8.6707    3.0297  -10.8039 C   0  0  0  0  0  0  0  0  0  0  0  0
   -9.1768    1.9366   -8.4849 C   0  0  0  0  0  0  0  0  0  0  0  0
   -9.2712    2.5349   -7.1252 N   0  0  0  0  0  0  0  0  0  0  0  0
   -8.7850    3.9250   -7.2325 C   0  0  0  0  0  0  0  0  0  0  0  0
   -8.6913    2.0102   -6.4703 H   0  0  0  0  0  0  0  0  0  0  0  0
 21 22  1  0  0  0
 22 20  1  0  0  0
 20 14  1  0  0  0
 11 14  1  0  0  0
 11 12  1  0  0  0
 12 13  1  0  0  0
 13  1  1  0  0  0
  1  2  1  0  0  0
  2  3  2  0  0  0
  3  4  1  0  0  0
  4  5  2  0  0  0
  5 23  1  0  0  0
 23 24  1  0  0  0
 23 33  1  0  0  0
 33 35  1  0  0  0
 35 36  2  0  0  0
 36 37  1  0  0  0
 37 38  2  0  0  0
 38 39  1  0  0  0
 39 40  2  0  0  0
 39 41  1  0  0  0
 41 42  1  0  0  0
 42 43  1  0  0  0
 23 26  1  0  0  0
 26 27  2  0  0  0
 26 28  1  0  0  0
 28 30  1  0  0  0
 30 31  1  0  0  0
 30 32  1  0  0  0
  5  6  1  0  0  0
  6  7  2  0  0  0
  7  8  1  0  0  0
  7  9  1  0  0  0
  9 10  2  0  0  0
 14 15  1  0  0  0
 15 16  1  0  0  0
 16 17  1  0  0  0
 17 18  1  0  0  0
 18 19  1  0  0  0
 19 14  1  0  0  0
 13 11  1  0  0  0
 10  1  1  0  0  0
 10  4  1  0  0  0
 40 35  1  0  0  0
 43 38  1  0  0  0
 24 25  1  0  0  0
 33 34  1  0  0  0
 42 44  1  0  0  0
 28 29  1  0  0  0
M  END
> <minimizedAffinity>
-7.88621

> <minimizedRMSD>
0.47974

$$$$
P30896


 38 42  0  0  0  0  0  0  0  0999 V2000
   -7.0252    5.0435  -14.1944 C   0  0  0  0  0  0  0  0  0  0  0  0
   -7.2913    4.7729  -15.6842 C   0  0  0  0  0  0  0  0  0  0  0  0
   -8.6148    4.4835  -16.1074 C   0  0  0  0  0  0  0  0  0  0  0  0
   -8.9544    4.2820  -17.4467 C   0  0  0  0  0  0  0  0  0  0  0  0
  -10.5905    4.2175  -17.9282 Cl  0  0  0  0  0  0  0  0  0  0  0  0
   -7.9989    4.2689  -18.4424 C   0  0  0  0  0  0  0  0  0  0  0  0
   -6.7066    4.6328  -18.0884 C   0  0  0  0  0  0  0  0  0  0  0  0
   -5.6502    4.8292  -18.9256 N   0  0  0  0  0  0  0  0  0  0  0  0
   -4.6955    5.3550  -18.1967 C   0  0  0  0  0  0  0  0  0  0  0  0
   -5.0782    5.3568  -16.8702 N   0  0  0  0  0  0  0  0  0  0  0  0
   -6.3827    4.9123  -16.7636 C   0  0  0  0  0  0  0  0  0  0  0  0
   -4.5091    5.6325  -16.1156 H   0  0  0  0  0  0  0  0  0  0  0  0
   -3.4549    5.9079  -18.7436 C   0  0  0  0  0  0  0  0  0  0  0  0
   -3.5092    6.6603  -19.9319 C   0  0  0  0  0  0  0  0  0  0  0  0
   -2.3504    7.2127  -20.4803 C   0  0  0  0  0  0  0  0  0  0  0  0
   -1.1230    7.0208  -19.8504 C   0  0  0  0  0  0  0  0  0  0  0  0
   -1.0534    6.2760  -18.6739 C   0  0  0  0  0  0  0  0  0  0  0  0
   -2.2125    5.7218  -18.1218 C   0  0  0  0  0  0  0  0  0  0  0  0
   -5.3600    3.4184  -13.1556 N   0  0  0  0  0  0  0  0  0  0  0  0
   -5.5101    4.8222  -13.8032 C   0  0  0  0  0  0  0  0  0  0  0  0
   -4.7100    5.6545  -14.0059 O   0  0  0  0  0  0  0  0  0  0  0  0
   -6.2057    2.9311  -13.0272 H   0  0  0  0  0  0  0  0  0  0  0  0
   -4.1808    2.7113  -12.7110 C   0  0  0  0  0  0  0  0  0  0  0  0
   -2.9294    3.3328  -13.3265 C   0  0  0  0  0  0  0  0  0  0  0  0
   -4.8415    3.6978  -10.4174 C   0  0  0  0  0  0  0  0  0  0  0  0
   -4.1028    2.6065  -11.1816 C   0  0  0  0  0  0  0  0  0  0  0  0
   -7.9730    4.2660  -13.3600 N   0  0  0  0  0  0  0  0  0  0  0  0
   -8.5226    3.5897  -13.8181 H   0  0  0  0  0  0  0  0  0  0  0  0
   -8.1549    4.4061  -11.9905 C   0  0  0  0  0  0  0  0  0  0  0  0
   -8.0014    5.6284  -11.3117 C   0  0  0  0  0  0  0  0  0  0  0  0
   -8.1137    5.7164   -9.9164 C   0  0  0  0  0  0  0  0  0  0  0  0
   -8.3918    4.5686   -9.2011 C   0  0  0  0  0  0  0  0  0  0  0  0
   -8.5966    3.3645   -9.8513 C   0  0  0  0  0  0  0  0  0  0  0  0
   -8.4990    3.2723  -11.2335 C   0  0  0  0  0  0  0  0  0  0  0  0
   -8.8677    2.2959   -8.8474 C   0  0  0  0  0  0  0  0  0  0  0  0
   -8.9148    2.9713   -7.5226 N   0  0  0  0  0  0  0  0  0  0  0  0
   -8.4941    4.3709   -7.7292 C   0  0  0  0  0  0  0  0  0  0  0  0
   -8.2802    2.5084   -6.8718 H   0  0  0  0  0  0  0  0  0  0  0  0
 25 26  1  0  0  0
 26 23  1  0  0  0
 23 24  1  0  0  0
 23 19  1  0  0  0
 19 20  1  0  0  0
 20 21  2  0  0  0
 20  1  1  0  0  0
  1 27  1  0  0  0
 27 29  1  0  0  0
 29 30  2  0  0  0
 30 31  1  0  0  0
 31 32  2  0  0  0
 32 33  1  0  0  0
 33 34  2  0  0  0
 33 35  1  0  0  0
 35 36  1  0  0  0
 36 37  1  0  0  0
  1  2  1  0  0  0
  2  3  2  0  0  0
  3  4  1  0  0  0
  4  5  1  0  0  0
  4  6  2  0  0  0
  6  7  1  0  0  0
  7  8  1  0  0  0
  8  9  2  0  0  0
  9 13  1  0  0  0
 13 14  2  0  0  0
 14 15  1  0  0  0
 15 16  2  0  0  0
 16 17  1  0  0  0
 17 18  2  0  0  0
  9 10  1  0  0  0
 10 11  1  0  0  0
 34 29  1  0  0  0
 11  2  1  0  0  0
 37 32  1  0  0  0
 11  7  2  0  0  0
 18 13  1  0  0  0
 19 22  1  0  0  0
 27 28  1  0  0  0
 36 38  1  0  0  0
 10 12  1  0  0  0
M  END
> <minimizedAffinity>
-8.65009

> <minimizedRMSD>
0.72717

$$$$
P30910


 42 46  0  0  0  0  0  0  0  0999 V2000
   -7.6729    5.4246  -13.5457 C   0  0  0  0  0  0  0  0  0  0  0  0
   -6.4040    5.7441  -13.0038 O   0  0  0  0  0  0  0  0  0  0  0  0
   -5.8086    4.9852  -13.1056 H   0  0  0  0  0  0  0  0  0  0  0  0
   -5.3353    5.9236  -17.9670 C   0  0  0  0  0  0  0  0  0  0  0  0
   -6.4350    5.1980  -17.2533 C   0  0  0  0  0  0  0  0  0  0  0  0
   -7.4800    4.5516  -17.8796 C   0  0  0  0  0  0  0  0  0  0  0  0
   -8.5630    4.1933  -17.0991 C   0  0  0  0  0  0  0  0  0  0  0  0
   -9.9873    3.6802  -17.8951 Cl  0  0  0  0  0  0  0  0  0  0  0  0
   -8.5717    4.4012  -15.7093 C   0  0  0  0  0  0  0  0  0  0  0  0
   -7.5163    5.0589  -15.0415 C   0  0  0  0  0  0  0  0  0  0  0  0
   -6.4516    5.4641  -15.8701 C   0  0  0  0  0  0  0  0  0  0  0  0
   -5.2835    6.3422  -15.5228 C   0  0  0  0  0  0  0  0  0  0  0  0
   -4.3950    6.3867  -16.8091 C   0  0  0  0  0  0  0  0  0  0  0  0
   -3.1514    5.4825  -16.6069 C   0  0  0  0  0  0  0  0  0  0  0  0
   -1.9317    6.1983  -16.0017 C   0  0  0  0  0  0  0  0  0  0  0  0
   -2.2779    7.4206  -15.1688 C   0  0  0  0  0  0  0  0  0  0  0  0
   -3.0890    8.4416  -15.9580 C   0  0  0  0  0  0  0  0  0  0  0  0
   -3.9168    7.8301  -17.0901 C   0  0  0  0  0  0  0  0  0  0  0  0
   -4.6939    5.1209  -18.9511 O   0  0  0  0  0  0  0  0  0  0  0  0
   -4.5231    5.8210  -20.1888 C   0  0  0  0  0  0  0  0  0  0  0  0
   -3.0427    6.0751  -20.4613 C   0  0  0  0  0  0  0  0  0  0  0  0
   -1.6361    6.3014  -22.3447 C   0  0  0  0  0  0  0  0  0  0  0  0
   -2.8921    6.6344  -21.7720 O   0  0  0  0  0  0  0  0  0  0  0  0
   -8.7227    6.6526  -13.4093 C   0  0  0  0  0  0  0  0  0  0  0  0
   -9.8276    6.5948  -13.7948 O   0  0  0  0  0  0  0  0  0  0  0  0
   -7.9873    7.7762  -12.6112 N   0  0  0  0  0  0  0  0  0  0  0  0
   -7.0257    7.6198  -12.4698 H   0  0  0  0  0  0  0  0  0  0  0  0
   -8.4909    9.0107  -12.0454 C   0  0  0  0  0  0  0  0  0  0  0  0
   -8.9508    9.9967  -13.1090 C   0  0  0  0  0  0  0  0  0  0  0  0
   -7.4430    9.6413  -11.1351 C   0  0  0  0  0  0  0  0  0  0  0  0
   -8.1330    4.2719  -12.7457 N   0  0  0  0  0  0  0  0  0  0  0  0
   -8.3173    3.4292  -13.2202 H   0  0  0  0  0  0  0  0  0  0  0  0
   -8.3267    4.2945  -11.3500 C   0  0  0  0  0  0  0  0  0  0  0  0
   -8.0093    5.3871  -10.5169 C   0  0  0  0  0  0  0  0  0  0  0  0
   -8.1563    5.3543   -9.1234 C   0  0  0  0  0  0  0  0  0  0  0  0
   -8.5714    4.1810   -8.5402 C   0  0  0  0  0  0  0  0  0  0  0  0
   -8.8271    3.0655   -9.3181 C   0  0  0  0  0  0  0  0  0  0  0  0
   -8.7119    3.1058  -10.7072 C   0  0  0  0  0  0  0  0  0  0  0  0
   -9.1598    1.9196   -8.4232 C   0  0  0  0  0  0  0  0  0  0  0  0
   -9.2866    2.4778   -7.0496 N   0  0  0  0  0  0  0  0  0  0  0  0
   -8.7830    3.8636   -7.1020 C   0  0  0  0  0  0  0  0  0  0  0  0
   -8.7314    1.9273   -6.3946 H   0  0  0  0  0  0  0  0  0  0  0  0
 22 23  1  0  0  0
 23 21  1  0  0  0
 21 20  1  0  0  0
 20 19  1  0  0  0
  4 19  1  0  0  0
  4  5  1  0  0  0
  5  6  2  0  0  0
  6  7  1  0  0  0
  7  8  1  0  0  0
  7  9  2  0  0  0
  9 10  1  0  0  0
 10  1  1  0  0  0
  1  2  1  0  0  0
  1 31  1  0  0  0
 31 33  1  0  0  0
 33 34  2  0  0  0
 34 35  1  0  0  0
 35 36  2  0  0  0
 36 37  1  0  0  0
 37 38  2  0  0  0
 37 39  1  0  0  0
 39 40  1  0  0  0
 40 41  1  0  0  0
  1 24  1  0  0  0
 24 25  2  0  0  0
 24 26  1  0  0  0
 26 28  1  0  0  0
 28 29  1  0  0  0
 28 30  1  0  0  0
 10 11  2  0  0  0
 11 12  1  0  0  0
 12 13  1  0  0  0
 13 14  1  0  0  0
 14 15  1  0  0  0
 15 16  1  0  0  0
 16 17  1  0  0  0
 17 18  1  0  0  0
 13  4  1  0  0  0
 11  5  1  0  0  0
 18 13  1  0  0  0
 38 33  1  0  0  0
 41 36  1  0  0  0
  2  3  1  0  0  0
 31 32  1  0  0  0
 40 42  1  0  0  0
 26 27  1  0  0  0
M  END
> <minimizedAffinity>
-8.21430

> <minimizedRMSD>
0.21056

$$$$
P31684


 25 27  0  0  0  0  0  0  0  0999 V2000
   -4.4604    4.6279  -16.0351 C   0  0  0  0  0  0  0  0  0  0  0  0
   -3.3538    5.0454  -17.0135 C   0  0  0  0  0  0  0  0  0  0  0  0
   -3.4849    4.6974  -18.3639 C   0  0  0  0  0  0  0  0  0  0  0  0
   -2.4712    5.0213  -19.2597 C   0  0  0  0  0  0  0  0  0  0  0  0
   -1.3470    5.6853  -18.7935 C   0  0  0  0  0  0  0  0  0  0  0  0
   -1.2841    5.9886  -17.4447 C   0  0  0  0  0  0  0  0  0  0  0  0
   -2.2544    5.6887  -16.5481 N   0  0  0  0  0  0  0  0  0  0  0  0
   -5.7207    5.3403  -16.3526 N   0  0  0  0  0  0  0  0  0  0  0  0
   -6.0279    5.8242  -15.5089 H   0  0  0  0  0  0  0  0  0  0  0  0
  -10.8567    4.4064  -17.8839 O   0  0  0  0  0  0  0  0  0  0  0  0
   -9.6662    4.3061  -17.6232 C   0  0  0  0  0  0  0  0  0  0  0  0
   -8.5712    4.3185  -18.6445 C   0  0  0  0  0  0  0  0  0  0  0  0
   -7.3277    5.0502  -18.1593 C   0  0  0  0  0  0  0  0  0  0  0  0
   -6.8375    4.4930  -16.8217 C   0  0  0  0  0  0  0  0  0  0  0  0
   -8.0095    4.3685  -15.8234 C   0  0  0  0  0  0  0  0  0  0  0  0
   -9.2964    4.0447  -16.3510 N   0  0  0  0  0  0  0  0  0  0  0  0
   -9.9481    3.6080  -15.7561 H   0  0  0  0  0  0  0  0  0  0  0  0
   -4.0599    4.7375  -14.5283 C   0  0  0  0  0  0  0  0  0  0  0  0
   -4.4080    3.4290  -13.8164 C   0  0  0  0  0  0  0  0  0  0  0  0
   -5.0884    3.3394  -12.4844 C   0  0  0  0  0  0  0  0  0  0  0  0
   -4.5859    2.4202  -11.5432 C   0  0  0  0  0  0  0  0  0  0  0  0
   -5.2711    2.1572  -10.3609 C   0  0  0  0  0  0  0  0  0  0  0  0
   -6.4787    2.7986  -10.1126 C   0  0  0  0  0  0  0  0  0  0  0  0
   -6.9924    3.7040  -11.0425 C   0  0  0  0  0  0  0  0  0  0  0  0
   -6.3009    3.9764  -12.2256 C   0  0  0  0  0  0  0  0  0  0  0  0
 10 11  2  0  0  0
 11 12  1  0  0  0
 12 13  1  0  0  0
 13 14  1  0  0  0
 14  8  1  0  0  0
  8  1  1  0  0  0
  1 18  1  0  0  0
 18 19  1  0  0  0
 19 20  1  0  0  0
 20 21  2  0  0  0
 21 22  1  0  0  0
 22 23  2  0  0  0
 23 24  1  0  0  0
 24 25  2  0  0  0
  1  2  1  0  0  0
  2  3  2  0  0  0
  3  4  1  0  0  0
  4  5  2  0  0  0
  5  6  1  0  0  0
  6  7  2  0  0  0
 14 15  1  0  0  0
 15 16  1  0  0  0
 16 11  1  0  0  0
 25 20  1  0  0  0
  7  2  1  0  0  0
  8  9  1  0  0  0
 16 17  1  0  0  0
M  END
> <minimizedAffinity>
-6.32588

> <minimizedRMSD>
1.61800

$$$$
P31802


 16 17  0  0  0  0  0  0  0  0999 V2000
   -4.7409    4.8990  -17.9916 C   0  0  0  0  0  0  0  0  0  0  0  0
   -3.9850    4.9936  -16.8935 N   0  0  0  0  0  0  0  0  0  0  0  0
   -4.8737    4.9504  -15.8879 N   0  0  0  0  0  0  0  0  0  0  0  0
   -6.1671    4.8458  -16.2929 C   0  0  0  0  0  0  0  0  0  0  0  0
   -7.2433    4.8065  -15.4830 N   0  0  0  0  0  0  0  0  0  0  0  0
   -8.3970    4.6294  -16.1731 C   0  0  0  0  0  0  0  0  0  0  0  0
   -8.5024    4.5403  -17.5552 C   0  0  0  0  0  0  0  0  0  0  0  0
  -10.1918    4.3629  -18.3609 Br  0  0  0  0  0  0  0  0  0  0  0  0
   -7.3541    4.6121  -18.3421 C   0  0  0  0  0  0  0  0  0  0  0  0
   -6.1267    4.7741  -17.6791 C   0  0  0  0  0  0  0  0  0  0  0  0
   -4.6114    4.9910  -14.9398 H   0  0  0  0  0  0  0  0  0  0  0  0
   -4.1504    4.9376  -19.2071 N   0  0  0  0  0  0  0  0  0  0  0  0
   -3.3690    4.3587  -19.3601 H   0  0  0  0  0  0  0  0  0  0  0  0
   -3.5264    6.7934  -20.7058 C   0  0  0  0  0  0  0  0  0  0  0  0
   -4.5998    5.7831  -20.3032 C   0  0  0  0  0  0  0  0  0  0  0  0
   -4.9235    4.8779  -21.4939 C   0  0  0  0  0  0  0  0  0  0  0  0
 14 15  1  0  0  0
 15 16  1  0  0  0
 15 12  1  0  0  0
 12  1  1  0  0  0
  1  2  2  0  0  0
  2  3  1  0  0  0
  3  4  1  0  0  0
  4  5  2  0  0  0
  5  6  1  0  0  0
  6  7  2  0  0  0
  7  8  1  0  0  0
  7  9  1  0  0  0
  9 10  2  0  0  0
 10  1  1  0  0  0
 10  4  1  0  0  0
 12 13  1  0  0  0
  3 11  1  0  0  0
M  END
> <minimizedAffinity>
-5.06080

> <minimizedRMSD>
0.71000

$$$$
P31804


 18 19  0  0  0  0  0  0  0  0999 V2000
   -5.3437    4.8252  -18.5452 C   0  0  0  0  0  0  0  0  0  0  0  0
   -4.4130    4.7959  -17.5846 N   0  0  0  0  0  0  0  0  0  0  0  0
   -5.1277    4.7698  -16.4457 N   0  0  0  0  0  0  0  0  0  0  0  0
   -6.4748    4.7790  -16.6303 C   0  0  0  0  0  0  0  0  0  0  0  0
   -7.4112    4.7911  -15.6631 N   0  0  0  0  0  0  0  0  0  0  0  0
   -8.6703    4.7437  -16.1767 C   0  0  0  0  0  0  0  0  0  0  0  0
   -9.0263    4.6837  -17.5282 C   0  0  0  0  0  0  0  0  0  0  0  0
  -10.3554    4.7941  -17.9419 N   0  0  0  0  0  0  0  0  0  0  0  0
   -7.9900    4.7470  -18.4655 C   0  0  0  0  0  0  0  0  0  0  0  0
   -6.6629    4.7750  -18.0015 C   0  0  0  0  0  0  0  0  0  0  0  0
   -4.7110    4.7460  -15.5541 H   0  0  0  0  0  0  0  0  0  0  0  0
  -11.0825    4.7492  -17.2797 H   0  0  0  0  0  0  0  0  0  0  0  0
  -10.5653    4.9169  -18.8959 H   0  0  0  0  0  0  0  0  0  0  0  0
   -5.0959    4.9139  -19.8737 N   0  0  0  0  0  0  0  0  0  0  0  0
   -5.8049    4.6612  -20.5083 H   0  0  0  0  0  0  0  0  0  0  0  0
   -3.8158    6.8894  -20.5967 C   0  0  0  0  0  0  0  0  0  0  0  0
   -3.8105    5.3724  -20.3960 C   0  0  0  0  0  0  0  0  0  0  0  0
   -3.5516    4.7002  -21.7479 C   0  0  0  0  0  0  0  0  0  0  0  0
 16 17  1  0  0  0
 17 18  1  0  0  0
 17 14  1  0  0  0
 14  1  1  0  0  0
  1  2  2  0  0  0
  2  3  1  0  0  0
  3  4  1  0  0  0
  4  5  2  0  0  0
  5  6  1  0  0  0
  6  7  2  0  0  0
  7  8  1  0  0  0
  7  9  1  0  0  0
  9 10  2  0  0  0
 10  1  1  0  0  0
 10  4  1  0  0  0
 14 15  1  0  0  0
  3 11  1  0  0  0
  8 12  1  0  0  0
  8 13  1  0  0  0
M  END
> <minimizedAffinity>
-5.38885

> <minimizedRMSD>
0.87709

$$$$
P31856


 24 27  0  0  0  0  0  0  0  0999 V2000
   -8.2753    4.4405  -13.2616 N   0  0  0  0  0  0  0  0  0  0  0  0
   -7.6140    5.3407  -14.3291 C   0  0  0  0  0  0  0  0  0  0  0  0
   -7.0877    6.3784  -14.2242 O   0  0  0  0  0  0  0  0  0  0  0  0
   -8.7224    3.6390  -13.6178 H   0  0  0  0  0  0  0  0  0  0  0  0
   -6.4748    5.0176   -7.5221 C   0  0  0  0  0  0  0  0  0  0  0  0
   -7.9143    4.8762   -7.3863 N   0  0  0  0  0  0  0  0  0  0  0  0
   -8.5495    6.1724   -7.6496 C   0  0  0  0  0  0  0  0  0  0  0  0
   -8.4521    6.6494   -9.0995 C   0  0  0  0  0  0  0  0  0  0  0  0
   -8.4531    5.5477  -10.0383 N   0  0  0  0  0  0  0  0  0  0  0  0
   -8.3396    5.7867  -11.3466 N   0  0  0  0  0  0  0  0  0  0  0  0
   -8.3405    4.5759  -11.9046 C   0  0  0  0  0  0  0  0  0  0  0  0
   -8.4182    3.5560  -10.9219 C   0  0  0  0  0  0  0  0  0  0  0  0
   -8.4356    4.2261   -9.7112 C   0  0  0  0  0  0  0  0  0  0  0  0
   -8.4469    3.8147   -8.2786 C   0  0  0  0  0  0  0  0  0  0  0  0
   -7.7352    4.7993  -15.7064 C   0  0  0  0  0  0  0  0  0  0  0  0
   -9.0100    4.4553  -16.1569 C   0  0  0  0  0  0  0  0  0  0  0  0
   -9.2299    4.2413  -17.5094 C   0  0  0  0  0  0  0  0  0  0  0  0
   -8.1609    4.3347  -18.3977 C   0  0  0  0  0  0  0  0  0  0  0  0
   -6.8692    4.6155  -17.9727 C   0  0  0  0  0  0  0  0  0  0  0  0
   -5.8859    4.6527  -18.8865 N   0  0  0  0  0  0  0  0  0  0  0  0
   -4.6334    4.9284  -18.4801 C   0  0  0  0  0  0  0  0  0  0  0  0
   -4.2955    5.1845  -17.1699 C   0  0  0  0  0  0  0  0  0  0  0  0
   -5.3115    5.1535  -16.2237 C   0  0  0  0  0  0  0  0  0  0  0  0
   -6.6396    4.8600  -16.6037 C   0  0  0  0  0  0  0  0  0  0  0  0
  5  6  1  0  0  0
  6  7  1  0  0  0
  7  8  1  0  0  0
  8  9  1  0  0  0
  9 10  1  0  0  0
 10 11  2  0  0  0
 11  1  1  0  0  0
  1  2  1  0  0  0
  2  3  2  0  0  0
  2 15  1  0  0  0
 15 16  2  0  0  0
 16 17  1  0  0  0
 17 18  2  0  0  0
 18 19  1  0  0  0
 19 20  2  0  0  0
 20 21  1  0  0  0
 21 22  2  0  0  0
 22 23  1  0  0  0
 23 24  2  0  0  0
 11 12  1  0  0  0
 12 13  2  0  0  0
 13 14  1  0  0  0
 14  6  1  0  0  0
 13  9  1  0  0  0
 24 15  1  0  0  0
 24 19  1  0  0  0
  1  4  1  0  0  0
M  END
> <minimizedAffinity>
-7.49284

> <minimizedRMSD>
0.23972

$$$$
P31894


 28 31  0  0  0  0  0  0  0  0999 V2000
   -9.4425    6.1137  -14.2982 O   0  0  0  0  0  0  0  0  0  0  0  0
   -8.8497    5.1071  -14.3805 C   0  0  0  0  0  0  0  0  0  0  0  0
   -8.2884    4.1705  -13.2654 N   0  0  0  0  0  0  0  0  0  0  0  0
   -7.8882    3.3329  -13.5932 H   0  0  0  0  0  0  0  0  0  0  0  0
   -8.2617    4.3277  -11.8798 C   0  0  0  0  0  0  0  0  0  0  0  0
   -7.8847    5.5413  -11.2852 C   0  0  0  0  0  0  0  0  0  0  0  0
   -7.8322    5.6721   -9.8912 C   0  0  0  0  0  0  0  0  0  0  0  0
   -8.1645    4.5773   -9.1135 C   0  0  0  0  0  0  0  0  0  0  0  0
   -8.5241    3.3692   -9.7002 C   0  0  0  0  0  0  0  0  0  0  0  0
   -8.5828    3.2299  -11.0787 C   0  0  0  0  0  0  0  0  0  0  0  0
   -8.7669    2.3565   -8.6308 C   0  0  0  0  0  0  0  0  0  0  0  0
   -8.8497    3.1359   -7.3760 N   0  0  0  0  0  0  0  0  0  0  0  0
   -8.2202    4.4418   -7.6283 C   0  0  0  0  0  0  0  0  0  0  0  0
   -8.3547    2.6484   -6.6292 H   0  0  0  0  0  0  0  0  0  0  0  0
   -8.4059    4.5144  -15.7221 C   0  0  0  0  0  0  0  0  0  0  0  0
   -9.5387    4.4941  -16.7353 C   0  0  0  0  0  0  0  0  0  0  0  0
   -9.0558    4.0190  -18.1048 C   0  0  0  0  0  0  0  0  0  0  0  0
   -7.7521    4.6664  -18.5948 C   0  0  0  0  0  0  0  0  0  0  0  0
   -6.7541    4.7693  -17.5168 N   0  0  0  0  0  0  0  0  0  0  0  0
   -7.2835    5.3744  -16.2785 C   0  0  0  0  0  0  0  0  0  0  0  0
   -5.3626    4.7770  -17.7056 C   0  0  0  0  0  0  0  0  0  0  0  0
   -4.7864    4.8765  -18.9220 C   0  0  0  0  0  0  0  0  0  0  0  0
   -3.3152    4.9296  -19.0193 C   0  0  0  0  0  0  0  0  0  0  0  0
   -2.7071    4.9382  -20.0872 O   0  0  0  0  0  0  0  0  0  0  0  0
   -2.6506    4.9482  -17.8321 N   0  0  0  0  0  0  0  0  0  0  0  0
   -3.3088    4.7801  -16.6629 C   0  0  0  0  0  0  0  0  0  0  0  0
   -4.5820    4.6845  -16.5660 N   0  0  0  0  0  0  0  0  0  0  0  0
   -1.6758    5.0862  -17.8242 H   0  0  0  0  0  0  0  0  0  0  0  0
  1  2  2  0  0  0
  2  3  1  0  0  0
  3  5  1  0  0  0
  5  6  2  0  0  0
  6  7  1  0  0  0
  7  8  2  0  0  0
  8  9  1  0  0  0
  9 10  2  0  0  0
  9 11  1  0  0  0
 11 12  1  0  0  0
 12 13  1  0  0  0
 15  2  1  0  0  0
 15 16  1  0  0  0
 16 17  1  0  0  0
 17 18  1  0  0  0
 18 19  1  0  0  0
 19 21  1  0  0  0
 21 22  2  0  0  0
 22 23  1  0  0  0
 23 24  2  0  0  0
 23 25  1  0  0  0
 25 26  1  0  0  0
 26 27  2  0  0  0
 19 20  1  0  0  0
 10  5  1  0  0  0
 20 15  1  0  0  0
 13  8  1  0  0  0
 27 21  1  0  0  0
  3  4  1  0  0  0
 12 14  1  0  0  0
 25 28  1  0  0  0
M  END
> <minimizedAffinity>
-8.04483

> <minimizedRMSD>
0.99541

$$$$
P32089


 21 23  0  0  0  0  0  0  0  0999 V2000
   -7.1840    5.3539  -14.3603 N   0  0  0  0  0  0  0  0  0  0  0  0
   -8.4072    5.9004  -13.5903 C   0  0  0  0  0  0  0  0  0  0  0  0
   -9.4149    6.3397  -13.9835 O   0  0  0  0  0  0  0  0  0  0  0  0
   -6.4170    5.1077  -13.7944 H   0  0  0  0  0  0  0  0  0  0  0  0
   -8.1663    5.6898  -12.1488 C   0  0  0  0  0  0  0  0  0  0  0  0
   -8.0125    6.7986  -11.2222 C   0  0  0  0  0  0  0  0  0  0  0  0
   -7.9696    6.5220   -9.9067 C   0  0  0  0  0  0  0  0  0  0  0  0
   -8.0582    5.1931   -9.4889 N   0  0  0  0  0  0  0  0  0  0  0  0
   -8.0448    4.6700   -8.2228 C   0  0  0  0  0  0  0  0  0  0  0  0
   -8.1481    3.3068   -8.3883 C   0  0  0  0  0  0  0  0  0  0  0  0
   -8.2442    2.9824   -9.7133 N   0  0  0  0  0  0  0  0  0  0  0  0
   -8.1776    4.1191  -10.3612 C   0  0  0  0  0  0  0  0  0  0  0  0
   -8.2347    4.4059  -11.7472 C   0  0  0  0  0  0  0  0  0  0  0  0
   -7.8954    4.6298  -17.8434 C   0  0  0  0  0  0  0  0  0  0  0  0
   -6.6176    4.7203  -18.3751 C   0  0  0  0  0  0  0  0  0  0  0  0
   -5.5777    5.0067  -17.5105 C   0  0  0  0  0  0  0  0  0  0  0  0
   -5.7321    5.2129  -16.1810 N   0  0  0  0  0  0  0  0  0  0  0  0
   -6.9924    5.1551  -15.7091 C   0  0  0  0  0  0  0  0  0  0  0  0
   -8.0887    4.8595  -16.4949 C   0  0  0  0  0  0  0  0  0  0  0  0
  -10.2224    4.3732  -18.2600 C   0  0  0  0  0  0  0  0  0  0  0  0
   -8.8786    4.2736  -18.7060 O   0  0  0  0  0  0  0  0  0  0  0  0
 20 21  1  0  0  0
 21 14  1  0  0  0
 14 15  2  0  0  0
 15 16  1  0  0  0
 16 17  2  0  0  0
 17 18  1  0  0  0
 18  1  1  0  0  0
  1  2  1  0  0  0
  2  3  2  0  0  0
  2  5  1  0  0  0
  5  6  1  0  0  0
  6  7  2  0  0  0
  7  8  1  0  0  0
  8  9  1  0  0  0
  9 10  2  0  0  0
 10 11  1  0  0  0
 11 12  2  0  0  0
 12 13  1  0  0  0
 18 19  2  0  0  0
 19 14  1  0  0  0
 13  5  2  0  0  0
 12  8  1  0  0  0
  1  4  1  0  0  0
M  END
> <minimizedAffinity>
-6.35823

> <minimizedRMSD>
0.44618

$$$$
P32207


 24 25  0  0  0  0  0  0  0  0999 V2000
   -4.6251    7.3131  -20.8811 C   0  0  0  0  0  0  0  0  0  0  0  0
   -5.4406    7.3391  -22.0789 N   0  0  0  0  0  0  0  0  0  0  0  0
   -5.0299    7.3947  -23.5803 C   0  0  0  0  0  0  0  0  0  0  0  0
   -3.9759    7.5057  -24.0730 O   0  0  0  0  0  0  0  0  0  0  0  0
   -6.4115    7.3182  -21.9174 H   0  0  0  0  0  0  0  0  0  0  0  0
   -6.3158    7.2674  -24.4134 C   0  0  0  0  0  0  0  0  0  0  0  0
   -6.1196    7.7974  -25.8438 C   0  0  0  0  0  0  0  0  0  0  0  0
   -7.2135    8.7235  -26.3019 C   0  0  0  0  0  0  0  0  0  0  0  0
   -7.1627   10.0436  -26.2396 N   0  0  0  0  0  0  0  0  0  0  0  0
   -8.3309   10.5033  -26.7901 C   0  0  0  0  0  0  0  0  0  0  0  0
   -9.1202    9.4549  -27.1887 C   0  0  0  0  0  0  0  0  0  0  0  0
   -8.3953    8.3291  -26.8936 N   0  0  0  0  0  0  0  0  0  0  0  0
   -8.8315    6.9821  -27.1734 C   0  0  0  0  0  0  0  0  0  0  0  0
   -5.3758    7.5730  -19.5759 C   0  0  0  0  0  0  0  0  0  0  0  0
   -4.5067    8.8044  -17.5654 C   0  0  0  0  0  0  0  0  0  0  0  0
   -4.4551    7.4671  -18.3226 C   0  0  0  0  0  0  0  0  0  0  0  0
   -4.7527    6.4274  -17.3135 N   0  0  0  0  0  0  0  0  0  0  0  0
   -5.5778    6.7243  -16.7925 H   0  0  0  0  0  0  0  0  0  0  0  0
   -5.0109    5.0890  -17.8364 C   0  0  0  0  0  0  0  0  0  0  0  0
   -6.4630    4.7665  -17.6937 C   0  0  0  0  0  0  0  0  0  0  0  0
   -7.1715    4.6799  -16.5076 C   0  0  0  0  0  0  0  0  0  0  0  0
   -8.7922    4.2259  -16.8149 S   0  0  0  0  0  0  0  0  0  0  0  0
   -8.4416    4.1878  -18.4900 C   0  0  0  0  0  0  0  0  0  0  0  0
   -7.2080    4.4884  -18.8287 N   0  0  0  0  0  0  0  0  0  0  0  0
 16 15  1  0  0  0
 16 14  1  0  0  0
 14  1  1  0  0  0
  1  2  1  0  0  0
  2  3  1  0  0  0
  3  4  2  0  0  0
  3  6  1  0  0  0
  6  7  1  0  0  0
  7  8  1  0  0  0
  8  9  2  0  0  0
  9 10  1  0  0  0
 10 11  2  0  0  0
 11 12  1  0  0  0
 12 13  1  0  0  0
 16 17  1  0  0  0
 17 19  1  0  0  0
 19 20  1  0  0  0
 20 21  2  0  0  0
 21 22  1  0  0  0
 22 23  1  0  0  0
 23 24  2  0  0  0
 12  8  1  0  0  0
 24 20  1  0  0  0
  2  5  1  0  0  0
 17 18  1  0  0  0
M  END
> <minimizedAffinity>
-4.05063

> <minimizedRMSD>
1.10163

$$$$
P32235


 23 25  0  0  0  0  0  0  0  0999 V2000
   -9.6479    6.1936  -14.0999 O   0  0  0  0  0  0  0  0  0  0  0  0
   -8.6262    5.6950  -13.8287 C   0  0  0  0  0  0  0  0  0  0  0  0
   -7.5366    5.0784  -14.7408 N   0  0  0  0  0  0  0  0  0  0  0  0
   -6.7222    4.7867  -14.2707 H   0  0  0  0  0  0  0  0  0  0  0  0
   -8.2639    5.4938  -12.4033 C   0  0  0  0  0  0  0  0  0  0  0  0
   -8.1167    6.6251  -11.4950 C   0  0  0  0  0  0  0  0  0  0  0  0
   -8.1419    6.3951  -10.1694 C   0  0  0  0  0  0  0  0  0  0  0  0
   -8.2913    5.0866   -9.7117 N   0  0  0  0  0  0  0  0  0  0  0  0
   -8.3763    4.6080   -8.4297 C   0  0  0  0  0  0  0  0  0  0  0  0
   -8.5223    3.2448   -8.5577 C   0  0  0  0  0  0  0  0  0  0  0  0
   -8.5243    2.8767   -9.8762 N   0  0  0  0  0  0  0  0  0  0  0  0
   -8.3927    3.9883  -10.5561 C   0  0  0  0  0  0  0  0  0  0  0  0
   -8.3917    4.2286  -11.9551 C   0  0  0  0  0  0  0  0  0  0  0  0
   -7.5216    4.8707  -16.1096 C   0  0  0  0  0  0  0  0  0  0  0  0
   -8.7346    4.6629  -16.7494 C   0  0  0  0  0  0  0  0  0  0  0  0
   -8.7366    4.4033  -18.1041 C   0  0  0  0  0  0  0  0  0  0  0  0
   -7.5299    4.3752  -18.7804 C   0  0  0  0  0  0  0  0  0  0  0  0
   -6.3462    4.6288  -18.0949 C   0  0  0  0  0  0  0  0  0  0  0  0
   -6.3247    4.8470  -16.7519 N   0  0  0  0  0  0  0  0  0  0  0  0
   -5.1091    4.6845  -18.7090 O   0  0  0  0  0  0  0  0  0  0  0  0
   -5.1825    4.9158  -20.1044 C   0  0  0  0  0  0  0  0  0  0  0  0
   -4.0569    4.4411  -20.6929 F   0  0  0  0  0  0  0  0  0  0  0  0
   -5.1957    6.2449  -20.3459 F   0  0  0  0  0  0  0  0  0  0  0  0
  1  2  2  0  0  0
  2  3  1  0  0  0
  3 14  1  0  0  0
 14 15  2  0  0  0
 15 16  1  0  0  0
 16 17  2  0  0  0
 17 18  1  0  0  0
 18 20  1  0  0  0
 20 21  1  0  0  0
 21 22  1  0  0  0
 21 23  1  0  0  0
 18 19  2  0  0  0
  2  5  1  0  0  0
  5  6  1  0  0  0
  6  7  2  0  0  0
  7  8  1  0  0  0
  8  9  1  0  0  0
  9 10  2  0  0  0
 10 11  1  0  0  0
 11 12  2  0  0  0
 12 13  1  0  0  0
 19 14  1  0  0  0
 13  5  2  0  0  0
 12  8  1  0  0  0
  3  4  1  0  0  0
M  END
> <minimizedAffinity>
-6.82939

> <minimizedRMSD>
0.46499

$$$$
P32236


 23 25  0  0  0  0  0  0  0  0999 V2000
   -8.0899    4.8842  -13.4443 C   0  0  0  0  0  0  0  0  0  0  0  0
   -9.1018    5.1625  -13.9526 O   0  0  0  0  0  0  0  0  0  0  0  0
   -6.7323    4.4917  -14.0657 N   0  0  0  0  0  0  0  0  0  0  0  0
   -6.0430    4.2252  -13.4153 H   0  0  0  0  0  0  0  0  0  0  0  0
   -6.3332    4.4542  -15.3668 C   0  0  0  0  0  0  0  0  0  0  0  0
   -7.3299    4.4267  -16.4285 C   0  0  0  0  0  0  0  0  0  0  0  0
   -6.9441    4.6727  -17.6915 C   0  0  0  0  0  0  0  0  0  0  0  0
   -5.6001    4.9039  -17.9563 N   0  0  0  0  0  0  0  0  0  0  0  0
   -4.9752    5.3399  -19.0974 C   0  0  0  0  0  0  0  0  0  0  0  0
   -3.6331    5.3704  -18.8037 C   0  0  0  0  0  0  0  0  0  0  0  0
   -3.4068    4.9913  -17.5092 N   0  0  0  0  0  0  0  0  0  0  0  0
   -4.6035    4.7840  -16.9975 C   0  0  0  0  0  0  0  0  0  0  0  0
   -5.0186    4.5497  -15.6582 C   0  0  0  0  0  0  0  0  0  0  0  0
   -8.2923    4.1883   -9.8135 C   0  0  0  0  0  0  0  0  0  0  0  0
   -8.4883    4.0121  -11.1630 C   0  0  0  0  0  0  0  0  0  0  0  0
   -7.9461    4.9796  -11.9902 C   0  0  0  0  0  0  0  0  0  0  0  0
   -7.2364    6.0675  -11.4883 C   0  0  0  0  0  0  0  0  0  0  0  0
   -7.0728    6.1294  -10.1260 C   0  0  0  0  0  0  0  0  0  0  0  0
   -7.5715    5.2066   -9.2862 N   0  0  0  0  0  0  0  0  0  0  0  0
   -8.9547    3.3232   -8.9775 O   0  0  0  0  0  0  0  0  0  0  0  0
   -8.7906    1.9161   -7.0894 C   0  0  0  0  0  0  0  0  0  0  0  0
   -8.4486    3.2904   -7.6417 C   0  0  0  0  0  0  0  0  0  0  0  0
   -9.0818    4.3298   -6.7251 C   0  0  0  0  0  0  0  0  0  0  0  0
 21 22  1  0  0  0
 22 23  1  0  0  0
 22 20  1  0  0  0
 20 14  1  0  0  0
 14 15  2  0  0  0
 15 16  1  0  0  0
 16  1  1  0  0  0
  1  2  2  0  0  0
  1  3  1  0  0  0
  3  5  1  0  0  0
  5  6  1  0  0  0
  6  7  2  0  0  0
  7  8  1  0  0  0
  8  9  1  0  0  0
  9 10  2  0  0  0
 10 11  1  0  0  0
 11 12  2  0  0  0
 12 13  1  0  0  0
 16 17  2  0  0  0
 17 18  1  0  0  0
 18 19  2  0  0  0
 19 14  1  0  0  0
 13  5  2  0  0  0
 12  8  1  0  0  0
  3  4  1  0  0  0
M  END
> <minimizedAffinity>
-5.78305

> <minimizedRMSD>
0.73095

$$$$
P32427


 17 19  0  0  0  0  0  0  0  0999 V2000
   -7.5742    4.7429  -14.3204 Cl  0  0  0  0  0  0  0  0  0  0  0  0
   -7.9157    4.5243  -15.9829 C   0  0  0  0  0  0  0  0  0  0  0  0
   -9.2078    4.2003  -16.3983 C   0  0  0  0  0  0  0  0  0  0  0  0
   -9.5197    4.0928  -17.7524 C   0  0  0  0  0  0  0  0  0  0  0  0
   -8.5306    4.2901  -18.7232 C   0  0  0  0  0  0  0  0  0  0  0  0
   -7.2161    4.5806  -18.3199 C   0  0  0  0  0  0  0  0  0  0  0  0
   -6.0745    4.7706  -19.0627 N   0  0  0  0  0  0  0  0  0  0  0  0
   -5.0966    4.9359  -18.1978 C   0  0  0  0  0  0  0  0  0  0  0  0
   -5.5940    4.9384  -16.9174 N   0  0  0  0  0  0  0  0  0  0  0  0
   -6.9400    4.6890  -16.9641 C   0  0  0  0  0  0  0  0  0  0  0  0
   -5.0686    5.0942  -16.0995 H   0  0  0  0  0  0  0  0  0  0  0  0
   -3.5645    5.0475  -18.5320 C   0  0  0  0  0  0  0  0  0  0  0  0
   -2.6376    5.6053  -17.6763 C   0  0  0  0  0  0  0  0  0  0  0  0
   -1.4238    5.3963  -18.2716 N   0  0  0  0  0  0  0  0  0  0  0  0
   -1.6510    4.7929  -19.4703 C   0  0  0  0  0  0  0  0  0  0  0  0
   -2.9307    4.5665  -19.6628 N   0  0  0  0  0  0  0  0  0  0  0  0
   -0.5448    5.6384  -17.9001 H   0  0  0  0  0  0  0  0  0  0  0  0
  1  2  1  0  0  0
  2  3  2  0  0  0
  3  4  1  0  0  0
  4  5  2  0  0  0
  5  6  1  0  0  0
  6  7  1  0  0  0
  7  8  2  0  0  0
  8 12  1  0  0  0
 12 13  2  0  0  0
 13 14  1  0  0  0
 14 15  1  0  0  0
 15 16  2  0  0  0
  8  9  1  0  0  0
  9 10  1  0  0  0
 10  2  1  0  0  0
 10  6  2  0  0  0
 16 12  1  0  0  0
 14 17  1  0  0  0
  9 11  1  0  0  0
M  END
> <minimizedAffinity>
-5.60540

> <minimizedRMSD>
0.55896

$$$$
P32442


 20 22  0  0  0  0  0  0  0  0999 V2000
   -5.6026    5.9864  -18.7209 C   0  0  0  0  0  0  0  0  0  0  0  0
   -5.7088    5.9644  -17.4119 N   0  0  0  0  0  0  0  0  0  0  0  0
   -6.8556    5.2590  -17.1465 C   0  0  0  0  0  0  0  0  0  0  0  0
   -7.5118    4.9982  -15.9380 C   0  0  0  0  0  0  0  0  0  0  0  0
   -7.0442    5.4566  -14.7685 F   0  0  0  0  0  0  0  0  0  0  0  0
   -8.7354    4.3337  -15.9634 C   0  0  0  0  0  0  0  0  0  0  0  0
   -9.3158    3.9398  -17.1716 C   0  0  0  0  0  0  0  0  0  0  0  0
   -8.6657    4.1534  -18.3862 C   0  0  0  0  0  0  0  0  0  0  0  0
   -7.4438    4.8201  -18.3259 C   0  0  0  0  0  0  0  0  0  0  0  0
   -6.5897    5.2434  -19.3059 N   0  0  0  0  0  0  0  0  0  0  0  0
   -6.6714    5.0470  -20.2672 H   0  0  0  0  0  0  0  0  0  0  0  0
   -5.0368    7.5234  -20.5309 C   0  0  0  0  0  0  0  0  0  0  0  0
   -4.6679    6.6177  -19.4622 N   0  0  0  0  0  0  0  0  0  0  0  0
   -3.3688    6.8289  -18.8269 C   0  0  0  0  0  0  0  0  0  0  0  0
   -2.4224    5.7088  -19.0556 C   0  0  0  0  0  0  0  0  0  0  0  0
   -1.0536    5.6908  -18.9050 C   0  0  0  0  0  0  0  0  0  0  0  0
   -0.6921    4.4491  -19.3170 N   0  0  0  0  0  0  0  0  0  0  0  0
   -1.8176    3.7824  -19.7050 C   0  0  0  0  0  0  0  0  0  0  0  0
   -2.8841    4.5111  -19.5472 N   0  0  0  0  0  0  0  0  0  0  0  0
    0.2248    4.0909  -19.3331 H   0  0  0  0  0  0  0  0  0  0  0  0
 12 13  1  0  0  0
 13 14  1  0  0  0
 14 15  1  0  0  0
 15 16  2  0  0  0
 16 17  1  0  0  0
 17 18  1  0  0  0
 18 19  2  0  0  0
 13  1  1  0  0  0
  1  2  2  0  0  0
  2  3  1  0  0  0
  3  4  2  0  0  0
  4  5  1  0  0  0
  4  6  1  0  0  0
  6  7  2  0  0  0
  7  8  1  0  0  0
  8  9  2  0  0  0
  9 10  1  0  0  0
 19 15  1  0  0  0
 10  1  1  0  0  0
  9  3  1  0  0  0
 17 20  1  0  0  0
 10 11  1  0  0  0
M  END
> <minimizedAffinity>
-5.63429

> <minimizedRMSD>
0.47380

$$$$
P32444


 18 20  0  0  0  0  0  0  0  0999 V2000
  -10.5719    3.9995  -17.8427 C   0  0  0  0  0  0  0  0  0  0  0  0
   -9.1171    4.2462  -17.6567 C   0  0  0  0  0  0  0  0  0  0  0  0
   -8.5617    4.3552  -16.3806 C   0  0  0  0  0  0  0  0  0  0  0  0
   -7.1957    4.6340  -16.1975 C   0  0  0  0  0  0  0  0  0  0  0  0
   -6.6791    4.7587  -14.7986 C   0  0  0  0  0  0  0  0  0  0  0  0
   -6.3977    4.7725  -17.3535 C   0  0  0  0  0  0  0  0  0  0  0  0
   -5.0457    4.9960  -17.4748 N   0  0  0  0  0  0  0  0  0  0  0  0
   -4.7991    4.9830  -18.7734 C   0  0  0  0  0  0  0  0  0  0  0  0
   -5.9541    4.8755  -19.4987 N   0  0  0  0  0  0  0  0  0  0  0  0
   -6.9793    4.6635  -18.6100 C   0  0  0  0  0  0  0  0  0  0  0  0
   -8.3264    4.3845  -18.7995 C   0  0  0  0  0  0  0  0  0  0  0  0
   -6.0354    4.9384  -20.4778 H   0  0  0  0  0  0  0  0  0  0  0  0
   -3.3634    5.0190  -19.3780 C   0  0  0  0  0  0  0  0  0  0  0  0
   -2.4591    4.0028  -19.1703 C   0  0  0  0  0  0  0  0  0  0  0  0
   -1.3840    4.3129  -19.9464 N   0  0  0  0  0  0  0  0  0  0  0  0
   -1.6307    5.5251  -20.5200 C   0  0  0  0  0  0  0  0  0  0  0  0
   -2.8298    5.9798  -20.2169 N   0  0  0  0  0  0  0  0  0  0  0  0
   -0.5769    3.7630  -20.0705 H   0  0  0  0  0  0  0  0  0  0  0  0
  1  2  1  0  0  0
  2  3  2  0  0  0
  3  4  1  0  0  0
  4  5  1  0  0  0
  4  6  2  0  0  0
  6  7  1  0  0  0
  7  8  2  0  0  0
  8 13  1  0  0  0
 13 14  2  0  0  0
 14 15  1  0  0  0
 15 16  1  0  0  0
 16 17  2  0  0  0
  8  9  1  0  0  0
  9 10  1  0  0  0
 10 11  2  0  0  0
 11  2  1  0  0  0
 10  6  1  0  0  0
 17 13  1  0  0  0
 15 18  1  0  0  0
  9 12  1  0  0  0
M  END
> <minimizedAffinity>
-6.85052

> <minimizedRMSD>
0.53803

$$$$
P32520


 21 23  0  0  0  0  0  0  0  0999 V2000
   -8.3187    3.4235  -11.5087 C   0  0  0  0  0  0  0  0  0  0  0  0
   -8.2894    3.9836  -10.1057 C   0  0  0  0  0  0  0  0  0  0  0  0
   -8.0914    5.3717   -9.8438 C   0  0  0  0  0  0  0  0  0  0  0  0
   -8.1457    5.6907   -8.5497 N   0  0  0  0  0  0  0  0  0  0  0  0
   -8.3991    4.5097   -7.9633 N   0  0  0  0  0  0  0  0  0  0  0  0
   -8.4304    3.4468   -8.8282 C   0  0  0  0  0  0  0  0  0  0  0  0
   -8.6600    2.0760   -8.2827 C   0  0  0  0  0  0  0  0  0  0  0  0
   -8.3698    1.9962   -6.8474 N   0  0  0  0  0  0  0  0  0  0  0  0
   -9.0865    3.0485   -6.1260 C   0  0  0  0  0  0  0  0  0  0  0  0
   -8.5720    4.4259   -6.5239 C   0  0  0  0  0  0  0  0  0  0  0  0
   -7.3669    2.1100   -6.7000 H   0  0  0  0  0  0  0  0  0  0  0  0
   -7.0543    3.4652  -12.2439 N   0  0  0  0  0  0  0  0  0  0  0  0
   -6.7769    2.2064  -12.9247 C   0  0  0  0  0  0  0  0  0  0  0  0
   -7.0003    4.5492  -13.2648 C   0  0  0  0  0  0  0  0  0  0  0  0
   -8.1848    4.6544  -14.2588 C   0  0  0  0  0  0  0  0  0  0  0  0
   -5.1036    4.8175  -18.1184 C   0  0  0  0  0  0  0  0  0  0  0  0
   -6.4356    4.7222  -17.4795 C   0  0  0  0  0  0  0  0  0  0  0  0
   -7.6536    4.6606  -18.1245 C   0  0  0  0  0  0  0  0  0  0  0  0
   -8.9037    4.4709  -16.9760 S   0  0  0  0  0  0  0  0  0  0  0  0
   -7.7551    4.5972  -15.7012 C   0  0  0  0  0  0  0  0  0  0  0  0
   -6.5047    4.7145  -16.0945 N   0  0  0  0  0  0  0  0  0  0  0  0
 16 17  1  0  0  0
 17 18  2  0  0  0
 18 19  1  0  0  0
 19 20  1  0  0  0
 20 15  1  0  0  0
 15 14  1  0  0  0
 14 12  1  0  0  0
 12 13  1  0  0  0
 12  1  1  0  0  0
  1  2  1  0  0  0
  2  3  1  0  0  0
  3  4  2  0  0  0
  4  5  1  0  0  0
  5  6  1  0  0  0
  6  7  1  0  0  0
  7  8  1  0  0  0
  8  9  1  0  0  0
  9 10  1  0  0  0
 20 21  2  0  0  0
 21 17  1  0  0  0
  6  2  2  0  0  0
 10  5  1  0  0  0
  8 11  1  0  0  0
M  END
> <minimizedAffinity>
-5.99411

> <minimizedRMSD>
1.18649

$$$$
P32523


 23 25  0  0  0  0  0  0  0  0999 V2000
   -7.5843    4.0101  -12.3598 N   0  0  0  0  0  0  0  0  0  0  0  0
   -6.7562    4.7593  -11.2995 C   0  0  0  0  0  0  0  0  0  0  0  0
   -5.7175    5.2806  -11.3824 O   0  0  0  0  0  0  0  0  0  0  0  0
   -8.4057    3.5882  -12.0187 H   0  0  0  0  0  0  0  0  0  0  0  0
   -7.4531    4.7954  -10.0035 C   0  0  0  0  0  0  0  0  0  0  0  0
   -7.7902    5.9750   -9.2842 C   0  0  0  0  0  0  0  0  0  0  0  0
   -8.3846    5.7363   -8.1108 N   0  0  0  0  0  0  0  0  0  0  0  0
   -8.3762    4.3938   -8.0408 N   0  0  0  0  0  0  0  0  0  0  0  0
   -7.8784    3.7785   -9.1596 C   0  0  0  0  0  0  0  0  0  0  0  0
   -7.8439    2.2977   -9.2199 C   0  0  0  0  0  0  0  0  0  0  0  0
   -7.8761    1.6981   -7.8896 N   0  0  0  0  0  0  0  0  0  0  0  0
   -8.9825    2.2186   -7.0910 C   0  0  0  0  0  0  0  0  0  0  0  0
   -8.7902    3.7090   -6.8279 C   0  0  0  0  0  0  0  0  0  0  0  0
   -6.9982    1.9039   -7.4127 H   0  0  0  0  0  0  0  0  0  0  0  0
   -7.3507    3.8245  -13.7816 C   0  0  0  0  0  0  0  0  0  0  0  0
   -7.5199    5.1101  -14.6133 C   0  0  0  0  0  0  0  0  0  0  0  0
   -8.7542    5.9005  -14.1979 C   0  0  0  0  0  0  0  0  0  0  0  0
   -5.5522    4.7466  -19.1202 C   0  0  0  0  0  0  0  0  0  0  0  0
   -6.6783    4.7040  -18.1611 C   0  0  0  0  0  0  0  0  0  0  0  0
   -8.0081    4.4883  -18.4566 C   0  0  0  0  0  0  0  0  0  0  0  0
   -8.9197    4.4508  -17.0132 S   0  0  0  0  0  0  0  0  0  0  0  0
   -7.5042    4.8282  -16.1035 C   0  0  0  0  0  0  0  0  0  0  0  0
   -6.4048    4.9166  -16.8218 N   0  0  0  0  0  0  0  0  0  0  0  0
 18 19  1  0  0  0
 19 20  2  0  0  0
 20 21  1  0  0  0
 21 22  1  0  0  0
 22 16  1  0  0  0
 16 17  1  0  0  0
 16 15  1  0  0  0
 15  1  1  0  0  0
  1  2  1  0  0  0
  2  3  2  0  0  0
  2  5  1  0  0  0
  5  6  1  0  0  0
  6  7  2  0  0  0
  7  8  1  0  0  0
  8  9  1  0  0  0
  9 10  1  0  0  0
 10 11  1  0  0  0
 11 12  1  0  0  0
 12 13  1  0  0  0
 22 23  2  0  0  0
 23 19  1  0  0  0
  9  5  2  0  0  0
 13  8  1  0  0  0
  1  4  1  0  0  0
 11 14  1  0  0  0
M  END
> <minimizedAffinity>
-5.84528

> <minimizedRMSD>
0.40664

$$$$
P32525


 25 27  0  0  0  0  0  0  0  0999 V2000
   -7.7231    4.9165  -10.8001 S   0  0  0  0  0  0  0  0  0  0  0  0
   -8.6862    4.0946  -11.4926 O   0  0  0  0  0  0  0  0  0  0  0  0
   -6.3075    4.6298  -10.7655 O   0  0  0  0  0  0  0  0  0  0  0  0
   -8.1835    4.8451   -9.1672 C   0  0  0  0  0  0  0  0  0  0  0  0
   -8.1302    5.8893   -8.2344 C   0  0  0  0  0  0  0  0  0  0  0  0
   -8.5629    5.5080   -7.0240 N   0  0  0  0  0  0  0  0  0  0  0  0
   -8.8263    4.1940   -7.1939 N   0  0  0  0  0  0  0  0  0  0  0  0
   -8.6375    3.7499   -8.4692 C   0  0  0  0  0  0  0  0  0  0  0  0
   -8.9241    2.3485   -8.8632 C   0  0  0  0  0  0  0  0  0  0  0  0
   -9.0085    1.4768   -7.6911 N   0  0  0  0  0  0  0  0  0  0  0  0
   -9.8337    2.0526   -6.6312 C   0  0  0  0  0  0  0  0  0  0  0  0
   -9.2424    3.3503   -6.0898 C   0  0  0  0  0  0  0  0  0  0  0  0
   -8.0678    1.3233   -7.3279 H   0  0  0  0  0  0  0  0  0  0  0  0
   -7.9187    6.4892  -11.3785 N   0  0  0  0  0  0  0  0  0  0  0  0
   -8.6743    6.9199  -10.8455 H   0  0  0  0  0  0  0  0  0  0  0  0
   -8.2403    6.6493  -12.8154 C   0  0  0  0  0  0  0  0  0  0  0  0
   -7.0509    6.8929  -13.7459 C   0  0  0  0  0  0  0  0  0  0  0  0
   -6.1135    5.7094  -14.0397 C   0  0  0  0  0  0  0  0  0  0  0  0
   -6.7706    4.4667  -14.6547 C   0  0  0  0  0  0  0  0  0  0  0  0
   -5.6979    4.6993  -19.4207 C   0  0  0  0  0  0  0  0  0  0  0  0
   -6.6414    4.6939  -18.2814 C   0  0  0  0  0  0  0  0  0  0  0  0
   -8.0166    4.5870  -18.3223 C   0  0  0  0  0  0  0  0  0  0  0  0
   -8.6472    4.5380  -16.7356 S   0  0  0  0  0  0  0  0  0  0  0  0
   -7.0508    4.6339  -16.1130 C   0  0  0  0  0  0  0  0  0  0  0  0
   -6.1102    4.7933  -17.0166 N   0  0  0  0  0  0  0  0  0  0  0  0
 20 21  1  0  0  0
 21 22  2  0  0  0
 22 23  1  0  0  0
 23 24  1  0  0  0
 24 19  1  0  0  0
 19 18  1  0  0  0
 18 17  1  0  0  0
 17 16  1  0  0  0
 16 14  1  0  0  0
 14  1  1  0  0  0
  1  2  2  0  0  0
  1  3  2  0  0  0
  1  4  1  0  0  0
  4  5  1  0  0  0
  5  6  2  0  0  0
  6  7  1  0  0  0
  7  8  1  0  0  0
  8  9  1  0  0  0
  9 10  1  0  0  0
 10 11  1  0  0  0
 11 12  1  0  0  0
 24 25  2  0  0  0
 25 21  1  0  0  0
  8  4  2  0  0  0
 12  7  1  0  0  0
 14 15  1  0  0  0
 10 13  1  0  0  0
M  END
> <minimizedAffinity>
-5.85088

> <minimizedRMSD>
0.63111

$$$$
P32533


 22 24  0  0  0  0  0  0  0  0999 V2000
   -7.2877    3.1912  -12.9654 C   0  0  0  0  0  0  0  0  0  0  0  0
   -8.0485    4.4196  -12.6296 N   0  0  0  0  0  0  0  0  0  0  0  0
   -8.2236    5.4851  -13.9961 S   0  0  0  0  0  0  0  0  0  0  0  0
   -9.6368    5.7992  -14.0959 O   0  0  0  0  0  0  0  0  0  0  0  0
   -7.2862    6.5734  -13.7626 O   0  0  0  0  0  0  0  0  0  0  0  0
   -7.7047    4.8325  -15.5905 C   0  0  0  0  0  0  0  0  0  0  0  0
   -6.4512    4.8461  -16.0150 N   0  0  0  0  0  0  0  0  0  0  0  0
   -6.4430    4.7553  -17.3917 C   0  0  0  0  0  0  0  0  0  0  0  0
   -4.8290    4.9404  -18.3560 Br  0  0  0  0  0  0  0  0  0  0  0  0
   -7.6640    4.5837  -18.0008 C   0  0  0  0  0  0  0  0  0  0  0  0
   -8.8750    4.5134  -16.7972 S   0  0  0  0  0  0  0  0  0  0  0  0
   -7.3577    5.2066  -11.5484 C   0  0  0  0  0  0  0  0  0  0  0  0
   -7.7797    5.0441  -10.1239 C   0  0  0  0  0  0  0  0  0  0  0  0
   -7.7228    6.1386   -9.2063 C   0  0  0  0  0  0  0  0  0  0  0  0
   -8.1562    5.8423   -7.9827 N   0  0  0  0  0  0  0  0  0  0  0  0
   -8.4844    4.5446   -8.0923 N   0  0  0  0  0  0  0  0  0  0  0  0
   -8.2956    4.0207   -9.3490 C   0  0  0  0  0  0  0  0  0  0  0  0
   -8.6688    2.6111   -9.6009 C   0  0  0  0  0  0  0  0  0  0  0  0
   -8.6012    1.8440   -8.3522 N   0  0  0  0  0  0  0  0  0  0  0  0
   -9.4677    2.4361   -7.3309 C   0  0  0  0  0  0  0  0  0  0  0  0
   -8.9450    3.8081   -6.9286 C   0  0  0  0  0  0  0  0  0  0  0  0
   -7.6391    1.8405   -8.0135 H   0  0  0  0  0  0  0  0  0  0  0  0
  1  2  1  0  0  0
  2 12  1  0  0  0
 12 13  1  0  0  0
 13 14  1  0  0  0
 14 15  2  0  0  0
 15 16  1  0  0  0
 16 17  1  0  0  0
 17 18  1  0  0  0
 18 19  1  0  0  0
 19 20  1  0  0  0
 20 21  1  0  0  0
  2  3  1  0  0  0
  3  4  2  0  0  0
  3  5  2  0  0  0
  3  6  1  0  0  0
  6  7  2  0  0  0
  7  8  1  0  0  0
  8  9  1  0  0  0
  8 10  2  0  0  0
 10 11  1  0  0  0
 17 13  2  0  0  0
 11  6  1  0  0  0
 21 16  1  0  0  0
 19 22  1  0  0  0
M  END
> <minimizedAffinity>
-6.16816

> <minimizedRMSD>
0.68426

$$$$
P32536


 24 26  0  0  0  0  0  0  0  0999 V2000
   -6.8133    4.2815  -11.4844 N   0  0  0  0  0  0  0  0  0  0  0  0
   -7.2765    5.6295  -10.9429 S   0  0  0  0  0  0  0  0  0  0  0  0
   -5.8548    6.6403  -10.5941 C   0  0  0  0  0  0  0  0  0  0  0  0
   -8.3021    6.4706  -11.5249 O   0  0  0  0  0  0  0  0  0  0  0  0
   -7.8546    5.2379   -9.3752 C   0  0  0  0  0  0  0  0  0  0  0  0
   -8.1817    6.2037   -8.4019 C   0  0  0  0  0  0  0  0  0  0  0  0
   -8.5538    5.6605   -7.2372 N   0  0  0  0  0  0  0  0  0  0  0  0
   -8.4860    4.3353   -7.4874 N   0  0  0  0  0  0  0  0  0  0  0  0
   -8.0800    4.0238   -8.7568 C   0  0  0  0  0  0  0  0  0  0  0  0
   -7.9925    2.6072   -9.1941 C   0  0  0  0  0  0  0  0  0  0  0  0
   -7.9845    1.6939   -8.0467 N   0  0  0  0  0  0  0  0  0  0  0  0
   -9.0542    1.9950   -7.1007 C   0  0  0  0  0  0  0  0  0  0  0  0
   -8.8207    3.3612   -6.4643 C   0  0  0  0  0  0  0  0  0  0  0  0
   -7.0880    1.7757   -7.5670 H   0  0  0  0  0  0  0  0  0  0  0  0
   -6.2038    4.2107  -12.7354 C   0  0  0  0  0  0  0  0  0  0  0  0
   -5.0966    4.7002  -12.9455 O   0  0  0  0  0  0  0  0  0  0  0  0
   -6.9770    3.5538  -13.8458 C   0  0  0  0  0  0  0  0  0  0  0  0
   -7.9164    4.5702  -14.4845 C   0  0  0  0  0  0  0  0  0  0  0  0
   -5.4314    4.8116  -18.7088 C   0  0  0  0  0  0  0  0  0  0  0  0
   -6.6656    4.7044  -17.8992 C   0  0  0  0  0  0  0  0  0  0  0  0
   -7.9522    4.5258  -18.3648 C   0  0  0  0  0  0  0  0  0  0  0  0
   -9.0378    4.4092  -17.0547 S   0  0  0  0  0  0  0  0  0  0  0  0
   -7.7294    4.6046  -15.9656 C   0  0  0  0  0  0  0  0  0  0  0  0
   -6.5549    4.7930  -16.5258 N   0  0  0  0  0  0  0  0  0  0  0  0
 19 20  1  0  0  0
 20 21  2  0  0  0
 21 22  1  0  0  0
 22 23  1  0  0  0
 23 18  1  0  0  0
 18 17  1  0  0  0
 17 15  1  0  0  0
 15 16  2  0  0  0
 15  1  1  0  0  0
  1  2  2  0  0  0
  2  3  1  0  0  0
  2  4  2  0  0  0
  2  5  1  0  0  0
  5  6  1  0  0  0
  6  7  2  0  0  0
  7  8  1  0  0  0
  8  9  1  0  0  0
  9 10  1  0  0  0
 10 11  1  0  0  0
 11 12  1  0  0  0
 12 13  1  0  0  0
 23 24  2  0  0  0
 24 20  1  0  0  0
  9  5  2  0  0  0
 13  8  1  0  0  0
 11 14  1  0  0  0
M  END
> <minimizedAffinity>
-6.09302

> <minimizedRMSD>
0.52177

$$$$
P32540


 22 24  0  0  0  0  0  0  0  0999 V2000
   -8.1209    5.2039  -11.7870 N   0  0  0  0  0  0  0  0  0  0  0  0
   -8.2233    4.1892  -11.7699 H   0  0  0  0  0  0  0  0  0  0  0  0
   -7.5992    5.6084  -13.1069 C   0  0  0  0  0  0  0  0  0  0  0  0
   -8.3818    4.8919  -14.2051 C   0  0  0  0  0  0  0  0  0  0  0  0
   -6.2298    4.8339  -17.1663 C   0  0  0  0  0  0  0  0  0  0  0  0
   -7.3501    4.6032  -17.9371 C   0  0  0  0  0  0  0  0  0  0  0  0
   -8.7404    4.6178  -16.9576 S   0  0  0  0  0  0  0  0  0  0  0  0
   -7.7613    4.9175  -15.5689 C   0  0  0  0  0  0  0  0  0  0  0  0
   -6.4779    5.0632  -15.8195 N   0  0  0  0  0  0  0  0  0  0  0  0
   -4.3285    6.2431  -17.9442 C   0  0  0  0  0  0  0  0  0  0  0  0
   -4.8199    4.8395  -17.6405 C   0  0  0  0  0  0  0  0  0  0  0  0
   -7.2343    5.6051  -10.7062 C   0  0  0  0  0  0  0  0  0  0  0  0
   -7.8196    5.2768   -9.3706 C   0  0  0  0  0  0  0  0  0  0  0  0
   -8.1536    6.2191   -8.3605 C   0  0  0  0  0  0  0  0  0  0  0  0
   -8.6072    5.6571   -7.2365 N   0  0  0  0  0  0  0  0  0  0  0  0
   -8.5880    4.3444   -7.5270 N   0  0  0  0  0  0  0  0  0  0  0  0
   -8.1075    4.0588   -8.7758 C   0  0  0  0  0  0  0  0  0  0  0  0
   -8.0053    2.6473   -9.2292 C   0  0  0  0  0  0  0  0  0  0  0  0
   -7.9222    1.7350   -8.0818 N   0  0  0  0  0  0  0  0  0  0  0  0
   -9.0371    1.9674   -7.1576 C   0  0  0  0  0  0  0  0  0  0  0  0
   -8.9610    3.3562   -6.5308 C   0  0  0  0  0  0  0  0  0  0  0  0
   -7.0417    1.8920   -7.5915 H   0  0  0  0  0  0  0  0  0  0  0  0
 10 11  1  0  0  0
 11  5  1  0  0  0
  5  6  2  0  0  0
  6  7  1  0  0  0
  7  8  1  0  0  0
  8  4  1  0  0  0
  4  3  1  0  0  0
  3  1  1  0  0  0
  1 12  1  0  0  0
 12 13  1  0  0  0
 13 14  1  0  0  0
 14 15  2  0  0  0
 15 16  1  0  0  0
 16 17  1  0  0  0
 17 18  1  0  0  0
 18 19  1  0  0  0
 19 20  1  0  0  0
 20 21  1  0  0  0
  8  9  2  0  0  0
  9  5  1  0  0  0
 17 13  2  0  0  0
 21 16  1  0  0  0
  1  2  1  0  0  0
 19 22  1  0  0  0
M  END
> <minimizedAffinity>
-5.19941

> <minimizedRMSD>
0.82277

$$$$
P32672


 25 27  0  0  0  0  0  0  0  0999 V2000
   -7.2719    4.7340  -14.7996 C   0  0  0  0  0  0  0  0  0  0  0  0
   -8.4140    4.2437  -15.4801 C   0  0  0  0  0  0  0  0  0  0  0  0
   -8.4206    4.1393  -16.8740 C   0  0  0  0  0  0  0  0  0  0  0  0
   -9.8509    3.7566  -17.7317 Cl  0  0  0  0  0  0  0  0  0  0  0  0
   -7.2670    4.4661  -17.5441 C   0  0  0  0  0  0  0  0  0  0  0  0
   -6.9560    4.4051  -18.8976 N   0  0  0  0  0  0  0  0  0  0  0  0
   -5.6567    4.8818  -19.0911 C   0  0  0  0  0  0  0  0  0  0  0  0
   -5.0378    4.9454  -20.1399 O   0  0  0  0  0  0  0  0  0  0  0  0
   -5.1777    5.2516  -17.8232 N   0  0  0  0  0  0  0  0  0  0  0  0
   -6.1589    4.9733  -16.8777 C   0  0  0  0  0  0  0  0  0  0  0  0
   -6.1319    5.1372  -15.5143 C   0  0  0  0  0  0  0  0  0  0  0  0
   -7.5556    4.0783  -19.6068 H   0  0  0  0  0  0  0  0  0  0  0  0
   -4.2941    5.6429  -17.6352 H   0  0  0  0  0  0  0  0  0  0  0  0
   -7.2439    4.9003  -13.3235 C   0  0  0  0  0  0  0  0  0  0  0  0
   -6.4670    5.6629  -12.7717 O   0  0  0  0  0  0  0  0  0  0  0  0
   -8.1896    4.1296  -12.7399 O   0  0  0  0  0  0  0  0  0  0  0  0
   -8.3633    4.2909  -11.3155 C   0  0  0  0  0  0  0  0  0  0  0  0
   -6.7451    2.5094  -10.5956 C   0  0  0  0  0  0  0  0  0  0  0  0
   -8.2136    2.9474  -10.5784 C   0  0  0  0  0  0  0  0  0  0  0  0
   -8.6770    3.0632   -9.1393 C   0  0  0  0  0  0  0  0  0  0  0  0
   -9.2904    1.9849   -8.5042 C   0  0  0  0  0  0  0  0  0  0  0  0
   -9.6120    2.0940   -7.1555 C   0  0  0  0  0  0  0  0  0  0  0  0
   -9.3141    3.2691   -6.4789 C   0  0  0  0  0  0  0  0  0  0  0  0
   -8.7089    4.2948   -7.1836 C   0  0  0  0  0  0  0  0  0  0  0  0
   -8.3906    4.2216   -8.4883 N   0  0  0  0  0  0  0  0  0  0  0  0
 19 18  1  0  0  0
 19 17  1  0  0  0
 17 16  1  0  0  0
 16 14  1  0  0  0
 14 15  2  0  0  0
 14  1  1  0  0  0
  1  2  2  0  0  0
  2  3  1  0  0  0
  3  4  1  0  0  0
  3  5  2  0  0  0
  5  6  1  0  0  0
  6  7  1  0  0  0
  7  8  2  0  0  0
  7  9  1  0  0  0
  9 10  1  0  0  0
 10 11  2  0  0  0
 19 20  1  0  0  0
 20 21  2  0  0  0
 21 22  1  0  0  0
 22 23  2  0  0  0
 23 24  1  0  0  0
 24 25  2  0  0  0
 11  1  1  0  0  0
 25 20  1  0  0  0
 10  5  1  0  0  0
  6 12  1  0  0  0
  9 13  1  0  0  0
M  END
> <minimizedAffinity>
-7.76741

> <minimizedRMSD>
0.56720

$$$$
P32795


 22 24  0  0  0  0  0  0  0  0999 V2000
   -6.8127    4.9216  -18.1603 C   0  0  0  0  0  0  0  0  0  0  0  0
   -7.8956    4.4310  -18.8910 C   0  0  0  0  0  0  0  0  0  0  0  0
   -8.9936    3.9447  -18.2062 C   0  0  0  0  0  0  0  0  0  0  0  0
   -8.9722    3.9208  -16.8138 C   0  0  0  0  0  0  0  0  0  0  0  0
   -7.8781    4.3614  -16.0788 C   0  0  0  0  0  0  0  0  0  0  0  0
   -7.9837    4.2855  -14.7522 N   0  0  0  0  0  0  0  0  0  0  0  0
   -6.9515    4.7176  -14.0323 C   0  0  0  0  0  0  0  0  0  0  0  0
   -5.8435    5.2748  -14.5203 N   0  0  0  0  0  0  0  0  0  0  0  0
   -5.7477    5.3472  -15.8581 C   0  0  0  0  0  0  0  0  0  0  0  0
   -6.7535    4.8831  -16.7370 C   0  0  0  0  0  0  0  0  0  0  0  0
   -5.8129    6.7319  -19.1521 O   0  0  0  0  0  0  0  0  0  0  0  0
   -5.7574    5.5120  -18.9449 N   0  0  0  0  0  0  0  0  0  0  0  0
   -4.8966    4.7391  -19.3951 O   0  0  0  0  0  0  0  0  0  0  0  0
   -4.6149    6.0401  -16.2699 N   0  0  0  0  0  0  0  0  0  0  0  0
   -4.6638    6.9932  -16.5120 H   0  0  0  0  0  0  0  0  0  0  0  0
   -3.3376    5.3049  -16.3335 C   0  0  0  0  0  0  0  0  0  0  0  0
   -2.6491    5.2703  -14.9534 C   0  0  0  0  0  0  0  0  0  0  0  0
   -1.4333    6.1907  -14.8931 C   0  0  0  0  0  0  0  0  0  0  0  0
   -0.4459    5.8802  -16.0201 C   0  0  0  0  0  0  0  0  0  0  0  0
   -1.0424    5.7589  -17.3484 N   0  0  0  0  0  0  0  0  0  0  0  0
   -2.4644    6.0593  -17.3774 C   0  0  0  0  0  0  0  0  0  0  0  0
   -0.9081    4.8024  -17.6760 H   0  0  0  0  0  0  0  0  0  0  0  0
 11 12  2  0  0  0
 12 13  1  0  0  0
 12  1  1  0  0  0
  1  2  2  0  0  0
  2  3  1  0  0  0
  3  4  2  0  0  0
  4  5  1  0  0  0
  5  6  2  0  0  0
  6  7  1  0  0  0
  7  8  2  0  0  0
  8  9  1  0  0  0
  9 14  1  0  0  0
 16 14  1  0  0  0
 16 17  1  0  0  0
 17 18  1  0  0  0
 18 19  1  0  0  0
 19 20  1  0  0  0
 20 21  1  0  0  0
  9 10  2  0  0  0
 10  1  1  0  0  0
 10  5  1  0  0  0
 21 16  1  0  0  0
 14 15  1  0  0  0
 20 22  1  0  0  0
M  CHG 1  12   1
M  CHG 1  13  -1
M  END
> <minimizedAffinity>
-5.50288

> <minimizedRMSD>
0.87939

$$$$
P32796


 23 25  0  0  0  0  0  0  0  0999 V2000
   -6.8628    4.9107  -18.1026 C   0  0  0  0  0  0  0  0  0  0  0  0
   -8.0006    4.4831  -18.7866 C   0  0  0  0  0  0  0  0  0  0  0  0
   -9.0779    4.0126  -18.0561 C   0  0  0  0  0  0  0  0  0  0  0  0
   -8.9877    3.9500  -16.6663 C   0  0  0  0  0  0  0  0  0  0  0  0
   -7.8418    4.3334  -15.9790 C   0  0  0  0  0  0  0  0  0  0  0  0
   -7.8694    4.2377  -14.6480 N   0  0  0  0  0  0  0  0  0  0  0  0
   -6.7750    4.6095  -13.9857 C   0  0  0  0  0  0  0  0  0  0  0  0
   -5.6672    5.1162  -14.5295 N   0  0  0  0  0  0  0  0  0  0  0  0
   -5.6581    5.2118  -15.8691 C   0  0  0  0  0  0  0  0  0  0  0  0
   -6.7372    4.8239  -16.6892 C   0  0  0  0  0  0  0  0  0  0  0  0
   -5.8506    6.7225  -19.0863 O   0  0  0  0  0  0  0  0  0  0  0  0
   -5.8232    5.4947  -18.9171 N   0  0  0  0  0  0  0  0  0  0  0  0
   -5.0222    4.7088  -19.4438 O   0  0  0  0  0  0  0  0  0  0  0  0
   -4.5095    5.8279  -16.3739 N   0  0  0  0  0  0  0  0  0  0  0  0
   -4.5034    6.7519  -16.7137 H   0  0  0  0  0  0  0  0  0  0  0  0
   -3.3100    4.9754  -16.3535 C   0  0  0  0  0  0  0  0  0  0  0  0
   -2.2006    5.7360  -17.1158 C   0  0  0  0  0  0  0  0  0  0  0  0
   -1.8162    5.0338  -18.4286 C   0  0  0  0  0  0  0  0  0  0  0  0
   -0.3946    5.3771  -18.8789 C   0  0  0  0  0  0  0  0  0  0  0  0
    0.0515    6.7345  -18.3524 C   0  0  0  0  0  0  0  0  0  0  0  0
    0.0723    6.7941  -16.8887 N   0  0  0  0  0  0  0  0  0  0  0  0
   -0.9690    5.9933  -16.2390 C   0  0  0  0  0  0  0  0  0  0  0  0
   -0.0498    7.7667  -16.6066 H   0  0  0  0  0  0  0  0  0  0  0  0
 11 12  2  0  0  0
 12 13  1  0  0  0
 12  1  1  0  0  0
  1  2  2  0  0  0
  2  3  1  0  0  0
  3  4  2  0  0  0
  4  5  1  0  0  0
  5  6  2  0  0  0
  6  7  1  0  0  0
  7  8  2  0  0  0
  8  9  1  0  0  0
  9 14  1  0  0  0
 14 16  1  0  0  0
 17 16  1  0  0  0
 17 18  1  0  0  0
 18 19  1  0  0  0
 19 20  1  0  0  0
 20 21  1  0  0  0
 21 22  1  0  0  0
  9 10  2  0  0  0
 10  1  1  0  0  0
 10  5  1  0  0  0
 22 17  1  0  0  0
 14 15  1  0  0  0
 21 23  1  0  0  0
M  CHG 1  12   1
M  CHG 1  13  -1
M  END
> <minimizedAffinity>
-5.56248

> <minimizedRMSD>
1.27131

$$$$
P32798


 22 24  0  0  0  0  0  0  0  0999 V2000
   -8.7363    4.3655  -17.4851 C   0  0  0  0  0  0  0  0  0  0  0  0
   -7.9610    4.2696  -18.6496 C   0  0  0  0  0  0  0  0  0  0  0  0
   -6.6080    4.5599  -18.6120 C   0  0  0  0  0  0  0  0  0  0  0  0
   -6.0368    4.9395  -17.4094 C   0  0  0  0  0  0  0  0  0  0  0  0
   -6.7994    4.9868  -16.2154 C   0  0  0  0  0  0  0  0  0  0  0  0
   -6.3045    5.3592  -14.9555 C   0  0  0  0  0  0  0  0  0  0  0  0
   -7.0591    5.4243  -13.8477 N   0  0  0  0  0  0  0  0  0  0  0  0
   -8.3458    5.1107  -14.0032 C   0  0  0  0  0  0  0  0  0  0  0  0
   -8.9345    4.7742  -15.1466 N   0  0  0  0  0  0  0  0  0  0  0  0
   -8.1668    4.6986  -16.2504 C   0  0  0  0  0  0  0  0  0  0  0  0
  -10.7882    4.5288  -18.6344 C   0  0  0  0  0  0  0  0  0  0  0  0
  -10.0996    4.1817  -17.4543 O   0  0  0  0  0  0  0  0  0  0  0  0
   -4.9864    5.7809  -14.7464 N   0  0  0  0  0  0  0  0  0  0  0  0
   -4.6966    6.7097  -14.8968 H   0  0  0  0  0  0  0  0  0  0  0  0
   -4.0745    4.7374  -14.2880 C   0  0  0  0  0  0  0  0  0  0  0  0
   -2.6531    5.0249  -14.8078 C   0  0  0  0  0  0  0  0  0  0  0  0
   -2.6249    5.4180  -16.2949 C   0  0  0  0  0  0  0  0  0  0  0  0
   -1.3129    6.1037  -16.6880 C   0  0  0  0  0  0  0  0  0  0  0  0
   -0.1861    5.7990  -15.7075 C   0  0  0  0  0  0  0  0  0  0  0  0
   -0.4980    6.2279  -14.3433 N   0  0  0  0  0  0  0  0  0  0  0  0
   -1.9073    6.0687  -13.9665 C   0  0  0  0  0  0  0  0  0  0  0  0
   -0.2533    7.2142  -14.2548 H   0  0  0  0  0  0  0  0  0  0  0  0
 11 12  1  0  0  0
 12  1  1  0  0  0
  1  2  2  0  0  0
  2  3  1  0  0  0
  3  4  2  0  0  0
  4  5  1  0  0  0
  5  6  2  0  0  0
  6 13  1  0  0  0
 13 15  1  0  0  0
 16 15  1  0  0  0
 16 17  1  0  0  0
 17 18  1  0  0  0
 18 19  1  0  0  0
 19 20  1  0  0  0
 20 21  1  0  0  0
  6  7  1  0  0  0
  7  8  2  0  0  0
  8  9  1  0  0  0
  9 10  2  0  0  0
 10  1  1  0  0  0
 10  5  1  0  0  0
 21 16  1  0  0  0
 13 14  1  0  0  0
 20 22  1  0  0  0
M  END
> <minimizedAffinity>
-5.49118

> <minimizedRMSD>
1.58146

$$$$
P32799


 22 24  0  0  0  0  0  0  0  0999 V2000
   -5.7103    4.9414  -16.1500 C   0  0  0  0  0  0  0  0  0  0  0  0
   -5.8031    4.8680  -14.8153 N   0  0  0  0  0  0  0  0  0  0  0  0
   -6.9791    4.5094  -14.2966 C   0  0  0  0  0  0  0  0  0  0  0  0
   -8.0990    4.3343  -14.9966 N   0  0  0  0  0  0  0  0  0  0  0  0
   -8.0005    4.3680  -16.3241 C   0  0  0  0  0  0  0  0  0  0  0  0
   -9.1117    4.0278  -17.0818 C   0  0  0  0  0  0  0  0  0  0  0  0
   -9.0462    3.9526  -18.4719 C   0  0  0  0  0  0  0  0  0  0  0  0
   -7.8578    4.2578  -19.1229 C   0  0  0  0  0  0  0  0  0  0  0  0
   -6.7529    4.6618  -18.3911 C   0  0  0  0  0  0  0  0  0  0  0  0
   -6.8064    4.6830  -16.9815 C   0  0  0  0  0  0  0  0  0  0  0  0
   -3.3253    4.9508  -15.8768 C   0  0  0  0  0  0  0  0  0  0  0  0
   -4.4551    5.2596  -16.7327 N   0  0  0  0  0  0  0  0  0  0  0  0
   -4.3608    5.6518  -17.6308 H   0  0  0  0  0  0  0  0  0  0  0  0
   -6.9543    4.2615  -12.9400 N   0  0  0  0  0  0  0  0  0  0  0  0
   -6.1529    3.9050  -12.4929 H   0  0  0  0  0  0  0  0  0  0  0  0
   -8.1752    4.5544  -12.2043 C   0  0  0  0  0  0  0  0  0  0  0  0
   -8.5193    3.3209  -11.3505 C   0  0  0  0  0  0  0  0  0  0  0  0
   -8.1657    3.5127   -9.8768 C   0  0  0  0  0  0  0  0  0  0  0  0
   -6.8695    4.2988   -9.7017 C   0  0  0  0  0  0  0  0  0  0  0  0
   -6.8647    5.6268  -10.3260 N   0  0  0  0  0  0  0  0  0  0  0  0
   -7.9383    5.7988  -11.3147 C   0  0  0  0  0  0  0  0  0  0  0  0
   -5.9680    5.7637  -10.7924 H   0  0  0  0  0  0  0  0  0  0  0  0
 11 12  1  0  0  0
 12  1  1  0  0  0
  1  2  2  0  0  0
  2  3  1  0  0  0
  3 14  1  0  0  0
 16 14  1  0  0  0
 16 17  1  0  0  0
 17 18  1  0  0  0
 18 19  1  0  0  0
 19 20  1  0  0  0
 20 21  1  0  0  0
  3  4  2  0  0  0
  4  5  1  0  0  0
  5  6  2  0  0  0
  6  7  1  0  0  0
  7  8  2  0  0  0
  8  9  1  0  0  0
  9 10  2  0  0  0
 10  1  1  0  0  0
 21 16  1  0  0  0
 10  5  1  0  0  0
 12 13  1  0  0  0
 14 15  1  0  0  0
 20 22  1  0  0  0
M  END
> <minimizedAffinity>
-6.32850

> <minimizedRMSD>
0.83686

$$$$
P32800


 23 25  0  0  0  0  0  0  0  0999 V2000
   -6.9985    4.6972  -14.1198 C   0  0  0  0  0  0  0  0  0  0  0  0
   -5.8969    5.2105  -14.6800 N   0  0  0  0  0  0  0  0  0  0  0  0
   -5.8346    5.2659  -16.0173 C   0  0  0  0  0  0  0  0  0  0  0  0
   -6.8591    4.7862  -16.8412 C   0  0  0  0  0  0  0  0  0  0  0  0
   -6.8091    4.7112  -18.2562 C   0  0  0  0  0  0  0  0  0  0  0  0
   -7.8974    4.2416  -18.9764 C   0  0  0  0  0  0  0  0  0  0  0  0
   -9.0574    3.8857  -18.3062 C   0  0  0  0  0  0  0  0  0  0  0  0
   -9.0942    3.9400  -16.9114 C   0  0  0  0  0  0  0  0  0  0  0  0
   -7.9979    4.3531  -16.1636 C   0  0  0  0  0  0  0  0  0  0  0  0
   -8.0699    4.3191  -14.8299 N   0  0  0  0  0  0  0  0  0  0  0  0
   -8.2565    4.0919  -12.1766 C   0  0  0  0  0  0  0  0  0  0  0  0
   -6.9950    4.5520  -12.7299 N   0  0  0  0  0  0  0  0  0  0  0  0
   -6.3901    5.6995  -12.0805 C   0  0  0  0  0  0  0  0  0  0  0  0
   -4.6889    5.8547  -16.5686 N   0  0  0  0  0  0  0  0  0  0  0  0
   -4.6846    6.7594  -16.9569 H   0  0  0  0  0  0  0  0  0  0  0  0
   -3.5058    5.0091  -16.5158 C   0  0  0  0  0  0  0  0  0  0  0  0
   -2.4586    5.6038  -17.4776 C   0  0  0  0  0  0  0  0  0  0  0  0
   -2.2598    4.7047  -18.7117 C   0  0  0  0  0  0  0  0  0  0  0  0
   -1.0969    5.1967  -19.5698 C   0  0  0  0  0  0  0  0  0  0  0  0
    0.1599    5.4231  -18.7349 C   0  0  0  0  0  0  0  0  0  0  0  0
   -0.0852    6.3615  -17.6387 N   0  0  0  0  0  0  0  0  0  0  0  0
   -1.1358    5.8671  -16.7438 C   0  0  0  0  0  0  0  0  0  0  0  0
   -0.3742    7.2592  -18.0274 H   0  0  0  0  0  0  0  0  0  0  0  0
 11 12  1  0  0  0
 12 13  1  0  0  0
 12  1  1  0  0  0
  1  2  2  0  0  0
  2  3  1  0  0  0
  3 14  1  0  0  0
 14 16  1  0  0  0
 17 16  1  0  0  0
 17 18  1  0  0  0
 18 19  1  0  0  0
 19 20  1  0  0  0
 20 21  1  0  0  0
 21 22  1  0  0  0
  3  4  2  0  0  0
  4  5  1  0  0  0
  5  6  2  0  0  0
  6  7  1  0  0  0
  7  8  2  0  0  0
  8  9  1  0  0  0
  9 10  2  0  0  0
 10  1  1  0  0  0
 22 17  1  0  0  0
  9  4  1  0  0  0
 14 15  1  0  0  0
 21 23  1  0  0  0
M  END
> <minimizedAffinity>
-5.98358

> <minimizedRMSD>
1.09202

$$$$
P32801


 26 29  0  0  0  0  0  0  0  0999 V2000
   -7.5959    4.7841  -14.1601 C   0  0  0  0  0  0  0  0  0  0  0  0
   -6.4112    5.2848  -14.5332 N   0  0  0  0  0  0  0  0  0  0  0  0
   -6.1598    5.3127  -15.8484 C   0  0  0  0  0  0  0  0  0  0  0  0
   -7.0578    4.8171  -16.8084 C   0  0  0  0  0  0  0  0  0  0  0  0
   -6.8094    4.7456  -18.2008 C   0  0  0  0  0  0  0  0  0  0  0  0
   -7.7790    4.2619  -19.0679 C   0  0  0  0  0  0  0  0  0  0  0  0
   -9.0147    3.8793  -18.5676 C   0  0  0  0  0  0  0  0  0  0  0  0
   -9.2529    3.9341  -17.1938 C   0  0  0  0  0  0  0  0  0  0  0  0
   -8.2838    4.3740  -16.3020 C   0  0  0  0  0  0  0  0  0  0  0  0
   -8.5575    4.3629  -14.9960 N   0  0  0  0  0  0  0  0  0  0  0  0
   -8.4843    3.3957  -10.7723 C   0  0  0  0  0  0  0  0  0  0  0  0
   -8.3717    4.5548  -10.0278 C   0  0  0  0  0  0  0  0  0  0  0  0
   -8.0079    5.7490  -10.5453 N   0  0  0  0  0  0  0  0  0  0  0  0
   -7.7532    5.7745  -11.8800 C   0  0  0  0  0  0  0  0  0  0  0  0
   -7.8590    4.6786  -12.7312 C   0  0  0  0  0  0  0  0  0  0  0  0
   -8.2228    3.4661  -12.1366 C   0  0  0  0  0  0  0  0  0  0  0  0
   -4.9206    5.8563  -16.2226 N   0  0  0  0  0  0  0  0  0  0  0  0
   -4.7922    6.7946  -16.4912 H   0  0  0  0  0  0  0  0  0  0  0  0
   -3.8469    4.8743  -16.1680 C   0  0  0  0  0  0  0  0  0  0  0  0
   -2.8089    5.1485  -17.2682 C   0  0  0  0  0  0  0  0  0  0  0  0
   -3.1552    4.4328  -18.5870 C   0  0  0  0  0  0  0  0  0  0  0  0
   -2.4031    5.0236  -19.7818 C   0  0  0  0  0  0  0  0  0  0  0  0
   -1.1580    5.7909  -19.3525 C   0  0  0  0  0  0  0  0  0  0  0  0
   -1.4749    6.9087  -18.4651 N   0  0  0  0  0  0  0  0  0  0  0  0
   -2.5597    6.6434  -17.5107 C   0  0  0  0  0  0  0  0  0  0  0  0
   -1.7460    7.7054  -19.0414 H   0  0  0  0  0  0  0  0  0  0  0  0
 11 12  2  0  0  0
 12 13  1  0  0  0
 13 14  2  0  0  0
 14 15  1  0  0  0
 15  1  1  0  0  0
  1  2  2  0  0  0
  2  3  1  0  0  0
  3 17  1  0  0  0
 17 19  1  0  0  0
 20 19  1  0  0  0
 20 21  1  0  0  0
 21 22  1  0  0  0
 22 23  1  0  0  0
 23 24  1  0  0  0
 24 25  1  0  0  0
  3  4  2  0  0  0
  4  5  1  0  0  0
  5  6  2  0  0  0
  6  7  1  0  0  0
  7  8  2  0  0  0
  8  9  1  0  0  0
  9 10  2  0  0  0
 15 16  2  0  0  0
 16 11  1  0  0  0
 10  1  1  0  0  0
 25 20  1  0  0  0
  9  4  1  0  0  0
 17 18  1  0  0  0
 24 26  1  0  0  0
M  END
> <minimizedAffinity>
-7.02698

> <minimizedRMSD>
1.38582

$$$$
P32802


 23 26  0  0  0  0  0  0  0  0999 V2000
   -9.0544    3.8975  -18.6584 C   0  0  0  0  0  0  0  0  0  0  0  0
   -7.7773    4.1580  -19.1329 C   0  0  0  0  0  0  0  0  0  0  0  0
   -6.8155    4.6574  -18.2650 C   0  0  0  0  0  0  0  0  0  0  0  0
   -7.1165    4.8736  -16.8970 C   0  0  0  0  0  0  0  0  0  0  0  0
   -6.2305    5.3857  -15.9381 C   0  0  0  0  0  0  0  0  0  0  0  0
   -6.5491    5.4847  -14.6367 N   0  0  0  0  0  0  0  0  0  0  0  0
   -7.7962    5.1425  -14.2683 C   0  0  0  0  0  0  0  0  0  0  0  0
   -8.7369    4.7369  -15.1388 N   0  0  0  0  0  0  0  0  0  0  0  0
   -8.3930    4.5757  -16.4178 C   0  0  0  0  0  0  0  0  0  0  0  0
   -9.3479    4.1070  -17.3105 C   0  0  0  0  0  0  0  0  0  0  0  0
   -8.1938    5.2559  -12.8149 C   0  0  0  0  0  0  0  0  0  0  0  0
   -7.1981    5.0422  -11.6976 C   0  0  0  0  0  0  0  0  0  0  0  0
   -8.2351    4.0027  -11.9672 C   0  0  0  0  0  0  0  0  0  0  0  0
   -4.9493    5.8255  -16.2946 N   0  0  0  0  0  0  0  0  0  0  0  0
   -4.7652    6.7360  -16.6208 H   0  0  0  0  0  0  0  0  0  0  0  0
   -3.9159    4.8141  -16.1389 C   0  0  0  0  0  0  0  0  0  0  0  0
   -2.7137    5.1520  -17.0475 C   0  0  0  0  0  0  0  0  0  0  0  0
   -2.3973    6.6639  -17.0672 C   0  0  0  0  0  0  0  0  0  0  0  0
   -2.1296    7.1663  -18.4813 C   0  0  0  0  0  0  0  0  0  0  0  0
   -3.2650    6.7835  -19.4346 C   0  0  0  0  0  0  0  0  0  0  0  0
   -3.7607    5.4091  -19.2912 N   0  0  0  0  0  0  0  0  0  0  0  0
   -2.8855    4.5768  -18.4684 C   0  0  0  0  0  0  0  0  0  0  0  0
   -3.8328    4.9898  -20.2183 H   0  0  0  0  0  0  0  0  0  0  0  0
  1  2  2  0  0  0
  2  3  1  0  0  0
  3  4  2  0  0  0
  4  5  1  0  0  0
  5 14  1  0  0  0
 14 16  1  0  0  0
 17 16  1  0  0  0
 17 18  1  0  0  0
 18 19  1  0  0  0
 19 20  1  0  0  0
 20 21  1  0  0  0
 21 22  1  0  0  0
  5  6  2  0  0  0
  6  7  1  0  0  0
  7 11  1  0  0  0
 11 12  1  0  0  0
 12 13  1  0  0  0
  7  8  2  0  0  0
  8  9  1  0  0  0
  9 10  2  0  0  0
 10  1  1  0  0  0
  9  4  1  0  0  0
 22 17  1  0  0  0
 13 11  1  0  0  0
 14 15  1  0  0  0
 21 23  1  0  0  0
M  END
> <minimizedAffinity>
-6.14566

> <minimizedRMSD>
1.33056

$$$$
P32806


 18 20  0  0  0  0  0  0  0  0999 V2000
   -9.2145    4.0555  -17.5731 Br  0  0  0  0  0  0  0  0  0  0  0  0
   -7.3700    4.4600  -17.5884 C   0  0  0  0  0  0  0  0  0  0  0  0
   -6.7965    4.5781  -18.8570 C   0  0  0  0  0  0  0  0  0  0  0  0
   -5.4705    4.9556  -18.9919 C   0  0  0  0  0  0  0  0  0  0  0  0
   -4.7183    5.1977  -17.8568 C   0  0  0  0  0  0  0  0  0  0  0  0
   -5.2995    5.0368  -16.5881 C   0  0  0  0  0  0  0  0  0  0  0  0
   -4.5620    5.2390  -15.4412 C   0  0  0  0  0  0  0  0  0  0  0  0
   -5.0357    5.0473  -14.2048 N   0  0  0  0  0  0  0  0  0  0  0  0
   -6.3107    4.6309  -14.1074 C   0  0  0  0  0  0  0  0  0  0  0  0
   -7.1445    4.4945  -15.1577 N   0  0  0  0  0  0  0  0  0  0  0  0
   -6.6378    4.6590  -16.4079 C   0  0  0  0  0  0  0  0  0  0  0  0
   -6.7421    4.2309  -12.7173 C   0  0  0  0  0  0  0  0  0  0  0  0
   -8.2436    4.0240  -12.5379 C   0  0  0  0  0  0  0  0  0  0  0  0
   -8.5278    3.5326  -11.1208 C   0  0  0  0  0  0  0  0  0  0  0  0
   -7.8825    4.4256  -10.0636 C   0  0  0  0  0  0  0  0  0  0  0  0
   -6.4668    4.7089  -10.3053 N   0  0  0  0  0  0  0  0  0  0  0  0
   -6.2289    5.2167  -11.6636 C   0  0  0  0  0  0  0  0  0  0  0  0
   -5.9328    3.8494  -10.1773 H   0  0  0  0  0  0  0  0  0  0  0  0
  1  2  1  0  0  0
  2  3  2  0  0  0
  3  4  1  0  0  0
  4  5  2  0  0  0
  5  6  1  0  0  0
  6  7  2  0  0  0
  7  8  1  0  0  0
  8  9  2  0  0  0
 12  9  1  0  0  0
 12 13  1  0  0  0
 13 14  1  0  0  0
 14 15  1  0  0  0
 15 16  1  0  0  0
 16 17  1  0  0  0
  9 10  1  0  0  0
 10 11  2  0  0  0
 11  2  1  0  0  0
 11  6  1  0  0  0
 17 12  1  0  0  0
 16 18  1  0  0  0
M  END
> <minimizedAffinity>
-5.93024

> <minimizedRMSD>
0.68615

$$$$
P32807


 18 20  0  0  0  0  0  0  0  0999 V2000
   -9.9184    4.1478  -18.1762 Br  0  0  0  0  0  0  0  0  0  0  0  0
   -8.0681    4.3995  -17.9085 C   0  0  0  0  0  0  0  0  0  0  0  0
   -7.2976    4.4851  -19.0638 C   0  0  0  0  0  0  0  0  0  0  0  0
   -5.9522    4.7667  -18.9656 C   0  0  0  0  0  0  0  0  0  0  0  0
   -5.3939    4.9548  -17.7111 C   0  0  0  0  0  0  0  0  0  0  0  0
   -6.1686    4.8670  -16.5281 C   0  0  0  0  0  0  0  0  0  0  0  0
   -5.6906    5.0929  -15.2237 C   0  0  0  0  0  0  0  0  0  0  0  0
   -6.4639    4.9120  -14.1262 N   0  0  0  0  0  0  0  0  0  0  0  0
   -7.7326    4.5610  -14.3399 C   0  0  0  0  0  0  0  0  0  0  0  0
   -8.3106    4.4307  -15.5313 N   0  0  0  0  0  0  0  0  0  0  0  0
   -7.5340    4.5537  -16.6248 C   0  0  0  0  0  0  0  0  0  0  0  0
   -4.3287    5.6808  -14.9092 C   0  0  0  0  0  0  0  0  0  0  0  0
   -3.1279    4.8533  -15.3807 C   0  0  0  0  0  0  0  0  0  0  0  0
   -1.9266    5.7678  -15.5866 C   0  0  0  0  0  0  0  0  0  0  0  0
   -2.2336    6.8281  -16.6410 C   0  0  0  0  0  0  0  0  0  0  0  0
   -3.4567    7.5912  -16.4127 N   0  0  0  0  0  0  0  0  0  0  0  0
   -4.2338    7.1907  -15.2413 C   0  0  0  0  0  0  0  0  0  0  0  0
   -4.0508    7.4877  -17.2353 H   0  0  0  0  0  0  0  0  0  0  0  0
  1  2  1  0  0  0
  2  3  2  0  0  0
  3  4  1  0  0  0
  4  5  2  0  0  0
  5  6  1  0  0  0
  6  7  2  0  0  0
 12  7  1  0  0  0
 12 13  1  0  0  0
 13 14  1  0  0  0
 14 15  1  0  0  0
 15 16  1  0  0  0
 16 17  1  0  0  0
  7  8  1  0  0  0
  8  9  2  0  0  0
  9 10  1  0  0  0
 10 11  2  0  0  0
 11  2  1  0  0  0
 11  6  1  0  0  0
 17 12  1  0  0  0
 16 18  1  0  0  0
M  END
> <minimizedAffinity>
-5.45186

> <minimizedRMSD>
0.75150

$$$$
P32811


 21 23  0  0  0  0  0  0  0  0999 V2000
   -5.4985    4.9514  -19.0352 C   0  0  0  0  0  0  0  0  0  0  0  0
   -6.8067    4.6570  -18.3566 C   0  0  0  0  0  0  0  0  0  0  0  0
   -7.8383    4.1567  -19.1560 C   0  0  0  0  0  0  0  0  0  0  0  0
   -9.0767    3.8633  -18.6100 C   0  0  0  0  0  0  0  0  0  0  0  0
   -9.2766    4.0238  -17.2441 C   0  0  0  0  0  0  0  0  0  0  0  0
   -8.2689    4.4732  -16.4054 C   0  0  0  0  0  0  0  0  0  0  0  0
   -8.5617    4.5626  -15.1056 N   0  0  0  0  0  0  0  0  0  0  0  0
   -7.5813    4.9491  -14.2915 C   0  0  0  0  0  0  0  0  0  0  0  0
   -6.3627    5.3474  -14.6589 N   0  0  0  0  0  0  0  0  0  0  0  0
   -6.0990    5.3106  -15.9826 C   0  0  0  0  0  0  0  0  0  0  0  0
   -7.0182    4.8213  -16.9467 C   0  0  0  0  0  0  0  0  0  0  0  0
   -4.8915    5.9308  -16.4200 N   0  0  0  0  0  0  0  0  0  0  0  0
   -5.0470    7.3727  -16.1784 C   0  0  0  0  0  0  0  0  0  0  0  0
   -3.7181    5.3115  -15.7777 C   0  0  0  0  0  0  0  0  0  0  0  0
   -2.4090    5.9307  -16.3161 C   0  0  0  0  0  0  0  0  0  0  0  0
   -2.0780    5.4566  -17.7412 C   0  0  0  0  0  0  0  0  0  0  0  0
   -0.5880    5.5822  -18.0670 C   0  0  0  0  0  0  0  0  0  0  0  0
    0.0983    6.6290  -17.1997 C   0  0  0  0  0  0  0  0  0  0  0  0
    0.0095    6.3373  -15.7685 N   0  0  0  0  0  0  0  0  0  0  0  0
   -1.2356    5.6744  -15.3623 C   0  0  0  0  0  0  0  0  0  0  0  0
    0.0840    7.2173  -15.2581 H   0  0  0  0  0  0  0  0  0  0  0  0
  1  2  1  0  0  0
  2  3  2  0  0  0
  3  4  1  0  0  0
  4  5  2  0  0  0
  5  6  1  0  0  0
  6  7  2  0  0  0
  7  8  1  0  0  0
  8  9  2  0  0  0
  9 10  1  0  0  0
 10 12  1  0  0  0
 12 13  1  0  0  0
 12 14  1  0  0  0
 15 14  1  0  0  0
 15 16  1  0  0  0
 16 17  1  0  0  0
 17 18  1  0  0  0
 18 19  1  0  0  0
 19 20  1  0  0  0
 10 11  2  0  0  0
 11  2  1  0  0  0
 11  6  1  0  0  0
 20 15  1  0  0  0
 19 21  1  0  0  0
M  END
> <minimizedAffinity>
-5.95132

> <minimizedRMSD>
0.83646

$$$$
P32813


 24 26  0  0  0  0  0  0  0  0999 V2000
   -6.1456    4.9422  -15.7972 C   0  0  0  0  0  0  0  0  0  0  0  0
   -6.5894    4.8860  -14.5260 N   0  0  0  0  0  0  0  0  0  0  0  0
   -7.8763    4.5756  -14.3281 C   0  0  0  0  0  0  0  0  0  0  0  0
   -8.7566    4.3495  -15.2958 N   0  0  0  0  0  0  0  0  0  0  0  0
   -8.3135    4.3630  -16.5458 C   0  0  0  0  0  0  0  0  0  0  0  0
   -9.2180    4.0479  -17.5416 C   0  0  0  0  0  0  0  0  0  0  0  0
   -8.8313    4.0047  -18.8749 C   0  0  0  0  0  0  0  0  0  0  0  0
   -7.5286    4.3290  -19.2338 C   0  0  0  0  0  0  0  0  0  0  0  0
   -6.6127    4.6759  -18.2485 C   0  0  0  0  0  0  0  0  0  0  0  0
   -6.9912    4.6655  -16.8854 C   0  0  0  0  0  0  0  0  0  0  0  0
   -3.9273    4.3883  -15.2307 C   0  0  0  0  0  0  0  0  0  0  0  0
   -4.7733    5.2746  -16.0328 N   0  0  0  0  0  0  0  0  0  0  0  0
   -4.5325    6.6954  -15.7621 C   0  0  0  0  0  0  0  0  0  0  0  0
   -8.4143    4.4918  -13.0516 N   0  0  0  0  0  0  0  0  0  0  0  0
   -9.1377    5.0803  -12.7359 H   0  0  0  0  0  0  0  0  0  0  0  0
   -7.8175    3.4608  -12.2229 C   0  0  0  0  0  0  0  0  0  0  0  0
   -8.6380    3.2969  -10.9403 C   0  0  0  0  0  0  0  0  0  0  0  0
   -7.9342    3.7137   -9.6279 C   0  0  0  0  0  0  0  0  0  0  0  0
   -8.3007    5.1179   -9.1137 C   0  0  0  0  0  0  0  0  0  0  0  0
   -7.1944    6.1250   -9.3896 C   0  0  0  0  0  0  0  0  0  0  0  0
   -5.8745    5.6779   -8.7501 C   0  0  0  0  0  0  0  0  0  0  0  0
   -5.7084    4.2257   -8.6658 N   0  0  0  0  0  0  0  0  0  0  0  0
   -6.4051    3.5353   -9.7492 C   0  0  0  0  0  0  0  0  0  0  0  0
   -6.0824    3.9019   -7.7737 H   0  0  0  0  0  0  0  0  0  0  0  0
 11 12  1  0  0  0
 12 13  1  0  0  0
 12  1  1  0  0  0
  1  2  2  0  0  0
  2  3  1  0  0  0
  3 14  1  0  0  0
 14 16  1  0  0  0
 16 17  1  0  0  0
 18 17  1  0  0  0
 18 19  1  0  0  0
 19 20  1  0  0  0
 20 21  1  0  0  0
 21 22  1  0  0  0
 22 23  1  0  0  0
  3  4  2  0  0  0
  4  5  1  0  0  0
  5  6  2  0  0  0
  6  7  1  0  0  0
  7  8  2  0  0  0
  8  9  1  0  0  0
  9 10  2  0  0  0
 10  1  1  0  0  0
 23 18  1  0  0  0
 10  5  1  0  0  0
 14 15  1  0  0  0
 22 24  1  0  0  0
M  END
> <minimizedAffinity>
-6.46570

> <minimizedRMSD>
1.05349

$$$$
P32869


 20 22  0  0  0  0  0  0  0  0999 V2000
   -5.0758    5.5342  -15.2035 N   0  0  0  0  0  0  0  0  0  0  0  0
   -4.3762    4.9518  -14.8285 H   0  0  0  0  0  0  0  0  0  0  0  0
   -6.4465    5.2064  -15.1909 C   0  0  0  0  0  0  0  0  0  0  0  0
   -6.9986    5.2475  -13.9689 N   0  0  0  0  0  0  0  0  0  0  0  0
   -8.3165    5.0162  -13.9166 C   0  0  0  0  0  0  0  0  0  0  0  0
   -9.1231    4.7707  -14.9527 N   0  0  0  0  0  0  0  0  0  0  0  0
   -8.5468    4.6721  -16.1535 C   0  0  0  0  0  0  0  0  0  0  0  0
   -9.3384    4.3626  -17.2525 C   0  0  0  0  0  0  0  0  0  0  0  0
   -8.7985    4.2370  -18.5326 C   0  0  0  0  0  0  0  0  0  0  0  0
   -7.4357    4.4083  -18.7227 C   0  0  0  0  0  0  0  0  0  0  0  0
   -6.6299    4.7237  -17.6383 C   0  0  0  0  0  0  0  0  0  0  0  0
   -7.1750    4.8770  -16.3457 C   0  0  0  0  0  0  0  0  0  0  0  0
   -4.8972    7.9634  -14.7928 C   0  0  0  0  0  0  0  0  0  0  0  0
   -4.7924    6.8469  -15.8395 C   0  0  0  0  0  0  0  0  0  0  0  0
   -3.3737    6.8409  -16.4380 C   0  0  0  0  0  0  0  0  0  0  0  0
   -3.3414    6.1894  -17.7347 N   0  0  0  0  0  0  0  0  0  0  0  0
   -2.9293    4.9166  -17.9963 C   0  0  0  0  0  0  0  0  0  0  0  0
   -3.2204    4.6882  -19.3181 C   0  0  0  0  0  0  0  0  0  0  0  0
   -3.7735    5.8983  -19.7768 C   0  0  0  0  0  0  0  0  0  0  0  0
   -3.8269    6.8280  -18.8183 N   0  0  0  0  0  0  0  0  0  0  0  0
 14 13  1  0  0  0
 14 15  1  0  0  0
 15 16  1  0  0  0
 16 17  1  0  0  0
 17 18  2  0  0  0
 18 19  1  0  0  0
 19 20  2  0  0  0
 14  1  1  0  0  0
  1  3  1  0  0  0
  3  4  2  0  0  0
  4  5  1  0  0  0
  5  6  2  0  0  0
  6  7  1  0  0  0
  7  8  2  0  0  0
  8  9  1  0  0  0
  9 10  2  0  0  0
 10 11  1  0  0  0
 11 12  2  0  0  0
 20 16  1  0  0  0
 12  3  1  0  0  0
 12  7  1  0  0  0
  1  2  1  0  0  0
M  END
> <minimizedAffinity>
-5.54399

> <minimizedRMSD>
0.93610

$$$$
P32871


 23 25  0  0  0  0  0  0  0  0999 V2000
   -4.9558    5.3124  -14.6741 N   0  0  0  0  0  0  0  0  0  0  0  0
   -4.3045    4.5864  -14.8081 H   0  0  0  0  0  0  0  0  0  0  0  0
   -6.3256    5.0652  -14.7839 C   0  0  0  0  0  0  0  0  0  0  0  0
   -7.0359    5.1208  -13.6463 N   0  0  0  0  0  0  0  0  0  0  0  0
   -8.3533    4.9237  -13.7617 C   0  0  0  0  0  0  0  0  0  0  0  0
   -9.0314    4.7210  -14.8946 N   0  0  0  0  0  0  0  0  0  0  0  0
   -8.3169    4.6637  -16.0200 C   0  0  0  0  0  0  0  0  0  0  0  0
   -8.9871    4.4407  -17.2162 C   0  0  0  0  0  0  0  0  0  0  0  0
   -8.3165    4.3991  -18.4384 C   0  0  0  0  0  0  0  0  0  0  0  0
   -6.9422    4.5750  -18.4731 C   0  0  0  0  0  0  0  0  0  0  0  0
   -6.2499    4.7915  -17.2880 C   0  0  0  0  0  0  0  0  0  0  0  0
   -6.9264    4.8379  -16.0419 C   0  0  0  0  0  0  0  0  0  0  0  0
   -5.5032    7.7768  -14.7234 C   0  0  0  0  0  0  0  0  0  0  0  0
   -4.5004    6.6765  -14.3546 C   0  0  0  0  0  0  0  0  0  0  0  0
   -3.1145    6.9470  -15.0178 C   0  0  0  0  0  0  0  0  0  0  0  0
   -3.0468    6.6108  -16.4966 C   0  0  0  0  0  0  0  0  0  0  0  0
   -3.5545    7.4830  -17.4684 C   0  0  0  0  0  0  0  0  0  0  0  0
   -3.6700    7.0693  -18.7956 C   0  0  0  0  0  0  0  0  0  0  0  0
   -3.2454    5.7949  -19.1521 C   0  0  0  0  0  0  0  0  0  0  0  0
   -3.3795    5.3588  -20.4341 O   0  0  0  0  0  0  0  0  0  0  0  0
   -2.6591    4.9462  -18.2263 C   0  0  0  0  0  0  0  0  0  0  0  0
   -2.5579    5.3577  -16.9006 C   0  0  0  0  0  0  0  0  0  0  0  0
   -3.7726    5.9135  -21.0790 H   0  0  0  0  0  0  0  0  0  0  0  0
 14 13  1  0  0  0
 14 15  1  0  0  0
 15 16  1  0  0  0
 16 17  2  0  0  0
 17 18  1  0  0  0
 18 19  2  0  0  0
 19 20  1  0  0  0
 19 21  1  0  0  0
 21 22  2  0  0  0
 14  1  1  0  0  0
  1  3  1  0  0  0
  3  4  2  0  0  0
  4  5  1  0  0  0
  5  6  2  0  0  0
  6  7  1  0  0  0
  7  8  2  0  0  0
  8  9  1  0  0  0
  9 10  2  0  0  0
 10 11  1  0  0  0
 11 12  2  0  0  0
 22 16  1  0  0  0
 12  3  1  0  0  0
 12  7  1  0  0  0
 20 23  1  0  0  0
  1  2  1  0  0  0
M  END
> <minimizedAffinity>
-5.93871

> <minimizedRMSD>
1.12734

$$$$
P32879


 21 22  0  0  0  0  0  0  0  0999 V2000
   -6.1017    5.0553  -17.0884 C   0  0  0  0  0  0  0  0  0  0  0  0
   -7.2313    4.9088  -17.8603 C   0  0  0  0  0  0  0  0  0  0  0  0
   -8.3494    4.3404  -17.2815 C   0  0  0  0  0  0  0  0  0  0  0  0
   -8.3698    4.0016  -15.9731 N   0  0  0  0  0  0  0  0  0  0  0  0
   -7.2525    4.2391  -15.2566 C   0  0  0  0  0  0  0  0  0  0  0  0
   -6.1075    4.7470  -15.7779 N   0  0  0  0  0  0  0  0  0  0  0  0
   -7.3261    3.9000  -13.8135 C   0  0  0  0  0  0  0  0  0  0  0  0
   -6.6959    2.7534  -13.3205 C   0  0  0  0  0  0  0  0  0  0  0  0
   -6.8482    2.3949  -11.9823 C   0  0  0  0  0  0  0  0  0  0  0  0
   -7.6283    3.1888  -11.1574 C   0  0  0  0  0  0  0  0  0  0  0  0
   -8.2174    4.3144  -11.7076 C   0  0  0  0  0  0  0  0  0  0  0  0
   -8.0867    4.6907  -13.0036 N   0  0  0  0  0  0  0  0  0  0  0  0
   -9.5739    4.0955  -18.1482 C   0  0  0  0  0  0  0  0  0  0  0  0
   -9.2767    4.1087  -19.4808 F   0  0  0  0  0  0  0  0  0  0  0  0
  -10.1606    2.8863  -17.9184 F   0  0  0  0  0  0  0  0  0  0  0  0
  -10.5661    5.0029  -17.9819 F   0  0  0  0  0  0  0  0  0  0  0  0
   -4.9359    5.6378  -17.5964 N   0  0  0  0  0  0  0  0  0  0  0  0
   -4.5307    6.3988  -17.1211 H   0  0  0  0  0  0  0  0  0  0  0  0
   -3.0266    4.3777  -18.4223 C   0  0  0  0  0  0  0  0  0  0  0  0
   -4.2986    5.1335  -18.8339 C   0  0  0  0  0  0  0  0  0  0  0  0
   -3.8852    6.2221  -19.8198 C   0  0  0  0  0  0  0  0  0  0  0  0
 19 20  1  0  0  0
 20 21  1  0  0  0
 20 17  1  0  0  0
 17  1  1  0  0  0
  1  2  2  0  0  0
  2  3  1  0  0  0
  3 13  1  0  0  0
 13 14  1  0  0  0
 13 15  1  0  0  0
 13 16  1  0  0  0
  3  4  2  0  0  0
  4  5  1  0  0  0
  5  7  1  0  0  0
  7  8  2  0  0  0
  8  9  1  0  0  0
  9 10  2  0  0  0
 10 11  1  0  0  0
 11 12  2  0  0  0
  5  6  2  0  0  0
  6  1  1  0  0  0
 12  7  1  0  0  0
 17 18  1  0  0  0
M  END
> <minimizedAffinity>
-6.85433

> <minimizedRMSD>
1.15794

$$$$
P32889


 28 33  0  0  0  0  0  0  0  0999 V2000
   -7.9971    4.9662  -14.4166 C   0  0  0  0  0  0  0  0  0  0  0  0
   -9.1496    4.7362  -15.0146 N   0  0  0  0  0  0  0  0  0  0  0  0
   -8.8751    4.5855  -16.3341 C   0  0  0  0  0  0  0  0  0  0  0  0
   -9.7680    4.2766  -17.3682 C   0  0  0  0  0  0  0  0  0  0  0  0
   -9.2733    4.1371  -18.6605 C   0  0  0  0  0  0  0  0  0  0  0  0
   -7.9164    4.2873  -18.9133 C   0  0  0  0  0  0  0  0  0  0  0  0
   -7.0225    4.6010  -17.8923 C   0  0  0  0  0  0  0  0  0  0  0  0
   -7.5192    4.7656  -16.5924 C   0  0  0  0  0  0  0  0  0  0  0  0
   -6.9747    5.0748  -15.3542 N   0  0  0  0  0  0  0  0  0  0  0  0
   -8.0496    5.1405  -10.2328 C   0  0  0  0  0  0  0  0  0  0  0  0
   -8.0882    3.8980  -10.8457 C   0  0  0  0  0  0  0  0  0  0  0  0
   -8.0050    3.8369  -12.2297 C   0  0  0  0  0  0  0  0  0  0  0  0
   -7.8830    5.0165  -12.9596 C   0  0  0  0  0  0  0  0  0  0  0  0
   -7.8007    6.2384  -12.3866 N   0  0  0  0  0  0  0  0  0  0  0  0
   -7.9023    6.2648  -11.0349 C   0  0  0  0  0  0  0  0  0  0  0  0
   -5.5823    5.3544  -15.0065 C   0  0  0  0  0  0  0  0  0  0  0  0
   -4.6661    5.5070  -16.1739 C   0  0  0  0  0  0  0  0  0  0  0  0
   -4.6329    6.6620  -16.9354 N   0  0  0  0  0  0  0  0  0  0  0  0
   -3.9015    6.3157  -17.9695 C   0  0  0  0  0  0  0  0  0  0  0  0
   -3.5421    6.9248  -19.1869 C   0  0  0  0  0  0  0  0  0  0  0  0
   -2.8688    6.1750  -20.0801 C   0  0  0  0  0  0  0  0  0  0  0  0
   -2.4766    4.8628  -19.9247 N   0  0  0  0  0  0  0  0  0  0  0  0
   -2.7786    4.3109  -18.7794 C   0  0  0  0  0  0  0  0  0  0  0  0
   -3.4732    5.0242  -17.8106 N   0  0  0  0  0  0  0  0  0  0  0  0
   -3.8732    4.5119  -16.6257 N   0  0  0  0  0  0  0  0  0  0  0  0
   -2.5798    6.9309  -21.3367 C   0  0  0  0  0  0  0  0  0  0  0  0
   -2.8769    8.3744  -20.9252 C   0  0  0  0  0  0  0  0  0  0  0  0
   -3.8116    8.2935  -19.7159 C   0  0  0  0  0  0  0  0  0  0  0  0
 10 11  2  0  0  0
 11 12  1  0  0  0
 12 13  2  0  0  0
 13  1  1  0  0  0
  1  2  2  0  0  0
  2  3  1  0  0  0
  3  4  2  0  0  0
  4  5  1  0  0  0
  5  6  2  0  0  0
  6  7  1  0  0  0
  7  8  2  0  0  0
  8  9  1  0  0  0
  9 16  1  0  0  0
 16 17  1  0  0  0
 17 18  1  0  0  0
 18 19  2  0  0  0
 19 20  1  0  0  0
 20 21  2  0  0  0
 21 22  1  0  0  0
 22 23  2  0  0  0
 23 24  1  0  0  0
 24 25  1  0  0  0
 21 26  1  0  0  0
 26 27  1  0  0  0
 27 28  1  0  0  0
 13 14  1  0  0  0
 14 15  2  0  0  0
 15 10  1  0  0  0
  9  1  1  0  0  0
 25 17  2  0  0  0
  8  3  1  0  0  0
 24 19  1  0  0  0
 28 20  1  0  0  0
M  END
> <minimizedAffinity>
-7.54967

> <minimizedRMSD>
0.97056

$$$$
P32901


 23 26  0  0  0  0  0  0  0  0999 V2000
   -4.6583    5.3609  -15.6061 C   0  0  0  0  0  0  0  0  0  0  0  0
   -3.4145    4.4749  -15.3592 C   0  0  0  0  0  0  0  0  0  0  0  0
   -3.7590    3.1478  -14.6946 C   0  0  0  0  0  0  0  0  0  0  0  0
   -4.5741    3.3321  -13.4186 C   0  0  0  0  0  0  0  0  0  0  0  0
   -5.7403    4.1773  -13.6999 N   0  0  0  0  0  0  0  0  0  0  0  0
   -5.4071    5.5015  -14.2546 C   0  0  0  0  0  0  0  0  0  0  0  0
   -4.9545    5.0642  -18.1097 C   0  0  0  0  0  0  0  0  0  0  0  0
   -5.8918    4.7651  -18.9802 N   0  0  0  0  0  0  0  0  0  0  0  0
   -7.0316    4.5720  -18.2619 C   0  0  0  0  0  0  0  0  0  0  0  0
   -8.3313    4.3080  -18.7262 C   0  0  0  0  0  0  0  0  0  0  0  0
   -9.3756    4.1702  -17.8169 C   0  0  0  0  0  0  0  0  0  0  0  0
   -9.1188    4.2606  -16.4625 C   0  0  0  0  0  0  0  0  0  0  0  0
   -7.8374    4.5263  -15.9851 C   0  0  0  0  0  0  0  0  0  0  0  0
   -6.7862    4.6920  -16.8952 C   0  0  0  0  0  0  0  0  0  0  0  0
   -5.4342    4.9874  -16.7990 N   0  0  0  0  0  0  0  0  0  0  0  0
   -2.7501    4.3512  -19.0563 C   0  0  0  0  0  0  0  0  0  0  0  0
   -3.5916    5.5012  -18.5359 C   0  0  0  0  0  0  0  0  0  0  0  0
   -6.5957    4.2257  -12.5770 C   0  0  0  0  0  0  0  0  0  0  0  0
   -7.5197    3.1904  -12.4023 C   0  0  0  0  0  0  0  0  0  0  0  0
   -8.3138    3.1571  -11.2629 C   0  0  0  0  0  0  0  0  0  0  0  0
   -8.1720    4.1618  -10.3226 C   0  0  0  0  0  0  0  0  0  0  0  0
   -7.2819    5.1854  -10.5926 C   0  0  0  0  0  0  0  0  0  0  0  0
   -6.5046    5.2466  -11.6986 N   0  0  0  0  0  0  0  0  0  0  0  0
 16 17  1  0  0  0
 17  7  1  0  0  0
  7  8  2  0  0  0
  8  9  1  0  0  0
  9 10  2  0  0  0
 10 11  1  0  0  0
 11 12  2  0  0  0
 12 13  1  0  0  0
 13 14  2  0  0  0
 14 15  1  0  0  0
  1 15  1  0  0  0
  1  2  1  0  0  0
  2  3  1  0  0  0
  3  4  1  0  0  0
  4  5  1  0  0  0
  5 18  1  0  0  0
 18 19  2  0  0  0
 19 20  1  0  0  0
 20 21  2  0  0  0
 21 22  1  0  0  0
 22 23  2  0  0  0
  5  6  1  0  0  0
 15  7  1  0  0  0
  6  1  1  0  0  0
 14  9  1  0  0  0
 23 18  1  0  0  0
M  END
> <minimizedAffinity>
-7.30566

> <minimizedRMSD>
0.46838

$$$$
P32992


 25 28  0  0  0  0  0  0  0  0999 V2000
   -6.2959    3.6037  -13.8353 O   0  0  0  0  0  0  0  0  0  0  0  0
   -6.8125    4.6004  -14.1551 C   0  0  0  0  0  0  0  0  0  0  0  0
   -7.0356    5.9141  -13.3642 N   0  0  0  0  0  0  0  0  0  0  0  0
   -7.5720    6.5925  -13.8345 H   0  0  0  0  0  0  0  0  0  0  0  0
   -7.2864    4.6891  -15.5839 C   0  0  0  0  0  0  0  0  0  0  0  0
   -8.6266    4.3912  -15.8770 C   0  0  0  0  0  0  0  0  0  0  0  0
   -9.0488    4.3199  -17.2028 C   0  0  0  0  0  0  0  0  0  0  0  0
   -8.1396    4.5216  -18.2363 C   0  0  0  0  0  0  0  0  0  0  0  0
   -6.8025    4.8290  -17.9549 C   0  0  0  0  0  0  0  0  0  0  0  0
   -5.8967    5.0193  -19.0095 C   0  0  0  0  0  0  0  0  0  0  0  0
   -4.5709    5.3203  -18.7422 C   0  0  0  0  0  0  0  0  0  0  0  0
   -4.2031    5.4464  -17.4216 C   0  0  0  0  0  0  0  0  0  0  0  0
   -5.0537    5.2859  -16.3847 N   0  0  0  0  0  0  0  0  0  0  0  0
   -6.3469    4.9405  -16.6168 C   0  0  0  0  0  0  0  0  0  0  0  0
   -6.5858    6.3034  -12.0531 C   0  0  0  0  0  0  0  0  0  0  0  0
   -7.5061    6.0490  -10.9121 C   0  0  0  0  0  0  0  0  0  0  0  0
   -8.0401    7.0289  -10.0311 C   0  0  0  0  0  0  0  0  0  0  0  0
   -8.5641    6.5126   -8.9161 N   0  0  0  0  0  0  0  0  0  0  0  0
   -8.3702    5.1922   -9.0754 N   0  0  0  0  0  0  0  0  0  0  0  0
   -7.8475    4.8572  -10.2958 C   0  0  0  0  0  0  0  0  0  0  0  0
   -7.6587    3.4328  -10.6490 C   0  0  0  0  0  0  0  0  0  0  0  0
   -7.4873    2.6127   -9.4512 N   0  0  0  0  0  0  0  0  0  0  0  0
   -8.5563    2.8350   -8.4743 C   0  0  0  0  0  0  0  0  0  0  0  0
   -8.5305    4.2697   -7.9647 C   0  0  0  0  0  0  0  0  0  0  0  0
   -6.5930    2.8447   -9.0189 H   0  0  0  0  0  0  0  0  0  0  0  0
  1  2  2  0  0  0
  2  3  1  0  0  0
  3 15  1  0  0  0
 15 16  1  0  0  0
 16 17  1  0  0  0
 17 18  2  0  0  0
 18 19  1  0  0  0
 19 20  1  0  0  0
 20 21  1  0  0  0
 21 22  1  0  0  0
 22 23  1  0  0  0
 23 24  1  0  0  0
  2  5  1  0  0  0
  5  6  2  0  0  0
  6  7  1  0  0  0
  7  8  2  0  0  0
  8  9  1  0  0  0
  9 10  2  0  0  0
 10 11  1  0  0  0
 11 12  2  0  0  0
 12 13  1  0  0  0
 13 14  2  0  0  0
 20 16  2  0  0  0
 14  5  1  0  0  0
 24 19  1  0  0  0
 14  9  1  0  0  0
  3  4  1  0  0  0
 22 25  1  0  0  0
M  END
> <minimizedAffinity>
-7.49041

> <minimizedRMSD>
0.78544

$$$$
P33055


 25 27  0  0  0  0  0  0  0  0999 V2000
   -3.3420    3.6098  -15.9690 O   0  0  0  0  0  0  0  0  0  0  0  0
   -3.4319    4.7053  -15.5744 C   0  0  0  0  0  0  0  0  0  0  0  0
   -2.9168    5.3466  -14.2500 N   0  0  0  0  0  0  0  0  0  0  0  0
   -3.0528    6.3193  -14.1825 H   0  0  0  0  0  0  0  0  0  0  0  0
   -4.1688    5.8227  -16.3189 C   0  0  0  0  0  0  0  0  0  0  0  0
   -5.1808    5.3099  -17.2869 C   0  0  0  0  0  0  0  0  0  0  0  0
   -4.8857    5.2819  -18.5935 N   0  0  0  0  0  0  0  0  0  0  0  0
   -6.0132    4.8074  -19.1657 N   0  0  0  0  0  0  0  0  0  0  0  0
   -7.0490    4.6218  -18.2877 C   0  0  0  0  0  0  0  0  0  0  0  0
   -8.3791    4.2406  -18.4946 C   0  0  0  0  0  0  0  0  0  0  0  0
   -9.2109    4.1856  -17.3758 C   0  0  0  0  0  0  0  0  0  0  0  0
   -8.7185    4.4674  -16.1028 C   0  0  0  0  0  0  0  0  0  0  0  0
   -7.3813    4.8450  -15.9176 C   0  0  0  0  0  0  0  0  0  0  0  0
   -6.5317    4.9290  -17.0367 C   0  0  0  0  0  0  0  0  0  0  0  0
   -6.0847    4.6122  -20.1280 H   0  0  0  0  0  0  0  0  0  0  0  0
   -2.2724    4.7450  -13.1067 C   0  0  0  0  0  0  0  0  0  0  0  0
   -3.1453    3.6256  -12.5568 C   0  0  0  0  0  0  0  0  0  0  0  0
   -2.5011    2.7575  -11.4847 C   0  0  0  0  0  0  0  0  0  0  0  0
   -3.6689    2.3185  -10.5906 C   0  0  0  0  0  0  0  0  0  0  0  0
   -4.8857    2.9847  -11.1056 N   0  0  0  0  0  0  0  0  0  0  0  0
   -4.3847    4.1437  -11.8463 C   0  0  0  0  0  0  0  0  0  0  0  0
   -5.6633    2.0342  -11.9363 C   0  0  0  0  0  0  0  0  0  0  0  0
   -7.0228    2.5536  -12.4273 C   0  0  0  0  0  0  0  0  0  0  0  0
   -7.3201    2.0114  -13.7072 O   0  0  0  0  0  0  0  0  0  0  0  0
   -6.6345    2.2793  -14.3390 H   0  0  0  0  0  0  0  0  0  0  0  0
  1  2  2  0  0  0
  2  5  1  0  0  0
  5  6  1  0  0  0
  6  7  2  0  0  0
  7  8  1  0  0  0
  8  9  1  0  0  0
  9 10  2  0  0  0
 10 11  1  0  0  0
 11 12  2  0  0  0
 12 13  1  0  0  0
 13 14  2  0  0  0
  2  3  1  0  0  0
  3 16  1  0  0  0
 17 16  1  0  0  0
 17 18  1  0  0  0
 18 19  1  0  0  0
 19 20  1  0  0  0
 20 22  1  0  0  0
 22 23  1  0  0  0
 23 24  1  0  0  0
 20 21  1  0  0  0
 14  6  1  0  0  0
 21 17  1  0  0  0
 14  9  1  0  0  0
  8 15  1  0  0  0
  3  4  1  0  0  0
 24 25  1  0  0  0
M  END
> <minimizedAffinity>
-5.83422

> <minimizedRMSD>
0.82491

$$$$
P33057


 24 26  0  0  0  0  0  0  0  0999 V2000
   -5.3078    5.0902  -13.2602 N   0  0  0  0  0  0  0  0  0  0  0  0
   -4.5645    4.4589  -14.4789 C   0  0  0  0  0  0  0  0  0  0  0  0
   -4.0187    3.4285  -14.5830 O   0  0  0  0  0  0  0  0  0  0  0  0
   -5.7555    5.9466  -13.4487 H   0  0  0  0  0  0  0  0  0  0  0  0
   -5.4458    4.6205  -11.8971 C   0  0  0  0  0  0  0  0  0  0  0  0
   -6.3977    3.4032  -11.6909 C   0  0  0  0  0  0  0  0  0  0  0  0
   -7.2209    3.5632  -10.4133 C   0  0  0  0  0  0  0  0  0  0  0  0
   -8.3582    4.4848  -10.8145 C   0  0  0  0  0  0  0  0  0  0  0  0
   -8.4815    4.4258  -12.2420 O   0  0  0  0  0  0  0  0  0  0  0  0
   -7.5451    3.4446  -12.7091 C   0  0  0  0  0  0  0  0  0  0  0  0
   -5.8096    2.0992  -11.7456 O   0  0  0  0  0  0  0  0  0  0  0  0
   -4.3490    0.9342  -10.1117 C   0  0  0  0  0  0  0  0  0  0  0  0
   -4.4944    1.9024  -11.2642 C   0  0  0  0  0  0  0  0  0  0  0  0
   -4.6043    5.4760  -15.6155 C   0  0  0  0  0  0  0  0  0  0  0  0
   -5.3613    5.0267  -16.8190 C   0  0  0  0  0  0  0  0  0  0  0  0
   -4.7373    5.0289  -18.0080 N   0  0  0  0  0  0  0  0  0  0  0  0
   -5.7110    4.7104  -18.8883 N   0  0  0  0  0  0  0  0  0  0  0  0
   -6.9478    4.5701  -18.3181 C   0  0  0  0  0  0  0  0  0  0  0  0
   -8.2072    4.3397  -18.8833 C   0  0  0  0  0  0  0  0  0  0  0  0
   -9.3037    4.2912  -18.0255 C   0  0  0  0  0  0  0  0  0  0  0  0
   -9.1303    4.4050  -16.6523 C   0  0  0  0  0  0  0  0  0  0  0  0
   -7.8618    4.6157  -16.1053 C   0  0  0  0  0  0  0  0  0  0  0  0
   -6.7479    4.7289  -16.9536 C   0  0  0  0  0  0  0  0  0  0  0  0
   -5.5465    4.5902  -19.8515 H   0  0  0  0  0  0  0  0  0  0  0  0
 12 13  1  0  0  0
 13 11  1  0  0  0
 11  6  1  0  0  0
  6  5  1  0  0  0
  5  1  1  0  0  0
  1  2  1  0  0  0
  2  3  2  0  0  0
  2 14  1  0  0  0
 14 15  1  0  0  0
 15 16  2  0  0  0
 16 17  1  0  0  0
 17 18  1  0  0  0
 18 19  2  0  0  0
 19 20  1  0  0  0
 20 21  2  0  0  0
 21 22  1  0  0  0
 22 23  2  0  0  0
  6  7  1  0  0  0
  7  8  1  0  0  0
  8  9  1  0  0  0
  9 10  1  0  0  0
 10  6  1  0  0  0
 23 15  1  0  0  0
 23 18  1  0  0  0
  1  4  1  0  0  0
 17 24  1  0  0  0
M  END
> <minimizedAffinity>
-5.77687

> <minimizedRMSD>
1.46172

$$$$
P33058


 26 28  0  0  0  0  0  0  0  0999 V2000
   -2.3171    4.9054  -17.4440 O   0  0  0  0  0  0  0  0  0  0  0  0
   -2.9412    5.0603  -16.4667 C   0  0  0  0  0  0  0  0  0  0  0  0
   -2.5533    4.8235  -14.9680 N   0  0  0  0  0  0  0  0  0  0  0  0
   -3.2876    4.9566  -14.3258 H   0  0  0  0  0  0  0  0  0  0  0  0
   -4.3491    5.6692  -16.4173 C   0  0  0  0  0  0  0  0  0  0  0  0
   -5.3166    5.1751  -17.4449 C   0  0  0  0  0  0  0  0  0  0  0  0
   -5.0215    5.1915  -18.7548 N   0  0  0  0  0  0  0  0  0  0  0  0
   -6.1547    4.7487  -19.3483 N   0  0  0  0  0  0  0  0  0  0  0  0
   -7.1946    4.5468  -18.4789 C   0  0  0  0  0  0  0  0  0  0  0  0
   -8.5290    4.1806  -18.6878 C   0  0  0  0  0  0  0  0  0  0  0  0
   -9.3629    4.1196  -17.5706 C   0  0  0  0  0  0  0  0  0  0  0  0
   -8.8686    4.3848  -16.2967 C   0  0  0  0  0  0  0  0  0  0  0  0
   -7.5320    4.7462  -16.1082 C   0  0  0  0  0  0  0  0  0  0  0  0
   -6.6775    4.8203  -17.2213 C   0  0  0  0  0  0  0  0  0  0  0  0
   -6.2253    4.5864  -20.3167 H   0  0  0  0  0  0  0  0  0  0  0  0
   -1.2947    4.4422  -14.3766 C   0  0  0  0  0  0  0  0  0  0  0  0
   -1.3637    3.6325  -13.0651 C   0  0  0  0  0  0  0  0  0  0  0  0
   -1.7195    2.1622  -13.2880 C   0  0  0  0  0  0  0  0  0  0  0  0
   -3.2036    1.9521  -13.5913 C   0  0  0  0  0  0  0  0  0  0  0  0
   -4.0946    2.8107  -12.7839 N   0  0  0  0  0  0  0  0  0  0  0  0
   -3.4412    3.3212  -11.5828 C   0  0  0  0  0  0  0  0  0  0  0  0
   -2.2772    4.2429  -11.9834 C   0  0  0  0  0  0  0  0  0  0  0  0
   -5.3499    2.0976  -12.4882 C   0  0  0  0  0  0  0  0  0  0  0  0
   -6.5459    2.8909  -13.0155 C   0  0  0  0  0  0  0  0  0  0  0  0
   -7.4737    2.0449  -13.6785 O   0  0  0  0  0  0  0  0  0  0  0  0
   -7.0406    1.6208  -14.4358 H   0  0  0  0  0  0  0  0  0  0  0  0
  1  2  2  0  0  0
  2  5  1  0  0  0
  5  6  1  0  0  0
  6  7  2  0  0  0
  7  8  1  0  0  0
  8  9  1  0  0  0
  9 10  2  0  0  0
 10 11  1  0  0  0
 11 12  2  0  0  0
 12 13  1  0  0  0
 13 14  2  0  0  0
  2  3  1  0  0  0
  3 16  1  0  0  0
 16 17  1  0  0  0
 17 18  1  0  0  0
 18 19  1  0  0  0
 19 20  1  0  0  0
 20 23  1  0  0  0
 23 24  1  0  0  0
 24 25  1  0  0  0
 20 21  1  0  0  0
 21 22  1  0  0  0
 14  6  1  0  0  0
 22 17  1  0  0  0
 14  9  1  0  0  0
  8 15  1  0  0  0
  3  4  1  0  0  0
 25 26  1  0  0  0
M  END
> <minimizedAffinity>
-6.18193

> <minimizedRMSD>
0.59749

$$$$
P33059


 26 28  0  0  0  0  0  0  0  0999 V2000
   -2.2082    4.9306  -17.3639 O   0  0  0  0  0  0  0  0  0  0  0  0
   -2.9661    5.2033  -16.5176 C   0  0  0  0  0  0  0  0  0  0  0  0
   -3.0137    4.7586  -15.0219 N   0  0  0  0  0  0  0  0  0  0  0  0
   -3.7170    5.1907  -14.4852 H   0  0  0  0  0  0  0  0  0  0  0  0
   -4.1953    6.0924  -16.7143 C   0  0  0  0  0  0  0  0  0  0  0  0
   -5.2699    5.4540  -17.5256 C   0  0  0  0  0  0  0  0  0  0  0  0
   -5.1176    5.3486  -18.8529 N   0  0  0  0  0  0  0  0  0  0  0  0
   -6.2783    4.7947  -19.2638 N   0  0  0  0  0  0  0  0  0  0  0  0
   -7.2048    4.6353  -18.2668 C   0  0  0  0  0  0  0  0  0  0  0  0
   -8.5359    4.2072  -18.3020 C   0  0  0  0  0  0  0  0  0  0  0  0
   -9.2368    4.1985  -17.0957 C   0  0  0  0  0  0  0  0  0  0  0  0
   -8.6157    4.5654  -15.9031 C   0  0  0  0  0  0  0  0  0  0  0  0
   -7.2799    4.9894  -15.8900 C   0  0  0  0  0  0  0  0  0  0  0  0
   -6.5647    5.0342  -17.1016 C   0  0  0  0  0  0  0  0  0  0  0  0
   -6.4444    4.5290  -20.1971 H   0  0  0  0  0  0  0  0  0  0  0  0
   -2.1943    3.8174  -14.2991 C   0  0  0  0  0  0  0  0  0  0  0  0
   -2.7524    3.5467  -12.8947 C   0  0  0  0  0  0  0  0  0  0  0  0
   -1.7559    2.7354  -12.0596 C   0  0  0  0  0  0  0  0  0  0  0  0
   -2.3537    2.3913  -10.6981 C   0  0  0  0  0  0  0  0  0  0  0  0
   -3.7218    1.7202  -10.8361 C   0  0  0  0  0  0  0  0  0  0  0  0
   -4.6459    2.5623  -11.6146 N   0  0  0  0  0  0  0  0  0  0  0  0
   -4.1052    2.8167  -12.9569 C   0  0  0  0  0  0  0  0  0  0  0  0
   -5.9613    1.8874  -11.7030 C   0  0  0  0  0  0  0  0  0  0  0  0
   -7.0273    2.6717  -12.4816 C   0  0  0  0  0  0  0  0  0  0  0  0
   -7.3546    1.9816  -13.6834 O   0  0  0  0  0  0  0  0  0  0  0  0
   -6.5600    1.8943  -14.2328 H   0  0  0  0  0  0  0  0  0  0  0  0
  1  2  2  0  0  0
  2  5  1  0  0  0
  5  6  1  0  0  0
  6  7  2  0  0  0
  7  8  1  0  0  0
  8  9  1  0  0  0
  9 10  2  0  0  0
 10 11  1  0  0  0
 11 12  2  0  0  0
 12 13  1  0  0  0
 13 14  2  0  0  0
  2  3  1  0  0  0
  3 16  1  0  0  0
 17 16  1  0  0  0
 17 18  1  0  0  0
 18 19  1  0  0  0
 19 20  1  0  0  0
 20 21  1  0  0  0
 21 23  1  0  0  0
 23 24  1  0  0  0
 24 25  1  0  0  0
 21 22  1  0  0  0
 14  6  1  0  0  0
 22 17  1  0  0  0
 14  9  1  0  0  0
  8 15  1  0  0  0
  3  4  1  0  0  0
 25 26  1  0  0  0
M  END
> <minimizedAffinity>
-6.03871

> <minimizedRMSD>
1.01251

$$$$
P33060


 26 28  0  0  0  0  0  0  0  0999 V2000
   -3.6928    3.1852  -15.5036 O   0  0  0  0  0  0  0  0  0  0  0  0
   -3.5786    4.3187  -15.2483 C   0  0  0  0  0  0  0  0  0  0  0  0
   -2.9438    5.0150  -14.0050 N   0  0  0  0  0  0  0  0  0  0  0  0
   -3.0387    5.9948  -13.9876 H   0  0  0  0  0  0  0  0  0  0  0  0
   -4.0788    5.4615  -16.1351 C   0  0  0  0  0  0  0  0  0  0  0  0
   -5.0814    5.0546  -17.1604 C   0  0  0  0  0  0  0  0  0  0  0  0
   -4.7663    5.1207  -18.4646 N   0  0  0  0  0  0  0  0  0  0  0  0
   -5.9171    4.7934  -19.0832 N   0  0  0  0  0  0  0  0  0  0  0  0
   -6.9673    4.5656  -18.2397 C   0  0  0  0  0  0  0  0  0  0  0  0
   -8.3080    4.2810  -18.5055 C   0  0  0  0  0  0  0  0  0  0  0  0
   -9.1597    4.1788  -17.4075 C   0  0  0  0  0  0  0  0  0  0  0  0
   -8.6801    4.3313  -16.1068 C   0  0  0  0  0  0  0  0  0  0  0  0
   -7.3303    4.6181  -15.8680 C   0  0  0  0  0  0  0  0  0  0  0  0
   -6.4557    4.7338  -16.9622 C   0  0  0  0  0  0  0  0  0  0  0  0
   -5.9950    4.7240  -20.0622 H   0  0  0  0  0  0  0  0  0  0  0  0
   -2.2407    4.4560  -12.8772 C   0  0  0  0  0  0  0  0  0  0  0  0
   -2.9822    3.3109  -12.1713 C   0  0  0  0  0  0  0  0  0  0  0  0
   -2.0516    2.6464  -11.1347 C   0  0  0  0  0  0  0  0  0  0  0  0
   -2.7677    2.2992   -9.8293 C   0  0  0  0  0  0  0  0  0  0  0  0
   -4.1701    1.7658  -10.1031 C   0  0  0  0  0  0  0  0  0  0  0  0
   -5.0256    2.7169  -10.8391 N   0  0  0  0  0  0  0  0  0  0  0  0
   -4.2846    3.7842  -11.5144 C   0  0  0  0  0  0  0  0  0  0  0  0
   -5.9361    1.9468  -11.7143 C   0  0  0  0  0  0  0  0  0  0  0  0
   -6.6033    2.7233  -12.8544 C   0  0  0  0  0  0  0  0  0  0  0  0
   -7.3203    1.8230  -13.6961 O   0  0  0  0  0  0  0  0  0  0  0  0
   -6.7064    1.1716  -14.0700 H   0  0  0  0  0  0  0  0  0  0  0  0
  1  2  2  0  0  0
  2  5  1  0  0  0
  5  6  1  0  0  0
  6  7  2  0  0  0
  7  8  1  0  0  0
  8  9  1  0  0  0
  9 10  2  0  0  0
 10 11  1  0  0  0
 11 12  2  0  0  0
 12 13  1  0  0  0
 13 14  2  0  0  0
  2  3  1  0  0  0
  3 16  1  0  0  0
 17 16  1  0  0  0
 17 18  1  0  0  0
 18 19  1  0  0  0
 19 20  1  0  0  0
 20 21  1  0  0  0
 21 23  1  0  0  0
 23 24  1  0  0  0
 24 25  1  0  0  0
 21 22  1  0  0  0
 14  6  1  0  0  0
 22 17  1  0  0  0
 14  9  1  0  0  0
  8 15  1  0  0  0
  3  4  1  0  0  0
 25 26  1  0  0  0
M  END
> <minimizedAffinity>
-6.24754

> <minimizedRMSD>
1.02744

$$$$
P33061


 25 27  0  0  0  0  0  0  0  0999 V2000
   -4.3484    6.3265  -14.6031 N   0  0  0  0  0  0  0  0  0  0  0  0
   -3.8401    5.0499  -15.3438 C   0  0  0  0  0  0  0  0  0  0  0  0
   -3.4374    4.0367  -14.9182 O   0  0  0  0  0  0  0  0  0  0  0  0
   -4.5659    7.0855  -15.1913 H   0  0  0  0  0  0  0  0  0  0  0  0
   -4.5512    6.5746  -13.1959 C   0  0  0  0  0  0  0  0  0  0  0  0
   -6.9577    3.9719  -11.8360 C   0  0  0  0  0  0  0  0  0  0  0  0
   -8.1693    4.6564  -11.8748 C   0  0  0  0  0  0  0  0  0  0  0  0
   -8.2178    5.9786  -12.3256 C   0  0  0  0  0  0  0  0  0  0  0  0
   -7.0550    6.6204  -12.7592 C   0  0  0  0  0  0  0  0  0  0  0  0
   -5.8290    5.9523  -12.7078 C   0  0  0  0  0  0  0  0  0  0  0  0
   -5.7943    4.6436  -12.2043 C   0  0  0  0  0  0  0  0  0  0  0  0
   -7.0161    2.6649  -11.4376 O   0  0  0  0  0  0  0  0  0  0  0  0
   -5.2930    1.3448  -10.3493 C   0  0  0  0  0  0  0  0  0  0  0  0
   -5.8515    1.8768  -11.6569 C   0  0  0  0  0  0  0  0  0  0  0  0
   -3.8398    5.3559  -16.8369 C   0  0  0  0  0  0  0  0  0  0  0  0
   -5.0628    4.9427  -17.5852 C   0  0  0  0  0  0  0  0  0  0  0  0
   -4.9818    4.9222  -18.9255 N   0  0  0  0  0  0  0  0  0  0  0  0
   -6.2477    4.6909  -19.3275 N   0  0  0  0  0  0  0  0  0  0  0  0
   -7.1476    4.5981  -18.3010 C   0  0  0  0  0  0  0  0  0  0  0  0
   -8.5404    4.4627  -18.3087 C   0  0  0  0  0  0  0  0  0  0  0  0
   -9.1888    4.4241  -17.0751 C   0  0  0  0  0  0  0  0  0  0  0  0
   -8.4648    4.4838  -15.8884 C   0  0  0  0  0  0  0  0  0  0  0  0
   -7.0740    4.6480  -15.9062 C   0  0  0  0  0  0  0  0  0  0  0  0
   -6.3971    4.7125  -17.1368 C   0  0  0  0  0  0  0  0  0  0  0  0
   -6.5016    4.5973  -20.2741 H   0  0  0  0  0  0  0  0  0  0  0  0
 13 14  1  0  0  0
 14 12  1  0  0  0
 12  6  1  0  0  0
  6  7  2  0  0  0
  7  8  1  0  0  0
  8  9  2  0  0  0
  9 10  1  0  0  0
 10  5  1  0  0  0
  5  1  1  0  0  0
  1  2  1  0  0  0
  2  3  2  0  0  0
  2 15  1  0  0  0
 15 16  1  0  0  0
 16 17  2  0  0  0
 17 18  1  0  0  0
 18 19  1  0  0  0
 19 20  2  0  0  0
 20 21  1  0  0  0
 21 22  2  0  0  0
 22 23  1  0  0  0
 23 24  2  0  0  0
 10 11  2  0  0  0
 11  6  1  0  0  0
 24 16  1  0  0  0
 24 19  1  0  0  0
  1  4  1  0  0  0
 18 25  1  0  0  0
M  END
> <minimizedAffinity>
-5.78843

> <minimizedRMSD>
1.06980

$$$$
P33062


 25 27  0  0  0  0  0  0  0  0999 V2000
   -2.3938    4.7581  -16.1943 O   0  0  0  0  0  0  0  0  0  0  0  0
   -3.4036    5.1885  -15.7893 C   0  0  0  0  0  0  0  0  0  0  0  0
   -4.0597    5.0688  -14.3773 N   0  0  0  0  0  0  0  0  0  0  0  0
   -4.9604    5.4599  -14.3065 H   0  0  0  0  0  0  0  0  0  0  0  0
   -4.2914    6.1165  -16.6239 C   0  0  0  0  0  0  0  0  0  0  0  0
   -5.3013    5.4244  -17.4767 C   0  0  0  0  0  0  0  0  0  0  0  0
   -5.0855    5.3110  -18.7973 N   0  0  0  0  0  0  0  0  0  0  0  0
   -6.2333    4.7791  -19.2730 N   0  0  0  0  0  0  0  0  0  0  0  0
   -7.2006    4.6095  -18.3180 C   0  0  0  0  0  0  0  0  0  0  0  0
   -8.5277    4.1764  -18.4133 C   0  0  0  0  0  0  0  0  0  0  0  0
   -9.2786    4.1417  -17.2393 C   0  0  0  0  0  0  0  0  0  0  0  0
   -8.7084    4.4950  -16.0198 C   0  0  0  0  0  0  0  0  0  0  0  0
   -7.3825    4.9359  -15.9454 C   0  0  0  0  0  0  0  0  0  0  0  0
   -6.6121    4.9953  -17.1199 C   0  0  0  0  0  0  0  0  0  0  0  0
   -6.3623    4.5360  -20.2182 H   0  0  0  0  0  0  0  0  0  0  0  0
   -3.5579    4.4755  -13.1545 C   0  0  0  0  0  0  0  0  0  0  0  0
   -3.5919    2.9397  -13.0218 C   0  0  0  0  0  0  0  0  0  0  0  0
   -3.3876    2.5151  -11.5637 C   0  0  0  0  0  0  0  0  0  0  0  0
   -2.7901    1.1280  -11.6781 C   0  0  0  0  0  0  0  0  0  0  0  0
   -2.0008    1.1324  -12.8728 O   0  0  0  0  0  0  0  0  0  0  0  0
   -2.3632    2.2791  -13.6633 C   0  0  0  0  0  0  0  0  0  0  0  0
   -4.8782    2.3094  -13.6034 C   0  0  0  0  0  0  0  0  0  0  0  0
   -6.1256    2.4295  -12.7340 C   0  0  0  0  0  0  0  0  0  0  0  0
   -6.5283    1.1433  -12.2860 O   0  0  0  0  0  0  0  0  0  0  0  0
   -6.7280    0.5821  -13.0516 H   0  0  0  0  0  0  0  0  0  0  0  0
  1  2  2  0  0  0
  2  5  1  0  0  0
  5  6  1  0  0  0
  6  7  2  0  0  0
  7  8  1  0  0  0
  8  9  1  0  0  0
  9 10  2  0  0  0
 10 11  1  0  0  0
 11 12  2  0  0  0
 12 13  1  0  0  0
 13 14  2  0  0  0
  2  3  1  0  0  0
  3 16  1  0  0  0
 17 16  1  0  0  0
 17 22  1  0  0  0
 22 23  1  0  0  0
 23 24  1  0  0  0
 17 18  1  0  0  0
 18 19  1  0  0  0
 19 20  1  0  0  0
 20 21  1  0  0  0
 14  6  1  0  0  0
 21 17  1  0  0  0
 14  9  1  0  0  0
  8 15  1  0  0  0
  3  4  1  0  0  0
 24 25  1  0  0  0
M  END
> <minimizedAffinity>
-6.05748

> <minimizedRMSD>
0.53870

$$$$
P33063


 26 28  0  0  0  0  0  0  0  0999 V2000
   -3.6597    6.6926  -15.3983 O   0  0  0  0  0  0  0  0  0  0  0  0
   -3.5987    5.5481  -15.6318 C   0  0  0  0  0  0  0  0  0  0  0  0
   -3.4798    4.3269  -14.6707 N   0  0  0  0  0  0  0  0  0  0  0  0
   -3.5229    3.4483  -15.1128 H   0  0  0  0  0  0  0  0  0  0  0  0
   -3.6015    5.0029  -17.0627 C   0  0  0  0  0  0  0  0  0  0  0  0
   -4.9463    4.8937  -17.7061 C   0  0  0  0  0  0  0  0  0  0  0  0
   -4.9874    4.8885  -19.0504 N   0  0  0  0  0  0  0  0  0  0  0  0
   -6.3012    4.7687  -19.3374 N   0  0  0  0  0  0  0  0  0  0  0  0
   -7.1017    4.6489  -18.2339 C   0  0  0  0  0  0  0  0  0  0  0  0
   -8.4865    4.4860  -18.1134 C   0  0  0  0  0  0  0  0  0  0  0  0
   -9.0198    4.4315  -16.8272 C   0  0  0  0  0  0  0  0  0  0  0  0
   -8.1929    4.5217  -15.7124 C   0  0  0  0  0  0  0  0  0  0  0  0
   -6.8115    4.6899  -15.8544 C   0  0  0  0  0  0  0  0  0  0  0  0
   -6.2477    4.7477  -17.1420 C   0  0  0  0  0  0  0  0  0  0  0  0
   -6.6517    4.7677  -20.2574 H   0  0  0  0  0  0  0  0  0  0  0  0
   -3.3163    4.2751  -13.2338 C   0  0  0  0  0  0  0  0  0  0  0  0
   -3.7204    2.9323  -12.5565 C   0  0  0  0  0  0  0  0  0  0  0  0
   -3.1947    1.6881  -13.3178 C   0  0  0  0  0  0  0  0  0  0  0  0
   -1.6740    1.5918  -13.2686 C   0  0  0  0  0  0  0  0  0  0  0  0
   -1.2120    1.5294  -11.9245 O   0  0  0  0  0  0  0  0  0  0  0  0
   -1.5744    2.6721  -11.1563 C   0  0  0  0  0  0  0  0  0  0  0  0
   -3.0874    2.8780  -11.1347 C   0  0  0  0  0  0  0  0  0  0  0  0
   -5.2629    2.8138  -12.3762 C   0  0  0  0  0  0  0  0  0  0  0  0
   -6.0183    2.0350  -13.4395 C   0  0  0  0  0  0  0  0  0  0  0  0
   -7.3637    1.8421  -13.0258 O   0  0  0  0  0  0  0  0  0  0  0  0
   -7.3778    1.3444  -12.1934 H   0  0  0  0  0  0  0  0  0  0  0  0
  1  2  2  0  0  0
  2  5  1  0  0  0
  5  6  1  0  0  0
  6  7  2  0  0  0
  7  8  1  0  0  0
  8  9  1  0  0  0
  9 10  2  0  0  0
 10 11  1  0  0  0
 11 12  2  0  0  0
 12 13  1  0  0  0
 13 14  2  0  0  0
  2  3  1  0  0  0
  3 16  1  0  0  0
 16 17  1  0  0  0
 17 23  1  0  0  0
 23 24  1  0  0  0
 24 25  1  0  0  0
 17 18  1  0  0  0
 18 19  1  0  0  0
 19 20  1  0  0  0
 20 21  1  0  0  0
 21 22  1  0  0  0
 14  6  1  0  0  0
 22 17  1  0  0  0
 14  9  1  0  0  0
  8 15  1  0  0  0
  3  4  1  0  0  0
 25 26  1  0  0  0
M  END
> <minimizedAffinity>
-6.40940

> <minimizedRMSD>
0.79882

$$$$
P33065


 25 27  0  0  0  0  0  0  0  0999 V2000
   -3.4999    7.1167  -16.0868 O   0  0  0  0  0  0  0  0  0  0  0  0
   -3.3980    5.9721  -15.8765 C   0  0  0  0  0  0  0  0  0  0  0  0
   -3.1429    5.2102  -14.5408 N   0  0  0  0  0  0  0  0  0  0  0  0
   -3.0198    4.2383  -14.6374 H   0  0  0  0  0  0  0  0  0  0  0  0
   -3.5999    4.8756  -16.9208 C   0  0  0  0  0  0  0  0  0  0  0  0
   -4.9224    4.8691  -17.6086 C   0  0  0  0  0  0  0  0  0  0  0  0
   -4.9188    4.8769  -18.9500 N   0  0  0  0  0  0  0  0  0  0  0  0
   -6.2229    4.7762  -19.2761 N   0  0  0  0  0  0  0  0  0  0  0  0
   -7.0623    4.6618  -18.2018 C   0  0  0  0  0  0  0  0  0  0  0  0
   -8.4523    4.5180  -18.1328 C   0  0  0  0  0  0  0  0  0  0  0  0
   -9.0285    4.4664  -16.8644 C   0  0  0  0  0  0  0  0  0  0  0  0
   -8.2403    4.5450  -15.7187 C   0  0  0  0  0  0  0  0  0  0  0  0
   -6.8485    4.6878  -15.8125 C   0  0  0  0  0  0  0  0  0  0  0  0
   -6.2441    4.7450  -17.0829 C   0  0  0  0  0  0  0  0  0  0  0  0
   -6.5435    4.7842  -20.2069 H   0  0  0  0  0  0  0  0  0  0  0  0
   -3.0584    5.6968  -13.1909 C   0  0  0  0  0  0  0  0  0  0  0  0
   -3.6001    4.6057  -12.3430 C   0  0  0  0  0  0  0  0  0  0  0  0
   -3.7921    4.6059  -10.9431 C   0  0  0  0  0  0  0  0  0  0  0  0
   -4.4677    3.5352  -10.5180 N   0  0  0  0  0  0  0  0  0  0  0  0
   -4.7540    2.8705  -11.6528 N   0  0  0  0  0  0  0  0  0  0  0  0
   -4.1304    3.3944  -12.7498 C   0  0  0  0  0  0  0  0  0  0  0  0
   -5.8410    1.9108  -11.6968 C   0  0  0  0  0  0  0  0  0  0  0  0
   -7.0327    2.5239  -12.4198 C   0  0  0  0  0  0  0  0  0  0  0  0
   -7.2584    1.8823  -13.6644 O   0  0  0  0  0  0  0  0  0  0  0  0
   -6.4767    1.9880  -14.2290 H   0  0  0  0  0  0  0  0  0  0  0  0
  1  2  2  0  0  0
  2  5  1  0  0  0
  5  6  1  0  0  0
  6  7  2  0  0  0
  7  8  1  0  0  0
  8  9  1  0  0  0
  9 10  2  0  0  0
 10 11  1  0  0  0
 11 12  2  0  0  0
 12 13  1  0  0  0
 13 14  2  0  0  0
  2  3  1  0  0  0
  3 16  1  0  0  0
 16 17  1  0  0  0
 17 18  1  0  0  0
 18 19  2  0  0  0
 19 20  1  0  0  0
 20 22  1  0  0  0
 22 23  1  0  0  0
 23 24  1  0  0  0
 20 21  1  0  0  0
 14  6  1  0  0  0
 21 17  2  0  0  0
 14  9  1  0  0  0
  8 15  1  0  0  0
  3  4  1  0  0  0
 24 25  1  0  0  0
M  END
> <minimizedAffinity>
-6.08244

> <minimizedRMSD>
0.86696

$$$$
P33066


 22 24  0  0  0  0  0  0  0  0999 V2000
   -3.9289    4.5199  -14.2794 N   0  0  0  0  0  0  0  0  0  0  0  0
   -3.9220    5.6090  -15.3916 C   0  0  0  0  0  0  0  0  0  0  0  0
   -3.9754    6.7745  -15.3107 O   0  0  0  0  0  0  0  0  0  0  0  0
   -3.9521    3.5929  -14.6101 H   0  0  0  0  0  0  0  0  0  0  0  0
   -3.9068    4.6485  -12.8434 C   0  0  0  0  0  0  0  0  0  0  0  0
   -4.6251    3.4428  -12.2138 C   0  0  0  0  0  0  0  0  0  0  0  0
   -4.4978    3.4524  -10.6484 C   0  0  0  0  0  0  0  0  0  0  0  0
   -3.2424    2.5722  -10.7911 C   0  0  0  0  0  0  0  0  0  0  0  0
   -3.7952    2.1156  -12.1539 C   0  0  0  0  0  0  0  0  0  0  0  0
   -6.6558    2.2424  -13.0443 C   0  0  0  0  0  0  0  0  0  0  0  0
   -6.0608    3.3669  -12.6454 C   0  0  0  0  0  0  0  0  0  0  0  0
   -3.7870    4.8890  -16.7311 C   0  0  0  0  0  0  0  0  0  0  0  0
   -5.0380    4.8762  -17.5394 C   0  0  0  0  0  0  0  0  0  0  0  0
   -4.9286    4.9163  -18.8770 N   0  0  0  0  0  0  0  0  0  0  0  0
   -6.1996    4.7788  -19.3088 N   0  0  0  0  0  0  0  0  0  0  0  0
   -7.1188    4.6391  -18.3041 C   0  0  0  0  0  0  0  0  0  0  0  0
   -8.5036    4.4409  -18.3393 C   0  0  0  0  0  0  0  0  0  0  0  0
   -9.1736    4.3632  -17.1200 C   0  0  0  0  0  0  0  0  0  0  0  0
   -8.4783    4.4687  -15.9191 C   0  0  0  0  0  0  0  0  0  0  0  0
   -7.0903    4.6519  -15.9052 C   0  0  0  0  0  0  0  0  0  0  0  0
   -6.3937    4.7365  -17.1238 C   0  0  0  0  0  0  0  0  0  0  0  0
   -6.4443    4.7790  -20.2624 H   0  0  0  0  0  0  0  0  0  0  0  0
 10 11  2  0  0  0
 11  6  1  0  0  0
  6  5  1  0  0  0
  5  1  1  0  0  0
  1  2  1  0  0  0
  2  3  2  0  0  0
  2 12  1  0  0  0
 12 13  1  0  0  0
 13 14  2  0  0  0
 14 15  1  0  0  0
 15 16  1  0  0  0
 16 17  2  0  0  0
 17 18  1  0  0  0
 18 19  2  0  0  0
 19 20  1  0  0  0
 20 21  2  0  0  0
  6  7  1  0  0  0
  7  8  1  0  0  0
  8  9  1  0  0  0
  9  6  1  0  0  0
 21 13  1  0  0  0
 21 16  1  0  0  0
  1  4  1  0  0  0
 15 22  1  0  0  0
M  END
> <minimizedAffinity>
-5.61783

> <minimizedRMSD>
0.27994

$$$$
P33068


 23 25  0  0  0  0  0  0  0  0999 V2000
   -4.2882    5.2437  -14.0257 N   0  0  0  0  0  0  0  0  0  0  0  0
   -3.8592    4.6789  -15.4061 C   0  0  0  0  0  0  0  0  0  0  0  0
   -3.3975    3.6450  -15.6896 O   0  0  0  0  0  0  0  0  0  0  0  0
   -4.7269    6.1245  -14.0589 H   0  0  0  0  0  0  0  0  0  0  0  0
   -4.1488    4.6880  -12.7028 C   0  0  0  0  0  0  0  0  0  0  0  0
   -5.3627    1.0686  -10.2289 C   0  0  0  0  0  0  0  0  0  0  0  0
   -5.6675    2.1537  -11.1282 N   0  0  0  0  0  0  0  0  0  0  0  0
   -5.9133    1.9136  -12.5249 C   0  0  0  0  0  0  0  0  0  0  0  0
   -6.2515    3.2782  -13.0710 C   0  0  0  0  0  0  0  0  0  0  0  0
   -5.4929    4.2452  -12.1565 C   0  0  0  0  0  0  0  0  0  0  0  0
   -5.2832    3.4586  -10.8853 C   0  0  0  0  0  0  0  0  0  0  0  0
   -4.8145    3.9134   -9.8537 O   0  0  0  0  0  0  0  0  0  0  0  0
   -4.1913    5.7454  -16.4470 C   0  0  0  0  0  0  0  0  0  0  0  0
   -5.2395    5.2650  -17.3849 C   0  0  0  0  0  0  0  0  0  0  0  0
   -4.9479    5.1643  -18.6878 N   0  0  0  0  0  0  0  0  0  0  0  0
   -6.0870    4.6966  -19.2352 N   0  0  0  0  0  0  0  0  0  0  0  0
   -7.1242    4.5764  -18.3488 C   0  0  0  0  0  0  0  0  0  0  0  0
   -8.4585    4.2013  -18.5353 C   0  0  0  0  0  0  0  0  0  0  0  0
   -9.2917    4.2191  -17.4179 C   0  0  0  0  0  0  0  0  0  0  0  0
   -8.7974    4.5719  -16.1647 C   0  0  0  0  0  0  0  0  0  0  0  0
   -7.4573    4.9457  -16.0007 C   0  0  0  0  0  0  0  0  0  0  0  0
   -6.6026    4.9474  -17.1178 C   0  0  0  0  0  0  0  0  0  0  0  0
   -6.1666    4.4620  -20.1880 H   0  0  0  0  0  0  0  0  0  0  0  0
  6  7  1  0  0  0
  7  8  1  0  0  0
  8  9  1  0  0  0
  9 10  1  0  0  0
 10  5  1  0  0  0
  5  1  1  0  0  0
  1  2  1  0  0  0
  2  3  2  0  0  0
  2 13  1  0  0  0
 13 14  1  0  0  0
 14 15  2  0  0  0
 15 16  1  0  0  0
 16 17  1  0  0  0
 17 18  2  0  0  0
 18 19  1  0  0  0
 19 20  2  0  0  0
 20 21  1  0  0  0
 21 22  2  0  0  0
 10 11  1  0  0  0
 11 12  2  0  0  0
 11  7  1  0  0  0
 22 14  1  0  0  0
 22 17  1  0  0  0
  1  4  1  0  0  0
 16 23  1  0  0  0
M  END
> <minimizedAffinity>
-5.89901

> <minimizedRMSD>
0.77378

$$$$
P33084


 27 29  0  0  0  0  0  0  0  0999 V2000
   -4.6434    3.4630  -13.9476 N   0  0  0  0  0  0  0  0  0  0  0  0
   -3.6635    4.2592  -14.8448 C   0  0  0  0  0  0  0  0  0  0  0  0
   -2.5062    4.1652  -14.9704 O   0  0  0  0  0  0  0  0  0  0  0  0
   -5.5731    3.7864  -13.9646 H   0  0  0  0  0  0  0  0  0  0  0  0
   -4.4151    2.3239  -13.0905 C   0  0  0  0  0  0  0  0  0  0  0  0
   -7.5091    3.0844  -10.3535 C   0  0  0  0  0  0  0  0  0  0  0  0
   -7.7843    3.0933  -11.6253 N   0  0  0  0  0  0  0  0  0  0  0  0
   -6.8856    2.4771  -12.4456 C   0  0  0  0  0  0  0  0  0  0  0  0
   -7.3635    2.0561  -13.5550 N   0  0  0  0  0  0  0  0  0  0  0  0
   -5.4633    2.3743  -12.0346 C   0  0  0  0  0  0  0  0  0  0  0  0
   -5.2709    2.3854  -10.7081 C   0  0  0  0  0  0  0  0  0  0  0  0
   -6.3139    2.6178   -9.8497 N   0  0  0  0  0  0  0  0  0  0  0  0
   -8.3224    2.1637  -13.7504 H   0  0  0  0  0  0  0  0  0  0  0  0
   -6.2106    2.4534   -8.8845 H   0  0  0  0  0  0  0  0  0  0  0  0
   -9.1431    2.5040   -8.5685 C   0  0  0  0  0  0  0  0  0  0  0  0
   -8.5433    3.6293   -9.3915 C   0  0  0  0  0  0  0  0  0  0  0  0
   -4.4724    5.3597  -15.5375 C   0  0  0  0  0  0  0  0  0  0  0  0
   -5.2285    4.9731  -16.7622 C   0  0  0  0  0  0  0  0  0  0  0  0
   -4.6168    5.0006  -17.9559 N   0  0  0  0  0  0  0  0  0  0  0  0
   -5.6100    4.7511  -18.8374 N   0  0  0  0  0  0  0  0  0  0  0  0
   -6.8401    4.5854  -18.2576 C   0  0  0  0  0  0  0  0  0  0  0  0
   -8.1025    4.3528  -18.8155 C   0  0  0  0  0  0  0  0  0  0  0  0
   -9.1867    4.2601  -17.9434 C   0  0  0  0  0  0  0  0  0  0  0  0
   -9.0054    4.3854  -16.5695 C   0  0  0  0  0  0  0  0  0  0  0  0
   -7.7393    4.6380  -16.0294 C   0  0  0  0  0  0  0  0  0  0  0  0
   -6.6286    4.7237  -16.8914 C   0  0  0  0  0  0  0  0  0  0  0  0
   -5.4628    4.6936  -19.8091 H   0  0  0  0  0  0  0  0  0  0  0  0
 15 16  1  0  0  0
 16  6  1  0  0  0
  6  7  2  0  0  0
  7  8  1  0  0  0
  8  9  2  0  0  0
  8 10  1  0  0  0
 10  5  1  0  0  0
  5  1  1  0  0  0
  1  2  1  0  0  0
  2  3  2  0  0  0
  2 17  1  0  0  0
 17 18  1  0  0  0
 18 19  2  0  0  0
 19 20  1  0  0  0
 20 21  1  0  0  0
 21 22  2  0  0  0
 22 23  1  0  0  0
 23 24  2  0  0  0
 24 25  1  0  0  0
 25 26  2  0  0  0
 10 11  2  0  0  0
 11 12  1  0  0  0
 12  6  1  0  0  0
 26 18  1  0  0  0
 26 21  1  0  0  0
  9 13  1  0  0  0
  1  4  1  0  0  0
 20 27  1  0  0  0
 12 14  1  0  0  0
M  END
> <minimizedAffinity>
-7.33525

> <minimizedRMSD>
1.02878

$$$$
P33085


 25 28  0  0  0  0  0  0  0  0999 V2000
   -3.4141    6.5963  -15.6930 O   0  0  0  0  0  0  0  0  0  0  0  0
   -3.3224    5.4507  -15.9092 C   0  0  0  0  0  0  0  0  0  0  0  0
   -2.9154    4.2738  -14.9678 N   0  0  0  0  0  0  0  0  0  0  0  0
   -2.9883    3.3787  -15.3712 H   0  0  0  0  0  0  0  0  0  0  0  0
   -3.5398    4.8249  -17.2842 C   0  0  0  0  0  0  0  0  0  0  0  0
   -4.9225    4.8913  -17.8327 C   0  0  0  0  0  0  0  0  0  0  0  0
   -5.0452    4.9497  -19.1687 N   0  0  0  0  0  0  0  0  0  0  0  0
   -6.3694    4.8108  -19.3763 N   0  0  0  0  0  0  0  0  0  0  0  0
   -7.1044    4.6740  -18.2311 C   0  0  0  0  0  0  0  0  0  0  0  0
   -8.4756    4.4769  -18.0346 C   0  0  0  0  0  0  0  0  0  0  0  0
   -8.9331    4.4039  -16.7212 C   0  0  0  0  0  0  0  0  0  0  0  0
   -8.0484    4.5193  -15.6540 C   0  0  0  0  0  0  0  0  0  0  0  0
   -6.6780    4.7034  -15.8748 C   0  0  0  0  0  0  0  0  0  0  0  0
   -6.1898    4.7743  -17.1911 C   0  0  0  0  0  0  0  0  0  0  0  0
   -6.7728    4.8080  -20.2744 H   0  0  0  0  0  0  0  0  0  0  0  0
   -2.4513    4.2852  -13.6073 C   0  0  0  0  0  0  0  0  0  0  0  0
   -2.9420    3.0162  -12.8825 C   0  0  0  0  0  0  0  0  0  0  0  0
   -1.7393    2.4023  -12.0703 C   0  0  0  0  0  0  0  0  0  0  0  0
   -1.4596    1.4847  -13.2782 C   0  0  0  0  0  0  0  0  0  0  0  0
   -2.9353    1.6595  -13.6741 C   0  0  0  0  0  0  0  0  0  0  0  0
   -4.1943    3.3009  -12.0313 C   0  0  0  0  0  0  0  0  0  0  0  0
   -5.5056    3.2206  -12.7986 C   0  0  0  0  0  0  0  0  0  0  0  0
   -6.1647    1.9697  -12.2889 C   0  0  0  0  0  0  0  0  0  0  0  0
   -5.6198    1.8466  -10.8875 C   0  0  0  0  0  0  0  0  0  0  0  0
   -4.2846    2.3607  -10.9476 O   0  0  0  0  0  0  0  0  0  0  0  0
  1  2  2  0  0  0
  2  5  1  0  0  0
  5  6  1  0  0  0
  6  7  2  0  0  0
  7  8  1  0  0  0
  8  9  1  0  0  0
  9 10  2  0  0  0
 10 11  1  0  0  0
 11 12  2  0  0  0
 12 13  1  0  0  0
 13 14  2  0  0  0
  2  3  1  0  0  0
  3 16  1  0  0  0
 16 17  1  0  0  0
 21 17  1  0  0  0
 21 22  1  0  0  0
 22 23  1  0  0  0
 23 24  1  0  0  0
 24 25  1  0  0  0
 17 18  1  0  0  0
 18 19  1  0  0  0
 19 20  1  0  0  0
 14  6  1  0  0  0
 20 17  1  0  0  0
 14  9  1  0  0  0
 25 21  1  0  0  0
  8 15  1  0  0  0
  3  4  1  0  0  0
M  END
> <minimizedAffinity>
-6.50974

> <minimizedRMSD>
0.63239

$$$$
P33325


 14 15  0  0  0  0  0  0  0  0999 V2000
  -10.4972    4.1341  -17.8446 O   0  0  0  0  0  0  0  0  0  0  0  0
   -9.4418    4.4066  -17.3040 C   0  0  0  0  0  0  0  0  0  0  0  0
   -8.2627    4.9216  -18.0079 C   0  0  0  0  0  0  0  0  0  0  0  0
   -7.2532    4.7548  -17.1439 C   0  0  0  0  0  0  0  0  0  0  0  0
   -7.6724    4.2836  -15.9007 N   0  0  0  0  0  0  0  0  0  0  0  0
   -9.0791    4.1896  -15.9774 N   0  0  0  0  0  0  0  0  0  0  0  0
   -7.1042    4.0619  -15.1279 H   0  0  0  0  0  0  0  0  0  0  0  0
   -9.6918    4.0044  -15.2293 H   0  0  0  0  0  0  0  0  0  0  0  0
   -5.8409    4.9236  -17.5246 C   0  0  0  0  0  0  0  0  0  0  0  0
   -4.8267    4.9377  -16.5738 C   0  0  0  0  0  0  0  0  0  0  0  0
   -3.5012    4.9892  -17.0017 C   0  0  0  0  0  0  0  0  0  0  0  0
   -3.2200    5.0167  -18.3624 C   0  0  0  0  0  0  0  0  0  0  0  0
   -4.2826    5.0076  -19.2448 C   0  0  0  0  0  0  0  0  0  0  0  0
   -5.5724    4.9763  -18.8551 N   0  0  0  0  0  0  0  0  0  0  0  0
  1  2  2  0  0  0
  2  3  1  0  0  0
  3  4  2  0  0  0
  4  9  1  0  0  0
  9 10  2  0  0  0
 10 11  1  0  0  0
 11 12  2  0  0  0
 12 13  1  0  0  0
 13 14  2  0  0  0
  4  5  1  0  0  0
  5  6  1  0  0  0
  6  2  1  0  0  0
 14  9  1  0  0  0
  5  7  1  0  0  0
  6  8  1  0  0  0
M  END
> <minimizedAffinity>
-5.81481

> <minimizedRMSD>
0.70403

$$$$
P33436


 22 24  0  0  0  0  0  0  0  0999 V2000
   -2.3713    6.0869  -18.0127 N   0  0  0  0  0  0  0  0  0  0  0  0
   -3.2232    5.0838  -18.8228 C   0  0  0  0  0  0  0  0  0  0  0  0
   -2.9719    4.4915  -19.7978 O   0  0  0  0  0  0  0  0  0  0  0  0
   -2.8420    6.5143  -17.2611 H   0  0  0  0  0  0  0  0  0  0  0  0
   -4.5640    4.9173  -18.1901 C   0  0  0  0  0  0  0  0  0  0  0  0
   -4.9128    4.8871  -16.8480 C   0  0  0  0  0  0  0  0  0  0  0  0
   -6.2725    4.6881  -16.8042 N   0  0  0  0  0  0  0  0  0  0  0  0
   -7.1057    4.5685  -15.6975 C   0  0  0  0  0  0  0  0  0  0  0  0
   -8.4205    4.3882  -15.9006 C   0  0  0  0  0  0  0  0  0  0  0  0
   -8.9343    4.3260  -17.2596 C   0  0  0  0  0  0  0  0  0  0  0  0
   -8.1055    4.4053  -18.3180 C   0  0  0  0  0  0  0  0  0  0  0  0
   -6.7124    4.6153  -18.1163 C   0  0  0  0  0  0  0  0  0  0  0  0
   -5.7102    4.7643  -18.9571 N   0  0  0  0  0  0  0  0  0  0  0  0
   -0.4694    7.1775  -19.1831 N   0  0  0  0  0  0  0  0  0  0  0  0
    0.8674    7.2816  -18.8638 C   0  0  0  0  0  0  0  0  0  0  0  0
    1.0057    6.6534  -17.6551 C   0  0  0  0  0  0  0  0  0  0  0  0
   -0.1998    6.1708  -17.2340 N   0  0  0  0  0  0  0  0  0  0  0  0
   -1.0778    6.4753  -18.1688 C   0  0  0  0  0  0  0  0  0  0  0  0
   -1.0227    7.8018  -20.3664 C   0  0  0  0  0  0  0  0  0  0  0  0
   -1.0697    6.8453  -21.5565 C   0  0  0  0  0  0  0  0  0  0  0  0
   -3.3683    7.4400  -21.6938 C   0  0  0  0  0  0  0  0  0  0  0  0
   -2.2027    7.0464  -22.4089 O   0  0  0  0  0  0  0  0  0  0  0  0
 21 22  1  0  0  0
 22 20  1  0  0  0
 20 19  1  0  0  0
 19 14  1  0  0  0
 14 15  1  0  0  0
 15 16  2  0  0  0
 16 17  1  0  0  0
 17 18  2  0  0  0
 18  1  1  0  0  0
  1  2  1  0  0  0
  2  3  2  0  0  0
  2  5  1  0  0  0
  5  6  2  0  0  0
  6  7  1  0  0  0
  7  8  1  0  0  0
  8  9  2  0  0  0
  9 10  1  0  0  0
 10 11  2  0  0  0
 11 12  1  0  0  0
 12 13  2  0  0  0
 18 14  1  0  0  0
 13  5  1  0  0  0
 12  7  1  0  0  0
  1  4  1  0  0  0
M  END
> <minimizedAffinity>
-4.43929

> <minimizedRMSD>
1.94070

$$$$
P33442


 19 21  0  0  0  0  0  0  0  0999 V2000
   -3.6048    5.5244  -17.5270 C   0  0  0  0  0  0  0  0  0  0  0  0
   -5.0167    5.0710  -17.5578 C   0  0  0  0  0  0  0  0  0  0  0  0
   -5.8638    4.9044  -16.4800 C   0  0  0  0  0  0  0  0  0  0  0  0
   -7.0815    4.5699  -17.0106 N   0  0  0  0  0  0  0  0  0  0  0  0
   -8.2835    4.3283  -16.3605 C   0  0  0  0  0  0  0  0  0  0  0  0
   -9.3645    4.0475  -17.1038 C   0  0  0  0  0  0  0  0  0  0  0  0
   -9.2525    3.9983  -18.5518 C   0  0  0  0  0  0  0  0  0  0  0  0
   -8.0685    4.1936  -19.1612 C   0  0  0  0  0  0  0  0  0  0  0  0
   -6.9202    4.5234  -18.3894 C   0  0  0  0  0  0  0  0  0  0  0  0
   -5.6855    4.8304  -18.7320 N   0  0  0  0  0  0  0  0  0  0  0  0
   -2.9001    6.5678  -19.7611 C   0  0  0  0  0  0  0  0  0  0  0  0
   -2.1249    6.1950  -20.7861 N   0  0  0  0  0  0  0  0  0  0  0  0
   -1.5296    5.0175  -20.4169 C   0  0  0  0  0  0  0  0  0  0  0  0
   -2.0238    4.6050  -19.2136 C   0  0  0  0  0  0  0  0  0  0  0  0
   -2.9410    5.5495  -18.8253 N   0  0  0  0  0  0  0  0  0  0  0  0
   -4.9092    7.8664  -19.4858 F   0  0  0  0  0  0  0  0  0  0  0  0
   -3.5623    7.9106  -19.5796 C   0  0  0  0  0  0  0  0  0  0  0  0
   -3.2938    8.7119  -20.6563 F   0  0  0  0  0  0  0  0  0  0  0  0
   -3.0934    8.6144  -18.5110 F   0  0  0  0  0  0  0  0  0  0  0  0
 16 17  1  0  0  0
 17 18  1  0  0  0
 17 19  1  0  0  0
 17 11  1  0  0  0
 11 12  2  0  0  0
 12 13  1  0  0  0
 13 14  2  0  0  0
 14 15  1  0  0  0
 15  1  1  0  0  0
  1  2  1  0  0  0
  2  3  2  0  0  0
  3  4  1  0  0  0
  4  5  1  0  0  0
  5  6  2  0  0  0
  6  7  1  0  0  0
  7  8  2  0  0  0
  8  9  1  0  0  0
  9 10  2  0  0  0
 15 11  1  0  0  0
 10  2  1  0  0  0
  9  4  1  0  0  0
M  END
> <minimizedAffinity>
-4.84212

> <minimizedRMSD>
0.87642

$$$$
P33443


 17 19  0  0  0  0  0  0  0  0999 V2000
   -5.0552    5.1030  -17.7042 C   0  0  0  0  0  0  0  0  0  0  0  0
   -5.8622    4.9942  -16.5890 C   0  0  0  0  0  0  0  0  0  0  0  0
   -7.0926    4.6072  -17.0546 N   0  0  0  0  0  0  0  0  0  0  0  0
   -8.2485    4.3228  -16.3434 C   0  0  0  0  0  0  0  0  0  0  0  0
   -9.3485    3.9769  -17.0282 C   0  0  0  0  0  0  0  0  0  0  0  0
   -9.3164    3.9368  -18.4821 C   0  0  0  0  0  0  0  0  0  0  0  0
   -8.1756    4.1767  -19.1547 C   0  0  0  0  0  0  0  0  0  0  0  0
   -6.9970    4.5255  -18.4374 C   0  0  0  0  0  0  0  0  0  0  0  0
   -5.7747    4.7958  -18.8370 N   0  0  0  0  0  0  0  0  0  0  0  0
   -3.6033    5.4437  -17.7564 C   0  0  0  0  0  0  0  0  0  0  0  0
   -2.4414    5.7012  -19.9857 C   0  0  0  0  0  0  0  0  0  0  0  0
   -2.4524    6.5476  -21.0050 N   0  0  0  0  0  0  0  0  0  0  0  0
   -2.9866    7.7097  -20.5031 C   0  0  0  0  0  0  0  0  0  0  0  0
   -3.4236    7.5216  -19.2173 C   0  0  0  0  0  0  0  0  0  0  0  0
   -3.1978    6.1965  -18.9425 N   0  0  0  0  0  0  0  0  0  0  0  0
   -0.5833    4.3277  -19.4875 O   0  0  0  0  0  0  0  0  0  0  0  0
   -1.6879    4.4699  -20.0058 C   0  0  0  0  0  0  0  0  0  0  0  0
 16 17  2  0  0  0
 17 11  1  0  0  0
 11 12  2  0  0  0
 12 13  1  0  0  0
 13 14  2  0  0  0
 14 15  1  0  0  0
 15 10  1  0  0  0
 10  1  1  0  0  0
  1  2  2  0  0  0
  2  3  1  0  0  0
  3  4  1  0  0  0
  4  5  2  0  0  0
  5  6  1  0  0  0
  6  7  2  0  0  0
  7  8  1  0  0  0
  8  9  2  0  0  0
 15 11  1  0  0  0
  9  1  1  0  0  0
  8  3  1  0  0  0
M  END
> <minimizedAffinity>
-4.82588

> <minimizedRMSD>
0.85936

$$$$
P33448


 23 25  0  0  0  0  0  0  0  0999 V2000
   -0.3930    7.2325  -17.4918 O   0  0  0  0  0  0  0  0  0  0  0  0
   -0.8556    6.4350  -16.7737 C   0  0  0  0  0  0  0  0  0  0  0  0
   -1.9863    5.4017  -17.0150 N   0  0  0  0  0  0  0  0  0  0  0  0
   -2.1447    4.7817  -16.2668 H   0  0  0  0  0  0  0  0  0  0  0  0
   -0.3710    6.2138  -15.3019 C   0  0  0  0  0  0  0  0  0  0  0  0
   -1.4336    5.7834  -14.4308 O   0  0  0  0  0  0  0  0  0  0  0  0
   -1.7684    4.9234  -14.7297 H   0  0  0  0  0  0  0  0  0  0  0  0
    0.7573    5.2214  -15.2616 C   0  0  0  0  0  0  0  0  0  0  0  0
    1.8208    5.0315  -16.1184 C   0  0  0  0  0  0  0  0  0  0  0  0
    2.5232    3.9794  -15.6005 N   0  0  0  0  0  0  0  0  0  0  0  0
    1.8940    3.5862  -14.4540 C   0  0  0  0  0  0  0  0  0  0  0  0
    0.8292    4.3166  -14.2133 N   0  0  0  0  0  0  0  0  0  0  0  0
    3.3358    3.5777  -15.9846 H   0  0  0  0  0  0  0  0  0  0  0  0
   -2.8399    5.2021  -18.1523 C   0  0  0  0  0  0  0  0  0  0  0  0
   -4.2607    5.0107  -17.7527 C   0  0  0  0  0  0  0  0  0  0  0  0
   -4.8432    4.9339  -16.5020 C   0  0  0  0  0  0  0  0  0  0  0  0
   -6.1754    4.7022  -16.7222 N   0  0  0  0  0  0  0  0  0  0  0  0
   -7.1975    4.5181  -15.8005 C   0  0  0  0  0  0  0  0  0  0  0  0
   -8.4421    4.3110  -16.2573 C   0  0  0  0  0  0  0  0  0  0  0  0
   -8.6908    4.2907  -17.6899 C   0  0  0  0  0  0  0  0  0  0  0  0
   -7.6821    4.4358  -18.5695 C   0  0  0  0  0  0  0  0  0  0  0  0
   -6.3590    4.6688  -18.0985 C   0  0  0  0  0  0  0  0  0  0  0  0
   -5.2219    4.8695  -18.7311 N   0  0  0  0  0  0  0  0  0  0  0  0
  1  2  2  0  0  0
  2  3  1  0  0  0
  3 14  1  0  0  0
 14 15  1  0  0  0
 15 16  2  0  0  0
 16 17  1  0  0  0
 17 18  1  0  0  0
 18 19  2  0  0  0
 19 20  1  0  0  0
 20 21  2  0  0  0
 21 22  1  0  0  0
 22 23  2  0  0  0
  2  5  1  0  0  0
  5  6  1  0  0  0
  5  8  1  0  0  0
  8  9  2  0  0  0
  9 10  1  0  0  0
 10 11  1  0  0  0
 11 12  2  0  0  0
 23 15  1  0  0  0
 12  8  1  0  0  0
 22 17  1  0  0  0
  3  4  1  0  0  0
  6  7  1  0  0  0
 10 13  1  0  0  0
M  END
> <minimizedAffinity>
-4.39866

> <minimizedRMSD>
0.56463

$$$$
P33508


 20 21  0  0  0  0  0  0  0  0999 V2000
   -8.9687    2.9046   -9.4128 N   0  0  0  0  0  0  0  0  0  0  0  0
   -9.9047    2.8141   -9.7041 H   0  0  0  0  0  0  0  0  0  0  0  0
   -7.9553    3.0368  -10.3554 C   0  0  0  0  0  0  0  0  0  0  0  0
   -8.2866    2.9356  -11.6904 C   0  0  0  0  0  0  0  0  0  0  0  0
   -7.2932    3.1646  -12.6149 C   0  0  0  0  0  0  0  0  0  0  0  0
   -7.5826    3.1781  -13.9789 N   0  0  0  0  0  0  0  0  0  0  0  0
   -6.0437    3.4754  -12.2668 N   0  0  0  0  0  0  0  0  0  0  0  0
   -5.8093    3.5047  -10.9496 C   0  0  0  0  0  0  0  0  0  0  0  0
   -6.6985    3.2897   -9.9741 N   0  0  0  0  0  0  0  0  0  0  0  0
   -8.4893    2.9565  -14.2919 H   0  0  0  0  0  0  0  0  0  0  0  0
   -6.8802    3.4091  -14.6288 H   0  0  0  0  0  0  0  0  0  0  0  0
   -9.4955    1.8065   -7.3388 C   0  0  0  0  0  0  0  0  0  0  0  0
   -8.6401    2.9002   -7.9821 C   0  0  0  0  0  0  0  0  0  0  0  0
   -8.8913    4.2416   -7.2464 C   0  0  0  0  0  0  0  0  0  0  0  0
   -7.9037    4.5072   -6.1293 C   0  0  0  0  0  0  0  0  0  0  0  0
   -6.6468    5.0561   -6.3961 C   0  0  0  0  0  0  0  0  0  0  0  0
   -5.7310    5.2376   -5.3646 C   0  0  0  0  0  0  0  0  0  0  0  0
   -6.0932    4.8415   -4.0893 C   0  0  0  0  0  0  0  0  0  0  0  0
   -7.2880    4.2879   -3.7821 N   0  0  0  0  0  0  0  0  0  0  0  0
   -8.1798    4.1758   -4.8066 C   0  0  0  0  0  0  0  0  0  0  0  0
 13 12  1  0  0  0
 13 14  1  0  0  0
 14 15  1  0  0  0
 15 16  2  0  0  0
 16 17  1  0  0  0
 17 18  2  0  0  0
 18 19  1  0  0  0
 19 20  2  0  0  0
 13  1  1  0  0  0
  1  3  1  0  0  0
  3  4  2  0  0  0
  4  5  1  0  0  0
  5  6  1  0  0  0
  5  7  2  0  0  0
  7  8  1  0  0  0
  8  9  2  0  0  0
 20 15  1  0  0  0
  9  3  1  0  0  0
  1  2  1  0  0  0
  6 10  1  0  0  0
  6 11  1  0  0  0
M  END
> <minimizedAffinity>
-4.47003

> <minimizedRMSD>
1.74012

$$$$
P33534


 12 12  0  0  0  0  0  0  0  0999 V2000
   -7.0261    6.7291  -13.2707 C   0  0  0  0  0  0  0  0  0  0  0  0
   -7.5163    5.2910  -13.2350 C   0  0  0  0  0  0  0  0  0  0  0  0
   -8.6730    5.2352  -14.2431 C   0  0  0  0  0  0  0  0  0  0  0  0
   -6.4551    4.4310  -13.7667 N   0  0  0  0  0  0  0  0  0  0  0  0
   -6.2163    4.7307  -14.7120 H   0  0  0  0  0  0  0  0  0  0  0  0
   -6.7798    3.4643  -13.7884 H   0  0  0  0  0  0  0  0  0  0  0  0
   -7.8700    4.8376  -11.8192 C   0  0  0  0  0  0  0  0  0  0  0  0
   -8.2253    3.5088  -11.5534 C   0  0  0  0  0  0  0  0  0  0  0  0
   -8.4892    3.1139  -10.2471 C   0  0  0  0  0  0  0  0  0  0  0  0
   -8.4174    3.9411   -9.1820 N   0  0  0  0  0  0  0  0  0  0  0  0
   -8.0666    5.2123   -9.4392 C   0  0  0  0  0  0  0  0  0  0  0  0
   -7.7861    5.6966  -10.7096 C   0  0  0  0  0  0  0  0  0  0  0  0
  1  2  1  0  0  0
  2  3  1  0  0  0
  2  4  1  0  0  0
  2  7  1  0  0  0
  7  8  2  0  0  0
  8  9  1  0  0  0
  9 10  2  0  0  0
 10 11  1  0  0  0
 11 12  2  0  0  0
 12  7  1  0  0  0
  4  5  1  0  0  0
  4  6  1  0  0  0
M  END
> <minimizedAffinity>
-2.87992

> <minimizedRMSD>
1.03589

$$$$
P33547


 21 22  0  0  0  0  0  0  0  0999 V2000
   -8.5425    2.8702   -8.1539 C   0  0  0  0  0  0  0  0  0  0  0  0
   -8.8051    1.4497   -7.8584 N   0  0  0  0  0  0  0  0  0  0  0  0
   -9.7915    1.2457   -8.0190 H   0  0  0  0  0  0  0  0  0  0  0  0
   -8.5722    1.2564   -6.8843 H   0  0  0  0  0  0  0  0  0  0  0  0
   -9.3753    3.7256   -7.1545 C   0  0  0  0  0  0  0  0  0  0  0  0
   -9.3308    6.7306   -6.7656 N   0  0  0  0  0  0  0  0  0  0  0  0
   -8.4832    5.8815   -6.0421 C   0  0  0  0  0  0  0  0  0  0  0  0
   -7.6862    6.4510   -5.0425 C   0  0  0  0  0  0  0  0  0  0  0  0
   -6.9322    5.6321   -4.2181 C   0  0  0  0  0  0  0  0  0  0  0  0
   -6.9599    4.2884   -4.2733 N   0  0  0  0  0  0  0  0  0  0  0  0
   -7.8306    3.7578   -5.1721 C   0  0  0  0  0  0  0  0  0  0  0  0
   -8.5608    4.4818   -6.1182 C   0  0  0  0  0  0  0  0  0  0  0  0
   -9.2392    7.7071   -6.6802 H   0  0  0  0  0  0  0  0  0  0  0  0
  -10.0181    6.3507   -7.3595 H   0  0  0  0  0  0  0  0  0  0  0  0
   -8.8390    3.0992   -9.6536 C   0  0  0  0  0  0  0  0  0  0  0  0
   -8.2092    4.2716  -10.3669 C   0  0  0  0  0  0  0  0  0  0  0  0
   -8.1828    4.2559  -11.7654 C   0  0  0  0  0  0  0  0  0  0  0  0
   -7.6901    5.3529  -12.4522 C   0  0  0  0  0  0  0  0  0  0  0  0
   -7.2216    6.4608  -11.8455 N   0  0  0  0  0  0  0  0  0  0  0  0
   -7.1981    6.4361  -10.4977 C   0  0  0  0  0  0  0  0  0  0  0  0
   -7.6505    5.3738   -9.7305 C   0  0  0  0  0  0  0  0  0  0  0  0
  6  7  1  0  0  0
  7  8  2  0  0  0
  8  9  1  0  0  0
  9 10  2  0  0  0
 10 11  1  0  0  0
 11 12  2  0  0  0
 12  5  1  0  0  0
  5  1  1  0  0  0
  1  2  1  0  0  0
  1 15  1  0  0  0
 15 16  1  0  0  0
 16 17  2  0  0  0
 17 18  1  0  0  0
 18 19  2  0  0  0
 19 20  1  0  0  0
 20 21  2  0  0  0
 12  7  1  0  0  0
 21 16  1  0  0  0
  6 13  1  0  0  0
  6 14  1  0  0  0
  2  3  1  0  0  0
  2  4  1  0  0  0
M  END
> <minimizedAffinity>
-3.95934

> <minimizedRMSD>
0.88558

$$$$
P33618


 16 18  0  0  0  0  0  0  0  0999 V2000
   -7.1857    4.4866  -15.6200 C   0  0  0  0  0  0  0  0  0  0  0  0
   -8.1862    4.3946  -16.6090 C   0  0  0  0  0  0  0  0  0  0  0  0
   -7.9280    4.5614  -17.9845 C   0  0  0  0  0  0  0  0  0  0  0  0
   -6.6052    4.8189  -18.3387 C   0  0  0  0  0  0  0  0  0  0  0  0
   -5.9955    5.0846  -19.5386 N   0  0  0  0  0  0  0  0  0  0  0  0
   -4.6585    5.2458  -19.2992 C   0  0  0  0  0  0  0  0  0  0  0  0
   -4.3690    5.1305  -18.0228 N   0  0  0  0  0  0  0  0  0  0  0  0
   -5.5737    4.8767  -17.4096 C   0  0  0  0  0  0  0  0  0  0  0  0
   -5.8638    4.7111  -16.0441 C   0  0  0  0  0  0  0  0  0  0  0  0
   -6.4404    5.1479  -20.4145 H   0  0  0  0  0  0  0  0  0  0  0  0
   -8.2094    5.2881  -12.0695 C   0  0  0  0  0  0  0  0  0  0  0  0
   -7.9937    5.4376  -13.4349 C   0  0  0  0  0  0  0  0  0  0  0  0
   -7.4827    4.3608  -14.1732 C   0  0  0  0  0  0  0  0  0  0  0  0
   -7.2170    3.1798  -13.4730 C   0  0  0  0  0  0  0  0  0  0  0  0
   -7.4736    3.1172  -12.1076 C   0  0  0  0  0  0  0  0  0  0  0  0
   -7.9602    4.1527  -11.3897 N   0  0  0  0  0  0  0  0  0  0  0  0
 11 12  2  0  0  0
 12 13  1  0  0  0
 13  1  1  0  0  0
  1  2  2  0  0  0
  2  3  1  0  0  0
  3  4  2  0  0  0
  4  5  1  0  0  0
  5  6  1  0  0  0
  6  7  2  0  0  0
  7  8  1  0  0  0
  8  9  2  0  0  0
 13 14  2  0  0  0
 14 15  1  0  0  0
 15 16  2  0  0  0
 16 11  1  0  0  0
  9  1  1  0  0  0
  8  4  1  0  0  0
  5 10  1  0  0  0
M  END
> <minimizedAffinity>
-6.04032

> <minimizedRMSD>
0.95161

$$$$
P33619


 19 21  0  0  0  0  0  0  0  0999 V2000
   -8.1269    4.5302  -16.2589 C   0  0  0  0  0  0  0  0  0  0  0  0
   -9.4576    4.2342  -16.6233 C   0  0  0  0  0  0  0  0  0  0  0  0
   -9.8495    4.0694  -17.9523 C   0  0  0  0  0  0  0  0  0  0  0  0
   -8.9241    4.1804  -18.9838 C   0  0  0  0  0  0  0  0  0  0  0  0
   -7.6127    4.4728  -18.6132 C   0  0  0  0  0  0  0  0  0  0  0  0
   -6.4910    4.6904  -19.3639 N   0  0  0  0  0  0  0  0  0  0  0  0
   -5.4397    4.9455  -18.5168 C   0  0  0  0  0  0  0  0  0  0  0  0
   -5.8323    4.8924  -17.2583 N   0  0  0  0  0  0  0  0  0  0  0  0
   -7.1885    4.6345  -17.3016 C   0  0  0  0  0  0  0  0  0  0  0  0
   -6.4444    4.6682  -20.3470 H   0  0  0  0  0  0  0  0  0  0  0  0
   -4.0927    5.1930  -19.0081 C   0  0  0  0  0  0  0  0  0  0  0  0
   -3.0515    4.3309  -18.6647 C   0  0  0  0  0  0  0  0  0  0  0  0
   -1.8295    4.5052  -19.2858 C   0  0  0  0  0  0  0  0  0  0  0  0
   -1.5895    5.4853  -20.1908 N   0  0  0  0  0  0  0  0  0  0  0  0
   -2.5767    6.3780  -20.4150 C   0  0  0  0  0  0  0  0  0  0  0  0
   -3.8385    6.2630  -19.8690 C   0  0  0  0  0  0  0  0  0  0  0  0
   -8.9625    4.6938  -14.0255 O   0  0  0  0  0  0  0  0  0  0  0  0
   -7.7727    4.6907  -14.8144 C   0  0  0  0  0  0  0  0  0  0  0  0
   -8.7296    4.7979  -13.0897 H   0  0  0  0  0  0  0  0  0  0  0  0
 17 18  1  0  0  0
 18  1  1  0  0  0
  1  2  2  0  0  0
  2  3  1  0  0  0
  3  4  2  0  0  0
  4  5  1  0  0  0
  5  6  1  0  0  0
  6  7  1  0  0  0
  7 11  1  0  0  0
 11 12  2  0  0  0
 12 13  1  0  0  0
 13 14  2  0  0  0
 14 15  1  0  0  0
 15 16  2  0  0  0
  7  8  2  0  0  0
  8  9  1  0  0  0
  9  1  1  0  0  0
  9  5  2  0  0  0
 16 11  1  0  0  0
 17 19  1  0  0  0
  6 10  1  0  0  0
M  END
> <minimizedAffinity>
-7.09520

> <minimizedRMSD>
0.72405

$$$$
P33662


 16 18  0  0  0  0  0  0  0  0999 V2000
   -9.3543    4.2600  -16.6269 C   0  0  0  0  0  0  0  0  0  0  0  0
   -9.4407    4.1892  -18.0103 C   0  0  0  0  0  0  0  0  0  0  0  0
   -8.2983    4.4016  -18.7816 C   0  0  0  0  0  0  0  0  0  0  0  0
   -7.0721    4.7079  -18.2051 C   0  0  0  0  0  0  0  0  0  0  0  0
   -5.9830    4.8944  -18.9734 N   0  0  0  0  0  0  0  0  0  0  0  0
   -4.7994    5.1428  -18.3693 C   0  0  0  0  0  0  0  0  0  0  0  0
   -4.6725    5.2759  -16.9925 C   0  0  0  0  0  0  0  0  0  0  0  0
   -5.7928    5.1031  -16.1996 C   0  0  0  0  0  0  0  0  0  0  0  0
   -7.0129    4.7999  -16.7987 C   0  0  0  0  0  0  0  0  0  0  0  0
   -8.1482    4.5715  -16.0161 C   0  0  0  0  0  0  0  0  0  0  0  0
   -3.6270    5.2252  -19.2379 C   0  0  0  0  0  0  0  0  0  0  0  0
   -2.5663    4.3200  -19.0948 C   0  0  0  0  0  0  0  0  0  0  0  0
   -1.4781    4.4217  -19.9374 C   0  0  0  0  0  0  0  0  0  0  0  0
   -1.3979    5.3315  -20.9319 N   0  0  0  0  0  0  0  0  0  0  0  0
   -2.3983    6.2379  -21.0205 C   0  0  0  0  0  0  0  0  0  0  0  0
   -3.5210    6.2158  -20.2150 C   0  0  0  0  0  0  0  0  0  0  0  0
  1  2  2  0  0  0
  2  3  1  0  0  0
  3  4  2  0  0  0
  4  5  1  0  0  0
  5  6  2  0  0  0
  6 11  1  0  0  0
 11 12  2  0  0  0
 12 13  1  0  0  0
 13 14  2  0  0  0
 14 15  1  0  0  0
 15 16  2  0  0  0
  6  7  1  0  0  0
  7  8  2  0  0  0
  8  9  1  0  0  0
  9 10  2  0  0  0
 10  1  1  0  0  0
  9  4  1  0  0  0
 16 11  1  0  0  0
M  END
> <minimizedAffinity>
-6.17424

> <minimizedRMSD>
0.66888

$$$$
P33684


 18 20  0  0  0  0  0  0  0  0999 V2000
   -4.6636    5.3472  -16.9743 C   0  0  0  0  0  0  0  0  0  0  0  0
   -5.8060    5.1770  -16.2063 C   0  0  0  0  0  0  0  0  0  0  0  0
   -7.0124    4.8326  -16.8173 C   0  0  0  0  0  0  0  0  0  0  0  0
   -8.1564    4.6100  -16.0446 C   0  0  0  0  0  0  0  0  0  0  0  0
   -9.3486    4.2602  -16.6613 C   0  0  0  0  0  0  0  0  0  0  0  0
   -9.4143    4.1466  -18.0423 C   0  0  0  0  0  0  0  0  0  0  0  0
   -8.2641    4.3532  -18.8028 C   0  0  0  0  0  0  0  0  0  0  0  0
   -7.0515    4.6968  -18.2184 C   0  0  0  0  0  0  0  0  0  0  0  0
   -5.9564    4.8799  -18.9742 N   0  0  0  0  0  0  0  0  0  0  0  0
   -4.7799    5.1730  -18.3606 C   0  0  0  0  0  0  0  0  0  0  0  0
   -3.6202    5.2429  -19.2578 C   0  0  0  0  0  0  0  0  0  0  0  0
   -3.4554    6.3124  -20.1402 C   0  0  0  0  0  0  0  0  0  0  0  0
   -2.3547    6.3233  -20.9765 C   0  0  0  0  0  0  0  0  0  0  0  0
   -1.4296    5.3365  -21.0087 N   0  0  0  0  0  0  0  0  0  0  0  0
   -1.5611    4.3443  -20.1023 C   0  0  0  0  0  0  0  0  0  0  0  0
   -2.6379    4.2432  -19.2459 C   0  0  0  0  0  0  0  0  0  0  0  0
   -2.9393    4.9232  -15.3799 C   0  0  0  0  0  0  0  0  0  0  0  0
   -3.4417    5.6984  -16.4611 O   0  0  0  0  0  0  0  0  0  0  0  0
 17 18  1  0  0  0
 18  1  1  0  0  0
  1  2  2  0  0  0
  2  3  1  0  0  0
  3  4  2  0  0  0
  4  5  1  0  0  0
  5  6  2  0  0  0
  6  7  1  0  0  0
  7  8  2  0  0  0
  8  9  1  0  0  0
  9 10  2  0  0  0
 10 11  1  0  0  0
 11 12  2  0  0  0
 12 13  1  0  0  0
 13 14  2  0  0  0
 14 15  1  0  0  0
 15 16  2  0  0  0
 10  1  1  0  0  0
 16 11  1  0  0  0
  8  3  1  0  0  0
M  END
> <minimizedAffinity>
-5.99135

> <minimizedRMSD>
0.67526

$$$$
P33712


 18 20  0  0  0  0  0  0  0  0999 V2000
   -5.6376    3.8952  -21.3698 O   0  0  0  0  0  0  0  0  0  0  0  0
   -6.1516    4.0737  -20.2744 C   0  0  0  0  0  0  0  0  0  0  0  0
   -7.4189    3.5829  -19.9101 N   0  0  0  0  0  0  0  0  0  0  0  0
   -7.6644    3.9123  -18.5885 C   0  0  0  0  0  0  0  0  0  0  0  0
   -8.7702    3.6449  -17.8281 C   0  0  0  0  0  0  0  0  0  0  0  0
   -8.7120    4.0166  -16.4834 C   0  0  0  0  0  0  0  0  0  0  0  0
   -7.5757    4.6458  -15.9436 C   0  0  0  0  0  0  0  0  0  0  0  0
   -6.4846    4.9538  -16.7565 C   0  0  0  0  0  0  0  0  0  0  0  0
   -6.5630    4.5904  -18.0859 C   0  0  0  0  0  0  0  0  0  0  0  0
   -5.6651    4.7876  -19.1481 N   0  0  0  0  0  0  0  0  0  0  0  0
   -8.0314    3.0861  -20.4994 H   0  0  0  0  0  0  0  0  0  0  0  0
   -4.4767    5.6209  -19.0306 C   0  0  0  0  0  0  0  0  0  0  0  0
   -4.2450    6.5555  -20.2320 C   0  0  0  0  0  0  0  0  0  0  0  0
   -2.9597    6.2235  -20.9850 C   0  0  0  0  0  0  0  0  0  0  0  0
   -2.6990    4.7222  -21.0847 C   0  0  0  0  0  0  0  0  0  0  0  0
   -2.7204    4.0072  -19.8121 N   0  0  0  0  0  0  0  0  0  0  0  0
   -3.2161    4.7973  -18.6952 C   0  0  0  0  0  0  0  0  0  0  0  0
   -1.7692    3.7089  -19.5963 H   0  0  0  0  0  0  0  0  0  0  0  0
  1  2  2  0  0  0
  2  3  1  0  0  0
  3  4  1  0  0  0
  4  5  2  0  0  0
  5  6  1  0  0  0
  6  7  2  0  0  0
  7  8  1  0  0  0
  8  9  2  0  0  0
  9 10  1  0  0  0
 12 10  1  0  0  0
 12 13  1  0  0  0
 13 14  1  0  0  0
 14 15  1  0  0  0
 15 16  1  0  0  0
 16 17  1  0  0  0
 10  2  1  0  0  0
 17 12  1  0  0  0
  9  4  1  0  0  0
  3 11  1  0  0  0
 16 18  1  0  0  0
M  END
> <minimizedAffinity>
-6.61769

> <minimizedRMSD>
0.75114

$$$$
P33726


 19 21  0  0  0  0  0  0  0  0999 V2000
   -5.7845    3.9084  -21.3591 O   0  0  0  0  0  0  0  0  0  0  0  0
   -6.0979    4.1558  -20.2047 C   0  0  0  0  0  0  0  0  0  0  0  0
   -7.3181    3.8058  -19.6141 N   0  0  0  0  0  0  0  0  0  0  0  0
   -7.3085    4.2084  -18.2854 C   0  0  0  0  0  0  0  0  0  0  0  0
   -8.3116    4.2088  -17.3543 C   0  0  0  0  0  0  0  0  0  0  0  0
   -9.9253    4.0371  -17.8600 Cl  0  0  0  0  0  0  0  0  0  0  0  0
   -7.9949    4.5610  -16.0428 C   0  0  0  0  0  0  0  0  0  0  0  0
   -6.7039    5.0092  -15.7185 C   0  0  0  0  0  0  0  0  0  0  0  0
   -5.7373    5.1574  -16.7165 C   0  0  0  0  0  0  0  0  0  0  0  0
   -6.0707    4.7523  -17.9953 C   0  0  0  0  0  0  0  0  0  0  0  0
   -5.3583    4.8394  -19.2044 N   0  0  0  0  0  0  0  0  0  0  0  0
   -8.0625    3.3483  -20.0677 H   0  0  0  0  0  0  0  0  0  0  0  0
   -4.2529    5.7772  -19.3820 C   0  0  0  0  0  0  0  0  0  0  0  0
   -4.1821    6.4341  -20.7733 C   0  0  0  0  0  0  0  0  0  0  0  0
   -3.0078    5.9164  -21.6030 C   0  0  0  0  0  0  0  0  0  0  0  0
   -2.6783    4.4497  -21.3356 C   0  0  0  0  0  0  0  0  0  0  0  0
   -2.4802    4.1073  -19.9263 N   0  0  0  0  0  0  0  0  0  0  0  0
   -2.9066    5.1464  -19.0011 C   0  0  0  0  0  0  0  0  0  0  0  0
   -1.4870    3.9307  -19.7753 H   0  0  0  0  0  0  0  0  0  0  0  0
  1  2  2  0  0  0
  2  3  1  0  0  0
  3  4  1  0  0  0
  4  5  2  0  0  0
  5  6  1  0  0  0
  5  7  1  0  0  0
  7  8  2  0  0  0
  8  9  1  0  0  0
  9 10  2  0  0  0
 10 11  1  0  0  0
 13 11  1  0  0  0
 13 14  1  0  0  0
 14 15  1  0  0  0
 15 16  1  0  0  0
 16 17  1  0  0  0
 17 18  1  0  0  0
 11  2  1  0  0  0
 18 13  1  0  0  0
 10  4  1  0  0  0
  3 12  1  0  0  0
 17 19  1  0  0  0
M  END
> <minimizedAffinity>
-6.68344

> <minimizedRMSD>
1.02661

$$$$
P33727


 20 22  0  0  0  0  0  0  0  0999 V2000
   -5.4126    4.3460  -21.5298 O   0  0  0  0  0  0  0  0  0  0  0  0
   -5.7092    4.5253  -20.3582 C   0  0  0  0  0  0  0  0  0  0  0  0
   -6.8148    3.9802  -19.7185 N   0  0  0  0  0  0  0  0  0  0  0  0
   -6.8220    4.4077  -18.3992 C   0  0  0  0  0  0  0  0  0  0  0  0
   -7.7640    4.1797  -17.4365 C   0  0  0  0  0  0  0  0  0  0  0  0
   -9.1155    3.2670  -17.8726 Cl  0  0  0  0  0  0  0  0  0  0  0  0
   -7.5414    4.6670  -16.1530 C   0  0  0  0  0  0  0  0  0  0  0  0
   -6.3590    5.3739  -15.8747 C   0  0  0  0  0  0  0  0  0  0  0  0
   -5.4269    5.6398  -16.8904 C   0  0  0  0  0  0  0  0  0  0  0  0
   -5.6977    5.1675  -18.1588 C   0  0  0  0  0  0  0  0  0  0  0  0
   -5.0202    5.3119  -19.3851 N   0  0  0  0  0  0  0  0  0  0  0  0
   -7.4831    3.3880  -20.1331 H   0  0  0  0  0  0  0  0  0  0  0  0
   -4.3522    6.5325  -19.7670 C   0  0  0  0  0  0  0  0  0  0  0  0
   -2.8170    6.5117  -19.8120 C   0  0  0  0  0  0  0  0  0  0  0  0
   -2.1706    6.3426  -18.4241 C   0  0  0  0  0  0  0  0  0  0  0  0
   -1.4473    5.0092  -18.2517 C   0  0  0  0  0  0  0  0  0  0  0  0
   -2.1634    3.8927  -18.9963 C   0  0  0  0  0  0  0  0  0  0  0  0
   -2.2365    4.1264  -20.4355 N   0  0  0  0  0  0  0  0  0  0  0  0
   -2.2249    5.5317  -20.8267 C   0  0  0  0  0  0  0  0  0  0  0  0
   -3.0996    3.7074  -20.7818 H   0  0  0  0  0  0  0  0  0  0  0  0
  1  2  2  0  0  0
  2  3  1  0  0  0
  3  4  1  0  0  0
  4  5  2  0  0  0
  5  6  1  0  0  0
  5  7  1  0  0  0
  7  8  2  0  0  0
  8  9  1  0  0  0
  9 10  2  0  0  0
 10 11  1  0  0  0
 11 13  1  0  0  0
 14 13  1  0  0  0
 14 15  1  0  0  0
 15 16  1  0  0  0
 16 17  1  0  0  0
 17 18  1  0  0  0
 18 19  1  0  0  0
 11  2  1  0  0  0
 19 14  1  0  0  0
 10  4  1  0  0  0
  3 12  1  0  0  0
 18 20  1  0  0  0
M  END
> <minimizedAffinity>
-6.44409

> <minimizedRMSD>
1.11622

$$$$
P33729


 19 21  0  0  0  0  0  0  0  0999 V2000
   -5.6417    3.9813  -21.2962 O   0  0  0  0  0  0  0  0  0  0  0  0
   -6.1967    4.1201  -20.2159 C   0  0  0  0  0  0  0  0  0  0  0  0
   -7.4544    3.5791  -19.8982 N   0  0  0  0  0  0  0  0  0  0  0  0
   -7.7458    3.8657  -18.5771 C   0  0  0  0  0  0  0  0  0  0  0  0
   -8.8684    3.5533  -17.8607 C   0  0  0  0  0  0  0  0  0  0  0  0
   -8.8536    3.8804  -16.5041 C   0  0  0  0  0  0  0  0  0  0  0  0
   -7.7380    4.5000  -15.9170 C   0  0  0  0  0  0  0  0  0  0  0  0
   -7.7336    4.8219  -14.0553 Br  0  0  0  0  0  0  0  0  0  0  0  0
   -6.6379    4.8770  -16.6834 C   0  0  0  0  0  0  0  0  0  0  0  0
   -6.6757    4.5569  -18.0246 C   0  0  0  0  0  0  0  0  0  0  0  0
   -5.7570    4.8129  -19.0579 N   0  0  0  0  0  0  0  0  0  0  0  0
   -8.0340    3.0775  -20.5160 H   0  0  0  0  0  0  0  0  0  0  0  0
   -4.6663    5.7745  -18.9120 C   0  0  0  0  0  0  0  0  0  0  0  0
   -4.2733    6.5065  -20.2082 C   0  0  0  0  0  0  0  0  0  0  0  0
   -2.9094    6.0636  -20.7394 C   0  0  0  0  0  0  0  0  0  0  0  0
   -2.6168    4.5869  -20.4841 C   0  0  0  0  0  0  0  0  0  0  0  0
   -2.7634    4.1629  -19.0900 N   0  0  0  0  0  0  0  0  0  0  0  0
   -3.4310    5.1452  -18.2470 C   0  0  0  0  0  0  0  0  0  0  0  0
   -1.8343    3.9881  -18.7070 H   0  0  0  0  0  0  0  0  0  0  0  0
  1  2  2  0  0  0
  2  3  1  0  0  0
  3  4  1  0  0  0
  4  5  2  0  0  0
  5  6  1  0  0  0
  6  7  2  0  0  0
  7  8  1  0  0  0
  7  9  1  0  0  0
  9 10  2  0  0  0
 10 11  1  0  0  0
 13 11  1  0  0  0
 13 14  1  0  0  0
 14 15  1  0  0  0
 15 16  1  0  0  0
 16 17  1  0  0  0
 17 18  1  0  0  0
 11  2  1  0  0  0
 18 13  1  0  0  0
 10  4  1  0  0  0
  3 12  1  0  0  0
 17 19  1  0  0  0
M  END
> <minimizedAffinity>
-6.74882

> <minimizedRMSD>
0.66838

$$$$
P33733


 20 22  0  0  0  0  0  0  0  0999 V2000
   -5.5981    4.1798  -21.3033 O   0  0  0  0  0  0  0  0  0  0  0  0
   -6.1799    4.2316  -20.2289 C   0  0  0  0  0  0  0  0  0  0  0  0
   -7.3686    3.5544  -19.9285 N   0  0  0  0  0  0  0  0  0  0  0  0
   -7.7311    3.8348  -18.6260 C   0  0  0  0  0  0  0  0  0  0  0  0
   -8.8503    3.4315  -17.9468 C   0  0  0  0  0  0  0  0  0  0  0  0
   -8.9274    3.7864  -16.6003 C   0  0  0  0  0  0  0  0  0  0  0  0
   -7.9008    4.5267  -15.9897 C   0  0  0  0  0  0  0  0  0  0  0  0
   -8.0030    4.8693  -14.1338 Br  0  0  0  0  0  0  0  0  0  0  0  0
   -6.8135    5.0019  -16.7256 C   0  0  0  0  0  0  0  0  0  0  0  0
   -6.7604    4.6482  -18.0578 C   0  0  0  0  0  0  0  0  0  0  0  0
   -5.8220    4.9848  -19.0610 N   0  0  0  0  0  0  0  0  0  0  0  0
   -7.8659    2.9718  -20.5470 H   0  0  0  0  0  0  0  0  0  0  0  0
   -5.4036    6.3702  -19.2185 C   0  0  0  0  0  0  0  0  0  0  0  0
   -3.9110    6.7048  -19.0978 C   0  0  0  0  0  0  0  0  0  0  0  0
   -3.1188    6.4814  -20.3907 C   0  0  0  0  0  0  0  0  0  0  0  0
   -2.1062    5.3498  -20.2737 C   0  0  0  0  0  0  0  0  0  0  0  0
   -2.6150    4.2251  -19.3889 C   0  0  0  0  0  0  0  0  0  0  0  0
   -2.9493    4.6249  -18.0222 N   0  0  0  0  0  0  0  0  0  0  0  0
   -3.2293    6.0489  -17.8897 C   0  0  0  0  0  0  0  0  0  0  0  0
   -2.1634    4.3917  -17.4153 H   0  0  0  0  0  0  0  0  0  0  0  0
  1  2  2  0  0  0
  2  3  1  0  0  0
  3  4  1  0  0  0
  4  5  2  0  0  0
  5  6  1  0  0  0
  6  7  2  0  0  0
  7  8  1  0  0  0
  7  9  1  0  0  0
  9 10  2  0  0  0
 10 11  1  0  0  0
 11 13  1  0  0  0
 14 13  1  0  0  0
 14 15  1  0  0  0
 15 16  1  0  0  0
 16 17  1  0  0  0
 17 18  1  0  0  0
 18 19  1  0  0  0
 11  2  1  0  0  0
 19 14  1  0  0  0
 10  4  1  0  0  0
  3 12  1  0  0  0
 18 20  1  0  0  0
M  END
> <minimizedAffinity>
-6.26222

> <minimizedRMSD>
0.66719

$$$$
P33744


 24 26  0  0  0  0  0  0  0  0999 V2000
   -4.5905    5.1449  -18.8860 C   0  0  0  0  0  0  0  0  0  0  0  0
   -5.9222    4.6304  -18.8020 N   0  0  0  0  0  0  0  0  0  0  0  0
   -6.6580    4.0472  -19.8570 C   0  0  0  0  0  0  0  0  0  0  0  0
   -6.2871    3.8518  -21.0059 O   0  0  0  0  0  0  0  0  0  0  0  0
   -7.9027    3.6824  -19.3111 N   0  0  0  0  0  0  0  0  0  0  0  0
   -7.9143    4.0046  -17.9578 C   0  0  0  0  0  0  0  0  0  0  0  0
   -8.9067    3.8303  -17.0233 C   0  0  0  0  0  0  0  0  0  0  0  0
   -8.6286    4.2323  -15.7062 C   0  0  0  0  0  0  0  0  0  0  0  0
   -7.3839    4.8134  -15.3680 C   0  0  0  0  0  0  0  0  0  0  0  0
   -6.3965    4.9939  -16.3515 C   0  0  0  0  0  0  0  0  0  0  0  0
   -6.6885    4.5778  -17.6325 C   0  0  0  0  0  0  0  0  0  0  0  0
   -8.6449    3.2666  -19.8066 H   0  0  0  0  0  0  0  0  0  0  0  0
   -7.1639    5.4727  -14.0429 C   0  0  0  0  0  0  0  0  0  0  0  0
   -6.5672    6.4754  -14.0726 O   0  0  0  0  0  0  0  0  0  0  0  0
   -7.8580    4.7567  -12.8654 N   0  0  0  0  0  0  0  0  0  0  0  0
   -8.2342    3.8735  -13.0841 H   0  0  0  0  0  0  0  0  0  0  0  0
   -8.0453    5.1706  -11.4973 C   0  0  0  0  0  0  0  0  0  0  0  0
   -7.9376    4.1446  -10.3579 C   0  0  0  0  0  0  0  0  0  0  0  0
   -8.9168    2.9792  -10.4693 C   0  0  0  0  0  0  0  0  0  0  0  0
   -8.9487    2.1485   -9.1871 C   0  0  0  0  0  0  0  0  0  0  0  0
   -9.1593    2.9911   -7.9357 C   0  0  0  0  0  0  0  0  0  0  0  0
   -8.2240    4.1099   -7.8382 N   0  0  0  0  0  0  0  0  0  0  0  0
   -8.1961    4.9219   -9.0443 C   0  0  0  0  0  0  0  0  0  0  0  0
   -7.2882    3.7399   -7.6717 H   0  0  0  0  0  0  0  0  0  0  0  0
  1  2  1  0  0  0
  2  3  1  0  0  0
  3  4  2  0  0  0
  3  5  1  0  0  0
  5  6  1  0  0  0
  6  7  2  0  0  0
  7  8  1  0  0  0
  8  9  2  0  0  0
  9 13  1  0  0  0
 13 14  2  0  0  0
 13 15  1  0  0  0
 15 17  1  0  0  0
 18 17  1  0  0  0
 18 19  1  0  0  0
 19 20  1  0  0  0
 20 21  1  0  0  0
 21 22  1  0  0  0
 22 23  1  0  0  0
  9 10  1  0  0  0
 10 11  2  0  0  0
 11  2  1  0  0  0
 11  6  1  0  0  0
 23 18  1  0  0  0
  5 12  1  0  0  0
 15 16  1  0  0  0
 22 24  1  0  0  0
M  END
> <minimizedAffinity>
-7.18541

> <minimizedRMSD>
0.27816

$$$$
P33845


 24 27  0  0  0  0  0  0  0  0999 V2000
   -6.0648   11.2744  -23.4618 C   0  0  0  0  0  0  0  0  0  0  0  0
   -3.4861    6.4114  -20.4891 C   0  0  0  0  0  0  0  0  0  0  0  0
   -4.5803    6.7344  -19.7080 C   0  0  0  0  0  0  0  0  0  0  0  0
   -5.4304    7.7758  -20.0872 C   0  0  0  0  0  0  0  0  0  0  0  0
   -5.1868    8.5542  -21.2125 C   0  0  0  0  0  0  0  0  0  0  0  0
   -5.9441    9.6237  -21.6182 N   0  0  0  0  0  0  0  0  0  0  0  0
   -5.4447   10.1187  -22.7240 C   0  0  0  0  0  0  0  0  0  0  0  0
   -4.0060    9.3609  -23.2894 S   0  0  0  0  0  0  0  0  0  0  0  0
   -4.0713    8.2406  -21.9839 C   0  0  0  0  0  0  0  0  0  0  0  0
   -3.2241    7.1610  -21.6478 C   0  0  0  0  0  0  0  0  0  0  0  0
   -2.9165    4.6083  -19.0527 C   0  0  0  0  0  0  0  0  0  0  0  0
   -2.6344    5.3668  -20.2294 O   0  0  0  0  0  0  0  0  0  0  0  0
   -6.1043   11.1446  -24.9194 N   0  0  0  0  0  0  0  0  0  0  0  0
   -5.4695   11.6652  -25.4628 H   0  0  0  0  0  0  0  0  0  0  0  0
   -6.9859   10.3317  -25.5406 C   0  0  0  0  0  0  0  0  0  0  0  0
   -6.8160    9.0542  -25.7702 N   0  0  0  0  0  0  0  0  0  0  0  0
   -7.9067    8.6597  -26.5055 C   0  0  0  0  0  0  0  0  0  0  0  0
   -8.2331    7.3986  -27.0200 C   0  0  0  0  0  0  0  0  0  0  0  0
   -9.3999    7.2686  -27.7813 C   0  0  0  0  0  0  0  0  0  0  0  0
  -10.2404    8.3632  -28.0015 C   0  0  0  0  0  0  0  0  0  0  0  0
   -9.9395    9.6280  -27.4834 C   0  0  0  0  0  0  0  0  0  0  0  0
   -8.7566    9.7341  -26.7478 C   0  0  0  0  0  0  0  0  0  0  0  0
   -8.1408   10.7867  -26.1190 N   0  0  0  0  0  0  0  0  0  0  0  0
   -8.4732   11.7129  -26.0888 H   0  0  0  0  0  0  0  0  0  0  0  0
 11 12  1  0  0  0
 12  2  1  0  0  0
  2  3  2  0  0  0
  3  4  1  0  0  0
  4  5  2  0  0  0
  5  6  1  0  0  0
  6  7  2  0  0  0
  7  1  1  0  0  0
  1 13  1  0  0  0
 13 15  1  0  0  0
 15 16  2  0  0  0
 16 17  1  0  0  0
 17 18  2  0  0  0
 18 19  1  0  0  0
 19 20  2  0  0  0
 20 21  1  0  0  0
 21 22  2  0  0  0
 22 23  1  0  0  0
  7  8  1  0  0  0
  8  9  1  0  0  0
  9 10  2  0  0  0
 10  2  1  0  0  0
  9  5  1  0  0  0
 23 15  1  0  0  0
 22 17  1  0  0  0
 13 14  1  0  0  0
 23 24  1  0  0  0
M  END
> <minimizedAffinity>
-3.83136

> <minimizedRMSD>
1.23201

$$$$
P34088


 22 24  0  0  0  0  0  0  0  0999 V2000
   -9.8603    6.2605  -14.1980 O   0  0  0  0  0  0  0  0  0  0  0  0
   -8.7005    6.1660  -14.1292 C   0  0  0  0  0  0  0  0  0  0  0  0
   -7.7482    6.3783  -12.9309 N   0  0  0  0  0  0  0  0  0  0  0  0
   -6.7904    6.3117  -13.1487 H   0  0  0  0  0  0  0  0  0  0  0  0
   -7.8905    5.7120  -15.3369 C   0  0  0  0  0  0  0  0  0  0  0  0
   -6.6421    6.2289  -15.4028 N   0  0  0  0  0  0  0  0  0  0  0  0
   -5.9683    5.9484  -16.5303 C   0  0  0  0  0  0  0  0  0  0  0  0
   -6.4807    5.2019  -17.5646 C   0  0  0  0  0  0  0  0  0  0  0  0
   -5.4828    4.9792  -19.1156 Br  0  0  0  0  0  0  0  0  0  0  0  0
   -7.7421    4.6888  -17.3855 C   0  0  0  0  0  0  0  0  0  0  0  0
   -8.4710    4.9292  -16.2740 N   0  0  0  0  0  0  0  0  0  0  0  0
   -8.0338    6.6574  -11.5482 C   0  0  0  0  0  0  0  0  0  0  0  0
   -8.1008    5.4110  -10.6964 C   0  0  0  0  0  0  0  0  0  0  0  0
   -8.2806    4.1380  -11.2740 C   0  0  0  0  0  0  0  0  0  0  0  0
   -8.4204    2.9997  -10.4907 C   0  0  0  0  0  0  0  0  0  0  0  0
   -8.3664    3.1233   -9.1225 C   0  0  0  0  0  0  0  0  0  0  0  0
   -8.1906    4.3650   -8.5269 C   0  0  0  0  0  0  0  0  0  0  0  0
   -8.0486    5.5153   -9.2925 C   0  0  0  0  0  0  0  0  0  0  0  0
   -8.1985    4.1779   -7.0456 C   0  0  0  0  0  0  0  0  0  0  0  0
   -8.7493    2.8174   -6.8203 N   0  0  0  0  0  0  0  0  0  0  0  0
   -8.4608    2.0699   -8.0729 C   0  0  0  0  0  0  0  0  0  0  0  0
   -9.7545    2.8613   -6.6530 H   0  0  0  0  0  0  0  0  0  0  0  0
  1  2  2  0  0  0
  2  3  1  0  0  0
  3 12  1  0  0  0
 12 13  1  0  0  0
 13 14  2  0  0  0
 14 15  1  0  0  0
 15 16  2  0  0  0
 16 17  1  0  0  0
 17 18  2  0  0  0
 17 19  1  0  0  0
 19 20  1  0  0  0
 20 21  1  0  0  0
  2  5  1  0  0  0
  5  6  2  0  0  0
  6  7  1  0  0  0
  7  8  2  0  0  0
  8  9  1  0  0  0
  8 10  1  0  0  0
 10 11  2  0  0  0
 18 13  1  0  0  0
 11  5  1  0  0  0
 21 16  1  0  0  0
  3  4  1  0  0  0
 20 22  1  0  0  0
M  END
> <minimizedAffinity>
-6.28657

> <minimizedRMSD>
0.56693

$$$$
P34089


 22 24  0  0  0  0  0  0  0  0999 V2000
   -8.1333    4.1362  -14.8358 N   0  0  0  0  0  0  0  0  0  0  0  0
   -8.2056    3.2789  -14.3571 H   0  0  0  0  0  0  0  0  0  0  0  0
   -7.4656    4.5026  -18.2915 C   0  0  0  0  0  0  0  0  0  0  0  0
   -8.6892    4.4149  -18.8962 C   0  0  0  0  0  0  0  0  0  0  0  0
   -9.7448    4.3165  -18.0254 C   0  0  0  0  0  0  0  0  0  0  0  0
   -9.6104    4.2967  -16.6801 N   0  0  0  0  0  0  0  0  0  0  0  0
   -8.3651    4.3039  -16.2043 C   0  0  0  0  0  0  0  0  0  0  0  0
   -7.2810    4.4215  -16.9651 N   0  0  0  0  0  0  0  0  0  0  0  0
   -6.3545    4.6404  -19.0915 O   0  0  0  0  0  0  0  0  0  0  0  0
   -4.0058    4.9692  -18.4402 C   0  0  0  0  0  0  0  0  0  0  0  0
   -5.4003    5.5560  -18.5553 C   0  0  0  0  0  0  0  0  0  0  0  0
   -7.7702    5.4028  -14.2148 C   0  0  0  0  0  0  0  0  0  0  0  0
   -6.3273    5.7877  -14.5005 C   0  0  0  0  0  0  0  0  0  0  0  0
   -6.0284    7.0750  -14.9970 C   0  0  0  0  0  0  0  0  0  0  0  0
   -4.7143    7.4606  -15.2790 C   0  0  0  0  0  0  0  0  0  0  0  0
   -3.7074    6.5365  -15.0824 C   0  0  0  0  0  0  0  0  0  0  0  0
   -3.9877    5.2611  -14.6058 C   0  0  0  0  0  0  0  0  0  0  0  0
   -5.2819    4.8715  -14.2991 C   0  0  0  0  0  0  0  0  0  0  0  0
   -2.7139    4.4949  -14.4812 C   0  0  0  0  0  0  0  0  0  0  0  0
   -1.7041    5.2831  -15.2360 N   0  0  0  0  0  0  0  0  0  0  0  0
   -2.2377    6.6694  -15.2950 C   0  0  0  0  0  0  0  0  0  0  0  0
   -1.5893    4.9059  -16.1767 H   0  0  0  0  0  0  0  0  0  0  0  0
 10 11  1  0  0  0
 11  9  1  0  0  0
  9  3  1  0  0  0
  3  4  2  0  0  0
  4  5  1  0  0  0
  5  6  2  0  0  0
  6  7  1  0  0  0
  7  1  1  0  0  0
  1 12  1  0  0  0
 12 13  1  0  0  0
 13 14  2  0  0  0
 14 15  1  0  0  0
 15 16  2  0  0  0
 16 17  1  0  0  0
 17 18  2  0  0  0
 17 19  1  0  0  0
 19 20  1  0  0  0
 20 21  1  0  0  0
  7  8  2  0  0  0
  8  3  1  0  0  0
 18 13  1  0  0  0
 21 16  1  0  0  0
  1  2  1  0  0  0
 20 22  1  0  0  0
M  END
> <minimizedAffinity>
-5.09761

> <minimizedRMSD>
1.55258

$$$$
P34104


 18 19  0  0  0  0  0  0  0  0999 V2000
   -8.4117    4.8324  -13.5989 N   0  0  0  0  0  0  0  0  0  0  0  0
   -9.2959    4.8248  -14.0318 H   0  0  0  0  0  0  0  0  0  0  0  0
   -8.2987    7.1243  -11.6581 C   0  0  0  0  0  0  0  0  0  0  0  0
   -8.1984    5.6778  -11.2865 C   0  0  0  0  0  0  0  0  0  0  0  0
   -8.0585    5.3428   -9.9390 C   0  0  0  0  0  0  0  0  0  0  0  0
   -7.9971    4.0850   -9.4553 N   0  0  0  0  0  0  0  0  0  0  0  0
   -8.0697    3.0946  -10.3671 C   0  0  0  0  0  0  0  0  0  0  0  0
   -8.1977    3.3151  -11.7297 C   0  0  0  0  0  0  0  0  0  0  0  0
   -8.2582    4.6282  -12.2134 C   0  0  0  0  0  0  0  0  0  0  0  0
   -7.1770    5.0570  -14.3593 C   0  0  0  0  0  0  0  0  0  0  0  0
   -7.3109    4.4209  -15.7464 C   0  0  0  0  0  0  0  0  0  0  0  0
   -8.7290    4.4638  -16.2902 C   0  0  0  0  0  0  0  0  0  0  0  0
   -8.8335    3.6985  -17.5974 C   0  0  0  0  0  0  0  0  0  0  0  0
   -7.6761    3.8759  -18.5423 C   0  0  0  0  0  0  0  0  0  0  0  0
   -7.6845    3.3604  -19.6561 O   0  0  0  0  0  0  0  0  0  0  0  0
   -6.5738    4.5464  -18.0987 N   0  0  0  0  0  0  0  0  0  0  0  0
   -6.3827    5.0690  -16.7647 C   0  0  0  0  0  0  0  0  0  0  0  0
   -5.8440    4.6867  -18.7444 H   0  0  0  0  0  0  0  0  0  0  0  0
  3  4  1  0  0  0
  4  5  2  0  0  0
  5  6  1  0  0  0
  6  7  2  0  0  0
  7  8  1  0  0  0
  8  9  2  0  0  0
  9  1  1  0  0  0
  1 10  1  0  0  0
 11 10  1  0  0  0
 11 12  1  0  0  0
 12 13  1  0  0  0
 13 14  1  0  0  0
 14 15  2  0  0  0
 14 16  1  0  0  0
 16 17  1  0  0  0
  9  4  1  0  0  0
 17 11  1  0  0  0
  1  2  1  0  0  0
 16 18  1  0  0  0
M  END
> <minimizedAffinity>
-5.73307

> <minimizedRMSD>
0.60563

$$$$
P34105


 19 20  0  0  0  0  0  0  0  0999 V2000
   -8.3421    5.1687  -13.4901 N   0  0  0  0  0  0  0  0  0  0  0  0
   -9.2803    5.2622  -13.7734 H   0  0  0  0  0  0  0  0  0  0  0  0
   -6.8610    3.3027  -10.6762 C   0  0  0  0  0  0  0  0  0  0  0  0
   -7.2541    3.6232  -11.9725 C   0  0  0  0  0  0  0  0  0  0  0  0
   -7.9693    4.7933  -12.1901 C   0  0  0  0  0  0  0  0  0  0  0  0
   -8.2630    5.6068  -11.1007 C   0  0  0  0  0  0  0  0  0  0  0  0
   -7.8468    5.2070   -9.8433 C   0  0  0  0  0  0  0  0  0  0  0  0
   -7.1518    4.0803   -9.6058 N   0  0  0  0  0  0  0  0  0  0  0  0
   -4.7135    2.1468  -11.1703 C   0  0  0  0  0  0  0  0  0  0  0  0
   -6.0439    2.0693  -10.4310 C   0  0  0  0  0  0  0  0  0  0  0  0
   -7.2077    5.4091  -14.3888 C   0  0  0  0  0  0  0  0  0  0  0  0
   -7.3419    4.6072  -15.6899 C   0  0  0  0  0  0  0  0  0  0  0  0
   -8.7521    4.5247  -16.2519 C   0  0  0  0  0  0  0  0  0  0  0  0
   -8.8055    3.6593  -17.4974 C   0  0  0  0  0  0  0  0  0  0  0  0
   -7.6855    3.8674  -18.4769 C   0  0  0  0  0  0  0  0  0  0  0  0
   -7.7162    3.3621  -19.5945 O   0  0  0  0  0  0  0  0  0  0  0  0
   -6.5793    4.5405  -18.0538 N   0  0  0  0  0  0  0  0  0  0  0  0
   -6.4110    5.1640  -16.7641 C   0  0  0  0  0  0  0  0  0  0  0  0
   -5.8270    4.6075  -18.6853 H   0  0  0  0  0  0  0  0  0  0  0  0
  9 10  1  0  0  0
 10  3  1  0  0  0
  3  4  2  0  0  0
  4  5  1  0  0  0
  5  1  1  0  0  0
  1 11  1  0  0  0
 12 11  1  0  0  0
 12 13  1  0  0  0
 13 14  1  0  0  0
 14 15  1  0  0  0
 15 16  2  0  0  0
 15 17  1  0  0  0
 17 18  1  0  0  0
  5  6  2  0  0  0
  6  7  1  0  0  0
  7  8  2  0  0  0
  8  3  1  0  0  0
 18 12  1  0  0  0
  1  2  1  0  0  0
 17 19  1  0  0  0
M  END
> <minimizedAffinity>
-5.36801

> <minimizedRMSD>
1.03188

$$$$
P34106


 21 22  0  0  0  0  0  0  0  0999 V2000
   -8.3999    4.6220  -13.5867 N   0  0  0  0  0  0  0  0  0  0  0  0
   -9.2722    4.4578  -14.0125 H   0  0  0  0  0  0  0  0  0  0  0  0
   -8.2272    4.4449  -12.2100 C   0  0  0  0  0  0  0  0  0  0  0  0
   -8.1303    3.1562  -11.6874 C   0  0  0  0  0  0  0  0  0  0  0  0
   -8.0238    2.9851  -10.3180 C   0  0  0  0  0  0  0  0  0  0  0  0
   -8.0408    4.0063   -9.4355 N   0  0  0  0  0  0  0  0  0  0  0  0
   -8.1669    5.2653   -9.9403 C   0  0  0  0  0  0  0  0  0  0  0  0
   -8.2445    5.5117  -11.3145 C   0  0  0  0  0  0  0  0  0  0  0  0
   -8.2068    6.4353   -8.9713 C   0  0  0  0  0  0  0  0  0  0  0  0
   -7.0661    7.1872   -9.0014 F   0  0  0  0  0  0  0  0  0  0  0  0
   -9.2201    7.3170   -9.2311 F   0  0  0  0  0  0  0  0  0  0  0  0
   -8.3730    6.0637   -7.6676 F   0  0  0  0  0  0  0  0  0  0  0  0
   -7.2467    5.0587  -14.3772 C   0  0  0  0  0  0  0  0  0  0  0  0
   -7.6431    3.3610  -19.6834 O   0  0  0  0  0  0  0  0  0  0  0  0
   -7.6539    3.8728  -18.5680 C   0  0  0  0  0  0  0  0  0  0  0  0
   -8.8196    3.6749  -17.6368 C   0  0  0  0  0  0  0  0  0  0  0  0
   -8.7437    4.4463  -16.3318 C   0  0  0  0  0  0  0  0  0  0  0  0
   -7.3326    4.4252  -15.7693 C   0  0  0  0  0  0  0  0  0  0  0  0
   -6.3956    5.0814  -16.7723 C   0  0  0  0  0  0  0  0  0  0  0  0
   -6.5669    4.5600  -18.1106 N   0  0  0  0  0  0  0  0  0  0  0  0
   -5.8335    4.7147  -18.7490 H   0  0  0  0  0  0  0  0  0  0  0  0
 14 15  2  0  0  0
 15 16  1  0  0  0
 16 17  1  0  0  0
 17 18  1  0  0  0
 18 13  1  0  0  0
 13  1  1  0  0  0
  1  3  1  0  0  0
  3  4  2  0  0  0
  4  5  1  0  0  0
  5  6  2  0  0  0
  6  7  1  0  0  0
  7  9  1  0  0  0
  9 10  1  0  0  0
  9 11  1  0  0  0
  9 12  1  0  0  0
  7  8  2  0  0  0
 18 19  1  0  0  0
 19 20  1  0  0  0
 20 15  1  0  0  0
  8  3  1  0  0  0
  1  2  1  0  0  0
 20 21  1  0  0  0
M  END
> <minimizedAffinity>
-6.00615

> <minimizedRMSD>
0.74439

$$$$
P34109


 19 20  0  0  0  0  0  0  0  0999 V2000
   -7.8566    4.1949  -13.3061 N   0  0  0  0  0  0  0  0  0  0  0  0
   -8.0986    3.2903  -13.7107 H   0  0  0  0  0  0  0  0  0  0  0  0
   -7.6407    3.9915  -11.8758 C   0  0  0  0  0  0  0  0  0  0  0  0
   -8.2387    5.1213  -11.0348 C   0  0  0  0  0  0  0  0  0  0  0  0
   -8.0399    4.8678   -9.5492 C   0  0  0  0  0  0  0  0  0  0  0  0
   -8.4800    3.4949   -9.0974 C   0  0  0  0  0  0  0  0  0  0  0  0
   -8.8728    3.2943   -7.9502 O   0  0  0  0  0  0  0  0  0  0  0  0
   -8.2993    2.4779   -9.9918 N   0  0  0  0  0  0  0  0  0  0  0  0
   -8.2964    2.6687  -11.4302 C   0  0  0  0  0  0  0  0  0  0  0  0
   -8.1640    1.5677   -9.6418 H   0  0  0  0  0  0  0  0  0  0  0  0
   -6.3316    6.1488  -13.6561 C   0  0  0  0  0  0  0  0  0  0  0  0
   -6.7427    4.7406  -14.0847 C   0  0  0  0  0  0  0  0  0  0  0  0
   -7.0056    4.7420  -15.6028 C   0  0  0  0  0  0  0  0  0  0  0  0
   -5.9346    5.0288  -16.4596 C   0  0  0  0  0  0  0  0  0  0  0  0
   -6.1225    4.9963  -17.8370 C   0  0  0  0  0  0  0  0  0  0  0  0
   -7.3713    4.6679  -18.3337 C   0  0  0  0  0  0  0  0  0  0  0  0
   -8.3874    4.4355  -17.4262 C   0  0  0  0  0  0  0  0  0  0  0  0
   -9.9747    4.1606  -18.0112 Cl  0  0  0  0  0  0  0  0  0  0  0  0
   -8.2556    4.5001  -16.0787 N   0  0  0  0  0  0  0  0  0  0  0  0
 12 11  1  0  0  0
 12  1  1  0  0  0
  3  1  1  0  0  0
  3  4  1  0  0  0
  4  5  1  0  0  0
  5  6  1  0  0  0
  6  7  2  0  0  0
  6  8  1  0  0  0
  8  9  1  0  0  0
 12 13  1  0  0  0
 13 14  2  0  0  0
 14 15  1  0  0  0
 15 16  2  0  0  0
 16 17  1  0  0  0
 17 18  1  0  0  0
 17 19  2  0  0  0
  9  3  1  0  0  0
 19 13  1  0  0  0
  1  2  1  0  0  0
  8 10  1  0  0  0
M  END
> <minimizedAffinity>
-6.18880

> <minimizedRMSD>
0.38139

$$$$
P34110


 19 20  0  0  0  0  0  0  0  0999 V2000
   -7.1824    3.7690  -13.1893 N   0  0  0  0  0  0  0  0  0  0  0  0
   -6.2971    3.3056  -12.9847 H   0  0  0  0  0  0  0  0  0  0  0  0
   -7.8995    3.9244  -11.9177 C   0  0  0  0  0  0  0  0  0  0  0  0
   -7.0718    4.5190  -10.7741 C   0  0  0  0  0  0  0  0  0  0  0  0
   -7.8868    4.6289   -9.4953 C   0  0  0  0  0  0  0  0  0  0  0  0
   -8.6229    3.3662   -9.1156 C   0  0  0  0  0  0  0  0  0  0  0  0
   -8.9685    3.1542   -7.9544 O   0  0  0  0  0  0  0  0  0  0  0  0
   -8.9951    2.5377  -10.1329 N   0  0  0  0  0  0  0  0  0  0  0  0
   -8.3964    2.5390  -11.4512 C   0  0  0  0  0  0  0  0  0  0  0  0
   -9.7202    1.8949   -9.9590 H   0  0  0  0  0  0  0  0  0  0  0  0
   -5.4325    5.4102  -13.6492 C   0  0  0  0  0  0  0  0  0  0  0  0
   -6.8741    4.9845  -13.9546 C   0  0  0  0  0  0  0  0  0  0  0  0
   -7.0566    4.8048  -15.4735 C   0  0  0  0  0  0  0  0  0  0  0  0
   -8.3144    4.5046  -15.9770 C   0  0  0  0  0  0  0  0  0  0  0  0
   -8.4806    4.4241  -17.3540 C   0  0  0  0  0  0  0  0  0  0  0  0
  -10.0594    4.2508  -17.9992 Cl  0  0  0  0  0  0  0  0  0  0  0  0
   -7.4098    4.6019  -18.2100 C   0  0  0  0  0  0  0  0  0  0  0  0
   -6.1941    4.8975  -17.6366 C   0  0  0  0  0  0  0  0  0  0  0  0
   -6.0022    5.0251  -16.3035 N   0  0  0  0  0  0  0  0  0  0  0  0
 12 11  1  0  0  0
 12  1  1  0  0  0
  3  1  1  0  0  0
  3  4  1  0  0  0
  4  5  1  0  0  0
  5  6  1  0  0  0
  6  7  2  0  0  0
  6  8  1  0  0  0
  8  9  1  0  0  0
 12 13  1  0  0  0
 13 14  2  0  0  0
 14 15  1  0  0  0
 15 16  1  0  0  0
 15 17  2  0  0  0
 17 18  1  0  0  0
 18 19  2  0  0  0
  9  3  1  0  0  0
 19 13  1  0  0  0
  1  2  1  0  0  0
  8 10  1  0  0  0
M  END
> <minimizedAffinity>
-6.08891

> <minimizedRMSD>
0.53527

$$$$
P34111


 20 21  0  0  0  0  0  0  0  0999 V2000
   -8.0263    4.4178  -13.5015 N   0  0  0  0  0  0  0  0  0  0  0  0
   -7.0634    5.1561  -14.4792 C   0  0  0  0  0  0  0  0  0  0  0  0
   -6.1579    5.8681  -14.2604 O   0  0  0  0  0  0  0  0  0  0  0  0
   -8.6680    3.8101  -13.9354 H   0  0  0  0  0  0  0  0  0  0  0  0
   -7.4844    4.9357  -15.9440 C   0  0  0  0  0  0  0  0  0  0  0  0
   -8.4924    3.8747  -16.3211 C   0  0  0  0  0  0  0  0  0  0  0  0
   -8.8447    3.9070  -17.7964 C   0  0  0  0  0  0  0  0  0  0  0  0
   -7.6316    3.9328  -18.6796 C   0  0  0  0  0  0  0  0  0  0  0  0
   -7.6314    3.4019  -19.7840 O   0  0  0  0  0  0  0  0  0  0  0  0
   -6.5437    4.6265  -18.2247 N   0  0  0  0  0  0  0  0  0  0  0  0
   -6.2438    4.8232  -16.8200 C   0  0  0  0  0  0  0  0  0  0  0  0
   -5.9295    5.0142  -18.8892 H   0  0  0  0  0  0  0  0  0  0  0  0
   -8.1850    5.6269  -11.2995 C   0  0  0  0  0  0  0  0  0  0  0  0
   -8.2202    5.4580   -9.8978 C   0  0  0  0  0  0  0  0  0  0  0  0
   -8.2419    4.1863   -9.3541 C   0  0  0  0  0  0  0  0  0  0  0  0
   -8.2515    3.0757  -10.1012 N   0  0  0  0  0  0  0  0  0  0  0  0
   -8.1970    3.2470  -11.4404 C   0  0  0  0  0  0  0  0  0  0  0  0
   -8.1277    4.4783  -12.1018 C   0  0  0  0  0  0  0  0  0  0  0  0
   -7.0855    7.8873  -11.4931 C   0  0  0  0  0  0  0  0  0  0  0  0
   -8.3163    7.0435  -11.7965 C   0  0  0  0  0  0  0  0  0  0  0  0
 19 20  1  0  0  0
 20 13  1  0  0  0
 13 14  2  0  0  0
 14 15  1  0  0  0
 15 16  2  0  0  0
 16 17  1  0  0  0
 17 18  2  0  0  0
 18  1  1  0  0  0
  1  2  1  0  0  0
  2  3  2  0  0  0
  5  2  1  0  0  0
  5  6  1  0  0  0
  6  7  1  0  0  0
  7  8  1  0  0  0
  8  9  2  0  0  0
  8 10  1  0  0  0
 10 11  1  0  0  0
 18 13  1  0  0  0
 11  5  1  0  0  0
  1  4  1  0  0  0
 10 12  1  0  0  0
M  END
> <minimizedAffinity>
-5.77406

> <minimizedRMSD>
0.39446

$$$$
P34118


 21 22  0  0  0  0  0  0  0  0999 V2000
   -7.7581    4.2250  -13.9286 N   0  0  0  0  0  0  0  0  0  0  0  0
   -7.0983    5.2620  -14.8825 C   0  0  0  0  0  0  0  0  0  0  0  0
   -6.4718    6.2229  -14.6428 O   0  0  0  0  0  0  0  0  0  0  0  0
   -8.1711    3.4538  -14.3802 H   0  0  0  0  0  0  0  0  0  0  0  0
   -7.4110    4.9409  -16.3520 C   0  0  0  0  0  0  0  0  0  0  0  0
   -8.3106    3.7833  -16.7183 C   0  0  0  0  0  0  0  0  0  0  0  0
   -8.6591    3.7866  -18.1954 C   0  0  0  0  0  0  0  0  0  0  0  0
   -7.4495    3.9370  -19.0750 C   0  0  0  0  0  0  0  0  0  0  0  0
   -7.4142    3.4477  -20.1985 O   0  0  0  0  0  0  0  0  0  0  0  0
   -6.4088    4.6877  -18.5970 N   0  0  0  0  0  0  0  0  0  0  0  0
   -6.1459    4.9208  -17.1887 C   0  0  0  0  0  0  0  0  0  0  0  0
   -5.7982    5.0965  -19.2523 H   0  0  0  0  0  0  0  0  0  0  0  0
   -8.1840    4.0880   -9.8050 C   0  0  0  0  0  0  0  0  0  0  0  0
   -8.1810    5.3270  -10.4296 C   0  0  0  0  0  0  0  0  0  0  0  0
   -8.0150    5.3857  -11.8129 C   0  0  0  0  0  0  0  0  0  0  0  0
   -7.8593    4.2104  -12.5386 C   0  0  0  0  0  0  0  0  0  0  0  0
   -7.8513    3.0189  -11.8275 C   0  0  0  0  0  0  0  0  0  0  0  0
   -8.0059    2.9380  -10.4858 N   0  0  0  0  0  0  0  0  0  0  0  0
   -8.4698    4.0276   -8.0462 S   0  0  0  0  0  0  0  0  0  0  0  0
   -9.8459    2.1651   -6.5305 C   0  0  0  0  0  0  0  0  0  0  0  0
   -9.2952    2.4096   -7.9070 C   0  0  0  0  0  0  0  0  0  0  0  0
 20 21  1  0  0  0
 21 19  1  0  0  0
 19 13  1  0  0  0
 13 14  2  0  0  0
 14 15  1  0  0  0
 15 16  2  0  0  0
 16  1  1  0  0  0
  1  2  1  0  0  0
  2  3  2  0  0  0
  5  2  1  0  0  0
  5  6  1  0  0  0
  6  7  1  0  0  0
  7  8  1  0  0  0
  8  9  2  0  0  0
  8 10  1  0  0  0
 10 11  1  0  0  0
 16 17  1  0  0  0
 17 18  2  0  0  0
 18 13  1  0  0  0
 11  5  1  0  0  0
  1  4  1  0  0  0
 10 12  1  0  0  0
M  END
> <minimizedAffinity>
-6.24503

> <minimizedRMSD>
0.75370

$$$$
P34212


 23 25  0  0  0  0  0  0  0  0999 V2000
   -5.2744    5.0698  -15.0946 C   0  0  0  0  0  0  0  0  0  0  0  0
   -4.6856    5.1455  -16.3362 C   0  0  0  0  0  0  0  0  0  0  0  0
   -5.3647    5.0173  -17.4973 N   0  0  0  0  0  0  0  0  0  0  0  0
   -6.6884    4.7606  -17.4471 C   0  0  0  0  0  0  0  0  0  0  0  0
   -7.3854    4.5997  -18.6352 C   0  0  0  0  0  0  0  0  0  0  0  0
   -8.7538    4.3178  -18.6586 C   0  0  0  0  0  0  0  0  0  0  0  0
   -9.4572    4.1985  -17.4703 C   0  0  0  0  0  0  0  0  0  0  0  0
   -8.7866    4.3610  -16.2617 C   0  0  0  0  0  0  0  0  0  0  0  0
   -7.3979    4.6424  -16.2347 C   0  0  0  0  0  0  0  0  0  0  0  0
   -6.6425    4.8143  -15.0572 C   0  0  0  0  0  0  0  0  0  0  0  0
   -7.2619    4.7174  -13.7261 C   0  0  0  0  0  0  0  0  0  0  0  0
   -7.6414    5.6832  -13.1972 O   0  0  0  0  0  0  0  0  0  0  0  0
   -7.1944    3.2674  -13.2235 N   0  0  0  0  0  0  0  0  0  0  0  0
   -6.9005    2.6114  -13.8962 H   0  0  0  0  0  0  0  0  0  0  0  0
   -7.4927    2.7080  -11.9217 C   0  0  0  0  0  0  0  0  0  0  0  0
   -8.2862    3.6515  -11.0263 C   0  0  0  0  0  0  0  0  0  0  0  0
   -8.5375    3.0122   -9.6617 C   0  0  0  0  0  0  0  0  0  0  0  0
   -7.3901    2.2823   -9.1346 N   0  0  0  0  0  0  0  0  0  0  0  0
   -6.1317    2.6067   -9.7753 C   0  0  0  0  0  0  0  0  0  0  0  0
   -6.1791    2.2722  -11.2599 C   0  0  0  0  0  0  0  0  0  0  0  0
   -7.5628    1.2845   -9.2566 H   0  0  0  0  0  0  0  0  0  0  0  0
   -3.8239    6.3632  -13.8622 C   0  0  0  0  0  0  0  0  0  0  0  0
   -4.5203    5.1214  -13.9559 O   0  0  0  0  0  0  0  0  0  0  0  0
 22 23  1  0  0  0
 23  1  1  0  0  0
  1  2  2  0  0  0
  2  3  1  0  0  0
  3  4  2  0  0  0
  4  5  1  0  0  0
  5  6  2  0  0  0
  6  7  1  0  0  0
  7  8  2  0  0  0
  8  9  1  0  0  0
  9 10  2  0  0  0
 10 11  1  0  0  0
 11 12  2  0  0  0
 11 13  1  0  0  0
 13 15  1  0  0  0
 15 16  1  0  0  0
 16 17  1  0  0  0
 17 18  1  0  0  0
 18 19  1  0  0  0
 19 20  1  0  0  0
 10  1  1  0  0  0
 20 15  1  0  0  0
  9  4  1  0  0  0
 13 14  1  0  0  0
 18 21  1  0  0  0
M  END
> <minimizedAffinity>
-6.78277

> <minimizedRMSD>
0.54506

$$$$
P34218


 19 21  0  0  0  0  0  0  0  0999 V2000
   -4.6326    5.0151  -15.4967 C   0  0  0  0  0  0  0  0  0  0  0  0
   -5.3340    4.5758  -14.3870 C   0  0  0  0  0  0  0  0  0  0  0  0
   -6.6789    4.2195  -14.5293 C   0  0  0  0  0  0  0  0  0  0  0  0
   -7.2892    4.4307  -15.8044 C   0  0  0  0  0  0  0  0  0  0  0  0
   -8.6651    4.2466  -16.0732 C   0  0  0  0  0  0  0  0  0  0  0  0
   -9.1865    4.3418  -17.3632 C   0  0  0  0  0  0  0  0  0  0  0  0
   -8.3423    4.6428  -18.4170 C   0  0  0  0  0  0  0  0  0  0  0  0
   -6.9971    4.9069  -18.1627 C   0  0  0  0  0  0  0  0  0  0  0  0
   -6.4586    4.8294  -16.8829 C   0  0  0  0  0  0  0  0  0  0  0  0
   -5.1581    5.1231  -16.7312 N   0  0  0  0  0  0  0  0  0  0  0  0
   -7.4091    3.5320  -13.3652 C   0  0  0  0  0  0  0  0  0  0  0  0
   -6.7687    2.2069  -12.8691 C   0  0  0  0  0  0  0  0  0  0  0  0
   -6.2927    2.2783  -11.4193 C   0  0  0  0  0  0  0  0  0  0  0  0
   -7.3380    2.6775  -10.4837 N   0  0  0  0  0  0  0  0  0  0  0  0
   -8.2496    3.6977  -11.0009 C   0  0  0  0  0  0  0  0  0  0  0  0
   -7.6934    4.4815  -12.1929 C   0  0  0  0  0  0  0  0  0  0  0  0
   -6.8916    3.0443   -9.6432 H   0  0  0  0  0  0  0  0  0  0  0  0
   -2.5779    5.4937  -16.5045 C   0  0  0  0  0  0  0  0  0  0  0  0
   -3.2980    5.3132  -15.2904 O   0  0  0  0  0  0  0  0  0  0  0  0
 18 19  1  0  0  0
 19  1  1  0  0  0
  1  2  2  0  0  0
  2  3  1  0  0  0
  3 11  1  0  0  0
 11 12  1  0  0  0
 12 13  1  0  0  0
 13 14  1  0  0  0
 14 15  1  0  0  0
 15 16  1  0  0  0
  3  4  2  0  0  0
  4  5  1  0  0  0
  5  6  2  0  0  0
  6  7  1  0  0  0
  7  8  2  0  0  0
  8  9  1  0  0  0
  9 10  2  0  0  0
 10  1  1  0  0  0
 16 11  1  0  0  0
  9  4  1  0  0  0
 14 17  1  0  0  0
M  END
> <minimizedAffinity>
-6.26598

> <minimizedRMSD>
0.56333

$$$$
P34222


 20 22  0  0  0  0  0  0  0  0999 V2000
   -4.3240    5.1569  -16.0479 C   0  0  0  0  0  0  0  0  0  0  0  0
   -4.8234    4.9332  -14.7832 C   0  0  0  0  0  0  0  0  0  0  0  0
   -6.1710    4.6228  -14.6624 C   0  0  0  0  0  0  0  0  0  0  0  0
   -7.0007    4.5970  -15.8070 C   0  0  0  0  0  0  0  0  0  0  0  0
   -8.3942    4.3650  -15.7805 C   0  0  0  0  0  0  0  0  0  0  0  0
   -9.1396    4.3153  -16.9591 C   0  0  0  0  0  0  0  0  0  0  0  0
   -8.5115    4.5159  -18.1793 C   0  0  0  0  0  0  0  0  0  0  0  0
   -7.1426    4.7810  -18.2121 C   0  0  0  0  0  0  0  0  0  0  0  0
   -6.3754    4.8300  -17.0544 C   0  0  0  0  0  0  0  0  0  0  0  0
   -5.0646    5.1040  -17.1720 N   0  0  0  0  0  0  0  0  0  0  0  0
   -2.5683    5.8092  -17.4450 C   0  0  0  0  0  0  0  0  0  0  0  0
   -2.9741    5.4428  -16.1307 O   0  0  0  0  0  0  0  0  0  0  0  0
   -6.6323    4.4583  -13.3765 O   0  0  0  0  0  0  0  0  0  0  0  0
   -7.0685    3.1096  -13.0740 C   0  0  0  0  0  0  0  0  0  0  0  0
   -5.8993    2.1196  -12.9935 C   0  0  0  0  0  0  0  0  0  0  0  0
   -5.0595    2.2970  -11.7311 C   0  0  0  0  0  0  0  0  0  0  0  0
   -5.8916    2.2301  -10.5407 N   0  0  0  0  0  0  0  0  0  0  0  0
   -6.8864    3.2939  -10.5321 C   0  0  0  0  0  0  0  0  0  0  0  0
   -7.8119    3.1715  -11.7379 C   0  0  0  0  0  0  0  0  0  0  0  0
   -5.2994    2.3219   -9.7154 H   0  0  0  0  0  0  0  0  0  0  0  0
 11 12  1  0  0  0
 12  1  1  0  0  0
  1  2  2  0  0  0
  2  3  1  0  0  0
  3 13  1  0  0  0
 13 14  1  0  0  0
 14 15  1  0  0  0
 15 16  1  0  0  0
 16 17  1  0  0  0
 17 18  1  0  0  0
 18 19  1  0  0  0
  3  4  2  0  0  0
  4  5  1  0  0  0
  5  6  2  0  0  0
  6  7  1  0  0  0
  7  8  2  0  0  0
  8  9  1  0  0  0
  9 10  2  0  0  0
 10  1  1  0  0  0
 19 14  1  0  0  0
  9  4  1  0  0  0
 17 20  1  0  0  0
M  END
> <minimizedAffinity>
-5.98819

> <minimizedRMSD>
0.84467

$$$$
P34223


 20 22  0  0  0  0  0  0  0  0999 V2000
   -4.5277    5.2473  -16.2388 C   0  0  0  0  0  0  0  0  0  0  0  0
   -5.1040    5.2515  -14.9848 C   0  0  0  0  0  0  0  0  0  0  0  0
   -6.4806    5.0254  -14.8684 C   0  0  0  0  0  0  0  0  0  0  0  0
   -7.2244    4.7565  -16.0493 C   0  0  0  0  0  0  0  0  0  0  0  0
   -8.6127    4.4868  -16.0746 C   0  0  0  0  0  0  0  0  0  0  0  0
   -9.2814    4.2296  -17.2727 C   0  0  0  0  0  0  0  0  0  0  0  0
   -8.5839    4.2592  -18.4693 C   0  0  0  0  0  0  0  0  0  0  0  0
   -7.2183    4.5379  -18.4613 C   0  0  0  0  0  0  0  0  0  0  0  0
   -6.5239    4.7765  -17.2832 C   0  0  0  0  0  0  0  0  0  0  0  0
   -5.2084    5.0279  -17.3759 N   0  0  0  0  0  0  0  0  0  0  0  0
   -2.6088    5.2089  -17.5672 C   0  0  0  0  0  0  0  0  0  0  0  0
   -3.1704    5.5024  -16.2920 O   0  0  0  0  0  0  0  0  0  0  0  0
   -7.1019    5.1998  -13.4993 C   0  0  0  0  0  0  0  0  0  0  0  0
   -7.6341    3.9557  -12.7613 C   0  0  0  0  0  0  0  0  0  0  0  0
   -6.6446    2.7802  -12.6521 C   0  0  0  0  0  0  0  0  0  0  0  0
   -6.1514    2.5451  -11.2232 C   0  0  0  0  0  0  0  0  0  0  0  0
   -7.2195    2.3838  -10.2445 N   0  0  0  0  0  0  0  0  0  0  0  0
   -8.3831    3.2406  -10.4579 C   0  0  0  0  0  0  0  0  0  0  0  0
   -8.0888    4.4195  -11.3668 C   0  0  0  0  0  0  0  0  0  0  0  0
   -6.8378    2.5917   -9.3217 H   0  0  0  0  0  0  0  0  0  0  0  0
 11 12  1  0  0  0
 12  1  1  0  0  0
  1  2  2  0  0  0
  2  3  1  0  0  0
  3 13  1  0  0  0
 13 14  1  0  0  0
 14 15  1  0  0  0
 15 16  1  0  0  0
 16 17  1  0  0  0
 17 18  1  0  0  0
 18 19  1  0  0  0
  3  4  2  0  0  0
  4  5  1  0  0  0
  5  6  2  0  0  0
  6  7  1  0  0  0
  7  8  2  0  0  0
  8  9  1  0  0  0
  9 10  2  0  0  0
 10  1  1  0  0  0
 19 14  1  0  0  0
  9  4  1  0  0  0
 17 20  1  0  0  0
M  END
> <minimizedAffinity>
-6.31496

> <minimizedRMSD>
0.58021

$$$$
P34318


 24 27  0  0  0  0  0  0  0  0999 V2000
   -4.8190    6.6178  -18.3244 N   0  0  0  0  0  0  0  0  0  0  0  0
   -3.5471    6.5396  -18.7679 N   0  0  0  0  0  0  0  0  0  0  0  0
   -2.9432    5.8496  -17.7892 C   0  0  0  0  0  0  0  0  0  0  0  0
   -3.8302    5.3302  -16.8736 N   0  0  0  0  0  0  0  0  0  0  0  0
   -5.0196    5.7835  -17.2434 C   0  0  0  0  0  0  0  0  0  0  0  0
   -6.2651    5.4896  -16.5310 C   0  0  0  0  0  0  0  0  0  0  0  0
   -6.3611    5.7358  -15.1476 C   0  0  0  0  0  0  0  0  0  0  0  0
   -7.5186    5.4347  -14.4373 C   0  0  0  0  0  0  0  0  0  0  0  0
   -8.6238    4.8889  -15.0865 C   0  0  0  0  0  0  0  0  0  0  0  0
   -8.5333    4.6437  -16.4649 C   0  0  0  0  0  0  0  0  0  0  0  0
   -9.7404    4.0201  -17.5232 S   0  0  0  0  0  0  0  0  0  0  0  0
   -8.6435    4.0985  -18.8164 C   0  0  0  0  0  0  0  0  0  0  0  0
   -7.4423    4.5409  -18.5341 N   0  0  0  0  0  0  0  0  0  0  0  0
   -7.3692    4.9046  -17.1958 C   0  0  0  0  0  0  0  0  0  0  0  0
   -1.4833    5.7387  -17.6665 C   0  0  0  0  0  0  0  0  0  0  0  0
   -0.6975    5.4690  -18.7873 C   0  0  0  0  0  0  0  0  0  0  0  0
    0.6850    5.3852  -18.6391 C   0  0  0  0  0  0  0  0  0  0  0  0
    1.2464    5.5784  -17.3834 C   0  0  0  0  0  0  0  0  0  0  0  0
    0.3985    5.8463  -16.3214 C   0  0  0  0  0  0  0  0  0  0  0  0
   -0.9447    5.9304  -16.4308 N   0  0  0  0  0  0  0  0  0  0  0  0
   -5.6636    7.6430  -18.8990 C   0  0  0  0  0  0  0  0  0  0  0  0
   -5.5916    9.0139  -16.9915 F   0  0  0  0  0  0  0  0  0  0  0  0
   -5.3704    9.0171  -18.3384 C   0  0  0  0  0  0  0  0  0  0  0  0
   -6.2600    9.9199  -18.8390 F   0  0  0  0  0  0  0  0  0  0  0  0
 22 23  1  0  0  0
 23 24  1  0  0  0
 23 21  1  0  0  0
 21  1  1  0  0  0
  1  2  1  0  0  0
  2  3  2  0  0  0
  3 15  1  0  0  0
 15 16  2  0  0  0
 16 17  1  0  0  0
 17 18  2  0  0  0
 18 19  1  0  0  0
 19 20  2  0  0  0
  3  4  1  0  0  0
  4  5  2  0  0  0
  5  6  1  0  0  0
  6  7  2  0  0  0
  7  8  1  0  0  0
  8  9  2  0  0  0
  9 10  1  0  0  0
 10 11  1  0  0  0
 11 12  1  0  0  0
 12 13  2  0  0  0
 13 14  1  0  0  0
  5  1  1  0  0  0
 14  6  1  0  0  0
 20 15  1  0  0  0
 14 10  2  0  0  0
M  END
> <minimizedAffinity>
-5.01231

> <minimizedRMSD>
1.10285

$$$$
P34441


 24 26  0  0  0  0  0  0  0  0999 V2000
   -8.3565    6.8230  -11.2379 O   0  0  0  0  0  0  0  0  0  0  0  0
   -7.7682    5.8941  -10.8552 C   0  0  0  0  0  0  0  0  0  0  0  0
   -6.7056    5.0361  -11.5501 N   0  0  0  0  0  0  0  0  0  0  0  0
   -6.4105    4.2498  -11.0364 H   0  0  0  0  0  0  0  0  0  0  0  0
   -8.0831    5.4212   -9.4933 C   0  0  0  0  0  0  0  0  0  0  0  0
   -8.2007    6.3255   -8.4000 C   0  0  0  0  0  0  0  0  0  0  0  0
   -8.4748    5.7377   -7.2382 N   0  0  0  0  0  0  0  0  0  0  0  0
   -8.4969    4.4357   -7.5637 N   0  0  0  0  0  0  0  0  0  0  0  0
   -8.3053    4.1773   -8.9028 C   0  0  0  0  0  0  0  0  0  0  0  0
   -8.3617    2.7626   -9.3741 C   0  0  0  0  0  0  0  0  0  0  0  0
   -8.1829    1.8091   -8.2812 N   0  0  0  0  0  0  0  0  0  0  0  0
   -9.0636    2.1050   -7.1526 C   0  0  0  0  0  0  0  0  0  0  0  0
   -8.6824    3.4358   -6.5280 C   0  0  0  0  0  0  0  0  0  0  0  0
   -7.2145    1.8489   -7.9635 H   0  0  0  0  0  0  0  0  0  0  0  0
   -6.0678    5.1922  -12.8326 C   0  0  0  0  0  0  0  0  0  0  0  0
   -7.0407    5.7049  -13.8887 C   0  0  0  0  0  0  0  0  0  0  0  0
   -7.9225    4.6205  -14.5269 C   0  0  0  0  0  0  0  0  0  0  0  0
   -7.5685    3.3203  -14.0735 O   0  0  0  0  0  0  0  0  0  0  0  0
   -6.6689    3.1088  -14.3683 H   0  0  0  0  0  0  0  0  0  0  0  0
   -7.9018    4.6114  -16.0340 C   0  0  0  0  0  0  0  0  0  0  0  0
   -8.9527    4.3775  -16.9051 C   0  0  0  0  0  0  0  0  0  0  0  0
   -8.5687    4.4958  -18.2702 C   0  0  0  0  0  0  0  0  0  0  0  0
   -7.2363    4.8069  -18.4065 C   0  0  0  0  0  0  0  0  0  0  0  0
   -6.4542    4.9412  -16.8976 S   0  0  0  0  0  0  0  0  0  0  0  0
  1  2  2  0  0  0
  2  3  1  0  0  0
  3 15  1  0  0  0
 15 16  1  0  0  0
 16 17  1  0  0  0
 17 18  1  0  0  0
 17 20  1  0  0  0
 20 21  2  0  0  0
 21 22  1  0  0  0
 22 23  2  0  0  0
 23 24  1  0  0  0
  2  5  1  0  0  0
  5  6  1  0  0  0
  6  7  2  0  0  0
  7  8  1  0  0  0
  8  9  1  0  0  0
  9 10  1  0  0  0
 10 11  1  0  0  0
 11 12  1  0  0  0
 12 13  1  0  0  0
 24 20  1  0  0  0
  9  5  2  0  0  0
 13  8  1  0  0  0
  3  4  1  0  0  0
 18 19  1  0  0  0
 11 14  1  0  0  0
M  END
> <minimizedAffinity>
-6.12912

> <minimizedRMSD>
0.67384

$$$$
P34544


 12 13  0  0  0  0  0  0  0  0999 V2000
   -5.8202    5.8270  -18.0245 C   0  0  0  0  0  0  0  0  0  0  0  0
   -5.0339    4.7437  -18.7523 C   0  0  0  0  0  0  0  0  0  0  0  0
   -3.7488    5.3017  -19.3365 C   0  0  0  0  0  0  0  0  0  0  0  0
   -4.0095    6.4180  -20.2437 N   0  0  0  0  0  0  0  0  0  0  0  0
   -4.7087    7.4986  -19.5426 C   0  0  0  0  0  0  0  0  0  0  0  0
   -6.0291    7.0464  -18.9228 C   0  0  0  0  0  0  0  0  0  0  0  0
   -4.5871    6.0924  -21.0189 H   0  0  0  0  0  0  0  0  0  0  0  0
   -8.5440    4.5043  -16.0713 C   0  0  0  0  0  0  0  0  0  0  0  0
   -8.9037    4.2794  -17.4107 C   0  0  0  0  0  0  0  0  0  0  0  0
   -7.9839    4.7421  -18.2576 N   0  0  0  0  0  0  0  0  0  0  0  0
   -7.0451    5.2781  -17.4618 N   0  0  0  0  0  0  0  0  0  0  0  0
   -7.3394    5.1606  -16.1320 C   0  0  0  0  0  0  0  0  0  0  0  0
  8  9  1  0  0  0
  9 10  2  0  0  0
 10 11  1  0  0  0
 11  1  1  0  0  0
  1  2  1  0  0  0
  2  3  1  0  0  0
  3  4  1  0  0  0
  4  5  1  0  0  0
  5  6  1  0  0  0
 11 12  1  0  0  0
 12  8  2  0  0  0
  6  1  1  0  0  0
  4  7  1  0  0  0
M  END
> <minimizedAffinity>
-3.80203

> <minimizedRMSD>
0.26704

$$$$
P34594


 13 14  0  0  0  0  0  0  0  0999 V2000
   -6.1719    5.7504  -17.8765 C   0  0  0  0  0  0  0  0  0  0  0  0
   -5.1684    4.7730  -18.4857 C   0  0  0  0  0  0  0  0  0  0  0  0
   -3.8272    5.4397  -18.7569 C   0  0  0  0  0  0  0  0  0  0  0  0
   -3.9519    6.6264  -19.5988 N   0  0  0  0  0  0  0  0  0  0  0  0
   -4.9009    7.5879  -19.0367 C   0  0  0  0  0  0  0  0  0  0  0  0
   -6.2796    6.9772  -18.7827 C   0  0  0  0  0  0  0  0  0  0  0  0
   -4.2758    6.3436  -20.5238 H   0  0  0  0  0  0  0  0  0  0  0  0
   -8.3146    4.3429  -18.4480 C   0  0  0  0  0  0  0  0  0  0  0  0
   -9.3887    3.8397  -17.8366 N   0  0  0  0  0  0  0  0  0  0  0  0
   -9.2832    4.3033  -16.5851 N   0  0  0  0  0  0  0  0  0  0  0  0
   -8.1319    5.0011  -16.3577 C   0  0  0  0  0  0  0  0  0  0  0  0
   -7.4803    5.0829  -17.5738 C   0  0  0  0  0  0  0  0  0  0  0  0
   -9.9698    4.1553  -15.8952 H   0  0  0  0  0  0  0  0  0  0  0  0
  8  9  2  0  0  0
  9 10  1  0  0  0
 10 11  1  0  0  0
 11 12  2  0  0  0
 12  1  1  0  0  0
  1  2  1  0  0  0
  2  3  1  0  0  0
  3  4  1  0  0  0
  4  5  1  0  0  0
  5  6  1  0  0  0
 12  8  1  0  0  0
  6  1  1  0  0  0
 10 13  1  0  0  0
  4  7  1  0  0  0
M  END
> <minimizedAffinity>
-4.33838

> <minimizedRMSD>
0.13446

$$$$
P34632


 28 30  0  0  0  0  0  0  0  0999 V2000
   -5.7236    4.6729  -18.9878 N   0  0  0  0  0  0  0  0  0  0  0  0
   -6.4048    4.0776  -20.0765 C   0  0  0  0  0  0  0  0  0  0  0  0
   -5.9835    3.8899  -21.2090 O   0  0  0  0  0  0  0  0  0  0  0  0
   -7.6623    3.6819  -19.5897 N   0  0  0  0  0  0  0  0  0  0  0  0
   -7.7437    3.9908  -18.2383 C   0  0  0  0  0  0  0  0  0  0  0  0
   -8.7785    3.7719  -17.3581 C   0  0  0  0  0  0  0  0  0  0  0  0
   -8.5839    4.1717  -16.0279 C   0  0  0  0  0  0  0  0  0  0  0  0
   -7.3785    4.7890  -15.6271 C   0  0  0  0  0  0  0  0  0  0  0  0
   -6.3413    5.0012  -16.5529 C   0  0  0  0  0  0  0  0  0  0  0  0
   -6.5467    4.5895  -17.8517 C   0  0  0  0  0  0  0  0  0  0  0  0
   -8.3718    3.2543  -20.1216 H   0  0  0  0  0  0  0  0  0  0  0  0
   -7.2294    5.4199  -14.2816 C   0  0  0  0  0  0  0  0  0  0  0  0
   -6.6371    6.4250  -14.2543 O   0  0  0  0  0  0  0  0  0  0  0  0
   -7.9346    4.6444  -13.1506 N   0  0  0  0  0  0  0  0  0  0  0  0
   -8.3040    3.7717  -13.4174 H   0  0  0  0  0  0  0  0  0  0  0  0
   -8.1415    4.9901  -11.7630 C   0  0  0  0  0  0  0  0  0  0  0  0
   -7.7550    3.9109  -10.7414 C   0  0  0  0  0  0  0  0  0  0  0  0
   -8.9133    2.9518  -10.4481 C   0  0  0  0  0  0  0  0  0  0  0  0
   -8.7615    2.2581   -9.0960 C   0  0  0  0  0  0  0  0  0  0  0  0
   -8.7060    3.1771   -7.9488 N   0  0  0  0  0  0  0  0  0  0  0  0
   -8.2805    4.5245   -8.3069 C   0  0  0  0  0  0  0  0  0  0  0  0
   -7.2560    4.5667   -9.4349 C   0  0  0  0  0  0  0  0  0  0  0  0
   -8.0488    2.8015   -7.2650 H   0  0  0  0  0  0  0  0  0  0  0  0
   -4.3414    5.0928  -18.9996 C   0  0  0  0  0  0  0  0  0  0  0  0
   -4.0520    6.3955  -19.7693 C   0  0  0  0  0  0  0  0  0  0  0  0
   -5.5131    8.2660  -19.2798 C   0  0  0  0  0  0  0  0  0  0  0  0
   -4.2019    7.6792  -19.0625 N   0  0  0  0  0  0  0  0  0  0  0  0
   -3.8879    7.5929  -17.6405 C   0  0  0  0  0  0  0  0  0  0  0  0
 26 27  1  0  0  0
 27 28  1  0  0  0
 27 25  1  0  0  0
 25 24  1  0  0  0
 24  1  1  0  0  0
  1  2  1  0  0  0
  2  3  2  0  0  0
  2  4  1  0  0  0
  4  5  1  0  0  0
  5  6  2  0  0  0
  6  7  1  0  0  0
  7  8  2  0  0  0
  8 12  1  0  0  0
 12 13  2  0  0  0
 12 14  1  0  0  0
 14 16  1  0  0  0
 16 17  1  0  0  0
 17 18  1  0  0  0
 18 19  1  0  0  0
 19 20  1  0  0  0
 20 21  1  0  0  0
 21 22  1  0  0  0
  8  9  1  0  0  0
  9 10  2  0  0  0
 10  1  1  0  0  0
 10  5  1  0  0  0
 22 17  1  0  0  0
  4 11  1  0  0  0
 14 15  1  0  0  0
 20 23  1  0  0  0
M  END
> <minimizedAffinity>
-6.79461

> <minimizedRMSD>
0.43982

$$$$
P34633


 27 29  0  0  0  0  0  0  0  0999 V2000
   -5.7640    4.6502  -18.9342 N   0  0  0  0  0  0  0  0  0  0  0  0
   -6.3855    4.0938  -20.0780 C   0  0  0  0  0  0  0  0  0  0  0  0
   -5.9153    3.9626  -21.1985 O   0  0  0  0  0  0  0  0  0  0  0  0
   -7.6515    3.6506  -19.6686 N   0  0  0  0  0  0  0  0  0  0  0  0
   -7.8085    3.9167  -18.3182 C   0  0  0  0  0  0  0  0  0  0  0  0
   -8.8883    3.6403  -17.5168 C   0  0  0  0  0  0  0  0  0  0  0  0
   -8.7678    3.9889  -16.1721 C   0  0  0  0  0  0  0  0  0  0  0  0
   -7.5978    4.6187  -15.6862 C   0  0  0  0  0  0  0  0  0  0  0  0
   -6.5138    4.8989  -16.5254 C   0  0  0  0  0  0  0  0  0  0  0  0
   -6.6429    4.5245  -17.8453 C   0  0  0  0  0  0  0  0  0  0  0  0
   -8.3210    3.2198  -20.2477 H   0  0  0  0  0  0  0  0  0  0  0  0
   -7.5837    5.1160  -14.2877 C   0  0  0  0  0  0  0  0  0  0  0  0
   -7.3264    6.2357  -14.0967 O   0  0  0  0  0  0  0  0  0  0  0  0
   -8.0294    4.0151  -13.3116 N   0  0  0  0  0  0  0  0  0  0  0  0
   -8.1126    3.1192  -13.7112 H   0  0  0  0  0  0  0  0  0  0  0  0
   -8.3472    4.0812  -11.8988 C   0  0  0  0  0  0  0  0  0  0  0  0
   -8.5241    2.6914  -11.2912 C   0  0  0  0  0  0  0  0  0  0  0  0
   -8.8912    2.7813   -9.8128 C   0  0  0  0  0  0  0  0  0  0  0  0
   -7.9565    3.6219   -9.0663 N   0  0  0  0  0  0  0  0  0  0  0  0
   -7.8223    4.9600   -9.6197 C   0  0  0  0  0  0  0  0  0  0  0  0
   -7.3694    4.9120  -11.0763 C   0  0  0  0  0  0  0  0  0  0  0  0
   -7.0400    3.1742   -9.0746 H   0  0  0  0  0  0  0  0  0  0  0  0
   -4.3839    5.0687  -18.8624 C   0  0  0  0  0  0  0  0  0  0  0  0
   -4.0453    6.3561  -19.6367 C   0  0  0  0  0  0  0  0  0  0  0  0
   -4.0737    7.5826  -17.5183 C   0  0  0  0  0  0  0  0  0  0  0  0
   -4.2438    7.6515  -18.9654 N   0  0  0  0  0  0  0  0  0  0  0  0
   -5.5138    8.2602  -19.3218 C   0  0  0  0  0  0  0  0  0  0  0  0
 25 26  1  0  0  0
 26 27  1  0  0  0
 26 24  1  0  0  0
 24 23  1  0  0  0
 23  1  1  0  0  0
  1  2  1  0  0  0
  2  3  2  0  0  0
  2  4  1  0  0  0
  4  5  1  0  0  0
  5  6  2  0  0  0
  6  7  1  0  0  0
  7  8  2  0  0  0
  8 12  1  0  0  0
 12 13  2  0  0  0
 12 14  1  0  0  0
 14 16  1  0  0  0
 16 17  1  0  0  0
 17 18  1  0  0  0
 18 19  1  0  0  0
 19 20  1  0  0  0
 20 21  1  0  0  0
  8  9  1  0  0  0
  9 10  2  0  0  0
 10  1  1  0  0  0
 10  5  1  0  0  0
 21 16  1  0  0  0
  4 11  1  0  0  0
 14 15  1  0  0  0
 19 22  1  0  0  0
M  END
> <minimizedAffinity>
-7.20958

> <minimizedRMSD>
0.35412

$$$$
P34635


 20 22  0  0  0  0  0  0  0  0999 V2000
   -8.5160    3.9300  -17.3844 C   0  0  0  0  0  0  0  0  0  0  0  0
   -8.2898    4.3276  -16.0689 C   0  0  0  0  0  0  0  0  0  0  0  0
   -7.0684    4.9148  -15.7010 C   0  0  0  0  0  0  0  0  0  0  0  0
   -6.0592    5.1088  -16.6492 C   0  0  0  0  0  0  0  0  0  0  0  0
   -6.2940    4.6657  -17.9383 C   0  0  0  0  0  0  0  0  0  0  0  0
   -7.4930    4.0660  -18.2830 C   0  0  0  0  0  0  0  0  0  0  0  0
   -7.4469    3.6995  -19.6170 N   0  0  0  0  0  0  0  0  0  0  0  0
   -6.2199    4.0968  -20.1540 C   0  0  0  0  0  0  0  0  0  0  0  0
   -5.8906    3.9189  -21.3160 O   0  0  0  0  0  0  0  0  0  0  0  0
   -5.4912    4.7071  -19.0962 N   0  0  0  0  0  0  0  0  0  0  0  0
   -8.1625    3.2345  -20.1077 H   0  0  0  0  0  0  0  0  0  0  0  0
   -4.3004    5.5434  -19.1805 C   0  0  0  0  0  0  0  0  0  0  0  0
   -4.5620    6.7864  -20.0403 C   0  0  0  0  0  0  0  0  0  0  0  0
   -4.3022    6.5360  -21.5141 C   0  0  0  0  0  0  0  0  0  0  0  0
   -2.9500    6.0244  -21.7139 N   0  0  0  0  0  0  0  0  0  0  0  0
   -2.7731    4.7256  -21.0609 C   0  0  0  0  0  0  0  0  0  0  0  0
   -3.0169    4.8066  -19.5661 C   0  0  0  0  0  0  0  0  0  0  0  0
   -2.2820    6.6878  -21.3215 H   0  0  0  0  0  0  0  0  0  0  0  0
  -10.5607    4.4803  -18.1885 C   0  0  0  0  0  0  0  0  0  0  0  0
   -9.7113    3.4173  -17.7681 O   0  0  0  0  0  0  0  0  0  0  0  0
 19 20  1  0  0  0
 20  1  1  0  0  0
  1  2  2  0  0  0
  2  3  1  0  0  0
  3  4  2  0  0  0
  4  5  1  0  0  0
  5  6  2  0  0  0
  6  7  1  0  0  0
  7  8  1  0  0  0
  8  9  2  0  0  0
  8 10  1  0  0  0
 10 12  1  0  0  0
 12 13  1  0  0  0
 13 14  1  0  0  0
 14 15  1  0  0  0
 15 16  1  0  0  0
 16 17  1  0  0  0
  6  1  1  0  0  0
 17 12  1  0  0  0
 10  5  1  0  0  0
  7 11  1  0  0  0
 15 18  1  0  0  0
M  END
> <minimizedAffinity>
-6.29276

> <minimizedRMSD>
0.89992

$$$$
P34642


 20 22  0  0  0  0  0  0  0  0999 V2000
   -5.7224    3.9492  -21.2816 O   0  0  0  0  0  0  0  0  0  0  0  0
   -6.2458    4.0525  -20.1824 C   0  0  0  0  0  0  0  0  0  0  0  0
   -7.5322    3.6009  -19.8569 N   0  0  0  0  0  0  0  0  0  0  0  0
   -7.7831    3.8818  -18.5244 C   0  0  0  0  0  0  0  0  0  0  0  0
   -8.9261    3.6481  -17.8055 C   0  0  0  0  0  0  0  0  0  0  0  0
   -8.8895    3.9688  -16.4468 C   0  0  0  0  0  0  0  0  0  0  0  0
   -7.7481    4.5350  -15.8647 C   0  0  0  0  0  0  0  0  0  0  0  0
   -7.7575    4.8212  -14.5543 F   0  0  0  0  0  0  0  0  0  0  0  0
   -6.6255    4.8180  -16.6309 C   0  0  0  0  0  0  0  0  0  0  0  0
   -5.5582    5.3929  -16.0615 F   0  0  0  0  0  0  0  0  0  0  0  0
   -6.6565    4.4808  -17.9690 C   0  0  0  0  0  0  0  0  0  0  0  0
   -5.7092    4.6226  -18.9986 N   0  0  0  0  0  0  0  0  0  0  0  0
   -8.1560    3.1562  -20.4752 H   0  0  0  0  0  0  0  0  0  0  0  0
   -4.5772    5.5237  -18.9208 C   0  0  0  0  0  0  0  0  0  0  0  0
   -3.2203    4.8168  -18.9039 C   0  0  0  0  0  0  0  0  0  0  0  0
   -2.5287    4.9165  -20.2471 C   0  0  0  0  0  0  0  0  0  0  0  0
   -2.2999    6.3061  -20.6543 N   0  0  0  0  0  0  0  0  0  0  0  0
   -3.3281    7.2497  -20.2265 C   0  0  0  0  0  0  0  0  0  0  0  0
   -4.6812    6.6002  -20.0113 C   0  0  0  0  0  0  0  0  0  0  0  0
   -2.2489    6.3335  -21.6726 H   0  0  0  0  0  0  0  0  0  0  0  0
  1  2  2  0  0  0
  2  3  1  0  0  0
  3  4  1  0  0  0
  4  5  2  0  0  0
  5  6  1  0  0  0
  6  7  2  0  0  0
  7  8  1  0  0  0
  7  9  1  0  0  0
  9 10  1  0  0  0
  9 11  2  0  0  0
 11 12  1  0  0  0
 12 14  1  0  0  0
 14 15  1  0  0  0
 15 16  1  0  0  0
 16 17  1  0  0  0
 17 18  1  0  0  0
 18 19  1  0  0  0
 12  2  1  0  0  0
 19 14  1  0  0  0
 11  4  1  0  0  0
  3 13  1  0  0  0
 17 20  1  0  0  0
M  END
> <minimizedAffinity>
-6.58347

> <minimizedRMSD>
0.71880

$$$$
P34663


 25 27  0  0  0  0  0  0  0  0999 V2000
   -5.7479    4.7570  -18.9262 N   0  0  0  0  0  0  0  0  0  0  0  0
   -6.3607    4.1325  -20.0438 C   0  0  0  0  0  0  0  0  0  0  0  0
   -5.9230    3.9879  -21.1761 O   0  0  0  0  0  0  0  0  0  0  0  0
   -7.6087    3.6625  -19.6058 N   0  0  0  0  0  0  0  0  0  0  0  0
   -7.7574    3.9582  -18.2619 C   0  0  0  0  0  0  0  0  0  0  0  0
   -8.8285    3.6859  -17.4474 C   0  0  0  0  0  0  0  0  0  0  0  0
   -8.6995    4.0483  -16.1076 C   0  0  0  0  0  0  0  0  0  0  0  0
   -7.5242    4.6810  -15.6371 C   0  0  0  0  0  0  0  0  0  0  0  0
   -6.4608    4.9825  -16.4981 C   0  0  0  0  0  0  0  0  0  0  0  0
   -6.6032    4.6035  -17.8167 C   0  0  0  0  0  0  0  0  0  0  0  0
   -8.2720    3.1971  -20.1649 H   0  0  0  0  0  0  0  0  0  0  0  0
   -7.4810    5.1500  -14.2276 C   0  0  0  0  0  0  0  0  0  0  0  0
   -7.2140    6.2644  -14.0189 O   0  0  0  0  0  0  0  0  0  0  0  0
   -7.9157    4.0319  -13.2653 N   0  0  0  0  0  0  0  0  0  0  0  0
   -8.0110    3.1446  -13.6810 H   0  0  0  0  0  0  0  0  0  0  0  0
   -8.2079    4.0716  -11.8458 C   0  0  0  0  0  0  0  0  0  0  0  0
   -8.5901    2.6963  -11.3021 C   0  0  0  0  0  0  0  0  0  0  0  0
   -8.9214    2.7669   -9.8139 C   0  0  0  0  0  0  0  0  0  0  0  0
   -7.8572    3.4134   -9.0475 N   0  0  0  0  0  0  0  0  0  0  0  0
   -7.5283    4.7429   -9.5371 C   0  0  0  0  0  0  0  0  0  0  0  0
   -7.1046    4.7002  -11.0028 C   0  0  0  0  0  0  0  0  0  0  0  0
   -7.0206    2.8321   -9.0996 H   0  0  0  0  0  0  0  0  0  0  0  0
   -3.2800    4.5807  -19.1932 C   0  0  0  0  0  0  0  0  0  0  0  0
   -4.4809    5.4693  -18.8943 C   0  0  0  0  0  0  0  0  0  0  0  0
   -4.4576    6.6995  -19.8006 C   0  0  0  0  0  0  0  0  0  0  0  0
 23 24  1  0  0  0
 24 25  1  0  0  0
 24  1  1  0  0  0
  1  2  1  0  0  0
  2  3  2  0  0  0
  2  4  1  0  0  0
  4  5  1  0  0  0
  5  6  2  0  0  0
  6  7  1  0  0  0
  7  8  2  0  0  0
  8 12  1  0  0  0
 12 13  2  0  0  0
 12 14  1  0  0  0
 14 16  1  0  0  0
 16 17  1  0  0  0
 17 18  1  0  0  0
 18 19  1  0  0  0
 19 20  1  0  0  0
 20 21  1  0  0  0
  8  9  1  0  0  0
  9 10  2  0  0  0
 10  1  1  0  0  0
 10  5  1  0  0  0
 21 16  1  0  0  0
  4 11  1  0  0  0
 14 15  1  0  0  0
 19 22  1  0  0  0
M  END
> <minimizedAffinity>
-7.83346

> <minimizedRMSD>
0.42430

$$$$
P34665


 28 30  0  0  0  0  0  0  0  0999 V2000
   -7.4633    4.7553  -15.6164 C   0  0  0  0  0  0  0  0  0  0  0  0
   -8.6528    4.1009  -16.0076 C   0  0  0  0  0  0  0  0  0  0  0  0
   -8.8468    3.6934  -17.3351 C   0  0  0  0  0  0  0  0  0  0  0  0
   -7.8252    3.9363  -18.2230 C   0  0  0  0  0  0  0  0  0  0  0  0
   -7.7419    3.6100  -19.5712 N   0  0  0  0  0  0  0  0  0  0  0  0
   -6.5071    4.0472  -20.0709 C   0  0  0  0  0  0  0  0  0  0  0  0
   -6.0780    3.8766  -21.2020 O   0  0  0  0  0  0  0  0  0  0  0  0
   -5.8370    4.6649  -18.9936 N   0  0  0  0  0  0  0  0  0  0  0  0
   -6.6478    4.5844  -17.8516 C   0  0  0  0  0  0  0  0  0  0  0  0
   -6.4458    5.0119  -16.5568 C   0  0  0  0  0  0  0  0  0  0  0  0
   -8.4376    3.1467  -20.0914 H   0  0  0  0  0  0  0  0  0  0  0  0
   -6.7261    6.3698  -14.2141 O   0  0  0  0  0  0  0  0  0  0  0  0
   -7.3149    5.3629  -14.2575 C   0  0  0  0  0  0  0  0  0  0  0  0
   -8.0227    4.5687  -13.1388 N   0  0  0  0  0  0  0  0  0  0  0  0
   -8.3878    3.6984  -13.4188 H   0  0  0  0  0  0  0  0  0  0  0  0
   -8.2367    4.8955  -11.7462 C   0  0  0  0  0  0  0  0  0  0  0  0
   -7.8339    3.8117  -10.7335 C   0  0  0  0  0  0  0  0  0  0  0  0
   -9.0013    2.8829  -10.3818 C   0  0  0  0  0  0  0  0  0  0  0  0
   -8.8136    2.2029   -9.0263 C   0  0  0  0  0  0  0  0  0  0  0  0
   -8.6921    3.1344   -7.8941 N   0  0  0  0  0  0  0  0  0  0  0  0
   -8.2449    4.4651   -8.2873 C   0  0  0  0  0  0  0  0  0  0  0  0
   -7.2626    4.4612   -9.4532 C   0  0  0  0  0  0  0  0  0  0  0  0
   -8.0203    2.7504   -7.2296 H   0  0  0  0  0  0  0  0  0  0  0  0
   -4.5169    5.2442  -19.0833 C   0  0  0  0  0  0  0  0  0  0  0  0
   -4.4729    6.6359  -19.6981 C   0  0  0  0  0  0  0  0  0  0  0  0
   -3.5950    7.4164  -19.0184 F   0  0  0  0  0  0  0  0  0  0  0  0
   -5.6753    7.2534  -19.6232 F   0  0  0  0  0  0  0  0  0  0  0  0
   -4.0855    6.6407  -20.9890 F   0  0  0  0  0  0  0  0  0  0  0  0
 12 13  2  0  0  0
 13 14  1  0  0  0
 14 16  1  0  0  0
 16 17  1  0  0  0
 17 18  1  0  0  0
 18 19  1  0  0  0
 19 20  1  0  0  0
 20 21  1  0  0  0
 21 22  1  0  0  0
 13  1  1  0  0  0
  1  2  2  0  0  0
  2  3  1  0  0  0
  3  4  2  0  0  0
  4  5  1  0  0  0
  5  6  1  0  0  0
  6  7  2  0  0  0
  6  8  1  0  0  0
  8 24  1  0  0  0
 24 25  1  0  0  0
 25 26  1  0  0  0
 25 27  1  0  0  0
 25 28  1  0  0  0
  8  9  1  0  0  0
  9 10  2  0  0  0
 22 17  1  0  0  0
 10  1  1  0  0  0
  9  4  1  0  0  0
 14 15  1  0  0  0
 20 23  1  0  0  0
  5 11  1  0  0  0
M  END
> <minimizedAffinity>
-7.19557

> <minimizedRMSD>
0.45061

$$$$
P34667


 25 27  0  0  0  0  0  0  0  0999 V2000
   -5.7744    4.6699  -18.9783 N   0  0  0  0  0  0  0  0  0  0  0  0
   -6.4444    4.0699  -20.0688 C   0  0  0  0  0  0  0  0  0  0  0  0
   -6.0211    3.9078  -21.2049 O   0  0  0  0  0  0  0  0  0  0  0  0
   -7.6905    3.6443  -19.5817 N   0  0  0  0  0  0  0  0  0  0  0  0
   -7.7822    3.9646  -18.2330 C   0  0  0  0  0  0  0  0  0  0  0  0
   -8.8166    3.7338  -17.3569 C   0  0  0  0  0  0  0  0  0  0  0  0
   -8.6309    4.1338  -16.0261 C   0  0  0  0  0  0  0  0  0  0  0  0
   -7.4363    4.7701  -15.6200 C   0  0  0  0  0  0  0  0  0  0  0  0
   -6.4055    5.0147  -16.5478 C   0  0  0  0  0  0  0  0  0  0  0  0
   -6.6001    4.5937  -17.8462 C   0  0  0  0  0  0  0  0  0  0  0  0
   -8.3869    3.1920  -20.1105 H   0  0  0  0  0  0  0  0  0  0  0  0
   -7.2987    5.3723  -14.2579 C   0  0  0  0  0  0  0  0  0  0  0  0
   -6.7100    6.3788  -14.2036 O   0  0  0  0  0  0  0  0  0  0  0  0
   -8.0193    4.5734  -13.1504 N   0  0  0  0  0  0  0  0  0  0  0  0
   -8.3819    3.7046  -13.4383 H   0  0  0  0  0  0  0  0  0  0  0  0
   -8.2482    4.8940  -11.7588 C   0  0  0  0  0  0  0  0  0  0  0  0
   -7.8386    3.8136  -10.7451 C   0  0  0  0  0  0  0  0  0  0  0  0
   -9.0003    2.8787  -10.3907 C   0  0  0  0  0  0  0  0  0  0  0  0
   -8.8066    2.2005   -9.0352 C   0  0  0  0  0  0  0  0  0  0  0  0
   -8.6870    3.1328   -7.9034 N   0  0  0  0  0  0  0  0  0  0  0  0
   -8.2498    4.4662   -8.2987 C   0  0  0  0  0  0  0  0  0  0  0  0
   -7.2693    4.4676   -9.4661 C   0  0  0  0  0  0  0  0  0  0  0  0
   -8.0103    2.7532   -7.2413 H   0  0  0  0  0  0  0  0  0  0  0  0
   -4.4815    6.6987  -19.4377 C   0  0  0  0  0  0  0  0  0  0  0  0
   -4.4538    5.2351  -19.0399 C   0  0  0  0  0  0  0  0  0  0  0  0
 24 25  1  0  0  0
 25  1  1  0  0  0
  1  2  1  0  0  0
  2  3  2  0  0  0
  2  4  1  0  0  0
  4  5  1  0  0  0
  5  6  2  0  0  0
  6  7  1  0  0  0
  7  8  2  0  0  0
  8 12  1  0  0  0
 12 13  2  0  0  0
 12 14  1  0  0  0
 14 16  1  0  0  0
 16 17  1  0  0  0
 17 18  1  0  0  0
 18 19  1  0  0  0
 19 20  1  0  0  0
 20 21  1  0  0  0
 21 22  1  0  0  0
  8  9  1  0  0  0
  9 10  2  0  0  0
 10  1  1  0  0  0
 10  5  1  0  0  0
 22 17  1  0  0  0
  4 11  1  0  0  0
 14 15  1  0  0  0
 20 23  1  0  0  0
M  END
> <minimizedAffinity>
-7.04113

> <minimizedRMSD>
0.35657

$$$$
P34725


 22 24  0  0  0  0  0  0  0  0999 V2000
   -6.6779    6.1846  -13.2527 O   0  0  0  0  0  0  0  0  0  0  0  0
   -5.8459    5.3617  -13.2370 C   0  0  0  0  0  0  0  0  0  0  0  0
   -5.2397    4.5121  -14.4013 N   0  0  0  0  0  0  0  0  0  0  0  0
   -4.5967    3.8228  -14.1174 H   0  0  0  0  0  0  0  0  0  0  0  0
   -5.4643    4.5729  -15.7891 C   0  0  0  0  0  0  0  0  0  0  0  0
   -4.3067    4.7291  -16.5566 C   0  0  0  0  0  0  0  0  0  0  0  0
   -4.4300    4.8563  -17.9224 C   0  0  0  0  0  0  0  0  0  0  0  0
   -5.6055    4.8050  -18.5565 N   0  0  0  0  0  0  0  0  0  0  0  0
   -6.7233    4.5989  -17.8475 C   0  0  0  0  0  0  0  0  0  0  0  0
   -7.9161    4.4833  -18.5525 C   0  0  0  0  0  0  0  0  0  0  0  0
   -9.1241    4.2121  -17.9230 C   0  0  0  0  0  0  0  0  0  0  0  0
   -9.1291    4.0122  -16.5567 C   0  0  0  0  0  0  0  0  0  0  0  0
   -7.9484    4.1225  -15.8275 C   0  0  0  0  0  0  0  0  0  0  0  0
   -6.7217    4.4610  -16.4406 C   0  0  0  0  0  0  0  0  0  0  0  0
   -5.1527    4.9277  -11.9567 C   0  0  0  0  0  0  0  0  0  0  0  0
   -3.6503    5.0943  -12.0907 C   0  0  0  0  0  0  0  0  0  0  0  0
   -3.2271    6.4761  -11.9513 N   0  0  0  0  0  0  0  0  0  0  0  0
   -2.3560    7.1504  -12.7570 C   0  0  0  0  0  0  0  0  0  0  0  0
   -2.2634    8.4145  -12.2307 C   0  0  0  0  0  0  0  0  0  0  0  0
   -1.3535    9.7199  -12.8002 Cl  0  0  0  0  0  0  0  0  0  0  0  0
   -3.0961    8.3983  -11.0981 C   0  0  0  0  0  0  0  0  0  0  0  0
   -3.6755    7.2064  -10.9115 N   0  0  0  0  0  0  0  0  0  0  0  0
  1  2  2  0  0  0
  2 15  1  0  0  0
 15 16  1  0  0  0
 16 17  1  0  0  0
 17 18  1  0  0  0
 18 19  2  0  0  0
 19 20  1  0  0  0
 19 21  1  0  0  0
 21 22  2  0  0  0
  2  3  1  0  0  0
  3  5  1  0  0  0
  5  6  2  0  0  0
  6  7  1  0  0  0
  7  8  2  0  0  0
  8  9  1  0  0  0
  9 10  2  0  0  0
 10 11  1  0  0  0
 11 12  2  0  0  0
 12 13  1  0  0  0
 13 14  2  0  0  0
 22 17  1  0  0  0
 14  5  1  0  0  0
 14  9  1  0  0  0
  3  4  1  0  0  0
M  END
> <minimizedAffinity>
-4.74058

> <minimizedRMSD>
1.93406

$$$$
P34745


 23 26  0  0  0  0  0  0  0  0999 V2000
   -0.9003    7.0033  -21.8783 C   0  0  0  0  0  0  0  0  0  0  0  0
    0.1157    7.9282  -22.1605 C   0  0  0  0  0  0  0  0  0  0  0  0
    0.5967    8.7943  -21.1630 C   0  0  0  0  0  0  0  0  0  0  0  0
    0.0640    8.7589  -19.8723 C   0  0  0  0  0  0  0  0  0  0  0  0
   -0.9508    7.8556  -19.6072 C   0  0  0  0  0  0  0  0  0  0  0  0
   -1.4238    6.9851  -20.5910 C   0  0  0  0  0  0  0  0  0  0  0  0
   -2.4934    6.1264  -19.9956 C   0  0  0  0  0  0  0  0  0  0  0  0
   -2.8598    6.7873  -18.7253 N   0  0  0  0  0  0  0  0  0  0  0  0
   -1.6881    7.6044  -18.3294 C   0  0  0  0  0  0  0  0  0  0  0  0
   -2.0880    6.4782  -23.9024 O   0  0  0  0  0  0  0  0  0  0  0  0
   -1.3871    6.1297  -22.9718 C   0  0  0  0  0  0  0  0  0  0  0  0
   -0.9587    4.8616  -22.8400 O   0  0  0  0  0  0  0  0  0  0  0  0
   -0.4194    4.6225  -22.1120 H   0  0  0  0  0  0  0  0  0  0  0  0
   -3.2492    5.8555  -17.6623 C   0  0  0  0  0  0  0  0  0  0  0  0
   -4.7286    5.6033  -17.4752 C   0  0  0  0  0  0  0  0  0  0  0  0
   -5.3015    5.5482  -16.2893 N   0  0  0  0  0  0  0  0  0  0  0  0
   -6.5680    4.9948  -16.4014 C   0  0  0  0  0  0  0  0  0  0  0  0
   -7.4314    4.6876  -15.3340 C   0  0  0  0  0  0  0  0  0  0  0  0
   -8.6738    4.1082  -15.6006 C   0  0  0  0  0  0  0  0  0  0  0  0
   -9.0664    3.8334  -16.9059 C   0  0  0  0  0  0  0  0  0  0  0  0
   -8.2244    4.1206  -17.9786 C   0  0  0  0  0  0  0  0  0  0  0  0
   -6.9826    4.7091  -17.7019 C   0  0  0  0  0  0  0  0  0  0  0  0
   -5.7508    5.1846  -18.7917 S   0  0  0  0  0  0  0  0  0  0  0  0
 10 11  2  0  0  0
 11 12  1  0  0  0
 11  1  1  0  0  0
  1  2  2  0  0  0
  2  3  1  0  0  0
  3  4  2  0  0  0
  4  5  1  0  0  0
  5  6  2  0  0  0
  6  7  1  0  0  0
  7  8  1  0  0  0
  8 14  1  0  0  0
 14 15  1  0  0  0
 15 16  2  0  0  0
 16 17  1  0  0  0
 17 18  2  0  0  0
 18 19  1  0  0  0
 19 20  2  0  0  0
 20 21  1  0  0  0
 21 22  2  0  0  0
 22 23  1  0  0  0
  8  9  1  0  0  0
  6  1  1  0  0  0
 23 15  1  0  0  0
  9  5  1  0  0  0
 22 17  1  0  0  0
 12 13  1  0  0  0
M  END
> <minimizedAffinity>
-5.95834

> <minimizedRMSD>
0.89086

$$$$
P34752


 22 25  0  0  0  0  0  0  0  0999 V2000
   -2.9044    6.6309  -18.7187 C   0  0  0  0  0  0  0  0  0  0  0  0
    0.4768    5.5048  -17.7591 C   0  0  0  0  0  0  0  0  0  0  0  0
   -0.4828    6.5651  -18.0880 N   0  0  0  0  0  0  0  0  0  0  0  0
    0.2178    7.6633  -18.8164 C   0  0  0  0  0  0  0  0  0  0  0  0
   -0.0529    7.4388  -20.2685 C   0  0  0  0  0  0  0  0  0  0  0  0
    0.5237    8.0497  -21.3687 C   0  0  0  0  0  0  0  0  0  0  0  0
    0.0801    7.6752  -22.6386 C   0  0  0  0  0  0  0  0  0  0  0  0
   -0.9265    6.7081  -22.7878 C   0  0  0  0  0  0  0  0  0  0  0  0
   -1.5068    6.1074  -21.6688 C   0  0  0  0  0  0  0  0  0  0  0  0
   -1.0607    6.4872  -20.4141 C   0  0  0  0  0  0  0  0  0  0  0  0
   -1.5172    6.0333  -19.0558 C   0  0  0  0  0  0  0  0  0  0  0  0
   -3.4395    6.0638  -17.4865 N   0  0  0  0  0  0  0  0  0  0  0  0
   -2.8443    5.9494  -16.7107 H   0  0  0  0  0  0  0  0  0  0  0  0
   -4.7372    5.6912  -17.3865 C   0  0  0  0  0  0  0  0  0  0  0  0
   -5.3471    5.6113  -16.2284 N   0  0  0  0  0  0  0  0  0  0  0  0
   -6.5903    5.0147  -16.3818 C   0  0  0  0  0  0  0  0  0  0  0  0
   -7.4867    4.6845  -15.3479 C   0  0  0  0  0  0  0  0  0  0  0  0
   -8.7033    4.0729  -15.6613 C   0  0  0  0  0  0  0  0  0  0  0  0
   -9.0363    3.7860  -16.9808 C   0  0  0  0  0  0  0  0  0  0  0  0
   -8.1595    4.0897  -18.0200 C   0  0  0  0  0  0  0  0  0  0  0  0
   -6.9486    4.7155  -17.6950 C   0  0  0  0  0  0  0  0  0  0  0  0
   -5.7029    5.2436  -18.7385 S   0  0  0  0  0  0  0  0  0  0  0  0
  2  3  1  0  0  0
  3  4  1  0  0  0
  4  5  1  0  0  0
  5  6  2  0  0  0
  6  7  1  0  0  0
  7  8  2  0  0  0
  8  9  1  0  0  0
  9 10  2  0  0  0
 10 11  1  0  0  0
 11  1  1  0  0  0
  1 12  1  0  0  0
 12 14  1  0  0  0
 14 15  2  0  0  0
 15 16  1  0  0  0
 16 17  2  0  0  0
 17 18  1  0  0  0
 18 19  2  0  0  0
 19 20  1  0  0  0
 20 21  2  0  0  0
 21 22  1  0  0  0
 11  3  1  0  0  0
 22 14  1  0  0  0
 10  5  1  0  0  0
 21 16  1  0  0  0
 12 13  1  0  0  0
M  END
> <minimizedAffinity>
-5.45813

> <minimizedRMSD>
0.81937

$$$$
P34967


 20 21  0  0  0  0  0  0  0  0999 V2000
   -7.4237    4.7040  -14.5732 C   0  0  0  0  0  0  0  0  0  0  0  0
   -8.5286    4.2807  -15.3334 C   0  0  0  0  0  0  0  0  0  0  0  0
   -8.4873    4.2608  -16.7453 C   0  0  0  0  0  0  0  0  0  0  0  0
   -7.2885    4.6740  -17.3424 C   0  0  0  0  0  0  0  0  0  0  0  0
   -6.8321    4.7580  -18.6411 N   0  0  0  0  0  0  0  0  0  0  0  0
   -5.5183    5.1814  -18.6096 C   0  0  0  0  0  0  0  0  0  0  0  0
   -5.1483    5.4587  -17.3896 N   0  0  0  0  0  0  0  0  0  0  0  0
   -6.2031    5.1176  -16.6008 C   0  0  0  0  0  0  0  0  0  0  0  0
   -6.2665    5.1550  -15.2118 C   0  0  0  0  0  0  0  0  0  0  0  0
   -7.3530    4.5518  -19.4506 H   0  0  0  0  0  0  0  0  0  0  0  0
   -7.3364    4.6404  -13.0915 C   0  0  0  0  0  0  0  0  0  0  0  0
   -6.2992    4.8658  -12.4826 O   0  0  0  0  0  0  0  0  0  0  0  0
   -8.5233    4.3177  -12.5281 O   0  0  0  0  0  0  0  0  0  0  0  0
   -8.4568    3.9869  -10.1056 C   0  0  0  0  0  0  0  0  0  0  0  0
   -8.4254    3.3377  -11.4799 C   0  0  0  0  0  0  0  0  0  0  0  0
   -4.7701    5.2738  -19.7291 N   0  0  0  0  0  0  0  0  0  0  0  0
   -5.2021    5.1719  -20.6079 H   0  0  0  0  0  0  0  0  0  0  0  0
   -3.3246    5.5234  -19.6624 C   0  0  0  0  0  0  0  0  0  0  0  0
   -2.9812    6.9008  -19.1004 C   0  0  0  0  0  0  0  0  0  0  0  0
   -2.5496    4.4180  -18.9549 C   0  0  0  0  0  0  0  0  0  0  0  0
 14 15  1  0  0  0
 15 13  1  0  0  0
 13 11  1  0  0  0
 11 12  2  0  0  0
 11  1  1  0  0  0
  1  2  2  0  0  0
  2  3  1  0  0  0
  3  4  2  0  0  0
  4  5  1  0  0  0
  5  6  1  0  0  0
  6 16  1  0  0  0
 16 18  1  0  0  0
 18 19  1  0  0  0
 18 20  1  0  0  0
  6  7  2  0  0  0
  7  8  1  0  0  0
  8  9  2  0  0  0
  9  1  1  0  0  0
  8  4  1  0  0  0
  5 10  1  0  0  0
 16 17  1  0  0  0
M  END
> <minimizedAffinity>
-6.16548

> <minimizedRMSD>
0.41566

$$$$
P35018


 24 26  0  0  0  0  0  0  0  0999 V2000
   -7.0996    4.6020  -14.3604 N   0  0  0  0  0  0  0  0  0  0  0  0
   -8.4085    5.1165  -13.7281 C   0  0  0  0  0  0  0  0  0  0  0  0
   -9.3488    5.5952  -14.2223 O   0  0  0  0  0  0  0  0  0  0  0  0
   -6.4812    4.1659  -13.7306 H   0  0  0  0  0  0  0  0  0  0  0  0
   -8.2983    5.0197  -12.2417 C   0  0  0  0  0  0  0  0  0  0  0  0
   -8.1534    6.2551  -11.4725 C   0  0  0  0  0  0  0  0  0  0  0  0
   -8.0982    6.2488  -10.1283 C   0  0  0  0  0  0  0  0  0  0  0  0
   -8.1898    5.0156   -9.4297 C   0  0  0  0  0  0  0  0  0  0  0  0
   -8.1610    4.7482   -8.1415 N   0  0  0  0  0  0  0  0  0  0  0  0
   -8.2982    3.3845   -8.0575 C   0  0  0  0  0  0  0  0  0  0  0  0
   -8.4237    2.8272   -9.3067 C   0  0  0  0  0  0  0  0  0  0  0  0
   -8.3476    3.8627  -10.1924 N   0  0  0  0  0  0  0  0  0  0  0  0
   -8.4027    3.8500  -11.5847 C   0  0  0  0  0  0  0  0  0  0  0  0
   -6.2027    5.5436  -18.4678 C   0  0  0  0  0  0  0  0  0  0  0  0
   -7.3988    4.6117  -18.1920 C   0  0  0  0  0  0  0  0  0  0  0  0
   -7.7652    4.4111  -16.7194 C   0  0  0  0  0  0  0  0  0  0  0  0
   -6.6315    4.6559  -15.7315 C   0  0  0  0  0  0  0  0  0  0  0  0
   -5.9219    5.9943  -15.9652 C   0  0  0  0  0  0  0  0  0  0  0  0
   -6.1311    6.5858  -17.3561 C   0  0  0  0  0  0  0  0  0  0  0  0
   -4.9708    4.7635  -18.5940 N   0  0  0  0  0  0  0  0  0  0  0  0
   -4.7062    4.4730  -17.6527 H   0  0  0  0  0  0  0  0  0  0  0  0
   -4.0102    6.6532  -20.0091 C   0  0  0  0  0  0  0  0  0  0  0  0
   -3.7904    5.3743  -19.1970 C   0  0  0  0  0  0  0  0  0  0  0  0
   -2.6516    5.5554  -18.2006 C   0  0  0  0  0  0  0  0  0  0  0  0
 22 23  1  0  0  0
 23 24  1  0  0  0
 23 20  1  0  0  0
 14 20  1  0  0  0
 14 15  1  0  0  0
 15 16  1  0  0  0
 16 17  1  0  0  0
 17  1  1  0  0  0
  1  2  1  0  0  0
  2  3  2  0  0  0
  2  5  1  0  0  0
  5  6  1  0  0  0
  6  7  2  0  0  0
  7  8  1  0  0  0
  8  9  2  0  0  0
  9 10  1  0  0  0
 10 11  2  0  0  0
 11 12  1  0  0  0
 12 13  1  0  0  0
 17 18  1  0  0  0
 18 19  1  0  0  0
 19 14  1  0  0  0
 13  5  2  0  0  0
 12  8  1  0  0  0
 20 21  1  0  0  0
  1  4  1  0  0  0
M  END
> <minimizedAffinity>
-6.50774

> <minimizedRMSD>
0.41165

$$$$
P35129


 23 24  0  0  0  0  0  0  0  0999 V2000
   -5.4941    4.6740  -20.5556 C   0  0  0  0  0  0  0  0  0  0  0  0
   -5.9406    3.8889  -21.3055 O   0  0  0  0  0  0  0  0  0  0  0  0
   -5.9746    5.0998  -19.1264 N   0  0  0  0  0  0  0  0  0  0  0  0
   -5.3795    5.7323  -18.6626 H   0  0  0  0  0  0  0  0  0  0  0  0
   -7.0960    4.7323  -18.4129 C   0  0  0  0  0  0  0  0  0  0  0  0
   -7.0355    4.8488  -17.0212 C   0  0  0  0  0  0  0  0  0  0  0  0
   -8.1535    4.5210  -16.2529 C   0  0  0  0  0  0  0  0  0  0  0  0
   -9.2986    4.1361  -16.9489 C   0  0  0  0  0  0  0  0  0  0  0  0
   -9.2889    4.0992  -18.3342 C   0  0  0  0  0  0  0  0  0  0  0  0
   -8.2018    4.3733  -19.0734 N   0  0  0  0  0  0  0  0  0  0  0  0
   -8.1738    4.5722  -14.7338 C   0  0  0  0  0  0  0  0  0  0  0  0
   -6.8730    4.0894  -14.0906 C   0  0  0  0  0  0  0  0  0  0  0  0
   -8.5199    5.9699  -14.2226 C   0  0  0  0  0  0  0  0  0  0  0  0
   -4.3039    5.5919  -20.9029 C   0  0  0  0  0  0  0  0  0  0  0  0
   -3.1391    5.3192  -20.0690 N   0  0  0  0  0  0  0  0  0  0  0  0
   -2.5461    6.2154  -19.2156 C   0  0  0  0  0  0  0  0  0  0  0  0
   -1.4325    5.5732  -18.7343 C   0  0  0  0  0  0  0  0  0  0  0  0
   -1.3266    4.3293  -19.2840 N   0  0  0  0  0  0  0  0  0  0  0  0
   -2.3562    4.2019  -20.0845 C   0  0  0  0  0  0  0  0  0  0  0  0
   -4.0031    5.5273  -22.4094 C   0  0  0  0  0  0  0  0  0  0  0  0
   -3.3034    7.9620  -22.6602 C   0  0  0  0  0  0  0  0  0  0  0  0
   -2.9279    6.5020  -22.9222 C   0  0  0  0  0  0  0  0  0  0  0  0
   -2.7062    6.2926  -24.4231 C   0  0  0  0  0  0  0  0  0  0  0  0
 21 22  1  0  0  0
 22 23  1  0  0  0
 22 20  1  0  0  0
 14 20  1  0  0  0
 14  1  1  0  0  0
  1  2  2  0  0  0
  1  3  1  0  0  0
  3  5  1  0  0  0
  5  6  2  0  0  0
  6  7  1  0  0  0
  7 11  1  0  0  0
 11 12  1  0  0  0
 11 13  1  0  0  0
  7  8  2  0  0  0
  8  9  1  0  0  0
  9 10  2  0  0  0
 14 15  1  0  0  0
 15 16  1  0  0  0
 16 17  2  0  0  0
 17 18  1  0  0  0
 18 19  2  0  0  0
 10  5  1  0  0  0
 19 15  1  0  0  0
  3  4  1  0  0  0
M  END
> <minimizedAffinity>
-5.38417

> <minimizedRMSD>
0.59703

$$$$
P35197


 17 18  0  0  0  0  0  0  0  0999 V2000
   -5.5944    4.8091  -18.0545 N   0  0  0  0  0  0  0  0  0  0  0  0
   -4.8647    4.7598  -17.3953 H   0  0  0  0  0  0  0  0  0  0  0  0
   -8.4317    4.7152  -15.7802 C   0  0  0  0  0  0  0  0  0  0  0  0
   -7.1299    4.7580  -16.2496 C   0  0  0  0  0  0  0  0  0  0  0  0
   -6.8977    4.6342  -17.6160 C   0  0  0  0  0  0  0  0  0  0  0  0
   -8.0092    4.4896  -18.4456 C   0  0  0  0  0  0  0  0  0  0  0  0
   -9.2763    4.4218  -17.8869 C   0  0  0  0  0  0  0  0  0  0  0  0
   -9.5108    4.5226  -16.5673 N   0  0  0  0  0  0  0  0  0  0  0  0
   -8.8596    5.4322  -13.3288 N   0  0  0  0  0  0  0  0  0  0  0  0
   -8.6949    5.0612  -14.4182 C   0  0  0  0  0  0  0  0  0  0  0  0
   -5.2593    5.0622  -19.4459 C   0  0  0  0  0  0  0  0  0  0  0  0
   -3.8481    4.7147  -19.8219 C   0  0  0  0  0  0  0  0  0  0  0  0
   -3.2309    4.8119  -21.0516 C   0  0  0  0  0  0  0  0  0  0  0  0
   -1.9659    4.3297  -20.8575 N   0  0  0  0  0  0  0  0  0  0  0  0
   -1.8491    3.9872  -19.5394 C   0  0  0  0  0  0  0  0  0  0  0  0
   -2.9644    4.2129  -18.8838 N   0  0  0  0  0  0  0  0  0  0  0  0
   -1.2653    4.2446  -21.5438 H   0  0  0  0  0  0  0  0  0  0  0  0
  9 10  3  0  0  0
 10  3  1  0  0  0
  3  4  2  0  0  0
  4  5  1  0  0  0
  5  1  1  0  0  0
  1 11  1  0  0  0
 11 12  1  0  0  0
 12 13  2  0  0  0
 13 14  1  0  0  0
 14 15  1  0  0  0
 15 16  2  0  0  0
  5  6  2  0  0  0
  6  7  1  0  0  0
  7  8  2  0  0  0
  8  3  1  0  0  0
 16 12  1  0  0  0
  1  2  1  0  0  0
 14 17  1  0  0  0
M  END
> <minimizedAffinity>
-5.36096

> <minimizedRMSD>
0.70368

$$$$
P35199


 17 18  0  0  0  0  0  0  0  0999 V2000
   -5.8004    4.8915  -18.7220 N   0  0  0  0  0  0  0  0  0  0  0  0
   -5.0114    5.2604  -18.2629 H   0  0  0  0  0  0  0  0  0  0  0  0
   -7.8257    4.4837  -15.7484 C   0  0  0  0  0  0  0  0  0  0  0  0
   -6.7347    4.6305  -16.5772 C   0  0  0  0  0  0  0  0  0  0  0  0
   -6.9112    4.5977  -17.9552 C   0  0  0  0  0  0  0  0  0  0  0  0
   -8.2069    4.4150  -18.4316 C   0  0  0  0  0  0  0  0  0  0  0  0
   -9.2420    4.2317  -17.5201 C   0  0  0  0  0  0  0  0  0  0  0  0
   -9.0819    4.2731  -16.1797 N   0  0  0  0  0  0  0  0  0  0  0  0
   -8.5581    5.3822  -13.7268 C   0  0  0  0  0  0  0  0  0  0  0  0
   -7.5489    4.6696  -14.4108 O   0  0  0  0  0  0  0  0  0  0  0  0
   -5.7160    4.6947  -20.1534 C   0  0  0  0  0  0  0  0  0  0  0  0
   -4.3156    4.7957  -20.6884 C   0  0  0  0  0  0  0  0  0  0  0  0
   -3.8854    5.1743  -21.9424 C   0  0  0  0  0  0  0  0  0  0  0  0
   -2.5215    5.0804  -21.8973 N   0  0  0  0  0  0  0  0  0  0  0  0
   -2.1715    4.6853  -20.6369 C   0  0  0  0  0  0  0  0  0  0  0  0
   -3.2290    4.5129  -19.8788 N   0  0  0  0  0  0  0  0  0  0  0  0
   -1.9025    5.2647  -22.6403 H   0  0  0  0  0  0  0  0  0  0  0  0
  9 10  1  0  0  0
 10  3  1  0  0  0
  3  4  2  0  0  0
  4  5  1  0  0  0
  5  1  1  0  0  0
  1 11  1  0  0  0
 11 12  1  0  0  0
 12 13  2  0  0  0
 13 14  1  0  0  0
 14 15  1  0  0  0
 15 16  2  0  0  0
  5  6  2  0  0  0
  6  7  1  0  0  0
  7  8  2  0  0  0
  8  3  1  0  0  0
 16 12  1  0  0  0
  1  2  1  0  0  0
 14 17  1  0  0  0
M  END
> <minimizedAffinity>
-4.76605

> <minimizedRMSD>
0.36451

$$$$
P35228


 11 12  0  0  0  0  0  0  0  0999 V2000
   -9.3031    4.1298  -18.6874 C   0  0  0  0  0  0  0  0  0  0  0  0
   -9.7147    4.1556  -17.3685 C   0  0  0  0  0  0  0  0  0  0  0  0
   -8.8992    4.4558  -16.3358 N   0  0  0  0  0  0  0  0  0  0  0  0
   -7.5993    4.6890  -16.6319 C   0  0  0  0  0  0  0  0  0  0  0  0
   -7.0668    4.6564  -17.9147 C   0  0  0  0  0  0  0  0  0  0  0  0
   -7.9631    4.3959  -18.9581 C   0  0  0  0  0  0  0  0  0  0  0  0
   -5.6513    4.8987  -18.1925 C   0  0  0  0  0  0  0  0  0  0  0  0
   -5.1301    4.9156  -19.4018 N   0  0  0  0  0  0  0  0  0  0  0  0
   -3.7769    5.1687  -19.3358 C   0  0  0  0  0  0  0  0  0  0  0  0
   -3.2563    5.3046  -18.0703 C   0  0  0  0  0  0  0  0  0  0  0  0
   -4.5116    5.1600  -16.9195 S   0  0  0  0  0  0  0  0  0  0  0  0
  1  2  2  0  0  0
  2  3  1  0  0  0
  3  4  2  0  0  0
  4  5  1  0  0  0
  5  7  1  0  0  0
  7  8  2  0  0  0
  8  9  1  0  0  0
  9 10  2  0  0  0
 10 11  1  0  0  0
  5  6  2  0  0  0
  6  1  1  0  0  0
 11  7  1  0  0  0
M  END
> <minimizedAffinity>
-4.65005

> <minimizedRMSD>
1.25322

$$$$
P35261


 11 12  0  0  0  0  0  0  0  0999 V2000
   -9.2771    4.2528  -18.1731 C   0  0  0  0  0  0  0  0  0  0  0  0
   -7.9875    4.4638  -18.6264 C   0  0  0  0  0  0  0  0  0  0  0  0
   -6.9615    4.6967  -17.7016 C   0  0  0  0  0  0  0  0  0  0  0  0
   -7.3023    4.7114  -16.3450 C   0  0  0  0  0  0  0  0  0  0  0  0
   -8.6203    4.4739  -15.9852 C   0  0  0  0  0  0  0  0  0  0  0  0
   -9.6116    4.2499  -16.8699 N   0  0  0  0  0  0  0  0  0  0  0  0
   -5.5899    4.9032  -18.2044 C   0  0  0  0  0  0  0  0  0  0  0  0
   -5.2799    4.9446  -19.4864 N   0  0  0  0  0  0  0  0  0  0  0  0
   -3.9269    5.1422  -19.6553 C   0  0  0  0  0  0  0  0  0  0  0  0
   -3.1906    5.2214  -18.4974 C   0  0  0  0  0  0  0  0  0  0  0  0
   -4.2345    5.0934  -17.1486 S   0  0  0  0  0  0  0  0  0  0  0  0
  1  2  2  0  0  0
  2  3  1  0  0  0
  3  7  1  0  0  0
  7  8  2  0  0  0
  8  9  1  0  0  0
  9 10  2  0  0  0
 10 11  1  0  0  0
  3  4  2  0  0  0
  4  5  1  0  0  0
  5  6  2  0  0  0
  6  1  1  0  0  0
 11  7  1  0  0  0
M  END
> <minimizedAffinity>
-4.92880

> <minimizedRMSD>
0.67547

$$$$
P35444


 20 21  0  0  0  0  0  0  0  0999 V2000
   -3.0891    4.7709  -18.0612 C   0  0  0  0  0  0  0  0  0  0  0  0
   -4.1524    4.4463  -17.0210 C   0  0  0  0  0  0  0  0  0  0  0  0
   -3.4695    4.5026  -15.6297 C   0  0  0  0  0  0  0  0  0  0  0  0
   -3.2662    3.5492  -14.9814 O   0  0  0  0  0  0  0  0  0  0  0  0
   -3.0687    5.9885  -15.3920 N   0  0  0  0  0  0  0  0  0  0  0  0
   -3.2937    6.5993  -16.1306 H   0  0  0  0  0  0  0  0  0  0  0  0
   -2.4499    6.5879  -14.3150 C   0  0  0  0  0  0  0  0  0  0  0  0
   -2.8904    6.3791  -13.0280 C   0  0  0  0  0  0  0  0  0  0  0  0
   -2.1917    7.0356  -12.0424 C   0  0  0  0  0  0  0  0  0  0  0  0
   -1.1393    7.8363  -12.2859 N   0  0  0  0  0  0  0  0  0  0  0  0
   -0.8006    7.9666  -13.5758 C   0  0  0  0  0  0  0  0  0  0  0  0
   -1.4063    7.3791  -14.6175 N   0  0  0  0  0  0  0  0  0  0  0  0
   -5.1865    5.4311  -17.1415 O   0  0  0  0  0  0  0  0  0  0  0  0
   -6.4475    4.9005  -17.1985 C   0  0  0  0  0  0  0  0  0  0  0  0
   -6.9258    4.5824  -18.4685 C   0  0  0  0  0  0  0  0  0  0  0  0
   -8.2475    4.1695  -18.6374 C   0  0  0  0  0  0  0  0  0  0  0  0
   -9.0998    4.0824  -17.5440 C   0  0  0  0  0  0  0  0  0  0  0  0
   -8.6232    4.3829  -16.2718 C   0  0  0  0  0  0  0  0  0  0  0  0
   -7.3050    4.8072  -16.0971 C   0  0  0  0  0  0  0  0  0  0  0  0
   -6.8046    5.3279  -14.3503 Br  0  0  0  0  0  0  0  0  0  0  0  0
  2  1  1  0  0  0
  2 13  1  0  0  0
 13 14  1  0  0  0
 14 15  2  0  0  0
 15 16  1  0  0  0
 16 17  2  0  0  0
 17 18  1  0  0  0
 18 19  2  0  0  0
 19 20  1  0  0  0
  2  3  1  0  0  0
  3  4  2  0  0  0
  3  5  1  0  0  0
  5  7  1  0  0  0
  7  8  2  0  0  0
  8  9  1  0  0  0
  9 10  2  0  0  0
 10 11  1  0  0  0
 11 12  2  0  0  0
 19 14  1  0  0  0
 12  7  1  0  0  0
  5  6  1  0  0  0
M  END
> <minimizedAffinity>
-4.16652

> <minimizedRMSD>
1.85079

$$$$
P35493


 20 22  0  0  0  0  0  0  0  0999 V2000
   -8.7166    5.5021  -14.6996 C   0  0  0  0  0  0  0  0  0  0  0  0
   -8.5140    5.5290  -13.2075 C   0  0  0  0  0  0  0  0  0  0  0  0
   -8.4008    6.7297  -12.5005 C   0  0  0  0  0  0  0  0  0  0  0  0
   -8.2076    6.7101  -11.1184 C   0  0  0  0  0  0  0  0  0  0  0  0
   -8.1218    5.4878  -10.4311 C   0  0  0  0  0  0  0  0  0  0  0  0
   -7.9369    5.4237   -9.0437 C   0  0  0  0  0  0  0  0  0  0  0  0
   -7.8657    4.1852   -8.4177 C   0  0  0  0  0  0  0  0  0  0  0  0
   -7.9735    3.0515   -9.1999 C   0  0  0  0  0  0  0  0  0  0  0  0
   -8.1464    3.0841  -10.5360 N   0  0  0  0  0  0  0  0  0  0  0  0
   -8.2214    4.2740  -11.1384 C   0  0  0  0  0  0  0  0  0  0  0  0
   -8.4018    4.3172  -12.5093 C   0  0  0  0  0  0  0  0  0  0  0  0
   -7.9866    4.3772  -15.2499 N   0  0  0  0  0  0  0  0  0  0  0  0
   -8.1909    3.4638  -14.9445 H   0  0  0  0  0  0  0  0  0  0  0  0
   -5.1663    4.6583  -14.1790 Cl  0  0  0  0  0  0  0  0  0  0  0  0
   -5.6470    4.6867  -15.8286 C   0  0  0  0  0  0  0  0  0  0  0  0
   -4.6698    4.8481  -16.7933 C   0  0  0  0  0  0  0  0  0  0  0  0
   -4.9269    4.8933  -18.1094 N   0  0  0  0  0  0  0  0  0  0  0  0
   -6.2173    4.7479  -18.4780 C   0  0  0  0  0  0  0  0  0  0  0  0
   -7.2649    4.5871  -17.5824 C   0  0  0  0  0  0  0  0  0  0  0  0
   -6.9936    4.5834  -16.2126 C   0  0  0  0  0  0  0  0  0  0  0  0
 14 15  1  0  0  0
 15 16  2  0  0  0
 16 17  1  0  0  0
 17 18  2  0  0  0
 18 19  1  0  0  0
 19 20  2  0  0  0
 20 12  1  0  0  0
 12  1  1  0  0  0
  1  2  1  0  0  0
  2  3  2  0  0  0
  3  4  1  0  0  0
  4  5  2  0  0  0
  5  6  1  0  0  0
  6  7  2  0  0  0
  7  8  1  0  0  0
  8  9  2  0  0  0
  9 10  1  0  0  0
 10 11  2  0  0  0
 20 15  1  0  0  0
 11  2  1  0  0  0
 10  5  1  0  0  0
 12 13  1  0  0  0
M  END
> <minimizedAffinity>
-5.64576

> <minimizedRMSD>
0.89860

$$$$
P35500


 24 27  0  0  0  0  0  0  0  0999 V2000
   -7.3114    4.1800  -14.0570 N   0  0  0  0  0  0  0  0  0  0  0  0
   -6.8815    3.4624  -13.5379 H   0  0  0  0  0  0  0  0  0  0  0  0
   -6.6719    4.6461  -18.1192 C   0  0  0  0  0  0  0  0  0  0  0  0
   -7.9162    4.4460  -17.5865 C   0  0  0  0  0  0  0  0  0  0  0  0
   -8.1264    4.3330  -16.2697 N   0  0  0  0  0  0  0  0  0  0  0  0
   -7.0627    4.4130  -15.4316 C   0  0  0  0  0  0  0  0  0  0  0  0
   -5.7396    4.7008  -15.8750 C   0  0  0  0  0  0  0  0  0  0  0  0
   -5.5888    4.7851  -17.2646 C   0  0  0  0  0  0  0  0  0  0  0  0
   -4.6317    4.8555  -15.0428 N   0  0  0  0  0  0  0  0  0  0  0  0
   -3.7932    6.0589  -15.1272 C   0  0  0  0  0  0  0  0  0  0  0  0
   -2.3859    5.5692  -14.7750 C   0  0  0  0  0  0  0  0  0  0  0  0
   -2.6406    4.3407  -13.9194 C   0  0  0  0  0  0  0  0  0  0  0  0
   -3.8346    3.7074  -14.6138 C   0  0  0  0  0  0  0  0  0  0  0  0
   -8.2722    5.1175  -13.4968 C   0  0  0  0  0  0  0  0  0  0  0  0
   -8.2196    5.0487  -11.9933 C   0  0  0  0  0  0  0  0  0  0  0  0
   -7.9694    6.1852  -11.2187 C   0  0  0  0  0  0  0  0  0  0  0  0
   -7.9642    6.0932   -9.8270 C   0  0  0  0  0  0  0  0  0  0  0  0
   -8.2024    4.8592   -9.1992 C   0  0  0  0  0  0  0  0  0  0  0  0
   -8.2175    4.7221   -7.8053 C   0  0  0  0  0  0  0  0  0  0  0  0
   -8.4623    3.4757   -7.2418 C   0  0  0  0  0  0  0  0  0  0  0  0
   -8.6759    2.4056   -8.0893 C   0  0  0  0  0  0  0  0  0  0  0  0
   -8.6643    2.5082   -9.4321 N   0  0  0  0  0  0  0  0  0  0  0  0
   -8.4361    3.7070   -9.9752 C   0  0  0  0  0  0  0  0  0  0  0  0
   -8.4298    3.8197  -11.3528 C   0  0  0  0  0  0  0  0  0  0  0  0
  3  4  2  0  0  0
  4  5  1  0  0  0
  5  6  2  0  0  0
  6  1  1  0  0  0
  1 14  1  0  0  0
 14 15  1  0  0  0
 15 16  2  0  0  0
 16 17  1  0  0  0
 17 18  2  0  0  0
 18 19  1  0  0  0
 19 20  2  0  0  0
 20 21  1  0  0  0
 21 22  2  0  0  0
 22 23  1  0  0  0
 23 24  2  0  0  0
  6  7  1  0  0  0
  7  9  1  0  0  0
  9 10  1  0  0  0
 10 11  1  0  0  0
 11 12  1  0  0  0
 12 13  1  0  0  0
  7  8  2  0  0  0
  8  3  1  0  0  0
 24 15  1  0  0  0
 13  9  1  0  0  0
 23 18  1  0  0  0
  1  2  1  0  0  0
M  END
> <minimizedAffinity>
-6.22533

> <minimizedRMSD>
1.26177

$$$$
P35513


 20 22  0  0  0  0  0  0  0  0999 V2000
   -7.7502    4.1391  -14.2921 N   0  0  0  0  0  0  0  0  0  0  0  0
   -7.3214    3.3541  -13.8809 H   0  0  0  0  0  0  0  0  0  0  0  0
   -7.7327    4.2900  -15.6956 C   0  0  0  0  0  0  0  0  0  0  0  0
   -8.8785    4.1689  -16.4841 C   0  0  0  0  0  0  0  0  0  0  0  0
   -8.7695    4.3307  -17.8510 C   0  0  0  0  0  0  0  0  0  0  0  0
   -7.6087    4.5720  -18.4799 N   0  0  0  0  0  0  0  0  0  0  0  0
   -6.4998    4.6586  -17.7512 C   0  0  0  0  0  0  0  0  0  0  0  0
   -5.3193    4.9239  -18.4253 C   0  0  0  0  0  0  0  0  0  0  0  0
   -4.1015    5.0105  -17.7614 C   0  0  0  0  0  0  0  0  0  0  0  0
   -4.0667    4.8443  -16.3844 C   0  0  0  0  0  0  0  0  0  0  0  0
   -5.2496    4.6043  -15.6827 C   0  0  0  0  0  0  0  0  0  0  0  0
   -6.4895    4.5057  -16.3513 C   0  0  0  0  0  0  0  0  0  0  0  0
   -7.8163    6.5292  -13.6759 C   0  0  0  0  0  0  0  0  0  0  0  0
   -8.4038    5.1447  -13.4368 C   0  0  0  0  0  0  0  0  0  0  0  0
   -8.2588    4.7831  -11.9584 C   0  0  0  0  0  0  0  0  0  0  0  0
   -8.2567    3.4388  -11.5919 C   0  0  0  0  0  0  0  0  0  0  0  0
   -8.2226    3.1076  -10.2424 C   0  0  0  0  0  0  0  0  0  0  0  0
   -8.1755    4.1190   -9.2929 C   0  0  0  0  0  0  0  0  0  0  0  0
   -8.1530    5.4290   -9.7346 C   0  0  0  0  0  0  0  0  0  0  0  0
   -8.1863    5.7843  -11.0366 N   0  0  0  0  0  0  0  0  0  0  0  0
 14 13  1  0  0  0
 14  1  1  0  0  0
  1  3  1  0  0  0
  3  4  2  0  0  0
  4  5  1  0  0  0
  5  6  2  0  0  0
  6  7  1  0  0  0
  7  8  2  0  0  0
  8  9  1  0  0  0
  9 10  2  0  0  0
 10 11  1  0  0  0
 11 12  2  0  0  0
 14 15  1  0  0  0
 15 16  2  0  0  0
 16 17  1  0  0  0
 17 18  2  0  0  0
 18 19  1  0  0  0
 19 20  2  0  0  0
 12  3  1  0  0  0
 20 15  1  0  0  0
 12  7  1  0  0  0
  1  2  1  0  0  0
M  END
> <minimizedAffinity>
-6.84430

> <minimizedRMSD>
0.91802

$$$$
P35514


 21 23  0  0  0  0  0  0  0  0999 V2000
   -7.7444    4.1462  -14.2970 N   0  0  0  0  0  0  0  0  0  0  0  0
   -7.3425    3.3491  -13.8818 H   0  0  0  0  0  0  0  0  0  0  0  0
   -7.7359    4.2832  -15.7001 C   0  0  0  0  0  0  0  0  0  0  0  0
   -8.8938    4.1050  -16.4645 C   0  0  0  0  0  0  0  0  0  0  0  0
   -8.8376    4.2889  -17.8303 C   0  0  0  0  0  0  0  0  0  0  0  0
   -7.7108    4.5956  -18.4878 N   0  0  0  0  0  0  0  0  0  0  0  0
   -6.5809    4.6850  -17.7958 C   0  0  0  0  0  0  0  0  0  0  0  0
   -5.4363    4.9728  -18.5198 C   0  0  0  0  0  0  0  0  0  0  0  0
   -4.1886    5.0397  -17.9149 C   0  0  0  0  0  0  0  0  0  0  0  0
   -4.0867    4.8221  -16.5492 C   0  0  0  0  0  0  0  0  0  0  0  0
   -5.2345    4.5647  -15.7957 C   0  0  0  0  0  0  0  0  0  0  0  0
   -6.5129    4.5052  -16.3983 C   0  0  0  0  0  0  0  0  0  0  0  0
   -7.6900    6.5385  -13.6807 C   0  0  0  0  0  0  0  0  0  0  0  0
   -8.3480    5.1832  -13.4494 C   0  0  0  0  0  0  0  0  0  0  0  0
   -8.2175    4.8141  -11.9759 C   0  0  0  0  0  0  0  0  0  0  0  0
   -8.2487    3.4692  -11.6134 C   0  0  0  0  0  0  0  0  0  0  0  0
   -8.3079    3.1343  -10.2656 C   0  0  0  0  0  0  0  0  0  0  0  0
   -8.3151    4.1490   -9.3215 C   0  0  0  0  0  0  0  0  0  0  0  0
   -8.4829    3.7492   -7.4938 Br  0  0  0  0  0  0  0  0  0  0  0  0
   -8.2156    5.4604   -9.7535 C   0  0  0  0  0  0  0  0  0  0  0  0
   -8.1505    5.8190  -11.0563 N   0  0  0  0  0  0  0  0  0  0  0  0
 14 13  1  0  0  0
 14  1  1  0  0  0
  1  3  1  0  0  0
  3  4  2  0  0  0
  4  5  1  0  0  0
  5  6  2  0  0  0
  6  7  1  0  0  0
  7  8  2  0  0  0
  8  9  1  0  0  0
  9 10  2  0  0  0
 10 11  1  0  0  0
 11 12  2  0  0  0
 14 15  1  0  0  0
 15 16  2  0  0  0
 16 17  1  0  0  0
 17 18  2  0  0  0
 18 19  1  0  0  0
 18 20  1  0  0  0
 20 21  2  0  0  0
 12  3  1  0  0  0
 21 15  1  0  0  0
 12  7  1  0  0  0
  1  2  1  0  0  0
M  END
> <minimizedAffinity>
-7.11976

> <minimizedRMSD>
1.01257

$$$$
P35557


 25 28  0  0  0  0  0  0  0  0999 V2000
   -8.1939    5.5216  -13.6782 C   0  0  0  0  0  0  0  0  0  0  0  0
   -8.3144    4.6695  -10.0872 C   0  0  0  0  0  0  0  0  0  0  0  0
   -8.3186    4.2139  -11.4317 C   0  0  0  0  0  0  0  0  0  0  0  0
   -8.1867    5.3405  -12.2111 C   0  0  0  0  0  0  0  0  0  0  0  0
   -8.0539    6.3714  -11.3338 N   0  0  0  0  0  0  0  0  0  0  0  0
   -8.1380    6.0075  -10.0474 N   0  0  0  0  0  0  0  0  0  0  0  0
   -7.9089    7.3025  -11.6190 H   0  0  0  0  0  0  0  0  0  0  0  0
   -8.9491    2.3270   -6.6432 C   0  0  0  0  0  0  0  0  0  0  0  0
   -8.4710    3.6135   -6.4910 C   0  0  0  0  0  0  0  0  0  0  0  0
   -8.2389    4.3929   -7.6207 C   0  0  0  0  0  0  0  0  0  0  0  0
   -8.5015    3.8619   -8.8790 C   0  0  0  0  0  0  0  0  0  0  0  0
   -8.9744    2.6098   -9.0454 N   0  0  0  0  0  0  0  0  0  0  0  0
   -9.1634    1.8735   -7.9272 C   0  0  0  0  0  0  0  0  0  0  0  0
   -7.9221    4.2872  -14.3882 N   0  0  0  0  0  0  0  0  0  0  0  0
   -7.8026    3.4306  -13.9178 H   0  0  0  0  0  0  0  0  0  0  0  0
   -7.8385    4.3864  -15.7995 C   0  0  0  0  0  0  0  0  0  0  0  0
   -8.9844    4.2085  -16.5927 C   0  0  0  0  0  0  0  0  0  0  0  0
   -8.9017    4.2692  -17.9729 C   0  0  0  0  0  0  0  0  0  0  0  0
   -7.6677    4.4814  -18.5648 C   0  0  0  0  0  0  0  0  0  0  0  0
   -6.5134    4.6500  -17.8028 C   0  0  0  0  0  0  0  0  0  0  0  0
   -5.2846    4.8776  -18.4298 C   0  0  0  0  0  0  0  0  0  0  0  0
   -4.1430    5.0183  -17.6644 C   0  0  0  0  0  0  0  0  0  0  0  0
   -4.2815    4.9461  -16.2923 C   0  0  0  0  0  0  0  0  0  0  0  0
   -5.4571    4.7555  -15.6522 N   0  0  0  0  0  0  0  0  0  0  0  0
   -6.5759    4.5924  -16.3999 C   0  0  0  0  0  0  0  0  0  0  0  0
  8  9  2  0  0  0
  9 10  1  0  0  0
 10 11  2  0  0  0
 11  2  1  0  0  0
  2  3  1  0  0  0
  3  4  2  0  0  0
  4  1  1  0  0  0
  1 14  1  0  0  0
 14 16  1  0  0  0
 16 17  2  0  0  0
 17 18  1  0  0  0
 18 19  2  0  0  0
 19 20  1  0  0  0
 20 21  2  0  0  0
 21 22  1  0  0  0
 22 23  2  0  0  0
 23 24  1  0  0  0
 24 25  2  0  0  0
  4  5  1  0  0  0
  5  6  1  0  0  0
 11 12  1  0  0  0
 12 13  2  0  0  0
 13  8  1  0  0  0
  6  2  2  0  0  0
 25 16  1  0  0  0
 25 20  1  0  0  0
 14 15  1  0  0  0
  5  7  1  0  0  0
M  END
> <minimizedAffinity>
-7.79378

> <minimizedRMSD>
0.81076

$$$$
P35568


 24 27  0  0  0  0  0  0  0  0999 V2000
   -7.5935    4.4989  -13.4066 N   0  0  0  0  0  0  0  0  0  0  0  0
   -7.8284    3.6465  -12.9736 H   0  0  0  0  0  0  0  0  0  0  0  0
   -7.4578    4.4669  -15.8691 C   0  0  0  0  0  0  0  0  0  0  0  0
   -6.9713    4.4754  -14.5849 C   0  0  0  0  0  0  0  0  0  0  0  0
   -5.6131    4.4818  -14.5363 N   0  0  0  0  0  0  0  0  0  0  0  0
   -5.2336    4.5514  -15.7859 C   0  0  0  0  0  0  0  0  0  0  0  0
   -3.9344    4.6556  -16.3532 C   0  0  0  0  0  0  0  0  0  0  0  0
   -3.8040    4.8624  -17.6753 C   0  0  0  0  0  0  0  0  0  0  0  0
   -4.9681    4.9600  -18.5310 C   0  0  0  0  0  0  0  0  0  0  0  0
   -6.1913    4.7781  -18.0105 C   0  0  0  0  0  0  0  0  0  0  0  0
   -6.3283    4.5826  -16.6447 N   0  0  0  0  0  0  0  0  0  0  0  0
   -9.8443    4.3739  -16.8332 N   0  0  0  0  0  0  0  0  0  0  0  0
   -8.7772    4.3840  -16.3772 C   0  0  0  0  0  0  0  0  0  0  0  0
   -7.9337    5.7381  -12.7454 C   0  0  0  0  0  0  0  0  0  0  0  0
   -8.1437    5.4225  -11.2921 C   0  0  0  0  0  0  0  0  0  0  0  0
   -8.0111    6.3990  -10.3012 C   0  0  0  0  0  0  0  0  0  0  0  0
   -8.1161    6.0407   -8.9586 C   0  0  0  0  0  0  0  0  0  0  0  0
   -8.3445    4.7017   -8.6001 C   0  0  0  0  0  0  0  0  0  0  0  0
   -8.4393    4.2948   -7.2637 C   0  0  0  0  0  0  0  0  0  0  0  0
   -8.6612    2.9550   -6.9709 C   0  0  0  0  0  0  0  0  0  0  0  0
   -8.7789    2.0650   -8.0215 C   0  0  0  0  0  0  0  0  0  0  0  0
   -8.6959    2.4288   -9.3143 N   0  0  0  0  0  0  0  0  0  0  0  0
   -8.4804    3.7152   -9.5969 C   0  0  0  0  0  0  0  0  0  0  0  0
   -8.3727    4.0902  -10.9200 C   0  0  0  0  0  0  0  0  0  0  0  0
 12 13  3  0  0  0
 13  3  1  0  0  0
  3  4  2  0  0  0
  4  1  1  0  0  0
  1 14  1  0  0  0
 14 15  1  0  0  0
 15 16  2  0  0  0
 16 17  1  0  0  0
 17 18  2  0  0  0
 18 19  1  0  0  0
 19 20  2  0  0  0
 20 21  1  0  0  0
 21 22  2  0  0  0
 22 23  1  0  0  0
 23 24  2  0  0  0
  4  5  1  0  0  0
  5  6  2  0  0  0
  6  7  1  0  0  0
  7  8  2  0  0  0
  8  9  1  0  0  0
  9 10  2  0  0  0
 10 11  1  0  0  0
 11  3  1  0  0  0
 24 15  1  0  0  0
 11  6  1  0  0  0
 23 18  1  0  0  0
  1  2  1  0  0  0
M  END
> <minimizedAffinity>
-6.89789

> <minimizedRMSD>
1.23665

$$$$
P35576


 24 27  0  0  0  0  0  0  0  0999 V2000
   -8.5474    5.4136  -13.5523 C   0  0  0  0  0  0  0  0  0  0  0  0
   -9.4044    6.1678  -13.7943 O   0  0  0  0  0  0  0  0  0  0  0  0
   -7.5987    4.6418  -14.4933 N   0  0  0  0  0  0  0  0  0  0  0  0
   -6.9014    4.1180  -14.0365 H   0  0  0  0  0  0  0  0  0  0  0  0
   -8.9508    1.9863   -7.1280 C   0  0  0  0  0  0  0  0  0  0  0  0
   -8.6371    3.0173   -8.1661 C   0  0  0  0  0  0  0  0  0  0  0  0
   -8.3593    4.3947   -7.7603 C   0  0  0  0  0  0  0  0  0  0  0  0
   -8.1370    5.3751   -8.6620 C   0  0  0  0  0  0  0  0  0  0  0  0
   -8.1758    5.0755  -10.0508 C   0  0  0  0  0  0  0  0  0  0  0  0
   -8.0949    5.8464  -11.1189 N   0  0  0  0  0  0  0  0  0  0  0  0
   -8.3066    4.9908  -12.1812 C   0  0  0  0  0  0  0  0  0  0  0  0
   -8.3700    3.6813  -11.7573 C   0  0  0  0  0  0  0  0  0  0  0  0
   -8.3864    3.7465  -10.3950 N   0  0  0  0  0  0  0  0  0  0  0  0
   -8.6178    2.7363   -9.4788 C   0  0  0  0  0  0  0  0  0  0  0  0
   -7.5684    4.5653  -15.8867 C   0  0  0  0  0  0  0  0  0  0  0  0
   -8.7665    4.3571  -16.5635 C   0  0  0  0  0  0  0  0  0  0  0  0
   -8.7324    4.2839  -17.9361 C   0  0  0  0  0  0  0  0  0  0  0  0
   -7.6049    4.4244  -18.6538 N   0  0  0  0  0  0  0  0  0  0  0  0
   -6.4593    4.6386  -18.0119 C   0  0  0  0  0  0  0  0  0  0  0  0
   -5.3363    4.8361  -18.7956 C   0  0  0  0  0  0  0  0  0  0  0  0
   -4.0828    5.0481  -18.2382 C   0  0  0  0  0  0  0  0  0  0  0  0
   -3.9525    5.0761  -16.8577 C   0  0  0  0  0  0  0  0  0  0  0  0
   -5.0765    4.9081  -16.0461 C   0  0  0  0  0  0  0  0  0  0  0  0
   -6.3568    4.6905  -16.6091 C   0  0  0  0  0  0  0  0  0  0  0  0
  5  6  1  0  0  0
  6  7  1  0  0  0
  7  8  2  0  0  0
  8  9  1  0  0  0
  9 10  2  0  0  0
 10 11  1  0  0  0
 11  1  1  0  0  0
  1  2  2  0  0  0
  1  3  1  0  0  0
  3 15  1  0  0  0
 15 16  2  0  0  0
 16 17  1  0  0  0
 17 18  2  0  0  0
 18 19  1  0  0  0
 19 20  2  0  0  0
 20 21  1  0  0  0
 21 22  2  0  0  0
 22 23  1  0  0  0
 23 24  2  0  0  0
 11 12  2  0  0  0
 12 13  1  0  0  0
 13 14  1  0  0  0
 14  6  2  0  0  0
 13  9  1  0  0  0
 24 15  1  0  0  0
 24 19  1  0  0  0
  3  4  1  0  0  0
M  END
> <minimizedAffinity>
-8.38969

> <minimizedRMSD>
0.71736

$$$$
P35779


 16 17  0  0  0  0  0  0  0  0999 V2000
   -4.5420    4.9520  -17.9179 C   0  0  0  0  0  0  0  0  0  0  0  0
   -5.9310    5.2615  -17.5791 N   0  0  0  0  0  0  0  0  0  0  0  0
   -6.8198    4.6055  -18.5480 C   0  0  0  0  0  0  0  0  0  0  0  0
   -8.2788    4.8999  -18.2784 C   0  0  0  0  0  0  0  0  0  0  0  0
   -8.6218    4.6568  -16.8282 C   0  0  0  0  0  0  0  0  0  0  0  0
   -9.7246    4.1936  -16.5423 O   0  0  0  0  0  0  0  0  0  0  0  0
   -7.6246    5.1362  -15.7704 C   0  0  0  0  0  0  0  0  0  0  0  0
   -6.2169    4.7688  -16.2349 C   0  0  0  0  0  0  0  0  0  0  0  0
   -7.7747    4.5305  -14.3561 C   0  0  0  0  0  0  0  0  0  0  0  0
   -8.3687    5.4900  -13.3353 C   0  0  0  0  0  0  0  0  0  0  0  0
   -8.3123    4.9816  -11.9118 C   0  0  0  0  0  0  0  0  0  0  0  0
   -8.4033    3.6202  -11.6080 C   0  0  0  0  0  0  0  0  0  0  0  0
   -8.4063    3.2233  -10.2758 C   0  0  0  0  0  0  0  0  0  0  0  0
   -8.3166    4.0840   -9.2367 N   0  0  0  0  0  0  0  0  0  0  0  0
   -8.2266    5.3912   -9.5489 C   0  0  0  0  0  0  0  0  0  0  0  0
   -8.2159    5.8814  -10.8468 C   0  0  0  0  0  0  0  0  0  0  0  0
  1  2  1  0  0  0
  2  3  1  0  0  0
  3  4  1  0  0  0
  4  5  1  0  0  0
  5  6  2  0  0  0
  5  7  1  0  0  0
  7  9  1  0  0  0
  9 10  1  0  0  0
 10 11  1  0  0  0
 11 12  2  0  0  0
 12 13  1  0  0  0
 13 14  2  0  0  0
 14 15  1  0  0  0
 15 16  2  0  0  0
  7  8  1  0  0  0
  8  2  1  0  0  0
 16 11  1  0  0  0
M  END
> <minimizedAffinity>
-5.07438

> <minimizedRMSD>
0.54766

$$$$
P36023


 14 15  0  0  0  0  0  0  0  0999 V2000
   -5.8865    4.9064  -17.8458 C   0  0  0  0  0  0  0  0  0  0  0  0
   -6.6962    4.4774  -18.8961 C   0  0  0  0  0  0  0  0  0  0  0  0
   -7.9986    4.0786  -18.6489 C   0  0  0  0  0  0  0  0  0  0  0  0
   -8.5815    4.0384  -17.4379 N   0  0  0  0  0  0  0  0  0  0  0  0
   -7.7986    4.4493  -16.4064 C   0  0  0  0  0  0  0  0  0  0  0  0
   -8.2192    4.5268  -15.0498 C   0  0  0  0  0  0  0  0  0  0  0  0
   -7.2232    4.9514  -14.2036 C   0  0  0  0  0  0  0  0  0  0  0  0
   -5.7837    5.3060  -15.0475 S   0  0  0  0  0  0  0  0  0  0  0  0
   -6.4803    4.8738  -16.5679 C   0  0  0  0  0  0  0  0  0  0  0  0
   -4.5958    5.4202  -18.0659 N   0  0  0  0  0  0  0  0  0  0  0  0
   -4.1656    6.0345  -17.4281 H   0  0  0  0  0  0  0  0  0  0  0  0
   -3.6533    6.2068  -20.1630 C   0  0  0  0  0  0  0  0  0  0  0  0
   -3.9268    4.9911  -19.2960 C   0  0  0  0  0  0  0  0  0  0  0  0
   -2.5980    4.3211  -18.9491 C   0  0  0  0  0  0  0  0  0  0  0  0
 12 13  1  0  0  0
 13 14  1  0  0  0
 13 10  1  0  0  0
 10  1  1  0  0  0
  1  2  2  0  0  0
  2  3  1  0  0  0
  3  4  2  0  0  0
  4  5  1  0  0  0
  5  6  1  0  0  0
  6  7  2  0  0  0
  7  8  1  0  0  0
  8  9  1  0  0  0
  9  1  1  0  0  0
  9  5  2  0  0  0
 10 11  1  0  0  0
M  END
> <minimizedAffinity>
-4.88065

> <minimizedRMSD>
0.49888

$$$$
P36086


 13 13  0  0  0  0  0  0  0  0999 V2000
   -4.4743    4.9040  -19.0596 C   0  0  0  0  0  0  0  0  0  0  0  0
   -5.9019    4.7451  -18.5129 C   0  0  0  0  0  0  0  0  0  0  0  0
   -6.4159    5.9993  -17.8229 C   0  0  0  0  0  0  0  0  0  0  0  0
   -6.2440    7.2113  -18.7242 C   0  0  0  0  0  0  0  0  0  0  0  0
   -4.8000    7.3484  -19.1912 C   0  0  0  0  0  0  0  0  0  0  0  0
   -4.3151    6.1416  -19.8377 N   0  0  0  0  0  0  0  0  0  0  0  0
   -3.3216    6.2659  -20.0323 H   0  0  0  0  0  0  0  0  0  0  0  0
   -3.6212    5.0096  -16.5502 C   0  0  0  0  0  0  0  0  0  0  0  0
   -3.3766    4.5711  -17.9970 C   0  0  0  0  0  0  0  0  0  0  0  0
   -1.9589    4.9552  -18.4701 C   0  0  0  0  0  0  0  0  0  0  0  0
   -1.5413    6.3070  -18.1106 N   0  0  0  0  0  0  0  0  0  0  0  0
   -2.1573    6.9841  -18.5607 H   0  0  0  0  0  0  0  0  0  0  0  0
   -0.5821    6.4606  -18.4218 H   0  0  0  0  0  0  0  0  0  0  0  0
  9  8  1  0  0  0
  9 10  1  0  0  0
 10 11  1  0  0  0
  9  1  1  0  0  0
  1  2  1  0  0  0
  2  3  1  0  0  0
  3  4  1  0  0  0
  4  5  1  0  0  0
  5  6  1  0  0  0
  6  1  1  0  0  0
 11 12  1  0  0  0
 11 13  1  0  0  0
  6  7  1  0  0  0
M  END
> <minimizedAffinity>
-2.96271

> <minimizedRMSD>
1.32219

$$$$
P36375


 17 19  0  0  0  0  0  0  0  0999 V2000
   -9.1365    3.8446  -18.2369 C   0  0  0  0  0  0  0  0  0  0  0  0
   -8.1098    4.1293  -19.1056 C   0  0  0  0  0  0  0  0  0  0  0  0
   -6.9242    4.6392  -18.7153 N   0  0  0  0  0  0  0  0  0  0  0  0
   -6.7123    4.8840  -17.4136 C   0  0  0  0  0  0  0  0  0  0  0  0
   -5.5233    5.4916  -16.9880 C   0  0  0  0  0  0  0  0  0  0  0  0
   -5.2892    5.6690  -15.6089 C   0  0  0  0  0  0  0  0  0  0  0  0
   -6.2424    5.2973  -14.6642 C   0  0  0  0  0  0  0  0  0  0  0  0
   -7.4526    4.7635  -15.0838 C   0  0  0  0  0  0  0  0  0  0  0  0
   -7.6936    4.5659  -16.4488 C   0  0  0  0  0  0  0  0  0  0  0  0
   -8.9191    4.0597  -16.8874 C   0  0  0  0  0  0  0  0  0  0  0  0
   -4.4685    5.9921  -17.9773 C   0  0  0  0  0  0  0  0  0  0  0  0
   -5.0201    6.3333  -19.3806 C   0  0  0  0  0  0  0  0  0  0  0  0
   -3.8742    6.5076  -20.3758 C   0  0  0  0  0  0  0  0  0  0  0  0
   -2.9761    5.3560  -20.5026 N   0  0  0  0  0  0  0  0  0  0  0  0
   -3.1206    4.3888  -19.4135 C   0  0  0  0  0  0  0  0  0  0  0  0
   -3.2444    5.0680  -18.0570 C   0  0  0  0  0  0  0  0  0  0  0  0
   -2.0139    5.6946  -20.5099 H   0  0  0  0  0  0  0  0  0  0  0  0
  1  2  2  0  0  0
  2  3  1  0  0  0
  3  4  2  0  0  0
  4  5  1  0  0  0
  5 11  1  0  0  0
 11 12  1  0  0  0
 12 13  1  0  0  0
 13 14  1  0  0  0
 14 15  1  0  0  0
 15 16  1  0  0  0
  5  6  2  0  0  0
  6  7  1  0  0  0
  7  8  2  0  0  0
  8  9  1  0  0  0
  9 10  2  0  0  0
 10  1  1  0  0  0
  9  4  1  0  0  0
 16 11  1  0  0  0
 14 17  1  0  0  0
M  END
> <minimizedAffinity>
-7.36854

> <minimizedRMSD>
0.79393

$$$$
P36761


 21 23  0  0  0  0  0  0  0  0999 V2000
   -7.0482    4.7987  -14.5034 N   0  0  0  0  0  0  0  0  0  0  0  0
   -8.1461    5.6089  -13.7753 C   0  0  0  0  0  0  0  0  0  0  0  0
   -8.9598    6.3312  -14.1985 O   0  0  0  0  0  0  0  0  0  0  0  0
   -6.5279    4.1963  -13.9240 H   0  0  0  0  0  0  0  0  0  0  0  0
   -8.1119    5.3522  -12.3243 C   0  0  0  0  0  0  0  0  0  0  0  0
   -8.0092    6.4314  -11.4469 C   0  0  0  0  0  0  0  0  0  0  0  0
   -8.0483    6.2220  -10.0667 C   0  0  0  0  0  0  0  0  0  0  0  0
   -8.2158    4.9055   -9.6056 C   0  0  0  0  0  0  0  0  0  0  0  0
   -8.3464    4.3275   -7.9867 S   0  0  0  0  0  0  0  0  0  0  0  0
   -8.5204    2.7309   -8.5787 C   0  0  0  0  0  0  0  0  0  0  0  0
   -8.4688    2.5948   -9.8823 N   0  0  0  0  0  0  0  0  0  0  0  0
   -8.3197    3.8221  -10.4804 C   0  0  0  0  0  0  0  0  0  0  0  0
   -8.2653    4.0429  -11.8652 C   0  0  0  0  0  0  0  0  0  0  0  0
   -7.5470    4.5107  -16.9115 C   0  0  0  0  0  0  0  0  0  0  0  0
   -7.0167    4.5842  -18.2080 C   0  0  0  0  0  0  0  0  0  0  0  0
   -5.6806    4.8976  -18.3987 C   0  0  0  0  0  0  0  0  0  0  0  0
   -4.8096    5.1067  -17.3946 N   0  0  0  0  0  0  0  0  0  0  0  0
   -5.3295    5.0215  -16.1483 C   0  0  0  0  0  0  0  0  0  0  0  0
   -6.6745    4.7825  -15.8494 C   0  0  0  0  0  0  0  0  0  0  0  0
   -9.9787    4.3714  -17.7646 C   0  0  0  0  0  0  0  0  0  0  0  0
   -8.9651    4.0387  -16.6829 C   0  0  0  0  0  0  0  0  0  0  0  0
 20 21  1  0  0  0
 21 14  1  0  0  0
 14 15  2  0  0  0
 15 16  1  0  0  0
 16 17  2  0  0  0
 17 18  1  0  0  0
 18 19  2  0  0  0
 19  1  1  0  0  0
  1  2  1  0  0  0
  2  3  2  0  0  0
  2  5  1  0  0  0
  5  6  2  0  0  0
  6  7  1  0  0  0
  7  8  2  0  0  0
  8  9  1  0  0  0
  9 10  1  0  0  0
 10 11  2  0  0  0
 11 12  1  0  0  0
 12 13  2  0  0  0
 19 14  1  0  0  0
 13  5  1  0  0  0
 12  8  1  0  0  0
  1  4  1  0  0  0
M  END
> <minimizedAffinity>
-6.50843

> <minimizedRMSD>
0.29401

$$$$
P36789


 23 25  0  0  0  0  0  0  0  0999 V2000
   -6.3475    4.9011  -14.6286 N   0  0  0  0  0  0  0  0  0  0  0  0
   -6.8502    6.1138  -13.8199 C   0  0  0  0  0  0  0  0  0  0  0  0
   -7.0458    7.2148  -14.1508 O   0  0  0  0  0  0  0  0  0  0  0  0
   -6.3379    4.0506  -14.1329 H   0  0  0  0  0  0  0  0  0  0  0  0
   -7.1189    5.7181  -12.4200 C   0  0  0  0  0  0  0  0  0  0  0  0
   -6.7883    6.5906  -11.3832 C   0  0  0  0  0  0  0  0  0  0  0  0
   -7.0472    6.2381  -10.0543 C   0  0  0  0  0  0  0  0  0  0  0  0
   -7.6624    4.9985   -9.8061 C   0  0  0  0  0  0  0  0  0  0  0  0
   -8.1286    4.2912   -8.3028 S   0  0  0  0  0  0  0  0  0  0  0  0
   -8.7341    2.9266   -9.1406 C   0  0  0  0  0  0  0  0  0  0  0  0
   -8.5907    2.9460  -10.4445 N   0  0  0  0  0  0  0  0  0  0  0  0
   -8.0046    4.1248  -10.8406 C   0  0  0  0  0  0  0  0  0  0  0  0
   -7.7290    4.4866  -12.1703 C   0  0  0  0  0  0  0  0  0  0  0  0
   -6.7419    4.6976  -17.0429 C   0  0  0  0  0  0  0  0  0  0  0  0
   -6.1714    4.7532  -18.3177 C   0  0  0  0  0  0  0  0  0  0  0  0
   -4.8041    4.9282  -18.4518 C   0  0  0  0  0  0  0  0  0  0  0  0
   -4.0452    4.9774  -17.3006 C   0  0  0  0  0  0  0  0  0  0  0  0
   -4.5598    4.9048  -16.0533 N   0  0  0  0  0  0  0  0  0  0  0  0
   -5.9079    4.8135  -15.9369 C   0  0  0  0  0  0  0  0  0  0  0  0
   -8.1614    4.3471  -16.9283 C   0  0  0  0  0  0  0  0  0  0  0  0
   -8.6660    3.7641  -15.9865 O   0  0  0  0  0  0  0  0  0  0  0  0
  -10.1885    4.5262  -18.0189 C   0  0  0  0  0  0  0  0  0  0  0  0
   -8.7922    4.7634  -18.0496 O   0  0  0  0  0  0  0  0  0  0  0  0
 22 23  1  0  0  0
 23 20  1  0  0  0
 20 21  2  0  0  0
 20 14  1  0  0  0
 14 15  2  0  0  0
 15 16  1  0  0  0
 16 17  2  0  0  0
 17 18  1  0  0  0
 18 19  2  0  0  0
 19  1  1  0  0  0
  1  2  1  0  0  0
  2  3  2  0  0  0
  2  5  1  0  0  0
  5  6  2  0  0  0
  6  7  1  0  0  0
  7  8  2  0  0  0
  8  9  1  0  0  0
  9 10  1  0  0  0
 10 11  2  0  0  0
 11 12  1  0  0  0
 12 13  2  0  0  0
 19 14  1  0  0  0
 13  5  1  0  0  0
 12  8  1  0  0  0
  1  4  1  0  0  0
M  END
> <minimizedAffinity>
-6.09168

> <minimizedRMSD>
0.94634

$$$$
P36790


 22 24  0  0  0  0  0  0  0  0999 V2000
   -7.6822    4.7175  -14.5795 N   0  0  0  0  0  0  0  0  0  0  0  0
   -8.6165    5.5760  -13.7010 C   0  0  0  0  0  0  0  0  0  0  0  0
   -9.5319    6.2390  -13.9928 O   0  0  0  0  0  0  0  0  0  0  0  0
   -7.0219    4.1845  -14.0803 H   0  0  0  0  0  0  0  0  0  0  0  0
   -8.3158    5.4197  -12.2737 C   0  0  0  0  0  0  0  0  0  0  0  0
   -8.1759    6.5492  -11.4696 C   0  0  0  0  0  0  0  0  0  0  0  0
   -8.0801    6.4104  -10.0833 C   0  0  0  0  0  0  0  0  0  0  0  0
   -8.1653    5.1151   -9.5434 C   0  0  0  0  0  0  0  0  0  0  0  0
   -8.1551    4.6221   -7.8912 S   0  0  0  0  0  0  0  0  0  0  0  0
   -8.3237    2.9915   -8.3838 C   0  0  0  0  0  0  0  0  0  0  0  0
   -8.3679    2.7858   -9.6777 N   0  0  0  0  0  0  0  0  0  0  0  0
   -8.2998    3.9823  -10.3495 C   0  0  0  0  0  0  0  0  0  0  0  0
   -8.3668    4.1305  -11.7425 C   0  0  0  0  0  0  0  0  0  0  0  0
   -6.4479    4.6487  -17.9110 C   0  0  0  0  0  0  0  0  0  0  0  0
   -7.5888    4.3983  -18.6511 C   0  0  0  0  0  0  0  0  0  0  0  0
   -8.7865    4.1847  -17.9996 C   0  0  0  0  0  0  0  0  0  0  0  0
   -8.8051    4.2813  -16.6229 C   0  0  0  0  0  0  0  0  0  0  0  0
   -7.6217    4.5752  -15.9516 C   0  0  0  0  0  0  0  0  0  0  0  0
   -6.4194    4.7335  -16.5617 N   0  0  0  0  0  0  0  0  0  0  0  0
   -5.3212    4.8419  -18.6870 O   0  0  0  0  0  0  0  0  0  0  0  0
   -3.0011    4.6439  -18.9615 C   0  0  0  0  0  0  0  0  0  0  0  0
   -4.1041    5.0307  -17.9877 C   0  0  0  0  0  0  0  0  0  0  0  0
 21 22  1  0  0  0
 22 20  1  0  0  0
 20 14  1  0  0  0
 14 15  2  0  0  0
 15 16  1  0  0  0
 16 17  2  0  0  0
 17 18  1  0  0  0
 18  1  1  0  0  0
  1  2  1  0  0  0
  2  3  2  0  0  0
  2  5  1  0  0  0
  5  6  2  0  0  0
  6  7  1  0  0  0
  7  8  2  0  0  0
  8  9  1  0  0  0
  9 10  1  0  0  0
 10 11  2  0  0  0
 11 12  1  0  0  0
 12 13  2  0  0  0
 18 19  2  0  0  0
 19 14  1  0  0  0
 13  5  1  0  0  0
 12  8  1  0  0  0
  1  4  1  0  0  0
M  END
> <minimizedAffinity>
-6.79756

> <minimizedRMSD>
0.72740

$$$$
P36792


 20 22  0  0  0  0  0  0  0  0999 V2000
   -7.7766    4.6970  -14.5888 N   0  0  0  0  0  0  0  0  0  0  0  0
   -8.6830    5.5946  -13.7303 C   0  0  0  0  0  0  0  0  0  0  0  0
   -9.5516    6.3076  -14.0393 O   0  0  0  0  0  0  0  0  0  0  0  0
   -7.1598    4.1250  -14.0773 H   0  0  0  0  0  0  0  0  0  0  0  0
   -8.3725    5.4296  -12.3052 C   0  0  0  0  0  0  0  0  0  0  0  0
   -8.1827    6.5555  -11.5066 C   0  0  0  0  0  0  0  0  0  0  0  0
   -8.0086    6.4093  -10.1291 C   0  0  0  0  0  0  0  0  0  0  0  0
   -8.0637    5.1108   -9.5925 C   0  0  0  0  0  0  0  0  0  0  0  0
   -7.9460    4.6075   -7.9474 S   0  0  0  0  0  0  0  0  0  0  0  0
   -8.1466    2.9799   -8.4379 C   0  0  0  0  0  0  0  0  0  0  0  0
   -8.2927    2.7846   -9.7251 N   0  0  0  0  0  0  0  0  0  0  0  0
   -8.2510    3.9829  -10.3948 C   0  0  0  0  0  0  0  0  0  0  0  0
   -8.3917    4.1377  -11.7808 C   0  0  0  0  0  0  0  0  0  0  0  0
   -5.0201    4.9784  -18.4363 C   0  0  0  0  0  0  0  0  0  0  0  0
   -6.3628    4.7007  -17.8376 C   0  0  0  0  0  0  0  0  0  0  0  0
   -7.4497    4.4364  -18.6608 C   0  0  0  0  0  0  0  0  0  0  0  0
   -8.6870    4.1926  -18.0822 C   0  0  0  0  0  0  0  0  0  0  0  0
   -8.8132    4.2674  -16.7041 C   0  0  0  0  0  0  0  0  0  0  0  0
   -7.6869    4.5628  -15.9549 C   0  0  0  0  0  0  0  0  0  0  0  0
   -6.4614    4.7535  -16.4889 N   0  0  0  0  0  0  0  0  0  0  0  0
 14 15  1  0  0  0
 15 16  2  0  0  0
 16 17  1  0  0  0
 17 18  2  0  0  0
 18 19  1  0  0  0
 19  1  1  0  0  0
  1  2  1  0  0  0
  2  3  2  0  0  0
  2  5  1  0  0  0
  5  6  2  0  0  0
  6  7  1  0  0  0
  7  8  2  0  0  0
  8  9  1  0  0  0
  9 10  1  0  0  0
 10 11  2  0  0  0
 11 12  1  0  0  0
 12 13  2  0  0  0
 19 20  2  0  0  0
 20 15  1  0  0  0
 13  5  1  0  0  0
 12  8  1  0  0  0
  1  4  1  0  0  0
M  END
> <minimizedAffinity>
-6.82289

> <minimizedRMSD>
0.70984

$$$$
P36794


 20 22  0  0  0  0  0  0  0  0999 V2000
   -9.3927    5.9704  -13.7340 O   0  0  0  0  0  0  0  0  0  0  0  0
   -8.3683    5.5699  -13.3469 C   0  0  0  0  0  0  0  0  0  0  0  0
   -7.1196    5.1087  -14.1207 N   0  0  0  0  0  0  0  0  0  0  0  0
   -6.3448    4.8838  -13.5564 H   0  0  0  0  0  0  0  0  0  0  0  0
   -8.1969    5.3535  -11.9116 C   0  0  0  0  0  0  0  0  0  0  0  0
   -8.0161    6.4362  -11.0580 C   0  0  0  0  0  0  0  0  0  0  0  0
   -7.9932    6.2263   -9.6793 C   0  0  0  0  0  0  0  0  0  0  0  0
   -8.1858    4.9152   -9.2062 C   0  0  0  0  0  0  0  0  0  0  0  0
   -8.2636    4.3467   -7.5808 S   0  0  0  0  0  0  0  0  0  0  0  0
   -8.5157    2.7542   -8.1561 C   0  0  0  0  0  0  0  0  0  0  0  0
   -8.5554    2.6157   -9.4584 N   0  0  0  0  0  0  0  0  0  0  0  0
   -8.3671    3.8315  -10.0681 C   0  0  0  0  0  0  0  0  0  0  0  0
   -8.3593    4.0460  -11.4511 C   0  0  0  0  0  0  0  0  0  0  0  0
   -6.9104    4.9598  -15.4704 C   0  0  0  0  0  0  0  0  0  0  0  0
   -8.0028    4.7054  -16.2675 C   0  0  0  0  0  0  0  0  0  0  0  0
   -7.7946    4.5330  -17.6175 C   0  0  0  0  0  0  0  0  0  0  0  0
   -9.1578    4.1584  -18.5645 Cl  0  0  0  0  0  0  0  0  0  0  0  0
   -6.5277    4.6472  -18.1578 C   0  0  0  0  0  0  0  0  0  0  0  0
   -5.4903    4.8871  -17.2774 C   0  0  0  0  0  0  0  0  0  0  0  0
   -5.6482    5.0299  -15.9388 N   0  0  0  0  0  0  0  0  0  0  0  0
  1  2  2  0  0  0
  2  3  1  0  0  0
  3 14  1  0  0  0
 14 15  2  0  0  0
 15 16  1  0  0  0
 16 17  1  0  0  0
 16 18  2  0  0  0
 18 19  1  0  0  0
 19 20  2  0  0  0
  2  5  1  0  0  0
  5  6  2  0  0  0
  6  7  1  0  0  0
  7  8  2  0  0  0
  8  9  1  0  0  0
  9 10  1  0  0  0
 10 11  2  0  0  0
 11 12  1  0  0  0
 12 13  2  0  0  0
 20 14  1  0  0  0
 13  5  1  0  0  0
 12  8  1  0  0  0
  3  4  1  0  0  0
M  END
> <minimizedAffinity>
-6.49832

> <minimizedRMSD>
0.32445

$$$$
P36795


 24 26  0  0  0  0  0  0  0  0999 V2000
   -9.4709    5.7520  -14.1206 O   0  0  0  0  0  0  0  0  0  0  0  0
   -8.4395    5.4106  -13.6996 C   0  0  0  0  0  0  0  0  0  0  0  0
   -7.1772    4.9183  -14.4293 N   0  0  0  0  0  0  0  0  0  0  0  0
   -6.4520    4.6129  -13.8377 H   0  0  0  0  0  0  0  0  0  0  0  0
   -8.2704    5.3184  -12.2438 C   0  0  0  0  0  0  0  0  0  0  0  0
   -8.1292    6.4763  -11.4828 C   0  0  0  0  0  0  0  0  0  0  0  0
   -8.0840    6.3896  -10.0887 C   0  0  0  0  0  0  0  0  0  0  0  0
   -8.2000    5.1170   -9.5000 C   0  0  0  0  0  0  0  0  0  0  0  0
   -8.2100    4.6839   -7.8304 S   0  0  0  0  0  0  0  0  0  0  0  0
   -8.3808    3.0368   -8.2644 C   0  0  0  0  0  0  0  0  0  0  0  0
   -8.4515    2.7886   -9.5487 N   0  0  0  0  0  0  0  0  0  0  0  0
   -8.3391    3.9564  -10.2647 C   0  0  0  0  0  0  0  0  0  0  0  0
   -8.3634    4.0540  -11.6631 C   0  0  0  0  0  0  0  0  0  0  0  0
   -6.8964    4.8352  -15.7768 C   0  0  0  0  0  0  0  0  0  0  0  0
   -7.8716    4.4324  -16.6763 C   0  0  0  0  0  0  0  0  0  0  0  0
   -7.5597    4.4171  -18.0288 C   0  0  0  0  0  0  0  0  0  0  0  0
   -6.3026    4.8408  -18.4398 C   0  0  0  0  0  0  0  0  0  0  0  0
   -5.3836    5.1964  -17.4692 C   0  0  0  0  0  0  0  0  0  0  0  0
   -5.6477    5.1936  -16.1467 N   0  0  0  0  0  0  0  0  0  0  0  0
   -4.2292    5.8277  -17.8251 O   0  0  0  0  0  0  0  0  0  0  0  0
   -3.1946    4.9055  -18.0790 C   0  0  0  0  0  0  0  0  0  0  0  0
   -3.2602    4.4654  -19.3648 F   0  0  0  0  0  0  0  0  0  0  0  0
   -2.0091    5.5412  -17.9368 F   0  0  0  0  0  0  0  0  0  0  0  0
   -3.2032    3.8432  -17.2503 F   0  0  0  0  0  0  0  0  0  0  0  0
  1  2  2  0  0  0
  2  3  1  0  0  0
  3 14  1  0  0  0
 14 15  2  0  0  0
 15 16  1  0  0  0
 16 17  2  0  0  0
 17 18  1  0  0  0
 18 20  1  0  0  0
 20 21  1  0  0  0
 21 22  1  0  0  0
 21 23  1  0  0  0
 21 24  1  0  0  0
 18 19  2  0  0  0
  2  5  1  0  0  0
  5  6  2  0  0  0
  6  7  1  0  0  0
  7  8  2  0  0  0
  8  9  1  0  0  0
  9 10  1  0  0  0
 10 11  2  0  0  0
 11 12  1  0  0  0
 12 13  2  0  0  0
 19 14  1  0  0  0
 13  5  1  0  0  0
 12  8  1  0  0  0
  3  4  1  0  0  0
M  END
> <minimizedAffinity>
-6.86834

> <minimizedRMSD>
0.43382

$$$$
P36798


 23 25  0  0  0  0  0  0  0  0999 V2000
   -7.1328    4.9832  -14.4970 N   0  0  0  0  0  0  0  0  0  0  0  0
   -8.4439    5.4209  -13.8200 C   0  0  0  0  0  0  0  0  0  0  0  0
   -9.4614    5.7444  -14.2837 O   0  0  0  0  0  0  0  0  0  0  0  0
   -6.4294    4.6825  -13.8773 H   0  0  0  0  0  0  0  0  0  0  0  0
   -8.3012    5.3383  -12.3583 C   0  0  0  0  0  0  0  0  0  0  0  0
   -8.1458    6.5002  -11.6054 C   0  0  0  0  0  0  0  0  0  0  0  0
   -8.0558    6.4197  -10.2126 C   0  0  0  0  0  0  0  0  0  0  0  0
   -8.1413    5.1484   -9.6160 C   0  0  0  0  0  0  0  0  0  0  0  0
   -8.0952    4.7211   -7.9451 S   0  0  0  0  0  0  0  0  0  0  0  0
   -8.2734    3.0717   -8.3677 C   0  0  0  0  0  0  0  0  0  0  0  0
   -8.3628    2.8171   -9.6499 N   0  0  0  0  0  0  0  0  0  0  0  0
   -8.2942    3.9840  -10.3724 C   0  0  0  0  0  0  0  0  0  0  0  0
   -8.3643    4.0754  -11.7702 C   0  0  0  0  0  0  0  0  0  0  0  0
   -5.1704    5.3685  -17.5393 C   0  0  0  0  0  0  0  0  0  0  0  0
   -5.5131    5.3846  -16.2002 C   0  0  0  0  0  0  0  0  0  0  0  0
   -6.7799    4.9434  -15.8416 C   0  0  0  0  0  0  0  0  0  0  0  0
   -7.6567    4.4940  -16.8197 C   0  0  0  0  0  0  0  0  0  0  0  0
   -7.2032    4.4765  -18.1292 C   0  0  0  0  0  0  0  0  0  0  0  0
   -5.9773    4.9106  -18.5090 N   0  0  0  0  0  0  0  0  0  0  0  0
   -4.1153    6.1240  -17.9696 O   0  0  0  0  0  0  0  0  0  0  0  0
   -2.7072    4.1634  -18.4623 C   0  0  0  0  0  0  0  0  0  0  0  0
   -2.8058    5.5608  -17.8794 C   0  0  0  0  0  0  0  0  0  0  0  0
   -2.1932    5.6776  -16.4887 C   0  0  0  0  0  0  0  0  0  0  0  0
 21 22  1  0  0  0
 22 23  1  0  0  0
 22 20  1  0  0  0
 20 14  1  0  0  0
 14 15  2  0  0  0
 15 16  1  0  0  0
 16  1  1  0  0  0
  1  2  1  0  0  0
  2  3  2  0  0  0
  2  5  1  0  0  0
  5  6  2  0  0  0
  6  7  1  0  0  0
  7  8  2  0  0  0
  8  9  1  0  0  0
  9 10  1  0  0  0
 10 11  2  0  0  0
 11 12  1  0  0  0
 12 13  2  0  0  0
 16 17  2  0  0  0
 17 18  1  0  0  0
 18 19  2  0  0  0
 19 14  1  0  0  0
 13  5  1  0  0  0
 12  8  1  0  0  0
  1  4  1  0  0  0
M  END
> <minimizedAffinity>
-6.14753

> <minimizedRMSD>
0.40226

$$$$
P37091


 19 21  0  0  0  0  0  0  0  0999 V2000
   -2.7291    5.5169  -16.1602 C   0  0  0  0  0  0  0  0  0  0  0  0
   -3.6444    5.2548  -17.2412 N   0  0  0  0  0  0  0  0  0  0  0  0
   -3.2139    4.9683  -18.4909 N   0  0  0  0  0  0  0  0  0  0  0  0
   -4.3592    4.7490  -19.1566 C   0  0  0  0  0  0  0  0  0  0  0  0
   -5.5060    4.8969  -18.3498 C   0  0  0  0  0  0  0  0  0  0  0  0
   -6.8931    4.7819  -18.4575 C   0  0  0  0  0  0  0  0  0  0  0  0
   -7.6604    4.9946  -17.2900 C   0  0  0  0  0  0  0  0  0  0  0  0
   -7.0071    5.3285  -16.0887 C   0  0  0  0  0  0  0  0  0  0  0  0
   -5.6725    5.5056  -15.9991 N   0  0  0  0  0  0  0  0  0  0  0  0
   -4.9982    5.2463  -17.1185 C   0  0  0  0  0  0  0  0  0  0  0  0
   -7.5876    5.4848  -14.7493 C   0  0  0  0  0  0  0  0  0  0  0  0
   -7.4980    6.7170  -14.0759 C   0  0  0  0  0  0  0  0  0  0  0  0
   -7.7738    6.8185  -12.7157 C   0  0  0  0  0  0  0  0  0  0  0  0
   -8.1162    5.6648  -12.0449 C   0  0  0  0  0  0  0  0  0  0  0  0
   -8.2418    4.4680  -12.6477 N   0  0  0  0  0  0  0  0  0  0  0  0
   -7.9691    4.3989  -13.9737 C   0  0  0  0  0  0  0  0  0  0  0  0
   -9.1387    4.7762  -17.3838 C   0  0  0  0  0  0  0  0  0  0  0  0
   -9.4367    3.5114  -16.8430 O   0  0  0  0  0  0  0  0  0  0  0  0
   -8.9619    2.8271  -17.3403 H   0  0  0  0  0  0  0  0  0  0  0  0
  1  2  1  0  0  0
  2  3  1  0  0  0
  3  4  2  0  0  0
  4  5  1  0  0  0
  5  6  2  0  0  0
  6  7  1  0  0  0
  7 17  1  0  0  0
 17 18  1  0  0  0
  7  8  2  0  0  0
  8 11  1  0  0  0
 11 12  2  0  0  0
 12 13  1  0  0  0
 13 14  2  0  0  0
 14 15  1  0  0  0
 15 16  2  0  0  0
  8  9  1  0  0  0
  9 10  2  0  0  0
 10  2  1  0  0  0
 10  5  1  0  0  0
 16 11  1  0  0  0
 18 19  1  0  0  0
M  END
> <minimizedAffinity>
-5.70094

> <minimizedRMSD>
0.32723

$$$$
P37418


 22 24  0  0  0  0  0  0  0  0999 V2000
   -7.0661    4.2298  -12.6951 C   0  0  0  0  0  0  0  0  0  0  0  0
   -5.9467    3.9407  -12.5295 O   0  0  0  0  0  0  0  0  0  0  0  0
   -8.2293    4.3452  -11.6877 N   0  0  0  0  0  0  0  0  0  0  0  0
   -9.1071    4.5338  -12.0917 H   0  0  0  0  0  0  0  0  0  0  0  0
   -8.2396    4.2265  -10.3049 C   0  0  0  0  0  0  0  0  0  0  0  0
   -7.8014    5.2664   -9.4725 C   0  0  0  0  0  0  0  0  0  0  0  0
   -7.8482    5.1322   -8.0811 C   0  0  0  0  0  0  0  0  0  0  0  0
   -8.3165    3.9435   -7.5553 C   0  0  0  0  0  0  0  0  0  0  0  0
   -8.7149    2.8991   -8.3852 C   0  0  0  0  0  0  0  0  0  0  0  0
   -8.7014    3.0263   -9.7603 C   0  0  0  0  0  0  0  0  0  0  0  0
   -9.0550    1.7211   -7.5395 C   0  0  0  0  0  0  0  0  0  0  0  0
   -9.3225    2.2967   -6.1963 N   0  0  0  0  0  0  0  0  0  0  0  0
   -8.4635    3.5065   -6.1343 C   0  0  0  0  0  0  0  0  0  0  0  0
   -9.0675    1.6351   -5.4630 H   0  0  0  0  0  0  0  0  0  0  0  0
   -8.0708    4.5960  -16.1461 N   0  0  0  0  0  0  0  0  0  0  0  0
   -9.0223    5.2853  -15.4427 C   0  0  0  0  0  0  0  0  0  0  0  0
   -8.7822    5.2719  -14.1526 N   0  0  0  0  0  0  0  0  0  0  0  0
   -7.6137    4.5532  -14.0089 C   0  0  0  0  0  0  0  0  0  0  0  0
   -7.1463    4.1467  -15.2405 C   0  0  0  0  0  0  0  0  0  0  0  0
   -9.3319    4.8870  -18.2755 C   0  0  0  0  0  0  0  0  0  0  0  0
   -8.1186    4.2857  -17.5683 C   0  0  0  0  0  0  0  0  0  0  0  0
   -6.8353    4.6660  -18.3130 C   0  0  0  0  0  0  0  0  0  0  0  0
 20 21  1  0  0  0
 21 22  1  0  0  0
 21 15  1  0  0  0
 15 16  1  0  0  0
 16 17  2  0  0  0
 17 18  1  0  0  0
 18  1  1  0  0  0
  1  2  2  0  0  0
  1  3  1  0  0  0
  3  5  1  0  0  0
  5  6  2  0  0  0
  6  7  1  0  0  0
  7  8  2  0  0  0
  8  9  1  0  0  0
  9 10  2  0  0  0
  9 11  1  0  0  0
 11 12  1  0  0  0
 12 13  1  0  0  0
 18 19  2  0  0  0
 19 15  1  0  0  0
 10  5  1  0  0  0
 13  8  1  0  0  0
  3  4  1  0  0  0
 12 14  1  0  0  0
M  END
> <minimizedAffinity>
-6.62560

> <minimizedRMSD>
1.19373

$$$$
P37700


 15 16  0  0  0  0  0  0  0  0999 V2000
   -4.8708    5.9926  -17.2604 O   0  0  0  0  0  0  0  0  0  0  0  0
   -5.6073    5.1434  -16.3694 C   0  0  0  0  0  0  0  0  0  0  0  0
   -4.8438    5.5899  -18.1424 H   0  0  0  0  0  0  0  0  0  0  0  0
   -6.9852    4.8413  -16.9408 C   0  0  0  0  0  0  0  0  0  0  0  0
   -8.1017    4.5807  -16.1688 C   0  0  0  0  0  0  0  0  0  0  0  0
   -9.2320    4.1833  -16.8437 C   0  0  0  0  0  0  0  0  0  0  0  0
   -9.2887    3.9904  -18.1725 N   0  0  0  0  0  0  0  0  0  0  0  0
   -8.1618    4.2565  -18.8409 C   0  0  0  0  0  0  0  0  0  0  0  0
   -7.0120    4.6955  -18.2980 N   0  0  0  0  0  0  0  0  0  0  0  0
   -5.6747    5.7273  -14.9926 C   0  0  0  0  0  0  0  0  0  0  0  0
   -5.4297    5.0663  -13.8002 C   0  0  0  0  0  0  0  0  0  0  0  0
   -5.6849    5.9758  -12.8164 N   0  0  0  0  0  0  0  0  0  0  0  0
   -6.0451    7.1426  -13.4227 C   0  0  0  0  0  0  0  0  0  0  0  0
   -6.0221    7.0393  -14.7291 N   0  0  0  0  0  0  0  0  0  0  0  0
   -5.6208    5.8187  -11.8467 H   0  0  0  0  0  0  0  0  0  0  0  0
  2  1  1  0  0  0
  2  4  1  0  0  0
  4  5  2  0  0  0
  5  6  1  0  0  0
  6  7  2  0  0  0
  7  8  1  0  0  0
  8  9  2  0  0  0
  2 10  1  0  0  0
 10 11  2  0  0  0
 11 12  1  0  0  0
 12 13  1  0  0  0
 13 14  2  0  0  0
  9  4  1  0  0  0
 14 10  1  0  0  0
  1  3  1  0  0  0
 12 15  1  0  0  0
M  END
> <minimizedAffinity>
-3.67984

> <minimizedRMSD>
1.11588

$$$$
P37763


 17 18  0  0  0  0  0  0  0  0999 V2000
   -8.0024    3.8388  -14.5346 N   0  0  0  0  0  0  0  0  0  0  0  0
   -7.8757    2.9385  -14.1569 H   0  0  0  0  0  0  0  0  0  0  0  0
   -5.2243    4.6241  -15.5246 Cl  0  0  0  0  0  0  0  0  0  0  0  0
   -6.6500    4.4747  -16.4777 C   0  0  0  0  0  0  0  0  0  0  0  0
   -6.5927    4.7355  -17.8340 C   0  0  0  0  0  0  0  0  0  0  0  0
   -7.6589    4.6584  -18.6516 N   0  0  0  0  0  0  0  0  0  0  0  0
   -8.8337    4.2924  -18.0871 C   0  0  0  0  0  0  0  0  0  0  0  0
   -8.9955    4.0340  -16.7367 C   0  0  0  0  0  0  0  0  0  0  0  0
   -7.8775    4.1049  -15.9104 C   0  0  0  0  0  0  0  0  0  0  0  0
   -8.3346    4.9987  -13.7058 C   0  0  0  0  0  0  0  0  0  0  0  0
   -7.8346    4.7387  -12.2750 C   0  0  0  0  0  0  0  0  0  0  0  0
   -8.3478    3.4007  -11.7260 C   0  0  0  0  0  0  0  0  0  0  0  0
   -7.8821    3.2007  -10.2890 C   0  0  0  0  0  0  0  0  0  0  0  0
   -8.2068    4.4096   -9.4175 C   0  0  0  0  0  0  0  0  0  0  0  0
   -7.7088    5.6718   -9.9783 N   0  0  0  0  0  0  0  0  0  0  0  0
   -8.2209    5.8849  -11.3353 C   0  0  0  0  0  0  0  0  0  0  0  0
   -6.6895    5.6442  -10.0074 H   0  0  0  0  0  0  0  0  0  0  0  0
  3  4  1  0  0  0
  4  5  2  0  0  0
  5  6  1  0  0  0
  6  7  2  0  0  0
  7  8  1  0  0  0
  8  9  2  0  0  0
  9  1  1  0  0  0
  1 10  1  0  0  0
 11 10  1  0  0  0
 11 12  1  0  0  0
 12 13  1  0  0  0
 13 14  1  0  0  0
 14 15  1  0  0  0
 15 16  1  0  0  0
  9  4  1  0  0  0
 16 11  1  0  0  0
  1  2  1  0  0  0
 15 17  1  0  0  0
M  END
> <minimizedAffinity>
-4.96259

> <minimizedRMSD>
1.09179

$$$$
P37764


 18 19  0  0  0  0  0  0  0  0999 V2000
   -8.2161    4.1342  -14.6123 N   0  0  0  0  0  0  0  0  0  0  0  0
   -8.6287    3.2524  -14.4658 H   0  0  0  0  0  0  0  0  0  0  0  0
   -7.9171    4.4744  -17.0348 C   0  0  0  0  0  0  0  0  0  0  0  0
   -7.0168    4.6725  -18.0746 C   0  0  0  0  0  0  0  0  0  0  0  0
   -5.6785    4.8242  -17.9122 N   0  0  0  0  0  0  0  0  0  0  0  0
   -5.2251    4.7743  -16.6478 C   0  0  0  0  0  0  0  0  0  0  0  0
   -6.0400    4.5689  -15.5469 C   0  0  0  0  0  0  0  0  0  0  0  0
   -7.4143    4.3815  -15.7321 C   0  0  0  0  0  0  0  0  0  0  0  0
  -10.4420    4.3554  -17.5818 N   0  0  0  0  0  0  0  0  0  0  0  0
   -9.3105    4.3991  -17.3313 C   0  0  0  0  0  0  0  0  0  0  0  0
   -8.4194    5.2295  -13.6690 C   0  0  0  0  0  0  0  0  0  0  0  0
   -7.8551    4.8447  -12.2929 C   0  0  0  0  0  0  0  0  0  0  0  0
   -8.3332    3.4605  -11.8307 C   0  0  0  0  0  0  0  0  0  0  0  0
   -7.8909    3.1711  -10.4009 C   0  0  0  0  0  0  0  0  0  0  0  0
   -8.2502    4.3121   -9.4554 C   0  0  0  0  0  0  0  0  0  0  0  0
   -7.7320    5.6042   -9.9203 N   0  0  0  0  0  0  0  0  0  0  0  0
   -8.2352    5.9148  -11.2597 C   0  0  0  0  0  0  0  0  0  0  0  0
   -6.7131    5.5661   -9.9464 H   0  0  0  0  0  0  0  0  0  0  0  0
  9 10  3  0  0  0
 10  3  1  0  0  0
  3  4  2  0  0  0
  4  5  1  0  0  0
  5  6  2  0  0  0
  6  7  1  0  0  0
  7  8  2  0  0  0
  8  1  1  0  0  0
  1 11  1  0  0  0
 12 11  1  0  0  0
 12 13  1  0  0  0
 13 14  1  0  0  0
 14 15  1  0  0  0
 15 16  1  0  0  0
 16 17  1  0  0  0
  8  3  1  0  0  0
 17 12  1  0  0  0
  1  2  1  0  0  0
 16 18  1  0  0  0
M  END
> <minimizedAffinity>
-5.44660

> <minimizedRMSD>
0.70614

$$$$
P38110


 24 26  0  0  0  0  0  0  0  0999 V2000
   -7.8053    6.9044  -11.8619 O   0  0  0  0  0  0  0  0  0  0  0  0
   -7.5179    5.5034  -11.6336 S   0  0  0  0  0  0  0  0  0  0  0  0
   -6.1771    4.9817  -11.7686 O   0  0  0  0  0  0  0  0  0  0  0  0
   -7.9148    5.2624   -9.9892 C   0  0  0  0  0  0  0  0  0  0  0  0
   -8.0447    6.3021   -9.0502 C   0  0  0  0  0  0  0  0  0  0  0  0
   -8.3753    5.8581   -7.8313 N   0  0  0  0  0  0  0  0  0  0  0  0
   -8.4247    4.5197   -7.9987 N   0  0  0  0  0  0  0  0  0  0  0  0
   -8.1642    4.1072   -9.2797 C   0  0  0  0  0  0  0  0  0  0  0  0
   -8.1934    2.6706   -9.6271 C   0  0  0  0  0  0  0  0  0  0  0  0
   -8.0477    1.8503   -8.4303 N   0  0  0  0  0  0  0  0  0  0  0  0
   -9.0007    2.2234   -7.3860 C   0  0  0  0  0  0  0  0  0  0  0  0
   -8.7119    3.6350   -6.8827 C   0  0  0  0  0  0  0  0  0  0  0  0
   -7.1013    1.9640   -8.0672 H   0  0  0  0  0  0  0  0  0  0  0  0
   -8.5301    4.6172  -12.6457 N   0  0  0  0  0  0  0  0  0  0  0  0
   -9.4645    4.6303  -12.2369 H   0  0  0  0  0  0  0  0  0  0  0  0
   -8.6463    5.0852  -14.0453 C   0  0  0  0  0  0  0  0  0  0  0  0
   -7.6596    4.3743  -14.9442 C   0  0  0  0  0  0  0  0  0  0  0  0
   -7.8265    4.7579  -16.4143 C   0  0  0  0  0  0  0  0  0  0  0  0
   -6.5411    4.8388  -17.1965 C   0  0  0  0  0  0  0  0  0  0  0  0
   -5.2871    4.9532  -16.6010 C   0  0  0  0  0  0  0  0  0  0  0  0
   -4.1529    5.0272  -17.4046 C   0  0  0  0  0  0  0  0  0  0  0  0
   -4.2919    4.9629  -18.7823 C   0  0  0  0  0  0  0  0  0  0  0  0
   -5.5671    4.8377  -19.2989 C   0  0  0  0  0  0  0  0  0  0  0  0
   -6.6815    4.7946  -18.5385 N   0  0  0  0  0  0  0  0  0  0  0  0
  1  2  2  0  0  0
  2  3  2  0  0  0
  2 14  1  0  0  0
 14 16  1  0  0  0
 16 17  1  0  0  0
 17 18  1  0  0  0
 18 19  1  0  0  0
 19 20  2  0  0  0
 20 21  1  0  0  0
 21 22  2  0  0  0
 22 23  1  0  0  0
 23 24  2  0  0  0
  2  4  1  0  0  0
  4  5  1  0  0  0
  5  6  2  0  0  0
  6  7  1  0  0  0
  7  8  1  0  0  0
  8  9  1  0  0  0
  9 10  1  0  0  0
 10 11  1  0  0  0
 11 12  1  0  0  0
 24 19  1  0  0  0
  8  4  2  0  0  0
 12  7  1  0  0  0
 14 15  1  0  0  0
 10 13  1  0  0  0
M  END
> <minimizedAffinity>
-6.28856

> <minimizedRMSD>
0.39059

$$$$
P38117


 24 26  0  0  0  0  0  0  0  0999 V2000
   -7.4516    3.9225  -13.9687 C   0  0  0  0  0  0  0  0  0  0  0  0
   -8.0200    4.7879  -15.4151 S   0  0  0  0  0  0  0  0  0  0  0  0
   -9.0730    3.9979  -16.0293 O   0  0  0  0  0  0  0  0  0  0  0  0
   -8.2305    6.1680  -15.0094 O   0  0  0  0  0  0  0  0  0  0  0  0
   -4.6289    4.9664  -18.4160 C   0  0  0  0  0  0  0  0  0  0  0  0
   -4.3106    5.0165  -17.0541 C   0  0  0  0  0  0  0  0  0  0  0  0
   -5.3287    4.9600  -16.0984 C   0  0  0  0  0  0  0  0  0  0  0  0
   -6.6310    4.8246  -16.5524 C   0  0  0  0  0  0  0  0  0  0  0  0
   -6.9722    4.7915  -17.8632 N   0  0  0  0  0  0  0  0  0  0  0  0
   -5.9666    4.8693  -18.7667 C   0  0  0  0  0  0  0  0  0  0  0  0
   -2.7564    5.0123  -20.2088 N   0  0  0  0  0  0  0  0  0  0  0  0
   -3.6135    4.9836  -19.4237 C   0  0  0  0  0  0  0  0  0  0  0  0
   -8.1660    4.2864  -12.6551 C   0  0  0  0  0  0  0  0  0  0  0  0
   -7.0923    5.2214  -11.5198 S   0  0  0  0  0  0  0  0  0  0  0  0
   -7.7646    5.0822   -9.9089 C   0  0  0  0  0  0  0  0  0  0  0  0
   -7.8777    6.1792   -9.0206 C   0  0  0  0  0  0  0  0  0  0  0  0
   -8.2684    5.8254   -7.7914 N   0  0  0  0  0  0  0  0  0  0  0  0
   -8.4323    4.4941   -7.9013 N   0  0  0  0  0  0  0  0  0  0  0  0
   -8.1264    3.9935   -9.1435 C   0  0  0  0  0  0  0  0  0  0  0  0
   -8.2311    2.5365   -9.3840 C   0  0  0  0  0  0  0  0  0  0  0  0
   -8.1776    1.7694   -8.1371 N   0  0  0  0  0  0  0  0  0  0  0  0
   -9.1381    2.2726   -7.1559 C   0  0  0  0  0  0  0  0  0  0  0  0
   -8.7859    3.6949   -6.7384 C   0  0  0  0  0  0  0  0  0  0  0  0
   -7.2380    1.8378   -7.7461 H   0  0  0  0  0  0  0  0  0  0  0  0
 11 12  3  0  0  0
 12  5  1  0  0  0
  5  6  2  0  0  0
  6  7  1  0  0  0
  7  8  2  0  0  0
  8  2  1  0  0  0
  2  3  2  0  0  0
  2  4  2  0  0  0
  2  1  1  0  0  0
  1 13  1  0  0  0
 13 14  1  0  0  0
 14 15  1  0  0  0
 15 16  1  0  0  0
 16 17  2  0  0  0
 17 18  1  0  0  0
 18 19  1  0  0  0
 19 20  1  0  0  0
 20 21  1  0  0  0
 21 22  1  0  0  0
 22 23  1  0  0  0
  8  9  1  0  0  0
  9 10  2  0  0  0
 10  5  1  0  0  0
 19 15  2  0  0  0
 23 18  1  0  0  0
 21 24  1  0  0  0
M  END
> <minimizedAffinity>
-6.42474

> <minimizedRMSD>
0.53897

$$$$
P38118


 26 28  0  0  0  0  0  0  0  0999 V2000
   -6.9987    5.6996  -13.7099 C   0  0  0  0  0  0  0  0  0  0  0  0
   -6.7277    6.8111  -13.9519 O   0  0  0  0  0  0  0  0  0  0  0  0
   -6.8199    4.8790  -12.3938 N   0  0  0  0  0  0  0  0  0  0  0  0
   -7.2009    3.9716  -12.4184 H   0  0  0  0  0  0  0  0  0  0  0  0
   -9.1328    4.6588  -14.2667 N   0  0  0  0  0  0  0  0  0  0  0  0
   -7.7149    4.7359  -14.7133 C   0  0  0  0  0  0  0  0  0  0  0  0
   -9.6520    4.0393  -14.8889 H   0  0  0  0  0  0  0  0  0  0  0  0
   -9.5479    5.5902  -14.2903 H   0  0  0  0  0  0  0  0  0  0  0  0
   -7.6907    5.2250  -16.1755 C   0  0  0  0  0  0  0  0  0  0  0  0
   -6.4571    5.0281  -17.0233 C   0  0  0  0  0  0  0  0  0  0  0  0
   -5.1603    5.0296  -16.5246 C   0  0  0  0  0  0  0  0  0  0  0  0
   -4.0876    4.9400  -17.4125 C   0  0  0  0  0  0  0  0  0  0  0  0
   -4.3296    4.8478  -18.7762 C   0  0  0  0  0  0  0  0  0  0  0  0
   -5.6435    4.8447  -19.1988 C   0  0  0  0  0  0  0  0  0  0  0  0
   -6.6941    4.9382  -18.3560 N   0  0  0  0  0  0  0  0  0  0  0  0
   -6.1915    5.2324  -11.1568 C   0  0  0  0  0  0  0  0  0  0  0  0
   -7.1329    5.1408  -10.0109 C   0  0  0  0  0  0  0  0  0  0  0  0
   -7.6151    6.2274   -9.2359 C   0  0  0  0  0  0  0  0  0  0  0  0
   -8.2841    5.8441   -8.1454 N   0  0  0  0  0  0  0  0  0  0  0  0
   -8.2444    4.5013   -8.2231 N   0  0  0  0  0  0  0  0  0  0  0  0
   -7.6515    4.0308   -9.3643 C   0  0  0  0  0  0  0  0  0  0  0  0
   -7.6195    2.5730   -9.6327 C   0  0  0  0  0  0  0  0  0  0  0  0
   -7.7011    1.8071   -8.3955 N   0  0  0  0  0  0  0  0  0  0  0  0
   -8.8353    2.2215   -7.5700 C   0  0  0  0  0  0  0  0  0  0  0  0
   -8.6764    3.6686   -7.1144 C   0  0  0  0  0  0  0  0  0  0  0  0
   -6.8404    1.9442   -7.8656 H   0  0  0  0  0  0  0  0  0  0  0  0
  6  5  1  0  0  0
  6  9  1  0  0  0
  9 10  1  0  0  0
 10 11  2  0  0  0
 11 12  1  0  0  0
 12 13  2  0  0  0
 13 14  1  0  0  0
 14 15  2  0  0  0
  6  1  1  0  0  0
  1  2  2  0  0  0
  1  3  1  0  0  0
  3 16  1  0  0  0
 16 17  1  0  0  0
 17 18  1  0  0  0
 18 19  2  0  0  0
 19 20  1  0  0  0
 20 21  1  0  0  0
 21 22  1  0  0  0
 22 23  1  0  0  0
 23 24  1  0  0  0
 24 25  1  0  0  0
 15 10  1  0  0  0
 21 17  2  0  0  0
 25 20  1  0  0  0
  5  7  1  0  0  0
  5  8  1  0  0  0
  3  4  1  0  0  0
 23 26  1  0  0  0
M  END
> <minimizedAffinity>
-6.24956

> <minimizedRMSD>
0.30414

$$$$
P38142


 40 43  0  0  0  0  0  0  0  0999 V2000
   -2.6201    8.5283  -22.1007 C   0  0  0  0  0  0  0  0  0  0  0  0
   -2.1460    8.7114  -23.3732 F   0  0  0  0  0  0  0  0  0  0  0  0
   -1.9568    9.4327  -21.3364 F   0  0  0  0  0  0  0  0  0  0  0  0
   -4.1176    8.7909  -22.0538 C   0  0  0  0  0  0  0  0  0  0  0  0
   -4.3917    9.4827  -20.9051 F   0  0  0  0  0  0  0  0  0  0  0  0
   -4.7564    7.5854  -21.8836 F   0  0  0  0  0  0  0  0  0  0  0  0
   -5.0074   10.6132  -23.2819 O   0  0  0  0  0  0  0  0  0  0  0  0
   -4.8283    9.4567  -23.2749 C   0  0  0  0  0  0  0  0  0  0  0  0
   -5.2794    8.3658  -24.2764 N   0  0  0  0  0  0  0  0  0  0  0  0
   -4.9336    7.4638  -24.0866 H   0  0  0  0  0  0  0  0  0  0  0  0
   -6.0616    8.4489  -25.3565 C   0  0  0  0  0  0  0  0  0  0  0  0
   -6.6479    7.4124  -25.8838 N   0  0  0  0  0  0  0  0  0  0  0  0
   -7.7582    7.9268  -26.4816 C   0  0  0  0  0  0  0  0  0  0  0  0
   -8.8223    7.2478  -27.0749 C   0  0  0  0  0  0  0  0  0  0  0  0
   -9.9080    7.9980  -27.5186 C   0  0  0  0  0  0  0  0  0  0  0  0
   -9.9464    9.3830  -27.3415 C   0  0  0  0  0  0  0  0  0  0  0  0
   -8.8787   10.0829  -26.7658 C   0  0  0  0  0  0  0  0  0  0  0  0
   -7.7843    9.3167  -26.3784 C   0  0  0  0  0  0  0  0  0  0  0  0
   -6.5746    9.6309  -25.8078 N   0  0  0  0  0  0  0  0  0  0  0  0
   -6.1633   10.5227  -25.7387 H   0  0  0  0  0  0  0  0  0  0  0  0
   -2.2630    7.1054  -21.7362 C   0  0  0  0  0  0  0  0  0  0  0  0
   -3.2542    6.3217  -22.2561 F   0  0  0  0  0  0  0  0  0  0  0  0
   -1.1073    6.7429  -22.3706 F   0  0  0  0  0  0  0  0  0  0  0  0
   -2.1182    6.8103  -20.2612 C   0  0  0  0  0  0  0  0  0  0  0  0
   -2.5925    7.8562  -19.5274 F   0  0  0  0  0  0  0  0  0  0  0  0
   -0.7923    6.7247  -19.9487 F   0  0  0  0  0  0  0  0  0  0  0  0
   -2.9060    5.5439  -19.8215 C   0  0  0  0  0  0  0  0  0  0  0  0
   -2.4563    4.4681  -19.9328 O   0  0  0  0  0  0  0  0  0  0  0  0
   -4.2395    6.0182  -19.1672 N   0  0  0  0  0  0  0  0  0  0  0  0
   -4.4303    6.9786  -19.2696 H   0  0  0  0  0  0  0  0  0  0  0  0
   -5.1683    5.3307  -18.4881 C   0  0  0  0  0  0  0  0  0  0  0  0
   -6.1956    4.7574  -19.0521 N   0  0  0  0  0  0  0  0  0  0  0  0
   -7.0598    4.5048  -18.0290 C   0  0  0  0  0  0  0  0  0  0  0  0
   -8.3635    4.0049  -18.0747 C   0  0  0  0  0  0  0  0  0  0  0  0
   -9.1013    4.0078  -16.8899 C   0  0  0  0  0  0  0  0  0  0  0  0
   -8.5421    4.4384  -15.6846 C   0  0  0  0  0  0  0  0  0  0  0  0
   -7.2214    4.8892  -15.6149 C   0  0  0  0  0  0  0  0  0  0  0  0
   -6.5152    4.9103  -16.8140 C   0  0  0  0  0  0  0  0  0  0  0  0
   -5.2389    5.3001  -17.1290 N   0  0  0  0  0  0  0  0  0  0  0  0
   -4.5158    5.5155  -16.4966 H   0  0  0  0  0  0  0  0  0  0  0  0
  7  8  2  0  0  0
  8  9  1  0  0  0
  9 11  1  0  0  0
 11 12  2  0  0  0
 12 13  1  0  0  0
 13 14  2  0  0  0
 14 15  1  0  0  0
 15 16  2  0  0  0
 16 17  1  0  0  0
 17 18  2  0  0  0
 18 19  1  0  0  0
  8  4  1  0  0  0
  4  5  1  0  0  0
  4  6  1  0  0  0
  4  1  1  0  0  0
  1  2  1  0  0  0
  1  3  1  0  0  0
  1 21  1  0  0  0
 21 22  1  0  0  0
 21 23  1  0  0  0
 21 24  1  0  0  0
 24 25  1  0  0  0
 24 26  1  0  0  0
 24 27  1  0  0  0
 27 28  2  0  0  0
 27 29  1  0  0  0
 29 31  1  0  0  0
 31 32  2  0  0  0
 32 33  1  0  0  0
 33 34  2  0  0  0
 34 35  1  0  0  0
 35 36  2  0  0  0
 36 37  1  0  0  0
 37 38  2  0  0  0
 38 39  1  0  0  0
 19 11  1  0  0  0
 39 31  1  0  0  0
 18 13  1  0  0  0
 38 33  1  0  0  0
  9 10  1  0  0  0
 19 20  1  0  0  0
 29 30  1  0  0  0
 39 40  1  0  0  0
M  END
> <minimizedAffinity>
-6.81547

> <minimizedRMSD>
1.80465

$$$$
P38488


 23 25  0  0  0  0  0  0  0  0999 V2000
   -7.7469    5.2012  -13.0125 C   0  0  0  0  0  0  0  0  0  0  0  0
   -7.7639    6.3694  -12.8943 O   0  0  0  0  0  0  0  0  0  0  0  0
   -8.0321    4.0642  -11.9571 N   0  0  0  0  0  0  0  0  0  0  0  0
   -8.0288    3.1505  -12.3239 H   0  0  0  0  0  0  0  0  0  0  0  0
   -8.2861    4.1430  -10.5995 C   0  0  0  0  0  0  0  0  0  0  0  0
   -7.9987    5.2701   -9.8281 C   0  0  0  0  0  0  0  0  0  0  0  0
   -8.1768    5.2271   -8.4402 C   0  0  0  0  0  0  0  0  0  0  0  0
   -8.6264    4.0489   -7.8637 C   0  0  0  0  0  0  0  0  0  0  0  0
   -8.8974    2.9270   -8.6359 C   0  0  0  0  0  0  0  0  0  0  0  0
   -8.7497    2.9620  -10.0047 C   0  0  0  0  0  0  0  0  0  0  0  0
   -9.2638    1.7870   -7.7476 C   0  0  0  0  0  0  0  0  0  0  0  0
   -9.5997    2.4208   -6.4476 N   0  0  0  0  0  0  0  0  0  0  0  0
   -8.8614    3.7051   -6.4308 C   0  0  0  0  0  0  0  0  0  0  0  0
   -9.3003    1.8274   -5.6739 H   0  0  0  0  0  0  0  0  0  0  0  0
   -7.3047    4.4536  -14.3097 C   0  0  0  0  0  0  0  0  0  0  0  0
   -8.4558    4.5519  -15.3284 C   0  0  0  0  0  0  0  0  0  0  0  0
   -6.9889    2.9929  -13.8825 C   0  0  0  0  0  0  0  0  0  0  0  0
   -2.4086    4.8235  -15.1497 C   0  0  0  0  0  0  0  0  0  0  0  0
   -3.8723    4.9760  -15.2485 C   0  0  0  0  0  0  0  0  0  0  0  0
   -4.8236    4.9920  -14.2522 C   0  0  0  0  0  0  0  0  0  0  0  0
   -6.0395    4.9647  -14.9022 N   0  0  0  0  0  0  0  0  0  0  0  0
   -5.7590    5.0541  -16.2453 C   0  0  0  0  0  0  0  0  0  0  0  0
   -4.4669    5.0754  -16.4745 N   0  0  0  0  0  0  0  0  0  0  0  0
 18 19  1  0  0  0
 19 20  2  0  0  0
 20 21  1  0  0  0
 21 15  1  0  0  0
 15 16  1  0  0  0
 15 17  1  0  0  0
 15  1  1  0  0  0
  1  2  2  0  0  0
  1  3  1  0  0  0
  3  5  1  0  0  0
  5  6  2  0  0  0
  6  7  1  0  0  0
  7  8  2  0  0  0
  8  9  1  0  0  0
  9 10  2  0  0  0
  9 11  1  0  0  0
 11 12  1  0  0  0
 12 13  1  0  0  0
 21 22  1  0  0  0
 22 23  2  0  0  0
 23 19  1  0  0  0
 10  5  1  0  0  0
 13  8  1  0  0  0
  3  4  1  0  0  0
 12 14  1  0  0  0
M  END
> <minimizedAffinity>
-5.47323

> <minimizedRMSD>
1.01348

$$$$
P38619


 20 21  0  0  0  0  0  0  0  0999 V2000
   -4.8960    4.6364  -19.2895 N   0  0  0  0  0  0  0  0  0  0  0  0
   -5.9633    5.6147  -18.7597 C   0  0  0  0  0  0  0  0  0  0  0  0
   -6.0638    6.7701  -18.8937 O   0  0  0  0  0  0  0  0  0  0  0  0
   -5.0773    3.6873  -19.1012 H   0  0  0  0  0  0  0  0  0  0  0  0
   -6.9618    4.8995  -17.9244 C   0  0  0  0  0  0  0  0  0  0  0  0
   -8.2022    4.5654  -18.4831 C   0  0  0  0  0  0  0  0  0  0  0  0
   -9.2416    4.1414  -17.6692 C   0  0  0  0  0  0  0  0  0  0  0  0
   -9.0216    4.0140  -16.3057 C   0  0  0  0  0  0  0  0  0  0  0  0
   -7.7585    4.2753  -15.7578 C   0  0  0  0  0  0  0  0  0  0  0  0
   -7.5419    4.1114  -14.3894 C   0  0  0  0  0  0  0  0  0  0  0  0
   -6.2840    4.3705  -13.8583 C   0  0  0  0  0  0  0  0  0  0  0  0
   -5.2866    4.7935  -14.7171 C   0  0  0  0  0  0  0  0  0  0  0  0
   -5.4679    4.9755  -16.0374 N   0  0  0  0  0  0  0  0  0  0  0  0
   -6.6895    4.7225  -16.5664 C   0  0  0  0  0  0  0  0  0  0  0  0
   -3.1257    6.3105  -19.7663 C   0  0  0  0  0  0  0  0  0  0  0  0
   -3.6534    4.8895  -20.0290 C   0  0  0  0  0  0  0  0  0  0  0  0
   -2.6042    3.8790  -19.5525 C   0  0  0  0  0  0  0  0  0  0  0  0
   -3.8931    4.7092  -21.5457 C   0  0  0  0  0  0  0  0  0  0  0  0
   -5.2614    4.4517  -21.8449 O   0  0  0  0  0  0  0  0  0  0  0  0
   -5.5377    3.6287  -21.4122 H   0  0  0  0  0  0  0  0  0  0  0  0
 15 16  1  0  0  0
 16 17  1  0  0  0
 16 18  1  0  0  0
 18 19  1  0  0  0
 16  1  1  0  0  0
  1  2  1  0  0  0
  2  3  2  0  0  0
  2  5  1  0  0  0
  5  6  2  0  0  0
  6  7  1  0  0  0
  7  8  2  0  0  0
  8  9  1  0  0  0
  9 10  2  0  0  0
 10 11  1  0  0  0
 11 12  2  0  0  0
 12 13  1  0  0  0
 13 14  2  0  0  0
 14  5  1  0  0  0
 14  9  1  0  0  0
 19 20  1  0  0  0
  1  4  1  0  0  0
M  END
> <minimizedAffinity>
-6.73638

> <minimizedRMSD>
0.76167

$$$$
P38672


 25 28  0  0  0  0  0  0  0  0999 V2000
   -5.9566    4.6822  -12.7077 C   0  0  0  0  0  0  0  0  0  0  0  0
   -4.9310    4.9322  -12.2039 O   0  0  0  0  0  0  0  0  0  0  0  0
   -7.3324    4.3397  -12.0734 N   0  0  0  0  0  0  0  0  0  0  0  0
   -8.0330    4.0902  -12.7185 H   0  0  0  0  0  0  0  0  0  0  0  0
   -3.5909    5.1006  -14.6117 C   0  0  0  0  0  0  0  0  0  0  0  0
   -4.9996    4.8691  -15.0739 C   0  0  0  0  0  0  0  0  0  0  0  0
   -5.2811    4.8898  -16.4440 C   0  0  0  0  0  0  0  0  0  0  0  0
   -6.5839    4.6704  -16.9040 C   0  0  0  0  0  0  0  0  0  0  0  0
   -6.8986    4.6932  -18.2691 C   0  0  0  0  0  0  0  0  0  0  0  0
   -8.2081    4.4665  -18.6804 C   0  0  0  0  0  0  0  0  0  0  0  0
   -9.2048    4.2430  -17.7445 C   0  0  0  0  0  0  0  0  0  0  0  0
   -8.8806    4.2058  -16.3939 C   0  0  0  0  0  0  0  0  0  0  0  0
   -7.5889    4.4151  -15.9517 C   0  0  0  0  0  0  0  0  0  0  0  0
   -7.3477    4.3877  -14.6358 N   0  0  0  0  0  0  0  0  0  0  0  0
   -6.0776    4.6393  -14.2128 C   0  0  0  0  0  0  0  0  0  0  0  0
   -7.7364    4.3282  -10.7392 C   0  0  0  0  0  0  0  0  0  0  0  0
   -7.5263    5.4435   -9.9146 C   0  0  0  0  0  0  0  0  0  0  0  0
   -7.8943    5.4179   -8.5656 C   0  0  0  0  0  0  0  0  0  0  0  0
   -8.4355    4.2527   -8.0558 C   0  0  0  0  0  0  0  0  0  0  0  0
   -8.6407    3.1435   -8.8656 C   0  0  0  0  0  0  0  0  0  0  0  0
   -8.3301    3.1726  -10.2187 C   0  0  0  0  0  0  0  0  0  0  0  0
   -9.1143    2.0084   -8.0209 C   0  0  0  0  0  0  0  0  0  0  0  0
   -9.4640    2.5953   -6.7006 N   0  0  0  0  0  0  0  0  0  0  0  0
   -8.8289    3.9272   -6.6563 C   0  0  0  0  0  0  0  0  0  0  0  0
   -9.1057    2.0083   -5.9474 H   0  0  0  0  0  0  0  0  0  0  0  0
  5  6  1  0  0  0
  6  7  2  0  0  0
  7  8  1  0  0  0
  8  9  2  0  0  0
  9 10  1  0  0  0
 10 11  2  0  0  0
 11 12  1  0  0  0
 12 13  2  0  0  0
 13 14  1  0  0  0
 14 15  2  0  0  0
 15  1  1  0  0  0
  1  2  2  0  0  0
  1  3  1  0  0  0
  3 16  1  0  0  0
 16 17  2  0  0  0
 17 18  1  0  0  0
 18 19  2  0  0  0
 19 20  1  0  0  0
 20 21  2  0  0  0
 20 22  1  0  0  0
 22 23  1  0  0  0
 23 24  1  0  0  0
 15  6  1  0  0  0
 21 16  1  0  0  0
 13  8  1  0  0  0
 24 19  1  0  0  0
  3  4  1  0  0  0
 23 25  1  0  0  0
M  END
> <minimizedAffinity>
-7.98143

> <minimizedRMSD>
0.61328

$$$$
P38849


 23 25  0  0  0  0  0  0  0  0999 V2000
    2.1821    7.0017  -18.5995 C   0  0  0  0  0  0  0  0  0  0  0  0
    1.9193    5.7025  -18.1770 C   0  0  0  0  0  0  0  0  0  0  0  0
    0.6414    5.1568  -18.3435 C   0  0  0  0  0  0  0  0  0  0  0  0
   -0.3965    5.8901  -18.9375 C   0  0  0  0  0  0  0  0  0  0  0  0
   -1.6868    5.3478  -19.1189 C   0  0  0  0  0  0  0  0  0  0  0  0
   -2.7293    6.1076  -19.6788 C   0  0  0  0  0  0  0  0  0  0  0  0
   -2.4392    7.4106  -20.0952 C   0  0  0  0  0  0  0  0  0  0  0  0
   -1.1606    7.9540  -19.9389 C   0  0  0  0  0  0  0  0  0  0  0  0
   -0.1312    7.2083  -19.3565 C   0  0  0  0  0  0  0  0  0  0  0  0
    1.1552    7.7478  -19.1829 C   0  0  0  0  0  0  0  0  0  0  0  0
    4.5213    6.8565  -18.2104 C   0  0  0  0  0  0  0  0  0  0  0  0
    3.3800    7.6547  -18.4990 O   0  0  0  0  0  0  0  0  0  0  0  0
   -4.0976    5.4701  -19.8112 C   0  0  0  0  0  0  0  0  0  0  0  0
   -5.1214    5.7078  -18.6726 C   0  0  0  0  0  0  0  0  0  0  0  0
   -5.7077    7.1064  -18.7801 C   0  0  0  0  0  0  0  0  0  0  0  0
   -6.0922    4.6080  -18.6994 N   0  0  0  0  0  0  0  0  0  0  0  0
   -5.9159    3.8427  -19.2931 H   0  0  0  0  0  0  0  0  0  0  0  0
   -7.2433    4.5930  -17.9315 C   0  0  0  0  0  0  0  0  0  0  0  0
   -8.4914    4.3788  -18.4712 C   0  0  0  0  0  0  0  0  0  0  0  0
   -9.5366    4.2604  -17.5942 C   0  0  0  0  0  0  0  0  0  0  0  0
   -9.3852    4.2839  -16.2658 N   0  0  0  0  0  0  0  0  0  0  0  0
   -8.1328    4.4845  -15.8380 C   0  0  0  0  0  0  0  0  0  0  0  0
   -7.0496    4.6788  -16.6070 N   0  0  0  0  0  0  0  0  0  0  0  0
 11 12  1  0  0  0
 12  1  1  0  0  0
  1  2  2  0  0  0
  2  3  1  0  0  0
  3  4  2  0  0  0
  4  5  1  0  0  0
  5  6  2  0  0  0
  6 13  1  0  0  0
 13 14  1  0  0  0
 14 15  1  0  0  0
 14 16  1  0  0  0
 16 18  1  0  0  0
 18 19  2  0  0  0
 19 20  1  0  0  0
 20 21  2  0  0  0
 21 22  1  0  0  0
 22 23  2  0  0  0
  6  7  1  0  0  0
  7  8  2  0  0  0
  8  9  1  0  0  0
  9 10  2  0  0  0
 10  1  1  0  0  0
  9  4  1  0  0  0
 23 18  1  0  0  0
 16 17  1  0  0  0
M  END
> <minimizedAffinity>
-4.92302

> <minimizedRMSD>
1.04214

$$$$
P38931


 18 19  0  0  0  0  0  0  0  0999 V2000
   -4.9966    5.7091  -17.0762 N   0  0  0  0  0  0  0  0  0  0  0  0
   -5.7041    5.1599  -18.2647 C   0  0  0  0  0  0  0  0  0  0  0  0
   -7.0370    4.7049  -17.7767 C   0  0  0  0  0  0  0  0  0  0  0  0
   -8.0964    4.2171  -18.5188 C   0  0  0  0  0  0  0  0  0  0  0  0
   -9.2504    3.8558  -17.8411 C   0  0  0  0  0  0  0  0  0  0  0  0
   -9.2946    3.9295  -16.4414 C   0  0  0  0  0  0  0  0  0  0  0  0
   -8.1973    4.3290  -15.6792 C   0  0  0  0  0  0  0  0  0  0  0  0
   -8.3251    4.4234  -14.2823 N   0  0  0  0  0  0  0  0  0  0  0  0
   -7.0931    4.7840  -16.3839 C   0  0  0  0  0  0  0  0  0  0  0  0
   -5.7724    5.2777  -15.8834 C   0  0  0  0  0  0  0  0  0  0  0  0
   -9.1344    4.0818  -13.8378 H   0  0  0  0  0  0  0  0  0  0  0  0
   -7.6053    4.8311  -13.7485 H   0  0  0  0  0  0  0  0  0  0  0  0
   -3.1146    4.9723  -18.4777 C   0  0  0  0  0  0  0  0  0  0  0  0
   -3.5643    5.3409  -17.0510 C   0  0  0  0  0  0  0  0  0  0  0  0
   -2.5973    6.4511  -16.5293 C   0  0  0  0  0  0  0  0  0  0  0  0
   -1.7934    6.0860  -15.3587 N   0  0  0  0  0  0  0  0  0  0  0  0
   -2.4097    5.9020  -14.5670 H   0  0  0  0  0  0  0  0  0  0  0  0
   -1.1621    6.8530  -15.1271 H   0  0  0  0  0  0  0  0  0  0  0  0
 14 13  1  0  0  0
 14 15  1  0  0  0
 15 16  1  0  0  0
 14  1  1  0  0  0
  1  2  1  0  0  0
  2  3  1  0  0  0
  3  4  2  0  0  0
  4  5  1  0  0  0
  5  6  2  0  0  0
  6  7  1  0  0  0
  7  8  1  0  0  0
  7  9  2  0  0  0
  9 10  1  0  0  0
 10  1  1  0  0  0
  9  3  1  0  0  0
 16 17  1  0  0  0
 16 18  1  0  0  0
  8 11  1  0  0  0
  8 12  1  0  0  0
M  END
> <minimizedAffinity>
-5.53608

> <minimizedRMSD>
0.66989

$$$$
P38933


 16 17  0  0  0  0  0  0  0  0999 V2000
   -5.1656    5.2089  -18.5594 C   0  0  0  0  0  0  0  0  0  0  0  0
   -5.3317    5.3540  -17.2566 N   0  0  0  0  0  0  0  0  0  0  0  0
   -6.5918    4.8955  -16.9881 C   0  0  0  0  0  0  0  0  0  0  0  0
   -7.2470    4.7647  -15.7599 C   0  0  0  0  0  0  0  0  0  0  0  0
   -8.5583    4.2845  -15.7635 C   0  0  0  0  0  0  0  0  0  0  0  0
   -9.2059    3.9541  -16.9563 C   0  0  0  0  0  0  0  0  0  0  0  0
   -8.5544    4.0561  -18.1865 C   0  0  0  0  0  0  0  0  0  0  0  0
   -7.2451    4.5333  -18.1569 C   0  0  0  0  0  0  0  0  0  0  0  0
   -6.3210    4.7452  -19.1473 N   0  0  0  0  0  0  0  0  0  0  0  0
   -6.4593    4.5926  -20.1100 H   0  0  0  0  0  0  0  0  0  0  0  0
   -2.7579    4.5486  -19.0025 C   0  0  0  0  0  0  0  0  0  0  0  0
   -3.8948    5.5169  -19.3061 C   0  0  0  0  0  0  0  0  0  0  0  0
   -3.4587    6.9889  -19.0755 C   0  0  0  0  0  0  0  0  0  0  0  0
   -2.9164    7.2728  -17.7443 N   0  0  0  0  0  0  0  0  0  0  0  0
   -3.6369    7.1076  -17.0414 H   0  0  0  0  0  0  0  0  0  0  0  0
   -2.6153    8.2463  -17.7003 H   0  0  0  0  0  0  0  0  0  0  0  0
 12 11  1  0  0  0
 12 13  1  0  0  0
 13 14  1  0  0  0
 12  1  1  0  0  0
  1  2  2  0  0  0
  2  3  1  0  0  0
  3  4  2  0  0  0
  4  5  1  0  0  0
  5  6  2  0  0  0
  6  7  1  0  0  0
  7  8  2  0  0  0
  8  9  1  0  0  0
  9  1  1  0  0  0
  8  3  1  0  0  0
 14 15  1  0  0  0
 14 16  1  0  0  0
  9 10  1  0  0  0
M  END
> <minimizedAffinity>
-5.80950

> <minimizedRMSD>
1.52705

$$$$
P38935


 24 25  0  0  0  0  0  0  0  0999 V2000
   -4.1746    5.8811  -16.8783 C   0  0  0  0  0  0  0  0  0  0  0  0
   -4.7694    5.6550  -15.7197 N   0  0  0  0  0  0  0  0  0  0  0  0
   -6.0302    5.2377  -16.0070 C   0  0  0  0  0  0  0  0  0  0  0  0
   -7.0560    4.9009  -15.1271 C   0  0  0  0  0  0  0  0  0  0  0  0
   -8.2708    4.4621  -15.6484 C   0  0  0  0  0  0  0  0  0  0  0  0
   -9.3549    4.2848  -14.7625 N   0  0  0  0  0  0  0  0  0  0  0  0
   -8.4493    4.3729  -17.0349 C   0  0  0  0  0  0  0  0  0  0  0  0
   -7.4306    4.7244  -17.9358 C   0  0  0  0  0  0  0  0  0  0  0  0
   -6.2410    5.2030  -17.3740 C   0  0  0  0  0  0  0  0  0  0  0  0
   -5.1157    5.8284  -17.8862 N   0  0  0  0  0  0  0  0  0  0  0  0
   -9.2123    4.3508  -13.7906 H   0  0  0  0  0  0  0  0  0  0  0  0
  -10.2538    4.0953  -15.1163 H   0  0  0  0  0  0  0  0  0  0  0  0
   -1.8345    5.0712  -17.5248 C   0  0  0  0  0  0  0  0  0  0  0  0
   -2.6989    6.2001  -16.9763 C   0  0  0  0  0  0  0  0  0  0  0  0
   -2.1615    6.6429  -15.5843 C   0  0  0  0  0  0  0  0  0  0  0  0
   -1.8566    5.5383  -14.6691 N   0  0  0  0  0  0  0  0  0  0  0  0
   -2.7107    5.0188  -14.4667 H   0  0  0  0  0  0  0  0  0  0  0  0
   -1.4722    5.9119  -13.8014 H   0  0  0  0  0  0  0  0  0  0  0  0
   -5.1135    6.4878  -19.1820 C   0  0  0  0  0  0  0  0  0  0  0  0
   -4.0513    5.9598  -20.1047 C   0  0  0  0  0  0  0  0  0  0  0  0
   -5.1895    7.9949  -19.1179 C   0  0  0  0  0  0  0  0  0  0  0  0
   -6.1938    8.6514  -18.8666 O   0  0  0  0  0  0  0  0  0  0  0  0
   -4.0341    8.6348  -19.3890 O   0  0  0  0  0  0  0  0  0  0  0  0
   -3.2604    8.1430  -19.5825 H   0  0  0  0  0  0  0  0  0  0  0  0
 14 13  1  0  0  0
 14 15  1  0  0  0
 15 16  1  0  0  0
 14  1  1  0  0  0
  1  2  2  0  0  0
  2  3  1  0  0  0
  3  4  2  0  0  0
  4  5  1  0  0  0
  5  6  1  0  0  0
  5  7  2  0  0  0
  7  8  1  0  0  0
  8  9  2  0  0  0
  9 10  1  0  0  0
 10 19  1  0  0  0
 19 20  1  0  0  0
 19 21  1  0  0  0
 21 22  2  0  0  0
 21 23  1  0  0  0
 10  1  1  0  0  0
  9  3  1  0  0  0
 16 17  1  0  0  0
 16 18  1  0  0  0
  6 11  1  0  0  0
  6 12  1  0  0  0
 23 24  1  0  0  0
M  END
> <minimizedAffinity>
-5.39665

> <minimizedRMSD>
0.74633

$$$$
P38936


 22 23  0  0  0  0  0  0  0  0999 V2000
   -5.1504    5.4148  -14.5353 C   0  0  0  0  0  0  0  0  0  0  0  0
   -5.0517    5.2776  -15.8454 N   0  0  0  0  0  0  0  0  0  0  0  0
   -6.3009    4.9993  -16.3108 C   0  0  0  0  0  0  0  0  0  0  0  0
   -6.7375    4.7523  -17.6202 C   0  0  0  0  0  0  0  0  0  0  0  0
   -8.0838    4.4402  -17.8326 C   0  0  0  0  0  0  0  0  0  0  0  0
   -8.9659    4.3557  -16.7567 C   0  0  0  0  0  0  0  0  0  0  0  0
   -8.5415    4.6300  -15.4603 C   0  0  0  0  0  0  0  0  0  0  0  0
   -9.4107    4.5752  -14.4427 F   0  0  0  0  0  0  0  0  0  0  0  0
   -7.2070    4.9776  -15.2619 C   0  0  0  0  0  0  0  0  0  0  0  0
   -6.4852    5.4054  -14.1596 N   0  0  0  0  0  0  0  0  0  0  0  0
   -2.6458    5.5140  -14.4827 C   0  0  0  0  0  0  0  0  0  0  0  0
   -3.9372    5.5587  -13.6454 C   0  0  0  0  0  0  0  0  0  0  0  0
   -3.8584    4.5138  -12.5153 C   0  0  0  0  0  0  0  0  0  0  0  0
   -4.2410    3.1624  -12.8937 N   0  0  0  0  0  0  0  0  0  0  0  0
   -5.2209    3.1531  -13.1766 H   0  0  0  0  0  0  0  0  0  0  0  0
   -4.1107    2.5369  -12.0985 H   0  0  0  0  0  0  0  0  0  0  0  0
   -7.1445    5.8716  -12.9336 C   0  0  0  0  0  0  0  0  0  0  0  0
   -7.3078    4.7851  -11.8699 C   0  0  0  0  0  0  0  0  0  0  0  0
   -6.5841    7.1527  -12.3511 C   0  0  0  0  0  0  0  0  0  0  0  0
   -6.1241    7.3102  -11.2307 O   0  0  0  0  0  0  0  0  0  0  0  0
   -6.6730    8.2208  -13.1708 O   0  0  0  0  0  0  0  0  0  0  0  0
   -7.0231    8.1210  -14.0342 H   0  0  0  0  0  0  0  0  0  0  0  0
 12 11  1  0  0  0
 12 13  1  0  0  0
 13 14  1  0  0  0
 12  1  1  0  0  0
  1  2  2  0  0  0
  2  3  1  0  0  0
  3  4  2  0  0  0
  4  5  1  0  0  0
  5  6  2  0  0  0
  6  7  1  0  0  0
  7  8  1  0  0  0
  7  9  2  0  0  0
  9 10  1  0  0  0
 10 17  1  0  0  0
 17 18  1  0  0  0
 17 19  1  0  0  0
 19 20  2  0  0  0
 19 21  1  0  0  0
 10  1  1  0  0  0
  9  3  1  0  0  0
 14 15  1  0  0  0
 14 16  1  0  0  0
 21 22  1  0  0  0
M  END
> <minimizedAffinity>
-4.76778

> <minimizedRMSD>
2.58171

$$$$
P38937


 23 24  0  0  0  0  0  0  0  0999 V2000
   -4.3314    5.8252  -16.0967 C   0  0  0  0  0  0  0  0  0  0  0  0
   -5.0423    5.9149  -14.9825 N   0  0  0  0  0  0  0  0  0  0  0  0
   -6.2848    5.4229  -15.2770 C   0  0  0  0  0  0  0  0  0  0  0  0
   -7.3957    5.2495  -14.4478 C   0  0  0  0  0  0  0  0  0  0  0  0
   -8.5396    4.6934  -15.0109 C   0  0  0  0  0  0  0  0  0  0  0  0
   -9.6622    4.6337  -14.2375 O   0  0  0  0  0  0  0  0  0  0  0  0
   -8.5816    4.2560  -16.3318 C   0  0  0  0  0  0  0  0  0  0  0  0
   -7.4765    4.4272  -17.1717 C   0  0  0  0  0  0  0  0  0  0  0  0
   -6.3616    5.0682  -16.6146 C   0  0  0  0  0  0  0  0  0  0  0  0
   -5.1931    5.5808  -17.1459 N   0  0  0  0  0  0  0  0  0  0  0  0
   -9.6348    4.9279  -13.3483 H   0  0  0  0  0  0  0  0  0  0  0  0
   -2.1378    7.0624  -16.6209 C   0  0  0  0  0  0  0  0  0  0  0  0
   -2.8129    5.7887  -16.1242 C   0  0  0  0  0  0  0  0  0  0  0  0
   -2.2306    5.4953  -14.7115 C   0  0  0  0  0  0  0  0  0  0  0  0
   -2.8098    4.3338  -14.0292 N   0  0  0  0  0  0  0  0  0  0  0  0
   -3.8032    4.4966  -13.8646 H   0  0  0  0  0  0  0  0  0  0  0  0
   -2.3361    4.1925  -13.1370 H   0  0  0  0  0  0  0  0  0  0  0  0
   -5.0366    5.8698  -18.5625 C   0  0  0  0  0  0  0  0  0  0  0  0
   -3.8961    5.0907  -19.1548 C   0  0  0  0  0  0  0  0  0  0  0  0
   -5.0965    7.3436  -18.9134 C   0  0  0  0  0  0  0  0  0  0  0  0
   -6.0525    8.0927  -18.7641 O   0  0  0  0  0  0  0  0  0  0  0  0
   -3.9979    7.8297  -19.5291 O   0  0  0  0  0  0  0  0  0  0  0  0
   -3.2505    7.2792  -19.6574 H   0  0  0  0  0  0  0  0  0  0  0  0
 13 12  1  0  0  0
 13 14  1  0  0  0
 14 15  1  0  0  0
 13  1  1  0  0  0
  1  2  2  0  0  0
  2  3  1  0  0  0
  3  4  2  0  0  0
  4  5  1  0  0  0
  5  6  1  0  0  0
  5  7  2  0  0  0
  7  8  1  0  0  0
  8  9  2  0  0  0
  9 10  1  0  0  0
 10 18  1  0  0  0
 18 19  1  0  0  0
 18 20  1  0  0  0
 20 21  2  0  0  0
 20 22  1  0  0  0
 10  1  1  0  0  0
  9  3  1  0  0  0
 15 16  1  0  0  0
 15 17  1  0  0  0
  6 11  1  0  0  0
 22 23  1  0  0  0
M  END
> <minimizedAffinity>
-5.49177

> <minimizedRMSD>
0.90041

$$$$
P38940


 17 18  0  0  0  0  0  0  0  0999 V2000
   -4.5294    5.4145  -18.4506 C   0  0  0  0  0  0  0  0  0  0  0  0
   -4.8293    5.4949  -17.1665 N   0  0  0  0  0  0  0  0  0  0  0  0
   -6.1106    5.0382  -17.0554 C   0  0  0  0  0  0  0  0  0  0  0  0
   -6.9180    4.9088  -15.9195 C   0  0  0  0  0  0  0  0  0  0  0  0
   -8.2501    4.5416  -16.1079 C   0  0  0  0  0  0  0  0  0  0  0  0
   -8.7317    4.3004  -17.3948 C   0  0  0  0  0  0  0  0  0  0  0  0
  -10.5696    4.2001  -17.7009 Br  0  0  0  0  0  0  0  0  0  0  0  0
   -7.9177    4.3013  -18.5217 C   0  0  0  0  0  0  0  0  0  0  0  0
   -6.6146    4.7079  -18.3037 C   0  0  0  0  0  0  0  0  0  0  0  0
   -5.5801    4.9085  -19.1709 N   0  0  0  0  0  0  0  0  0  0  0  0
   -5.5871    4.7234  -20.1378 H   0  0  0  0  0  0  0  0  0  0  0  0
   -2.4908    4.6446  -19.7398 C   0  0  0  0  0  0  0  0  0  0  0  0
   -3.2022    5.7950  -19.0278 C   0  0  0  0  0  0  0  0  0  0  0  0
   -2.2926    6.3724  -17.9323 C   0  0  0  0  0  0  0  0  0  0  0  0
   -2.6597    7.7166  -17.4633 N   0  0  0  0  0  0  0  0  0  0  0  0
   -2.5803    8.3793  -18.2346 H   0  0  0  0  0  0  0  0  0  0  0  0
   -2.0329    7.9964  -16.7087 H   0  0  0  0  0  0  0  0  0  0  0  0
 13 12  1  0  0  0
 13 14  1  0  0  0
 14 15  1  0  0  0
 13  1  1  0  0  0
  1  2  2  0  0  0
  2  3  1  0  0  0
  3  4  2  0  0  0
  4  5  1  0  0  0
  5  6  2  0  0  0
  6  7  1  0  0  0
  6  8  1  0  0  0
  8  9  2  0  0  0
  9 10  1  0  0  0
 10  1  1  0  0  0
  9  3  1  0  0  0
 15 16  1  0  0  0
 15 17  1  0  0  0
 10 11  1  0  0  0
M  END
> <minimizedAffinity>
-4.89506

> <minimizedRMSD>
1.41711

$$$$
P38941


 18 19  0  0  0  0  0  0  0  0999 V2000
   -7.0870    4.8456  -13.6736 C   0  0  0  0  0  0  0  0  0  0  0  0
   -7.1965    4.7819  -15.1664 C   0  0  0  0  0  0  0  0  0  0  0  0
   -8.4217    4.4370  -15.7571 C   0  0  0  0  0  0  0  0  0  0  0  0
   -8.5571    4.3795  -17.1438 C   0  0  0  0  0  0  0  0  0  0  0  0
  -10.2535    4.2304  -17.9068 Br  0  0  0  0  0  0  0  0  0  0  0  0
   -7.4927    4.5741  -18.0127 C   0  0  0  0  0  0  0  0  0  0  0  0
   -6.2997    4.9338  -17.4138 C   0  0  0  0  0  0  0  0  0  0  0  0
   -5.0769    5.2136  -17.9542 N   0  0  0  0  0  0  0  0  0  0  0  0
   -4.2160    5.4835  -16.9215 C   0  0  0  0  0  0  0  0  0  0  0  0
   -4.8539    5.4699  -15.7649 N   0  0  0  0  0  0  0  0  0  0  0  0
   -6.1324    5.0667  -16.0429 C   0  0  0  0  0  0  0  0  0  0  0  0
   -4.8536    5.2203  -18.9131 H   0  0  0  0  0  0  0  0  0  0  0  0
   -2.7350    5.6233  -17.1171 C   0  0  0  0  0  0  0  0  0  0  0  0
   -2.4052    6.4211  -18.3792 C   0  0  0  0  0  0  0  0  0  0  0  0
   -2.0520    6.2727  -15.8890 C   0  0  0  0  0  0  0  0  0  0  0  0
   -2.1009    5.4648  -14.6599 N   0  0  0  0  0  0  0  0  0  0  0  0
   -3.0723    5.3337  -14.3777 H   0  0  0  0  0  0  0  0  0  0  0  0
   -1.5928    5.9448  -13.9171 H   0  0  0  0  0  0  0  0  0  0  0  0
  1  2  1  0  0  0
  2  3  2  0  0  0
  3  4  1  0  0  0
  4  5  1  0  0  0
  4  6  2  0  0  0
  6  7  1  0  0  0
  7  8  1  0  0  0
  8  9  1  0  0  0
  9 13  1  0  0  0
 13 14  1  0  0  0
 13 15  1  0  0  0
 15 16  1  0  0  0
  9 10  2  0  0  0
 10 11  1  0  0  0
 11  2  1  0  0  0
 11  7  2  0  0  0
  8 12  1  0  0  0
 16 17  1  0  0  0
 16 18  1  0  0  0
M  END
> <minimizedAffinity>
-4.87924

> <minimizedRMSD>
0.48201

$$$$
P38942


 17 18  0  0  0  0  0  0  0  0999 V2000
   -4.3377    5.5081  -15.8346 C   0  0  0  0  0  0  0  0  0  0  0  0
   -5.1951    5.4467  -14.8270 N   0  0  0  0  0  0  0  0  0  0  0  0
   -6.3856    5.0488  -15.3647 C   0  0  0  0  0  0  0  0  0  0  0  0
   -7.5954    4.7345  -14.7311 C   0  0  0  0  0  0  0  0  0  0  0  0
   -8.6892    4.3916  -15.5291 C   0  0  0  0  0  0  0  0  0  0  0  0
   -8.5607    4.3764  -16.9160 C   0  0  0  0  0  0  0  0  0  0  0  0
  -10.0603    4.2197  -18.0168 Br  0  0  0  0  0  0  0  0  0  0  0  0
   -7.3551    4.6205  -17.5597 C   0  0  0  0  0  0  0  0  0  0  0  0
   -6.2873    4.9667  -16.7446 C   0  0  0  0  0  0  0  0  0  0  0  0
   -4.9856    5.2853  -17.0255 N   0  0  0  0  0  0  0  0  0  0  0  0
   -4.4353    5.3150  -18.3559 C   0  0  0  0  0  0  0  0  0  0  0  0
   -2.3625    7.0591  -16.0709 C   0  0  0  0  0  0  0  0  0  0  0  0
   -2.8454    5.6599  -15.6812 C   0  0  0  0  0  0  0  0  0  0  0  0
   -2.4111    5.3850  -14.2176 C   0  0  0  0  0  0  0  0  0  0  0  0
   -2.8761    4.0997  -13.6833 N   0  0  0  0  0  0  0  0  0  0  0  0
   -3.8959    4.0875  -13.6663 H   0  0  0  0  0  0  0  0  0  0  0  0
   -2.5188    3.9760  -12.7360 H   0  0  0  0  0  0  0  0  0  0  0  0
 13 12  1  0  0  0
 13 14  1  0  0  0
 14 15  1  0  0  0
 13  1  1  0  0  0
  1  2  2  0  0  0
  2  3  1  0  0  0
  3  4  2  0  0  0
  4  5  1  0  0  0
  5  6  2  0  0  0
  6  7  1  0  0  0
  6  8  1  0  0  0
  8  9  2  0  0  0
  9 10  1  0  0  0
 10 11  1  0  0  0
 10  1  1  0  0  0
  9  3  1  0  0  0
 15 16  1  0  0  0
 15 17  1  0  0  0
M  END
> <minimizedAffinity>
-4.79574

> <minimizedRMSD>
1.19237

$$$$
P38943


 18 19  0  0  0  0  0  0  0  0999 V2000
   -4.0759    5.6266  -18.3236 C   0  0  0  0  0  0  0  0  0  0  0  0
   -4.3898    5.6851  -17.0455 N   0  0  0  0  0  0  0  0  0  0  0  0
   -5.6561    5.2171  -16.9597 C   0  0  0  0  0  0  0  0  0  0  0  0
   -6.4409    5.0772  -15.8264 C   0  0  0  0  0  0  0  0  0  0  0  0
   -7.7675    4.7131  -16.0118 C   0  0  0  0  0  0  0  0  0  0  0  0
   -8.7017    4.7828  -14.5817 Cl  0  0  0  0  0  0  0  0  0  0  0  0
   -8.2656    4.4276  -17.2927 C   0  0  0  0  0  0  0  0  0  0  0  0
  -10.0838    4.1794  -17.6798 Br  0  0  0  0  0  0  0  0  0  0  0  0
   -7.4488    4.4627  -18.4253 C   0  0  0  0  0  0  0  0  0  0  0  0
   -6.1558    4.9023  -18.2106 C   0  0  0  0  0  0  0  0  0  0  0  0
   -5.1238    5.1515  -19.0709 N   0  0  0  0  0  0  0  0  0  0  0  0
   -5.1309    5.0155  -20.0459 H   0  0  0  0  0  0  0  0  0  0  0  0
   -2.5662    5.7465  -20.3397 C   0  0  0  0  0  0  0  0  0  0  0  0
   -2.7172    5.9736  -18.8397 C   0  0  0  0  0  0  0  0  0  0  0  0
   -1.6703    5.1463  -18.0701 C   0  0  0  0  0  0  0  0  0  0  0  0
   -1.2354    5.7489  -16.8032 N   0  0  0  0  0  0  0  0  0  0  0  0
   -0.7820    6.6432  -16.9900 H   0  0  0  0  0  0  0  0  0  0  0  0
   -0.5767    5.1243  -16.3380 H   0  0  0  0  0  0  0  0  0  0  0  0
 14 13  1  0  0  0
 14 15  1  0  0  0
 15 16  1  0  0  0
 14  1  1  0  0  0
  1  2  2  0  0  0
  2  3  1  0  0  0
  3  4  2  0  0  0
  4  5  1  0  0  0
  5  6  1  0  0  0
  5  7  2  0  0  0
  7  8  1  0  0  0
  7  9  1  0  0  0
  9 10  2  0  0  0
 10 11  1  0  0  0
 11  1  1  0  0  0
 10  3  1  0  0  0
 16 17  1  0  0  0
 16 18  1  0  0  0
 11 12  1  0  0  0
M  END
> <minimizedAffinity>
-5.07068

> <minimizedRMSD>
0.89876

$$$$
P38948


 21 22  0  0  0  0  0  0  0  0999 V2000
   -5.0334    5.3867  -16.6072 C   0  0  0  0  0  0  0  0  0  0  0  0
   -5.9078    5.2260  -15.6243 N   0  0  0  0  0  0  0  0  0  0  0  0
   -7.0645    4.7808  -16.1911 C   0  0  0  0  0  0  0  0  0  0  0  0
   -8.2587    4.3939  -15.5718 C   0  0  0  0  0  0  0  0  0  0  0  0
   -9.3146    3.9623  -16.3758 C   0  0  0  0  0  0  0  0  0  0  0  0
   -9.1897    3.9258  -17.7634 C   0  0  0  0  0  0  0  0  0  0  0  0
   -8.0010    4.3083  -18.3916 C   0  0  0  0  0  0  0  0  0  0  0  0
   -6.9481    4.7358  -17.5720 C   0  0  0  0  0  0  0  0  0  0  0  0
   -5.6622    5.1772  -17.8214 N   0  0  0  0  0  0  0  0  0  0  0  0
   -2.5068    5.2185  -17.2392 C   0  0  0  0  0  0  0  0  0  0  0  0
   -3.5913    5.7759  -16.3197 C   0  0  0  0  0  0  0  0  0  0  0  0
   -3.2185    5.3244  -14.8835 C   0  0  0  0  0  0  0  0  0  0  0  0
   -3.5945    6.2395  -13.8097 N   0  0  0  0  0  0  0  0  0  0  0  0
   -3.0927    7.1203  -13.9223 H   0  0  0  0  0  0  0  0  0  0  0  0
   -3.3547    5.8242  -12.9095 H   0  0  0  0  0  0  0  0  0  0  0  0
   -5.1272    5.3964  -19.1493 C   0  0  0  0  0  0  0  0  0  0  0  0
   -5.2326    6.8597  -19.5788 C   0  0  0  0  0  0  0  0  0  0  0  0
   -4.5526    7.0879  -20.9260 C   0  0  0  0  0  0  0  0  0  0  0  0
   -5.3492    7.9588  -21.7867 N   0  0  0  0  0  0  0  0  0  0  0  0
   -6.2542    7.5238  -21.9662 H   0  0  0  0  0  0  0  0  0  0  0  0
   -4.8603    8.1033  -22.6702 H   0  0  0  0  0  0  0  0  0  0  0  0
 11 10  1  0  0  0
 11 12  1  0  0  0
 12 13  1  0  0  0
 11  1  1  0  0  0
  1  2  2  0  0  0
  2  3  1  0  0  0
  3  4  2  0  0  0
  4  5  1  0  0  0
  5  6  2  0  0  0
  6  7  1  0  0  0
  7  8  2  0  0  0
  8  9  1  0  0  0
  9 16  1  0  0  0
 16 17  1  0  0  0
 17 18  1  0  0  0
 18 19  1  0  0  0
  9  1  1  0  0  0
  8  3  1  0  0  0
 13 14  1  0  0  0
 13 15  1  0  0  0
 19 20  1  0  0  0
 19 21  1  0  0  0
M  END
> <minimizedAffinity>
-5.02403

> <minimizedRMSD>
0.73721

$$$$
P38949


 23 24  0  0  0  0  0  0  0  0999 V2000
   -8.2101    4.7386  -15.0657 C   0  0  0  0  0  0  0  0  0  0  0  0
   -8.6156    4.4350  -16.3710 C   0  0  0  0  0  0  0  0  0  0  0  0
   -7.7418    4.5744  -17.4719 C   0  0  0  0  0  0  0  0  0  0  0  0
   -6.4447    5.0313  -17.1955 C   0  0  0  0  0  0  0  0  0  0  0  0
   -6.0476    5.3339  -15.9027 C   0  0  0  0  0  0  0  0  0  0  0  0
   -6.9260    5.2154  -14.8326 C   0  0  0  0  0  0  0  0  0  0  0  0
   -4.7587    5.7469  -15.8562 N   0  0  0  0  0  0  0  0  0  0  0  0
   -4.2881    5.6231  -17.0804 C   0  0  0  0  0  0  0  0  0  0  0  0
   -5.3234    5.3251  -17.9492 N   0  0  0  0  0  0  0  0  0  0  0  0
   -8.5068    4.6011  -12.7421 C   0  0  0  0  0  0  0  0  0  0  0  0
   -9.1152    4.5894  -14.0446 O   0  0  0  0  0  0  0  0  0  0  0  0
   -2.8248    5.8352  -17.3983 C   0  0  0  0  0  0  0  0  0  0  0  0
   -2.0994    4.6172  -17.9562 C   0  0  0  0  0  0  0  0  0  0  0  0
   -2.0742    6.3659  -16.1376 C   0  0  0  0  0  0  0  0  0  0  0  0
   -1.9752    5.4326  -15.0052 N   0  0  0  0  0  0  0  0  0  0  0  0
   -2.9098    5.2227  -14.6548 H   0  0  0  0  0  0  0  0  0  0  0  0
   -1.4209    5.8575  -14.2619 H   0  0  0  0  0  0  0  0  0  0  0  0
   -5.2733    5.4109  -19.3970 C   0  0  0  0  0  0  0  0  0  0  0  0
   -5.2342    6.8688  -19.8715 C   0  0  0  0  0  0  0  0  0  0  0  0
   -4.1945    7.1875  -20.9405 C   0  0  0  0  0  0  0  0  0  0  0  0
   -3.1873    6.1397  -21.0707 N   0  0  0  0  0  0  0  0  0  0  0  0
   -2.6825    6.0420  -20.1897 H   0  0  0  0  0  0  0  0  0  0  0  0
   -2.5324    6.3879  -21.8121 H   0  0  0  0  0  0  0  0  0  0  0  0
 10 11  1  0  0  0
 11  1  1  0  0  0
  1  2  2  0  0  0
  2  3  1  0  0  0
  3  4  2  0  0  0
  4  5  1  0  0  0
  5  6  2  0  0  0
  5  7  1  0  0  0
  7  8  2  0  0  0
  8 12  1  0  0  0
 12 13  1  0  0  0
 12 14  1  0  0  0
 14 15  1  0  0  0
  8  9  1  0  0  0
  9 18  1  0  0  0
 18 19  1  0  0  0
 19 20  1  0  0  0
 20 21  1  0  0  0
  6  1  1  0  0  0
  9  4  1  0  0  0
 15 16  1  0  0  0
 15 17  1  0  0  0
 21 22  1  0  0  0
 21 23  1  0  0  0
M  END
> <minimizedAffinity>
-5.06027

> <minimizedRMSD>
0.54838

$$$$
P38950


 24 25  0  0  0  0  0  0  0  0999 V2000
   -4.0980    5.5878  -16.5908 C   0  0  0  0  0  0  0  0  0  0  0  0
   -4.8305    5.7433  -15.5048 N   0  0  0  0  0  0  0  0  0  0  0  0
   -6.0784    5.3021  -15.8280 C   0  0  0  0  0  0  0  0  0  0  0  0
   -7.1746    5.1273  -14.9803 C   0  0  0  0  0  0  0  0  0  0  0  0
   -8.3405    4.5599  -15.4890 C   0  0  0  0  0  0  0  0  0  0  0  0
   -9.4484    4.4075  -14.6245 N   0  0  0  0  0  0  0  0  0  0  0  0
   -8.4413    4.3053  -16.8633 C   0  0  0  0  0  0  0  0  0  0  0  0
   -7.3601    4.5167  -17.7438 C   0  0  0  0  0  0  0  0  0  0  0  0
   -6.1724    4.9998  -17.1801 C   0  0  0  0  0  0  0  0  0  0  0  0
   -4.9191    5.3060  -17.6692 N   0  0  0  0  0  0  0  0  0  0  0  0
   -9.3512    4.5928  -13.6625 H   0  0  0  0  0  0  0  0  0  0  0  0
  -10.3171    4.1161  -14.9844 H   0  0  0  0  0  0  0  0  0  0  0  0
   -1.9331    6.6324  -17.4591 C   0  0  0  0  0  0  0  0  0  0  0  0
   -2.5848    5.5681  -16.5821 C   0  0  0  0  0  0  0  0  0  0  0  0
   -2.0341    5.7568  -15.1409 C   0  0  0  0  0  0  0  0  0  0  0  0
   -2.4537    4.7349  -14.1745 N   0  0  0  0  0  0  0  0  0  0  0  0
   -3.4671    4.7674  -14.0638 H   0  0  0  0  0  0  0  0  0  0  0  0
   -2.0074    4.9139  -13.2750 H   0  0  0  0  0  0  0  0  0  0  0  0
   -4.5404    5.4051  -19.0693 C   0  0  0  0  0  0  0  0  0  0  0  0
   -4.9977    6.7509  -19.6468 C   0  0  0  0  0  0  0  0  0  0  0  0
   -4.4096    7.1017  -21.0139 C   0  0  0  0  0  0  0  0  0  0  0  0
   -5.3149    6.8906  -22.1288 N   0  0  0  0  0  0  0  0  0  0  0  0
   -5.5535    5.9008  -22.1903 H   0  0  0  0  0  0  0  0  0  0  0  0
   -4.8631    7.1859  -22.9942 H   0  0  0  0  0  0  0  0  0  0  0  0
 14 13  1  0  0  0
 14 15  1  0  0  0
 15 16  1  0  0  0
 14  1  1  0  0  0
  1  2  2  0  0  0
  2  3  1  0  0  0
  3  4  2  0  0  0
  4  5  1  0  0  0
  5  6  1  0  0  0
  5  7  2  0  0  0
  7  8  1  0  0  0
  8  9  2  0  0  0
  9 10  1  0  0  0
 10 19  1  0  0  0
 19 20  1  0  0  0
 20 21  1  0  0  0
 21 22  1  0  0  0
 10  1  1  0  0  0
  9  3  1  0  0  0
 16 17  1  0  0  0
 16 18  1  0  0  0
  6 11  1  0  0  0
  6 12  1  0  0  0
 22 23  1  0  0  0
 22 24  1  0  0  0
M  END
> <minimizedAffinity>
-5.42419

> <minimizedRMSD>
0.60202

$$$$
P38951


 22 23  0  0  0  0  0  0  0  0999 V2000
   -4.6636    5.7816  -16.2874 C   0  0  0  0  0  0  0  0  0  0  0  0
   -5.3731    5.4137  -15.2340 N   0  0  0  0  0  0  0  0  0  0  0  0
   -6.5872    5.0126  -15.7129 C   0  0  0  0  0  0  0  0  0  0  0  0
   -7.6988    4.5247  -15.0131 C   0  0  0  0  0  0  0  0  0  0  0  0
   -8.8221    4.1329  -15.7435 C   0  0  0  0  0  0  0  0  0  0  0  0
   -8.8211    4.1993  -17.1307 C   0  0  0  0  0  0  0  0  0  0  0  0
   -9.9056    3.7926  -17.8011 F   0  0  0  0  0  0  0  0  0  0  0  0
   -7.7383    4.7110  -17.8428 C   0  0  0  0  0  0  0  0  0  0  0  0
   -6.6386    5.1441  -17.0961 C   0  0  0  0  0  0  0  0  0  0  0  0
   -5.4662    5.7967  -17.4089 N   0  0  0  0  0  0  0  0  0  0  0  0
   -2.2742    5.2552  -16.9927 C   0  0  0  0  0  0  0  0  0  0  0  0
   -3.2108    6.1975  -16.2405 C   0  0  0  0  0  0  0  0  0  0  0  0
   -2.7423    6.3726  -14.7749 C   0  0  0  0  0  0  0  0  0  0  0  0
   -2.4853    5.1183  -14.0639 N   0  0  0  0  0  0  0  0  0  0  0  0
   -3.3498    4.5807  -13.9996 H   0  0  0  0  0  0  0  0  0  0  0  0
   -2.1421    5.3236  -13.1256 H   0  0  0  0  0  0  0  0  0  0  0  0
   -5.2577    6.6385  -18.5714 C   0  0  0  0  0  0  0  0  0  0  0  0
   -4.6726    5.9109  -19.7625 C   0  0  0  0  0  0  0  0  0  0  0  0
   -3.4327    6.6073  -20.3190 C   0  0  0  0  0  0  0  0  0  0  0  0
   -3.0762    7.7931  -19.5407 N   0  0  0  0  0  0  0  0  0  0  0  0
   -3.8424    8.4655  -19.5754 H   0  0  0  0  0  0  0  0  0  0  0  0
   -2.2346    8.2162  -19.9319 H   0  0  0  0  0  0  0  0  0  0  0  0
 12 11  1  0  0  0
 12 13  1  0  0  0
 13 14  1  0  0  0
 12  1  1  0  0  0
  1  2  2  0  0  0
  2  3  1  0  0  0
  3  4  2  0  0  0
  4  5  1  0  0  0
  5  6  2  0  0  0
  6  7  1  0  0  0
  6  8  1  0  0  0
  8  9  2  0  0  0
  9 10  1  0  0  0
 10 17  1  0  0  0
 17 18  1  0  0  0
 18 19  1  0  0  0
 19 20  1  0  0  0
 10  1  1  0  0  0
  9  3  1  0  0  0
 14 15  1  0  0  0
 14 16  1  0  0  0
 20 21  1  0  0  0
 20 22  1  0  0  0
M  END
> <minimizedAffinity>
-4.70827

> <minimizedRMSD>
0.83018

$$$$
P38952


 22 23  0  0  0  0  0  0  0  0999 V2000
   -4.2795    5.5139  -16.2679 C   0  0  0  0  0  0  0  0  0  0  0  0
   -5.2956    5.4074  -15.4295 N   0  0  0  0  0  0  0  0  0  0  0  0
   -6.3697    5.0088  -16.1735 C   0  0  0  0  0  0  0  0  0  0  0  0
   -7.6516    4.6611  -15.7418 C   0  0  0  0  0  0  0  0  0  0  0  0
   -8.5782    4.2798  -16.7034 C   0  0  0  0  0  0  0  0  0  0  0  0
   -9.8255    4.0031  -16.3021 F   0  0  0  0  0  0  0  0  0  0  0  0
   -8.2557    4.2257  -18.0577 C   0  0  0  0  0  0  0  0  0  0  0  0
   -6.9751    4.5778  -18.5041 C   0  0  0  0  0  0  0  0  0  0  0  0
   -6.0506    4.9711  -17.5257 C   0  0  0  0  0  0  0  0  0  0  0  0
   -4.7370    5.3897  -17.5670 N   0  0  0  0  0  0  0  0  0  0  0  0
   -2.1230    6.8990  -16.1847 C   0  0  0  0  0  0  0  0  0  0  0  0
   -2.8283    5.5897  -15.8335 C   0  0  0  0  0  0  0  0  0  0  0  0
   -2.6875    5.3935  -14.2983 C   0  0  0  0  0  0  0  0  0  0  0  0
   -3.2057    4.1255  -13.7773 N   0  0  0  0  0  0  0  0  0  0  0  0
   -4.2108    4.0751  -13.9433 H   0  0  0  0  0  0  0  0  0  0  0  0
   -3.0233    4.0697  -12.7753 H   0  0  0  0  0  0  0  0  0  0  0  0
   -3.9925    5.6921  -18.7754 C   0  0  0  0  0  0  0  0  0  0  0  0
   -4.3259    7.0994  -19.2772 C   0  0  0  0  0  0  0  0  0  0  0  0
   -4.8572    7.0914  -20.7062 C   0  0  0  0  0  0  0  0  0  0  0  0
   -5.3612    8.4175  -21.0673 N   0  0  0  0  0  0  0  0  0  0  0  0
   -6.1198    8.6763  -20.4365 H   0  0  0  0  0  0  0  0  0  0  0  0
   -5.7076    8.3999  -22.0265 H   0  0  0  0  0  0  0  0  0  0  0  0
 12 11  1  0  0  0
 12 13  1  0  0  0
 13 14  1  0  0  0
 12  1  1  0  0  0
  1  2  2  0  0  0
  2  3  1  0  0  0
  3  4  2  0  0  0
  4  5  1  0  0  0
  5  6  1  0  0  0
  5  7  2  0  0  0
  7  8  1  0  0  0
  8  9  2  0  0  0
  9 10  1  0  0  0
 10 17  1  0  0  0
 17 18  1  0  0  0
 18 19  1  0  0  0
 19 20  1  0  0  0
 10  1  1  0  0  0
  9  3  1  0  0  0
 14 15  1  0  0  0
 14 16  1  0  0  0
 20 21  1  0  0  0
 20 22  1  0  0  0
M  END
> <minimizedAffinity>
-4.53817

> <minimizedRMSD>
1.24061

$$$$
P38953


 23 24  0  0  0  0  0  0  0  0999 V2000
   -4.4739    5.6532  -16.6961 C   0  0  0  0  0  0  0  0  0  0  0  0
   -4.9922    5.3714  -15.5110 N   0  0  0  0  0  0  0  0  0  0  0  0
   -6.3016    5.0627  -15.7266 C   0  0  0  0  0  0  0  0  0  0  0  0
   -7.2961    4.7293  -14.8069 C   0  0  0  0  0  0  0  0  0  0  0  0
   -8.5689    4.4932  -15.3100 C   0  0  0  0  0  0  0  0  0  0  0  0
   -9.5791    4.3632  -14.4143 O   0  0  0  0  0  0  0  0  0  0  0  0
   -8.8442    4.4551  -16.6712 C   0  0  0  0  0  0  0  0  0  0  0  0
   -7.8506    4.7807  -17.5891 C   0  0  0  0  0  0  0  0  0  0  0  0
   -6.6052    5.1495  -17.0779 C   0  0  0  0  0  0  0  0  0  0  0  0
   -5.4838    5.7324  -17.6323 N   0  0  0  0  0  0  0  0  0  0  0  0
   -9.3967    4.3884  -13.4956 H   0  0  0  0  0  0  0  0  0  0  0  0
   -2.2715    4.9109  -17.8143 C   0  0  0  0  0  0  0  0  0  0  0  0
   -2.9955    5.8930  -16.8959 C   0  0  0  0  0  0  0  0  0  0  0  0
   -2.2867    5.8093  -15.5248 C   0  0  0  0  0  0  0  0  0  0  0  0
   -2.4578    6.9650  -14.6466 N   0  0  0  0  0  0  0  0  0  0  0  0
   -2.0414    7.7879  -15.0825 H   0  0  0  0  0  0  0  0  0  0  0  0
   -1.9991    6.7844  -13.7537 H   0  0  0  0  0  0  0  0  0  0  0  0
   -5.5245    6.6396  -18.7684 C   0  0  0  0  0  0  0  0  0  0  0  0
   -4.8107    6.1096  -19.9955 C   0  0  0  0  0  0  0  0  0  0  0  0
   -4.6716    7.1390  -21.1134 C   0  0  0  0  0  0  0  0  0  0  0  0
   -4.0019    8.3571  -20.6651 N   0  0  0  0  0  0  0  0  0  0  0  0
   -4.5510    8.7943  -19.9250 H   0  0  0  0  0  0  0  0  0  0  0  0
   -3.9118    9.0037  -21.4488 H   0  0  0  0  0  0  0  0  0  0  0  0
 13 12  1  0  0  0
 13 14  1  0  0  0
 14 15  1  0  0  0
 13  1  1  0  0  0
  1  2  2  0  0  0
  2  3  1  0  0  0
  3  4  2  0  0  0
  4  5  1  0  0  0
  5  6  1  0  0  0
  5  7  2  0  0  0
  7  8  1  0  0  0
  8  9  2  0  0  0
  9 10  1  0  0  0
 10 18  1  0  0  0
 18 19  1  0  0  0
 19 20  1  0  0  0
 20 21  1  0  0  0
 10  1  1  0  0  0
  9  3  1  0  0  0
 15 16  1  0  0  0
 15 17  1  0  0  0
  6 11  1  0  0  0
 21 22  1  0  0  0
 21 23  1  0  0  0
M  END
> <minimizedAffinity>
-5.11627

> <minimizedRMSD>
0.74893

$$$$
P38954


 22 24  0  0  0  0  0  0  0  0999 V2000
   -4.7987    5.8560  -16.1565 C   0  0  0  0  0  0  0  0  0  0  0  0
   -5.6846    5.6486  -15.1992 N   0  0  0  0  0  0  0  0  0  0  0  0
   -6.7678    5.0949  -15.7991 C   0  0  0  0  0  0  0  0  0  0  0  0
   -7.9734    4.7020  -15.2012 C   0  0  0  0  0  0  0  0  0  0  0  0
   -8.9623    4.1503  -16.0087 C   0  0  0  0  0  0  0  0  0  0  0  0
   -8.7398    3.9883  -17.3694 C   0  0  0  0  0  0  0  0  0  0  0  0
   -9.7064    3.4354  -18.1062 F   0  0  0  0  0  0  0  0  0  0  0  0
   -7.5454    4.3700  -17.9864 C   0  0  0  0  0  0  0  0  0  0  0  0
   -6.5638    4.9470  -17.1692 C   0  0  0  0  0  0  0  0  0  0  0  0
   -5.2688    5.4053  -17.3885 N   0  0  0  0  0  0  0  0  0  0  0  0
   -4.6101    5.5872  -18.6293 C   0  0  0  0  0  0  0  0  0  0  0  0
   -4.9945    6.6524  -19.4427 C   0  0  0  0  0  0  0  0  0  0  0  0
   -4.1830    7.0358  -20.5131 C   0  0  0  0  0  0  0  0  0  0  0  0
   -2.9812    6.3702  -20.7571 C   0  0  0  0  0  0  0  0  0  0  0  0
   -2.6195    5.2772  -19.9696 C   0  0  0  0  0  0  0  0  0  0  0  0
   -3.4524    4.8623  -18.9291 C   0  0  0  0  0  0  0  0  0  0  0  0
   -3.0118    7.6356  -16.7815 C   0  0  0  0  0  0  0  0  0  0  0  0
   -3.5024    6.5511  -15.8305 C   0  0  0  0  0  0  0  0  0  0  0  0
   -2.4022    5.5433  -15.4828 C   0  0  0  0  0  0  0  0  0  0  0  0
   -2.7025    4.7522  -14.2819 N   0  0  0  0  0  0  0  0  0  0  0  0
   -2.7836    5.3734  -13.4770 H   0  0  0  0  0  0  0  0  0  0  0  0
   -1.9510    4.0818  -14.1197 H   0  0  0  0  0  0  0  0  0  0  0  0
 18 17  1  0  0  0
 18 19  1  0  0  0
 19 20  1  0  0  0
 18  1  1  0  0  0
  1  2  2  0  0  0
  2  3  1  0  0  0
  3  4  2  0  0  0
  4  5  1  0  0  0
  5  6  2  0  0  0
  6  7  1  0  0  0
  6  8  1  0  0  0
  8  9  2  0  0  0
  9 10  1  0  0  0
 10 11  1  0  0  0
 11 12  2  0  0  0
 12 13  1  0  0  0
 13 14  2  0  0  0
 14 15  1  0  0  0
 15 16  2  0  0  0
 10  1  1  0  0  0
 16 11  1  0  0  0
  9  3  1  0  0  0
 20 21  1  0  0  0
 20 22  1  0  0  0
M  END
> <minimizedAffinity>
-5.93509

> <minimizedRMSD>
0.50826

$$$$
P38956


 22 24  0  0  0  0  0  0  0  0999 V2000
   -4.6718    5.5358  -16.3743 C   0  0  0  0  0  0  0  0  0  0  0  0
   -5.5873    5.4377  -15.4257 N   0  0  0  0  0  0  0  0  0  0  0  0
   -6.7172    4.9792  -16.0331 C   0  0  0  0  0  0  0  0  0  0  0  0
   -7.9432    4.6274  -15.4477 C   0  0  0  0  0  0  0  0  0  0  0  0
   -8.9609    4.1315  -16.2640 C   0  0  0  0  0  0  0  0  0  0  0  0
   -8.7611    3.9920  -17.6353 C   0  0  0  0  0  0  0  0  0  0  0  0
   -7.5444    4.3493  -18.2319 C   0  0  0  0  0  0  0  0  0  0  0  0
   -6.5332    4.8620  -17.4064 C   0  0  0  0  0  0  0  0  0  0  0  0
   -5.2232    5.2761  -17.6328 N   0  0  0  0  0  0  0  0  0  0  0  0
   -4.6321    5.6534  -18.8694 C   0  0  0  0  0  0  0  0  0  0  0  0
   -5.1484    6.7645  -19.5396 C   0  0  0  0  0  0  0  0  0  0  0  0
   -4.4232    7.3590  -20.5795 C   0  0  0  0  0  0  0  0  0  0  0  0
   -3.1628    6.8761  -20.9274 C   0  0  0  0  0  0  0  0  0  0  0  0
   -2.6520    5.7604  -20.2719 C   0  0  0  0  0  0  0  0  0  0  0  0
   -3.4123    5.1238  -19.2915 C   0  0  0  0  0  0  0  0  0  0  0  0
   -2.9271    3.9902  -18.7697 F   0  0  0  0  0  0  0  0  0  0  0  0
   -2.9603    7.3951  -16.4271 C   0  0  0  0  0  0  0  0  0  0  0  0
   -3.2374    5.9239  -16.1081 C   0  0  0  0  0  0  0  0  0  0  0  0
   -2.8326    5.6864  -14.6336 C   0  0  0  0  0  0  0  0  0  0  0  0
   -3.1872    4.3685  -14.1023 N   0  0  0  0  0  0  0  0  0  0  0  0
   -4.2014    4.2601  -14.1108 H   0  0  0  0  0  0  0  0  0  0  0  0
   -2.8442    4.2841  -13.1454 H   0  0  0  0  0  0  0  0  0  0  0  0
 18 17  1  0  0  0
 18 19  1  0  0  0
 19 20  1  0  0  0
 18  1  1  0  0  0
  1  2  2  0  0  0
  2  3  1  0  0  0
  3  4  2  0  0  0
  4  5  1  0  0  0
  5  6  2  0  0  0
  6  7  1  0  0  0
  7  8  2  0  0  0
  8  9  1  0  0  0
  9 10  1  0  0  0
 10 11  2  0  0  0
 11 12  1  0  0  0
 12 13  2  0  0  0
 13 14  1  0  0  0
 14 15  2  0  0  0
 15 16  1  0  0  0
  9  1  1  0  0  0
 15 10  1  0  0  0
  8  3  1  0  0  0
 20 21  1  0  0  0
 20 22  1  0  0  0
M  END
> <minimizedAffinity>
-6.11806

> <minimizedRMSD>
0.53181

$$$$
P38958


 22 24  0  0  0  0  0  0  0  0999 V2000
   -4.9948    5.3616  -15.9123 C   0  0  0  0  0  0  0  0  0  0  0  0
   -5.3019    5.2480  -17.1903 N   0  0  0  0  0  0  0  0  0  0  0  0
   -6.6055    4.8528  -17.2259 C   0  0  0  0  0  0  0  0  0  0  0  0
   -7.3902    4.5229  -18.3413 C   0  0  0  0  0  0  0  0  0  0  0  0
   -8.7001    4.0883  -18.1418 C   0  0  0  0  0  0  0  0  0  0  0  0
   -9.2098    3.9789  -16.8526 C   0  0  0  0  0  0  0  0  0  0  0  0
   -8.4531    4.3439  -15.7417 C   0  0  0  0  0  0  0  0  0  0  0  0
   -9.0184    4.2656  -14.5313 F   0  0  0  0  0  0  0  0  0  0  0  0
   -7.1431    4.7849  -15.9416 C   0  0  0  0  0  0  0  0  0  0  0  0
   -6.1526    5.3267  -15.1360 N   0  0  0  0  0  0  0  0  0  0  0  0
   -6.3538    5.9082  -13.8566 C   0  0  0  0  0  0  0  0  0  0  0  0
   -6.5154    5.1081  -12.7224 C   0  0  0  0  0  0  0  0  0  0  0  0
   -6.7310    5.7037  -11.4786 C   0  0  0  0  0  0  0  0  0  0  0  0
   -6.7918    7.0926  -11.3666 C   0  0  0  0  0  0  0  0  0  0  0  0
   -6.6366    7.8923  -12.4981 C   0  0  0  0  0  0  0  0  0  0  0  0
   -6.4177    7.3041  -13.7447 C   0  0  0  0  0  0  0  0  0  0  0  0
   -2.8210    6.5823  -16.0109 C   0  0  0  0  0  0  0  0  0  0  0  0
   -3.5526    5.3581  -15.4522 C   0  0  0  0  0  0  0  0  0  0  0  0
   -3.2751    5.2079  -13.9456 C   0  0  0  0  0  0  0  0  0  0  0  0
   -3.1482    3.8347  -13.4646 N   0  0  0  0  0  0  0  0  0  0  0  0
   -4.0309    3.3429  -13.6036 H   0  0  0  0  0  0  0  0  0  0  0  0
   -2.9160    3.8424  -12.4715 H   0  0  0  0  0  0  0  0  0  0  0  0
 18 17  1  0  0  0
 18 19  1  0  0  0
 19 20  1  0  0  0
 18  1  1  0  0  0
  1  2  2  0  0  0
  2  3  1  0  0  0
  3  4  2  0  0  0
  4  5  1  0  0  0
  5  6  2  0  0  0
  6  7  1  0  0  0
  7  8  1  0  0  0
  7  9  2  0  0  0
  9 10  1  0  0  0
 10 11  1  0  0  0
 11 12  2  0  0  0
 12 13  1  0  0  0
 13 14  2  0  0  0
 14 15  1  0  0  0
 15 16  2  0  0  0
 10  1  1  0  0  0
 16 11  1  0  0  0
  9  3  1  0  0  0
 20 21  1  0  0  0
 20 22  1  0  0  0
M  END
> <minimizedAffinity>
-5.47146

> <minimizedRMSD>
1.72341

$$$$
P38959


 22 24  0  0  0  0  0  0  0  0999 V2000
   -5.2005    5.6544  -16.3160 C   0  0  0  0  0  0  0  0  0  0  0  0
   -6.1929    5.3976  -15.4830 N   0  0  0  0  0  0  0  0  0  0  0  0
   -7.1849    4.8476  -16.2336 C   0  0  0  0  0  0  0  0  0  0  0  0
   -8.4478    4.4094  -15.8155 C   0  0  0  0  0  0  0  0  0  0  0  0
   -9.3183    3.8822  -16.7675 C   0  0  0  0  0  0  0  0  0  0  0  0
   -8.9336    3.7782  -18.1020 C   0  0  0  0  0  0  0  0  0  0  0  0
   -7.6686    4.2005  -18.5290 C   0  0  0  0  0  0  0  0  0  0  0  0
   -6.8119    4.7580  -17.5705 C   0  0  0  0  0  0  0  0  0  0  0  0
   -5.5117    5.2447  -17.6097 N   0  0  0  0  0  0  0  0  0  0  0  0
   -4.7158    5.4819  -18.7553 C   0  0  0  0  0  0  0  0  0  0  0  0
   -5.0167    6.5787  -19.5668 C   0  0  0  0  0  0  0  0  0  0  0  0
   -4.1022    6.9925  -20.5363 C   0  0  0  0  0  0  0  0  0  0  0  0
   -2.8938    6.3185  -20.6684 C   0  0  0  0  0  0  0  0  0  0  0  0
   -2.0080    6.7194  -21.5892 F   0  0  0  0  0  0  0  0  0  0  0  0
   -2.5996    5.2061  -19.8858 C   0  0  0  0  0  0  0  0  0  0  0  0
   -3.5313    4.7628  -18.9498 C   0  0  0  0  0  0  0  0  0  0  0  0
   -3.4494    7.5425  -16.6423 C   0  0  0  0  0  0  0  0  0  0  0  0
   -3.9671    6.3663  -15.8214 C   0  0  0  0  0  0  0  0  0  0  0  0
   -2.8504    5.3821  -15.4585 C   0  0  0  0  0  0  0  0  0  0  0  0
   -3.1676    4.5501  -14.2928 N   0  0  0  0  0  0  0  0  0  0  0  0
   -3.2958    5.1457  -13.4748 H   0  0  0  0  0  0  0  0  0  0  0  0
   -2.4021    3.8980  -14.1220 H   0  0  0  0  0  0  0  0  0  0  0  0
 18 17  1  0  0  0
 18 19  1  0  0  0
 19 20  1  0  0  0
 18  1  1  0  0  0
  1  2  2  0  0  0
  2  3  1  0  0  0
  3  4  2  0  0  0
  4  5  1  0  0  0
  5  6  2  0  0  0
  6  7  1  0  0  0
  7  8  2  0  0  0
  8  9  1  0  0  0
  9 10  1  0  0  0
 10 11  2  0  0  0
 11 12  1  0  0  0
 12 13  2  0  0  0
 13 14  1  0  0  0
 13 15  1  0  0  0
 15 16  2  0  0  0
  9  1  1  0  0  0
 16 10  1  0  0  0
  8  3  1  0  0  0
 20 21  1  0  0  0
 20 22  1  0  0  0
M  END
> <minimizedAffinity>
-6.12869

> <minimizedRMSD>
0.67746

$$$$
P38960


 17 18  0  0  0  0  0  0  0  0999 V2000
   -4.9508    5.3903  -17.8879 C   0  0  0  0  0  0  0  0  0  0  0  0
   -5.9484    5.0383  -18.6688 N   0  0  0  0  0  0  0  0  0  0  0  0
   -6.9824    4.7104  -17.8305 C   0  0  0  0  0  0  0  0  0  0  0  0
   -8.2694    4.2451  -18.1306 C   0  0  0  0  0  0  0  0  0  0  0  0
   -9.1539    3.9918  -17.0784 C   0  0  0  0  0  0  0  0  0  0  0  0
   -8.7544    4.1806  -15.7540 C   0  0  0  0  0  0  0  0  0  0  0  0
   -7.4763    4.6416  -15.4412 C   0  0  0  0  0  0  0  0  0  0  0  0
   -7.0030    4.8976  -13.8139 Cl  0  0  0  0  0  0  0  0  0  0  0  0
   -6.6190    4.9022  -16.5036 C   0  0  0  0  0  0  0  0  0  0  0  0
   -5.3295    5.3488  -16.5687 N   0  0  0  0  0  0  0  0  0  0  0  0
   -4.7672    5.5986  -15.8002 H   0  0  0  0  0  0  0  0  0  0  0  0
   -3.3270    5.5368  -19.7817 C   0  0  0  0  0  0  0  0  0  0  0  0
   -3.5767    5.8179  -18.2969 C   0  0  0  0  0  0  0  0  0  0  0  0
   -2.4784    5.1472  -17.4595 C   0  0  0  0  0  0  0  0  0  0  0  0
   -2.4152    5.6022  -16.0601 N   0  0  0  0  0  0  0  0  0  0  0  0
   -2.1939    6.5977  -16.0359 H   0  0  0  0  0  0  0  0  0  0  0  0
   -1.6914    5.0809  -15.5654 H   0  0  0  0  0  0  0  0  0  0  0  0
 13 12  1  0  0  0
 13 14  1  0  0  0
 14 15  1  0  0  0
 13  1  1  0  0  0
  1  2  2  0  0  0
  2  3  1  0  0  0
  3  4  2  0  0  0
  4  5  1  0  0  0
  5  6  2  0  0  0
  6  7  1  0  0  0
  7  8  1  0  0  0
  7  9  2  0  0  0
  9 10  1  0  0  0
 10  1  1  0  0  0
  9  3  1  0  0  0
 15 16  1  0  0  0
 15 17  1  0  0  0
 10 11  1  0  0  0
M  END
> <minimizedAffinity>
-5.31105

> <minimizedRMSD>
0.70351

$$$$
P38961


 17 18  0  0  0  0  0  0  0  0999 V2000
   -5.0670    5.6106  -16.6994 C   0  0  0  0  0  0  0  0  0  0  0  0
   -5.5541    5.1212  -17.8212 N   0  0  0  0  0  0  0  0  0  0  0  0
   -6.8432    4.7545  -17.5547 C   0  0  0  0  0  0  0  0  0  0  0  0
   -7.7869    4.1588  -18.4018 C   0  0  0  0  0  0  0  0  0  0  0  0
   -9.0373    3.8221  -17.8835 C   0  0  0  0  0  0  0  0  0  0  0  0
   -9.3247    4.0460  -16.5387 C   0  0  0  0  0  0  0  0  0  0  0  0
   -8.4023    4.6574  -15.6863 C   0  0  0  0  0  0  0  0  0  0  0  0
   -8.8070    4.8802  -14.0326 Cl  0  0  0  0  0  0  0  0  0  0  0  0
   -7.1738    5.0421  -16.2330 C   0  0  0  0  0  0  0  0  0  0  0  0
   -6.0815    5.7433  -15.7715 N   0  0  0  0  0  0  0  0  0  0  0  0
   -6.0653    6.5735  -14.5905 C   0  0  0  0  0  0  0  0  0  0  0  0
   -2.7158    5.1864  -17.4482 C   0  0  0  0  0  0  0  0  0  0  0  0
   -3.6197    5.9922  -16.5032 C   0  0  0  0  0  0  0  0  0  0  0  0
   -3.1145    5.8651  -15.0457 C   0  0  0  0  0  0  0  0  0  0  0  0
   -3.0978    4.5197  -14.4811 N   0  0  0  0  0  0  0  0  0  0  0  0
   -4.0512    4.1611  -14.4287 H   0  0  0  0  0  0  0  0  0  0  0  0
   -2.6935    4.5488  -13.5451 H   0  0  0  0  0  0  0  0  0  0  0  0
 13 12  1  0  0  0
 13 14  1  0  0  0
 14 15  1  0  0  0
 13  1  1  0  0  0
  1  2  2  0  0  0
  2  3  1  0  0  0
  3  4  2  0  0  0
  4  5  1  0  0  0
  5  6  2  0  0  0
  6  7  1  0  0  0
  7  8  1  0  0  0
  7  9  2  0  0  0
  9 10  1  0  0  0
 10 11  1  0  0  0
 10  1  1  0  0  0
  9  3  1  0  0  0
 15 16  1  0  0  0
 15 17  1  0  0  0
M  END
> <minimizedAffinity>
-5.07970

> <minimizedRMSD>
0.67490

$$$$
P38963


 18 19  0  0  0  0  0  0  0  0999 V2000
   -4.6382    5.3140  -17.9790 C   0  0  0  0  0  0  0  0  0  0  0  0
   -5.6162    4.9927  -18.7944 N   0  0  0  0  0  0  0  0  0  0  0  0
   -6.6983    4.7522  -17.9924 C   0  0  0  0  0  0  0  0  0  0  0  0
   -8.0019    4.4143  -18.3484 C   0  0  0  0  0  0  0  0  0  0  0  0
   -8.9439    4.3287  -17.3268 C   0  0  0  0  0  0  0  0  0  0  0  0
  -10.5925    4.2394  -17.7587 Cl  0  0  0  0  0  0  0  0  0  0  0  0
   -8.6007    4.4609  -15.9828 C   0  0  0  0  0  0  0  0  0  0  0  0
   -7.2957    4.7703  -15.6220 C   0  0  0  0  0  0  0  0  0  0  0  0
   -6.8726    5.0209  -13.9818 Cl  0  0  0  0  0  0  0  0  0  0  0  0
   -6.3786    4.9382  -16.6532 C   0  0  0  0  0  0  0  0  0  0  0  0
   -5.0623    5.2970  -16.6735 N   0  0  0  0  0  0  0  0  0  0  0  0
   -4.5105    5.5078  -15.8859 H   0  0  0  0  0  0  0  0  0  0  0  0
   -2.5595    4.5799  -19.1499 C   0  0  0  0  0  0  0  0  0  0  0  0
   -3.2389    5.6877  -18.3397 C   0  0  0  0  0  0  0  0  0  0  0  0
   -2.3954    6.0076  -17.1009 C   0  0  0  0  0  0  0  0  0  0  0  0
   -2.6891    7.3160  -16.4881 N   0  0  0  0  0  0  0  0  0  0  0  0
   -2.4759    8.0588  -17.1538 H   0  0  0  0  0  0  0  0  0  0  0  0
   -2.1184    7.4352  -15.6512 H   0  0  0  0  0  0  0  0  0  0  0  0
 14 13  1  0  0  0
 14 15  1  0  0  0
 15 16  1  0  0  0
 14  1  1  0  0  0
  1  2  2  0  0  0
  2  3  1  0  0  0
  3  4  2  0  0  0
  4  5  1  0  0  0
  5  6  1  0  0  0
  5  7  2  0  0  0
  7  8  1  0  0  0
  8  9  1  0  0  0
  8 10  2  0  0  0
 10 11  1  0  0  0
 11  1  1  0  0  0
 10  3  1  0  0  0
 16 17  1  0  0  0
 16 18  1  0  0  0
 11 12  1  0  0  0
M  END
> <minimizedAffinity>
-5.38307

> <minimizedRMSD>
1.06288

$$$$
P38964


 18 19  0  0  0  0  0  0  0  0999 V2000
   -4.7399    5.4754  -16.4382 C   0  0  0  0  0  0  0  0  0  0  0  0
   -5.6260    5.4019  -15.4601 N   0  0  0  0  0  0  0  0  0  0  0  0
   -6.7843    4.9394  -16.0206 C   0  0  0  0  0  0  0  0  0  0  0  0
   -7.9799    4.5612  -15.3991 C   0  0  0  0  0  0  0  0  0  0  0  0
   -9.0205    4.0801  -16.1967 C   0  0  0  0  0  0  0  0  0  0  0  0
   -8.8859    4.0006  -17.5826 C   0  0  0  0  0  0  0  0  0  0  0  0
   -7.6992    4.3786  -18.2169 C   0  0  0  0  0  0  0  0  0  0  0  0
   -6.6592    4.8380  -17.3993 C   0  0  0  0  0  0  0  0  0  0  0  0
   -5.3692    5.2540  -17.6500 N   0  0  0  0  0  0  0  0  0  0  0  0
   -2.6523    6.9113  -16.7683 C   0  0  0  0  0  0  0  0  0  0  0  0
   -3.2442    5.6132  -16.2192 C   0  0  0  0  0  0  0  0  0  0  0  0
   -2.8733    5.5297  -14.7128 C   0  0  0  0  0  0  0  0  0  0  0  0
   -3.2846    4.2979  -14.0341 N   0  0  0  0  0  0  0  0  0  0  0  0
   -4.3021    4.2271  -14.0451 H   0  0  0  0  0  0  0  0  0  0  0  0
   -2.9554    4.3154  -13.0689 H   0  0  0  0  0  0  0  0  0  0  0  0
   -4.7858    5.3673  -18.9726 C   0  0  0  0  0  0  0  0  0  0  0  0
   -5.1135    6.6571  -19.5919 C   0  0  0  0  0  0  0  0  0  0  0  0
   -5.4555    7.6676  -20.0561 N   0  0  0  0  0  0  0  0  0  0  0  0
 11 10  1  0  0  0
 11 12  1  0  0  0
 12 13  1  0  0  0
 11  1  1  0  0  0
  1  2  2  0  0  0
  2  3  1  0  0  0
  3  4  2  0  0  0
  4  5  1  0  0  0
  5  6  2  0  0  0
  6  7  1  0  0  0
  7  8  2  0  0  0
  8  9  1  0  0  0
  9 16  1  0  0  0
 16 17  1  0  0  0
 17 18  3  0  0  0
  9  1  1  0  0  0
  8  3  1  0  0  0
 13 14  1  0  0  0
 13 15  1  0  0  0
M  END
> <minimizedAffinity>
-4.96194

> <minimizedRMSD>
0.80630

$$$$
P38965


 22 23  0  0  0  0  0  0  0  0999 V2000
   -4.8297    5.4852  -16.5916 C   0  0  0  0  0  0  0  0  0  0  0  0
   -5.3559    5.1813  -17.7601 N   0  0  0  0  0  0  0  0  0  0  0  0
   -6.6464    4.8222  -17.5189 C   0  0  0  0  0  0  0  0  0  0  0  0
   -7.5831    4.3021  -18.4216 C   0  0  0  0  0  0  0  0  0  0  0  0
   -8.8345    3.9234  -17.9495 C   0  0  0  0  0  0  0  0  0  0  0  0
   -9.1285    4.0371  -16.5941 C   0  0  0  0  0  0  0  0  0  0  0  0
   -8.2139    4.5744  -15.6689 C   0  0  0  0  0  0  0  0  0  0  0  0
   -6.9692    4.9998  -16.1729 C   0  0  0  0  0  0  0  0  0  0  0  0
   -5.8495    5.6393  -15.6598 N   0  0  0  0  0  0  0  0  0  0  0  0
   -8.5434    4.5788  -14.2295 C   0  0  0  0  0  0  0  0  0  0  0  0
   -7.9976    3.9170  -13.3662 O   0  0  0  0  0  0  0  0  0  0  0  0
   -9.5304    5.4440  -13.9347 O   0  0  0  0  0  0  0  0  0  0  0  0
   -9.9356    5.9426  -14.6168 H   0  0  0  0  0  0  0  0  0  0  0  0
   -2.7683    6.7244  -17.2430 C   0  0  0  0  0  0  0  0  0  0  0  0
   -3.3263    5.5551  -16.4245 C   0  0  0  0  0  0  0  0  0  0  0  0
   -2.7502    5.5883  -15.0001 C   0  0  0  0  0  0  0  0  0  0  0  0
   -2.9433    4.3731  -14.2258 N   0  0  0  0  0  0  0  0  0  0  0  0
   -3.9412    4.2118  -14.0895 H   0  0  0  0  0  0  0  0  0  0  0  0
   -2.4879    4.4721  -13.3185 H   0  0  0  0  0  0  0  0  0  0  0  0
   -5.7677    6.3935  -14.4140 C   0  0  0  0  0  0  0  0  0  0  0  0
   -5.6093    7.8473  -14.5477 C   0  0  0  0  0  0  0  0  0  0  0  0
   -5.4506    8.9977  -14.5927 N   0  0  0  0  0  0  0  0  0  0  0  0
 15 14  1  0  0  0
 15 16  1  0  0  0
 16 17  1  0  0  0
 15  1  1  0  0  0
  1  2  2  0  0  0
  2  3  1  0  0  0
  3  4  2  0  0  0
  4  5  1  0  0  0
  5  6  2  0  0  0
  6  7  1  0  0  0
  7 10  1  0  0  0
 10 11  2  0  0  0
 10 12  1  0  0  0
  7  8  2  0  0  0
  8  9  1  0  0  0
  9 20  1  0  0  0
 20 21  1  0  0  0
 21 22  3  0  0  0
  9  1  1  0  0  0
  8  3  1  0  0  0
 17 18  1  0  0  0
 17 19  1  0  0  0
 12 13  1  0  0  0
M  END
> <minimizedAffinity>
-5.52204

> <minimizedRMSD>
0.89219

$$$$
P38966


 19 20  0  0  0  0  0  0  0  0999 V2000
   -4.9283    5.3145  -17.5666 C   0  0  0  0  0  0  0  0  0  0  0  0
   -5.8055    5.0473  -18.5196 N   0  0  0  0  0  0  0  0  0  0  0  0
   -6.9672    4.6997  -17.9001 C   0  0  0  0  0  0  0  0  0  0  0  0
   -8.1683    4.2242  -18.4441 C   0  0  0  0  0  0  0  0  0  0  0  0
   -9.2070    3.8771  -17.5755 C   0  0  0  0  0  0  0  0  0  0  0  0
   -9.0392    3.9884  -16.1958 C   0  0  0  0  0  0  0  0  0  0  0  0
   -7.8572    4.4820  -15.6546 C   0  0  0  0  0  0  0  0  0  0  0  0
   -7.7156    4.5908  -14.3273 F   0  0  0  0  0  0  0  0  0  0  0  0
   -6.8390    4.8497  -16.5287 C   0  0  0  0  0  0  0  0  0  0  0  0
   -5.5866    5.4037  -16.3508 N   0  0  0  0  0  0  0  0  0  0  0  0
   -3.2025    4.7357  -19.2732 C   0  0  0  0  0  0  0  0  0  0  0  0
   -3.4543    5.3659  -17.8989 C   0  0  0  0  0  0  0  0  0  0  0  0
   -2.7098    6.7033  -17.7992 C   0  0  0  0  0  0  0  0  0  0  0  0
   -1.9287    6.8777  -16.5733 N   0  0  0  0  0  0  0  0  0  0  0  0
   -2.5539    6.8674  -15.7674 H   0  0  0  0  0  0  0  0  0  0  0  0
   -1.4345    7.7693  -16.6089 H   0  0  0  0  0  0  0  0  0  0  0  0
   -5.1260    5.9293  -15.0753 C   0  0  0  0  0  0  0  0  0  0  0  0
   -5.2637    7.3880  -14.9420 C   0  0  0  0  0  0  0  0  0  0  0  0
   -5.3127    8.5422  -14.8121 N   0  0  0  0  0  0  0  0  0  0  0  0
 12 11  1  0  0  0
 12 13  1  0  0  0
 13 14  1  0  0  0
 12  1  1  0  0  0
  1  2  2  0  0  0
  2  3  1  0  0  0
  3  4  2  0  0  0
  4  5  1  0  0  0
  5  6  2  0  0  0
  6  7  1  0  0  0
  7  8  1  0  0  0
  7  9  2  0  0  0
  9 10  1  0  0  0
 10 17  1  0  0  0
 17 18  1  0  0  0
 18 19  3  0  0  0
 10  1  1  0  0  0
  9  3  1  0  0  0
 14 15  1  0  0  0
 14 16  1  0  0  0
M  END
> <minimizedAffinity>
-5.12189

> <minimizedRMSD>
1.15282

$$$$
P38967


 19 20  0  0  0  0  0  0  0  0999 V2000
   -4.1887    5.6474  -16.8224 C   0  0  0  0  0  0  0  0  0  0  0  0
   -4.6997    5.5516  -15.6082 N   0  0  0  0  0  0  0  0  0  0  0  0
   -5.9921    5.1474  -15.7509 C   0  0  0  0  0  0  0  0  0  0  0  0
   -6.9441    4.9125  -14.7587 C   0  0  0  0  0  0  0  0  0  0  0  0
   -8.2230    4.5619  -15.1651 C   0  0  0  0  0  0  0  0  0  0  0  0
   -9.1686    4.4373  -14.2255 F   0  0  0  0  0  0  0  0  0  0  0  0
   -8.5523    4.4005  -16.5091 C   0  0  0  0  0  0  0  0  0  0  0  0
   -7.5993    4.6122  -17.5127 C   0  0  0  0  0  0  0  0  0  0  0  0
   -6.3213    5.0081  -17.0930 C   0  0  0  0  0  0  0  0  0  0  0  0
   -5.1650    5.3637  -17.7605 N   0  0  0  0  0  0  0  0  0  0  0  0
   -1.8576    5.0423  -17.7366 C   0  0  0  0  0  0  0  0  0  0  0  0
   -2.7560    6.0819  -17.0740 C   0  0  0  0  0  0  0  0  0  0  0  0
   -2.0958    6.5707  -15.7502 C   0  0  0  0  0  0  0  0  0  0  0  0
   -1.8683    5.5344  -14.7347 N   0  0  0  0  0  0  0  0  0  0  0  0
   -2.7642    5.1502  -14.4344 H   0  0  0  0  0  0  0  0  0  0  0  0
   -1.3879    5.9434  -13.9332 H   0  0  0  0  0  0  0  0  0  0  0  0
   -5.0503    5.4653  -19.2025 C   0  0  0  0  0  0  0  0  0  0  0  0
   -5.3032    6.8328  -19.6658 C   0  0  0  0  0  0  0  0  0  0  0  0
   -5.5475    7.9246  -19.9838 N   0  0  0  0  0  0  0  0  0  0  0  0
 12 11  1  0  0  0
 12 13  1  0  0  0
 13 14  1  0  0  0
 12  1  1  0  0  0
  1  2  2  0  0  0
  2  3  1  0  0  0
  3  4  2  0  0  0
  4  5  1  0  0  0
  5  6  1  0  0  0
  5  7  2  0  0  0
  7  8  1  0  0  0
  8  9  2  0  0  0
  9 10  1  0  0  0
 10 17  1  0  0  0
 17 18  1  0  0  0
 18 19  3  0  0  0
 10  1  1  0  0  0
  9  3  1  0  0  0
 14 15  1  0  0  0
 14 16  1  0  0  0
M  END
> <minimizedAffinity>
-4.83286

> <minimizedRMSD>
0.72045

$$$$
P38968


 19 20  0  0  0  0  0  0  0  0999 V2000
   -4.7476    5.3762  -16.8944 C   0  0  0  0  0  0  0  0  0  0  0  0
   -4.1895    5.2374  -15.7067 N   0  0  0  0  0  0  0  0  0  0  0  0
   -5.2090    5.0144  -14.8325 C   0  0  0  0  0  0  0  0  0  0  0  0
   -5.1543    4.6570  -13.4821 C   0  0  0  0  0  0  0  0  0  0  0  0
   -6.3596    4.4626  -12.8075 C   0  0  0  0  0  0  0  0  0  0  0  0
   -7.5750    4.6662  -13.4499 C   0  0  0  0  0  0  0  0  0  0  0  0
   -8.7243    4.5226  -12.7858 F   0  0  0  0  0  0  0  0  0  0  0  0
   -7.6481    5.0428  -14.7779 C   0  0  0  0  0  0  0  0  0  0  0  0
   -6.4367    5.1762  -15.4588 C   0  0  0  0  0  0  0  0  0  0  0  0
   -6.1197    5.4126  -16.7770 N   0  0  0  0  0  0  0  0  0  0  0  0
   -3.7662    6.7913  -18.7252 C   0  0  0  0  0  0  0  0  0  0  0  0
   -3.9690    5.3755  -18.1851 C   0  0  0  0  0  0  0  0  0  0  0  0
   -2.6207    4.6597  -17.9145 C   0  0  0  0  0  0  0  0  0  0  0  0
   -1.7884    4.4591  -19.0903 N   0  0  0  0  0  0  0  0  0  0  0  0
   -2.2737    3.8519  -19.7507 H   0  0  0  0  0  0  0  0  0  0  0  0
   -0.9077    4.0254  -18.8135 H   0  0  0  0  0  0  0  0  0  0  0  0
   -7.0863    5.5962  -17.8435 C   0  0  0  0  0  0  0  0  0  0  0  0
   -8.0433    4.4995  -17.9217 C   0  0  0  0  0  0  0  0  0  0  0  0
   -8.8061    3.6284  -17.9983 N   0  0  0  0  0  0  0  0  0  0  0  0
 12 11  1  0  0  0
 12 13  1  0  0  0
 13 14  1  0  0  0
 12  1  1  0  0  0
  1  2  2  0  0  0
  2  3  1  0  0  0
  3  4  2  0  0  0
  4  5  1  0  0  0
  5  6  2  0  0  0
  6  7  1  0  0  0
  6  8  1  0  0  0
  8  9  2  0  0  0
  9 10  1  0  0  0
 10 17  1  0  0  0
 17 18  1  0  0  0
 18 19  3  0  0  0
 10  1  1  0  0  0
  9  3  1  0  0  0
 14 15  1  0  0  0
 14 16  1  0  0  0
M  END
> <minimizedAffinity>
-4.54592

> <minimizedRMSD>
2.60386

$$$$
P38970


 20 21  0  0  0  0  0  0  0  0999 V2000
   -7.1943    5.2829  -12.7962 C   0  0  0  0  0  0  0  0  0  0  0  0
   -8.1373    4.4683  -13.4193 C   0  0  0  0  0  0  0  0  0  0  0  0
   -8.1682    4.3138  -14.8113 C   0  0  0  0  0  0  0  0  0  0  0  0
   -7.2076    5.0141  -15.5549 C   0  0  0  0  0  0  0  0  0  0  0  0
   -6.3015    5.8612  -14.9373 C   0  0  0  0  0  0  0  0  0  0  0  0
   -6.2896    6.0157  -13.5542 C   0  0  0  0  0  0  0  0  0  0  0  0
   -5.5069    6.4818  -15.8421 N   0  0  0  0  0  0  0  0  0  0  0  0
   -5.8243    5.9886  -17.0229 C   0  0  0  0  0  0  0  0  0  0  0  0
   -6.8785    5.0966  -16.8973 N   0  0  0  0  0  0  0  0  0  0  0  0
   -5.9243    5.6159  -10.8662 C   0  0  0  0  0  0  0  0  0  0  0  0
   -7.2211    5.3729  -11.4304 O   0  0  0  0  0  0  0  0  0  0  0  0
   -5.0039    6.3980  -18.2224 C   0  0  0  0  0  0  0  0  0  0  0  0
   -5.7308    6.9575  -19.4350 C   0  0  0  0  0  0  0  0  0  0  0  0
   -4.0455    5.2636  -18.6376 C   0  0  0  0  0  0  0  0  0  0  0  0
   -2.9991    4.9535  -17.6530 N   0  0  0  0  0  0  0  0  0  0  0  0
   -2.3984    5.7682  -17.5272 H   0  0  0  0  0  0  0  0  0  0  0  0
   -2.4407    4.1676  -17.9863 H   0  0  0  0  0  0  0  0  0  0  0  0
   -7.5615    4.4118  -17.9796 C   0  0  0  0  0  0  0  0  0  0  0  0
   -9.0129    4.4185  -17.8998 C   0  0  0  0  0  0  0  0  0  0  0  0
  -10.1637    4.4034  -17.7637 N   0  0  0  0  0  0  0  0  0  0  0  0
 10 11  1  0  0  0
 11  1  1  0  0  0
  1  2  2  0  0  0
  2  3  1  0  0  0
  3  4  2  0  0  0
  4  5  1  0  0  0
  5  6  2  0  0  0
  5  7  1  0  0  0
  7  8  2  0  0  0
  8 12  1  0  0  0
 12 13  1  0  0  0
 12 14  1  0  0  0
 14 15  1  0  0  0
  8  9  1  0  0  0
  9 18  1  0  0  0
 18 19  1  0  0  0
 19 20  3  0  0  0
  6  1  1  0  0  0
  9  4  1  0  0  0
 15 16  1  0  0  0
 15 17  1  0  0  0
M  END
> <minimizedAffinity>
-4.54521

> <minimizedRMSD>
2.40322

$$$$
P39490


 14 14  0  0  0  0  0  0  0  0999 V2000
   -7.9344    4.3669  -16.1731 C   0  0  0  0  0  0  0  0  0  0  0  0
   -9.2163    5.1396  -16.4389 C   0  0  0  0  0  0  0  0  0  0  0  0
   -9.7181    4.8989  -17.8350 C   0  0  0  0  0  0  0  0  0  0  0  0
  -10.8787    5.1595  -18.1493 O   0  0  0  0  0  0  0  0  0  0  0  0
   -8.7615    4.2874  -18.8150 C   0  0  0  0  0  0  0  0  0  0  0  0
   -7.3558    4.7929  -18.5399 C   0  0  0  0  0  0  0  0  0  0  0  0
   -6.8710    4.6603  -17.1548 N   0  0  0  0  0  0  0  0  0  0  0  0
   -6.4199    5.5351  -16.8875 H   0  0  0  0  0  0  0  0  0  0  0  0
   -7.4686    4.6366  -14.7261 C   0  0  0  0  0  0  0  0  0  0  0  0
   -4.5787    2.3887  -13.4743 C   0  0  0  0  0  0  0  0  0  0  0  0
   -6.0651    2.5357  -13.7155 C   0  0  0  0  0  0  0  0  0  0  0  0
   -6.8461    1.7128  -13.4414 O   0  0  0  0  0  0  0  0  0  0  0  0
   -6.2610    3.9312  -14.3668 N   0  0  0  0  0  0  0  0  0  0  0  0
   -5.4265    4.4135  -14.5673 H   0  0  0  0  0  0  0  0  0  0  0  0
 10 11  1  0  0  0
 11 12  2  0  0  0
 11 13  1  0  0  0
 13  9  1  0  0  0
  1  9  1  0  0  0
  1  2  1  0  0  0
  2  3  1  0  0  0
  3  4  2  0  0  0
  3  5  1  0  0  0
  5  6  1  0  0  0
  6  7  1  0  0  0
  7  1  1  0  0  0
 13 14  1  0  0  0
  7  8  1  0  0  0
M  END
> <minimizedAffinity>
-5.40947

> <minimizedRMSD>
0.36878

$$$$
P39509


 14 15  0  0  0  0  0  0  0  0999 V2000
   -8.2306    4.6680  -11.6567 C   0  0  0  0  0  0  0  0  0  0  0  0
   -8.3804    3.1525  -11.4951 C   0  0  0  0  0  0  0  0  0  0  0  0
   -7.6117    2.3635  -12.4636 N   0  0  0  0  0  0  0  0  0  0  0  0
   -6.4592    3.0917  -12.9727 C   0  0  0  0  0  0  0  0  0  0  0  0
   -6.8738    4.3382  -13.7837 C   0  0  0  0  0  0  0  0  0  0  0  0
   -8.0906    5.0358  -13.1263 C   0  0  0  0  0  0  0  0  0  0  0  0
   -8.2193    2.1211  -13.2462 H   0  0  0  0  0  0  0  0  0  0  0  0
   -7.1512    4.1305  -15.3103 C   0  0  0  0  0  0  0  0  0  0  0  0
   -8.5579    4.6761  -15.6383 C   0  0  0  0  0  0  0  0  0  0  0  0
   -8.8641    4.7699  -17.1260 C   0  0  0  0  0  0  0  0  0  0  0  0
   -7.7098    5.3357  -17.9408 C   0  0  0  0  0  0  0  0  0  0  0  0
   -6.4435    4.6663  -17.6414 N   0  0  0  0  0  0  0  0  0  0  0  0
   -6.1056    4.7816  -16.2266 C   0  0  0  0  0  0  0  0  0  0  0  0
   -5.7021    5.0939  -18.1962 H   0  0  0  0  0  0  0  0  0  0  0  0
  1  2  1  0  0  0
  2  3  1  0  0  0
  3  4  1  0  0  0
  5  4  1  0  0  0
  5  8  1  0  0  0
  8  9  1  0  0  0
  9 10  1  0  0  0
 10 11  1  0  0  0
 11 12  1  0  0  0
 12 13  1  0  0  0
  5  6  1  0  0  0
  6  1  1  0  0  0
 13  8  1  0  0  0
  3  7  1  0  0  0
 12 14  1  0  0  0
M  END
> <minimizedAffinity>
-4.72544

> <minimizedRMSD>
1.84889

$$$$
P39643


 17 19  0  0  0  0  0  0  0  0999 V2000
   -9.4523    3.9912  -17.6041 C   0  0  0  0  0  0  0  0  0  0  0  0
   -9.0170    4.3122  -16.3194 C   0  0  0  0  0  0  0  0  0  0  0  0
   -7.7339    4.8466  -16.0318 C   0  0  0  0  0  0  0  0  0  0  0  0
   -6.8527    4.9219  -17.1373 C   0  0  0  0  0  0  0  0  0  0  0  0
   -5.5393    5.3409  -17.2208 N   0  0  0  0  0  0  0  0  0  0  0  0
   -5.2156    5.2500  -18.4924 C   0  0  0  0  0  0  0  0  0  0  0  0
   -6.2600    4.8190  -19.2546 N   0  0  0  0  0  0  0  0  0  0  0  0
   -7.3145    4.5812  -18.4111 C   0  0  0  0  0  0  0  0  0  0  0  0
   -8.6038    4.1353  -18.6883 C   0  0  0  0  0  0  0  0  0  0  0  0
   -6.2577    4.7002  -20.2319 H   0  0  0  0  0  0  0  0  0  0  0  0
   -7.5253    5.3545  -14.6003 C   0  0  0  0  0  0  0  0  0  0  0  0
   -7.6334    4.2272  -13.5509 C   0  0  0  0  0  0  0  0  0  0  0  0
   -7.1626    4.7243  -12.1900 C   0  0  0  0  0  0  0  0  0  0  0  0
   -5.6967    5.1552  -12.2437 C   0  0  0  0  0  0  0  0  0  0  0  0
   -5.2420    5.6352  -13.5538 N   0  0  0  0  0  0  0  0  0  0  0  0
   -6.3212    6.2856  -14.3076 C   0  0  0  0  0  0  0  0  0  0  0  0
   -4.8959    4.8416  -14.0931 H   0  0  0  0  0  0  0  0  0  0  0  0
  1  2  2  0  0  0
  2  3  1  0  0  0
 11  3  1  0  0  0
 11 12  1  0  0  0
 12 13  1  0  0  0
 13 14  1  0  0  0
 14 15  1  0  0  0
 15 16  1  0  0  0
  3  4  2  0  0  0
  4  5  1  0  0  0
  5  6  2  0  0  0
  6  7  1  0  0  0
  7  8  1  0  0  0
  8  9  2  0  0  0
  9  1  1  0  0  0
 16 11  1  0  0  0
  8  4  1  0  0  0
 15 17  1  0  0  0
  7 10  1  0  0  0
M  END
> <minimizedAffinity>
-5.72013

> <minimizedRMSD>
0.14617

$$$$
P39845


 16 17  0  0  0  0  0  0  0  0999 V2000
   -5.7887    4.9673  -14.6769 C   0  0  0  0  0  0  0  0  0  0  0  0
   -6.7960    4.8044  -13.8046 N   0  0  0  0  0  0  0  0  0  0  0  0
   -8.0034    4.5705  -14.3226 C   0  0  0  0  0  0  0  0  0  0  0  0
   -8.3009    4.5028  -15.6191 N   0  0  0  0  0  0  0  0  0  0  0  0
   -7.2927    4.6464  -16.4984 C   0  0  0  0  0  0  0  0  0  0  0  0
   -7.5076    4.5496  -17.8768 C   0  0  0  0  0  0  0  0  0  0  0  0
   -9.2377    4.2488  -18.5734 Br  0  0  0  0  0  0  0  0  0  0  0  0
   -6.4828    4.6965  -18.8099 C   0  0  0  0  0  0  0  0  0  0  0  0
   -5.2016    4.9962  -18.3842 C   0  0  0  0  0  0  0  0  0  0  0  0
   -4.9507    5.1039  -17.0236 C   0  0  0  0  0  0  0  0  0  0  0  0
   -5.9832    4.9075  -16.0705 C   0  0  0  0  0  0  0  0  0  0  0  0
   -4.4838    5.2062  -14.1799 N   0  0  0  0  0  0  0  0  0  0  0  0
   -3.9486    5.9758  -14.4808 H   0  0  0  0  0  0  0  0  0  0  0  0
   -3.5557    2.9721  -13.9327 C   0  0  0  0  0  0  0  0  0  0  0  0
   -3.9697    4.2481  -13.1933 C   0  0  0  0  0  0  0  0  0  0  0  0
   -2.7538    4.8318  -12.4718 C   0  0  0  0  0  0  0  0  0  0  0  0
 14 15  1  0  0  0
 15 16  1  0  0  0
 15 12  1  0  0  0
 12  1  1  0  0  0
  1  2  2  0  0  0
  2  3  1  0  0  0
  3  4  2  0  0  0
  4  5  1  0  0  0
  5  6  2  0  0  0
  6  7  1  0  0  0
  6  8  1  0  0  0
  8  9  2  0  0  0
  9 10  1  0  0  0
 10 11  2  0  0  0
 11  1  1  0  0  0
 11  5  1  0  0  0
 12 13  1  0  0  0
M  END
> <minimizedAffinity>
-5.22482

> <minimizedRMSD>
1.63218

$$$$
P39846


 17 18  0  0  0  0  0  0  0  0999 V2000
   -5.3091    5.1158  -14.8701 C   0  0  0  0  0  0  0  0  0  0  0  0
   -6.1194    4.9636  -13.8184 N   0  0  0  0  0  0  0  0  0  0  0  0
   -7.3841    4.6441  -14.0907 C   0  0  0  0  0  0  0  0  0  0  0  0
   -8.4171    4.4460  -12.7481 Cl  0  0  0  0  0  0  0  0  0  0  0  0
   -7.9371    4.4948  -15.2889 N   0  0  0  0  0  0  0  0  0  0  0  0
   -7.1259    4.6365  -16.3474 C   0  0  0  0  0  0  0  0  0  0  0  0
   -7.5997    4.4522  -17.6489 C   0  0  0  0  0  0  0  0  0  0  0  0
   -9.4113    4.0305  -17.9750 Br  0  0  0  0  0  0  0  0  0  0  0  0
   -6.7858    4.5933  -18.7701 C   0  0  0  0  0  0  0  0  0  0  0  0
   -5.4668    4.9802  -18.6197 C   0  0  0  0  0  0  0  0  0  0  0  0
   -4.9617    5.1765  -17.3420 C   0  0  0  0  0  0  0  0  0  0  0  0
   -5.7731    4.9809  -16.1951 C   0  0  0  0  0  0  0  0  0  0  0  0
   -3.9562    5.4388  -14.6534 N   0  0  0  0  0  0  0  0  0  0  0  0
   -3.6102    6.3054  -14.9672 H   0  0  0  0  0  0  0  0  0  0  0  0
   -3.4666    3.0461  -14.1237 C   0  0  0  0  0  0  0  0  0  0  0  0
   -3.0504    4.5064  -13.9672 C   0  0  0  0  0  0  0  0  0  0  0  0
   -2.7781    4.9024  -12.5189 C   0  0  0  0  0  0  0  0  0  0  0  0
 15 16  1  0  0  0
 16 17  1  0  0  0
 16 13  1  0  0  0
 13  1  1  0  0  0
  1  2  2  0  0  0
  2  3  1  0  0  0
  3  4  1  0  0  0
  3  5  2  0  0  0
  5  6  1  0  0  0
  6  7  2  0  0  0
  7  8  1  0  0  0
  7  9  1  0  0  0
  9 10  2  0  0  0
 10 11  1  0  0  0
 11 12  2  0  0  0
 12  1  1  0  0  0
 12  6  1  0  0  0
 13 14  1  0  0  0
M  END
> <minimizedAffinity>
-5.35284

> <minimizedRMSD>
1.06739

$$$$
P39849


 22 24  0  0  0  0  0  0  0  0999 V2000
   -3.4414    4.4582  -13.8745 C   0  0  0  0  0  0  0  0  0  0  0  0
   -2.6735    5.7813  -13.7035 C   0  0  0  0  0  0  0  0  0  0  0  0
   -3.2940    6.9582  -14.4609 C   0  0  0  0  0  0  0  0  0  0  0  0
   -4.7814    6.7612  -14.7292 C   0  0  0  0  0  0  0  0  0  0  0  0
   -4.9979    5.5563  -15.5539 N   0  0  0  0  0  0  0  0  0  0  0  0
   -4.0961    4.4136  -15.2803 C   0  0  0  0  0  0  0  0  0  0  0  0
   -6.3740    5.2138  -15.5448 C   0  0  0  0  0  0  0  0  0  0  0  0
   -7.0319    5.2769  -14.3707 N   0  0  0  0  0  0  0  0  0  0  0  0
   -8.3389    4.9952  -14.4047 C   0  0  0  0  0  0  0  0  0  0  0  0
   -9.0489    4.6797  -15.4864 N   0  0  0  0  0  0  0  0  0  0  0  0
   -8.3850    4.5753  -16.6483 C   0  0  0  0  0  0  0  0  0  0  0  0
   -9.0519    4.1810  -17.8081 C   0  0  0  0  0  0  0  0  0  0  0  0
  -10.3638    3.8965  -17.7582 F   0  0  0  0  0  0  0  0  0  0  0  0
   -8.4132    4.0680  -19.0393 C   0  0  0  0  0  0  0  0  0  0  0  0
   -7.0579    4.3462  -19.1375 C   0  0  0  0  0  0  0  0  0  0  0  0
   -6.3598    4.7328  -17.9991 C   0  0  0  0  0  0  0  0  0  0  0  0
   -7.0139    4.8522  -16.7468 C   0  0  0  0  0  0  0  0  0  0  0  0
   -4.4348    4.3410  -12.7829 N   0  0  0  0  0  0  0  0  0  0  0  0
   -4.0213    4.7114  -11.9272 H   0  0  0  0  0  0  0  0  0  0  0  0
   -6.1151    2.9785  -11.6559 C   0  0  0  0  0  0  0  0  0  0  0  0
   -4.8613    2.9572  -12.5343 C   0  0  0  0  0  0  0  0  0  0  0  0
   -3.7596    2.1629  -11.8294 C   0  0  0  0  0  0  0  0  0  0  0  0
 20 21  1  0  0  0
 21 22  1  0  0  0
 21 18  1  0  0  0
  1 18  1  0  0  0
  1  2  1  0  0  0
  2  3  1  0  0  0
  3  4  1  0  0  0
  4  5  1  0  0  0
  5  7  1  0  0  0
  7  8  2  0  0  0
  8  9  1  0  0  0
  9 10  2  0  0  0
 10 11  1  0  0  0
 11 12  2  0  0  0
 12 13  1  0  0  0
 12 14  1  0  0  0
 14 15  2  0  0  0
 15 16  1  0  0  0
 16 17  2  0  0  0
  5  6  1  0  0  0
  6  1  1  0  0  0
 17  7  1  0  0  0
 17 11  1  0  0  0
 18 19  1  0  0  0
M  END
> <minimizedAffinity>
-6.03220

> <minimizedRMSD>
1.92799

$$$$
P39851


 22 24  0  0  0  0  0  0  0  0999 V2000
   -2.7333    5.3677  -16.8725 C   0  0  0  0  0  0  0  0  0  0  0  0
   -2.1438    6.4323  -15.9219 C   0  0  0  0  0  0  0  0  0  0  0  0
   -3.1564    7.5181  -15.5497 C   0  0  0  0  0  0  0  0  0  0  0  0
   -4.4667    6.9086  -15.0503 C   0  0  0  0  0  0  0  0  0  0  0  0
   -4.9648    5.9462  -16.0472 N   0  0  0  0  0  0  0  0  0  0  0  0
   -4.0354    4.8137  -16.2510 C   0  0  0  0  0  0  0  0  0  0  0  0
   -6.2761    5.4968  -15.7673 C   0  0  0  0  0  0  0  0  0  0  0  0
   -6.7442    5.6339  -14.5132 N   0  0  0  0  0  0  0  0  0  0  0  0
   -8.0098    5.2586  -14.3043 C   0  0  0  0  0  0  0  0  0  0  0  0
   -8.8612    4.7947  -15.2210 N   0  0  0  0  0  0  0  0  0  0  0  0
   -8.3834    4.6281  -16.4559 C   0  0  0  0  0  0  0  0  0  0  0  0
   -9.2247    4.1194  -17.4397 C   0  0  0  0  0  0  0  0  0  0  0  0
   -8.7758    3.8754  -18.7382 C   0  0  0  0  0  0  0  0  0  0  0  0
   -7.4695    4.1705  -19.0651 C   0  0  0  0  0  0  0  0  0  0  0  0
   -6.9875    3.8290  -20.2652 F   0  0  0  0  0  0  0  0  0  0  0  0
   -6.6422    4.7716  -18.1358 C   0  0  0  0  0  0  0  0  0  0  0  0
   -7.0703    4.9651  -16.8039 C   0  0  0  0  0  0  0  0  0  0  0  0
   -2.9662    5.9968  -18.1782 N   0  0  0  0  0  0  0  0  0  0  0  0
   -3.8555    6.4928  -18.1188 H   0  0  0  0  0  0  0  0  0  0  0  0
   -2.0036    4.0194  -19.4231 C   0  0  0  0  0  0  0  0  0  0  0  0
   -3.0262    5.1481  -19.3589 C   0  0  0  0  0  0  0  0  0  0  0  0
   -2.8063    6.1108  -20.5206 C   0  0  0  0  0  0  0  0  0  0  0  0
 20 21  1  0  0  0
 21 22  1  0  0  0
 21 18  1  0  0  0
  1 18  1  0  0  0
  1  2  1  0  0  0
  2  3  1  0  0  0
  3  4  1  0  0  0
  4  5  1  0  0  0
  5  7  1  0  0  0
  7  8  2  0  0  0
  8  9  1  0  0  0
  9 10  2  0  0  0
 10 11  1  0  0  0
 11 12  2  0  0  0
 12 13  1  0  0  0
 13 14  2  0  0  0
 14 15  1  0  0  0
 14 16  1  0  0  0
 16 17  2  0  0  0
  5  6  1  0  0  0
  6  1  1  0  0  0
 17  7  1  0  0  0
 17 11  1  0  0  0
 18 19  1  0  0  0
M  END
> <minimizedAffinity>
-6.46118

> <minimizedRMSD>
0.47002

$$$$
P39855


 24 26  0  0  0  0  0  0  0  0999 V2000
   -6.4127    5.6557  -15.7039 C   0  0  0  0  0  0  0  0  0  0  0  0
   -6.8117    5.5869  -14.4190 N   0  0  0  0  0  0  0  0  0  0  0  0
   -7.9551    4.9627  -14.1083 C   0  0  0  0  0  0  0  0  0  0  0  0
   -8.8141    4.5005  -15.0199 N   0  0  0  0  0  0  0  0  0  0  0  0
   -8.4263    4.5124  -16.2876 C   0  0  0  0  0  0  0  0  0  0  0  0
   -9.3278    3.9556  -17.1850 C   0  0  0  0  0  0  0  0  0  0  0  0
   -9.0405    3.8124  -18.5354 C   0  0  0  0  0  0  0  0  0  0  0  0
   -7.8151    4.2267  -18.9985 C   0  0  0  0  0  0  0  0  0  0  0  0
   -6.9312    4.8470  -18.1216 C   0  0  0  0  0  0  0  0  0  0  0  0
   -7.1991    5.0362  -16.7296 C   0  0  0  0  0  0  0  0  0  0  0  0
   -3.5757    5.2044  -17.0906 C   0  0  0  0  0  0  0  0  0  0  0  0
   -2.4106    5.5475  -16.1358 C   0  0  0  0  0  0  0  0  0  0  0  0
   -2.8656    6.4967  -15.0036 C   0  0  0  0  0  0  0  0  0  0  0  0
   -4.3559    6.3362  -14.6518 C   0  0  0  0  0  0  0  0  0  0  0  0
   -5.2336    6.3999  -15.8604 N   0  0  0  0  0  0  0  0  0  0  0  0
   -4.4997    6.4396  -17.1122 C   0  0  0  0  0  0  0  0  0  0  0  0
   -3.2854    4.5569  -18.3610 N   0  0  0  0  0  0  0  0  0  0  0  0
   -3.0660    3.5822  -18.1556 H   0  0  0  0  0  0  0  0  0  0  0  0
   -2.6751    5.9909  -20.3027 C   0  0  0  0  0  0  0  0  0  0  0  0
   -2.2121    5.0673  -19.1825 C   0  0  0  0  0  0  0  0  0  0  0  0
   -1.5568    3.8260  -19.7723 C   0  0  0  0  0  0  0  0  0  0  0  0
   -8.2843    4.7642  -12.6457 C   0  0  0  0  0  0  0  0  0  0  0  0
   -7.3919    3.9729  -11.9897 F   0  0  0  0  0  0  0  0  0  0  0  0
   -8.3272    5.9406  -11.9468 F   0  0  0  0  0  0  0  0  0  0  0  0
 19 20  1  0  0  0
 20 21  1  0  0  0
 20 17  1  0  0  0
 11 17  1  0  0  0
 11 12  1  0  0  0
 12 13  1  0  0  0
 13 14  1  0  0  0
 14 15  1  0  0  0
 15  1  1  0  0  0
  1  2  2  0  0  0
  2  3  1  0  0  0
  3 22  1  0  0  0
 22 23  1  0  0  0
 22 24  1  0  0  0
  3  4  2  0  0  0
  4  5  1  0  0  0
  5  6  2  0  0  0
  6  7  1  0  0  0
  7  8  2  0  0  0
  8  9  1  0  0  0
  9 10  2  0  0  0
 15 16  1  0  0  0
 16 11  1  0  0  0
 10  1  1  0  0  0
 10  5  1  0  0  0
 17 18  1  0  0  0
M  END
> <minimizedAffinity>
-6.18519

> <minimizedRMSD>
0.62219

$$$$
P39856


 25 27  0  0  0  0  0  0  0  0999 V2000
   -4.6941    5.2808  -15.1841 C   0  0  0  0  0  0  0  0  0  0  0  0
   -5.3711    5.1243  -14.0318 N   0  0  0  0  0  0  0  0  0  0  0  0
   -6.6628    4.8162  -14.1423 C   0  0  0  0  0  0  0  0  0  0  0  0
   -7.3377    4.6644  -15.2811 N   0  0  0  0  0  0  0  0  0  0  0  0
   -6.6652    4.7603  -16.4342 C   0  0  0  0  0  0  0  0  0  0  0  0
   -7.3021    4.5202  -17.6523 C   0  0  0  0  0  0  0  0  0  0  0  0
   -6.6035    4.6324  -18.8649 C   0  0  0  0  0  0  0  0  0  0  0  0
   -5.2669    4.9893  -18.8803 C   0  0  0  0  0  0  0  0  0  0  0  0
   -4.6157    5.2105  -17.6773 C   0  0  0  0  0  0  0  0  0  0  0  0
   -5.3028    5.0987  -16.4453 C   0  0  0  0  0  0  0  0  0  0  0  0
   -2.5287    7.4445  -13.5281 C   0  0  0  0  0  0  0  0  0  0  0  0
   -1.1556    6.7488  -13.4257 C   0  0  0  0  0  0  0  0  0  0  0  0
   -1.1340    5.3657  -14.0871 C   0  0  0  0  0  0  0  0  0  0  0  0
   -2.5395    4.7894  -14.2237 C   0  0  0  0  0  0  0  0  0  0  0  0
   -3.3314    5.6559  -15.1067 N   0  0  0  0  0  0  0  0  0  0  0  0
   -3.1729    7.1133  -14.9003 C   0  0  0  0  0  0  0  0  0  0  0  0
   -2.4370    8.9042  -13.3335 N   0  0  0  0  0  0  0  0  0  0  0  0
   -1.7551    9.2672  -13.9996 H   0  0  0  0  0  0  0  0  0  0  0  0
   -3.0909    9.0433  -10.9256 C   0  0  0  0  0  0  0  0  0  0  0  0
   -2.0342    9.3423  -11.9907 C   0  0  0  0  0  0  0  0  0  0  0  0
   -1.7819   10.8515  -12.0554 C   0  0  0  0  0  0  0  0  0  0  0  0
   -8.7395    4.0981  -17.7249 C   0  0  0  0  0  0  0  0  0  0  0  0
   -9.0052    3.4265  -18.8808 F   0  0  0  0  0  0  0  0  0  0  0  0
   -9.1567    3.2801  -16.7311 F   0  0  0  0  0  0  0  0  0  0  0  0
   -9.5925    5.1598  -17.7305 F   0  0  0  0  0  0  0  0  0  0  0  0
 19 20  1  0  0  0
 20 21  1  0  0  0
 20 17  1  0  0  0
 11 17  1  0  0  0
 11 12  1  0  0  0
 12 13  1  0  0  0
 13 14  1  0  0  0
 14 15  1  0  0  0
 15  1  1  0  0  0
  1  2  2  0  0  0
  2  3  1  0  0  0
  3  4  2  0  0  0
  4  5  1  0  0  0
  5  6  2  0  0  0
  6 22  1  0  0  0
 22 23  1  0  0  0
 22 24  1  0  0  0
 22 25  1  0  0  0
  6  7  1  0  0  0
  7  8  2  0  0  0
  8  9  1  0  0  0
  9 10  2  0  0  0
 15 16  1  0  0  0
 16 11  1  0  0  0
 10  1  1  0  0  0
 10  5  1  0  0  0
 17 18  1  0  0  0
M  END
> <minimizedAffinity>
-5.39961

> <minimizedRMSD>
1.38227

$$$$
P39938


 24 26  0  0  0  0  0  0  0  0999 V2000
   -6.7792    4.6260  -11.3426 N   0  0  0  0  0  0  0  0  0  0  0  0
   -7.4391    5.8146  -10.6558 S   0  0  0  0  0  0  0  0  0  0  0  0
   -6.1560    7.0175  -10.3906 C   0  0  0  0  0  0  0  0  0  0  0  0
   -8.6139    6.5239  -11.1136 O   0  0  0  0  0  0  0  0  0  0  0  0
   -7.8172    5.2742   -9.0748 C   0  0  0  0  0  0  0  0  0  0  0  0
   -7.7209    6.1209   -7.9510 C   0  0  0  0  0  0  0  0  0  0  0  0
   -8.0222    5.5036   -6.8074 N   0  0  0  0  0  0  0  0  0  0  0  0
   -8.3814    4.2711   -7.2155 N   0  0  0  0  0  0  0  0  0  0  0  0
   -8.2679    4.0683   -8.5684 C   0  0  0  0  0  0  0  0  0  0  0  0
   -8.6542    2.7589   -9.1619 C   0  0  0  0  0  0  0  0  0  0  0  0
   -8.7602    1.7148   -8.1407 N   0  0  0  0  0  0  0  0  0  0  0  0
   -9.5280    2.1398   -6.9762 C   0  0  0  0  0  0  0  0  0  0  0  0
   -8.8298    3.2802   -6.2534 C   0  0  0  0  0  0  0  0  0  0  0  0
   -7.8206    1.4600   -7.8364 H   0  0  0  0  0  0  0  0  0  0  0  0
   -7.4333    3.9363  -12.3706 C   0  0  0  0  0  0  0  0  0  0  0  0
   -7.5713    2.7199  -12.3149 O   0  0  0  0  0  0  0  0  0  0  0  0
   -7.8802    4.7249  -13.6004 C   0  0  0  0  0  0  0  0  0  0  0  0
   -6.9497    4.4114  -14.7559 C   0  0  0  0  0  0  0  0  0  0  0  0
   -5.2814    5.1012  -17.2480 C   0  0  0  0  0  0  0  0  0  0  0  0
   -6.7524    4.8972  -17.2258 C   0  0  0  0  0  0  0  0  0  0  0  0
   -7.5319    4.8914  -18.2882 N   0  0  0  0  0  0  0  0  0  0  0  0
   -8.7814    4.5663  -17.8305 C   0  0  0  0  0  0  0  0  0  0  0  0
   -8.7820    4.4407  -16.4628 C   0  0  0  0  0  0  0  0  0  0  0  0
   -7.4845    4.6533  -16.0837 N   0  0  0  0  0  0  0  0  0  0  0  0
 19 20  1  0  0  0
 20 21  2  0  0  0
 21 22  1  0  0  0
 22 23  2  0  0  0
 23 24  1  0  0  0
 24 18  1  0  0  0
 18 17  1  0  0  0
 17 15  1  0  0  0
 15 16  2  0  0  0
 15  1  1  0  0  0
  1  2  2  0  0  0
  2  3  1  0  0  0
  2  4  2  0  0  0
  2  5  1  0  0  0
  5  6  1  0  0  0
  6  7  2  0  0  0
  7  8  1  0  0  0
  8  9  1  0  0  0
  9 10  1  0  0  0
 10 11  1  0  0  0
 11 12  1  0  0  0
 12 13  1  0  0  0
 24 20  1  0  0  0
  9  5  2  0  0  0
 13  8  1  0  0  0
 11 14  1  0  0  0
M  END
> <minimizedAffinity>
-6.24971

> <minimizedRMSD>
1.05391

$$$$
P39942


 26 29  0  0  0  0  0  0  0  0999 V2000
   -8.2890    7.1283  -10.0840 O   0  0  0  0  0  0  0  0  0  0  0  0
   -8.1333    5.9851   -9.9179 C   0  0  0  0  0  0  0  0  0  0  0  0
   -7.8635    4.8587  -10.9287 N   0  0  0  0  0  0  0  0  0  0  0  0
   -7.6912    3.9768  -10.5265 H   0  0  0  0  0  0  0  0  0  0  0  0
   -8.2374    5.4370   -8.5797 C   0  0  0  0  0  0  0  0  0  0  0  0
   -8.3566    6.1990   -7.4005 C   0  0  0  0  0  0  0  0  0  0  0  0
   -8.5409    5.4473   -6.3160 N   0  0  0  0  0  0  0  0  0  0  0  0
   -8.5860    4.1981   -6.8147 N   0  0  0  0  0  0  0  0  0  0  0  0
   -8.3988    4.1198   -8.1682 C   0  0  0  0  0  0  0  0  0  0  0  0
   -8.5527    2.8172   -8.8858 C   0  0  0  0  0  0  0  0  0  0  0  0
   -8.7458    1.6782   -7.9920 N   0  0  0  0  0  0  0  0  0  0  0  0
   -9.5418    1.9767   -6.8078 C   0  0  0  0  0  0  0  0  0  0  0  0
   -8.9174    3.0743   -5.9631 C   0  0  0  0  0  0  0  0  0  0  0  0
   -7.8288    1.3516   -7.6871 H   0  0  0  0  0  0  0  0  0  0  0  0
   -7.8232    4.8823  -12.3096 C   0  0  0  0  0  0  0  0  0  0  0  0
   -7.1080    3.9033  -12.9950 C   0  0  0  0  0  0  0  0  0  0  0  0
   -7.1453    3.8715  -14.3900 C   0  0  0  0  0  0  0  0  0  0  0  0
   -7.9527    4.7715  -15.0915 C   0  0  0  0  0  0  0  0  0  0  0  0
   -8.6620    5.7474  -14.3855 C   0  0  0  0  0  0  0  0  0  0  0  0
   -8.5678    5.8309  -13.0038 C   0  0  0  0  0  0  0  0  0  0  0  0
   -8.1762    4.6643  -16.5231 C   0  0  0  0  0  0  0  0  0  0  0  0
   -9.3520    4.4443  -17.0736 N   0  0  0  0  0  0  0  0  0  0  0  0
   -9.1263    4.3439  -18.4138 C   0  0  0  0  0  0  0  0  0  0  0  0
   -7.8085    4.5951  -18.7054 C   0  0  0  0  0  0  0  0  0  0  0  0
   -7.2100    4.7757  -17.4920 N   0  0  0  0  0  0  0  0  0  0  0  0
   -6.2540    4.9543  -17.3387 H   0  0  0  0  0  0  0  0  0  0  0  0
  1  2  2  0  0  0
  2  3  1  0  0  0
  3 15  1  0  0  0
 15 16  2  0  0  0
 16 17  1  0  0  0
 17 18  2  0  0  0
 18 21  1  0  0  0
 21 22  2  0  0  0
 22 23  1  0  0  0
 23 24  2  0  0  0
 24 25  1  0  0  0
 18 19  1  0  0  0
 19 20  2  0  0  0
  2  5  1  0  0  0
  5  6  1  0  0  0
  6  7  2  0  0  0
  7  8  1  0  0  0
  8  9  1  0  0  0
  9 10  1  0  0  0
 10 11  1  0  0  0
 11 12  1  0  0  0
 12 13  1  0  0  0
 20 15  1  0  0  0
  9  5  2  0  0  0
 25 21  1  0  0  0
 13  8  1  0  0  0
  3  4  1  0  0  0
 25 26  1  0  0  0
 11 14  1  0  0  0
M  END
> <minimizedAffinity>
-7.18259

> <minimizedRMSD>
0.75133

$$$$
P39943


 23 25  0  0  0  0  0  0  0  0999 V2000
   -8.6240    5.1505  -12.5453 N   0  0  0  0  0  0  0  0  0  0  0  0
   -7.8153    6.1704  -11.7381 S   0  0  0  0  0  0  0  0  0  0  0  0
   -8.5471    7.7779  -11.9167 C   0  0  0  0  0  0  0  0  0  0  0  0
   -6.3793    6.3447  -11.8036 O   0  0  0  0  0  0  0  0  0  0  0  0
   -8.1106    5.7214  -10.1088 C   0  0  0  0  0  0  0  0  0  0  0  0
   -8.1057    6.6120   -9.0165 C   0  0  0  0  0  0  0  0  0  0  0  0
   -8.3261    6.0059   -7.8456 N   0  0  0  0  0  0  0  0  0  0  0  0
   -8.4215    4.7047   -8.1943 N   0  0  0  0  0  0  0  0  0  0  0  0
   -8.3060    4.4791   -9.5408 C   0  0  0  0  0  0  0  0  0  0  0  0
   -8.3908    3.1020  -10.0796 C   0  0  0  0  0  0  0  0  0  0  0  0
   -8.0731    2.1363   -9.0331 N   0  0  0  0  0  0  0  0  0  0  0  0
   -8.8910    2.3296   -7.8383 C   0  0  0  0  0  0  0  0  0  0  0  0
   -8.5771    3.6717   -7.1855 C   0  0  0  0  0  0  0  0  0  0  0  0
   -7.0906    2.2385   -8.7789 H   0  0  0  0  0  0  0  0  0  0  0  0
   -8.6969    5.2830  -13.9460 C   0  0  0  0  0  0  0  0  0  0  0  0
   -9.5141    6.0708  -14.4205 O   0  0  0  0  0  0  0  0  0  0  0  0
   -6.6407    3.7831  -14.0701 C   0  0  0  0  0  0  0  0  0  0  0  0
   -7.7966    4.4214  -14.8448 C   0  0  0  0  0  0  0  0  0  0  0  0
   -7.3263    5.1557  -16.0250 N   0  0  0  0  0  0  0  0  0  0  0  0
   -7.6192    4.8720  -17.3340 C   0  0  0  0  0  0  0  0  0  0  0  0
   -6.8173    5.7084  -18.0757 C   0  0  0  0  0  0  0  0  0  0  0  0
   -6.0936    6.5364  -17.2550 N   0  0  0  0  0  0  0  0  0  0  0  0
   -6.4224    6.1826  -16.0332 C   0  0  0  0  0  0  0  0  0  0  0  0
 18 17  1  0  0  0
 18 15  1  0  0  0
 15 16  2  0  0  0
 15  1  1  0  0  0
  1  2  2  0  0  0
  2  3  1  0  0  0
  2  4  2  0  0  0
  2  5  1  0  0  0
  5  6  1  0  0  0
  6  7  2  0  0  0
  7  8  1  0  0  0
  8  9  1  0  0  0
  9 10  1  0  0  0
 10 11  1  0  0  0
 11 12  1  0  0  0
 12 13  1  0  0  0
 18 19  1  0  0  0
 19 20  1  0  0  0
 20 21  2  0  0  0
 21 22  1  0  0  0
 22 23  2  0  0  0
  9  5  2  0  0  0
 23 19  1  0  0  0
 13  8  1  0  0  0
 11 14  1  0  0  0
M  END
> <minimizedAffinity>
-6.16324

> <minimizedRMSD>
0.36170

$$$$
P39948


 22 24  0  0  0  0  0  0  0  0999 V2000
   -8.7809    5.6764  -12.2814 O   0  0  0  0  0  0  0  0  0  0  0  0
   -8.0837    4.9254  -11.7268 C   0  0  0  0  0  0  0  0  0  0  0  0
   -7.1355    3.8502  -12.2816 N   0  0  0  0  0  0  0  0  0  0  0  0
   -6.5909    3.3908  -11.6022 H   0  0  0  0  0  0  0  0  0  0  0  0
   -8.0763    4.9287  -10.2570 C   0  0  0  0  0  0  0  0  0  0  0  0
   -7.8971    6.0689   -9.4300 C   0  0  0  0  0  0  0  0  0  0  0  0
   -8.0258    5.8121   -8.1245 N   0  0  0  0  0  0  0  0  0  0  0  0
   -8.3305    4.4997   -8.1063 N   0  0  0  0  0  0  0  0  0  0  0  0
   -8.3707    3.9189   -9.3496 C   0  0  0  0  0  0  0  0  0  0  0  0
   -8.7931    2.4998   -9.4742 C   0  0  0  0  0  0  0  0  0  0  0  0
   -8.5820    1.7967   -8.2162 N   0  0  0  0  0  0  0  0  0  0  0  0
   -9.2514    2.4541   -7.1022 C   0  0  0  0  0  0  0  0  0  0  0  0
   -8.6175    3.8207   -6.8522 C   0  0  0  0  0  0  0  0  0  0  0  0
   -7.5810    1.7606   -8.0235 H   0  0  0  0  0  0  0  0  0  0  0  0
   -6.9125    3.4024  -13.6420 C   0  0  0  0  0  0  0  0  0  0  0  0
   -6.5857    4.5332  -14.6222 C   0  0  0  0  0  0  0  0  0  0  0  0
   -7.4333    4.5065  -15.8572 C   0  0  0  0  0  0  0  0  0  0  0  0
   -7.0787    4.8523  -17.0812 N   0  0  0  0  0  0  0  0  0  0  0  0
   -8.2148    4.7287  -17.8451 C   0  0  0  0  0  0  0  0  0  0  0  0
   -9.2754    4.3218  -17.0752 C   0  0  0  0  0  0  0  0  0  0  0  0
   -8.7679    4.1725  -15.8179 N   0  0  0  0  0  0  0  0  0  0  0  0
   -9.2679    3.8778  -15.0227 H   0  0  0  0  0  0  0  0  0  0  0  0
  1  2  2  0  0  0
  2  3  1  0  0  0
  3 15  1  0  0  0
 15 16  1  0  0  0
 16 17  1  0  0  0
 17 18  2  0  0  0
 18 19  1  0  0  0
 19 20  2  0  0  0
 20 21  1  0  0  0
  2  5  1  0  0  0
  5  6  1  0  0  0
  6  7  2  0  0  0
  7  8  1  0  0  0
  8  9  1  0  0  0
  9 10  1  0  0  0
 10 11  1  0  0  0
 11 12  1  0  0  0
 12 13  1  0  0  0
 21 17  1  0  0  0
  9  5  2  0  0  0
 13  8  1  0  0  0
  3  4  1  0  0  0
 21 22  1  0  0  0
 11 14  1  0  0  0
M  END
> <minimizedAffinity>
-6.23333

> <minimizedRMSD>
0.91353

$$$$
P39949


 22 24  0  0  0  0  0  0  0  0999 V2000
   -8.1379    4.5083  -12.0356 N   0  0  0  0  0  0  0  0  0  0  0  0
   -7.3131    5.3053  -11.0112 C   0  0  0  0  0  0  0  0  0  0  0  0
   -6.4050    6.0195  -11.1640 O   0  0  0  0  0  0  0  0  0  0  0  0
   -8.9125    4.0313  -11.6593 H   0  0  0  0  0  0  0  0  0  0  0  0
   -7.8497    5.1376   -9.6521 C   0  0  0  0  0  0  0  0  0  0  0  0
   -7.9541    6.1741   -8.6870 C   0  0  0  0  0  0  0  0  0  0  0  0
   -8.4374    5.7655   -7.5108 N   0  0  0  0  0  0  0  0  0  0  0  0
   -8.6161    4.4471   -7.7032 N   0  0  0  0  0  0  0  0  0  0  0  0
   -8.2943    4.0145   -8.9650 C   0  0  0  0  0  0  0  0  0  0  0  0
   -8.4277    2.5724   -9.3028 C   0  0  0  0  0  0  0  0  0  0  0  0
   -8.4458    1.7337   -8.1060 N   0  0  0  0  0  0  0  0  0  0  0  0
   -9.3976    2.2088   -7.1087 C   0  0  0  0  0  0  0  0  0  0  0  0
   -9.0167    3.5914   -6.5992 C   0  0  0  0  0  0  0  0  0  0  0  0
   -7.5129    1.7314   -7.6935 H   0  0  0  0  0  0  0  0  0  0  0  0
   -7.9600    4.3442  -13.4713 C   0  0  0  0  0  0  0  0  0  0  0  0
   -8.6209    5.4112  -14.3536 C   0  0  0  0  0  0  0  0  0  0  0  0
   -6.3006    6.1459  -16.2791 C   0  0  0  0  0  0  0  0  0  0  0  0
   -7.4881    5.4201  -16.6511 N   0  0  0  0  0  0  0  0  0  0  0  0
   -7.7773    4.9637  -17.9071 C   0  0  0  0  0  0  0  0  0  0  0  0
   -8.9905    4.3339  -17.7873 C   0  0  0  0  0  0  0  0  0  0  0  0
   -9.4508    4.4198  -16.4997 N   0  0  0  0  0  0  0  0  0  0  0  0
   -8.5265    5.0675  -15.8161 C   0  0  0  0  0  0  0  0  0  0  0  0
 17 18  1  0  0  0
 18 19  1  0  0  0
 19 20  2  0  0  0
 20 21  1  0  0  0
 21 22  2  0  0  0
 22 16  1  0  0  0
 16 15  1  0  0  0
 15  1  1  0  0  0
  1  2  1  0  0  0
  2  3  2  0  0  0
  2  5  1  0  0  0
  5  6  1  0  0  0
  6  7  2  0  0  0
  7  8  1  0  0  0
  8  9  1  0  0  0
  9 10  1  0  0  0
 10 11  1  0  0  0
 11 12  1  0  0  0
 12 13  1  0  0  0
 22 18  1  0  0  0
  9  5  2  0  0  0
 13  8  1  0  0  0
  1  4  1  0  0  0
 11 14  1  0  0  0
M  END
> <minimizedAffinity>
-6.09242

> <minimizedRMSD>
0.95757

$$$$
P39950


 23 26  0  0  0  0  0  0  0  0999 V2000
   -7.1829    5.2632  -14.2735 C   0  0  0  0  0  0  0  0  0  0  0  0
   -5.6410    5.3258  -14.4133 C   0  0  0  0  0  0  0  0  0  0  0  0
   -5.0138    3.9370  -14.4826 C   0  0  0  0  0  0  0  0  0  0  0  0
   -5.5453    2.9896  -13.4093 C   0  0  0  0  0  0  0  0  0  0  0  0
   -7.0693    3.0666  -13.2552 C   0  0  0  0  0  0  0  0  0  0  0  0
   -7.6158    4.4277  -13.0775 N   0  0  0  0  0  0  0  0  0  0  0  0
   -8.2053    4.6812  -17.7433 C   0  0  0  0  0  0  0  0  0  0  0  0
   -9.2830    4.1259  -17.1005 C   0  0  0  0  0  0  0  0  0  0  0  0
   -9.0205    4.2689  -15.7648 N   0  0  0  0  0  0  0  0  0  0  0  0
   -7.8058    4.8997  -15.6295 C   0  0  0  0  0  0  0  0  0  0  0  0
   -7.3067    5.1758  -16.8283 N   0  0  0  0  0  0  0  0  0  0  0  0
   -9.6014    3.9714  -15.0276 H   0  0  0  0  0  0  0  0  0  0  0  0
   -7.0873    5.0825  -11.8413 C   0  0  0  0  0  0  0  0  0  0  0  0
   -7.7973    5.0255  -10.5097 C   0  0  0  0  0  0  0  0  0  0  0  0
   -7.9649    6.1899   -9.6966 C   0  0  0  0  0  0  0  0  0  0  0  0
   -8.3093    5.9281   -8.4364 N   0  0  0  0  0  0  0  0  0  0  0  0
   -8.4544    4.5949   -8.4380 N   0  0  0  0  0  0  0  0  0  0  0  0
   -8.1686    4.0009   -9.6428 C   0  0  0  0  0  0  0  0  0  0  0  0
   -8.2888    2.5249   -9.7556 C   0  0  0  0  0  0  0  0  0  0  0  0
   -8.2940    1.8459   -8.4605 N   0  0  0  0  0  0  0  0  0  0  0  0
   -9.2048    2.4701   -7.5086 C   0  0  0  0  0  0  0  0  0  0  0  0
   -8.7583    3.8903   -7.2032 C   0  0  0  0  0  0  0  0  0  0  0  0
   -7.3502    1.8697   -8.0745 H   0  0  0  0  0  0  0  0  0  0  0  0
  7  8  2  0  0  0
  8  9  1  0  0  0
  9 10  1  0  0  0
  1 10  1  0  0  0
  1  2  1  0  0  0
  2  3  1  0  0  0
  3  4  1  0  0  0
  4  5  1  0  0  0
  5  6  1  0  0  0
  6 13  1  0  0  0
 13 14  1  0  0  0
 14 15  1  0  0  0
 15 16  2  0  0  0
 16 17  1  0  0  0
 17 18  1  0  0  0
 18 19  1  0  0  0
 19 20  1  0  0  0
 20 21  1  0  0  0
 21 22  1  0  0  0
 10 11  2  0  0  0
 11  7  1  0  0  0
  6  1  1  0  0  0
 18 14  2  0  0  0
 22 17  1  0  0  0
  9 12  1  0  0  0
 20 23  1  0  0  0
M  END
> <minimizedAffinity>
-6.45078

> <minimizedRMSD>
0.58732

$$$$
P39951


 22 25  0  0  0  0  0  0  0  0999 V2000
   -7.0410    5.0625  -14.7012 C   0  0  0  0  0  0  0  0  0  0  0  0
   -7.0240    3.7244  -13.9425 C   0  0  0  0  0  0  0  0  0  0  0  0
   -6.4266    3.8504  -12.5318 C   0  0  0  0  0  0  0  0  0  0  0  0
   -6.8145    5.0732  -11.8229 N   0  0  0  0  0  0  0  0  0  0  0  0
   -6.5503    6.3031  -12.5742 C   0  0  0  0  0  0  0  0  0  0  0  0
   -6.1195    6.0833  -14.0218 C   0  0  0  0  0  0  0  0  0  0  0  0
   -6.8697    4.8025  -18.2910 C   0  0  0  0  0  0  0  0  0  0  0  0
   -7.6299    4.7597  -17.1431 C   0  0  0  0  0  0  0  0  0  0  0  0
   -6.7365    4.9240  -16.1207 N   0  0  0  0  0  0  0  0  0  0  0  0
   -5.4937    5.0253  -16.6815 C   0  0  0  0  0  0  0  0  0  0  0  0
   -5.5437    4.9886  -17.9916 N   0  0  0  0  0  0  0  0  0  0  0  0
   -8.1750    5.0020  -11.2839 C   0  0  0  0  0  0  0  0  0  0  0  0
   -8.1553    4.9337   -9.7967 C   0  0  0  0  0  0  0  0  0  0  0  0
   -7.9581    5.9988   -8.8825 C   0  0  0  0  0  0  0  0  0  0  0  0
   -8.1618    5.6488   -7.6073 N   0  0  0  0  0  0  0  0  0  0  0  0
   -8.4510    4.3345   -7.7000 N   0  0  0  0  0  0  0  0  0  0  0  0
   -8.4426    3.8569   -8.9805 C   0  0  0  0  0  0  0  0  0  0  0  0
   -8.7690    2.4392   -9.2609 C   0  0  0  0  0  0  0  0  0  0  0  0
   -8.6578    1.6363   -8.0535 N   0  0  0  0  0  0  0  0  0  0  0  0
   -9.3955    2.2053   -6.9345 C   0  0  0  0  0  0  0  0  0  0  0  0
   -8.7856    3.5470   -6.5264 C   0  0  0  0  0  0  0  0  0  0  0  0
   -7.6733    1.5687   -7.7954 H   0  0  0  0  0  0  0  0  0  0  0  0
  7  8  2  0  0  0
  8  9  1  0  0  0
  9  1  1  0  0  0
  1  2  1  0  0  0
  2  3  1  0  0  0
  3  4  1  0  0  0
  4 12  1  0  0  0
 12 13  1  0  0  0
 13 14  1  0  0  0
 14 15  2  0  0  0
 15 16  1  0  0  0
 16 17  1  0  0  0
 17 18  1  0  0  0
 18 19  1  0  0  0
 19 20  1  0  0  0
 20 21  1  0  0  0
  4  5  1  0  0  0
  5  6  1  0  0  0
  9 10  1  0  0  0
 10 11  2  0  0  0
 11  7  1  0  0  0
  6  1  1  0  0  0
 17 13  2  0  0  0
 21 16  1  0  0  0
 19 22  1  0  0  0
M  END
> <minimizedAffinity>
-6.10529

> <minimizedRMSD>
0.49218

$$$$
P39959


 23 25  0  0  0  0  0  0  0  0999 V2000
   -7.0231    4.6772  -13.4197 C   0  0  0  0  0  0  0  0  0  0  0  0
   -5.8764    4.6170  -13.2124 O   0  0  0  0  0  0  0  0  0  0  0  0
   -8.2192    4.1004  -12.6211 N   0  0  0  0  0  0  0  0  0  0  0  0
   -9.1058    4.3552  -12.9649 H   0  0  0  0  0  0  0  0  0  0  0  0
   -7.5620    5.4004  -14.6500 C   0  0  0  0  0  0  0  0  0  0  0  0
   -8.9885    4.5729  -16.5278 C   0  0  0  0  0  0  0  0  0  0  0  0
   -7.5913    4.5192  -15.9096 C   0  0  0  0  0  0  0  0  0  0  0  0
   -6.5789    4.8638  -16.9069 N   0  0  0  0  0  0  0  0  0  0  0  0
   -6.7022    4.8205  -18.2694 C   0  0  0  0  0  0  0  0  0  0  0  0
   -5.4389    5.0377  -18.7621 C   0  0  0  0  0  0  0  0  0  0  0  0
   -4.5547    5.2582  -17.7411 N   0  0  0  0  0  0  0  0  0  0  0  0
   -5.2647    5.1369  -16.6406 C   0  0  0  0  0  0  0  0  0  0  0  0
   -8.2444    3.2549  -11.4614 C   0  0  0  0  0  0  0  0  0  0  0  0
   -8.3315    4.0230  -10.1929 C   0  0  0  0  0  0  0  0  0  0  0  0
   -8.0129    5.3863   -9.9658 C   0  0  0  0  0  0  0  0  0  0  0  0
   -8.0096    5.7191   -8.6692 N   0  0  0  0  0  0  0  0  0  0  0  0
   -8.3407    4.5669   -8.0591 N   0  0  0  0  0  0  0  0  0  0  0  0
   -8.6057    3.5454   -8.9237 C   0  0  0  0  0  0  0  0  0  0  0  0
   -9.0418    2.2251   -8.4131 C   0  0  0  0  0  0  0  0  0  0  0  0
   -8.6301    2.0065   -7.0302 N   0  0  0  0  0  0  0  0  0  0  0  0
   -8.9617    3.1387   -6.1708 C   0  0  0  0  0  0  0  0  0  0  0  0
   -8.2632    4.4208   -6.6166 C   0  0  0  0  0  0  0  0  0  0  0  0
   -7.6208    1.8610   -7.0070 H   0  0  0  0  0  0  0  0  0  0  0  0
  7  6  1  0  0  0
  7  5  1  0  0  0
  5  1  1  0  0  0
  1  2  2  0  0  0
  1  3  1  0  0  0
  3 13  1  0  0  0
 13 14  1  0  0  0
 14 15  1  0  0  0
 15 16  2  0  0  0
 16 17  1  0  0  0
 17 18  1  0  0  0
 18 19  1  0  0  0
 19 20  1  0  0  0
 20 21  1  0  0  0
 21 22  1  0  0  0
  7  8  1  0  0  0
  8  9  1  0  0  0
  9 10  2  0  0  0
 10 11  1  0  0  0
 11 12  2  0  0  0
 18 14  2  0  0  0
 12  8  1  0  0  0
 22 17  1  0  0  0
  3  4  1  0  0  0
 20 23  1  0  0  0
M  END
> <minimizedAffinity>
-6.11386

> <minimizedRMSD>
0.97768

$$$$
P39965


 23 25  0  0  0  0  0  0  0  0999 V2000
   -7.4157    5.3938  -11.1885 S   0  0  0  0  0  0  0  0  0  0  0  0
   -6.1903    4.6299  -11.2957 O   0  0  0  0  0  0  0  0  0  0  0  0
   -7.4168    6.8297  -11.3613 O   0  0  0  0  0  0  0  0  0  0  0  0
   -7.9216    5.1452   -9.5761 C   0  0  0  0  0  0  0  0  0  0  0  0
   -8.0028    6.1623   -8.6084 C   0  0  0  0  0  0  0  0  0  0  0  0
   -8.4028    5.7089   -7.4128 N   0  0  0  0  0  0  0  0  0  0  0  0
   -8.5713    4.3860   -7.6327 N   0  0  0  0  0  0  0  0  0  0  0  0
   -8.3076    3.9962   -8.9195 C   0  0  0  0  0  0  0  0  0  0  0  0
   -8.4758    2.5832   -9.3245 C   0  0  0  0  0  0  0  0  0  0  0  0
   -8.4382    1.7141   -8.1564 N   0  0  0  0  0  0  0  0  0  0  0  0
   -9.3734    2.1279   -7.1192 C   0  0  0  0  0  0  0  0  0  0  0  0
   -8.9688    3.4901   -6.5595 C   0  0  0  0  0  0  0  0  0  0  0  0
   -7.4945    1.7277   -7.7695 H   0  0  0  0  0  0  0  0  0  0  0  0
   -8.4913    4.7151  -12.2755 N   0  0  0  0  0  0  0  0  0  0  0  0
   -8.2981    3.7142  -12.3105 H   0  0  0  0  0  0  0  0  0  0  0  0
   -8.4729    5.2197  -13.6738 C   0  0  0  0  0  0  0  0  0  0  0  0
   -7.5002    4.4694  -14.5918 C   0  0  0  0  0  0  0  0  0  0  0  0
   -5.7580    5.1911  -17.0383 C   0  0  0  0  0  0  0  0  0  0  0  0
   -7.1520    4.8327  -17.0930 N   0  0  0  0  0  0  0  0  0  0  0  0
   -7.9062    4.7443  -18.2283 C   0  0  0  0  0  0  0  0  0  0  0  0
   -9.1595    4.3867  -17.7969 C   0  0  0  0  0  0  0  0  0  0  0  0
   -9.1849    4.2747  -16.4335 N   0  0  0  0  0  0  0  0  0  0  0  0
   -7.9570    4.5200  -16.0205 C   0  0  0  0  0  0  0  0  0  0  0  0
 18 19  1  0  0  0
 19 20  1  0  0  0
 20 21  2  0  0  0
 21 22  1  0  0  0
 22 23  2  0  0  0
 23 17  1  0  0  0
 17 16  1  0  0  0
 16 14  1  0  0  0
 14  1  1  0  0  0
  1  2  2  0  0  0
  1  3  2  0  0  0
  1  4  1  0  0  0
  4  5  1  0  0  0
  5  6  2  0  0  0
  6  7  1  0  0  0
  7  8  1  0  0  0
  8  9  1  0  0  0
  9 10  1  0  0  0
 10 11  1  0  0  0
 11 12  1  0  0  0
 23 19  1  0  0  0
  8  4  2  0  0  0
 12  7  1  0  0  0
 14 15  1  0  0  0
 10 13  1  0  0  0
M  END
> <minimizedAffinity>
-6.37065

> <minimizedRMSD>
0.97457

$$$$
P39968


 24 26  0  0  0  0  0  0  0  0999 V2000
   -8.3518    5.3810  -12.3459 N   0  0  0  0  0  0  0  0  0  0  0  0
   -7.1723    5.2209  -11.3725 C   0  0  0  0  0  0  0  0  0  0  0  0
   -6.0244    5.2706  -11.5630 O   0  0  0  0  0  0  0  0  0  0  0  0
   -9.2402    5.3718  -11.9218 H   0  0  0  0  0  0  0  0  0  0  0  0
   -7.6245    5.0790   -9.9805 C   0  0  0  0  0  0  0  0  0  0  0  0
   -7.5205    6.1140   -9.0104 C   0  0  0  0  0  0  0  0  0  0  0  0
   -7.9999    5.7796   -7.8116 N   0  0  0  0  0  0  0  0  0  0  0  0
   -8.3684    4.4974   -7.9863 N   0  0  0  0  0  0  0  0  0  0  0  0
   -8.1803    4.0264   -9.2650 C   0  0  0  0  0  0  0  0  0  0  0  0
   -8.5262    2.6142   -9.5740 C   0  0  0  0  0  0  0  0  0  0  0  0
   -8.5101    1.8097   -8.3611 N   0  0  0  0  0  0  0  0  0  0  0  0
   -9.3785    2.3655   -7.3254 C   0  0  0  0  0  0  0  0  0  0  0  0
   -8.8522    3.7168   -6.8602 C   0  0  0  0  0  0  0  0  0  0  0  0
   -7.5553    1.7704   -8.0044 H   0  0  0  0  0  0  0  0  0  0  0  0
   -8.3687    5.5430  -13.7842 C   0  0  0  0  0  0  0  0  0  0  0  0
   -7.6740    4.4367  -14.5661 C   0  0  0  0  0  0  0  0  0  0  0  0
   -6.9168    4.9468  -16.9316 C   0  0  0  0  0  0  0  0  0  0  0  0
   -7.4253    4.9172  -18.1492 N   0  0  0  0  0  0  0  0  0  0  0  0
   -8.7332    4.5385  -18.0042 C   0  0  0  0  0  0  0  0  0  0  0  0
   -9.0435    4.3730  -16.6763 C   0  0  0  0  0  0  0  0  0  0  0  0
   -7.8709    4.5886  -16.0016 N   0  0  0  0  0  0  0  0  0  0  0  0
   -4.5877    5.0459  -17.8023 C   0  0  0  0  0  0  0  0  0  0  0  0
   -5.4934    5.3006  -16.5971 C   0  0  0  0  0  0  0  0  0  0  0  0
   -5.3862    6.7596  -16.1477 C   0  0  0  0  0  0  0  0  0  0  0  0
 22 23  1  0  0  0
 23 24  1  0  0  0
 23 17  1  0  0  0
 17 18  2  0  0  0
 18 19  1  0  0  0
 19 20  2  0  0  0
 20 21  1  0  0  0
 21 16  1  0  0  0
 16 15  1  0  0  0
 15  1  1  0  0  0
  1  2  1  0  0  0
  2  3  2  0  0  0
  2  5  1  0  0  0
  5  6  1  0  0  0
  6  7  2  0  0  0
  7  8  1  0  0  0
  8  9  1  0  0  0
  9 10  1  0  0  0
 10 11  1  0  0  0
 11 12  1  0  0  0
 12 13  1  0  0  0
 21 17  1  0  0  0
  9  5  2  0  0  0
 13  8  1  0  0  0
  1  4  1  0  0  0
 11 14  1  0  0  0
M  END
> <minimizedAffinity>
-6.03691

> <minimizedRMSD>
1.14175

$$$$
P40109


 16 16  0  0  0  0  0  0  0  0999 V2000
   -5.4050    5.2830  -17.2162 N   0  0  0  0  0  0  0  0  0  0  0  0
   -6.6231    5.0865  -16.6250 C   0  0  0  0  0  0  0  0  0  0  0  0
   -7.4784    4.6691  -17.6169 C   0  0  0  0  0  0  0  0  0  0  0  0
   -6.7809    4.6169  -18.8079 N   0  0  0  0  0  0  0  0  0  0  0  0
   -5.5358    4.9704  -18.5555 C   0  0  0  0  0  0  0  0  0  0  0  0
   -8.8852    4.3410  -17.4097 C   0  0  0  0  0  0  0  0  0  0  0  0
   -9.8072    4.4754  -18.1991 O   0  0  0  0  0  0  0  0  0  0  0  0
   -9.1359    3.8327  -16.1692 O   0  0  0  0  0  0  0  0  0  0  0  0
   -8.4352    3.7257  -15.5564 H   0  0  0  0  0  0  0  0  0  0  0  0
   -3.4318    4.6599  -15.7823 C   0  0  0  0  0  0  0  0  0  0  0  0
   -4.2338    5.7368  -16.5008 C   0  0  0  0  0  0  0  0  0  0  0  0
   -4.5762    4.9753  -19.5115 N   0  0  0  0  0  0  0  0  0  0  0  0
   -4.8521    4.5954  -20.3769 H   0  0  0  0  0  0  0  0  0  0  0  0
   -3.2102    5.4500  -19.4635 C   0  0  0  0  0  0  0  0  0  0  0  0
   -2.2449    4.2677  -19.5685 C   0  0  0  0  0  0  0  0  0  0  0  0
   -2.9600    6.4327  -20.6018 C   0  0  0  0  0  0  0  0  0  0  0  0
 10 11  1  0  0  0
 11  1  1  0  0  0
  1  2  1  0  0  0
  2  3  2  0  0  0
  3  6  1  0  0  0
  6  7  2  0  0  0
  6  8  1  0  0  0
  3  4  1  0  0  0
  4  5  2  0  0  0
  5 12  1  0  0  0
 12 14  1  0  0  0
 14 15  1  0  0  0
 14 16  1  0  0  0
  5  1  1  0  0  0
  8  9  1  0  0  0
 12 13  1  0  0  0
M  END
> <minimizedAffinity>
-4.98799

> <minimizedRMSD>
0.81508

$$$$
P40115


 15 15  0  0  0  0  0  0  0  0999 V2000
   -7.6433    4.7990  -16.1487 N   0  0  0  0  0  0  0  0  0  0  0  0
   -8.6657    4.3369  -16.9472 C   0  0  0  0  0  0  0  0  0  0  0  0
   -8.1622    4.3885  -18.2110 C   0  0  0  0  0  0  0  0  0  0  0  0
   -8.7967    4.1206  -19.3548 N   0  0  0  0  0  0  0  0  0  0  0  0
   -6.8875    4.8224  -18.2241 N   0  0  0  0  0  0  0  0  0  0  0  0
   -6.5664    5.0682  -16.9754 C   0  0  0  0  0  0  0  0  0  0  0  0
   -9.7287    3.8037  -19.3382 H   0  0  0  0  0  0  0  0  0  0  0  0
   -8.3327    4.2400  -20.2148 H   0  0  0  0  0  0  0  0  0  0  0  0
   -7.0098    3.9407  -13.8652 C   0  0  0  0  0  0  0  0  0  0  0  0
   -7.7297    4.9770  -14.7165 C   0  0  0  0  0  0  0  0  0  0  0  0
   -5.3289    5.5041  -16.6588 N   0  0  0  0  0  0  0  0  0  0  0  0
   -5.2407    6.4838  -16.6173 H   0  0  0  0  0  0  0  0  0  0  0  0
   -4.1154    4.7843  -16.3713 C   0  0  0  0  0  0  0  0  0  0  0  0
   -3.1756    4.9021  -17.5730 C   0  0  0  0  0  0  0  0  0  0  0  0
   -3.4548    5.3688  -15.1271 C   0  0  0  0  0  0  0  0  0  0  0  0
  9 10  1  0  0  0
 10  1  1  0  0  0
  1  2  1  0  0  0
  2  3  2  0  0  0
  3  4  1  0  0  0
  3  5  1  0  0  0
  5  6  2  0  0  0
  6 11  1  0  0  0
 11 13  1  0  0  0
 13 14  1  0  0  0
 13 15  1  0  0  0
  6  1  1  0  0  0
  4  7  1  0  0  0
  4  8  1  0  0  0
 11 12  1  0  0  0
M  END
> <minimizedAffinity>
-4.38912

> <minimizedRMSD>
2.66068

$$$$
P40116


 13 13  0  0  0  0  0  0  0  0999 V2000
   -5.3308    5.2680  -17.3026 N   0  0  0  0  0  0  0  0  0  0  0  0
   -6.5839    5.0466  -16.7885 C   0  0  0  0  0  0  0  0  0  0  0  0
   -7.3439    4.6537  -17.8537 C   0  0  0  0  0  0  0  0  0  0  0  0
   -9.1622    4.2226  -17.7556 Br  0  0  0  0  0  0  0  0  0  0  0  0
   -6.5977    4.6056  -18.9876 N   0  0  0  0  0  0  0  0  0  0  0  0
   -5.3831    4.9757  -18.6533 C   0  0  0  0  0  0  0  0  0  0  0  0
   -3.4243    4.6621  -15.7711 C   0  0  0  0  0  0  0  0  0  0  0  0
   -4.2019    5.7312  -16.5271 C   0  0  0  0  0  0  0  0  0  0  0  0
   -4.3948    5.0163  -19.5708 N   0  0  0  0  0  0  0  0  0  0  0  0
   -4.6589    4.7162  -20.4704 H   0  0  0  0  0  0  0  0  0  0  0  0
   -3.0180    5.4250  -19.4558 C   0  0  0  0  0  0  0  0  0  0  0  0
   -2.1282    4.1817  -19.4214 C   0  0  0  0  0  0  0  0  0  0  0  0
   -2.6459    6.3076  -20.6425 C   0  0  0  0  0  0  0  0  0  0  0  0
  7  8  1  0  0  0
  8  1  1  0  0  0
  1  2  1  0  0  0
  2  3  2  0  0  0
  3  4  1  0  0  0
  3  5  1  0  0  0
  5  6  2  0  0  0
  6  9  1  0  0  0
  9 11  1  0  0  0
 11 12  1  0  0  0
 11 13  1  0  0  0
  6  1  1  0  0  0
  9 10  1  0  0  0
M  END
> <minimizedAffinity>
-4.13780

> <minimizedRMSD>
0.89189

$$$$
P40119


 16 16  0  0  0  0  0  0  0  0999 V2000
   -4.9270    5.5705  -17.6338 N   0  0  0  0  0  0  0  0  0  0  0  0
   -6.2116    5.5678  -17.1531 C   0  0  0  0  0  0  0  0  0  0  0  0
   -6.9655    4.8719  -18.0750 C   0  0  0  0  0  0  0  0  0  0  0  0
   -6.1774    4.6181  -19.1735 N   0  0  0  0  0  0  0  0  0  0  0  0
   -4.9798    5.0817  -18.9181 C   0  0  0  0  0  0  0  0  0  0  0  0
   -3.1781    4.9040  -15.9468 C   0  0  0  0  0  0  0  0  0  0  0  0
   -3.7664    5.9670  -16.8670 C   0  0  0  0  0  0  0  0  0  0  0  0
   -8.3663    4.4464  -17.9830 C   0  0  0  0  0  0  0  0  0  0  0  0
   -8.9564    3.8526  -18.8749 O   0  0  0  0  0  0  0  0  0  0  0  0
   -9.0460    4.7637  -16.8371 O   0  0  0  0  0  0  0  0  0  0  0  0
   -8.4825    4.4182  -15.5737 C   0  0  0  0  0  0  0  0  0  0  0  0
   -4.0020    5.0145  -19.8393 N   0  0  0  0  0  0  0  0  0  0  0  0
   -4.2969    4.7444  -20.7389 H   0  0  0  0  0  0  0  0  0  0  0  0
   -2.5917    5.2759  -19.7153 C   0  0  0  0  0  0  0  0  0  0  0  0
   -1.8812    3.9412  -19.4932 C   0  0  0  0  0  0  0  0  0  0  0  0
   -2.0673    5.9644  -20.9683 C   0  0  0  0  0  0  0  0  0  0  0  0
  6  7  1  0  0  0
  7  1  1  0  0  0
  1  2  1  0  0  0
  2  3  2  0  0  0
  3  8  1  0  0  0
  8  9  2  0  0  0
  8 10  1  0  0  0
 10 11  1  0  0  0
  3  4  1  0  0  0
  4  5  2  0  0  0
  5 12  1  0  0  0
 12 14  1  0  0  0
 14 15  1  0  0  0
 14 16  1  0  0  0
  5  1  1  0  0  0
 12 13  1  0  0  0
M  END
> <minimizedAffinity>
-4.59384

> <minimizedRMSD>
0.94790

$$$$
P40120


 14 14  0  0  0  0  0  0  0  0999 V2000
   -5.6685    5.2215  -17.1471 N   0  0  0  0  0  0  0  0  0  0  0  0
   -6.9324    5.0440  -16.6452 C   0  0  0  0  0  0  0  0  0  0  0  0
   -7.6957    4.6541  -17.7129 C   0  0  0  0  0  0  0  0  0  0  0  0
   -6.9371    4.5784  -18.8440 N   0  0  0  0  0  0  0  0  0  0  0  0
   -5.7127    4.9158  -18.4965 C   0  0  0  0  0  0  0  0  0  0  0  0
   -3.6872    4.5352  -15.7494 C   0  0  0  0  0  0  0  0  0  0  0  0
   -4.5361    5.6466  -16.3533 C   0  0  0  0  0  0  0  0  0  0  0  0
   -9.0794    4.3161  -17.6417 C   0  0  0  0  0  0  0  0  0  0  0  0
  -10.2362    4.2098  -17.6374 N   0  0  0  0  0  0  0  0  0  0  0  0
   -4.7031    4.9121  -19.3926 N   0  0  0  0  0  0  0  0  0  0  0  0
   -4.8872    4.4076  -20.2177 H   0  0  0  0  0  0  0  0  0  0  0  0
   -3.3978    5.5266  -19.3399 C   0  0  0  0  0  0  0  0  0  0  0  0
   -2.3232    4.4428  -19.4372 C   0  0  0  0  0  0  0  0  0  0  0  0
   -3.2503    6.5194  -20.4876 C   0  0  0  0  0  0  0  0  0  0  0  0
  6  7  1  0  0  0
  7  1  1  0  0  0
  1  2  1  0  0  0
  2  3  2  0  0  0
  3  8  1  0  0  0
  8  9  3  0  0  0
  3  4  1  0  0  0
  4  5  2  0  0  0
  5 10  1  0  0  0
 10 12  1  0  0  0
 12 13  1  0  0  0
 12 14  1  0  0  0
  5  1  1  0  0  0
 10 11  1  0  0  0
M  END
> <minimizedAffinity>
-4.34542

> <minimizedRMSD>
0.91041

$$$$
P40122


 13 13  0  0  0  0  0  0  0  0999 V2000
   -5.3915    5.1920  -17.4182 N   0  0  0  0  0  0  0  0  0  0  0  0
   -6.6774    4.9399  -16.9998 C   0  0  0  0  0  0  0  0  0  0  0  0
   -7.3673    4.5985  -18.1345 C   0  0  0  0  0  0  0  0  0  0  0  0
   -8.8093    4.3277  -18.2918 C   0  0  0  0  0  0  0  0  0  0  0  0
   -6.5123    4.5723  -19.2059 N   0  0  0  0  0  0  0  0  0  0  0  0
   -5.3345    4.9509  -18.7714 C   0  0  0  0  0  0  0  0  0  0  0  0
   -3.7018    4.7368  -15.6956 C   0  0  0  0  0  0  0  0  0  0  0  0
   -4.4142    5.7797  -16.5331 C   0  0  0  0  0  0  0  0  0  0  0  0
   -4.3015    5.1724  -19.6147 N   0  0  0  0  0  0  0  0  0  0  0  0
   -4.5309    5.3357  -20.5581 H   0  0  0  0  0  0  0  0  0  0  0  0
   -2.8937    5.1949  -19.2777 C   0  0  0  0  0  0  0  0  0  0  0  0
   -2.1329    4.1113  -20.0400 C   0  0  0  0  0  0  0  0  0  0  0  0
   -2.3391    6.5667  -19.6632 C   0  0  0  0  0  0  0  0  0  0  0  0
  7  8  1  0  0  0
  8  1  1  0  0  0
  1  2  1  0  0  0
  2  3  2  0  0  0
  3  4  1  0  0  0
  3  5  1  0  0  0
  5  6  2  0  0  0
  6  9  1  0  0  0
  9 11  1  0  0  0
 11 12  1  0  0  0
 11 13  1  0  0  0
  6  1  1  0  0  0
  9 10  1  0  0  0
M  END
> <minimizedAffinity>
-3.98697

> <minimizedRMSD>
0.61591

$$$$
P40166


 15 16  0  0  0  0  0  0  0  0999 V2000
   -4.6718    5.0541  -18.8935 C   0  0  0  0  0  0  0  0  0  0  0  0
   -4.3066    5.3257  -17.5818 C   0  0  0  0  0  0  0  0  0  0  0  0
   -5.2575    5.2673  -16.5779 C   0  0  0  0  0  0  0  0  0  0  0  0
   -6.5557    4.9123  -16.9174 C   0  0  0  0  0  0  0  0  0  0  0  0
   -7.5120    4.7269  -15.9242 C   0  0  0  0  0  0  0  0  0  0  0  0
   -8.7907    4.3360  -16.2835 C   0  0  0  0  0  0  0  0  0  0  0  0
   -9.1417    4.1796  -17.6172 C   0  0  0  0  0  0  0  0  0  0  0  0
   -8.1759    4.3585  -18.6022 C   0  0  0  0  0  0  0  0  0  0  0  0
   -6.8716    4.7000  -18.2754 C   0  0  0  0  0  0  0  0  0  0  0  0
   -5.9410    4.7869  -19.2358 N   0  0  0  0  0  0  0  0  0  0  0  0
   -3.7773    4.9571  -19.9222 N   0  0  0  0  0  0  0  0  0  0  0  0
   -4.1391    4.7461  -20.8132 H   0  0  0  0  0  0  0  0  0  0  0  0
   -1.7100    3.7810  -19.5616 C   0  0  0  0  0  0  0  0  0  0  0  0
   -2.3514    5.1364  -19.8177 C   0  0  0  0  0  0  0  0  0  0  0  0
   -1.8142    5.7765  -21.0901 C   0  0  0  0  0  0  0  0  0  0  0  0
 13 14  1  0  0  0
 14 15  1  0  0  0
 14 11  1  0  0  0
 11  1  1  0  0  0
  1  2  2  0  0  0
  2  3  1  0  0  0
  3  4  2  0  0  0
  4  5  1  0  0  0
  5  6  2  0  0  0
  6  7  1  0  0  0
  7  8  2  0  0  0
  8  9  1  0  0  0
  9 10  2  0  0  0
 10  1  1  0  0  0
  9  4  1  0  0  0
 11 12  1  0  0  0
M  END
> <minimizedAffinity>
-6.03632

> <minimizedRMSD>
0.69025

$$$$
P40191


 17 18  0  0  0  0  0  0  0  0999 V2000
   -8.1196    4.4564  -17.6640 C   0  0  0  0  0  0  0  0  0  0  0  0
   -8.7111    4.3696  -16.4080 C   0  0  0  0  0  0  0  0  0  0  0  0
   -7.9579    4.6388  -15.2825 C   0  0  0  0  0  0  0  0  0  0  0  0
   -6.6119    4.9870  -15.4125 C   0  0  0  0  0  0  0  0  0  0  0  0
   -5.9997    4.9930  -16.6953 C   0  0  0  0  0  0  0  0  0  0  0  0
   -4.6298    5.2556  -16.8832 C   0  0  0  0  0  0  0  0  0  0  0  0
   -4.0742    5.2609  -18.1561 C   0  0  0  0  0  0  0  0  0  0  0  0
   -4.9113    5.0160  -19.2218 C   0  0  0  0  0  0  0  0  0  0  0  0
   -6.2281    4.7771  -19.0898 N   0  0  0  0  0  0  0  0  0  0  0  0
   -6.7659    4.7338  -17.8492 C   0  0  0  0  0  0  0  0  0  0  0  0
  -10.3068    4.5382  -18.2987 C   0  0  0  0  0  0  0  0  0  0  0  0
   -8.9746    4.4643  -18.7355 O   0  0  0  0  0  0  0  0  0  0  0  0
   -5.9047    5.4262  -14.2553 N   0  0  0  0  0  0  0  0  0  0  0  0
   -5.0300    5.0672  -13.9808 H   0  0  0  0  0  0  0  0  0  0  0  0
   -6.6283    6.4792  -13.5129 C   0  0  0  0  0  0  0  0  0  0  0  0
   -6.4061    6.2459  -12.0191 C   0  0  0  0  0  0  0  0  0  0  0  0
   -6.1228    7.8720  -13.8857 C   0  0  0  0  0  0  0  0  0  0  0  0
 11 12  1  0  0  0
 12  1  1  0  0  0
  1  2  2  0  0  0
  2  3  1  0  0  0
  3  4  2  0  0  0
  4 13  1  0  0  0
 13 15  1  0  0  0
 15 16  1  0  0  0
 15 17  1  0  0  0
  4  5  1  0  0  0
  5  6  2  0  0  0
  6  7  1  0  0  0
  7  8  2  0  0  0
  8  9  1  0  0  0
  9 10  2  0  0  0
 10  1  1  0  0  0
 10  5  1  0  0  0
 13 14  1  0  0  0
M  END
> <minimizedAffinity>
-5.26907

> <minimizedRMSD>
1.23007

$$$$
P40533


 23 25  0  0  0  0  0  0  0  0999 V2000
   -2.8805    3.8338  -16.1795 O   0  0  0  0  0  0  0  0  0  0  0  0
   -3.4078    4.6902  -15.5874 C   0  0  0  0  0  0  0  0  0  0  0  0
   -3.4599    4.9734  -14.0627 N   0  0  0  0  0  0  0  0  0  0  0  0
   -3.9119    5.8120  -13.8143 H   0  0  0  0  0  0  0  0  0  0  0  0
   -4.1973    5.7933  -16.2861 C   0  0  0  0  0  0  0  0  0  0  0  0
   -5.2065    5.2496  -17.1721 N   0  0  0  0  0  0  0  0  0  0  0  0
   -5.0590    5.0863  -18.5182 C   0  0  0  0  0  0  0  0  0  0  0  0
   -6.1843    4.7277  -19.0831 N   0  0  0  0  0  0  0  0  0  0  0  0
   -7.0991    4.6546  -18.0675 C   0  0  0  0  0  0  0  0  0  0  0  0
   -8.4680    4.3635  -18.1204 C   0  0  0  0  0  0  0  0  0  0  0  0
   -9.1876    4.3085  -16.9270 C   0  0  0  0  0  0  0  0  0  0  0  0
   -8.5485    4.5158  -15.7035 C   0  0  0  0  0  0  0  0  0  0  0  0
   -7.1905    4.8414  -15.6292 C   0  0  0  0  0  0  0  0  0  0  0  0
   -6.4976    4.9221  -16.8395 C   0  0  0  0  0  0  0  0  0  0  0  0
   -2.9532    4.2070  -12.9492 C   0  0  0  0  0  0  0  0  0  0  0  0
   -4.1100    3.4443  -12.3329 C   0  0  0  0  0  0  0  0  0  0  0  0
   -4.2809    3.4238  -11.0489 N   0  0  0  0  0  0  0  0  0  0  0  0
   -5.3434    2.6861  -10.5907 C   0  0  0  0  0  0  0  0  0  0  0  0
   -6.2278    2.0535  -11.3672 C   0  0  0  0  0  0  0  0  0  0  0  0
   -6.0651    2.1554  -12.8181 C   0  0  0  0  0  0  0  0  0  0  0  0
   -6.8999    1.7049  -13.5915 O   0  0  0  0  0  0  0  0  0  0  0  0
   -4.9331    2.7993  -13.2187 N   0  0  0  0  0  0  0  0  0  0  0  0
   -4.6990    2.8013  -14.1749 H   0  0  0  0  0  0  0  0  0  0  0  0
  1  2  2  0  0  0
  2  5  1  0  0  0
  5  6  1  0  0  0
  6  7  1  0  0  0
  7  8  2  0  0  0
  8  9  1  0  0  0
  9 10  2  0  0  0
 10 11  1  0  0  0
 11 12  2  0  0  0
 12 13  1  0  0  0
 13 14  2  0  0  0
  2  3  1  0  0  0
  3 15  1  0  0  0
 15 16  1  0  0  0
 16 17  2  0  0  0
 17 18  1  0  0  0
 18 19  2  0  0  0
 19 20  1  0  0  0
 20 21  2  0  0  0
 20 22  1  0  0  0
 14  6  1  0  0  0
 22 16  1  0  0  0
 14  9  1  0  0  0
  3  4  1  0  0  0
 22 23  1  0  0  0
M  END
> <minimizedAffinity>
-5.69537

> <minimizedRMSD>
0.45467

$$$$
P40539


 24 26  0  0  0  0  0  0  0  0999 V2000
   -3.4034    5.6001  -14.2114 N   0  0  0  0  0  0  0  0  0  0  0  0
   -3.1000    5.6220  -15.7387 C   0  0  0  0  0  0  0  0  0  0  0  0
   -2.2010    5.1767  -16.3381 O   0  0  0  0  0  0  0  0  0  0  0  0
   -4.1964    6.1171  -13.9410 H   0  0  0  0  0  0  0  0  0  0  0  0
   -2.7106    4.9446  -13.1277 C   0  0  0  0  0  0  0  0  0  0  0  0
   -2.5057    3.0543  -11.5146 C   0  0  0  0  0  0  0  0  0  0  0  0
   -3.4233    3.6782  -12.5897 C   0  0  0  0  0  0  0  0  0  0  0  0
   -4.7929    4.0173  -11.9308 C   0  0  0  0  0  0  0  0  0  0  0  0
   -5.9753    3.7710  -12.8674 C   0  0  0  0  0  0  0  0  0  0  0  0
   -5.9908    2.3182  -13.2446 C   0  0  0  0  0  0  0  0  0  0  0  0
   -7.0143    1.6625  -13.3682 O   0  0  0  0  0  0  0  0  0  0  0  0
   -4.7451    1.7966  -13.4750 N   0  0  0  0  0  0  0  0  0  0  0  0
   -3.6129    2.6511  -13.7280 C   0  0  0  0  0  0  0  0  0  0  0  0
   -4.6213    0.8199  -13.4677 H   0  0  0  0  0  0  0  0  0  0  0  0
   -4.2032    6.4514  -16.3966 C   0  0  0  0  0  0  0  0  0  0  0  0
   -5.1181    5.6507  -17.1839 N   0  0  0  0  0  0  0  0  0  0  0  0
   -4.8724    5.2032  -18.4489 C   0  0  0  0  0  0  0  0  0  0  0  0
   -5.9363    4.6546  -18.9804 N   0  0  0  0  0  0  0  0  0  0  0  0
   -6.9137    4.7523  -18.0279 C   0  0  0  0  0  0  0  0  0  0  0  0
   -8.2570    4.3597  -18.0865 C   0  0  0  0  0  0  0  0  0  0  0  0
   -9.0539    4.5161  -16.9531 C   0  0  0  0  0  0  0  0  0  0  0  0
   -8.5192    5.0559  -15.7837 C   0  0  0  0  0  0  0  0  0  0  0  0
   -7.2001    5.5121  -15.7234 C   0  0  0  0  0  0  0  0  0  0  0  0
   -6.4175    5.3397  -16.8667 C   0  0  0  0  0  0  0  0  0  0  0  0
  7  6  1  0  0  0
  7  5  1  0  0  0
  5  1  1  0  0  0
  1  2  1  0  0  0
  2  3  2  0  0  0
  2 15  1  0  0  0
 15 16  1  0  0  0
 16 17  1  0  0  0
 17 18  2  0  0  0
 18 19  1  0  0  0
 19 20  2  0  0  0
 20 21  1  0  0  0
 21 22  2  0  0  0
 22 23  1  0  0  0
 23 24  2  0  0  0
  7  8  1  0  0  0
  8  9  1  0  0  0
  9 10  1  0  0  0
 10 11  2  0  0  0
 10 12  1  0  0  0
 12 13  1  0  0  0
 13  7  1  0  0  0
 24 16  1  0  0  0
 24 19  1  0  0  0
  1  4  1  0  0  0
 12 14  1  0  0  0
M  END
> <minimizedAffinity>
-5.86205

> <minimizedRMSD>
0.63062

$$$$
P40546


 24 26  0  0  0  0  0  0  0  0999 V2000
   -2.0400    4.9422  -15.8746 O   0  0  0  0  0  0  0  0  0  0  0  0
   -3.1672    4.7839  -15.6128 C   0  0  0  0  0  0  0  0  0  0  0  0
   -3.8753    3.6094  -14.8870 N   0  0  0  0  0  0  0  0  0  0  0  0
   -4.8352    3.7481  -14.7177 H   0  0  0  0  0  0  0  0  0  0  0  0
   -4.2344    5.8110  -15.9614 C   0  0  0  0  0  0  0  0  0  0  0  0
   -5.1454    5.3010  -16.9600 N   0  0  0  0  0  0  0  0  0  0  0  0
   -4.8252    5.1221  -18.2743 C   0  0  0  0  0  0  0  0  0  0  0  0
   -5.8628    4.7363  -18.9727 N   0  0  0  0  0  0  0  0  0  0  0  0
   -6.9008    4.6776  -18.0847 C   0  0  0  0  0  0  0  0  0  0  0  0
   -8.2461    4.3644  -18.3137 C   0  0  0  0  0  0  0  0  0  0  0  0
   -9.1171    4.3145  -17.2267 C   0  0  0  0  0  0  0  0  0  0  0  0
   -8.6533    4.5688  -15.9354 C   0  0  0  0  0  0  0  0  0  0  0  0
   -7.3262    4.9358  -15.6909 C   0  0  0  0  0  0  0  0  0  0  0  0
   -6.4710    4.9838  -16.7948 C   0  0  0  0  0  0  0  0  0  0  0  0
   -3.3558    2.3477  -14.4201 C   0  0  0  0  0  0  0  0  0  0  0  0
   -3.1018    2.2907  -12.8978 C   0  0  0  0  0  0  0  0  0  0  0  0
   -2.2435    1.0591  -12.5564 C   0  0  0  0  0  0  0  0  0  0  0  0
   -0.8136    1.4391  -12.9313 C   0  0  0  0  0  0  0  0  0  0  0  0
   -0.7457    2.9611  -12.8448 C   0  0  0  0  0  0  0  0  0  0  0  0
   -2.1484    3.4263  -12.4617 C   0  0  0  0  0  0  0  0  0  0  0  0
   -4.3965    2.3529  -12.0509 C   0  0  0  0  0  0  0  0  0  0  0  0
   -5.7319    2.0496  -12.7259 C   0  0  0  0  0  0  0  0  0  0  0  0
   -6.4428    1.0230  -12.0702 O   0  0  0  0  0  0  0  0  0  0  0  0
   -5.9229    0.2044  -12.0925 H   0  0  0  0  0  0  0  0  0  0  0  0
  1  2  2  0  0  0
  2  5  1  0  0  0
  5  6  1  0  0  0
  6  7  1  0  0  0
  7  8  2  0  0  0
  8  9  1  0  0  0
  9 10  2  0  0  0
 10 11  1  0  0  0
 11 12  2  0  0  0
 12 13  1  0  0  0
 13 14  2  0  0  0
  2  3  1  0  0  0
  3 15  1  0  0  0
 15 16  1  0  0  0
 16 21  1  0  0  0
 21 22  1  0  0  0
 22 23  1  0  0  0
 16 17  1  0  0  0
 17 18  1  0  0  0
 18 19  1  0  0  0
 19 20  1  0  0  0
 14  6  1  0  0  0
 20 16  1  0  0  0
 14  9  1  0  0  0
  3  4  1  0  0  0
 23 24  1  0  0  0
M  END
> <minimizedAffinity>
-5.96694

> <minimizedRMSD>
0.97340

$$$$
P40549


 22 24  0  0  0  0  0  0  0  0999 V2000
   -3.4944    4.0263  -15.1624 N   0  0  0  0  0  0  0  0  0  0  0  0
   -3.8738    5.5248  -15.0079 C   0  0  0  0  0  0  0  0  0  0  0  0
   -3.9153    6.2010  -14.0555 O   0  0  0  0  0  0  0  0  0  0  0  0
   -3.6119    3.6626  -16.0697 H   0  0  0  0  0  0  0  0  0  0  0  0
   -2.9971    3.0799  -14.1907 C   0  0  0  0  0  0  0  0  0  0  0  0
   -5.3020    1.4074  -10.2115 C   0  0  0  0  0  0  0  0  0  0  0  0
   -5.0759    1.9152  -11.5430 N   0  0  0  0  0  0  0  0  0  0  0  0
   -6.1598    2.0698  -12.4783 C   0  0  0  0  0  0  0  0  0  0  0  0
   -5.4909    2.7237  -13.6666 C   0  0  0  0  0  0  0  0  0  0  0  0
   -4.0699    2.1591  -13.6374 C   0  0  0  0  0  0  0  0  0  0  0  0
   -3.8378    1.8975  -12.1660 C   0  0  0  0  0  0  0  0  0  0  0  0
   -2.7507    1.6737  -11.6581 O   0  0  0  0  0  0  0  0  0  0  0  0
   -4.1502    6.0882  -16.3889 C   0  0  0  0  0  0  0  0  0  0  0  0
   -5.1627    5.4029  -17.1674 N   0  0  0  0  0  0  0  0  0  0  0  0
   -4.9674    5.0576  -18.4772 C   0  0  0  0  0  0  0  0  0  0  0  0
   -6.0581    4.5888  -19.0255 N   0  0  0  0  0  0  0  0  0  0  0  0
   -7.0137    4.6710  -18.0541 C   0  0  0  0  0  0  0  0  0  0  0  0
   -8.3765    4.3629  -18.1362 C   0  0  0  0  0  0  0  0  0  0  0  0
   -9.1567    4.4598  -16.9873 C   0  0  0  0  0  0  0  0  0  0  0  0
   -8.5870    4.8662  -15.7814 C   0  0  0  0  0  0  0  0  0  0  0  0
   -7.2433    5.2444  -15.6942 C   0  0  0  0  0  0  0  0  0  0  0  0
   -6.4713    5.1301  -16.8533 C   0  0  0  0  0  0  0  0  0  0  0  0
  6  7  1  0  0  0
  7  8  1  0  0  0
  8  9  1  0  0  0
  9 10  1  0  0  0
 10  5  1  0  0  0
  5  1  1  0  0  0
  1  2  1  0  0  0
  2  3  2  0  0  0
  2 13  1  0  0  0
 13 14  1  0  0  0
 14 15  1  0  0  0
 15 16  2  0  0  0
 16 17  1  0  0  0
 17 18  2  0  0  0
 18 19  1  0  0  0
 19 20  2  0  0  0
 20 21  1  0  0  0
 21 22  2  0  0  0
 10 11  1  0  0  0
 11 12  2  0  0  0
 11  7  1  0  0  0
 22 14  1  0  0  0
 22 17  1  0  0  0
  1  4  1  0  0  0
M  END
> <minimizedAffinity>
-5.57005

> <minimizedRMSD>
0.63077

$$$$
P40550


 22 24  0  0  0  0  0  0  0  0999 V2000
   -4.0093    5.0780  -13.6383 N   0  0  0  0  0  0  0  0  0  0  0  0
   -3.7324    4.4728  -15.0439 C   0  0  0  0  0  0  0  0  0  0  0  0
   -3.2733    3.4423  -15.3468 O   0  0  0  0  0  0  0  0  0  0  0  0
   -4.4788    5.9433  -13.6472 H   0  0  0  0  0  0  0  0  0  0  0  0
   -3.6901    4.5774  -12.3244 C   0  0  0  0  0  0  0  0  0  0  0  0
   -4.2514    3.6257   -9.5843 C   0  0  0  0  0  0  0  0  0  0  0  0
   -3.7736    2.7242  -10.6342 N   0  0  0  0  0  0  0  0  0  0  0  0
   -4.2983    1.3564  -10.4061 C   0  0  0  0  0  0  0  0  0  0  0  0
   -5.7957    1.2236  -10.7194 C   0  0  0  0  0  0  0  0  0  0  0  0
   -6.0876    1.5841  -12.0828 O   0  0  0  0  0  0  0  0  0  0  0  0
   -5.6521    2.9239  -12.3489 C   0  0  0  0  0  0  0  0  0  0  0  0
   -4.1485    3.1318  -12.0259 C   0  0  0  0  0  0  0  0  0  0  0  0
   -4.1341    5.5235  -16.0708 C   0  0  0  0  0  0  0  0  0  0  0  0
   -5.1215    5.0527  -17.0163 N   0  0  0  0  0  0  0  0  0  0  0  0
   -4.9007    4.9295  -18.3573 C   0  0  0  0  0  0  0  0  0  0  0  0
   -6.0106    4.6896  -19.0084 N   0  0  0  0  0  0  0  0  0  0  0  0
   -6.9908    4.6470  -18.0575 C   0  0  0  0  0  0  0  0  0  0  0  0
   -8.3677    4.4477  -18.2144 C   0  0  0  0  0  0  0  0  0  0  0  0
   -9.1727    4.3907  -17.0789 C   0  0  0  0  0  0  0  0  0  0  0  0
   -8.6110    4.5264  -15.8102 C   0  0  0  0  0  0  0  0  0  0  0  0
   -7.2477    4.7774  -15.6334 C   0  0  0  0  0  0  0  0  0  0  0  0
   -6.4578    4.8345  -16.7835 C   0  0  0  0  0  0  0  0  0  0  0  0
  6  7  1  0  0  0
  7  8  1  0  0  0
  8  9  1  0  0  0
  9 10  1  0  0  0
 10 11  1  0  0  0
 11 12  1  0  0  0
 12  5  1  0  0  0
  5  1  1  0  0  0
  1  2  1  0  0  0
  2  3  2  0  0  0
  2 13  1  0  0  0
 13 14  1  0  0  0
 14 15  1  0  0  0
 15 16  2  0  0  0
 16 17  1  0  0  0
 17 18  2  0  0  0
 18 19  1  0  0  0
 19 20  2  0  0  0
 20 21  1  0  0  0
 21 22  2  0  0  0
 12  7  1  0  0  0
 22 14  1  0  0  0
 22 17  1  0  0  0
  1  4  1  0  0  0
M  END
> <minimizedAffinity>
-5.30714

> <minimizedRMSD>
0.64384

$$$$
P40557


 24 27  0  0  0  0  0  0  0  0999 V2000
   -2.6952    4.1842  -15.1827 O   0  0  0  0  0  0  0  0  0  0  0  0
   -3.7500    4.4444  -14.7502 C   0  0  0  0  0  0  0  0  0  0  0  0
   -4.5351    3.8162  -13.5625 N   0  0  0  0  0  0  0  0  0  0  0  0
   -5.4483    4.1638  -13.4419 H   0  0  0  0  0  0  0  0  0  0  0  0
   -4.5874    5.5786  -15.3323 C   0  0  0  0  0  0  0  0  0  0  0  0
   -5.2064    5.1870  -16.5789 N   0  0  0  0  0  0  0  0  0  0  0  0
   -4.5707    5.0946  -17.7825 C   0  0  0  0  0  0  0  0  0  0  0  0
   -5.4039    4.7752  -18.7419 N   0  0  0  0  0  0  0  0  0  0  0  0
   -6.6310    4.6753  -18.1439 C   0  0  0  0  0  0  0  0  0  0  0  0
   -7.8818    4.3966  -18.7091 C   0  0  0  0  0  0  0  0  0  0  0  0
   -8.9930    4.3100  -17.8713 C   0  0  0  0  0  0  0  0  0  0  0  0
   -8.8554    4.4979  -16.4964 C   0  0  0  0  0  0  0  0  0  0  0  0
   -7.6283    4.8246  -15.9178 C   0  0  0  0  0  0  0  0  0  0  0  0
   -6.5317    4.8988  -16.7739 C   0  0  0  0  0  0  0  0  0  0  0  0
   -4.1431    2.8108  -12.6128 C   0  0  0  0  0  0  0  0  0  0  0  0
   -5.2689    2.0843  -11.8663 C   0  0  0  0  0  0  0  0  0  0  0  0
   -6.5786    1.9825  -12.6720 C   0  0  0  0  0  0  0  0  0  0  0  0
   -7.4288    3.2494  -12.6620 C   0  0  0  0  0  0  0  0  0  0  0  0
   -7.4754    3.8541  -11.3588 N   0  0  0  0  0  0  0  0  0  0  0  0
   -8.3484    4.7776  -10.8899 C   0  0  0  0  0  0  0  0  0  0  0  0
   -7.8924    5.2592   -9.7545 N   0  0  0  0  0  0  0  0  0  0  0  0
   -6.7413    4.5686   -9.4355 N   0  0  0  0  0  0  0  0  0  0  0  0
   -6.5310    3.6856  -10.3867 C   0  0  0  0  0  0  0  0  0  0  0  0
   -5.4986    2.6229  -10.4452 C   0  0  0  0  0  0  0  0  0  0  0  0
  1  2  2  0  0  0
  2  5  1  0  0  0
  5  6  1  0  0  0
  6  7  1  0  0  0
  7  8  2  0  0  0
  8  9  1  0  0  0
  9 10  2  0  0  0
 10 11  1  0  0  0
 11 12  2  0  0  0
 12 13  1  0  0  0
 13 14  2  0  0  0
  2  3  1  0  0  0
  3 15  1  0  0  0
 16 15  1  0  0  0
 16 17  1  0  0  0
 17 18  1  0  0  0
 18 19  1  0  0  0
 19 20  1  0  0  0
 20 21  2  0  0  0
 21 22  1  0  0  0
 22 23  2  0  0  0
 23 24  1  0  0  0
 14  6  1  0  0  0
 24 16  1  0  0  0
 14  9  1  0  0  0
 23 19  1  0  0  0
  3  4  1  0  0  0
M  END
> <minimizedAffinity>
-5.96670

> <minimizedRMSD>
1.46556

$$$$
P40560


 24 27  0  0  0  0  0  0  0  0999 V2000
   -2.0294    5.0397  -15.9892 O   0  0  0  0  0  0  0  0  0  0  0  0
   -3.1543    4.8540  -15.7338 C   0  0  0  0  0  0  0  0  0  0  0  0
   -3.8271    3.7099  -14.9278 N   0  0  0  0  0  0  0  0  0  0  0  0
   -4.7951    3.8198  -14.7855 H   0  0  0  0  0  0  0  0  0  0  0  0
   -4.2425    5.8517  -16.1095 C   0  0  0  0  0  0  0  0  0  0  0  0
   -5.1873    5.3115  -17.0611 N   0  0  0  0  0  0  0  0  0  0  0  0
   -4.9223    5.0919  -18.3813 C   0  0  0  0  0  0  0  0  0  0  0  0
   -5.9891    4.6854  -19.0247 N   0  0  0  0  0  0  0  0  0  0  0  0
   -6.9901    4.6551  -18.0946 C   0  0  0  0  0  0  0  0  0  0  0  0
   -8.3427    4.3272  -18.2530 C   0  0  0  0  0  0  0  0  0  0  0  0
   -9.1680    4.3128  -17.1297 C   0  0  0  0  0  0  0  0  0  0  0  0
   -8.6540    4.6386  -15.8753 C   0  0  0  0  0  0  0  0  0  0  0  0
   -7.3254    5.0386  -15.7082 C   0  0  0  0  0  0  0  0  0  0  0  0
   -6.5098    5.0174  -16.8390 C   0  0  0  0  0  0  0  0  0  0  0  0
   -3.2644    2.5127  -14.3539 C   0  0  0  0  0  0  0  0  0  0  0  0
   -3.4135    2.5274  -12.8233 C   0  0  0  0  0  0  0  0  0  0  0  0
   -2.5970    1.3144  -12.2349 C   0  0  0  0  0  0  0  0  0  0  0  0
   -2.0090    2.2651  -11.1824 C   0  0  0  0  0  0  0  0  0  0  0  0
   -2.3146    3.4263  -12.1401 C   0  0  0  0  0  0  0  0  0  0  0  0
   -4.8991    2.6272  -12.3713 C   0  0  0  0  0  0  0  0  0  0  0  0
   -5.2306    3.8673  -11.5521 C   0  0  0  0  0  0  0  0  0  0  0  0
   -5.1535    3.3933  -10.1238 C   0  0  0  0  0  0  0  0  0  0  0  0
   -5.6359    1.9695  -10.2450 C   0  0  0  0  0  0  0  0  0  0  0  0
   -5.2851    1.5099  -11.5599 O   0  0  0  0  0  0  0  0  0  0  0  0
  1  2  2  0  0  0
  2  5  1  0  0  0
  5  6  1  0  0  0
  6  7  1  0  0  0
  7  8  2  0  0  0
  8  9  1  0  0  0
  9 10  2  0  0  0
 10 11  1  0  0  0
 11 12  2  0  0  0
 12 13  1  0  0  0
 13 14  2  0  0  0
  2  3  1  0  0  0
  3 15  1  0  0  0
 15 16  1  0  0  0
 20 16  1  0  0  0
 20 21  1  0  0  0
 21 22  1  0  0  0
 22 23  1  0  0  0
 23 24  1  0  0  0
 16 17  1  0  0  0
 17 18  1  0  0  0
 18 19  1  0  0  0
 14  6  1  0  0  0
 19 16  1  0  0  0
 14  9  1  0  0  0
 24 20  1  0  0  0
  3  4  1  0  0  0
M  END
> <minimizedAffinity>
-5.43520

> <minimizedRMSD>
1.16011

$$$$
P40573


 23 25  0  0  0  0  0  0  0  0999 V2000
   -3.7082    3.3329  -14.7594 N   0  0  0  0  0  0  0  0  0  0  0  0
   -3.0324    4.6159  -15.3091 C   0  0  0  0  0  0  0  0  0  0  0  0
   -1.9017    4.8987  -15.3952 O   0  0  0  0  0  0  0  0  0  0  0  0
   -4.6864    3.3037  -14.8669 H   0  0  0  0  0  0  0  0  0  0  0  0
   -3.1369    2.1759  -14.1165 C   0  0  0  0  0  0  0  0  0  0  0  0
   -3.2501    2.2149  -12.5765 C   0  0  0  0  0  0  0  0  0  0  0  0
   -2.4734    1.0550  -11.9386 C   0  0  0  0  0  0  0  0  0  0  0  0
   -1.0966    1.6371  -11.7362 C   0  0  0  0  0  0  0  0  0  0  0  0
   -1.4179    3.0673  -11.3721 C   0  0  0  0  0  0  0  0  0  0  0  0
   -2.5919    3.4271  -12.1096 O   0  0  0  0  0  0  0  0  0  0  0  0
   -4.7097    2.2094  -12.0899 C   0  0  0  0  0  0  0  0  0  0  0  0
   -6.9577    2.3224  -12.7624 C   0  0  0  0  0  0  0  0  0  0  0  0
   -5.6366    1.9769  -13.1575 O   0  0  0  0  0  0  0  0  0  0  0  0
   -4.1347    5.6016  -15.6657 C   0  0  0  0  0  0  0  0  0  0  0  0
   -4.9898    5.1411  -16.7354 N   0  0  0  0  0  0  0  0  0  0  0  0
   -4.6225    5.0438  -18.0465 C   0  0  0  0  0  0  0  0  0  0  0  0
   -5.6470    4.7586  -18.8129 N   0  0  0  0  0  0  0  0  0  0  0  0
   -6.7241    4.6797  -17.9723 C   0  0  0  0  0  0  0  0  0  0  0  0
   -8.0722    4.4347  -18.2670 C   0  0  0  0  0  0  0  0  0  0  0  0
   -8.9895    4.3702  -17.2187 C   0  0  0  0  0  0  0  0  0  0  0  0
   -8.5660    4.5394  -15.9008 C   0  0  0  0  0  0  0  0  0  0  0  0
   -7.2345    4.8223  -15.5862 C   0  0  0  0  0  0  0  0  0  0  0  0
   -6.3357    4.8858  -16.6512 C   0  0  0  0  0  0  0  0  0  0  0  0
 12 13  1  0  0  0
 13 11  1  0  0  0
  6 11  1  0  0  0
  6  5  1  0  0  0
  5  1  1  0  0  0
  1  2  1  0  0  0
  2  3  2  0  0  0
  2 14  1  0  0  0
 14 15  1  0  0  0
 15 16  1  0  0  0
 16 17  2  0  0  0
 17 18  1  0  0  0
 18 19  2  0  0  0
 19 20  1  0  0  0
 20 21  2  0  0  0
 21 22  1  0  0  0
 22 23  2  0  0  0
  6  7  1  0  0  0
  7  8  1  0  0  0
  8  9  1  0  0  0
  9 10  1  0  0  0
 10  6  1  0  0  0
 23 15  1  0  0  0
 23 18  1  0  0  0
  1  4  1  0  0  0
M  END
> <minimizedAffinity>
-5.40371

> <minimizedRMSD>
0.88812

$$$$
P40576


 24 26  0  0  0  0  0  0  0  0999 V2000
   -3.4766    4.5020  -15.0647 N   0  0  0  0  0  0  0  0  0  0  0  0
   -2.9251    5.3727  -16.2280 C   0  0  0  0  0  0  0  0  0  0  0  0
   -1.8799    5.3638  -16.7504 O   0  0  0  0  0  0  0  0  0  0  0  0
   -4.4260    4.6518  -14.8517 H   0  0  0  0  0  0  0  0  0  0  0  0
   -2.8244    3.5121  -14.2482 C   0  0  0  0  0  0  0  0  0  0  0  0
   -3.7147    3.1219  -13.0668 C   0  0  0  0  0  0  0  0  0  0  0  0
   -4.1607    4.2720  -12.1039 C   0  0  0  0  0  0  0  0  0  0  0  0
   -2.8842    4.0242  -11.2814 C   0  0  0  0  0  0  0  0  0  0  0  0
   -2.8435    2.6034  -11.8722 C   0  0  0  0  0  0  0  0  0  0  0  0
   -4.8037    2.0996  -13.4287 C   0  0  0  0  0  0  0  0  0  0  0  0
   -6.1541    2.7446  -13.7084 C   0  0  0  0  0  0  0  0  0  0  0  0
   -7.2065    2.0197  -13.0874 O   0  0  0  0  0  0  0  0  0  0  0  0
   -8.0162    4.1485  -12.1695 C   0  0  0  0  0  0  0  0  0  0  0  0
   -7.7541    2.6694  -11.9358 C   0  0  0  0  0  0  0  0  0  0  0  0
   -4.0395    6.3091  -16.6835 C   0  0  0  0  0  0  0  0  0  0  0  0
   -5.0818    5.5894  -17.3835 N   0  0  0  0  0  0  0  0  0  0  0  0
   -4.9611    5.0741  -18.6418 C   0  0  0  0  0  0  0  0  0  0  0  0
   -6.0898    4.5599  -19.0608 N   0  0  0  0  0  0  0  0  0  0  0  0
   -6.9811    4.7512  -18.0407 C   0  0  0  0  0  0  0  0  0  0  0  0
   -8.3400    4.4194  -17.9736 C   0  0  0  0  0  0  0  0  0  0  0  0
   -9.0380    4.6811  -16.7959 C   0  0  0  0  0  0  0  0  0  0  0  0
   -8.3879    5.2530  -15.7026 C   0  0  0  0  0  0  0  0  0  0  0  0
   -7.0443    5.6322  -15.7618 C   0  0  0  0  0  0  0  0  0  0  0  0
   -6.3663    5.3690  -16.9535 C   0  0  0  0  0  0  0  0  0  0  0  0
 13 14  1  0  0  0
 14 12  1  0  0  0
 12 11  1  0  0  0
 11 10  1  0  0  0
 10  6  1  0  0  0
  6  5  1  0  0  0
  5  1  1  0  0  0
  1  2  1  0  0  0
  2  3  2  0  0  0
  2 15  1  0  0  0
 15 16  1  0  0  0
 16 17  1  0  0  0
 17 18  2  0  0  0
 18 19  1  0  0  0
 19 20  2  0  0  0
 20 21  1  0  0  0
 21 22  2  0  0  0
 22 23  1  0  0  0
 23 24  2  0  0  0
  6  7  1  0  0  0
  7  8  1  0  0  0
  8  9  1  0  0  0
  9  6  1  0  0  0
 24 16  1  0  0  0
 24 19  1  0  0  0
  1  4  1  0  0  0
M  END
> <minimizedAffinity>
-4.79959

> <minimizedRMSD>
0.66377

$$$$
P40631


 22 24  0  0  0  0  0  0  0  0999 V2000
   -5.4947    4.8836  -12.6138 C   0  0  0  0  0  0  0  0  0  0  0  0
   -7.2676    4.8488  -12.6220 S   0  0  0  0  0  0  0  0  0  0  0  0
   -7.6785    3.4894  -12.8854 O   0  0  0  0  0  0  0  0  0  0  0  0
   -7.7699    6.0838  -13.3806 N   0  0  0  0  0  0  0  0  0  0  0  0
   -7.6479    5.1519  -10.9683 C   0  0  0  0  0  0  0  0  0  0  0  0
   -7.4534    6.3358  -10.2307 C   0  0  0  0  0  0  0  0  0  0  0  0
   -7.7100    6.1808   -8.9201 N   0  0  0  0  0  0  0  0  0  0  0  0
   -8.1106    4.8934   -8.8376 N   0  0  0  0  0  0  0  0  0  0  0  0
   -8.0861    4.2364  -10.0324 C   0  0  0  0  0  0  0  0  0  0  0  0
   -8.4988    2.8200  -10.1248 C   0  0  0  0  0  0  0  0  0  0  0  0
   -8.4487    2.1581   -8.8168 N   0  0  0  0  0  0  0  0  0  0  0  0
   -9.1585    2.9328   -7.8002 C   0  0  0  0  0  0  0  0  0  0  0  0
   -8.4524    4.2715   -7.5683 C   0  0  0  0  0  0  0  0  0  0  0  0
   -7.4740    2.0540   -8.5345 H   0  0  0  0  0  0  0  0  0  0  0  0
   -8.7171    5.8630  -14.4249 C   0  0  0  0  0  0  0  0  0  0  0  0
   -9.8640    6.2791  -14.2662 O   0  0  0  0  0  0  0  0  0  0  0  0
   -8.3918    5.1951  -15.7842 C   0  0  0  0  0  0  0  0  0  0  0  0
   -9.4091    4.6182  -16.4735 N   0  0  0  0  0  0  0  0  0  0  0  0
   -9.1498    4.2347  -17.7377 C   0  0  0  0  0  0  0  0  0  0  0  0
   -7.9277    4.4055  -18.3363 C   0  0  0  0  0  0  0  0  0  0  0  0
   -6.9543    4.9788  -17.5492 C   0  0  0  0  0  0  0  0  0  0  0  0
   -7.1481    5.3947  -16.2797 N   0  0  0  0  0  0  0  0  0  0  0  0
  2  1  1  0  0  0
  2  3  2  0  0  0
  2  4  2  0  0  0
  4 15  1  0  0  0
 15 16  2  0  0  0
 15 17  1  0  0  0
 17 18  2  0  0  0
 18 19  1  0  0  0
 19 20  2  0  0  0
 20 21  1  0  0  0
 21 22  2  0  0  0
  2  5  1  0  0  0
  5  6  1  0  0  0
  6  7  2  0  0  0
  7  8  1  0  0  0
  8  9  1  0  0  0
  9 10  1  0  0  0
 10 11  1  0  0  0
 11 12  1  0  0  0
 12 13  1  0  0  0
 22 17  1  0  0  0
  9  5  2  0  0  0
 13  8  1  0  0  0
 11 14  1  0  0  0
M  END
> <minimizedAffinity>
-6.58184

> <minimizedRMSD>
0.53617

$$$$
P40712


 24 27  0  0  0  0  0  0  0  0999 V2000
   -6.5327    3.8223  -12.3863 N   0  0  0  0  0  0  0  0  0  0  0  0
   -6.1220    2.6229  -13.0909 C   0  0  0  0  0  0  0  0  0  0  0  0
   -4.9520    3.1050  -13.9612 C   0  0  0  0  0  0  0  0  0  0  0  0
   -5.2893    4.5847  -14.2080 C   0  0  0  0  0  0  0  0  0  0  0  0
   -5.7758    4.9874  -12.8063 C   0  0  0  0  0  0  0  0  0  0  0  0
   -6.3627    4.7222  -15.2810 C   0  0  0  0  0  0  0  0  0  0  0  0
   -7.6493    4.6549  -14.8726 N   0  0  0  0  0  0  0  0  0  0  0  0
   -8.5870    4.5388  -15.8148 C   0  0  0  0  0  0  0  0  0  0  0  0
   -8.3737    4.5331  -17.1267 N   0  0  0  0  0  0  0  0  0  0  0  0
   -7.1005    4.6528  -17.5144 C   0  0  0  0  0  0  0  0  0  0  0  0
   -6.8192    4.5983  -18.8624 C   0  0  0  0  0  0  0  0  0  0  0  0
   -5.5135    4.6731  -19.3654 C   0  0  0  0  0  0  0  0  0  0  0  0
   -4.4504    4.8430  -18.5004 C   0  0  0  0  0  0  0  0  0  0  0  0
   -4.7010    4.8968  -17.1375 C   0  0  0  0  0  0  0  0  0  0  0  0
   -6.0214    4.7754  -16.6335 C   0  0  0  0  0  0  0  0  0  0  0  0
   -8.3641    3.4790   -8.7041 C   0  0  0  0  0  0  0  0  0  0  0  0
   -9.0008    2.9648   -9.8306 C   0  0  0  0  0  0  0  0  0  0  0  0
   -8.4139    3.1134  -11.0830 C   0  0  0  0  0  0  0  0  0  0  0  0
   -7.2080    3.7949  -11.2034 C   0  0  0  0  0  0  0  0  0  0  0  0
   -6.6496    4.4128  -10.1433 N   0  0  0  0  0  0  0  0  0  0  0  0
   -7.2200    4.2275   -8.9305 C   0  0  0  0  0  0  0  0  0  0  0  0
   -8.9151    3.2009   -7.3338 C   0  0  0  0  0  0  0  0  0  0  0  0
   -9.1703    4.1670   -5.1748 C   0  0  0  0  0  0  0  0  0  0  0  0
   -8.3420    4.0317   -6.3180 O   0  0  0  0  0  0  0  0  0  0  0  0
 23 24  1  0  0  0
 24 22  1  0  0  0
 22 16  1  0  0  0
 16 17  2  0  0  0
 17 18  1  0  0  0
 18 19  2  0  0  0
 19  1  1  0  0  0
  1  2  1  0  0  0
  2  3  1  0  0  0
  3  4  1  0  0  0
  4  6  1  0  0  0
  6  7  2  0  0  0
  7  8  1  0  0  0
  8  9  2  0  0  0
  9 10  1  0  0  0
 10 11  2  0  0  0
 11 12  1  0  0  0
 12 13  2  0  0  0
 13 14  1  0  0  0
 14 15  2  0  0  0
  4  5  1  0  0  0
 19 20  1  0  0  0
 20 21  2  0  0  0
 21 16  1  0  0  0
  5  1  1  0  0  0
 15  6  1  0  0  0
 15 10  1  0  0  0
M  END
> <minimizedAffinity>
-6.81261

> <minimizedRMSD>
1.60001

$$$$
P40718


 26 29  0  0  0  0  0  0  0  0999 V2000
   -6.8920    5.0987  -12.3240 N   0  0  0  0  0  0  0  0  0  0  0  0
   -5.7827    4.4456  -12.9849 C   0  0  0  0  0  0  0  0  0  0  0  0
   -5.1680    5.5774  -13.8196 C   0  0  0  0  0  0  0  0  0  0  0  0
   -6.3928    6.4295  -14.1912 C   0  0  0  0  0  0  0  0  0  0  0  0
   -7.1515    6.4272  -12.8534 C   0  0  0  0  0  0  0  0  0  0  0  0
   -7.1661    5.7856  -15.3331 C   0  0  0  0  0  0  0  0  0  0  0  0
   -8.3869    5.2879  -15.0396 N   0  0  0  0  0  0  0  0  0  0  0  0
   -8.9730    4.5252  -15.9651 C   0  0  0  0  0  0  0  0  0  0  0  0
   -8.4838    4.2481  -17.1703 N   0  0  0  0  0  0  0  0  0  0  0  0
   -7.2937    4.7827  -17.4589 C   0  0  0  0  0  0  0  0  0  0  0  0
   -6.7099    4.4714  -18.6682 C   0  0  0  0  0  0  0  0  0  0  0  0
   -5.4429    4.9428  -19.0381 C   0  0  0  0  0  0  0  0  0  0  0  0
   -4.7480    5.7880  -18.1959 C   0  0  0  0  0  0  0  0  0  0  0  0
   -5.3094    6.1185  -16.9720 C   0  0  0  0  0  0  0  0  0  0  0  0
   -6.5697    5.5960  -16.5820 C   0  0  0  0  0  0  0  0  0  0  0  0
   -8.6860    3.4789   -8.9886 C   0  0  0  0  0  0  0  0  0  0  0  0
   -8.8307    2.8222  -10.2027 C   0  0  0  0  0  0  0  0  0  0  0  0
   -8.2694    3.3817  -11.3505 C   0  0  0  0  0  0  0  0  0  0  0  0
   -7.5938    4.5969  -11.2745 C   0  0  0  0  0  0  0  0  0  0  0  0
   -7.5578    5.2967  -10.1192 N   0  0  0  0  0  0  0  0  0  0  0  0
   -8.0808    4.7247   -9.0104 C   0  0  0  0  0  0  0  0  0  0  0  0
   -9.4097    1.6337   -7.7259 O   0  0  0  0  0  0  0  0  0  0  0  0
   -9.1448    2.8354   -7.7316 C   0  0  0  0  0  0  0  0  0  0  0  0
   -9.3419    3.7146   -6.5130 C   0  0  0  0  0  0  0  0  0  0  0  0
  -10.5583    3.5480   -5.9182 F   0  0  0  0  0  0  0  0  0  0  0  0
   -8.4136    3.5112   -5.5371 F   0  0  0  0  0  0  0  0  0  0  0  0
 22 23  2  0  0  0
 23 16  1  0  0  0
 16 17  2  0  0  0
 17 18  1  0  0  0
 18 19  2  0  0  0
 19  1  1  0  0  0
  1  2  1  0  0  0
  2  3  1  0  0  0
  3  4  1  0  0  0
  4  6  1  0  0  0
  6  7  2  0  0  0
  7  8  1  0  0  0
  8  9  2  0  0  0
  9 10  1  0  0  0
 10 11  2  0  0  0
 11 12  1  0  0  0
 12 13  2  0  0  0
 13 14  1  0  0  0
 14 15  2  0  0  0
  4  5  1  0  0  0
 19 20  1  0  0  0
 20 21  2  0  0  0
 23 24  1  0  0  0
 24 25  1  0  0  0
 24 26  1  0  0  0
 21 16  1  0  0  0
  5  1  1  0  0  0
 15  6  1  0  0  0
 15 10  1  0  0  0
M  END
> <minimizedAffinity>
-7.08240

> <minimizedRMSD>
1.55628

$$$$
P40719


 22 25  0  0  0  0  0  0  0  0999 V2000
   -5.4341    3.6803  -12.5695 N   0  0  0  0  0  0  0  0  0  0  0  0
   -5.2083    2.5559  -13.4534 C   0  0  0  0  0  0  0  0  0  0  0  0
   -4.0928    3.0687  -14.3682 C   0  0  0  0  0  0  0  0  0  0  0  0
   -4.4640    4.5496  -14.5406 C   0  0  0  0  0  0  0  0  0  0  0  0
   -4.8748    4.9175  -13.1040 C   0  0  0  0  0  0  0  0  0  0  0  0
   -5.5875    4.7092  -15.5568 C   0  0  0  0  0  0  0  0  0  0  0  0
   -6.8524    4.6408  -15.0880 N   0  0  0  0  0  0  0  0  0  0  0  0
   -7.8345    4.5739  -15.9910 C   0  0  0  0  0  0  0  0  0  0  0  0
   -7.6831    4.6103  -17.3128 N   0  0  0  0  0  0  0  0  0  0  0  0
   -6.4264    4.7048  -17.7593 C   0  0  0  0  0  0  0  0  0  0  0  0
   -6.2029    4.6610  -19.1196 C   0  0  0  0  0  0  0  0  0  0  0  0
   -4.9137    4.6823  -19.6708 C   0  0  0  0  0  0  0  0  0  0  0  0
   -3.8111    4.8145  -18.8510 C   0  0  0  0  0  0  0  0  0  0  0  0
   -4.0056    4.8728  -17.4806 C   0  0  0  0  0  0  0  0  0  0  0  0
   -5.3071    4.7815  -16.9237 C   0  0  0  0  0  0  0  0  0  0  0  0
   -8.9673    3.4637   -8.4347 F   0  0  0  0  0  0  0  0  0  0  0  0
   -8.1662    3.6003   -9.4977 C   0  0  0  0  0  0  0  0  0  0  0  0
   -8.6040    3.2547  -10.7568 C   0  0  0  0  0  0  0  0  0  0  0  0
   -7.7050    3.3228  -11.8188 C   0  0  0  0  0  0  0  0  0  0  0  0
   -6.3930    3.7467  -11.5990 C   0  0  0  0  0  0  0  0  0  0  0  0
   -5.9933    4.1608  -10.3720 N   0  0  0  0  0  0  0  0  0  0  0  0
   -6.8779    4.0675   -9.3535 C   0  0  0  0  0  0  0  0  0  0  0  0
 16 17  1  0  0  0
 17 18  2  0  0  0
 18 19  1  0  0  0
 19 20  2  0  0  0
 20  1  1  0  0  0
  1  2  1  0  0  0
  2  3  1  0  0  0
  3  4  1  0  0  0
  4  6  1  0  0  0
  6  7  2  0  0  0
  7  8  1  0  0  0
  8  9  2  0  0  0
  9 10  1  0  0  0
 10 11  2  0  0  0
 11 12  1  0  0  0
 12 13  2  0  0  0
 13 14  1  0  0  0
 14 15  2  0  0  0
  4  5  1  0  0  0
 20 21  1  0  0  0
 21 22  2  0  0  0
 22 17  1  0  0  0
  5  1  1  0  0  0
 15  6  1  0  0  0
 15 10  1  0  0  0
M  END
> <minimizedAffinity>
-6.85475

> <minimizedRMSD>
1.67357

$$$$
P40723


 25 28  0  0  0  0  0  0  0  0999 V2000
   -5.5022    3.4591  -12.5300 N   0  0  0  0  0  0  0  0  0  0  0  0
   -5.2257    2.3899  -13.4653 C   0  0  0  0  0  0  0  0  0  0  0  0
   -4.0423    2.9452  -14.2628 C   0  0  0  0  0  0  0  0  0  0  0  0
   -4.3950    4.4375  -14.3719 C   0  0  0  0  0  0  0  0  0  0  0  0
   -4.9004    4.7211  -12.9441 C   0  0  0  0  0  0  0  0  0  0  0  0
   -5.4478    4.6599  -15.4510 C   0  0  0  0  0  0  0  0  0  0  0  0
   -6.7404    4.6133  -15.0628 N   0  0  0  0  0  0  0  0  0  0  0  0
   -7.6658    4.5910  -16.0258 C   0  0  0  0  0  0  0  0  0  0  0  0
   -7.4324    4.6516  -17.3348 N   0  0  0  0  0  0  0  0  0  0  0  0
   -6.1491    4.7256  -17.7012 C   0  0  0  0  0  0  0  0  0  0  0  0
   -5.8443    4.7056  -19.0462 C   0  0  0  0  0  0  0  0  0  0  0  0
   -4.5241    4.7072  -19.5180 C   0  0  0  0  0  0  0  0  0  0  0  0
   -3.4710    4.7946  -18.6296 C   0  0  0  0  0  0  0  0  0  0  0  0
   -3.7474    4.8285  -17.2722 C   0  0  0  0  0  0  0  0  0  0  0  0
   -5.0819    4.7569  -16.7967 C   0  0  0  0  0  0  0  0  0  0  0  0
   -8.4301    3.1022   -9.6644 C   0  0  0  0  0  0  0  0  0  0  0  0
   -8.8146    3.1046  -10.9904 C   0  0  0  0  0  0  0  0  0  0  0  0
   -7.8448    3.2700  -11.9750 C   0  0  0  0  0  0  0  0  0  0  0  0
   -6.5145    3.4709  -11.6144 C   0  0  0  0  0  0  0  0  0  0  0  0
   -6.1619    3.5987  -10.3138 N   0  0  0  0  0  0  0  0  0  0  0  0
   -7.1140    3.4096   -9.3720 C   0  0  0  0  0  0  0  0  0  0  0  0
   -9.3677    2.8293   -8.7143 O   0  0  0  0  0  0  0  0  0  0  0  0
   -9.5757    3.8272   -6.7012 F   0  0  0  0  0  0  0  0  0  0  0  0
   -8.8121    2.9551   -7.4108 C   0  0  0  0  0  0  0  0  0  0  0  0
   -8.9548    1.7497   -6.7967 F   0  0  0  0  0  0  0  0  0  0  0  0
 23 24  1  0  0  0
 24 25  1  0  0  0
 24 22  1  0  0  0
 22 16  1  0  0  0
 16 17  2  0  0  0
 17 18  1  0  0  0
 18 19  2  0  0  0
 19  1  1  0  0  0
  1  2  1  0  0  0
  2  3  1  0  0  0
  3  4  1  0  0  0
  4  6  1  0  0  0
  6  7  2  0  0  0
  7  8  1  0  0  0
  8  9  2  0  0  0
  9 10  1  0  0  0
 10 11  2  0  0  0
 11 12  1  0  0  0
 12 13  2  0  0  0
 13 14  1  0  0  0
 14 15  2  0  0  0
  4  5  1  0  0  0
 19 20  1  0  0  0
 20 21  2  0  0  0
 21 16  1  0  0  0
  5  1  1  0  0  0
 15  6  1  0  0  0
 15 10  1  0  0  0
M  END
> <minimizedAffinity>
-7.06441

> <minimizedRMSD>
1.89804

$$$$
P40724


 22 25  0  0  0  0  0  0  0  0999 V2000
   -5.9651    3.8640  -12.3747 N   0  0  0  0  0  0  0  0  0  0  0  0
   -5.6338    2.7353  -13.2175 C   0  0  0  0  0  0  0  0  0  0  0  0
   -4.5606    3.3113  -14.1460 C   0  0  0  0  0  0  0  0  0  0  0  0
   -5.0304    4.7627  -14.3365 C   0  0  0  0  0  0  0  0  0  0  0  0
   -5.4503    5.1194  -12.8993 C   0  0  0  0  0  0  0  0  0  0  0  0
   -6.1767    4.8300  -15.3374 C   0  0  0  0  0  0  0  0  0  0  0  0
   -7.4293    4.7352  -14.8404 N   0  0  0  0  0  0  0  0  0  0  0  0
   -8.4237    4.5770  -15.7175 C   0  0  0  0  0  0  0  0  0  0  0  0
   -8.2974    4.5472  -17.0415 N   0  0  0  0  0  0  0  0  0  0  0  0
   -7.0546    4.6750  -17.5174 C   0  0  0  0  0  0  0  0  0  0  0  0
   -6.8554    4.5719  -18.8779 C   0  0  0  0  0  0  0  0  0  0  0  0
   -5.5811    4.6281  -19.4594 C   0  0  0  0  0  0  0  0  0  0  0  0
   -4.4702    4.8519  -18.6711 C   0  0  0  0  0  0  0  0  0  0  0  0
   -4.6400    4.9688  -17.3007 C   0  0  0  0  0  0  0  0  0  0  0  0
   -5.9246    4.8456  -16.7112 C   0  0  0  0  0  0  0  0  0  0  0  0
   -9.0594    3.0365   -7.5396 Cl  0  0  0  0  0  0  0  0  0  0  0  0
   -8.2921    3.4561   -9.0145 C   0  0  0  0  0  0  0  0  0  0  0  0
   -8.8108    3.0345  -10.2222 C   0  0  0  0  0  0  0  0  0  0  0  0
   -8.0637    3.2279  -11.3813 C   0  0  0  0  0  0  0  0  0  0  0  0
   -6.8153    3.8439  -11.3118 C   0  0  0  0  0  0  0  0  0  0  0  0
   -6.3609    4.3623  -10.1472 N   0  0  0  0  0  0  0  0  0  0  0  0
   -7.0957    4.1461   -9.0304 C   0  0  0  0  0  0  0  0  0  0  0  0
 16 17  1  0  0  0
 17 18  2  0  0  0
 18 19  1  0  0  0
 19 20  2  0  0  0
 20  1  1  0  0  0
  1  2  1  0  0  0
  2  3  1  0  0  0
  3  4  1  0  0  0
  4  6  1  0  0  0
  6  7  2  0  0  0
  7  8  1  0  0  0
  8  9  2  0  0  0
  9 10  1  0  0  0
 10 11  2  0  0  0
 11 12  1  0  0  0
 12 13  2  0  0  0
 13 14  1  0  0  0
 14 15  2  0  0  0
  4  5  1  0  0  0
 20 21  1  0  0  0
 21 22  2  0  0  0
 22 17  1  0  0  0
  5  1  1  0  0  0
 15  6  1  0  0  0
 15 10  1  0  0  0
M  END
> <minimizedAffinity>
-6.92278

> <minimizedRMSD>
1.49870

$$$$
P40725


 26 29  0  0  0  0  0  0  0  0999 V2000
   -5.6992    3.8921  -12.4319 N   0  0  0  0  0  0  0  0  0  0  0  0
   -5.6712    2.6508  -13.1725 C   0  0  0  0  0  0  0  0  0  0  0  0
   -4.4565    2.8408  -14.0898 C   0  0  0  0  0  0  0  0  0  0  0  0
   -4.5218    4.3396  -14.4226 C   0  0  0  0  0  0  0  0  0  0  0  0
   -4.8781    4.9263  -13.0463 C   0  0  0  0  0  0  0  0  0  0  0  0
   -5.5728    4.5999  -15.4944 C   0  0  0  0  0  0  0  0  0  0  0  0
   -6.8662    4.5626  -15.1073 N   0  0  0  0  0  0  0  0  0  0  0  0
   -7.7911    4.5656  -16.0707 C   0  0  0  0  0  0  0  0  0  0  0  0
   -7.5569    4.6463  -17.3784 N   0  0  0  0  0  0  0  0  0  0  0  0
   -6.2726    4.7146  -17.7427 C   0  0  0  0  0  0  0  0  0  0  0  0
   -5.9673    4.7203  -19.0876 C   0  0  0  0  0  0  0  0  0  0  0  0
   -4.6466    4.7255  -19.5584 C   0  0  0  0  0  0  0  0  0  0  0  0
   -3.5931    4.7809  -18.6679 C   0  0  0  0  0  0  0  0  0  0  0  0
   -3.8697    4.7815  -17.3103 C   0  0  0  0  0  0  0  0  0  0  0  0
   -5.2056    4.7166  -16.8377 C   0  0  0  0  0  0  0  0  0  0  0  0
   -8.0611    4.7991   -9.1693 C   0  0  0  0  0  0  0  0  0  0  0  0
   -8.4231    3.7268   -9.9663 C   0  0  0  0  0  0  0  0  0  0  0  0
   -7.6509    3.4197  -11.0902 C   0  0  0  0  0  0  0  0  0  0  0  0
   -6.5537    4.2131  -11.4231 C   0  0  0  0  0  0  0  0  0  0  0  0
   -6.2544    5.3191  -10.7062 N   0  0  0  0  0  0  0  0  0  0  0  0
   -6.9950    5.5721   -9.5983 C   0  0  0  0  0  0  0  0  0  0  0  0
   -9.5140    5.3833   -5.4124 C   0  0  0  0  0  0  0  0  0  0  0  0
   -8.4706    4.5434   -6.5853 S   0  0  0  0  0  0  0  0  0  0  0  0
   -9.1905    2.9105   -6.5509 C   0  0  0  0  0  0  0  0  0  0  0  0
   -7.1468    4.5412   -5.9905 O   0  0  0  0  0  0  0  0  0  0  0  0
   -8.8000    5.1606   -7.9573 N   0  0  0  0  0  0  0  0  0  0  0  0
 22 23  1  0  0  0
 23 24  1  0  0  0
 23 25  2  0  0  0
 23 26  2  0  0  0
 26 16  1  0  0  0
 16 17  2  0  0  0
 17 18  1  0  0  0
 18 19  2  0  0  0
 19  1  1  0  0  0
  1  2  1  0  0  0
  2  3  1  0  0  0
  3  4  1  0  0  0
  4  6  1  0  0  0
  6  7  2  0  0  0
  7  8  1  0  0  0
  8  9  2  0  0  0
  9 10  1  0  0  0
 10 11  2  0  0  0
 11 12  1  0  0  0
 12 13  2  0  0  0
 13 14  1  0  0  0
 14 15  2  0  0  0
  4  5  1  0  0  0
 19 20  1  0  0  0
 20 21  2  0  0  0
 21 16  1  0  0  0
  5  1  1  0  0  0
 15  6  1  0  0  0
 15 10  1  0  0  0
M  END
> <minimizedAffinity>
-7.10066

> <minimizedRMSD>
1.56076

$$$$
P40726


 26 29  0  0  0  0  0  0  0  0999 V2000
   -5.7901    3.8325  -12.4200 N   0  0  0  0  0  0  0  0  0  0  0  0
   -5.4557    2.7541  -13.3253 C   0  0  0  0  0  0  0  0  0  0  0  0
   -4.4277    3.4059  -14.2543 C   0  0  0  0  0  0  0  0  0  0  0  0
   -4.9695    4.8391  -14.3857 C   0  0  0  0  0  0  0  0  0  0  0  0
   -5.3671    5.1306  -12.9241 C   0  0  0  0  0  0  0  0  0  0  0  0
   -6.1419    4.8800  -15.3594 C   0  0  0  0  0  0  0  0  0  0  0  0
   -7.3797    4.7782  -14.8287 N   0  0  0  0  0  0  0  0  0  0  0  0
   -8.3939    4.5937  -15.6781 C   0  0  0  0  0  0  0  0  0  0  0  0
   -8.3030    4.5447  -17.0048 N   0  0  0  0  0  0  0  0  0  0  0  0
   -7.0753    4.6780  -17.5156 C   0  0  0  0  0  0  0  0  0  0  0  0
   -6.9124    4.5527  -18.8796 C   0  0  0  0  0  0  0  0  0  0  0  0
   -5.6541    4.6073  -19.4949 C   0  0  0  0  0  0  0  0  0  0  0  0
   -4.5252    4.8565  -18.7399 C   0  0  0  0  0  0  0  0  0  0  0  0
   -4.6600    4.9995  -17.3676 C   0  0  0  0  0  0  0  0  0  0  0  0
   -5.9266    4.8745  -16.7411 C   0  0  0  0  0  0  0  0  0  0  0  0
   -8.2389    3.2108   -9.1622 C   0  0  0  0  0  0  0  0  0  0  0  0
   -8.7420    2.9679  -10.4304 C   0  0  0  0  0  0  0  0  0  0  0  0
   -7.9482    3.2205  -11.5454 C   0  0  0  0  0  0  0  0  0  0  0  0
   -6.6713    3.7491  -11.3830 C   0  0  0  0  0  0  0  0  0  0  0  0
   -6.2249    4.1149  -10.1591 N   0  0  0  0  0  0  0  0  0  0  0  0
   -6.9984    3.8175   -9.0813 C   0  0  0  0  0  0  0  0  0  0  0  0
   -9.0240    2.7874   -7.9858 C   0  0  0  0  0  0  0  0  0  0  0  0
   -9.4731    1.6623   -7.8362 O   0  0  0  0  0  0  0  0  0  0  0  0
   -9.1484    3.8135   -7.1051 O   0  0  0  0  0  0  0  0  0  0  0  0
   -9.5506    4.3081   -4.8024 C   0  0  0  0  0  0  0  0  0  0  0  0
  -10.0245    3.5212   -6.0083 C   0  0  0  0  0  0  0  0  0  0  0  0
 25 26  1  0  0  0
 26 24  1  0  0  0
 24 22  1  0  0  0
 22 23  2  0  0  0
 22 16  1  0  0  0
 16 17  2  0  0  0
 17 18  1  0  0  0
 18 19  2  0  0  0
 19  1  1  0  0  0
  1  2  1  0  0  0
  2  3  1  0  0  0
  3  4  1  0  0  0
  4  6  1  0  0  0
  6  7  2  0  0  0
  7  8  1  0  0  0
  8  9  2  0  0  0
  9 10  1  0  0  0
 10 11  2  0  0  0
 11 12  1  0  0  0
 12 13  2  0  0  0
 13 14  1  0  0  0
 14 15  2  0  0  0
  4  5  1  0  0  0
 19 20  1  0  0  0
 20 21  2  0  0  0
 21 16  1  0  0  0
  5  1  1  0  0  0
 15  6  1  0  0  0
 15 10  1  0  0  0
M  END
> <minimizedAffinity>
-7.31241

> <minimizedRMSD>
1.45529

$$$$
P40727


 26 29  0  0  0  0  0  0  0  0999 V2000
   -5.9048    4.5858  -11.9346 N   0  0  0  0  0  0  0  0  0  0  0  0
   -5.6778    5.9902  -12.2454 C   0  0  0  0  0  0  0  0  0  0  0  0
   -4.8141    5.9486  -13.5123 C   0  0  0  0  0  0  0  0  0  0  0  0
   -5.2104    4.6386  -14.1793 C   0  0  0  0  0  0  0  0  0  0  0  0
   -5.4278    3.7071  -12.9851 C   0  0  0  0  0  0  0  0  0  0  0  0
   -6.4715    4.7278  -15.0196 C   0  0  0  0  0  0  0  0  0  0  0  0
   -7.6401    4.5188  -14.3820 N   0  0  0  0  0  0  0  0  0  0  0  0
   -8.7141    4.2896  -15.1390 C   0  0  0  0  0  0  0  0  0  0  0  0
   -8.7663    4.3217  -16.4647 N   0  0  0  0  0  0  0  0  0  0  0  0
   -7.6146    4.5829  -17.0741 C   0  0  0  0  0  0  0  0  0  0  0  0
   -7.5888    4.5032  -18.4398 C   0  0  0  0  0  0  0  0  0  0  0  0
   -6.3890    4.6403  -19.1295 C   0  0  0  0  0  0  0  0  0  0  0  0
   -5.2217    5.0137  -18.4871 C   0  0  0  0  0  0  0  0  0  0  0  0
   -5.2299    5.1278  -17.1164 C   0  0  0  0  0  0  0  0  0  0  0  0
   -6.4094    4.8428  -16.4013 C   0  0  0  0  0  0  0  0  0  0  0  0
   -8.4777    3.3219   -8.9565 C   0  0  0  0  0  0  0  0  0  0  0  0
   -8.7952    3.0242  -10.2727 C   0  0  0  0  0  0  0  0  0  0  0  0
   -7.9740    3.4831  -11.3015 C   0  0  0  0  0  0  0  0  0  0  0  0
   -6.8598    4.2664  -11.0093 C   0  0  0  0  0  0  0  0  0  0  0  0
   -6.6310    4.6801   -9.7430 N   0  0  0  0  0  0  0  0  0  0  0  0
   -7.4135    4.1811   -8.7502 C   0  0  0  0  0  0  0  0  0  0  0  0
   -9.2558    2.7055   -7.8599 C   0  0  0  0  0  0  0  0  0  0  0  0
   -9.6291    1.5437   -7.8547 O   0  0  0  0  0  0  0  0  0  0  0  0
   -9.4754    3.6097   -6.8703 O   0  0  0  0  0  0  0  0  0  0  0  0
  -10.2456    3.9554   -4.6355 C   0  0  0  0  0  0  0  0  0  0  0  0
  -10.4830    3.2066   -5.9322 C   0  0  0  0  0  0  0  0  0  0  0  0
 25 26  1  0  0  0
 26 24  1  0  0  0
 24 22  1  0  0  0
 22 23  2  0  0  0
 22 16  1  0  0  0
 16 17  2  0  0  0
 17 18  1  0  0  0
 18 19  2  0  0  0
 19  1  1  0  0  0
  1  2  1  0  0  0
  2  3  1  0  0  0
  3  4  1  0  0  0
  4  6  1  0  0  0
  6  7  2  0  0  0
  7  8  1  0  0  0
  8  9  2  0  0  0
  9 10  1  0  0  0
 10 11  2  0  0  0
 11 12  1  0  0  0
 12 13  2  0  0  0
 13 14  1  0  0  0
 14 15  2  0  0  0
  4  5  1  0  0  0
 19 20  1  0  0  0
 20 21  2  0  0  0
 21 16  1  0  0  0
  5  1  1  0  0  0
 15  6  1  0  0  0
 15 10  1  0  0  0
M  END
> <minimizedAffinity>
-7.35263

> <minimizedRMSD>
1.26188

$$$$
P40728


 25 28  0  0  0  0  0  0  0  0999 V2000
   -6.4665    4.5981  -12.2961 N   0  0  0  0  0  0  0  0  0  0  0  0
   -5.5474    5.6516  -12.6956 C   0  0  0  0  0  0  0  0  0  0  0  0
   -4.6720    4.9996  -13.7744 C   0  0  0  0  0  0  0  0  0  0  0  0
   -5.5302    3.8610  -14.3080 C   0  0  0  0  0  0  0  0  0  0  0  0
   -6.2833    3.3837  -13.0646 C   0  0  0  0  0  0  0  0  0  0  0  0
   -6.4947    4.2942  -15.3935 C   0  0  0  0  0  0  0  0  0  0  0  0
   -7.8122    4.2606  -15.0935 N   0  0  0  0  0  0  0  0  0  0  0  0
   -8.6714    4.3718  -16.1062 C   0  0  0  0  0  0  0  0  0  0  0  0
   -8.3427    4.5299  -17.3839 N   0  0  0  0  0  0  0  0  0  0  0  0
   -7.0354    4.6344  -17.6450 C   0  0  0  0  0  0  0  0  0  0  0  0
   -6.6315    4.7423  -18.9559 C   0  0  0  0  0  0  0  0  0  0  0  0
   -5.2838    4.8725  -19.3238 C   0  0  0  0  0  0  0  0  0  0  0  0
   -4.3027    4.9189  -18.3540 C   0  0  0  0  0  0  0  0  0  0  0  0
   -4.6736    4.7647  -17.0291 C   0  0  0  0  0  0  0  0  0  0  0  0
   -6.0345    4.5829  -16.6736 C   0  0  0  0  0  0  0  0  0  0  0  0
   -8.3068    4.7998   -8.6065 C   0  0  0  0  0  0  0  0  0  0  0  0
   -8.4543    3.6436   -9.3634 C   0  0  0  0  0  0  0  0  0  0  0  0
   -7.9011    3.5842  -10.6421 C   0  0  0  0  0  0  0  0  0  0  0  0
   -7.1979    4.6741  -11.1488 C   0  0  0  0  0  0  0  0  0  0  0  0
   -7.1699    5.8404  -10.4734 N   0  0  0  0  0  0  0  0  0  0  0  0
   -7.7145    5.8801   -9.2372 C   0  0  0  0  0  0  0  0  0  0  0  0
   -9.4619    3.4177   -6.2885 C   0  0  0  0  0  0  0  0  0  0  0  0
   -8.6609    4.9061   -6.8843 P   0  0  0  0  0  0  0  0  0  0  0  0
   -7.0644    4.9277   -6.0474 C   0  0  0  0  0  0  0  0  0  0  0  0
   -9.4228    6.1239   -6.4155 O   0  0  0  0  0  0  0  0  0  0  0  0
 22 23  1  0  0  0
 23 24  1  0  0  0
 23 25  2  0  0  0
 23 16  1  0  0  0
 16 17  2  0  0  0
 17 18  1  0  0  0
 18 19  2  0  0  0
 19  1  1  0  0  0
  1  2  1  0  0  0
  2  3  1  0  0  0
  3  4  1  0  0  0
  4  6  1  0  0  0
  6  7  2  0  0  0
  7  8  1  0  0  0
  8  9  2  0  0  0
  9 10  1  0  0  0
 10 11  2  0  0  0
 11 12  1  0  0  0
 12 13  2  0  0  0
 13 14  1  0  0  0
 14 15  2  0  0  0
  4  5  1  0  0  0
 19 20  1  0  0  0
 20 21  2  0  0  0
 21 16  1  0  0  0
  5  1  1  0  0  0
 15  6  1  0  0  0
 15 10  1  0  0  0
M  END
> <minimizedAffinity>
-7.03369

> <minimizedRMSD>
1.34901

$$$$
P40731


 27 30  0  0  0  0  0  0  0  0999 V2000
   -7.0896    6.0674  -12.9799 N   0  0  0  0  0  0  0  0  0  0  0  0
   -7.1965    7.4901  -13.2254 C   0  0  0  0  0  0  0  0  0  0  0  0
   -6.1818    7.7453  -14.3564 C   0  0  0  0  0  0  0  0  0  0  0  0
   -5.8282    6.3620  -14.8970 C   0  0  0  0  0  0  0  0  0  0  0  0
   -5.9452    5.4863  -13.6546 C   0  0  0  0  0  0  0  0  0  0  0  0
   -6.7640    5.8403  -15.9788 C   0  0  0  0  0  0  0  0  0  0  0  0
   -8.0193    5.5026  -15.5987 N   0  0  0  0  0  0  0  0  0  0  0  0
   -8.7484    4.7763  -16.4481 C   0  0  0  0  0  0  0  0  0  0  0  0
   -8.3591    4.3827  -17.6556 N   0  0  0  0  0  0  0  0  0  0  0  0
   -7.1434    4.7874  -18.0416 C   0  0  0  0  0  0  0  0  0  0  0  0
   -6.6656    4.3652  -19.2623 C   0  0  0  0  0  0  0  0  0  0  0  0
   -5.3981    4.7274  -19.7413 C   0  0  0  0  0  0  0  0  0  0  0  0
   -4.5908    5.5693  -19.0045 C   0  0  0  0  0  0  0  0  0  0  0  0
   -5.0330    5.9912  -17.7632 C   0  0  0  0  0  0  0  0  0  0  0  0
   -6.2899    5.5718  -17.2586 C   0  0  0  0  0  0  0  0  0  0  0  0
   -8.4766    4.0112   -9.7493 C   0  0  0  0  0  0  0  0  0  0  0  0
   -8.4614    3.3685  -10.9745 C   0  0  0  0  0  0  0  0  0  0  0  0
   -8.0692    4.0879  -12.0854 C   0  0  0  0  0  0  0  0  0  0  0  0
   -7.7029    5.4256  -11.9488 C   0  0  0  0  0  0  0  0  0  0  0  0
   -7.8707    6.0883  -10.7842 N   0  0  0  0  0  0  0  0  0  0  0  0
   -8.2198    5.3630   -9.6945 C   0  0  0  0  0  0  0  0  0  0  0  0
  -10.1192    2.5316   -8.2281 N   0  0  0  0  0  0  0  0  0  0  0  0
   -8.5277    3.0363   -8.2988 S   0  0  0  0  0  0  0  0  0  0  0  0
   -7.7186    1.8811   -8.5679 O   0  0  0  0  0  0  0  0  0  0  0  0
   -8.3629    3.9020   -7.1501 O   0  0  0  0  0  0  0  0  0  0  0  0
  -10.2541    1.9468   -7.4033 H   0  0  0  0  0  0  0  0  0  0  0  0
  -10.3432    1.9947   -9.0659 H   0  0  0  0  0  0  0  0  0  0  0  0
 22 23  1  0  0  0
 23 24  2  0  0  0
 23 25  2  0  0  0
 23 16  1  0  0  0
 16 17  2  0  0  0
 17 18  1  0  0  0
 18 19  2  0  0  0
 19  1  1  0  0  0
  1  2  1  0  0  0
  2  3  1  0  0  0
  3  4  1  0  0  0
  4  6  1  0  0  0
  6  7  2  0  0  0
  7  8  1  0  0  0
  8  9  2  0  0  0
  9 10  1  0  0  0
 10 11  2  0  0  0
 11 12  1  0  0  0
 12 13  2  0  0  0
 13 14  1  0  0  0
 14 15  2  0  0  0
  4  5  1  0  0  0
 19 20  1  0  0  0
 20 21  2  0  0  0
 21 16  1  0  0  0
  5  1  1  0  0  0
 15  6  1  0  0  0
 15 10  1  0  0  0
 22 26  1  0  0  0
 22 27  1  0  0  0
M  END
> <minimizedAffinity>
-6.20639

> <minimizedRMSD>
0.81965

$$$$
P40736


 23 26  0  0  0  0  0  0  0  0999 V2000
   -6.5074    4.8394  -12.2152 N   0  0  0  0  0  0  0  0  0  0  0  0
   -5.7352    6.0562  -12.3680 C   0  0  0  0  0  0  0  0  0  0  0  0
   -4.7625    5.7332  -13.5223 C   0  0  0  0  0  0  0  0  0  0  0  0
   -5.2866    4.4338  -14.1314 C   0  0  0  0  0  0  0  0  0  0  0  0
   -5.8820    3.7318  -12.9140 C   0  0  0  0  0  0  0  0  0  0  0  0
   -6.3636    4.6225  -15.1888 C   0  0  0  0  0  0  0  0  0  0  0  0
   -7.6365    4.3830  -14.8139 N   0  0  0  0  0  0  0  0  0  0  0  0
   -8.5475    4.2270  -15.7715 C   0  0  0  0  0  0  0  0  0  0  0  0
   -8.3481    4.3717  -17.0714 N   0  0  0  0  0  0  0  0  0  0  0  0
   -7.1016    4.6635  -17.4179 C   0  0  0  0  0  0  0  0  0  0  0  0
   -6.8273    4.6933  -18.7523 C   0  0  0  0  0  0  0  0  0  0  0  0
   -5.5222    4.8611  -19.1941 C   0  0  0  0  0  0  0  0  0  0  0  0
   -4.4866    5.1518  -18.3223 C   0  0  0  0  0  0  0  0  0  0  0  0
   -4.7439    5.1529  -16.9712 C   0  0  0  0  0  0  0  0  0  0  0  0
   -6.0396    4.8437  -16.5157 C   0  0  0  0  0  0  0  0  0  0  0  0
   -8.5792    3.8042   -8.8308 C   0  0  0  0  0  0  0  0  0  0  0  0
   -8.8232    3.1008  -10.0016 C   0  0  0  0  0  0  0  0  0  0  0  0
   -8.1848    3.4918  -11.1690 C   0  0  0  0  0  0  0  0  0  0  0  0
   -7.3281    4.5921  -11.1536 C   0  0  0  0  0  0  0  0  0  0  0  0
   -7.2346    5.3915  -10.0761 N   0  0  0  0  0  0  0  0  0  0  0  0
   -7.8397    4.9734   -8.9417 C   0  0  0  0  0  0  0  0  0  0  0  0
   -9.4450    1.8006   -7.5289 C   0  0  0  0  0  0  0  0  0  0  0  0
   -8.9700    3.2354   -7.4965 C   0  0  0  0  0  0  0  0  0  0  0  0
 22 23  1  0  0  0
 23 16  1  0  0  0
 16 17  2  0  0  0
 17 18  1  0  0  0
 18 19  2  0  0  0
 19  1  1  0  0  0
  1  2  1  0  0  0
  2  3  1  0  0  0
  3  4  1  0  0  0
  4  6  1  0  0  0
  6  7  2  0  0  0
  7  8  1  0  0  0
  8  9  2  0  0  0
  9 10  1  0  0  0
 10 11  2  0  0  0
 11 12  1  0  0  0
 12 13  2  0  0  0
 13 14  1  0  0  0
 14 15  2  0  0  0
  4  5  1  0  0  0
 19 20  1  0  0  0
 20 21  2  0  0  0
 21 16  1  0  0  0
  5  1  1  0  0  0
 15  6  1  0  0  0
 15 10  1  0  0  0
M  END
> <minimizedAffinity>
-7.13231

> <minimizedRMSD>
1.25681

$$$$
P40738


 26 29  0  0  0  0  0  0  0  0999 V2000
   -5.8784    5.4964  -12.7674 N   0  0  0  0  0  0  0  0  0  0  0  0
   -5.9799    6.9080  -13.1347 C   0  0  0  0  0  0  0  0  0  0  0  0
   -5.2368    6.9918  -14.4707 C   0  0  0  0  0  0  0  0  0  0  0  0
   -5.4188    5.6043  -15.0661 C   0  0  0  0  0  0  0  0  0  0  0  0
   -5.3026    4.7055  -13.8396 C   0  0  0  0  0  0  0  0  0  0  0  0
   -6.7525    5.3861  -15.7624 C   0  0  0  0  0  0  0  0  0  0  0  0
   -7.8484    5.2858  -14.9831 N   0  0  0  0  0  0  0  0  0  0  0  0
   -8.9582    4.7978  -15.5440 C   0  0  0  0  0  0  0  0  0  0  0  0
   -9.1105    4.4611  -16.8191 N   0  0  0  0  0  0  0  0  0  0  0  0
   -8.0306    4.6092  -17.5825 C   0  0  0  0  0  0  0  0  0  0  0  0
   -8.0854    4.1450  -18.8694 C   0  0  0  0  0  0  0  0  0  0  0  0
   -6.9434    4.1389  -19.6642 C   0  0  0  0  0  0  0  0  0  0  0  0
   -5.7753    4.7569  -19.2543 C   0  0  0  0  0  0  0  0  0  0  0  0
   -5.7094    5.2718  -17.9843 C   0  0  0  0  0  0  0  0  0  0  0  0
   -6.8075    5.1212  -17.1204 C   0  0  0  0  0  0  0  0  0  0  0  0
   -8.2395    3.8920   -9.8423 C   0  0  0  0  0  0  0  0  0  0  0  0
   -8.3494    3.3442  -11.1069 C   0  0  0  0  0  0  0  0  0  0  0  0
   -7.6234    3.9203  -12.1367 C   0  0  0  0  0  0  0  0  0  0  0  0
   -6.8207    5.0326  -11.8841 C   0  0  0  0  0  0  0  0  0  0  0  0
   -6.8514    5.6485  -10.6793 N   0  0  0  0  0  0  0  0  0  0  0  0
   -7.5338    5.0610   -9.6744 C   0  0  0  0  0  0  0  0  0  0  0  0
   -7.5761    1.7996   -8.2273 C   0  0  0  0  0  0  0  0  0  0  0  0
   -8.8215    3.0046   -8.4455 S   0  0  0  0  0  0  0  0  0  0  0  0
  -10.0741    2.2523   -8.8861 N   0  0  0  0  0  0  0  0  0  0  0  0
   -8.7632    3.9074   -7.3104 O   0  0  0  0  0  0  0  0  0  0  0  0
  -10.7307    2.9066   -9.3119 H   0  0  0  0  0  0  0  0  0  0  0  0
 23 22  1  0  0  0
 23 24  2  0  0  0
 23 25  2  0  0  0
 23 16  1  0  0  0
 16 17  2  0  0  0
 17 18  1  0  0  0
 18 19  2  0  0  0
 19  1  1  0  0  0
  1  2  1  0  0  0
  2  3  1  0  0  0
  3  4  1  0  0  0
  4  6  1  0  0  0
  6  7  2  0  0  0
  7  8  1  0  0  0
  8  9  2  0  0  0
  9 10  1  0  0  0
 10 11  2  0  0  0
 11 12  1  0  0  0
 12 13  2  0  0  0
 13 14  1  0  0  0
 14 15  2  0  0  0
  4  5  1  0  0  0
 19 20  1  0  0  0
 20 21  2  0  0  0
 21 16  1  0  0  0
  5  1  1  0  0  0
 15  6  1  0  0  0
 15 10  1  0  0  0
 24 26  1  0  0  0
M  END
> <minimizedAffinity>
-6.45492

> <minimizedRMSD>
0.53434

$$$$
P40739


 24 27  0  0  0  0  0  0  0  0999 V2000
   -5.8683    3.8415  -12.3165 N   0  0  0  0  0  0  0  0  0  0  0  0
   -5.6246    2.6912  -13.1600 C   0  0  0  0  0  0  0  0  0  0  0  0
   -4.5513    3.2036  -14.1241 C   0  0  0  0  0  0  0  0  0  0  0  0
   -4.9629    4.6714  -14.3250 C   0  0  0  0  0  0  0  0  0  0  0  0
   -5.3272    5.0687  -12.8814 C   0  0  0  0  0  0  0  0  0  0  0  0
   -6.1307    4.7735  -15.2982 C   0  0  0  0  0  0  0  0  0  0  0  0
   -7.3725    4.6862  -14.7742 N   0  0  0  0  0  0  0  0  0  0  0  0
   -8.3894    4.5616  -15.6309 C   0  0  0  0  0  0  0  0  0  0  0  0
   -8.2949    4.5582  -16.9582 N   0  0  0  0  0  0  0  0  0  0  0  0
   -7.0619    4.6758  -17.4607 C   0  0  0  0  0  0  0  0  0  0  0  0
   -6.8968    4.5963  -18.8276 C   0  0  0  0  0  0  0  0  0  0  0  0
   -5.6354    4.6408  -19.4377 C   0  0  0  0  0  0  0  0  0  0  0  0
   -4.5029    4.8317  -18.6717 C   0  0  0  0  0  0  0  0  0  0  0  0
   -4.6389    4.9269  -17.2957 C   0  0  0  0  0  0  0  0  0  0  0  0
   -5.9108    4.8125  -16.6778 C   0  0  0  0  0  0  0  0  0  0  0  0
   -8.2086    3.6245   -8.9285 C   0  0  0  0  0  0  0  0  0  0  0  0
   -8.7214    3.1482  -10.1246 C   0  0  0  0  0  0  0  0  0  0  0  0
   -7.9689    3.2729  -11.2903 C   0  0  0  0  0  0  0  0  0  0  0  0
   -6.7184    3.8821  -11.2525 C   0  0  0  0  0  0  0  0  0  0  0  0
   -6.2648    4.4539  -10.1146 N   0  0  0  0  0  0  0  0  0  0  0  0
   -7.0023    4.3022   -8.9845 C   0  0  0  0  0  0  0  0  0  0  0  0
   -9.3910    1.9975   -7.3180 C   0  0  0  0  0  0  0  0  0  0  0  0
   -8.8591    3.3761   -7.6170 C   0  0  0  0  0  0  0  0  0  0  0  0
   -8.9475    4.2879   -6.7942 O   0  0  0  0  0  0  0  0  0  0  0  0
 22 23  1  0  0  0
 23 24  2  0  0  0
 23 16  1  0  0  0
 16 17  2  0  0  0
 17 18  1  0  0  0
 18 19  2  0  0  0
 19  1  1  0  0  0
  1  2  1  0  0  0
  2  3  1  0  0  0
  3  4  1  0  0  0
  4  6  1  0  0  0
  6  7  2  0  0  0
  7  8  1  0  0  0
  8  9  2  0  0  0
  9 10  1  0  0  0
 10 11  2  0  0  0
 11 12  1  0  0  0
 12 13  2  0  0  0
 13 14  1  0  0  0
 14 15  2  0  0  0
  4  5  1  0  0  0
 19 20  1  0  0  0
 20 21  2  0  0  0
 21 16  1  0  0  0
  5  1  1  0  0  0
 15  6  1  0  0  0
 15 10  1  0  0  0
M  END
> <minimizedAffinity>
-7.41002

> <minimizedRMSD>
1.48927

$$$$
P40740


 27 31  0  0  0  0  0  0  0  0999 V2000
   -5.2874    4.2315  -14.4783 C   0  0  0  0  0  0  0  0  0  0  0  0
   -4.7724    5.4695  -13.7565 C   0  0  0  0  0  0  0  0  0  0  0  0
   -5.8028    5.7126  -12.6454 C   0  0  0  0  0  0  0  0  0  0  0  0
   -6.4188    4.4135  -12.4413 N   0  0  0  0  0  0  0  0  0  0  0  0
   -5.9138    3.4074  -13.3515 C   0  0  0  0  0  0  0  0  0  0  0  0
   -5.2927    4.7303  -19.5761 C   0  0  0  0  0  0  0  0  0  0  0  0
   -4.2723    4.9039  -18.6631 C   0  0  0  0  0  0  0  0  0  0  0  0
   -4.5807    4.8818  -17.3139 C   0  0  0  0  0  0  0  0  0  0  0  0
   -5.9181    4.7017  -16.8782 C   0  0  0  0  0  0  0  0  0  0  0  0
   -6.3112    4.5368  -15.5542 C   0  0  0  0  0  0  0  0  0  0  0  0
   -7.6122    4.4989  -15.1905 N   0  0  0  0  0  0  0  0  0  0  0  0
   -8.5182    4.4705  -16.1683 C   0  0  0  0  0  0  0  0  0  0  0  0
   -8.2519    4.5073  -17.4703 N   0  0  0  0  0  0  0  0  0  0  0  0
   -6.9619    4.6233  -17.8025 C   0  0  0  0  0  0  0  0  0  0  0  0
   -6.6192    4.6063  -19.1357 C   0  0  0  0  0  0  0  0  0  0  0  0
   -7.2222    4.1484  -11.3733 C   0  0  0  0  0  0  0  0  0  0  0  0
   -8.2830    3.2487  -11.4476 C   0  0  0  0  0  0  0  0  0  0  0  0
   -8.9697    2.8788  -10.2910 C   0  0  0  0  0  0  0  0  0  0  0  0
   -8.5919    3.4060   -9.0619 C   0  0  0  0  0  0  0  0  0  0  0  0
   -7.5942    4.3689   -9.0940 C   0  0  0  0  0  0  0  0  0  0  0  0
   -6.9218    4.7574  -10.2075 N   0  0  0  0  0  0  0  0  0  0  0  0
   -9.1609    2.9104   -7.8074 C   0  0  0  0  0  0  0  0  0  0  0  0
   -9.5083    3.6506   -6.6394 C   0  0  0  0  0  0  0  0  0  0  0  0
   -9.8868    2.7170   -5.7051 C   0  0  0  0  0  0  0  0  0  0  0  0
   -9.7283    1.5059   -6.3107 N   0  0  0  0  0  0  0  0  0  0  0  0
   -9.4027    1.6043   -7.6075 N   0  0  0  0  0  0  0  0  0  0  0  0
   -9.8415    0.6468   -5.8435 H   0  0  0  0  0  0  0  0  0  0  0  0
  6  7  2  0  0  0
  7  8  1  0  0  0
  8  9  2  0  0  0
  9 10  1  0  0  0
  1 10  1  0  0  0
  1  2  1  0  0  0
  2  3  1  0  0  0
  3  4  1  0  0  0
  4 16  1  0  0  0
 16 17  2  0  0  0
 17 18  1  0  0  0
 18 19  2  0  0  0
 19 22  1  0  0  0
 22 23  1  0  0  0
 23 24  2  0  0  0
 24 25  1  0  0  0
 25 26  1  0  0  0
 19 20  1  0  0  0
 20 21  2  0  0  0
  4  5  1  0  0  0
 10 11  2  0  0  0
 11 12  1  0  0  0
 12 13  2  0  0  0
 13 14  1  0  0  0
 14 15  2  0  0  0
 15  6  1  0  0  0
 14  9  1  0  0  0
  5  1  1  0  0  0
 21 16  1  0  0  0
 26 22  2  0  0  0
 25 27  1  0  0  0
M  END
> <minimizedAffinity>
-8.12360

> <minimizedRMSD>
1.31165

$$$$
P40743


 22 25  0  0  0  0  0  0  0  0999 V2000
   -6.1780    3.8439  -12.3646 N   0  0  0  0  0  0  0  0  0  0  0  0
   -5.7804    2.7304  -13.1990 C   0  0  0  0  0  0  0  0  0  0  0  0
   -4.6919    3.3432  -14.0865 C   0  0  0  0  0  0  0  0  0  0  0  0
   -5.1854    4.7876  -14.2718 C   0  0  0  0  0  0  0  0  0  0  0  0
   -5.6554    5.1130  -12.8426 C   0  0  0  0  0  0  0  0  0  0  0  0
   -6.3036    4.8449  -15.3046 C   0  0  0  0  0  0  0  0  0  0  0  0
   -7.5691    4.7474  -14.8418 N   0  0  0  0  0  0  0  0  0  0  0  0
   -8.5381    4.5759  -15.7442 C   0  0  0  0  0  0  0  0  0  0  0  0
   -8.3754    4.5376  -17.0638 N   0  0  0  0  0  0  0  0  0  0  0  0
   -7.1211    4.6716  -17.5061 C   0  0  0  0  0  0  0  0  0  0  0  0
   -6.8854    4.5638  -18.8603 C   0  0  0  0  0  0  0  0  0  0  0  0
   -5.5972    4.6296  -19.4091 C   0  0  0  0  0  0  0  0  0  0  0  0
   -4.5091    4.8641  -18.5923 C   0  0  0  0  0  0  0  0  0  0  0  0
   -4.7155    4.9839  -17.2271 C   0  0  0  0  0  0  0  0  0  0  0  0
   -6.0144    4.8545  -16.6711 C   0  0  0  0  0  0  0  0  0  0  0  0
   -9.2640    2.7242   -7.3905 Br  0  0  0  0  0  0  0  0  0  0  0  0
   -8.4597    3.2827   -9.0003 C   0  0  0  0  0  0  0  0  0  0  0  0
   -8.9876    2.9000  -10.2173 C   0  0  0  0  0  0  0  0  0  0  0  0
   -8.2562    3.1483  -11.3751 C   0  0  0  0  0  0  0  0  0  0  0  0
   -7.0150    3.7768  -11.2942 C   0  0  0  0  0  0  0  0  0  0  0  0
   -6.5573    4.2622  -10.1172 N   0  0  0  0  0  0  0  0  0  0  0  0
   -7.2757    3.9939   -9.0016 C   0  0  0  0  0  0  0  0  0  0  0  0
 16 17  1  0  0  0
 17 18  2  0  0  0
 18 19  1  0  0  0
 19 20  2  0  0  0
 20  1  1  0  0  0
  1  2  1  0  0  0
  2  3  1  0  0  0
  3  4  1  0  0  0
  4  6  1  0  0  0
  6  7  2  0  0  0
  7  8  1  0  0  0
  8  9  2  0  0  0
  9 10  1  0  0  0
 10 11  2  0  0  0
 11 12  1  0  0  0
 12 13  2  0  0  0
 13 14  1  0  0  0
 14 15  2  0  0  0
  4  5  1  0  0  0
 20 21  1  0  0  0
 21 22  2  0  0  0
 22 17  1  0  0  0
  5  1  1  0  0  0
 15  6  1  0  0  0
 15 10  1  0  0  0
M  END
> <minimizedAffinity>
-6.97224

> <minimizedRMSD>
1.51407

$$$$
P40744


 25 28  0  0  0  0  0  0  0  0999 V2000
   -5.6845    4.4137  -11.4026 N   0  0  0  0  0  0  0  0  0  0  0  0
   -5.2733    5.7857  -11.6815 C   0  0  0  0  0  0  0  0  0  0  0  0
   -4.4975    5.6725  -12.9984 C   0  0  0  0  0  0  0  0  0  0  0  0
   -5.1358    4.4760  -13.6885 C   0  0  0  0  0  0  0  0  0  0  0  0
   -5.4131    3.5301  -12.5212 C   0  0  0  0  0  0  0  0  0  0  0  0
   -6.4207    4.7961  -14.4316 C   0  0  0  0  0  0  0  0  0  0  0  0
   -7.5598    4.7892  -13.7119 N   0  0  0  0  0  0  0  0  0  0  0  0
   -8.7106    4.7632  -14.3875 C   0  0  0  0  0  0  0  0  0  0  0  0
   -8.8495    4.8190  -15.7065 N   0  0  0  0  0  0  0  0  0  0  0  0
   -7.7151    4.8761  -16.3979 C   0  0  0  0  0  0  0  0  0  0  0  0
   -7.7958    4.7999  -17.7621 C   0  0  0  0  0  0  0  0  0  0  0  0
   -6.6401    4.7175  -18.5318 C   0  0  0  0  0  0  0  0  0  0  0  0
   -5.3848    4.8773  -17.9720 C   0  0  0  0  0  0  0  0  0  0  0  0
   -5.2799    4.9919  -16.6071 C   0  0  0  0  0  0  0  0  0  0  0  0
   -6.4389    4.9131  -15.8129 C   0  0  0  0  0  0  0  0  0  0  0  0
   -8.4412    3.6271   -8.4382 C   0  0  0  0  0  0  0  0  0  0  0  0
   -8.6672    3.0942   -9.6988 C   0  0  0  0  0  0  0  0  0  0  0  0
   -7.7937    3.3949  -10.7375 C   0  0  0  0  0  0  0  0  0  0  0  0
   -6.7178    4.2500  -10.5151 C   0  0  0  0  0  0  0  0  0  0  0  0
   -6.5915    4.8971   -9.3364 N   0  0  0  0  0  0  0  0  0  0  0  0
   -7.4271    4.5616   -8.3283 C   0  0  0  0  0  0  0  0  0  0  0  0
   -9.5053    1.6645   -7.3721 C   0  0  0  0  0  0  0  0  0  0  0  0
   -9.1789    3.1317   -7.2289 C   0  0  0  0  0  0  0  0  0  0  0  0
   -8.4397    3.2495   -6.0827 F   0  0  0  0  0  0  0  0  0  0  0  0
  -10.3439    3.7912   -6.9916 F   0  0  0  0  0  0  0  0  0  0  0  0
 22 23  1  0  0  0
 23 24  1  0  0  0
 23 25  1  0  0  0
 23 16  1  0  0  0
 16 17  2  0  0  0
 17 18  1  0  0  0
 18 19  2  0  0  0
 19  1  1  0  0  0
  1  2  1  0  0  0
  2  3  1  0  0  0
  3  4  1  0  0  0
  4  6  1  0  0  0
  6  7  2  0  0  0
  7  8  1  0  0  0
  8  9  2  0  0  0
  9 10  1  0  0  0
 10 11  2  0  0  0
 11 12  1  0  0  0
 12 13  2  0  0  0
 13 14  1  0  0  0
 14 15  2  0  0  0
  4  5  1  0  0  0
 19 20  1  0  0  0
 20 21  2  0  0  0
 21 16  1  0  0  0
  5  1  1  0  0  0
 15  6  1  0  0  0
 15 10  1  0  0  0
M  END
> <minimizedAffinity>
-7.11047

> <minimizedRMSD>
1.90546

$$$$
P40746


 18 20  0  0  0  0  0  0  0  0999 V2000
   -6.9522    4.8508  -15.8174 C   0  0  0  0  0  0  0  0  0  0  0  0
   -8.2763    4.7014  -15.6486 N   0  0  0  0  0  0  0  0  0  0  0  0
   -8.9792    4.4759  -16.7575 C   0  0  0  0  0  0  0  0  0  0  0  0
   -8.5104    4.3998  -17.9979 N   0  0  0  0  0  0  0  0  0  0  0  0
   -7.2055    4.5914  -18.1467 C   0  0  0  0  0  0  0  0  0  0  0  0
   -6.6933    4.4789  -19.4223 C   0  0  0  0  0  0  0  0  0  0  0  0
   -5.3378    4.6706  -19.7012 C   0  0  0  0  0  0  0  0  0  0  0  0
   -4.4687    4.9862  -18.6726 C   0  0  0  0  0  0  0  0  0  0  0  0
   -4.9585    5.0705  -17.3711 C   0  0  0  0  0  0  0  0  0  0  0  0
   -6.3362    4.8558  -17.0851 C   0  0  0  0  0  0  0  0  0  0  0  0
   -5.9827    5.0101  -14.3234 S   0  0  0  0  0  0  0  0  0  0  0  0
   -8.8856    2.9881   -9.0166 Br  0  0  0  0  0  0  0  0  0  0  0  0
   -8.2105    3.5037  -10.6970 C   0  0  0  0  0  0  0  0  0  0  0  0
   -7.6727    2.5650  -11.5623 C   0  0  0  0  0  0  0  0  0  0  0  0
   -7.0526    2.9948  -12.7374 C   0  0  0  0  0  0  0  0  0  0  0  0
   -7.0050    4.3566  -13.0196 C   0  0  0  0  0  0  0  0  0  0  0  0
   -7.5731    5.2836  -12.2057 N   0  0  0  0  0  0  0  0  0  0  0  0
   -8.1630    4.8351  -11.0694 C   0  0  0  0  0  0  0  0  0  0  0  0
 12 13  1  0  0  0
 13 14  2  0  0  0
 14 15  1  0  0  0
 15 16  2  0  0  0
 16 11  1  0  0  0
 11  1  1  0  0  0
  1  2  2  0  0  0
  2  3  1  0  0  0
  3  4  2  0  0  0
  4  5  1  0  0  0
  5  6  2  0  0  0
  6  7  1  0  0  0
  7  8  2  0  0  0
  8  9  1  0  0  0
  9 10  2  0  0  0
 16 17  1  0  0  0
 17 18  2  0  0  0
 18 13  1  0  0  0
 10  1  1  0  0  0
 10  5  1  0  0  0
M  END
> <minimizedAffinity>
-6.04654

> <minimizedRMSD>
0.74213

$$$$
P40748


 20 22  0  0  0  0  0  0  0  0999 V2000
   -5.6149    4.6603  -14.2459 S   0  0  0  0  0  0  0  0  0  0  0  0
   -6.6420    4.6902  -15.7150 C   0  0  0  0  0  0  0  0  0  0  0  0
   -7.9648    4.5746  -15.5113 N   0  0  0  0  0  0  0  0  0  0  0  0
   -8.7148    4.4720  -16.6068 C   0  0  0  0  0  0  0  0  0  0  0  0
   -8.2929    4.4702  -17.8658 N   0  0  0  0  0  0  0  0  0  0  0  0
   -6.9863    4.6172  -18.0485 C   0  0  0  0  0  0  0  0  0  0  0  0
   -6.5235    4.5752  -19.3474 C   0  0  0  0  0  0  0  0  0  0  0  0
   -5.1699    4.7218  -19.6599 C   0  0  0  0  0  0  0  0  0  0  0  0
   -4.2532    4.9210  -18.6433 C   0  0  0  0  0  0  0  0  0  0  0  0
   -4.6948    4.9350  -17.3218 C   0  0  0  0  0  0  0  0  0  0  0  0
   -6.0705    4.7640  -17.0018 C   0  0  0  0  0  0  0  0  0  0  0  0
   -7.3202    2.1463  -13.3109 N   0  0  0  0  0  0  0  0  0  0  0  0
   -7.3789    3.3233  -12.5248 C   0  0  0  0  0  0  0  0  0  0  0  0
   -8.2046    3.3152  -11.3989 C   0  0  0  0  0  0  0  0  0  0  0  0
   -8.3580    4.4687  -10.6423 C   0  0  0  0  0  0  0  0  0  0  0  0
   -7.7070    5.6145  -11.0608 C   0  0  0  0  0  0  0  0  0  0  0  0
   -6.9194    5.6823  -12.1567 N   0  0  0  0  0  0  0  0  0  0  0  0
   -6.7745    4.5434  -12.8863 C   0  0  0  0  0  0  0  0  0  0  0  0
   -7.7649    1.3246  -13.0007 H   0  0  0  0  0  0  0  0  0  0  0  0
   -6.8347    2.1501  -14.1673 H   0  0  0  0  0  0  0  0  0  0  0  0
 12 13  1  0  0  0
 13 14  2  0  0  0
 14 15  1  0  0  0
 15 16  2  0  0  0
 16 17  1  0  0  0
 17 18  2  0  0  0
 18  1  1  0  0  0
  1  2  1  0  0  0
  2  3  2  0  0  0
  3  4  1  0  0  0
  4  5  2  0  0  0
  5  6  1  0  0  0
  6  7  2  0  0  0
  7  8  1  0  0  0
  8  9  2  0  0  0
  9 10  1  0  0  0
 10 11  2  0  0  0
 18 13  1  0  0  0
 11  2  1  0  0  0
 11  6  1  0  0  0
 12 19  1  0  0  0
 12 20  1  0  0  0
M  END
> <minimizedAffinity>
-6.59481

> <minimizedRMSD>
0.77317

$$$$
P40750


 18 20  0  0  0  0  0  0  0  0999 V2000
   -6.7157    4.9754  -15.5081 C   0  0  0  0  0  0  0  0  0  0  0  0
   -8.0269    4.8066  -15.2749 N   0  0  0  0  0  0  0  0  0  0  0  0
   -8.7763    4.5368  -16.3414 C   0  0  0  0  0  0  0  0  0  0  0  0
   -8.3729    4.4481  -17.6046 N   0  0  0  0  0  0  0  0  0  0  0  0
   -7.0781    4.6459  -17.8211 C   0  0  0  0  0  0  0  0  0  0  0  0
   -6.6295    4.5143  -19.1204 C   0  0  0  0  0  0  0  0  0  0  0  0
   -5.2860    4.6851  -19.4619 C   0  0  0  0  0  0  0  0  0  0  0  0
   -4.3678    5.0105  -18.4792 C   0  0  0  0  0  0  0  0  0  0  0  0
   -4.7965    5.1327  -17.1583 C   0  0  0  0  0  0  0  0  0  0  0  0
   -6.1596    4.9356  -16.8042 C   0  0  0  0  0  0  0  0  0  0  0  0
   -5.7046    5.2401  -14.0491 S   0  0  0  0  0  0  0  0  0  0  0  0
   -6.2914    1.9830  -13.0501 Br  0  0  0  0  0  0  0  0  0  0  0  0
   -7.0910    3.5150  -12.2930 C   0  0  0  0  0  0  0  0  0  0  0  0
   -7.9154    3.3071  -11.1854 C   0  0  0  0  0  0  0  0  0  0  0  0
   -8.3941    4.3998  -10.4809 C   0  0  0  0  0  0  0  0  0  0  0  0
   -8.0512    5.6628  -10.9272 C   0  0  0  0  0  0  0  0  0  0  0  0
   -7.2805    5.9012  -12.0120 N   0  0  0  0  0  0  0  0  0  0  0  0
   -6.8121    4.8240  -12.7022 C   0  0  0  0  0  0  0  0  0  0  0  0
 12 13  1  0  0  0
 13 14  2  0  0  0
 14 15  1  0  0  0
 15 16  2  0  0  0
 16 17  1  0  0  0
 17 18  2  0  0  0
 18 11  1  0  0  0
 11  1  1  0  0  0
  1  2  2  0  0  0
  2  3  1  0  0  0
  3  4  2  0  0  0
  4  5  1  0  0  0
  5  6  2  0  0  0
  6  7  1  0  0  0
  7  8  2  0  0  0
  8  9  1  0  0  0
  9 10  2  0  0  0
 18 13  1  0  0  0
 10  1  1  0  0  0
 10  5  1  0  0  0
M  END
> <minimizedAffinity>
-6.01216

> <minimizedRMSD>
0.74508

$$$$
P40868


 15 16  0  0  0  0  0  0  0  0999 V2000
   -4.2338    5.0062  -18.4080 C   0  0  0  0  0  0  0  0  0  0  0  0
   -4.4953    4.9429  -17.1255 N   0  0  0  0  0  0  0  0  0  0  0  0
   -5.8586    4.7862  -16.9362 C   0  0  0  0  0  0  0  0  0  0  0  0
   -6.5109    4.6790  -15.7006 C   0  0  0  0  0  0  0  0  0  0  0  0
   -7.8976    4.5663  -15.6674 C   0  0  0  0  0  0  0  0  0  0  0  0
   -8.5061    4.4953  -14.4765 F   0  0  0  0  0  0  0  0  0  0  0  0
   -8.6571    4.5691  -16.8283 C   0  0  0  0  0  0  0  0  0  0  0  0
   -8.0294    4.6622  -18.0698 C   0  0  0  0  0  0  0  0  0  0  0  0
   -6.6273    4.7541  -18.0978 C   0  0  0  0  0  0  0  0  0  0  0  0
   -5.5733    4.8310  -19.4461 S   0  0  0  0  0  0  0  0  0  0  0  0
   -3.0250    5.1843  -18.9663 N   0  0  0  0  0  0  0  0  0  0  0  0
   -2.8452    4.8005  -19.8549 H   0  0  0  0  0  0  0  0  0  0  0  0
   -0.6374    5.4220  -18.8007 C   0  0  0  0  0  0  0  0  0  0  0  0
   -1.9830    5.9250  -18.2950 C   0  0  0  0  0  0  0  0  0  0  0  0
   -2.1529    7.4084  -18.6029 C   0  0  0  0  0  0  0  0  0  0  0  0
 13 14  1  0  0  0
 14 15  1  0  0  0
 14 11  1  0  0  0
 11  1  1  0  0  0
  1  2  2  0  0  0
  2  3  1  0  0  0
  3  4  2  0  0  0
  4  5  1  0  0  0
  5  6  1  0  0  0
  5  7  2  0  0  0
  7  8  1  0  0  0
  8  9  2  0  0  0
  9 10  1  0  0  0
 10  1  1  0  0  0
  9  3  1  0  0  0
 11 12  1  0  0  0
M  END
> <minimizedAffinity>
-4.54664

> <minimizedRMSD>
0.95496

$$$$
P40869


 18 19  0  0  0  0  0  0  0  0999 V2000
   -4.3703    4.9130  -18.0142 C   0  0  0  0  0  0  0  0  0  0  0  0
   -4.8630    4.8095  -16.7960 N   0  0  0  0  0  0  0  0  0  0  0  0
   -6.2666    4.6810  -16.8422 C   0  0  0  0  0  0  0  0  0  0  0  0
   -7.1926    4.5151  -15.7635 C   0  0  0  0  0  0  0  0  0  0  0  0
   -8.5616    4.3966  -16.1021 C   0  0  0  0  0  0  0  0  0  0  0  0
   -9.0192    4.4806  -17.4131 C   0  0  0  0  0  0  0  0  0  0  0  0
   -8.1359    4.6603  -18.4571 C   0  0  0  0  0  0  0  0  0  0  0  0
   -6.7773    4.7368  -18.1453 C   0  0  0  0  0  0  0  0  0  0  0  0
   -5.5118    4.8880  -19.2705 S   0  0  0  0  0  0  0  0  0  0  0  0
   -6.8377    4.4579  -14.2893 C   0  0  0  0  0  0  0  0  0  0  0  0
   -6.0410    3.4110  -13.9333 F   0  0  0  0  0  0  0  0  0  0  0  0
   -6.2063    5.5790  -13.8645 F   0  0  0  0  0  0  0  0  0  0  0  0
   -7.9347    4.3640  -13.4640 F   0  0  0  0  0  0  0  0  0  0  0  0
   -3.0948    5.0166  -18.4302 N   0  0  0  0  0  0  0  0  0  0  0  0
   -2.8075    4.4170  -19.1562 H   0  0  0  0  0  0  0  0  0  0  0  0
   -0.7766    5.5831  -18.5570 C   0  0  0  0  0  0  0  0  0  0  0  0
   -2.1173    5.9281  -17.9047 C   0  0  0  0  0  0  0  0  0  0  0  0
   -2.5128    7.3575  -18.2580 C   0  0  0  0  0  0  0  0  0  0  0  0
 16 17  1  0  0  0
 17 18  1  0  0  0
 17 14  1  0  0  0
 14  1  1  0  0  0
  1  2  2  0  0  0
  2  3  1  0  0  0
  3  4  2  0  0  0
  4 10  1  0  0  0
 10 11  1  0  0  0
 10 12  1  0  0  0
 10 13  1  0  0  0
  4  5  1  0  0  0
  5  6  2  0  0  0
  6  7  1  0  0  0
  7  8  2  0  0  0
  8  9  1  0  0  0
  9  1  1  0  0  0
  8  3  1  0  0  0
 14 15  1  0  0  0
M  END
> <minimizedAffinity>
-5.04643

> <minimizedRMSD>
0.75483

$$$$
P40874


 15 16  0  0  0  0  0  0  0  0999 V2000
   -4.2086    4.9872  -18.5503 C   0  0  0  0  0  0  0  0  0  0  0  0
   -4.4309    4.9575  -17.2607 N   0  0  0  0  0  0  0  0  0  0  0  0
   -5.7838    4.8221  -17.0305 C   0  0  0  0  0  0  0  0  0  0  0  0
   -6.3836    4.7638  -15.7698 C   0  0  0  0  0  0  0  0  0  0  0  0
   -7.7685    4.6685  -15.6738 C   0  0  0  0  0  0  0  0  0  0  0  0
   -8.4552    4.6677  -14.1018 Cl  0  0  0  0  0  0  0  0  0  0  0  0
   -8.5722    4.6306  -16.8089 C   0  0  0  0  0  0  0  0  0  0  0  0
   -7.9917    4.6796  -18.0789 C   0  0  0  0  0  0  0  0  0  0  0  0
   -6.5918    4.7625  -18.1621 C   0  0  0  0  0  0  0  0  0  0  0  0
   -5.5786    4.7997  -19.5433 S   0  0  0  0  0  0  0  0  0  0  0  0
   -3.0072    5.1328  -19.1293 N   0  0  0  0  0  0  0  0  0  0  0  0
   -2.7948    4.6159  -19.9399 H   0  0  0  0  0  0  0  0  0  0  0  0
   -0.6429    5.4467  -18.8429 C   0  0  0  0  0  0  0  0  0  0  0  0
   -2.0207    6.0346  -18.5838 C   0  0  0  0  0  0  0  0  0  0  0  0
   -2.1658    7.3963  -19.2529 C   0  0  0  0  0  0  0  0  0  0  0  0
 13 14  1  0  0  0
 14 15  1  0  0  0
 14 11  1  0  0  0
 11  1  1  0  0  0
  1  2  2  0  0  0
  2  3  1  0  0  0
  3  4  2  0  0  0
  4  5  1  0  0  0
  5  6  1  0  0  0
  5  7  2  0  0  0
  7  8  1  0  0  0
  8  9  2  0  0  0
  9 10  1  0  0  0
 10  1  1  0  0  0
  9  3  1  0  0  0
 11 12  1  0  0  0
M  END
> <minimizedAffinity>
-4.49164

> <minimizedRMSD>
0.88630

$$$$
P41061


 21 23  0  0  0  0  0  0  0  0999 V2000
   -6.6990    4.2705  -13.9838 C   0  0  0  0  0  0  0  0  0  0  0  0
   -7.1144    4.4420  -15.4259 C   0  0  0  0  0  0  0  0  0  0  0  0
   -8.4850    4.3847  -15.7399 C   0  0  0  0  0  0  0  0  0  0  0  0
   -8.9207    4.5271  -17.0500 C   0  0  0  0  0  0  0  0  0  0  0  0
   -7.9870    4.7213  -18.0582 C   0  0  0  0  0  0  0  0  0  0  0  0
   -6.6169    4.7750  -17.7580 C   0  0  0  0  0  0  0  0  0  0  0  0
   -5.6746    4.9740  -18.7711 C   0  0  0  0  0  0  0  0  0  0  0  0
   -4.3226    5.0125  -18.4651 C   0  0  0  0  0  0  0  0  0  0  0  0
   -3.9577    4.8614  -17.1429 C   0  0  0  0  0  0  0  0  0  0  0  0
   -4.8359    4.6816  -16.1293 N   0  0  0  0  0  0  0  0  0  0  0  0
   -6.1566    4.6311  -16.4294 C   0  0  0  0  0  0  0  0  0  0  0  0
   -6.8775    1.9661  -13.4614 O   0  0  0  0  0  0  0  0  0  0  0  0
   -6.1705    2.8717  -13.6655 C   0  0  0  0  0  0  0  0  0  0  0  0
   -4.6288    2.9791  -13.5816 N   0  0  0  0  0  0  0  0  0  0  0  0
   -4.2699    3.8838  -13.7299 H   0  0  0  0  0  0  0  0  0  0  0  0
   -3.6404    1.9773  -13.3237 C   0  0  0  0  0  0  0  0  0  0  0  0
   -3.3883    1.9084  -11.8683 C   0  0  0  0  0  0  0  0  0  0  0  0
   -4.2009    1.6354  -10.7869 C   0  0  0  0  0  0  0  0  0  0  0  0
   -3.3787    1.7165   -9.6386 C   0  0  0  0  0  0  0  0  0  0  0  0
   -2.1190    2.0310  -10.0910 C   0  0  0  0  0  0  0  0  0  0  0  0
   -2.1120    2.1452  -11.4445 O   0  0  0  0  0  0  0  0  0  0  0  0
 12 13  2  0  0  0
 13  1  1  0  0  0
  1  2  1  0  0  0
  2  3  2  0  0  0
  3  4  1  0  0  0
  4  5  2  0  0  0
  5  6  1  0  0  0
  6  7  2  0  0  0
  7  8  1  0  0  0
  8  9  2  0  0  0
  9 10  1  0  0  0
 10 11  2  0  0  0
 13 14  1  0  0  0
 14 16  1  0  0  0
 16 17  1  0  0  0
 17 18  2  0  0  0
 18 19  1  0  0  0
 19 20  2  0  0  0
 20 21  1  0  0  0
 11  2  1  0  0  0
 21 17  1  0  0  0
 11  6  1  0  0  0
 14 15  1  0  0  0
M  END
> <minimizedAffinity>
-6.52349

> <minimizedRMSD>
1.19472

$$$$
P41066


 24 26  0  0  0  0  0  0  0  0999 V2000
   -6.7597    1.6299  -13.5567 O   0  0  0  0  0  0  0  0  0  0  0  0
   -6.0903    2.5199  -13.2057 C   0  0  0  0  0  0  0  0  0  0  0  0
   -6.2217    4.0402  -13.4712 N   0  0  0  0  0  0  0  0  0  0  0  0
   -5.4783    4.5849  -13.1250 H   0  0  0  0  0  0  0  0  0  0  0  0
   -4.9097    2.3172  -12.2427 C   0  0  0  0  0  0  0  0  0  0  0  0
   -3.5014    2.5715  -12.7993 C   0  0  0  0  0  0  0  0  0  0  0  0
   -2.6362    1.3034  -12.6729 C   0  0  0  0  0  0  0  0  0  0  0  0
   -1.2195    1.5317  -13.1968 C   0  0  0  0  0  0  0  0  0  0  0  0
   -0.5384    2.6317  -12.5096 N   0  0  0  0  0  0  0  0  0  0  0  0
   -1.3394    3.8617  -12.5678 C   0  0  0  0  0  0  0  0  0  0  0  0
   -2.7685    3.6874  -12.0407 C   0  0  0  0  0  0  0  0  0  0  0  0
   -3.4355    4.8619  -12.1897 F   0  0  0  0  0  0  0  0  0  0  0  0
    0.3627    2.7984  -12.9575 H   0  0  0  0  0  0  0  0  0  0  0  0
   -7.2506    4.7838  -14.1397 C   0  0  0  0  0  0  0  0  0  0  0  0
   -7.4271    4.6062  -15.6233 C   0  0  0  0  0  0  0  0  0  0  0  0
   -8.7452    4.4729  -16.1088 C   0  0  0  0  0  0  0  0  0  0  0  0
   -9.0178    4.4779  -17.4696 C   0  0  0  0  0  0  0  0  0  0  0  0
   -7.9688    4.5989  -18.3662 C   0  0  0  0  0  0  0  0  0  0  0  0
   -6.6493    4.7075  -17.9026 C   0  0  0  0  0  0  0  0  0  0  0  0
   -5.5990    4.8404  -18.8154 C   0  0  0  0  0  0  0  0  0  0  0  0
   -4.2946    4.9554  -18.3621 C   0  0  0  0  0  0  0  0  0  0  0  0
   -4.0896    4.9531  -16.9979 C   0  0  0  0  0  0  0  0  0  0  0  0
   -5.0788    4.8507  -16.0825 N   0  0  0  0  0  0  0  0  0  0  0  0
   -6.3532    4.7099  -16.5171 C   0  0  0  0  0  0  0  0  0  0  0  0
  1  2  2  0  0  0
  2  5  1  0  0  0
  6  5  1  0  0  0
  6  7  1  0  0  0
  7  8  1  0  0  0
  8  9  1  0  0  0
  9 10  1  0  0  0
 10 11  1  0  0  0
 11 12  1  0  0  0
  2  3  1  0  0  0
  3 14  1  0  0  0
 14 15  1  0  0  0
 15 16  2  0  0  0
 16 17  1  0  0  0
 17 18  2  0  0  0
 18 19  1  0  0  0
 19 20  2  0  0  0
 20 21  1  0  0  0
 21 22  2  0  0  0
 22 23  1  0  0  0
 23 24  2  0  0  0
 11  6  1  0  0  0
 24 15  1  0  0  0
 24 19  1  0  0  0
  9 13  1  0  0  0
  3  4  1  0  0  0
M  END
> <minimizedAffinity>
-6.73910

> <minimizedRMSD>
0.45861

$$$$
P41107


 21 23  0  0  0  0  0  0  0  0999 V2000
   -6.8192    4.8294  -14.0415 C   0  0  0  0  0  0  0  0  0  0  0  0
   -7.2189    4.7178  -15.4922 C   0  0  0  0  0  0  0  0  0  0  0  0
   -8.5890    4.5606  -15.7816 C   0  0  0  0  0  0  0  0  0  0  0  0
   -9.0390    4.4657  -17.0900 C   0  0  0  0  0  0  0  0  0  0  0  0
   -8.1202    4.5315  -18.1255 C   0  0  0  0  0  0  0  0  0  0  0  0
   -6.7542    4.7064  -17.8566 C   0  0  0  0  0  0  0  0  0  0  0  0
   -5.8376    4.7878  -18.9091 C   0  0  0  0  0  0  0  0  0  0  0  0
   -4.4874    4.9567  -18.6455 C   0  0  0  0  0  0  0  0  0  0  0  0
   -4.0999    5.0534  -17.3256 C   0  0  0  0  0  0  0  0  0  0  0  0
   -4.9530    4.9924  -16.2772 N   0  0  0  0  0  0  0  0  0  0  0  0
   -6.2756    4.8086  -16.5291 C   0  0  0  0  0  0  0  0  0  0  0  0
   -6.6011    1.6360  -13.4980 O   0  0  0  0  0  0  0  0  0  0  0  0
   -5.7269    2.4111  -13.4860 C   0  0  0  0  0  0  0  0  0  0  0  0
   -5.7445    3.9501  -13.6898 N   0  0  0  0  0  0  0  0  0  0  0  0
   -4.8760    4.3937  -13.5556 H   0  0  0  0  0  0  0  0  0  0  0  0
   -4.2731    2.0163  -13.2106 C   0  0  0  0  0  0  0  0  0  0  0  0
   -3.9098    2.2042  -11.7853 C   0  0  0  0  0  0  0  0  0  0  0  0
   -2.9376    3.0659  -11.2323 C   0  0  0  0  0  0  0  0  0  0  0  0
   -2.8492    2.9508   -9.9054 N   0  0  0  0  0  0  0  0  0  0  0  0
   -3.8100    2.0129   -9.5585 O   0  0  0  0  0  0  0  0  0  0  0  0
   -4.4364    1.5769  -10.6799 C   0  0  0  0  0  0  0  0  0  0  0  0
 12 13  2  0  0  0
 13 16  1  0  0  0
 16 17  1  0  0  0
 17 18  1  0  0  0
 18 19  2  0  0  0
 19 20  1  0  0  0
 20 21  1  0  0  0
 13 14  1  0  0  0
 14  1  1  0  0  0
  1  2  1  0  0  0
  2  3  2  0  0  0
  3  4  1  0  0  0
  4  5  2  0  0  0
  5  6  1  0  0  0
  6  7  2  0  0  0
  7  8  1  0  0  0
  8  9  2  0  0  0
  9 10  1  0  0  0
 10 11  2  0  0  0
 21 17  2  0  0  0
 11  2  1  0  0  0
 11  6  1  0  0  0
 14 15  1  0  0  0
M  END
> <minimizedAffinity>
-6.50690

> <minimizedRMSD>
0.58655

$$$$
P41114


 16 18  0  0  0  0  0  0  0  0999 V2000
   -4.8921    5.0305  -18.5522 C   0  0  0  0  0  0  0  0  0  0  0  0
   -5.2288    5.1314  -17.2133 C   0  0  0  0  0  0  0  0  0  0  0  0
   -6.6059    4.8419  -17.0774 C   0  0  0  0  0  0  0  0  0  0  0  0
   -7.4621    4.7139  -15.9740 C   0  0  0  0  0  0  0  0  0  0  0  0
   -8.7898    4.3534  -16.1987 C   0  0  0  0  0  0  0  0  0  0  0  0
   -9.2764    4.1476  -17.4868 C   0  0  0  0  0  0  0  0  0  0  0  0
   -8.4383    4.2710  -18.5948 C   0  0  0  0  0  0  0  0  0  0  0  0
   -7.1049    4.6179  -18.3581 C   0  0  0  0  0  0  0  0  0  0  0  0
   -6.0614    4.7911  -19.2413 N   0  0  0  0  0  0  0  0  0  0  0  0
   -6.1398    4.7497  -20.2218 H   0  0  0  0  0  0  0  0  0  0  0  0
   -1.1386    5.4145  -20.3495 C   0  0  0  0  0  0  0  0  0  0  0  0
   -1.3182    4.4201  -19.3945 C   0  0  0  0  0  0  0  0  0  0  0  0
   -2.5635    4.2559  -18.8114 C   0  0  0  0  0  0  0  0  0  0  0  0
   -3.5927    5.1068  -19.1959 C   0  0  0  0  0  0  0  0  0  0  0  0
   -3.4492    6.0730  -20.1314 N   0  0  0  0  0  0  0  0  0  0  0  0
   -2.2233    6.2102  -20.6779 C   0  0  0  0  0  0  0  0  0  0  0  0
 11 12  2  0  0  0
 12 13  1  0  0  0
 13 14  2  0  0  0
 14  1  1  0  0  0
  1  2  2  0  0  0
  2  3  1  0  0  0
  3  4  2  0  0  0
  4  5  1  0  0  0
  5  6  2  0  0  0
  6  7  1  0  0  0
  7  8  2  0  0  0
  8  9  1  0  0  0
 14 15  1  0  0  0
 15 16  2  0  0  0
 16 11  1  0  0  0
  9  1  1  0  0  0
  8  3  1  0  0  0
  9 10  1  0  0  0
M  END
> <minimizedAffinity>
-6.36380

> <minimizedRMSD>
0.83933

$$$$
P41154


 13 14  0  0  0  0  0  0  0  0999 V2000
   -7.5297    4.5538  -14.4900 C   0  0  0  0  0  0  0  0  0  0  0  0
   -8.6486    5.2371  -13.6682 C   0  0  0  0  0  0  0  0  0  0  0  0
   -8.2394    5.5888  -12.2364 C   0  0  0  0  0  0  0  0  0  0  0  0
   -6.9951    4.8347  -11.7984 C   0  0  0  0  0  0  0  0  0  0  0  0
   -5.8495    5.1310  -12.6604 N   0  0  0  0  0  0  0  0  0  0  0  0
   -6.1806    5.1893  -14.0979 C   0  0  0  0  0  0  0  0  0  0  0  0
   -5.1472    4.4044  -12.5220 H   0  0  0  0  0  0  0  0  0  0  0  0
   -7.9871    4.4312  -18.7556 C   0  0  0  0  0  0  0  0  0  0  0  0
   -9.1046    4.2360  -17.9673 C   0  0  0  0  0  0  0  0  0  0  0  0
   -8.9700    4.2670  -16.5831 C   0  0  0  0  0  0  0  0  0  0  0  0
   -7.7335    4.5448  -16.0052 C   0  0  0  0  0  0  0  0  0  0  0  0
   -6.6363    4.7626  -16.7786 N   0  0  0  0  0  0  0  0  0  0  0  0
   -6.7837    4.6843  -18.1254 C   0  0  0  0  0  0  0  0  0  0  0  0
  8  9  2  0  0  0
  9 10  1  0  0  0
 10 11  2  0  0  0
  1 11  1  0  0  0
  1  2  1  0  0  0
  2  3  1  0  0  0
  3  4  1  0  0  0
  4  5  1  0  0  0
  5  6  1  0  0  0
 11 12  1  0  0  0
 12 13  2  0  0  0
 13  8  1  0  0  0
  6  1  1  0  0  0
  5  7  1  0  0  0
M  END
> <minimizedAffinity>
-4.29758

> <minimizedRMSD>
0.72180

$$$$
P41240


 21 22  0  0  0  0  0  0  0  0999 V2000
   -8.3732    4.4484  -15.8674 C   0  0  0  0  0  0  0  0  0  0  0  0
   -9.5791    4.2276  -16.5392 C   0  0  0  0  0  0  0  0  0  0  0  0
   -9.6006    4.1881  -17.9151 C   0  0  0  0  0  0  0  0  0  0  0  0
  -10.7601    3.9914  -18.5472 F   0  0  0  0  0  0  0  0  0  0  0  0
   -8.4360    4.3621  -18.6368 C   0  0  0  0  0  0  0  0  0  0  0  0
   -7.2203    4.5619  -17.9655 C   0  0  0  0  0  0  0  0  0  0  0  0
   -6.0394    4.7395  -18.6946 C   0  0  0  0  0  0  0  0  0  0  0  0
   -4.8379    4.9236  -18.0277 C   0  0  0  0  0  0  0  0  0  0  0  0
   -4.8605    4.9299  -16.6480 C   0  0  0  0  0  0  0  0  0  0  0  0
   -5.9822    4.7756  -15.9102 N   0  0  0  0  0  0  0  0  0  0  0  0
   -7.1612    4.5946  -16.5495 C   0  0  0  0  0  0  0  0  0  0  0  0
   -7.5048    3.7307  -13.6319 N   0  0  0  0  0  0  0  0  0  0  0  0
   -8.4889    4.6294  -14.4006 C   0  0  0  0  0  0  0  0  0  0  0  0
   -9.3260    5.3422  -14.0096 O   0  0  0  0  0  0  0  0  0  0  0  0
   -6.9386    3.1597  -14.1999 H   0  0  0  0  0  0  0  0  0  0  0  0
   -6.2833    2.4351  -11.9500 C   0  0  0  0  0  0  0  0  0  0  0  0
   -7.2727    3.5859  -12.1925 C   0  0  0  0  0  0  0  0  0  0  0  0
   -6.6688    4.8924  -11.6583 C   0  0  0  0  0  0  0  0  0  0  0  0
   -8.6109    3.2894  -11.4726 C   0  0  0  0  0  0  0  0  0  0  0  0
   -8.4268    2.8095  -10.1449 O   0  0  0  0  0  0  0  0  0  0  0  0
   -7.9346    1.9739  -10.1684 H   0  0  0  0  0  0  0  0  0  0  0  0
 16 17  1  0  0  0
 17 18  1  0  0  0
 17 19  1  0  0  0
 19 20  1  0  0  0
 17 12  1  0  0  0
 12 13  1  0  0  0
 13 14  2  0  0  0
 13  1  1  0  0  0
  1  2  2  0  0  0
  2  3  1  0  0  0
  3  4  1  0  0  0
  3  5  2  0  0  0
  5  6  1  0  0  0
  6  7  2  0  0  0
  7  8  1  0  0  0
  8  9  2  0  0  0
  9 10  1  0  0  0
 10 11  2  0  0  0
 11  1  1  0  0  0
 11  6  1  0  0  0
 20 21  1  0  0  0
 12 15  1  0  0  0
M  END
> <minimizedAffinity>
-7.29087

> <minimizedRMSD>
0.40632

$$$$
P41345


 12 13  0  0  0  0  0  0  0  0999 V2000
   -6.3437    3.7338  -12.7601 C   0  0  0  0  0  0  0  0  0  0  0  0
   -6.5502    3.6827  -14.1324 C   0  0  0  0  0  0  0  0  0  0  0  0
   -7.6234    4.3861  -14.6962 C   0  0  0  0  0  0  0  0  0  0  0  0
   -8.4334    5.1236  -13.8244 C   0  0  0  0  0  0  0  0  0  0  0  0
   -8.1511    5.1149  -12.4649 C   0  0  0  0  0  0  0  0  0  0  0  0
   -7.1244    4.4380  -11.9119 N   0  0  0  0  0  0  0  0  0  0  0  0
   -7.8827    4.3622  -16.1485 C   0  0  0  0  0  0  0  0  0  0  0  0
   -9.1452    4.1340  -16.6657 C   0  0  0  0  0  0  0  0  0  0  0  0
   -9.2660    4.1142  -18.0355 C   0  0  0  0  0  0  0  0  0  0  0  0
   -8.2294    4.3130  -18.8613 N   0  0  0  0  0  0  0  0  0  0  0  0
   -7.0475    4.5216  -18.2726 C   0  0  0  0  0  0  0  0  0  0  0  0
   -6.8174    4.5869  -16.9499 N   0  0  0  0  0  0  0  0  0  0  0  0
  1  2  2  0  0  0
  2  3  1  0  0  0
  3  7  1  0  0  0
  7  8  2  0  0  0
  8  9  1  0  0  0
  9 10  2  0  0  0
 10 11  1  0  0  0
 11 12  2  0  0  0
  3  4  2  0  0  0
  4  5  1  0  0  0
  5  6  2  0  0  0
  6  1  1  0  0  0
 12  7  1  0  0  0
M  END
> <minimizedAffinity>
-4.65849

> <minimizedRMSD>
1.92247

$$$$
P41355


 17 18  0  0  0  0  0  0  0  0999 V2000
   -8.0003    4.1280  -14.4176 N   0  0  0  0  0  0  0  0  0  0  0  0
   -7.9145    3.2363  -14.0091 H   0  0  0  0  0  0  0  0  0  0  0  0
   -6.6242    4.6392  -17.7527 C   0  0  0  0  0  0  0  0  0  0  0  0
   -6.7176    4.5082  -16.3796 C   0  0  0  0  0  0  0  0  0  0  0  0
   -7.9674    4.2832  -15.8070 C   0  0  0  0  0  0  0  0  0  0  0  0
   -9.0601    4.1170  -16.6566 C   0  0  0  0  0  0  0  0  0  0  0  0
   -8.8695    4.2514  -18.0252 C   0  0  0  0  0  0  0  0  0  0  0  0
   -7.6750    4.5251  -18.5880 N   0  0  0  0  0  0  0  0  0  0  0  0
   -4.3448    5.2321  -18.8387 N   0  0  0  0  0  0  0  0  0  0  0  0
   -5.3696    4.9529  -18.3652 C   0  0  0  0  0  0  0  0  0  0  0  0
   -8.1647    5.3165  -13.5856 C   0  0  0  0  0  0  0  0  0  0  0  0
   -8.2012    4.9066  -12.1255 C   0  0  0  0  0  0  0  0  0  0  0  0
   -8.1213    5.8638  -11.1310 C   0  0  0  0  0  0  0  0  0  0  0  0
   -8.1636    5.3977   -9.8372 C   0  0  0  0  0  0  0  0  0  0  0  0
   -8.2659    4.0967   -9.5154 N   0  0  0  0  0  0  0  0  0  0  0  0
   -8.3112    3.2409  -10.5493 C   0  0  0  0  0  0  0  0  0  0  0  0
   -8.2782    3.5831  -11.8456 N   0  0  0  0  0  0  0  0  0  0  0  0
  9 10  3  0  0  0
 10  3  1  0  0  0
  3  4  2  0  0  0
  4  5  1  0  0  0
  5  1  1  0  0  0
  1 11  1  0  0  0
 11 12  1  0  0  0
 12 13  2  0  0  0
 13 14  1  0  0  0
 14 15  2  0  0  0
 15 16  1  0  0  0
 16 17  2  0  0  0
  5  6  2  0  0  0
  6  7  1  0  0  0
  7  8  2  0  0  0
  8  3  1  0  0  0
 17 12  1  0  0  0
  1  2  1  0  0  0
M  END
> <minimizedAffinity>
-5.44889

> <minimizedRMSD>
1.14054

$$$$
P41435


 22 24  0  0  0  0  0  0  0  0999 V2000
   -7.1360    5.6240  -15.3324 N   0  0  0  0  0  0  0  0  0  0  0  0
   -6.0494    5.9398  -14.3883 C   0  0  0  0  0  0  0  0  0  0  0  0
   -6.3315    5.4280  -12.9409 C   0  0  0  0  0  0  0  0  0  0  0  0
   -7.6270    5.8597  -12.3677 N   0  0  0  0  0  0  0  0  0  0  0  0
   -8.4031    6.5984  -13.3659 C   0  0  0  0  0  0  0  0  0  0  0  0
   -8.4540    5.9326  -14.7478 C   0  0  0  0  0  0  0  0  0  0  0  0
   -6.9671    6.2883  -16.6421 C   0  0  0  0  0  0  0  0  0  0  0  0
   -7.0784    5.3612  -17.8699 C   0  0  0  0  0  0  0  0  0  0  0  0
   -8.0004    4.2960  -17.6740 O   0  0  0  0  0  0  0  0  0  0  0  0
  -10.2968    4.7988  -18.0085 C   0  0  0  0  0  0  0  0  0  0  0  0
   -9.0376    4.2559  -18.6339 C   0  0  0  0  0  0  0  0  0  0  0  0
   -8.4124    4.7131  -11.8745 C   0  0  0  0  0  0  0  0  0  0  0  0
   -8.3627    4.5233  -10.3747 C   0  0  0  0  0  0  0  0  0  0  0  0
   -8.1670    5.5854   -9.4671 C   0  0  0  0  0  0  0  0  0  0  0  0
   -8.2479    5.3828   -8.0846 C   0  0  0  0  0  0  0  0  0  0  0  0
   -8.5349    4.1115   -7.6239 C   0  0  0  0  0  0  0  0  0  0  0  0
   -8.7343    3.0607   -8.5065 C   0  0  0  0  0  0  0  0  0  0  0  0
   -8.6573    3.2481   -9.8732 C   0  0  0  0  0  0  0  0  0  0  0  0
   -9.0481    1.8188   -7.7486 C   0  0  0  0  0  0  0  0  0  0  0  0
   -8.8045    2.1462   -6.3192 N   0  0  0  0  0  0  0  0  0  0  0  0
   -8.7327    3.6218   -6.2319 C   0  0  0  0  0  0  0  0  0  0  0  0
   -7.9262    1.7317   -6.0075 H   0  0  0  0  0  0  0  0  0  0  0  0
 10 11  1  0  0  0
 11  9  1  0  0  0
  9  8  1  0  0  0
  8  7  1  0  0  0
  7  1  1  0  0  0
  1  2  1  0  0  0
  2  3  1  0  0  0
  3  4  1  0  0  0
  4 12  1  0  0  0
 12 13  1  0  0  0
 13 14  2  0  0  0
 14 15  1  0  0  0
 15 16  2  0  0  0
 16 17  1  0  0  0
 17 18  2  0  0  0
 17 19  1  0  0  0
 19 20  1  0  0  0
 20 21  1  0  0  0
  4  5  1  0  0  0
  5  6  1  0  0  0
  6  1  1  0  0  0
 18 13  1  0  0  0
 21 16  1  0  0  0
 20 22  1  0  0  0
M  END
> <minimizedAffinity>
-5.51135

> <minimizedRMSD>
0.73899

$$$$
P41666


 21 23  0  0  0  0  0  0  0  0999 V2000
  -23.2784    3.3112    0.0958 N   0  0  0  0  0  0  0  0  0  0  0  0
  -24.0933    3.5432   -0.4057 H   0  0  0  0  0  0  0  0  0  0  0  0
  -22.0584    3.9451   -0.2282 C   0  0  0  0  0  0  0  0  0  0  0  0
  -21.2606    3.3079   -1.1993 C   0  0  0  0  0  0  0  0  0  0  0  0
  -20.0061    3.7958   -1.5439 C   0  0  0  0  0  0  0  0  0  0  0  0
  -19.5251    4.9374   -0.9221 C   0  0  0  0  0  0  0  0  0  0  0  0
  -20.3010    5.6039    0.0367 C   0  0  0  0  0  0  0  0  0  0  0  0
  -19.7969    6.7483    0.6688 C   0  0  0  0  0  0  0  0  0  0  0  0
  -20.5589    7.4086    1.6192 C   0  0  0  0  0  0  0  0  0  0  0  0
  -21.8063    6.9009    1.9020 C   0  0  0  0  0  0  0  0  0  0  0  0
  -22.3157    5.7933    1.3227 N   0  0  0  0  0  0  0  0  0  0  0  0
  -21.5861    5.1257    0.3994 C   0  0  0  0  0  0  0  0  0  0  0  0
  -23.3507    2.3024    1.1790 C   0  0  0  0  0  0  0  0  0  0  0  0
  -22.0900    1.4485    1.3213 C   0  0  0  0  0  0  0  0  0  0  0  0
  -23.8082    2.9632    2.4896 C   0  0  0  0  0  0  0  0  0  0  0  0
  -25.2217    2.5265    2.9024 C   0  0  0  0  0  0  0  0  0  0  0  0
  -25.7997    3.3208    4.1192 C   0  0  0  0  0  0  0  0  0  0  0  0
  -27.1415    3.3890    3.3714 C   0  0  0  0  0  0  0  0  0  0  0  0
  -26.3601    3.1914    2.0622 C   0  0  0  0  0  0  0  0  0  0  0  0
  -24.7954    0.4229    4.1111 C   0  0  0  0  0  0  0  0  0  0  0  0
  -25.3238    1.0760    2.9654 O   0  0  0  0  0  0  0  0  0  0  0  0
 20 21  1  0  0  0
 21 16  1  0  0  0
 16 15  1  0  0  0
 15 13  1  0  0  0
 13 14  1  0  0  0
 13  1  1  0  0  0
  1  3  1  0  0  0
  3  4  2  0  0  0
  4  5  1  0  0  0
  5  6  2  0  0  0
  6  7  1  0  0  0
  7  8  2  0  0  0
  8  9  1  0  0  0
  9 10  2  0  0  0
 10 11  1  0  0  0
 11 12  2  0  0  0
 16 17  1  0  0  0
 17 18  1  0  0  0
 18 19  1  0  0  0
 19 16  1  0  0  0
 12  3  1  0  0  0
 12  7  1  0  0  0
  1  2  1  0  0  0
M  END
> <minimizedAffinity>
-3.79674

> <minimizedRMSD>
2.34630

$$$$
P41809


 22 24  0  0  0  0  0  0  0  0999 V2000
   -8.1818    3.4829  -11.1003 N   0  0  0  0  0  0  0  0  0  0  0  0
   -7.9091    2.5805  -11.3842 H   0  0  0  0  0  0  0  0  0  0  0  0
   -8.4707    3.7124   -9.7634 C   0  0  0  0  0  0  0  0  0  0  0  0
   -8.0594    4.8643   -9.0647 C   0  0  0  0  0  0  0  0  0  0  0  0
   -8.2496    4.9959   -7.6855 C   0  0  0  0  0  0  0  0  0  0  0  0
   -8.8431    3.9515   -7.0085 C   0  0  0  0  0  0  0  0  0  0  0  0
   -9.2398    2.8030   -7.6777 C   0  0  0  0  0  0  0  0  0  0  0  0
   -9.0616    2.6703   -9.0418 C   0  0  0  0  0  0  0  0  0  0  0  0
   -9.7422    1.8076   -6.6914 C   0  0  0  0  0  0  0  0  0  0  0  0
   -9.9450    2.5744   -5.4393 N   0  0  0  0  0  0  0  0  0  0  0  0
   -9.1114    3.7866   -5.5526 C   0  0  0  0  0  0  0  0  0  0  0  0
   -9.6530    2.0196   -4.6348 H   0  0  0  0  0  0  0  0  0  0  0  0
   -8.2714    4.5402  -12.0922 C   0  0  0  0  0  0  0  0  0  0  0  0
   -6.0876    4.5627  -15.2433 C   0  0  0  0  0  0  0  0  0  0  0  0
   -5.4842    3.7710  -14.2969 C   0  0  0  0  0  0  0  0  0  0  0  0
   -6.1263    3.7251  -13.0840 N   0  0  0  0  0  0  0  0  0  0  0  0
   -7.2213    4.4580  -13.1503 C   0  0  0  0  0  0  0  0  0  0  0  0
   -7.4555    5.3460  -14.5937 S   0  0  0  0  0  0  0  0  0  0  0  0
   -5.7172    4.7802  -16.6477 C   0  0  0  0  0  0  0  0  0  0  0  0
   -7.5326    4.6086  -18.1724 C   0  0  0  0  0  0  0  0  0  0  0  0
   -6.7707    5.5111  -17.3132 N   0  0  0  0  0  0  0  0  0  0  0  0
   -6.2171    6.6561  -18.0193 C   0  0  0  0  0  0  0  0  0  0  0  0
 20 21  1  0  0  0
 21 22  1  0  0  0
 21 19  1  0  0  0
 19 14  1  0  0  0
 14 15  2  0  0  0
 15 16  1  0  0  0
 16 17  2  0  0  0
 17 13  1  0  0  0
 13  1  1  0  0  0
  1  3  1  0  0  0
  3  4  2  0  0  0
  4  5  1  0  0  0
  5  6  2  0  0  0
  6  7  1  0  0  0
  7  8  2  0  0  0
  7  9  1  0  0  0
  9 10  1  0  0  0
 10 11  1  0  0  0
 17 18  1  0  0  0
 18 14  1  0  0  0
  8  3  1  0  0  0
 11  6  1  0  0  0
  1  2  1  0  0  0
 10 12  1  0  0  0
M  END
> <minimizedAffinity>
-5.51057

> <minimizedRMSD>
1.34412

$$$$
P41892


 24 26  0  0  0  0  0  0  0  0999 V2000
   -8.9858    7.1069  -13.0707 C   0  0  0  0  0  0  0  0  0  0  0  0
   -9.8934    7.0499  -13.8046 O   0  0  0  0  0  0  0  0  0  0  0  0
   -7.8485    6.0873  -12.7984 N   0  0  0  0  0  0  0  0  0  0  0  0
   -7.1501    6.4039  -12.1809 H   0  0  0  0  0  0  0  0  0  0  0  0
   -7.4351    9.0883  -12.6223 C   0  0  0  0  0  0  0  0  0  0  0  0
   -8.7242    8.3850  -12.1604 C   0  0  0  0  0  0  0  0  0  0  0  0
   -8.5585    7.9748  -10.6711 C   0  0  0  0  0  0  0  0  0  0  0  0
   -9.9043    9.3814  -12.2654 C   0  0  0  0  0  0  0  0  0  0  0  0
   -9.9474   10.3822  -13.2384 C   0  0  0  0  0  0  0  0  0  0  0  0
  -11.0651   11.2096  -13.3327 C   0  0  0  0  0  0  0  0  0  0  0  0
  -12.1163   11.0398  -12.4461 C   0  0  0  0  0  0  0  0  0  0  0  0
  -11.9965   10.0537  -11.4880 C   0  0  0  0  0  0  0  0  0  0  0  0
  -10.9198    9.2425  -11.3729 N   0  0  0  0  0  0  0  0  0  0  0  0
   -7.6489    4.7572  -13.3006 C   0  0  0  0  0  0  0  0  0  0  0  0
   -6.7883    4.8686  -14.4941 C   0  0  0  0  0  0  0  0  0  0  0  0
   -5.4963    5.1427  -14.4887 N   0  0  0  0  0  0  0  0  0  0  0  0
   -5.0546    5.1689  -15.7887 N   0  0  0  0  0  0  0  0  0  0  0  0
   -6.0831    4.9164  -16.5666 C   0  0  0  0  0  0  0  0  0  0  0  0
   -6.2169    4.7998  -17.9753 C   0  0  0  0  0  0  0  0  0  0  0  0
   -7.4365    4.5869  -18.5027 C   0  0  0  0  0  0  0  0  0  0  0  0
   -8.6187    4.5174  -17.6675 C   0  0  0  0  0  0  0  0  0  0  0  0
  -10.1520    4.5153  -18.4156 Cl  0  0  0  0  0  0  0  0  0  0  0  0
   -8.4923    4.5640  -16.3336 C   0  0  0  0  0  0  0  0  0  0  0  0
   -7.2249    4.7465  -15.7931 N   0  0  0  0  0  0  0  0  0  0  0  0
  5  6  1  0  0  0
  6  7  1  0  0  0
  6  1  1  0  0  0
  1  2  2  0  0  0
  1  3  1  0  0  0
  3 14  1  0  0  0
 14 15  1  0  0  0
 15 16  2  0  0  0
 16 17  1  0  0  0
 17 18  2  0  0  0
 18 19  1  0  0  0
 19 20  2  0  0  0
 20 21  1  0  0  0
 21 22  1  0  0  0
 21 23  2  0  0  0
 23 24  1  0  0  0
  6  8  1  0  0  0
  8  9  2  0  0  0
  9 10  1  0  0  0
 10 11  2  0  0  0
 11 12  1  0  0  0
 12 13  2  0  0  0
 24 15  1  0  0  0
 13  8  1  0  0  0
 24 18  1  0  0  0
  3  4  1  0  0  0
M  END
> <minimizedAffinity>
-6.21658

> <minimizedRMSD>
0.70803

$$$$
P41945


 16 17  0  0  0  0  0  0  0  0999 V2000
   -4.8996    5.0936  -16.9228 C   0  0  0  0  0  0  0  0  0  0  0  0
   -6.3586    5.2094  -16.9962 N   0  0  0  0  0  0  0  0  0  0  0  0
   -6.8032    4.7212  -18.3145 C   0  0  0  0  0  0  0  0  0  0  0  0
   -8.3057    4.8026  -18.4869 C   0  0  0  0  0  0  0  0  0  0  0  0
   -9.0839    4.3833  -17.2618 C   0  0  0  0  0  0  0  0  0  0  0  0
  -10.2307    3.9503  -17.4051 O   0  0  0  0  0  0  0  0  0  0  0  0
   -8.4774    4.5742  -15.8655 C   0  0  0  0  0  0  0  0  0  0  0  0
   -6.9708    4.3678  -15.9630 C   0  0  0  0  0  0  0  0  0  0  0  0
   -8.8800    5.9138  -15.2274 C   0  0  0  0  0  0  0  0  0  0  0  0
   -8.0317    6.4525  -14.0668 C   0  0  0  0  0  0  0  0  0  0  0  0
   -8.2316    5.8997  -12.6779 C   0  0  0  0  0  0  0  0  0  0  0  0
   -8.2614    6.7944  -11.5982 C   0  0  0  0  0  0  0  0  0  0  0  0
   -8.3419    6.3015  -10.3057 C   0  0  0  0  0  0  0  0  0  0  0  0
   -8.3906    4.9911  -10.0107 N   0  0  0  0  0  0  0  0  0  0  0  0
   -8.3658    4.1354  -11.0556 C   0  0  0  0  0  0  0  0  0  0  0  0
   -8.2785    4.5362  -12.3860 C   0  0  0  0  0  0  0  0  0  0  0  0
  1  2  1  0  0  0
  2  3  1  0  0  0
  3  4  1  0  0  0
  4  5  1  0  0  0
  5  6  2  0  0  0
  5  7  1  0  0  0
  7  9  1  0  0  0
  9 10  1  0  0  0
 10 11  1  0  0  0
 11 12  2  0  0  0
 12 13  1  0  0  0
 13 14  2  0  0  0
 14 15  1  0  0  0
 15 16  2  0  0  0
  7  8  1  0  0  0
  8  2  1  0  0  0
 16 11  1  0  0  0
M  END
> <minimizedAffinity>
-5.19345

> <minimizedRMSD>
0.47636

$$$$
P41963


 20 22  0  0  0  0  0  0  0  0999 V2000
   -7.0889    4.9088  -14.1970 N   0  0  0  0  0  0  0  0  0  0  0  0
   -8.4738    5.1736  -13.5689 C   0  0  0  0  0  0  0  0  0  0  0  0
   -9.5148    5.3306  -14.0714 O   0  0  0  0  0  0  0  0  0  0  0  0
   -6.3689    4.7340  -13.5487 H   0  0  0  0  0  0  0  0  0  0  0  0
   -8.3109    5.1165  -12.0991 C   0  0  0  0  0  0  0  0  0  0  0  0
   -8.0583    6.3114  -11.3078 C   0  0  0  0  0  0  0  0  0  0  0  0
   -8.0436    6.1946   -9.9677 C   0  0  0  0  0  0  0  0  0  0  0  0
   -8.2660    4.9422   -9.3936 N   0  0  0  0  0  0  0  0  0  0  0  0
   -8.3137    4.5785   -8.0731 C   0  0  0  0  0  0  0  0  0  0  0  0
   -8.5704    3.2255   -8.0756 C   0  0  0  0  0  0  0  0  0  0  0  0
   -8.6977    2.7547   -9.3531 N   0  0  0  0  0  0  0  0  0  0  0  0
   -8.4931    3.7881  -10.1320 C   0  0  0  0  0  0  0  0  0  0  0  0
   -8.5004    3.9050  -11.5435 C   0  0  0  0  0  0  0  0  0  0  0  0
   -8.1763    4.3868  -18.9338 C   0  0  0  0  0  0  0  0  0  0  0  0
   -7.1906    4.6204  -17.8382 C   0  0  0  0  0  0  0  0  0  0  0  0
   -5.8300    4.7418  -18.0985 C   0  0  0  0  0  0  0  0  0  0  0  0
   -4.9693    4.9018  -17.0288 C   0  0  0  0  0  0  0  0  0  0  0  0
   -5.3695    4.9626  -15.7404 N   0  0  0  0  0  0  0  0  0  0  0  0
   -6.6967    4.8774  -15.5154 C   0  0  0  0  0  0  0  0  0  0  0  0
   -7.6343    4.7190  -16.5221 C   0  0  0  0  0  0  0  0  0  0  0  0
 14 15  1  0  0  0
 15 16  2  0  0  0
 16 17  1  0  0  0
 17 18  2  0  0  0
 18 19  1  0  0  0
 19  1  1  0  0  0
  1  2  1  0  0  0
  2  3  2  0  0  0
  2  5  1  0  0  0
  5  6  1  0  0  0
  6  7  2  0  0  0
  7  8  1  0  0  0
  8  9  1  0  0  0
  9 10  2  0  0  0
 10 11  1  0  0  0
 11 12  2  0  0  0
 12 13  1  0  0  0
 19 20  2  0  0  0
 20 15  1  0  0  0
 13  5  2  0  0  0
 12  8  1  0  0  0
  1  4  1  0  0  0
M  END
> <minimizedAffinity>
-6.70004

> <minimizedRMSD>
0.30877

$$$$
P41964


 22 24  0  0  0  0  0  0  0  0999 V2000
   -7.4955    4.7965  -14.6266 N   0  0  0  0  0  0  0  0  0  0  0  0
   -8.6911    5.4685  -13.9246 C   0  0  0  0  0  0  0  0  0  0  0  0
   -9.6282    5.9992  -14.3699 O   0  0  0  0  0  0  0  0  0  0  0  0
   -6.8620    4.3470  -14.0218 H   0  0  0  0  0  0  0  0  0  0  0  0
   -8.4576    5.3605  -12.4633 C   0  0  0  0  0  0  0  0  0  0  0  0
   -8.2362    6.5480  -11.6474 C   0  0  0  0  0  0  0  0  0  0  0  0
   -8.1287    6.3987  -10.3150 C   0  0  0  0  0  0  0  0  0  0  0  0
   -8.2316    5.1201   -9.7674 N   0  0  0  0  0  0  0  0  0  0  0  0
   -8.1758    4.7197   -8.4577 C   0  0  0  0  0  0  0  0  0  0  0  0
   -8.3432    3.3532   -8.4861 C   0  0  0  0  0  0  0  0  0  0  0  0
   -8.5069    2.9083   -9.7688 N   0  0  0  0  0  0  0  0  0  0  0  0
   -8.4248    3.9734  -10.5270 C   0  0  0  0  0  0  0  0  0  0  0  0
   -8.5263    4.1253  -11.9327 C   0  0  0  0  0  0  0  0  0  0  0  0
   -5.4163    4.8553  -17.4820 C   0  0  0  0  0  0  0  0  0  0  0  0
   -6.3065    4.6984  -18.5424 C   0  0  0  0  0  0  0  0  0  0  0  0
   -7.6650    4.5299  -18.2738 C   0  0  0  0  0  0  0  0  0  0  0  0
   -8.1115    4.5555  -16.9570 C   0  0  0  0  0  0  0  0  0  0  0  0
   -7.1689    4.7224  -15.9607 C   0  0  0  0  0  0  0  0  0  0  0  0
   -5.8495    4.8574  -16.2013 N   0  0  0  0  0  0  0  0  0  0  0  0
   -3.3841    4.6592  -19.0209 C   0  0  0  0  0  0  0  0  0  0  0  0
   -3.9406    5.1612  -17.6906 C   0  0  0  0  0  0  0  0  0  0  0  0
   -3.0488    4.6336  -16.5563 C   0  0  0  0  0  0  0  0  0  0  0  0
 20 21  1  0  0  0
 21 22  1  0  0  0
 21 14  1  0  0  0
 14 15  2  0  0  0
 15 16  1  0  0  0
 16 17  2  0  0  0
 17 18  1  0  0  0
 18  1  1  0  0  0
  1  2  1  0  0  0
  2  3  2  0  0  0
  2  5  1  0  0  0
  5  6  1  0  0  0
  6  7  2  0  0  0
  7  8  1  0  0  0
  8  9  1  0  0  0
  9 10  2  0  0  0
 10 11  1  0  0  0
 11 12  2  0  0  0
 12 13  1  0  0  0
 18 19  2  0  0  0
 19 14  1  0  0  0
 13  5  2  0  0  0
 12  8  1  0  0  0
  1  4  1  0  0  0
M  END
> <minimizedAffinity>
-6.86568

> <minimizedRMSD>
0.48526

$$$$
P42029


 28 31  0  0  0  0  0  0  0  0999 V2000
   -6.6689    5.0237  -17.3692 C   0  0  0  0  0  0  0  0  0  0  0  0
   -7.9565    4.5978  -17.7035 C   0  0  0  0  0  0  0  0  0  0  0  0
   -8.8969    4.2987  -16.6997 C   0  0  0  0  0  0  0  0  0  0  0  0
   -8.4811    4.4761  -15.3718 C   0  0  0  0  0  0  0  0  0  0  0  0
   -8.9901    4.1139  -14.1475 N   0  0  0  0  0  0  0  0  0  0  0  0
   -8.1325    4.5306  -13.1506 C   0  0  0  0  0  0  0  0  0  0  0  0
   -7.1259    5.1929  -13.6814 N   0  0  0  0  0  0  0  0  0  0  0  0
   -7.2680    5.0523  -15.0364 C   0  0  0  0  0  0  0  0  0  0  0  0
   -6.3540    5.3468  -16.0423 C   0  0  0  0  0  0  0  0  0  0  0  0
   -9.8362    3.6314  -14.0042 H   0  0  0  0  0  0  0  0  0  0  0  0
   -8.2969    4.2551  -11.7272 C   0  0  0  0  0  0  0  0  0  0  0  0
   -8.5132    2.9711  -11.2266 C   0  0  0  0  0  0  0  0  0  0  0  0
   -8.5944    2.7644   -9.8501 C   0  0  0  0  0  0  0  0  0  0  0  0
   -8.4657    3.8580   -9.0109 C   0  0  0  0  0  0  0  0  0  0  0  0
   -8.2634    5.1224   -9.4458 N   0  0  0  0  0  0  0  0  0  0  0  0
   -8.1655    5.2802  -10.7924 C   0  0  0  0  0  0  0  0  0  0  0  0
   -5.6133    5.0635  -18.2847 N   0  0  0  0  0  0  0  0  0  0  0  0
   -4.9183    4.3784  -18.1546 H   0  0  0  0  0  0  0  0  0  0  0  0
   -0.5421    6.8071  -22.0194 C   0  0  0  0  0  0  0  0  0  0  0  0
   -1.7780    6.4681  -21.2466 C   0  0  0  0  0  0  0  0  0  0  0  0
   -1.7793    5.6645  -20.1821 C   0  0  0  0  0  0  0  0  0  0  0  0
   -3.0354    5.3767  -19.4896 C   0  0  0  0  0  0  0  0  0  0  0  0
   -3.0299    4.5838  -18.5520 O   0  0  0  0  0  0  0  0  0  0  0  0
   -4.2336    6.1038  -19.9678 C   0  0  0  0  0  0  0  0  0  0  0  0
   -5.4049    5.9136  -19.3333 C   0  0  0  0  0  0  0  0  0  0  0  0
   -4.1574    7.0500  -21.0934 C   0  0  0  0  0  0  0  0  0  0  0  0
   -5.0655    7.8012  -21.4287 O   0  0  0  0  0  0  0  0  0  0  0  0
   -2.9528    7.0687  -21.7502 O   0  0  0  0  0  0  0  0  0  0  0  0
 19 20  1  0  0  0
 20 21  2  0  0  0
 21 22  1  0  0  0
 22 23  2  0  0  0
 22 24  1  0  0  0
 24 25  2  0  0  0
 25 17  1  0  0  0
 17  1  1  0  0  0
  1  2  2  0  0  0
  2  3  1  0  0  0
  3  4  2  0  0  0
  4  5  1  0  0  0
  5  6  1  0  0  0
  6 11  1  0  0  0
 11 12  2  0  0  0
 12 13  1  0  0  0
 13 14  2  0  0  0
 14 15  1  0  0  0
 15 16  2  0  0  0
  6  7  2  0  0  0
  7  8  1  0  0  0
  8  9  2  0  0  0
 24 26  1  0  0  0
 26 27  2  0  0  0
 26 28  1  0  0  0
 28 20  1  0  0  0
  9  1  1  0  0  0
  8  4  1  0  0  0
 16 11  1  0  0  0
 17 18  1  0  0  0
  5 10  1  0  0  0
M  END
> <minimizedAffinity>
-7.94874

> <minimizedRMSD>
0.24504

$$$$
P42162


 23 25  0  0  0  0  0  0  0  0999 V2000
   -7.7919    5.6106  -12.1954 N   0  0  0  0  0  0  0  0  0  0  0  0
   -7.6785    6.5280  -11.8567 H   0  0  0  0  0  0  0  0  0  0  0  0
   -7.9809    4.5725  -15.7049 C   0  0  0  0  0  0  0  0  0  0  0  0
   -8.4050    4.8953  -14.4318 C   0  0  0  0  0  0  0  0  0  0  0  0
   -7.4480    5.2441  -13.5074 C   0  0  0  0  0  0  0  0  0  0  0  0
   -6.1498    5.3026  -13.8422 N   0  0  0  0  0  0  0  0  0  0  0  0
   -5.8357    4.9721  -15.1087 C   0  0  0  0  0  0  0  0  0  0  0  0
   -6.6897    4.6130  -16.0702 N   0  0  0  0  0  0  0  0  0  0  0  0
   -8.9786    4.0332  -16.6755 C   0  0  0  0  0  0  0  0  0  0  0  0
   -8.2276    4.2101  -19.0525 C   0  0  0  0  0  0  0  0  0  0  0  0
   -9.1298    4.7775  -17.9836 C   0  0  0  0  0  0  0  0  0  0  0  0
  -10.5426    4.6345  -18.4531 C   0  0  0  0  0  0  0  0  0  0  0  0
   -8.3332    4.5255  -11.3650 C   0  0  0  0  0  0  0  0  0  0  0  0
   -8.3779    4.7221   -9.8797 C   0  0  0  0  0  0  0  0  0  0  0  0
   -8.1514    5.8825   -9.1020 C   0  0  0  0  0  0  0  0  0  0  0  0
   -8.2900    5.6706   -7.7860 N   0  0  0  0  0  0  0  0  0  0  0  0
   -8.6467    4.3766   -7.7210 N   0  0  0  0  0  0  0  0  0  0  0  0
   -8.7104    3.7641   -8.9352 C   0  0  0  0  0  0  0  0  0  0  0  0
   -9.1311    2.3455   -9.0544 C   0  0  0  0  0  0  0  0  0  0  0  0
   -9.0818    1.6361   -7.7766 N   0  0  0  0  0  0  0  0  0  0  0  0
   -9.6598    2.4105   -6.6842 C   0  0  0  0  0  0  0  0  0  0  0  0
   -8.9146    3.7229   -6.4546 C   0  0  0  0  0  0  0  0  0  0  0  0
   -8.1076    1.4324   -7.5532 H   0  0  0  0  0  0  0  0  0  0  0  0
 10 11  1  0  0  0
 11 12  1  0  0  0
 11  9  1  0  0  0
  9  3  1  0  0  0
  3  4  2  0  0  0
  4  5  1  0  0  0
  5  1  1  0  0  0
  1 13  1  0  0  0
 13 14  1  0  0  0
 14 15  1  0  0  0
 15 16  2  0  0  0
 16 17  1  0  0  0
 17 18  1  0  0  0
 18 19  1  0  0  0
 19 20  1  0  0  0
 20 21  1  0  0  0
 21 22  1  0  0  0
  5  6  2  0  0  0
  6  7  1  0  0  0
  7  8  2  0  0  0
  8  3  1  0  0  0
 18 14  2  0  0  0
 22 17  1  0  0  0
  1  2  1  0  0  0
 20 23  1  0  0  0
M  END
> <minimizedAffinity>
-6.04603

> <minimizedRMSD>
0.65535

$$$$
P42163


 22 24  0  0  0  0  0  0  0  0999 V2000
   -8.3152    5.1156  -12.0702 N   0  0  0  0  0  0  0  0  0  0  0  0
   -9.1992    4.6891  -11.9938 H   0  0  0  0  0  0  0  0  0  0  0  0
   -7.6832    5.0706  -15.6878 C   0  0  0  0  0  0  0  0  0  0  0  0
   -8.1807    4.7412  -14.4416 C   0  0  0  0  0  0  0  0  0  0  0  0
   -7.7082    5.4080  -13.3211 C   0  0  0  0  0  0  0  0  0  0  0  0
   -6.7747    6.3635  -13.4454 N   0  0  0  0  0  0  0  0  0  0  0  0
   -6.3238    6.6064  -14.6864 C   0  0  0  0  0  0  0  0  0  0  0  0
   -6.7384    6.0219  -15.8160 N   0  0  0  0  0  0  0  0  0  0  0  0
   -9.5516    4.5979  -17.4039 C   0  0  0  0  0  0  0  0  0  0  0  0
   -8.1326    4.3318  -16.9392 C   0  0  0  0  0  0  0  0  0  0  0  0
   -7.2311    4.6359  -18.1137 C   0  0  0  0  0  0  0  0  0  0  0  0
   -7.5157    5.5016  -10.9006 C   0  0  0  0  0  0  0  0  0  0  0  0
   -8.0840    5.2623   -9.5248 C   0  0  0  0  0  0  0  0  0  0  0  0
   -8.2482    6.2352   -8.5018 C   0  0  0  0  0  0  0  0  0  0  0  0
   -8.6508    5.7205   -7.3360 N   0  0  0  0  0  0  0  0  0  0  0  0
   -8.7967    4.4160   -7.6163 N   0  0  0  0  0  0  0  0  0  0  0  0
   -8.4798    4.0860   -8.9052 C   0  0  0  0  0  0  0  0  0  0  0  0
   -8.6136    2.6827   -9.3661 C   0  0  0  0  0  0  0  0  0  0  0  0
   -8.6645    1.7371   -8.2491 N   0  0  0  0  0  0  0  0  0  0  0  0
   -9.5984    2.1483   -7.2087 C   0  0  0  0  0  0  0  0  0  0  0  0
   -9.1812    3.4720   -6.5830 C   0  0  0  0  0  0  0  0  0  0  0  0
   -7.7326    1.6632   -7.8410 H   0  0  0  0  0  0  0  0  0  0  0  0
  9 10  1  0  0  0
 10 11  1  0  0  0
 10  3  1  0  0  0
  3  4  2  0  0  0
  4  5  1  0  0  0
  5  1  1  0  0  0
  1 12  1  0  0  0
 12 13  1  0  0  0
 13 14  1  0  0  0
 14 15  2  0  0  0
 15 16  1  0  0  0
 16 17  1  0  0  0
 17 18  1  0  0  0
 18 19  1  0  0  0
 19 20  1  0  0  0
 20 21  1  0  0  0
  5  6  2  0  0  0
  6  7  1  0  0  0
  7  8  2  0  0  0
  8  3  1  0  0  0
 17 13  2  0  0  0
 21 16  1  0  0  0
  1  2  1  0  0  0
 19 22  1  0  0  0
M  END
> <minimizedAffinity>
-5.96961

> <minimizedRMSD>
1.10647

$$$$
P42164


 22 25  0  0  0  0  0  0  0  0999 V2000
   -7.1453    4.7448  -13.0225 N   0  0  0  0  0  0  0  0  0  0  0  0
   -6.3899    4.3484  -12.5311 H   0  0  0  0  0  0  0  0  0  0  0  0
   -5.9971    4.9250  -16.3600 C   0  0  0  0  0  0  0  0  0  0  0  0
   -6.0097    4.9987  -15.0228 N   0  0  0  0  0  0  0  0  0  0  0  0
   -7.1772    4.7426  -14.4186 C   0  0  0  0  0  0  0  0  0  0  0  0
   -8.3065    4.4248  -15.1563 C   0  0  0  0  0  0  0  0  0  0  0  0
   -8.2082    4.3776  -16.5433 C   0  0  0  0  0  0  0  0  0  0  0  0
   -7.0360    4.6525  -17.1517 N   0  0  0  0  0  0  0  0  0  0  0  0
   -9.3556    3.8958  -17.4001 C   0  0  0  0  0  0  0  0  0  0  0  0
  -10.3199    4.7848  -18.1319 C   0  0  0  0  0  0  0  0  0  0  0  0
   -9.2698    4.0602  -18.9002 C   0  0  0  0  0  0  0  0  0  0  0  0
   -8.2663    5.3525  -12.3155 C   0  0  0  0  0  0  0  0  0  0  0  0
   -8.2466    5.3730  -10.8157 C   0  0  0  0  0  0  0  0  0  0  0  0
   -8.1777    6.4931   -9.9473 C   0  0  0  0  0  0  0  0  0  0  0  0
   -8.3395    6.1774   -8.6565 N   0  0  0  0  0  0  0  0  0  0  0  0
   -8.5094    4.8419   -8.6906 N   0  0  0  0  0  0  0  0  0  0  0  0
   -8.4256    4.3128   -9.9469 C   0  0  0  0  0  0  0  0  0  0  0  0
   -8.6058    2.8606  -10.1668 C   0  0  0  0  0  0  0  0  0  0  0  0
   -8.4614    2.1292   -8.9154 N   0  0  0  0  0  0  0  0  0  0  0  0
   -9.2849    2.6751   -7.8465 C   0  0  0  0  0  0  0  0  0  0  0  0
   -8.8093    4.0838   -7.4879 C   0  0  0  0  0  0  0  0  0  0  0  0
   -7.4840    2.1675   -8.6261 H   0  0  0  0  0  0  0  0  0  0  0  0
  3  4  2  0  0  0
  4  5  1  0  0  0
  5  1  1  0  0  0
  1 12  1  0  0  0
 12 13  1  0  0  0
 13 14  1  0  0  0
 14 15  2  0  0  0
 15 16  1  0  0  0
 16 17  1  0  0  0
 17 18  1  0  0  0
 18 19  1  0  0  0
 19 20  1  0  0  0
 20 21  1  0  0  0
  5  6  2  0  0  0
  6  7  1  0  0  0
  7  9  1  0  0  0
  9 10  1  0  0  0
 10 11  1  0  0  0
  7  8  2  0  0  0
  8  3  1  0  0  0
 17 13  2  0  0  0
 11  9  1  0  0  0
 21 16  1  0  0  0
  1  2  1  0  0  0
 19 22  1  0  0  0
M  END
> <minimizedAffinity>
-6.09593

> <minimizedRMSD>
0.43646

$$$$
P42165


 23 25  0  0  0  0  0  0  0  0999 V2000
   -7.8852    5.4253  -11.8070 N   0  0  0  0  0  0  0  0  0  0  0  0
   -7.8922    6.3696  -11.5288 H   0  0  0  0  0  0  0  0  0  0  0  0
   -7.6152    4.3354  -15.2855 C   0  0  0  0  0  0  0  0  0  0  0  0
   -8.2044    4.5339  -14.0578 C   0  0  0  0  0  0  0  0  0  0  0  0
   -7.3966    5.0340  -13.0611 C   0  0  0  0  0  0  0  0  0  0  0  0
   -6.0917    5.2723  -13.2794 N   0  0  0  0  0  0  0  0  0  0  0  0
   -5.6133    4.9879  -14.5036 C   0  0  0  0  0  0  0  0  0  0  0  0
   -6.3171    4.5431  -15.5421 N   0  0  0  0  0  0  0  0  0  0  0  0
   -8.4170    3.8741  -16.3039 O   0  0  0  0  0  0  0  0  0  0  0  0
   -9.8262    4.5597  -18.0444 C   0  0  0  0  0  0  0  0  0  0  0  0
   -8.4978    4.8086  -17.3835 C   0  0  0  0  0  0  0  0  0  0  0  0
   -7.3773    4.5934  -18.3578 C   0  0  0  0  0  0  0  0  0  0  0  0
   -8.3858    4.3624  -10.9280 C   0  0  0  0  0  0  0  0  0  0  0  0
   -8.4209    4.6317   -9.4482 C   0  0  0  0  0  0  0  0  0  0  0  0
   -8.1325    5.8141   -8.7227 C   0  0  0  0  0  0  0  0  0  0  0  0
   -8.2892    5.6755   -7.3986 N   0  0  0  0  0  0  0  0  0  0  0  0
   -8.7210    4.4096   -7.2740 N   0  0  0  0  0  0  0  0  0  0  0  0
   -8.8027    3.7417   -8.4568 C   0  0  0  0  0  0  0  0  0  0  0  0
   -9.2898    2.3433   -8.5100 C   0  0  0  0  0  0  0  0  0  0  0  0
   -9.3310    1.7004   -7.1970 N   0  0  0  0  0  0  0  0  0  0  0  0
   -9.8807    2.5681   -6.1626 C   0  0  0  0  0  0  0  0  0  0  0  0
   -9.0520    3.8382   -5.9827 C   0  0  0  0  0  0  0  0  0  0  0  0
   -8.3816    1.4381   -6.9322 H   0  0  0  0  0  0  0  0  0  0  0  0
 10 11  1  0  0  0
 11 12  1  0  0  0
 11  9  1  0  0  0
  9  3  1  0  0  0
  3  4  2  0  0  0
  4  5  1  0  0  0
  5  1  1  0  0  0
  1 13  1  0  0  0
 13 14  1  0  0  0
 14 15  1  0  0  0
 15 16  2  0  0  0
 16 17  1  0  0  0
 17 18  1  0  0  0
 18 19  1  0  0  0
 19 20  1  0  0  0
 20 21  1  0  0  0
 21 22  1  0  0  0
  5  6  2  0  0  0
  6  7  1  0  0  0
  7  8  2  0  0  0
  8  3  1  0  0  0
 18 14  2  0  0  0
 22 17  1  0  0  0
  1  2  1  0  0  0
 20 23  1  0  0  0
M  END
> <minimizedAffinity>
-6.26205

> <minimizedRMSD>
1.22661

$$$$
P42166


 22 24  0  0  0  0  0  0  0  0999 V2000
   -7.1126    4.6065  -12.2102 N   0  0  0  0  0  0  0  0  0  0  0  0
   -5.8040    4.7676  -11.5826 C   0  0  0  0  0  0  0  0  0  0  0  0
   -8.0164    4.4702  -15.7927 C   0  0  0  0  0  0  0  0  0  0  0  0
   -8.1482    4.3426  -14.4127 C   0  0  0  0  0  0  0  0  0  0  0  0
   -7.1061    4.7851  -13.6105 C   0  0  0  0  0  0  0  0  0  0  0  0
   -6.0202    5.3379  -14.1912 N   0  0  0  0  0  0  0  0  0  0  0  0
   -5.9898    5.4337  -15.5287 C   0  0  0  0  0  0  0  0  0  0  0  0
   -6.9391    5.0367  -16.3708 N   0  0  0  0  0  0  0  0  0  0  0  0
   -9.0664    3.9478  -16.7308 C   0  0  0  0  0  0  0  0  0  0  0  0
  -10.4435    4.6550  -18.4798 C   0  0  0  0  0  0  0  0  0  0  0  0
   -9.7778    5.0283  -17.2992 O   0  0  0  0  0  0  0  0  0  0  0  0
   -8.2783    5.1207  -11.4608 C   0  0  0  0  0  0  0  0  0  0  0  0
   -8.3047    5.0676   -9.9501 C   0  0  0  0  0  0  0  0  0  0  0  0
   -8.1566    6.1529   -9.0462 C   0  0  0  0  0  0  0  0  0  0  0  0
   -8.3065    5.8011   -7.7647 N   0  0  0  0  0  0  0  0  0  0  0  0
   -8.5822    4.4885   -7.8408 N   0  0  0  0  0  0  0  0  0  0  0  0
   -8.5599    3.9925   -9.1123 C   0  0  0  0  0  0  0  0  0  0  0  0
   -8.8632    2.5632   -9.3701 C   0  0  0  0  0  0  0  0  0  0  0  0
   -8.8612    1.7570   -8.1467 N   0  0  0  0  0  0  0  0  0  0  0  0
   -9.5594    2.4000   -7.0415 C   0  0  0  0  0  0  0  0  0  0  0  0
   -8.8975    3.7172   -6.6530 C   0  0  0  0  0  0  0  0  0  0  0  0
   -7.8941    1.5913   -7.8681 H   0  0  0  0  0  0  0  0  0  0  0  0
 10 11  1  0  0  0
 11  9  1  0  0  0
  9  3  1  0  0  0
  3  4  2  0  0  0
  4  5  1  0  0  0
  5  1  1  0  0  0
  1  2  1  0  0  0
  1 12  1  0  0  0
 12 13  1  0  0  0
 13 14  1  0  0  0
 14 15  2  0  0  0
 15 16  1  0  0  0
 16 17  1  0  0  0
 17 18  1  0  0  0
 18 19  1  0  0  0
 19 20  1  0  0  0
 20 21  1  0  0  0
  5  6  2  0  0  0
  6  7  1  0  0  0
  7  8  2  0  0  0
  8  3  1  0  0  0
 17 13  2  0  0  0
 21 16  1  0  0  0
 19 22  1  0  0  0
M  END
> <minimizedAffinity>
-5.73865

> <minimizedRMSD>
0.49627

$$$$
P42168


 20 22  0  0  0  0  0  0  0  0999 V2000
   -8.2845    5.3905  -12.1154 S   0  0  0  0  0  0  0  0  0  0  0  0
   -8.1955    5.1669  -10.3881 C   0  0  0  0  0  0  0  0  0  0  0  0
   -8.0632    6.2551   -9.4917 C   0  0  0  0  0  0  0  0  0  0  0  0
   -8.2070    5.9014   -8.2114 N   0  0  0  0  0  0  0  0  0  0  0  0
   -8.4902    4.5903   -8.2961 N   0  0  0  0  0  0  0  0  0  0  0  0
   -8.4372    4.0808   -9.5711 C   0  0  0  0  0  0  0  0  0  0  0  0
   -8.7437    2.6461   -9.7986 C   0  0  0  0  0  0  0  0  0  0  0  0
   -8.7201    1.8731   -8.5523 N   0  0  0  0  0  0  0  0  0  0  0  0
   -9.4732    2.5068   -7.4802 C   0  0  0  0  0  0  0  0  0  0  0  0
   -8.8663    3.8502   -7.1047 C   0  0  0  0  0  0  0  0  0  0  0  0
   -7.7509    1.7688   -8.2521 H   0  0  0  0  0  0  0  0  0  0  0  0
   -7.0810    4.2866  -12.9192 C   0  0  0  0  0  0  0  0  0  0  0  0
   -6.2181    4.6019  -16.5337 C   0  0  0  0  0  0  0  0  0  0  0  0
   -7.3874    4.6353  -17.1803 N   0  0  0  0  0  0  0  0  0  0  0  0
   -8.4783    4.4985  -16.4185 C   0  0  0  0  0  0  0  0  0  0  0  0
   -8.4268    4.3687  -15.0505 C   0  0  0  0  0  0  0  0  0  0  0  0
   -7.1786    4.3871  -14.4491 C   0  0  0  0  0  0  0  0  0  0  0  0
   -6.0474    4.5038  -15.1923 N   0  0  0  0  0  0  0  0  0  0  0  0
   -3.9152    4.6393  -16.6188 C   0  0  0  0  0  0  0  0  0  0  0  0
   -5.1213    4.8066  -17.3433 O   0  0  0  0  0  0  0  0  0  0  0  0
 19 20  1  0  0  0
 20 13  1  0  0  0
 13 14  2  0  0  0
 14 15  1  0  0  0
 15 16  2  0  0  0
 16 17  1  0  0  0
 17 12  1  0  0  0
 12  1  1  0  0  0
  1  2  1  0  0  0
  2  3  1  0  0  0
  3  4  2  0  0  0
  4  5  1  0  0  0
  5  6  1  0  0  0
  6  7  1  0  0  0
  7  8  1  0  0  0
  8  9  1  0  0  0
  9 10  1  0  0  0
 17 18  2  0  0  0
 18 13  1  0  0  0
  6  2  2  0  0  0
 10  5  1  0  0  0
  8 11  1  0  0  0
M  END
> <minimizedAffinity>
-5.39418

> <minimizedRMSD>
0.40382

$$$$
P42171


 19 21  0  0  0  0  0  0  0  0999 V2000
   -8.3034    4.5826  -10.4859 C   0  0  0  0  0  0  0  0  0  0  0  0
   -8.0610    5.8394   -9.8993 C   0  0  0  0  0  0  0  0  0  0  0  0
   -8.2066    5.8257   -8.5625 N   0  0  0  0  0  0  0  0  0  0  0  0
   -8.5341    4.5407   -8.3063 N   0  0  0  0  0  0  0  0  0  0  0  0
   -8.6307    3.7723   -9.4244 C   0  0  0  0  0  0  0  0  0  0  0  0
   -9.0261    2.3511   -9.3389 C   0  0  0  0  0  0  0  0  0  0  0  0
   -8.9127    1.8233   -7.9856 N   0  0  0  0  0  0  0  0  0  0  0  0
   -9.4675    2.7009   -6.9736 C   0  0  0  0  0  0  0  0  0  0  0  0
   -8.7221    4.0400   -6.9559 C   0  0  0  0  0  0  0  0  0  0  0  0
   -7.9250    1.6756   -7.7784 H   0  0  0  0  0  0  0  0  0  0  0  0
   -8.1795    4.0054  -12.1200 S   0  0  0  0  0  0  0  0  0  0  0  0
   -7.1189    5.1335  -13.0474 C   0  0  0  0  0  0  0  0  0  0  0  0
   -5.1286    4.9177  -17.5658 C   0  0  0  0  0  0  0  0  0  0  0  0
   -6.3211    4.8236  -16.6664 C   0  0  0  0  0  0  0  0  0  0  0  0
   -7.4969    4.5674  -17.2593 N   0  0  0  0  0  0  0  0  0  0  0  0
   -8.5575    4.4419  -16.4525 C   0  0  0  0  0  0  0  0  0  0  0  0
   -8.4831    4.5810  -15.0884 C   0  0  0  0  0  0  0  0  0  0  0  0
   -7.2496    4.9047  -14.5515 C   0  0  0  0  0  0  0  0  0  0  0  0
   -6.1534    5.0405  -15.3386 N   0  0  0  0  0  0  0  0  0  0  0  0
 13 14  1  0  0  0
 14 15  2  0  0  0
 15 16  1  0  0  0
 16 17  2  0  0  0
 17 18  1  0  0  0
 18 12  1  0  0  0
 12 11  1  0  0  0
 11  1  1  0  0  0
  1  2  1  0  0  0
  2  3  2  0  0  0
  3  4  1  0  0  0
  4  5  1  0  0  0
  5  6  1  0  0  0
  6  7  1  0  0  0
  7  8  1  0  0  0
  8  9  1  0  0  0
 18 19  2  0  0  0
 19 14  1  0  0  0
  5  1  2  0  0  0
  9  4  1  0  0  0
  7 10  1  0  0  0
M  END
> <minimizedAffinity>
-5.68422

> <minimizedRMSD>
0.52303

$$$$
P42384


 17 18  0  0  0  0  0  0  0  0999 V2000
   -8.0951    4.6733  -16.9914 C   0  0  0  0  0  0  0  0  0  0  0  0
   -8.4571    4.2417  -15.7110 C   0  0  0  0  0  0  0  0  0  0  0  0
   -7.5021    4.2565  -14.7030 C   0  0  0  0  0  0  0  0  0  0  0  0
   -6.2271    4.7264  -14.9405 N   0  0  0  0  0  0  0  0  0  0  0  0
   -5.3427    4.7051  -14.0372 O   0  0  0  0  0  0  0  0  0  0  0  0
   -5.9193    5.2268  -16.1969 C   0  0  0  0  0  0  0  0  0  0  0  0
   -6.8191    5.2017  -17.2658 C   0  0  0  0  0  0  0  0  0  0  0  0
   -6.4331    5.6446  -18.5222 N   0  0  0  0  0  0  0  0  0  0  0  0
   -6.1518    7.0617  -18.7899 C   0  0  0  0  0  0  0  0  0  0  0  0
   -4.6461    7.3825  -18.8995 C   0  0  0  0  0  0  0  0  0  0  0  0
   -3.8949    6.4685  -19.7795 N   0  0  0  0  0  0  0  0  0  0  0  0
   -4.1237    5.0924  -19.3019 C   0  0  0  0  0  0  0  0  0  0  0  0
   -5.6122    4.6949  -19.3025 C   0  0  0  0  0  0  0  0  0  0  0  0
   -2.8998    6.6886  -19.7397 H   0  0  0  0  0  0  0  0  0  0  0  0
  -10.2358    5.0162  -17.7737 O   0  0  0  0  0  0  0  0  0  0  0  0
   -9.1166    4.5571  -18.0301 N   0  0  0  0  0  0  0  0  0  0  0  0
   -8.8402    3.9013  -19.0377 O   0  0  0  0  0  0  0  0  0  0  0  0
 15 16  2  0  0  0
 16 17  1  0  0  0
 16  1  1  0  0  0
  1  2  2  0  0  0
  2  3  1  0  0  0
  3  4  2  0  0  0
  4  5  1  0  0  0
  4  6  1  0  0  0
  6  7  2  0  0  0
  7  8  1  0  0  0
  8  9  1  0  0  0
  9 10  1  0  0  0
 10 11  1  0  0  0
 11 12  1  0  0  0
 12 13  1  0  0  0
  7  1  1  0  0  0
 13  8  1  0  0  0
 11 14  1  0  0  0
M  CHG 1   4   1
M  CHG 1   5  -1
M  CHG 1  16   1
M  CHG 1  17  -1
M  END
> <minimizedAffinity>
-4.91210

> <minimizedRMSD>
0.37735

$$$$
P42389


 15 16  0  0  0  0  0  0  0  0999 V2000
   -8.9020    5.0426  -18.5677 O   0  0  0  0  0  0  0  0  0  0  0  0
   -8.1154    4.9028  -17.4244 N   0  0  0  0  0  0  0  0  0  0  0  0
   -8.6818    4.4258  -16.3044 C   0  0  0  0  0  0  0  0  0  0  0  0
   -7.9148    4.2475  -15.1649 C   0  0  0  0  0  0  0  0  0  0  0  0
   -6.5765    4.6106  -15.1950 C   0  0  0  0  0  0  0  0  0  0  0  0
   -6.0274    5.1379  -16.3608 C   0  0  0  0  0  0  0  0  0  0  0  0
   -6.8062    5.2583  -17.5193 C   0  0  0  0  0  0  0  0  0  0  0  0
   -9.8090    4.8086  -18.5439 H   0  0  0  0  0  0  0  0  0  0  0  0
   -6.3154    5.7392  -18.7189 N   0  0  0  0  0  0  0  0  0  0  0  0
   -5.8713    7.1329  -18.8725 C   0  0  0  0  0  0  0  0  0  0  0  0
   -4.3412    7.3100  -18.7666 C   0  0  0  0  0  0  0  0  0  0  0  0
   -3.5621    6.3511  -19.5644 N   0  0  0  0  0  0  0  0  0  0  0  0
   -3.9985    4.9851  -19.2363 C   0  0  0  0  0  0  0  0  0  0  0  0
   -5.5040    4.7658  -19.4765 C   0  0  0  0  0  0  0  0  0  0  0  0
   -2.5704    6.4539  -19.3490 H   0  0  0  0  0  0  0  0  0  0  0  0
  1  2  1  0  0  0
  2  3  2  0  0  0
  3  4  1  0  0  0
  4  5  2  0  0  0
  5  6  1  0  0  0
  6  7  2  0  0  0
  7  9  1  0  0  0
  9 10  1  0  0  0
 10 11  1  0  0  0
 11 12  1  0  0  0
 12 13  1  0  0  0
 13 14  1  0  0  0
  7  2  1  0  0  0
 14  9  1  0  0  0
  1  8  1  0  0  0
 12 15  1  0  0  0
M  CHG 1   2   1
M  END
> <minimizedAffinity>
-4.55701

> <minimizedRMSD>
0.40120

$$$$
P42393


 15 16  0  0  0  0  0  0  0  0999 V2000
   -8.1096    4.5267  -17.8594 O   0  0  0  0  0  0  0  0  0  0  0  0
   -7.5069    4.9502  -16.8168 N   0  0  0  0  0  0  0  0  0  0  0  0
   -8.0471    4.6524  -15.5724 C   0  0  0  0  0  0  0  0  0  0  0  0
   -7.4401    5.0767  -14.3970 C   0  0  0  0  0  0  0  0  0  0  0  0
   -8.1248    4.5766  -12.7141 Br  0  0  0  0  0  0  0  0  0  0  0  0
   -6.3027    5.8640  -14.4416 C   0  0  0  0  0  0  0  0  0  0  0  0
   -5.7638    6.2068  -15.6703 C   0  0  0  0  0  0  0  0  0  0  0  0
   -6.3206    5.7264  -16.8730 C   0  0  0  0  0  0  0  0  0  0  0  0
   -5.5476    5.9659  -18.0211 N   0  0  0  0  0  0  0  0  0  0  0  0
   -5.9965    7.0246  -18.9281 C   0  0  0  0  0  0  0  0  0  0  0  0
   -4.7896    7.4895  -19.7820 C   0  0  0  0  0  0  0  0  0  0  0  0
   -4.0794    6.4009  -20.4701 N   0  0  0  0  0  0  0  0  0  0  0  0
   -3.8015    5.2881  -19.5392 C   0  0  0  0  0  0  0  0  0  0  0  0
   -5.0474    4.8033  -18.7604 C   0  0  0  0  0  0  0  0  0  0  0  0
   -3.1976    6.7571  -20.8389 H   0  0  0  0  0  0  0  0  0  0  0  0
  1  2  1  0  0  0
  2  3  2  0  0  0
  3  4  1  0  0  0
  4  5  1  0  0  0
  4  6  2  0  0  0
  6  7  1  0  0  0
  7  8  2  0  0  0
  8  9  1  0  0  0
  9 10  1  0  0  0
 10 11  1  0  0  0
 11 12  1  0  0  0
 12 13  1  0  0  0
 13 14  1  0  0  0
  8  2  1  0  0  0
 14  9  1  0  0  0
 12 15  1  0  0  0
M  CHG 1   1  -1
M  CHG 1   2   1
M  END
> <minimizedAffinity>
-4.00437

> <minimizedRMSD>
0.41291

$$$$
P42631


 19 20  0  0  0  0  0  0  0  0999 V2000
   -6.4621    5.3216  -15.0596 C   0  0  0  0  0  0  0  0  0  0  0  0
   -7.6821    4.8502  -14.5632 C   0  0  0  0  0  0  0  0  0  0  0  0
   -8.6513    4.3308  -15.4333 C   0  0  0  0  0  0  0  0  0  0  0  0
   -8.3829    4.2567  -16.7975 C   0  0  0  0  0  0  0  0  0  0  0  0
   -9.4527    3.4767  -17.8588 Cl  0  0  0  0  0  0  0  0  0  0  0  0
   -7.1801    4.7406  -17.2683 C   0  0  0  0  0  0  0  0  0  0  0  0
   -6.2141    5.2664  -16.4207 C   0  0  0  0  0  0  0  0  0  0  0  0
   -4.9971    5.6495  -17.2258 C   0  0  0  0  0  0  0  0  0  0  0  0
   -5.4064    5.1657  -18.6579 C   0  0  0  0  0  0  0  0  0  0  0  0
   -4.7430    5.1976  -19.6842 O   0  0  0  0  0  0  0  0  0  0  0  0
   -6.7165    4.7168  -18.5781 N   0  0  0  0  0  0  0  0  0  0  0  0
   -7.2495    4.4194  -19.3505 H   0  0  0  0  0  0  0  0  0  0  0  0
   -5.5855    7.0808  -13.8704 C   0  0  0  0  0  0  0  0  0  0  0  0
   -5.4972    5.6950  -14.1717 O   0  0  0  0  0  0  0  0  0  0  0  0
   -3.7837    4.9933  -16.7344 N   0  0  0  0  0  0  0  0  0  0  0  0
   -3.5191    4.2773  -17.4109 H   0  0  0  0  0  0  0  0  0  0  0  0
   -2.6287    5.8655  -16.5292 C   0  0  0  0  0  0  0  0  0  0  0  0
   -2.9253    7.3428  -16.7986 C   0  0  0  0  0  0  0  0  0  0  0  0
   -2.1879    5.7019  -15.0704 C   0  0  0  0  0  0  0  0  0  0  0  0
 13 14  1  0  0  0
 14  1  1  0  0  0
  1  2  2  0  0  0
  2  3  1  0  0  0
  3  4  2  0  0  0
  4  5  1  0  0  0
  4  6  1  0  0  0
  6  7  2  0  0  0
  7  8  1  0  0  0
  8 15  1  0  0  0
 15 17  1  0  0  0
 17 18  1  0  0  0
 17 19  1  0  0  0
  8  9  1  0  0  0
  9 10  2  0  0  0
  9 11  1  0  0  0
  7  1  1  0  0  0
 11  6  1  0  0  0
 15 16  1  0  0  0
 11 12  1  0  0  0
M  END
> <minimizedAffinity>
-5.23984

> <minimizedRMSD>
2.14546

$$$$
P42682


 24 26  0  0  0  0  0  0  0  0999 V2000
   -4.6803    4.8820  -18.8140 C   0  0  0  0  0  0  0  0  0  0  0  0
   -5.9829    4.8387  -19.0609 N   0  0  0  0  0  0  0  0  0  0  0  0
   -6.8211    4.7075  -18.0139 C   0  0  0  0  0  0  0  0  0  0  0  0
   -6.3717    4.6911  -16.7046 C   0  0  0  0  0  0  0  0  0  0  0  0
   -4.9959    4.7864  -16.5388 C   0  0  0  0  0  0  0  0  0  0  0  0
   -4.1579    4.8778  -17.5930 N   0  0  0  0  0  0  0  0  0  0  0  0
   -7.2845    4.4649  -15.5431 C   0  0  0  0  0  0  0  0  0  0  0  0
   -8.7588    4.5648  -15.8746 C   0  0  0  0  0  0  0  0  0  0  0  0
   -9.1410    4.0371  -17.2429 C   0  0  0  0  0  0  0  0  0  0  0  0
   -8.2791    4.5985  -18.3583 C   0  0  0  0  0  0  0  0  0  0  0  0
   -4.3624    4.7468  -15.1637 C   0  0  0  0  0  0  0  0  0  0  0  0
   -4.8715    5.6963  -14.3222 F   0  0  0  0  0  0  0  0  0  0  0  0
   -4.5453    3.5540  -14.5227 F   0  0  0  0  0  0  0  0  0  0  0  0
   -3.0119    4.9492  -15.1599 F   0  0  0  0  0  0  0  0  0  0  0  0
   -3.8470    4.9136  -19.9115 N   0  0  0  0  0  0  0  0  0  0  0  0
   -3.8664    4.2013  -20.5908 H   0  0  0  0  0  0  0  0  0  0  0  0
   -1.5813    5.4911  -20.4683 C   0  0  0  0  0  0  0  0  0  0  0  0
   -2.9344    6.0474  -20.0244 C   0  0  0  0  0  0  0  0  0  0  0  0
   -3.4468    7.0914  -21.0204 C   0  0  0  0  0  0  0  0  0  0  0  0
   -4.1768    8.1746  -20.3859 N   0  0  0  0  0  0  0  0  0  0  0  0
   -5.5337    8.2943  -20.2578 C   0  0  0  0  0  0  0  0  0  0  0  0
   -5.7510    9.4962  -19.6265 C   0  0  0  0  0  0  0  0  0  0  0  0
   -4.4664   10.0382  -19.4402 C   0  0  0  0  0  0  0  0  0  0  0  0
   -3.5058    9.2480  -19.9234 N   0  0  0  0  0  0  0  0  0  0  0  0
 18 17  1  0  0  0
 18 19  1  0  0  0
 19 20  1  0  0  0
 20 21  1  0  0  0
 21 22  2  0  0  0
 22 23  1  0  0  0
 23 24  2  0  0  0
 18 15  1  0  0  0
 15  1  1  0  0  0
  1  2  2  0  0  0
  2  3  1  0  0  0
  3  4  2  0  0  0
  4  5  1  0  0  0
  5 11  1  0  0  0
 11 12  1  0  0  0
 11 13  1  0  0  0
 11 14  1  0  0  0
  5  6  2  0  0  0
  4  7  1  0  0  0
  7  8  1  0  0  0
  8  9  1  0  0  0
  9 10  1  0  0  0
 24 20  1  0  0  0
  6  1  1  0  0  0
 10  3  1  0  0  0
 15 16  1  0  0  0
M  END
> <minimizedAffinity>
-6.10414

> <minimizedRMSD>
1.22484

$$$$
P42714


 25 28  0  0  0  0  0  0  0  0999 V2000
   -7.8752    4.6504  -14.7833 N   0  0  0  0  0  0  0  0  0  0  0  0
   -7.0922    3.5964  -14.1079 C   0  0  0  0  0  0  0  0  0  0  0  0
   -6.5028    4.0426  -12.7615 C   0  0  0  0  0  0  0  0  0  0  0  0
   -7.5237    4.7372  -11.9584 N   0  0  0  0  0  0  0  0  0  0  0  0
   -7.9350    5.9750  -12.6712 C   0  0  0  0  0  0  0  0  0  0  0  0
   -7.7293    5.9930  -14.2243 C   0  0  0  0  0  0  0  0  0  0  0  0
   -9.6462    4.0141  -18.0069 C   0  0  0  0  0  0  0  0  0  0  0  0
   -9.3190    4.1285  -16.6591 C   0  0  0  0  0  0  0  0  0  0  0  0
   -8.0296    4.4717  -16.1734 C   0  0  0  0  0  0  0  0  0  0  0  0
   -7.0443    4.6597  -17.1861 C   0  0  0  0  0  0  0  0  0  0  0  0
   -5.6954    4.9861  -17.0967 N   0  0  0  0  0  0  0  0  0  0  0  0
   -5.2616    5.0378  -18.3366 C   0  0  0  0  0  0  0  0  0  0  0  0
   -6.2534    4.7811  -19.2354 N   0  0  0  0  0  0  0  0  0  0  0  0
   -7.3983    4.5194  -18.5284 C   0  0  0  0  0  0  0  0  0  0  0  0
   -8.6789    4.2048  -18.9751 C   0  0  0  0  0  0  0  0  0  0  0  0
   -6.1638    4.7831  -20.2158 H   0  0  0  0  0  0  0  0  0  0  0  0
   -7.0616    5.0004  -10.5921 C   0  0  0  0  0  0  0  0  0  0  0  0
   -8.1394    4.6807   -9.5471 C   0  0  0  0  0  0  0  0  0  0  0  0
   -8.1330    3.2274   -9.0808 C   0  0  0  0  0  0  0  0  0  0  0  0
   -8.9022    2.9768   -7.8285 C   0  0  0  0  0  0  0  0  0  0  0  0
   -9.1149    3.8718   -6.7559 C   0  0  0  0  0  0  0  0  0  0  0  0
   -9.7136    3.2942   -5.7091 N   0  0  0  0  0  0  0  0  0  0  0  0
   -9.9796    2.0520   -6.1540 N   0  0  0  0  0  0  0  0  0  0  0  0
   -9.4965    1.8075   -7.4049 C   0  0  0  0  0  0  0  0  0  0  0  0
  -10.4754    1.3845   -5.6269 H   0  0  0  0  0  0  0  0  0  0  0  0
  7  8  2  0  0  0
  8  9  1  0  0  0
  9  1  1  0  0  0
  1  2  1  0  0  0
  2  3  1  0  0  0
  3  4  1  0  0  0
  4 17  1  0  0  0
 17 18  1  0  0  0
 18 19  1  0  0  0
 19 20  1  0  0  0
 20 21  1  0  0  0
 21 22  2  0  0  0
 22 23  1  0  0  0
 23 24  1  0  0  0
  4  5  1  0  0  0
  5  6  1  0  0  0
  9 10  2  0  0  0
 10 11  1  0  0  0
 11 12  2  0  0  0
 12 13  1  0  0  0
 13 14  1  0  0  0
 14 15  2  0  0  0
 15  7  1  0  0  0
  6  1  1  0  0  0
 14 10  1  0  0  0
 24 20  2  0  0  0
 23 25  1  0  0  0
 13 16  1  0  0  0
M  END
> <minimizedAffinity>
-7.29346

> <minimizedRMSD>
2.18201

$$$$
P42784


 20 22  0  0  0  0  0  0  0  0999 V2000
   -7.9834    4.7709  -11.8239 N   0  0  0  0  0  0  0  0  0  0  0  0
   -7.4325    4.0761  -13.1029 C   0  0  0  0  0  0  0  0  0  0  0  0
   -7.1877    2.9488  -13.3090 O   0  0  0  0  0  0  0  0  0  0  0  0
   -8.1784    5.7303  -11.9276 H   0  0  0  0  0  0  0  0  0  0  0  0
   -8.3470    4.3457   -7.0949 C   0  0  0  0  0  0  0  0  0  0  0  0
   -8.4305    4.0086   -8.4944 N   0  0  0  0  0  0  0  0  0  0  0  0
   -8.7704    2.7994   -9.0142 C   0  0  0  0  0  0  0  0  0  0  0  0
   -8.6806    2.9436  -10.3753 C   0  0  0  0  0  0  0  0  0  0  0  0
   -8.2398    4.2671  -10.5835 C   0  0  0  0  0  0  0  0  0  0  0  0
   -8.1440    4.9358   -9.4328 N   0  0  0  0  0  0  0  0  0  0  0  0
   -7.1079    5.1340  -14.1516 C   0  0  0  0  0  0  0  0  0  0  0  0
   -6.7636    4.6918  -15.4955 N   0  0  0  0  0  0  0  0  0  0  0  0
   -5.5084    4.8945  -15.9800 N   0  0  0  0  0  0  0  0  0  0  0  0
   -5.6521    4.7448  -17.3037 C   0  0  0  0  0  0  0  0  0  0  0  0
   -6.9824    4.4814  -17.6846 C   0  0  0  0  0  0  0  0  0  0  0  0
   -7.7061    4.3002  -18.8686 C   0  0  0  0  0  0  0  0  0  0  0  0
   -9.0664    4.0135  -18.7529 C   0  0  0  0  0  0  0  0  0  0  0  0
   -9.6360    3.9441  -17.4889 C   0  0  0  0  0  0  0  0  0  0  0  0
   -8.9962    4.1869  -16.3168 N   0  0  0  0  0  0  0  0  0  0  0  0
   -7.6763    4.4230  -16.4879 C   0  0  0  0  0  0  0  0  0  0  0  0
  5  6  1  0  0  0
  6  7  1  0  0  0
  7  8  2  0  0  0
  8  9  1  0  0  0
  9  1  1  0  0  0
  1  2  1  0  0  0
  2  3  2  0  0  0
  2 11  1  0  0  0
 11 12  1  0  0  0
 12 13  1  0  0  0
 13 14  2  0  0  0
 14 15  1  0  0  0
 15 16  2  0  0  0
 16 17  1  0  0  0
 17 18  2  0  0  0
 18 19  1  0  0  0
 19 20  2  0  0  0
  9 10  2  0  0  0
 10  6  1  0  0  0
 20 12  1  0  0  0
 20 15  1  0  0  0
  1  4  1  0  0  0
M  END
> <minimizedAffinity>
-6.58528

> <minimizedRMSD>
2.25768

$$$$
P42790


 23 25  0  0  0  0  0  0  0  0999 V2000
  -20.6302    7.0633    0.2904 C   0  0  0  0  0  0  0  0  0  0  0  0
  -21.9362    7.3266    0.6606 C   0  0  0  0  0  0  0  0  0  0  0  0
  -22.9062    6.3902    0.7552 N   0  0  0  0  0  0  0  0  0  0  0  0
  -22.6047    5.1192    0.4661 C   0  0  0  0  0  0  0  0  0  0  0  0
  -23.6121    4.1734    0.6008 C   0  0  0  0  0  0  0  0  0  0  0  0
  -23.3946    2.8204    0.3424 C   0  0  0  0  0  0  0  0  0  0  0  0
  -22.1428    2.3967   -0.0726 C   0  0  0  0  0  0  0  0  0  0  0  0
  -21.1182    3.3306   -0.2195 C   0  0  0  0  0  0  0  0  0  0  0  0
  -21.3215    4.7121    0.0508 C   0  0  0  0  0  0  0  0  0  0  0  0
  -20.3246    5.7299   -0.0278 C   0  0  0  0  0  0  0  0  0  0  0  0
  -18.9437    5.3724   -0.5019 C   0  0  0  0  0  0  0  0  0  0  0  0
  -18.8125    5.0136   -1.6027 O   0  0  0  0  0  0  0  0  0  0  0  0
  -17.9182    5.4875    0.6375 N   0  0  0  0  0  0  0  0  0  0  0  0
  -18.2970    5.7484    1.5080 H   0  0  0  0  0  0  0  0  0  0  0  0
  -16.4896    5.2752    0.6392 C   0  0  0  0  0  0  0  0  0  0  0  0
  -16.0880    4.1575    1.6057 C   0  0  0  0  0  0  0  0  0  0  0  0
  -14.6212    4.2490    2.0320 C   0  0  0  0  0  0  0  0  0  0  0  0
  -13.7861    5.0671    1.0522 C   0  0  0  0  0  0  0  0  0  0  0  0
  -14.2595    6.4462    0.9409 N   0  0  0  0  0  0  0  0  0  0  0  0
  -15.7245    6.5760    0.9569 C   0  0  0  0  0  0  0  0  0  0  0  0
  -13.9121    6.8353    0.0644 H   0  0  0  0  0  0  0  0  0  0  0  0
  -19.9987    9.3503    0.0296 C   0  0  0  0  0  0  0  0  0  0  0  0
  -19.6310    7.9920    0.2319 O   0  0  0  0  0  0  0  0  0  0  0  0
 22 23  1  0  0  0
 23  1  1  0  0  0
  1  2  2  0  0  0
  2  3  1  0  0  0
  3  4  2  0  0  0
  4  5  1  0  0  0
  5  6  2  0  0  0
  6  7  1  0  0  0
  7  8  2  0  0  0
  8  9  1  0  0  0
  9 10  2  0  0  0
 10 11  1  0  0  0
 11 12  2  0  0  0
 11 13  1  0  0  0
 15 13  1  0  0  0
 15 16  1  0  0  0
 16 17  1  0  0  0
 17 18  1  0  0  0
 18 19  1  0  0  0
 19 20  1  0  0  0
 10  1  1  0  0  0
 20 15  1  0  0  0
  9  4  1  0  0  0
 13 14  1  0  0  0
 19 21  1  0  0  0
M  END
> <minimizedAffinity>
-4.33714

> <minimizedRMSD>
2.45820

$$$$
P42791


 19 21  0  0  0  0  0  0  0  0999 V2000
  -20.4150    2.8806   -0.3353 C   0  0  0  0  0  0  0  0  0  0  0  0
  -21.7956    3.0021   -0.2242 C   0  0  0  0  0  0  0  0  0  0  0  0
  -22.3732    4.2624   -0.0308 C   0  0  0  0  0  0  0  0  0  0  0  0
  -21.6051    5.4169    0.0561 C   0  0  0  0  0  0  0  0  0  0  0  0
  -22.2087    6.6080    0.2405 N   0  0  0  0  0  0  0  0  0  0  0  0
  -21.4565    7.7264    0.2859 C   0  0  0  0  0  0  0  0  0  0  0  0
  -20.0712    7.6711    0.1907 C   0  0  0  0  0  0  0  0  0  0  0  0
  -19.4391    6.4436    0.0232 C   0  0  0  0  0  0  0  0  0  0  0  0
  -20.2068    5.2836   -0.0635 C   0  0  0  0  0  0  0  0  0  0  0  0
  -19.6186    4.0203   -0.2601 C   0  0  0  0  0  0  0  0  0  0  0  0
  -22.0357    9.0011    0.3923 N   0  0  0  0  0  0  0  0  0  0  0  0
  -21.4851    9.8168    0.3646 H   0  0  0  0  0  0  0  0  0  0  0  0
  -23.4957    9.0708    0.5467 C   0  0  0  0  0  0  0  0  0  0  0  0
  -23.8290    9.6195    1.9403 C   0  0  0  0  0  0  0  0  0  0  0  0
  -23.4795   11.1043    2.0543 C   0  0  0  0  0  0  0  0  0  0  0  0
  -24.1169   11.9211    0.9314 C   0  0  0  0  0  0  0  0  0  0  0  0
  -23.7530   11.4252   -0.3974 N   0  0  0  0  0  0  0  0  0  0  0  0
  -24.1115   10.0024   -0.5352 C   0  0  0  0  0  0  0  0  0  0  0  0
  -22.7475   11.5322   -0.5315 H   0  0  0  0  0  0  0  0  0  0  0  0
  1  2  2  0  0  0
  2  3  1  0  0  0
  3  4  2  0  0  0
  4  5  1  0  0  0
  5  6  2  0  0  0
  6 11  1  0  0  0
 13 11  1  0  0  0
 13 14  1  0  0  0
 14 15  1  0  0  0
 15 16  1  0  0  0
 16 17  1  0  0  0
 17 18  1  0  0  0
  6  7  1  0  0  0
  7  8  2  0  0  0
  8  9  1  0  0  0
  9 10  2  0  0  0
 10  1  1  0  0  0
  9  4  1  0  0  0
 18 13  1  0  0  0
 11 12  1  0  0  0
 17 19  1  0  0  0
M  END
> <minimizedAffinity>
-3.61568

> <minimizedRMSD>
0.73947

$$$$
P42792


 20 22  0  0  0  0  0  0  0  0999 V2000
  -16.8376    3.4784    0.2543 Cl  0  0  0  0  0  0  0  0  0  0  0  0
  -18.5635    3.3573    0.2986 C   0  0  0  0  0  0  0  0  0  0  0  0
  -19.1040    2.0832    0.4793 C   0  0  0  0  0  0  0  0  0  0  0  0
  -20.4814    1.9269    0.5474 C   0  0  0  0  0  0  0  0  0  0  0  0
  -21.3071    3.0466    0.4436 C   0  0  0  0  0  0  0  0  0  0  0  0
  -20.7945    4.3262    0.2780 C   0  0  0  0  0  0  0  0  0  0  0  0
  -21.6624    5.3490    0.2227 N   0  0  0  0  0  0  0  0  0  0  0  0
  -21.1961    6.6028    0.0916 C   0  0  0  0  0  0  0  0  0  0  0  0
  -19.8463    6.8753   -0.0319 C   0  0  0  0  0  0  0  0  0  0  0  0
  -18.9411    5.8192    0.0176 C   0  0  0  0  0  0  0  0  0  0  0  0
  -19.3981    4.4981    0.1922 C   0  0  0  0  0  0  0  0  0  0  0  0
  -22.1643    7.6010    0.0866 N   0  0  0  0  0  0  0  0  0  0  0  0
  -22.9951    7.5174   -0.4350 H   0  0  0  0  0  0  0  0  0  0  0  0
  -21.8778    8.7842    0.9017 C   0  0  0  0  0  0  0  0  0  0  0  0
  -22.7178    9.9491    0.3554 C   0  0  0  0  0  0  0  0  0  0  0  0
  -22.5876   11.1822    1.2455 C   0  0  0  0  0  0  0  0  0  0  0  0
  -22.9085   10.8524    2.7018 C   0  0  0  0  0  0  0  0  0  0  0  0
  -22.0617    9.7752    3.2161 N   0  0  0  0  0  0  0  0  0  0  0  0
  -22.2095    8.5587    2.3996 C   0  0  0  0  0  0  0  0  0  0  0  0
  -22.3318    9.5675    4.1775 H   0  0  0  0  0  0  0  0  0  0  0  0
  1  2  1  0  0  0
  2  3  2  0  0  0
  3  4  1  0  0  0
  4  5  2  0  0  0
  5  6  1  0  0  0
  6  7  2  0  0  0
  7  8  1  0  0  0
  8 12  1  0  0  0
 14 12  1  0  0  0
 14 15  1  0  0  0
 15 16  1  0  0  0
 16 17  1  0  0  0
 17 18  1  0  0  0
 18 19  1  0  0  0
  8  9  2  0  0  0
  9 10  1  0  0  0
 10 11  2  0  0  0
 11  2  1  0  0  0
 11  6  1  0  0  0
 19 14  1  0  0  0
 12 13  1  0  0  0
 18 20  1  0  0  0
M  END
> <minimizedAffinity>
-3.50724

> <minimizedRMSD>
0.92459

$$$$
P42793


 20 22  0  0  0  0  0  0  0  0999 V2000
  -23.0233    0.6865    1.2801 Br  0  0  0  0  0  0  0  0  0  0  0  0
  -21.8813    2.1107    0.7880 C   0  0  0  0  0  0  0  0  0  0  0  0
  -20.5239    1.8771    0.5904 C   0  0  0  0  0  0  0  0  0  0  0  0
  -19.6860    2.9478    0.2840 C   0  0  0  0  0  0  0  0  0  0  0  0
  -20.2105    4.2501    0.1963 C   0  0  0  0  0  0  0  0  0  0  0  0
  -19.4009    5.3605   -0.0527 C   0  0  0  0  0  0  0  0  0  0  0  0
  -19.9709    6.6291   -0.1009 C   0  0  0  0  0  0  0  0  0  0  0  0
  -21.3370    6.7623    0.0934 C   0  0  0  0  0  0  0  0  0  0  0  0
  -22.1352    5.7039    0.3167 N   0  0  0  0  0  0  0  0  0  0  0  0
  -21.5904    4.4785    0.3800 C   0  0  0  0  0  0  0  0  0  0  0  0
  -22.4071    3.3961    0.6645 C   0  0  0  0  0  0  0  0  0  0  0  0
  -21.9580    8.0118    0.0620 N   0  0  0  0  0  0  0  0  0  0  0  0
  -22.7695    8.1894   -0.4663 H   0  0  0  0  0  0  0  0  0  0  0  0
  -21.3016    9.0426    0.8827 C   0  0  0  0  0  0  0  0  0  0  0  0
  -21.0768   10.2836    0.0035 C   0  0  0  0  0  0  0  0  0  0  0  0
  -22.3912   10.9897   -0.3367 C   0  0  0  0  0  0  0  0  0  0  0  0
  -23.2305   11.2581    0.9115 C   0  0  0  0  0  0  0  0  0  0  0  0
  -23.4604   10.0362    1.6783 N   0  0  0  0  0  0  0  0  0  0  0  0
  -22.1899    9.4214    2.0950 C   0  0  0  0  0  0  0  0  0  0  0  0
  -23.9769    9.3731    1.1005 H   0  0  0  0  0  0  0  0  0  0  0  0
  1  2  1  0  0  0
  2  3  2  0  0  0
  3  4  1  0  0  0
  4  5  2  0  0  0
  5  6  1  0  0  0
  6  7  2  0  0  0
  7  8  1  0  0  0
  8 12  1  0  0  0
 14 12  1  0  0  0
 14 15  1  0  0  0
 15 16  1  0  0  0
 16 17  1  0  0  0
 17 18  1  0  0  0
 18 19  1  0  0  0
  8  9  2  0  0  0
  9 10  1  0  0  0
 10 11  2  0  0  0
 11  2  1  0  0  0
 10  5  1  0  0  0
 19 14  1  0  0  0
 12 13  1  0  0  0
 18 20  1  0  0  0
M  END
> <minimizedAffinity>
-3.81205

> <minimizedRMSD>
1.33612

$$$$
P42794


 21 23  0  0  0  0  0  0  0  0999 V2000
  -19.3573    6.1065    0.1050 C   0  0  0  0  0  0  0  0  0  0  0  0
  -19.8474    7.3913    0.3426 C   0  0  0  0  0  0  0  0  0  0  0  0
  -21.2122    7.5718    0.4528 C   0  0  0  0  0  0  0  0  0  0  0  0
  -22.0716    6.5451    0.3222 N   0  0  0  0  0  0  0  0  0  0  0  0
  -21.6096    5.3038    0.1032 C   0  0  0  0  0  0  0  0  0  0  0  0
  -22.5224    4.2605    0.0160 C   0  0  0  0  0  0  0  0  0  0  0  0
  -22.1173    2.9355   -0.1609 C   0  0  0  0  0  0  0  0  0  0  0  0
  -20.7671    2.6371   -0.2684 C   0  0  0  0  0  0  0  0  0  0  0  0
  -19.8326    3.6673   -0.2120 C   0  0  0  0  0  0  0  0  0  0  0  0
  -20.2401    5.0132   -0.0148 C   0  0  0  0  0  0  0  0  0  0  0  0
  -16.8099    5.6612   -0.0931 N   0  0  0  0  0  0  0  0  0  0  0  0
  -17.9404    5.9077    0.0169 C   0  0  0  0  0  0  0  0  0  0  0  0
  -21.8047    8.7715    0.8044 N   0  0  0  0  0  0  0  0  0  0  0  0
  -22.6071    8.7751    1.3748 H   0  0  0  0  0  0  0  0  0  0  0  0
  -21.2378   10.0404    0.3274 C   0  0  0  0  0  0  0  0  0  0  0  0
  -22.3414   10.8820   -0.3381 C   0  0  0  0  0  0  0  0  0  0  0  0
  -23.3641   11.3970    0.6770 C   0  0  0  0  0  0  0  0  0  0  0  0
  -22.6890   12.0801    1.8655 C   0  0  0  0  0  0  0  0  0  0  0  0
  -21.6852   11.2232    2.5015 N   0  0  0  0  0  0  0  0  0  0  0  0
  -20.6537   10.8317    1.5232 C   0  0  0  0  0  0  0  0  0  0  0  0
  -22.1394   10.3854    2.8652 H   0  0  0  0  0  0  0  0  0  0  0  0
 11 12  3  0  0  0
 12  1  1  0  0  0
  1  2  2  0  0  0
  2  3  1  0  0  0
  3 13  1  0  0  0
 15 13  1  0  0  0
 15 16  1  0  0  0
 16 17  1  0  0  0
 17 18  1  0  0  0
 18 19  1  0  0  0
 19 20  1  0  0  0
  3  4  2  0  0  0
  4  5  1  0  0  0
  5  6  2  0  0  0
  6  7  1  0  0  0
  7  8  2  0  0  0
  8  9  1  0  0  0
  9 10  2  0  0  0
 10  1  1  0  0  0
 20 15  1  0  0  0
 10  5  1  0  0  0
 13 14  1  0  0  0
 19 21  1  0  0  0
M  END
> <minimizedAffinity>
-3.67882

> <minimizedRMSD>
0.72051

$$$$
P42797


 20 22  0  0  0  0  0  0  0  0999 V2000
  -21.9421    7.4493    0.6610 C   0  0  0  0  0  0  0  0  0  0  0  0
  -22.2818    6.2023    0.2431 N   0  0  0  0  0  0  0  0  0  0  0  0
  -21.3310    5.4182   -0.2863 C   0  0  0  0  0  0  0  0  0  0  0  0
  -21.6514    4.1247   -0.6759 C   0  0  0  0  0  0  0  0  0  0  0  0
  -20.6849    3.2490   -1.1792 C   0  0  0  0  0  0  0  0  0  0  0  0
  -19.3676    3.6737   -1.3141 C   0  0  0  0  0  0  0  0  0  0  0  0
  -19.0252    4.9754   -0.9568 C   0  0  0  0  0  0  0  0  0  0  0  0
  -19.9991    5.8473   -0.4369 C   0  0  0  0  0  0  0  0  0  0  0  0
  -19.6853    7.1479   -0.0260 C   0  0  0  0  0  0  0  0  0  0  0  0
  -20.6597    7.9790    0.5309 C   0  0  0  0  0  0  0  0  0  0  0  0
  -24.0813    7.4516    1.6354 C   0  0  0  0  0  0  0  0  0  0  0  0
  -22.9103    8.1887    1.3061 O   0  0  0  0  0  0  0  0  0  0  0  0
  -20.1671    9.1855    0.9392 O   0  0  0  0  0  0  0  0  0  0  0  0
  -20.5201   10.3732    0.2261 C   0  0  0  0  0  0  0  0  0  0  0  0
  -20.7425   11.5137    1.2230 C   0  0  0  0  0  0  0  0  0  0  0  0
  -21.0008   12.8434    0.5143 C   0  0  0  0  0  0  0  0  0  0  0  0
  -20.5819   12.8290   -0.9563 C   0  0  0  0  0  0  0  0  0  0  0  0
  -19.2995   12.1591   -1.1573 N   0  0  0  0  0  0  0  0  0  0  0  0
  -19.3255   10.7604   -0.6814 C   0  0  0  0  0  0  0  0  0  0  0  0
  -18.5785   12.6677   -0.6457 H   0  0  0  0  0  0  0  0  0  0  0  0
 11 12  1  0  0  0
 12  1  1  0  0  0
  1  2  2  0  0  0
  2  3  1  0  0  0
  3  4  2  0  0  0
  4  5  1  0  0  0
  5  6  2  0  0  0
  6  7  1  0  0  0
  7  8  2  0  0  0
  8  9  1  0  0  0
  9 10  2  0  0  0
 10 13  1  0  0  0
 14 13  1  0  0  0
 14 15  1  0  0  0
 15 16  1  0  0  0
 16 17  1  0  0  0
 17 18  1  0  0  0
 18 19  1  0  0  0
 10  1  1  0  0  0
 19 14  1  0  0  0
  8  3  1  0  0  0
 18 20  1  0  0  0
M  END
> <minimizedAffinity>
-3.72133

> <minimizedRMSD>
1.03424

$$$$
P42800


 21 23  0  0  0  0  0  0  0  0999 V2000
  -21.8492    7.1158    1.5254 C   0  0  0  0  0  0  0  0  0  0  0  0
  -22.7116    6.0771    1.4306 N   0  0  0  0  0  0  0  0  0  0  0  0
  -22.4864    5.1490    0.4917 C   0  0  0  0  0  0  0  0  0  0  0  0
  -23.3081    4.0313    0.4306 C   0  0  0  0  0  0  0  0  0  0  0  0
  -23.0777    3.0000   -0.4838 C   0  0  0  0  0  0  0  0  0  0  0  0
  -22.0168    3.0923   -1.3774 C   0  0  0  0  0  0  0  0  0  0  0  0
  -21.1989    4.2197   -1.3600 C   0  0  0  0  0  0  0  0  0  0  0  0
  -21.4198    5.2448   -0.4219 C   0  0  0  0  0  0  0  0  0  0  0  0
  -20.5740    6.3608   -0.3295 C   0  0  0  0  0  0  0  0  0  0  0  0
  -20.7453    7.3067    0.6890 C   0  0  0  0  0  0  0  0  0  0  0  0
  -23.3379    8.0317    3.0932 C   0  0  0  0  0  0  0  0  0  0  0  0
  -22.0207    8.0240    2.5556 O   0  0  0  0  0  0  0  0  0  0  0  0
  -19.7708    8.4614    0.9351 C   0  0  0  0  0  0  0  0  0  0  0  0
  -20.0927    9.6137   -0.0266 C   0  0  0  0  0  0  0  0  0  0  0  0
  -18.2516    8.0790    0.9199 C   0  0  0  0  0  0  0  0  0  0  0  0
  -17.8826    7.1380    2.0974 C   0  0  0  0  0  0  0  0  0  0  0  0
  -17.0354    7.8432    3.1500 C   0  0  0  0  0  0  0  0  0  0  0  0
  -15.7699    8.4449    2.5372 C   0  0  0  0  0  0  0  0  0  0  0  0
  -15.9515    8.9670    1.1825 N   0  0  0  0  0  0  0  0  0  0  0  0
  -17.3401    9.3279    0.9091 C   0  0  0  0  0  0  0  0  0  0  0  0
  -15.6603    8.2536    0.5142 H   0  0  0  0  0  0  0  0  0  0  0  0
 11 12  1  0  0  0
 12  1  1  0  0  0
  1  2  2  0  0  0
  2  3  1  0  0  0
  3  4  2  0  0  0
  4  5  1  0  0  0
  5  6  2  0  0  0
  6  7  1  0  0  0
  7  8  2  0  0  0
  8  9  1  0  0  0
  9 10  2  0  0  0
 10 13  1  0  0  0
 13 14  1  0  0  0
 13 15  1  0  0  0
 15 16  1  0  0  0
 16 17  1  0  0  0
 17 18  1  0  0  0
 18 19  1  0  0  0
 19 20  1  0  0  0
 10  1  1  0  0  0
 20 15  1  0  0  0
  8  3  1  0  0  0
 19 21  1  0  0  0
M  END
> <minimizedAffinity>
-3.70966

> <minimizedRMSD>
1.55854

$$$$
P42832


 21 22  0  0  0  0  0  0  0  0999 V2000
   -6.6941    4.6159  -18.2341 C   0  0  0  0  0  0  0  0  0  0  0  0
   -7.9562    4.3700  -18.7776 C   0  0  0  0  0  0  0  0  0  0  0  0
   -9.0816    4.2882  -17.9713 C   0  0  0  0  0  0  0  0  0  0  0  0
   -8.9439    4.3835  -16.5938 C   0  0  0  0  0  0  0  0  0  0  0  0
   -7.7032    4.5988  -16.0021 C   0  0  0  0  0  0  0  0  0  0  0  0
   -6.6047    4.7876  -16.8454 C   0  0  0  0  0  0  0  0  0  0  0  0
   -5.6121    4.7646  -19.0901 N   0  0  0  0  0  0  0  0  0  0  0  0
   -5.6822    4.4026  -20.0029 H   0  0  0  0  0  0  0  0  0  0  0  0
   -4.2349    6.7211  -19.4939 C   0  0  0  0  0  0  0  0  0  0  0  0
   -4.3844    5.4280  -18.7022 C   0  0  0  0  0  0  0  0  0  0  0  0
   -3.1531    4.5663  -18.9315 C   0  0  0  0  0  0  0  0  0  0  0  0
   -7.5768    4.6605  -14.5034 C   0  0  0  0  0  0  0  0  0  0  0  0
   -6.3848    4.0159  -14.0183 N   0  0  0  0  0  0  0  0  0  0  0  0
   -6.1634    2.5735  -13.4895 C   0  0  0  0  0  0  0  0  0  0  0  0
   -6.8960    1.6655  -13.4389 O   0  0  0  0  0  0  0  0  0  0  0  0
   -5.5792    4.5818  -14.0226 H   0  0  0  0  0  0  0  0  0  0  0  0
   -4.7104    2.4752  -13.0273 C   0  0  0  0  0  0  0  0  0  0  0  0
   -4.5877    1.9796  -11.5940 C   0  0  0  0  0  0  0  0  0  0  0  0
   -4.5807    3.0530  -10.4739 C   0  0  0  0  0  0  0  0  0  0  0  0
   -3.5430    2.1731   -9.7469 C   0  0  0  0  0  0  0  0  0  0  0  0
   -3.1538    1.6130  -11.1288 C   0  0  0  0  0  0  0  0  0  0  0  0
  9 10  1  0  0  0
 10 11  1  0  0  0
 10  7  1  0  0  0
  7  1  1  0  0  0
  1  2  2  0  0  0
  2  3  1  0  0  0
  3  4  2  0  0  0
  4  5  1  0  0  0
  5 12  1  0  0  0
 12 13  1  0  0  0
 13 14  1  0  0  0
 14 15  2  0  0  0
 14 17  1  0  0  0
 17 18  1  0  0  0
 18 19  1  0  0  0
 19 20  1  0  0  0
 20 21  1  0  0  0
  5  6  2  0  0  0
  6  1  1  0  0  0
 21 18  1  0  0  0
  7  8  1  0  0  0
 13 16  1  0  0  0
M  END
> <minimizedAffinity>
-6.03811

> <minimizedRMSD>
0.48724

$$$$
P43100


 20 22  0  0  0  0  0  0  0  0999 V2000
  -10.4239    4.2212  -17.7303 Br  0  0  0  0  0  0  0  0  0  0  0  0
   -8.6102    4.3845  -17.2868 C   0  0  0  0  0  0  0  0  0  0  0  0
   -8.2308    4.6537  -15.9711 C   0  0  0  0  0  0  0  0  0  0  0  0
   -6.9137    5.0311  -15.6856 C   0  0  0  0  0  0  0  0  0  0  0  0
   -6.0043    5.1336  -16.7493 C   0  0  0  0  0  0  0  0  0  0  0  0
   -4.6977    5.5569  -16.7635 N   0  0  0  0  0  0  0  0  0  0  0  0
   -4.2981    5.4406  -18.0155 C   0  0  0  0  0  0  0  0  0  0  0  0
   -5.3037    4.9437  -18.8073 N   0  0  0  0  0  0  0  0  0  0  0  0
   -6.4154    4.7889  -18.0288 C   0  0  0  0  0  0  0  0  0  0  0  0
   -7.7052    4.3897  -18.3439 C   0  0  0  0  0  0  0  0  0  0  0  0
   -5.2355    4.7355  -19.7671 H   0  0  0  0  0  0  0  0  0  0  0  0
   -2.9450    5.7661  -18.5451 C   0  0  0  0  0  0  0  0  0  0  0  0
   -2.9426    6.4873  -19.9001 C   0  0  0  0  0  0  0  0  0  0  0  0
   -3.3285    7.9848  -19.8548 C   0  0  0  0  0  0  0  0  0  0  0  0
   -4.8495    8.2104  -19.9569 C   0  0  0  0  0  0  0  0  0  0  0  0
   -5.1845    9.5244  -20.6530 C   0  0  0  0  0  0  0  0  0  0  0  0
   -4.7166    9.5504  -22.0399 N   0  0  0  0  0  0  0  0  0  0  0  0
   -3.4249    8.8802  -22.2336 C   0  0  0  0  0  0  0  0  0  0  0  0
   -2.5919    8.7746  -20.9585 C   0  0  0  0  0  0  0  0  0  0  0  0
   -4.6225   10.5234  -22.3310 H   0  0  0  0  0  0  0  0  0  0  0  0
  1  2  1  0  0  0
  2  3  2  0  0  0
  3  4  1  0  0  0
  4  5  2  0  0  0
  5  6  1  0  0  0
  6  7  2  0  0  0
  7 12  1  0  0  0
 12 13  1  0  0  0
 13 14  1  0  0  0
 14 15  1  0  0  0
 15 16  1  0  0  0
 16 17  1  0  0  0
 17 18  1  0  0  0
 18 19  1  0  0  0
  7  8  1  0  0  0
  8  9  1  0  0  0
  9 10  2  0  0  0
 10  2  1  0  0  0
  9  5  1  0  0  0
 19 14  1  0  0  0
 17 20  1  0  0  0
  8 11  1  0  0  0
M  END
> <minimizedAffinity>
-4.64337

> <minimizedRMSD>
1.38188

$$$$
P43101


 24 26  0  0  0  0  0  0  0  0999 V2000
   -7.1522    5.3408  -13.7864 C   0  0  0  0  0  0  0  0  0  0  0  0
   -6.6551    6.4600  -13.6558 O   0  0  0  0  0  0  0  0  0  0  0  0
   -7.2395    4.9005  -15.1954 C   0  0  0  0  0  0  0  0  0  0  0  0
   -8.4666    4.4803  -15.7332 C   0  0  0  0  0  0  0  0  0  0  0  0
   -8.5982    4.3366  -17.1168 C   0  0  0  0  0  0  0  0  0  0  0  0
  -10.2920    4.2108  -17.9124 Br  0  0  0  0  0  0  0  0  0  0  0  0
   -7.5317    4.4839  -17.9993 C   0  0  0  0  0  0  0  0  0  0  0  0
   -6.3370    4.9032  -17.4389 C   0  0  0  0  0  0  0  0  0  0  0  0
   -5.1375    5.2056  -18.0254 N   0  0  0  0  0  0  0  0  0  0  0  0
   -4.2980    5.6368  -17.0432 C   0  0  0  0  0  0  0  0  0  0  0  0
   -4.8774    5.6133  -15.8651 N   0  0  0  0  0  0  0  0  0  0  0  0
   -6.1585    5.1388  -16.0774 C   0  0  0  0  0  0  0  0  0  0  0  0
   -4.9211    5.1260  -18.9825 H   0  0  0  0  0  0  0  0  0  0  0  0
   -8.1338    6.6512  -11.0104 C   0  0  0  0  0  0  0  0  0  0  0  0
   -7.2272    5.1313  -11.2568 S   0  0  0  0  0  0  0  0  0  0  0  0
   -5.8433    5.4656  -10.9481 O   0  0  0  0  0  0  0  0  0  0  0  0
   -7.6800    4.6322  -12.6669 N   0  0  0  0  0  0  0  0  0  0  0  0
   -7.7451    4.0841   -9.8934 C   0  0  0  0  0  0  0  0  0  0  0  0
   -8.5960    2.8938  -10.2809 C   0  0  0  0  0  0  0  0  0  0  0  0
   -9.3715    2.3264   -9.0910 C   0  0  0  0  0  0  0  0  0  0  0  0
   -8.7681    2.6356   -7.8165 N   0  0  0  0  0  0  0  0  0  0  0  0
   -8.7663    4.0526   -7.5294 C   0  0  0  0  0  0  0  0  0  0  0  0
   -8.3834    4.8902   -8.7467 C   0  0  0  0  0  0  0  0  0  0  0  0
   -7.8041    2.3025   -7.8224 H   0  0  0  0  0  0  0  0  0  0  0  0
 15 14  1  0  0  0
 15 16  2  0  0  0
 15 17  2  0  0  0
 17  1  1  0  0  0
  1  2  2  0  0  0
  1  3  1  0  0  0
  3  4  2  0  0  0
  4  5  1  0  0  0
  5  6  1  0  0  0
  5  7  2  0  0  0
  7  8  1  0  0  0
  8  9  1  0  0  0
  9 10  1  0  0  0
 10 11  2  0  0  0
 11 12  1  0  0  0
 15 18  1  0  0  0
 18 19  1  0  0  0
 19 20  1  0  0  0
 20 21  1  0  0  0
 21 22  1  0  0  0
 22 23  1  0  0  0
 12  3  1  0  0  0
 23 18  1  0  0  0
 12  8  2  0  0  0
  9 13  1  0  0  0
 21 24  1  0  0  0
M  END
> <minimizedAffinity>
-6.54525

> <minimizedRMSD>
0.39414

$$$$
P43314


 24 26  0  0  0  0  0  0  0  0999 V2000
   -8.3651    5.9712  -12.1736 N   0  0  0  0  0  0  0  0  0  0  0  0
   -8.2893    4.5929  -11.4940 C   0  0  0  0  0  0  0  0  0  0  0  0
   -8.2918    3.5237  -11.9541 O   0  0  0  0  0  0  0  0  0  0  0  0
   -8.2675    6.7375  -11.5631 H   0  0  0  0  0  0  0  0  0  0  0  0
   -8.3035    4.7856  -10.0502 C   0  0  0  0  0  0  0  0  0  0  0  0
   -8.1327    5.9641   -9.2864 C   0  0  0  0  0  0  0  0  0  0  0  0
   -8.2873    5.7676   -7.9720 N   0  0  0  0  0  0  0  0  0  0  0  0
   -8.5034    4.4370   -7.8905 N   0  0  0  0  0  0  0  0  0  0  0  0
   -8.5397    3.8082   -9.1021 C   0  0  0  0  0  0  0  0  0  0  0  0
   -8.8493    2.3578   -9.2037 C   0  0  0  0  0  0  0  0  0  0  0  0
   -8.6836    1.6981   -7.9120 N   0  0  0  0  0  0  0  0  0  0  0  0
   -9.3567    2.4090   -6.8313 C   0  0  0  0  0  0  0  0  0  0  0  0
   -8.7102    3.7760   -6.6147 C   0  0  0  0  0  0  0  0  0  0  0  0
   -7.6879    1.6441   -7.6977 H   0  0  0  0  0  0  0  0  0  0  0  0
   -8.5554    6.3232  -13.5571 C   0  0  0  0  0  0  0  0  0  0  0  0
   -7.4215    6.1379  -14.5652 C   0  0  0  0  0  0  0  0  0  0  0  0
   -6.1755    6.8966  -14.1069 C   0  0  0  0  0  0  0  0  0  0  0  0
   -7.2209    4.6925  -15.0674 C   0  0  0  0  0  0  0  0  0  0  0  0
   -5.6651    4.8600  -17.6565 C   0  0  0  0  0  0  0  0  0  0  0  0
   -7.1365    4.7180  -17.5735 C   0  0  0  0  0  0  0  0  0  0  0  0
   -7.9891    4.7744  -18.5764 N   0  0  0  0  0  0  0  0  0  0  0  0
   -9.2040    4.4239  -18.0501 C   0  0  0  0  0  0  0  0  0  0  0  0
   -9.0965    4.2003  -16.6978 C   0  0  0  0  0  0  0  0  0  0  0  0
   -7.7977    4.4991  -16.3931 N   0  0  0  0  0  0  0  0  0  0  0  0
 19 20  1  0  0  0
 20 21  2  0  0  0
 21 22  1  0  0  0
 22 23  2  0  0  0
 23 24  1  0  0  0
 24 18  1  0  0  0
 18 16  1  0  0  0
 16 17  1  0  0  0
 16 15  1  0  0  0
 15  1  1  0  0  0
  1  2  1  0  0  0
  2  3  2  0  0  0
  2  5  1  0  0  0
  5  6  1  0  0  0
  6  7  2  0  0  0
  7  8  1  0  0  0
  8  9  1  0  0  0
  9 10  1  0  0  0
 10 11  1  0  0  0
 11 12  1  0  0  0
 12 13  1  0  0  0
 24 20  1  0  0  0
  9  5  2  0  0  0
 13  8  1  0  0  0
  1  4  1  0  0  0
 11 14  1  0  0  0
M  END
> <minimizedAffinity>
-6.14411

> <minimizedRMSD>
1.13775

$$$$
P43371


 21 23  0  0  0  0  0  0  0  0999 V2000
   -4.9075    5.2698  -17.1474 C   0  0  0  0  0  0  0  0  0  0  0  0
   -6.3821    4.9617  -17.3159 C   0  0  0  0  0  0  0  0  0  0  0  0
   -7.0042    4.5868  -18.5210 C   0  0  0  0  0  0  0  0  0  0  0  0
   -8.3729    4.3102  -18.5954 C   0  0  0  0  0  0  0  0  0  0  0  0
   -9.2006    4.4007  -17.4850 C   0  0  0  0  0  0  0  0  0  0  0  0
   -8.5867    4.7031  -16.2750 C   0  0  0  0  0  0  0  0  0  0  0  0
   -9.1260    4.7190  -15.0078 N   0  0  0  0  0  0  0  0  0  0  0  0
   -8.1688    5.0822  -14.0991 C   0  0  0  0  0  0  0  0  0  0  0  0
   -6.9854    5.2505  -14.7814 C   0  0  0  0  0  0  0  0  0  0  0  0
   -7.2254    4.9885  -16.1653 C   0  0  0  0  0  0  0  0  0  0  0  0
  -10.0607    4.5016  -14.7882 H   0  0  0  0  0  0  0  0  0  0  0  0
   -3.4878    4.9228  -19.1118 C   0  0  0  0  0  0  0  0  0  0  0  0
   -4.0849    5.8822  -18.2016 N   0  0  0  0  0  0  0  0  0  0  0  0
   -4.7118    7.0528  -18.8176 C   0  0  0  0  0  0  0  0  0  0  0  0
   -3.8790    7.7642  -19.9020 C   0  0  0  0  0  0  0  0  0  0  0  0
   -4.2714    7.5926  -21.3525 C   0  0  0  0  0  0  0  0  0  0  0  0
   -5.5515    7.8761  -21.8161 C   0  0  0  0  0  0  0  0  0  0  0  0
   -5.8013    7.8683  -23.1874 C   0  0  0  0  0  0  0  0  0  0  0  0
   -4.7697    7.5875  -24.0705 C   0  0  0  0  0  0  0  0  0  0  0  0
   -3.5268    7.3038  -23.5393 C   0  0  0  0  0  0  0  0  0  0  0  0
   -3.2599    7.2962  -22.2126 N   0  0  0  0  0  0  0  0  0  0  0  0
 12 13  1  0  0  0
 13 14  1  0  0  0
 14 15  1  0  0  0
 15 16  1  0  0  0
 16 17  2  0  0  0
 17 18  1  0  0  0
 18 19  2  0  0  0
 19 20  1  0  0  0
 20 21  2  0  0  0
 13  1  1  0  0  0
  1  2  1  0  0  0
  2  3  2  0  0  0
  3  4  1  0  0  0
  4  5  2  0  0  0
  5  6  1  0  0  0
  6  7  1  0  0  0
  7  8  1  0  0  0
  8  9  2  0  0  0
  9 10  1  0  0  0
 21 16  1  0  0  0
 10  2  1  0  0  0
 10  6  2  0  0  0
  7 11  1  0  0  0
M  END
> <minimizedAffinity>
-5.70830

> <minimizedRMSD>
1.09541

$$$$
P43373


 26 28  0  0  0  0  0  0  0  0999 V2000
   -3.2019    7.1951  -16.6514 C   0  0  0  0  0  0  0  0  0  0  0  0
   -7.2921    4.9561  -17.6041 C   0  0  0  0  0  0  0  0  0  0  0  0
   -8.1478    4.9183  -16.5113 C   0  0  0  0  0  0  0  0  0  0  0  0
   -7.7923    5.5265  -15.3083 C   0  0  0  0  0  0  0  0  0  0  0  0
   -6.5499    6.1709  -15.2514 C   0  0  0  0  0  0  0  0  0  0  0  0
   -5.9487    6.8360  -14.2149 N   0  0  0  0  0  0  0  0  0  0  0  0
   -4.7173    7.2933  -14.5980 C   0  0  0  0  0  0  0  0  0  0  0  0
   -4.4876    6.9254  -15.9131 C   0  0  0  0  0  0  0  0  0  0  0  0
   -5.6643    6.2230  -16.3276 C   0  0  0  0  0  0  0  0  0  0  0  0
   -6.0596    5.6059  -17.5194 C   0  0  0  0  0  0  0  0  0  0  0  0
   -6.3455    6.9660  -13.3233 H   0  0  0  0  0  0  0  0  0  0  0  0
   -6.8417    4.3456  -19.8091 C   0  0  0  0  0  0  0  0  0  0  0  0
   -7.7361    4.3126  -18.7181 O   0  0  0  0  0  0  0  0  0  0  0  0
   -3.2004    7.2469  -18.1885 C   0  0  0  0  0  0  0  0  0  0  0  0
   -4.1345    8.2330  -18.7422 N   0  0  0  0  0  0  0  0  0  0  0  0
   -4.0040    9.1163  -18.2491 H   0  0  0  0  0  0  0  0  0  0  0  0
   -3.9395    8.4677  -20.1863 C   0  0  0  0  0  0  0  0  0  0  0  0
   -4.0756    7.2284  -21.1077 C   0  0  0  0  0  0  0  0  0  0  0  0
   -2.8469    6.4680  -21.1185 O   0  0  0  0  0  0  0  0  0  0  0  0
   -2.1265    7.0224  -21.4567 H   0  0  0  0  0  0  0  0  0  0  0  0
   -4.3429    7.6771  -22.5309 C   0  0  0  0  0  0  0  0  0  0  0  0
   -5.6419    7.7029  -23.0301 C   0  0  0  0  0  0  0  0  0  0  0  0
   -5.8342    8.1054  -24.3442 C   0  0  0  0  0  0  0  0  0  0  0  0
   -4.7378    8.4745  -25.1161 C   0  0  0  0  0  0  0  0  0  0  0  0
   -3.4787    8.4213  -24.5428 C   0  0  0  0  0  0  0  0  0  0  0  0
   -3.2515    8.0318  -23.2697 N   0  0  0  0  0  0  0  0  0  0  0  0
 12 13  1  0  0  0
 13  2  1  0  0  0
  2  3  2  0  0  0
  3  4  1  0  0  0
  4  5  2  0  0  0
  5  6  1  0  0  0
  6  7  1  0  0  0
  7  8  2  0  0  0
  8  1  1  0  0  0
  1 14  1  0  0  0
 14 15  1  0  0  0
 15 17  1  0  0  0
 17 18  1  0  0  0
 18 19  1  0  0  0
 18 21  1  0  0  0
 21 22  2  0  0  0
 22 23  1  0  0  0
 23 24  2  0  0  0
 24 25  1  0  0  0
 25 26  2  0  0  0
  8  9  1  0  0  0
  9 10  2  0  0  0
 10  2  1  0  0  0
  9  5  1  0  0  0
 26 21  1  0  0  0
  6 11  1  0  0  0
 15 16  1  0  0  0
 19 20  1  0  0  0
M  END
> <minimizedAffinity>
-2.88286

> <minimizedRMSD>
0.28074

$$$$
P43438


 20 21  0  0  0  0  0  0  0  0999 V2000
   -4.7507    5.3033  -17.0980 S   0  0  0  0  0  0  0  0  0  0  0  0
   -4.2246    4.3867  -16.1203 O   0  0  0  0  0  0  0  0  0  0  0  0
   -4.5204    6.7255  -17.0499 O   0  0  0  0  0  0  0  0  0  0  0  0
  -10.2752    3.7444  -17.2078 O   0  0  0  0  0  0  0  0  0  0  0  0
   -9.1183    4.1664  -17.1599 C   0  0  0  0  0  0  0  0  0  0  0  0
   -8.4316    4.4321  -15.8423 C   0  0  0  0  0  0  0  0  0  0  0  0
   -6.9235    4.4353  -15.9184 C   0  0  0  0  0  0  0  0  0  0  0  0
   -6.4258    5.0860  -17.1679 N   0  0  0  0  0  0  0  0  0  0  0  0
   -6.9581    4.3845  -18.3467 C   0  0  0  0  0  0  0  0  0  0  0  0
   -8.4437    4.5710  -18.4276 C   0  0  0  0  0  0  0  0  0  0  0  0
   -4.2537    4.7064  -18.5785 N   0  0  0  0  0  0  0  0  0  0  0  0
   -5.0656    4.7066  -19.1959 H   0  0  0  0  0  0  0  0  0  0  0  0
   -3.1661    5.4274  -19.2766 C   0  0  0  0  0  0  0  0  0  0  0  0
   -1.7748    5.1881  -18.6979 C   0  0  0  0  0  0  0  0  0  0  0  0
   -1.2860    6.2994  -17.9000 N   0  0  0  0  0  0  0  0  0  0  0  0
   -0.8829    7.5192  -18.3759 C   0  0  0  0  0  0  0  0  0  0  0  0
   -0.4885    8.2406  -17.2769 C   0  0  0  0  0  0  0  0  0  0  0  0
    0.0760    9.8323  -17.2174 Cl  0  0  0  0  0  0  0  0  0  0  0  0
   -0.6413    7.3616  -16.1930 C   0  0  0  0  0  0  0  0  0  0  0  0
   -1.0875    6.1616  -16.5758 N   0  0  0  0  0  0  0  0  0  0  0  0
  4  5  2  0  0  0
  5  6  1  0  0  0
  6  7  1  0  0  0
  7  8  1  0  0  0
  8  1  1  0  0  0
  1  2  2  0  0  0
  1  3  2  0  0  0
  1 11  1  0  0  0
 11 13  1  0  0  0
 13 14  1  0  0  0
 14 15  1  0  0  0
 15 16  1  0  0  0
 16 17  2  0  0  0
 17 18  1  0  0  0
 17 19  1  0  0  0
 19 20  2  0  0  0
  8  9  1  0  0  0
  9 10  1  0  0  0
 10  5  1  0  0  0
 20 15  1  0  0  0
 11 12  1  0  0  0
M  END
> <minimizedAffinity>
-4.30634

> <minimizedRMSD>
1.06052

$$$$
P43441


 21 22  0  0  0  0  0  0  0  0999 V2000
   -4.5695    5.5384  -18.8283 N   0  0  0  0  0  0  0  0  0  0  0  0
   -5.2854    4.9785  -19.2914 H   0  0  0  0  0  0  0  0  0  0  0  0
   -4.8940    5.5418  -17.1981 S   0  0  0  0  0  0  0  0  0  0  0  0
   -4.1610    4.4657  -16.5783 O   0  0  0  0  0  0  0  0  0  0  0  0
   -4.7899    6.8992  -16.7193 O   0  0  0  0  0  0  0  0  0  0  0  0
   -6.5413    5.1651  -17.1664 N   0  0  0  0  0  0  0  0  0  0  0  0
   -6.8880    4.4368  -15.9081 C   0  0  0  0  0  0  0  0  0  0  0  0
   -8.3807    4.2885  -15.7377 C   0  0  0  0  0  0  0  0  0  0  0  0
   -9.1246    3.9851  -17.0147 C   0  0  0  0  0  0  0  0  0  0  0  0
  -10.2556    3.4940  -16.9897 O   0  0  0  0  0  0  0  0  0  0  0  0
   -8.5567    4.4435  -18.3198 C   0  0  0  0  0  0  0  0  0  0  0  0
   -7.0531    4.4100  -18.3265 C   0  0  0  0  0  0  0  0  0  0  0  0
   -3.2482    4.9943  -19.2059 C   0  0  0  0  0  0  0  0  0  0  0  0
   -1.1049    7.7808  -19.7204 N   0  0  0  0  0  0  0  0  0  0  0  0
   -0.6104    7.4514  -18.4919 C   0  0  0  0  0  0  0  0  0  0  0  0
   -1.3217    6.3518  -18.0771 C   0  0  0  0  0  0  0  0  0  0  0  0
   -2.2173    6.0721  -19.1363 C   0  0  0  0  0  0  0  0  0  0  0  0
   -2.1083    6.9755  -20.1230 N   0  0  0  0  0  0  0  0  0  0  0  0
   -1.7752    9.9004  -20.7940 C   0  0  0  0  0  0  0  0  0  0  0  0
   -0.6585    8.8826  -20.5661 C   0  0  0  0  0  0  0  0  0  0  0  0
   -0.0877    8.3741  -21.8894 C   0  0  0  0  0  0  0  0  0  0  0  0
 19 20  1  0  0  0
 20 21  1  0  0  0
 20 14  1  0  0  0
 14 15  1  0  0  0
 15 16  2  0  0  0
 16 17  1  0  0  0
 17 13  1  0  0  0
 13  1  1  0  0  0
  1  3  1  0  0  0
  3  4  2  0  0  0
  3  5  2  0  0  0
  3  6  1  0  0  0
  6  7  1  0  0  0
  7  8  1  0  0  0
  8  9  1  0  0  0
  9 10  2  0  0  0
  9 11  1  0  0  0
 11 12  1  0  0  0
 17 18  2  0  0  0
 18 14  1  0  0  0
 12  6  1  0  0  0
  1  2  1  0  0  0
M  END
> <minimizedAffinity>
-4.36249

> <minimizedRMSD>
1.14197

$$$$
P43682


 18 20  0  0  0  0  0  0  0  0999 V2000
   -8.3534    5.0224  -15.2185 Cl  0  0  0  0  0  0  0  0  0  0  0  0
   -7.1427    5.1336  -16.4214 C   0  0  0  0  0  0  0  0  0  0  0  0
   -7.4666    5.4877  -17.7284 C   0  0  0  0  0  0  0  0  0  0  0  0
   -6.4701    5.5817  -18.6951 C   0  0  0  0  0  0  0  0  0  0  0  0
   -5.1277    5.3453  -18.3749 C   0  0  0  0  0  0  0  0  0  0  0  0
   -4.7857    5.0024  -17.0541 C   0  0  0  0  0  0  0  0  0  0  0  0
   -3.5651    4.7133  -16.3858 C   0  0  0  0  0  0  0  0  0  0  0  0
   -3.8498    4.4436  -15.0603 C   0  0  0  0  0  0  0  0  0  0  0  0
   -5.2131    4.5483  -14.9143 N   0  0  0  0  0  0  0  0  0  0  0  0
   -5.8011    4.9004  -16.1065 C   0  0  0  0  0  0  0  0  0  0  0  0
   -5.7004    4.3929  -14.0732 H   0  0  0  0  0  0  0  0  0  0  0  0
   -2.9333    4.0906  -13.9233 C   0  0  0  0  0  0  0  0  0  0  0  0
   -3.2282    2.6894  -13.3680 C   0  0  0  0  0  0  0  0  0  0  0  0
   -2.3409    2.3914  -12.1611 C   0  0  0  0  0  0  0  0  0  0  0  0
   -2.4406    3.4978  -11.1123 C   0  0  0  0  0  0  0  0  0  0  0  0
   -2.1059    4.8109  -11.6689 N   0  0  0  0  0  0  0  0  0  0  0  0
   -2.9880    5.1427  -12.7959 C   0  0  0  0  0  0  0  0  0  0  0  0
   -1.1391    4.7994  -11.9936 H   0  0  0  0  0  0  0  0  0  0  0  0
  1  2  1  0  0  0
  2  3  2  0  0  0
  3  4  1  0  0  0
  4  5  2  0  0  0
  5  6  1  0  0  0
  6  7  1  0  0  0
  7  8  2  0  0  0
 12  8  1  0  0  0
 12 13  1  0  0  0
 13 14  1  0  0  0
 14 15  1  0  0  0
 15 16  1  0  0  0
 16 17  1  0  0  0
  8  9  1  0  0  0
  9 10  1  0  0  0
 10  2  1  0  0  0
 10  6  2  0  0  0
 17 12  1  0  0  0
 16 18  1  0  0  0
  9 11  1  0  0  0
M  END
> <minimizedAffinity>
-4.45074

> <minimizedRMSD>
3.14268

$$$$
P43683


 17 19  0  0  0  0  0  0  0  0999 V2000
   -8.6115    4.5386  -16.0978 Cl  0  0  0  0  0  0  0  0  0  0  0  0
   -7.1082    4.7562  -16.8770 C   0  0  0  0  0  0  0  0  0  0  0  0
   -7.1236    4.8693  -18.2689 C   0  0  0  0  0  0  0  0  0  0  0  0
   -5.9468    5.0445  -18.9790 C   0  0  0  0  0  0  0  0  0  0  0  0
   -4.7285    5.1388  -18.3132 C   0  0  0  0  0  0  0  0  0  0  0  0
   -4.6895    5.0387  -16.9098 C   0  0  0  0  0  0  0  0  0  0  0  0
   -3.6253    5.0883  -15.9797 C   0  0  0  0  0  0  0  0  0  0  0  0
   -4.1593    4.9005  -14.7306 C   0  0  0  0  0  0  0  0  0  0  0  0
   -5.5238    4.7564  -14.8485 N   0  0  0  0  0  0  0  0  0  0  0  0
   -5.8799    4.8418  -16.1911 C   0  0  0  0  0  0  0  0  0  0  0  0
   -6.4383    4.5167  -13.7251 C   0  0  0  0  0  0  0  0  0  0  0  0
   -6.6585    3.0072  -13.4808 C   0  0  0  0  0  0  0  0  0  0  0  0
   -7.1435    2.7618  -12.0576 C   0  0  0  0  0  0  0  0  0  0  0  0
   -6.1022    3.2336  -11.0403 C   0  0  0  0  0  0  0  0  0  0  0  0
   -5.2921    4.3787  -11.4802 N   0  0  0  0  0  0  0  0  0  0  0  0
   -6.0443    5.2355  -12.4069 C   0  0  0  0  0  0  0  0  0  0  0  0
   -4.4555    4.0335  -11.9506 H   0  0  0  0  0  0  0  0  0  0  0  0
  1  2  1  0  0  0
  2  3  2  0  0  0
  3  4  1  0  0  0
  4  5  2  0  0  0
  5  6  1  0  0  0
  6  7  1  0  0  0
  7  8  2  0  0  0
  8  9  1  0  0  0
 11  9  1  0  0  0
 11 12  1  0  0  0
 12 13  1  0  0  0
 13 14  1  0  0  0
 14 15  1  0  0  0
 15 16  1  0  0  0
  9 10  1  0  0  0
 10  2  1  0  0  0
 10  6  2  0  0  0
 16 11  1  0  0  0
 15 17  1  0  0  0
M  END
> <minimizedAffinity>
-5.34232

> <minimizedRMSD>
1.48708

$$$$
P43786


 18 19  0  0  0  0  0  0  0  0999 V2000
   -7.0912    4.9589  -14.7202 N   0  0  0  0  0  0  0  0  0  0  0  0
   -6.4331    4.7958  -16.0705 C   0  0  0  0  0  0  0  0  0  0  0  0
   -7.7325    4.1824  -14.5586 H   0  0  0  0  0  0  0  0  0  0  0  0
   -7.6087    5.8376  -14.6981 H   0  0  0  0  0  0  0  0  0  0  0  0
   -7.5434    4.6627  -17.0657 C   0  0  0  0  0  0  0  0  0  0  0  0
   -8.8308    4.6984  -16.7620 N   0  0  0  0  0  0  0  0  0  0  0  0
   -9.4970    4.3697  -17.9106 C   0  0  0  0  0  0  0  0  0  0  0  0
   -8.6042    4.1478  -18.9271 C   0  0  0  0  0  0  0  0  0  0  0  0
   -7.3650    4.3794  -18.3942 N   0  0  0  0  0  0  0  0  0  0  0  0
   -6.5066    4.3482  -18.8753 H   0  0  0  0  0  0  0  0  0  0  0  0
   -5.4648    5.9824  -16.2968 C   0  0  0  0  0  0  0  0  0  0  0  0
   -5.0359    6.4529  -14.9945 O   0  0  0  0  0  0  0  0  0  0  0  0
   -4.5588    5.7439  -14.5356 H   0  0  0  0  0  0  0  0  0  0  0  0
   -4.2591    5.6567  -17.1454 C   0  0  0  0  0  0  0  0  0  0  0  0
   -2.9506    6.0088  -16.8487 C   0  0  0  0  0  0  0  0  0  0  0  0
   -1.9053    5.5834  -18.1315 S   0  0  0  0  0  0  0  0  0  0  0  0
   -3.2412    4.9065  -18.9622 C   0  0  0  0  0  0  0  0  0  0  0  0
   -4.4120    4.9992  -18.3640 N   0  0  0  0  0  0  0  0  0  0  0  0
  2  1  1  0  0  0
  2  5  1  0  0  0
  5  6  2  0  0  0
  6  7  1  0  0  0
  7  8  2  0  0  0
  8  9  1  0  0  0
  2 11  1  0  0  0
 11 12  1  0  0  0
 11 14  1  0  0  0
 14 15  2  0  0  0
 15 16  1  0  0  0
 16 17  1  0  0  0
 17 18  2  0  0  0
  9  5  1  0  0  0
 18 14  1  0  0  0
  1  3  1  0  0  0
  1  4  1  0  0  0
  9 10  1  0  0  0
 12 13  1  0  0  0
M  END
> <minimizedAffinity>
-3.68871

> <minimizedRMSD>
0.20449

$$$$
P43837


 15 16  0  0  0  0  0  0  0  0999 V2000
   -4.2837    4.9017  -16.5492 C   0  0  0  0  0  0  0  0  0  0  0  0
   -3.9595    4.7012  -15.3773 O   0  0  0  0  0  0  0  0  0  0  0  0
   -3.2341    5.1342  -17.5665 C   0  0  0  0  0  0  0  0  0  0  0  0
   -2.4465    6.2701  -17.6671 C   0  0  0  0  0  0  0  0  0  0  0  0
   -1.6427    6.0793  -18.7576 N   0  0  0  0  0  0  0  0  0  0  0  0
   -1.9325    4.8496  -19.2718 C   0  0  0  0  0  0  0  0  0  0  0  0
   -2.8585    4.2479  -18.5655 N   0  0  0  0  0  0  0  0  0  0  0  0
   -0.9764    6.7140  -19.1074 H   0  0  0  0  0  0  0  0  0  0  0  0
   -7.8557    4.5312  -17.0205 C   0  0  0  0  0  0  0  0  0  0  0  0
   -7.7103    5.0677  -18.2813 C   0  0  0  0  0  0  0  0  0  0  0  0
   -6.1438    5.6859  -18.4763 S   0  0  0  0  0  0  0  0  0  0  0  0
   -5.6751    4.9408  -17.0010 C   0  0  0  0  0  0  0  0  0  0  0  0
   -6.6904    4.5019  -16.2698 N   0  0  0  0  0  0  0  0  0  0  0  0
   -9.9342    3.6605  -17.6042 C   0  0  0  0  0  0  0  0  0  0  0  0
   -9.0113    3.9807  -16.5718 O   0  0  0  0  0  0  0  0  0  0  0  0
 14 15  1  0  0  0
 15  9  1  0  0  0
  9 10  2  0  0  0
 10 11  1  0  0  0
 11 12  1  0  0  0
 12  1  1  0  0  0
  1  2  2  0  0  0
  1  3  1  0  0  0
  3  4  2  0  0  0
  4  5  1  0  0  0
  5  6  1  0  0  0
  6  7  2  0  0  0
 12 13  2  0  0  0
 13  9  1  0  0  0
  7  3  1  0  0  0
  5  8  1  0  0  0
M  END
> <minimizedAffinity>
-3.68261

> <minimizedRMSD>
1.13424

$$$$
P43866


 23 25  0  0  0  0  0  0  0  0999 V2000
   -5.1723    8.5759  -21.5453 C   0  0  0  0  0  0  0  0  0  0  0  0
   -5.8265    9.7451  -21.4528 C   0  0  0  0  0  0  0  0  0  0  0  0
   -6.1099   10.5297  -20.2211 C   0  0  0  0  0  0  0  0  0  0  0  0
   -6.2593   10.2266  -22.6869 N   0  0  0  0  0  0  0  0  0  0  0  0
   -5.7233    9.3586  -23.6571 N   0  0  0  0  0  0  0  0  0  0  0  0
   -5.0101    8.3344  -23.0146 C   0  0  0  0  0  0  0  0  0  0  0  0
   -4.3625    7.4043  -23.4626 O   0  0  0  0  0  0  0  0  0  0  0  0
   -6.8261   11.0153  -22.8479 H   0  0  0  0  0  0  0  0  0  0  0  0
   -6.4017    9.0299  -24.8101 C   0  0  0  0  0  0  0  0  0  0  0  0
   -6.8094    7.8426  -25.1893 N   0  0  0  0  0  0  0  0  0  0  0  0
   -7.7083    8.0604  -26.1938 C   0  0  0  0  0  0  0  0  0  0  0  0
   -8.5344    7.1473  -26.8578 C   0  0  0  0  0  0  0  0  0  0  0  0
   -9.4337    7.6353  -27.8083 C   0  0  0  0  0  0  0  0  0  0  0  0
   -9.5167    9.0034  -28.0772 C   0  0  0  0  0  0  0  0  0  0  0  0
   -8.6846    9.9314  -27.4367 C   0  0  0  0  0  0  0  0  0  0  0  0
   -7.7808    9.4135  -26.5081 C   0  0  0  0  0  0  0  0  0  0  0  0
   -6.8401    9.9889  -25.6903 N   0  0  0  0  0  0  0  0  0  0  0  0
   -6.5339   10.9238  -25.7280 H   0  0  0  0  0  0  0  0  0  0  0  0
   -4.6626    7.5548  -20.5866 C   0  0  0  0  0  0  0  0  0  0  0  0
   -5.6145    7.0412  -19.5094 C   0  0  0  0  0  0  0  0  0  0  0  0
   -5.2146    5.6838  -18.9071 C   0  0  0  0  0  0  0  0  0  0  0  0
   -7.2792    4.9207  -17.6489 C   0  0  0  0  0  0  0  0  0  0  0  0
   -6.3747    4.6830  -18.8427 C   0  0  0  0  0  0  0  0  0  0  0  0
 22 23  1  0  0  0
 23 21  1  0  0  0
 21 20  1  0  0  0
 20 19  1  0  0  0
 19  1  1  0  0  0
  1  2  2  0  0  0
  2  3  1  0  0  0
  2  4  1  0  0  0
  4  5  1  0  0  0
  5  9  1  0  0  0
  9 10  2  0  0  0
 10 11  1  0  0  0
 11 12  2  0  0  0
 12 13  1  0  0  0
 13 14  2  0  0  0
 14 15  1  0  0  0
 15 16  2  0  0  0
 16 17  1  0  0  0
  5  6  1  0  0  0
  6  7  2  0  0  0
  6  1  1  0  0  0
 17  9  1  0  0  0
 16 11  1  0  0  0
  4  8  1  0  0  0
 17 18  1  0  0  0
M  END
> <minimizedAffinity>
-4.36059

> <minimizedRMSD>
1.45766

$$$$
P44078


 20 22  0  0  0  0  0  0  0  0999 V2000
   -8.7039    5.5639  -14.7276 C   0  0  0  0  0  0  0  0  0  0  0  0
   -8.5228    5.5469  -13.2366 C   0  0  0  0  0  0  0  0  0  0  0  0
   -8.4298    6.7012  -12.4730 C   0  0  0  0  0  0  0  0  0  0  0  0
   -8.2315    6.7234  -11.1301 N   0  0  0  0  0  0  0  0  0  0  0  0
   -8.1216    5.5411  -10.4864 C   0  0  0  0  0  0  0  0  0  0  0  0
   -7.9099    5.4827   -9.1090 C   0  0  0  0  0  0  0  0  0  0  0  0
   -7.8012    4.2657   -8.4195 C   0  0  0  0  0  0  0  0  0  0  0  0
   -7.9195    3.0749   -9.1148 C   0  0  0  0  0  0  0  0  0  0  0  0
   -8.1308    3.1118  -10.4881 C   0  0  0  0  0  0  0  0  0  0  0  0
   -8.2140    4.3227  -11.1760 C   0  0  0  0  0  0  0  0  0  0  0  0
   -8.3998    4.3382  -12.5596 C   0  0  0  0  0  0  0  0  0  0  0  0
   -8.0444    4.3914  -15.2822 N   0  0  0  0  0  0  0  0  0  0  0  0
   -8.2998    3.4854  -14.9938 H   0  0  0  0  0  0  0  0  0  0  0  0
   -5.4172    4.6829  -14.5023 F   0  0  0  0  0  0  0  0  0  0  0  0
   -5.7083    4.6975  -15.8126 C   0  0  0  0  0  0  0  0  0  0  0  0
   -4.6983    4.8586  -16.7388 C   0  0  0  0  0  0  0  0  0  0  0  0
   -4.9111    4.8945  -18.0663 N   0  0  0  0  0  0  0  0  0  0  0  0
   -6.1932    4.7377  -18.4750 C   0  0  0  0  0  0  0  0  0  0  0  0
   -7.2728    4.5838  -17.6114 C   0  0  0  0  0  0  0  0  0  0  0  0
   -7.0364    4.5834  -16.2374 C   0  0  0  0  0  0  0  0  0  0  0  0
 14 15  1  0  0  0
 15 16  2  0  0  0
 16 17  1  0  0  0
 17 18  2  0  0  0
 18 19  1  0  0  0
 19 20  2  0  0  0
 20 12  1  0  0  0
 12  1  1  0  0  0
  1  2  1  0  0  0
  2  3  2  0  0  0
  3  4  1  0  0  0
  4  5  2  0  0  0
  5  6  1  0  0  0
  6  7  2  0  0  0
  7  8  1  0  0  0
  8  9  2  0  0  0
  9 10  1  0  0  0
 10 11  2  0  0  0
 20 15  1  0  0  0
 11  2  1  0  0  0
 10  5  1  0  0  0
 12 13  1  0  0  0
M  END
> <minimizedAffinity>
-5.61519

> <minimizedRMSD>
0.91103

$$$$
P44110


 25 28  0  0  0  0  0  0  0  0999 V2000
   -6.4493    5.9461  -12.5896 O   0  0  0  0  0  0  0  0  0  0  0  0
   -7.5368    5.7189  -13.5171 S   0  0  0  0  0  0  0  0  0  0  0  0
   -8.4994    6.7687  -13.7584 O   0  0  0  0  0  0  0  0  0  0  0  0
   -6.8025    5.3255  -15.0842 C   0  0  0  0  0  0  0  0  0  0  0  0
   -5.4102    5.4713  -15.0993 C   0  0  0  0  0  0  0  0  0  0  0  0
   -4.7482    5.2698  -16.2822 C   0  0  0  0  0  0  0  0  0  0  0  0
   -5.3697    4.9401  -17.4246 N   0  0  0  0  0  0  0  0  0  0  0  0
   -6.7044    4.7670  -17.4128 C   0  0  0  0  0  0  0  0  0  0  0  0
   -7.3048    4.4176  -18.6141 C   0  0  0  0  0  0  0  0  0  0  0  0
   -8.6698    4.1580  -18.7193 C   0  0  0  0  0  0  0  0  0  0  0  0
   -9.4695    4.2755  -17.5998 C   0  0  0  0  0  0  0  0  0  0  0  0
   -8.9030    4.7074  -16.3983 C   0  0  0  0  0  0  0  0  0  0  0  0
   -7.5047    4.9361  -16.2580 C   0  0  0  0  0  0  0  0  0  0  0  0
   -8.4125    4.4129  -12.9719 N   0  0  0  0  0  0  0  0  0  0  0  0
   -9.3130    4.4319  -13.4507 H   0  0  0  0  0  0  0  0  0  0  0  0
   -7.8516    3.0762  -13.1580 C   0  0  0  0  0  0  0  0  0  0  0  0
   -7.0531    2.6311  -11.9908 C   0  0  0  0  0  0  0  0  0  0  0  0
   -5.8731    1.9904  -12.1713 C   0  0  0  0  0  0  0  0  0  0  0  0
   -5.1148    1.4512  -11.0600 C   0  0  0  0  0  0  0  0  0  0  0  0
   -5.6438    1.5361   -9.8307 C   0  0  0  0  0  0  0  0  0  0  0  0
   -6.8591    2.1820   -9.6427 N   0  0  0  0  0  0  0  0  0  0  0  0
   -7.6012    2.3821   -8.5100 C   0  0  0  0  0  0  0  0  0  0  0  0
   -8.5775    3.2789   -8.8640 C   0  0  0  0  0  0  0  0  0  0  0  0
   -8.5339    3.5551  -10.2043 N   0  0  0  0  0  0  0  0  0  0  0  0
   -7.5383    2.8187  -10.6604 C   0  0  0  0  0  0  0  0  0  0  0  0
  1  2  2  0  0  0
  2  3  2  0  0  0
  2 14  1  0  0  0
 14 16  1  0  0  0
 16 17  1  0  0  0
 17 18  2  0  0  0
 18 19  1  0  0  0
 19 20  2  0  0  0
 20 21  1  0  0  0
 21 22  1  0  0  0
 22 23  2  0  0  0
 23 24  1  0  0  0
 24 25  2  0  0  0
  2  4  1  0  0  0
  4  5  2  0  0  0
  5  6  1  0  0  0
  6  7  2  0  0  0
  7  8  1  0  0  0
  8  9  2  0  0  0
  9 10  1  0  0  0
 10 11  2  0  0  0
 11 12  1  0  0  0
 12 13  2  0  0  0
 25 17  1  0  0  0
 13  4  1  0  0  0
 25 21  1  0  0  0
 13  8  1  0  0  0
 14 15  1  0  0  0
M  END
> <minimizedAffinity>
-5.92268

> <minimizedRMSD>
0.78614

$$$$
P44163


 17 18  0  0  0  0  0  0  0  0999 V2000
   -5.7455    5.5903  -15.6674 N   0  0  0  0  0  0  0  0  0  0  0  0
   -5.8986    6.4331  -15.1821 H   0  0  0  0  0  0  0  0  0  0  0  0
   -8.0254    4.7823  -16.2555 C   0  0  0  0  0  0  0  0  0  0  0  0
   -8.8558    4.3056  -17.2591 C   0  0  0  0  0  0  0  0  0  0  0  0
   -8.4765    4.0711  -18.5329 N   0  0  0  0  0  0  0  0  0  0  0  0
   -7.1894    4.3301  -18.8258 C   0  0  0  0  0  0  0  0  0  0  0  0
   -6.2779    4.8161  -17.8998 C   0  0  0  0  0  0  0  0  0  0  0  0
   -6.6882    5.0541  -16.5800 C   0  0  0  0  0  0  0  0  0  0  0  0
   -9.0851    5.1614  -13.9226 N   0  0  0  0  0  0  0  0  0  0  0  0
   -8.5969    4.9776  -14.9604 C   0  0  0  0  0  0  0  0  0  0  0  0
   -4.5250    4.7950  -15.5010 C   0  0  0  0  0  0  0  0  0  0  0  0
   -4.5553    3.9977  -14.2371 C   0  0  0  0  0  0  0  0  0  0  0  0
   -5.4199    4.2637  -13.1975 C   0  0  0  0  0  0  0  0  0  0  0  0
   -5.4023    3.6124  -12.0165 N   0  0  0  0  0  0  0  0  0  0  0  0
   -4.4827    2.6450  -11.8956 C   0  0  0  0  0  0  0  0  0  0  0  0
   -3.5866    2.2951  -12.8257 N   0  0  0  0  0  0  0  0  0  0  0  0
   -3.6509    2.9830  -13.9837 C   0  0  0  0  0  0  0  0  0  0  0  0
  9 10  3  0  0  0
 10  3  1  0  0  0
  3  4  2  0  0  0
  4  5  1  0  0  0
  5  6  2  0  0  0
  6  7  1  0  0  0
  7  8  2  0  0  0
  8  1  1  0  0  0
  1 11  1  0  0  0
 11 12  1  0  0  0
 12 13  2  0  0  0
 13 14  1  0  0  0
 14 15  2  0  0  0
 15 16  1  0  0  0
 16 17  2  0  0  0
  8  3  1  0  0  0
 17 12  1  0  0  0
  1  2  1  0  0  0
M  END
> <minimizedAffinity>
-4.97544

> <minimizedRMSD>
2.45100

$$$$
P44355


 24 26  0  0  0  0  0  0  0  0999 V2000
   -2.6569    6.0562  -19.3261 C   0  0  0  0  0  0  0  0  0  0  0  0
   -3.4409    4.9677  -20.0570 C   0  0  0  0  0  0  0  0  0  0  0  0
   -2.4138    7.2037  -20.1897 N   0  0  0  0  0  0  0  0  0  0  0  0
   -1.9312    7.8889  -19.6083 H   0  0  0  0  0  0  0  0  0  0  0  0
   -3.4697    7.9492  -20.8886 C   0  0  0  0  0  0  0  0  0  0  0  0
   -3.9627    7.3172  -22.1821 C   0  0  0  0  0  0  0  0  0  0  0  0
   -5.2158    7.1333  -22.5523 N   0  0  0  0  0  0  0  0  0  0  0  0
   -5.2604    6.6330  -23.8391 C   0  0  0  0  0  0  0  0  0  0  0  0
   -4.0414    6.4294  -24.4442 C   0  0  0  0  0  0  0  0  0  0  0  0
   -2.7863    6.8516  -23.3680 S   0  0  0  0  0  0  0  0  0  0  0  0
   -5.6798    7.8549  -19.4791 C   0  0  0  0  0  0  0  0  0  0  0  0
   -4.5444    8.6724  -20.0582 C   0  0  0  0  0  0  0  0  0  0  0  0
   -3.1950    6.4280  -17.9303 C   0  0  0  0  0  0  0  0  0  0  0  0
   -3.6216    5.2166  -17.1079 C   0  0  0  0  0  0  0  0  0  0  0  0
   -4.9701    5.3522  -16.4720 C   0  0  0  0  0  0  0  0  0  0  0  0
   -5.2367    5.8137  -15.1974 C   0  0  0  0  0  0  0  0  0  0  0  0
   -6.5629    5.5968  -14.9328 N   0  0  0  0  0  0  0  0  0  0  0  0
   -7.1794    5.0276  -16.0205 C   0  0  0  0  0  0  0  0  0  0  0  0
   -8.4960    4.5813  -16.1817 C   0  0  0  0  0  0  0  0  0  0  0  0
   -8.8586    4.0527  -17.4238 C   0  0  0  0  0  0  0  0  0  0  0  0
   -7.9442    3.9860  -18.4666 C   0  0  0  0  0  0  0  0  0  0  0  0
   -6.6275    4.4125  -18.2765 C   0  0  0  0  0  0  0  0  0  0  0  0
   -6.2224    4.9278  -17.0287 C   0  0  0  0  0  0  0  0  0  0  0  0
   -7.0105    5.8174  -14.0841 H   0  0  0  0  0  0  0  0  0  0  0  0
 11 12  1  0  0  0
  5 12  1  0  0  0
  5  3  1  0  0  0
  3  1  1  0  0  0
  1  2  1  0  0  0
  1 13  1  0  0  0
 13 14  1  0  0  0
 14 15  1  0  0  0
 15 16  2  0  0  0
 16 17  1  0  0  0
 17 18  1  0  0  0
 18 19  2  0  0  0
 19 20  1  0  0  0
 20 21  2  0  0  0
 21 22  1  0  0  0
 22 23  2  0  0  0
  5  6  1  0  0  0
  6  7  2  0  0  0
  7  8  1  0  0  0
  8  9  2  0  0  0
  9 10  1  0  0  0
 23 15  1  0  0  0
 10  6  1  0  0  0
 23 18  1  0  0  0
  3  4  1  0  0  0
 17 24  1  0  0  0
M  END
> <minimizedAffinity>
-5.30951

> <minimizedRMSD>
0.83302

$$$$
P44363


 17 18  0  0  0  0  0  0  0  0999 V2000
   -7.1028    4.7398  -14.9558 C   0  0  0  0  0  0  0  0  0  0  0  0
   -6.0416    4.9847  -15.8366 C   0  0  0  0  0  0  0  0  0  0  0  0
   -6.2027    4.8992  -17.2272 C   0  0  0  0  0  0  0  0  0  0  0  0
   -4.8855    5.2741  -18.2628 Cl  0  0  0  0  0  0  0  0  0  0  0  0
   -7.4552    4.5478  -17.7360 C   0  0  0  0  0  0  0  0  0  0  0  0
   -7.9171    4.4393  -19.0299 N   0  0  0  0  0  0  0  0  0  0  0  0
   -9.2386    4.0815  -19.0250 C   0  0  0  0  0  0  0  0  0  0  0  0
   -9.6447    3.9521  -17.7198 C   0  0  0  0  0  0  0  0  0  0  0  0
   -8.5269    4.2487  -16.8943 C   0  0  0  0  0  0  0  0  0  0  0  0
   -8.3387    4.3416  -15.5009 C   0  0  0  0  0  0  0  0  0  0  0  0
   -7.3769    4.5960  -19.8379 H   0  0  0  0  0  0  0  0  0  0  0  0
   -5.6851    4.4754  -12.8291 C   0  0  0  0  0  0  0  0  0  0  0  0
   -7.0092    4.9469  -13.4445 C   0  0  0  0  0  0  0  0  0  0  0  0
   -8.1990    4.3218  -12.6898 C   0  0  0  0  0  0  0  0  0  0  0  0
   -8.2860    4.7542  -11.2917 N   0  0  0  0  0  0  0  0  0  0  0  0
   -7.4466    4.4603  -10.7921 H   0  0  0  0  0  0  0  0  0  0  0  0
   -9.1062    4.3327  -10.8558 H   0  0  0  0  0  0  0  0  0  0  0  0
 13 12  1  0  0  0
 13 14  1  0  0  0
 14 15  1  0  0  0
 13  1  1  0  0  0
  1  2  2  0  0  0
  2  3  1  0  0  0
  3  4  1  0  0  0
  3  5  2  0  0  0
  5  6  1  0  0  0
  6  7  1  0  0  0
  7  8  2  0  0  0
  8  9  1  0  0  0
  9 10  2  0  0  0
 10  1  1  0  0  0
  9  5  1  0  0  0
 15 16  1  0  0  0
 15 17  1  0  0  0
  6 11  1  0  0  0
M  END
> <minimizedAffinity>
-6.38338

> <minimizedRMSD>
0.67594

$$$$
P44365


 17 18  0  0  0  0  0  0  0  0999 V2000
   -7.5064    4.8217  -14.0778 C   0  0  0  0  0  0  0  0  0  0  0  0
   -6.2360    5.0578  -14.6063 C   0  0  0  0  0  0  0  0  0  0  0  0
   -5.9783    4.9893  -15.9828 C   0  0  0  0  0  0  0  0  0  0  0  0
   -4.3872    5.3814  -16.5084 Cl  0  0  0  0  0  0  0  0  0  0  0  0
   -7.0279    4.6487  -16.8537 C   0  0  0  0  0  0  0  0  0  0  0  0
   -8.3049    4.3633  -16.3507 C   0  0  0  0  0  0  0  0  0  0  0  0
   -9.1522    4.0698  -17.4512 C   0  0  0  0  0  0  0  0  0  0  0  0
   -8.3951    4.1763  -18.5900 C   0  0  0  0  0  0  0  0  0  0  0  0
   -7.1191    4.5219  -18.2265 N   0  0  0  0  0  0  0  0  0  0  0  0
   -6.0627    4.7533  -19.1819 C   0  0  0  0  0  0  0  0  0  0  0  0
   -8.5312    4.4485  -14.9624 C   0  0  0  0  0  0  0  0  0  0  0  0
   -6.7611    5.7487  -11.8073 C   0  0  0  0  0  0  0  0  0  0  0  0
   -7.8399    4.9987  -12.6009 C   0  0  0  0  0  0  0  0  0  0  0  0
   -8.1718    3.6591  -11.9190 C   0  0  0  0  0  0  0  0  0  0  0  0
   -8.6092    3.8236  -10.5309 N   0  0  0  0  0  0  0  0  0  0  0  0
   -7.8590    4.2489   -9.9862 H   0  0  0  0  0  0  0  0  0  0  0  0
   -8.8405    2.9116  -10.1370 H   0  0  0  0  0  0  0  0  0  0  0  0
 13 12  1  0  0  0
 13 14  1  0  0  0
 14 15  1  0  0  0
 13  1  1  0  0  0
  1  2  2  0  0  0
  2  3  1  0  0  0
  3  4  1  0  0  0
  3  5  2  0  0  0
  5  6  1  0  0  0
  6  7  1  0  0  0
  7  8  2  0  0  0
  8  9  1  0  0  0
  9 10  1  0  0  0
  6 11  2  0  0  0
 11  1  1  0  0  0
  9  5  1  0  0  0
 15 16  1  0  0  0
 15 17  1  0  0  0
M  END
> <minimizedAffinity>
-5.92118

> <minimizedRMSD>
0.56901

$$$$
P44482


 21 24  0  0  0  0  0  0  0  0999 V2000
   -6.3169    5.3797  -13.8552 N   0  0  0  0  0  0  0  0  0  0  0  0
   -5.9616    6.6197  -13.0877 C   0  0  0  0  0  0  0  0  0  0  0  0
   -5.2068    6.1826  -11.8391 C   0  0  0  0  0  0  0  0  0  0  0  0
   -4.6094    4.8660  -12.2871 C   0  0  0  0  0  0  0  0  0  0  0  0
   -5.7840    4.2242  -13.0714 C   0  0  0  0  0  0  0  0  0  0  0  0
   -8.5974    3.6890  -18.3269 C   0  0  0  0  0  0  0  0  0  0  0  0
   -9.1156    3.7969  -17.0489 C   0  0  0  0  0  0  0  0  0  0  0  0
   -8.3651    4.3945  -16.0311 C   0  0  0  0  0  0  0  0  0  0  0  0
   -7.0521    4.8860  -16.2512 C   0  0  0  0  0  0  0  0  0  0  0  0
   -6.1693    5.4497  -15.2644 C   0  0  0  0  0  0  0  0  0  0  0  0
   -5.0736    6.1640  -15.7815 C   0  0  0  0  0  0  0  0  0  0  0  0
   -4.7437    6.0906  -17.1168 C   0  0  0  0  0  0  0  0  0  0  0  0
   -5.4518    5.4050  -18.0148 N   0  0  0  0  0  0  0  0  0  0  0  0
   -6.5932    4.8466  -17.6025 C   0  0  0  0  0  0  0  0  0  0  0  0
   -7.3485    4.2341  -18.5916 C   0  0  0  0  0  0  0  0  0  0  0  0
   -6.7356    3.6441  -12.0626 C   0  0  0  0  0  0  0  0  0  0  0  0
   -8.1183    3.8974  -11.9311 C   0  0  0  0  0  0  0  0  0  0  0  0
   -8.6114    3.4655  -10.7696 N   0  0  0  0  0  0  0  0  0  0  0  0
   -7.5587    2.8549  -10.1891 N   0  0  0  0  0  0  0  0  0  0  0  0
   -6.4267    2.8980  -10.9449 C   0  0  0  0  0  0  0  0  0  0  0  0
   -7.6040    2.4210   -9.3065 H   0  0  0  0  0  0  0  0  0  0  0  0
  6  7  2  0  0  0
  7  8  1  0  0  0
  8  9  2  0  0  0
  9 10  1  0  0  0
 10  1  1  0  0  0
  1  2  1  0  0  0
  2  3  1  0  0  0
  3  4  1  0  0  0
  4  5  1  0  0  0
  5 16  1  0  0  0
 16 17  1  0  0  0
 17 18  2  0  0  0
 18 19  1  0  0  0
 19 20  1  0  0  0
 10 11  2  0  0  0
 11 12  1  0  0  0
 12 13  2  0  0  0
 13 14  1  0  0  0
 14 15  2  0  0  0
 15  6  1  0  0  0
 14  9  1  0  0  0
  5  1  1  0  0  0
 20 16  2  0  0  0
 19 21  1  0  0  0
M  END
> <minimizedAffinity>
-6.72237

> <minimizedRMSD>
1.43756

$$$$
P44733


 23 25  0  0  0  0  0  0  0  0999 V2000
   -5.6128    4.5622  -20.6683 C   0  0  0  0  0  0  0  0  0  0  0  0
   -6.2467    3.7328  -21.2021 O   0  0  0  0  0  0  0  0  0  0  0  0
   -5.8109    5.2491  -19.2884 N   0  0  0  0  0  0  0  0  0  0  0  0
   -5.1784    5.9787  -19.0966 H   0  0  0  0  0  0  0  0  0  0  0  0
   -6.7433    4.9991  -18.2730 C   0  0  0  0  0  0  0  0  0  0  0  0
   -8.1004    4.9603  -18.5847 C   0  0  0  0  0  0  0  0  0  0  0  0
   -9.0273    4.6460  -17.6054 C   0  0  0  0  0  0  0  0  0  0  0  0
   -8.5905    4.3447  -16.3212 C   0  0  0  0  0  0  0  0  0  0  0  0
   -7.2643    4.4176  -15.9503 C   0  0  0  0  0  0  0  0  0  0  0  0
   -6.9559    4.1706  -14.6606 N   0  0  0  0  0  0  0  0  0  0  0  0
   -5.6672    4.2279  -14.2975 C   0  0  0  0  0  0  0  0  0  0  0  0
   -4.6498    4.5561  -15.1647 C   0  0  0  0  0  0  0  0  0  0  0  0
   -4.9766    4.8312  -16.4859 C   0  0  0  0  0  0  0  0  0  0  0  0
   -6.3121    4.7618  -16.9328 C   0  0  0  0  0  0  0  0  0  0  0  0
   -3.0675    4.8981  -21.0164 C   0  0  0  0  0  0  0  0  0  0  0  0
   -2.0823    5.2790  -21.9385 C   0  0  0  0  0  0  0  0  0  0  0  0
   -2.4243    5.9056  -23.1315 C   0  0  0  0  0  0  0  0  0  0  0  0
   -3.7576    6.1396  -23.3854 C   0  0  0  0  0  0  0  0  0  0  0  0
   -4.7469    5.7598  -22.5571 N   0  0  0  0  0  0  0  0  0  0  0  0
   -4.4028    5.1103  -21.4036 C   0  0  0  0  0  0  0  0  0  0  0  0
   -2.5353    4.1175  -19.4956 S   0  0  0  0  0  0  0  0  0  0  0  0
   -1.4479    5.7964  -17.5981 C   0  0  0  0  0  0  0  0  0  0  0  0
   -1.1728    5.2228  -18.9773 C   0  0  0  0  0  0  0  0  0  0  0  0
 22 23  1  0  0  0
 23 21  1  0  0  0
 21 15  1  0  0  0
 15 16  2  0  0  0
 16 17  1  0  0  0
 17 18  2  0  0  0
 18 19  1  0  0  0
 19 20  2  0  0  0
 20  1  1  0  0  0
  1  2  2  0  0  0
  1  3  1  0  0  0
  3  5  1  0  0  0
  5  6  2  0  0  0
  6  7  1  0  0  0
  7  8  2  0  0  0
  8  9  1  0  0  0
  9 10  2  0  0  0
 10 11  1  0  0  0
 11 12  2  0  0  0
 12 13  1  0  0  0
 13 14  2  0  0  0
 20 15  1  0  0  0
 14  5  1  0  0  0
 14  9  1  0  0  0
  3  4  1  0  0  0
M  END
> <minimizedAffinity>
-6.03748

> <minimizedRMSD>
1.19627

$$$$
P44891


 22 24  0  0  0  0  0  0  0  0999 V2000
   -7.8613    5.0197  -14.9239 N   0  0  0  0  0  0  0  0  0  0  0  0
   -8.7346    5.8600  -13.9726 C   0  0  0  0  0  0  0  0  0  0  0  0
   -9.6605    6.5316  -14.1928 O   0  0  0  0  0  0  0  0  0  0  0  0
   -7.0804    4.5956  -14.5000 H   0  0  0  0  0  0  0  0  0  0  0  0
   -8.2822    5.6444  -12.5760 C   0  0  0  0  0  0  0  0  0  0  0  0
   -8.0985    6.7493  -11.6450 C   0  0  0  0  0  0  0  0  0  0  0  0
   -7.9838    6.4670  -10.3338 C   0  0  0  0  0  0  0  0  0  0  0  0
   -8.0237    5.1349   -9.9185 N   0  0  0  0  0  0  0  0  0  0  0  0
   -7.9547    4.6059   -8.6558 C   0  0  0  0  0  0  0  0  0  0  0  0
   -8.0288    3.2413   -8.8251 C   0  0  0  0  0  0  0  0  0  0  0  0
   -8.1445    2.9199  -10.1505 N   0  0  0  0  0  0  0  0  0  0  0  0
   -8.1492    4.0631  -10.7928 C   0  0  0  0  0  0  0  0  0  0  0  0
   -8.2950    4.3580  -12.1727 C   0  0  0  0  0  0  0  0  0  0  0  0
   -6.9185    4.8609  -17.1652 C   0  0  0  0  0  0  0  0  0  0  0  0
   -7.0129    4.5055  -18.4589 N   0  0  0  0  0  0  0  0  0  0  0  0
   -8.2194    4.1038  -18.8859 C   0  0  0  0  0  0  0  0  0  0  0  0
   -9.3339    4.0378  -18.1459 N   0  0  0  0  0  0  0  0  0  0  0  0
   -9.1972    4.3763  -16.8489 C   0  0  0  0  0  0  0  0  0  0  0  0
   -7.9969    4.7620  -16.2879 C   0  0  0  0  0  0  0  0  0  0  0  0
   -4.6240    5.1966  -17.6523 C   0  0  0  0  0  0  0  0  0  0  0  0
   -5.6976    5.4185  -16.6902 N   0  0  0  0  0  0  0  0  0  0  0  0
   -5.5925    5.8885  -15.8316 H   0  0  0  0  0  0  0  0  0  0  0  0
 20 21  1  0  0  0
 21 14  1  0  0  0
 14 15  2  0  0  0
 15 16  1  0  0  0
 16 17  2  0  0  0
 17 18  1  0  0  0
 18 19  2  0  0  0
 19  1  1  0  0  0
  1  2  1  0  0  0
  2  3  2  0  0  0
  2  5  1  0  0  0
  5  6  1  0  0  0
  6  7  2  0  0  0
  7  8  1  0  0  0
  8  9  1  0  0  0
  9 10  2  0  0  0
 10 11  1  0  0  0
 11 12  2  0  0  0
 12 13  1  0  0  0
 19 14  1  0  0  0
 13  5  2  0  0  0
 12  8  1  0  0  0
 21 22  1  0  0  0
  1  4  1  0  0  0
M  END
> <minimizedAffinity>
-6.10792

> <minimizedRMSD>
0.94145

$$$$
P44892


 19 21  0  0  0  0  0  0  0  0999 V2000
   -8.0557    5.4915  -14.0670 C   0  0  0  0  0  0  0  0  0  0  0  0
   -8.1693    5.2471  -12.5790 C   0  0  0  0  0  0  0  0  0  0  0  0
   -8.0454    6.4455  -11.7340 C   0  0  0  0  0  0  0  0  0  0  0  0
   -8.0116    6.3169  -10.3965 C   0  0  0  0  0  0  0  0  0  0  0  0
   -8.1261    5.0496   -9.8365 N   0  0  0  0  0  0  0  0  0  0  0  0
   -8.0846    4.6650   -8.5212 C   0  0  0  0  0  0  0  0  0  0  0  0
   -8.2751    3.3022   -8.5360 C   0  0  0  0  0  0  0  0  0  0  0  0
   -8.4299    2.8446   -9.8183 N   0  0  0  0  0  0  0  0  0  0  0  0
   -8.3047    3.8988  -10.5886 C   0  0  0  0  0  0  0  0  0  0  0  0
   -8.3052    4.0303  -12.0037 C   0  0  0  0  0  0  0  0  0  0  0  0
   -8.7470    4.4752  -14.8425 N   0  0  0  0  0  0  0  0  0  0  0  0
   -9.3721    3.8285  -14.4422 H   0  0  0  0  0  0  0  0  0  0  0  0
   -5.5677    5.0508  -18.3990 C   0  0  0  0  0  0  0  0  0  0  0  0
   -6.9293    4.6650  -17.9333 C   0  0  0  0  0  0  0  0  0  0  0  0
   -7.8207    4.3445  -18.8733 N   0  0  0  0  0  0  0  0  0  0  0  0
   -9.0701    4.1126  -18.4445 C   0  0  0  0  0  0  0  0  0  0  0  0
   -9.4318    4.1656  -17.1191 C   0  0  0  0  0  0  0  0  0  0  0  0
   -8.4437    4.4977  -16.2150 C   0  0  0  0  0  0  0  0  0  0  0  0
   -7.1895    4.7651  -16.6179 N   0  0  0  0  0  0  0  0  0  0  0  0
 13 14  1  0  0  0
 14 15  2  0  0  0
 15 16  1  0  0  0
 16 17  2  0  0  0
 17 18  1  0  0  0
 18 11  1  0  0  0
 11  1  1  0  0  0
  1  2  1  0  0  0
  2  3  1  0  0  0
  3  4  2  0  0  0
  4  5  1  0  0  0
  5  6  1  0  0  0
  6  7  2  0  0  0
  7  8  1  0  0  0
  8  9  2  0  0  0
  9 10  1  0  0  0
 18 19  2  0  0  0
 19 14  1  0  0  0
 10  2  2  0  0  0
  9  5  1  0  0  0
 11 12  1  0  0  0
M  END
> <minimizedAffinity>
-6.13912

> <minimizedRMSD>
1.22537

$$$$
P44910


 18 20  0  0  0  0  0  0  0  0999 V2000
   -7.7895    5.7240  -13.6974 O   0  0  0  0  0  0  0  0  0  0  0  0
   -7.9560    5.3578  -12.3797 C   0  0  0  0  0  0  0  0  0  0  0  0
   -7.7980    6.4799  -11.4574 C   0  0  0  0  0  0  0  0  0  0  0  0
   -7.8783    6.2674  -10.1316 C   0  0  0  0  0  0  0  0  0  0  0  0
   -8.1277    4.9786   -9.6681 N   0  0  0  0  0  0  0  0  0  0  0  0
   -8.2313    4.5083   -8.3838 C   0  0  0  0  0  0  0  0  0  0  0  0
   -8.4882    3.1614   -8.5070 C   0  0  0  0  0  0  0  0  0  0  0  0
   -8.5437    2.7940   -9.8249 N   0  0  0  0  0  0  0  0  0  0  0  0
   -8.3129    3.8909  -10.5077 C   0  0  0  0  0  0  0  0  0  0  0  0
   -8.2126    4.1161  -11.9076 C   0  0  0  0  0  0  0  0  0  0  0  0
   -8.7400    5.1781  -14.6200 C   0  0  0  0  0  0  0  0  0  0  0  0
   -4.8079    5.1777  -17.5166 C   0  0  0  0  0  0  0  0  0  0  0  0
   -6.2583    4.9015  -17.3180 C   0  0  0  0  0  0  0  0  0  0  0  0
   -6.9497    4.5135  -18.3947 N   0  0  0  0  0  0  0  0  0  0  0  0
   -8.2797    4.4019  -18.2447 C   0  0  0  0  0  0  0  0  0  0  0  0
   -8.9286    4.6660  -17.0641 C   0  0  0  0  0  0  0  0  0  0  0  0
   -8.1305    5.0225  -15.9932 C   0  0  0  0  0  0  0  0  0  0  0  0
   -6.7874    5.1533  -16.1080 N   0  0  0  0  0  0  0  0  0  0  0  0
 12 13  1  0  0  0
 13 14  2  0  0  0
 14 15  1  0  0  0
 15 16  2  0  0  0
 16 17  1  0  0  0
 17 11  1  0  0  0
 11  1  1  0  0  0
  1  2  1  0  0  0
  2  3  1  0  0  0
  3  4  2  0  0  0
  4  5  1  0  0  0
  5  6  1  0  0  0
  6  7  2  0  0  0
  7  8  1  0  0  0
  8  9  2  0  0  0
  9 10  1  0  0  0
 17 18  2  0  0  0
 18 13  1  0  0  0
 10  2  2  0  0  0
  9  5  1  0  0  0
M  END
> <minimizedAffinity>
-5.47662

> <minimizedRMSD>
0.90943

$$$$
P44980


 19 21  0  0  0  0  0  0  0  0999 V2000
   -6.7821    5.0538  -16.6931 C   0  0  0  0  0  0  0  0  0  0  0  0
   -7.8913    4.6212  -15.9458 C   0  0  0  0  0  0  0  0  0  0  0  0
   -8.8954    3.8279  -16.5230 C   0  0  0  0  0  0  0  0  0  0  0  0
   -8.8347    3.4624  -17.8601 C   0  0  0  0  0  0  0  0  0  0  0  0
   -7.7206    3.8615  -18.5584 C   0  0  0  0  0  0  0  0  0  0  0  0
   -7.4462    3.5832  -19.8839 N   0  0  0  0  0  0  0  0  0  0  0  0
   -6.2175    4.1543  -20.2294 C   0  0  0  0  0  0  0  0  0  0  0  0
   -5.6897    4.0119  -21.3259 O   0  0  0  0  0  0  0  0  0  0  0  0
   -5.7253    4.8109  -19.0538 N   0  0  0  0  0  0  0  0  0  0  0  0
   -6.6776    4.6213  -18.0116 C   0  0  0  0  0  0  0  0  0  0  0  0
   -8.0244    3.0648  -20.4892 H   0  0  0  0  0  0  0  0  0  0  0  0
   -4.4230    5.3552  -18.9466 C   0  0  0  0  0  0  0  0  0  0  0  0
   -4.1883    6.6985  -19.2587 C   0  0  0  0  0  0  0  0  0  0  0  0
   -2.8927    7.2200  -19.2557 C   0  0  0  0  0  0  0  0  0  0  0  0
   -1.8444    6.3808  -18.9322 C   0  0  0  0  0  0  0  0  0  0  0  0
   -2.0111    5.0863  -18.6063 N   0  0  0  0  0  0  0  0  0  0  0  0
   -3.2864    4.6117  -18.6413 C   0  0  0  0  0  0  0  0  0  0  0  0
   -4.9380    5.4804  -15.2583 C   0  0  0  0  0  0  0  0  0  0  0  0
   -5.8831    5.9571  -16.2114 O   0  0  0  0  0  0  0  0  0  0  0  0
 18 19  1  0  0  0
 19  1  1  0  0  0
  1  2  2  0  0  0
  2  3  1  0  0  0
  3  4  2  0  0  0
  4  5  1  0  0  0
  5  6  1  0  0  0
  6  7  1  0  0  0
  7  8  2  0  0  0
  7  9  1  0  0  0
  9 12  1  0  0  0
 12 13  2  0  0  0
 13 14  1  0  0  0
 14 15  2  0  0  0
 15 16  1  0  0  0
 16 17  2  0  0  0
  9 10  1  0  0  0
 10  1  1  0  0  0
 10  5  2  0  0  0
 17 12  1  0  0  0
  6 11  1  0  0  0
M  END
> <minimizedAffinity>
-5.88933

> <minimizedRMSD>
0.79256

$$$$
P44987


 18 20  0  0  0  0  0  0  0  0999 V2000
   -5.7155    3.9803  -21.3461 O   0  0  0  0  0  0  0  0  0  0  0  0
   -6.2230    4.1299  -20.2418 C   0  0  0  0  0  0  0  0  0  0  0  0
   -7.4593    3.5810  -19.8740 N   0  0  0  0  0  0  0  0  0  0  0  0
   -7.7096    3.8719  -18.5459 C   0  0  0  0  0  0  0  0  0  0  0  0
   -8.8196    3.5100  -17.8158 C   0  0  0  0  0  0  0  0  0  0  0  0
   -8.8457    3.8881  -16.4759 C   0  0  0  0  0  0  0  0  0  0  0  0
   -7.8081    4.6538  -15.9288 C   0  0  0  0  0  0  0  0  0  0  0  0
   -6.7196    5.0348  -16.7163 C   0  0  0  0  0  0  0  0  0  0  0  0
   -5.8226    5.8633  -16.1749 F   0  0  0  0  0  0  0  0  0  0  0  0
   -6.6412    4.6066  -18.0270 C   0  0  0  0  0  0  0  0  0  0  0  0
   -5.7022    4.7803  -19.0749 N   0  0  0  0  0  0  0  0  0  0  0  0
   -8.0551    3.0693  -20.4677 H   0  0  0  0  0  0  0  0  0  0  0  0
   -4.4107    5.3505  -18.9760 C   0  0  0  0  0  0  0  0  0  0  0  0
   -4.2364    6.7344  -19.0868 C   0  0  0  0  0  0  0  0  0  0  0  0
   -2.9601    7.3007  -19.0717 C   0  0  0  0  0  0  0  0  0  0  0  0
   -1.8693    6.4643  -18.9417 C   0  0  0  0  0  0  0  0  0  0  0  0
   -1.9765    5.1291  -18.8167 N   0  0  0  0  0  0  0  0  0  0  0  0
   -3.2351    4.6125  -18.8517 C   0  0  0  0  0  0  0  0  0  0  0  0
  1  2  2  0  0  0
  2  3  1  0  0  0
  3  4  1  0  0  0
  4  5  2  0  0  0
  5  6  1  0  0  0
  6  7  2  0  0  0
  7  8  1  0  0  0
  8  9  1  0  0  0
  8 10  2  0  0  0
 10 11  1  0  0  0
 11 13  1  0  0  0
 13 14  2  0  0  0
 14 15  1  0  0  0
 15 16  2  0  0  0
 16 17  1  0  0  0
 17 18  2  0  0  0
 11  2  1  0  0  0
 18 13  1  0  0  0
 10  4  1  0  0  0
  3 12  1  0  0  0
M  END
> <minimizedAffinity>
-6.11194

> <minimizedRMSD>
0.85609

$$$$
P44991


 19 21  0  0  0  0  0  0  0  0999 V2000
   -6.6752    4.8125  -16.5919 C   0  0  0  0  0  0  0  0  0  0  0  0
   -7.8223    4.4862  -15.8494 C   0  0  0  0  0  0  0  0  0  0  0  0
   -8.9381    3.8842  -16.4548 C   0  0  0  0  0  0  0  0  0  0  0  0
   -8.9373    3.5746  -17.8086 C   0  0  0  0  0  0  0  0  0  0  0  0
   -7.8019    3.8962  -18.5132 C   0  0  0  0  0  0  0  0  0  0  0  0
   -7.5357    3.5803  -19.8342 N   0  0  0  0  0  0  0  0  0  0  0  0
   -6.2663    4.0659  -20.1775 C   0  0  0  0  0  0  0  0  0  0  0  0
   -5.7530    3.9167  -21.2795 O   0  0  0  0  0  0  0  0  0  0  0  0
   -5.7561    4.7250  -19.0159 N   0  0  0  0  0  0  0  0  0  0  0  0
   -6.6986    4.5591  -17.9615 C   0  0  0  0  0  0  0  0  0  0  0  0
   -8.1418    3.0921  -20.4371 H   0  0  0  0  0  0  0  0  0  0  0  0
   -4.5606    5.4787  -18.9718 C   0  0  0  0  0  0  0  0  0  0  0  0
   -3.3250    4.8476  -18.8086 C   0  0  0  0  0  0  0  0  0  0  0  0
   -2.1685    5.6139  -18.7742 C   0  0  0  0  0  0  0  0  0  0  0  0
   -2.1516    6.9527  -18.9345 N   0  0  0  0  0  0  0  0  0  0  0  0
   -3.3449    7.5434  -19.1325 C   0  0  0  0  0  0  0  0  0  0  0  0
   -4.5506    6.8599  -19.1698 C   0  0  0  0  0  0  0  0  0  0  0  0
   -5.4201    5.2473  -14.6152 C   0  0  0  0  0  0  0  0  0  0  0  0
   -5.5431    5.3211  -16.0305 O   0  0  0  0  0  0  0  0  0  0  0  0
 18 19  1  0  0  0
 19  1  1  0  0  0
  1  2  2  0  0  0
  2  3  1  0  0  0
  3  4  2  0  0  0
  4  5  1  0  0  0
  5  6  1  0  0  0
  6  7  1  0  0  0
  7  8  2  0  0  0
  7  9  1  0  0  0
  9 12  1  0  0  0
 12 13  2  0  0  0
 13 14  1  0  0  0
 14 15  2  0  0  0
 15 16  1  0  0  0
 16 17  2  0  0  0
  9 10  1  0  0  0
 10  1  1  0  0  0
 10  5  2  0  0  0
 17 12  1  0  0  0
  6 11  1  0  0  0
M  END
> <minimizedAffinity>
-6.26212

> <minimizedRMSD>
0.60891

$$$$
P45018


 25 28  0  0  0  0  0  0  0  0999 V2000
   -3.3315    6.4516  -22.5341 O   0  0  0  0  0  0  0  0  0  0  0  0
   -4.1222    6.8869  -21.7900 C   0  0  0  0  0  0  0  0  0  0  0  0
   -5.3236    7.8453  -22.0411 N   0  0  0  0  0  0  0  0  0  0  0  0
   -5.8014    8.1294  -21.2285 H   0  0  0  0  0  0  0  0  0  0  0  0
   -5.8182    8.3518  -23.1965 C   0  0  0  0  0  0  0  0  0  0  0  0
   -6.2016    9.5986  -23.3148 N   0  0  0  0  0  0  0  0  0  0  0  0
   -6.6381    9.8103  -24.6087 C   0  0  0  0  0  0  0  0  0  0  0  0
   -6.7375    8.6897  -25.4134 C   0  0  0  0  0  0  0  0  0  0  0  0
   -6.0580    7.3537  -24.5521 S   0  0  0  0  0  0  0  0  0  0  0  0
   -7.2522    8.5228  -26.8242 C   0  0  0  0  0  0  0  0  0  0  0  0
   -8.3540    7.4781  -26.9455 C   0  0  0  0  0  0  0  0  0  0  0  0
   -9.6544    8.2613  -27.0441 C   0  0  0  0  0  0  0  0  0  0  0  0
   -9.3244    9.6553  -27.0359 O   0  0  0  0  0  0  0  0  0  0  0  0
   -7.9396    9.7600  -27.3903 C   0  0  0  0  0  0  0  0  0  0  0  0
   -4.1658    6.5001  -20.3118 C   0  0  0  0  0  0  0  0  0  0  0  0
   -5.1108    4.9595  -20.1832 S   0  0  0  0  0  0  0  0  0  0  0  0
   -5.4558    4.9133  -18.4951 C   0  0  0  0  0  0  0  0  0  0  0  0
   -4.5698    5.0378  -17.5322 N   0  0  0  0  0  0  0  0  0  0  0  0
   -5.2351    4.9182  -16.3331 N   0  0  0  0  0  0  0  0  0  0  0  0
   -6.5119    4.7313  -16.5979 C   0  0  0  0  0  0  0  0  0  0  0  0
   -7.6463    4.5373  -15.7642 C   0  0  0  0  0  0  0  0  0  0  0  0
   -8.8685    4.4345  -16.3204 C   0  0  0  0  0  0  0  0  0  0  0  0
   -9.0627    4.5178  -17.7595 C   0  0  0  0  0  0  0  0  0  0  0  0
   -7.9871    4.6592  -18.5532 C   0  0  0  0  0  0  0  0  0  0  0  0
   -6.7193    4.7528  -17.9738 N   0  0  0  0  0  0  0  0  0  0  0  0
  1  2  2  0  0  0
  2 15  1  0  0  0
 15 16  1  0  0  0
 16 17  1  0  0  0
 17 18  2  0  0  0
 18 19  1  0  0  0
 19 20  2  0  0  0
 20 21  1  0  0  0
 21 22  2  0  0  0
 22 23  1  0  0  0
 23 24  2  0  0  0
 24 25  1  0  0  0
  2  3  1  0  0  0
  3  5  1  0  0  0
  5  6  2  0  0  0
  6  7  1  0  0  0
  7  8  2  0  0  0
 10  8  1  0  0  0
 10 11  1  0  0  0
 11 12  1  0  0  0
 12 13  1  0  0  0
 13 14  1  0  0  0
  8  9  1  0  0  0
 25 17  1  0  0  0
  9  5  1  0  0  0
 25 20  1  0  0  0
 14 10  1  0  0  0
  3  4  1  0  0  0
M  END
> <minimizedAffinity>
-5.71916

> <minimizedRMSD>
0.66905

$$$$
P45024


 25 28  0  0  0  0  0  0  0  0999 V2000
   -3.6677    7.7233  -20.7283 O   0  0  0  0  0  0  0  0  0  0  0  0
   -4.5398    7.0842  -21.1673 C   0  0  0  0  0  0  0  0  0  0  0  0
   -5.1400    5.7376  -20.6852 N   0  0  0  0  0  0  0  0  0  0  0  0
   -5.9314    5.4359  -21.1870 H   0  0  0  0  0  0  0  0  0  0  0  0
   -5.1890    7.4638  -22.4260 C   0  0  0  0  0  0  0  0  0  0  0  0
   -5.3100    6.6341  -23.5182 C   0  0  0  0  0  0  0  0  0  0  0  0
   -5.9168    7.1419  -24.6268 N   0  0  0  0  0  0  0  0  0  0  0  0
   -6.2271    8.4045  -24.4239 C   0  0  0  0  0  0  0  0  0  0  0  0
   -5.7216    9.0293  -22.8884 S   0  0  0  0  0  0  0  0  0  0  0  0
   -7.0787    9.1863  -25.5160 C   0  0  0  0  0  0  0  0  0  0  0  0
   -7.2529   10.5481  -25.5638 N   0  0  0  0  0  0  0  0  0  0  0  0
   -8.1911   10.7786  -26.4783 N   0  0  0  0  0  0  0  0  0  0  0  0
   -8.5151    9.5653  -26.9442 N   0  0  0  0  0  0  0  0  0  0  0  0
   -7.8435    8.5416  -26.4171 N   0  0  0  0  0  0  0  0  0  0  0  0
   -9.2065    9.4375  -27.6334 H   0  0  0  0  0  0  0  0  0  0  0  0
   -4.7283    4.8582  -19.6242 C   0  0  0  0  0  0  0  0  0  0  0  0
   -5.3536    5.0532  -18.3017 C   0  0  0  0  0  0  0  0  0  0  0  0
   -4.6636    5.2471  -17.1916 N   0  0  0  0  0  0  0  0  0  0  0  0
   -5.5020    5.0980  -16.1189 N   0  0  0  0  0  0  0  0  0  0  0  0
   -6.7009    4.8318  -16.5817 C   0  0  0  0  0  0  0  0  0  0  0  0
   -7.9368    4.5745  -15.9298 C   0  0  0  0  0  0  0  0  0  0  0  0
   -9.0472    4.3878  -16.6664 C   0  0  0  0  0  0  0  0  0  0  0  0
   -9.0059    4.4241  -18.1188 C   0  0  0  0  0  0  0  0  0  0  0  0
   -7.8248    4.6075  -18.7358 C   0  0  0  0  0  0  0  0  0  0  0  0
   -6.6787    4.8234  -17.9726 N   0  0  0  0  0  0  0  0  0  0  0  0
  1  2  2  0  0  0
  2  3  1  0  0  0
  3 16  1  0  0  0
 16 17  1  0  0  0
 17 18  2  0  0  0
 18 19  1  0  0  0
 19 20  2  0  0  0
 20 21  1  0  0  0
 21 22  2  0  0  0
 22 23  1  0  0  0
 23 24  2  0  0  0
 24 25  1  0  0  0
  2  5  1  0  0  0
  5  6  2  0  0  0
  6  7  1  0  0  0
  7  8  2  0  0  0
  8 10  1  0  0  0
 10 11  1  0  0  0
 11 12  2  0  0  0
 12 13  1  0  0  0
 13 14  1  0  0  0
  8  9  1  0  0  0
 25 17  1  0  0  0
  9  5  1  0  0  0
 25 20  1  0  0  0
 14 10  2  0  0  0
  3  4  1  0  0  0
 13 15  1  0  0  0
M  END
> <minimizedAffinity>
-5.87528

> <minimizedRMSD>
0.63776

$$$$
P45124


 15 16  0  0  0  0  0  0  0  0999 V2000
   -5.6350    5.1855  -15.1911 C   0  0  0  0  0  0  0  0  0  0  0  0
   -6.0043    5.1489  -13.9009 N   0  0  0  0  0  0  0  0  0  0  0  0
   -7.2945    4.9007  -13.6566 C   0  0  0  0  0  0  0  0  0  0  0  0
   -8.2535    4.7177  -14.5682 N   0  0  0  0  0  0  0  0  0  0  0  0
   -7.8711    4.7379  -15.8473 C   0  0  0  0  0  0  0  0  0  0  0  0
   -8.8264    4.5162  -16.8277 C   0  0  0  0  0  0  0  0  0  0  0  0
   -8.4919    4.5055  -18.1801 C   0  0  0  0  0  0  0  0  0  0  0  0
   -7.1800    4.7312  -18.5713 C   0  0  0  0  0  0  0  0  0  0  0  0
   -6.2170    5.0026  -17.6152 C   0  0  0  0  0  0  0  0  0  0  0  0
   -6.5468    4.9827  -16.2402 C   0  0  0  0  0  0  0  0  0  0  0  0
   -4.2549    5.3752  -15.4253 N   0  0  0  0  0  0  0  0  0  0  0  0
   -3.8111    6.2534  -15.3947 H   0  0  0  0  0  0  0  0  0  0  0  0
   -3.5562    4.1199  -15.7189 C   0  0  0  0  0  0  0  0  0  0  0  0
   -2.1041    4.0849  -13.6604 C   0  0  0  0  0  0  0  0  0  0  0  0
   -3.1757    3.3606  -14.4470 C   0  0  0  0  0  0  0  0  0  0  0  0
 14 15  1  0  0  0
 15 13  1  0  0  0
 13 11  1  0  0  0
 11  1  1  0  0  0
  1  2  2  0  0  0
  2  3  1  0  0  0
  3  4  2  0  0  0
  4  5  1  0  0  0
  5  6  2  0  0  0
  6  7  1  0  0  0
  7  8  2  0  0  0
  8  9  1  0  0  0
  9 10  2  0  0  0
 10  1  1  0  0  0
 10  5  1  0  0  0
 11 12  1  0  0  0
M  END
> <minimizedAffinity>
-4.41267

> <minimizedRMSD>
0.78308

$$$$
P45125


 16 17  0  0  0  0  0  0  0  0999 V2000
   -5.6092    5.0418  -15.6957 C   0  0  0  0  0  0  0  0  0  0  0  0
   -5.7707    5.0628  -14.3496 N   0  0  0  0  0  0  0  0  0  0  0  0
   -7.0174    4.8693  -13.8964 C   0  0  0  0  0  0  0  0  0  0  0  0
   -8.1126    4.6893  -14.6377 N   0  0  0  0  0  0  0  0  0  0  0  0
   -7.9410    4.6618  -15.9632 C   0  0  0  0  0  0  0  0  0  0  0  0
   -9.0528    4.4597  -16.7674 C   0  0  0  0  0  0  0  0  0  0  0  0
   -8.9505    4.4295  -18.1558 C   0  0  0  0  0  0  0  0  0  0  0  0
   -7.7139    4.6003  -18.7605 C   0  0  0  0  0  0  0  0  0  0  0  0
   -6.5898    4.8205  -17.9818 C   0  0  0  0  0  0  0  0  0  0  0  0
   -6.6877    4.8451  -16.5732 C   0  0  0  0  0  0  0  0  0  0  0  0
   -3.9343    6.7981  -16.2829 C   0  0  0  0  0  0  0  0  0  0  0  0
   -4.1993    5.2891  -16.2244 C   0  0  0  0  0  0  0  0  0  0  0  0
   -3.0892    4.6104  -15.3998 C   0  0  0  0  0  0  0  0  0  0  0  0
   -3.4847    3.2932  -14.8971 N   0  0  0  0  0  0  0  0  0  0  0  0
   -4.2886    3.3932  -14.2773 H   0  0  0  0  0  0  0  0  0  0  0  0
   -2.7080    2.8785  -14.3822 H   0  0  0  0  0  0  0  0  0  0  0  0
 12 11  1  0  0  0
 12 13  1  0  0  0
 13 14  1  0  0  0
 12  1  1  0  0  0
  1  2  2  0  0  0
  2  3  1  0  0  0
  3  4  2  0  0  0
  4  5  1  0  0  0
  5  6  2  0  0  0
  6  7  1  0  0  0
  7  8  2  0  0  0
  8  9  1  0  0  0
  9 10  2  0  0  0
 10  1  1  0  0  0
 10  5  1  0  0  0
 14 15  1  0  0  0
 14 16  1  0  0  0
M  END
> <minimizedAffinity>
-4.54827

> <minimizedRMSD>
0.69625

$$$$
P45138


 21 23  0  0  0  0  0  0  0  0999 V2000
   -5.2216    5.9266  -15.4339 N   0  0  0  0  0  0  0  0  0  0  0  0
   -4.9713    6.8722  -15.5460 H   0  0  0  0  0  0  0  0  0  0  0  0
   -6.5528    5.5259  -15.3106 C   0  0  0  0  0  0  0  0  0  0  0  0
   -7.0697    5.5293  -14.0735 N   0  0  0  0  0  0  0  0  0  0  0  0
   -8.3715    5.2356  -13.9810 C   0  0  0  0  0  0  0  0  0  0  0  0
   -9.1932    4.9361  -14.9914 N   0  0  0  0  0  0  0  0  0  0  0  0
   -8.6458    4.8475  -16.2049 C   0  0  0  0  0  0  0  0  0  0  0  0
   -9.4417    4.4531  -17.2726 C   0  0  0  0  0  0  0  0  0  0  0  0
   -8.9148    4.2688  -18.5499 C   0  0  0  0  0  0  0  0  0  0  0  0
   -7.5742    4.5283  -18.7819 C   0  0  0  0  0  0  0  0  0  0  0  0
   -6.7876    5.0198  -17.7545 C   0  0  0  0  0  0  0  0  0  0  0  0
   -7.2981    5.1404  -16.4412 C   0  0  0  0  0  0  0  0  0  0  0  0
   -4.2215    4.8644  -15.3870 C   0  0  0  0  0  0  0  0  0  0  0  0
   -1.7695    5.0799  -14.8101 C   0  0  0  0  0  0  0  0  0  0  0  0
   -2.8602    5.4841  -15.8019 C   0  0  0  0  0  0  0  0  0  0  0  0
   -2.4549    5.2649  -17.2587 C   0  0  0  0  0  0  0  0  0  0  0  0
   -1.2168    5.7453  -17.7059 C   0  0  0  0  0  0  0  0  0  0  0  0
   -0.8763    5.6469  -19.0517 C   0  0  0  0  0  0  0  0  0  0  0  0
   -1.6943    5.1447  -19.9980 N   0  0  0  0  0  0  0  0  0  0  0  0
   -2.8971    4.7299  -19.5529 C   0  0  0  0  0  0  0  0  0  0  0  0
   -3.2869    4.6989  -18.2197 C   0  0  0  0  0  0  0  0  0  0  0  0
 15 14  1  0  0  0
 15 13  1  0  0  0
 13  1  1  0  0  0
  1  3  1  0  0  0
  3  4  2  0  0  0
  4  5  1  0  0  0
  5  6  2  0  0  0
  6  7  1  0  0  0
  7  8  2  0  0  0
  8  9  1  0  0  0
  9 10  2  0  0  0
 10 11  1  0  0  0
 11 12  2  0  0  0
 15 16  1  0  0  0
 16 17  2  0  0  0
 17 18  1  0  0  0
 18 19  2  0  0  0
 19 20  1  0  0  0
 20 21  2  0  0  0
 12  3  1  0  0  0
 21 16  1  0  0  0
 12  7  1  0  0  0
  1  2  1  0  0  0
M  END
> <minimizedAffinity>
-5.38608

> <minimizedRMSD>
0.93447

$$$$
P45153


 17 18  0  0  0  0  0  0  0  0999 V2000
   -5.7715    5.0824  -16.9294 C   0  0  0  0  0  0  0  0  0  0  0  0
   -7.0509    4.7935  -17.3538 C   0  0  0  0  0  0  0  0  0  0  0  0
   -7.7818    4.3875  -16.2698 O   0  0  0  0  0  0  0  0  0  0  0  0
   -6.8969    4.4839  -15.2279 C   0  0  0  0  0  0  0  0  0  0  0  0
   -5.7092    4.9444  -15.5674 N   0  0  0  0  0  0  0  0  0  0  0  0
   -7.2917    3.9191  -13.9482 C   0  0  0  0  0  0  0  0  0  0  0  0
   -6.6576    2.7770  -13.4734 C   0  0  0  0  0  0  0  0  0  0  0  0
   -6.8623    2.4048  -12.1507 C   0  0  0  0  0  0  0  0  0  0  0  0
   -7.6884    3.1808  -11.3493 C   0  0  0  0  0  0  0  0  0  0  0  0
   -8.3095    4.2824  -11.9140 C   0  0  0  0  0  0  0  0  0  0  0  0
   -8.1328    4.6743  -13.1933 N   0  0  0  0  0  0  0  0  0  0  0  0
   -4.5127    5.3697  -17.6690 C   0  0  0  0  0  0  0  0  0  0  0  0
   -4.5124    4.9725  -19.1363 C   0  0  0  0  0  0  0  0  0  0  0  0
   -2.9876    5.8901  -20.8121 N   0  0  0  0  0  0  0  0  0  0  0  0
   -3.0997    4.9442  -19.7079 C   0  0  0  0  0  0  0  0  0  0  0  0
   -2.0395    5.8637  -21.1874 H   0  0  0  0  0  0  0  0  0  0  0  0
   -3.1942    6.8308  -20.4762 H   0  0  0  0  0  0  0  0  0  0  0  0
 14 15  1  0  0  0
 15 13  1  0  0  0
 13 12  1  0  0  0
 12  1  1  0  0  0
  1  2  2  0  0  0
  2  3  1  0  0  0
  3  4  1  0  0  0
  4  6  1  0  0  0
  6  7  2  0  0  0
  7  8  1  0  0  0
  8  9  2  0  0  0
  9 10  1  0  0  0
 10 11  2  0  0  0
  4  5  2  0  0  0
  5  1  1  0  0  0
 11  6  1  0  0  0
 14 16  1  0  0  0
 14 17  1  0  0  0
M  END
> <minimizedAffinity>
-4.72767

> <minimizedRMSD>
1.78533

$$$$
P45171


 24 27  0  0  0  0  0  0  0  0999 V2000
   -3.8523    4.3139  -13.2434 O   0  0  0  0  0  0  0  0  0  0  0  0
   -3.6535    5.3283  -14.2529 S   0  0  0  0  0  0  0  0  0  0  0  0
   -2.3894    5.4344  -14.9555 O   0  0  0  0  0  0  0  0  0  0  0  0
   -4.8945    5.1224  -15.4863 C   0  0  0  0  0  0  0  0  0  0  0  0
   -4.5118    5.1880  -16.8126 C   0  0  0  0  0  0  0  0  0  0  0  0
   -5.3621    5.0306  -17.8530 N   0  0  0  0  0  0  0  0  0  0  0  0
   -6.6509    4.7607  -17.5816 C   0  0  0  0  0  0  0  0  0  0  0  0
   -7.5385    4.5700  -18.6317 C   0  0  0  0  0  0  0  0  0  0  0  0
   -8.8953    4.3308  -18.4110 C   0  0  0  0  0  0  0  0  0  0  0  0
   -9.3811    4.2806  -17.1130 C   0  0  0  0  0  0  0  0  0  0  0  0
   -8.5014    4.4194  -16.0403 C   0  0  0  0  0  0  0  0  0  0  0  0
   -7.1348    4.6686  -16.2570 C   0  0  0  0  0  0  0  0  0  0  0  0
   -6.2191    4.8267  -15.1963 C   0  0  0  0  0  0  0  0  0  0  0  0
   -3.9234    6.8276  -13.5650 N   0  0  0  0  0  0  0  0  0  0  0  0
   -4.3649    7.9854  -14.3424 C   0  0  0  0  0  0  0  0  0  0  0  0
   -5.0006    8.9181  -13.3082 C   0  0  0  0  0  0  0  0  0  0  0  0
   -5.4491    8.0034  -12.1702 C   0  0  0  0  0  0  0  0  0  0  0  0
   -4.3317    6.9551  -12.1512 C   0  0  0  0  0  0  0  0  0  0  0  0
   -6.7502    7.2918  -12.3461 C   0  0  0  0  0  0  0  0  0  0  0  0
   -7.0077    6.1164  -11.8126 N   0  0  0  0  0  0  0  0  0  0  0  0
   -8.2048    5.7178  -12.3275 C   0  0  0  0  0  0  0  0  0  0  0  0
   -8.7285    6.7024  -13.1297 C   0  0  0  0  0  0  0  0  0  0  0  0
   -7.7973    7.7026  -13.1282 N   0  0  0  0  0  0  0  0  0  0  0  0
   -7.8664    8.5623  -13.6030 H   0  0  0  0  0  0  0  0  0  0  0  0
  1  2  2  0  0  0
  2  3  2  0  0  0
  2  4  1  0  0  0
  4  5  2  0  0  0
  5  6  1  0  0  0
  6  7  2  0  0  0
  7  8  1  0  0  0
  8  9  2  0  0  0
  9 10  1  0  0  0
 10 11  2  0  0  0
 11 12  1  0  0  0
 12 13  2  0  0  0
  2 14  1  0  0  0
 14 15  1  0  0  0
 15 16  1  0  0  0
 16 17  1  0  0  0
 17 19  1  0  0  0
 19 20  2  0  0  0
 20 21  1  0  0  0
 21 22  2  0  0  0
 22 23  1  0  0  0
 17 18  1  0  0  0
 13  4  1  0  0  0
 18 14  1  0  0  0
 12  7  1  0  0  0
 23 19  1  0  0  0
 23 24  1  0  0  0
M  END
> <minimizedAffinity>
-5.29862

> <minimizedRMSD>
0.98008

$$$$
P45455


 23 25  0  0  0  0  0  0  0  0999 V2000
   -6.9207    4.1302  -13.6508 N   0  0  0  0  0  0  0  0  0  0  0  0
   -8.0180    4.4899  -12.6163 C   0  0  0  0  0  0  0  0  0  0  0  0
   -8.7125    5.4259  -12.5450 O   0  0  0  0  0  0  0  0  0  0  0  0
   -6.5229    3.2370  -13.5361 H   0  0  0  0  0  0  0  0  0  0  0  0
   -6.3011    6.3720  -14.4282 C   0  0  0  0  0  0  0  0  0  0  0  0
   -6.3886    4.8906  -14.7529 C   0  0  0  0  0  0  0  0  0  0  0  0
   -7.1340    4.6743  -16.0446 C   0  0  0  0  0  0  0  0  0  0  0  0
   -8.5148    4.4784  -16.1287 C   0  0  0  0  0  0  0  0  0  0  0  0
   -9.0884    4.2288  -17.3663 C   0  0  0  0  0  0  0  0  0  0  0  0
   -8.3881    4.1812  -18.5163 N   0  0  0  0  0  0  0  0  0  0  0  0
   -7.0652    4.4343  -18.4315 C   0  0  0  0  0  0  0  0  0  0  0  0
   -6.4165    4.6955  -17.2384 C   0  0  0  0  0  0  0  0  0  0  0  0
   -5.1115    5.0045  -17.2279 F   0  0  0  0  0  0  0  0  0  0  0  0
   -8.1017    3.3181  -11.6062 C   0  0  0  0  0  0  0  0  0  0  0  0
   -7.2000    3.4001  -10.4504 N   0  0  0  0  0  0  0  0  0  0  0  0
   -7.8466    3.7293   -9.1741 C   0  0  0  0  0  0  0  0  0  0  0  0
   -8.1526    5.2219   -8.9481 C   0  0  0  0  0  0  0  0  0  0  0  0
   -7.0812    6.0603   -9.5537 C   0  0  0  0  0  0  0  0  0  0  0  0
   -7.0507    7.7474   -9.3961 S   0  0  0  0  0  0  0  0  0  0  0  0
   -5.5526    7.8368  -10.2259 C   0  0  0  0  0  0  0  0  0  0  0  0
   -5.1390    6.6028  -10.6852 C   0  0  0  0  0  0  0  0  0  0  0  0
   -6.0487    5.5619  -10.3232 C   0  0  0  0  0  0  0  0  0  0  0  0
   -5.9298    4.1013  -10.6559 C   0  0  0  0  0  0  0  0  0  0  0  0
  6  5  1  0  0  0
  6  1  1  0  0  0
  1  2  1  0  0  0
  2  3  2  0  0  0
  2 14  1  0  0  0
 14 15  1  0  0  0
 15 16  1  0  0  0
 16 17  1  0  0  0
 17 18  1  0  0  0
 18 19  1  0  0  0
 19 20  1  0  0  0
 20 21  2  0  0  0
 21 22  1  0  0  0
 22 23  1  0  0  0
  6  7  1  0  0  0
  7  8  2  0  0  0
  8  9  1  0  0  0
  9 10  2  0  0  0
 10 11  1  0  0  0
 11 12  2  0  0  0
 12 13  1  0  0  0
 23 15  1  0  0  0
 12  7  1  0  0  0
 22 18  2  0  0  0
  1  4  1  0  0  0
M  END
> <minimizedAffinity>
-5.83197

> <minimizedRMSD>
0.59287

$$$$
P45479


 11 11  0  0  0  0  0  0  0  0999 V2000
   -6.6848    5.2401  -16.0063 C   0  0  0  0  0  0  0  0  0  0  0  0
   -6.7197    4.4896  -17.3372 C   0  0  0  0  0  0  0  0  0  0  0  0
   -5.6913    5.0065  -18.3419 C   0  0  0  0  0  0  0  0  0  0  0  0
   -5.6487    4.6582  -19.6161 N   0  0  0  0  0  0  0  0  0  0  0  0
   -4.5579    5.2264  -20.2421 C   0  0  0  0  0  0  0  0  0  0  0  0
   -3.7418    5.9861  -19.4381 C   0  0  0  0  0  0  0  0  0  0  0  0
   -4.3861    6.0392  -17.8560 S   0  0  0  0  0  0  0  0  0  0  0  0
   -8.1264    4.4204  -17.9639 C   0  0  0  0  0  0  0  0  0  0  0  0
   -9.0779    3.5468  -17.2616 N   0  0  0  0  0  0  0  0  0  0  0  0
   -8.7400    2.5848  -17.2888 H   0  0  0  0  0  0  0  0  0  0  0  0
   -9.9888    3.6003  -17.7175 H   0  0  0  0  0  0  0  0  0  0  0  0
  2  1  1  0  0  0
  2  8  1  0  0  0
  8  9  1  0  0  0
  2  3  1  0  0  0
  3  4  2  0  0  0
  4  5  1  0  0  0
  5  6  2  0  0  0
  6  7  1  0  0  0
  7  3  1  0  0  0
  9 10  1  0  0  0
  9 11  1  0  0  0
M  END
> <minimizedAffinity>
-3.37906

> <minimizedRMSD>
0.62573

$$$$
P45489


 16 16  0  0  0  0  0  0  0  0999 V2000
   -4.6194    5.0103  -19.9089 C   0  0  0  0  0  0  0  0  0  0  0  0
   -3.6610    5.4970  -19.0493 C   0  0  0  0  0  0  0  0  0  0  0  0
   -4.2715    5.5307  -17.4634 S   0  0  0  0  0  0  0  0  0  0  0  0
   -5.7837    4.8561  -17.9861 C   0  0  0  0  0  0  0  0  0  0  0  0
   -5.8081    4.6516  -19.2910 N   0  0  0  0  0  0  0  0  0  0  0  0
   -3.2180    4.2221  -21.8503 C   0  0  0  0  0  0  0  0  0  0  0  0
   -4.5300    4.8690  -21.4050 C   0  0  0  0  0  0  0  0  0  0  0  0
   -4.7211    6.2237  -22.1214 C   0  0  0  0  0  0  0  0  0  0  0  0
   -5.4399    7.2100  -21.3043 N   0  0  0  0  0  0  0  0  0  0  0  0
   -6.3760    6.8621  -21.0968 H   0  0  0  0  0  0  0  0  0  0  0  0
   -5.5097    8.0895  -21.8162 H   0  0  0  0  0  0  0  0  0  0  0  0
   -6.7879    4.4607  -17.1260 N   0  0  0  0  0  0  0  0  0  0  0  0
   -8.0345    4.0863  -17.8312 C   0  0  0  0  0  0  0  0  0  0  0  0
   -7.0279    5.2007  -15.8606 C   0  0  0  0  0  0  0  0  0  0  0  0
   -8.4767    5.0680  -15.3599 C   0  0  0  0  0  0  0  0  0  0  0  0
   -6.1136    4.8523  -14.6862 C   0  0  0  0  0  0  0  0  0  0  0  0
  7  6  1  0  0  0
  7  8  1  0  0  0
  8  9  1  0  0  0
  7  1  1  0  0  0
  1  2  2  0  0  0
  2  3  1  0  0  0
  3  4  1  0  0  0
  4 12  1  0  0  0
 12 13  1  0  0  0
 12 14  1  0  0  0
 14 15  1  0  0  0
 14 16  1  0  0  0
  4  5  2  0  0  0
  5  1  1  0  0  0
  9 10  1  0  0  0
  9 11  1  0  0  0
M  END
> <minimizedAffinity>
-4.29885

> <minimizedRMSD>
1.11819

$$$$
P45490


 21 22  0  0  0  0  0  0  0  0999 V2000
   -3.8195    6.1217  -21.0253 C   0  0  0  0  0  0  0  0  0  0  0  0
   -2.7779    5.4232  -20.4526 C   0  0  0  0  0  0  0  0  0  0  0  0
   -3.3338    4.5886  -19.0856 S   0  0  0  0  0  0  0  0  0  0  0  0
   -4.9232    5.2036  -19.3211 C   0  0  0  0  0  0  0  0  0  0  0  0
   -5.0432    5.9647  -20.3913 N   0  0  0  0  0  0  0  0  0  0  0  0
   -6.0439    4.8260  -18.4361 C   0  0  0  0  0  0  0  0  0  0  0  0
   -7.0989    4.0925  -19.0073 C   0  0  0  0  0  0  0  0  0  0  0  0
   -8.2076    3.7013  -18.2580 C   0  0  0  0  0  0  0  0  0  0  0  0
   -8.2785    4.0238  -16.9120 C   0  0  0  0  0  0  0  0  0  0  0  0
   -7.2509    4.7462  -16.3177 C   0  0  0  0  0  0  0  0  0  0  0  0
   -6.1447    5.1849  -17.0740 C   0  0  0  0  0  0  0  0  0  0  0  0
   -5.1300    6.0630  -16.3984 C   0  0  0  0  0  0  0  0  0  0  0  0
   -4.7339    7.1191  -17.1647 F   0  0  0  0  0  0  0  0  0  0  0  0
   -4.0047    5.3901  -16.0542 F   0  0  0  0  0  0  0  0  0  0  0  0
   -5.5859    6.6285  -15.2410 F   0  0  0  0  0  0  0  0  0  0  0  0
   -4.7060    8.1375  -22.2328 C   0  0  0  0  0  0  0  0  0  0  0  0
   -3.7182    6.9690  -22.2613 C   0  0  0  0  0  0  0  0  0  0  0  0
   -3.9361    6.1219  -23.5263 C   0  0  0  0  0  0  0  0  0  0  0  0
   -2.7267    5.4380  -24.0071 N   0  0  0  0  0  0  0  0  0  0  0  0
   -2.0243    6.1311  -24.2656 H   0  0  0  0  0  0  0  0  0  0  0  0
   -2.9588    4.8692  -24.8213 H   0  0  0  0  0  0  0  0  0  0  0  0
 17 16  1  0  0  0
 17 18  1  0  0  0
 18 19  1  0  0  0
 17  1  1  0  0  0
  1  2  2  0  0  0
  2  3  1  0  0  0
  3  4  1  0  0  0
  4  6  1  0  0  0
  6  7  2  0  0  0
  7  8  1  0  0  0
  8  9  2  0  0  0
  9 10  1  0  0  0
 10 11  2  0  0  0
 11 12  1  0  0  0
 12 13  1  0  0  0
 12 14  1  0  0  0
 12 15  1  0  0  0
  4  5  2  0  0  0
  5  1  1  0  0  0
 11  6  1  0  0  0
 19 20  1  0  0  0
 19 21  1  0  0  0
M  END
> <minimizedAffinity>
-5.52454

> <minimizedRMSD>
0.69714

$$$$
P45491


 21 22  0  0  0  0  0  0  0  0999 V2000
   -3.9890    6.7870  -20.1650 C   0  0  0  0  0  0  0  0  0  0  0  0
   -3.0701    5.8271  -19.7843 C   0  0  0  0  0  0  0  0  0  0  0  0
   -3.7764    4.7427  -18.6738 S   0  0  0  0  0  0  0  0  0  0  0  0
   -5.2646    5.6009  -18.7662 C   0  0  0  0  0  0  0  0  0  0  0  0
   -5.2484    6.6172  -19.6042 N   0  0  0  0  0  0  0  0  0  0  0  0
   -6.4290    5.2261  -17.9437 C   0  0  0  0  0  0  0  0  0  0  0  0
   -7.5392    4.6657  -18.5943 C   0  0  0  0  0  0  0  0  0  0  0  0
   -8.7032    4.3328  -17.8982 C   0  0  0  0  0  0  0  0  0  0  0  0
   -8.7705    4.5342  -16.5266 C   0  0  0  0  0  0  0  0  0  0  0  0
   -7.6860    5.0917  -15.8572 C   0  0  0  0  0  0  0  0  0  0  0  0
   -6.5212    5.4715  -16.5567 C   0  0  0  0  0  0  0  0  0  0  0  0
   -5.4210    6.1430  -15.7856 C   0  0  0  0  0  0  0  0  0  0  0  0
   -5.8233    6.5871  -14.5580 F   0  0  0  0  0  0  0  0  0  0  0  0
   -4.9095    7.2382  -16.4049 F   0  0  0  0  0  0  0  0  0  0  0  0
   -4.3651    5.3158  -15.5436 F   0  0  0  0  0  0  0  0  0  0  0  0
   -2.4156    7.8707  -21.8387 C   0  0  0  0  0  0  0  0  0  0  0  0
   -3.6930    8.0114  -21.0057 C   0  0  0  0  0  0  0  0  0  0  0  0
   -4.8785    8.4872  -21.8774 C   0  0  0  0  0  0  0  0  0  0  0  0
   -5.7525    7.4370  -22.4019 N   0  0  0  0  0  0  0  0  0  0  0  0
   -5.2212    6.8354  -23.0314 H   0  0  0  0  0  0  0  0  0  0  0  0
   -6.5272    7.8622  -22.9112 H   0  0  0  0  0  0  0  0  0  0  0  0
 17 16  1  0  0  0
 17 18  1  0  0  0
 18 19  1  0  0  0
 17  1  1  0  0  0
  1  2  2  0  0  0
  2  3  1  0  0  0
  3  4  1  0  0  0
  4  6  1  0  0  0
  6  7  2  0  0  0
  7  8  1  0  0  0
  8  9  2  0  0  0
  9 10  1  0  0  0
 10 11  2  0  0  0
 11 12  1  0  0  0
 12 13  1  0  0  0
 12 14  1  0  0  0
 12 15  1  0  0  0
  4  5  2  0  0  0
  5  1  1  0  0  0
 11  6  1  0  0  0
 19 20  1  0  0  0
 19 21  1  0  0  0
M  END
> <minimizedAffinity>
-4.82450

> <minimizedRMSD>
0.47040

$$$$
P45492


 21 22  0  0  0  0  0  0  0  0999 V2000
   -3.1549    6.2644  -20.0008 C   0  0  0  0  0  0  0  0  0  0  0  0
   -4.2166    7.1271  -20.1523 C   0  0  0  0  0  0  0  0  0  0  0  0
   -5.4117    6.6970  -19.6290 N   0  0  0  0  0  0  0  0  0  0  0  0
   -5.2683    5.5551  -18.9780 C   0  0  0  0  0  0  0  0  0  0  0  0
   -3.7261    4.8354  -19.2498 S   0  0  0  0  0  0  0  0  0  0  0  0
   -6.3701    4.9392  -18.1874 C   0  0  0  0  0  0  0  0  0  0  0  0
   -7.3635    4.2730  -18.9410 C   0  0  0  0  0  0  0  0  0  0  0  0
   -8.4708    3.6665  -18.3522 C   0  0  0  0  0  0  0  0  0  0  0  0
   -8.6104    3.6887  -16.9775 C   0  0  0  0  0  0  0  0  0  0  0  0
   -7.6589    4.3342  -16.1995 C   0  0  0  0  0  0  0  0  0  0  0  0
   -6.5557    4.9978  -16.7862 C   0  0  0  0  0  0  0  0  0  0  0  0
   -5.6704    5.7809  -15.8577 C   0  0  0  0  0  0  0  0  0  0  0  0
   -4.4121    5.2818  -15.7837 F   0  0  0  0  0  0  0  0  0  0  0  0
   -6.1216    5.8116  -14.5676 F   0  0  0  0  0  0  0  0  0  0  0  0
   -5.5572    7.0942  -16.2088 F   0  0  0  0  0  0  0  0  0  0  0  0
   -1.5041    7.6742  -21.2661 C   0  0  0  0  0  0  0  0  0  0  0  0
   -1.7029    6.4332  -20.3836 C   0  0  0  0  0  0  0  0  0  0  0  0
   -0.7939    6.5615  -19.1353 C   0  0  0  0  0  0  0  0  0  0  0  0
   -0.0787    5.3347  -18.7721 N   0  0  0  0  0  0  0  0  0  0  0  0
   -0.7520    4.6075  -18.5306 H   0  0  0  0  0  0  0  0  0  0  0  0
    0.5257    5.5180  -17.9711 H   0  0  0  0  0  0  0  0  0  0  0  0
 17 16  1  0  0  0
 17 18  1  0  0  0
 18 19  1  0  0  0
 17  1  1  0  0  0
  1  2  2  0  0  0
  2  3  1  0  0  0
  3  4  2  0  0  0
  4  6  1  0  0  0
  6  7  2  0  0  0
  7  8  1  0  0  0
  8  9  2  0  0  0
  9 10  1  0  0  0
 10 11  2  0  0  0
 11 12  1  0  0  0
 12 13  1  0  0  0
 12 14  1  0  0  0
 12 15  1  0  0  0
  4  5  1  0  0  0
  5  1  1  0  0  0
 11  6  1  0  0  0
 19 20  1  0  0  0
 19 21  1  0  0  0
M  END
> <minimizedAffinity>
-5.57272

> <minimizedRMSD>
1.34775

$$$$
P45610


 11 12  0  0  0  0  0  0  0  0999 V2000
   -8.8410    3.8898  -17.0606 C   0  0  0  0  0  0  0  0  0  0  0  0
   -7.8799    4.5345  -16.2972 C   0  0  0  0  0  0  0  0  0  0  0  0
   -6.6770    4.9096  -16.8929 C   0  0  0  0  0  0  0  0  0  0  0  0
   -6.4603    4.6138  -18.2407 C   0  0  0  0  0  0  0  0  0  0  0  0
   -7.3985    3.9768  -18.9854 N   0  0  0  0  0  0  0  0  0  0  0  0
   -8.5598    3.6361  -18.3893 C   0  0  0  0  0  0  0  0  0  0  0  0
   -5.2073    4.9297  -18.9715 C   0  0  0  0  0  0  0  0  0  0  0  0
   -5.0276    4.8101  -20.2805 N   0  0  0  0  0  0  0  0  0  0  0  0
   -3.7320    5.1253  -20.6303 C   0  0  0  0  0  0  0  0  0  0  0  0
   -2.9049    5.4750  -19.5902 C   0  0  0  0  0  0  0  0  0  0  0  0
   -3.7895    5.4687  -18.1290 S   0  0  0  0  0  0  0  0  0  0  0  0
  1  2  2  0  0  0
  2  3  1  0  0  0
  3  4  2  0  0  0
  4  7  1  0  0  0
  7  8  2  0  0  0
  8  9  1  0  0  0
  9 10  2  0  0  0
 10 11  1  0  0  0
  4  5  1  0  0  0
  5  6  2  0  0  0
  6  1  1  0  0  0
 11  7  1  0  0  0
M  END
> <minimizedAffinity>
-4.66017

> <minimizedRMSD>
0.47553

$$$$
P46011


 25 27  0  0  0  0  0  0  0  0999 V2000
   -7.5292    3.3739  -14.2103 N   0  0  0  0  0  0  0  0  0  0  0  0
   -8.4363    4.4389  -14.8296 C   0  0  0  0  0  0  0  0  0  0  0  0
   -9.0378    5.2987  -14.3306 O   0  0  0  0  0  0  0  0  0  0  0  0
   -7.0676    2.7970  -14.8610 H   0  0  0  0  0  0  0  0  0  0  0  0
   -8.4117    4.3443  -16.2709 C   0  0  0  0  0  0  0  0  0  0  0  0
   -9.3285    3.8428  -17.1711 C   0  0  0  0  0  0  0  0  0  0  0  0
   -8.8142    4.1633  -18.4389 C   0  0  0  0  0  0  0  0  0  0  0  0
   -7.6306    4.7755  -18.3629 N   0  0  0  0  0  0  0  0  0  0  0  0
   -7.4036    4.8774  -17.0407 N   0  0  0  0  0  0  0  0  0  0  0  0
   -6.2237    5.5433  -16.5344 C   0  0  0  0  0  0  0  0  0  0  0  0
   -5.6578    6.6953  -17.3636 C   0  0  0  0  0  0  0  0  0  0  0  0
   -4.2208    6.8609  -16.8646 C   0  0  0  0  0  0  0  0  0  0  0  0
   -3.8935    5.5939  -16.0730 C   0  0  0  0  0  0  0  0  0  0  0  0
   -5.0142    4.6222  -16.3904 C   0  0  0  0  0  0  0  0  0  0  0  0
   -7.2394    3.0768  -12.8273 C   0  0  0  0  0  0  0  0  0  0  0  0
   -4.9046    3.8135  -12.2201 C   0  0  0  0  0  0  0  0  0  0  0  0
   -6.3993    4.1760  -12.1475 C   0  0  0  0  0  0  0  0  0  0  0  0
   -6.8105    4.5742  -10.7736 N   0  0  0  0  0  0  0  0  0  0  0  0
   -7.0828    3.4249   -9.9028 C   0  0  0  0  0  0  0  0  0  0  0  0
   -7.9808    5.4766  -10.7290 C   0  0  0  0  0  0  0  0  0  0  0  0
   -7.6785    6.8881  -11.1304 C   0  0  0  0  0  0  0  0  0  0  0  0
   -6.5538    7.6249  -10.7967 C   0  0  0  0  0  0  0  0  0  0  0  0
   -6.6468    9.1934  -11.4780 S   0  0  0  0  0  0  0  0  0  0  0  0
   -8.1792    8.7922  -12.1319 C   0  0  0  0  0  0  0  0  0  0  0  0
   -8.6274    7.5855  -11.8692 N   0  0  0  0  0  0  0  0  0  0  0  0
 17 16  1  0  0  0
 17 15  1  0  0  0
 15  1  1  0  0  0
  1  2  1  0  0  0
  2  3  2  0  0  0
  2  5  1  0  0  0
  5  6  2  0  0  0
  6  7  1  0  0  0
  7  8  2  0  0  0
  8  9  1  0  0  0
  9 10  1  0  0  0
 10 11  1  0  0  0
 11 12  1  0  0  0
 12 13  1  0  0  0
 13 14  1  0  0  0
 17 18  1  0  0  0
 18 19  1  0  0  0
 18 20  1  0  0  0
 20 21  1  0  0  0
 21 22  2  0  0  0
 22 23  1  0  0  0
 23 24  1  0  0  0
 24 25  2  0  0  0
  9  5  1  0  0  0
 14 10  1  0  0  0
 25 21  1  0  0  0
  1  4  1  0  0  0
M  END
> <minimizedAffinity>
-5.49120

> <minimizedRMSD>
0.91104

$$$$
P46020


 25 27  0  0  0  0  0  0  0  0999 V2000
   -7.5341    4.3769  -13.7186 N   0  0  0  0  0  0  0  0  0  0  0  0
   -7.1329    5.3757  -14.8074 C   0  0  0  0  0  0  0  0  0  0  0  0
   -6.7375    6.4651  -14.7216 O   0  0  0  0  0  0  0  0  0  0  0  0
   -7.7679    3.4793  -14.0488 H   0  0  0  0  0  0  0  0  0  0  0  0
   -7.4072    4.8282  -16.1204 C   0  0  0  0  0  0  0  0  0  0  0  0
   -8.6104    4.4473  -16.6912 C   0  0  0  0  0  0  0  0  0  0  0  0
   -8.3292    4.2314  -18.0477 C   0  0  0  0  0  0  0  0  0  0  0  0
   -7.0332    4.3793  -18.3168 N   0  0  0  0  0  0  0  0  0  0  0  0
   -6.4801    4.6968  -17.1279 N   0  0  0  0  0  0  0  0  0  0  0  0
   -5.0373    4.8305  -17.0750 C   0  0  0  0  0  0  0  0  0  0  0  0
   -4.5290    6.2606  -17.2798 C   0  0  0  0  0  0  0  0  0  0  0  0
   -3.1944    6.2843  -16.5503 C   0  0  0  0  0  0  0  0  0  0  0  0
   -3.4499    5.4384  -15.3130 C   0  0  0  0  0  0  0  0  0  0  0  0
   -4.3407    4.3042  -15.8061 C   0  0  0  0  0  0  0  0  0  0  0  0
   -8.1260    5.9554  -12.0002 C   0  0  0  0  0  0  0  0  0  0  0  0
   -7.6258    4.5370  -12.2829 C   0  0  0  0  0  0  0  0  0  0  0  0
   -6.3490    4.1720  -11.4980 C   0  0  0  0  0  0  0  0  0  0  0  0
   -6.6790    3.2256  -10.4081 N   0  0  0  0  0  0  0  0  0  0  0  0
   -5.9993    1.9479  -10.6041 C   0  0  0  0  0  0  0  0  0  0  0  0
   -8.1379    3.0534  -10.2583 C   0  0  0  0  0  0  0  0  0  0  0  0
   -8.6031    3.2008   -8.8277 C   0  0  0  0  0  0  0  0  0  0  0  0
   -8.2952    4.2173   -7.9380 C   0  0  0  0  0  0  0  0  0  0  0  0
   -9.0317    3.9365   -6.4157 S   0  0  0  0  0  0  0  0  0  0  0  0
   -9.6730    2.4701   -7.0234 C   0  0  0  0  0  0  0  0  0  0  0  0
   -9.3504    2.1675   -8.2592 N   0  0  0  0  0  0  0  0  0  0  0  0
 16 15  1  0  0  0
 16 17  1  0  0  0
 17 18  1  0  0  0
 18 19  1  0  0  0
 18 20  1  0  0  0
 20 21  1  0  0  0
 21 22  2  0  0  0
 22 23  1  0  0  0
 23 24  1  0  0  0
 24 25  2  0  0  0
 16  1  1  0  0  0
  1  2  1  0  0  0
  2  3  2  0  0  0
  2  5  1  0  0  0
  5  6  2  0  0  0
  6  7  1  0  0  0
  7  8  2  0  0  0
  8  9  1  0  0  0
  9 10  1  0  0  0
 10 11  1  0  0  0
 11 12  1  0  0  0
 12 13  1  0  0  0
 13 14  1  0  0  0
 25 21  1  0  0  0
  9  5  1  0  0  0
 14 10  1  0  0  0
  1  4  1  0  0  0
M  END
> <minimizedAffinity>
-5.84794

> <minimizedRMSD>
1.11345

$$$$
P46028


 25 27  0  0  0  0  0  0  0  0999 V2000
   -7.2212    3.1192  -13.9981 N   0  0  0  0  0  0  0  0  0  0  0  0
   -7.8145    4.4499  -14.4761 C   0  0  0  0  0  0  0  0  0  0  0  0
   -8.1407    5.3896  -13.8734 O   0  0  0  0  0  0  0  0  0  0  0  0
   -6.9551    2.5041  -14.7193 H   0  0  0  0  0  0  0  0  0  0  0  0
   -7.9458    4.4390  -15.9299 C   0  0  0  0  0  0  0  0  0  0  0  0
   -8.9893    3.9982  -16.7301 C   0  0  0  0  0  0  0  0  0  0  0  0
   -8.6314    4.3112  -18.0481 C   0  0  0  0  0  0  0  0  0  0  0  0
   -7.4347    4.8892  -18.1075 N   0  0  0  0  0  0  0  0  0  0  0  0
   -7.0124    4.9219  -16.8238 N   0  0  0  0  0  0  0  0  0  0  0  0
   -5.6690    5.4134  -16.5930 C   0  0  0  0  0  0  0  0  0  0  0  0
   -5.5993    6.6813  -15.7388 C   0  0  0  0  0  0  0  0  0  0  0  0
   -4.1964    6.6444  -15.1548 C   0  0  0  0  0  0  0  0  0  0  0  0
   -3.9953    5.1732  -14.8287 C   0  0  0  0  0  0  0  0  0  0  0  0
   -4.6622    4.4267  -15.9795 C   0  0  0  0  0  0  0  0  0  0  0  0
   -5.6566    3.1200  -12.1395 C   0  0  0  0  0  0  0  0  0  0  0  0
   -6.9878    2.6182  -12.6551 C   0  0  0  0  0  0  0  0  0  0  0  0
   -8.1951    2.8274  -11.7079 C   0  0  0  0  0  0  0  0  0  0  0  0
   -8.3698    4.0624  -10.9461 N   0  0  0  0  0  0  0  0  0  0  0  0
   -9.3566    4.1494  -10.7031 H   0  0  0  0  0  0  0  0  0  0  0  0
   -7.5895    4.1320   -9.7140 C   0  0  0  0  0  0  0  0  0  0  0  0
   -8.3653    3.7635   -8.4862 C   0  0  0  0  0  0  0  0  0  0  0  0
   -8.4238    4.4505   -7.2861 C   0  0  0  0  0  0  0  0  0  0  0  0
   -9.3985    3.5939   -6.1594 S   0  0  0  0  0  0  0  0  0  0  0  0
   -9.7108    2.4107   -7.3597 C   0  0  0  0  0  0  0  0  0  0  0  0
   -9.1047    2.5941   -8.5098 N   0  0  0  0  0  0  0  0  0  0  0  0
 16 15  1  0  0  0
 16 17  1  0  0  0
 17 18  1  0  0  0
 18 20  1  0  0  0
 20 21  1  0  0  0
 21 22  2  0  0  0
 22 23  1  0  0  0
 23 24  1  0  0  0
 24 25  2  0  0  0
 16  1  1  0  0  0
  1  2  1  0  0  0
  2  3  2  0  0  0
  2  5  1  0  0  0
  5  6  2  0  0  0
  6  7  1  0  0  0
  7  8  2  0  0  0
  8  9  1  0  0  0
  9 10  1  0  0  0
 10 11  1  0  0  0
 11 12  1  0  0  0
 12 13  1  0  0  0
 13 14  1  0  0  0
 25 21  1  0  0  0
  9  5  1  0  0  0
 14 10  1  0  0  0
 18 19  1  0  0  0
  1  4  1  0  0  0
M  END
> <minimizedAffinity>
-6.07731

> <minimizedRMSD>
1.39977

$$$$
P46031


 26 28  0  0  0  0  0  0  0  0999 V2000
   -6.9324    3.7501  -14.4217 N   0  0  0  0  0  0  0  0  0  0  0  0
   -7.1679    4.9533  -15.3370 C   0  0  0  0  0  0  0  0  0  0  0  0
   -6.8356    6.0615  -15.2255 O   0  0  0  0  0  0  0  0  0  0  0  0
   -7.3868    2.9234  -14.7031 H   0  0  0  0  0  0  0  0  0  0  0  0
   -7.8668    4.5104  -16.5191 C   0  0  0  0  0  0  0  0  0  0  0  0
   -9.1175    3.9378  -16.6570 C   0  0  0  0  0  0  0  0  0  0  0  0
   -9.3212    3.8247  -18.0404 C   0  0  0  0  0  0  0  0  0  0  0  0
   -8.2537    4.2177  -18.7356 N   0  0  0  0  0  0  0  0  0  0  0  0
   -7.3657    4.5965  -17.7945 N   0  0  0  0  0  0  0  0  0  0  0  0
   -6.0289    4.9595  -18.2269 C   0  0  0  0  0  0  0  0  0  0  0  0
   -5.8104    6.4661  -18.3959 C   0  0  0  0  0  0  0  0  0  0  0  0
   -4.3372    6.6744  -18.0780 C   0  0  0  0  0  0  0  0  0  0  0  0
   -4.0792    5.6957  -16.9444 C   0  0  0  0  0  0  0  0  0  0  0  0
   -4.8720    4.4579  -17.3420 C   0  0  0  0  0  0  0  0  0  0  0  0
   -6.1442    3.6279  -13.1998 C   0  0  0  0  0  0  0  0  0  0  0  0
   -5.6280    2.2004  -13.1219 C   0  0  0  0  0  0  0  0  0  0  0  0
   -8.1078    5.0421  -12.1680 C   0  0  0  0  0  0  0  0  0  0  0  0
   -6.8541    4.2053  -11.9278 C   0  0  0  0  0  0  0  0  0  0  0  0
   -7.0818    3.2818  -10.7998 N   0  0  0  0  0  0  0  0  0  0  0  0
   -6.6295    3.6765   -9.9751 H   0  0  0  0  0  0  0  0  0  0  0  0
   -8.4857    3.0238  -10.4639 C   0  0  0  0  0  0  0  0  0  0  0  0
   -8.6860    3.1864   -8.9843 C   0  0  0  0  0  0  0  0  0  0  0  0
   -9.3977    2.3340   -8.1580 C   0  0  0  0  0  0  0  0  0  0  0  0
   -9.4420    2.9581   -6.5617 S   0  0  0  0  0  0  0  0  0  0  0  0
   -8.5196    4.3065   -7.0818 C   0  0  0  0  0  0  0  0  0  0  0  0
   -8.1714    4.3165   -8.3482 N   0  0  0  0  0  0  0  0  0  0  0  0
 18 17  1  0  0  0
 18 19  1  0  0  0
 19 21  1  0  0  0
 21 22  1  0  0  0
 22 23  2  0  0  0
 23 24  1  0  0  0
 24 25  1  0  0  0
 25 26  2  0  0  0
 18 15  1  0  0  0
 15 16  1  0  0  0
 15  1  1  0  0  0
  1  2  1  0  0  0
  2  3  2  0  0  0
  2  5  1  0  0  0
  5  6  2  0  0  0
  6  7  1  0  0  0
  7  8  2  0  0  0
  8  9  1  0  0  0
  9 10  1  0  0  0
 10 11  1  0  0  0
 11 12  1  0  0  0
 12 13  1  0  0  0
 13 14  1  0  0  0
 26 22  1  0  0  0
  9  5  1  0  0  0
 14 10  1  0  0  0
 19 20  1  0  0  0
  1  4  1  0  0  0
M  END
> <minimizedAffinity>
-6.23641

> <minimizedRMSD>
1.84542

$$$$
P46357


 11 11  0  0  0  0  0  0  0  0999 V2000
   -5.0930    5.0640  -18.3016 N   0  0  0  0  0  0  0  0  0  0  0  0
   -5.0870    6.3003  -17.5058 C   0  0  0  0  0  0  0  0  0  0  0  0
   -5.8802    6.1358  -16.2089 C   0  0  0  0  0  0  0  0  0  0  0  0
   -7.3172    5.7403  -16.4990 C   0  0  0  0  0  0  0  0  0  0  0  0
   -7.3592    4.5127  -17.3896 C   0  0  0  0  0  0  0  0  0  0  0  0
   -6.4892    4.6798  -18.6330 C   0  0  0  0  0  0  0  0  0  0  0  0
   -4.4002    5.2236  -19.5611 N   0  0  0  0  0  0  0  0  0  0  0  0
   -4.9051    4.6758  -20.2578 H   0  0  0  0  0  0  0  0  0  0  0  0
   -2.1299    5.8564  -20.3351 C   0  0  0  0  0  0  0  0  0  0  0  0
   -2.9992    4.8204  -19.6217 C   0  0  0  0  0  0  0  0  0  0  0  0
   -2.3639    4.3633  -18.3165 C   0  0  0  0  0  0  0  0  0  0  0  0
  9 10  1  0  0  0
 10 11  1  0  0  0
 10  7  1  0  0  0
  7  1  1  0  0  0
  1  2  1  0  0  0
  2  3  1  0  0  0
  3  4  1  0  0  0
  4  5  1  0  0  0
  5  6  1  0  0  0
  6  1  1  0  0  0
  7  8  1  0  0  0
M  END
> <minimizedAffinity>
-3.22852

> <minimizedRMSD>
0.68833

$$$$
P46413


 22 24  0  0  0  0  0  0  0  0999 V2000
   -5.6759    9.2001  -25.4738 C   0  0  0  0  0  0  0  0  0  0  0  0
   -5.6433    6.4450  -26.9501 C   0  0  0  0  0  0  0  0  0  0  0  0
   -6.7499    7.3676  -26.8861 N   0  0  0  0  0  0  0  0  0  0  0  0
   -6.8152    8.5605  -26.1998 C   0  0  0  0  0  0  0  0  0  0  0  0
   -8.0077    9.1135  -26.3380 N   0  0  0  0  0  0  0  0  0  0  0  0
   -8.7051    8.2914  -27.1876 C   0  0  0  0  0  0  0  0  0  0  0  0
  -10.0136    8.4124  -27.6766 C   0  0  0  0  0  0  0  0  0  0  0  0
  -10.4872    7.4496  -28.5755 C   0  0  0  0  0  0  0  0  0  0  0  0
   -9.6824    6.3795  -28.9645 C   0  0  0  0  0  0  0  0  0  0  0  0
   -8.3927    6.2189  -28.4521 C   0  0  0  0  0  0  0  0  0  0  0  0
   -7.9330    7.2011  -27.5679 C   0  0  0  0  0  0  0  0  0  0  0  0
   -6.0390    9.6624  -24.0638 C   0  0  0  0  0  0  0  0  0  0  0  0
   -5.3754    8.9069  -23.0249 N   0  0  0  0  0  0  0  0  0  0  0  0
   -5.2373    7.3724  -22.8257 C   0  0  0  0  0  0  0  0  0  0  0  0
   -5.7030    6.4872  -23.4270 O   0  0  0  0  0  0  0  0  0  0  0  0
   -4.9405    9.4536  -22.3312 H   0  0  0  0  0  0  0  0  0  0  0  0
   -4.3117    7.1469  -21.6384 C   0  0  0  0  0  0  0  0  0  0  0  0
   -5.0083    6.6968  -20.4520 N   0  0  0  0  0  0  0  0  0  0  0  0
   -5.6579    7.4912  -19.5475 C   0  0  0  0  0  0  0  0  0  0  0  0
   -5.9665    6.6495  -18.5027 C   0  0  0  0  0  0  0  0  0  0  0  0
   -5.5081    5.3804  -18.7442 N   0  0  0  0  0  0  0  0  0  0  0  0
   -4.9556    5.4339  -19.9351 C   0  0  0  0  0  0  0  0  0  0  0  0
  2  3  1  0  0  0
  3  4  1  0  0  0
  4  1  1  0  0  0
  1 12  1  0  0  0
 12 13  1  0  0  0
 13 14  1  0  0  0
 14 15  2  0  0  0
 14 17  1  0  0  0
 17 18  1  0  0  0
 18 19  1  0  0  0
 19 20  2  0  0  0
 20 21  1  0  0  0
 21 22  2  0  0  0
  4  5  2  0  0  0
  5  6  1  0  0  0
  6  7  2  0  0  0
  7  8  1  0  0  0
  8  9  2  0  0  0
  9 10  1  0  0  0
 10 11  2  0  0  0
 11  3  1  0  0  0
 22 18  1  0  0  0
 11  6  1  0  0  0
 13 16  1  0  0  0
M  END
> <minimizedAffinity>
-3.91107

> <minimizedRMSD>
1.08269

$$$$
P46436


 22 24  0  0  0  0  0  0  0  0999 V2000
   -5.9880   10.3381  -23.8229 N   0  0  0  0  0  0  0  0  0  0  0  0
   -5.8088   11.1794  -23.2749 H   0  0  0  0  0  0  0  0  0  0  0  0
   -4.9866    9.3167  -23.4565 C   0  0  0  0  0  0  0  0  0  0  0  0
   -5.5376    6.8594  -23.8456 C   0  0  0  0  0  0  0  0  0  0  0  0
   -5.5375    8.0117  -22.8506 C   0  0  0  0  0  0  0  0  0  0  0  0
   -4.7382    7.5555  -21.6163 C   0  0  0  0  0  0  0  0  0  0  0  0
   -5.2621    7.9690  -20.3311 N   0  0  0  0  0  0  0  0  0  0  0  0
   -5.2148    9.2239  -19.7935 C   0  0  0  0  0  0  0  0  0  0  0  0
   -5.6579    9.0702  -18.4997 C   0  0  0  0  0  0  0  0  0  0  0  0
   -5.9541    7.7581  -18.2364 N   0  0  0  0  0  0  0  0  0  0  0  0
   -5.7076    7.1191  -19.3572 C   0  0  0  0  0  0  0  0  0  0  0  0
   -5.9553   10.6957  -25.2590 C   0  0  0  0  0  0  0  0  0  0  0  0
   -6.9024    9.8857  -26.0876 C   0  0  0  0  0  0  0  0  0  0  0  0
   -6.6528    8.6762  -26.5541 N   0  0  0  0  0  0  0  0  0  0  0  0
   -7.8249    8.2352  -27.1095 C   0  0  0  0  0  0  0  0  0  0  0  0
   -8.1331    6.9839  -27.6605 C   0  0  0  0  0  0  0  0  0  0  0  0
   -9.4210    6.7675  -28.1590 C   0  0  0  0  0  0  0  0  0  0  0  0
  -10.3855    7.7728  -28.0967 C   0  0  0  0  0  0  0  0  0  0  0  0
  -10.0970    9.0266  -27.5442 C   0  0  0  0  0  0  0  0  0  0  0  0
   -8.7985    9.2289  -27.0635 C   0  0  0  0  0  0  0  0  0  0  0  0
   -8.1579   10.2984  -26.4796 N   0  0  0  0  0  0  0  0  0  0  0  0
   -8.6986   11.6286  -26.3473 C   0  0  0  0  0  0  0  0  0  0  0  0
  5  4  1  0  0  0
  5  3  1  0  0  0
  3  1  1  0  0  0
  1 12  1  0  0  0
 12 13  1  0  0  0
 13 14  2  0  0  0
 14 15  1  0  0  0
 15 16  2  0  0  0
 16 17  1  0  0  0
 17 18  2  0  0  0
 18 19  1  0  0  0
 19 20  2  0  0  0
 20 21  1  0  0  0
 21 22  1  0  0  0
  5  6  1  0  0  0
  6  7  1  0  0  0
  7  8  1  0  0  0
  8  9  2  0  0  0
  9 10  1  0  0  0
 10 11  2  0  0  0
 21 13  1  0  0  0
 11  7  1  0  0  0
 20 15  1  0  0  0
  1  2  1  0  0  0
M  END
> <minimizedAffinity>
-3.57696

> <minimizedRMSD>
0.99273

$$$$
P46641


 14 15  0  0  0  0  0  0  0  0999 V2000
   -7.2037    3.8376  -13.8948 S   0  0  0  0  0  0  0  0  0  0  0  0
   -7.7546    5.4325  -13.1819 C   0  0  0  0  0  0  0  0  0  0  0  0
   -8.2902    5.1848  -11.7708 C   0  0  0  0  0  0  0  0  0  0  0  0
   -7.2628    5.4548  -10.6723 C   0  0  0  0  0  0  0  0  0  0  0  0
   -5.8247    5.2712  -11.1416 C   0  0  0  0  0  0  0  0  0  0  0  0
   -5.4650    6.0863  -12.3105 N   0  0  0  0  0  0  0  0  0  0  0  0
   -6.6197    6.4685  -13.1351 C   0  0  0  0  0  0  0  0  0  0  0  0
   -4.8170    5.5524  -12.8896 H   0  0  0  0  0  0  0  0  0  0  0  0
   -8.6290    4.6443  -17.5098 C   0  0  0  0  0  0  0  0  0  0  0  0
   -8.6101    4.3325  -16.1760 C   0  0  0  0  0  0  0  0  0  0  0  0
   -7.3608    4.2706  -15.6004 C   0  0  0  0  0  0  0  0  0  0  0  0
   -6.2161    4.5280  -16.2583 N   0  0  0  0  0  0  0  0  0  0  0  0
   -6.3576    4.8091  -17.5550 C   0  0  0  0  0  0  0  0  0  0  0  0
   -7.5149    4.8961  -18.2181 N   0  0  0  0  0  0  0  0  0  0  0  0
  9 10  2  0  0  0
 10 11  1  0  0  0
 11  1  1  0  0  0
  2  1  1  0  0  0
  2  3  1  0  0  0
  3  4  1  0  0  0
  4  5  1  0  0  0
  5  6  1  0  0  0
  6  7  1  0  0  0
 11 12  2  0  0  0
 12 13  1  0  0  0
 13 14  2  0  0  0
 14  9  1  0  0  0
  7  2  1  0  0  0
  6  8  1  0  0  0
M  END
> <minimizedAffinity>
-3.67981

> <minimizedRMSD>
0.23886

$$$$
P46642


 17 18  0  0  0  0  0  0  0  0999 V2000
   -9.1911    5.3481  -14.4491 N   0  0  0  0  0  0  0  0  0  0  0  0
   -8.1531    5.0168  -13.5774 C   0  0  0  0  0  0  0  0  0  0  0  0
   -8.3904    4.2943  -12.4187 C   0  0  0  0  0  0  0  0  0  0  0  0
   -7.4352    3.9159  -11.5454 N   0  0  0  0  0  0  0  0  0  0  0  0
   -6.1785    4.1880  -11.9072 C   0  0  0  0  0  0  0  0  0  0  0  0
   -5.7978    4.7973  -13.0384 N   0  0  0  0  0  0  0  0  0  0  0  0
   -6.7939    5.1865  -13.8667 C   0  0  0  0  0  0  0  0  0  0  0  0
  -10.1264    5.2014  -14.1790 H   0  0  0  0  0  0  0  0  0  0  0  0
   -8.9881    5.7285  -15.3341 H   0  0  0  0  0  0  0  0  0  0  0  0
   -6.2222    6.0945  -15.3107 S   0  0  0  0  0  0  0  0  0  0  0  0
   -5.8782    4.7498  -16.5318 C   0  0  0  0  0  0  0  0  0  0  0  0
   -6.8116    4.8893  -17.7493 C   0  0  0  0  0  0  0  0  0  0  0  0
   -6.0612    4.6851  -19.0607 C   0  0  0  0  0  0  0  0  0  0  0  0
   -4.9113    5.6847  -19.1952 C   0  0  0  0  0  0  0  0  0  0  0  0
   -4.1359    5.8920  -17.9605 N   0  0  0  0  0  0  0  0  0  0  0  0
   -4.3915    4.8342  -16.9676 C   0  0  0  0  0  0  0  0  0  0  0  0
   -4.3933    6.7925  -17.5566 H   0  0  0  0  0  0  0  0  0  0  0  0
  1  2  1  0  0  0
  2  3  2  0  0  0
  3  4  1  0  0  0
  4  5  2  0  0  0
  5  6  1  0  0  0
  6  7  2  0  0  0
  7 10  1  0  0  0
 11 10  1  0  0  0
 11 12  1  0  0  0
 12 13  1  0  0  0
 13 14  1  0  0  0
 14 15  1  0  0  0
 15 16  1  0  0  0
  7  2  1  0  0  0
 16 11  1  0  0  0
  1  8  1  0  0  0
  1  9  1  0  0  0
 15 17  1  0  0  0
M  END
> <minimizedAffinity>
-4.15037

> <minimizedRMSD>
1.13229

$$$$
P46646


 16 17  0  0  0  0  0  0  0  0999 V2000
   -6.1149    4.7888  -17.2695 C   0  0  0  0  0  0  0  0  0  0  0  0
   -6.9755    4.7802  -18.2975 N   0  0  0  0  0  0  0  0  0  0  0  0
   -8.2661    4.5615  -17.9967 C   0  0  0  0  0  0  0  0  0  0  0  0
   -8.7248    4.3510  -16.7167 C   0  0  0  0  0  0  0  0  0  0  0  0
   -7.7874    4.4217  -15.7076 C   0  0  0  0  0  0  0  0  0  0  0  0
   -6.4836    4.6449  -15.9814 N   0  0  0  0  0  0  0  0  0  0  0  0
   -8.0873    4.1369  -14.2505 C   0  0  0  0  0  0  0  0  0  0  0  0
   -8.3234    5.3639  -13.3575 C   0  0  0  0  0  0  0  0  0  0  0  0
   -8.2695    5.0273  -11.8644 C   0  0  0  0  0  0  0  0  0  0  0  0
   -8.3738    3.5315  -11.5986 C   0  0  0  0  0  0  0  0  0  0  0  0
   -7.3110    2.7752  -12.2582 N   0  0  0  0  0  0  0  0  0  0  0  0
   -6.9912    3.2574  -13.6113 C   0  0  0  0  0  0  0  0  0  0  0  0
   -7.6037    1.8004  -12.3250 H   0  0  0  0  0  0  0  0  0  0  0  0
   -4.6214    4.8604  -17.5117 C   0  0  0  0  0  0  0  0  0  0  0  0
   -3.6147    5.6898  -19.4834 C   0  0  0  0  0  0  0  0  0  0  0  0
   -4.1640    4.5618  -18.8281 O   0  0  0  0  0  0  0  0  0  0  0  0
 15 16  1  0  0  0
 16 14  1  0  0  0
 14  1  1  0  0  0
  1  2  2  0  0  0
  2  3  1  0  0  0
  3  4  2  0  0  0
  4  5  1  0  0  0
  7  5  1  0  0  0
  7  8  1  0  0  0
  8  9  1  0  0  0
  9 10  1  0  0  0
 10 11  1  0  0  0
 11 12  1  0  0  0
  5  6  2  0  0  0
  6  1  1  0  0  0
 12  7  1  0  0  0
 11 13  1  0  0  0
M  END
> <minimizedAffinity>
-4.95010

> <minimizedRMSD>
1.68596

$$$$
P46795


 23 25  0  0  0  0  0  0  0  0999 V2000
   -6.6194    4.5698  -11.8086 C   0  0  0  0  0  0  0  0  0  0  0  0
   -5.5590    4.8017  -11.3759 O   0  0  0  0  0  0  0  0  0  0  0  0
   -7.9647    4.3194  -11.0855 N   0  0  0  0  0  0  0  0  0  0  0  0
   -8.7412    4.2197  -11.6825 H   0  0  0  0  0  0  0  0  0  0  0  0
   -8.2558    4.2119   -9.7262 C   0  0  0  0  0  0  0  0  0  0  0  0
   -7.9701    5.2879   -8.8680 C   0  0  0  0  0  0  0  0  0  0  0  0
   -8.2105    5.1999   -7.4961 C   0  0  0  0  0  0  0  0  0  0  0  0
   -8.7331    4.0223   -7.0014 C   0  0  0  0  0  0  0  0  0  0  0  0
   -9.0148    2.9511   -7.8426 C   0  0  0  0  0  0  0  0  0  0  0  0
   -8.7951    3.0296   -9.2130 C   0  0  0  0  0  0  0  0  0  0  0  0
   -9.4888    1.8041   -7.0117 C   0  0  0  0  0  0  0  0  0  0  0  0
   -9.7696    2.3653   -5.6657 N   0  0  0  0  0  0  0  0  0  0  0  0
   -9.0552    3.6542   -5.5930 C   0  0  0  0  0  0  0  0  0  0  0  0
   -9.4293    1.7323   -4.9418 H   0  0  0  0  0  0  0  0  0  0  0  0
   -7.3851    4.5334  -15.5893 C   0  0  0  0  0  0  0  0  0  0  0  0
   -6.0755    4.4072  -15.4785 N   0  0  0  0  0  0  0  0  0  0  0  0
   -5.7197    4.3667  -14.1536 C   0  0  0  0  0  0  0  0  0  0  0  0
   -6.7569    4.4376  -13.2492 C   0  0  0  0  0  0  0  0  0  0  0  0
   -8.2427    4.4935  -14.0876 S   0  0  0  0  0  0  0  0  0  0  0  0
   -7.0799    4.6614  -18.0637 C   0  0  0  0  0  0  0  0  0  0  0  0
   -8.0730    4.7373  -16.9178 C   0  0  0  0  0  0  0  0  0  0  0  0
   -9.1102    3.7788  -17.0940 O   0  0  0  0  0  0  0  0  0  0  0  0
   -8.7293    2.8867  -17.0945 H   0  0  0  0  0  0  0  0  0  0  0  0
 21 20  1  0  0  0
 21 22  1  0  0  0
 21 15  1  0  0  0
 15 16  2  0  0  0
 16 17  1  0  0  0
 17 18  2  0  0  0
 18  1  1  0  0  0
  1  2  2  0  0  0
  1  3  1  0  0  0
  3  5  1  0  0  0
  5  6  2  0  0  0
  6  7  1  0  0  0
  7  8  2  0  0  0
  8  9  1  0  0  0
  9 10  2  0  0  0
  9 11  1  0  0  0
 11 12  1  0  0  0
 12 13  1  0  0  0
 18 19  1  0  0  0
 19 15  1  0  0  0
 10  5  1  0  0  0
 13  8  1  0  0  0
 22 23  1  0  0  0
  3  4  1  0  0  0
 12 14  1  0  0  0
M  END
> <minimizedAffinity>
-6.35357

> <minimizedRMSD>
1.65153

$$$$
P46873


 15 17  0  0  0  0  0  0  0  0999 V2000
   -9.2053    4.2798  -17.4336 C   0  0  0  0  0  0  0  0  0  0  0  0
   -8.4902    4.3616  -18.6237 C   0  0  0  0  0  0  0  0  0  0  0  0
   -7.1104    4.5915  -18.6166 C   0  0  0  0  0  0  0  0  0  0  0  0
   -6.4361    4.7237  -17.3864 C   0  0  0  0  0  0  0  0  0  0  0  0
   -5.0787    4.9168  -17.0004 C   0  0  0  0  0  0  0  0  0  0  0  0
   -5.0225    4.9046  -15.6229 C   0  0  0  0  0  0  0  0  0  0  0  0
   -6.3010    4.7454  -15.1580 N   0  0  0  0  0  0  0  0  0  0  0  0
   -7.1796    4.6202  -16.2086 C   0  0  0  0  0  0  0  0  0  0  0  0
   -8.5626    4.4058  -16.2005 C   0  0  0  0  0  0  0  0  0  0  0  0
   -6.5549    4.7236  -14.2071 H   0  0  0  0  0  0  0  0  0  0  0  0
   -3.8514    5.1072  -17.9551 C   0  0  0  0  0  0  0  0  0  0  0  0
   -3.8788    4.7021  -19.2075 N   0  0  0  0  0  0  0  0  0  0  0  0
   -2.7129    5.0544  -19.8438 C   0  0  0  0  0  0  0  0  0  0  0  0
   -1.7772    5.6889  -19.0564 C   0  0  0  0  0  0  0  0  0  0  0  0
   -2.3906    5.8691  -17.4652 S   0  0  0  0  0  0  0  0  0  0  0  0
  1  2  2  0  0  0
  2  3  1  0  0  0
  3  4  2  0  0  0
  4  5  1  0  0  0
  5 11  1  0  0  0
 11 12  2  0  0  0
 12 13  1  0  0  0
 13 14  2  0  0  0
 14 15  1  0  0  0
  5  6  2  0  0  0
  6  7  1  0  0  0
  7  8  1  0  0  0
  8  9  2  0  0  0
  9  1  1  0  0  0
  8  4  1  0  0  0
 15 11  1  0  0  0
  7 10  1  0  0  0
M  END
> <minimizedAffinity>
-5.47188

> <minimizedRMSD>
1.56140

$$$$
P47031


 12 12  0  0  0  0  0  0  0  0999 V2000
   -4.7681    5.2992  -19.1258 C   0  0  0  0  0  0  0  0  0  0  0  0
   -3.9302    5.0926  -18.3395 O   0  0  0  0  0  0  0  0  0  0  0  0
   -6.3112    5.1588  -19.0127 N   0  0  0  0  0  0  0  0  0  0  0  0
   -6.8026    5.3229  -19.8499 H   0  0  0  0  0  0  0  0  0  0  0  0
   -7.1075    4.8404  -17.9257 C   0  0  0  0  0  0  0  0  0  0  0  0
   -8.3465    4.2572  -18.1079 C   0  0  0  0  0  0  0  0  0  0  0  0
   -9.1832    3.9497  -17.0995 N   0  0  0  0  0  0  0  0  0  0  0  0
   -8.7512    4.2920  -15.8739 C   0  0  0  0  0  0  0  0  0  0  0  0
   -7.5825    4.8870  -15.5777 N   0  0  0  0  0  0  0  0  0  0  0  0
   -6.7603    5.1120  -16.6212 C   0  0  0  0  0  0  0  0  0  0  0  0
   -3.0835    6.2015  -20.7718 C   0  0  0  0  0  0  0  0  0  0  0  0
   -4.5157    5.7648  -20.5558 C   0  0  0  0  0  0  0  0  0  0  0  0
 11 12  1  0  0  0
 12  1  1  0  0  0
  1  2  2  0  0  0
  1  3  1  0  0  0
  3  5  1  0  0  0
  5  6  2  0  0  0
  6  7  1  0  0  0
  7  8  2  0  0  0
  8  9  1  0  0  0
  9 10  2  0  0  0
 10  5  1  0  0  0
  3  4  1  0  0  0
M  END
> <minimizedAffinity>
-4.28214

> <minimizedRMSD>
0.55716

$$$$
P47041


 12 12  0  0  0  0  0  0  0  0999 V2000
   -4.8033    5.2252  -18.7519 C   0  0  0  0  0  0  0  0  0  0  0  0
   -4.2064    5.4187  -17.7656 O   0  0  0  0  0  0  0  0  0  0  0  0
   -6.3036    4.8887  -18.9705 N   0  0  0  0  0  0  0  0  0  0  0  0
   -6.5834    4.8462  -19.9135 H   0  0  0  0  0  0  0  0  0  0  0  0
   -7.3063    4.6400  -18.0599 C   0  0  0  0  0  0  0  0  0  0  0  0
   -7.1604    4.9491  -16.7282 C   0  0  0  0  0  0  0  0  0  0  0  0
   -8.2316    4.6425  -15.9268 C   0  0  0  0  0  0  0  0  0  0  0  0
   -9.3679    4.1030  -16.3926 N   0  0  0  0  0  0  0  0  0  0  0  0
   -9.4048    3.8468  -17.7070 C   0  0  0  0  0  0  0  0  0  0  0  0
   -8.4136    4.0852  -18.5727 N   0  0  0  0  0  0  0  0  0  0  0  0
   -4.5387    6.5002  -20.8856 C   0  0  0  0  0  0  0  0  0  0  0  0
   -4.1446    5.2567  -20.1214 C   0  0  0  0  0  0  0  0  0  0  0  0
 11 12  1  0  0  0
 12  1  1  0  0  0
  1  2  2  0  0  0
  1  3  1  0  0  0
  3  5  1  0  0  0
  5  6  2  0  0  0
  6  7  1  0  0  0
  7  8  2  0  0  0
  8  9  1  0  0  0
  9 10  2  0  0  0
 10  5  1  0  0  0
  3  4  1  0  0  0
M  END
> <minimizedAffinity>
-4.96226

> <minimizedRMSD>
0.46975

$$$$
P47138


 20 22  0  0  0  0  0  0  0  0999 V2000
   -5.9451    5.3436  -17.8080 C   0  0  0  0  0  0  0  0  0  0  0  0
   -7.2699    4.5029  -17.9614 C   0  0  0  0  0  0  0  0  0  0  0  0
   -7.9599    4.0968  -16.6578 C   0  0  0  0  0  0  0  0  0  0  0  0
   -7.8147    5.1162  -15.6836 O   0  0  0  0  0  0  0  0  0  0  0  0
   -6.4637    5.2827  -15.2813 C   0  0  0  0  0  0  0  0  0  0  0  0
   -5.4590    5.0236  -16.4050 C   0  0  0  0  0  0  0  0  0  0  0  0
   -5.0124    4.9143  -18.9684 C   0  0  0  0  0  0  0  0  0  0  0  0
   -5.4387    4.6788  -20.1999 N   0  0  0  0  0  0  0  0  0  0  0  0
   -4.3809    4.4555  -21.0547 C   0  0  0  0  0  0  0  0  0  0  0  0
   -3.1362    4.5275  -20.4793 C   0  0  0  0  0  0  0  0  0  0  0  0
   -3.2940    4.8910  -18.8214 S   0  0  0  0  0  0  0  0  0  0  0  0
   -6.2398    6.7861  -17.9502 N   0  0  0  0  0  0  0  0  0  0  0  0
   -6.8823    6.8726  -18.7377 H   0  0  0  0  0  0  0  0  0  0  0  0
   -5.1704    7.7681  -18.1773 C   0  0  0  0  0  0  0  0  0  0  0  0
   -2.9578    9.1636  -14.8758 C   0  0  0  0  0  0  0  0  0  0  0  0
   -2.2893    8.5028  -15.8304 N   0  0  0  0  0  0  0  0  0  0  0  0
   -3.0299    8.0715  -16.8726 C   0  0  0  0  0  0  0  0  0  0  0  0
   -4.3947    8.2516  -16.9883 C   0  0  0  0  0  0  0  0  0  0  0  0
   -4.9506    8.9785  -15.9546 C   0  0  0  0  0  0  0  0  0  0  0  0
   -4.2668    9.4412  -14.8876 N   0  0  0  0  0  0  0  0  0  0  0  0
 15 16  2  0  0  0
 16 17  1  0  0  0
 17 18  2  0  0  0
 18 14  1  0  0  0
 14 12  1  0  0  0
 12  1  1  0  0  0
  1  7  1  0  0  0
  7  8  2  0  0  0
  8  9  1  0  0  0
  9 10  2  0  0  0
 10 11  1  0  0  0
  1  2  1  0  0  0
  2  3  1  0  0  0
  3  4  1  0  0  0
  4  5  1  0  0  0
  5  6  1  0  0  0
 18 19  1  0  0  0
 19 20  2  0  0  0
 20 15  1  0  0  0
  6  1  1  0  0  0
 11  7  1  0  0  0
 12 13  1  0  0  0
M  END
> <minimizedAffinity>
-4.02489

> <minimizedRMSD>
1.76210

$$$$
P47163


 22 23  0  0  0  0  0  0  0  0999 V2000
   -7.4495    4.7252  -17.2039 C   0  0  0  0  0  0  0  0  0  0  0  0
   -3.8274    5.0098  -20.6098 C   0  0  0  0  0  0  0  0  0  0  0  0
   -4.3872    5.1403  -19.2426 C   0  0  0  0  0  0  0  0  0  0  0  0
   -3.7119    5.5395  -18.1095 C   0  0  0  0  0  0  0  0  0  0  0  0
   -4.7769    5.5627  -16.7704 S   0  0  0  0  0  0  0  0  0  0  0  0
   -6.0546    4.9426  -17.7644 C   0  0  0  0  0  0  0  0  0  0  0  0
   -5.7157    4.8127  -19.0340 N   0  0  0  0  0  0  0  0  0  0  0  0
   -8.3651    3.8930  -18.1210 C   0  0  0  0  0  0  0  0  0  0  0  0
   -8.9770    2.8954  -17.4283 F   0  0  0  0  0  0  0  0  0  0  0  0
   -7.7256    3.3004  -19.1516 F   0  0  0  0  0  0  0  0  0  0  0  0
   -9.3695    4.6393  -18.6312 F   0  0  0  0  0  0  0  0  0  0  0  0
   -7.3420    4.1504  -15.8650 O   0  0  0  0  0  0  0  0  0  0  0  0
   -8.1108    4.7893  -14.9490 C   0  0  0  0  0  0  0  0  0  0  0  0
   -9.0859    5.4725  -15.2171 O   0  0  0  0  0  0  0  0  0  0  0  0
   -7.5978    4.6047  -13.5811 C   0  0  0  0  0  0  0  0  0  0  0  0
   -8.5064    4.5228  -12.5969 C   0  0  0  0  0  0  0  0  0  0  0  0
   -8.2415    4.3531  -11.1714 C   0  0  0  0  0  0  0  0  0  0  0  0
   -8.2617    3.1275  -10.5403 C   0  0  0  0  0  0  0  0  0  0  0  0
   -8.1031    3.1554   -9.1717 C   0  0  0  0  0  0  0  0  0  0  0  0
   -7.9330    4.2912   -8.4661 N   0  0  0  0  0  0  0  0  0  0  0  0
   -7.9296    5.4208   -9.1837 C   0  0  0  0  0  0  0  0  0  0  0  0
   -8.0815    5.5172  -10.5111 N   0  0  0  0  0  0  0  0  0  0  0  0
  2  3  1  0  0  0
  3  4  2  0  0  0
  4  5  1  0  0  0
  5  6  1  0  0  0
  6  1  1  0  0  0
  1 12  1  0  0  0
 12 13  1  0  0  0
 13 14  2  0  0  0
 13 15  1  0  0  0
 15 16  2  0  0  0
 16 17  1  0  0  0
 17 18  2  0  0  0
 18 19  1  0  0  0
 19 20  2  0  0  0
 20 21  1  0  0  0
 21 22  2  0  0  0
  1  8  1  0  0  0
  8  9  1  0  0  0
  8 10  1  0  0  0
  8 11  1  0  0  0
  6  7  2  0  0  0
  7  3  1  0  0  0
 22 17  1  0  0  0
M  END
> <minimizedAffinity>
-6.31423

> <minimizedRMSD>
0.77014

$$$$
P47266


 18 20  0  0  0  0  0  0  0  0999 V2000
   -7.4013    4.9782  -14.6167 C   0  0  0  0  0  0  0  0  0  0  0  0
   -6.0857    5.2376  -14.2168 C   0  0  0  0  0  0  0  0  0  0  0  0
   -5.0929    5.2947  -15.1778 C   0  0  0  0  0  0  0  0  0  0  0  0
   -5.3041    5.1157  -16.4948 N   0  0  0  0  0  0  0  0  0  0  0  0
   -6.5554    4.8445  -16.9016 C   0  0  0  0  0  0  0  0  0  0  0  0
   -6.7791    4.6416  -18.2584 C   0  0  0  0  0  0  0  0  0  0  0  0
   -8.0453    4.3449  -18.7655 C   0  0  0  0  0  0  0  0  0  0  0  0
   -9.1220    4.2493  -17.9011 C   0  0  0  0  0  0  0  0  0  0  0  0
   -8.9243    4.4571  -16.5369 C   0  0  0  0  0  0  0  0  0  0  0  0
   -7.6485    4.7599  -16.0050 C   0  0  0  0  0  0  0  0  0  0  0  0
   -8.5598    4.9286  -13.6348 C   0  0  0  0  0  0  0  0  0  0  0  0
   -7.9761    5.4154  -11.2008 C   0  0  0  0  0  0  0  0  0  0  0  0
   -7.7417    4.7193  -10.0995 N   0  0  0  0  0  0  0  0  0  0  0  0
   -7.9140    3.4034  -10.4414 C   0  0  0  0  0  0  0  0  0  0  0  0
   -8.2036    3.2852  -11.7773 C   0  0  0  0  0  0  0  0  0  0  0  0
   -8.2243    4.5697  -12.2597 N   0  0  0  0  0  0  0  0  0  0  0  0
   -8.9214    7.5970  -11.3231 O   0  0  0  0  0  0  0  0  0  0  0  0
   -7.9472    6.8571  -11.1974 C   0  0  0  0  0  0  0  0  0  0  0  0
 17 18  2  0  0  0
 18 12  1  0  0  0
 12 13  2  0  0  0
 13 14  1  0  0  0
 14 15  2  0  0  0
 15 16  1  0  0  0
 16 11  1  0  0  0
 11  1  1  0  0  0
  1  2  2  0  0  0
  2  3  1  0  0  0
  3  4  2  0  0  0
  4  5  1  0  0  0
  5  6  2  0  0  0
  6  7  1  0  0  0
  7  8  2  0  0  0
  8  9  1  0  0  0
  9 10  2  0  0  0
 16 12  1  0  0  0
 10  1  1  0  0  0
 10  5  1  0  0  0
M  END
> <minimizedAffinity>
-5.84676

> <minimizedRMSD>
1.13620

$$$$
P47276


 24 27  0  0  0  0  0  0  0  0999 V2000
   -8.5557    6.8889  -12.5768 C   0  0  0  0  0  0  0  0  0  0  0  0
   -8.2068    5.7978  -11.8357 N   0  0  0  0  0  0  0  0  0  0  0  0
   -7.6124    5.0146  -12.7133 C   0  0  0  0  0  0  0  0  0  0  0  0
   -7.6849    5.5795  -13.9725 N   0  0  0  0  0  0  0  0  0  0  0  0
   -8.3690    6.7600  -13.8974 N   0  0  0  0  0  0  0  0  0  0  0  0
   -6.9347    5.3155  -15.1369 C   0  0  0  0  0  0  0  0  0  0  0  0
   -5.5729    5.6150  -15.1038 C   0  0  0  0  0  0  0  0  0  0  0  0
   -4.8789    5.5412  -16.2890 C   0  0  0  0  0  0  0  0  0  0  0  0
   -5.4402    5.2040  -17.4668 N   0  0  0  0  0  0  0  0  0  0  0  0
   -6.7444    4.8674  -17.4871 C   0  0  0  0  0  0  0  0  0  0  0  0
   -7.2993    4.4582  -18.6927 C   0  0  0  0  0  0  0  0  0  0  0  0
   -8.6248    4.0334  -18.7912 C   0  0  0  0  0  0  0  0  0  0  0  0
   -9.4279    4.0275  -17.6608 C   0  0  0  0  0  0  0  0  0  0  0  0
   -8.9105    4.4739  -16.4447 C   0  0  0  0  0  0  0  0  0  0  0  0
   -7.5628    4.9009  -16.3359 C   0  0  0  0  0  0  0  0  0  0  0  0
   -6.9870    3.7869  -12.3641 C   0  0  0  0  0  0  0  0  0  0  0  0
   -6.0281    3.6254  -11.4754 N   0  0  0  0  0  0  0  0  0  0  0  0
   -5.7906    2.2765  -11.4408 C   0  0  0  0  0  0  0  0  0  0  0  0
   -6.6049    1.6126  -12.3242 C   0  0  0  0  0  0  0  0  0  0  0  0
   -7.3759    2.5841  -12.8984 N   0  0  0  0  0  0  0  0  0  0  0  0
   -8.0808    2.4463  -13.5717 H   0  0  0  0  0  0  0  0  0  0  0  0
   -9.0477    8.1477  -11.9420 C   0  0  0  0  0  0  0  0  0  0  0  0
   -7.0261    9.3550  -11.5999 C   0  0  0  0  0  0  0  0  0  0  0  0
   -8.1459    8.7310  -10.9852 O   0  0  0  0  0  0  0  0  0  0  0  0
 23 24  1  0  0  0
 24 22  1  0  0  0
 22  1  1  0  0  0
  1  2  1  0  0  0
  2  3  2  0  0  0
  3 16  1  0  0  0
 16 17  2  0  0  0
 17 18  1  0  0  0
 18 19  2  0  0  0
 19 20  1  0  0  0
  3  4  1  0  0  0
  4  6  1  0  0  0
  6  7  2  0  0  0
  7  8  1  0  0  0
  8  9  2  0  0  0
  9 10  1  0  0  0
 10 11  2  0  0  0
 11 12  1  0  0  0
 12 13  2  0  0  0
 13 14  1  0  0  0
 14 15  2  0  0  0
  4  5  1  0  0  0
  5  1  2  0  0  0
 20 16  1  0  0  0
 15  6  1  0  0  0
 15 10  1  0  0  0
 20 21  1  0  0  0
M  END
> <minimizedAffinity>
-6.15180

> <minimizedRMSD>
1.24965

$$$$
P47285


 26 29  0  0  0  0  0  0  0  0999 V2000
   -8.3714    6.1354  -11.9589 C   0  0  0  0  0  0  0  0  0  0  0  0
   -8.0346    4.9605  -11.0189 C   0  0  0  0  0  0  0  0  0  0  0  0
   -7.0496    3.9571  -11.6315 C   0  0  0  0  0  0  0  0  0  0  0  0
   -7.3178    3.6898  -13.1135 C   0  0  0  0  0  0  0  0  0  0  0  0
   -7.4403    4.9499  -13.8820 N   0  0  0  0  0  0  0  0  0  0  0  0
   -7.3647    6.1999  -13.1103 C   0  0  0  0  0  0  0  0  0  0  0  0
   -6.7450    4.9435  -15.1107 C   0  0  0  0  0  0  0  0  0  0  0  0
   -5.3795    5.2396  -15.1620 C   0  0  0  0  0  0  0  0  0  0  0  0
   -4.7505    5.3017  -16.3875 C   0  0  0  0  0  0  0  0  0  0  0  0
   -5.3731    5.1008  -17.5614 N   0  0  0  0  0  0  0  0  0  0  0  0
   -6.6775    4.7766  -17.5334 C   0  0  0  0  0  0  0  0  0  0  0  0
   -7.3239    4.5553  -18.7424 C   0  0  0  0  0  0  0  0  0  0  0  0
   -8.6732    4.2028  -18.8090 C   0  0  0  0  0  0  0  0  0  0  0  0
   -9.4049    4.0714  -17.6400 C   0  0  0  0  0  0  0  0  0  0  0  0
   -8.7856    4.3131  -16.4144 C   0  0  0  0  0  0  0  0  0  0  0  0
   -7.4176    4.6654  -16.3325 C   0  0  0  0  0  0  0  0  0  0  0  0
   -9.1530    8.5502  -11.6774 N   0  0  0  0  0  0  0  0  0  0  0  0
   -8.9320    9.5743  -10.7949 C   0  0  0  0  0  0  0  0  0  0  0  0
   -8.0535    9.0719   -9.8703 C   0  0  0  0  0  0  0  0  0  0  0  0
   -7.7236    7.7788  -10.1716 N   0  0  0  0  0  0  0  0  0  0  0  0
   -8.4171    7.4624  -11.2509 C   0  0  0  0  0  0  0  0  0  0  0  0
   -9.9822    8.6620  -12.8659 C   0  0  0  0  0  0  0  0  0  0  0  0
  -11.2231    9.5441  -12.6518 C   0  0  0  0  0  0  0  0  0  0  0  0
  -12.0610   11.8007  -12.5684 C   0  0  0  0  0  0  0  0  0  0  0  0
  -11.0673   10.9124  -13.1891 N   0  0  0  0  0  0  0  0  0  0  0  0
  -11.2396   10.9392  -14.6443 C   0  0  0  0  0  0  0  0  0  0  0  0
 24 25  1  0  0  0
 25 26  1  0  0  0
 25 23  1  0  0  0
 23 22  1  0  0  0
 22 17  1  0  0  0
 17 18  1  0  0  0
 18 19  2  0  0  0
 19 20  1  0  0  0
 20 21  2  0  0  0
  1 21  1  0  0  0
  1  2  1  0  0  0
  2  3  1  0  0  0
  3  4  1  0  0  0
  4  5  1  0  0  0
  5  7  1  0  0  0
  7  8  2  0  0  0
  8  9  1  0  0  0
  9 10  2  0  0  0
 10 11  1  0  0  0
 11 12  2  0  0  0
 12 13  1  0  0  0
 13 14  2  0  0  0
 14 15  1  0  0  0
 15 16  2  0  0  0
  5  6  1  0  0  0
 21 17  1  0  0  0
  6  1  1  0  0  0
 16  7  1  0  0  0
 16 11  1  0  0  0
M  END
> <minimizedAffinity>
-6.52145

> <minimizedRMSD>
1.40197

$$$$
P47303


 25 27  0  0  0  0  0  0  0  0999 V2000
   -5.1326    7.0667  -12.9475 C   0  0  0  0  0  0  0  0  0  0  0  0
   -5.7846    8.0038  -13.1986 O   0  0  0  0  0  0  0  0  0  0  0  0
   -4.8558    5.7840  -13.7746 N   0  0  0  0  0  0  0  0  0  0  0  0
   -4.2029    5.1668  -13.3720 H   0  0  0  0  0  0  0  0  0  0  0  0
   -5.3799    5.3641  -14.9922 C   0  0  0  0  0  0  0  0  0  0  0  0
   -4.7300    5.5003  -16.2040 C   0  0  0  0  0  0  0  0  0  0  0  0
   -5.2975    5.2044  -17.4015 N   0  0  0  0  0  0  0  0  0  0  0  0
   -6.5921    4.8161  -17.4127 C   0  0  0  0  0  0  0  0  0  0  0  0
   -7.2485    4.5650  -18.6104 C   0  0  0  0  0  0  0  0  0  0  0  0
   -8.6103    4.2382  -18.6539 C   0  0  0  0  0  0  0  0  0  0  0  0
   -9.3474    4.1626  -17.4807 C   0  0  0  0  0  0  0  0  0  0  0  0
   -8.7073    4.3677  -16.2648 C   0  0  0  0  0  0  0  0  0  0  0  0
   -7.3366    4.6760  -16.2274 C   0  0  0  0  0  0  0  0  0  0  0  0
   -6.6795    4.8809  -15.0136 C   0  0  0  0  0  0  0  0  0  0  0  0
   -4.3818    6.9085  -11.6015 C   0  0  0  0  0  0  0  0  0  0  0  0
   -4.5718    5.5897  -10.9454 N   0  0  0  0  0  0  0  0  0  0  0  0
   -4.6471    4.8763  -11.6704 H   0  0  0  0  0  0  0  0  0  0  0  0
   -5.4706    4.9621   -8.7079 C   0  0  0  0  0  0  0  0  0  0  0  0
   -5.7793    5.5227  -10.0958 C   0  0  0  0  0  0  0  0  0  0  0  0
   -6.8202    4.7164  -10.8051 C   0  0  0  0  0  0  0  0  0  0  0  0
   -7.9982    5.1514  -11.3880 C   0  0  0  0  0  0  0  0  0  0  0  0
   -8.6233    4.1429  -12.0670 N   0  0  0  0  0  0  0  0  0  0  0  0
   -7.8505    3.0934  -11.9042 C   0  0  0  0  0  0  0  0  0  0  0  0
   -6.7754    3.3718  -11.1083 N   0  0  0  0  0  0  0  0  0  0  0  0
   -5.7693    2.3935  -10.7708 C   0  0  0  0  0  0  0  0  0  0  0  0
 19 18  1  0  0  0
 19 16  1  0  0  0
 16 15  1  0  0  0
 15  1  1  0  0  0
  1  2  2  0  0  0
  1  3  1  0  0  0
  3  5  1  0  0  0
  5  6  2  0  0  0
  6  7  1  0  0  0
  7  8  2  0  0  0
  8  9  1  0  0  0
  9 10  2  0  0  0
 10 11  1  0  0  0
 11 12  2  0  0  0
 12 13  1  0  0  0
 13 14  2  0  0  0
 19 20  1  0  0  0
 20 21  2  0  0  0
 21 22  1  0  0  0
 22 23  2  0  0  0
 23 24  1  0  0  0
 24 25  1  0  0  0
 14  5  1  0  0  0
 24 20  1  0  0  0
 13  8  1  0  0  0
 16 17  1  0  0  0
  3  4  1  0  0  0
M  END
> <minimizedAffinity>
-5.62122

> <minimizedRMSD>
1.54397

$$$$
P47304


 25 28  0  0  0  0  0  0  0  0999 V2000
   -5.8467    6.2052  -12.3299 C   0  0  0  0  0  0  0  0  0  0  0  0
   -5.2921    5.9407  -11.1564 N   0  0  0  0  0  0  0  0  0  0  0  0
   -5.0256    4.6028  -11.1511 C   0  0  0  0  0  0  0  0  0  0  0  0
   -5.3945    4.0342  -12.3420 C   0  0  0  0  0  0  0  0  0  0  0  0
   -5.8118    5.0737  -13.1427 N   0  0  0  0  0  0  0  0  0  0  0  0
   -6.1648    4.9490  -14.5004 C   0  0  0  0  0  0  0  0  0  0  0  0
   -5.2543    5.2326  -15.5018 C   0  0  0  0  0  0  0  0  0  0  0  0
   -5.5406    5.1290  -16.8191 N   0  0  0  0  0  0  0  0  0  0  0  0
   -6.7875    4.7555  -17.1744 C   0  0  0  0  0  0  0  0  0  0  0  0
   -7.1228    4.6305  -18.5159 C   0  0  0  0  0  0  0  0  0  0  0  0
   -8.4177    4.2933  -18.9236 C   0  0  0  0  0  0  0  0  0  0  0  0
   -9.4128    4.0911  -17.9775 C   0  0  0  0  0  0  0  0  0  0  0  0
   -9.0981    4.1827  -16.6254 C   0  0  0  0  0  0  0  0  0  0  0  0
   -7.7903    4.4900  -16.2179 C   0  0  0  0  0  0  0  0  0  0  0  0
   -7.4468    4.5448  -14.8624 C   0  0  0  0  0  0  0  0  0  0  0  0
   -8.3112    8.3162  -10.4405 N   0  0  0  0  0  0  0  0  0  0  0  0
   -8.8490    8.2566  -11.7893 C   0  0  0  0  0  0  0  0  0  0  0  0
   -8.0796    7.3528  -12.7455 C   0  0  0  0  0  0  0  0  0  0  0  0
   -6.5460    7.5091  -12.6786 C   0  0  0  0  0  0  0  0  0  0  0  0
   -6.1655    8.6362  -11.7027 C   0  0  0  0  0  0  0  0  0  0  0  0
   -6.8594    8.4694  -10.3470 C   0  0  0  0  0  0  0  0  0  0  0  0
   -8.8935    7.3682   -9.4802 C   0  0  0  0  0  0  0  0  0  0  0  0
   -8.1695    6.0355   -9.1913 C   0  0  0  0  0  0  0  0  0  0  0  0
   -8.3504    3.7306   -9.6319 C   0  0  0  0  0  0  0  0  0  0  0  0
   -8.4504    5.0416  -10.1801 O   0  0  0  0  0  0  0  0  0  0  0  0
 24 25  1  0  0  0
 25 23  1  0  0  0
 23 22  1  0  0  0
 22 16  1  0  0  0
 16 17  1  0  0  0
 17 18  1  0  0  0
 18 19  1  0  0  0
 19  1  1  0  0  0
  1  2  2  0  0  0
  2  3  1  0  0  0
  3  4  2  0  0  0
  4  5  1  0  0  0
  5  6  1  0  0  0
  6  7  2  0  0  0
  7  8  1  0  0  0
  8  9  2  0  0  0
  9 10  1  0  0  0
 10 11  2  0  0  0
 11 12  1  0  0  0
 12 13  2  0  0  0
 13 14  1  0  0  0
 14 15  2  0  0  0
 19 20  1  0  0  0
 20 21  1  0  0  0
 21 16  1  0  0  0
  5  1  1  0  0  0
 15  6  1  0  0  0
 14  9  1  0  0  0
M  END
> <minimizedAffinity>
-5.80568

> <minimizedRMSD>
2.10800

$$$$
P47316


 23 25  0  0  0  0  0  0  0  0999 V2000
   -3.6932    6.7627  -14.3057 C   0  0  0  0  0  0  0  0  0  0  0  0
   -5.0048    7.3973  -12.4424 O   0  0  0  0  0  0  0  0  0  0  0  0
   -4.2973    6.6025  -12.9181 C   0  0  0  0  0  0  0  0  0  0  0  0
   -3.8656    5.2087  -12.4035 N   0  0  0  0  0  0  0  0  0  0  0  0
   -3.1911    4.7549  -12.9588 H   0  0  0  0  0  0  0  0  0  0  0  0
   -4.2887    4.4698  -11.2480 C   0  0  0  0  0  0  0  0  0  0  0  0
   -5.5131    3.7432  -11.6842 C   0  0  0  0  0  0  0  0  0  0  0  0
   -6.7407    4.2223  -11.7101 N   0  0  0  0  0  0  0  0  0  0  0  0
   -7.4764    3.3176  -12.4207 C   0  0  0  0  0  0  0  0  0  0  0  0
   -6.7037    2.2443  -12.7909 C   0  0  0  0  0  0  0  0  0  0  0  0
   -5.4683    2.5003  -12.2703 N   0  0  0  0  0  0  0  0  0  0  0  0
   -4.6866    1.9031  -12.3077 H   0  0  0  0  0  0  0  0  0  0  0  0
   -3.6782    5.4490  -15.0971 C   0  0  0  0  0  0  0  0  0  0  0  0
   -4.8038    5.2502  -16.0759 C   0  0  0  0  0  0  0  0  0  0  0  0
   -4.5908    5.2429  -17.4450 C   0  0  0  0  0  0  0  0  0  0  0  0
   -5.5440    4.9876  -18.3691 N   0  0  0  0  0  0  0  0  0  0  0  0
   -6.7946    4.7306  -17.9411 C   0  0  0  0  0  0  0  0  0  0  0  0
   -7.7927    4.4313  -18.8596 C   0  0  0  0  0  0  0  0  0  0  0  0
   -9.1072    4.1628  -18.4642 C   0  0  0  0  0  0  0  0  0  0  0  0
   -9.4452    4.1990  -17.1191 C   0  0  0  0  0  0  0  0  0  0  0  0
   -8.4585    4.4740  -16.1761 C   0  0  0  0  0  0  0  0  0  0  0  0
   -7.1338    4.7388  -16.5758 C   0  0  0  0  0  0  0  0  0  0  0  0
   -6.1064    4.9857  -15.6492 C   0  0  0  0  0  0  0  0  0  0  0  0
  2  3  2  0  0  0
  3  1  1  0  0  0
  1 13  1  0  0  0
 13 14  1  0  0  0
 14 15  2  0  0  0
 15 16  1  0  0  0
 16 17  2  0  0  0
 17 18  1  0  0  0
 18 19  2  0  0  0
 19 20  1  0  0  0
 20 21  2  0  0  0
 21 22  1  0  0  0
 22 23  2  0  0  0
  3  4  1  0  0  0
  4  6  1  0  0  0
  6  7  1  0  0  0
  7  8  2  0  0  0
  8  9  1  0  0  0
  9 10  2  0  0  0
 10 11  1  0  0  0
 23 14  1  0  0  0
 11  7  1  0  0  0
 22 17  1  0  0  0
  4  5  1  0  0  0
 11 12  1  0  0  0
M  END
> <minimizedAffinity>
-5.43556

> <minimizedRMSD>
2.15062

$$$$
P47317


 23 25  0  0  0  0  0  0  0  0999 V2000
   -3.0744    6.8819  -15.0935 S   0  0  0  0  0  0  0  0  0  0  0  0
   -2.9415    7.6790  -16.2935 O   0  0  0  0  0  0  0  0  0  0  0  0
   -1.9817    6.6995  -14.1570 O   0  0  0  0  0  0  0  0  0  0  0  0
   -5.9812    7.7081  -12.7460 N   0  0  0  0  0  0  0  0  0  0  0  0
   -6.1086    8.7106  -13.6659 C   0  0  0  0  0  0  0  0  0  0  0  0
   -5.1420    8.6618  -14.5542 N   0  0  0  0  0  0  0  0  0  0  0  0
   -4.3362    7.6115  -14.1461 C   0  0  0  0  0  0  0  0  0  0  0  0
   -4.7916    7.0790  -12.9569 C   0  0  0  0  0  0  0  0  0  0  0  0
   -7.0657    7.1463  -11.9618 C   0  0  0  0  0  0  0  0  0  0  0  0
   -9.0120    6.6645  -13.4702 C   0  0  0  0  0  0  0  0  0  0  0  0
   -7.7800    6.0660  -12.7995 C   0  0  0  0  0  0  0  0  0  0  0  0
   -8.1263    4.8412  -11.9537 C   0  0  0  0  0  0  0  0  0  0  0  0
   -3.7658    5.4239  -15.3817 O   0  0  0  0  0  0  0  0  0  0  0  0
   -4.7778    5.2620  -16.2859 C   0  0  0  0  0  0  0  0  0  0  0  0
   -4.5893    5.2046  -17.6545 C   0  0  0  0  0  0  0  0  0  0  0  0
   -5.5772    4.9541  -18.5422 N   0  0  0  0  0  0  0  0  0  0  0  0
   -6.8114    4.7081  -18.0716 C   0  0  0  0  0  0  0  0  0  0  0  0
   -7.8278    4.3966  -18.9628 C   0  0  0  0  0  0  0  0  0  0  0  0
   -9.1223    4.1090  -18.5271 C   0  0  0  0  0  0  0  0  0  0  0  0
   -9.4165    4.1450  -17.1698 C   0  0  0  0  0  0  0  0  0  0  0  0
   -8.4154    4.4601  -16.2511 C   0  0  0  0  0  0  0  0  0  0  0  0
   -7.1084    4.7371  -16.6917 C   0  0  0  0  0  0  0  0  0  0  0  0
   -6.0590    5.0160  -15.7986 C   0  0  0  0  0  0  0  0  0  0  0  0
 10 11  1  0  0  0
 11 12  1  0  0  0
 11  9  1  0  0  0
  9  4  1  0  0  0
  4  5  1  0  0  0
  5  6  2  0  0  0
  6  7  1  0  0  0
  7  1  1  0  0  0
  1  2  2  0  0  0
  1  3  2  0  0  0
  1 13  1  0  0  0
 13 14  1  0  0  0
 14 15  2  0  0  0
 15 16  1  0  0  0
 16 17  2  0  0  0
 17 18  1  0  0  0
 18 19  2  0  0  0
 19 20  1  0  0  0
 20 21  2  0  0  0
 21 22  1  0  0  0
 22 23  2  0  0  0
  7  8  2  0  0  0
  8  4  1  0  0  0
 23 14  1  0  0  0
 22 17  1  0  0  0
M  END
> <minimizedAffinity>
-5.05651

> <minimizedRMSD>
1.55293

$$$$
P47318


 24 26  0  0  0  0  0  0  0  0999 V2000
   -3.0482    6.8814  -15.2371 S   0  0  0  0  0  0  0  0  0  0  0  0
   -2.9987    7.7609  -16.3807 O   0  0  0  0  0  0  0  0  0  0  0  0
   -1.9013    6.6600  -14.3791 O   0  0  0  0  0  0  0  0  0  0  0  0
   -5.8491    7.4561  -12.7033 N   0  0  0  0  0  0  0  0  0  0  0  0
   -5.9908    8.5691  -13.4836 C   0  0  0  0  0  0  0  0  0  0  0  0
   -5.0560    8.6208  -14.4050 N   0  0  0  0  0  0  0  0  0  0  0  0
   -4.2485    7.5263  -14.1540 C   0  0  0  0  0  0  0  0  0  0  0  0
   -4.6750    6.8488  -13.0293 C   0  0  0  0  0  0  0  0  0  0  0  0
   -6.9199    6.8033  -11.9731 C   0  0  0  0  0  0  0  0  0  0  0  0
   -8.1326    4.6043  -12.3576 C   0  0  0  0  0  0  0  0  0  0  0  0
   -7.7523    5.9571  -12.9588 C   0  0  0  0  0  0  0  0  0  0  0  0
   -8.9762    6.7490  -13.4072 C   0  0  0  0  0  0  0  0  0  0  0  0
   -3.6157    5.3393  -15.6673 N   0  0  0  0  0  0  0  0  0  0  0  0
   -3.1616    4.5314  -15.3350 H   0  0  0  0  0  0  0  0  0  0  0  0
   -4.7607    5.2270  -16.5176 C   0  0  0  0  0  0  0  0  0  0  0  0
   -4.6563    5.1687  -17.8998 C   0  0  0  0  0  0  0  0  0  0  0  0
   -5.6936    4.9182  -18.7319 N   0  0  0  0  0  0  0  0  0  0  0  0
   -6.8987    4.6825  -18.1898 C   0  0  0  0  0  0  0  0  0  0  0  0
   -7.9590    4.3446  -19.0176 C   0  0  0  0  0  0  0  0  0  0  0  0
   -9.2299    4.0745  -18.5078 C   0  0  0  0  0  0  0  0  0  0  0  0
   -9.4568    4.1641  -17.1402 C   0  0  0  0  0  0  0  0  0  0  0  0
   -8.4083    4.4999  -16.2841 C   0  0  0  0  0  0  0  0  0  0  0  0
   -7.1215    4.7460  -16.7970 C   0  0  0  0  0  0  0  0  0  0  0  0
   -6.0211    5.0167  -15.9621 C   0  0  0  0  0  0  0  0  0  0  0  0
 10 11  1  0  0  0
 11 12  1  0  0  0
 11  9  1  0  0  0
  9  4  1  0  0  0
  4  5  1  0  0  0
  5  6  2  0  0  0
  6  7  1  0  0  0
  7  1  1  0  0  0
  1  2  2  0  0  0
  1  3  2  0  0  0
  1 13  1  0  0  0
 13 15  1  0  0  0
 15 16  2  0  0  0
 16 17  1  0  0  0
 17 18  2  0  0  0
 18 19  1  0  0  0
 19 20  2  0  0  0
 20 21  1  0  0  0
 21 22  2  0  0  0
 22 23  1  0  0  0
 23 24  2  0  0  0
  7  8  2  0  0  0
  8  4  1  0  0  0
 24 15  1  0  0  0
 23 18  1  0  0  0
 13 14  1  0  0  0
M  END
> <minimizedAffinity>
-5.06223

> <minimizedRMSD>
1.68628

$$$$
P47324


 24 26  0  0  0  0  0  0  0  0999 V2000
   -4.7240    4.8050  -13.0819 S   0  0  0  0  0  0  0  0  0  0  0  0
   -5.6648    4.2644  -12.1319 O   0  0  0  0  0  0  0  0  0  0  0  0
   -3.4412    4.1702  -13.2965 O   0  0  0  0  0  0  0  0  0  0  0  0
   -5.5097    4.8739  -14.6443 C   0  0  0  0  0  0  0  0  0  0  0  0
   -4.7415    5.0775  -15.7690 C   0  0  0  0  0  0  0  0  0  0  0  0
   -5.2512    5.0718  -17.0212 N   0  0  0  0  0  0  0  0  0  0  0  0
   -6.5652    4.8071  -17.1742 C   0  0  0  0  0  0  0  0  0  0  0  0
   -7.1065    4.7115  -18.4475 C   0  0  0  0  0  0  0  0  0  0  0  0
   -8.4609    4.4302  -18.6522 C   0  0  0  0  0  0  0  0  0  0  0  0
   -9.3063    4.2565  -17.5644 C   0  0  0  0  0  0  0  0  0  0  0  0
   -8.7913    4.3432  -16.2739 C   0  0  0  0  0  0  0  0  0  0  0  0
   -7.4260    4.6039  -16.0719 C   0  0  0  0  0  0  0  0  0  0  0  0
   -6.8730    4.6357  -14.7875 C   0  0  0  0  0  0  0  0  0  0  0  0
   -4.3836    6.3985  -12.7204 N   0  0  0  0  0  0  0  0  0  0  0  0
   -3.8549    6.3749  -11.8484 H   0  0  0  0  0  0  0  0  0  0  0  0
   -5.3989    7.4473  -12.5387 C   0  0  0  0  0  0  0  0  0  0  0  0
   -5.8600    8.0502  -13.8492 C   0  0  0  0  0  0  0  0  0  0  0  0
   -7.7647    6.8246  -11.6358 N   0  0  0  0  0  0  0  0  0  0  0  0
   -8.2522    6.4510  -10.4060 C   0  0  0  0  0  0  0  0  0  0  0  0
   -7.1846    6.5120   -9.5516 C   0  0  0  0  0  0  0  0  0  0  0  0
   -6.0627    6.9124  -10.2186 N   0  0  0  0  0  0  0  0  0  0  0  0
   -6.4126    7.0789  -11.4881 C   0  0  0  0  0  0  0  0  0  0  0  0
   -9.4290    8.1968  -12.7778 C   0  0  0  0  0  0  0  0  0  0  0  0
   -8.6073    6.9253  -12.8084 C   0  0  0  0  0  0  0  0  0  0  0  0
 23 24  1  0  0  0
 24 18  1  0  0  0
 18 19  1  0  0  0
 19 20  2  0  0  0
 20 21  1  0  0  0
 21 22  2  0  0  0
 22 16  1  0  0  0
 16 17  1  0  0  0
 16 14  1  0  0  0
 14  1  1  0  0  0
  1  2  2  0  0  0
  1  3  2  0  0  0
  1  4  1  0  0  0
  4  5  2  0  0  0
  5  6  1  0  0  0
  6  7  2  0  0  0
  7  8  1  0  0  0
  8  9  2  0  0  0
  9 10  1  0  0  0
 10 11  2  0  0  0
 11 12  1  0  0  0
 12 13  2  0  0  0
 22 18  1  0  0  0
 13  4  1  0  0  0
 12  7  1  0  0  0
 14 15  1  0  0  0
M  END
> <minimizedAffinity>
-5.21100

> <minimizedRMSD>
1.47798

$$$$
P47326


 24 26  0  0  0  0  0  0  0  0999 V2000
   -3.9902    6.9188  -14.3476 C   0  0  0  0  0  0  0  0  0  0  0  0
   -2.6099    7.4667  -14.6842 C   0  0  0  0  0  0  0  0  0  0  0  0
   -4.2298    7.0139  -12.8435 C   0  0  0  0  0  0  0  0  0  0  0  0
   -4.2794    8.0723  -12.2268 O   0  0  0  0  0  0  0  0  0  0  0  0
   -4.3925    5.7763  -12.2976 O   0  0  0  0  0  0  0  0  0  0  0  0
   -5.2445    5.7178  -11.1518 C   0  0  0  0  0  0  0  0  0  0  0  0
   -6.9028    3.9596  -11.9330 N   0  0  0  0  0  0  0  0  0  0  0  0
   -8.1413    3.9794  -12.5105 C   0  0  0  0  0  0  0  0  0  0  0  0
   -8.6228    5.1999  -12.5989 N   0  0  0  0  0  0  0  0  0  0  0  0
   -7.6514    6.0025  -12.0683 C   0  0  0  0  0  0  0  0  0  0  0  0
   -6.5573    5.2628  -11.6632 C   0  0  0  0  0  0  0  0  0  0  0  0
   -5.2695    2.3986  -12.9292 C   0  0  0  0  0  0  0  0  0  0  0  0
   -6.1321    2.7467  -11.7282 C   0  0  0  0  0  0  0  0  0  0  0  0
   -4.0448    5.5541  -14.7803 O   0  0  0  0  0  0  0  0  0  0  0  0
   -4.9279    5.3317  -15.7964 C   0  0  0  0  0  0  0  0  0  0  0  0
   -4.5700    5.3035  -17.1313 C   0  0  0  0  0  0  0  0  0  0  0  0
   -5.4275    5.0349  -18.1439 N   0  0  0  0  0  0  0  0  0  0  0  0
   -6.7102    4.7563  -17.8294 C   0  0  0  0  0  0  0  0  0  0  0  0
   -7.6211    4.4488  -18.8323 C   0  0  0  0  0  0  0  0  0  0  0  0
   -8.9609    4.1573  -18.5524 C   0  0  0  0  0  0  0  0  0  0  0  0
   -9.4154    4.1822  -17.2414 C   0  0  0  0  0  0  0  0  0  0  0  0
   -8.5214    4.4745  -16.2155 C   0  0  0  0  0  0  0  0  0  0  0  0
   -7.1706    4.7520  -16.4977 C   0  0  0  0  0  0  0  0  0  0  0  0
   -6.2386    5.0140  -15.4820 C   0  0  0  0  0  0  0  0  0  0  0  0
 12 13  1  0  0  0
 13  7  1  0  0  0
  7  8  1  0  0  0
  8  9  2  0  0  0
  9 10  1  0  0  0
 10 11  2  0  0  0
 11  6  1  0  0  0
  6  5  1  0  0  0
  5  3  1  0  0  0
  3  4  2  0  0  0
  3  1  1  0  0  0
  1  2  1  0  0  0
  1 14  1  0  0  0
 14 15  1  0  0  0
 15 16  2  0  0  0
 16 17  1  0  0  0
 17 18  2  0  0  0
 18 19  1  0  0  0
 19 20  2  0  0  0
 20 21  1  0  0  0
 21 22  2  0  0  0
 22 23  1  0  0  0
 23 24  2  0  0  0
 11  7  1  0  0  0
 24 15  1  0  0  0
 23 18  1  0  0  0
M  END
> <minimizedAffinity>
-5.25719

> <minimizedRMSD>
1.29000

$$$$
P47327


 23 25  0  0  0  0  0  0  0  0999 V2000
   -4.0727    7.0265  -13.9288 C   0  0  0  0  0  0  0  0  0  0  0  0
   -4.6937    7.0393  -12.5575 C   0  0  0  0  0  0  0  0  0  0  0  0
   -5.2341    8.0170  -12.0585 O   0  0  0  0  0  0  0  0  0  0  0  0
   -4.5371    5.8252  -11.9599 O   0  0  0  0  0  0  0  0  0  0  0  0
   -5.4081    5.5704  -10.8537 C   0  0  0  0  0  0  0  0  0  0  0  0
   -6.5807    3.5234  -11.8036 N   0  0  0  0  0  0  0  0  0  0  0  0
   -7.7924    3.2856  -12.3891 C   0  0  0  0  0  0  0  0  0  0  0  0
   -8.5730    4.3423  -12.3463 N   0  0  0  0  0  0  0  0  0  0  0  0
   -7.8227    5.3138  -11.7464 C   0  0  0  0  0  0  0  0  0  0  0  0
   -6.5680    4.8412  -11.4135 C   0  0  0  0  0  0  0  0  0  0  0  0
   -4.7126    2.3857  -12.9492 C   0  0  0  0  0  0  0  0  0  0  0  0
   -5.5397    2.5199  -11.6830 C   0  0  0  0  0  0  0  0  0  0  0  0
   -4.0155    5.6203  -14.5215 C   0  0  0  0  0  0  0  0  0  0  0  0
   -4.9900    5.3662  -15.6387 C   0  0  0  0  0  0  0  0  0  0  0  0
   -4.5928    5.3842  -16.9662 C   0  0  0  0  0  0  0  0  0  0  0  0
   -5.3990    5.1010  -18.0136 N   0  0  0  0  0  0  0  0  0  0  0  0
   -6.6827    4.7778  -17.7587 C   0  0  0  0  0  0  0  0  0  0  0  0
   -7.5347    4.4392  -18.8026 C   0  0  0  0  0  0  0  0  0  0  0  0
   -8.8756    4.1033  -18.5859 C   0  0  0  0  0  0  0  0  0  0  0  0
   -9.3919    4.1162  -17.2983 C   0  0  0  0  0  0  0  0  0  0  0  0
   -8.5561    4.4380  -16.2331 C   0  0  0  0  0  0  0  0  0  0  0  0
   -7.2024    4.7584  -16.4518 C   0  0  0  0  0  0  0  0  0  0  0  0
   -6.3225    5.0409  -15.3948 C   0  0  0  0  0  0  0  0  0  0  0  0
 11 12  1  0  0  0
 12  6  1  0  0  0
  6  7  1  0  0  0
  7  8  2  0  0  0
  8  9  1  0  0  0
  9 10  2  0  0  0
 10  5  1  0  0  0
  5  4  1  0  0  0
  4  2  1  0  0  0
  2  3  2  0  0  0
  2  1  1  0  0  0
  1 13  1  0  0  0
 13 14  1  0  0  0
 14 15  2  0  0  0
 15 16  1  0  0  0
 16 17  2  0  0  0
 17 18  1  0  0  0
 18 19  2  0  0  0
 19 20  1  0  0  0
 20 21  2  0  0  0
 21 22  1  0  0  0
 22 23  2  0  0  0
 10  6  1  0  0  0
 23 14  1  0  0  0
 22 17  1  0  0  0
M  END
> <minimizedAffinity>
-5.34026

> <minimizedRMSD>
1.40559

$$$$
P47328


 24 27  0  0  0  0  0  0  0  0999 V2000
   -5.6258    5.7572  -12.0244 C   0  0  0  0  0  0  0  0  0  0  0  0
   -4.9207    5.5368  -10.9274 N   0  0  0  0  0  0  0  0  0  0  0  0
   -4.4508    4.2537  -11.0456 C   0  0  0  0  0  0  0  0  0  0  0  0
   -4.8333    3.6975  -12.2432 C   0  0  0  0  0  0  0  0  0  0  0  0
   -5.4848    4.7022  -12.9107 N   0  0  0  0  0  0  0  0  0  0  0  0
   -5.8870    4.6767  -14.2522 C   0  0  0  0  0  0  0  0  0  0  0  0
   -4.9927    5.0538  -15.2378 C   0  0  0  0  0  0  0  0  0  0  0  0
   -5.3118    5.0880  -16.5491 N   0  0  0  0  0  0  0  0  0  0  0  0
   -6.5808    4.7934  -16.8988 C   0  0  0  0  0  0  0  0  0  0  0  0
   -6.9529    4.8194  -18.2357 C   0  0  0  0  0  0  0  0  0  0  0  0
   -8.2702    4.5785  -18.6382 C   0  0  0  0  0  0  0  0  0  0  0  0
   -9.2497    4.3244  -17.6883 C   0  0  0  0  0  0  0  0  0  0  0  0
   -8.8992    4.2641  -16.3428 C   0  0  0  0  0  0  0  0  0  0  0  0
   -7.5704    4.4687  -15.9427 C   0  0  0  0  0  0  0  0  0  0  0  0
   -7.1934    4.3632  -14.5989 C   0  0  0  0  0  0  0  0  0  0  0  0
   -7.9128    6.7336  -11.8741 C   0  0  0  0  0  0  0  0  0  0  0  0
   -8.8143    7.7670  -12.1389 C   0  0  0  0  0  0  0  0  0  0  0  0
   -8.3613    8.9504  -12.7242 C   0  0  0  0  0  0  0  0  0  0  0  0
   -7.0131    9.1003  -13.0501 C   0  0  0  0  0  0  0  0  0  0  0  0
   -6.1137    8.0592  -12.8104 C   0  0  0  0  0  0  0  0  0  0  0  0
   -6.5575    6.8620  -12.2428 C   0  0  0  0  0  0  0  0  0  0  0  0
   -8.3229    5.5550  -11.2863 O   0  0  0  0  0  0  0  0  0  0  0  0
   -8.2306    4.2104   -9.2440 C   0  0  0  0  0  0  0  0  0  0  0  0
   -8.3495    5.5934   -9.8617 C   0  0  0  0  0  0  0  0  0  0  0  0
 23 24  1  0  0  0
 24 22  1  0  0  0
 22 16  1  0  0  0
 16 17  2  0  0  0
 17 18  1  0  0  0
 18 19  2  0  0  0
 19 20  1  0  0  0
 20 21  2  0  0  0
 21  1  1  0  0  0
  1  2  2  0  0  0
  2  3  1  0  0  0
  3  4  2  0  0  0
  4  5  1  0  0  0
  5  6  1  0  0  0
  6  7  2  0  0  0
  7  8  1  0  0  0
  8  9  2  0  0  0
  9 10  1  0  0  0
 10 11  2  0  0  0
 11 12  1  0  0  0
 12 13  2  0  0  0
 13 14  1  0  0  0
 14 15  2  0  0  0
 21 16  1  0  0  0
  5  1  1  0  0  0
 15  6  1  0  0  0
 14  9  1  0  0  0
M  END
> <minimizedAffinity>
-5.88211

> <minimizedRMSD>
1.61743

$$$$
P47445


 26 28  0  0  0  0  0  0  0  0999 V2000
   -2.9499    4.4850  -16.0802 N   0  0  0  0  0  0  0  0  0  0  0  0
   -2.4071    5.3619  -17.2315 C   0  0  0  0  0  0  0  0  0  0  0  0
   -1.3502    5.8284  -17.3926 O   0  0  0  0  0  0  0  0  0  0  0  0
   -3.8656    4.1491  -16.2145 H   0  0  0  0  0  0  0  0  0  0  0  0
   -2.3355    4.0802  -14.8455 C   0  0  0  0  0  0  0  0  0  0  0  0
   -5.8232    2.7852  -12.9122 C   0  0  0  0  0  0  0  0  0  0  0  0
   -5.6314    4.0626  -13.0351 N   0  0  0  0  0  0  0  0  0  0  0  0
   -4.3804    4.5156  -13.3535 C   0  0  0  0  0  0  0  0  0  0  0  0
   -4.1697    5.7665  -13.1351 N   0  0  0  0  0  0  0  0  0  0  0  0
   -3.4205    3.5527  -13.9764 C   0  0  0  0  0  0  0  0  0  0  0  0
   -3.6764    2.2541  -13.7507 C   0  0  0  0  0  0  0  0  0  0  0  0
   -4.8242    1.8595  -13.1187 N   0  0  0  0  0  0  0  0  0  0  0  0
   -4.8701    6.3181  -12.7173 H   0  0  0  0  0  0  0  0  0  0  0  0
   -4.9343    0.9290  -12.8164 H   0  0  0  0  0  0  0  0  0  0  0  0
   -8.0199    3.2411  -11.7315 C   0  0  0  0  0  0  0  0  0  0  0  0
   -7.2151    2.2852  -12.5979 C   0  0  0  0  0  0  0  0  0  0  0  0
   -3.5831    5.5421  -18.2382 C   0  0  0  0  0  0  0  0  0  0  0  0
   -4.8971    5.2683  -17.6083 N   0  0  0  0  0  0  0  0  0  0  0  0
   -5.3831    6.4365  -16.8205 C   0  0  0  0  0  0  0  0  0  0  0  0
   -6.5741    6.0303  -15.9313 C   0  0  0  0  0  0  0  0  0  0  0  0
   -7.5386    5.2405  -16.7383 C   0  0  0  0  0  0  0  0  0  0  0  0
   -9.0772    4.8289  -16.1752 S   0  0  0  0  0  0  0  0  0  0  0  0
   -9.4853    4.1329  -17.6827 C   0  0  0  0  0  0  0  0  0  0  0  0
   -8.4081    4.1028  -18.5422 C   0  0  0  0  0  0  0  0  0  0  0  0
   -7.2517    4.7288  -17.9865 C   0  0  0  0  0  0  0  0  0  0  0  0
   -5.9077    4.9028  -18.6400 C   0  0  0  0  0  0  0  0  0  0  0  0
 15 16  1  0  0  0
 16  6  1  0  0  0
  6  7  2  0  0  0
  7  8  1  0  0  0
  8  9  2  0  0  0
  8 10  1  0  0  0
 10  5  1  0  0  0
  5  1  1  0  0  0
  1  2  1  0  0  0
  2  3  2  0  0  0
  2 17  1  0  0  0
 17 18  1  0  0  0
 18 19  1  0  0  0
 19 20  1  0  0  0
 20 21  1  0  0  0
 21 22  1  0  0  0
 22 23  1  0  0  0
 23 24  2  0  0  0
 24 25  1  0  0  0
 25 26  1  0  0  0
 10 11  2  0  0  0
 11 12  1  0  0  0
 12  6  1  0  0  0
 26 18  1  0  0  0
 25 21  2  0  0  0
  9 13  1  0  0  0
  1  4  1  0  0  0
 12 14  1  0  0  0
M  END
> <minimizedAffinity>
-5.16164

> <minimizedRMSD>
0.45691

$$$$
P47472


 21 23  0  0  0  0  0  0  0  0999 V2000
   -2.9214    4.5934  -16.1342 N   0  0  0  0  0  0  0  0  0  0  0  0
   -2.4290    5.3214  -17.4048 C   0  0  0  0  0  0  0  0  0  0  0  0
   -1.4450    5.9149  -17.6022 O   0  0  0  0  0  0  0  0  0  0  0  0
   -3.7634    4.0953  -16.2447 H   0  0  0  0  0  0  0  0  0  0  0  0
   -2.3491    4.5247  -14.8146 C   0  0  0  0  0  0  0  0  0  0  0  0
   -6.3849    2.0298  -12.4485 C   0  0  0  0  0  0  0  0  0  0  0  0
   -5.0417    2.4976  -12.8631 C   0  0  0  0  0  0  0  0  0  0  0  0
   -3.7848    2.1604  -12.4085 C   0  0  0  0  0  0  0  0  0  0  0  0
   -2.7183    2.7968  -13.0300 N   0  0  0  0  0  0  0  0  0  0  0  0
   -3.1789    3.6318  -13.9393 C   0  0  0  0  0  0  0  0  0  0  0  0
   -4.8936    3.6688  -14.0768 S   0  0  0  0  0  0  0  0  0  0  0  0
   -3.5644    5.1571  -18.4535 C   0  0  0  0  0  0  0  0  0  0  0  0
   -4.8872    5.1344  -17.7881 N   0  0  0  0  0  0  0  0  0  0  0  0
   -5.2041    6.4294  -17.1326 C   0  0  0  0  0  0  0  0  0  0  0  0
   -6.4303    6.3177  -16.1998 C   0  0  0  0  0  0  0  0  0  0  0  0
   -7.4391    5.4019  -16.7984 C   0  0  0  0  0  0  0  0  0  0  0  0
   -8.9146    5.0387  -16.0524 S   0  0  0  0  0  0  0  0  0  0  0  0
   -9.4702    4.2398  -17.4627 C   0  0  0  0  0  0  0  0  0  0  0  0
   -8.4725    4.1046  -18.4034 C   0  0  0  0  0  0  0  0  0  0  0  0
   -7.2598    4.7347  -17.9941 C   0  0  0  0  0  0  0  0  0  0  0  0
   -5.9617    4.7756  -18.7470 C   0  0  0  0  0  0  0  0  0  0  0  0
  6  7  1  0  0  0
  7  8  2  0  0  0
  8  9  1  0  0  0
  9 10  2  0  0  0
 10  5  1  0  0  0
  5  1  1  0  0  0
  1  2  1  0  0  0
  2  3  2  0  0  0
  2 12  1  0  0  0
 12 13  1  0  0  0
 13 14  1  0  0  0
 14 15  1  0  0  0
 15 16  1  0  0  0
 16 17  1  0  0  0
 17 18  1  0  0  0
 18 19  2  0  0  0
 19 20  1  0  0  0
 20 21  1  0  0  0
 10 11  1  0  0  0
 11  7  1  0  0  0
 21 13  1  0  0  0
 20 16  2  0  0  0
  1  4  1  0  0  0
M  END
> <minimizedAffinity>
-4.78114

> <minimizedRMSD>
0.45821

$$$$
P47473


 21 23  0  0  0  0  0  0  0  0999 V2000
   -3.0068    4.4543  -16.0616 N   0  0  0  0  0  0  0  0  0  0  0  0
   -2.5213    5.2493  -17.2946 C   0  0  0  0  0  0  0  0  0  0  0  0
   -1.5474    5.8705  -17.4582 O   0  0  0  0  0  0  0  0  0  0  0  0
   -3.8381    3.9455  -16.2005 H   0  0  0  0  0  0  0  0  0  0  0  0
   -2.4433    4.3371  -14.7475 C   0  0  0  0  0  0  0  0  0  0  0  0
   -6.7488    2.4060  -13.2583 C   0  0  0  0  0  0  0  0  0  0  0  0
   -5.2910    2.6650  -13.1655 C   0  0  0  0  0  0  0  0  0  0  0  0
   -4.4410    2.2460  -12.1626 C   0  0  0  0  0  0  0  0  0  0  0  0
   -2.8443    2.7885  -12.4601 S   0  0  0  0  0  0  0  0  0  0  0  0
   -3.3922    3.5553  -13.8938 C   0  0  0  0  0  0  0  0  0  0  0  0
   -4.6775    3.4061  -14.1586 N   0  0  0  0  0  0  0  0  0  0  0  0
   -3.6393    5.1231  -18.3679 C   0  0  0  0  0  0  0  0  0  0  0  0
   -4.9704    5.0381  -17.7381 N   0  0  0  0  0  0  0  0  0  0  0  0
   -5.3092    6.2440  -16.9415 C   0  0  0  0  0  0  0  0  0  0  0  0
   -6.4953    5.9478  -15.9990 C   0  0  0  0  0  0  0  0  0  0  0  0
   -7.5367    5.1961  -16.7532 C   0  0  0  0  0  0  0  0  0  0  0  0
   -9.0602    4.8511  -16.1113 S   0  0  0  0  0  0  0  0  0  0  0  0
   -9.5896    4.2023  -17.6043 C   0  0  0  0  0  0  0  0  0  0  0  0
   -8.5663    4.1297  -18.5242 C   0  0  0  0  0  0  0  0  0  0  0  0
   -7.3487    4.6773  -18.0196 C   0  0  0  0  0  0  0  0  0  0  0  0
   -6.0309    4.7650  -18.7367 C   0  0  0  0  0  0  0  0  0  0  0  0
  6  7  1  0  0  0
  7  8  2  0  0  0
  8  9  1  0  0  0
  9 10  1  0  0  0
 10  5  1  0  0  0
  5  1  1  0  0  0
  1  2  1  0  0  0
  2  3  2  0  0  0
  2 12  1  0  0  0
 12 13  1  0  0  0
 13 14  1  0  0  0
 14 15  1  0  0  0
 15 16  1  0  0  0
 16 17  1  0  0  0
 17 18  1  0  0  0
 18 19  2  0  0  0
 19 20  1  0  0  0
 20 21  1  0  0  0
 10 11  2  0  0  0
 11  7  1  0  0  0
 21 13  1  0  0  0
 20 16  2  0  0  0
  1  4  1  0  0  0
M  END
> <minimizedAffinity>
-4.86492

> <minimizedRMSD>
0.47914

$$$$
P47513


 19 21  0  0  0  0  0  0  0  0999 V2000
   -6.1680    5.3824  -18.5548 C   0  0  0  0  0  0  0  0  0  0  0  0
   -6.0911    6.5780  -19.1222 N   0  0  0  0  0  0  0  0  0  0  0  0
   -4.7997    6.7267  -19.5876 N   0  0  0  0  0  0  0  0  0  0  0  0
   -4.1721    5.6166  -19.2668 C   0  0  0  0  0  0  0  0  0  0  0  0
   -4.9542    4.7335  -18.5823 O   0  0  0  0  0  0  0  0  0  0  0  0
   -6.0766    4.8105  -15.6459 O   0  0  0  0  0  0  0  0  0  0  0  0
   -7.1996    4.6611  -16.4567 N   0  0  0  0  0  0  0  0  0  0  0  0
   -8.4417    4.3805  -15.9825 C   0  0  0  0  0  0  0  0  0  0  0  0
   -9.2533    4.4434  -17.0899 C   0  0  0  0  0  0  0  0  0  0  0  0
   -8.5348    4.7940  -18.2032 N   0  0  0  0  0  0  0  0  0  0  0  0
   -7.2837    4.9215  -17.7978 C   0  0  0  0  0  0  0  0  0  0  0  0
   -6.2977    4.5544  -14.7369 H   0  0  0  0  0  0  0  0  0  0  0  0
   -2.7461    5.2407  -19.4438 C   0  0  0  0  0  0  0  0  0  0  0  0
   -2.0123    5.3561  -18.0959 C   0  0  0  0  0  0  0  0  0  0  0  0
   -0.5179    5.5652  -18.2957 C   0  0  0  0  0  0  0  0  0  0  0  0
   -0.1957    6.7642  -19.0674 N   0  0  0  0  0  0  0  0  0  0  0  0
   -1.2740    7.2315  -19.9419 C   0  0  0  0  0  0  0  0  0  0  0  0
   -2.0563    6.0684  -20.5404 C   0  0  0  0  0  0  0  0  0  0  0  0
    0.6188    6.5610  -19.6467 H   0  0  0  0  0  0  0  0  0  0  0  0
  6  7  1  0  0  0
  7  8  1  0  0  0
  8  9  2  0  0  0
  9 10  1  0  0  0
 10 11  2  0  0  0
 11  1  1  0  0  0
  1  2  2  0  0  0
  2  3  1  0  0  0
  3  4  2  0  0  0
  4 13  1  0  0  0
 13 14  1  0  0  0
 14 15  1  0  0  0
 15 16  1  0  0  0
 16 17  1  0  0  0
 17 18  1  0  0  0
  4  5  1  0  0  0
 11  7  1  0  0  0
  5  1  1  0  0  0
 18 13  1  0  0  0
  6 12  1  0  0  0
 16 19  1  0  0  0
M  END
> <minimizedAffinity>
-4.50795

> <minimizedRMSD>
0.63953

$$$$
P47614


 18 20  0  0  0  0  0  0  0  0999 V2000
   -3.6094    6.2679  -16.7510 O   0  0  0  0  0  0  0  0  0  0  0  0
   -4.7569    5.8687  -16.6690 C   0  0  0  0  0  0  0  0  0  0  0  0
   -5.3965    5.5171  -15.4738 N   0  0  0  0  0  0  0  0  0  0  0  0
   -6.6418    4.9854  -15.7725 C   0  0  0  0  0  0  0  0  0  0  0  0
   -7.6095    4.5119  -14.9243 C   0  0  0  0  0  0  0  0  0  0  0  0
   -8.7630    4.0051  -15.5217 C   0  0  0  0  0  0  0  0  0  0  0  0
   -8.8912    3.9131  -16.9182 C   0  0  0  0  0  0  0  0  0  0  0  0
   -7.8909    4.4090  -17.7539 C   0  0  0  0  0  0  0  0  0  0  0  0
   -6.7962    4.9931  -17.1545 C   0  0  0  0  0  0  0  0  0  0  0  0
   -5.6896    5.6711  -17.6998 N   0  0  0  0  0  0  0  0  0  0  0  0
   -5.0233    5.6291  -14.5697 H   0  0  0  0  0  0  0  0  0  0  0  0
   -5.6181    6.0879  -19.0899 C   0  0  0  0  0  0  0  0  0  0  0  0
   -5.3511    7.5832  -19.3259 C   0  0  0  0  0  0  0  0  0  0  0  0
   -3.8737    7.9674  -19.4068 C   0  0  0  0  0  0  0  0  0  0  0  0
   -3.0266    6.9658  -20.1803 C   0  0  0  0  0  0  0  0  0  0  0  0
   -3.2282    5.5816  -19.7431 N   0  0  0  0  0  0  0  0  0  0  0  0
   -4.6539    5.2330  -19.8990 C   0  0  0  0  0  0  0  0  0  0  0  0
   -2.9584    5.4892  -18.7638 H   0  0  0  0  0  0  0  0  0  0  0  0
  1  2  2  0  0  0
  2  3  1  0  0  0
  3  4  1  0  0  0
  4  5  2  0  0  0
  5  6  1  0  0  0
  6  7  2  0  0  0
  7  8  1  0  0  0
  8  9  2  0  0  0
  9 10  1  0  0  0
 12 10  1  0  0  0
 12 13  1  0  0  0
 13 14  1  0  0  0
 14 15  1  0  0  0
 15 16  1  0  0  0
 16 17  1  0  0  0
 10  2  1  0  0  0
 17 12  1  0  0  0
  9  4  1  0  0  0
  3 11  1  0  0  0
 16 18  1  0  0  0
M  END
> <minimizedAffinity>
-5.56563

> <minimizedRMSD>
0.38170

$$$$
P47946


 22 25  0  0  0  0  0  0  0  0999 V2000
   -5.4247    9.1047  -22.6003 S   0  0  0  0  0  0  0  0  0  0  0  0
   -3.3254    4.4998  -18.1275 C   0  0  0  0  0  0  0  0  0  0  0  0
   -4.6644    4.7945  -17.9249 C   0  0  0  0  0  0  0  0  0  0  0  0
   -5.3251    5.6820  -18.7881 C   0  0  0  0  0  0  0  0  0  0  0  0
   -4.6924    6.3155  -19.8583 C   0  0  0  0  0  0  0  0  0  0  0  0
   -5.3405    7.2119  -20.6544 N   0  0  0  0  0  0  0  0  0  0  0  0
   -4.6564    7.7922  -21.6660 C   0  0  0  0  0  0  0  0  0  0  0  0
   -3.3270    7.5114  -21.9300 C   0  0  0  0  0  0  0  0  0  0  0  0
   -2.6668    6.5955  -21.1212 C   0  0  0  0  0  0  0  0  0  0  0  0
   -3.3369    5.9895  -20.0569 C   0  0  0  0  0  0  0  0  0  0  0  0
   -2.6651    5.0905  -19.2013 C   0  0  0  0  0  0  0  0  0  0  0  0
   -4.9520    8.6380  -24.2921 C   0  0  0  0  0  0  0  0  0  0  0  0
   -6.1130    8.5883  -25.2287 C   0  0  0  0  0  0  0  0  0  0  0  0
   -6.7078    7.4882  -25.6405 N   0  0  0  0  0  0  0  0  0  0  0  0
   -7.7959    7.8953  -26.3663 C   0  0  0  0  0  0  0  0  0  0  0  0
   -8.8129    7.1317  -26.9517 C   0  0  0  0  0  0  0  0  0  0  0  0
   -9.8467    7.7953  -27.6182 C   0  0  0  0  0  0  0  0  0  0  0  0
   -9.8722    9.1896  -27.6870 C   0  0  0  0  0  0  0  0  0  0  0  0
   -8.8606    9.9714  -27.1139 C   0  0  0  0  0  0  0  0  0  0  0  0
   -7.8324    9.2815  -26.4680 C   0  0  0  0  0  0  0  0  0  0  0  0
   -6.7119    9.6927  -25.7914 N   0  0  0  0  0  0  0  0  0  0  0  0
   -6.3906   10.6206  -25.7204 H   0  0  0  0  0  0  0  0  0  0  0  0
  2  3  2  0  0  0
  3  4  1  0  0  0
  4  5  2  0  0  0
  5  6  1  0  0  0
  6  7  2  0  0  0
  7  1  1  0  0  0
  1 12  1  0  0  0
 12 13  1  0  0  0
 13 14  2  0  0  0
 14 15  1  0  0  0
 15 16  2  0  0  0
 16 17  1  0  0  0
 17 18  2  0  0  0
 18 19  1  0  0  0
 19 20  2  0  0  0
 20 21  1  0  0  0
  7  8  1  0  0  0
  8  9  2  0  0  0
  9 10  1  0  0  0
 10 11  2  0  0  0
 11  2  1  0  0  0
 10  5  1  0  0  0
 21 13  1  0  0  0
 20 15  1  0  0  0
 21 22  1  0  0  0
M  END
> <minimizedAffinity>
-4.75907

> <minimizedRMSD>
1.70653

$$$$
P48001


 27 30  0  0  0  0  0  0  0  0999 V2000
   -8.5710    4.7329  -13.2381 N   0  0  0  0  0  0  0  0  0  0  0  0
   -9.4091    4.8385  -13.7438 H   0  0  0  0  0  0  0  0  0  0  0  0
   -8.1873    5.6480  -10.8520 N   0  0  0  0  0  0  0  0  0  0  0  0
   -8.4878    4.6634  -11.7792 C   0  0  0  0  0  0  0  0  0  0  0  0
   -8.8238    3.5339  -11.2146 N   0  0  0  0  0  0  0  0  0  0  0  0
   -8.6656    3.7396   -9.8750 C   0  0  0  0  0  0  0  0  0  0  0  0
   -8.8890    2.8465   -8.8181 C   0  0  0  0  0  0  0  0  0  0  0  0
   -8.6486    3.2744   -7.5094 C   0  0  0  0  0  0  0  0  0  0  0  0
   -8.1737    4.5594   -7.2591 C   0  0  0  0  0  0  0  0  0  0  0  0
   -7.9430    5.4633   -8.3035 C   0  0  0  0  0  0  0  0  0  0  0  0
   -8.2178    5.0375   -9.6111 C   0  0  0  0  0  0  0  0  0  0  0  0
   -7.9439    7.0545  -11.1726 C   0  0  0  0  0  0  0  0  0  0  0  0
   -9.5672    8.1664  -12.7912 C   0  0  0  0  0  0  0  0  0  0  0  0
   -9.1539    7.9903  -11.3340 C   0  0  0  0  0  0  0  0  0  0  0  0
   -7.0383    4.6078  -13.9415 S   0  0  0  0  0  0  0  0  0  0  0  0
   -6.4449    3.3693  -13.4948 O   0  0  0  0  0  0  0  0  0  0  0  0
   -6.3460    5.8674  -13.7484 O   0  0  0  0  0  0  0  0  0  0  0  0
   -7.3090    4.5060  -15.6882 C   0  0  0  0  0  0  0  0  0  0  0  0
   -8.6231    4.4045  -16.1525 C   0  0  0  0  0  0  0  0  0  0  0  0
   -8.8758    4.4815  -17.5109 C   0  0  0  0  0  0  0  0  0  0  0  0
   -7.8123    4.6353  -18.3957 C   0  0  0  0  0  0  0  0  0  0  0  0
   -6.4943    4.7145  -17.9674 C   0  0  0  0  0  0  0  0  0  0  0  0
   -5.5390    4.8566  -18.9008 N   0  0  0  0  0  0  0  0  0  0  0  0
   -4.2557    4.9552  -18.5160 C   0  0  0  0  0  0  0  0  0  0  0  0
   -3.8598    4.9330  -17.2001 C   0  0  0  0  0  0  0  0  0  0  0  0
   -4.8468    4.7931  -16.2315 C   0  0  0  0  0  0  0  0  0  0  0  0
   -6.2141    4.6616  -16.5869 C   0  0  0  0  0  0  0  0  0  0  0  0
 13 14  1  0  0  0
 14 12  1  0  0  0
 12  3  1  0  0  0
  3  4  1  0  0  0
  4  1  1  0  0  0
  1 15  1  0  0  0
 15 16  2  0  0  0
 15 17  2  0  0  0
 15 18  1  0  0  0
 18 19  2  0  0  0
 19 20  1  0  0  0
 20 21  2  0  0  0
 21 22  1  0  0  0
 22 23  2  0  0  0
 23 24  1  0  0  0
 24 25  2  0  0  0
 25 26  1  0  0  0
 26 27  2  0  0  0
  4  5  2  0  0  0
  5  6  1  0  0  0
  6  7  2  0  0  0
  7  8  1  0  0  0
  8  9  2  0  0  0
  9 10  1  0  0  0
 10 11  2  0  0  0
 11  3  1  0  0  0
 27 18  1  0  0  0
 11  6  1  0  0  0
 27 22  1  0  0  0
  1  2  1  0  0  0
M  END
> <minimizedAffinity>
-7.35152

> <minimizedRMSD>
0.84409

$$$$
P48068


 21 23  0  0  0  0  0  0  0  0999 V2000
   -4.0068    5.4366  -19.7144 N   0  0  0  0  0  0  0  0  0  0  0  0
   -4.3485    5.7303  -20.5897 H   0  0  0  0  0  0  0  0  0  0  0  0
   -4.9692    5.1527  -18.8089 C   0  0  0  0  0  0  0  0  0  0  0  0
   -6.1746    4.8545  -19.2277 N   0  0  0  0  0  0  0  0  0  0  0  0
   -7.0486    4.6468  -18.1826 C   0  0  0  0  0  0  0  0  0  0  0  0
   -8.4202    4.3304  -18.2898 C   0  0  0  0  0  0  0  0  0  0  0  0
   -9.1915    4.1629  -17.1369 C   0  0  0  0  0  0  0  0  0  0  0  0
   -8.6032    4.2958  -15.8851 C   0  0  0  0  0  0  0  0  0  0  0  0
   -7.2495    4.6007  -15.7659 C   0  0  0  0  0  0  0  0  0  0  0  0
   -6.7139    4.7299  -14.5447 F   0  0  0  0  0  0  0  0  0  0  0  0
   -6.4814    4.7802  -16.9196 C   0  0  0  0  0  0  0  0  0  0  0  0
   -4.8203    5.1668  -17.0976 S   0  0  0  0  0  0  0  0  0  0  0  0
   -2.0820    3.9292  -19.5045 C   0  0  0  0  0  0  0  0  0  0  0  0
   -2.5495    5.3849  -19.6250 C   0  0  0  0  0  0  0  0  0  0  0  0
   -2.0403    6.2438  -18.4547 C   0  0  0  0  0  0  0  0  0  0  0  0
   -1.9147    5.9646  -20.9013 C   0  0  0  0  0  0  0  0  0  0  0  0
   -2.4609    6.8550  -21.7137 N   0  0  0  0  0  0  0  0  0  0  0  0
   -1.5072    7.1432  -22.6602 C   0  0  0  0  0  0  0  0  0  0  0  0
   -0.4037    6.3494  -22.4855 C   0  0  0  0  0  0  0  0  0  0  0  0
   -0.6837    5.5803  -21.3903 N   0  0  0  0  0  0  0  0  0  0  0  0
   -0.1073    4.8754  -21.0161 H   0  0  0  0  0  0  0  0  0  0  0  0
 13 14  1  0  0  0
 14 15  1  0  0  0
 14  1  1  0  0  0
  1  3  1  0  0  0
  3  4  2  0  0  0
  4  5  1  0  0  0
  5  6  2  0  0  0
  6  7  1  0  0  0
  7  8  2  0  0  0
  8  9  1  0  0  0
  9 10  1  0  0  0
  9 11  2  0  0  0
 11 12  1  0  0  0
 14 16  1  0  0  0
 16 17  2  0  0  0
 17 18  1  0  0  0
 18 19  2  0  0  0
 19 20  1  0  0  0
 12  3  1  0  0  0
 20 16  1  0  0  0
 11  5  1  0  0  0
  1  2  1  0  0  0
 20 21  1  0  0  0
M  END
> <minimizedAffinity>
-6.19579

> <minimizedRMSD>
0.39214

$$$$
P48163


 23 25  0  0  0  0  0  0  0  0999 V2000
   -4.0507    4.9518  -13.1319 O   0  0  0  0  0  0  0  0  0  0  0  0
   -5.1580    5.2339  -13.3465 C   0  0  0  0  0  0  0  0  0  0  0  0
   -6.1918    5.9409  -12.4641 N   0  0  0  0  0  0  0  0  0  0  0  0
   -7.0953    5.9953  -12.8512 H   0  0  0  0  0  0  0  0  0  0  0  0
   -5.7925    5.0370  -14.6374 C   0  0  0  0  0  0  0  0  0  0  0  0
   -7.1530    4.8104  -14.7364 N   0  0  0  0  0  0  0  0  0  0  0  0
   -7.5437    4.6623  -16.0373 C   0  0  0  0  0  0  0  0  0  0  0  0
   -8.8114    4.3940  -16.5620 C   0  0  0  0  0  0  0  0  0  0  0  0
   -8.9299    4.3483  -17.9479 C   0  0  0  0  0  0  0  0  0  0  0  0
   -7.8162    4.5301  -18.7624 C   0  0  0  0  0  0  0  0  0  0  0  0
   -6.5510    4.7763  -18.2191 C   0  0  0  0  0  0  0  0  0  0  0  0
   -6.4073    4.8501  -16.8212 C   0  0  0  0  0  0  0  0  0  0  0  0
   -5.3144    5.0858  -15.9302 C   0  0  0  0  0  0  0  0  0  0  0  0
   -3.7067    5.3365  -16.4280 Cl  0  0  0  0  0  0  0  0  0  0  0  0
   -7.7637    4.7618  -13.9658 H   0  0  0  0  0  0  0  0  0  0  0  0
   -6.0581    6.5372  -11.1648 C   0  0  0  0  0  0  0  0  0  0  0  0
   -7.4502    6.5607  -10.4890 C   0  0  0  0  0  0  0  0  0  0  0  0
   -8.0632    5.1837  -10.4701 C   0  0  0  0  0  0  0  0  0  0  0  0
   -8.3823    4.4640  -11.5361 N   0  0  0  0  0  0  0  0  0  0  0  0
   -8.6860    3.2129  -11.0624 C   0  0  0  0  0  0  0  0  0  0  0  0
   -8.5894    3.1811   -9.6956 C   0  0  0  0  0  0  0  0  0  0  0  0
   -8.2266    4.4445   -9.3255 N   0  0  0  0  0  0  0  0  0  0  0  0
   -8.1043    4.7671   -8.4034 H   0  0  0  0  0  0  0  0  0  0  0  0
  1  2  2  0  0  0
  2  3  1  0  0  0
  3 16  1  0  0  0
 16 17  1  0  0  0
 17 18  1  0  0  0
 18 19  2  0  0  0
 19 20  1  0  0  0
 20 21  2  0  0  0
 21 22  1  0  0  0
  2  5  1  0  0  0
  5  6  1  0  0  0
  6  7  1  0  0  0
  7  8  2  0  0  0
  8  9  1  0  0  0
  9 10  2  0  0  0
 10 11  1  0  0  0
 11 12  2  0  0  0
 12 13  1  0  0  0
 13 14  1  0  0  0
 22 18  1  0  0  0
 13  5  2  0  0  0
 12  7  1  0  0  0
  3  4  1  0  0  0
 22 23  1  0  0  0
  6 15  1  0  0  0
M  END
> <minimizedAffinity>
-5.56073

> <minimizedRMSD>
1.91927

$$$$
P48164


 23 25  0  0  0  0  0  0  0  0999 V2000
   -3.4650    5.8922  -13.7181 O   0  0  0  0  0  0  0  0  0  0  0  0
   -4.2105    5.0079  -13.8371 C   0  0  0  0  0  0  0  0  0  0  0  0
   -4.5094    3.8288  -12.9061 N   0  0  0  0  0  0  0  0  0  0  0  0
   -5.1360    3.1636  -13.2722 H   0  0  0  0  0  0  0  0  0  0  0  0
   -5.1469    4.8992  -14.9420 C   0  0  0  0  0  0  0  0  0  0  0  0
   -6.5064    4.7727  -14.7181 N   0  0  0  0  0  0  0  0  0  0  0  0
   -7.2045    4.6927  -15.8918 C   0  0  0  0  0  0  0  0  0  0  0  0
   -8.5772    4.5298  -16.1010 C   0  0  0  0  0  0  0  0  0  0  0  0
   -9.0263    4.5359  -17.4182 C   0  0  0  0  0  0  0  0  0  0  0  0
   -8.1286    4.6648  -18.4736 C   0  0  0  0  0  0  0  0  0  0  0  0
   -6.7553    4.8042  -18.2471 C   0  0  0  0  0  0  0  0  0  0  0  0
   -6.2771    4.8242  -16.9240 C   0  0  0  0  0  0  0  0  0  0  0  0
   -4.9998    4.9521  -16.3091 C   0  0  0  0  0  0  0  0  0  0  0  0
   -3.3957    5.1093  -17.2705 Br  0  0  0  0  0  0  0  0  0  0  0  0
   -6.9199    4.7439  -13.8251 H   0  0  0  0  0  0  0  0  0  0  0  0
   -4.0251    3.5353  -11.5869 C   0  0  0  0  0  0  0  0  0  0  0  0
   -4.8180    4.3912  -10.5704 C   0  0  0  0  0  0  0  0  0  0  0  0
   -6.3007    4.2880  -10.8209 C   0  0  0  0  0  0  0  0  0  0  0  0
   -7.0147    5.1021  -11.5848 N   0  0  0  0  0  0  0  0  0  0  0  0
   -8.2444    4.5080  -11.7132 C   0  0  0  0  0  0  0  0  0  0  0  0
   -8.2932    3.3452  -10.9896 C   0  0  0  0  0  0  0  0  0  0  0  0
   -7.0670    3.2307  -10.3993 N   0  0  0  0  0  0  0  0  0  0  0  0
   -6.7838    2.5178   -9.7822 H   0  0  0  0  0  0  0  0  0  0  0  0
  1  2  2  0  0  0
  2  3  1  0  0  0
  3 16  1  0  0  0
 16 17  1  0  0  0
 17 18  1  0  0  0
 18 19  2  0  0  0
 19 20  1  0  0  0
 20 21  2  0  0  0
 21 22  1  0  0  0
  2  5  1  0  0  0
  5  6  1  0  0  0
  6  7  1  0  0  0
  7  8  2  0  0  0
  8  9  1  0  0  0
  9 10  2  0  0  0
 10 11  1  0  0  0
 11 12  2  0  0  0
 12 13  1  0  0  0
 13 14  1  0  0  0
 22 18  1  0  0  0
 13  5  2  0  0  0
 12  7  1  0  0  0
  3  4  1  0  0  0
 22 23  1  0  0  0
  6 15  1  0  0  0
M  END
> <minimizedAffinity>
-5.36290

> <minimizedRMSD>
2.16296

$$$$
P48169


 24 26  0  0  0  0  0  0  0  0999 V2000
   -8.5266    4.5401  -17.1001 C   0  0  0  0  0  0  0  0  0  0  0  0
   -7.8490    4.6567  -15.8885 C   0  0  0  0  0  0  0  0  0  0  0  0
   -6.4653    4.8830  -15.8612 C   0  0  0  0  0  0  0  0  0  0  0  0
   -5.7715    4.9830  -17.0826 C   0  0  0  0  0  0  0  0  0  0  0  0
   -4.4225    5.2576  -17.4651 C   0  0  0  0  0  0  0  0  0  0  0  0
   -4.3854    5.3392  -18.8457 C   0  0  0  0  0  0  0  0  0  0  0  0
   -5.6083    4.8978  -19.2970 N   0  0  0  0  0  0  0  0  0  0  0  0
   -6.4881    4.8056  -18.2609 C   0  0  0  0  0  0  0  0  0  0  0  0
   -7.8532    4.5673  -18.3124 C   0  0  0  0  0  0  0  0  0  0  0  0
   -5.8173    4.6800  -20.2341 H   0  0  0  0  0  0  0  0  0  0  0  0
   -3.3453    5.7483  -19.7621 C   0  0  0  0  0  0  0  0  0  0  0  0
   -2.5292    5.0231  -20.1627 O   0  0  0  0  0  0  0  0  0  0  0  0
   -3.6368    7.2135  -20.1183 N   0  0  0  0  0  0  0  0  0  0  0  0
   -4.3432    7.6361  -19.5783 H   0  0  0  0  0  0  0  0  0  0  0  0
   -3.0474    8.0670  -21.1098 C   0  0  0  0  0  0  0  0  0  0  0  0
   -2.9349    7.2675  -22.4005 C   0  0  0  0  0  0  0  0  0  0  0  0
   -4.1495    7.3761  -23.2386 C   0  0  0  0  0  0  0  0  0  0  0  0
   -5.3380    7.7683  -22.8308 N   0  0  0  0  0  0  0  0  0  0  0  0
   -6.1634    7.6277  -23.9130 C   0  0  0  0  0  0  0  0  0  0  0  0
   -5.4617    7.1695  -25.0014 C   0  0  0  0  0  0  0  0  0  0  0  0
   -4.1764    7.0223  -24.5627 N   0  0  0  0  0  0  0  0  0  0  0  0
   -3.4094    6.7177  -25.0995 H   0  0  0  0  0  0  0  0  0  0  0  0
  -10.4971    4.6617  -18.3084 C   0  0  0  0  0  0  0  0  0  0  0  0
   -9.8698    4.3244  -17.0731 O   0  0  0  0  0  0  0  0  0  0  0  0
 23 24  1  0  0  0
 24  1  1  0  0  0
  1  2  2  0  0  0
  2  3  1  0  0  0
  3  4  2  0  0  0
  4  5  1  0  0  0
  5  6  2  0  0  0
  6 11  1  0  0  0
 11 12  2  0  0  0
 11 13  1  0  0  0
 13 15  1  0  0  0
 15 16  1  0  0  0
 16 17  1  0  0  0
 17 18  2  0  0  0
 18 19  1  0  0  0
 19 20  2  0  0  0
 20 21  1  0  0  0
  6  7  1  0  0  0
  7  8  1  0  0  0
  8  9  2  0  0  0
  9  1  1  0  0  0
  8  4  1  0  0  0
 21 17  1  0  0  0
 13 14  1  0  0  0
 21 22  1  0  0  0
  7 10  1  0  0  0
M  END
> <minimizedAffinity>
-5.95859

> <minimizedRMSD>
1.57503

$$$$
P48188


 23 25  0  0  0  0  0  0  0  0999 V2000
   -2.8201    5.1035  -20.0151 O   0  0  0  0  0  0  0  0  0  0  0  0
   -3.7690    5.7572  -19.8588 C   0  0  0  0  0  0  0  0  0  0  0  0
   -4.2010    7.0633  -20.5403 N   0  0  0  0  0  0  0  0  0  0  0  0
   -5.0954    7.3854  -20.2843 H   0  0  0  0  0  0  0  0  0  0  0  0
   -4.8258    5.3537  -18.9567 C   0  0  0  0  0  0  0  0  0  0  0  0
   -4.8059    5.2683  -17.5765 C   0  0  0  0  0  0  0  0  0  0  0  0
   -6.1244    4.9561  -17.1332 C   0  0  0  0  0  0  0  0  0  0  0  0
   -6.7771    4.8277  -15.8954 C   0  0  0  0  0  0  0  0  0  0  0  0
   -5.8645    5.1060  -14.4802 Cl  0  0  0  0  0  0  0  0  0  0  0  0
   -8.1345    4.5400  -15.8352 C   0  0  0  0  0  0  0  0  0  0  0  0
   -8.8672    4.3772  -17.0076 C   0  0  0  0  0  0  0  0  0  0  0  0
   -8.2603    4.4752  -18.2567 C   0  0  0  0  0  0  0  0  0  0  0  0
   -6.8954    4.7691  -18.2833 C   0  0  0  0  0  0  0  0  0  0  0  0
   -6.0701    4.9317  -19.3641 N   0  0  0  0  0  0  0  0  0  0  0  0
   -6.3304    4.7696  -20.2997 H   0  0  0  0  0  0  0  0  0  0  0  0
   -3.5123    7.8925  -21.4914 C   0  0  0  0  0  0  0  0  0  0  0  0
   -3.4456    7.1860  -22.8384 C   0  0  0  0  0  0  0  0  0  0  0  0
   -4.5765    7.5439  -23.7287 C   0  0  0  0  0  0  0  0  0  0  0  0
   -5.9260    7.5860  -23.4508 C   0  0  0  0  0  0  0  0  0  0  0  0
   -6.5234    7.9244  -24.6326 N   0  0  0  0  0  0  0  0  0  0  0  0
   -5.5353    8.0827  -25.5616 C   0  0  0  0  0  0  0  0  0  0  0  0
   -4.3491    7.8677  -25.0432 N   0  0  0  0  0  0  0  0  0  0  0  0
   -7.4897    8.0340  -24.7860 H   0  0  0  0  0  0  0  0  0  0  0  0
  1  2  2  0  0  0
  2  3  1  0  0  0
  3 16  1  0  0  0
 16 17  1  0  0  0
 17 18  1  0  0  0
 18 19  2  0  0  0
 19 20  1  0  0  0
 20 21  1  0  0  0
 21 22  2  0  0  0
  2  5  1  0  0  0
  5  6  2  0  0  0
  6  7  1  0  0  0
  7  8  2  0  0  0
  8  9  1  0  0  0
  8 10  1  0  0  0
 10 11  2  0  0  0
 11 12  1  0  0  0
 12 13  2  0  0  0
 13 14  1  0  0  0
 22 18  1  0  0  0
 14  5  1  0  0  0
 13  7  1  0  0  0
  3  4  1  0  0  0
 20 23  1  0  0  0
 14 15  1  0  0  0
M  END
> <minimizedAffinity>
-5.77448

> <minimizedRMSD>
1.43999

$$$$
P48190


 22 24  0  0  0  0  0  0  0  0999 V2000
   -3.0790    5.9634  -17.0021 C   0  0  0  0  0  0  0  0  0  0  0  0
   -2.1922    5.4150  -16.4870 O   0  0  0  0  0  0  0  0  0  0  0  0
   -3.0869    7.1731  -17.9465 N   0  0  0  0  0  0  0  0  0  0  0  0
   -3.9831    7.4999  -18.1900 H   0  0  0  0  0  0  0  0  0  0  0  0
   -4.7540    4.8889  -19.3003 C   0  0  0  0  0  0  0  0  0  0  0  0
   -5.2370    5.1079  -17.9535 N   0  0  0  0  0  0  0  0  0  0  0  0
   -4.4484    5.4989  -16.8877 C   0  0  0  0  0  0  0  0  0  0  0  0
   -5.2053    5.3043  -15.7481 C   0  0  0  0  0  0  0  0  0  0  0  0
   -6.5274    4.9636  -16.1495 C   0  0  0  0  0  0  0  0  0  0  0  0
   -7.7247    4.7090  -15.4557 C   0  0  0  0  0  0  0  0  0  0  0  0
   -8.8825    4.4172  -16.1810 C   0  0  0  0  0  0  0  0  0  0  0  0
   -8.8622    4.3909  -17.5723 C   0  0  0  0  0  0  0  0  0  0  0  0
   -7.6885    4.6260  -18.2819 C   0  0  0  0  0  0  0  0  0  0  0  0
   -6.5313    4.8990  -17.5432 C   0  0  0  0  0  0  0  0  0  0  0  0
   -1.9967    7.9084  -18.5348 C   0  0  0  0  0  0  0  0  0  0  0  0
   -1.2151    6.9954  -19.4737 C   0  0  0  0  0  0  0  0  0  0  0  0
   -1.7516    6.9762  -20.8565 C   0  0  0  0  0  0  0  0  0  0  0  0
   -3.0652    7.0242  -21.2735 C   0  0  0  0  0  0  0  0  0  0  0  0
   -3.0133    6.9119  -22.6342 N   0  0  0  0  0  0  0  0  0  0  0  0
   -1.6979    6.8125  -22.9871 C   0  0  0  0  0  0  0  0  0  0  0  0
   -0.9124    6.8552  -21.9359 N   0  0  0  0  0  0  0  0  0  0  0  0
   -3.7832    6.9040  -23.2478 H   0  0  0  0  0  0  0  0  0  0  0  0
  5  6  1  0  0  0
  6  7  1  0  0  0
  7  1  1  0  0  0
  1  2  2  0  0  0
  1  3  1  0  0  0
  3 15  1  0  0  0
 15 16  1  0  0  0
 16 17  1  0  0  0
 17 18  2  0  0  0
 18 19  1  0  0  0
 19 20  1  0  0  0
 20 21  2  0  0  0
  7  8  2  0  0  0
  8  9  1  0  0  0
  9 10  2  0  0  0
 10 11  1  0  0  0
 11 12  2  0  0  0
 12 13  1  0  0  0
 13 14  2  0  0  0
 14  6  1  0  0  0
 21 17  1  0  0  0
 14  9  1  0  0  0
  3  4  1  0  0  0
 19 22  1  0  0  0
M  END
> <minimizedAffinity>
-4.73270

> <minimizedRMSD>
1.99004

$$$$
P48314


 12 13  0  0  0  0  0  0  0  0999 V2000
   -6.1744    5.2815  -18.7047 C   0  0  0  0  0  0  0  0  0  0  0  0
   -6.1427    6.8137  -18.7545 C   0  0  0  0  0  0  0  0  0  0  0  0
   -5.1101    7.3051  -19.7673 C   0  0  0  0  0  0  0  0  0  0  0  0
   -3.7429    6.6625  -19.5376 C   0  0  0  0  0  0  0  0  0  0  0  0
   -3.8243    5.1971  -19.5140 N   0  0  0  0  0  0  0  0  0  0  0  0
   -4.7504    4.7684  -18.4405 C   0  0  0  0  0  0  0  0  0  0  0  0
   -2.8977    4.8085  -19.3383 H   0  0  0  0  0  0  0  0  0  0  0  0
   -9.1175    4.1969  -16.9726 C   0  0  0  0  0  0  0  0  0  0  0  0
   -8.4744    4.4848  -18.1486 C   0  0  0  0  0  0  0  0  0  0  0  0
   -7.1870    4.7825  -17.7917 N   0  0  0  0  0  0  0  0  0  0  0  0
   -7.0910    4.6065  -16.4426 C   0  0  0  0  0  0  0  0  0  0  0  0
   -8.2493    4.2760  -15.9166 N   0  0  0  0  0  0  0  0  0  0  0  0
  8  9  2  0  0  0
  9 10  1  0  0  0
  1 10  1  0  0  0
  1  2  1  0  0  0
  2  3  1  0  0  0
  3  4  1  0  0  0
  4  5  1  0  0  0
  5  6  1  0  0  0
 10 11  1  0  0  0
 11 12  2  0  0  0
 12  8  1  0  0  0
  6  1  1  0  0  0
  5  7  1  0  0  0
M  END
> <minimizedAffinity>
-4.15950

> <minimizedRMSD>
0.28832

$$$$
P48329


 25 27  0  0  0  0  0  0  0  0999 V2000
   -7.3999    3.4348  -14.0990 N   0  0  0  0  0  0  0  0  0  0  0  0
   -8.3774    4.5170  -14.5926 C   0  0  0  0  0  0  0  0  0  0  0  0
   -9.1682    5.1454  -14.0086 O   0  0  0  0  0  0  0  0  0  0  0  0
   -6.7731    3.1034  -14.7820 H   0  0  0  0  0  0  0  0  0  0  0  0
   -8.2047    4.6003  -16.0567 C   0  0  0  0  0  0  0  0  0  0  0  0
   -9.1456    4.3019  -17.0678 C   0  0  0  0  0  0  0  0  0  0  0  0
   -8.4688    4.4594  -18.2526 C   0  0  0  0  0  0  0  0  0  0  0  0
   -7.2126    4.8782  -17.9199 N   0  0  0  0  0  0  0  0  0  0  0  0
   -7.0084    4.9243  -16.5918 N   0  0  0  0  0  0  0  0  0  0  0  0
   -6.1630    5.3105  -18.8318 C   0  0  0  0  0  0  0  0  0  0  0  0
   -6.0737    6.8389  -18.9064 C   0  0  0  0  0  0  0  0  0  0  0  0
   -4.9655    7.2841  -19.8581 C   0  0  0  0  0  0  0  0  0  0  0  0
   -3.6341    6.6102  -19.5299 C   0  0  0  0  0  0  0  0  0  0  0  0
   -3.7605    5.1482  -19.5020 N   0  0  0  0  0  0  0  0  0  0  0  0
   -4.7669    4.7628  -18.4828 C   0  0  0  0  0  0  0  0  0  0  0  0
   -2.8595    4.7328  -19.2653 H   0  0  0  0  0  0  0  0  0  0  0  0
   -7.2529    2.8273  -12.7995 C   0  0  0  0  0  0  0  0  0  0  0  0
   -6.3866    4.3184  -10.9674 C   0  0  0  0  0  0  0  0  0  0  0  0
   -5.9894    3.3742  -12.1108 C   0  0  0  0  0  0  0  0  0  0  0  0
   -5.0796    2.2415  -11.6056 C   0  0  0  0  0  0  0  0  0  0  0  0
   -3.8866    1.9832  -12.4012 N   0  0  0  0  0  0  0  0  0  0  0  0
   -2.6919    1.5505  -11.8951 C   0  0  0  0  0  0  0  0  0  0  0  0
   -1.8858    1.3426  -12.9900 C   0  0  0  0  0  0  0  0  0  0  0  0
   -2.5486    1.6501  -14.1512 N   0  0  0  0  0  0  0  0  0  0  0  0
   -3.7436    2.0384  -13.7596 C   0  0  0  0  0  0  0  0  0  0  0  0
 19 18  1  0  0  0
 19 17  1  0  0  0
 17  1  1  0  0  0
  1  2  1  0  0  0
  2  3  2  0  0  0
  2  5  1  0  0  0
  5  6  1  0  0  0
  6  7  2  0  0  0
  7  8  1  0  0  0
 10  8  1  0  0  0
 10 11  1  0  0  0
 11 12  1  0  0  0
 12 13  1  0  0  0
 13 14  1  0  0  0
 14 15  1  0  0  0
  8  9  1  0  0  0
 19 20  1  0  0  0
 20 21  1  0  0  0
 21 22  1  0  0  0
 22 23  2  0  0  0
 23 24  1  0  0  0
 24 25  2  0  0  0
  9  5  2  0  0  0
 25 21  1  0  0  0
 15 10  1  0  0  0
  1  4  1  0  0  0
 14 16  1  0  0  0
M  END
> <minimizedAffinity>
-6.18086

> <minimizedRMSD>
1.12072

$$$$
P48332


 24 26  0  0  0  0  0  0  0  0999 V2000
   -7.3566    3.2586  -14.0648 N   0  0  0  0  0  0  0  0  0  0  0  0
   -8.2074    4.4834  -14.4584 C   0  0  0  0  0  0  0  0  0  0  0  0
   -8.9151    5.1522  -13.8141 O   0  0  0  0  0  0  0  0  0  0  0  0
   -6.7783    2.9111  -14.7818 H   0  0  0  0  0  0  0  0  0  0  0  0
   -8.0729    4.6557  -15.9112 C   0  0  0  0  0  0  0  0  0  0  0  0
   -9.0463    4.3466  -16.8881 C   0  0  0  0  0  0  0  0  0  0  0  0
   -8.4051    4.4948  -18.0910 C   0  0  0  0  0  0  0  0  0  0  0  0
   -7.1454    4.9331  -17.8006 N   0  0  0  0  0  0  0  0  0  0  0  0
   -6.9023    5.0036  -16.4799 N   0  0  0  0  0  0  0  0  0  0  0  0
   -6.1221    5.3380  -18.7516 C   0  0  0  0  0  0  0  0  0  0  0  0
   -6.0230    6.8634  -18.8613 C   0  0  0  0  0  0  0  0  0  0  0  0
   -4.9457    7.2757  -19.8617 C   0  0  0  0  0  0  0  0  0  0  0  0
   -3.6105    6.5930  -19.5681 C   0  0  0  0  0  0  0  0  0  0  0  0
   -3.7511    5.1335  -19.5072 N   0  0  0  0  0  0  0  0  0  0  0  0
   -4.7211    4.7796  -18.4412 C   0  0  0  0  0  0  0  0  0  0  0  0
   -2.8460    4.7122  -19.2981 H   0  0  0  0  0  0  0  0  0  0  0  0
   -5.8379    2.0633  -12.5623 C   0  0  0  0  0  0  0  0  0  0  0  0
   -7.2696    2.5367  -12.8129 C   0  0  0  0  0  0  0  0  0  0  0  0
   -7.9396    3.1777  -11.5973 C   0  0  0  0  0  0  0  0  0  0  0  0
   -7.0798    4.0377  -10.8033 N   0  0  0  0  0  0  0  0  0  0  0  0
   -6.5871    5.2635  -11.1510 C   0  0  0  0  0  0  0  0  0  0  0  0
   -5.8255    5.6623  -10.0784 C   0  0  0  0  0  0  0  0  0  0  0  0
   -5.8581    4.7247   -9.0808 N   0  0  0  0  0  0  0  0  0  0  0  0
   -6.6458    3.7721   -9.5319 C   0  0  0  0  0  0  0  0  0  0  0  0
 18 17  1  0  0  0
 18 19  1  0  0  0
 19 20  1  0  0  0
 20 21  1  0  0  0
 21 22  2  0  0  0
 22 23  1  0  0  0
 23 24  2  0  0  0
 18  1  1  0  0  0
  1  2  1  0  0  0
  2  3  2  0  0  0
  2  5  1  0  0  0
  5  6  1  0  0  0
  6  7  2  0  0  0
  7  8  1  0  0  0
 10  8  1  0  0  0
 10 11  1  0  0  0
 11 12  1  0  0  0
 12 13  1  0  0  0
 13 14  1  0  0  0
 14 15  1  0  0  0
  8  9  1  0  0  0
 24 20  1  0  0  0
  9  5  2  0  0  0
 15 10  1  0  0  0
  1  4  1  0  0  0
 14 16  1  0  0  0
M  END
> <minimizedAffinity>
-5.91473

> <minimizedRMSD>
0.60306

$$$$
P48397


 21 22  0  0  0  0  0  0  0  0999 V2000
   -7.2831    4.8521  -14.3016 N   0  0  0  0  0  0  0  0  0  0  0  0
   -6.5415    4.3298  -13.9189 H   0  0  0  0  0  0  0  0  0  0  0  0
   -7.5844    4.7904  -15.6852 C   0  0  0  0  0  0  0  0  0  0  0  0
   -8.8881    4.5853  -16.1528 C   0  0  0  0  0  0  0  0  0  0  0  0
   -9.1503    4.4926  -17.5207 C   0  0  0  0  0  0  0  0  0  0  0  0
   -8.1099    4.5837  -18.4373 C   0  0  0  0  0  0  0  0  0  0  0  0
   -6.8100    4.8049  -17.9994 C   0  0  0  0  0  0  0  0  0  0  0  0
   -6.5386    4.9037  -16.6331 C   0  0  0  0  0  0  0  0  0  0  0  0
   -5.2945    5.1420  -16.1007 O   0  0  0  0  0  0  0  0  0  0  0  0
   -4.3179    5.7819  -16.9246 C   0  0  0  0  0  0  0  0  0  0  0  0
   -3.2212    4.8259  -17.3750 C   0  0  0  0  0  0  0  0  0  0  0  0
   -3.4842    4.3890  -18.6399 F   0  0  0  0  0  0  0  0  0  0  0  0
   -8.1139    5.7209  -13.4576 C   0  0  0  0  0  0  0  0  0  0  0  0
   -8.1631    5.1963  -12.0253 C   0  0  0  0  0  0  0  0  0  0  0  0
   -8.3112    3.8217  -11.8093 C   0  0  0  0  0  0  0  0  0  0  0  0
   -8.4165    3.3465  -10.5089 C   0  0  0  0  0  0  0  0  0  0  0  0
   -8.3782    4.1346   -9.4107 N   0  0  0  0  0  0  0  0  0  0  0  0
   -8.2558    5.4540   -9.6290 C   0  0  0  0  0  0  0  0  0  0  0  0
   -8.1525    6.0205  -10.8893 C   0  0  0  0  0  0  0  0  0  0  0  0
   -6.1337    7.3885  -13.5961 C   0  0  0  0  0  0  0  0  0  0  0  0
   -7.6525    7.1816  -13.5639 C   0  0  0  0  0  0  0  0  0  0  0  0
 20 21  1  0  0  0
 13 21  1  0  0  0
 13  1  1  0  0  0
  1  3  1  0  0  0
  3  4  2  0  0  0
  4  5  1  0  0  0
  5  6  2  0  0  0
  6  7  1  0  0  0
  7  8  2  0  0  0
  8  9  1  0  0  0
  9 10  1  0  0  0
 10 11  1  0  0  0
 11 12  1  0  0  0
 13 14  1  0  0  0
 14 15  2  0  0  0
 15 16  1  0  0  0
 16 17  2  0  0  0
 17 18  1  0  0  0
 18 19  2  0  0  0
  8  3  1  0  0  0
 19 14  1  0  0  0
  1  2  1  0  0  0
M  END
> <minimizedAffinity>
-5.03395

> <minimizedRMSD>
0.93760

$$$$
P48437


 25 27  0  0  0  0  0  0  0  0999 V2000
   -5.4708    4.3653  -12.7092 C   0  0  0  0  0  0  0  0  0  0  0  0
   -4.4675    3.2412  -12.4634 C   0  0  0  0  0  0  0  0  0  0  0  0
   -5.8231    4.5184  -14.1737 C   0  0  0  0  0  0  0  0  0  0  0  0
   -7.1354    4.2453  -14.5754 C   0  0  0  0  0  0  0  0  0  0  0  0
   -7.5487    4.4157  -15.8956 C   0  0  0  0  0  0  0  0  0  0  0  0
   -8.8871    4.2063  -16.2666 C   0  0  0  0  0  0  0  0  0  0  0  0
   -9.2748    4.3462  -17.5923 C   0  0  0  0  0  0  0  0  0  0  0  0
   -8.3201    4.6724  -18.5439 C   0  0  0  0  0  0  0  0  0  0  0  0
   -6.9919    4.9011  -18.1633 C   0  0  0  0  0  0  0  0  0  0  0  0
   -6.5817    4.7925  -16.8401 C   0  0  0  0  0  0  0  0  0  0  0  0
   -5.3029    5.0365  -16.4881 N   0  0  0  0  0  0  0  0  0  0  0  0
   -4.9488    4.9076  -15.1824 C   0  0  0  0  0  0  0  0  0  0  0  0
   -3.6369    5.1624  -14.8356 O   0  0  0  0  0  0  0  0  0  0  0  0
   -2.7882    5.3856  -15.9544 C   0  0  0  0  0  0  0  0  0  0  0  0
   -4.9898    5.6010  -12.0699 N   0  0  0  0  0  0  0  0  0  0  0  0
   -4.6352    5.3622  -11.1438 H   0  0  0  0  0  0  0  0  0  0  0  0
   -6.0100    6.6511  -11.9134 C   0  0  0  0  0  0  0  0  0  0  0  0
   -6.9731    6.5689  -10.6789 C   0  0  0  0  0  0  0  0  0  0  0  0
   -7.3616    5.2048  -10.3185 N   0  0  0  0  0  0  0  0  0  0  0  0
   -8.3820    4.4613  -10.8436 C   0  0  0  0  0  0  0  0  0  0  0  0
   -8.2354    3.1973  -10.3212 C   0  0  0  0  0  0  0  0  0  0  0  0
   -7.1703    3.2998   -9.4148 C   0  0  0  0  0  0  0  0  0  0  0  0
   -6.6541    4.5320   -9.3811 N   0  0  0  0  0  0  0  0  0  0  0  0
   -8.9163    7.8893   -9.6455 C   0  0  0  0  0  0  0  0  0  0  0  0
   -8.2221    7.4454  -10.9283 C   0  0  0  0  0  0  0  0  0  0  0  0
 24 25  1  0  0  0
 18 25  1  0  0  0
 18 17  1  0  0  0
 17 15  1  0  0  0
 15  1  1  0  0  0
  1  2  1  0  0  0
  1  3  1  0  0  0
  3  4  2  0  0  0
  4  5  1  0  0  0
  5  6  2  0  0  0
  6  7  1  0  0  0
  7  8  2  0  0  0
  8  9  1  0  0  0
  9 10  2  0  0  0
 10 11  1  0  0  0
 11 12  2  0  0  0
 12 13  1  0  0  0
 13 14  1  0  0  0
 18 19  1  0  0  0
 19 20  1  0  0  0
 20 21  2  0  0  0
 21 22  1  0  0  0
 22 23  2  0  0  0
 12  3  1  0  0  0
 23 19  1  0  0  0
 10  5  1  0  0  0
 15 16  1  0  0  0
M  END
> <minimizedAffinity>
-5.23691

> <minimizedRMSD>
1.12814

$$$$
P48466


 19 21  0  0  0  0  0  0  0  0999 V2000
   -6.6253    4.9359   -7.4502 C   0  0  0  0  0  0  0  0  0  0  0  0
   -8.0573    5.2038   -7.5674 N   0  0  0  0  0  0  0  0  0  0  0  0
   -8.8314    3.9508   -7.7509 C   0  0  0  0  0  0  0  0  0  0  0  0
   -8.6057    3.2187   -9.0811 C   0  0  0  0  0  0  0  0  0  0  0  0
   -8.4889    4.1778  -10.1584 N   0  0  0  0  0  0  0  0  0  0  0  0
   -8.4029    3.7775  -11.4349 N   0  0  0  0  0  0  0  0  0  0  0  0
   -8.3520    4.9127  -12.1270 C   0  0  0  0  0  0  0  0  0  0  0  0
   -8.3089    6.0373  -11.2741 C   0  0  0  0  0  0  0  0  0  0  0  0
   -8.3508    5.5260   -9.9972 C   0  0  0  0  0  0  0  0  0  0  0  0
   -8.3317    6.1546   -8.6579 C   0  0  0  0  0  0  0  0  0  0  0  0
   -8.3212    5.0275  -13.4696 N   0  0  0  0  0  0  0  0  0  0  0  0
   -9.0817    5.4138  -13.9612 H   0  0  0  0  0  0  0  0  0  0  0  0
   -7.1358    4.5662  -14.1724 C   0  0  0  0  0  0  0  0  0  0  0  0
   -7.3759    4.6140  -15.6574 C   0  0  0  0  0  0  0  0  0  0  0  0
   -6.3566    4.8342  -16.5836 C   0  0  0  0  0  0  0  0  0  0  0  0
   -6.6651    4.7275  -17.9316 C   0  0  0  0  0  0  0  0  0  0  0  0
   -7.9013    4.4472  -18.3968 N   0  0  0  0  0  0  0  0  0  0  0  0
   -8.8777    4.2802  -17.4946 C   0  0  0  0  0  0  0  0  0  0  0  0
   -8.6577    4.3446  -16.1361 C   0  0  0  0  0  0  0  0  0  0  0  0
  1  2  1  0  0  0
  2  3  1  0  0  0
  3  4  1  0  0  0
  4  5  1  0  0  0
  5  6  1  0  0  0
  6  7  2  0  0  0
  7 11  1  0  0  0
 11 13  1  0  0  0
 13 14  1  0  0  0
 14 15  2  0  0  0
 15 16  1  0  0  0
 16 17  2  0  0  0
 17 18  1  0  0  0
 18 19  2  0  0  0
  7  8  1  0  0  0
  8  9  2  0  0  0
  9 10  1  0  0  0
 10  2  1  0  0  0
  9  5  1  0  0  0
 19 14  1  0  0  0
 11 12  1  0  0  0
M  END
> <minimizedAffinity>
-5.49570

> <minimizedRMSD>
0.46197

$$$$
P48694


 19 20  0  0  0  0  0  0  0  0999 V2000
   -6.7964    1.6491  -13.5262 O   0  0  0  0  0  0  0  0  0  0  0  0
   -6.0817    2.5676  -13.4407 C   0  0  0  0  0  0  0  0  0  0  0  0
   -6.3089    4.0537  -13.8110 N   0  0  0  0  0  0  0  0  0  0  0  0
   -5.5154    4.6285  -13.7147 H   0  0  0  0  0  0  0  0  0  0  0  0
   -4.6836    2.4243  -12.8514 C   0  0  0  0  0  0  0  0  0  0  0  0
   -3.6181    2.4576  -13.9398 C   0  0  0  0  0  0  0  0  0  0  0  0
   -2.4234    1.5393  -13.6297 C   0  0  0  0  0  0  0  0  0  0  0  0
   -1.4354    2.3488  -12.7944 C   0  0  0  0  0  0  0  0  0  0  0  0
   -1.2568    3.6677  -13.5324 C   0  0  0  0  0  0  0  0  0  0  0  0
   -2.8877    4.0957  -14.1194 S   0  0  0  0  0  0  0  0  0  0  0  0
   -3.4790    5.0110  -13.1610 O   0  0  0  0  0  0  0  0  0  0  0  0
   -2.8031    4.4307  -15.5250 O   0  0  0  0  0  0  0  0  0  0  0  0
   -7.4916    4.7313  -14.2730 C   0  0  0  0  0  0  0  0  0  0  0  0
   -7.7587    4.6350  -15.7460 C   0  0  0  0  0  0  0  0  0  0  0  0
   -6.7698    4.7582  -16.7231 C   0  0  0  0  0  0  0  0  0  0  0  0
   -7.1167    4.7001  -18.0727 C   0  0  0  0  0  0  0  0  0  0  0  0
   -8.4455    4.5190  -18.4069 C   0  0  0  0  0  0  0  0  0  0  0  0
   -9.4375    4.4227  -17.4968 N   0  0  0  0  0  0  0  0  0  0  0  0
   -9.0684    4.4970  -16.1993 C   0  0  0  0  0  0  0  0  0  0  0  0
  1  2  2  0  0  0
  2  5  1  0  0  0
  6  5  1  0  0  0
  6  7  1  0  0  0
  7  8  1  0  0  0
  8  9  1  0  0  0
  9 10  1  0  0  0
 10 11  2  0  0  0
 10 12  2  0  0  0
  2  3  1  0  0  0
  3 13  1  0  0  0
 13 14  1  0  0  0
 14 15  2  0  0  0
 15 16  1  0  0  0
 16 17  2  0  0  0
 17 18  1  0  0  0
 18 19  2  0  0  0
 10  6  1  0  0  0
 19 14  1  0  0  0
  3  4  1  0  0  0
M  END
> <minimizedAffinity>
-5.47425

> <minimizedRMSD>
0.63091

$$$$
P48695


 26 27  0  0  0  0  0  0  0  0999 V2000
   -7.4282    4.3218   -9.1878 C   0  0  0  0  0  0  0  0  0  0  0  0
   -7.2619    3.1762   -9.9322 C   0  0  0  0  0  0  0  0  0  0  0  0
   -6.2806    3.5014  -10.8162 N   0  0  0  0  0  0  0  0  0  0  0  0
   -5.8427    4.7625  -10.6263 N   0  0  0  0  0  0  0  0  0  0  0  0
   -6.5487    5.2788   -9.6316 N   0  0  0  0  0  0  0  0  0  0  0  0
   -8.3514    4.6049   -8.0605 C   0  0  0  0  0  0  0  0  0  0  0  0
   -7.6511    4.6782   -6.6864 C   0  0  0  0  0  0  0  0  0  0  0  0
   -7.5676    6.1137   -6.1367 C   0  0  0  0  0  0  0  0  0  0  0  0
   -6.7999    6.9594   -6.9854 O   0  0  0  0  0  0  0  0  0  0  0  0
   -5.8939    6.6186   -7.0476 H   0  0  0  0  0  0  0  0  0  0  0  0
   -8.3467    3.7373   -5.6742 C   0  0  0  0  0  0  0  0  0  0  0  0
   -9.8495    3.9776   -5.4856 C   0  0  0  0  0  0  0  0  0  0  0  0
   -9.9929    1.6736   -6.5794 C   0  0  0  0  0  0  0  0  0  0  0  0
  -10.6921    2.7211   -5.7265 C   0  0  0  0  0  0  0  0  0  0  0  0
   -5.7431    2.7114  -11.8968 C   0  0  0  0  0  0  0  0  0  0  0  0
   -6.6861    2.6984  -13.0876 C   0  0  0  0  0  0  0  0  0  0  0  0
   -6.9595    1.7016  -13.6353 O   0  0  0  0  0  0  0  0  0  0  0  0
   -7.1274    4.1631  -13.3786 N   0  0  0  0  0  0  0  0  0  0  0  0
   -6.6949    4.8440  -12.8142 H   0  0  0  0  0  0  0  0  0  0  0  0
   -8.0653    4.6831  -14.3392 C   0  0  0  0  0  0  0  0  0  0  0  0
   -7.5697    4.6726  -15.7542 C   0  0  0  0  0  0  0  0  0  0  0  0
   -6.2281    4.8433  -16.1025 C   0  0  0  0  0  0  0  0  0  0  0  0
   -5.8544    4.8358  -17.4453 C   0  0  0  0  0  0  0  0  0  0  0  0
   -6.8363    4.6545  -18.4008 C   0  0  0  0  0  0  0  0  0  0  0  0
   -8.1473    4.5189  -18.1111 N   0  0  0  0  0  0  0  0  0  0  0  0
   -8.4765    4.5475  -16.8022 C   0  0  0  0  0  0  0  0  0  0  0  0
 13 14  1  0  0  0
 14 12  1  0  0  0
 12 11  1  0  0  0
  7 11  1  0  0  0
  7  8  1  0  0  0
  8  9  1  0  0  0
  7  6  1  0  0  0
  6  1  1  0  0  0
  1  2  2  0  0  0
  2  3  1  0  0  0
  3 15  1  0  0  0
 15 16  1  0  0  0
 16 17  2  0  0  0
 16 18  1  0  0  0
 18 20  1  0  0  0
 20 21  1  0  0  0
 21 22  2  0  0  0
 22 23  1  0  0  0
 23 24  2  0  0  0
 24 25  1  0  0  0
 25 26  2  0  0  0
  3  4  1  0  0  0
  4  5  2  0  0  0
  5  1  1  0  0  0
 26 21  1  0  0  0
  9 10  1  0  0  0
 18 19  1  0  0  0
M  END
> <minimizedAffinity>
-5.62260

> <minimizedRMSD>
3.56501

$$$$
P48728


 20 22  0  0  0  0  0  0  0  0999 V2000
   -7.4589    4.8830  -15.9835 N   0  0  0  0  0  0  0  0  0  0  0  0
   -6.1626    5.1655  -16.3872 C   0  0  0  0  0  0  0  0  0  0  0  0
   -5.3612    5.2664  -15.3440 N   0  0  0  0  0  0  0  0  0  0  0  0
   -6.0969    4.9151  -14.2546 C   0  0  0  0  0  0  0  0  0  0  0  0
   -5.6729    4.7474  -12.9277 C   0  0  0  0  0  0  0  0  0  0  0  0
   -6.6163    4.3684  -11.9878 C   0  0  0  0  0  0  0  0  0  0  0  0
   -6.2648    4.1557  -10.7117 F   0  0  0  0  0  0  0  0  0  0  0  0
   -7.9395    4.2068  -12.3444 C   0  0  0  0  0  0  0  0  0  0  0  0
   -8.3878    4.3831  -13.6590 C   0  0  0  0  0  0  0  0  0  0  0  0
   -7.4254    4.7117  -14.6100 C   0  0  0  0  0  0  0  0  0  0  0  0
   -5.6752    5.3199  -17.7977 C   0  0  0  0  0  0  0  0  0  0  0  0
   -4.1535    5.1348  -17.8841 C   0  0  0  0  0  0  0  0  0  0  0  0
   -3.6857    5.3377  -19.3207 C   0  0  0  0  0  0  0  0  0  0  0  0
   -4.1654    6.6797  -19.8735 C   0  0  0  0  0  0  0  0  0  0  0  0
   -5.6172    6.8560  -19.7629 N   0  0  0  0  0  0  0  0  0  0  0  0
   -6.0436    6.6921  -18.3643 C   0  0  0  0  0  0  0  0  0  0  0  0
   -6.0863    6.1595  -20.3419 H   0  0  0  0  0  0  0  0  0  0  0  0
   -8.6776    4.8419  -16.7931 C   0  0  0  0  0  0  0  0  0  0  0  0
   -8.4566    3.4414  -18.9901 N   0  0  0  0  0  0  0  0  0  0  0  0
   -8.5769    4.0359  -18.0001 C   0  0  0  0  0  0  0  0  0  0  0  0
 19 20  3  0  0  0
 20 18  1  0  0  0
 18  1  1  0  0  0
  1  2  1  0  0  0
 11  2  1  0  0  0
 11 12  1  0  0  0
 12 13  1  0  0  0
 13 14  1  0  0  0
 14 15  1  0  0  0
 15 16  1  0  0  0
  2  3  2  0  0  0
  3  4  1  0  0  0
  4  5  2  0  0  0
  5  6  1  0  0  0
  6  7  1  0  0  0
  6  8  2  0  0  0
  8  9  1  0  0  0
  9 10  2  0  0  0
 10  1  1  0  0  0
 16 11  1  0  0  0
 10  4  1  0  0  0
 15 17  1  0  0  0
M  END
> <minimizedAffinity>
-5.68484

> <minimizedRMSD>
1.28796

$$$$
P48924


 25 28  0  0  0  0  0  0  0  0999 V2000
   -8.6992    4.4677  -11.4483 O   0  0  0  0  0  0  0  0  0  0  0  0
   -7.9672    4.0290  -10.6566 C   0  0  0  0  0  0  0  0  0  0  0  0
   -6.7262    3.1442  -10.8316 N   0  0  0  0  0  0  0  0  0  0  0  0
   -6.2262    2.9672  -10.0023 H   0  0  0  0  0  0  0  0  0  0  0  0
   -8.2188    4.2691   -9.2499 C   0  0  0  0  0  0  0  0  0  0  0  0
   -8.1462    5.5274   -8.6142 C   0  0  0  0  0  0  0  0  0  0  0  0
   -8.5035    5.4794   -7.3306 N   0  0  0  0  0  0  0  0  0  0  0  0
   -8.8197    4.1831   -7.1536 N   0  0  0  0  0  0  0  0  0  0  0  0
   -8.7026    3.4095   -8.2743 C   0  0  0  0  0  0  0  0  0  0  0  0
   -9.1948    1.9997   -8.2856 C   0  0  0  0  0  0  0  0  0  0  0  0
   -9.5777    1.4927   -6.9683 N   0  0  0  0  0  0  0  0  0  0  0  0
  -10.2224    2.4981   -6.1294 C   0  0  0  0  0  0  0  0  0  0  0  0
   -9.3317    3.7076   -5.8864 C   0  0  0  0  0  0  0  0  0  0  0  0
   -8.7385    1.1627   -6.4916 H   0  0  0  0  0  0  0  0  0  0  0  0
   -6.1764    2.5335  -12.0054 C   0  0  0  0  0  0  0  0  0  0  0  0
   -5.0717    3.3859  -12.6077 C   0  0  0  0  0  0  0  0  0  0  0  0
   -5.4083    3.8513  -13.9924 C   0  0  0  0  0  0  0  0  0  0  0  0
   -4.4008    4.2290  -14.8786 C   0  0  0  0  0  0  0  0  0  0  0  0
   -4.7209    4.6598  -16.1658 C   0  0  0  0  0  0  0  0  0  0  0  0
   -6.0679    4.7104  -16.5696 C   0  0  0  0  0  0  0  0  0  0  0  0
   -6.5187    5.0925  -17.8146 N   0  0  0  0  0  0  0  0  0  0  0  0
   -7.8302    5.0229  -17.8278 C   0  0  0  0  0  0  0  0  0  0  0  0
   -8.6026    4.5191  -16.3970 S   0  0  0  0  0  0  0  0  0  0  0  0
   -7.0619    4.3398  -15.6633 C   0  0  0  0  0  0  0  0  0  0  0  0
   -6.7569    3.9051  -14.3739 C   0  0  0  0  0  0  0  0  0  0  0  0
  1  2  2  0  0  0
  2  3  1  0  0  0
  3 15  1  0  0  0
 15 16  1  0  0  0
 16 17  1  0  0  0
 17 18  2  0  0  0
 18 19  1  0  0  0
 19 20  2  0  0  0
 20 21  1  0  0  0
 21 22  2  0  0  0
 22 23  1  0  0  0
 23 24  1  0  0  0
 24 25  2  0  0  0
  2  5  1  0  0  0
  5  6  1  0  0  0
  6  7  2  0  0  0
  7  8  1  0  0  0
  8  9  1  0  0  0
  9 10  1  0  0  0
 10 11  1  0  0  0
 11 12  1  0  0  0
 12 13  1  0  0  0
 25 17  1  0  0  0
  9  5  2  0  0  0
 24 20  1  0  0  0
 13  8  1  0  0  0
  3  4  1  0  0  0
 11 14  1  0  0  0
M  END
> <minimizedAffinity>
-6.78401

> <minimizedRMSD>
1.48276

$$$$
P48957


 23 25  0  0  0  0  0  0  0  0999 V2000
   -6.3710    4.7790  -12.3976 N   0  0  0  0  0  0  0  0  0  0  0  0
   -7.8993    4.7007  -12.1999 C   0  0  0  0  0  0  0  0  0  0  0  0
   -8.7628    4.6954  -12.9819 O   0  0  0  0  0  0  0  0  0  0  0  0
   -5.8503    4.8449  -11.5646 H   0  0  0  0  0  0  0  0  0  0  0  0
   -8.1354    4.5483  -10.7474 C   0  0  0  0  0  0  0  0  0  0  0  0
   -7.8410    5.6250   -9.8163 C   0  0  0  0  0  0  0  0  0  0  0  0
   -7.9973    5.3901   -8.5016 C   0  0  0  0  0  0  0  0  0  0  0  0
   -8.4418    4.1354   -8.0843 N   0  0  0  0  0  0  0  0  0  0  0  0
   -8.6338    3.6503   -6.8180 C   0  0  0  0  0  0  0  0  0  0  0  0
   -9.0643    2.3530   -6.9849 C   0  0  0  0  0  0  0  0  0  0  0  0
   -9.1562    2.0373   -8.3147 N   0  0  0  0  0  0  0  0  0  0  0  0
   -8.7624    3.1059   -8.9602 C   0  0  0  0  0  0  0  0  0  0  0  0
   -8.5961    3.3465  -10.3479 C   0  0  0  0  0  0  0  0  0  0  0  0
   -5.2375    4.8440  -15.6797 C   0  0  0  0  0  0  0  0  0  0  0  0
   -4.1342    4.1102  -15.2632 C   0  0  0  0  0  0  0  0  0  0  0  0
   -4.2313    3.8281  -13.5627 S   0  0  0  0  0  0  0  0  0  0  0  0
   -5.6352    4.7719  -13.5221 C   0  0  0  0  0  0  0  0  0  0  0  0
   -5.9747    5.3583  -14.6291 N   0  0  0  0  0  0  0  0  0  0  0  0
   -5.6138    5.0527  -17.0858 C   0  0  0  0  0  0  0  0  0  0  0  0
   -4.9076    5.7321  -17.8254 O   0  0  0  0  0  0  0  0  0  0  0  0
   -6.7379    4.4236  -17.5676 O   0  0  0  0  0  0  0  0  0  0  0  0
   -8.9711    4.2141  -18.4888 C   0  0  0  0  0  0  0  0  0  0  0  0
   -7.9019    5.1605  -17.9965 C   0  0  0  0  0  0  0  0  0  0  0  0
 22 23  1  0  0  0
 23 21  1  0  0  0
 21 19  1  0  0  0
 19 20  2  0  0  0
 19 14  1  0  0  0
 14 15  2  0  0  0
 15 16  1  0  0  0
 16 17  1  0  0  0
 17  1  1  0  0  0
  1  2  1  0  0  0
  2  3  2  0  0  0
  2  5  1  0  0  0
  5  6  1  0  0  0
  6  7  2  0  0  0
  7  8  1  0  0  0
  8  9  1  0  0  0
  9 10  2  0  0  0
 10 11  1  0  0  0
 11 12  2  0  0  0
 12 13  1  0  0  0
 17 18  2  0  0  0
 18 14  1  0  0  0
 13  5  2  0  0  0
 12  8  1  0  0  0
  1  4  1  0  0  0
M  END
> <minimizedAffinity>
-5.88258

> <minimizedRMSD>
1.65424

$$$$
P49055


 19 20  0  0  0  0  0  0  0  0999 V2000
   -7.8905    3.8327  -14.4448 N   0  0  0  0  0  0  0  0  0  0  0  0
   -8.7383    3.6453  -13.9806 H   0  0  0  0  0  0  0  0  0  0  0  0
   -6.9774    5.7462  -17.3662 C   0  0  0  0  0  0  0  0  0  0  0  0
   -7.9656    5.4868  -18.2409 N   0  0  0  0  0  0  0  0  0  0  0  0
   -8.9153    4.6499  -17.8280 C   0  0  0  0  0  0  0  0  0  0  0  0
   -8.8911    4.0513  -16.5939 C   0  0  0  0  0  0  0  0  0  0  0  0
   -7.8813    4.4126  -15.7246 C   0  0  0  0  0  0  0  0  0  0  0  0
   -6.9131    5.2561  -16.1044 N   0  0  0  0  0  0  0  0  0  0  0  0
   -5.8378    6.5967  -17.8712 C   0  0  0  0  0  0  0  0  0  0  0  0
   -5.4484    7.6621  -19.9202 C   0  0  0  0  0  0  0  0  0  0  0  0
   -6.2836    7.6262  -18.7708 O   0  0  0  0  0  0  0  0  0  0  0  0
   -6.6114    3.5161  -13.8233 C   0  0  0  0  0  0  0  0  0  0  0  0
   -6.6719    3.3117  -12.3020 C   0  0  0  0  0  0  0  0  0  0  0  0
   -5.9012    2.0884  -11.7894 C   0  0  0  0  0  0  0  0  0  0  0  0
   -5.8532    2.0876  -10.2576 C   0  0  0  0  0  0  0  0  0  0  0  0
   -6.9730    2.9212   -9.6335 C   0  0  0  0  0  0  0  0  0  0  0  0
   -8.2216    2.7865  -10.3745 N   0  0  0  0  0  0  0  0  0  0  0  0
   -8.1086    3.3033  -11.7479 C   0  0  0  0  0  0  0  0  0  0  0  0
   -8.9513    3.3059   -9.8866 H   0  0  0  0  0  0  0  0  0  0  0  0
 10 11  1  0  0  0
 11  9  1  0  0  0
  9  3  1  0  0  0
  3  4  2  0  0  0
  4  5  1  0  0  0
  5  6  2  0  0  0
  6  7  1  0  0  0
  7  1  1  0  0  0
  1 12  1  0  0  0
 13 12  1  0  0  0
 13 14  1  0  0  0
 14 15  1  0  0  0
 15 16  1  0  0  0
 16 17  1  0  0  0
 17 18  1  0  0  0
  7  8  2  0  0  0
  8  3  1  0  0  0
 18 13  1  0  0  0
  1  2  1  0  0  0
 17 19  1  0  0  0
M  END
> <minimizedAffinity>
-5.13779

> <minimizedRMSD>
3.13930

$$$$
P49137


 23 25  0  0  0  0  0  0  0  0999 V2000
   -7.9318    5.0314  -13.1383 N   0  0  0  0  0  0  0  0  0  0  0  0
   -8.0824    4.0322  -12.9996 H   0  0  0  0  0  0  0  0  0  0  0  0
   -7.0429    5.2548  -14.3196 C   0  0  0  0  0  0  0  0  0  0  0  0
   -6.5867    5.1318  -16.8569 N   0  0  0  0  0  0  0  0  0  0  0  0
   -6.9838    4.5706  -18.1632 C   0  0  0  0  0  0  0  0  0  0  0  0
   -8.4684    4.5806  -18.4578 C   0  0  0  0  0  0  0  0  0  0  0  0
   -9.2638    4.0355  -17.2978 C   0  0  0  0  0  0  0  0  0  0  0  0
   -8.8620    4.6737  -15.9771 C   0  0  0  0  0  0  0  0  0  0  0  0
   -7.3608    4.5643  -15.7001 C   0  0  0  0  0  0  0  0  0  0  0  0
   -5.1253    4.9588  -16.7464 C   0  0  0  0  0  0  0  0  0  0  0  0
   -5.0699    7.4743  -16.7662 C   0  0  0  0  0  0  0  0  0  0  0  0
   -4.3369    6.2030  -17.1231 C   0  0  0  0  0  0  0  0  0  0  0  0
   -7.2550    5.6080  -11.9593 C   0  0  0  0  0  0  0  0  0  0  0  0
   -7.9531    5.4516  -10.6483 C   0  0  0  0  0  0  0  0  0  0  0  0
   -8.2778    6.5021   -9.7443 C   0  0  0  0  0  0  0  0  0  0  0  0
   -8.6714    6.0731   -8.5405 N   0  0  0  0  0  0  0  0  0  0  0  0
   -8.6313    4.7345   -8.6734 N   0  0  0  0  0  0  0  0  0  0  0  0
   -8.2459    4.3141   -9.9180 C   0  0  0  0  0  0  0  0  0  0  0  0
   -8.1654    2.8680  -10.2130 C   0  0  0  0  0  0  0  0  0  0  0  0
   -7.9267    2.1072   -8.9866 N   0  0  0  0  0  0  0  0  0  0  0  0
   -8.9370    2.4071   -7.9695 C   0  0  0  0  0  0  0  0  0  0  0  0
   -8.8402    3.8641   -7.5290 C   0  0  0  0  0  0  0  0  0  0  0  0
   -7.0054    2.3471   -8.6207 H   0  0  0  0  0  0  0  0  0  0  0  0
 11 12  1  0  0  0
 12 10  1  0  0  0
 10  4  1  0  0  0
  4  5  1  0  0  0
  5  6  1  0  0  0
  6  7  1  0  0  0
  7  8  1  0  0  0
  8  9  1  0  0  0
  9  3  1  0  0  0
  3  1  1  0  0  0
  1 13  1  0  0  0
 13 14  1  0  0  0
 14 15  1  0  0  0
 15 16  2  0  0  0
 16 17  1  0  0  0
 17 18  1  0  0  0
 18 19  1  0  0  0
 19 20  1  0  0  0
 20 21  1  0  0  0
 21 22  1  0  0  0
  9  4  1  0  0  0
 18 14  2  0  0  0
 22 17  1  0  0  0
  1  2  1  0  0  0
 20 23  1  0  0  0
M  END
> <minimizedAffinity>
-5.21272

> <minimizedRMSD>
0.41472

$$$$
P49517


 16 18  0  0  0  0  0  0  0  0999 V2000
   -9.9653   10.9651  -27.2093 Cl  0  0  0  0  0  0  0  0  0  0  0  0
   -9.5556    9.3316  -27.4950 C   0  0  0  0  0  0  0  0  0  0  0  0
  -10.3290    8.4572  -28.2597 C   0  0  0  0  0  0  0  0  0  0  0  0
   -9.9420    7.1240  -28.4313 C   0  0  0  0  0  0  0  0  0  0  0  0
   -8.7821    6.6281  -27.8208 C   0  0  0  0  0  0  0  0  0  0  0  0
   -8.0144    7.5004  -27.0380 C   0  0  0  0  0  0  0  0  0  0  0  0
   -6.9118    7.2560  -26.2640 N   0  0  0  0  0  0  0  0  0  0  0  0
   -6.6961    8.3797  -25.6172 C   0  0  0  0  0  0  0  0  0  0  0  0
   -7.4568    9.3961  -26.1105 N   0  0  0  0  0  0  0  0  0  0  0  0
   -8.4037    8.8262  -26.9175 C   0  0  0  0  0  0  0  0  0  0  0  0
   -7.3467   10.3562  -25.9226 H   0  0  0  0  0  0  0  0  0  0  0  0
   -5.8289    8.5412  -24.3543 C   0  0  0  0  0  0  0  0  0  0  0  0
   -5.2300    7.4620  -23.7445 C   0  0  0  0  0  0  0  0  0  0  0  0
   -4.5203    7.9691  -22.2748 S   0  0  0  0  0  0  0  0  0  0  0  0
   -5.0327    9.5736  -22.6004 C   0  0  0  0  0  0  0  0  0  0  0  0
   -5.7173    9.7592  -23.7084 N   0  0  0  0  0  0  0  0  0  0  0  0
  1  2  1  0  0  0
  2  3  2  0  0  0
  3  4  1  0  0  0
  4  5  2  0  0  0
  5  6  1  0  0  0
  6  7  1  0  0  0
  7  8  2  0  0  0
  8 12  1  0  0  0
 12 13  2  0  0  0
 13 14  1  0  0  0
 14 15  1  0  0  0
 15 16  2  0  0  0
  8  9  1  0  0  0
  9 10  1  0  0  0
 10  2  1  0  0  0
 10  6  2  0  0  0
 16 12  1  0  0  0
  9 11  1  0  0  0
M  END
> <minimizedAffinity>
-2.87668

> <minimizedRMSD>
0.25676

$$$$
P49519


 25 28  0  0  0  0  0  0  0  0999 V2000
   -8.2613    8.9134  -26.8331 N   0  0  0  0  0  0  0  0  0  0  0  0
   -7.2397    8.1366  -26.3351 C   0  0  0  0  0  0  0  0  0  0  0  0
   -7.0972    7.0436  -27.0555 N   0  0  0  0  0  0  0  0  0  0  0  0
   -8.2161    6.9730  -27.8306 C   0  0  0  0  0  0  0  0  0  0  0  0
   -8.6356    5.9518  -28.6902 C   0  0  0  0  0  0  0  0  0  0  0  0
   -9.8752    6.0783  -29.3219 C   0  0  0  0  0  0  0  0  0  0  0  0
  -10.6916    7.1804  -29.0741 C   0  0  0  0  0  0  0  0  0  0  0  0
  -10.2822    8.2076  -28.2202 C   0  0  0  0  0  0  0  0  0  0  0  0
   -9.0180    8.0936  -27.6409 C   0  0  0  0  0  0  0  0  0  0  0  0
   -6.4193    8.3477  -25.0214 C   0  0  0  0  0  0  0  0  0  0  0  0
   -5.9246    7.2541  -24.3369 C   0  0  0  0  0  0  0  0  0  0  0  0
   -5.2705    7.7552  -22.8406 S   0  0  0  0  0  0  0  0  0  0  0  0
   -5.6461    9.3767  -23.2483 C   0  0  0  0  0  0  0  0  0  0  0  0
   -6.2534    9.5711  -24.4002 N   0  0  0  0  0  0  0  0  0  0  0  0
   -8.5523   10.2925  -26.5078 C   0  0  0  0  0  0  0  0  0  0  0  0
   -9.3470   11.5478  -28.4621 O   0  0  0  0  0  0  0  0  0  0  0  0
   -8.2261   11.3441  -27.5844 C   0  0  0  0  0  0  0  0  0  0  0  0
   -9.1180   12.2128  -29.1301 H   0  0  0  0  0  0  0  0  0  0  0  0
   -6.9310   11.0423  -28.3810 C   0  0  0  0  0  0  0  0  0  0  0  0
   -5.6877   11.2464  -27.6031 N   0  0  0  0  0  0  0  0  0  0  0  0
   -5.1004   12.5876  -27.8286 C   0  0  0  0  0  0  0  0  0  0  0  0
   -3.5907   12.6135  -27.5418 C   0  0  0  0  0  0  0  0  0  0  0  0
   -2.8435   11.7650  -28.4236 O   0  0  0  0  0  0  0  0  0  0  0  0
   -3.6021   10.6445  -28.8988 C   0  0  0  0  0  0  0  0  0  0  0  0
   -4.6878   10.1942  -27.9087 C   0  0  0  0  0  0  0  0  0  0  0  0
 17 16  1  0  0  0
 17 19  1  0  0  0
 19 20  1  0  0  0
 20 21  1  0  0  0
 21 22  1  0  0  0
 22 23  1  0  0  0
 23 24  1  0  0  0
 24 25  1  0  0  0
 17 15  1  0  0  0
 15  1  1  0  0  0
  1  2  1  0  0  0
  2 10  1  0  0  0
 10 11  2  0  0  0
 11 12  1  0  0  0
 12 13  1  0  0  0
 13 14  2  0  0  0
  2  3  2  0  0  0
  3  4  1  0  0  0
  4  5  2  0  0  0
  5  6  1  0  0  0
  6  7  2  0  0  0
  7  8  1  0  0  0
  8  9  2  0  0  0
 25 20  1  0  0  0
  9  1  1  0  0  0
 14 10  1  0  0  0
  9  4  1  0  0  0
 16 18  1  0  0  0
M  END
> <minimizedAffinity>
-3.18546

> <minimizedRMSD>
2.66623

$$$$
P49681


 23 25  0  0  0  0  0  0  0  0999 V2000
   -8.3904    4.4570  -14.0526 N   0  0  0  0  0  0  0  0  0  0  0  0
   -9.1854    4.0954  -14.5069 H   0  0  0  0  0  0  0  0  0  0  0  0
   -8.3093    4.5572  -12.7041 C   0  0  0  0  0  0  0  0  0  0  0  0
   -8.1389    3.5625  -11.8747 N   0  0  0  0  0  0  0  0  0  0  0  0
   -8.2269    4.2587  -10.5666 C   0  0  0  0  0  0  0  0  0  0  0  0
   -7.3862    3.7161   -9.4405 C   0  0  0  0  0  0  0  0  0  0  0  0
   -7.1258    4.8221   -8.3933 C   0  0  0  0  0  0  0  0  0  0  0  0
   -8.1368    5.9834   -8.4135 C   0  0  0  0  0  0  0  0  0  0  0  0
   -8.2934    6.6396   -9.7997 C   0  0  0  0  0  0  0  0  0  0  0  0
   -7.7991    5.6946  -10.8674 C   0  0  0  0  0  0  0  0  0  0  0  0
   -8.3045    5.8410  -12.2078 N   0  0  0  0  0  0  0  0  0  0  0  0
   -8.5824    6.6681  -12.6638 H   0  0  0  0  0  0  0  0  0  0  0  0
   -7.2233    4.9201  -14.7811 C   0  0  0  0  0  0  0  0  0  0  0  0
   -6.0297    4.8881  -18.3281 C   0  0  0  0  0  0  0  0  0  0  0  0
   -6.1194    5.1255  -16.9706 C   0  0  0  0  0  0  0  0  0  0  0  0
   -7.2138    4.6367  -16.2537 C   0  0  0  0  0  0  0  0  0  0  0  0
   -8.2180    3.9923  -16.9679 C   0  0  0  0  0  0  0  0  0  0  0  0
   -8.0462    3.8060  -18.3338 C   0  0  0  0  0  0  0  0  0  0  0  0
   -6.9672    4.2341  -19.0272 N   0  0  0  0  0  0  0  0  0  0  0  0
   -5.0408    5.5105  -19.0484 O   0  0  0  0  0  0  0  0  0  0  0  0
   -3.4630    4.5738  -20.5560 C   0  0  0  0  0  0  0  0  0  0  0  0
   -3.8256    4.7538  -19.0842 C   0  0  0  0  0  0  0  0  0  0  0  0
   -2.6947    5.4678  -18.3357 C   0  0  0  0  0  0  0  0  0  0  0  0
 21 22  1  0  0  0
 22 23  1  0  0  0
 22 20  1  0  0  0
 20 14  1  0  0  0
 14 15  2  0  0  0
 15 16  1  0  0  0
 16 13  1  0  0  0
 13  1  1  0  0  0
  1  3  1  0  0  0
  3  4  2  0  0  0
  4  5  1  0  0  0
  5  6  1  0  0  0
  6  7  1  0  0  0
  7  8  1  0  0  0
  8  9  1  0  0  0
 10  9  1  0  0  0
 10 11  1  0  0  0
 16 17  2  0  0  0
 17 18  1  0  0  0
 18 19  2  0  0  0
 19 14  1  0  0  0
 11  3  1  0  0  0
 10  5  1  0  0  0
  1  2  1  0  0  0
 11 12  1  0  0  0
M  END
> <minimizedAffinity>
-6.30564

> <minimizedRMSD>
0.71259

$$$$
P49683


 20 22  0  0  0  0  0  0  0  0999 V2000
   -7.9013    4.1074  -13.4420 N   0  0  0  0  0  0  0  0  0  0  0  0
   -8.2767    3.3228  -13.9033 H   0  0  0  0  0  0  0  0  0  0  0  0
   -8.1291    4.2093  -12.1240 C   0  0  0  0  0  0  0  0  0  0  0  0
   -8.4311    3.1857  -11.3854 N   0  0  0  0  0  0  0  0  0  0  0  0
   -8.6833    3.7675  -10.0429 C   0  0  0  0  0  0  0  0  0  0  0  0
   -7.9417    2.9843   -8.9718 C   0  0  0  0  0  0  0  0  0  0  0  0
   -7.8388    3.8267   -7.7082 C   0  0  0  0  0  0  0  0  0  0  0  0
   -7.0431    5.1165   -7.9187 C   0  0  0  0  0  0  0  0  0  0  0  0
   -6.9542    5.5412   -9.3819 C   0  0  0  0  0  0  0  0  0  0  0  0
   -8.2564    5.2572  -10.1239 C   0  0  0  0  0  0  0  0  0  0  0  0
   -8.0906    5.4374  -11.5498 N   0  0  0  0  0  0  0  0  0  0  0  0
   -7.9716    6.2952  -12.0179 H   0  0  0  0  0  0  0  0  0  0  0  0
   -7.1541    5.0472  -14.2433 C   0  0  0  0  0  0  0  0  0  0  0  0
   -7.7389    4.1138  -19.7115 F   0  0  0  0  0  0  0  0  0  0  0  0
   -7.6350    4.3950  -18.4122 C   0  0  0  0  0  0  0  0  0  0  0  0
   -8.7426    4.2597  -17.5996 C   0  0  0  0  0  0  0  0  0  0  0  0
   -8.5915    4.4664  -16.2363 C   0  0  0  0  0  0  0  0  0  0  0  0
   -7.3350    4.8030  -15.7260 C   0  0  0  0  0  0  0  0  0  0  0  0
   -6.2502    4.9936  -16.5253 N   0  0  0  0  0  0  0  0  0  0  0  0
   -6.4265    4.7710  -17.8542 C   0  0  0  0  0  0  0  0  0  0  0  0
 14 15  1  0  0  0
 15 16  2  0  0  0
 16 17  1  0  0  0
 17 18  2  0  0  0
 18 13  1  0  0  0
 13  1  1  0  0  0
  1  3  1  0  0  0
  3  4  2  0  0  0
  4  5  1  0  0  0
  5  6  1  0  0  0
  6  7  1  0  0  0
  7  8  1  0  0  0
  8  9  1  0  0  0
 10  9  1  0  0  0
 10 11  1  0  0  0
 18 19  1  0  0  0
 19 20  2  0  0  0
 20 15  1  0  0  0
 11  3  1  0  0  0
 10  5  1  0  0  0
  1  2  1  0  0  0
 11 12  1  0  0  0
M  END
> <minimizedAffinity>
-5.40901

> <minimizedRMSD>
0.54610

$$$$
P49724


 22 24  0  0  0  0  0  0  0  0999 V2000
   -5.8734    6.7982  -16.4459 O   0  0  0  0  0  0  0  0  0  0  0  0
   -5.5326    5.4678  -16.8983 S   0  0  0  0  0  0  0  0  0  0  0  0
   -4.6528    5.3204  -18.0417 O   0  0  0  0  0  0  0  0  0  0  0  0
   -6.9253    4.6428  -17.2339 N   0  0  0  0  0  0  0  0  0  0  0  0
   -7.5408    4.8484  -18.5593 C   0  0  0  0  0  0  0  0  0  0  0  0
   -8.9003    4.1809  -18.4550 C   0  0  0  0  0  0  0  0  0  0  0  0
   -9.2959    4.3883  -17.0063 C   0  0  0  0  0  0  0  0  0  0  0  0
   -7.9820    4.3168  -16.2370 C   0  0  0  0  0  0  0  0  0  0  0  0
   -8.0588    4.9747  -14.8696 C   0  0  0  0  0  0  0  0  0  0  0  0
   -8.6357    6.1805  -14.7235 N   0  0  0  0  0  0  0  0  0  0  0  0
   -8.7141    6.6573  -13.4649 C   0  0  0  0  0  0  0  0  0  0  0  0
   -8.2595    5.9843  -12.3551 C   0  0  0  0  0  0  0  0  0  0  0  0
   -7.6891    4.7639  -12.6022 C   0  0  0  0  0  0  0  0  0  0  0  0
   -7.5636    4.2560  -13.8386 N   0  0  0  0  0  0  0  0  0  0  0  0
   -4.8016    4.5460  -15.5600 C   0  0  0  0  0  0  0  0  0  0  0  0
   -3.2844    4.7046  -15.4631 C   0  0  0  0  0  0  0  0  0  0  0  0
   -2.7770    5.0495  -14.0639 C   0  0  0  0  0  0  0  0  0  0  0  0
   -3.0943    4.0120  -13.1030 N   0  0  0  0  0  0  0  0  0  0  0  0
   -4.0133    4.1126  -12.1025 C   0  0  0  0  0  0  0  0  0  0  0  0
   -4.3075    2.8228  -11.7385 C   0  0  0  0  0  0  0  0  0  0  0  0
   -3.4582    2.0230  -12.5221 C   0  0  0  0  0  0  0  0  0  0  0  0
   -2.6746    2.7497  -13.3194 N   0  0  0  0  0  0  0  0  0  0  0  0
  1  2  2  0  0  0
  2  3  2  0  0  0
  2 15  1  0  0  0
 15 16  1  0  0  0
 16 17  1  0  0  0
 17 18  1  0  0  0
 18 19  1  0  0  0
 19 20  2  0  0  0
 20 21  1  0  0  0
 21 22  2  0  0  0
  2  4  1  0  0  0
  4  5  1  0  0  0
  5  6  1  0  0  0
  6  7  1  0  0  0
  7  8  1  0  0  0
  8  9  1  0  0  0
  9 10  2  0  0  0
 10 11  1  0  0  0
 11 12  2  0  0  0
 12 13  1  0  0  0
 13 14  2  0  0  0
 22 18  1  0  0  0
  8  4  1  0  0  0
 14  9  1  0  0  0
M  END
> <minimizedAffinity>
-4.75456

> <minimizedRMSD>
2.00623

$$$$
P49970


 17 18  0  0  0  0  0  0  0  0999 V2000
   -8.2084    4.4801  -16.3418 C   0  0  0  0  0  0  0  0  0  0  0  0
   -9.3967    3.9170  -16.5007 N   0  0  0  0  0  0  0  0  0  0  0  0
   -9.6817    3.9653  -17.8294 C   0  0  0  0  0  0  0  0  0  0  0  0
   -8.6479    4.5468  -18.5127 C   0  0  0  0  0  0  0  0  0  0  0  0
   -7.6908    4.8650  -17.5774 N   0  0  0  0  0  0  0  0  0  0  0  0
   -6.3449    5.3453  -17.8954 C   0  0  0  0  0  0  0  0  0  0  0  0
   -6.2016    6.8677  -18.0098 C   0  0  0  0  0  0  0  0  0  0  0  0
   -4.7204    7.2671  -18.0879 C   0  0  0  0  0  0  0  0  0  0  0  0
   -3.8093    6.1365  -18.5625 C   0  0  0  0  0  0  0  0  0  0  0  0
   -4.4308    5.3622  -19.6318 N   0  0  0  0  0  0  0  0  0  0  0  0
   -5.6996    4.7361  -19.1823 C   0  0  0  0  0  0  0  0  0  0  0  0
   -3.7862    4.6294  -19.9282 H   0  0  0  0  0  0  0  0  0  0  0  0
   -7.6769    4.7630  -14.9709 C   0  0  0  0  0  0  0  0  0  0  0  0
   -6.5513    3.8837  -14.4909 C   0  0  0  0  0  0  0  0  0  0  0  0
   -5.3552    4.1371  -14.5538 O   0  0  0  0  0  0  0  0  0  0  0  0
   -6.1270    2.0761  -13.0438 C   0  0  0  0  0  0  0  0  0  0  0  0
   -7.0572    2.7762  -13.8716 O   0  0  0  0  0  0  0  0  0  0  0  0
 16 17  1  0  0  0
 17 14  1  0  0  0
 14 15  2  0  0  0
 14 13  1  0  0  0
 13  1  1  0  0  0
  1  2  2  0  0  0
  2  3  1  0  0  0
  3  4  2  0  0  0
  4  5  1  0  0  0
  6  5  1  0  0  0
  6  7  1  0  0  0
  7  8  1  0  0  0
  8  9  1  0  0  0
  9 10  1  0  0  0
 10 11  1  0  0  0
  5  1  1  0  0  0
 11  6  1  0  0  0
 10 12  1  0  0  0
M  END
> <minimizedAffinity>
-5.16564

> <minimizedRMSD>
1.48062

$$$$
P49995


 19 21  0  0  0  0  0  0  0  0999 V2000
   -6.6645    3.5964  -21.0647 O   0  0  0  0  0  0  0  0  0  0  0  0
   -6.9616    3.8573  -19.9100 C   0  0  0  0  0  0  0  0  0  0  0  0
   -8.1472    3.5642  -19.2477 N   0  0  0  0  0  0  0  0  0  0  0  0
   -8.0350    3.9908  -17.9313 C   0  0  0  0  0  0  0  0  0  0  0  0
   -8.9573    3.8890  -16.9224 C   0  0  0  0  0  0  0  0  0  0  0  0
   -8.5598    4.3471  -15.6702 C   0  0  0  0  0  0  0  0  0  0  0  0
   -7.2850    4.9271  -15.4832 C   0  0  0  0  0  0  0  0  0  0  0  0
   -6.3431    5.0575  -16.5352 C   0  0  0  0  0  0  0  0  0  0  0  0
   -6.7662    4.5599  -17.7557 C   0  0  0  0  0  0  0  0  0  0  0  0
   -6.1294    4.4886  -18.9929 N   0  0  0  0  0  0  0  0  0  0  0  0
   -8.9349    3.1274  -19.6453 H   0  0  0  0  0  0  0  0  0  0  0  0
   -5.2278    4.8327  -19.1877 H   0  0  0  0  0  0  0  0  0  0  0  0
   -5.0206    5.7633  -16.2701 C   0  0  0  0  0  0  0  0  0  0  0  0
   -4.6131    5.7096  -14.7779 C   0  0  0  0  0  0  0  0  0  0  0  0
   -3.2301    5.1048  -14.5741 C   0  0  0  0  0  0  0  0  0  0  0  0
   -2.1704    5.7792  -15.4436 C   0  0  0  0  0  0  0  0  0  0  0  0
   -2.6028    6.0777  -16.8089 N   0  0  0  0  0  0  0  0  0  0  0  0
   -3.8268    5.3672  -17.1699 C   0  0  0  0  0  0  0  0  0  0  0  0
   -1.8621    5.8045  -17.4547 H   0  0  0  0  0  0  0  0  0  0  0  0
  1  2  2  0  0  0
  2  3  1  0  0  0
  3  4  1  0  0  0
  4  5  2  0  0  0
  5  6  1  0  0  0
  6  7  2  0  0  0
  7  8  1  0  0  0
 13  8  1  0  0  0
 13 14  1  0  0  0
 14 15  1  0  0  0
 15 16  1  0  0  0
 16 17  1  0  0  0
 17 18  1  0  0  0
  8  9  2  0  0  0
  9 10  1  0  0  0
 10  2  1  0  0  0
  9  4  1  0  0  0
 18 13  1  0  0  0
  3 11  1  0  0  0
 17 19  1  0  0  0
 10 12  1  0  0  0
M  END
> <minimizedAffinity>
-6.04819

> <minimizedRMSD>
0.44378

$$$$
P49996


 20 22  0  0  0  0  0  0  0  0999 V2000
   -8.4404    3.9291  -17.1368 C   0  0  0  0  0  0  0  0  0  0  0  0
   -8.4813    4.1247  -15.7591 C   0  0  0  0  0  0  0  0  0  0  0  0
   -7.4218    4.7391  -15.0849 C   0  0  0  0  0  0  0  0  0  0  0  0
   -6.2978    5.1562  -15.7921 C   0  0  0  0  0  0  0  0  0  0  0  0
   -6.2416    4.8813  -17.1482 C   0  0  0  0  0  0  0  0  0  0  0  0
   -7.2957    4.2682  -17.8008 C   0  0  0  0  0  0  0  0  0  0  0  0
   -6.9840    4.1392  -19.1435 N   0  0  0  0  0  0  0  0  0  0  0  0
   -5.7143    4.6791  -19.3692 C   0  0  0  0  0  0  0  0  0  0  0  0
   -5.1596    4.7206  -20.4564 O   0  0  0  0  0  0  0  0  0  0  0  0
   -5.2415    5.1377  -18.1049 N   0  0  0  0  0  0  0  0  0  0  0  0
   -7.5628    3.7330  -19.8285 H   0  0  0  0  0  0  0  0  0  0  0  0
   -4.0794    5.9694  -17.8267 C   0  0  0  0  0  0  0  0  0  0  0  0
   -2.7502    5.1823  -17.8946 C   0  0  0  0  0  0  0  0  0  0  0  0
   -1.7302    5.8337  -18.8039 C   0  0  0  0  0  0  0  0  0  0  0  0
   -1.5573    7.3076  -18.4772 C   0  0  0  0  0  0  0  0  0  0  0  0
   -2.8089    8.0566  -18.3804 N   0  0  0  0  0  0  0  0  0  0  0  0
   -3.9998    7.2513  -18.6803 C   0  0  0  0  0  0  0  0  0  0  0  0
   -2.7711    8.8344  -19.0392 H   0  0  0  0  0  0  0  0  0  0  0  0
  -10.3853    4.5303  -18.1091 C   0  0  0  0  0  0  0  0  0  0  0  0
   -9.5183    3.4417  -17.7988 O   0  0  0  0  0  0  0  0  0  0  0  0
 19 20  1  0  0  0
 20  1  1  0  0  0
  1  2  2  0  0  0
  2  3  1  0  0  0
  3  4  2  0  0  0
  4  5  1  0  0  0
  5  6  2  0  0  0
  6  7  1  0  0  0
  7  8  1  0  0  0
  8  9  2  0  0  0
  8 10  1  0  0  0
 12 10  1  0  0  0
 12 13  1  0  0  0
 13 14  1  0  0  0
 14 15  1  0  0  0
 15 16  1  0  0  0
 16 17  1  0  0  0
  6  1  1  0  0  0
 17 12  1  0  0  0
 10  5  1  0  0  0
  7 11  1  0  0  0
 16 18  1  0  0  0
M  END
> <minimizedAffinity>
-5.96439

> <minimizedRMSD>
0.94035

$$$$
P50216


 21 22  0  0  0  0  0  0  0  0999 V2000
   -5.1787    4.0793  -13.9358 N   0  0  0  0  0  0  0  0  0  0  0  0
   -5.0590    2.5667  -13.5874 C   0  0  0  0  0  0  0  0  0  0  0  0
   -5.8887    1.7585  -13.4278 O   0  0  0  0  0  0  0  0  0  0  0  0
   -4.3252    4.5699  -13.9420 H   0  0  0  0  0  0  0  0  0  0  0  0
   -6.3395    4.8798  -14.2515 C   0  0  0  0  0  0  0  0  0  0  0  0
   -6.2083    6.5747  -16.6959 C   0  0  0  0  0  0  0  0  0  0  0  0
   -6.2869    5.1376  -16.8152 N   0  0  0  0  0  0  0  0  0  0  0  0
   -6.9919    4.7011  -18.0491 C   0  0  0  0  0  0  0  0  0  0  0  0
   -8.5262    4.5772  -17.9877 C   0  0  0  0  0  0  0  0  0  0  0  0
   -8.9901    3.9438  -16.7944 O   0  0  0  0  0  0  0  0  0  0  0  0
   -8.4501    4.5999  -15.6476 C   0  0  0  0  0  0  0  0  0  0  0  0
   -6.9189    4.4924  -15.6296 C   0  0  0  0  0  0  0  0  0  0  0  0
   -3.5525    2.2488  -13.5216 C   0  0  0  0  0  0  0  0  0  0  0  0
   -3.1246    1.6453  -12.2408 C   0  0  0  0  0  0  0  0  0  0  0  0
   -3.7141    1.5094  -11.0466 C   0  0  0  0  0  0  0  0  0  0  0  0
   -2.9599    0.8223  -10.1281 N   0  0  0  0  0  0  0  0  0  0  0  0
   -1.7881    0.4315  -10.7966 N   0  0  0  0  0  0  0  0  0  0  0  0
   -1.8869    0.8321  -12.1212 C   0  0  0  0  0  0  0  0  0  0  0  0
   -1.1318    0.5614  -13.0425 O   0  0  0  0  0  0  0  0  0  0  0  0
   -3.1935    0.6401   -9.1892 H   0  0  0  0  0  0  0  0  0  0  0  0
   -1.0267   -0.0453  -10.3940 H   0  0  0  0  0  0  0  0  0  0  0  0
  6  7  1  0  0  0
  7  8  1  0  0  0
  8  9  1  0  0  0
  9 10  1  0  0  0
 10 11  1  0  0  0
 11 12  1  0  0  0
 12  5  1  0  0  0
  5  1  1  0  0  0
  1  2  1  0  0  0
  2  3  2  0  0  0
  2 13  1  0  0  0
 13 14  1  0  0  0
 14 15  2  0  0  0
 15 16  1  0  0  0
 16 17  1  0  0  0
 17 18  1  0  0  0
 18 19  2  0  0  0
 12  7  1  0  0  0
 18 14  1  0  0  0
  1  4  1  0  0  0
 16 20  1  0  0  0
 17 21  1  0  0  0
M  END
> <minimizedAffinity>
-5.60358

> <minimizedRMSD>
0.79562

$$$$
P50296


 25 28  0  0  0  0  0  0  0  0999 V2000
   -5.2812    8.9939  -25.4759 N   0  0  0  0  0  0  0  0  0  0  0  0
   -4.1841    8.0313  -25.3672 C   0  0  0  0  0  0  0  0  0  0  0  0
   -4.5391    6.9568  -24.3383 C   0  0  0  0  0  0  0  0  0  0  0  0
   -5.3988    7.5278  -23.1971 C   0  0  0  0  0  0  0  0  0  0  0  0
   -5.1590    9.0286  -22.9899 C   0  0  0  0  0  0  0  0  0  0  0  0
   -5.4387    9.8300  -24.2744 C   0  0  0  0  0  0  0  0  0  0  0  0
  -10.4140    7.7984  -28.0573 C   0  0  0  0  0  0  0  0  0  0  0  0
   -9.7302    6.6767  -28.5291 C   0  0  0  0  0  0  0  0  0  0  0  0
   -8.3854    6.4675  -28.2209 C   0  0  0  0  0  0  0  0  0  0  0  0
   -7.7713    7.4411  -27.4348 C   0  0  0  0  0  0  0  0  0  0  0  0
   -6.5000    7.5540  -26.9467 N   0  0  0  0  0  0  0  0  0  0  0  0
   -6.4197    8.6794  -26.1627 C   0  0  0  0  0  0  0  0  0  0  0  0
   -7.5672    9.3275  -26.1825 N   0  0  0  0  0  0  0  0  0  0  0  0
   -8.4173    8.5702  -26.9555 C   0  0  0  0  0  0  0  0  0  0  0  0
   -9.7704    8.7617  -27.2682 C   0  0  0  0  0  0  0  0  0  0  0  0
   -5.7607    6.9296  -27.1276 H   0  0  0  0  0  0  0  0  0  0  0  0
   -5.3494    6.6695  -22.0208 N   0  0  0  0  0  0  0  0  0  0  0  0
   -4.9462    5.7843  -22.3276 H   0  0  0  0  0  0  0  0  0  0  0  0
   -4.6197    7.0596  -20.8234 C   0  0  0  0  0  0  0  0  0  0  0  0
   -3.6228    6.0062  -20.3312 C   0  0  0  0  0  0  0  0  0  0  0  0
   -4.2928    5.0199  -19.3802 C   0  0  0  0  0  0  0  0  0  0  0  0
   -4.8251    5.6593  -18.1712 N   0  0  0  0  0  0  0  0  0  0  0  0
   -5.1538    7.0750  -18.3478 C   0  0  0  0  0  0  0  0  0  0  0  0
   -5.6782    7.3788  -19.7425 C   0  0  0  0  0  0  0  0  0  0  0  0
   -4.1267    5.5811  -17.4319 H   0  0  0  0  0  0  0  0  0  0  0  0
  7  8  2  0  0  0
  8  9  1  0  0  0
  9 10  2  0  0  0
 10 11  1  0  0  0
 11 12  1  0  0  0
 12  1  1  0  0  0
  1  2  1  0  0  0
  2  3  1  0  0  0
  3  4  1  0  0  0
  4 17  1  0  0  0
 17 19  1  0  0  0
 19 20  1  0  0  0
 20 21  1  0  0  0
 21 22  1  0  0  0
 22 23  1  0  0  0
 23 24  1  0  0  0
  4  5  1  0  0  0
  5  6  1  0  0  0
 12 13  2  0  0  0
 13 14  1  0  0  0
 14 15  2  0  0  0
 15  7  1  0  0  0
 14 10  1  0  0  0
  6  1  1  0  0  0
 24 19  1  0  0  0
 11 16  1  0  0  0
 17 18  1  0  0  0
 22 25  1  0  0  0
M  END
> <minimizedAffinity>
-4.40138

> <minimizedRMSD>
0.89506

$$$$
P50421


 18 20  0  0  0  0  0  0  0  0999 V2000
   -9.4681    3.9548  -17.7768 Br  0  0  0  0  0  0  0  0  0  0  0  0
   -7.6423    4.4192  -17.7412 C   0  0  0  0  0  0  0  0  0  0  0  0
   -6.9638    4.4963  -18.9561 C   0  0  0  0  0  0  0  0  0  0  0  0
   -5.6313    4.8841  -18.9787 C   0  0  0  0  0  0  0  0  0  0  0  0
   -4.9795    5.1566  -17.7812 C   0  0  0  0  0  0  0  0  0  0  0  0
   -5.6753    5.0458  -16.5598 C   0  0  0  0  0  0  0  0  0  0  0  0
   -5.0937    5.2720  -15.3209 C   0  0  0  0  0  0  0  0  0  0  0  0
   -5.7420    5.1665  -14.1437 N   0  0  0  0  0  0  0  0  0  0  0  0
   -7.0410    4.8302  -14.2163 C   0  0  0  0  0  0  0  0  0  0  0  0
   -7.6971    4.6165  -15.3642 N   0  0  0  0  0  0  0  0  0  0  0  0
   -7.0233    4.6902  -16.5240 C   0  0  0  0  0  0  0  0  0  0  0  0
   -7.8427    4.6330  -12.9560 C   0  0  0  0  0  0  0  0  0  0  0  0
   -7.7485    3.1864  -12.4671 C   0  0  0  0  0  0  0  0  0  0  0  0
   -8.5563    3.0155  -11.1854 C   0  0  0  0  0  0  0  0  0  0  0  0
   -8.1898    4.0616  -10.1355 C   0  0  0  0  0  0  0  0  0  0  0  0
   -8.2608    5.4358  -10.6441 N   0  0  0  0  0  0  0  0  0  0  0  0
   -7.4300    5.6031  -11.8446 C   0  0  0  0  0  0  0  0  0  0  0  0
   -7.9323    6.0755   -9.9207 H   0  0  0  0  0  0  0  0  0  0  0  0
  1  2  1  0  0  0
  2  3  2  0  0  0
  3  4  1  0  0  0
  4  5  2  0  0  0
  5  6  1  0  0  0
  6  7  2  0  0  0
  7  8  1  0  0  0
  8  9  2  0  0  0
 12  9  1  0  0  0
 12 13  1  0  0  0
 13 14  1  0  0  0
 14 15  1  0  0  0
 15 16  1  0  0  0
 16 17  1  0  0  0
  9 10  1  0  0  0
 10 11  2  0  0  0
 11  2  1  0  0  0
 11  6  1  0  0  0
 17 12  1  0  0  0
 16 18  1  0  0  0
M  END
> <minimizedAffinity>
-6.18139

> <minimizedRMSD>
0.27913

$$$$
P50422


 18 20  0  0  0  0  0  0  0  0999 V2000
   -9.5213    4.2612  -18.5334 Br  0  0  0  0  0  0  0  0  0  0  0  0
   -7.7405    4.5359  -17.9909 C   0  0  0  0  0  0  0  0  0  0  0  0
   -6.7868    4.6560  -18.9986 C   0  0  0  0  0  0  0  0  0  0  0  0
   -5.4706    4.9081  -18.6631 C   0  0  0  0  0  0  0  0  0  0  0  0
   -5.1182    5.0018  -17.3221 C   0  0  0  0  0  0  0  0  0  0  0  0
   -6.0854    4.8480  -16.2921 C   0  0  0  0  0  0  0  0  0  0  0  0
   -5.8170    4.8964  -14.9094 C   0  0  0  0  0  0  0  0  0  0  0  0
   -6.7872    4.7759  -13.9735 N   0  0  0  0  0  0  0  0  0  0  0  0
   -8.0300    4.5879  -14.4202 C   0  0  0  0  0  0  0  0  0  0  0  0
   -8.3931    4.5327  -15.6973 N   0  0  0  0  0  0  0  0  0  0  0  0
   -7.4292    4.6327  -16.6334 C   0  0  0  0  0  0  0  0  0  0  0  0
   -4.4143    5.1334  -14.3718 C   0  0  0  0  0  0  0  0  0  0  0  0
   -3.6324    3.8285  -14.1175 C   0  0  0  0  0  0  0  0  0  0  0  0
   -2.2704    4.1315  -13.4947 C   0  0  0  0  0  0  0  0  0  0  0  0
   -2.4164    4.9995  -12.2460 C   0  0  0  0  0  0  0  0  0  0  0  0
   -3.1321    6.2457  -12.5300 N   0  0  0  0  0  0  0  0  0  0  0  0
   -4.4692    5.9659  -13.0771 C   0  0  0  0  0  0  0  0  0  0  0  0
   -2.6000    6.7900  -13.2089 H   0  0  0  0  0  0  0  0  0  0  0  0
  1  2  1  0  0  0
  2  3  2  0  0  0
  3  4  1  0  0  0
  4  5  2  0  0  0
  5  6  1  0  0  0
  6  7  2  0  0  0
 12  7  1  0  0  0
 12 13  1  0  0  0
 13 14  1  0  0  0
 14 15  1  0  0  0
 15 16  1  0  0  0
 16 17  1  0  0  0
  7  8  1  0  0  0
  8  9  2  0  0  0
  9 10  1  0  0  0
 10 11  2  0  0  0
 11  2  1  0  0  0
 11  6  1  0  0  0
 17 12  1  0  0  0
 16 18  1  0  0  0
M  END
> <minimizedAffinity>
-5.54878

> <minimizedRMSD>
1.87614

$$$$
P50437


 19 21  0  0  0  0  0  0  0  0999 V2000
   -4.1994    5.6025  -15.5952 C   0  0  0  0  0  0  0  0  0  0  0  0
   -5.6472    5.2213  -15.4901 C   0  0  0  0  0  0  0  0  0  0  0  0
   -6.1560    5.2062  -14.2354 N   0  0  0  0  0  0  0  0  0  0  0  0
   -7.4516    4.8729  -14.1083 C   0  0  0  0  0  0  0  0  0  0  0  0
   -8.2544    4.5798  -15.1344 N   0  0  0  0  0  0  0  0  0  0  0  0
   -7.7331    4.5599  -16.3633 C   0  0  0  0  0  0  0  0  0  0  0  0
   -8.5462    4.2023  -17.4262 C   0  0  0  0  0  0  0  0  0  0  0  0
   -9.8301    3.9056  -17.1790 F   0  0  0  0  0  0  0  0  0  0  0  0
   -8.0901    4.1728  -18.7385 C   0  0  0  0  0  0  0  0  0  0  0  0
   -6.7728    4.5200  -19.0099 C   0  0  0  0  0  0  0  0  0  0  0  0
   -5.9288    4.8822  -17.9624 C   0  0  0  0  0  0  0  0  0  0  0  0
   -6.4023    4.8956  -16.6255 C   0  0  0  0  0  0  0  0  0  0  0  0
   -8.0802    4.7696  -12.7449 C   0  0  0  0  0  0  0  0  0  0  0  0
   -7.9171    3.3621  -12.1691 C   0  0  0  0  0  0  0  0  0  0  0  0
   -8.5768    3.2862  -10.7970 C   0  0  0  0  0  0  0  0  0  0  0  0
   -8.0997    4.4053   -9.8741 C   0  0  0  0  0  0  0  0  0  0  0  0
   -8.2309    5.7402  -10.4688 N   0  0  0  0  0  0  0  0  0  0  0  0
   -7.5431    5.8162  -11.7658 C   0  0  0  0  0  0  0  0  0  0  0  0
   -7.8229    6.4278   -9.8354 H   0  0  0  0  0  0  0  0  0  0  0  0
  1  2  1  0  0  0
  2  3  2  0  0  0
  3  4  1  0  0  0
 13  4  1  0  0  0
 13 14  1  0  0  0
 14 15  1  0  0  0
 15 16  1  0  0  0
 16 17  1  0  0  0
 17 18  1  0  0  0
  4  5  2  0  0  0
  5  6  1  0  0  0
  6  7  2  0  0  0
  7  8  1  0  0  0
  7  9  1  0  0  0
  9 10  2  0  0  0
 10 11  1  0  0  0
 11 12  2  0  0  0
 12  2  1  0  0  0
 18 13  1  0  0  0
 12  6  1  0  0  0
 17 19  1  0  0  0
M  END
> <minimizedAffinity>
-6.56207

> <minimizedRMSD>
0.34882

$$$$
P50598


 17 18  0  0  0  0  0  0  0  0999 V2000
   -7.7855    4.2646  -14.4932 C   0  0  0  0  0  0  0  0  0  0  0  0
   -8.2634    5.4179  -13.6403 C   0  0  0  0  0  0  0  0  0  0  0  0
   -8.0108    5.5914  -12.2905 C   0  0  0  0  0  0  0  0  0  0  0  0
   -8.4733    6.8351  -11.9834 N   0  0  0  0  0  0  0  0  0  0  0  0
   -9.0087    7.3667  -13.1202 C   0  0  0  0  0  0  0  0  0  0  0  0
   -8.9090    6.5412  -14.1377 N   0  0  0  0  0  0  0  0  0  0  0  0
   -8.4294    7.2711  -11.1018 H   0  0  0  0  0  0  0  0  0  0  0  0
   -8.0420    4.4252  -15.9799 C   0  0  0  0  0  0  0  0  0  0  0  0
   -9.1844    4.0878  -16.5697 N   0  0  0  0  0  0  0  0  0  0  0  0
   -9.0012    4.2618  -17.9115 C   0  0  0  0  0  0  0  0  0  0  0  0
   -7.7194    4.6667  -18.1648 C   0  0  0  0  0  0  0  0  0  0  0  0
   -7.1300    4.8112  -16.9394 N   0  0  0  0  0  0  0  0  0  0  0  0
   -5.7759    5.2680  -16.7666 C   0  0  0  0  0  0  0  0  0  0  0  0
   -6.3739    3.9573  -14.1445 N   0  0  0  0  0  0  0  0  0  0  0  0
   -5.8068    3.9784  -14.9920 H   0  0  0  0  0  0  0  0  0  0  0  0
   -4.8152    2.2338  -13.3629 C   0  0  0  0  0  0  0  0  0  0  0  0
   -6.2730    2.6287  -13.5291 C   0  0  0  0  0  0  0  0  0  0  0  0
 16 17  1  0  0  0
 17 14  1  0  0  0
  1 14  1  0  0  0
  1  2  1  0  0  0
  2  3  2  0  0  0
  3  4  1  0  0  0
  4  5  1  0  0  0
  5  6  2  0  0  0
  1  8  1  0  0  0
  8  9  2  0  0  0
  9 10  1  0  0  0
 10 11  2  0  0  0
 11 12  1  0  0  0
 12 13  1  0  0  0
  6  2  1  0  0  0
 12  8  1  0  0  0
 14 15  1  0  0  0
  4  7  1  0  0  0
M  END
> <minimizedAffinity>
-4.49328

> <minimizedRMSD>
0.80590

$$$$
P50682


 12 12  0  0  0  0  0  0  0  0999 V2000
   -4.7154    4.9676  -17.8859 C   0  0  0  0  0  0  0  0  0  0  0  0
   -4.3144    5.2519  -16.8251 O   0  0  0  0  0  0  0  0  0  0  0  0
   -6.1656    4.7066  -18.3769 N   0  0  0  0  0  0  0  0  0  0  0  0
   -6.2521    4.5563  -19.3460 H   0  0  0  0  0  0  0  0  0  0  0  0
   -7.3335    4.6521  -17.6863 C   0  0  0  0  0  0  0  0  0  0  0  0
   -8.6374    4.4782  -18.0824 C   0  0  0  0  0  0  0  0  0  0  0  0
   -9.4748    4.4293  -16.9950 N   0  0  0  0  0  0  0  0  0  0  0  0
   -8.6932    4.6068  -15.9535 C   0  0  0  0  0  0  0  0  0  0  0  0
   -7.3862    4.7449  -16.3246 N   0  0  0  0  0  0  0  0  0  0  0  0
   -6.6214    4.8857  -15.7208 H   0  0  0  0  0  0  0  0  0  0  0  0
   -2.7624    5.8388  -19.2585 C   0  0  0  0  0  0  0  0  0  0  0  0
   -3.7797    4.7312  -19.0628 C   0  0  0  0  0  0  0  0  0  0  0  0
 11 12  1  0  0  0
 12  1  1  0  0  0
  1  2  2  0  0  0
  1  3  1  0  0  0
  3  5  1  0  0  0
  5  6  2  0  0  0
  6  7  1  0  0  0
  7  8  2  0  0  0
  8  9  1  0  0  0
  9  5  1  0  0  0
  3  4  1  0  0  0
  9 10  1  0  0  0
M  END
> <minimizedAffinity>
-3.87296

> <minimizedRMSD>
1.03137

$$$$
P50837


 25 27  0  0  0  0  0  0  0  0999 V2000
   -3.6088    5.1221  -18.5713 C   0  0  0  0  0  0  0  0  0  0  0  0
   -2.7918    4.2064  -18.6833 O   0  0  0  0  0  0  0  0  0  0  0  0
   -4.5044    5.1864  -17.4312 C   0  0  0  0  0  0  0  0  0  0  0  0
   -4.0922    5.3491  -16.1212 C   0  0  0  0  0  0  0  0  0  0  0  0
   -5.1926    5.2697  -15.3132 N   0  0  0  0  0  0  0  0  0  0  0  0
   -6.3157    5.0223  -16.0671 C   0  0  0  0  0  0  0  0  0  0  0  0
   -7.6362    4.7958  -15.6600 C   0  0  0  0  0  0  0  0  0  0  0  0
   -8.5809    4.5248  -16.6515 C   0  0  0  0  0  0  0  0  0  0  0  0
   -8.2021    4.4700  -17.9832 C   0  0  0  0  0  0  0  0  0  0  0  0
   -9.1030    4.1254  -18.9111 F   0  0  0  0  0  0  0  0  0  0  0  0
   -6.8911    4.7067  -18.3850 C   0  0  0  0  0  0  0  0  0  0  0  0
   -5.9191    4.9890  -17.4066 C   0  0  0  0  0  0  0  0  0  0  0  0
   -5.1822    5.3745  -14.3343 H   0  0  0  0  0  0  0  0  0  0  0  0
   -3.7412    6.1115  -19.7113 C   0  0  0  0  0  0  0  0  0  0  0  0
   -4.1764    7.4223  -19.3733 O   0  0  0  0  0  0  0  0  0  0  0  0
   -5.1405    8.1319  -20.0090 C   0  0  0  0  0  0  0  0  0  0  0  0
   -6.2734    8.0982  -19.5192 O   0  0  0  0  0  0  0  0  0  0  0  0
   -3.4341    9.7232  -21.2447 C   0  0  0  0  0  0  0  0  0  0  0  0
   -4.8135    9.0422  -21.2276 C   0  0  0  0  0  0  0  0  0  0  0  0
   -5.9187   10.1203  -21.2480 C   0  0  0  0  0  0  0  0  0  0  0  0
   -4.8529    8.2274  -22.5258 C   0  0  0  0  0  0  0  0  0  0  0  0
   -3.7859    7.7885  -23.2946 C   0  0  0  0  0  0  0  0  0  0  0  0
   -4.3508    7.0352  -24.7263 S   0  0  0  0  0  0  0  0  0  0  0  0
   -5.9579    7.3818  -24.2562 C   0  0  0  0  0  0  0  0  0  0  0  0
   -6.1003    8.0132  -23.1138 N   0  0  0  0  0  0  0  0  0  0  0  0
 18 19  1  0  0  0
 19 20  1  0  0  0
 19 16  1  0  0  0
 16 17  2  0  0  0
 16 15  1  0  0  0
 15 14  1  0  0  0
 14  1  1  0  0  0
  1  2  2  0  0  0
  1  3  1  0  0  0
  3  4  2  0  0  0
  4  5  1  0  0  0
  5  6  1  0  0  0
  6  7  2  0  0  0
  7  8  1  0  0  0
  8  9  2  0  0  0
  9 10  1  0  0  0
  9 11  1  0  0  0
 11 12  2  0  0  0
 19 21  1  0  0  0
 21 22  2  0  0  0
 22 23  1  0  0  0
 23 24  1  0  0  0
 24 25  2  0  0  0
 12  3  1  0  0  0
 25 21  1  0  0  0
 12  6  1  0  0  0
  5 13  1  0  0  0
M  END
> <minimizedAffinity>
-5.76233

> <minimizedRMSD>
1.82658

$$$$
P50838


 25 27  0  0  0  0  0  0  0  0999 V2000
   -4.3091    5.4590  -16.1545 C   0  0  0  0  0  0  0  0  0  0  0  0
   -3.5609    4.4772  -16.1310 O   0  0  0  0  0  0  0  0  0  0  0  0
   -5.7506    4.8382  -19.2114 C   0  0  0  0  0  0  0  0  0  0  0  0
   -6.8790    4.7194  -18.2318 C   0  0  0  0  0  0  0  0  0  0  0  0
   -8.1303    4.3399  -18.7615 C   0  0  0  0  0  0  0  0  0  0  0  0
   -9.2367    4.1372  -17.9518 C   0  0  0  0  0  0  0  0  0  0  0  0
   -9.1528    4.3397  -16.5792 C   0  0  0  0  0  0  0  0  0  0  0  0
   -7.9299    4.7671  -16.0545 C   0  0  0  0  0  0  0  0  0  0  0  0
   -7.6026    5.0313  -14.7467 N   0  0  0  0  0  0  0  0  0  0  0  0
   -6.2789    5.3418  -14.6469 C   0  0  0  0  0  0  0  0  0  0  0  0
   -5.7306    5.3065  -15.9167 C   0  0  0  0  0  0  0  0  0  0  0  0
   -6.7835    4.9628  -16.8341 C   0  0  0  0  0  0  0  0  0  0  0  0
   -8.2328    5.0008  -13.9909 H   0  0  0  0  0  0  0  0  0  0  0  0
   -3.6998    6.7986  -16.5151 C   0  0  0  0  0  0  0  0  0  0  0  0
   -4.5302    7.8806  -16.8916 O   0  0  0  0  0  0  0  0  0  0  0  0
   -4.9832    8.1132  -18.1503 C   0  0  0  0  0  0  0  0  0  0  0  0
   -6.2081    8.1592  -18.3002 O   0  0  0  0  0  0  0  0  0  0  0  0
   -4.0128    8.4282  -19.3323 C   0  0  0  0  0  0  0  0  0  0  0  0
   -2.9834    7.3586  -19.7449 C   0  0  0  0  0  0  0  0  0  0  0  0
   -3.2608    9.7069  -18.9025 C   0  0  0  0  0  0  0  0  0  0  0  0
   -4.8063    8.6913  -20.6191 C   0  0  0  0  0  0  0  0  0  0  0  0
   -5.0960    7.8057  -21.6456 C   0  0  0  0  0  0  0  0  0  0  0  0
   -5.8828    8.6184  -22.9329 S   0  0  0  0  0  0  0  0  0  0  0  0
   -5.7455   10.0876  -22.0691 C   0  0  0  0  0  0  0  0  0  0  0  0
   -5.1582   10.0132  -20.8971 N   0  0  0  0  0  0  0  0  0  0  0  0
  3  4  1  0  0  0
  4  5  2  0  0  0
  5  6  1  0  0  0
  6  7  2  0  0  0
  7  8  1  0  0  0
  8  9  1  0  0  0
  9 10  1  0  0  0
 10 11  2  0  0  0
 11  1  1  0  0  0
  1  2  2  0  0  0
  1 14  1  0  0  0
 14 15  1  0  0  0
 15 16  1  0  0  0
 16 17  2  0  0  0
 16 18  1  0  0  0
 18 19  1  0  0  0
 18 20  1  0  0  0
 18 21  1  0  0  0
 21 22  2  0  0  0
 22 23  1  0  0  0
 23 24  1  0  0  0
 24 25  2  0  0  0
 11 12  1  0  0  0
 12  4  1  0  0  0
 12  8  2  0  0  0
 25 21  1  0  0  0
  9 13  1  0  0  0
M  END
> <minimizedAffinity>
-5.16228

> <minimizedRMSD>
1.96119

$$$$
P50939


 24 27  0  0  0  0  0  0  0  0999 V2000
   -7.5838    4.6936  -14.2264 C   0  0  0  0  0  0  0  0  0  0  0  0
   -6.3505    5.0537  -14.6150 N   0  0  0  0  0  0  0  0  0  0  0  0
   -6.0946    5.0325  -15.9327 C   0  0  0  0  0  0  0  0  0  0  0  0
   -7.0720    4.6686  -16.8757 C   0  0  0  0  0  0  0  0  0  0  0  0
   -6.8591    4.5929  -18.2726 C   0  0  0  0  0  0  0  0  0  0  0  0
   -7.8918    4.2219  -19.1260 C   0  0  0  0  0  0  0  0  0  0  0  0
   -9.1446    3.9303  -18.6025 C   0  0  0  0  0  0  0  0  0  0  0  0
   -9.3520    3.9951  -17.2252 C   0  0  0  0  0  0  0  0  0  0  0  0
   -8.3330    4.3511  -16.3528 C   0  0  0  0  0  0  0  0  0  0  0  0
   -8.5938    4.3736  -15.0459 N   0  0  0  0  0  0  0  0  0  0  0  0
   -8.4673    3.4155  -10.7966 C   0  0  0  0  0  0  0  0  0  0  0  0
   -8.3359    4.5943  -10.0864 C   0  0  0  0  0  0  0  0  0  0  0  0
   -7.9685    5.7707  -10.6423 N   0  0  0  0  0  0  0  0  0  0  0  0
   -7.7253    5.7541  -11.9785 C   0  0  0  0  0  0  0  0  0  0  0  0
   -7.8443    4.6342  -12.7953 C   0  0  0  0  0  0  0  0  0  0  0  0
   -8.2185    3.4435  -12.1650 C   0  0  0  0  0  0  0  0  0  0  0  0
   -4.7948    5.3569  -16.3726 N   0  0  0  0  0  0  0  0  0  0  0  0
   -4.6241    5.7822  -17.2439 H   0  0  0  0  0  0  0  0  0  0  0  0
   -3.7192    5.0170  -15.4439 C   0  0  0  0  0  0  0  0  0  0  0  0
   -2.3699    5.4156  -15.9472 C   0  0  0  0  0  0  0  0  0  0  0  0
   -1.1927    5.7668  -15.3171 C   0  0  0  0  0  0  0  0  0  0  0  0
   -0.2552    6.0371  -16.3430 C   0  0  0  0  0  0  0  0  0  0  0  0
   -0.9182    5.8369  -17.5306 C   0  0  0  0  0  0  0  0  0  0  0  0
   -2.2028    5.4638  -17.3013 O   0  0  0  0  0  0  0  0  0  0  0  0
 11 12  2  0  0  0
 12 13  1  0  0  0
 13 14  2  0  0  0
 14 15  1  0  0  0
 15  1  1  0  0  0
  1  2  2  0  0  0
  2  3  1  0  0  0
  3 17  1  0  0  0
 17 19  1  0  0  0
 19 20  1  0  0  0
 20 21  2  0  0  0
 21 22  1  0  0  0
 22 23  2  0  0  0
 23 24  1  0  0  0
  3  4  2  0  0  0
  4  5  1  0  0  0
  5  6  2  0  0  0
  6  7  1  0  0  0
  7  8  2  0  0  0
  8  9  1  0  0  0
  9 10  2  0  0  0
 15 16  2  0  0  0
 16 11  1  0  0  0
 10  1  1  0  0  0
 24 20  1  0  0  0
  9  4  1  0  0  0
 17 18  1  0  0  0
M  END
> <minimizedAffinity>
-6.45857

> <minimizedRMSD>
1.26229

$$$$
P50987


 25 28  0  0  0  0  0  0  0  0999 V2000
   -7.5059    4.8090  -14.2038 C   0  0  0  0  0  0  0  0  0  0  0  0
   -6.2508    5.0261  -14.6480 N   0  0  0  0  0  0  0  0  0  0  0  0
   -6.0660    4.9419  -15.9806 C   0  0  0  0  0  0  0  0  0  0  0  0
   -7.1164    4.6328  -16.8620 C   0  0  0  0  0  0  0  0  0  0  0  0
   -6.9883    4.3833  -18.2426 C   0  0  0  0  0  0  0  0  0  0  0  0
   -8.0942    4.1603  -19.0433 C   0  0  0  0  0  0  0  0  0  0  0  0
   -9.3537    4.1625  -18.4770 C   0  0  0  0  0  0  0  0  0  0  0  0
   -9.4869    4.3190  -17.1009 C   0  0  0  0  0  0  0  0  0  0  0  0
   -8.3857    4.5389  -16.2868 C   0  0  0  0  0  0  0  0  0  0  0  0
   -8.5863    4.6410  -14.9790 N   0  0  0  0  0  0  0  0  0  0  0  0
   -8.3780    4.4509  -10.0236 C   0  0  0  0  0  0  0  0  0  0  0  0
   -8.4935    3.3479  -10.8615 C   0  0  0  0  0  0  0  0  0  0  0  0
   -8.1850    3.4765  -12.2161 C   0  0  0  0  0  0  0  0  0  0  0  0
   -7.7532    4.7007  -12.7625 C   0  0  0  0  0  0  0  0  0  0  0  0
   -7.6220    5.7935  -11.8959 C   0  0  0  0  0  0  0  0  0  0  0  0
   -7.9404    5.6713  -10.5381 C   0  0  0  0  0  0  0  0  0  0  0  0
   -4.7402    5.1507  -16.4090 N   0  0  0  0  0  0  0  0  0  0  0  0
   -3.9989    4.5842  -16.0946 H   0  0  0  0  0  0  0  0  0  0  0  0
   -4.5215    6.2600  -17.3509 C   0  0  0  0  0  0  0  0  0  0  0  0
   -3.6535    5.8718  -18.5415 C   0  0  0  0  0  0  0  0  0  0  0  0
   -3.4050    6.7758  -19.5829 C   0  0  0  0  0  0  0  0  0  0  0  0
   -2.5637    6.3964  -20.6214 C   0  0  0  0  0  0  0  0  0  0  0  0
   -1.9778    5.1792  -20.7251 N   0  0  0  0  0  0  0  0  0  0  0  0
   -2.2205    4.3282  -19.7011 C   0  0  0  0  0  0  0  0  0  0  0  0
   -3.0323    4.6235  -18.6146 C   0  0  0  0  0  0  0  0  0  0  0  0
 11 12  2  0  0  0
 12 13  1  0  0  0
 13 14  2  0  0  0
 14  1  1  0  0  0
  1  2  2  0  0  0
  2  3  1  0  0  0
  3 17  1  0  0  0
 17 19  1  0  0  0
 19 20  1  0  0  0
 20 21  2  0  0  0
 21 22  1  0  0  0
 22 23  2  0  0  0
 23 24  1  0  0  0
 24 25  2  0  0  0
  3  4  2  0  0  0
  4  5  1  0  0  0
  5  6  2  0  0  0
  6  7  1  0  0  0
  7  8  2  0  0  0
  8  9  1  0  0  0
  9 10  2  0  0  0
 14 15  1  0  0  0
 15 16  2  0  0  0
 16 11  1  0  0  0
 10  1  1  0  0  0
 25 20  1  0  0  0
  9  4  1  0  0  0
 17 18  1  0  0  0
M  END
> <minimizedAffinity>
-7.22213

> <minimizedRMSD>
0.69713

$$$$
P50990


 24 27  0  0  0  0  0  0  0  0999 V2000
   -9.0512    3.9893  -18.6248 C   0  0  0  0  0  0  0  0  0  0  0  0
   -7.7746    4.2190  -19.1189 C   0  0  0  0  0  0  0  0  0  0  0  0
   -6.7484    4.5508  -18.2414 C   0  0  0  0  0  0  0  0  0  0  0  0
   -6.9927    4.6681  -16.8521 C   0  0  0  0  0  0  0  0  0  0  0  0
   -6.0335    4.9880  -15.8792 C   0  0  0  0  0  0  0  0  0  0  0  0
   -6.3049    4.9914  -14.5649 N   0  0  0  0  0  0  0  0  0  0  0  0
   -7.5636    4.6852  -14.2097 C   0  0  0  0  0  0  0  0  0  0  0  0
   -8.5684    4.4187  -15.0544 N   0  0  0  0  0  0  0  0  0  0  0  0
   -8.2765    4.3972  -16.3569 C   0  0  0  0  0  0  0  0  0  0  0  0
   -9.2867    4.0726  -17.2525 C   0  0  0  0  0  0  0  0  0  0  0  0
   -7.8572    4.6385  -12.7769 C   0  0  0  0  0  0  0  0  0  0  0  0
   -8.2621    3.4510  -12.1585 C   0  0  0  0  0  0  0  0  0  0  0  0
   -8.5113    3.4469  -10.7956 C   0  0  0  0  0  0  0  0  0  0  0  0
   -8.3881    4.5404  -10.0117 N   0  0  0  0  0  0  0  0  0  0  0  0
   -8.0021    5.6774  -10.6200 C   0  0  0  0  0  0  0  0  0  0  0  0
   -7.7214    5.7738  -11.9720 C   0  0  0  0  0  0  0  0  0  0  0  0
   -4.6885    5.2538  -16.1671 N   0  0  0  0  0  0  0  0  0  0  0  0
   -3.9992    4.5531  -16.1119 H   0  0  0  0  0  0  0  0  0  0  0  0
   -4.3589    6.6343  -16.5565 C   0  0  0  0  0  0  0  0  0  0  0  0
   -4.1579    7.6406  -15.4097 C   0  0  0  0  0  0  0  0  0  0  0  0
   -3.4951    7.1366  -14.1377 C   0  0  0  0  0  0  0  0  0  0  0  0
   -3.9233    8.1911  -13.1454 C   0  0  0  0  0  0  0  0  0  0  0  0
   -5.3385    8.4926  -13.5925 C   0  0  0  0  0  0  0  0  0  0  0  0
   -5.3911    8.2645  -15.0078 O   0  0  0  0  0  0  0  0  0  0  0  0
  1  2  2  0  0  0
  2  3  1  0  0  0
  3  4  2  0  0  0
  4  5  1  0  0  0
  5 17  1  0  0  0
 17 19  1  0  0  0
 20 19  1  0  0  0
 20 21  1  0  0  0
 21 22  1  0  0  0
 22 23  1  0  0  0
 23 24  1  0  0  0
  5  6  2  0  0  0
  6  7  1  0  0  0
  7 11  1  0  0  0
 11 12  2  0  0  0
 12 13  1  0  0  0
 13 14  2  0  0  0
 14 15  1  0  0  0
 15 16  2  0  0  0
  7  8  2  0  0  0
  8  9  1  0  0  0
  9 10  2  0  0  0
 10  1  1  0  0  0
  9  4  1  0  0  0
 24 20  1  0  0  0
 16 11  1  0  0  0
 17 18  1  0  0  0
M  END
> <minimizedAffinity>
-6.03143

> <minimizedRMSD>
0.87230

$$$$
P50992


 25 28  0  0  0  0  0  0  0  0999 V2000
   -7.5094    4.8059  -14.2126 C   0  0  0  0  0  0  0  0  0  0  0  0
   -6.2551    5.0254  -14.6551 N   0  0  0  0  0  0  0  0  0  0  0  0
   -6.0683    4.9442  -15.9888 C   0  0  0  0  0  0  0  0  0  0  0  0
   -7.1178    4.6339  -16.8715 C   0  0  0  0  0  0  0  0  0  0  0  0
   -6.9889    4.3815  -18.2515 C   0  0  0  0  0  0  0  0  0  0  0  0
   -8.0940    4.1573  -19.0530 C   0  0  0  0  0  0  0  0  0  0  0  0
   -9.3542    4.1614  -18.4883 C   0  0  0  0  0  0  0  0  0  0  0  0
   -9.4884    4.3199  -17.1125 C   0  0  0  0  0  0  0  0  0  0  0  0
   -8.3876    4.5397  -16.2978 C   0  0  0  0  0  0  0  0  0  0  0  0
   -8.5883    4.6390  -14.9895 N   0  0  0  0  0  0  0  0  0  0  0  0
   -8.4714    3.3563  -10.8699 C   0  0  0  0  0  0  0  0  0  0  0  0
   -8.3861    4.5010  -10.1015 C   0  0  0  0  0  0  0  0  0  0  0  0
   -7.9953    5.7036  -10.5839 N   0  0  0  0  0  0  0  0  0  0  0  0
   -7.6842    5.7578  -11.9071 C   0  0  0  0  0  0  0  0  0  0  0  0
   -7.7597    4.6815  -12.7805 C   0  0  0  0  0  0  0  0  0  0  0  0
   -8.1549    3.4566  -12.2209 C   0  0  0  0  0  0  0  0  0  0  0  0
   -4.7430    5.1544  -16.4168 N   0  0  0  0  0  0  0  0  0  0  0  0
   -4.0019    4.5886  -16.1008 H   0  0  0  0  0  0  0  0  0  0  0  0
   -4.5215    6.2625  -17.3604 C   0  0  0  0  0  0  0  0  0  0  0  0
   -3.6516    5.8734  -18.5497 C   0  0  0  0  0  0  0  0  0  0  0  0
   -3.0310    4.6248  -18.6218 C   0  0  0  0  0  0  0  0  0  0  0  0
   -2.2179    4.3286  -19.7074 C   0  0  0  0  0  0  0  0  0  0  0  0
   -1.9739    5.1789  -20.7315 N   0  0  0  0  0  0  0  0  0  0  0  0
   -2.5589    6.3965  -20.6288 C   0  0  0  0  0  0  0  0  0  0  0  0
   -3.4009    6.7769  -19.5911 C   0  0  0  0  0  0  0  0  0  0  0  0
 11 12  2  0  0  0
 12 13  1  0  0  0
 13 14  2  0  0  0
 14 15  1  0  0  0
 15  1  1  0  0  0
  1  2  2  0  0  0
  2  3  1  0  0  0
  3 17  1  0  0  0
 17 19  1  0  0  0
 19 20  1  0  0  0
 20 21  2  0  0  0
 21 22  1  0  0  0
 22 23  2  0  0  0
 23 24  1  0  0  0
 24 25  2  0  0  0
  3  4  2  0  0  0
  4  5  1  0  0  0
  5  6  2  0  0  0
  6  7  1  0  0  0
  7  8  2  0  0  0
  8  9  1  0  0  0
  9 10  2  0  0  0
 15 16  2  0  0  0
 16 11  1  0  0  0
 10  1  1  0  0  0
 25 20  1  0  0  0
  9  4  1  0  0  0
 17 18  1  0  0  0
M  END
> <minimizedAffinity>
-7.16155

> <minimizedRMSD>
0.68984

$$$$
P51004


 15 16  0  0  0  0  0  0  0  0999 V2000
   -6.5029    4.8014  -18.2178 C   0  0  0  0  0  0  0  0  0  0  0  0
   -7.8252    4.5615  -18.6844 C   0  0  0  0  0  0  0  0  0  0  0  0
   -8.9333    4.4033  -17.8547 C   0  0  0  0  0  0  0  0  0  0  0  0
   -8.7848    4.4513  -16.4800 C   0  0  0  0  0  0  0  0  0  0  0  0
   -7.4993    4.6821  -15.9851 C   0  0  0  0  0  0  0  0  0  0  0  0
   -7.1033    4.7670  -14.6694 N   0  0  0  0  0  0  0  0  0  0  0  0
   -5.7622    4.9912  -14.5925 C   0  0  0  0  0  0  0  0  0  0  0  0
   -5.2804    5.0258  -15.8802 C   0  0  0  0  0  0  0  0  0  0  0  0
   -6.3631    4.8479  -16.7987 C   0  0  0  0  0  0  0  0  0  0  0  0
   -7.7040    4.6783  -13.8944 H   0  0  0  0  0  0  0  0  0  0  0  0
   -5.5329    4.8839  -19.2329 N   0  0  0  0  0  0  0  0  0  0  0  0
   -5.7309    4.3381  -20.0279 H   0  0  0  0  0  0  0  0  0  0  0  0
   -3.0912    4.8642  -18.7933 C   0  0  0  0  0  0  0  0  0  0  0  0
   -4.2895    5.6328  -19.3157 C   0  0  0  0  0  0  0  0  0  0  0  0
   -4.4038    7.0723  -18.8417 C   0  0  0  0  0  0  0  0  0  0  0  0
 13 14  1  0  0  0
 14 15  1  0  0  0
 14 11  1  0  0  0
 11  1  1  0  0  0
  1  2  2  0  0  0
  2  3  1  0  0  0
  3  4  2  0  0  0
  4  5  1  0  0  0
  5  6  1  0  0  0
  6  7  1  0  0  0
  7  8  2  0  0  0
  8  9  1  0  0  0
  9  1  1  0  0  0
  9  5  2  0  0  0
 11 12  1  0  0  0
  6 10  1  0  0  0
M  END
> <minimizedAffinity>
-4.92000

> <minimizedRMSD>
1.33949

$$$$
P51036


 24 25  0  0  0  0  0  0  0  0999 V2000
   -6.3899    3.6859  -21.0603 O   0  0  0  0  0  0  0  0  0  0  0  0
   -5.9693    4.6627  -20.6487 C   0  0  0  0  0  0  0  0  0  0  0  0
   -5.0818    5.7425  -21.3336 N   0  0  0  0  0  0  0  0  0  0  0  0
   -6.1592    5.3308  -19.2585 N   0  0  0  0  0  0  0  0  0  0  0  0
   -4.7812    6.4681  -20.7400 H   0  0  0  0  0  0  0  0  0  0  0  0
   -5.6251    6.1452  -19.1149 H   0  0  0  0  0  0  0  0  0  0  0  0
   -6.9625    4.9626  -18.1852 C   0  0  0  0  0  0  0  0  0  0  0  0
   -8.2655    4.7450  -18.4342 N   0  0  0  0  0  0  0  0  0  0  0  0
   -9.0771    4.4456  -17.4053 C   0  0  0  0  0  0  0  0  0  0  0  0
   -8.6299    4.2950  -16.1122 C   0  0  0  0  0  0  0  0  0  0  0  0
   -7.2927    4.5167  -15.8486 C   0  0  0  0  0  0  0  0  0  0  0  0
   -6.4398    4.8804  -16.8966 C   0  0  0  0  0  0  0  0  0  0  0  0
   -5.0131    5.1459  -16.5954 C   0  0  0  0  0  0  0  0  0  0  0  0
   -4.1610    4.2093  -17.0925 F   0  0  0  0  0  0  0  0  0  0  0  0
   -4.5704    6.3369  -17.0729 F   0  0  0  0  0  0  0  0  0  0  0  0
   -4.7697    5.2053  -15.2559 F   0  0  0  0  0  0  0  0  0  0  0  0
   -4.6326    5.8494  -22.6889 C   0  0  0  0  0  0  0  0  0  0  0  0
   -3.3180    6.5675  -22.9093 C   0  0  0  0  0  0  0  0  0  0  0  0
   -2.0998    5.6835  -22.6532 C   0  0  0  0  0  0  0  0  0  0  0  0
   -1.9974    5.2698  -21.2686 N   0  0  0  0  0  0  0  0  0  0  0  0
   -1.9840    3.9927  -20.7959 C   0  0  0  0  0  0  0  0  0  0  0  0
   -1.9751    4.0938  -19.4276 C   0  0  0  0  0  0  0  0  0  0  0  0
   -1.9417    5.4751  -19.1698 C   0  0  0  0  0  0  0  0  0  0  0  0
   -2.0043    6.1990  -20.2878 N   0  0  0  0  0  0  0  0  0  0  0  0
  1  2  2  0  0  0
  2  3  1  0  0  0
  3 17  1  0  0  0
 17 18  1  0  0  0
 18 19  1  0  0  0
 19 20  1  0  0  0
 20 21  1  0  0  0
 21 22  2  0  0  0
 22 23  1  0  0  0
 23 24  2  0  0  0
  2  4  1  0  0  0
  4  7  1  0  0  0
  7  8  2  0  0  0
  8  9  1  0  0  0
  9 10  2  0  0  0
 10 11  1  0  0  0
 11 12  2  0  0  0
 12 13  1  0  0  0
 13 14  1  0  0  0
 13 15  1  0  0  0
 13 16  1  0  0  0
 24 20  1  0  0  0
 12  7  1  0  0  0
  3  5  1  0  0  0
  4  6  1  0  0  0
M  END
> <minimizedAffinity>
-5.09193

> <minimizedRMSD>
1.08228

$$$$
P51073


 20 22  0  0  0  0  0  0  0  0999 V2000
   -7.5416    6.1293  -12.4926 C   0  0  0  0  0  0  0  0  0  0  0  0
   -7.9752    5.1928  -11.3738 C   0  0  0  0  0  0  0  0  0  0  0  0
   -8.3064    3.8554  -11.6462 C   0  0  0  0  0  0  0  0  0  0  0  0
   -8.6103    2.9489  -10.6374 C   0  0  0  0  0  0  0  0  0  0  0  0
   -8.5128    3.3481   -9.3315 C   0  0  0  0  0  0  0  0  0  0  0  0
   -8.1952    4.6587   -9.0216 C   0  0  0  0  0  0  0  0  0  0  0  0
   -7.9415    5.5966  -10.0219 C   0  0  0  0  0  0  0  0  0  0  0  0
   -8.1909    4.7942   -7.5369 C   0  0  0  0  0  0  0  0  0  0  0  0
   -8.2302    3.4130   -6.9912 N   0  0  0  0  0  0  0  0  0  0  0  0
   -8.7054    2.5439   -8.0966 C   0  0  0  0  0  0  0  0  0  0  0  0
   -8.8732    3.3633   -6.2010 H   0  0  0  0  0  0  0  0  0  0  0  0
   -8.4969    6.3140  -13.6023 N   0  0  0  0  0  0  0  0  0  0  0  0
   -9.3751    6.6622  -13.2178 H   0  0  0  0  0  0  0  0  0  0  0  0
   -8.7735    5.0776  -14.3498 C   0  0  0  0  0  0  0  0  0  0  0  0
   -5.2712    4.8175  -18.5763 Cl  0  0  0  0  0  0  0  0  0  0  0  0
   -6.6970    4.8712  -17.6345 C   0  0  0  0  0  0  0  0  0  0  0  0
   -7.9871    4.6587  -18.0406 C   0  0  0  0  0  0  0  0  0  0  0  0
   -8.8917    4.7731  -16.9388 C   0  0  0  0  0  0  0  0  0  0  0  0
   -8.2360    5.0538  -15.7491 C   0  0  0  0  0  0  0  0  0  0  0  0
   -6.5489    5.2206  -15.9935 S   0  0  0  0  0  0  0  0  0  0  0  0
 15 16  1  0  0  0
 16 17  2  0  0  0
 17 18  1  0  0  0
 18 19  2  0  0  0
 19 14  1  0  0  0
 14 12  1  0  0  0
 12  1  1  0  0  0
  1  2  1  0  0  0
  2  3  2  0  0  0
  3  4  1  0  0  0
  4  5  2  0  0  0
  5  6  1  0  0  0
  6  7  2  0  0  0
  6  8  1  0  0  0
  8  9  1  0  0  0
  9 10  1  0  0  0
 19 20  1  0  0  0
 20 16  1  0  0  0
  7  2  1  0  0  0
 10  5  1  0  0  0
 12 13  1  0  0  0
  9 11  1  0  0  0
M  END
> <minimizedAffinity>
-5.63716

> <minimizedRMSD>
0.42453

$$$$
P51303


 19 21  0  0  0  0  0  0  0  0999 V2000
   -5.6301    4.5926  -14.0753 C   0  0  0  0  0  0  0  0  0  0  0  0
   -4.7252    4.7340  -15.1017 C   0  0  0  0  0  0  0  0  0  0  0  0
   -5.0672    4.7715  -16.4079 N   0  0  0  0  0  0  0  0  0  0  0  0
   -6.3680    4.6864  -16.7644 C   0  0  0  0  0  0  0  0  0  0  0  0
   -6.7895    4.7379  -18.1058 C   0  0  0  0  0  0  0  0  0  0  0  0
   -8.1680    4.6457  -18.4099 C   0  0  0  0  0  0  0  0  0  0  0  0
   -9.1225    4.4940  -17.4149 C   0  0  0  0  0  0  0  0  0  0  0  0
   -8.7154    4.4318  -16.0920 C   0  0  0  0  0  0  0  0  0  0  0  0
   -7.3586    4.5369  -15.7613 C   0  0  0  0  0  0  0  0  0  0  0  0
   -6.9684    4.4854  -14.4159 C   0  0  0  0  0  0  0  0  0  0  0  0
   -5.8701    4.7815  -19.3164 C   0  0  0  0  0  0  0  0  0  0  0  0
   -4.4348    5.3142  -19.2417 C   0  0  0  0  0  0  0  0  0  0  0  0
   -4.1266    6.7046  -19.6230 N   0  0  0  0  0  0  0  0  0  0  0  0
   -3.5620    7.4523  -18.4876 C   0  0  0  0  0  0  0  0  0  0  0  0
   -3.5263    8.9758  -18.7412 C   0  0  0  0  0  0  0  0  0  0  0  0
   -4.8472    9.5880  -18.9923 N   0  0  0  0  0  0  0  0  0  0  0  0
   -5.8119    8.5777  -19.4709 C   0  0  0  0  0  0  0  0  0  0  0  0
   -5.1733    7.4635  -20.3162 C   0  0  0  0  0  0  0  0  0  0  0  0
   -4.7488   10.3172  -19.6988 H   0  0  0  0  0  0  0  0  0  0  0  0
  1  2  2  0  0  0
  2  3  1  0  0  0
  3  4  2  0  0  0
  4  5  1  0  0  0
  5 11  1  0  0  0
 11 12  1  0  0  0
 12 13  1  0  0  0
 13 14  1  0  0  0
 14 15  1  0  0  0
 15 16  1  0  0  0
 16 17  1  0  0  0
 17 18  1  0  0  0
  5  6  2  0  0  0
  6  7  1  0  0  0
  7  8  2  0  0  0
  8  9  1  0  0  0
  9 10  2  0  0  0
 10  1  1  0  0  0
  9  4  1  0  0  0
 18 13  1  0  0  0
 16 19  1  0  0  0
M  END
> <minimizedAffinity>
-5.24455

> <minimizedRMSD>
0.67106

$$$$
P51336


 12 13  0  0  0  0  0  0  0  0999 V2000
   -9.0272    3.8057  -17.9160 C   0  0  0  0  0  0  0  0  0  0  0  0
   -7.8067    4.0243  -18.5287 C   0  0  0  0  0  0  0  0  0  0  0  0
   -6.7863    4.6507  -17.8084 C   0  0  0  0  0  0  0  0  0  0  0  0
   -7.0464    5.0114  -16.4828 C   0  0  0  0  0  0  0  0  0  0  0  0
   -8.2955    4.7355  -15.9491 C   0  0  0  0  0  0  0  0  0  0  0  0
   -9.2966    4.1689  -16.6460 N   0  0  0  0  0  0  0  0  0  0  0  0
   -5.4873    4.8854  -18.4538 C   0  0  0  0  0  0  0  0  0  0  0  0
   -5.2245    4.7823  -19.7481 N   0  0  0  0  0  0  0  0  0  0  0  0
   -3.8940    5.0683  -19.9016 C   0  0  0  0  0  0  0  0  0  0  0  0
   -3.3114    5.3180  -18.6867 C   0  0  0  0  0  0  0  0  0  0  0  0
   -4.3279    5.2086  -17.7799 N   0  0  0  0  0  0  0  0  0  0  0  0
   -4.2462    5.3387  -16.8075 H   0  0  0  0  0  0  0  0  0  0  0  0
  1  2  2  0  0  0
  2  3  1  0  0  0
  3  7  1  0  0  0
  7  8  2  0  0  0
  8  9  1  0  0  0
  9 10  2  0  0  0
 10 11  1  0  0  0
  3  4  2  0  0  0
  4  5  1  0  0  0
  5  6  2  0  0  0
  6  1  1  0  0  0
 11  7  1  0  0  0
 11 12  1  0  0  0
M  END
> <minimizedAffinity>
-4.90361

> <minimizedRMSD>
0.79146

$$$$
P51337


 12 13  0  0  0  0  0  0  0  0999 V2000
   -8.6158    3.8661  -17.8200 C   0  0  0  0  0  0  0  0  0  0  0  0
   -8.6053    4.2771  -16.4980 C   0  0  0  0  0  0  0  0  0  0  0  0
   -7.5647    4.9121  -15.9169 N   0  0  0  0  0  0  0  0  0  0  0  0
   -6.4687    5.0980  -16.6949 C   0  0  0  0  0  0  0  0  0  0  0  0
   -6.3605    4.7173  -18.0320 C   0  0  0  0  0  0  0  0  0  0  0  0
   -7.4814    4.1007  -18.5936 C   0  0  0  0  0  0  0  0  0  0  0  0
   -5.1488    4.9249  -18.8309 C   0  0  0  0  0  0  0  0  0  0  0  0
   -5.0571    4.8564  -20.1506 N   0  0  0  0  0  0  0  0  0  0  0  0
   -3.7453    5.0920  -20.4650 C   0  0  0  0  0  0  0  0  0  0  0  0
   -3.0023    5.2712  -19.3276 C   0  0  0  0  0  0  0  0  0  0  0  0
   -3.8986    5.1705  -18.3008 N   0  0  0  0  0  0  0  0  0  0  0  0
   -3.6876    5.2584  -17.3432 H   0  0  0  0  0  0  0  0  0  0  0  0
  1  2  2  0  0  0
  2  3  1  0  0  0
  3  4  2  0  0  0
  4  5  1  0  0  0
  5  7  1  0  0  0
  7  8  2  0  0  0
  8  9  1  0  0  0
  9 10  2  0  0  0
 10 11  1  0  0  0
  5  6  2  0  0  0
  6  1  1  0  0  0
 11  7  1  0  0  0
 11 12  1  0  0  0
M  END
> <minimizedAffinity>
-4.58420

> <minimizedRMSD>
0.29630

$$$$
P51942


 20 22  0  0  0  0  0  0  0  0999 V2000
   -6.7849    5.4527  -14.3026 C   0  0  0  0  0  0  0  0  0  0  0  0
   -5.5408    5.8667  -14.4711 N   0  0  0  0  0  0  0  0  0  0  0  0
   -5.2388    5.8314  -15.7963 N   0  0  0  0  0  0  0  0  0  0  0  0
   -6.2971    5.3897  -16.4392 C   0  0  0  0  0  0  0  0  0  0  0  0
   -6.5515    5.2265  -17.8402 C   0  0  0  0  0  0  0  0  0  0  0  0
   -7.7067    4.6153  -18.1945 C   0  0  0  0  0  0  0  0  0  0  0  0
   -8.7255    4.2496  -17.2301 C   0  0  0  0  0  0  0  0  0  0  0  0
   -8.5074    4.5038  -15.9303 C   0  0  0  0  0  0  0  0  0  0  0  0
   -7.2942    5.0594  -15.5334 N   0  0  0  0  0  0  0  0  0  0  0  0
   -5.6740    5.7327  -18.7952 N   0  0  0  0  0  0  0  0  0  0  0  0
   -5.6270    7.1501  -19.1853 C   0  0  0  0  0  0  0  0  0  0  0  0
   -4.3133    7.8350  -18.7554 C   0  0  0  0  0  0  0  0  0  0  0  0
   -3.0951    7.0961  -19.1604 N   0  0  0  0  0  0  0  0  0  0  0  0
   -3.2221    5.7289  -18.6096 C   0  0  0  0  0  0  0  0  0  0  0  0
   -4.4638    4.9908  -19.1530 C   0  0  0  0  0  0  0  0  0  0  0  0
   -2.2653    7.5519  -18.7809 H   0  0  0  0  0  0  0  0  0  0  0  0
   -8.6069    6.6233  -13.0993 C   0  0  0  0  0  0  0  0  0  0  0  0
   -7.5134    5.5532  -12.9829 C   0  0  0  0  0  0  0  0  0  0  0  0
   -8.0764    4.2135  -12.5034 C   0  0  0  0  0  0  0  0  0  0  0  0
   -6.5220    6.0303  -11.8889 C   0  0  0  0  0  0  0  0  0  0  0  0
 17 18  1  0  0  0
 18 19  1  0  0  0
 18 20  1  0  0  0
 18  1  1  0  0  0
  1  2  2  0  0  0
  2  3  1  0  0  0
  3  4  2  0  0  0
  4  5  1  0  0  0
  5 10  1  0  0  0
 10 11  1  0  0  0
 11 12  1  0  0  0
 12 13  1  0  0  0
 13 14  1  0  0  0
 14 15  1  0  0  0
  5  6  2  0  0  0
  6  7  1  0  0  0
  7  8  2  0  0  0
  8  9  1  0  0  0
  9  1  1  0  0  0
  9  4  1  0  0  0
 15 10  1  0  0  0
 13 16  1  0  0  0
M  END
> <minimizedAffinity>
-5.23524

> <minimizedRMSD>
0.62187

$$$$
P51944


 21 23  0  0  0  0  0  0  0  0999 V2000
   -6.7859    5.5742  -14.2087 C   0  0  0  0  0  0  0  0  0  0  0  0
   -5.5537    6.0311  -14.3488 N   0  0  0  0  0  0  0  0  0  0  0  0
   -5.2175    5.9973  -15.6645 N   0  0  0  0  0  0  0  0  0  0  0  0
   -6.2368    5.4973  -16.3280 C   0  0  0  0  0  0  0  0  0  0  0  0
   -6.4514    5.3450  -17.7415 C   0  0  0  0  0  0  0  0  0  0  0  0
   -7.5928    4.7318  -18.1294 C   0  0  0  0  0  0  0  0  0  0  0  0
   -8.5711    4.2603  -17.1740 C   0  0  0  0  0  0  0  0  0  0  0  0
   -9.6658    3.6251  -17.6304 F   0  0  0  0  0  0  0  0  0  0  0  0
   -8.4022    4.4923  -15.8656 C   0  0  0  0  0  0  0  0  0  0  0  0
   -7.2397    5.1276  -15.4439 N   0  0  0  0  0  0  0  0  0  0  0  0
   -5.4966    5.8859  -18.6002 N   0  0  0  0  0  0  0  0  0  0  0  0
   -4.4750    5.0025  -19.1769 C   0  0  0  0  0  0  0  0  0  0  0  0
   -3.1738    5.7722  -19.4401 C   0  0  0  0  0  0  0  0  0  0  0  0
   -3.3614    6.9370  -20.3276 N   0  0  0  0  0  0  0  0  0  0  0  0
   -4.4242    7.7940  -19.7593 C   0  0  0  0  0  0  0  0  0  0  0  0
   -5.7446    7.0549  -19.4473 C   0  0  0  0  0  0  0  0  0  0  0  0
   -3.6355    6.6202  -21.2576 H   0  0  0  0  0  0  0  0  0  0  0  0
   -8.6717    6.7357  -13.0835 C   0  0  0  0  0  0  0  0  0  0  0  0
   -7.5616    5.6877  -12.9176 C   0  0  0  0  0  0  0  0  0  0  0  0
   -6.6195    6.1985  -11.7962 C   0  0  0  0  0  0  0  0  0  0  0  0
   -8.1112    4.3425  -12.4478 C   0  0  0  0  0  0  0  0  0  0  0  0
 18 19  1  0  0  0
 19 20  1  0  0  0
 19 21  1  0  0  0
 19  1  1  0  0  0
  1  2  2  0  0  0
  2  3  1  0  0  0
  3  4  2  0  0  0
  4  5  1  0  0  0
  5 11  1  0  0  0
 11 12  1  0  0  0
 12 13  1  0  0  0
 13 14  1  0  0  0
 14 15  1  0  0  0
 15 16  1  0  0  0
  5  6  2  0  0  0
  6  7  1  0  0  0
  7  8  1  0  0  0
  7  9  2  0  0  0
  9 10  1  0  0  0
 10  1  1  0  0  0
 10  4  1  0  0  0
 16 11  1  0  0  0
 14 17  1  0  0  0
M  END
> <minimizedAffinity>
-5.54108

> <minimizedRMSD>
0.43863

$$$$
P51945


 20 22  0  0  0  0  0  0  0  0999 V2000
   -6.8436    4.4526  -14.3131 C   0  0  0  0  0  0  0  0  0  0  0  0
   -5.5794    4.8283  -14.3141 N   0  0  0  0  0  0  0  0  0  0  0  0
   -5.2415    5.1935  -15.5867 N   0  0  0  0  0  0  0  0  0  0  0  0
   -6.2950    5.0029  -16.3561 C   0  0  0  0  0  0  0  0  0  0  0  0
   -6.5168    5.2589  -17.7531 C   0  0  0  0  0  0  0  0  0  0  0  0
   -7.7266    4.9145  -18.2561 C   0  0  0  0  0  0  0  0  0  0  0  0
   -8.7901    4.3424  -17.4491 C   0  0  0  0  0  0  0  0  0  0  0  0
   -8.5718    4.1549  -16.1394 C   0  0  0  0  0  0  0  0  0  0  0  0
   -7.3344    4.4891  -15.6023 N   0  0  0  0  0  0  0  0  0  0  0  0
   -5.4892    5.8583  -18.4880 N   0  0  0  0  0  0  0  0  0  0  0  0
   -4.5391    4.9729  -19.1803 C   0  0  0  0  0  0  0  0  0  0  0  0
   -3.2065    5.6876  -19.4441 C   0  0  0  0  0  0  0  0  0  0  0  0
   -3.3536    6.9402  -20.2113 N   0  0  0  0  0  0  0  0  0  0  0  0
   -4.3304    7.8012  -19.5112 C   0  0  0  0  0  0  0  0  0  0  0  0
   -5.6825    7.1192  -19.2157 C   0  0  0  0  0  0  0  0  0  0  0  0
   -3.6895    6.7313  -21.1515 H   0  0  0  0  0  0  0  0  0  0  0  0
   -7.6285    4.0878  -13.1048 C   0  0  0  0  0  0  0  0  0  0  0  0
   -8.4181    6.5189  -13.1136 C   0  0  0  0  0  0  0  0  0  0  0  0
   -8.0574    5.3040  -12.2602 C   0  0  0  0  0  0  0  0  0  0  0  0
   -7.0365    5.6865  -11.1849 C   0  0  0  0  0  0  0  0  0  0  0  0
 18 19  1  0  0  0
 19 20  1  0  0  0
 19 17  1  0  0  0
 17  1  1  0  0  0
  1  2  2  0  0  0
  2  3  1  0  0  0
  3  4  2  0  0  0
  4  5  1  0  0  0
  5 10  1  0  0  0
 10 11  1  0  0  0
 11 12  1  0  0  0
 12 13  1  0  0  0
 13 14  1  0  0  0
 14 15  1  0  0  0
  5  6  2  0  0  0
  6  7  1  0  0  0
  7  8  2  0  0  0
  8  9  1  0  0  0
  9  1  1  0  0  0
  9  4  1  0  0  0
 15 10  1  0  0  0
 13 16  1  0  0  0
M  END
> <minimizedAffinity>
-5.08933

> <minimizedRMSD>
0.54909

$$$$
P51948


 21 23  0  0  0  0  0  0  0  0999 V2000
   -6.8469    4.4184  -14.3442 C   0  0  0  0  0  0  0  0  0  0  0  0
   -5.5820    4.7927  -14.3489 N   0  0  0  0  0  0  0  0  0  0  0  0
   -5.2510    5.1621  -15.6194 N   0  0  0  0  0  0  0  0  0  0  0  0
   -6.3105    4.9819  -16.3818 C   0  0  0  0  0  0  0  0  0  0  0  0
   -6.5360    5.2537  -17.7749 C   0  0  0  0  0  0  0  0  0  0  0  0
   -7.7458    4.9148  -18.2789 C   0  0  0  0  0  0  0  0  0  0  0  0
   -8.7883    4.3299  -17.4644 C   0  0  0  0  0  0  0  0  0  0  0  0
   -9.9608    4.0069  -18.0384 F   0  0  0  0  0  0  0  0  0  0  0  0
   -8.5842    4.1329  -16.1575 C   0  0  0  0  0  0  0  0  0  0  0  0
   -7.3480    4.4648  -15.6260 N   0  0  0  0  0  0  0  0  0  0  0  0
   -5.5044    5.8611  -18.4923 N   0  0  0  0  0  0  0  0  0  0  0  0
   -4.5231    4.9902  -19.1576 C   0  0  0  0  0  0  0  0  0  0  0  0
   -3.1842    5.7155  -19.3489 C   0  0  0  0  0  0  0  0  0  0  0  0
   -3.3076    6.9761  -20.1066 N   0  0  0  0  0  0  0  0  0  0  0  0
   -4.3242    7.8219  -19.4453 C   0  0  0  0  0  0  0  0  0  0  0  0
   -5.6822    7.1241  -19.2171 C   0  0  0  0  0  0  0  0  0  0  0  0
   -3.5966    6.7755  -21.0640 H   0  0  0  0  0  0  0  0  0  0  0  0
   -7.6092    4.0599  -13.1227 C   0  0  0  0  0  0  0  0  0  0  0  0
   -8.2938    6.4588  -12.6397 C   0  0  0  0  0  0  0  0  0  0  0  0
   -7.5729    5.2196  -12.1056 C   0  0  0  0  0  0  0  0  0  0  0  0
   -8.1113    4.7491  -10.7560 C   0  0  0  0  0  0  0  0  0  0  0  0
 19 20  1  0  0  0
 20 21  1  0  0  0
 20 18  1  0  0  0
 18  1  1  0  0  0
  1  2  2  0  0  0
  2  3  1  0  0  0
  3  4  2  0  0  0
  4  5  1  0  0  0
  5 11  1  0  0  0
 11 12  1  0  0  0
 12 13  1  0  0  0
 13 14  1  0  0  0
 14 15  1  0  0  0
 15 16  1  0  0  0
  5  6  2  0  0  0
  6  7  1  0  0  0
  7  8  1  0  0  0
  7  9  2  0  0  0
  9 10  1  0  0  0
 10  1  1  0  0  0
 10  4  1  0  0  0
 16 11  1  0  0  0
 14 17  1  0  0  0
M  END
> <minimizedAffinity>
-5.49953

> <minimizedRMSD>
0.55907

$$$$
P51952


 19 22  0  0  0  0  0  0  0  0999 V2000
   -8.7676    4.3315  -17.6240 C   0  0  0  0  0  0  0  0  0  0  0  0
   -7.6663    4.8414  -18.4241 C   0  0  0  0  0  0  0  0  0  0  0  0
   -6.4711    5.2080  -17.8982 C   0  0  0  0  0  0  0  0  0  0  0  0
   -6.2968    5.0274  -16.4851 C   0  0  0  0  0  0  0  0  0  0  0  0
   -5.2668    5.2213  -15.6827 N   0  0  0  0  0  0  0  0  0  0  0  0
   -5.7076    5.0676  -14.3908 N   0  0  0  0  0  0  0  0  0  0  0  0
   -6.9923    4.7866  -14.4417 C   0  0  0  0  0  0  0  0  0  0  0  0
   -7.3895    4.6270  -15.7443 N   0  0  0  0  0  0  0  0  0  0  0  0
   -8.6084    4.2593  -16.2950 C   0  0  0  0  0  0  0  0  0  0  0  0
   -5.4170    5.7711  -18.6293 N   0  0  0  0  0  0  0  0  0  0  0  0
   -5.6623    6.9009  -19.5371 C   0  0  0  0  0  0  0  0  0  0  0  0
   -4.3485    7.5598  -19.9905 C   0  0  0  0  0  0  0  0  0  0  0  0
   -3.4780    6.5885  -20.6933 N   0  0  0  0  0  0  0  0  0  0  0  0
   -3.1749    5.5149  -19.7214 C   0  0  0  0  0  0  0  0  0  0  0  0
   -4.4250    4.8212  -19.1583 C   0  0  0  0  0  0  0  0  0  0  0  0
   -2.6165    7.0427  -20.9965 H   0  0  0  0  0  0  0  0  0  0  0  0
   -7.9453    4.8986  -13.2264 C   0  0  0  0  0  0  0  0  0  0  0  0
   -7.5014    5.5595  -11.9523 C   0  0  0  0  0  0  0  0  0  0  0  0
   -8.3826    6.3135  -12.9006 C   0  0  0  0  0  0  0  0  0  0  0  0
  1  2  1  0  0  0
  2  3  2  0  0  0
  3 10  1  0  0  0
 10 11  1  0  0  0
 11 12  1  0  0  0
 12 13  1  0  0  0
 13 14  1  0  0  0
 14 15  1  0  0  0
  3  4  1  0  0  0
  4  5  2  0  0  0
  5  6  1  0  0  0
  6  7  2  0  0  0
  7 17  1  0  0  0
 17 18  1  0  0  0
 18 19  1  0  0  0
  7  8  1  0  0  0
  8  9  1  0  0  0
  9  1  2  0  0  0
 15 10  1  0  0  0
  8  4  1  0  0  0
 19 17  1  0  0  0
 13 16  1  0  0  0
M  END
> <minimizedAffinity>
-5.21654

> <minimizedRMSD>
0.41593

$$$$
P51955


 20 23  0  0  0  0  0  0  0  0999 V2000
  -10.1326    4.3735  -18.4001 Cl  0  0  0  0  0  0  0  0  0  0  0  0
   -8.6088    4.4948  -17.6615 C   0  0  0  0  0  0  0  0  0  0  0  0
   -7.4868    4.9396  -18.4567 C   0  0  0  0  0  0  0  0  0  0  0  0
   -6.2733    5.2149  -17.9237 C   0  0  0  0  0  0  0  0  0  0  0  0
   -6.1123    4.9792  -16.5139 C   0  0  0  0  0  0  0  0  0  0  0  0
   -5.0865    5.1103  -15.6944 N   0  0  0  0  0  0  0  0  0  0  0  0
   -5.5499    4.9426  -14.4083 N   0  0  0  0  0  0  0  0  0  0  0  0
   -6.8426    4.7104  -14.4792 C   0  0  0  0  0  0  0  0  0  0  0  0
   -7.2261    4.6023  -15.7889 N   0  0  0  0  0  0  0  0  0  0  0  0
   -8.4629    4.3372  -16.3432 C   0  0  0  0  0  0  0  0  0  0  0  0
   -5.2049    5.7459  -18.6591 N   0  0  0  0  0  0  0  0  0  0  0  0
   -5.4432    6.8238  -19.6362 C   0  0  0  0  0  0  0  0  0  0  0  0
   -4.1277    7.4588  -20.1145 C   0  0  0  0  0  0  0  0  0  0  0  0
   -3.2516    6.4494  -20.7527 N   0  0  0  0  0  0  0  0  0  0  0  0
   -2.9492    5.4379  -19.7168 C   0  0  0  0  0  0  0  0  0  0  0  0
   -4.1964    4.7728  -19.1146 C   0  0  0  0  0  0  0  0  0  0  0  0
   -2.3902    6.8870  -21.0796 H   0  0  0  0  0  0  0  0  0  0  0  0
   -7.8233    4.8273  -13.2828 C   0  0  0  0  0  0  0  0  0  0  0  0
   -7.4302    5.5557  -12.0297 C   0  0  0  0  0  0  0  0  0  0  0  0
   -8.3287    6.2326  -13.0183 C   0  0  0  0  0  0  0  0  0  0  0  0
  1  2  1  0  0  0
  2  3  1  0  0  0
  3  4  2  0  0  0
  4 11  1  0  0  0
 11 12  1  0  0  0
 12 13  1  0  0  0
 13 14  1  0  0  0
 14 15  1  0  0  0
 15 16  1  0  0  0
  4  5  1  0  0  0
  5  6  2  0  0  0
  6  7  1  0  0  0
  7  8  2  0  0  0
  8 18  1  0  0  0
 18 19  1  0  0  0
 19 20  1  0  0  0
  8  9  1  0  0  0
  9 10  1  0  0  0
 10  2  2  0  0  0
 16 11  1  0  0  0
  9  5  1  0  0  0
 20 18  1  0  0  0
 14 17  1  0  0  0
M  END
> <minimizedAffinity>
-5.54137

> <minimizedRMSD>
0.48729

$$$$
P51956


 20 23  0  0  0  0  0  0  0  0999 V2000
   -9.8813    3.5121  -17.8026 F   0  0  0  0  0  0  0  0  0  0  0  0
   -8.8011    4.1400  -17.3079 C   0  0  0  0  0  0  0  0  0  0  0  0
   -7.7727    4.5771  -18.2198 C   0  0  0  0  0  0  0  0  0  0  0  0
   -6.6708    5.2498  -17.8066 C   0  0  0  0  0  0  0  0  0  0  0  0
   -6.5048    5.4271  -16.3921 C   0  0  0  0  0  0  0  0  0  0  0  0
   -5.5248    5.9276  -15.6646 N   0  0  0  0  0  0  0  0  0  0  0  0
   -5.9625    6.0028  -14.3661 N   0  0  0  0  0  0  0  0  0  0  0  0
   -7.1945    5.5406  -14.3333 C   0  0  0  0  0  0  0  0  0  0  0  0
   -7.5461    5.0522  -15.5646 N   0  0  0  0  0  0  0  0  0  0  0  0
   -8.6892    4.4083  -16.0042 C   0  0  0  0  0  0  0  0  0  0  0  0
   -5.7709    5.8068  -18.7070 N   0  0  0  0  0  0  0  0  0  0  0  0
   -5.7885    7.2152  -19.1233 C   0  0  0  0  0  0  0  0  0  0  0  0
   -4.4806    7.9371  -18.7418 C   0  0  0  0  0  0  0  0  0  0  0  0
   -3.2583    7.2303  -19.1934 N   0  0  0  0  0  0  0  0  0  0  0  0
   -3.3215    5.8596  -18.6410 C   0  0  0  0  0  0  0  0  0  0  0  0
   -4.5688    5.0881  -19.1189 C   0  0  0  0  0  0  0  0  0  0  0  0
   -2.4279    7.7100  -18.8459 H   0  0  0  0  0  0  0  0  0  0  0  0
   -8.1651    5.7750  -13.1494 C   0  0  0  0  0  0  0  0  0  0  0  0
   -7.8546    6.7780  -12.0757 C   0  0  0  0  0  0  0  0  0  0  0  0
   -8.8326    7.1357  -13.1528 C   0  0  0  0  0  0  0  0  0  0  0  0
  1  2  1  0  0  0
  2  3  1  0  0  0
  3  4  2  0  0  0
  4 11  1  0  0  0
 11 12  1  0  0  0
 12 13  1  0  0  0
 13 14  1  0  0  0
 14 15  1  0  0  0
 15 16  1  0  0  0
  4  5  1  0  0  0
  5  6  2  0  0  0
  6  7  1  0  0  0
  7  8  2  0  0  0
  8 18  1  0  0  0
 18 19  1  0  0  0
 19 20  1  0  0  0
  8  9  1  0  0  0
  9 10  1  0  0  0
 10  2  2  0  0  0
 16 11  1  0  0  0
  9  5  1  0  0  0
 20 18  1  0  0  0
 14 17  1  0  0  0
M  END
> <minimizedAffinity>
-5.43390

> <minimizedRMSD>
0.59203

$$$$
P51957


 20 23  0  0  0  0  0  0  0  0999 V2000
   -9.7790    4.0946  -18.2055 C   0  0  0  0  0  0  0  0  0  0  0  0
   -8.5263    4.4187  -17.4815 C   0  0  0  0  0  0  0  0  0  0  0  0
   -7.4065    4.8892  -18.2825 C   0  0  0  0  0  0  0  0  0  0  0  0
   -6.2313    5.2960  -17.7494 C   0  0  0  0  0  0  0  0  0  0  0  0
   -6.0749    5.1699  -16.3319 C   0  0  0  0  0  0  0  0  0  0  0  0
   -5.0654    5.4057  -15.5163 N   0  0  0  0  0  0  0  0  0  0  0  0
   -5.5279    5.2710  -14.2263 N   0  0  0  0  0  0  0  0  0  0  0  0
   -6.8029    4.9530  -14.2926 C   0  0  0  0  0  0  0  0  0  0  0  0
   -7.1719    4.7619  -15.5976 N   0  0  0  0  0  0  0  0  0  0  0  0
   -8.3817    4.3716  -16.1491 C   0  0  0  0  0  0  0  0  0  0  0  0
   -5.1851    5.8208  -18.5193 N   0  0  0  0  0  0  0  0  0  0  0  0
   -5.5093    6.8360  -19.5420 C   0  0  0  0  0  0  0  0  0  0  0  0
   -4.2407    7.4192  -20.1927 C   0  0  0  0  0  0  0  0  0  0  0  0
   -3.3679    6.3725  -20.7760 N   0  0  0  0  0  0  0  0  0  0  0  0
   -2.9996    5.4663  -19.6698 C   0  0  0  0  0  0  0  0  0  0  0  0
   -4.2191    4.8218  -18.9991 C   0  0  0  0  0  0  0  0  0  0  0  0
   -2.5313    6.7955  -21.1779 H   0  0  0  0  0  0  0  0  0  0  0  0
   -7.7893    5.0459  -13.1008 C   0  0  0  0  0  0  0  0  0  0  0  0
   -7.4386    5.8202  -11.8628 C   0  0  0  0  0  0  0  0  0  0  0  0
   -8.3661    6.4287  -12.8695 C   0  0  0  0  0  0  0  0  0  0  0  0
  1  2  1  0  0  0
  2  3  1  0  0  0
  3  4  2  0  0  0
  4 11  1  0  0  0
 11 12  1  0  0  0
 12 13  1  0  0  0
 13 14  1  0  0  0
 14 15  1  0  0  0
 15 16  1  0  0  0
  4  5  1  0  0  0
  5  6  2  0  0  0
  6  7  1  0  0  0
  7  8  2  0  0  0
  8 18  1  0  0  0
 18 19  1  0  0  0
 19 20  1  0  0  0
  8  9  1  0  0  0
  9 10  1  0  0  0
 10  2  2  0  0  0
 16 11  1  0  0  0
  9  5  1  0  0  0
 20 18  1  0  0  0
 14 17  1  0  0  0
M  END
> <minimizedAffinity>
-5.77766

> <minimizedRMSD>
0.31823

$$$$
P51965


 18 20  0  0  0  0  0  0  0  0999 V2000
   -5.3789    5.0666  -19.1579 Cl  0  0  0  0  0  0  0  0  0  0  0  0
   -6.7042    4.7779  -18.1053 C   0  0  0  0  0  0  0  0  0  0  0  0
   -7.9445    4.5499  -18.5772 C   0  0  0  0  0  0  0  0  0  0  0  0
   -9.0553    4.2663  -17.6848 C   0  0  0  0  0  0  0  0  0  0  0  0
   -8.8203    4.2026  -16.3641 C   0  0  0  0  0  0  0  0  0  0  0  0
   -7.5373    4.4513  -15.8807 N   0  0  0  0  0  0  0  0  0  0  0  0
   -7.0292    4.4946  -14.5996 C   0  0  0  0  0  0  0  0  0  0  0  0
   -5.7473    4.8143  -14.6560 N   0  0  0  0  0  0  0  0  0  0  0  0
   -5.3959    4.9863  -15.9705 N   0  0  0  0  0  0  0  0  0  0  0  0
   -6.4635    4.7594  -16.7051 C   0  0  0  0  0  0  0  0  0  0  0  0
   -7.8110    4.2056  -13.3582 C   0  0  0  0  0  0  0  0  0  0  0  0
   -7.6791    5.2743  -12.3606 N   0  0  0  0  0  0  0  0  0  0  0  0
   -8.3348    6.5281  -12.7304 C   0  0  0  0  0  0  0  0  0  0  0  0
   -8.3348    7.6177  -11.6252 C   0  0  0  0  0  0  0  0  0  0  0  0
   -7.6327    7.2595  -10.3906 N   0  0  0  0  0  0  0  0  0  0  0  0
   -8.0548    5.9329   -9.9322 C   0  0  0  0  0  0  0  0  0  0  0  0
   -8.0121    4.8183  -11.0088 C   0  0  0  0  0  0  0  0  0  0  0  0
   -7.8469    7.9485   -9.6697 H   0  0  0  0  0  0  0  0  0  0  0  0
  1  2  1  0  0  0
  2  3  2  0  0  0
  3  4  1  0  0  0
  4  5  2  0  0  0
  5  6  1  0  0  0
  6  7  1  0  0  0
  7 11  1  0  0  0
 11 12  1  0  0  0
 12 13  1  0  0  0
 13 14  1  0  0  0
 14 15  1  0  0  0
 15 16  1  0  0  0
 16 17  1  0  0  0
  7  8  2  0  0  0
  8  9  1  0  0  0
  9 10  2  0  0  0
 10  2  1  0  0  0
 10  6  1  0  0  0
 17 12  1  0  0  0
 15 18  1  0  0  0
M  END
> <minimizedAffinity>
-5.34857

> <minimizedRMSD>
0.52114

$$$$
P51967


 18 20  0  0  0  0  0  0  0  0999 V2000
   -5.2488    5.5084  -18.9648 Br  0  0  0  0  0  0  0  0  0  0  0  0
   -6.6724    4.8468  -17.9604 C   0  0  0  0  0  0  0  0  0  0  0  0
   -7.8760    4.5655  -18.4988 C   0  0  0  0  0  0  0  0  0  0  0  0
   -9.0275    4.2385  -17.6789 C   0  0  0  0  0  0  0  0  0  0  0  0
   -8.8745    4.1909  -16.3474 C   0  0  0  0  0  0  0  0  0  0  0  0
   -7.6199    4.4304  -15.7919 N   0  0  0  0  0  0  0  0  0  0  0  0
   -7.1911    4.4835  -14.4815 C   0  0  0  0  0  0  0  0  0  0  0  0
   -5.8883    4.7056  -14.4640 N   0  0  0  0  0  0  0  0  0  0  0  0
   -5.4585    4.8763  -15.7554 N   0  0  0  0  0  0  0  0  0  0  0  0
   -6.4974    4.7325  -16.5510 C   0  0  0  0  0  0  0  0  0  0  0  0
   -8.0983    4.3696  -13.2971 C   0  0  0  0  0  0  0  0  0  0  0  0
   -8.4307    5.6392  -12.6345 N   0  0  0  0  0  0  0  0  0  0  0  0
   -8.7298    6.7561  -13.5311 C   0  0  0  0  0  0  0  0  0  0  0  0
   -9.1535    8.0612  -12.8027 C   0  0  0  0  0  0  0  0  0  0  0  0
   -8.7640    8.1506  -11.3901 N   0  0  0  0  0  0  0  0  0  0  0  0
   -7.4678    7.5034  -11.1846 C   0  0  0  0  0  0  0  0  0  0  0  0
   -7.4609    6.0074  -11.5887 C   0  0  0  0  0  0  0  0  0  0  0  0
   -9.4678    7.6864  -10.8160 H   0  0  0  0  0  0  0  0  0  0  0  0
  1  2  1  0  0  0
  2  3  2  0  0  0
  3  4  1  0  0  0
  4  5  2  0  0  0
  5  6  1  0  0  0
  6  7  1  0  0  0
  7 11  1  0  0  0
 11 12  1  0  0  0
 12 13  1  0  0  0
 13 14  1  0  0  0
 14 15  1  0  0  0
 15 16  1  0  0  0
 16 17  1  0  0  0
  7  8  2  0  0  0
  8  9  1  0  0  0
  9 10  2  0  0  0
 10  2  1  0  0  0
 10  6  1  0  0  0
 17 12  1  0  0  0
 15 18  1  0  0  0
M  END
> <minimizedAffinity>
-5.29962

> <minimizedRMSD>
0.58905

$$$$
P52035


 17 19  0  0  0  0  0  0  0  0999 V2000
   -5.9576    4.9461  -14.2010 C   0  0  0  0  0  0  0  0  0  0  0  0
   -4.9934    5.0780  -15.1740 C   0  0  0  0  0  0  0  0  0  0  0  0
   -5.2479    4.9944  -16.4947 N   0  0  0  0  0  0  0  0  0  0  0  0
   -6.5124    4.7759  -16.9272 C   0  0  0  0  0  0  0  0  0  0  0  0
   -6.8390    4.6644  -18.2999 C   0  0  0  0  0  0  0  0  0  0  0  0
   -8.1760    4.3937  -18.6704 C   0  0  0  0  0  0  0  0  0  0  0  0
   -9.1817    4.2300  -17.7274 C   0  0  0  0  0  0  0  0  0  0  0  0
   -8.8697    4.3432  -16.3832 C   0  0  0  0  0  0  0  0  0  0  0  0
   -7.5557    4.6117  -15.9792 C   0  0  0  0  0  0  0  0  0  0  0  0
   -7.2589    4.7030  -14.6130 C   0  0  0  0  0  0  0  0  0  0  0  0
   -5.9359    4.8575  -19.3918 N   0  0  0  0  0  0  0  0  0  0  0  0
   -6.0064    4.1987  -20.1200 H   0  0  0  0  0  0  0  0  0  0  0  0
   -4.9996    5.8161  -19.5658 C   0  0  0  0  0  0  0  0  0  0  0  0
   -3.7129    5.5409  -19.6817 N   0  0  0  0  0  0  0  0  0  0  0  0
   -2.9833    6.7024  -19.8198 C   0  0  0  0  0  0  0  0  0  0  0  0
   -3.7204    7.8552  -19.9524 C   0  0  0  0  0  0  0  0  0  0  0  0
   -5.3848    7.4763  -19.8815 S   0  0  0  0  0  0  0  0  0  0  0  0
  1  2  2  0  0  0
  2  3  1  0  0  0
  3  4  2  0  0  0
  4  5  1  0  0  0
  5 11  1  0  0  0
 11 13  1  0  0  0
 13 14  2  0  0  0
 14 15  1  0  0  0
 15 16  2  0  0  0
 16 17  1  0  0  0
  5  6  2  0  0  0
  6  7  1  0  0  0
  7  8  2  0  0  0
  8  9  1  0  0  0
  9 10  2  0  0  0
 10  1  1  0  0  0
  9  4  1  0  0  0
 17 13  1  0  0  0
 11 12  1  0  0  0
M  END
> <minimizedAffinity>
-5.61670

> <minimizedRMSD>
0.98326

$$$$
P52061


 19 21  0  0  0  0  0  0  0  0999 V2000
   -4.1101    4.6058  -14.1176 C   0  0  0  0  0  0  0  0  0  0  0  0
   -4.7953    4.3791  -12.9112 C   0  0  0  0  0  0  0  0  0  0  0  0
   -6.1803    4.4761  -12.8815 C   0  0  0  0  0  0  0  0  0  0  0  0
   -6.8961    4.7914  -13.9913 N   0  0  0  0  0  0  0  0  0  0  0  0
   -6.2546    5.0352  -15.1411 C   0  0  0  0  0  0  0  0  0  0  0  0
   -7.0220    5.3749  -16.2464 C   0  0  0  0  0  0  0  0  0  0  0  0
   -6.4486    5.6580  -17.4865 C   0  0  0  0  0  0  0  0  0  0  0  0
   -5.0709    5.6038  -17.6305 C   0  0  0  0  0  0  0  0  0  0  0  0
   -4.2773    5.2625  -16.5349 C   0  0  0  0  0  0  0  0  0  0  0  0
   -4.8499    4.9661  -15.2727 C   0  0  0  0  0  0  0  0  0  0  0  0
   -6.8965    4.2430  -11.6575 N   0  0  0  0  0  0  0  0  0  0  0  0
   -6.8709    3.1203  -10.8497 C   0  0  0  0  0  0  0  0  0  0  0  0
   -7.7091    3.3615   -9.7864 C   0  0  0  0  0  0  0  0  0  0  0  0
   -8.2075    4.6499  -10.0176 C   0  0  0  0  0  0  0  0  0  0  0  0
   -7.7360    5.1876  -11.1429 N   0  0  0  0  0  0  0  0  0  0  0  0
   -1.9997    5.6669  -13.4913 N   0  0  0  0  0  0  0  0  0  0  0  0
   -2.6048    4.4911  -14.0999 C   0  0  0  0  0  0  0  0  0  0  0  0
   -0.9848    5.5655  -13.4912 H   0  0  0  0  0  0  0  0  0  0  0  0
   -2.3320    5.7621  -12.5316 H   0  0  0  0  0  0  0  0  0  0  0  0
 16 17  1  0  0  0
 17  1  1  0  0  0
  1  2  2  0  0  0
  2  3  1  0  0  0
  3 11  1  0  0  0
 11 12  1  0  0  0
 12 13  2  0  0  0
 13 14  1  0  0  0
 14 15  2  0  0  0
  3  4  2  0  0  0
  4  5  1  0  0  0
  5  6  2  0  0  0
  6  7  1  0  0  0
  7  8  2  0  0  0
  8  9  1  0  0  0
  9 10  2  0  0  0
 10  1  1  0  0  0
 15 11  1  0  0  0
 10  5  1  0  0  0
 16 18  1  0  0  0
 16 19  1  0  0  0
M  END
> <minimizedAffinity>
-4.00886

> <minimizedRMSD>
4.84828

$$$$
P52076


 22 24  0  0  0  0  0  0  0  0999 V2000
   -6.1803    4.8441  -19.5209 N   0  0  0  0  0  0  0  0  0  0  0  0
   -6.9968    4.5584  -18.4049 C   0  0  0  0  0  0  0  0  0  0  0  0
   -8.3500    4.2717  -18.6201 C   0  0  0  0  0  0  0  0  0  0  0  0
   -9.2287    4.1863  -17.5552 C   0  0  0  0  0  0  0  0  0  0  0  0
   -8.7628    4.4527  -16.2736 C   0  0  0  0  0  0  0  0  0  0  0  0
   -7.4032    4.7488  -16.0183 C   0  0  0  0  0  0  0  0  0  0  0  0
   -6.8937    5.0775  -14.7359 C   0  0  0  0  0  0  0  0  0  0  0  0
   -5.5330    5.3687  -14.5998 C   0  0  0  0  0  0  0  0  0  0  0  0
   -4.7300    5.3390  -15.7177 C   0  0  0  0  0  0  0  0  0  0  0  0
   -5.1828    5.0630  -16.9507 N   0  0  0  0  0  0  0  0  0  0  0  0
   -6.5011    4.7853  -17.1079 C   0  0  0  0  0  0  0  0  0  0  0  0
   -6.5196    4.6882  -20.4318 H   0  0  0  0  0  0  0  0  0  0  0  0
   -5.2718    5.1993  -19.3880 H   0  0  0  0  0  0  0  0  0  0  0  0
   -7.7002    5.1812  -13.5800 N   0  0  0  0  0  0  0  0  0  0  0  0
   -8.1784    6.0104  -13.3502 H   0  0  0  0  0  0  0  0  0  0  0  0
   -7.7822    3.9758  -12.7406 C   0  0  0  0  0  0  0  0  0  0  0  0
   -8.0345    4.2964  -11.3074 C   0  0  0  0  0  0  0  0  0  0  0  0
   -8.3440    3.3979  -10.2677 C   0  0  0  0  0  0  0  0  0  0  0  0
   -8.5099    4.0088   -9.0939 N   0  0  0  0  0  0  0  0  0  0  0  0
   -8.3161    5.3009   -9.3776 N   0  0  0  0  0  0  0  0  0  0  0  0
   -8.0161    5.5297  -10.6855 C   0  0  0  0  0  0  0  0  0  0  0  0
   -8.3837    6.0174   -8.7058 H   0  0  0  0  0  0  0  0  0  0  0  0
  1  2  1  0  0  0
  2  3  2  0  0  0
  3  4  1  0  0  0
  4  5  2  0  0  0
  5  6  1  0  0  0
  6  7  2  0  0  0
  7 14  1  0  0  0
 14 16  1  0  0  0
 16 17  1  0  0  0
 17 18  1  0  0  0
 18 19  2  0  0  0
 19 20  1  0  0  0
 20 21  1  0  0  0
  7  8  1  0  0  0
  8  9  2  0  0  0
  9 10  1  0  0  0
 10 11  2  0  0  0
 11  2  1  0  0  0
 11  6  1  0  0  0
 21 17  2  0  0  0
  1 12  1  0  0  0
  1 13  1  0  0  0
 14 15  1  0  0  0
 20 22  1  0  0  0
M  END
> <minimizedAffinity>
-6.03778

> <minimizedRMSD>
0.43670

$$$$
P52079


 18 20  0  0  0  0  0  0  0  0999 V2000
   -4.5818    5.0742  -15.7016 C   0  0  0  0  0  0  0  0  0  0  0  0
   -5.2467    4.8243  -14.5180 C   0  0  0  0  0  0  0  0  0  0  0  0
   -6.6152    4.5576  -14.5670 C   0  0  0  0  0  0  0  0  0  0  0  0
   -7.2731    4.5543  -15.8244 C   0  0  0  0  0  0  0  0  0  0  0  0
   -8.6523    4.3067  -16.0016 C   0  0  0  0  0  0  0  0  0  0  0  0
   -9.2298    4.2838  -17.2721 C   0  0  0  0  0  0  0  0  0  0  0  0
   -8.4419    4.5078  -18.3901 C   0  0  0  0  0  0  0  0  0  0  0  0
   -7.0832    4.7744  -18.2282 C   0  0  0  0  0  0  0  0  0  0  0  0
   -6.4843    4.8063  -16.9743 C   0  0  0  0  0  0  0  0  0  0  0  0
   -5.1695    5.0711  -16.9127 N   0  0  0  0  0  0  0  0  0  0  0  0
   -7.2818    4.2423  -13.3091 C   0  0  0  0  0  0  0  0  0  0  0  0
   -7.2690    3.0577  -12.5345 C   0  0  0  0  0  0  0  0  0  0  0  0
   -7.9090    3.1974  -11.3719 N   0  0  0  0  0  0  0  0  0  0  0  0
   -8.3870    4.4477  -11.4202 N   0  0  0  0  0  0  0  0  0  0  0  0
   -8.0032    5.1332  -12.5423 C   0  0  0  0  0  0  0  0  0  0  0  0
   -8.9581    4.8357  -10.7183 H   0  0  0  0  0  0  0  0  0  0  0  0
   -2.5955    5.4848  -16.8642 C   0  0  0  0  0  0  0  0  0  0  0  0
   -3.2266    5.3255  -15.5982 O   0  0  0  0  0  0  0  0  0  0  0  0
 17 18  1  0  0  0
 18  1  1  0  0  0
  1  2  2  0  0  0
  2  3  1  0  0  0
  3 11  1  0  0  0
 11 12  1  0  0  0
 12 13  2  0  0  0
 13 14  1  0  0  0
 14 15  1  0  0  0
  3  4  2  0  0  0
  4  5  1  0  0  0
  5  6  2  0  0  0
  6  7  1  0  0  0
  7  8  2  0  0  0
  8  9  1  0  0  0
  9 10  2  0  0  0
 10  1  1  0  0  0
 15 11  2  0  0  0
  9  4  1  0  0  0
 14 16  1  0  0  0
M  END
> <minimizedAffinity>
-5.84016

> <minimizedRMSD>
0.58591

$$$$
P52135


 21 24  0  0  0  0  0  0  0  0999 V2000
   -7.2437    4.6519  -12.3481 N   0  0  0  0  0  0  0  0  0  0  0  0
   -8.3697    3.8633  -11.8803 C   0  0  0  0  0  0  0  0  0  0  0  0
   -8.3514    3.7535  -10.3601 C   0  0  0  0  0  0  0  0  0  0  0  0
   -8.2765    5.1161   -9.6626 C   0  0  0  0  0  0  0  0  0  0  0  0
   -7.5306    6.1964  -10.4732 C   0  0  0  0  0  0  0  0  0  0  0  0
   -6.5503    5.5549  -11.4526 C   0  0  0  0  0  0  0  0  0  0  0  0
   -7.3967    4.6795  -18.6167 C   0  0  0  0  0  0  0  0  0  0  0  0
   -8.6795    4.4908  -18.1103 C   0  0  0  0  0  0  0  0  0  0  0  0
   -8.8882    4.4847  -16.7335 C   0  0  0  0  0  0  0  0  0  0  0  0
   -7.8337    4.6487  -15.8494 C   0  0  0  0  0  0  0  0  0  0  0  0
   -8.0611    4.5990  -14.5351 N   0  0  0  0  0  0  0  0  0  0  0  0
   -7.0252    4.7636  -13.6992 C   0  0  0  0  0  0  0  0  0  0  0  0
   -5.7724    5.0140  -14.1179 N   0  0  0  0  0  0  0  0  0  0  0  0
   -5.5620    5.0433  -15.4418 C   0  0  0  0  0  0  0  0  0  0  0  0
   -6.5578    4.8580  -16.3756 C   0  0  0  0  0  0  0  0  0  0  0  0
   -6.3270    4.8728  -17.7572 C   0  0  0  0  0  0  0  0  0  0  0  0
   -8.4942    7.1627  -11.1813 C   0  0  0  0  0  0  0  0  0  0  0  0
   -9.2281    7.9103  -10.1909 O   0  0  0  0  0  0  0  0  0  0  0  0
   -9.3994    9.1912  -10.7877 C   0  0  0  0  0  0  0  0  0  0  0  0
   -8.1010    9.3814  -11.5202 C   0  0  0  0  0  0  0  0  0  0  0  0
   -7.8065    8.0879  -12.0438 O   0  0  0  0  0  0  0  0  0  0  0  0
  7  8  2  0  0  0
  8  9  1  0  0  0
  9 10  2  0  0  0
 10 11  1  0  0  0
 11 12  2  0  0  0
 12  1  1  0  0  0
  1  2  1  0  0  0
  2  3  1  0  0  0
  3  4  1  0  0  0
  4  5  1  0  0  0
  5 17  1  0  0  0
 17 18  1  0  0  0
 18 19  1  0  0  0
 19 20  1  0  0  0
 20 21  1  0  0  0
  5  6  1  0  0  0
 12 13  1  0  0  0
 13 14  2  0  0  0
 14 15  1  0  0  0
 15 16  2  0  0  0
 16  7  1  0  0  0
 15 10  1  0  0  0
  6  1  1  0  0  0
 21 17  1  0  0  0
M  END
> <minimizedAffinity>
-5.92748

> <minimizedRMSD>
0.56476

$$$$
P52436


 23 26  0  0  0  0  0  0  0  0999 V2000
   -5.5528    4.5858  -13.7797 O   0  0  0  0  0  0  0  0  0  0  0  0
   -6.9691    4.7688  -13.9968 S   0  0  0  0  0  0  0  0  0  0  0  0
   -7.9371    4.0146  -13.2296 O   0  0  0  0  0  0  0  0  0  0  0  0
   -7.3748    4.5719  -15.7184 C   0  0  0  0  0  0  0  0  0  0  0  0
   -8.6466    4.0404  -15.9743 C   0  0  0  0  0  0  0  0  0  0  0  0
   -9.0380    3.7473  -17.2708 C   0  0  0  0  0  0  0  0  0  0  0  0
   -8.1500    3.9725  -18.3167 C   0  0  0  0  0  0  0  0  0  0  0  0
   -6.8811    4.4869  -18.1025 C   0  0  0  0  0  0  0  0  0  0  0  0
   -6.1184    4.6767  -19.1910 N   0  0  0  0  0  0  0  0  0  0  0  0
   -4.8720    5.1535  -19.0382 C   0  0  0  0  0  0  0  0  0  0  0  0
   -4.3374    5.4844  -17.8177 C   0  0  0  0  0  0  0  0  0  0  0  0
   -5.1345    5.3080  -16.6918 C   0  0  0  0  0  0  0  0  0  0  0  0
   -6.4546    4.7958  -16.7867 C   0  0  0  0  0  0  0  0  0  0  0  0
   -7.2677    6.4158  -13.6315 N   0  0  0  0  0  0  0  0  0  0  0  0
   -8.4431    6.5048  -12.6740 C   0  0  0  0  0  0  0  0  0  0  0  0
   -7.8617    6.9212  -11.3623 C   0  0  0  0  0  0  0  0  0  0  0  0
   -8.4809    6.9993  -10.1283 C   0  0  0  0  0  0  0  0  0  0  0  0
   -7.7331    7.4423   -9.0341 C   0  0  0  0  0  0  0  0  0  0  0  0
   -6.3856    7.8050   -9.1898 C   0  0  0  0  0  0  0  0  0  0  0  0
   -5.7766    7.7266  -10.4429 C   0  0  0  0  0  0  0  0  0  0  0  0
   -4.1317    8.1867  -10.6314 Cl  0  0  0  0  0  0  0  0  0  0  0  0
   -6.5241    7.2796  -11.5173 C   0  0  0  0  0  0  0  0  0  0  0  0
   -6.1307    7.1245  -12.9454 C   0  0  0  0  0  0  0  0  0  0  0  0
  1  2  2  0  0  0
  2  3  2  0  0  0
  2  4  1  0  0  0
  4  5  2  0  0  0
  5  6  1  0  0  0
  6  7  2  0  0  0
  7  8  1  0  0  0
  8  9  2  0  0  0
  9 10  1  0  0  0
 10 11  2  0  0  0
 11 12  1  0  0  0
 12 13  2  0  0  0
  2 14  1  0  0  0
 14 15  1  0  0  0
 15 16  1  0  0  0
 16 17  2  0  0  0
 17 18  1  0  0  0
 18 19  2  0  0  0
 19 20  1  0  0  0
 20 21  1  0  0  0
 20 22  2  0  0  0
 22 23  1  0  0  0
 13  4  1  0  0  0
 23 14  1  0  0  0
 13  8  1  0  0  0
 22 16  1  0  0  0
M  END
> <minimizedAffinity>
-6.80701

> <minimizedRMSD>
1.55072

$$$$
P52453


 24 26  0  0  0  0  0  0  0  0999 V2000
   -5.0892    5.2502  -17.7017 N   0  0  0  0  0  0  0  0  0  0  0  0
   -5.6633    5.0264  -18.9695 C   0  0  0  0  0  0  0  0  0  0  0  0
   -5.0998    5.0077  -20.0473 O   0  0  0  0  0  0  0  0  0  0  0  0
   -7.0255    4.7821  -18.7550 N   0  0  0  0  0  0  0  0  0  0  0  0
   -7.2653    4.7605  -17.3937 C   0  0  0  0  0  0  0  0  0  0  0  0
   -8.4298    4.5076  -16.7239 C   0  0  0  0  0  0  0  0  0  0  0  0
   -8.3350    4.4588  -15.3310 C   0  0  0  0  0  0  0  0  0  0  0  0
   -7.1095    4.6210  -14.6534 C   0  0  0  0  0  0  0  0  0  0  0  0
   -5.9546    4.9527  -15.3609 C   0  0  0  0  0  0  0  0  0  0  0  0
   -6.0647    5.0150  -16.7312 C   0  0  0  0  0  0  0  0  0  0  0  0
   -7.7014    4.6478  -19.4582 H   0  0  0  0  0  0  0  0  0  0  0  0
   -6.9929    4.4161  -13.1794 C   0  0  0  0  0  0  0  0  0  0  0  0
   -6.0770    4.8894  -12.6333 O   0  0  0  0  0  0  0  0  0  0  0  0
   -8.1414    3.5477  -12.6331 N   0  0  0  0  0  0  0  0  0  0  0  0
   -8.8434    3.3330  -13.2891 H   0  0  0  0  0  0  0  0  0  0  0  0
   -8.3568    2.9967  -11.3150 C   0  0  0  0  0  0  0  0  0  0  0  0
   -8.3829    3.9789  -10.2028 C   0  0  0  0  0  0  0  0  0  0  0  0
   -8.4088    3.6856   -8.9157 N   0  0  0  0  0  0  0  0  0  0  0  0
   -8.2619    4.8701   -8.2533 C   0  0  0  0  0  0  0  0  0  0  0  0
   -8.1842    5.9154   -9.1381 C   0  0  0  0  0  0  0  0  0  0  0  0
   -8.2531    5.3350  -10.3731 N   0  0  0  0  0  0  0  0  0  0  0  0
   -8.2161    5.8075  -11.2360 H   0  0  0  0  0  0  0  0  0  0  0  0
   -3.4179    7.0410  -17.4546 C   0  0  0  0  0  0  0  0  0  0  0  0
   -3.7090    5.5493  -17.4423 C   0  0  0  0  0  0  0  0  0  0  0  0
 23 24  1  0  0  0
 24  1  1  0  0  0
  1  2  1  0  0  0
  2  3  2  0  0  0
  2  4  1  0  0  0
  4  5  1  0  0  0
  5  6  2  0  0  0
  6  7  1  0  0  0
  7  8  2  0  0  0
  8 12  1  0  0  0
 12 13  2  0  0  0
 12 14  1  0  0  0
 14 16  1  0  0  0
 16 17  1  0  0  0
 17 18  2  0  0  0
 18 19  1  0  0  0
 19 20  2  0  0  0
 20 21  1  0  0  0
  8  9  1  0  0  0
  9 10  2  0  0  0
 10  1  1  0  0  0
 10  5  1  0  0  0
 21 17  1  0  0  0
  4 11  1  0  0  0
 14 15  1  0  0  0
 21 22  1  0  0  0
M  END
> <minimizedAffinity>
-5.95526

> <minimizedRMSD>
0.64202

$$$$
P52454


 23 25  0  0  0  0  0  0  0  0999 V2000
   -4.6408    5.0281  -18.8215 C   0  0  0  0  0  0  0  0  0  0  0  0
   -6.0383    4.7347  -18.7421 N   0  0  0  0  0  0  0  0  0  0  0  0
   -6.8507    4.2604  -19.7935 C   0  0  0  0  0  0  0  0  0  0  0  0
   -6.5303    3.9612  -20.9307 O   0  0  0  0  0  0  0  0  0  0  0  0
   -8.1437    4.1228  -19.2697 N   0  0  0  0  0  0  0  0  0  0  0  0
   -8.1025    4.3852  -17.9125 C   0  0  0  0  0  0  0  0  0  0  0  0
   -9.1043    4.2692  -16.9873 C   0  0  0  0  0  0  0  0  0  0  0  0
   -8.7258    4.4199  -15.6537 C   0  0  0  0  0  0  0  0  0  0  0  0
   -7.3863    4.6779  -15.2913 C   0  0  0  0  0  0  0  0  0  0  0  0
   -6.4048    4.9053  -16.2591 C   0  0  0  0  0  0  0  0  0  0  0  0
   -6.7939    4.7308  -17.5675 C   0  0  0  0  0  0  0  0  0  0  0  0
   -8.9478    3.8796  -19.7831 H   0  0  0  0  0  0  0  0  0  0  0  0
   -6.9772    4.6056  -13.8627 C   0  0  0  0  0  0  0  0  0  0  0  0
   -6.2832    5.4349  -13.4289 O   0  0  0  0  0  0  0  0  0  0  0  0
   -7.5336    3.3284  -13.2096 N   0  0  0  0  0  0  0  0  0  0  0  0
   -8.1678    2.8229  -13.7677 H   0  0  0  0  0  0  0  0  0  0  0  0
   -7.2779    2.7517  -11.9149 C   0  0  0  0  0  0  0  0  0  0  0  0
   -7.8256    3.5660  -10.8016 C   0  0  0  0  0  0  0  0  0  0  0  0
   -8.1899    3.1299   -9.6126 N   0  0  0  0  0  0  0  0  0  0  0  0
   -8.4446    4.2432   -8.8639 C   0  0  0  0  0  0  0  0  0  0  0  0
   -8.2693    5.3829   -9.6096 C   0  0  0  0  0  0  0  0  0  0  0  0
   -7.8833    4.9390  -10.8431 N   0  0  0  0  0  0  0  0  0  0  0  0
   -7.6818    5.5033  -11.6242 H   0  0  0  0  0  0  0  0  0  0  0  0
  1  2  1  0  0  0
  2  3  1  0  0  0
  3  4  2  0  0  0
  3  5  1  0  0  0
  5  6  1  0  0  0
  6  7  2  0  0  0
  7  8  1  0  0  0
  8  9  2  0  0  0
  9 13  1  0  0  0
 13 14  2  0  0  0
 13 15  1  0  0  0
 15 17  1  0  0  0
 17 18  1  0  0  0
 18 19  2  0  0  0
 19 20  1  0  0  0
 20 21  2  0  0  0
 21 22  1  0  0  0
  9 10  1  0  0  0
 10 11  2  0  0  0
 11  2  1  0  0  0
 11  6  1  0  0  0
 22 18  1  0  0  0
  5 12  1  0  0  0
 15 16  1  0  0  0
 22 23  1  0  0  0
M  END
> <minimizedAffinity>
-5.78035

> <minimizedRMSD>
0.23586

$$$$
P52464


 25 28  0  0  0  0  0  0  0  0999 V2000
   -6.6983    5.2635  -13.8342 S   0  0  0  0  0  0  0  0  0  0  0  0
   -7.4635    6.4571  -13.5292 O   0  0  0  0  0  0  0  0  0  0  0  0
   -5.2515    5.2935  -13.8435 O   0  0  0  0  0  0  0  0  0  0  0  0
   -6.5808    3.6779  -21.0783 O   0  0  0  0  0  0  0  0  0  0  0  0
   -6.9134    3.9262  -19.9294 C   0  0  0  0  0  0  0  0  0  0  0  0
   -8.1315    3.6184  -19.2980 N   0  0  0  0  0  0  0  0  0  0  0  0
   -8.0407    3.9713  -17.9545 C   0  0  0  0  0  0  0  0  0  0  0  0
   -8.9423    3.8096  -16.9280 C   0  0  0  0  0  0  0  0  0  0  0  0
   -8.5247    4.1926  -15.6429 C   0  0  0  0  0  0  0  0  0  0  0  0
   -7.2390    4.7418  -15.4401 C   0  0  0  0  0  0  0  0  0  0  0  0
   -6.3453    4.9239  -16.5040 C   0  0  0  0  0  0  0  0  0  0  0  0
   -6.7806    4.5259  -17.7435 C   0  0  0  0  0  0  0  0  0  0  0  0
   -6.1041    4.5378  -18.9564 N   0  0  0  0  0  0  0  0  0  0  0  0
   -8.9187    3.2191  -19.7341 H   0  0  0  0  0  0  0  0  0  0  0  0
   -5.2067    4.9125  -19.1094 H   0  0  0  0  0  0  0  0  0  0  0  0
   -7.1915    4.0698  -12.7692 N   0  0  0  0  0  0  0  0  0  0  0  0
   -6.5114    3.5957  -11.5003 C   0  0  0  0  0  0  0  0  0  0  0  0
   -7.8702    3.0272  -11.0664 C   0  0  0  0  0  0  0  0  0  0  0  0
   -8.4345    4.1649  -11.9495 C   0  0  0  0  0  0  0  0  0  0  0  0
   -8.3109    3.0208   -9.5858 C   0  0  0  0  0  0  0  0  0  0  0  0
   -9.2691    2.2390   -9.1390 N   0  0  0  0  0  0  0  0  0  0  0  0
   -9.5219    2.6515   -7.8576 C   0  0  0  0  0  0  0  0  0  0  0  0
   -8.7328    3.7288   -7.5334 C   0  0  0  0  0  0  0  0  0  0  0  0
   -7.9276    3.9141   -8.6209 N   0  0  0  0  0  0  0  0  0  0  0  0
   -7.2003    4.5732   -8.6976 H   0  0  0  0  0  0  0  0  0  0  0  0
  4  5  2  0  0  0
  5  6  1  0  0  0
  6  7  1  0  0  0
  7  8  2  0  0  0
  8  9  1  0  0  0
  9 10  2  0  0  0
 10  1  1  0  0  0
  1  2  2  0  0  0
  1  3  2  0  0  0
  1 16  1  0  0  0
 16 17  1  0  0  0
 17 18  1  0  0  0
 18 20  1  0  0  0
 20 21  2  0  0  0
 21 22  1  0  0  0
 22 23  2  0  0  0
 23 24  1  0  0  0
 18 19  1  0  0  0
 10 11  1  0  0  0
 11 12  2  0  0  0
 12 13  1  0  0  0
 13  5  1  0  0  0
 12  7  1  0  0  0
 19 16  1  0  0  0
 24 20  1  0  0  0
  6 14  1  0  0  0
 24 25  1  0  0  0
 13 15  1  0  0  0
M  END
> <minimizedAffinity>
-7.69897

> <minimizedRMSD>
0.66844

$$$$
P52469


 26 28  0  0  0  0  0  0  0  0999 V2000
   -5.7435    4.6887  -19.0174 N   0  0  0  0  0  0  0  0  0  0  0  0
   -6.2912    4.0972  -20.1785 C   0  0  0  0  0  0  0  0  0  0  0  0
   -5.7677    3.9968  -21.2777 O   0  0  0  0  0  0  0  0  0  0  0  0
   -7.5552    3.6011  -19.8069 N   0  0  0  0  0  0  0  0  0  0  0  0
   -7.7650    3.8595  -18.4592 C   0  0  0  0  0  0  0  0  0  0  0  0
   -8.8507    3.5764  -17.6684 C   0  0  0  0  0  0  0  0  0  0  0  0
   -8.7620    3.9416  -16.3156 C   0  0  0  0  0  0  0  0  0  0  0  0
   -7.6034    4.5611  -15.7921 C   0  0  0  0  0  0  0  0  0  0  0  0
   -6.5247    4.8502  -16.6346 C   0  0  0  0  0  0  0  0  0  0  0  0
   -6.6379    4.5022  -17.9596 C   0  0  0  0  0  0  0  0  0  0  0  0
   -8.1885    3.1443  -20.4065 H   0  0  0  0  0  0  0  0  0  0  0  0
   -7.4994    5.0610  -14.3853 C   0  0  0  0  0  0  0  0  0  0  0  0
   -6.9793    6.0949  -14.2384 O   0  0  0  0  0  0  0  0  0  0  0  0
   -8.1727    4.1271  -13.3612 N   0  0  0  0  0  0  0  0  0  0  0  0
   -8.4745    3.2642  -13.7266 H   0  0  0  0  0  0  0  0  0  0  0  0
   -8.4359    4.3134  -11.9377 C   0  0  0  0  0  0  0  0  0  0  0  0
   -8.0560    5.7306  -11.5069 C   0  0  0  0  0  0  0  0  0  0  0  0
   -7.8222    3.2275  -11.0523 C   0  0  0  0  0  0  0  0  0  0  0  0
   -8.4335    3.1787   -9.6862 C   0  0  0  0  0  0  0  0  0  0  0  0
   -9.3177    2.2562   -9.1704 C   0  0  0  0  0  0  0  0  0  0  0  0
   -9.4808    2.5939   -7.8574 N   0  0  0  0  0  0  0  0  0  0  0  0
   -8.7506    3.7246   -7.6351 C   0  0  0  0  0  0  0  0  0  0  0  0
   -8.1111    4.1084   -8.7159 N   0  0  0  0  0  0  0  0  0  0  0  0
  -10.0247    2.1108   -7.1940 H   0  0  0  0  0  0  0  0  0  0  0  0
   -4.4994    6.8088  -19.2667 C   0  0  0  0  0  0  0  0  0  0  0  0
   -4.4621    5.3328  -18.9078 C   0  0  0  0  0  0  0  0  0  0  0  0
 25 26  1  0  0  0
 26  1  1  0  0  0
  1  2  1  0  0  0
  2  3  2  0  0  0
  2  4  1  0  0  0
  4  5  1  0  0  0
  5  6  2  0  0  0
  6  7  1  0  0  0
  7  8  2  0  0  0
  8 12  1  0  0  0
 12 13  2  0  0  0
 12 14  1  0  0  0
 14 16  1  0  0  0
 16 17  1  0  0  0
 16 18  1  0  0  0
 18 19  1  0  0  0
 19 20  2  0  0  0
 20 21  1  0  0  0
 21 22  1  0  0  0
 22 23  2  0  0  0
  8  9  1  0  0  0
  9 10  2  0  0  0
 10  1  1  0  0  0
 10  5  1  0  0  0
 23 19  1  0  0  0
  4 11  1  0  0  0
 14 15  1  0  0  0
 21 24  1  0  0  0
M  END
> <minimizedAffinity>
-7.43280

> <minimizedRMSD>
0.80499

$$$$
P52470


 25 27  0  0  0  0  0  0  0  0999 V2000
   -7.7788    4.2244  -13.1437 N   0  0  0  0  0  0  0  0  0  0  0  0
   -7.1494    5.1500  -14.2060 C   0  0  0  0  0  0  0  0  0  0  0  0
   -6.5477    6.1425  -14.0836 O   0  0  0  0  0  0  0  0  0  0  0  0
   -8.3071    3.4781  -13.5084 H   0  0  0  0  0  0  0  0  0  0  0  0
   -7.4027    4.6878  -15.6051 C   0  0  0  0  0  0  0  0  0  0  0  0
   -8.6221    4.0953  -16.0110 C   0  0  0  0  0  0  0  0  0  0  0  0
   -8.8381    3.7246  -17.3483 C   0  0  0  0  0  0  0  0  0  0  0  0
   -7.8117    3.9502  -18.2332 C   0  0  0  0  0  0  0  0  0  0  0  0
   -7.7187    3.6398  -19.5850 N   0  0  0  0  0  0  0  0  0  0  0  0
   -6.4672    4.0696  -20.0676 C   0  0  0  0  0  0  0  0  0  0  0  0
   -6.0319    3.9063  -21.1978 O   0  0  0  0  0  0  0  0  0  0  0  0
   -5.8118    4.6765  -18.9742 N   0  0  0  0  0  0  0  0  0  0  0  0
   -4.5223    5.2967  -18.9900 C   0  0  0  0  0  0  0  0  0  0  0  0
   -6.6267    4.5677  -17.8448 C   0  0  0  0  0  0  0  0  0  0  0  0
   -6.3954    4.9514  -16.5445 C   0  0  0  0  0  0  0  0  0  0  0  0
   -8.4146    3.1923  -20.1184 H   0  0  0  0  0  0  0  0  0  0  0  0
   -8.0616    5.6885  -11.2043 C   0  0  0  0  0  0  0  0  0  0  0  0
   -7.7178    4.2758  -11.6721 C   0  0  0  0  0  0  0  0  0  0  0  0
   -8.6114    3.1715  -11.0740 C   0  0  0  0  0  0  0  0  0  0  0  0
   -8.7513    3.0989   -9.5886 C   0  0  0  0  0  0  0  0  0  0  0  0
   -9.2254    2.0391   -8.8449 C   0  0  0  0  0  0  0  0  0  0  0  0
   -9.1978    2.4480   -7.5427 N   0  0  0  0  0  0  0  0  0  0  0  0
   -8.7471    3.7349   -7.5366 C   0  0  0  0  0  0  0  0  0  0  0  0
   -8.4886    4.1634   -8.7514 N   0  0  0  0  0  0  0  0  0  0  0  0
   -9.4549    1.9144   -6.7563 H   0  0  0  0  0  0  0  0  0  0  0  0
 18 17  1  0  0  0
 18 19  1  0  0  0
 19 20  1  0  0  0
 20 21  2  0  0  0
 21 22  1  0  0  0
 22 23  1  0  0  0
 23 24  2  0  0  0
 18  1  1  0  0  0
  1  2  1  0  0  0
  2  3  2  0  0  0
  2  5  1  0  0  0
  5  6  2  0  0  0
  6  7  1  0  0  0
  7  8  2  0  0  0
  8  9  1  0  0  0
  9 10  1  0  0  0
 10 11  2  0  0  0
 10 12  1  0  0  0
 12 13  1  0  0  0
 12 14  1  0  0  0
 14 15  2  0  0  0
 24 20  1  0  0  0
 15  5  1  0  0  0
 14  8  1  0  0  0
 22 25  1  0  0  0
  1  4  1  0  0  0
  9 16  1  0  0  0
M  END
> <minimizedAffinity>
-7.68835

> <minimizedRMSD>
0.44466

$$$$
P52474


 24 26  0  0  0  0  0  0  0  0999 V2000
   -9.1414    6.3953  -13.2303 O   0  0  0  0  0  0  0  0  0  0  0  0
   -8.2510    5.6926  -12.9579 C   0  0  0  0  0  0  0  0  0  0  0  0
   -7.2690    4.9192  -13.8700 N   0  0  0  0  0  0  0  0  0  0  0  0
   -6.5471    4.4490  -13.3935 H   0  0  0  0  0  0  0  0  0  0  0  0
   -7.2408    4.7810  -15.2478 C   0  0  0  0  0  0  0  0  0  0  0  0
   -8.3939    4.2449  -15.8702 C   0  0  0  0  0  0  0  0  0  0  0  0
   -8.4376    3.9786  -17.2381 C   0  0  0  0  0  0  0  0  0  0  0  0
   -7.3173    4.3183  -17.9455 C   0  0  0  0  0  0  0  0  0  0  0  0
   -7.0429    4.1569  -19.2939 N   0  0  0  0  0  0  0  0  0  0  0  0
   -5.7655    4.6658  -19.5611 C   0  0  0  0  0  0  0  0  0  0  0  0
   -5.1693    4.6622  -20.6261 O   0  0  0  0  0  0  0  0  0  0  0  0
   -5.2667    5.1554  -18.3414 N   0  0  0  0  0  0  0  0  0  0  0  0
   -6.2035    4.9062  -17.3441 C   0  0  0  0  0  0  0  0  0  0  0  0
   -6.1168    5.1264  -15.9880 C   0  0  0  0  0  0  0  0  0  0  0  0
   -7.6473    3.7506  -19.9564 H   0  0  0  0  0  0  0  0  0  0  0  0
   -4.3981    5.6009  -18.2143 H   0  0  0  0  0  0  0  0  0  0  0  0
   -7.9603    5.3163  -11.5084 C   0  0  0  0  0  0  0  0  0  0  0  0
   -8.4472    3.8859  -11.2345 C   0  0  0  0  0  0  0  0  0  0  0  0
   -8.6465    3.5608   -9.7899 C   0  0  0  0  0  0  0  0  0  0  0  0
   -9.1134    2.3809   -9.2498 C   0  0  0  0  0  0  0  0  0  0  0  0
   -9.1022    2.5613   -7.8969 N   0  0  0  0  0  0  0  0  0  0  0  0
   -8.6665    3.8337   -7.6634 C   0  0  0  0  0  0  0  0  0  0  0  0
   -8.3833    4.4657   -8.7810 N   0  0  0  0  0  0  0  0  0  0  0  0
   -9.3600    1.8978   -7.2167 H   0  0  0  0  0  0  0  0  0  0  0  0
  1  2  2  0  0  0
  2 17  1  0  0  0
 17 18  1  0  0  0
 18 19  1  0  0  0
 19 20  2  0  0  0
 20 21  1  0  0  0
 21 22  1  0  0  0
 22 23  2  0  0  0
  2  3  1  0  0  0
  3  5  1  0  0  0
  5  6  2  0  0  0
  6  7  1  0  0  0
  7  8  2  0  0  0
  8  9  1  0  0  0
  9 10  1  0  0  0
 10 11  2  0  0  0
 10 12  1  0  0  0
 12 13  1  0  0  0
 13 14  2  0  0  0
 23 19  1  0  0  0
 14  5  1  0  0  0
 13  8  1  0  0  0
 21 24  1  0  0  0
  3  4  1  0  0  0
  9 15  1  0  0  0
 12 16  1  0  0  0
M  END
> <minimizedAffinity>
-6.95902

> <minimizedRMSD>
0.47882

$$$$
P52475


 24 26  0  0  0  0  0  0  0  0999 V2000
   -4.3385    5.8230  -16.8619 C   0  0  0  0  0  0  0  0  0  0  0  0
   -4.2997    5.2266  -19.7410 O   0  0  0  0  0  0  0  0  0  0  0  0
   -5.2774    5.0124  -19.0386 C   0  0  0  0  0  0  0  0  0  0  0  0
   -6.4946    4.4680  -19.4606 N   0  0  0  0  0  0  0  0  0  0  0  0
   -7.3250    4.3167  -18.3653 C   0  0  0  0  0  0  0  0  0  0  0  0
   -8.5987    3.8141  -18.3296 C   0  0  0  0  0  0  0  0  0  0  0  0
   -9.1841    3.7111  -17.0705 C   0  0  0  0  0  0  0  0  0  0  0  0
   -8.5163    4.1032  -15.9067 C   0  0  0  0  0  0  0  0  0  0  0  0
   -7.2243    4.6116  -15.9826 C   0  0  0  0  0  0  0  0  0  0  0  0
   -6.6447    4.7430  -17.2255 C   0  0  0  0  0  0  0  0  0  0  0  0
   -5.3986    5.2404  -17.6432 N   0  0  0  0  0  0  0  0  0  0  0  0
   -6.7235    4.2307  -20.3883 H   0  0  0  0  0  0  0  0  0  0  0  0
   -4.5804    7.1545  -16.1387 C   0  0  0  0  0  0  0  0  0  0  0  0
   -5.0529    8.1884  -17.0758 N   0  0  0  0  0  0  0  0  0  0  0  0
   -6.0445    8.0172  -17.2424 H   0  0  0  0  0  0  0  0  0  0  0  0
   -4.8921    9.8039  -16.6148 S   0  0  0  0  0  0  0  0  0  0  0  0
   -3.5209   10.2159  -16.8154 O   0  0  0  0  0  0  0  0  0  0  0  0
   -5.6166   10.0212  -15.3813 O   0  0  0  0  0  0  0  0  0  0  0  0
   -5.7899   10.7187  -17.8002 C   0  0  0  0  0  0  0  0  0  0  0  0
   -5.9874   12.0829  -17.8121 C   0  0  0  0  0  0  0  0  0  0  0  0
   -6.7275   12.3218  -18.9359 N   0  0  0  0  0  0  0  0  0  0  0  0
   -6.9511   11.1201  -19.5533 C   0  0  0  0  0  0  0  0  0  0  0  0
   -6.4046   10.1211  -18.8958 N   0  0  0  0  0  0  0  0  0  0  0  0
   -7.0435   13.2011  -19.2462 H   0  0  0  0  0  0  0  0  0  0  0  0
  2  3  2  0  0  0
  3  4  1  0  0  0
  4  5  1  0  0  0
  5  6  2  0  0  0
  6  7  1  0  0  0
  7  8  2  0  0  0
  8  9  1  0  0  0
  9 10  2  0  0  0
 10 11  1  0  0  0
 11  1  1  0  0  0
  1 13  1  0  0  0
 13 14  1  0  0  0
 14 16  1  0  0  0
 16 17  2  0  0  0
 16 18  2  0  0  0
 16 19  1  0  0  0
 19 20  2  0  0  0
 20 21  1  0  0  0
 21 22  1  0  0  0
 22 23  2  0  0  0
 11  3  1  0  0  0
 23 19  1  0  0  0
 10  5  1  0  0  0
  4 12  1  0  0  0
 14 15  1  0  0  0
 21 24  1  0  0  0
M  END
> <minimizedAffinity>
-5.35333

> <minimizedRMSD>
2.45585

$$$$
P52531


 26 29  0  0  0  0  0  0  0  0999 V2000
   -2.5083    4.1280  -19.0110 O   0  0  0  0  0  0  0  0  0  0  0  0
   -2.9426    5.1507  -18.6370 C   0  0  0  0  0  0  0  0  0  0  0  0
   -3.2817    6.4516  -19.4245 N   0  0  0  0  0  0  0  0  0  0  0  0
   -3.7121    7.1571  -18.8894 H   0  0  0  0  0  0  0  0  0  0  0  0
   -3.0755    6.7777  -20.7585 C   0  0  0  0  0  0  0  0  0  0  0  0
   -4.1120    7.4070  -21.4661 C   0  0  0  0  0  0  0  0  0  0  0  0
   -3.9697    7.7261  -22.8225 C   0  0  0  0  0  0  0  0  0  0  0  0
   -2.7656    7.4373  -23.4311 C   0  0  0  0  0  0  0  0  0  0  0  0
   -1.7377    6.8187  -22.7254 C   0  0  0  0  0  0  0  0  0  0  0  0
   -1.8808    6.4605  -21.3966 C   0  0  0  0  0  0  0  0  0  0  0  0
   -0.5771    6.6083  -23.6343 C   0  0  0  0  0  0  0  0  0  0  0  0
   -0.8616    7.4381  -24.8320 N   0  0  0  0  0  0  0  0  0  0  0  0
   -2.3344    7.6387  -24.8433 C   0  0  0  0  0  0  0  0  0  0  0  0
   -0.5622    6.9545  -25.6787 H   0  0  0  0  0  0  0  0  0  0  0  0
   -3.1706    5.3983  -17.1456 C   0  0  0  0  0  0  0  0  0  0  0  0
   -4.5309    5.2186  -16.5292 C   0  0  0  0  0  0  0  0  0  0  0  0
   -4.7366    5.2520  -15.1578 C   0  0  0  0  0  0  0  0  0  0  0  0
   -6.0534    5.0061  -14.8984 N   0  0  0  0  0  0  0  0  0  0  0  0
   -6.7400    4.8573  -16.0753 C   0  0  0  0  0  0  0  0  0  0  0  0
   -8.1039    4.6304  -16.2793 C   0  0  0  0  0  0  0  0  0  0  0  0
   -8.5482    4.5544  -17.5970 C   0  0  0  0  0  0  0  0  0  0  0  0
  -10.2215    4.3568  -17.8911 Cl  0  0  0  0  0  0  0  0  0  0  0  0
   -7.6678    4.6442  -18.6635 C   0  0  0  0  0  0  0  0  0  0  0  0
   -6.2970    4.8010  -18.4377 C   0  0  0  0  0  0  0  0  0  0  0  0
   -5.8148    4.9536  -17.1198 C   0  0  0  0  0  0  0  0  0  0  0  0
   -6.4510    4.9448  -13.9999 H   0  0  0  0  0  0  0  0  0  0  0  0
  1  2  2  0  0  0
  2 15  1  0  0  0
 15 16  1  0  0  0
 16 17  2  0  0  0
 17 18  1  0  0  0
 18 19  1  0  0  0
 19 20  2  0  0  0
 20 21  1  0  0  0
 21 22  1  0  0  0
 21 23  2  0  0  0
 23 24  1  0  0  0
 24 25  2  0  0  0
  2  3  1  0  0  0
  3  5  1  0  0  0
  5  6  2  0  0  0
  6  7  1  0  0  0
  7  8  2  0  0  0
  8  9  1  0  0  0
  9 10  2  0  0  0
  9 11  1  0  0  0
 11 12  1  0  0  0
 12 13  1  0  0  0
 25 16  1  0  0  0
 10  5  1  0  0  0
 25 19  1  0  0  0
 13  8  1  0  0  0
 18 26  1  0  0  0
  3  4  1  0  0  0
 12 14  1  0  0  0
M  END
> <minimizedAffinity>
-5.74424

> <minimizedRMSD>
1.41598

$$$$
P52532


 26 29  0  0  0  0  0  0  0  0999 V2000
   -2.8744    6.3657  -19.3253 C   0  0  0  0  0  0  0  0  0  0  0  0
   -1.8422    6.9218  -19.3089 O   0  0  0  0  0  0  0  0  0  0  0  0
   -4.0907    6.5242  -20.2851 N   0  0  0  0  0  0  0  0  0  0  0  0
   -4.8805    5.9894  -20.0414 H   0  0  0  0  0  0  0  0  0  0  0  0
   -4.2422    7.2970  -21.4284 C   0  0  0  0  0  0  0  0  0  0  0  0
   -5.4611    7.9752  -21.6105 C   0  0  0  0  0  0  0  0  0  0  0  0
   -5.7332    8.6716  -22.7936 C   0  0  0  0  0  0  0  0  0  0  0  0
   -4.7698    8.6631  -23.7802 C   0  0  0  0  0  0  0  0  0  0  0  0
   -3.5590    8.0030  -23.5923 C   0  0  0  0  0  0  0  0  0  0  0  0
   -3.2704    7.3249  -22.4207 C   0  0  0  0  0  0  0  0  0  0  0  0
   -2.7148    8.1704  -24.8068 C   0  0  0  0  0  0  0  0  0  0  0  0
   -3.6289    8.6924  -25.8538 N   0  0  0  0  0  0  0  0  0  0  0  0
   -4.7834    9.2883  -25.1321 C   0  0  0  0  0  0  0  0  0  0  0  0
   -3.9430    7.9344  -26.4597 H   0  0  0  0  0  0  0  0  0  0  0  0
   -3.1312    5.2091  -18.3456 C   0  0  0  0  0  0  0  0  0  0  0  0
   -9.8952    4.2593  -17.5114 C   0  0  0  0  0  0  0  0  0  0  0  0
   -8.4208    4.5016  -17.5516 C   0  0  0  0  0  0  0  0  0  0  0  0
   -7.7654    4.5417  -18.7784 C   0  0  0  0  0  0  0  0  0  0  0  0
   -6.3850    4.7169  -18.8441 C   0  0  0  0  0  0  0  0  0  0  0  0
   -5.6589    4.9797  -17.6650 C   0  0  0  0  0  0  0  0  0  0  0  0
   -4.2794    5.2618  -17.3840 C   0  0  0  0  0  0  0  0  0  0  0  0
   -4.1929    5.4641  -16.0179 C   0  0  0  0  0  0  0  0  0  0  0  0
   -5.4325    5.2703  -15.4692 N   0  0  0  0  0  0  0  0  0  0  0  0
   -6.3461    4.9876  -16.4535 C   0  0  0  0  0  0  0  0  0  0  0  0
   -7.7138    4.7172  -16.3606 C   0  0  0  0  0  0  0  0  0  0  0  0
   -5.6384    5.3256  -14.5081 H   0  0  0  0  0  0  0  0  0  0  0  0
 16 17  1  0  0  0
 17 18  2  0  0  0
 18 19  1  0  0  0
 19 20  2  0  0  0
 20 21  1  0  0  0
 21 15  1  0  0  0
 15  1  1  0  0  0
  1  2  2  0  0  0
  1  3  1  0  0  0
  3  5  1  0  0  0
  5  6  2  0  0  0
  6  7  1  0  0  0
  7  8  2  0  0  0
  8  9  1  0  0  0
  9 10  2  0  0  0
  9 11  1  0  0  0
 11 12  1  0  0  0
 12 13  1  0  0  0
 21 22  2  0  0  0
 22 23  1  0  0  0
 23 24  1  0  0  0
 24 25  2  0  0  0
 25 17  1  0  0  0
 24 20  1  0  0  0
 10  5  1  0  0  0
 13  8  1  0  0  0
  3  4  1  0  0  0
 12 14  1  0  0  0
 23 26  1  0  0  0
M  END
> <minimizedAffinity>
-5.74512

> <minimizedRMSD>
0.91860

$$$$
P52581


 21 23  0  0  0  0  0  0  0  0999 V2000
   -8.1708    4.1789  -13.8251 N   0  0  0  0  0  0  0  0  0  0  0  0
   -7.8544    3.2996  -14.1349 H   0  0  0  0  0  0  0  0  0  0  0  0
   -8.2672    4.3867  -12.4999 C   0  0  0  0  0  0  0  0  0  0  0  0
   -8.2645    3.4247  -11.6131 N   0  0  0  0  0  0  0  0  0  0  0  0
   -8.4423    4.1890  -10.3539 C   0  0  0  0  0  0  0  0  0  0  0  0
   -7.7522    3.6293   -9.1342 C   0  0  0  0  0  0  0  0  0  0  0  0
   -7.3835    4.7589   -8.1510 C   0  0  0  0  0  0  0  0  0  0  0  0
   -8.2645    6.0165   -8.2578 C   0  0  0  0  0  0  0  0  0  0  0  0
   -8.3639    6.5918   -9.6862 C   0  0  0  0  0  0  0  0  0  0  0  0
   -7.8678    5.5691  -10.6757 C   0  0  0  0  0  0  0  0  0  0  0  0
   -8.2646    5.6878  -12.0566 N   0  0  0  0  0  0  0  0  0  0  0  0
   -8.4816    6.5048  -12.5612 H   0  0  0  0  0  0  0  0  0  0  0  0
   -8.5026    5.1647  -14.8138 C   0  0  0  0  0  0  0  0  0  0  0  0
   -6.9854    5.0478  -16.8603 C   0  0  0  0  0  0  0  0  0  0  0  0
   -6.8305    4.7480  -18.2075 C   0  0  0  0  0  0  0  0  0  0  0  0
   -7.8581    4.0761  -18.8450 C   0  0  0  0  0  0  0  0  0  0  0  0
   -8.9932    3.6846  -18.2322 N   0  0  0  0  0  0  0  0  0  0  0  0
   -9.1167    4.0209  -16.9322 C   0  0  0  0  0  0  0  0  0  0  0  0
   -8.1665    4.7163  -16.1982 C   0  0  0  0  0  0  0  0  0  0  0  0
   -4.7552    5.5854  -16.8826 C   0  0  0  0  0  0  0  0  0  0  0  0
   -6.0186    5.8089  -16.2575 O   0  0  0  0  0  0  0  0  0  0  0  0
 20 21  1  0  0  0
 21 14  1  0  0  0
 14 15  2  0  0  0
 15 16  1  0  0  0
 16 17  2  0  0  0
 17 18  1  0  0  0
 18 19  2  0  0  0
 19 13  1  0  0  0
 13  1  1  0  0  0
  1  3  1  0  0  0
  3  4  2  0  0  0
  4  5  1  0  0  0
  5  6  1  0  0  0
  6  7  1  0  0  0
  7  8  1  0  0  0
  8  9  1  0  0  0
 10  9  1  0  0  0
 10 11  1  0  0  0
 19 14  1  0  0  0
 11  3  1  0  0  0
 10  5  1  0  0  0
  1  2  1  0  0  0
 11 12  1  0  0  0
M  END
> <minimizedAffinity>
-5.92928

> <minimizedRMSD>
0.39908

$$$$
P52608


 20 23  0  0  0  0  0  0  0  0999 V2000
    0.4463    6.8662  -24.4470 Cl  0  0  0  0  0  0  0  0  0  0  0  0
   -0.1484    7.0273  -22.8390 C   0  0  0  0  0  0  0  0  0  0  0  0
    0.3541    8.0464  -22.0144 C   0  0  0  0  0  0  0  0  0  0  0  0
   -0.0976    8.1773  -20.6982 C   0  0  0  0  0  0  0  0  0  0  0  0
   -1.0557    7.2856  -20.2472 C   0  0  0  0  0  0  0  0  0  0  0  0
   -1.5603    6.2810  -21.0728 C   0  0  0  0  0  0  0  0  0  0  0  0
   -1.1121    6.1322  -22.3739 C   0  0  0  0  0  0  0  0  0  0  0  0
   -2.5379    5.4494  -20.2979 C   0  0  0  0  0  0  0  0  0  0  0  0
   -2.8442    6.2765  -19.1033 N   0  0  0  0  0  0  0  0  0  0  0  0
   -1.6713    7.1525  -18.8908 C   0  0  0  0  0  0  0  0  0  0  0  0
   -3.1684    5.4865  -17.9094 C   0  0  0  0  0  0  0  0  0  0  0  0
   -4.6371    5.2745  -17.6329 C   0  0  0  0  0  0  0  0  0  0  0  0
   -5.1357    5.2544  -16.4111 N   0  0  0  0  0  0  0  0  0  0  0  0
   -6.4746    4.8991  -16.4540 C   0  0  0  0  0  0  0  0  0  0  0  0
   -7.3198    4.7201  -15.3416 C   0  0  0  0  0  0  0  0  0  0  0  0
   -8.6520    4.3470  -15.5401 C   0  0  0  0  0  0  0  0  0  0  0  0
   -9.1510    4.1568  -16.8253 C   0  0  0  0  0  0  0  0  0  0  0  0
   -8.3321    4.3245  -17.9429 C   0  0  0  0  0  0  0  0  0  0  0  0
   -6.9981    4.7002  -17.7306 C   0  0  0  0  0  0  0  0  0  0  0  0
   -5.7693    4.9866  -18.8862 S   0  0  0  0  0  0  0  0  0  0  0  0
  1  2  1  0  0  0
  2  3  2  0  0  0
  3  4  1  0  0  0
  4  5  2  0  0  0
  5  6  1  0  0  0
  6  7  2  0  0  0
  6  8  1  0  0  0
  8  9  1  0  0  0
  9 11  1  0  0  0
 11 12  1  0  0  0
 12 13  2  0  0  0
 13 14  1  0  0  0
 14 15  2  0  0  0
 15 16  1  0  0  0
 16 17  2  0  0  0
 17 18  1  0  0  0
 18 19  2  0  0  0
 19 20  1  0  0  0
  9 10  1  0  0  0
  7  2  1  0  0  0
 20 12  1  0  0  0
 10  5  1  0  0  0
 19 14  1  0  0  0
M  END
> <minimizedAffinity>
-5.63672

> <minimizedRMSD>
0.60015

$$$$
P52621


 19 21  0  0  0  0  0  0  0  0999 V2000
   -2.6669    5.1874  -18.8769 O   0  0  0  0  0  0  0  0  0  0  0  0
   -3.7510    5.1746  -18.3158 C   0  0  0  0  0  0  0  0  0  0  0  0
   -4.9579    4.9164  -18.9413 N   0  0  0  0  0  0  0  0  0  0  0  0
   -5.9834    4.8315  -18.0221 C   0  0  0  0  0  0  0  0  0  0  0  0
   -7.2872    4.5016  -18.2870 C   0  0  0  0  0  0  0  0  0  0  0  0
   -8.1411    4.4420  -17.1938 C   0  0  0  0  0  0  0  0  0  0  0  0
   -9.9740    4.2529  -17.5166 Br  0  0  0  0  0  0  0  0  0  0  0  0
   -7.6893    4.6464  -15.8813 C   0  0  0  0  0  0  0  0  0  0  0  0
   -6.3535    4.9721  -15.6463 C   0  0  0  0  0  0  0  0  0  0  0  0
   -5.5094    5.0985  -16.7377 C   0  0  0  0  0  0  0  0  0  0  0  0
   -4.0344    5.4416  -16.8091 C   0  0  0  0  0  0  0  0  0  0  0  0
   -5.0700    4.8078  -19.9133 H   0  0  0  0  0  0  0  0  0  0  0  0
   -3.7205    6.9086  -16.4235 C   0  0  0  0  0  0  0  0  0  0  0  0
   -3.5138    7.1103  -14.9124 C   0  0  0  0  0  0  0  0  0  0  0  0
   -3.1178    8.5583  -14.5885 C   0  0  0  0  0  0  0  0  0  0  0  0
   -3.6859    9.5555  -15.4980 N   0  0  0  0  0  0  0  0  0  0  0  0
   -4.9774    9.1294  -16.0134 C   0  0  0  0  0  0  0  0  0  0  0  0
   -4.8248    7.8869  -16.8959 C   0  0  0  0  0  0  0  0  0  0  0  0
   -3.0458    9.6941  -16.2800 H   0  0  0  0  0  0  0  0  0  0  0  0
  1  2  2  0  0  0
  2  3  1  0  0  0
  3  4  1  0  0  0
  4  5  2  0  0  0
  5  6  1  0  0  0
  6  7  1  0  0  0
  6  8  2  0  0  0
  8  9  1  0  0  0
  9 10  2  0  0  0
 10 11  1  0  0  0
 11 13  1  0  0  0
 13 14  1  0  0  0
 14 15  1  0  0  0
 15 16  1  0  0  0
 16 17  1  0  0  0
 17 18  1  0  0  0
 11  2  1  0  0  0
 18 13  1  0  0  0
 10  4  1  0  0  0
  3 12  1  0  0  0
 16 19  1  0  0  0
M  END
> <minimizedAffinity>
-5.26585

> <minimizedRMSD>
1.51320

$$$$
P52622


 20 22  0  0  0  0  0  0  0  0999 V2000
   -2.6298    5.5562  -17.8304 O   0  0  0  0  0  0  0  0  0  0  0  0
   -3.7860    5.4074  -17.4691 C   0  0  0  0  0  0  0  0  0  0  0  0
   -4.8579    5.1093  -18.2968 N   0  0  0  0  0  0  0  0  0  0  0  0
   -6.0088    4.8935  -17.5602 C   0  0  0  0  0  0  0  0  0  0  0  0
   -7.2437    4.5533  -18.0472 C   0  0  0  0  0  0  0  0  0  0  0  0
   -8.2523    4.3974  -17.1034 C   0  0  0  0  0  0  0  0  0  0  0  0
  -10.0135    4.2302  -17.7150 Br  0  0  0  0  0  0  0  0  0  0  0  0
   -8.0146    4.5161  -15.7232 C   0  0  0  0  0  0  0  0  0  0  0  0
   -6.7474    4.8687  -15.2600 C   0  0  0  0  0  0  0  0  0  0  0  0
   -5.7532    5.0751  -16.2000 C   0  0  0  0  0  0  0  0  0  0  0  0
   -4.3375    5.5588  -16.0308 C   0  0  0  0  0  0  0  0  0  0  0  0
   -4.8067    5.0581  -19.2787 H   0  0  0  0  0  0  0  0  0  0  0  0
   -3.4848    4.8169  -14.9990 C   0  0  0  0  0  0  0  0  0  0  0  0
   -3.0463    5.7250  -13.8286 C   0  0  0  0  0  0  0  0  0  0  0  0
   -4.2064    6.0444  -12.8625 C   0  0  0  0  0  0  0  0  0  0  0  0
   -4.1788    5.1578  -11.6198 C   0  0  0  0  0  0  0  0  0  0  0  0
   -2.9470    5.2886  -10.8442 N   0  0  0  0  0  0  0  0  0  0  0  0
   -1.7668    5.6111  -11.6478 C   0  0  0  0  0  0  0  0  0  0  0  0
   -1.8648    5.0847  -13.0759 C   0  0  0  0  0  0  0  0  0  0  0  0
   -2.7758    4.4054  -10.3634 H   0  0  0  0  0  0  0  0  0  0  0  0
  1  2  2  0  0  0
  2  3  1  0  0  0
  3  4  1  0  0  0
  4  5  2  0  0  0
  5  6  1  0  0  0
  6  7  1  0  0  0
  6  8  2  0  0  0
  8  9  1  0  0  0
  9 10  2  0  0  0
 10 11  1  0  0  0
 11 13  1  0  0  0
 13 14  1  0  0  0
 14 15  1  0  0  0
 15 16  1  0  0  0
 16 17  1  0  0  0
 17 18  1  0  0  0
 18 19  1  0  0  0
 11  2  1  0  0  0
 19 14  1  0  0  0
 10  4  1  0  0  0
  3 12  1  0  0  0
 17 20  1  0  0  0
M  END
> <minimizedAffinity>
-5.20128

> <minimizedRMSD>
0.56310

$$$$
P52626


 20 22  0  0  0  0  0  0  0  0999 V2000
   -3.2897    5.3138  -18.1433 O   0  0  0  0  0  0  0  0  0  0  0  0
   -4.4360    5.2053  -17.7392 C   0  0  0  0  0  0  0  0  0  0  0  0
   -5.5395    4.9207  -18.5329 N   0  0  0  0  0  0  0  0  0  0  0  0
   -6.6756    4.7405  -17.7632 C   0  0  0  0  0  0  0  0  0  0  0  0
   -7.9309    4.4097  -18.2111 C   0  0  0  0  0  0  0  0  0  0  0  0
   -8.9152    4.2697  -17.2391 C   0  0  0  0  0  0  0  0  0  0  0  0
  -10.5478    4.1470  -17.7368 Cl  0  0  0  0  0  0  0  0  0  0  0  0
   -8.6262    4.3868  -15.8675 C   0  0  0  0  0  0  0  0  0  0  0  0
   -7.3429    4.7376  -15.4435 C   0  0  0  0  0  0  0  0  0  0  0  0
   -6.3779    4.9407  -16.4137 C   0  0  0  0  0  0  0  0  0  0  0  0
   -4.9534    5.4295  -16.2967 C   0  0  0  0  0  0  0  0  0  0  0  0
   -5.5166    4.8556  -19.5150 H   0  0  0  0  0  0  0  0  0  0  0  0
   -4.1311    4.7811  -15.1862 C   0  0  0  0  0  0  0  0  0  0  0  0
   -2.8000    5.4762  -14.8375 C   0  0  0  0  0  0  0  0  0  0  0  0
   -2.9496    6.9815  -14.5768 C   0  0  0  0  0  0  0  0  0  0  0  0
   -1.6315    7.6013  -14.1112 C   0  0  0  0  0  0  0  0  0  0  0  0
   -1.1080    6.9256  -12.9253 N   0  0  0  0  0  0  0  0  0  0  0  0
   -0.8792    5.5044  -13.1843 C   0  0  0  0  0  0  0  0  0  0  0  0
   -2.1695    4.8047  -13.6044 C   0  0  0  0  0  0  0  0  0  0  0  0
   -1.7802    7.0211  -12.1640 H   0  0  0  0  0  0  0  0  0  0  0  0
  1  2  2  0  0  0
  2  3  1  0  0  0
  3  4  1  0  0  0
  4  5  2  0  0  0
  5  6  1  0  0  0
  6  7  1  0  0  0
  6  8  2  0  0  0
  8  9  1  0  0  0
  9 10  2  0  0  0
 10 11  1  0  0  0
 11 13  1  0  0  0
 13 14  1  0  0  0
 14 15  1  0  0  0
 15 16  1  0  0  0
 16 17  1  0  0  0
 17 18  1  0  0  0
 18 19  1  0  0  0
 11  2  1  0  0  0
 19 14  1  0  0  0
 10  4  1  0  0  0
  3 12  1  0  0  0
 17 20  1  0  0  0
M  END
> <minimizedAffinity>
-5.58722

> <minimizedRMSD>
0.49668

$$$$
P52643


 25 27  0  0  0  0  0  0  0  0999 V2000
   -9.0738    7.3929  -13.0027 C   0  0  0  0  0  0  0  0  0  0  0  0
  -10.0334    7.3892  -13.6652 O   0  0  0  0  0  0  0  0  0  0  0  0
   -8.0736    6.2566  -12.6810 N   0  0  0  0  0  0  0  0  0  0  0  0
   -7.3775    6.4932  -12.0263 H   0  0  0  0  0  0  0  0  0  0  0  0
   -7.4604    9.4064  -13.0387 C   0  0  0  0  0  0  0  0  0  0  0  0
   -8.5956    8.6975  -12.2557 C   0  0  0  0  0  0  0  0  0  0  0  0
   -8.0503    8.2945  -10.8688 C   0  0  0  0  0  0  0  0  0  0  0  0
   -9.7739    9.7429  -12.0711 C   0  0  0  0  0  0  0  0  0  0  0  0
  -10.3457   10.2855  -13.3986 C   0  0  0  0  0  0  0  0  0  0  0  0
  -11.5516   11.1889  -13.1412 C   0  0  0  0  0  0  0  0  0  0  0  0
  -12.6562   10.5364  -12.4456 N   0  0  0  0  0  0  0  0  0  0  0  0
  -12.2910    9.2758  -11.8001 C   0  0  0  0  0  0  0  0  0  0  0  0
  -10.9199    9.3207  -11.1205 C   0  0  0  0  0  0  0  0  0  0  0  0
  -13.3950   10.3476  -13.1231 H   0  0  0  0  0  0  0  0  0  0  0  0
   -7.9957    4.9107  -13.1833 C   0  0  0  0  0  0  0  0  0  0  0  0
   -7.0351    4.9225  -14.3156 C   0  0  0  0  0  0  0  0  0  0  0  0
   -5.7283    5.1053  -14.2229 N   0  0  0  0  0  0  0  0  0  0  0  0
   -5.1938    5.0874  -15.4894 N   0  0  0  0  0  0  0  0  0  0  0  0
   -6.1780    4.8903  -16.3366 C   0  0  0  0  0  0  0  0  0  0  0  0
   -6.2182    4.7754  -17.7526 C   0  0  0  0  0  0  0  0  0  0  0  0
   -7.4036    4.6005  -18.3651 C   0  0  0  0  0  0  0  0  0  0  0  0
   -8.6382    4.5496  -17.6074 C   0  0  0  0  0  0  0  0  0  0  0  0
  -10.1192    4.5022  -18.4428 Cl  0  0  0  0  0  0  0  0  0  0  0  0
   -8.6040    4.6195  -16.2698 C   0  0  0  0  0  0  0  0  0  0  0  0
   -7.3774    4.7835  -15.6424 N   0  0  0  0  0  0  0  0  0  0  0  0
  5  6  1  0  0  0
  6  7  1  0  0  0
  6  1  1  0  0  0
  1  2  2  0  0  0
  1  3  1  0  0  0
  3 15  1  0  0  0
 15 16  1  0  0  0
 16 17  2  0  0  0
 17 18  1  0  0  0
 18 19  2  0  0  0
 19 20  1  0  0  0
 20 21  2  0  0  0
 21 22  1  0  0  0
 22 23  1  0  0  0
 22 24  2  0  0  0
 24 25  1  0  0  0
  6  8  1  0  0  0
  8  9  1  0  0  0
  9 10  1  0  0  0
 10 11  1  0  0  0
 11 12  1  0  0  0
 12 13  1  0  0  0
 25 16  1  0  0  0
 13  8  1  0  0  0
 25 19  1  0  0  0
  3  4  1  0  0  0
 11 14  1  0  0  0
M  END
> <minimizedAffinity>
-6.29335

> <minimizedRMSD>
1.36217

$$$$
P52741


 21 23  0  0  0  0  0  0  0  0999 V2000
   -9.6727   12.9667   -9.8092 C   0  0  0  0  0  0  0  0  0  0  0  0
  -10.8915   13.8596  -10.1809 C   0  0  0  0  0  0  0  0  0  0  0  0
  -12.1510   13.4012   -9.5579 N   0  0  0  0  0  0  0  0  0  0  0  0
  -12.3565   12.1375   -9.0634 C   0  0  0  0  0  0  0  0  0  0  0  0
  -13.5983   11.9446   -8.7036 N   0  0  0  0  0  0  0  0  0  0  0  0
  -14.2498   13.1054   -8.9875 C   0  0  0  0  0  0  0  0  0  0  0  0
  -15.6054   13.4164   -8.8165 C   0  0  0  0  0  0  0  0  0  0  0  0
  -16.0643   14.6877   -9.1701 C   0  0  0  0  0  0  0  0  0  0  0  0
  -15.1797   15.6361   -9.6780 C   0  0  0  0  0  0  0  0  0  0  0  0
  -13.8213   15.3383   -9.8592 C   0  0  0  0  0  0  0  0  0  0  0  0
  -13.3755   14.0546   -9.5116 C   0  0  0  0  0  0  0  0  0  0  0  0
  -10.4786   15.2698   -9.6797 C   0  0  0  0  0  0  0  0  0  0  0  0
  -10.6378   15.6214   -8.3214 C   0  0  0  0  0  0  0  0  0  0  0  0
  -10.2249   16.8661   -7.8412 C   0  0  0  0  0  0  0  0  0  0  0  0
   -9.6226   17.7796   -8.6996 C   0  0  0  0  0  0  0  0  0  0  0  0
   -9.4261   17.4459  -10.0359 C   0  0  0  0  0  0  0  0  0  0  0  0
   -9.8420   16.2023  -10.5204 C   0  0  0  0  0  0  0  0  0  0  0  0
  -11.1406   13.7720  -11.7056 C   0  0  0  0  0  0  0  0  0  0  0  0
  -11.6314   14.6261  -12.4294 O   0  0  0  0  0  0  0  0  0  0  0  0
  -10.8341   12.5734  -12.2527 O   0  0  0  0  0  0  0  0  0  0  0  0
  -10.4567   11.8992  -11.7227 H   0  0  0  0  0  0  0  0  0  0  0  0
  2  1  1  0  0  0
  2 18  1  0  0  0
 18 19  2  0  0  0
 18 20  1  0  0  0
  2 12  1  0  0  0
 12 13  2  0  0  0
 13 14  1  0  0  0
 14 15  2  0  0  0
 15 16  1  0  0  0
 16 17  2  0  0  0
  2  3  1  0  0  0
  3  4  1  0  0  0
  4  5  2  0  0  0
  5  6  1  0  0  0
  6  7  2  0  0  0
  7  8  1  0  0  0
  8  9  2  0  0  0
  9 10  1  0  0  0
 10 11  2  0  0  0
 17 12  1  0  0  0
 11  3  1  0  0  0
 11  6  1  0  0  0
 20 21  1  0  0  0
M  END
> <minimizedAffinity>
-3.87690

> <minimizedRMSD>
0.48966

$$$$
P53144


 15 17  0  0  0  0  0  0  0  0999 V2000
   -8.4408    4.5013  -18.3625 C   0  0  0  0  0  0  0  0  0  0  0  0
   -9.2067    4.2773  -17.2302 C   0  0  0  0  0  0  0  0  0  0  0  0
   -8.6053    4.3083  -15.9708 C   0  0  0  0  0  0  0  0  0  0  0  0
   -7.2222    4.5631  -15.8160 C   0  0  0  0  0  0  0  0  0  0  0  0
   -6.5400    4.5773  -14.5657 C   0  0  0  0  0  0  0  0  0  0  0  0
   -5.1740    4.8757  -14.5508 C   0  0  0  0  0  0  0  0  0  0  0  0
   -4.5365    5.1351  -15.7472 C   0  0  0  0  0  0  0  0  0  0  0  0
   -5.1488    5.1132  -16.9454 N   0  0  0  0  0  0  0  0  0  0  0  0
   -6.4603    4.8240  -16.9825 C   0  0  0  0  0  0  0  0  0  0  0  0
   -7.0818    4.7804  -18.2251 C   0  0  0  0  0  0  0  0  0  0  0  0
   -7.1791    4.1983  -13.2923 C   0  0  0  0  0  0  0  0  0  0  0  0
   -7.1616    2.9931  -12.6157 C   0  0  0  0  0  0  0  0  0  0  0  0
   -7.8638    3.0845  -11.3804 C   0  0  0  0  0  0  0  0  0  0  0  0
   -8.3934    4.2670  -11.0832 N   0  0  0  0  0  0  0  0  0  0  0  0
   -8.0735    5.3088  -12.3323 S   0  0  0  0  0  0  0  0  0  0  0  0
  1  2  2  0  0  0
  2  3  1  0  0  0
  3  4  2  0  0  0
  4  5  1  0  0  0
  5 11  1  0  0  0
 11 12  2  0  0  0
 12 13  1  0  0  0
 13 14  2  0  0  0
 14 15  1  0  0  0
  5  6  2  0  0  0
  6  7  1  0  0  0
  7  8  2  0  0  0
  8  9  1  0  0  0
  9 10  2  0  0  0
 10  1  1  0  0  0
  9  4  1  0  0  0
 15 11  1  0  0  0
M  END
> <minimizedAffinity>
-5.90731

> <minimizedRMSD>
0.62932

$$$$
P53155


 17 19  0  0  0  0  0  0  0  0999 V2000
   -6.9615    5.0111  -17.8339 C   0  0  0  0  0  0  0  0  0  0  0  0
   -8.2111    4.6492  -18.3476 C   0  0  0  0  0  0  0  0  0  0  0  0
   -9.1917    4.2252  -17.4674 C   0  0  0  0  0  0  0  0  0  0  0  0
   -8.9012    4.1486  -16.1056 C   0  0  0  0  0  0  0  0  0  0  0  0
   -7.6257    4.4804  -15.6137 C   0  0  0  0  0  0  0  0  0  0  0  0
   -7.3201    4.3834  -14.2504 C   0  0  0  0  0  0  0  0  0  0  0  0
   -6.0532    4.7274  -13.7948 C   0  0  0  0  0  0  0  0  0  0  0  0
   -5.1274    5.1618  -14.7198 C   0  0  0  0  0  0  0  0  0  0  0  0
   -5.3870    5.2712  -16.0369 N   0  0  0  0  0  0  0  0  0  0  0  0
   -6.6201    4.9283  -16.4867 C   0  0  0  0  0  0  0  0  0  0  0  0
   -5.2974    8.6790  -20.6713 S   0  0  0  0  0  0  0  0  0  0  0  0
   -5.3202    7.2215  -19.9110 C   0  0  0  0  0  0  0  0  0  0  0  0
   -4.5420    6.1223  -20.0868 N   0  0  0  0  0  0  0  0  0  0  0  0
   -5.0243    5.0658  -19.3694 N   0  0  0  0  0  0  0  0  0  0  0  0
   -6.0053    5.6079  -18.7274 C   0  0  0  0  0  0  0  0  0  0  0  0
   -6.2433    6.9225  -18.9722 O   0  0  0  0  0  0  0  0  0  0  0  0
   -3.7385    6.0916  -20.6549 H   0  0  0  0  0  0  0  0  0  0  0  0
 11 12  2  0  0  0
 12 13  1  0  0  0
 13 14  1  0  0  0
 14 15  2  0  0  0
 15  1  1  0  0  0
  1  2  2  0  0  0
  2  3  1  0  0  0
  3  4  2  0  0  0
  4  5  1  0  0  0
  5  6  2  0  0  0
  6  7  1  0  0  0
  7  8  2  0  0  0
  8  9  1  0  0  0
  9 10  2  0  0  0
 15 16  1  0  0  0
 16 12  1  0  0  0
 10  1  1  0  0  0
 10  5  1  0  0  0
 13 17  1  0  0  0
M  END
> <minimizedAffinity>
-6.02333

> <minimizedRMSD>
0.59587

$$$$
P53156


 17 19  0  0  0  0  0  0  0  0999 V2000
   -6.5675    4.8891  -14.6766 C   0  0  0  0  0  0  0  0  0  0  0  0
   -5.2072    5.1849  -14.6257 C   0  0  0  0  0  0  0  0  0  0  0  0
   -4.5376    5.2789  -15.8235 C   0  0  0  0  0  0  0  0  0  0  0  0
   -5.1257    5.1050  -17.0240 N   0  0  0  0  0  0  0  0  0  0  0  0
   -6.4422    4.8139  -17.0660 C   0  0  0  0  0  0  0  0  0  0  0  0
   -7.0491    4.6173  -18.2988 C   0  0  0  0  0  0  0  0  0  0  0  0
   -8.4102    4.3255  -18.4134 C   0  0  0  0  0  0  0  0  0  0  0  0
   -9.1960    4.2347  -17.2758 C   0  0  0  0  0  0  0  0  0  0  0  0
   -8.6118    4.4143  -16.0256 C   0  0  0  0  0  0  0  0  0  0  0  0
   -7.2329    4.7032  -15.9039 C   0  0  0  0  0  0  0  0  0  0  0  0
   -8.3191    3.2737   -9.7784 S   0  0  0  0  0  0  0  0  0  0  0  0
   -8.0166    3.9335  -11.2582 C   0  0  0  0  0  0  0  0  0  0  0  0
   -8.3784    5.2048  -11.6105 N   0  0  0  0  0  0  0  0  0  0  0  0
   -7.9344    5.6834  -12.8054 N   0  0  0  0  0  0  0  0  0  0  0  0
   -7.2603    4.7449  -13.3979 C   0  0  0  0  0  0  0  0  0  0  0  0
   -7.1170    3.2243  -12.5636 S   0  0  0  0  0  0  0  0  0  0  0  0
   -8.9413    5.7555  -11.0196 H   0  0  0  0  0  0  0  0  0  0  0  0
 11 12  2  0  0  0
 12 13  1  0  0  0
 13 14  1  0  0  0
 14 15  2  0  0  0
 15  1  1  0  0  0
  1  2  2  0  0  0
  2  3  1  0  0  0
  3  4  2  0  0  0
  4  5  1  0  0  0
  5  6  2  0  0  0
  6  7  1  0  0  0
  7  8  2  0  0  0
  8  9  1  0  0  0
  9 10  2  0  0  0
 15 16  1  0  0  0
 16 12  1  0  0  0
 10  1  1  0  0  0
 10  5  1  0  0  0
 13 17  1  0  0  0
M  END
> <minimizedAffinity>
-6.10753

> <minimizedRMSD>
0.28119

$$$$
P53186


 23 26  0  0  0  0  0  0  0  0999 V2000
   -6.7880    6.9670  -10.4262 O   0  0  0  0  0  0  0  0  0  0  0  0
   -7.3266    6.1070  -11.4316 C   0  0  0  0  0  0  0  0  0  0  0  0
   -8.3505    6.8683  -12.2689 C   0  0  0  0  0  0  0  0  0  0  0  0
   -8.3842    6.1189  -13.6009 C   0  0  0  0  0  0  0  0  0  0  0  0
   -7.0847    5.4375  -13.7006 N   0  0  0  0  0  0  0  0  0  0  0  0
   -6.2836    5.7086  -12.4961 C   0  0  0  0  0  0  0  0  0  0  0  0
   -7.4808    7.1871   -9.7839 H   0  0  0  0  0  0  0  0  0  0  0  0
   -6.5085    5.2415  -14.9529 C   0  0  0  0  0  0  0  0  0  0  0  0
   -5.1358    5.4438  -15.1316 C   0  0  0  0  0  0  0  0  0  0  0  0
   -4.5939    5.3850  -16.3982 C   0  0  0  0  0  0  0  0  0  0  0  0
   -5.3071    5.1367  -17.5053 N   0  0  0  0  0  0  0  0  0  0  0  0
   -6.6101    4.8522  -17.3581 C   0  0  0  0  0  0  0  0  0  0  0  0
   -7.3318    4.5424  -18.5019 C   0  0  0  0  0  0  0  0  0  0  0  0
   -8.6778    4.1820  -18.4540 C   0  0  0  0  0  0  0  0  0  0  0  0
   -9.3193    4.1027  -17.2314 C   0  0  0  0  0  0  0  0  0  0  0  0
   -8.6153    4.4159  -16.0691 C   0  0  0  0  0  0  0  0  0  0  0  0
   -7.2642    4.8488  -16.1014 C   0  0  0  0  0  0  0  0  0  0  0  0
   -7.8991    4.9278  -10.7298 C   0  0  0  0  0  0  0  0  0  0  0  0
   -8.2174    3.6512  -11.1479 C   0  0  0  0  0  0  0  0  0  0  0  0
   -8.6724    2.9996   -9.9907 C   0  0  0  0  0  0  0  0  0  0  0  0
   -8.6574    3.7926   -8.9180 N   0  0  0  0  0  0  0  0  0  0  0  0
   -8.1652    4.9445   -9.3894 N   0  0  0  0  0  0  0  0  0  0  0  0
   -8.0089    5.7332   -8.8214 H   0  0  0  0  0  0  0  0  0  0  0  0
  2  1  1  0  0  0
  2 18  1  0  0  0
 18 19  2  0  0  0
 19 20  1  0  0  0
 20 21  2  0  0  0
 21 22  1  0  0  0
  2  3  1  0  0  0
  3  4  1  0  0  0
  4  5  1  0  0  0
  5  8  1  0  0  0
  8  9  2  0  0  0
  9 10  1  0  0  0
 10 11  2  0  0  0
 11 12  1  0  0  0
 12 13  2  0  0  0
 13 14  1  0  0  0
 14 15  2  0  0  0
 15 16  1  0  0  0
 16 17  2  0  0  0
  5  6  1  0  0  0
  6  2  1  0  0  0
 22 18  1  0  0  0
 17  8  1  0  0  0
 17 12  1  0  0  0
  1  7  1  0  0  0
 22 23  1  0  0  0
M  END
> <minimizedAffinity>
-6.56813

> <minimizedRMSD>
0.48631

$$$$
P53189


 22 25  0  0  0  0  0  0  0  0999 V2000
   -9.5738    4.2684  -18.0530 Br  0  0  0  0  0  0  0  0  0  0  0  0
   -7.8165    4.5827  -17.5059 C   0  0  0  0  0  0  0  0  0  0  0  0
   -6.8413    4.6569  -18.4764 C   0  0  0  0  0  0  0  0  0  0  0  0
   -5.5427    4.9608  -18.1039 C   0  0  0  0  0  0  0  0  0  0  0  0
   -5.2020    5.1881  -16.7831 C   0  0  0  0  0  0  0  0  0  0  0  0
   -3.9067    5.4143  -16.5500 N   0  0  0  0  0  0  0  0  0  0  0  0
   -3.5299    5.5782  -15.2777 C   0  0  0  0  0  0  0  0  0  0  0  0
   -4.4073    5.5937  -14.2141 C   0  0  0  0  0  0  0  0  0  0  0  0
   -5.7857    5.4461  -14.4269 C   0  0  0  0  0  0  0  0  0  0  0  0
   -6.1964    5.1541  -15.7662 C   0  0  0  0  0  0  0  0  0  0  0  0
   -7.5083    4.7985  -16.1656 C   0  0  0  0  0  0  0  0  0  0  0  0
   -6.6622    5.5782  -13.3499 N   0  0  0  0  0  0  0  0  0  0  0  0
   -8.0372    6.0616  -13.5403 C   0  0  0  0  0  0  0  0  0  0  0  0
   -8.3805    6.8258  -12.2589 C   0  0  0  0  0  0  0  0  0  0  0  0
   -7.4531    6.2336  -11.2050 C   0  0  0  0  0  0  0  0  0  0  0  0
   -6.1796    5.9875  -12.0190 C   0  0  0  0  0  0  0  0  0  0  0  0
   -7.9804    4.9806  -10.5895 C   0  0  0  0  0  0  0  0  0  0  0  0
   -8.2686    3.7343  -11.1064 C   0  0  0  0  0  0  0  0  0  0  0  0
   -8.6747    2.9749   -9.9989 C   0  0  0  0  0  0  0  0  0  0  0  0
   -8.6427    3.6719   -8.8620 N   0  0  0  0  0  0  0  0  0  0  0  0
   -8.2215    4.8805   -9.2468 N   0  0  0  0  0  0  0  0  0  0  0  0
   -8.0963    5.6301   -8.6210 H   0  0  0  0  0  0  0  0  0  0  0  0
  1  2  1  0  0  0
  2  3  2  0  0  0
  3  4  1  0  0  0
  4  5  2  0  0  0
  5  6  1  0  0  0
  6  7  2  0  0  0
  7  8  1  0  0  0
  8  9  2  0  0  0
  9 12  1  0  0  0
 12 13  1  0  0  0
 13 14  1  0  0  0
 14 15  1  0  0  0
 15 17  1  0  0  0
 17 18  2  0  0  0
 18 19  1  0  0  0
 19 20  2  0  0  0
 20 21  1  0  0  0
 15 16  1  0  0  0
  9 10  1  0  0  0
 10 11  2  0  0  0
 11  2  1  0  0  0
 10  5  1  0  0  0
 16 12  1  0  0  0
 21 17  1  0  0  0
 21 22  1  0  0  0
M  END
> <minimizedAffinity>
-6.18734

> <minimizedRMSD>
0.43827

$$$$
P53347


 14 14  0  0  0  0  0  0  0  0999 V2000
   -5.2206    5.5257  -18.9441 C   0  0  0  0  0  0  0  0  0  0  0  0
   -4.6841    5.4278  -20.4064 C   0  0  0  0  0  0  0  0  0  0  0  0
   -4.7326    6.7526  -21.1657 C   0  0  0  0  0  0  0  0  0  0  0  0
   -5.3783    4.3413  -21.2272 C   0  0  0  0  0  0  0  0  0  0  0  0
   -6.6425    5.8779  -18.9248 N   0  0  0  0  0  0  0  0  0  0  0  0
   -7.0040    6.5561  -19.5401 H   0  0  0  0  0  0  0  0  0  0  0  0
   -7.4473    5.2438  -18.0355 C   0  0  0  0  0  0  0  0  0  0  0  0
   -7.2533    5.1909  -16.7367 N   0  0  0  0  0  0  0  0  0  0  0  0
   -8.2995    4.5310  -16.1272 C   0  0  0  0  0  0  0  0  0  0  0  0
   -9.2941    4.1014  -16.9732 C   0  0  0  0  0  0  0  0  0  0  0  0
   -8.8769    4.4572  -18.5862 S   0  0  0  0  0  0  0  0  0  0  0  0
   -4.3884    6.5129  -18.0853 C   0  0  0  0  0  0  0  0  0  0  0  0
   -2.5542    5.4739  -17.0168 C   0  0  0  0  0  0  0  0  0  0  0  0
   -2.9853    6.2532  -18.1171 O   0  0  0  0  0  0  0  0  0  0  0  0
 13 14  1  0  0  0
 14 12  1  0  0  0
  1 12  1  0  0  0
  1  5  1  0  0  0
  5  7  1  0  0  0
  7  8  2  0  0  0
  8  9  1  0  0  0
  9 10  2  0  0  0
 10 11  1  0  0  0
  1  2  1  0  0  0
  2  3  1  0  0  0
  2  4  1  0  0  0
 11  7  1  0  0  0
  5  6  1  0  0  0
M  END
> <minimizedAffinity>
-3.37012

> <minimizedRMSD>
0.58057

$$$$
P53355


 13 13  0  0  0  0  0  0  0  0999 V2000
   -5.0117    5.4926  -19.2232 C   0  0  0  0  0  0  0  0  0  0  0  0
   -4.5323    6.3211  -18.5537 O   0  0  0  0  0  0  0  0  0  0  0  0
   -6.2548    4.5983  -18.9797 N   0  0  0  0  0  0  0  0  0  0  0  0
   -6.4125    3.9145  -19.6701 H   0  0  0  0  0  0  0  0  0  0  0  0
   -7.1524    4.6053  -17.9786 C   0  0  0  0  0  0  0  0  0  0  0  0
   -6.9184    4.6834  -16.6940 N   0  0  0  0  0  0  0  0  0  0  0  0
   -8.1211    4.5761  -16.0254 C   0  0  0  0  0  0  0  0  0  0  0  0
   -9.2383    4.4978  -16.8310 C   0  0  0  0  0  0  0  0  0  0  0  0
   -8.7708    4.4713  -18.4724 S   0  0  0  0  0  0  0  0  0  0  0  0
   -4.4000    5.0098  -20.5524 C   0  0  0  0  0  0  0  0  0  0  0  0
   -2.1580    5.9002  -21.2100 C   0  0  0  0  0  0  0  0  0  0  0  0
   -2.8885    5.0134  -20.5138 C   0  0  0  0  0  0  0  0  0  0  0  0
   -2.2379    3.9647  -19.6487 C   0  0  0  0  0  0  0  0  0  0  0  0
 11 12  2  0  0  0
 12 13  1  0  0  0
 12 10  1  0  0  0
 10  1  1  0  0  0
  1  2  2  0  0  0
  1  3  1  0  0  0
  3  5  1  0  0  0
  5  6  2  0  0  0
  6  7  1  0  0  0
  7  8  2  0  0  0
  8  9  1  0  0  0
  9  5  1  0  0  0
  3  4  1  0  0  0
M  END
> <minimizedAffinity>
-3.98018

> <minimizedRMSD>
0.74842

$$$$
P53369


 12 13  0  0  0  0  0  0  0  0999 V2000
   -3.2237    4.6398  -19.8304 C   0  0  0  0  0  0  0  0  0  0  0  0
   -3.9994    4.8691  -18.7661 C   0  0  0  0  0  0  0  0  0  0  0  0
   -5.4066    5.1433  -19.1996 C   0  0  0  0  0  0  0  0  0  0  0  0
   -5.4177    4.6429  -20.5918 N   0  0  0  0  0  0  0  0  0  0  0  0
   -4.0362    4.6980  -21.0722 C   0  0  0  0  0  0  0  0  0  0  0  0
   -6.0150    5.2321  -21.1719 H   0  0  0  0  0  0  0  0  0  0  0  0
   -6.5161    4.6127  -18.3264 C   0  0  0  0  0  0  0  0  0  0  0  0
   -6.5820    4.9219  -16.9594 C   0  0  0  0  0  0  0  0  0  0  0  0
   -7.6963    4.5581  -16.2103 C   0  0  0  0  0  0  0  0  0  0  0  0
   -8.7343    3.9158  -16.8588 C   0  0  0  0  0  0  0  0  0  0  0  0
   -8.7203    3.5863  -18.1631 N   0  0  0  0  0  0  0  0  0  0  0  0
   -7.6109    3.9288  -18.8582 C   0  0  0  0  0  0  0  0  0  0  0  0
  1  2  2  0  0  0
  2  3  1  0  0  0
  3  7  1  0  0  0
  7  8  2  0  0  0
  8  9  1  0  0  0
  9 10  2  0  0  0
 10 11  1  0  0  0
 11 12  2  0  0  0
  3  4  1  0  0  0
  4  5  1  0  0  0
  5  1  1  0  0  0
 12  7  1  0  0  0
  4  6  1  0  0  0
M  END
> <minimizedAffinity>
-5.29377

> <minimizedRMSD>
0.41253

$$$$
P53375


 12 13  0  0  0  0  0  0  0  0999 V2000
   -3.3517    4.4334  -20.6713 C   0  0  0  0  0  0  0  0  0  0  0  0
   -3.9026    4.7282  -19.4875 C   0  0  0  0  0  0  0  0  0  0  0  0
   -5.3657    5.0151  -19.6616 C   0  0  0  0  0  0  0  0  0  0  0  0
   -5.6391    4.3944  -20.9800 N   0  0  0  0  0  0  0  0  0  0  0  0
   -4.3945    4.4507  -21.7338 C   0  0  0  0  0  0  0  0  0  0  0  0
   -6.3696    4.9125  -21.4680 H   0  0  0  0  0  0  0  0  0  0  0  0
   -6.3437    4.6066  -18.5681 C   0  0  0  0  0  0  0  0  0  0  0  0
   -6.1807    5.0239  -17.2470 C   0  0  0  0  0  0  0  0  0  0  0  0
   -7.1882    4.7653  -16.3220 C   0  0  0  0  0  0  0  0  0  0  0  0
   -8.3353    4.1048  -16.7337 C   0  0  0  0  0  0  0  0  0  0  0  0
   -8.4295    3.7072  -18.0510 C   0  0  0  0  0  0  0  0  0  0  0  0
   -7.4827    3.9753  -18.9698 N   0  0  0  0  0  0  0  0  0  0  0  0
  1  2  2  0  0  0
  2  3  1  0  0  0
  3  7  1  0  0  0
  7  8  2  0  0  0
  8  9  1  0  0  0
  9 10  2  0  0  0
 10 11  1  0  0  0
 11 12  2  0  0  0
  3  4  1  0  0  0
  4  5  1  0  0  0
  5  1  1  0  0  0
 12  7  1  0  0  0
  4  6  1  0  0  0
M  END
> <minimizedAffinity>
-5.34944

> <minimizedRMSD>
0.94801

$$$$
P53436


 25 28  0  0  0  0  0  0  0  0999 V2000
   -8.5168    4.6003  -13.0593 N   0  0  0  0  0  0  0  0  0  0  0  0
   -9.2416    3.9325  -12.7961 H   0  0  0  0  0  0  0  0  0  0  0  0
   -7.4154    3.8699  -13.6848 C   0  0  0  0  0  0  0  0  0  0  0  0
   -4.4313    5.7743  -20.2005 C   0  0  0  0  0  0  0  0  0  0  0  0
   -5.2271    5.2857  -19.0383 C   0  0  0  0  0  0  0  0  0  0  0  0
   -4.7819    5.0224  -17.8253 N   0  0  0  0  0  0  0  0  0  0  0  0
   -5.9000    4.7218  -17.0781 C   0  0  0  0  0  0  0  0  0  0  0  0
   -6.0122    4.4246  -15.7115 C   0  0  0  0  0  0  0  0  0  0  0  0
   -7.2881    4.2170  -15.1526 C   0  0  0  0  0  0  0  0  0  0  0  0
   -8.4217    4.2896  -15.9811 C   0  0  0  0  0  0  0  0  0  0  0  0
   -8.3294    4.5564  -17.3519 C   0  0  0  0  0  0  0  0  0  0  0  0
   -7.0475    4.7725  -17.8560 C   0  0  0  0  0  0  0  0  0  0  0  0
   -6.5881    5.0896  -19.1070 N   0  0  0  0  0  0  0  0  0  0  0  0
   -7.1390    5.1648  -19.9194 H   0  0  0  0  0  0  0  0  0  0  0  0
   -8.1079    5.3381  -11.8661 C   0  0  0  0  0  0  0  0  0  0  0  0
   -8.2392    4.6214  -10.5627 C   0  0  0  0  0  0  0  0  0  0  0  0
   -8.1441    5.1798   -9.2977 C   0  0  0  0  0  0  0  0  0  0  0  0
   -8.4440    4.2437   -8.2645 C   0  0  0  0  0  0  0  0  0  0  0  0
   -8.7176    3.0053   -8.7982 C   0  0  0  0  0  0  0  0  0  0  0  0
   -8.5842    2.9504  -10.4783 S   0  0  0  0  0  0  0  0  0  0  0  0
   -9.1415    1.8288   -7.9932 C   0  0  0  0  0  0  0  0  0  0  0  0
   -9.1935    2.1787   -6.4965 C   0  0  0  0  0  0  0  0  0  0  0  0
   -9.5036    3.5922   -6.1884 N   0  0  0  0  0  0  0  0  0  0  0  0
   -8.5028    4.4845   -6.7917 C   0  0  0  0  0  0  0  0  0  0  0  0
   -9.5028    3.7228   -5.1768 H   0  0  0  0  0  0  0  0  0  0  0  0
  4  5  1  0  0  0
  5  6  2  0  0  0
  6  7  1  0  0  0
  7  8  2  0  0  0
  8  9  1  0  0  0
  9  3  1  0  0  0
  3  1  1  0  0  0
  1 15  1  0  0  0
 15 16  1  0  0  0
 16 17  2  0  0  0
 17 18  1  0  0  0
 18 19  2  0  0  0
 19 20  1  0  0  0
 19 21  1  0  0  0
 21 22  1  0  0  0
 22 23  1  0  0  0
 23 24  1  0  0  0
  9 10  2  0  0  0
 10 11  1  0  0  0
 11 12  2  0  0  0
 12 13  1  0  0  0
 13  5  1  0  0  0
 12  7  1  0  0  0
 20 16  1  0  0  0
 24 18  1  0  0  0
  1  2  1  0  0  0
 23 25  1  0  0  0
 13 14  1  0  0  0
M  END
> <minimizedAffinity>
-7.04904

> <minimizedRMSD>
0.39458

$$$$
P53566


 11 12  0  0  0  0  0  0  0  0999 V2000
   -7.2354    5.6392  -12.6117 C   0  0  0  0  0  0  0  0  0  0  0  0
   -8.1830    4.6789  -12.3498 C   0  0  0  0  0  0  0  0  0  0  0  0
   -8.5974    4.2405  -13.5786 N   0  0  0  0  0  0  0  0  0  0  0  0
   -7.8950    4.9435  -14.5238 C   0  0  0  0  0  0  0  0  0  0  0  0
   -7.0507    5.7903  -13.9636 N   0  0  0  0  0  0  0  0  0  0  0  0
   -9.2752    3.5479  -13.7520 H   0  0  0  0  0  0  0  0  0  0  0  0
   -8.0847    4.7331  -16.0617 C   0  0  0  0  0  0  0  0  0  0  0  0
   -7.0187    4.8397  -17.0051 C   0  0  0  0  0  0  0  0  0  0  0  0
   -7.4745    4.5723  -18.2783 C   0  0  0  0  0  0  0  0  0  0  0  0
   -9.1523    4.2561  -18.1980 S   0  0  0  0  0  0  0  0  0  0  0  0
   -9.2862    4.4481  -16.5593 N   0  0  0  0  0  0  0  0  0  0  0  0
  1  2  2  0  0  0
  2  3  1  0  0  0
  3  4  1  0  0  0
  4  7  1  0  0  0
  7  8  1  0  0  0
  8  9  2  0  0  0
  9 10  1  0  0  0
 10 11  1  0  0  0
  4  5  2  0  0  0
  5  1  1  0  0  0
 11  7  2  0  0  0
  3  6  1  0  0  0
M  END
> <minimizedAffinity>
-4.40827

> <minimizedRMSD>
1.02512

$$$$
P53689


 14 15  0  0  0  0  0  0  0  0999 V2000
   -7.4486    5.0249  -15.6382 C   0  0  0  0  0  0  0  0  0  0  0  0
   -8.6001    4.6998  -16.6073 C   0  0  0  0  0  0  0  0  0  0  0  0
   -8.0191    4.7612  -18.0076 C   0  0  0  0  0  0  0  0  0  0  0  0
   -6.5263    4.6307  -17.8185 C   0  0  0  0  0  0  0  0  0  0  0  0
   -6.2104    5.1175  -16.4685 N   0  0  0  0  0  0  0  0  0  0  0  0
   -5.7870    6.5187  -16.4931 C   0  0  0  0  0  0  0  0  0  0  0  0
   -6.2058    7.0354  -15.1365 C   0  0  0  0  0  0  0  0  0  0  0  0
   -7.5744    6.4066  -14.9666 C   0  0  0  0  0  0  0  0  0  0  0  0
   -7.3820    3.9696  -14.5098 C   0  0  0  0  0  0  0  0  0  0  0  0
   -4.1311    2.2024  -13.4271 C   0  0  0  0  0  0  0  0  0  0  0  0
   -5.6389    2.2705  -13.3308 C   0  0  0  0  0  0  0  0  0  0  0  0
   -6.2736    1.5242  -12.7022 O   0  0  0  0  0  0  0  0  0  0  0  0
   -6.0729    3.4828  -14.1812 N   0  0  0  0  0  0  0  0  0  0  0  0
   -5.3309    4.0076  -14.5599 H   0  0  0  0  0  0  0  0  0  0  0  0
 10 11  1  0  0  0
 11 12  2  0  0  0
 11 13  1  0  0  0
 13  9  1  0  0  0
  9  1  1  0  0  0
  1  2  1  0  0  0
  2  3  1  0  0  0
  3  4  1  0  0  0
  4  5  1  0  0  0
  5  6  1  0  0  0
  6  7  1  0  0  0
  7  8  1  0  0  0
  5  1  1  0  0  0
  8  1  1  0  0  0
 13 14  1  0  0  0
M  END
> <minimizedAffinity>
-4.33459

> <minimizedRMSD>
0.34046

$$$$
P53709


 14 15  0  0  0  0  0  0  0  0999 V2000
   -6.2020    5.2319  -18.5467 C   0  0  0  0  0  0  0  0  0  0  0  0
   -6.2056    6.7630  -18.7355 C   0  0  0  0  0  0  0  0  0  0  0  0
   -4.8578    7.4645  -18.7852 C   0  0  0  0  0  0  0  0  0  0  0  0
   -3.9241    6.9847  -19.8908 C   0  0  0  0  0  0  0  0  0  0  0  0
   -3.6741    5.5490  -19.9841 N   0  0  0  0  0  0  0  0  0  0  0  0
   -3.6044    4.8798  -18.6895 C   0  0  0  0  0  0  0  0  0  0  0  0
   -4.9066    4.7286  -17.8893 C   0  0  0  0  0  0  0  0  0  0  0  0
   -2.7873    5.4075  -20.4678 H   0  0  0  0  0  0  0  0  0  0  0  0
   -8.5454    4.5054  -15.9469 C   0  0  0  0  0  0  0  0  0  0  0  0
   -7.3571    4.8834  -16.3541 N   0  0  0  0  0  0  0  0  0  0  0  0
   -7.4044    4.8311  -17.7307 C   0  0  0  0  0  0  0  0  0  0  0  0
   -8.6646    4.4528  -18.1448 C   0  0  0  0  0  0  0  0  0  0  0  0
   -9.3900    4.2935  -16.9981 N   0  0  0  0  0  0  0  0  0  0  0  0
  -10.3464    4.0674  -16.9405 H   0  0  0  0  0  0  0  0  0  0  0  0
  9 10  2  0  0  0
 10 11  1  0  0  0
  1 11  1  0  0  0
  1  2  1  0  0  0
  2  3  1  0  0  0
  3  4  1  0  0  0
  4  5  1  0  0  0
  5  6  1  0  0  0
  6  7  1  0  0  0
 11 12  2  0  0  0
 12 13  1  0  0  0
 13  9  1  0  0  0
  7  1  1  0  0  0
  5  8  1  0  0  0
 13 14  1  0  0  0
M  END
> <minimizedAffinity>
-4.84097

> <minimizedRMSD>
0.34983

$$$$
P53748


 27 31  0  0  0  0  0  0  0  0999 V2000
   -4.8869    7.5807  -22.3268 N   0  0  0  0  0  0  0  0  0  0  0  0
   -4.4938    7.1931  -23.7030 C   0  0  0  0  0  0  0  0  0  0  0  0
   -4.2765    8.3825  -24.6691 C   0  0  0  0  0  0  0  0  0  0  0  0
   -5.4661    9.2649  -24.6916 N   0  0  0  0  0  0  0  0  0  0  0  0
   -5.9657    9.5759  -23.3269 C   0  0  0  0  0  0  0  0  0  0  0  0
   -5.0695    9.0299  -22.1919 C   0  0  0  0  0  0  0  0  0  0  0  0
   -6.4056    8.8722  -25.6016 C   0  0  0  0  0  0  0  0  0  0  0  0
   -6.5126    7.7048  -26.1911 N   0  0  0  0  0  0  0  0  0  0  0  0
   -7.7169    7.7231  -26.8418 C   0  0  0  0  0  0  0  0  0  0  0  0
   -8.3736    6.6958  -27.5306 C   0  0  0  0  0  0  0  0  0  0  0  0
   -9.6316    6.9587  -28.0795 C   0  0  0  0  0  0  0  0  0  0  0  0
  -10.2224    8.2158  -27.9385 C   0  0  0  0  0  0  0  0  0  0  0  0
   -9.5777    9.2599  -27.2624 C   0  0  0  0  0  0  0  0  0  0  0  0
   -8.3200    8.9713  -26.7311 C   0  0  0  0  0  0  0  0  0  0  0  0
   -7.4174    9.7067  -26.0056 N   0  0  0  0  0  0  0  0  0  0  0  0
   -7.4841   10.6690  -25.8085 H   0  0  0  0  0  0  0  0  0  0  0  0
   -2.7893    7.7084  -20.9112 C   0  0  0  0  0  0  0  0  0  0  0  0
   -4.0587    6.9293  -21.2953 C   0  0  0  0  0  0  0  0  0  0  0  0
   -4.8446    6.5465  -20.0520 C   0  0  0  0  0  0  0  0  0  0  0  0
   -4.9669    7.2775  -18.9592 N   0  0  0  0  0  0  0  0  0  0  0  0
   -5.6353    6.5349  -17.9867 C   0  0  0  0  0  0  0  0  0  0  0  0
   -5.8658    6.9257  -16.6557 C   0  0  0  0  0  0  0  0  0  0  0  0
   -6.5947    6.0920  -15.7973 C   0  0  0  0  0  0  0  0  0  0  0  0
   -7.1186    4.8875  -16.2517 C   0  0  0  0  0  0  0  0  0  0  0  0
   -6.8852    4.4656  -17.5587 C   0  0  0  0  0  0  0  0  0  0  0  0
   -6.1093    5.2868  -18.3894 C   0  0  0  0  0  0  0  0  0  0  0  0
   -5.5456    4.9795  -19.9616 S   0  0  0  0  0  0  0  0  0  0  0  0
 18 17  1  0  0  0
 18 19  1  0  0  0
 19 20  2  0  0  0
 20 21  1  0  0  0
 21 22  2  0  0  0
 22 23  1  0  0  0
 23 24  2  0  0  0
 24 25  1  0  0  0
 25 26  2  0  0  0
 26 27  1  0  0  0
 18  1  1  0  0  0
  1  2  1  0  0  0
  2  3  1  0  0  0
  3  4  1  0  0  0
  4  7  1  0  0  0
  7  8  2  0  0  0
  8  9  1  0  0  0
  9 10  2  0  0  0
 10 11  1  0  0  0
 11 12  2  0  0  0
 12 13  1  0  0  0
 13 14  2  0  0  0
 14 15  1  0  0  0
  4  5  1  0  0  0
  5  6  1  0  0  0
 27 19  1  0  0  0
  6  1  1  0  0  0
 26 21  1  0  0  0
 15  7  1  0  0  0
 14  9  1  0  0  0
 15 16  1  0  0  0
M  END
> <minimizedAffinity>
-5.05147

> <minimizedRMSD>
0.77628

$$$$
P53970


 21 22  0  0  0  0  0  0  0  0999 V2000
   -8.1183    3.6246  -13.1303 N   0  0  0  0  0  0  0  0  0  0  0  0
   -7.8306    4.8567  -14.0496 C   0  0  0  0  0  0  0  0  0  0  0  0
   -7.8154    6.0007  -13.8015 O   0  0  0  0  0  0  0  0  0  0  0  0
   -8.1460    2.7586  -13.5977 H   0  0  0  0  0  0  0  0  0  0  0  0
   -7.6332    4.2981  -15.4651 C   0  0  0  0  0  0  0  0  0  0  0  0
   -6.8658    5.2521  -16.3907 C   0  0  0  0  0  0  0  0  0  0  0  0
   -6.8273    4.8257  -17.8596 C   0  0  0  0  0  0  0  0  0  0  0  0
   -8.1176    4.2142  -18.3467 C   0  0  0  0  0  0  0  0  0  0  0  0
   -8.5300    4.3473  -19.4919 O   0  0  0  0  0  0  0  0  0  0  0  0
   -8.8505    3.3093  -17.4130 C   0  0  0  0  0  0  0  0  0  0  0  0
   -8.9917    3.9542  -16.0566 C   0  0  0  0  0  0  0  0  0  0  0  0
   -8.3278    3.7525   -9.5878 C   0  0  0  0  0  0  0  0  0  0  0  0
   -7.8925    4.3727  -10.7819 C   0  0  0  0  0  0  0  0  0  0  0  0
   -8.3364    3.5560  -11.7890 C   0  0  0  0  0  0  0  0  0  0  0  0
   -9.0628    2.5693  -11.1784 N   0  0  0  0  0  0  0  0  0  0  0  0
   -9.0762    2.6735   -9.8389 N   0  0  0  0  0  0  0  0  0  0  0  0
   -9.5284    1.8554  -11.6711 H   0  0  0  0  0  0  0  0  0  0  0  0
   -7.9436    4.1204   -8.1924 C   0  0  0  0  0  0  0  0  0  0  0  0
   -9.1787    2.8647   -6.3608 C   0  0  0  0  0  0  0  0  0  0  0  0
   -9.0910    4.1598   -7.1732 C   0  0  0  0  0  0  0  0  0  0  0  0
   -8.8982    5.3380   -6.2123 C   0  0  0  0  0  0  0  0  0  0  0  0
 19 20  1  0  0  0
 20 21  1  0  0  0
 20 18  1  0  0  0
 18 12  1  0  0  0
 12 13  1  0  0  0
 13 14  2  0  0  0
 14  1  1  0  0  0
  1  2  1  0  0  0
  2  3  2  0  0  0
  2  5  1  0  0  0
  5  6  1  0  0  0
  6  7  1  0  0  0
  7  8  1  0  0  0
  8  9  2  0  0  0
  8 10  1  0  0  0
 10 11  1  0  0  0
 14 15  1  0  0  0
 15 16  1  0  0  0
 16 12  2  0  0  0
 11  5  1  0  0  0
  1  4  1  0  0  0
 15 17  1  0  0  0
M  END
> <minimizedAffinity>
-6.55854

> <minimizedRMSD>
1.17856

$$$$
P54116


 20 22  0  0  0  0  0  0  0  0999 V2000
   -8.4919    4.6346  -13.6190 N   0  0  0  0  0  0  0  0  0  0  0  0
   -9.2004    4.0085  -13.8934 H   0  0  0  0  0  0  0  0  0  0  0  0
   -8.4319    5.1130  -12.3590 C   0  0  0  0  0  0  0  0  0  0  0  0
   -8.2459    6.3747  -12.0763 N   0  0  0  0  0  0  0  0  0  0  0  0
   -8.1182    6.3686  -10.6060 C   0  0  0  0  0  0  0  0  0  0  0  0
   -7.8628    4.9048  -10.2622 C   0  0  0  0  0  0  0  0  0  0  0  0
   -8.1345    4.3521   -8.8518 C   0  0  0  0  0  0  0  0  0  0  0  0
   -6.6816    4.7701   -8.5274 C   0  0  0  0  0  0  0  0  0  0  0  0
   -6.3702    4.5431  -10.0205 C   0  0  0  0  0  0  0  0  0  0  0  0
   -8.4334    4.1959  -11.3564 N   0  0  0  0  0  0  0  0  0  0  0  0
   -8.7525    3.2649  -11.3809 H   0  0  0  0  0  0  0  0  0  0  0  0
   -6.1078    4.5611  -14.0688 C   0  0  0  0  0  0  0  0  0  0  0  0
   -7.4617    5.0813  -14.5677 C   0  0  0  0  0  0  0  0  0  0  0  0
   -7.7862    4.6586  -15.9970 C   0  0  0  0  0  0  0  0  0  0  0  0
   -8.9836    4.0350  -16.2054 N   0  0  0  0  0  0  0  0  0  0  0  0
   -9.3488    3.7863  -17.4819 C   0  0  0  0  0  0  0  0  0  0  0  0
   -8.5554    4.0433  -18.5767 C   0  0  0  0  0  0  0  0  0  0  0  0
   -7.3260    4.6422  -18.3628 C   0  0  0  0  0  0  0  0  0  0  0  0
   -6.9421    4.9828  -17.0695 C   0  0  0  0  0  0  0  0  0  0  0  0
   -5.4756    5.8745  -16.9152 Cl  0  0  0  0  0  0  0  0  0  0  0  0
 13 12  1  0  0  0
 13  1  1  0  0  0
  1  3  1  0  0  0
  3  4  2  0  0  0
  4  5  1  0  0  0
  5  6  1  0  0  0
  6  7  1  0  0  0
  7  8  1  0  0  0
  8  9  1  0  0  0
  6 10  1  0  0  0
 13 14  1  0  0  0
 14 15  2  0  0  0
 15 16  1  0  0  0
 16 17  2  0  0  0
 17 18  1  0  0  0
 18 19  2  0  0  0
 19 20  1  0  0  0
 10  3  1  0  0  0
 19 14  1  0  0  0
  9  6  1  0  0  0
  1  2  1  0  0  0
 10 11  1  0  0  0
M  END
> <minimizedAffinity>
-6.28522

> <minimizedRMSD>
0.24691

$$$$
P54124


 16 18  0  0  0  0  0  0  0  0999 V2000
   -7.2522    5.0819  -16.2685 C   0  0  0  0  0  0  0  0  0  0  0  0
   -8.3718    4.3597  -15.8818 C   0  0  0  0  0  0  0  0  0  0  0  0
   -9.2420    3.7766  -16.7367 N   0  0  0  0  0  0  0  0  0  0  0  0
   -8.9764    3.9268  -18.0454 C   0  0  0  0  0  0  0  0  0  0  0  0
   -7.8823    4.6222  -18.5324 C   0  0  0  0  0  0  0  0  0  0  0  0
   -6.9953    5.2386  -17.6422 C   0  0  0  0  0  0  0  0  0  0  0  0
   -5.8904    6.0192  -18.0895 N   0  0  0  0  0  0  0  0  0  0  0  0
   -6.0499    6.9532  -19.1861 N   0  0  0  0  0  0  0  0  0  0  0  0
   -4.8766    6.6304  -20.0455 C   0  0  0  0  0  0  0  0  0  0  0  0
   -3.5997    7.0937  -19.3284 C   0  0  0  0  0  0  0  0  0  0  0  0
   -3.4746    6.1023  -18.1598 C   0  0  0  0  0  0  0  0  0  0  0  0
   -4.6930    5.1964  -18.3801 C   0  0  0  0  0  0  0  0  0  0  0  0
   -4.7669    5.1221  -19.9047 C   0  0  0  0  0  0  0  0  0  0  0  0
   -6.0141    7.9184  -18.8583 H   0  0  0  0  0  0  0  0  0  0  0  0
   -5.7656    6.1965  -14.4636 N   0  0  0  0  0  0  0  0  0  0  0  0
   -6.4364    5.6839  -15.2613 C   0  0  0  0  0  0  0  0  0  0  0  0
 15 16  3  0  0  0
 16  1  1  0  0  0
  1  2  2  0  0  0
  2  3  1  0  0  0
  3  4  2  0  0  0
  4  5  1  0  0  0
  5  6  2  0  0  0
  6  7  1  0  0  0
  7  8  1  0  0  0
  8  9  1  0  0  0
  9 10  1  0  0  0
 10 11  1  0  0  0
 12 11  1  0  0  0
 12 13  1  0  0  0
  6  1  1  0  0  0
 12  7  1  0  0  0
 13  9  1  0  0  0
  8 14  1  0  0  0
M  END
> <minimizedAffinity>
-5.60889

> <minimizedRMSD>
1.50171

$$$$
P54178


 15 16  0  0  0  0  0  0  0  0999 V2000
   -7.2959    4.4299  -15.7385 C   0  0  0  0  0  0  0  0  0  0  0  0
   -8.6645    4.2259  -16.0510 C   0  0  0  0  0  0  0  0  0  0  0  0
   -9.1623    4.2733  -17.3494 C   0  0  0  0  0  0  0  0  0  0  0  0
   -8.2993    4.4739  -18.4155 C   0  0  0  0  0  0  0  0  0  0  0  0
   -6.9294    4.6606  -18.1680 C   0  0  0  0  0  0  0  0  0  0  0  0
   -5.9809    4.8150  -19.1549 N   0  0  0  0  0  0  0  0  0  0  0  0
   -4.8207    5.0811  -18.6211 C   0  0  0  0  0  0  0  0  0  0  0  0
   -4.7703    5.1003  -16.9280 S   0  0  0  0  0  0  0  0  0  0  0  0
   -6.4530    4.6892  -16.8477 C   0  0  0  0  0  0  0  0  0  0  0  0
   -6.9389    4.3741  -14.2568 C   0  0  0  0  0  0  0  0  0  0  0  0
   -5.6115    3.4613  -12.3106 C   0  0  0  0  0  0  0  0  0  0  0  0
   -6.2939    3.1154  -13.6357 C   0  0  0  0  0  0  0  0  0  0  0  0
   -7.2634    2.0517  -13.3592 N   0  0  0  0  0  0  0  0  0  0  0  0
   -7.9384    2.3783  -12.6677 H   0  0  0  0  0  0  0  0  0  0  0  0
   -6.7753    1.2325  -12.9973 H   0  0  0  0  0  0  0  0  0  0  0  0
 12 11  1  0  0  0
 12 13  1  0  0  0
 12 10  1  0  0  0
 10  1  1  0  0  0
  1  2  2  0  0  0
  2  3  1  0  0  0
  3  4  2  0  0  0
  4  5  1  0  0  0
  5  6  1  0  0  0
  6  7  2  0  0  0
  7  8  1  0  0  0
  8  9  1  0  0  0
  9  1  1  0  0  0
  9  5  2  0  0  0
 13 14  1  0  0  0
 13 15  1  0  0  0
M  END
> <minimizedAffinity>
-5.84623

> <minimizedRMSD>
1.62046

$$$$
P54181


 15 16  0  0  0  0  0  0  0  0999 V2000
   -7.6593    4.4286  -15.9105 C   0  0  0  0  0  0  0  0  0  0  0  0
   -8.9709    4.1879  -16.3869 C   0  0  0  0  0  0  0  0  0  0  0  0
   -9.3033    4.1955  -17.7498 C   0  0  0  0  0  0  0  0  0  0  0  0
   -8.3285    4.4153  -18.7235 C   0  0  0  0  0  0  0  0  0  0  0  0
   -7.0174    4.6317  -18.2926 C   0  0  0  0  0  0  0  0  0  0  0  0
   -5.8748    4.8430  -19.0123 N   0  0  0  0  0  0  0  0  0  0  0  0
   -4.9551    4.9964  -18.0961 C   0  0  0  0  0  0  0  0  0  0  0  0
   -5.3903    4.8945  -16.8126 O   0  0  0  0  0  0  0  0  0  0  0  0
   -6.7323    4.6445  -16.9337 C   0  0  0  0  0  0  0  0  0  0  0  0
   -7.3946    4.3423  -14.4221 C   0  0  0  0  0  0  0  0  0  0  0  0
   -7.1631    5.5574  -12.2190 C   0  0  0  0  0  0  0  0  0  0  0  0
   -6.7821    5.5669  -13.7012 C   0  0  0  0  0  0  0  0  0  0  0  0
   -5.3157    5.6007  -13.7574 N   0  0  0  0  0  0  0  0  0  0  0  0
   -4.9379    4.7880  -13.2703 H   0  0  0  0  0  0  0  0  0  0  0  0
   -4.9779    6.4527  -13.3098 H   0  0  0  0  0  0  0  0  0  0  0  0
 12 11  1  0  0  0
 12 13  1  0  0  0
 12 10  1  0  0  0
 10  1  1  0  0  0
  1  2  2  0  0  0
  2  3  1  0  0  0
  3  4  2  0  0  0
  4  5  1  0  0  0
  5  6  1  0  0  0
  6  7  2  0  0  0
  7  8  1  0  0  0
  8  9  1  0  0  0
  9  1  1  0  0  0
  9  5  2  0  0  0
 13 14  1  0  0  0
 13 15  1  0  0  0
M  END
> <minimizedAffinity>
-4.84010

> <minimizedRMSD>
1.15409

$$$$
P54272


 15 16  0  0  0  0  0  0  0  0999 V2000
   -4.7410    5.0306  -18.6945 C   0  0  0  0  0  0  0  0  0  0  0  0
   -4.3624    5.1895  -17.3646 C   0  0  0  0  0  0  0  0  0  0  0  0
   -5.2043    5.0476  -16.3228 N   0  0  0  0  0  0  0  0  0  0  0  0
   -6.4813    4.7481  -16.6513 C   0  0  0  0  0  0  0  0  0  0  0  0
   -6.9007    4.6412  -17.9759 C   0  0  0  0  0  0  0  0  0  0  0  0
   -6.0240    4.7737  -19.0041 N   0  0  0  0  0  0  0  0  0  0  0  0
   -8.3521    4.5005  -18.3319 C   0  0  0  0  0  0  0  0  0  0  0  0
   -9.2413    4.0261  -17.1948 C   0  0  0  0  0  0  0  0  0  0  0  0
   -8.8505    4.5818  -15.8382 C   0  0  0  0  0  0  0  0  0  0  0  0
   -7.3839    4.4422  -15.5049 C   0  0  0  0  0  0  0  0  0  0  0  0
   -3.9039    5.1984  -19.7754 N   0  0  0  0  0  0  0  0  0  0  0  0
   -4.3012    5.3238  -20.6674 H   0  0  0  0  0  0  0  0  0  0  0  0
   -1.9031    3.7816  -19.6874 C   0  0  0  0  0  0  0  0  0  0  0  0
   -2.4582    5.1974  -19.6490 C   0  0  0  0  0  0  0  0  0  0  0  0
   -1.8899    6.0419  -20.7828 C   0  0  0  0  0  0  0  0  0  0  0  0
 13 14  1  0  0  0
 14 15  1  0  0  0
 14 11  1  0  0  0
 11  1  1  0  0  0
  1  2  2  0  0  0
  2  3  1  0  0  0
  3  4  2  0  0  0
  4  5  1  0  0  0
  5  6  2  0  0  0
  5  7  1  0  0  0
  7  8  1  0  0  0
  8  9  1  0  0  0
  9 10  1  0  0  0
  6  1  1  0  0  0
 10  4  1  0  0  0
 11 12  1  0  0  0
M  END
> <minimizedAffinity>
-5.60633

> <minimizedRMSD>
0.57016

$$$$
P54274


 16 17  0  0  0  0  0  0  0  0999 V2000
   -4.0963    5.0545  -18.2881 C   0  0  0  0  0  0  0  0  0  0  0  0
   -3.8541    5.0107  -16.9190 C   0  0  0  0  0  0  0  0  0  0  0  0
   -4.8230    4.8388  -16.0045 N   0  0  0  0  0  0  0  0  0  0  0  0
   -6.0793    4.6898  -16.4905 C   0  0  0  0  0  0  0  0  0  0  0  0
   -6.3569    4.7333  -17.8560 C   0  0  0  0  0  0  0  0  0  0  0  0
   -5.3620    4.9178  -18.7726 N   0  0  0  0  0  0  0  0  0  0  0  0
   -7.7724    4.6943  -18.3621 C   0  0  0  0  0  0  0  0  0  0  0  0
   -8.8240    4.2483  -17.3523 C   0  0  0  0  0  0  0  0  0  0  0  0
   -8.5364    4.6786  -15.9257 C   0  0  0  0  0  0  0  0  0  0  0  0
   -7.1249    4.3890  -15.4676 C   0  0  0  0  0  0  0  0  0  0  0  0
   -2.2287    3.9243  -19.5364 C   0  0  0  0  0  0  0  0  0  0  0  0
   -2.9345    5.2585  -19.2648 C   0  0  0  0  0  0  0  0  0  0  0  0
   -1.9190    6.2738  -18.7047 C   0  0  0  0  0  0  0  0  0  0  0  0
   -3.3673    5.7903  -20.5709 N   0  0  0  0  0  0  0  0  0  0  0  0
   -2.5551    5.9051  -21.1773 H   0  0  0  0  0  0  0  0  0  0  0  0
   -3.8217    6.6935  -20.4367 H   0  0  0  0  0  0  0  0  0  0  0  0
 11 12  1  0  0  0
 12 13  1  0  0  0
 12 14  1  0  0  0
 12  1  1  0  0  0
  1  2  2  0  0  0
  2  3  1  0  0  0
  3  4  2  0  0  0
  4  5  1  0  0  0
  5  6  2  0  0  0
  5  7  1  0  0  0
  7  8  1  0  0  0
  8  9  1  0  0  0
  9 10  1  0  0  0
  6  1  1  0  0  0
 10  4  1  0  0  0
 14 15  1  0  0  0
 14 16  1  0  0  0
M  END
> <minimizedAffinity>
-5.78775

> <minimizedRMSD>
0.90425

$$$$
P54275


 12 12  0  0  0  0  0  0  0  0999 V2000
   -4.4014    4.9895  -19.0576 C   0  0  0  0  0  0  0  0  0  0  0  0
   -5.5592    4.8398  -18.1131 C   0  0  0  0  0  0  0  0  0  0  0  0
   -5.4315    4.9202  -16.7296 C   0  0  0  0  0  0  0  0  0  0  0  0
   -6.4838    4.8057  -15.8854 N   0  0  0  0  0  0  0  0  0  0  0  0
   -7.6815    4.6078  -16.4843 C   0  0  0  0  0  0  0  0  0  0  0  0
   -7.8277    4.5651  -17.8570 C   0  0  0  0  0  0  0  0  0  0  0  0
   -6.7725    4.6674  -18.6910 N   0  0  0  0  0  0  0  0  0  0  0  0
   -2.1561    3.9057  -19.4759 C   0  0  0  0  0  0  0  0  0  0  0  0
   -3.0173    4.6667  -18.4678 C   0  0  0  0  0  0  0  0  0  0  0  0
   -2.3242    5.9076  -18.0904 N   0  0  0  0  0  0  0  0  0  0  0  0
   -2.1859    6.4854  -18.9195 H   0  0  0  0  0  0  0  0  0  0  0  0
   -1.4187    5.6799  -17.6798 H   0  0  0  0  0  0  0  0  0  0  0  0
  9  8  1  0  0  0
  9 10  1  0  0  0
  9  1  1  0  0  0
  1  2  1  0  0  0
  2  3  2  0  0  0
  3  4  1  0  0  0
  4  5  2  0  0  0
  5  6  1  0  0  0
  6  7  2  0  0  0
  7  2  1  0  0  0
 10 11  1  0  0  0
 10 12  1  0  0  0
M  END
> <minimizedAffinity>
-3.73728

> <minimizedRMSD>
0.80601

$$$$
P54276


 14 15  0  0  0  0  0  0  0  0999 V2000
   -5.2662    4.9108  -18.6535 C   0  0  0  0  0  0  0  0  0  0  0  0
   -5.0429    5.0505  -17.2725 C   0  0  0  0  0  0  0  0  0  0  0  0
   -6.0124    4.9780  -16.3232 N   0  0  0  0  0  0  0  0  0  0  0  0
   -7.2224    4.7036  -16.8317 C   0  0  0  0  0  0  0  0  0  0  0  0
   -7.4694    4.5892  -18.1894 C   0  0  0  0  0  0  0  0  0  0  0  0
   -6.5116    4.7010  -19.1250 N   0  0  0  0  0  0  0  0  0  0  0  0
   -8.9190    4.3480  -18.4643 C   0  0  0  0  0  0  0  0  0  0  0  0
   -9.4253    3.9240  -17.0828 C   0  0  0  0  0  0  0  0  0  0  0  0
   -8.4593    4.4761  -16.0222 C   0  0  0  0  0  0  0  0  0  0  0  0
   -4.2989    4.9238  -19.6224 N   0  0  0  0  0  0  0  0  0  0  0  0
   -4.5841    4.6887  -20.5349 H   0  0  0  0  0  0  0  0  0  0  0  0
   -2.0839    3.9622  -19.5002 C   0  0  0  0  0  0  0  0  0  0  0  0
   -2.9034    5.2471  -19.4428 C   0  0  0  0  0  0  0  0  0  0  0  0
   -2.4615    6.2286  -20.5208 C   0  0  0  0  0  0  0  0  0  0  0  0
 12 13  1  0  0  0
 13 14  1  0  0  0
 13 10  1  0  0  0
 10  1  1  0  0  0
  1  2  2  0  0  0
  2  3  1  0  0  0
  3  4  2  0  0  0
  4  5  1  0  0  0
  5  6  2  0  0  0
  5  7  1  0  0  0
  7  8  1  0  0  0
  8  9  1  0  0  0
  6  1  1  0  0  0
  9  4  1  0  0  0
 10 11  1  0  0  0
M  END
> <minimizedAffinity>
-5.56683

> <minimizedRMSD>
0.50360

$$$$
P54277


 11 11  0  0  0  0  0  0  0  0999 V2000
   -5.3660    4.8251  -18.4706 C   0  0  0  0  0  0  0  0  0  0  0  0
   -5.0203    4.9999  -17.1312 C   0  0  0  0  0  0  0  0  0  0  0  0
   -5.9140    4.9751  -16.1132 N   0  0  0  0  0  0  0  0  0  0  0  0
   -7.1954    4.7720  -16.4873 C   0  0  0  0  0  0  0  0  0  0  0  0
   -7.5586    4.6203  -17.8107 C   0  0  0  0  0  0  0  0  0  0  0  0
   -6.6516    4.6342  -18.8125 N   0  0  0  0  0  0  0  0  0  0  0  0
   -4.5031    4.9092  -19.5376 N   0  0  0  0  0  0  0  0  0  0  0  0
   -4.8518    4.7070  -20.4358 H   0  0  0  0  0  0  0  0  0  0  0  0
   -2.2074    4.0619  -19.5715 C   0  0  0  0  0  0  0  0  0  0  0  0
   -3.1069    5.2799  -19.4111 C   0  0  0  0  0  0  0  0  0  0  0  0
   -2.8012    6.3208  -20.4835 C   0  0  0  0  0  0  0  0  0  0  0  0
  9 10  1  0  0  0
 10 11  1  0  0  0
 10  7  1  0  0  0
  7  1  1  0  0  0
  1  2  2  0  0  0
  2  3  1  0  0  0
  3  4  2  0  0  0
  4  5  1  0  0  0
  5  6  2  0  0  0
  6  1  1  0  0  0
  7  8  1  0  0  0
M  END
> <minimizedAffinity>
-3.82675

> <minimizedRMSD>
0.68704

$$$$
P54390


 14 15  0  0  0  0  0  0  0  0999 V2000
   -8.9465    4.1604  -19.0080 N   0  0  0  0  0  0  0  0  0  0  0  0
   -8.2506    4.4826  -17.8416 C   0  0  0  0  0  0  0  0  0  0  0  0
   -8.8091    4.3268  -16.5721 C   0  0  0  0  0  0  0  0  0  0  0  0
   -8.0367    4.5326  -15.4093 C   0  0  0  0  0  0  0  0  0  0  0  0
   -6.6792    4.8606  -15.4906 C   0  0  0  0  0  0  0  0  0  0  0  0
   -6.1206    4.9719  -16.7482 C   0  0  0  0  0  0  0  0  0  0  0  0
   -6.9030    4.7873  -17.8846 C   0  0  0  0  0  0  0  0  0  0  0  0
   -6.1111    4.8608  -19.0223 N   0  0  0  0  0  0  0  0  0  0  0  0
   -4.7786    5.0324  -18.6922 C   0  0  0  0  0  0  0  0  0  0  0  0
   -3.8467    5.0592  -19.4801 O   0  0  0  0  0  0  0  0  0  0  0  0
   -4.6969    5.1852  -17.1653 C   0  0  0  0  0  0  0  0  0  0  0  0
   -9.9062    3.9451  -18.9651 H   0  0  0  0  0  0  0  0  0  0  0  0
   -8.4775    4.1485  -19.8735 H   0  0  0  0  0  0  0  0  0  0  0  0
   -6.4530    4.7990  -19.9435 H   0  0  0  0  0  0  0  0  0  0  0  0
  1  2  1  0  0  0
  2  3  2  0  0  0
  3  4  1  0  0  0
  4  5  2  0  0  0
  5  6  1  0  0  0
  6  7  2  0  0  0
  7  8  1  0  0  0
  8  9  1  0  0  0
  9 10  2  0  0  0
  9 11  1  0  0  0
  7  2  1  0  0  0
 11  6  1  0  0  0
  1 12  1  0  0  0
  1 13  1  0  0  0
  8 14  1  0  0  0
M  END
> <minimizedAffinity>
-6.35106

> <minimizedRMSD>
1.26282

$$$$
P54449


 18 19  0  0  0  0  0  0  0  0999 V2000
   -8.2202    4.4837  -11.3427 C   0  0  0  0  0  0  0  0  0  0  0  0
   -7.9601    5.5756  -10.4809 C   0  0  0  0  0  0  0  0  0  0  0  0
   -8.0725    5.4516   -9.0936 C   0  0  0  0  0  0  0  0  0  0  0  0
   -8.4816    4.2356   -8.5837 C   0  0  0  0  0  0  0  0  0  0  0  0
   -8.7062    3.1437   -9.4175 C   0  0  0  0  0  0  0  0  0  0  0  0
   -8.5525    3.2376  -10.7906 C   0  0  0  0  0  0  0  0  0  0  0  0
   -9.1398    1.9816   -8.5859 C   0  0  0  0  0  0  0  0  0  0  0  0
   -9.5432    2.5750   -7.2817 N   0  0  0  0  0  0  0  0  0  0  0  0
   -8.7809    3.8387   -7.1768 C   0  0  0  0  0  0  0  0  0  0  0  0
   -9.3031    1.9478   -6.5140 H   0  0  0  0  0  0  0  0  0  0  0  0
   -8.3296    4.7069  -12.8332 C   0  0  0  0  0  0  0  0  0  0  0  0
   -5.9808    4.9943  -13.4371 C   0  0  0  0  0  0  0  0  0  0  0  0
   -7.2217    4.2842  -13.7137 N   0  0  0  0  0  0  0  0  0  0  0  0
   -7.6870    4.4874  -15.1224 C   0  0  0  0  0  0  0  0  0  0  0  0
   -6.7535    4.8201  -16.3034 C   0  0  0  0  0  0  0  0  0  0  0  0
   -5.4579    4.5734  -16.0814 F   0  0  0  0  0  0  0  0  0  0  0  0
   -6.8701    6.1001  -16.7256 F   0  0  0  0  0  0  0  0  0  0  0  0
   -7.1157    4.0441  -17.3629 F   0  0  0  0  0  0  0  0  0  0  0  0
 12 13  1  0  0  0
 13 11  1  0  0  0
 11  1  1  0  0  0
  1  2  2  0  0  0
  2  3  1  0  0  0
  3  4  2  0  0  0
  4  5  1  0  0  0
  5  6  2  0  0  0
  5  7  1  0  0  0
  7  8  1  0  0  0
  8  9  1  0  0  0
 13 14  1  0  0  0
 14 15  1  0  0  0
 15 16  1  0  0  0
 15 17  1  0  0  0
 15 18  1  0  0  0
  6  1  1  0  0  0
  9  4  1  0  0  0
  8 10  1  0  0  0
M  END
> <minimizedAffinity>
-5.41388

> <minimizedRMSD>
0.72477

$$$$
P54556


 13 14  0  0  0  0  0  0  0  0999 V2000
   -7.2463    5.0755  -15.8909 C   0  0  0  0  0  0  0  0  0  0  0  0
   -5.7197    4.8680  -15.9719 C   0  0  0  0  0  0  0  0  0  0  0  0
   -5.0837    4.8702  -14.5814 C   0  0  0  0  0  0  0  0  0  0  0  0
   -5.7172    3.8038  -13.6831 C   0  0  0  0  0  0  0  0  0  0  0  0
   -7.0658    3.3231  -14.2172 C   0  0  0  0  0  0  0  0  0  0  0  0
   -7.8508    4.4655  -14.6788 N   0  0  0  0  0  0  0  0  0  0  0  0
   -7.8886    5.1651  -13.9374 H   0  0  0  0  0  0  0  0  0  0  0  0
   -9.7099    3.7148  -18.1251 C   0  0  0  0  0  0  0  0  0  0  0  0
   -9.3012    4.0986  -16.9394 N   0  0  0  0  0  0  0  0  0  0  0  0
   -8.0084    4.5683  -17.1062 C   0  0  0  0  0  0  0  0  0  0  0  0
   -7.6659    4.4876  -18.4435 C   0  0  0  0  0  0  0  0  0  0  0  0
   -8.7494    3.9233  -19.0697 N   0  0  0  0  0  0  0  0  0  0  0  0
   -8.8200    3.7082  -20.0278 H   0  0  0  0  0  0  0  0  0  0  0  0
  8  9  2  0  0  0
  9 10  1  0  0  0
  1 10  1  0  0  0
  1  2  1  0  0  0
  2  3  1  0  0  0
  3  4  1  0  0  0
  4  5  1  0  0  0
  5  6  1  0  0  0
 10 11  2  0  0  0
 11 12  1  0  0  0
 12  8  1  0  0  0
  6  1  1  0  0  0
  6  7  1  0  0  0
 12 13  1  0  0  0
M  END
> <minimizedAffinity>
-4.47721

> <minimizedRMSD>
2.36433

$$$$
P54558


 11 12  0  0  0  0  0  0  0  0999 V2000
   -4.7911    5.1573  -17.5818 C   0  0  0  0  0  0  0  0  0  0  0  0
   -4.8379    5.1178  -18.9539 C   0  0  0  0  0  0  0  0  0  0  0  0
   -6.1318    4.7920  -19.2615 N   0  0  0  0  0  0  0  0  0  0  0  0
   -6.8001    4.6286  -18.0780 C   0  0  0  0  0  0  0  0  0  0  0  0
   -6.0112    4.8625  -17.0487 N   0  0  0  0  0  0  0  0  0  0  0  0
   -6.5106    4.6937  -20.1648 H   0  0  0  0  0  0  0  0  0  0  0  0
   -8.2791    4.1454  -17.9783 C   0  0  0  0  0  0  0  0  0  0  0  0
   -9.3704    5.2035  -18.1646 C   0  0  0  0  0  0  0  0  0  0  0  0
   -9.3951    5.4005  -16.7040 N   0  0  0  0  0  0  0  0  0  0  0  0
   -8.8202    4.0554  -16.5434 C   0  0  0  0  0  0  0  0  0  0  0  0
  -10.3297    5.5085  -16.3099 H   0  0  0  0  0  0  0  0  0  0  0  0
  1  2  2  0  0  0
  2  3  1  0  0  0
  3  4  1  0  0  0
  4  7  1  0  0  0
  7  8  1  0  0  0
  8  9  1  0  0  0
  9 10  1  0  0  0
  4  5  2  0  0  0
  5  1  1  0  0  0
 10  7  1  0  0  0
  3  6  1  0  0  0
  9 11  1  0  0  0
M  END
> <minimizedAffinity>
-3.96000

> <minimizedRMSD>
0.54127

$$$$
P54610


 21 24  0  0  0  0  0  0  0  0999 V2000
   -8.0933    4.2835  -14.4875 N   0  0  0  0  0  0  0  0  0  0  0  0
   -8.3591    3.4024  -14.1380 H   0  0  0  0  0  0  0  0  0  0  0  0
   -8.6391    4.4543  -18.1640 C   0  0  0  0  0  0  0  0  0  0  0  0
   -8.9187    4.3304  -16.8038 C   0  0  0  0  0  0  0  0  0  0  0  0
   -7.8923    4.4429  -15.8522 C   0  0  0  0  0  0  0  0  0  0  0  0
   -6.6035    4.6437  -16.3904 C   0  0  0  0  0  0  0  0  0  0  0  0
   -5.2765    4.7695  -15.9143 C   0  0  0  0  0  0  0  0  0  0  0  0
   -4.3750    4.9476  -16.8902 N   0  0  0  0  0  0  0  0  0  0  0  0
   -5.1343    4.9177  -18.0051 N   0  0  0  0  0  0  0  0  0  0  0  0
   -6.4624    4.7477  -17.7629 C   0  0  0  0  0  0  0  0  0  0  0  0
   -7.4193    4.6794  -18.6962 N   0  0  0  0  0  0  0  0  0  0  0  0
   -4.7613    5.0105  -18.9115 H   0  0  0  0  0  0  0  0  0  0  0  0
   -7.9177    5.3978  -13.5618 C   0  0  0  0  0  0  0  0  0  0  0  0
   -8.0665    5.0113  -12.1170 C   0  0  0  0  0  0  0  0  0  0  0  0
   -8.3582    3.7479  -11.6151 C   0  0  0  0  0  0  0  0  0  0  0  0
   -8.3775    3.9014  -10.2666 N   0  0  0  0  0  0  0  0  0  0  0  0
   -8.5961    3.1131   -9.1654 C   0  0  0  0  0  0  0  0  0  0  0  0
   -8.4532    3.8018   -8.0228 C   0  0  0  0  0  0  0  0  0  0  0  0
   -8.0287    5.4995   -8.2972 S   0  0  0  0  0  0  0  0  0  0  0  0
   -8.0736    5.2037  -10.0100 C   0  0  0  0  0  0  0  0  0  0  0  0
   -7.8820    5.9268  -11.0840 N   0  0  0  0  0  0  0  0  0  0  0  0
  3  4  2  0  0  0
  4  5  1  0  0  0
  5  1  1  0  0  0
  1 13  1  0  0  0
 13 14  1  0  0  0
 14 15  2  0  0  0
 15 16  1  0  0  0
 16 17  1  0  0  0
 17 18  2  0  0  0
 18 19  1  0  0  0
 19 20  1  0  0  0
 20 21  2  0  0  0
  5  6  2  0  0  0
  6  7  1  0  0  0
  7  8  2  0  0  0
  8  9  1  0  0  0
  9 10  1  0  0  0
 10 11  2  0  0  0
 11  3  1  0  0  0
 21 14  1  0  0  0
 10  6  1  0  0  0
 20 16  1  0  0  0
  1  2  1  0  0  0
  9 12  1  0  0  0
M  END
> <minimizedAffinity>
-5.97091

> <minimizedRMSD>
0.98416

$$$$
P54611


 23 26  0  0  0  0  0  0  0  0999 V2000
   -7.9590    3.6852  -14.1824 N   0  0  0  0  0  0  0  0  0  0  0  0
   -8.0326    2.7148  -14.0339 H   0  0  0  0  0  0  0  0  0  0  0  0
   -7.7183    4.2216  -15.4480 C   0  0  0  0  0  0  0  0  0  0  0  0
   -8.7548    4.3478  -16.3772 C   0  0  0  0  0  0  0  0  0  0  0  0
   -8.4621    4.7560  -17.6700 C   0  0  0  0  0  0  0  0  0  0  0  0
   -7.2372    5.0914  -18.1369 N   0  0  0  0  0  0  0  0  0  0  0  0
   -6.2811    4.9602  -17.2077 C   0  0  0  0  0  0  0  0  0  0  0  0
   -4.9498    5.1694  -17.3956 N   0  0  0  0  0  0  0  0  0  0  0  0
   -4.2012    4.9520  -16.2934 N   0  0  0  0  0  0  0  0  0  0  0  0
   -5.1114    4.5652  -15.3874 C   0  0  0  0  0  0  0  0  0  0  0  0
   -6.4297    4.5593  -15.8932 C   0  0  0  0  0  0  0  0  0  0  0  0
   -4.5672    5.4536  -18.2571 H   0  0  0  0  0  0  0  0  0  0  0  0
   -8.0957    4.6466  -13.0896 C   0  0  0  0  0  0  0  0  0  0  0  0
   -8.1545    3.8445  -11.7918 C   0  0  0  0  0  0  0  0  0  0  0  0
   -8.9888    3.4194   -6.6999 C   0  0  0  0  0  0  0  0  0  0  0  0
   -9.2890    2.4817   -7.6822 C   0  0  0  0  0  0  0  0  0  0  0  0
   -9.0375    2.7467   -9.0293 C   0  0  0  0  0  0  0  0  0  0  0  0
   -8.4720    3.9812   -9.3490 C   0  0  0  0  0  0  0  0  0  0  0  0
   -8.1733    4.9426   -8.3965 C   0  0  0  0  0  0  0  0  0  0  0  0
   -8.4281    4.6593   -7.0451 C   0  0  0  0  0  0  0  0  0  0  0  0
   -7.6541    6.0702   -8.9933 N   0  0  0  0  0  0  0  0  0  0  0  0
   -7.6173    5.7976  -10.2799 C   0  0  0  0  0  0  0  0  0  0  0  0
   -8.0825    4.5446  -10.5395 N   0  0  0  0  0  0  0  0  0  0  0  0
 15 16  2  0  0  0
 16 17  1  0  0  0
 17 18  2  0  0  0
 18 19  1  0  0  0
 19 20  2  0  0  0
 19 21  1  0  0  0
 21 22  2  0  0  0
 22 23  1  0  0  0
 23 14  1  0  0  0
 14 13  1  0  0  0
 13  1  1  0  0  0
  1  3  1  0  0  0
  3  4  2  0  0  0
  4  5  1  0  0  0
  5  6  2  0  0  0
  6  7  1  0  0  0
  7  8  1  0  0  0
  8  9  1  0  0  0
  9 10  2  0  0  0
 10 11  1  0  0  0
 20 15  1  0  0  0
 11  3  1  0  0  0
 23 18  1  0  0  0
 11  7  2  0  0  0
  1  2  1  0  0  0
  8 12  1  0  0  0
M  END
> <minimizedAffinity>
-6.27118

> <minimizedRMSD>
1.24735

$$$$
P54625


 17 18  0  0  0  0  0  0  0  0999 V2000
   -6.1837    4.9935  -14.6042 N   0  0  0  0  0  0  0  0  0  0  0  0
   -4.8712    5.5990  -14.8389 C   0  0  0  0  0  0  0  0  0  0  0  0
   -7.0288    5.0031  -15.8145 C   0  0  0  0  0  0  0  0  0  0  0  0
   -6.3108    4.6546  -17.1241 C   0  0  0  0  0  0  0  0  0  0  0  0
   -7.2040    4.8734  -18.3366 C   0  0  0  0  0  0  0  0  0  0  0  0
   -8.5648    4.2438  -18.1951 C   0  0  0  0  0  0  0  0  0  0  0  0
   -9.1643    3.8071  -19.1751 O   0  0  0  0  0  0  0  0  0  0  0  0
   -9.2569    4.2905  -16.8605 C   0  0  0  0  0  0  0  0  0  0  0  0
   -8.3092    4.1740  -15.6793 C   0  0  0  0  0  0  0  0  0  0  0  0
   -6.1048    3.7259  -13.8563 C   0  0  0  0  0  0  0  0  0  0  0  0
   -8.9066    3.0676   -9.1031 C   0  0  0  0  0  0  0  0  0  0  0  0
   -7.7942    3.6675   -9.8437 N   0  0  0  0  0  0  0  0  0  0  0  0
   -6.7231    2.7073  -10.1394 C   0  0  0  0  0  0  0  0  0  0  0  0
   -6.3708    2.5502  -11.6247 C   0  0  0  0  0  0  0  0  0  0  0  0
   -6.1529    3.9015  -12.3152 C   0  0  0  0  0  0  0  0  0  0  0  0
   -7.2058    4.9350  -11.8716 C   0  0  0  0  0  0  0  0  0  0  0  0
   -8.3184    4.3344  -11.0294 C   0  0  0  0  0  0  0  0  0  0  0  0
 11 12  1  0  0  0
 12 13  1  0  0  0
 13 14  1  0  0  0
 14 15  1  0  0  0
 15 10  1  0  0  0
 10  1  1  0  0  0
  1  2  1  0  0  0
  1  3  1  0  0  0
  3  4  1  0  0  0
  4  5  1  0  0  0
  5  6  1  0  0  0
  6  7  2  0  0  0
  6  8  1  0  0  0
  8  9  1  0  0  0
 15 16  1  0  0  0
 16 17  1  0  0  0
 17 12  1  0  0  0
  9  3  1  0  0  0
M  END
> <minimizedAffinity>
-5.61308

> <minimizedRMSD>
0.86222

$$$$
P54691


 25 28  0  0  0  0  0  0  0  0999 V2000
   -6.9461    7.0230  -13.9106 O   0  0  0  0  0  0  0  0  0  0  0  0
   -7.6679    6.1592  -13.5880 C   0  0  0  0  0  0  0  0  0  0  0  0
   -8.2081    4.9339  -14.3984 N   0  0  0  0  0  0  0  0  0  0  0  0
   -8.7482    4.2989  -13.8747 H   0  0  0  0  0  0  0  0  0  0  0  0
   -8.0502    4.5994  -15.7277 C   0  0  0  0  0  0  0  0  0  0  0  0
   -9.1707    4.2246  -16.3899 C   0  0  0  0  0  0  0  0  0  0  0  0
   -9.2599    4.1418  -17.8365 C   0  0  0  0  0  0  0  0  0  0  0  0
   -8.1541    4.3672  -18.5553 C   0  0  0  0  0  0  0  0  0  0  0  0
   -6.9681    4.6341  -17.8870 N   0  0  0  0  0  0  0  0  0  0  0  0
   -5.7171    4.8381  -18.3917 C   0  0  0  0  0  0  0  0  0  0  0  0
   -4.8638    5.0185  -17.4122 N   0  0  0  0  0  0  0  0  0  0  0  0
   -5.5711    4.9589  -16.2240 N   0  0  0  0  0  0  0  0  0  0  0  0
   -6.8446    4.7474  -16.4993 C   0  0  0  0  0  0  0  0  0  0  0  0
   -8.3572    6.1344  -12.2074 C   0  0  0  0  0  0  0  0  0  0  0  0
   -7.4175    5.9500  -11.0149 C   0  0  0  0  0  0  0  0  0  0  0  0
   -8.0021    5.0804   -9.9440 C   0  0  0  0  0  0  0  0  0  0  0  0
   -8.3879    3.7324  -10.1005 C   0  0  0  0  0  0  0  0  0  0  0  0
   -8.8033    3.3367   -8.8573 C   0  0  0  0  0  0  0  0  0  0  0  0
   -8.6414    4.4105   -8.0381 N   0  0  0  0  0  0  0  0  0  0  0  0
   -8.1910    5.5138   -8.6824 N   0  0  0  0  0  0  0  0  0  0  0  0
   -8.8286    4.3612   -6.5983 C   0  0  0  0  0  0  0  0  0  0  0  0
   -9.6325    3.1169   -6.1935 C   0  0  0  0  0  0  0  0  0  0  0  0
   -9.1656    1.9443   -6.9061 N   0  0  0  0  0  0  0  0  0  0  0  0
   -9.2932    2.0433   -8.3488 C   0  0  0  0  0  0  0  0  0  0  0  0
   -9.7071    1.1397   -6.5902 H   0  0  0  0  0  0  0  0  0  0  0  0
  1  2  2  0  0  0
  2 14  1  0  0  0
 14 15  1  0  0  0
 15 16  1  0  0  0
 16 17  1  0  0  0
 17 18  2  0  0  0
 18 19  1  0  0  0
 19 20  1  0  0  0
 19 21  1  0  0  0
 21 22  1  0  0  0
 22 23  1  0  0  0
 23 24  1  0  0  0
  2  3  1  0  0  0
  3  5  1  0  0  0
  5  6  2  0  0  0
  6  7  1  0  0  0
  7  8  2  0  0  0
  8  9  1  0  0  0
  9 10  1  0  0  0
 10 11  2  0  0  0
 11 12  1  0  0  0
 12 13  2  0  0  0
 20 16  2  0  0  0
 13  5  1  0  0  0
 24 18  1  0  0  0
 13  9  1  0  0  0
 23 25  1  0  0  0
  3  4  1  0  0  0
M  END
> <minimizedAffinity>
-6.90320

> <minimizedRMSD>
0.87354

$$$$
P54734


 17 18  0  0  0  0  0  0  0  0999 V2000
   -6.7757    4.1130  -14.0798 C   0  0  0  0  0  0  0  0  0  0  0  0
   -5.5937    4.6462  -14.5691 C   0  0  0  0  0  0  0  0  0  0  0  0
   -5.5521    4.9793  -15.9151 C   0  0  0  0  0  0  0  0  0  0  0  0
   -6.6684    4.7297  -16.7210 C   0  0  0  0  0  0  0  0  0  0  0  0
   -6.6052    4.8944  -18.1114 C   0  0  0  0  0  0  0  0  0  0  0  0
   -7.7006    4.5587  -18.8959 C   0  0  0  0  0  0  0  0  0  0  0  0
   -8.8743    4.1145  -18.2927 C   0  0  0  0  0  0  0  0  0  0  0  0
   -8.9464    3.9850  -16.9075 C   0  0  0  0  0  0  0  0  0  0  0  0
   -7.8491    4.2455  -16.1066 C   0  0  0  0  0  0  0  0  0  0  0  0
   -7.9147    3.9628  -14.7959 N   0  0  0  0  0  0  0  0  0  0  0  0
   -7.2907    1.7468  -12.8367 N   0  0  0  0  0  0  0  0  0  0  0  0
   -6.7360    3.1636  -12.5517 S   0  0  0  0  0  0  0  0  0  0  0  0
   -5.3930    3.3820  -12.0257 O   0  0  0  0  0  0  0  0  0  0  0  0
   -7.1630    1.4919  -13.8283 H   0  0  0  0  0  0  0  0  0  0  0  0
   -7.9157    4.0732  -11.5408 C   0  0  0  0  0  0  0  0  0  0  0  0
   -9.0754    3.3870  -11.3199 F   0  0  0  0  0  0  0  0  0  0  0  0
   -8.2991    5.2440  -12.1394 F   0  0  0  0  0  0  0  0  0  0  0  0
 11 12  2  0  0  0
 12 13  2  0  0  0
 12  1  1  0  0  0
  1  2  2  0  0  0
  2  3  1  0  0  0
  3  4  2  0  0  0
  4  5  1  0  0  0
  5  6  2  0  0  0
  6  7  1  0  0  0
  7  8  2  0  0  0
  8  9  1  0  0  0
  9 10  2  0  0  0
 12 15  1  0  0  0
 15 16  1  0  0  0
 15 17  1  0  0  0
 10  1  1  0  0  0
  9  4  1  0  0  0
 11 14  1  0  0  0
M  END
> <minimizedAffinity>
-6.97472

> <minimizedRMSD>
1.49137

$$$$
P54886


 11 11  0  0  0  0  0  0  0  0999 V2000
   -4.7486    5.2462  -18.6885 C   0  0  0  0  0  0  0  0  0  0  0  0
   -4.2006    5.3899  -17.6669 O   0  0  0  0  0  0  0  0  0  0  0  0
   -6.2343    4.9226  -18.9955 N   0  0  0  0  0  0  0  0  0  0  0  0
   -6.4681    4.9272  -19.9518 H   0  0  0  0  0  0  0  0  0  0  0  0
   -7.2655    4.6339  -18.1589 C   0  0  0  0  0  0  0  0  0  0  0  0
   -7.2681    4.8417  -16.7491 C   0  0  0  0  0  0  0  0  0  0  0  0
   -8.4639    4.4289  -16.2006 C   0  0  0  0  0  0  0  0  0  0  0  0
   -9.4439    3.8168  -17.4584 S   0  0  0  0  0  0  0  0  0  0  0  0
   -8.3686    4.1008  -18.6721 N   0  0  0  0  0  0  0  0  0  0  0  0
   -4.5198    6.4472  -20.8776 C   0  0  0  0  0  0  0  0  0  0  0  0
   -4.0216    5.3054  -20.0224 C   0  0  0  0  0  0  0  0  0  0  0  0
 10 11  1  0  0  0
 11  1  1  0  0  0
  1  2  2  0  0  0
  1  3  1  0  0  0
  3  5  1  0  0  0
  5  6  1  0  0  0
  6  7  2  0  0  0
  7  8  1  0  0  0
  8  9  1  0  0  0
  9  5  2  0  0  0
  3  4  1  0  0  0
M  END
> <minimizedAffinity>
-4.32999

> <minimizedRMSD>
0.41856

$$$$
P54960


 14 15  0  0  0  0  0  0  0  0999 V2000
   -6.1589    5.4228  -19.0841 C   0  0  0  0  0  0  0  0  0  0  0  0
   -4.6512    5.0627  -18.9483 C   0  0  0  0  0  0  0  0  0  0  0  0
   -3.8409    5.6073  -20.0720 N   0  0  0  0  0  0  0  0  0  0  0  0
   -4.0664    7.0641  -20.1466 C   0  0  0  0  0  0  0  0  0  0  0  0
   -5.5574    7.4445  -20.2329 C   0  0  0  0  0  0  0  0  0  0  0  0
   -6.3487    6.8987  -19.1278 N   0  0  0  0  0  0  0  0  0  0  0  0
   -4.1276    5.1692  -20.9473 H   0  0  0  0  0  0  0  0  0  0  0  0
   -7.3351    7.1131  -19.2740 H   0  0  0  0  0  0  0  0  0  0  0  0
   -9.2711    4.2071  -17.2879 C   0  0  0  0  0  0  0  0  0  0  0  0
   -8.7586    4.1394  -16.0055 C   0  0  0  0  0  0  0  0  0  0  0  0
   -7.4709    4.3863  -15.6854 N   0  0  0  0  0  0  0  0  0  0  0  0
   -6.6555    4.7199  -16.7052 C   0  0  0  0  0  0  0  0  0  0  0  0
   -7.0647    4.8497  -18.0269 C   0  0  0  0  0  0  0  0  0  0  0  0
   -8.4065    4.5650  -18.3116 C   0  0  0  0  0  0  0  0  0  0  0  0
  9 10  2  0  0  0
 10 11  1  0  0  0
 11 12  2  0  0  0
 12 13  1  0  0  0
  1 13  1  0  0  0
  1  2  1  0  0  0
  2  3  1  0  0  0
  3  4  1  0  0  0
  4  5  1  0  0  0
  5  6  1  0  0  0
 13 14  2  0  0  0
 14  9  1  0  0  0
  6  1  1  0  0  0
  3  7  1  0  0  0
  6  8  1  0  0  0
M  END
> <minimizedAffinity>
-4.88948

> <minimizedRMSD>
0.28741

$$$$
P55094


 14 15  0  0  0  0  0  0  0  0999 V2000
   -8.5177    4.8052  -15.2533 S   0  0  0  0  0  0  0  0  0  0  0  0
   -7.2761    4.7293  -16.3685 C   0  0  0  0  0  0  0  0  0  0  0  0
   -5.8432    4.8610  -16.0242 C   0  0  0  0  0  0  0  0  0  0  0  0
   -4.9170    4.8653  -16.9883 C   0  0  0  0  0  0  0  0  0  0  0  0
   -5.3934    4.7323  -18.3858 C   0  0  0  0  0  0  0  0  0  0  0  0
   -6.6443    4.5855  -18.7017 N   0  0  0  0  0  0  0  0  0  0  0  0
   -7.5578    4.5641  -17.6974 N   0  0  0  0  0  0  0  0  0  0  0  0
   -8.4993    4.4180  -17.9454 H   0  0  0  0  0  0  0  0  0  0  0  0
   -4.4005    4.8137  -19.4930 C   0  0  0  0  0  0  0  0  0  0  0  0
   -4.8593    5.1683  -20.7669 C   0  0  0  0  0  0  0  0  0  0  0  0
   -3.9682    5.2798  -21.8280 C   0  0  0  0  0  0  0  0  0  0  0  0
   -2.6335    5.0196  -21.5851 C   0  0  0  0  0  0  0  0  0  0  0  0
   -2.1508    4.6792  -20.3726 N   0  0  0  0  0  0  0  0  0  0  0  0
   -3.0424    4.5671  -19.3572 C   0  0  0  0  0  0  0  0  0  0  0  0
  1  2  2  0  0  0
  2  3  1  0  0  0
  3  4  2  0  0  0
  4  5  1  0  0  0
  5  9  1  0  0  0
  9 10  2  0  0  0
 10 11  1  0  0  0
 11 12  2  0  0  0
 12 13  1  0  0  0
 13 14  2  0  0  0
  5  6  2  0  0  0
  6  7  1  0  0  0
  7  2  1  0  0  0
 14  9  1  0  0  0
  7  8  1  0  0  0
M  END
> <minimizedAffinity>
-4.76537

> <minimizedRMSD>
0.56716

$$$$
P55120


 11 12  0  0  0  0  0  0  0  0999 V2000
   -9.3732    4.3434  -17.0849 C   0  0  0  0  0  0  0  0  0  0  0  0
   -8.5605    4.4467  -15.9614 C   0  0  0  0  0  0  0  0  0  0  0  0
   -7.1789    4.5280  -16.1135 C   0  0  0  0  0  0  0  0  0  0  0  0
   -6.6627    4.5582  -17.4054 C   0  0  0  0  0  0  0  0  0  0  0  0
   -7.4480    4.4636  -18.4992 N   0  0  0  0  0  0  0  0  0  0  0  0
   -8.7741    4.3230  -18.3264 C   0  0  0  0  0  0  0  0  0  0  0  0
   -5.2674    4.7448  -17.6202 N   0  0  0  0  0  0  0  0  0  0  0  0
   -4.2676    4.8047  -16.6683 C   0  0  0  0  0  0  0  0  0  0  0  0
   -3.0862    5.0228  -17.3341 C   0  0  0  0  0  0  0  0  0  0  0  0
   -3.4503    5.1031  -18.6845 C   0  0  0  0  0  0  0  0  0  0  0  0
   -4.7593    4.9585  -18.8720 N   0  0  0  0  0  0  0  0  0  0  0  0
  1  2  2  0  0  0
  2  3  1  0  0  0
  3  4  2  0  0  0
  4  7  1  0  0  0
  7  8  1  0  0  0
  8  9  2  0  0  0
  9 10  1  0  0  0
 10 11  2  0  0  0
  4  5  1  0  0  0
  5  6  2  0  0  0
  6  1  1  0  0  0
 11  7  1  0  0  0
M  END
> <minimizedAffinity>
-4.70603

> <minimizedRMSD>
2.17943

$$$$
P55123


 11 12  0  0  0  0  0  0  0  0999 V2000
   -8.2110    4.1030  -16.8391 C   0  0  0  0  0  0  0  0  0  0  0  0
   -7.2465    4.4857  -15.9121 C   0  0  0  0  0  0  0  0  0  0  0  0
   -6.2357    5.3586  -16.3001 C   0  0  0  0  0  0  0  0  0  0  0  0
   -6.2411    5.8202  -17.6100 C   0  0  0  0  0  0  0  0  0  0  0  0
   -7.1394    5.4223  -18.5299 N   0  0  0  0  0  0  0  0  0  0  0  0
   -8.1079    4.5770  -18.1333 C   0  0  0  0  0  0  0  0  0  0  0  0
   -5.3102    6.8417  -18.0490 C   0  0  0  0  0  0  0  0  0  0  0  0
   -3.8960    6.8000  -17.9972 C   0  0  0  0  0  0  0  0  0  0  0  0
   -3.5032    8.0052  -18.5126 C   0  0  0  0  0  0  0  0  0  0  0  0
   -4.5937    8.7346  -18.8470 O   0  0  0  0  0  0  0  0  0  0  0  0
   -5.7343    8.0161  -18.5519 N   0  0  0  0  0  0  0  0  0  0  0  0
  1  2  2  0  0  0
  2  3  1  0  0  0
  3  4  2  0  0  0
  4  7  1  0  0  0
  7  8  1  0  0  0
  8  9  2  0  0  0
  9 10  1  0  0  0
 10 11  1  0  0  0
  4  5  1  0  0  0
  5  6  2  0  0  0
  6  1  1  0  0  0
 11  7  2  0  0  0
M  END
> <minimizedAffinity>
-3.23912

> <minimizedRMSD>
0.16666

$$$$
P55128


 11 12  0  0  0  0  0  0  0  0999 V2000
   -6.9497    3.9548  -13.0093 C   0  0  0  0  0  0  0  0  0  0  0  0
   -7.0719    3.7491  -14.3749 C   0  0  0  0  0  0  0  0  0  0  0  0
   -7.9473    4.5613  -15.0951 C   0  0  0  0  0  0  0  0  0  0  0  0
   -8.6571    5.5527  -14.4181 C   0  0  0  0  0  0  0  0  0  0  0  0
   -8.4700    5.6791  -13.0506 C   0  0  0  0  0  0  0  0  0  0  0  0
   -7.6296    4.9069  -12.3303 N   0  0  0  0  0  0  0  0  0  0  0  0
   -8.0742    4.4286  -16.5299 C   0  0  0  0  0  0  0  0  0  0  0  0
   -9.1980    4.0552  -17.2304 C   0  0  0  0  0  0  0  0  0  0  0  0
   -8.8772    4.0176  -18.5541 O   0  0  0  0  0  0  0  0  0  0  0  0
   -7.5679    4.3789  -18.5774 C   0  0  0  0  0  0  0  0  0  0  0  0
   -7.0456    4.6761  -17.4080 N   0  0  0  0  0  0  0  0  0  0  0  0
  1  2  2  0  0  0
  2  3  1  0  0  0
  3  7  1  0  0  0
  7  8  2  0  0  0
  8  9  1  0  0  0
  9 10  1  0  0  0
 10 11  2  0  0  0
  3  4  2  0  0  0
  4  5  1  0  0  0
  5  6  2  0  0  0
  6  1  1  0  0  0
 11  7  1  0  0  0
M  END
> <minimizedAffinity>
-4.25316

> <minimizedRMSD>
2.29621

$$$$
P55279


 13 13  0  0  0  0  0  0  0  0999 V2000
   -7.3443    4.6856  -14.8951 C   0  0  0  0  0  0  0  0  0  0  0  0
   -6.1873    4.8138  -14.8178 O   0  0  0  0  0  0  0  0  0  0  0  0
   -8.4189    4.6019  -13.7881 N   0  0  0  0  0  0  0  0  0  0  0  0
   -9.3467    4.5699  -14.1158 H   0  0  0  0  0  0  0  0  0  0  0  0
   -8.2882    4.5644  -12.3987 C   0  0  0  0  0  0  0  0  0  0  0  0
   -8.2602    3.3384  -11.7442 C   0  0  0  0  0  0  0  0  0  0  0  0
   -8.1291    3.3315  -10.3626 C   0  0  0  0  0  0  0  0  0  0  0  0
   -8.0502    4.4516   -9.6088 N   0  0  0  0  0  0  0  0  0  0  0  0
   -8.0788    5.6241  -10.2741 C   0  0  0  0  0  0  0  0  0  0  0  0
   -8.1863    5.7325  -11.6518 C   0  0  0  0  0  0  0  0  0  0  0  0
   -7.0573    4.4258  -17.4283 C   0  0  0  0  0  0  0  0  0  0  0  0
   -7.9954    4.5352  -16.2662 C   0  0  0  0  0  0  0  0  0  0  0  0
   -9.2140    4.5612  -16.3590 O   0  0  0  0  0  0  0  0  0  0  0  0
 11 12  1  0  0  0
 12 13  2  0  0  0
 12  1  1  0  0  0
  1  2  2  0  0  0
  1  3  1  0  0  0
  3  5  1  0  0  0
  5  6  2  0  0  0
  6  7  1  0  0  0
  7  8  2  0  0  0
  8  9  1  0  0  0
  9 10  2  0  0  0
 10  5  1  0  0  0
  3  4  1  0  0  0
M  END
> <minimizedAffinity>
-4.65648

> <minimizedRMSD>
0.85132

$$$$
P55295


 11 12  0  0  0  0  0  0  0  0999 V2000
   -7.0741    5.5296  -12.7673 C   0  0  0  0  0  0  0  0  0  0  0  0
   -8.1612    4.7425  -12.4784 C   0  0  0  0  0  0  0  0  0  0  0  0
   -8.6498    4.3381  -13.6934 N   0  0  0  0  0  0  0  0  0  0  0  0
   -7.8371    4.8765  -14.6587 C   0  0  0  0  0  0  0  0  0  0  0  0
   -6.8764    5.6028  -14.1206 N   0  0  0  0  0  0  0  0  0  0  0  0
   -9.4375    3.7674  -13.8452 H   0  0  0  0  0  0  0  0  0  0  0  0
   -7.9808    4.6711  -16.1886 C   0  0  0  0  0  0  0  0  0  0  0  0
   -6.9094    4.8262  -17.1090 C   0  0  0  0  0  0  0  0  0  0  0  0
   -7.1712    4.6156  -18.3969 N   0  0  0  0  0  0  0  0  0  0  0  0
   -8.7766    4.1966  -18.5281 S   0  0  0  0  0  0  0  0  0  0  0  0
   -9.1306    4.3129  -16.8513 C   0  0  0  0  0  0  0  0  0  0  0  0
  1  2  2  0  0  0
  2  3  1  0  0  0
  3  4  1  0  0  0
  4  7  1  0  0  0
  7  8  1  0  0  0
  8  9  2  0  0  0
  9 10  1  0  0  0
 10 11  1  0  0  0
  4  5  2  0  0  0
  5  1  1  0  0  0
 11  7  2  0  0  0
  3  6  1  0  0  0
M  END
> <minimizedAffinity>
-3.97460

> <minimizedRMSD>
1.48534

$$$$
P55370


 19 21  0  0  0  0  0  0  0  0999 V2000
   -6.4115    5.1601  -16.5060 C   0  0  0  0  0  0  0  0  0  0  0  0
   -7.3519    4.9164  -15.4891 C   0  0  0  0  0  0  0  0  0  0  0  0
   -8.5518    4.2432  -15.7520 C   0  0  0  0  0  0  0  0  0  0  0  0
   -8.8346    3.7858  -17.0319 C   0  0  0  0  0  0  0  0  0  0  0  0
   -7.8728    3.9998  -17.9970 C   0  0  0  0  0  0  0  0  0  0  0  0
   -7.9281    3.5565  -19.3046 N   0  0  0  0  0  0  0  0  0  0  0  0
   -6.7592    3.9361  -19.9681 C   0  0  0  0  0  0  0  0  0  0  0  0
   -6.5116    3.6045  -21.1218 O   0  0  0  0  0  0  0  0  0  0  0  0
   -5.9687    4.6667  -19.0312 N   0  0  0  0  0  0  0  0  0  0  0  0
   -6.6600    4.6746  -17.7826 C   0  0  0  0  0  0  0  0  0  0  0  0
   -8.6733    3.0530  -19.7051 H   0  0  0  0  0  0  0  0  0  0  0  0
   -4.6618    5.1504  -19.2781 C   0  0  0  0  0  0  0  0  0  0  0  0
   -4.4642    6.2943  -20.0545 C   0  0  0  0  0  0  0  0  0  0  0  0
   -3.1732    6.7199  -20.3787 C   0  0  0  0  0  0  0  0  0  0  0  0
   -2.0844    6.0083  -19.9128 C   0  0  0  0  0  0  0  0  0  0  0  0
   -2.3422    4.9126  -19.1217 C   0  0  0  0  0  0  0  0  0  0  0  0
   -3.5863    4.4928  -18.8002 N   0  0  0  0  0  0  0  0  0  0  0  0
   -5.5195    6.7319  -15.0847 C   0  0  0  0  0  0  0  0  0  0  0  0
   -5.2665    5.7784  -16.1099 O   0  0  0  0  0  0  0  0  0  0  0  0
 18 19  1  0  0  0
 19  1  1  0  0  0
  1  2  2  0  0  0
  2  3  1  0  0  0
  3  4  2  0  0  0
  4  5  1  0  0  0
  5  6  1  0  0  0
  6  7  1  0  0  0
  7  8  2  0  0  0
  7  9  1  0  0  0
  9 12  1  0  0  0
 12 13  2  0  0  0
 13 14  1  0  0  0
 14 15  2  0  0  0
 15 16  1  0  0  0
 16 17  2  0  0  0
  9 10  1  0  0  0
 10  1  1  0  0  0
 10  5  2  0  0  0
 17 12  1  0  0  0
  6 11  1  0  0  0
M  END
> <minimizedAffinity>
-5.81374

> <minimizedRMSD>
0.87667

$$$$
P55618


 25 28  0  0  0  0  0  0  0  0999 V2000
   -6.0058    6.5854  -12.7126 O   0  0  0  0  0  0  0  0  0  0  0  0
   -6.2047    5.4611  -12.4609 C   0  0  0  0  0  0  0  0  0  0  0  0
   -7.2522    4.8112  -11.5127 N   0  0  0  0  0  0  0  0  0  0  0  0
   -7.1679    3.8355  -11.4118 H   0  0  0  0  0  0  0  0  0  0  0  0
   -5.4496    4.3346  -13.1811 C   0  0  0  0  0  0  0  0  0  0  0  0
   -5.4934    4.5259  -14.6662 C   0  0  0  0  0  0  0  0  0  0  0  0
   -4.3547    4.7276  -15.3510 N   0  0  0  0  0  0  0  0  0  0  0  0
   -4.7333    4.8650  -16.6805 O   0  0  0  0  0  0  0  0  0  0  0  0
   -6.0840    4.7315  -16.7868 C   0  0  0  0  0  0  0  0  0  0  0  0
   -6.8336    4.8070  -17.9559 C   0  0  0  0  0  0  0  0  0  0  0  0
   -8.2178    4.6490  -17.8225 C   0  0  0  0  0  0  0  0  0  0  0  0
   -8.7993    4.4099  -16.5771 C   0  0  0  0  0  0  0  0  0  0  0  0
   -8.0138    4.3229  -15.4195 C   0  0  0  0  0  0  0  0  0  0  0  0
   -6.6223    4.5010  -15.5333 C   0  0  0  0  0  0  0  0  0  0  0  0
   -8.3191    5.4015  -10.7627 C   0  0  0  0  0  0  0  0  0  0  0  0
   -8.2686    5.0842   -9.3209 C   0  0  0  0  0  0  0  0  0  0  0  0
   -8.0343    5.9880   -8.2550 C   0  0  0  0  0  0  0  0  0  0  0  0
   -8.2397    5.4435   -7.0518 N   0  0  0  0  0  0  0  0  0  0  0  0
   -8.6249    4.1898   -7.3461 N   0  0  0  0  0  0  0  0  0  0  0  0
   -8.6041    3.9019   -8.6820 C   0  0  0  0  0  0  0  0  0  0  0  0
   -9.0276    2.5672   -9.1799 C   0  0  0  0  0  0  0  0  0  0  0  0
   -9.1685    1.5904   -8.1062 N   0  0  0  0  0  0  0  0  0  0  0  0
   -9.8565    2.1260   -6.9359 C   0  0  0  0  0  0  0  0  0  0  0  0
   -9.0903    3.2867   -6.3105 C   0  0  0  0  0  0  0  0  0  0  0  0
   -8.2384    1.2814   -7.8236 H   0  0  0  0  0  0  0  0  0  0  0  0
  1  2  2  0  0  0
  2  5  1  0  0  0
  5  6  1  0  0  0
  6  7  2  0  0  0
  7  8  1  0  0  0
  8  9  1  0  0  0
  9 10  2  0  0  0
 10 11  1  0  0  0
 11 12  2  0  0  0
 12 13  1  0  0  0
 13 14  2  0  0  0
  2  3  1  0  0  0
  3 15  1  0  0  0
 15 16  1  0  0  0
 16 17  1  0  0  0
 17 18  2  0  0  0
 18 19  1  0  0  0
 19 20  1  0  0  0
 20 21  1  0  0  0
 21 22  1  0  0  0
 22 23  1  0  0  0
 23 24  1  0  0  0
 14  6  1  0  0  0
 20 16  2  0  0  0
 14  9  1  0  0  0
 24 19  1  0  0  0
  3  4  1  0  0  0
 22 25  1  0  0  0
M  END
> <minimizedAffinity>
-7.15356

> <minimizedRMSD>
0.75882

$$$$
P55651


 23 26  0  0  0  0  0  0  0  0999 V2000
   -9.2644    5.3019  -14.0174 O   0  0  0  0  0  0  0  0  0  0  0  0
   -8.3073    4.9201  -13.4731 C   0  0  0  0  0  0  0  0  0  0  0  0
   -6.9266    4.5238  -14.0369 N   0  0  0  0  0  0  0  0  0  0  0  0
   -6.3002    4.1560  -13.3724 H   0  0  0  0  0  0  0  0  0  0  0  0
   -6.4342    4.6000  -15.3023 C   0  0  0  0  0  0  0  0  0  0  0  0
   -7.2839    4.5293  -16.4839 C   0  0  0  0  0  0  0  0  0  0  0  0
   -6.7631    4.5898  -17.7309 C   0  0  0  0  0  0  0  0  0  0  0  0
   -5.3613    4.8005  -17.9119 C   0  0  0  0  0  0  0  0  0  0  0  0
   -4.6045    4.9596  -18.9867 N   0  0  0  0  0  0  0  0  0  0  0  0
   -3.3419    5.2213  -18.5305 C   0  0  0  0  0  0  0  0  0  0  0  0
   -3.3240    5.1872  -17.1675 C   0  0  0  0  0  0  0  0  0  0  0  0
   -2.0733    5.5106  -16.0693 Cl  0  0  0  0  0  0  0  0  0  0  0  0
   -4.5939    4.8888  -16.7533 N   0  0  0  0  0  0  0  0  0  0  0  0
   -5.1114    4.7448  -15.4729 C   0  0  0  0  0  0  0  0  0  0  0  0
   -8.2843    4.8007  -12.0068 C   0  0  0  0  0  0  0  0  0  0  0  0
   -8.0954    5.9461  -11.2348 C   0  0  0  0  0  0  0  0  0  0  0  0
   -8.0185    5.9750   -9.8789 N   0  0  0  0  0  0  0  0  0  0  0  0
   -8.1946    4.7564   -9.2989 C   0  0  0  0  0  0  0  0  0  0  0  0
   -8.2245    4.3783   -7.9380 C   0  0  0  0  0  0  0  0  0  0  0  0
   -8.4404    3.0172   -7.9230 C   0  0  0  0  0  0  0  0  0  0  0  0
   -8.5345    2.5323   -9.1893 O   0  0  0  0  0  0  0  0  0  0  0  0
   -8.3913    3.5884  -10.0261 C   0  0  0  0  0  0  0  0  0  0  0  0
   -8.4257    3.5515  -11.4097 C   0  0  0  0  0  0  0  0  0  0  0  0
  1  2  2  0  0  0
  2  3  1  0  0  0
  3  5  1  0  0  0
  5  6  1  0  0  0
  6  7  2  0  0  0
  7  8  1  0  0  0
  8  9  2  0  0  0
  9 10  1  0  0  0
 10 11  2  0  0  0
 11 12  1  0  0  0
 11 13  1  0  0  0
 13 14  1  0  0  0
  2 15  1  0  0  0
 15 16  2  0  0  0
 16 17  1  0  0  0
 17 18  2  0  0  0
 18 19  1  0  0  0
 19 20  2  0  0  0
 20 21  1  0  0  0
 21 22  1  0  0  0
 22 23  2  0  0  0
 14  5  2  0  0  0
 23 15  1  0  0  0
 13  8  1  0  0  0
 22 18  1  0  0  0
  3  4  1  0  0  0
M  END
> <minimizedAffinity>
-6.89294

> <minimizedRMSD>
0.68279

$$$$
P55659


 23 26  0  0  0  0  0  0  0  0999 V2000
   -8.4235    5.6053  -13.6341 C   0  0  0  0  0  0  0  0  0  0  0  0
   -9.3557    6.1666  -14.0554 O   0  0  0  0  0  0  0  0  0  0  0  0
   -7.2169    4.9713  -14.3686 N   0  0  0  0  0  0  0  0  0  0  0  0
   -6.5134    4.6183  -13.7773 H   0  0  0  0  0  0  0  0  0  0  0  0
   -8.7812    2.0069   -7.2977 C   0  0  0  0  0  0  0  0  0  0  0  0
   -8.5905    2.9426   -8.4266 C   0  0  0  0  0  0  0  0  0  0  0  0
   -8.6522    2.6526   -9.7688 C   0  0  0  0  0  0  0  0  0  0  0  0
   -8.4276    3.8246  -10.4209 N   0  0  0  0  0  0  0  0  0  0  0  0
   -8.4066    4.0767  -11.7829 C   0  0  0  0  0  0  0  0  0  0  0  0
   -8.2509    5.3462  -12.1904 C   0  0  0  0  0  0  0  0  0  0  0  0
   -8.0747    6.4104  -11.2168 C   0  0  0  0  0  0  0  0  0  0  0  0
   -8.0746    6.1412   -9.8957 C   0  0  0  0  0  0  0  0  0  0  0  0
   -8.2643    4.8015   -9.4464 C   0  0  0  0  0  0  0  0  0  0  0  0
   -8.3481    4.2892   -8.2357 N   0  0  0  0  0  0  0  0  0  0  0  0
   -6.9657    4.8198  -15.7264 C   0  0  0  0  0  0  0  0  0  0  0  0
   -5.6556    4.9785  -16.2060 C   0  0  0  0  0  0  0  0  0  0  0  0
   -5.3827    4.9336  -17.5784 C   0  0  0  0  0  0  0  0  0  0  0  0
   -6.3959    4.6870  -18.5094 C   0  0  0  0  0  0  0  0  0  0  0  0
   -7.6604    4.4463  -17.9918 C   0  0  0  0  0  0  0  0  0  0  0  0
   -8.7938    4.1286  -18.6800 O   0  0  0  0  0  0  0  0  0  0  0  0
   -9.7393    4.0238  -17.7093 C   0  0  0  0  0  0  0  0  0  0  0  0
   -9.3048    4.1816  -16.4818 N   0  0  0  0  0  0  0  0  0  0  0  0
   -7.9805    4.5009  -16.6462 C   0  0  0  0  0  0  0  0  0  0  0  0
  5  6  1  0  0  0
  6  7  2  0  0  0
  7  8  1  0  0  0
  8  9  1  0  0  0
  9 10  2  0  0  0
 10  1  1  0  0  0
  1  2  2  0  0  0
  1  3  1  0  0  0
  3 15  1  0  0  0
 15 16  2  0  0  0
 16 17  1  0  0  0
 17 18  2  0  0  0
 18 19  1  0  0  0
 19 20  1  0  0  0
 20 21  1  0  0  0
 21 22  2  0  0  0
 22 23  1  0  0  0
 10 11  1  0  0  0
 11 12  2  0  0  0
 12 13  1  0  0  0
 13 14  2  0  0  0
 14  6  1  0  0  0
 13  8  1  0  0  0
 23 15  1  0  0  0
 23 19  2  0  0  0
  3  4  1  0  0  0
M  END
> <minimizedAffinity>
-8.20591

> <minimizedRMSD>
0.28146

$$$$
P55781


 14 15  0  0  0  0  0  0  0  0999 V2000
   -8.0300    4.6547  -15.8887 C   0  0  0  0  0  0  0  0  0  0  0  0
   -9.1676    4.1270  -16.7765 C   0  0  0  0  0  0  0  0  0  0  0  0
   -9.0128    4.4162  -18.2676 C   0  0  0  0  0  0  0  0  0  0  0  0
   -8.1518    5.5644  -18.4989 N   0  0  0  0  0  0  0  0  0  0  0  0
   -6.7912    5.3510  -17.9795 C   0  0  0  0  0  0  0  0  0  0  0  0
   -5.6720    5.1238  -18.9696 C   0  0  0  0  0  0  0  0  0  0  0  0
   -5.7970    6.4481  -18.2937 C   0  0  0  0  0  0  0  0  0  0  0  0
   -6.6838    4.6595  -16.6223 C   0  0  0  0  0  0  0  0  0  0  0  0
   -8.5569    6.3776  -18.0353 H   0  0  0  0  0  0  0  0  0  0  0  0
   -8.0940    4.0448  -14.5397 N   0  0  0  0  0  0  0  0  0  0  0  0
   -8.6128    4.6835  -13.9371 H   0  0  0  0  0  0  0  0  0  0  0  0
   -6.8198    3.7552  -13.8833 C   0  0  0  0  0  0  0  0  0  0  0  0
   -5.7531    2.1873  -12.2005 C   0  0  0  0  0  0  0  0  0  0  0  0
   -6.9414    2.4296  -13.1177 C   0  0  0  0  0  0  0  0  0  0  0  0
 13 14  1  0  0  0
 14 12  1  0  0  0
 12 10  1  0  0  0
  1 10  1  0  0  0
  1  2  1  0  0  0
  2  3  1  0  0  0
  3  4  1  0  0  0
  4  5  1  0  0  0
  5  6  1  0  0  0
  6  7  1  0  0  0
  5  8  1  0  0  0
  8  1  1  0  0  0
  7  5  1  0  0  0
 10 11  1  0  0  0
  4  9  1  0  0  0
M  END
> <minimizedAffinity>
-4.75931

> <minimizedRMSD>
0.59105

$$$$
P55794


 13 13  0  0  0  0  0  0  0  0999 V2000
   -4.9798    5.9622  -16.5172 C   0  0  0  0  0  0  0  0  0  0  0  0
   -5.4804    4.6966  -15.9889 N   0  0  0  0  0  0  0  0  0  0  0  0
   -6.8742    4.7459  -15.5833 C   0  0  0  0  0  0  0  0  0  0  0  0
   -7.7592    4.6645  -16.8240 C   0  0  0  0  0  0  0  0  0  0  0  0
   -7.1772    5.3622  -18.0492 C   0  0  0  0  0  0  0  0  0  0  0  0
   -6.1695    6.8097  -17.6190 S   0  0  0  0  0  0  0  0  0  0  0  0
   -4.9174    4.4407  -15.1777 H   0  0  0  0  0  0  0  0  0  0  0  0
   -3.6029    4.6920  -18.3207 C   0  0  0  0  0  0  0  0  0  0  0  0
   -3.6190    5.7846  -17.2440 C   0  0  0  0  0  0  0  0  0  0  0  0
   -2.4483    5.6182  -16.2494 C   0  0  0  0  0  0  0  0  0  0  0  0
   -2.6647    4.6518  -15.1805 N   0  0  0  0  0  0  0  0  0  0  0  0
   -3.4419    4.9596  -14.5961 H   0  0  0  0  0  0  0  0  0  0  0  0
   -1.8206    4.5783  -14.6126 H   0  0  0  0  0  0  0  0  0  0  0  0
  9  8  1  0  0  0
  9 10  1  0  0  0
 10 11  1  0  0  0
  9  1  1  0  0  0
  1  2  1  0  0  0
  2  3  1  0  0  0
  3  4  1  0  0  0
  4  5  1  0  0  0
  5  6  1  0  0  0
  6  1  1  0  0  0
 11 12  1  0  0  0
 11 13  1  0  0  0
  2  7  1  0  0  0
M  END
> <minimizedAffinity>
-2.73292

> <minimizedRMSD>
0.87678

$$$$
P55795


 13 13  0  0  0  0  0  0  0  0999 V2000
   -5.4682    5.8128  -16.7753 C   0  0  0  0  0  0  0  0  0  0  0  0
   -6.0230    4.8133  -15.8472 N   0  0  0  0  0  0  0  0  0  0  0  0
   -7.4456    5.0070  -15.5772 C   0  0  0  0  0  0  0  0  0  0  0  0
   -8.2966    4.5704  -16.7682 C   0  0  0  0  0  0  0  0  0  0  0  0
   -7.6383    4.8005  -18.1200 C   0  0  0  0  0  0  0  0  0  0  0  0
   -6.6158    6.3001  -18.1012 S   0  0  0  0  0  0  0  0  0  0  0  0
   -5.5145    4.8724  -14.9649 H   0  0  0  0  0  0  0  0  0  0  0  0
   -4.0333    5.3857  -17.2867 C   0  0  0  0  0  0  0  0  0  0  0  0
   -3.4424    4.3691  -16.3682 N   0  0  0  0  0  0  0  0  0  0  0  0
   -3.9997    3.5154  -16.4023 H   0  0  0  0  0  0  0  0  0  0  0  0
   -3.4370    4.7338  -15.4157 H   0  0  0  0  0  0  0  0  0  0  0  0
   -3.0074    5.4755  -19.6759 C   0  0  0  0  0  0  0  0  0  0  0  0
   -3.9481    4.7770  -18.7029 C   0  0  0  0  0  0  0  0  0  0  0  0
 12 13  1  0  0  0
 13  8  1  0  0  0
  8  9  1  0  0  0
  8  1  1  0  0  0
  1  2  1  0  0  0
  2  3  1  0  0  0
  3  4  1  0  0  0
  4  5  1  0  0  0
  5  6  1  0  0  0
  6  1  1  0  0  0
  9 10  1  0  0  0
  9 11  1  0  0  0
  2  7  1  0  0  0
M  END
> <minimizedAffinity>
-3.19945

> <minimizedRMSD>
1.23183

$$$$
P55811


 15 16  0  0  0  0  0  0  0  0999 V2000
   -4.6453    5.0225  -17.6648 C   0  0  0  0  0  0  0  0  0  0  0  0
   -5.1467    5.1020  -16.4476 N   0  0  0  0  0  0  0  0  0  0  0  0
   -6.4888    4.9038  -16.6517 C   0  0  0  0  0  0  0  0  0  0  0  0
   -7.5425    4.7913  -15.7465 C   0  0  0  0  0  0  0  0  0  0  0  0
   -8.8179    4.5605  -16.2734 C   0  0  0  0  0  0  0  0  0  0  0  0
   -9.0553    4.4675  -17.6488 C   0  0  0  0  0  0  0  0  0  0  0  0
   -8.0067    4.5715  -18.5607 C   0  0  0  0  0  0  0  0  0  0  0  0
   -6.7520    4.7780  -18.0057 C   0  0  0  0  0  0  0  0  0  0  0  0
   -5.5644    4.8564  -18.6620 O   0  0  0  0  0  0  0  0  0  0  0  0
   -3.2203    4.9481  -18.0530 C   0  0  0  0  0  0  0  0  0  0  0  0
   -2.9305    4.6525  -19.5242 C   0  0  0  0  0  0  0  0  0  0  0  0
   -1.3563    3.5761  -21.1271 N   0  0  0  0  0  0  0  0  0  0  0  0
   -1.5564    4.0209  -19.7409 C   0  0  0  0  0  0  0  0  0  0  0  0
   -0.4283    3.1632  -21.2210 H   0  0  0  0  0  0  0  0  0  0  0  0
   -1.4381    4.3752  -21.7557 H   0  0  0  0  0  0  0  0  0  0  0  0
 12 13  1  0  0  0
 13 11  1  0  0  0
 11 10  1  0  0  0
 10  1  1  0  0  0
  1  2  2  0  0  0
  2  3  1  0  0  0
  3  4  2  0  0  0
  4  5  1  0  0  0
  5  6  2  0  0  0
  6  7  1  0  0  0
  7  8  2  0  0  0
  8  9  1  0  0  0
  9  1  1  0  0  0
  8  3  1  0  0  0
 12 14  1  0  0  0
 12 15  1  0  0  0
M  END
> <minimizedAffinity>
-5.32477

> <minimizedRMSD>
1.31465

$$$$
P55820


 14 15  0  0  0  0  0  0  0  0999 V2000
   -4.4494    5.1831  -17.9518 C   0  0  0  0  0  0  0  0  0  0  0  0
   -4.8193    5.0365  -16.7038 N   0  0  0  0  0  0  0  0  0  0  0  0
   -6.1964    4.8583  -16.6580 C   0  0  0  0  0  0  0  0  0  0  0  0
   -6.9734    4.7081  -15.4978 C   0  0  0  0  0  0  0  0  0  0  0  0
   -8.3597    4.5956  -15.6185 C   0  0  0  0  0  0  0  0  0  0  0  0
   -8.9812    4.6077  -16.8639 C   0  0  0  0  0  0  0  0  0  0  0  0
   -8.2310    4.7225  -18.0271 C   0  0  0  0  0  0  0  0  0  0  0  0
   -6.8438    4.8552  -17.8940 C   0  0  0  0  0  0  0  0  0  0  0  0
   -5.6818    5.0431  -19.1248 S   0  0  0  0  0  0  0  0  0  0  0  0
   -3.2075    5.4451  -18.4079 N   0  0  0  0  0  0  0  0  0  0  0  0
   -3.0505    5.5927  -19.3685 H   0  0  0  0  0  0  0  0  0  0  0  0
   -2.1130    5.5064  -17.4724 C   0  0  0  0  0  0  0  0  0  0  0  0
   -0.6846    4.7548  -19.4493 C   0  0  0  0  0  0  0  0  0  0  0  0
   -0.7761    5.6306  -18.2057 C   0  0  0  0  0  0  0  0  0  0  0  0
 13 14  1  0  0  0
 14 12  1  0  0  0
 12 10  1  0  0  0
 10  1  1  0  0  0
  1  2  2  0  0  0
  2  3  1  0  0  0
  3  4  2  0  0  0
  4  5  1  0  0  0
  5  6  2  0  0  0
  6  7  1  0  0  0
  7  8  2  0  0  0
  8  9  1  0  0  0
  9  1  1  0  0  0
  8  3  1  0  0  0
 10 11  1  0  0  0
M  END
> <minimizedAffinity>
-4.20241

> <minimizedRMSD>
0.65290

$$$$
P55837


 22 24  0  0  0  0  0  0  0  0999 V2000
   -5.6156    5.4544  -16.2408 N   0  0  0  0  0  0  0  0  0  0  0  0
   -5.0734    5.4839  -17.5146 C   0  0  0  0  0  0  0  0  0  0  0  0
   -5.9198    4.9868  -18.3951 N   0  0  0  0  0  0  0  0  0  0  0  0
   -7.0450    4.6522  -17.7010 C   0  0  0  0  0  0  0  0  0  0  0  0
   -8.2621    4.1650  -18.1883 C   0  0  0  0  0  0  0  0  0  0  0  0
   -9.3050    4.0055  -17.2871 C   0  0  0  0  0  0  0  0  0  0  0  0
  -10.5354    3.7610  -17.7556 F   0  0  0  0  0  0  0  0  0  0  0  0
   -9.1240    4.2019  -15.9236 C   0  0  0  0  0  0  0  0  0  0  0  0
   -7.9033    4.6513  -15.4154 C   0  0  0  0  0  0  0  0  0  0  0  0
   -6.8854    4.9148  -16.3414 C   0  0  0  0  0  0  0  0  0  0  0  0
   -3.7378    6.0709  -17.8900 C   0  0  0  0  0  0  0  0  0  0  0  0
   -2.5773    5.1096  -17.6553 C   0  0  0  0  0  0  0  0  0  0  0  0
   -1.7619    5.1805  -18.9308 C   0  0  0  0  0  0  0  0  0  0  0  0
   -2.8198    5.4332  -19.9772 C   0  0  0  0  0  0  0  0  0  0  0  0
   -3.7009    6.4088  -19.3340 N   0  0  0  0  0  0  0  0  0  0  0  0
   -4.6383    6.3505  -19.7318 H   0  0  0  0  0  0  0  0  0  0  0  0
   -5.8910    6.9728  -14.2667 C   0  0  0  0  0  0  0  0  0  0  0  0
   -4.9966    6.0006  -15.0363 C   0  0  0  0  0  0  0  0  0  0  0  0
   -4.4003    4.9106  -14.1751 C   0  0  0  0  0  0  0  0  0  0  0  0
   -3.2630    4.4762  -14.2918 O   0  0  0  0  0  0  0  0  0  0  0  0
   -5.2388    4.3947  -13.2572 O   0  0  0  0  0  0  0  0  0  0  0  0
   -6.1085    4.7334  -13.1744 H   0  0  0  0  0  0  0  0  0  0  0  0
 18 17  1  0  0  0
 18 19  1  0  0  0
 19 20  2  0  0  0
 19 21  1  0  0  0
 18  1  1  0  0  0
  1  2  1  0  0  0
 11  2  1  0  0  0
 11 12  1  0  0  0
 12 13  1  0  0  0
 13 14  1  0  0  0
 14 15  1  0  0  0
  2  3  2  0  0  0
  3  4  1  0  0  0
  4  5  2  0  0  0
  5  6  1  0  0  0
  6  7  1  0  0  0
  6  8  2  0  0  0
  8  9  1  0  0  0
  9 10  2  0  0  0
 10  1  1  0  0  0
 15 11  1  0  0  0
 10  4  1  0  0  0
 21 22  1  0  0  0
 15 16  1  0  0  0
M  END
> <minimizedAffinity>
-6.18778

> <minimizedRMSD>
0.54109

$$$$
P55893


 25 28  0  0  0  0  0  0  0  0999 V2000
   -7.9542    3.7846  -10.9074 N   0  0  0  0  0  0  0  0  0  0  0  0
   -6.5847    3.5883  -11.5974 C   0  0  0  0  0  0  0  0  0  0  0  0
   -5.5464    3.2938  -11.1496 O   0  0  0  0  0  0  0  0  0  0  0  0
   -8.7035    3.9599  -11.5214 H   0  0  0  0  0  0  0  0  0  0  0  0
   -6.7166    3.9439  -13.0150 C   0  0  0  0  0  0  0  0  0  0  0  0
   -7.8789    4.0958  -13.7380 C   0  0  0  0  0  0  0  0  0  0  0  0
   -7.6813    4.5792  -15.0660 C   0  0  0  0  0  0  0  0  0  0  0  0
   -6.3290    4.7449  -15.3295 C   0  0  0  0  0  0  0  0  0  0  0  0
   -5.3577    4.3232  -13.9742 S   0  0  0  0  0  0  0  0  0  0  0  0
   -5.6672    5.2783  -16.5667 C   0  0  0  0  0  0  0  0  0  0  0  0
   -6.2229    4.7183  -17.8638 C   0  0  0  0  0  0  0  0  0  0  0  0
   -7.7062    5.0090  -18.0975 C   0  0  0  0  0  0  0  0  0  0  0  0
   -8.6116    4.2375  -17.2579 N   0  0  0  0  0  0  0  0  0  0  0  0
   -8.8467    4.8453  -15.9725 C   0  0  0  0  0  0  0  0  0  0  0  0
   -8.2085    3.3122  -17.1106 H   0  0  0  0  0  0  0  0  0  0  0  0
   -7.4703    5.9847   -8.7485 C   0  0  0  0  0  0  0  0  0  0  0  0
   -8.0434    4.6783   -8.6073 N   0  0  0  0  0  0  0  0  0  0  0  0
   -8.2918    3.7546   -9.5935 C   0  0  0  0  0  0  0  0  0  0  0  0
   -9.0209    2.7701   -9.1304 N   0  0  0  0  0  0  0  0  0  0  0  0
   -9.1800    3.0048   -7.7958 C   0  0  0  0  0  0  0  0  0  0  0  0
   -9.8466    2.2427   -6.8311 C   0  0  0  0  0  0  0  0  0  0  0  0
   -9.9269    2.7262   -5.5237 C   0  0  0  0  0  0  0  0  0  0  0  0
   -9.3308    3.9354   -5.1715 C   0  0  0  0  0  0  0  0  0  0  0  0
   -8.6408    4.6999   -6.1166 C   0  0  0  0  0  0  0  0  0  0  0  0
   -8.5869    4.2054   -7.4287 C   0  0  0  0  0  0  0  0  0  0  0  0
 16 17  1  0  0  0
 17 18  1  0  0  0
 18  1  1  0  0  0
  1  2  1  0  0  0
  2  3  2  0  0  0
  2  5  1  0  0  0
  5  6  2  0  0  0
  6  7  1  0  0  0
  7  8  2  0  0  0
  8  9  1  0  0  0
  8 10  1  0  0  0
 10 11  1  0  0  0
 11 12  1  0  0  0
 12 13  1  0  0  0
 13 14  1  0  0  0
 18 19  2  0  0  0
 19 20  1  0  0  0
 20 21  2  0  0  0
 21 22  1  0  0  0
 22 23  2  0  0  0
 23 24  1  0  0  0
 24 25  2  0  0  0
 25 17  1  0  0  0
  9  5  1  0  0  0
 25 20  1  0  0  0
 14  7  1  0  0  0
  1  4  1  0  0  0
 13 15  1  0  0  0
M  END
> <minimizedAffinity>
-7.41359

> <minimizedRMSD>
1.41488

$$$$
P55921


 24 26  0  0  0  0  0  0  0  0999 V2000
   -3.8585    6.8918  -20.3947 N   0  0  0  0  0  0  0  0  0  0  0  0
   -3.7423    7.7118  -19.1962 C   0  0  0  0  0  0  0  0  0  0  0  0
   -3.0887    6.9552  -18.0280 C   0  0  0  0  0  0  0  0  0  0  0  0
   -3.2393    5.4277  -18.1305 C   0  0  0  0  0  0  0  0  0  0  0  0
   -2.7074    4.9356  -19.4960 C   0  0  0  0  0  0  0  0  0  0  0  0
   -2.7301    6.0085  -20.6014 C   0  0  0  0  0  0  0  0  0  0  0  0
   -4.6682    4.9946  -17.8616 C   0  0  0  0  0  0  0  0  0  0  0  0
   -5.7127    4.7375  -18.7301 C   0  0  0  0  0  0  0  0  0  0  0  0
   -6.8939    4.5336  -17.9754 C   0  0  0  0  0  0  0  0  0  0  0  0
   -8.2450    4.3366  -18.3177 C   0  0  0  0  0  0  0  0  0  0  0  0
   -9.1935    4.2108  -17.3016 C   0  0  0  0  0  0  0  0  0  0  0  0
   -8.8018    4.2501  -15.9654 C   0  0  0  0  0  0  0  0  0  0  0  0
   -7.4629    4.4281  -15.6009 C   0  0  0  0  0  0  0  0  0  0  0  0
   -6.5305    4.5854  -16.6321 C   0  0  0  0  0  0  0  0  0  0  0  0
   -5.1710    4.8140  -16.5894 N   0  0  0  0  0  0  0  0  0  0  0  0
   -4.6336    4.8442  -15.7651 H   0  0  0  0  0  0  0  0  0  0  0  0
   -4.4238    7.5734  -21.5537 C   0  0  0  0  0  0  0  0  0  0  0  0
   -3.6267    6.7928  -23.7503 N   0  0  0  0  0  0  0  0  0  0  0  0
   -3.3915    7.8576  -22.6497 C   0  0  0  0  0  0  0  0  0  0  0  0
   -2.5956    8.7090  -22.5784 O   0  0  0  0  0  0  0  0  0  0  0  0
   -4.4201    6.2263  -23.6132 H   0  0  0  0  0  0  0  0  0  0  0  0
   -2.8816    6.5003  -24.9281 C   0  0  0  0  0  0  0  0  0  0  0  0
   -0.4390    6.4090  -24.3860 C   0  0  0  0  0  0  0  0  0  0  0  0
   -1.6424    5.8231  -24.4533 C   0  0  0  0  0  0  0  0  0  0  0  0
 23 24  2  0  0  0
 24 22  1  0  0  0
 22 18  1  0  0  0
 18 19  1  0  0  0
 19 20  2  0  0  0
 19 17  1  0  0  0
 17  1  1  0  0  0
  1  2  1  0  0  0
  2  3  1  0  0  0
  3  4  1  0  0  0
  4  7  1  0  0  0
  7  8  2  0  0  0
  8  9  1  0  0  0
  9 10  2  0  0  0
 10 11  1  0  0  0
 11 12  2  0  0  0
 12 13  1  0  0  0
 13 14  2  0  0  0
 14 15  1  0  0  0
  4  5  1  0  0  0
  5  6  1  0  0  0
  6  1  1  0  0  0
 15  7  1  0  0  0
 14  9  1  0  0  0
 18 21  1  0  0  0
 15 16  1  0  0  0
M  END
> <minimizedAffinity>
-5.97247

> <minimizedRMSD>
1.27370

$$$$
P55927


 24 26  0  0  0  0  0  0  0  0999 V2000
   -3.3020    6.7151  -20.8750 N   0  0  0  0  0  0  0  0  0  0  0  0
   -3.6607    7.5258  -19.7066 C   0  0  0  0  0  0  0  0  0  0  0  0
   -3.1929    6.9544  -18.3575 C   0  0  0  0  0  0  0  0  0  0  0  0
   -3.3087    5.4248  -18.2502 C   0  0  0  0  0  0  0  0  0  0  0  0
   -2.7791    4.7271  -19.5138 C   0  0  0  0  0  0  0  0  0  0  0  0
   -2.2884    5.7042  -20.5836 C   0  0  0  0  0  0  0  0  0  0  0  0
   -4.7190    5.0021  -17.9210 C   0  0  0  0  0  0  0  0  0  0  0  0
   -5.7954    4.7660  -18.7531 C   0  0  0  0  0  0  0  0  0  0  0  0
   -6.9445    4.5481  -17.9520 C   0  0  0  0  0  0  0  0  0  0  0  0
   -8.3096    4.3592  -18.2384 C   0  0  0  0  0  0  0  0  0  0  0  0
   -9.2158    4.2275  -17.1848 C   0  0  0  0  0  0  0  0  0  0  0  0
   -8.7691    4.2478  -15.8658 C   0  0  0  0  0  0  0  0  0  0  0  0
   -7.4150    4.4096  -15.5556 C   0  0  0  0  0  0  0  0  0  0  0  0
   -6.5264    4.5767  -16.6231 C   0  0  0  0  0  0  0  0  0  0  0  0
   -5.1658    4.7962  -16.6330 N   0  0  0  0  0  0  0  0  0  0  0  0
   -4.5930    4.8049  -15.8323 H   0  0  0  0  0  0  0  0  0  0  0  0
   -2.9479    7.5090  -22.0615 C   0  0  0  0  0  0  0  0  0  0  0  0
   -4.1131    7.8181  -23.0146 C   0  0  0  0  0  0  0  0  0  0  0  0
   -5.2593    7.3748  -22.8937 O   0  0  0  0  0  0  0  0  0  0  0  0
   -2.4165    8.6914  -24.7381 C   0  0  0  0  0  0  0  0  0  0  0  0
   -3.8030    8.8431  -24.1303 C   0  0  0  0  0  0  0  0  0  0  0  0
   -4.8191    8.7314  -25.1967 N   0  0  0  0  0  0  0  0  0  0  0  0
   -4.7706    7.8031  -25.6167 H   0  0  0  0  0  0  0  0  0  0  0  0
   -4.6414    9.4375  -25.9110 H   0  0  0  0  0  0  0  0  0  0  0  0
 21 20  1  0  0  0
 21 22  1  0  0  0
 21 18  1  0  0  0
 18 19  2  0  0  0
 18 17  1  0  0  0
 17  1  1  0  0  0
  1  2  1  0  0  0
  2  3  1  0  0  0
  3  4  1  0  0  0
  4  7  1  0  0  0
  7  8  2  0  0  0
  8  9  1  0  0  0
  9 10  2  0  0  0
 10 11  1  0  0  0
 11 12  2  0  0  0
 12 13  1  0  0  0
 13 14  2  0  0  0
 14 15  1  0  0  0
  4  5  1  0  0  0
  5  6  1  0  0  0
  6  1  1  0  0  0
 15  7  1  0  0  0
 14  9  1  0  0  0
 22 23  1  0  0  0
 22 24  1  0  0  0
 15 16  1  0  0  0
M  END
> <minimizedAffinity>
-6.00139

> <minimizedRMSD>
0.76028

$$$$
P56082


 12 13  0  0  0  0  0  0  0  0999 V2000
   -8.2507    4.4787  -18.9125 C   0  0  0  0  0  0  0  0  0  0  0  0
   -9.2491    4.2242  -17.9859 C   0  0  0  0  0  0  0  0  0  0  0  0
   -8.9192    4.1712  -16.6357 C   0  0  0  0  0  0  0  0  0  0  0  0
   -7.6012    4.3787  -16.2506 C   0  0  0  0  0  0  0  0  0  0  0  0
   -6.6260    4.6877  -17.1355 N   0  0  0  0  0  0  0  0  0  0  0  0
   -6.9671    4.7074  -18.4459 C   0  0  0  0  0  0  0  0  0  0  0  0
   -7.1527    4.2006  -14.8756 C   0  0  0  0  0  0  0  0  0  0  0  0
   -6.3238    4.9683  -14.0799 C   0  0  0  0  0  0  0  0  0  0  0  0
   -6.0415    4.3478  -12.8871 N   0  0  0  0  0  0  0  0  0  0  0  0
   -6.6727    3.1995  -12.9449 C   0  0  0  0  0  0  0  0  0  0  0  0
   -7.3689    3.0726  -14.1125 N   0  0  0  0  0  0  0  0  0  0  0  0
   -7.9306    2.3050  -14.3667 H   0  0  0  0  0  0  0  0  0  0  0  0
  1  2  2  0  0  0
  2  3  1  0  0  0
  3  4  2  0  0  0
  4  7  1  0  0  0
  7  8  2  0  0  0
  8  9  1  0  0  0
  9 10  2  0  0  0
 10 11  1  0  0  0
  4  5  1  0  0  0
  5  6  2  0  0  0
  6  1  1  0  0  0
 11  7  1  0  0  0
 11 12  1  0  0  0
M  END
> <minimizedAffinity>
-4.69618

> <minimizedRMSD>
0.71149

$$$$
P56091


 16 18  0  0  0  0  0  0  0  0999 V2000
   -5.6534    4.7733  -15.3275 C   0  0  0  0  0  0  0  0  0  0  0  0
   -5.0133    4.8968  -16.5765 C   0  0  0  0  0  0  0  0  0  0  0  0
   -5.7004    4.7687  -17.8045 C   0  0  0  0  0  0  0  0  0  0  0  0
   -7.0702    4.5342  -17.5582 C   0  0  0  0  0  0  0  0  0  0  0  0
   -8.0189    4.3777  -18.5440 C   0  0  0  0  0  0  0  0  0  0  0  0
   -9.5997    4.1438  -17.8987 S   0  0  0  0  0  0  0  0  0  0  0  0
   -9.0265    4.2193  -16.2840 C   0  0  0  0  0  0  0  0  0  0  0  0
   -7.6733    4.4319  -16.2513 C   0  0  0  0  0  0  0  0  0  0  0  0
   -6.9735    4.5512  -15.0959 N   0  0  0  0  0  0  0  0  0  0  0  0
   -4.9955    4.9684  -19.1267 C   0  0  0  0  0  0  0  0  0  0  0  0
   -3.4965    4.5753  -19.1068 C   0  0  0  0  0  0  0  0  0  0  0  0
   -2.5820    5.7817  -19.2995 C   0  0  0  0  0  0  0  0  0  0  0  0
   -2.9627    6.5696  -20.5571 C   0  0  0  0  0  0  0  0  0  0  0  0
   -4.4027    6.7667  -20.7600 N   0  0  0  0  0  0  0  0  0  0  0  0
   -5.1746    6.4419  -19.5571 C   0  0  0  0  0  0  0  0  0  0  0  0
   -4.7133    6.1655  -21.5233 H   0  0  0  0  0  0  0  0  0  0  0  0
  1  2  1  0  0  0
  2  3  2  0  0  0
 10  3  1  0  0  0
 10 11  1  0  0  0
 11 12  1  0  0  0
 12 13  1  0  0  0
 13 14  1  0  0  0
 14 15  1  0  0  0
  3  4  1  0  0  0
  4  5  2  0  0  0
  5  6  1  0  0  0
  6  7  1  0  0  0
  7  8  2  0  0  0
  8  9  1  0  0  0
  9  1  2  0  0  0
 15 10  1  0  0  0
  8  4  1  0  0  0
 14 16  1  0  0  0
M  END
> <minimizedAffinity>
-6.04444

> <minimizedRMSD>
0.68918

$$$$
P56126


 21 24  0  0  0  0  0  0  0  0999 V2000
   -7.1441    4.6595  -14.4931 C   0  0  0  0  0  0  0  0  0  0  0  0
   -4.6924    5.3347  -18.8936 C   0  0  0  0  0  0  0  0  0  0  0  0
   -4.4253    5.4690  -17.5473 C   0  0  0  0  0  0  0  0  0  0  0  0
   -5.3395    5.2703  -16.5734 N   0  0  0  0  0  0  0  0  0  0  0  0
   -6.5918    4.8963  -16.9256 C   0  0  0  0  0  0  0  0  0  0  0  0
   -7.5619    4.6266  -15.9496 C   0  0  0  0  0  0  0  0  0  0  0  0
   -8.8723    4.2741  -16.3238 C   0  0  0  0  0  0  0  0  0  0  0  0
   -9.2193    4.1536  -17.6635 C   0  0  0  0  0  0  0  0  0  0  0  0
   -8.2591    4.3779  -18.6416 C   0  0  0  0  0  0  0  0  0  0  0  0
   -6.9549    4.7512  -18.2839 C   0  0  0  0  0  0  0  0  0  0  0  0
   -5.9807    4.9773  -19.2639 C   0  0  0  0  0  0  0  0  0  0  0  0
   -8.2306    4.4718  -13.5823 O   0  0  0  0  0  0  0  0  0  0  0  0
   -8.3245    5.3200  -12.5091 C   0  0  0  0  0  0  0  0  0  0  0  0
   -8.3716    6.6695  -12.5638 C   0  0  0  0  0  0  0  0  0  0  0  0
   -8.3633    7.4844  -11.3618 C   0  0  0  0  0  0  0  0  0  0  0  0
   -8.3273    6.8757  -10.1661 C   0  0  0  0  0  0  0  0  0  0  0  0
   -8.3265    5.4842  -10.1085 N   0  0  0  0  0  0  0  0  0  0  0  0
   -8.3114    4.6637   -9.0103 C   0  0  0  0  0  0  0  0  0  0  0  0
   -8.3091    3.3839   -9.5122 C   0  0  0  0  0  0  0  0  0  0  0  0
   -8.2900    3.3993  -10.8834 N   0  0  0  0  0  0  0  0  0  0  0  0
   -8.3291    4.6676  -11.2334 C   0  0  0  0  0  0  0  0  0  0  0  0
  2  3  2  0  0  0
  3  4  1  0  0  0
  4  5  2  0  0  0
  5  6  1  0  0  0
  6  1  1  0  0  0
  1 12  1  0  0  0
 12 13  1  0  0  0
 13 14  2  0  0  0
 14 15  1  0  0  0
 15 16  2  0  0  0
 16 17  1  0  0  0
 17 18  1  0  0  0
 18 19  2  0  0  0
 19 20  1  0  0  0
 20 21  2  0  0  0
  6  7  2  0  0  0
  7  8  1  0  0  0
  8  9  2  0  0  0
  9 10  1  0  0  0
 10 11  2  0  0  0
 11  2  1  0  0  0
 10  5  1  0  0  0
 21 13  1  0  0  0
 21 17  1  0  0  0
M  END
> <minimizedAffinity>
-7.13907

> <minimizedRMSD>
0.67933

$$$$
P56197


 17 19  0  0  0  0  0  0  0  0999 V2000
   -8.2687    3.9418  -18.4572 C   0  0  0  0  0  0  0  0  0  0  0  0
   -7.0169    4.4635  -18.7333 C   0  0  0  0  0  0  0  0  0  0  0  0
   -6.1974    4.9951  -17.7194 C   0  0  0  0  0  0  0  0  0  0  0  0
   -6.7504    4.8649  -16.4175 C   0  0  0  0  0  0  0  0  0  0  0  0
   -6.0494    5.2361  -14.8720 S   0  0  0  0  0  0  0  0  0  0  0  0
   -7.4629    4.8217  -14.0238 C   0  0  0  0  0  0  0  0  0  0  0  0
   -8.4427    4.3682  -14.8689 C   0  0  0  0  0  0  0  0  0  0  0  0
   -8.0312    4.3341  -16.2293 C   0  0  0  0  0  0  0  0  0  0  0  0
   -8.8104    3.8670  -17.2375 N   0  0  0  0  0  0  0  0  0  0  0  0
   -4.9683    5.5990  -18.0075 N   0  0  0  0  0  0  0  0  0  0  0  0
   -4.1415    5.1111  -19.1132 C   0  0  0  0  0  0  0  0  0  0  0  0
   -3.8821    6.1556  -20.1961 C   0  0  0  0  0  0  0  0  0  0  0  0
   -5.1170    6.9114  -20.6991 C   0  0  0  0  0  0  0  0  0  0  0  0
   -5.9497    7.6104  -19.7073 N   0  0  0  0  0  0  0  0  0  0  0  0
   -5.1681    8.0725  -18.5513 C   0  0  0  0  0  0  0  0  0  0  0  0
   -4.7101    6.9790  -17.5448 C   0  0  0  0  0  0  0  0  0  0  0  0
   -6.6749    6.9724  -19.3794 H   0  0  0  0  0  0  0  0  0  0  0  0
  1  2  2  0  0  0
  2  3  1  0  0  0
  3 10  1  0  0  0
 10 11  1  0  0  0
 11 12  1  0  0  0
 12 13  1  0  0  0
 13 14  1  0  0  0
 14 15  1  0  0  0
 15 16  1  0  0  0
  3  4  2  0  0  0
  4  5  1  0  0  0
  5  6  1  0  0  0
  6  7  2  0  0  0
  7  8  1  0  0  0
  8  9  2  0  0  0
  9  1  1  0  0  0
 16 10  1  0  0  0
  8  4  1  0  0  0
 14 17  1  0  0  0
M  END
> <minimizedAffinity>
-5.60027

> <minimizedRMSD>
0.39801

$$$$
P56198


 14 16  0  0  0  0  0  0  0  0999 V2000
   -8.1787    3.8379  -18.8237 C   0  0  0  0  0  0  0  0  0  0  0  0
   -6.9291    4.2877  -19.2030 C   0  0  0  0  0  0  0  0  0  0  0  0
   -6.0393    4.8310  -18.2681 C   0  0  0  0  0  0  0  0  0  0  0  0
   -6.5153    4.8282  -16.9380 C   0  0  0  0  0  0  0  0  0  0  0  0
   -5.7436    5.3796  -15.4931 S   0  0  0  0  0  0  0  0  0  0  0  0
   -7.0819    4.9831  -14.5199 C   0  0  0  0  0  0  0  0  0  0  0  0
   -8.0996    4.4325  -15.2564 C   0  0  0  0  0  0  0  0  0  0  0  0
   -7.7890    4.3311  -16.6383 C   0  0  0  0  0  0  0  0  0  0  0  0
   -8.6388    3.8264  -17.5682 N   0  0  0  0  0  0  0  0  0  0  0  0
   -4.6433    5.4543  -18.6029 C   0  0  0  0  0  0  0  0  0  0  0  0
   -4.5380    6.3900  -19.8395 C   0  0  0  0  0  0  0  0  0  0  0  0
   -3.1838    5.8405  -20.0973 N   0  0  0  0  0  0  0  0  0  0  0  0
   -3.5858    4.6179  -19.3603 C   0  0  0  0  0  0  0  0  0  0  0  0
   -2.4252    6.3656  -19.6624 H   0  0  0  0  0  0  0  0  0  0  0  0
  1  2  2  0  0  0
  2  3  1  0  0  0
  3 10  1  0  0  0
 10 11  1  0  0  0
 11 12  1  0  0  0
 12 13  1  0  0  0
  3  4  2  0  0  0
  4  5  1  0  0  0
  5  6  1  0  0  0
  6  7  2  0  0  0
  7  8  1  0  0  0
  8  9  2  0  0  0
  9  1  1  0  0  0
 13 10  1  0  0  0
  8  4  1  0  0  0
 12 14  1  0  0  0
M  END
> <minimizedAffinity>
-5.19634

> <minimizedRMSD>
0.51022

$$$$
P56221


 15 16  0  0  0  0  0  0  0  0999 V2000
   -7.5906    4.6760  -15.4764 C   0  0  0  0  0  0  0  0  0  0  0  0
   -8.6996    4.4581  -16.3337 C   0  0  0  0  0  0  0  0  0  0  0  0
   -8.3719    4.4557  -17.6242 N   0  0  0  0  0  0  0  0  0  0  0  0
   -7.0469    4.6601  -17.6085 N   0  0  0  0  0  0  0  0  0  0  0  0
   -6.5274    4.8424  -16.3528 C   0  0  0  0  0  0  0  0  0  0  0  0
   -5.0836    5.1572  -16.1620 C   0  0  0  0  0  0  0  0  0  0  0  0
   -4.2302    4.7814  -17.3753 C   0  0  0  0  0  0  0  0  0  0  0  0
   -4.8813    5.2401  -18.6717 C   0  0  0  0  0  0  0  0  0  0  0  0
   -6.2760    4.6450  -18.8328 C   0  0  0  0  0  0  0  0  0  0  0  0
   -7.6609    4.7452  -13.9929 C   0  0  0  0  0  0  0  0  0  0  0  0
   -4.9535    2.4843  -12.4248 C   0  0  0  0  0  0  0  0  0  0  0  0
   -6.2512    2.5723  -13.1967 C   0  0  0  0  0  0  0  0  0  0  0  0
   -6.8361    1.6367  -13.5737 O   0  0  0  0  0  0  0  0  0  0  0  0
   -6.5429    4.0809  -13.3852 N   0  0  0  0  0  0  0  0  0  0  0  0
   -5.8489    4.6825  -13.0306 H   0  0  0  0  0  0  0  0  0  0  0  0
 11 12  1  0  0  0
 12 13  2  0  0  0
 12 14  1  0  0  0
 14 10  1  0  0  0
 10  1  1  0  0  0
  1  2  1  0  0  0
  2  3  2  0  0  0
  3  4  1  0  0  0
  4  5  1  0  0  0
  5  6  1  0  0  0
  6  7  1  0  0  0
  7  8  1  0  0  0
  8  9  1  0  0  0
  5  1  2  0  0  0
  9  4  1  0  0  0
 14 15  1  0  0  0
M  END
> <minimizedAffinity>
-5.45487

> <minimizedRMSD>
0.30448

$$$$
P56256


 27 29  0  0  0  0  0  0  0  0999 V2000
   -5.3215    4.8420  -19.7562 N   0  0  0  0  0  0  0  0  0  0  0  0
   -5.4863    5.0698  -18.2423 C   0  0  0  0  0  0  0  0  0  0  0  0
   -4.7651    5.5633  -17.4683 O   0  0  0  0  0  0  0  0  0  0  0  0
   -6.1139    4.4683  -20.2052 H   0  0  0  0  0  0  0  0  0  0  0  0
   -6.8182    4.6209  -17.7403 C   0  0  0  0  0  0  0  0  0  0  0  0
   -7.9234    4.3845  -18.5729 C   0  0  0  0  0  0  0  0  0  0  0  0
   -9.1860    4.1380  -18.0357 C   0  0  0  0  0  0  0  0  0  0  0  0
   -9.3748    4.1095  -16.6510 C   0  0  0  0  0  0  0  0  0  0  0  0
   -8.2889    4.3417  -15.7904 C   0  0  0  0  0  0  0  0  0  0  0  0
   -8.1426    4.4299  -14.3782 C   0  0  0  0  0  0  0  0  0  0  0  0
   -6.8273    4.7382  -14.1115 C   0  0  0  0  0  0  0  0  0  0  0  0
   -6.1652    4.8123  -15.3090 N   0  0  0  0  0  0  0  0  0  0  0  0
   -7.0384    4.5837  -16.3519 C   0  0  0  0  0  0  0  0  0  0  0  0
   -5.2044    5.0015  -15.4104 H   0  0  0  0  0  0  0  0  0  0  0  0
   -3.8526    6.6007  -20.6474 C   0  0  0  0  0  0  0  0  0  0  0  0
   -4.1698    5.0926  -20.6435 C   0  0  0  0  0  0  0  0  0  0  0  0
   -2.9330    4.3031  -20.1345 C   0  0  0  0  0  0  0  0  0  0  0  0
   -2.2031    5.0128  -19.1339 O   0  0  0  0  0  0  0  0  0  0  0  0
   -1.8690    5.8441  -19.5059 H   0  0  0  0  0  0  0  0  0  0  0  0
   -4.5637    4.5998  -22.0678 C   0  0  0  0  0  0  0  0  0  0  0  0
   -4.1598    5.4605  -23.2388 C   0  0  0  0  0  0  0  0  0  0  0  0
   -2.8580    5.4035  -23.7550 C   0  0  0  0  0  0  0  0  0  0  0  0
   -2.4892    6.2048  -24.8374 C   0  0  0  0  0  0  0  0  0  0  0  0
   -3.4224    7.0629  -25.4141 C   0  0  0  0  0  0  0  0  0  0  0  0
   -2.9675    8.0429  -26.7526 Cl  0  0  0  0  0  0  0  0  0  0  0  0
   -4.7208    7.1300  -24.9153 C   0  0  0  0  0  0  0  0  0  0  0  0
   -5.0880    6.3331  -23.8291 C   0  0  0  0  0  0  0  0  0  0  0  0
 16 15  1  0  0  0
 16 17  1  0  0  0
 17 18  1  0  0  0
 16 20  1  0  0  0
 20 21  1  0  0  0
 21 22  2  0  0  0
 22 23  1  0  0  0
 23 24  2  0  0  0
 24 25  1  0  0  0
 24 26  1  0  0  0
 26 27  2  0  0  0
 16  1  1  0  0  0
  1  2  1  0  0  0
  2  3  2  0  0  0
  2  5  1  0  0  0
  5  6  2  0  0  0
  6  7  1  0  0  0
  7  8  2  0  0  0
  8  9  1  0  0  0
  9 10  1  0  0  0
 10 11  2  0  0  0
 11 12  1  0  0  0
 12 13  1  0  0  0
 27 21  1  0  0  0
 13  5  1  0  0  0
 13  9  2  0  0  0
 18 19  1  0  0  0
  1  4  1  0  0  0
 12 14  1  0  0  0
M  END
> <minimizedAffinity>
-6.81807

> <minimizedRMSD>
0.85206

$$$$
P56257


 28 30  0  0  0  0  0  0  0  0999 V2000
   -3.9330    5.1603  -20.4925 C   0  0  0  0  0  0  0  0  0  0  0  0
   -2.8647    4.3364  -19.7387 C   0  0  0  0  0  0  0  0  0  0  0  0
   -5.1807    5.0251  -19.7383 N   0  0  0  0  0  0  0  0  0  0  0  0
   -5.4887    5.3045  -18.2549 C   0  0  0  0  0  0  0  0  0  0  0  0
   -4.8174    5.7601  -17.4156 O   0  0  0  0  0  0  0  0  0  0  0  0
   -5.9477    4.7033  -20.2649 H   0  0  0  0  0  0  0  0  0  0  0  0
   -6.8586    4.8214  -17.8398 C   0  0  0  0  0  0  0  0  0  0  0  0
   -7.8994    4.4637  -18.7128 C   0  0  0  0  0  0  0  0  0  0  0  0
   -9.1504    4.0638  -18.2386 C   0  0  0  0  0  0  0  0  0  0  0  0
   -9.4079    4.0012  -16.8685 C   0  0  0  0  0  0  0  0  0  0  0  0
   -8.4021    4.3683  -15.9614 C   0  0  0  0  0  0  0  0  0  0  0  0
   -8.3444    4.4743  -14.5435 C   0  0  0  0  0  0  0  0  0  0  0  0
   -7.0917    4.9350  -14.2086 C   0  0  0  0  0  0  0  0  0  0  0  0
   -6.3796    5.0767  -15.3689 N   0  0  0  0  0  0  0  0  0  0  0  0
   -7.1614    4.7589  -16.4617 C   0  0  0  0  0  0  0  0  0  0  0  0
   -5.4397    5.3653  -15.4176 H   0  0  0  0  0  0  0  0  0  0  0  0
   -4.0878    4.5461  -21.9064 C   0  0  0  0  0  0  0  0  0  0  0  0
   -5.2264    5.0170  -22.6148 O   0  0  0  0  0  0  0  0  0  0  0  0
   -6.0316    4.7694  -22.1339 H   0  0  0  0  0  0  0  0  0  0  0  0
   -3.3772    6.6127  -20.5173 C   0  0  0  0  0  0  0  0  0  0  0  0
   -5.4751   10.3421  -21.0556 C   0  0  0  0  0  0  0  0  0  0  0  0
   -5.2203    9.8513  -19.7737 C   0  0  0  0  0  0  0  0  0  0  0  0
   -4.6172    8.6040  -19.5978 C   0  0  0  0  0  0  0  0  0  0  0  0
   -4.2516    7.8283  -20.7060 C   0  0  0  0  0  0  0  0  0  0  0  0
   -4.5514    8.3078  -21.9865 C   0  0  0  0  0  0  0  0  0  0  0  0
   -5.1661    9.5525  -22.1616 C   0  0  0  0  0  0  0  0  0  0  0  0
   -6.2776   12.1395  -22.3820 C   0  0  0  0  0  0  0  0  0  0  0  0
   -6.0393   11.5880  -21.0918 O   0  0  0  0  0  0  0  0  0  0  0  0
 27 28  1  0  0  0
 28 21  1  0  0  0
 21 22  2  0  0  0
 22 23  1  0  0  0
 23 24  2  0  0  0
 24 20  1  0  0  0
 20  1  1  0  0  0
  1  2  1  0  0  0
  1 17  1  0  0  0
 17 18  1  0  0  0
  1  3  1  0  0  0
  3  4  1  0  0  0
  4  5  2  0  0  0
  4  7  1  0  0  0
  7  8  2  0  0  0
  8  9  1  0  0  0
  9 10  2  0  0  0
 10 11  1  0  0  0
 11 12  1  0  0  0
 12 13  2  0  0  0
 13 14  1  0  0  0
 14 15  1  0  0  0
 24 25  1  0  0  0
 25 26  2  0  0  0
 26 21  1  0  0  0
 15  7  1  0  0  0
 15 11  2  0  0  0
 18 19  1  0  0  0
  3  6  1  0  0  0
 14 16  1  0  0  0
M  END
> <minimizedAffinity>
-6.49560

> <minimizedRMSD>
0.77840

$$$$
P56258


 27 29  0  0  0  0  0  0  0  0999 V2000
   -5.3334    4.8838  -19.8049 N   0  0  0  0  0  0  0  0  0  0  0  0
   -5.4552    4.9925  -18.2748 C   0  0  0  0  0  0  0  0  0  0  0  0
   -4.6842    5.3573  -17.4787 O   0  0  0  0  0  0  0  0  0  0  0  0
   -6.1607    4.6155  -20.2661 H   0  0  0  0  0  0  0  0  0  0  0  0
   -6.8237    4.6154  -17.7695 C   0  0  0  0  0  0  0  0  0  0  0  0
   -7.9507    4.3804  -18.5779 C   0  0  0  0  0  0  0  0  0  0  0  0
   -9.2057    4.1240  -18.0232 C   0  0  0  0  0  0  0  0  0  0  0  0
   -9.3774    4.0979  -16.6384 C   0  0  0  0  0  0  0  0  0  0  0  0
   -8.2853    4.3599  -15.7966 C   0  0  0  0  0  0  0  0  0  0  0  0
   -8.1271    4.4668  -14.3868 C   0  0  0  0  0  0  0  0  0  0  0  0
   -6.8135    4.7923  -14.1362 C   0  0  0  0  0  0  0  0  0  0  0  0
   -6.1644    4.8508  -15.3401 N   0  0  0  0  0  0  0  0  0  0  0  0
   -7.0429    4.6036  -16.3762 C   0  0  0  0  0  0  0  0  0  0  0  0
   -5.2052    5.0424  -15.4516 H   0  0  0  0  0  0  0  0  0  0  0  0
   -3.8530    6.6218  -20.6513 C   0  0  0  0  0  0  0  0  0  0  0  0
   -4.1790    5.1161  -20.6932 C   0  0  0  0  0  0  0  0  0  0  0  0
   -2.9647    4.3053  -20.1651 C   0  0  0  0  0  0  0  0  0  0  0  0
   -1.8604    5.1434  -19.8511 O   0  0  0  0  0  0  0  0  0  0  0  0
   -1.5692    5.6078  -20.6514 H   0  0  0  0  0  0  0  0  0  0  0  0
   -4.5696    4.6463  -22.1292 C   0  0  0  0  0  0  0  0  0  0  0  0
   -4.1708    5.5081  -23.3026 C   0  0  0  0  0  0  0  0  0  0  0  0
   -2.8685    5.4563  -23.8185 C   0  0  0  0  0  0  0  0  0  0  0  0
   -2.5060    6.2429  -24.9138 C   0  0  0  0  0  0  0  0  0  0  0  0
   -3.4469    7.0839  -25.5023 C   0  0  0  0  0  0  0  0  0  0  0  0
   -2.9587    8.1415  -26.9907 Br  0  0  0  0  0  0  0  0  0  0  0  0
   -4.7447    7.1510  -25.0022 C   0  0  0  0  0  0  0  0  0  0  0  0
   -5.1030    6.3684  -23.9030 C   0  0  0  0  0  0  0  0  0  0  0  0
 16 15  1  0  0  0
 16 17  1  0  0  0
 17 18  1  0  0  0
 16 20  1  0  0  0
 20 21  1  0  0  0
 21 22  2  0  0  0
 22 23  1  0  0  0
 23 24  2  0  0  0
 24 25  1  0  0  0
 24 26  1  0  0  0
 26 27  2  0  0  0
 16  1  1  0  0  0
  1  2  1  0  0  0
  2  3  2  0  0  0
  2  5  1  0  0  0
  5  6  2  0  0  0
  6  7  1  0  0  0
  7  8  2  0  0  0
  8  9  1  0  0  0
  9 10  1  0  0  0
 10 11  2  0  0  0
 11 12  1  0  0  0
 12 13  1  0  0  0
 27 21  1  0  0  0
 13  5  1  0  0  0
 13  9  2  0  0  0
 18 19  1  0  0  0
  1  4  1  0  0  0
 12 14  1  0  0  0
M  END
> <minimizedAffinity>
-6.96310

> <minimizedRMSD>
0.72693

$$$$
P56260


 26 28  0  0  0  0  0  0  0  0999 V2000
   -5.3530    5.4331  -19.9029 N   0  0  0  0  0  0  0  0  0  0  0  0
   -5.4227    4.8335  -18.4812 C   0  0  0  0  0  0  0  0  0  0  0  0
   -4.5697    4.5738  -17.7266 O   0  0  0  0  0  0  0  0  0  0  0  0
   -6.2273    5.6309  -20.3101 H   0  0  0  0  0  0  0  0  0  0  0  0
   -6.8291    4.6108  -17.9939 C   0  0  0  0  0  0  0  0  0  0  0  0
   -7.9293    4.3221  -18.8144 C   0  0  0  0  0  0  0  0  0  0  0  0
   -9.1981    4.0922  -18.2779 C   0  0  0  0  0  0  0  0  0  0  0  0
   -9.4047    4.1104  -16.8963 C   0  0  0  0  0  0  0  0  0  0  0  0
   -8.3322    4.4125  -16.0413 C   0  0  0  0  0  0  0  0  0  0  0  0
   -8.2009    4.5563  -14.6308 C   0  0  0  0  0  0  0  0  0  0  0  0
   -6.8895    4.8772  -14.3625 C   0  0  0  0  0  0  0  0  0  0  0  0
   -6.2158    4.8924  -15.5550 N   0  0  0  0  0  0  0  0  0  0  0  0
   -7.0794    4.6485  -16.6041 C   0  0  0  0  0  0  0  0  0  0  0  0
   -5.2495    5.0547  -15.6507 H   0  0  0  0  0  0  0  0  0  0  0  0
   -3.4686    6.9419  -20.0955 C   0  0  0  0  0  0  0  0  0  0  0  0
   -4.1989    5.7550  -20.7433 C   0  0  0  0  0  0  0  0  0  0  0  0
   -3.2304    4.5670  -20.7980 C   0  0  0  0  0  0  0  0  0  0  0  0
   -4.6342    6.1039  -22.1913 C   0  0  0  0  0  0  0  0  0  0  0  0
   -5.0739    7.4656  -22.2130 O   0  0  0  0  0  0  0  0  0  0  0  0
   -5.4807    7.8993  -23.4495 C   0  0  0  0  0  0  0  0  0  0  0  0
   -5.7570    6.9565  -24.3729 N   0  0  0  0  0  0  0  0  0  0  0  0
   -6.2990    7.3818  -25.5374 C   0  0  0  0  0  0  0  0  0  0  0  0
   -6.5571    8.7100  -25.8307 C   0  0  0  0  0  0  0  0  0  0  0  0
   -6.2474    9.6668  -24.8704 C   0  0  0  0  0  0  0  0  0  0  0  0
   -5.7086    9.2583  -23.6522 C   0  0  0  0  0  0  0  0  0  0  0  0
   -5.2889   10.5706  -22.3565 Br  0  0  0  0  0  0  0  0  0  0  0  0
 15 16  1  0  0  0
 16 17  1  0  0  0
 16 18  1  0  0  0
 18 19  1  0  0  0
 19 20  1  0  0  0
 20 21  2  0  0  0
 21 22  1  0  0  0
 22 23  2  0  0  0
 23 24  1  0  0  0
 24 25  2  0  0  0
 25 26  1  0  0  0
 16  1  1  0  0  0
  1  2  1  0  0  0
  2  3  2  0  0  0
  2  5  1  0  0  0
  5  6  2  0  0  0
  6  7  1  0  0  0
  7  8  2  0  0  0
  8  9  1  0  0  0
  9 10  1  0  0  0
 10 11  2  0  0  0
 11 12  1  0  0  0
 12 13  1  0  0  0
 25 20  1  0  0  0
 13  5  1  0  0  0
 13  9  2  0  0  0
  1  4  1  0  0  0
 12 14  1  0  0  0
M  END
> <minimizedAffinity>
-6.89094

> <minimizedRMSD>
0.74498

$$$$
P56261


 29 32  0  0  0  0  0  0  0  0999 V2000
   -3.8852    6.6486  -20.6976 C   0  0  0  0  0  0  0  0  0  0  0  0
   -4.2304    5.1473  -20.7696 C   0  0  0  0  0  0  0  0  0  0  0  0
   -5.3755    4.9154  -19.8669 N   0  0  0  0  0  0  0  0  0  0  0  0
   -5.4686    4.9834  -18.3320 C   0  0  0  0  0  0  0  0  0  0  0  0
   -4.6758    5.3081  -17.5401 O   0  0  0  0  0  0  0  0  0  0  0  0
   -6.2165    4.6788  -20.3207 H   0  0  0  0  0  0  0  0  0  0  0  0
   -6.8353    4.6183  -17.8049 C   0  0  0  0  0  0  0  0  0  0  0  0
   -7.9806    4.3830  -18.5878 C   0  0  0  0  0  0  0  0  0  0  0  0
   -9.2240    4.1257  -18.0067 C   0  0  0  0  0  0  0  0  0  0  0  0
   -9.3673    4.0985  -16.6193 C   0  0  0  0  0  0  0  0  0  0  0  0
   -8.2587    4.3625  -15.8009 C   0  0  0  0  0  0  0  0  0  0  0  0
   -8.0725    4.4695  -14.3944 C   0  0  0  0  0  0  0  0  0  0  0  0
   -6.7545    4.7951  -14.1701 C   0  0  0  0  0  0  0  0  0  0  0  0
   -6.1301    4.8527  -15.3865 N   0  0  0  0  0  0  0  0  0  0  0  0
   -7.0287    4.6067  -16.4063 C   0  0  0  0  0  0  0  0  0  0  0  0
   -5.1730    5.0431  -15.5167 H   0  0  0  0  0  0  0  0  0  0  0  0
   -3.0159    4.3262  -20.2627 C   0  0  0  0  0  0  0  0  0  0  0  0
   -1.9112    5.1728  -19.9905 O   0  0  0  0  0  0  0  0  0  0  0  0
   -1.6483    5.6327  -20.8031 H   0  0  0  0  0  0  0  0  0  0  0  0
   -4.6097    4.6905  -22.2126 C   0  0  0  0  0  0  0  0  0  0  0  0
   -4.2925    5.5807  -23.3102 N   0  0  0  0  0  0  0  0  0  0  0  0
   -5.1832    6.4391  -23.8988 C   0  0  0  0  0  0  0  0  0  0  0  0
   -4.6566    7.0757  -24.9173 N   0  0  0  0  0  0  0  0  0  0  0  0
   -3.3720    6.6024  -25.0066 C   0  0  0  0  0  0  0  0  0  0  0  0
   -2.3645    6.9344  -25.9248 C   0  0  0  0  0  0  0  0  0  0  0  0
   -1.1182    6.3063  -25.8181 C   0  0  0  0  0  0  0  0  0  0  0  0
   -0.8812    5.3615  -24.8198 C   0  0  0  0  0  0  0  0  0  0  0  0
   -1.8784    5.0095  -23.9035 C   0  0  0  0  0  0  0  0  0  0  0  0
   -3.1152    5.6546  -24.0164 C   0  0  0  0  0  0  0  0  0  0  0  0
  2  1  1  0  0  0
  2 17  1  0  0  0
 17 18  1  0  0  0
  2 20  1  0  0  0
 20 21  1  0  0  0
 21 22  1  0  0  0
 22 23  2  0  0  0
 23 24  1  0  0  0
 24 25  2  0  0  0
 25 26  1  0  0  0
 26 27  2  0  0  0
 27 28  1  0  0  0
 28 29  2  0  0  0
  2  3  1  0  0  0
  3  4  1  0  0  0
  4  5  2  0  0  0
  4  7  1  0  0  0
  7  8  2  0  0  0
  8  9  1  0  0  0
  9 10  2  0  0  0
 10 11  1  0  0  0
 11 12  1  0  0  0
 12 13  2  0  0  0
 13 14  1  0  0  0
 14 15  1  0  0  0
 29 21  1  0  0  0
 15  7  1  0  0  0
 29 24  1  0  0  0
 15 11  2  0  0  0
 18 19  1  0  0  0
  3  6  1  0  0  0
 14 16  1  0  0  0
M  END
> <minimizedAffinity>
-7.13635

> <minimizedRMSD>
0.69305

$$$$
P56263


 29 31  0  0  0  0  0  0  0  0999 V2000
   -3.8359    6.7522  -20.7835 C   0  0  0  0  0  0  0  0  0  0  0  0
   -4.2412    5.2732  -20.8054 C   0  0  0  0  0  0  0  0  0  0  0  0
   -3.0698    4.4457  -20.2450 C   0  0  0  0  0  0  0  0  0  0  0  0
   -5.4097    5.1226  -19.9329 N   0  0  0  0  0  0  0  0  0  0  0  0
   -5.5004    4.8290  -18.4213 C   0  0  0  0  0  0  0  0  0  0  0  0
   -4.6593    4.7371  -17.6165 O   0  0  0  0  0  0  0  0  0  0  0  0
   -6.2779    5.2256  -20.3855 H   0  0  0  0  0  0  0  0  0  0  0  0
   -6.9115    4.6010  -17.9419 C   0  0  0  0  0  0  0  0  0  0  0  0
   -8.0137    4.3043  -18.7612 C   0  0  0  0  0  0  0  0  0  0  0  0
   -9.2807    4.0704  -18.2244 C   0  0  0  0  0  0  0  0  0  0  0  0
   -9.4851    4.0913  -16.8441 C   0  0  0  0  0  0  0  0  0  0  0  0
   -8.4139    4.3942  -15.9894 C   0  0  0  0  0  0  0  0  0  0  0  0
   -8.2829    4.5349  -14.5790 C   0  0  0  0  0  0  0  0  0  0  0  0
   -6.9715    4.8545  -14.3099 C   0  0  0  0  0  0  0  0  0  0  0  0
   -6.2985    4.8729  -15.5020 N   0  0  0  0  0  0  0  0  0  0  0  0
   -7.1624    4.6328  -16.5521 C   0  0  0  0  0  0  0  0  0  0  0  0
   -5.3322    5.0351  -15.5974 H   0  0  0  0  0  0  0  0  0  0  0  0
   -4.5808    4.7326  -22.2272 C   0  0  0  0  0  0  0  0  0  0  0  0
   -5.0683    5.7445  -23.1206 O   0  0  0  0  0  0  0  0  0  0  0  0
   -4.1687    6.1456  -24.0887 C   0  0  0  0  0  0  0  0  0  0  0  0
   -3.0051    5.4687  -24.2125 N   0  0  0  0  0  0  0  0  0  0  0  0
   -2.1437    5.8665  -25.1714 C   0  0  0  0  0  0  0  0  0  0  0  0
   -2.3973    6.9123  -26.0364 C   0  0  0  0  0  0  0  0  0  0  0  0
   -3.6045    7.5886  -25.9031 C   0  0  0  0  0  0  0  0  0  0  0  0
   -4.5182    7.2055  -24.9098 C   0  0  0  0  0  0  0  0  0  0  0  0
   -5.8200    7.9101  -24.7310 C   0  0  0  0  0  0  0  0  0  0  0  0
   -6.8943    7.1451  -25.0562 F   0  0  0  0  0  0  0  0  0  0  0  0
   -5.9316    9.0287  -25.5094 F   0  0  0  0  0  0  0  0  0  0  0  0
   -6.0306    8.3520  -23.4585 F   0  0  0  0  0  0  0  0  0  0  0  0
  1  2  1  0  0  0
  2  3  1  0  0  0
  2 18  1  0  0  0
 18 19  1  0  0  0
 19 20  1  0  0  0
 20 21  2  0  0  0
 21 22  1  0  0  0
 22 23  2  0  0  0
 23 24  1  0  0  0
 24 25  2  0  0  0
 25 26  1  0  0  0
 26 27  1  0  0  0
 26 28  1  0  0  0
 26 29  1  0  0  0
  2  4  1  0  0  0
  4  5  1  0  0  0
  5  6  2  0  0  0
  5  8  1  0  0  0
  8  9  2  0  0  0
  9 10  1  0  0  0
 10 11  2  0  0  0
 11 12  1  0  0  0
 12 13  1  0  0  0
 13 14  2  0  0  0
 14 15  1  0  0  0
 15 16  1  0  0  0
 25 20  1  0  0  0
 16  8  1  0  0  0
 16 12  2  0  0  0
  4  7  1  0  0  0
 15 17  1  0  0  0
M  END
> <minimizedAffinity>
-7.21302

> <minimizedRMSD>
0.64944

$$$$
P56264


 27 29  0  0  0  0  0  0  0  0999 V2000
   -5.3544    4.8187  -19.7671 N   0  0  0  0  0  0  0  0  0  0  0  0
   -5.4869    4.8649  -18.2341 C   0  0  0  0  0  0  0  0  0  0  0  0
   -4.6779    5.0320  -17.4096 O   0  0  0  0  0  0  0  0  0  0  0  0
   -6.1825    4.5845  -20.2453 H   0  0  0  0  0  0  0  0  0  0  0  0
   -6.8939    4.6521  -17.7696 C   0  0  0  0  0  0  0  0  0  0  0  0
   -7.9736    4.3609  -18.6179 C   0  0  0  0  0  0  0  0  0  0  0  0
   -9.2390    4.0838  -18.1046 C   0  0  0  0  0  0  0  0  0  0  0  0
   -9.4576    4.0726  -16.7258 C   0  0  0  0  0  0  0  0  0  0  0  0
   -8.4148    4.4115  -15.8484 C   0  0  0  0  0  0  0  0  0  0  0  0
   -8.3135    4.5517  -14.4362 C   0  0  0  0  0  0  0  0  0  0  0  0
   -7.0185    4.9153  -14.1437 C   0  0  0  0  0  0  0  0  0  0  0  0
   -6.3228    4.9555  -15.3233 N   0  0  0  0  0  0  0  0  0  0  0  0
   -7.1604    4.6872  -16.3862 C   0  0  0  0  0  0  0  0  0  0  0  0
   -5.3606    5.1488  -15.4014 H   0  0  0  0  0  0  0  0  0  0  0  0
   -3.9121    6.5778  -20.5709 C   0  0  0  0  0  0  0  0  0  0  0  0
   -4.1891    5.0680  -20.6364 C   0  0  0  0  0  0  0  0  0  0  0  0
   -2.9333    4.2808  -20.1534 C   0  0  0  0  0  0  0  0  0  0  0  0
   -2.1906    4.9805  -19.1525 O   0  0  0  0  0  0  0  0  0  0  0  0
   -1.8657    5.8184  -19.5175 H   0  0  0  0  0  0  0  0  0  0  0  0
   -4.5762    4.5946  -22.0680 C   0  0  0  0  0  0  0  0  0  0  0  0
   -4.1507    5.4665  -23.2230 C   0  0  0  0  0  0  0  0  0  0  0  0
   -2.8401    5.4057  -23.7217 C   0  0  0  0  0  0  0  0  0  0  0  0
   -2.4540    6.2113  -24.7935 C   0  0  0  0  0  0  0  0  0  0  0  0
   -3.3773    7.0724  -25.3723 C   0  0  0  0  0  0  0  0  0  0  0  0
   -3.0060    7.8418  -26.4039 F   0  0  0  0  0  0  0  0  0  0  0  0
   -4.6811    7.1454  -24.8985 C   0  0  0  0  0  0  0  0  0  0  0  0
   -5.0684    6.3451  -23.8234 C   0  0  0  0  0  0  0  0  0  0  0  0
 16 15  1  0  0  0
 16 17  1  0  0  0
 17 18  1  0  0  0
 16 20  1  0  0  0
 20 21  1  0  0  0
 21 22  2  0  0  0
 22 23  1  0  0  0
 23 24  2  0  0  0
 24 25  1  0  0  0
 24 26  1  0  0  0
 26 27  2  0  0  0
 16  1  1  0  0  0
  1  2  1  0  0  0
  2  3  2  0  0  0
  2  5  1  0  0  0
  5  6  2  0  0  0
  6  7  1  0  0  0
  7  8  2  0  0  0
  8  9  1  0  0  0
  9 10  1  0  0  0
 10 11  2  0  0  0
 11 12  1  0  0  0
 12 13  1  0  0  0
 27 21  1  0  0  0
 13  5  1  0  0  0
 13  9  2  0  0  0
 18 19  1  0  0  0
  1  4  1  0  0  0
 12 14  1  0  0  0
M  END
> <minimizedAffinity>
-6.89614

> <minimizedRMSD>
0.72307

$$$$
P56265


 27 29  0  0  0  0  0  0  0  0999 V2000
   -5.3637    4.8386  -19.8405 N   0  0  0  0  0  0  0  0  0  0  0  0
   -5.4694    4.8661  -18.3052 C   0  0  0  0  0  0  0  0  0  0  0  0
   -4.6506    5.0497  -17.4938 O   0  0  0  0  0  0  0  0  0  0  0  0
   -6.1930    4.5840  -20.3060 H   0  0  0  0  0  0  0  0  0  0  0  0
   -6.8714    4.6403  -17.8080 C   0  0  0  0  0  0  0  0  0  0  0  0
   -7.9872    4.3762  -18.6207 C   0  0  0  0  0  0  0  0  0  0  0  0
   -9.2394    4.1044  -18.0688 C   0  0  0  0  0  0  0  0  0  0  0  0
   -9.4115    4.0693  -16.6842 C   0  0  0  0  0  0  0  0  0  0  0  0
   -8.3353    4.3773  -15.8377 C   0  0  0  0  0  0  0  0  0  0  0  0
   -8.1814    4.4781  -14.4266 C   0  0  0  0  0  0  0  0  0  0  0  0
   -6.8711    4.8128  -14.1712 C   0  0  0  0  0  0  0  0  0  0  0  0
   -6.2190    4.8760  -15.3738 N   0  0  0  0  0  0  0  0  0  0  0  0
   -7.0973    4.6483  -16.4144 C   0  0  0  0  0  0  0  0  0  0  0  0
   -5.2575    5.0585  -15.4814 H   0  0  0  0  0  0  0  0  0  0  0  0
   -3.9854    6.6495  -20.6433 C   0  0  0  0  0  0  0  0  0  0  0  0
   -4.2211    5.1321  -20.7295 C   0  0  0  0  0  0  0  0  0  0  0  0
   -2.9344    4.3793  -20.2686 C   0  0  0  0  0  0  0  0  0  0  0  0
   -2.1965    5.0989  -19.2770 O   0  0  0  0  0  0  0  0  0  0  0  0
   -1.9025    5.9469  -19.6449 H   0  0  0  0  0  0  0  0  0  0  0  0
   -4.6069    4.6540  -22.1608 C   0  0  0  0  0  0  0  0  0  0  0  0
   -4.2815    5.5754  -23.3074 C   0  0  0  0  0  0  0  0  0  0  0  0
   -5.2328    6.4871  -23.7900 C   0  0  0  0  0  0  0  0  0  0  0  0
   -4.9255    7.3370  -24.8554 C   0  0  0  0  0  0  0  0  0  0  0  0
   -3.6664    7.2861  -25.4526 C   0  0  0  0  0  0  0  0  0  0  0  0
   -2.7174    6.3776  -24.9903 C   0  0  0  0  0  0  0  0  0  0  0  0
   -3.0319    5.5315  -23.9312 C   0  0  0  0  0  0  0  0  0  0  0  0
   -2.1271    4.6227  -23.5463 F   0  0  0  0  0  0  0  0  0  0  0  0
 16 15  1  0  0  0
 16 17  1  0  0  0
 17 18  1  0  0  0
 16 20  1  0  0  0
 20 21  1  0  0  0
 21 22  2  0  0  0
 22 23  1  0  0  0
 23 24  2  0  0  0
 24 25  1  0  0  0
 25 26  2  0  0  0
 26 27  1  0  0  0
 16  1  1  0  0  0
  1  2  1  0  0  0
  2  3  2  0  0  0
  2  5  1  0  0  0
  5  6  2  0  0  0
  6  7  1  0  0  0
  7  8  2  0  0  0
  8  9  1  0  0  0
  9 10  1  0  0  0
 10 11  2  0  0  0
 11 12  1  0  0  0
 12 13  1  0  0  0
 26 21  1  0  0  0
 13  5  1  0  0  0
 13  9  2  0  0  0
 18 19  1  0  0  0
  1  4  1  0  0  0
 12 14  1  0  0  0
M  END
> <minimizedAffinity>
-7.02188

> <minimizedRMSD>
0.64472

$$$$
P56340


 12 13  0  0  0  0  0  0  0  0999 V2000
   -8.6837    4.5602  -17.5440 C   0  0  0  0  0  0  0  0  0  0  0  0
   -8.6938    4.3109  -16.1908 C   0  0  0  0  0  0  0  0  0  0  0  0
   -7.4659    4.3026  -15.5487 C   0  0  0  0  0  0  0  0  0  0  0  0
   -6.3137    4.5509  -16.2216 N   0  0  0  0  0  0  0  0  0  0  0  0
   -6.4247    4.7384  -17.5456 C   0  0  0  0  0  0  0  0  0  0  0  0
   -7.5613    4.7746  -18.2472 N   0  0  0  0  0  0  0  0  0  0  0  0
   -7.3618    4.1341  -14.0451 C   0  0  0  0  0  0  0  0  0  0  0  0
   -8.4288    4.8385  -13.2135 C   0  0  0  0  0  0  0  0  0  0  0  0
   -8.3491    4.1514  -11.8580 C   0  0  0  0  0  0  0  0  0  0  0  0
   -7.6385    2.8307  -12.1264 C   0  0  0  0  0  0  0  0  0  0  0  0
   -7.5288    2.7474  -13.5777 N   0  0  0  0  0  0  0  0  0  0  0  0
   -8.3739    2.3375  -13.9753 H   0  0  0  0  0  0  0  0  0  0  0  0
  1  2  2  0  0  0
  2  3  1  0  0  0
  7  3  1  0  0  0
  7  8  1  0  0  0
  8  9  1  0  0  0
  9 10  1  0  0  0
 10 11  1  0  0  0
  3  4  2  0  0  0
  4  5  1  0  0  0
  5  6  2  0  0  0
  6  1  1  0  0  0
 11  7  1  0  0  0
 11 12  1  0  0  0
M  END
> <minimizedAffinity>
-4.69800

> <minimizedRMSD>
1.65424

$$$$
P56341


 12 13  0  0  0  0  0  0  0  0999 V2000
   -7.5207    6.2728  -12.8604 C   0  0  0  0  0  0  0  0  0  0  0  0
   -7.1599    5.1088  -13.4031 C   0  0  0  0  0  0  0  0  0  0  0  0
   -8.2258    4.6008  -14.3163 C   0  0  0  0  0  0  0  0  0  0  0  0
   -9.3998    5.4847  -14.0321 N   0  0  0  0  0  0  0  0  0  0  0  0
   -8.8462    6.6880  -13.3824 C   0  0  0  0  0  0  0  0  0  0  0  0
  -10.0563    5.0145  -13.4090 H   0  0  0  0  0  0  0  0  0  0  0  0
   -7.8098    4.5719  -15.7849 C   0  0  0  0  0  0  0  0  0  0  0  0
   -8.7833    4.4173  -16.7587 C   0  0  0  0  0  0  0  0  0  0  0  0
   -8.3616    4.4783  -18.0660 C   0  0  0  0  0  0  0  0  0  0  0  0
   -7.0765    4.6359  -18.4224 N   0  0  0  0  0  0  0  0  0  0  0  0
   -6.2049    4.7256  -17.4128 C   0  0  0  0  0  0  0  0  0  0  0  0
   -6.4994    4.7153  -16.1065 N   0  0  0  0  0  0  0  0  0  0  0  0
  1  2  2  0  0  0
  2  3  1  0  0  0
  3  7  1  0  0  0
  7  8  2  0  0  0
  8  9  1  0  0  0
  9 10  2  0  0  0
 10 11  1  0  0  0
 11 12  2  0  0  0
  3  4  1  0  0  0
  4  5  1  0  0  0
  5  1  1  0  0  0
 12  7  1  0  0  0
  4  6  1  0  0  0
M  END
> <minimizedAffinity>
-4.42246

> <minimizedRMSD>
1.40100

$$$$
P56349


 12 13  0  0  0  0  0  0  0  0999 V2000
   -8.4831    4.9382  -13.4012 C   0  0  0  0  0  0  0  0  0  0  0  0
   -7.7008    4.2709  -14.2563 C   0  0  0  0  0  0  0  0  0  0  0  0
   -6.9502    3.2063  -13.5349 C   0  0  0  0  0  0  0  0  0  0  0  0
   -7.2319    3.4169  -12.0968 N   0  0  0  0  0  0  0  0  0  0  0  0
   -8.3368    4.3954  -12.0288 C   0  0  0  0  0  0  0  0  0  0  0  0
   -6.4054    3.7843  -11.6253 H   0  0  0  0  0  0  0  0  0  0  0  0
   -7.5870    4.4170  -15.7048 C   0  0  0  0  0  0  0  0  0  0  0  0
   -8.6870    4.3554  -16.5349 C   0  0  0  0  0  0  0  0  0  0  0  0
   -8.4482    4.5351  -17.8756 C   0  0  0  0  0  0  0  0  0  0  0  0
   -7.2230    4.7329  -18.3858 N   0  0  0  0  0  0  0  0  0  0  0  0
   -6.2228    4.7579  -17.5015 C   0  0  0  0  0  0  0  0  0  0  0  0
   -6.3399    4.6415  -16.1717 N   0  0  0  0  0  0  0  0  0  0  0  0
  1  2  2  0  0  0
  2  7  1  0  0  0
  7  8  2  0  0  0
  8  9  1  0  0  0
  9 10  2  0  0  0
 10 11  1  0  0  0
 11 12  2  0  0  0
  2  3  1  0  0  0
  3  4  1  0  0  0
  4  5  1  0  0  0
  5  1  1  0  0  0
 12  7  1  0  0  0
  4  6  1  0  0  0
M  END
> <minimizedAffinity>
-4.26022

> <minimizedRMSD>
1.47980

$$$$
P56351


 13 15  0  0  0  0  0  0  0  0999 V2000
   -7.2851    4.4704  -14.2241 C   0  0  0  0  0  0  0  0  0  0  0  0
   -6.6883    3.2098  -13.6512 C   0  0  0  0  0  0  0  0  0  0  0  0
   -7.0828    3.2129  -12.2274 N   0  0  0  0  0  0  0  0  0  0  0  0
   -8.3545    3.9491  -12.1283 C   0  0  0  0  0  0  0  0  0  0  0  0
   -8.3004    4.9448  -13.2436 C   0  0  0  0  0  0  0  0  0  0  0  0
   -7.0903    5.8017  -13.5077 C   0  0  0  0  0  0  0  0  0  0  0  0
   -6.3668    3.6757  -11.6676 H   0  0  0  0  0  0  0  0  0  0  0  0
   -8.9117    4.3961  -17.6135 C   0  0  0  0  0  0  0  0  0  0  0  0
   -8.7869    4.3457  -16.2452 C   0  0  0  0  0  0  0  0  0  0  0  0
   -7.5150    4.4904  -15.7150 C   0  0  0  0  0  0  0  0  0  0  0  0
   -6.4429    4.6559  -16.5258 N   0  0  0  0  0  0  0  0  0  0  0  0
   -6.6753    4.6559  -17.8476 C   0  0  0  0  0  0  0  0  0  0  0  0
   -7.8678    4.5480  -18.4404 N   0  0  0  0  0  0  0  0  0  0  0  0
  8  9  2  0  0  0
  9 10  1  0  0  0
  1 10  1  0  0  0
  1  2  1  0  0  0
  2  3  1  0  0  0
  3  4  1  0  0  0
  5  4  1  0  0  0
  5  6  1  0  0  0
 10 11  2  0  0  0
 11 12  1  0  0  0
 12 13  2  0  0  0
 13  8  1  0  0  0
  5  1  1  0  0  0
  6  1  1  0  0  0
  3  7  1  0  0  0
M  END
> <minimizedAffinity>
-4.36212

> <minimizedRMSD>
1.01254

$$$$
P56471


 13 14  0  0  0  0  0  0  0  0999 V2000
   -7.1280    4.6731  -14.5067 C   0  0  0  0  0  0  0  0  0  0  0  0
   -6.3565    3.4150  -14.0488 C   0  0  0  0  0  0  0  0  0  0  0  0
   -7.1817    2.3212  -13.5236 N   0  0  0  0  0  0  0  0  0  0  0  0
   -7.8379    2.6899  -12.2520 C   0  0  0  0  0  0  0  0  0  0  0  0
   -7.9070    4.1786  -11.8751 C   0  0  0  0  0  0  0  0  0  0  0  0
   -8.3538    5.2663  -13.2656 S   0  0  0  0  0  0  0  0  0  0  0  0
   -6.5883    1.5069  -13.3649 H   0  0  0  0  0  0  0  0  0  0  0  0
   -9.0897    4.3028  -17.5433 C   0  0  0  0  0  0  0  0  0  0  0  0
   -7.8669    4.5954  -18.0888 C   0  0  0  0  0  0  0  0  0  0  0  0
   -7.0189    4.7068  -17.0253 N   0  0  0  0  0  0  0  0  0  0  0  0
   -7.7470    4.5092  -15.8725 C   0  0  0  0  0  0  0  0  0  0  0  0
   -8.9955    4.2121  -16.1804 N   0  0  0  0  0  0  0  0  0  0  0  0
   -6.0539    4.8957  -17.0736 H   0  0  0  0  0  0  0  0  0  0  0  0
  8  9  2  0  0  0
  9 10  1  0  0  0
 10 11  1  0  0  0
  1 11  1  0  0  0
  1  2  1  0  0  0
  2  3  1  0  0  0
  3  4  1  0  0  0
  4  5  1  0  0  0
  5  6  1  0  0  0
 11 12  2  0  0  0
 12  8  1  0  0  0
  6  1  1  0  0  0
 10 13  1  0  0  0
  3  7  1  0  0  0
M  END
> <minimizedAffinity>
-4.63591

> <minimizedRMSD>
0.34523

$$$$
P56490


 22 23  0  0  0  0  0  0  0  0999 V2000
   -5.0779    5.4995  -19.2639 C   0  0  0  0  0  0  0  0  0  0  0  0
   -6.0787    4.5584  -18.8431 N   0  0  0  0  0  0  0  0  0  0  0  0
   -6.9376    3.9025  -19.7571 C   0  0  0  0  0  0  0  0  0  0  0  0
   -6.7412    3.7031  -20.9479 O   0  0  0  0  0  0  0  0  0  0  0  0
   -8.0798    3.5254  -19.0411 N   0  0  0  0  0  0  0  0  0  0  0  0
   -7.9674    3.9928  -17.7405 C   0  0  0  0  0  0  0  0  0  0  0  0
   -8.8769    3.9121  -16.7160 C   0  0  0  0  0  0  0  0  0  0  0  0
   -8.4863    4.4418  -15.4840 C   0  0  0  0  0  0  0  0  0  0  0  0
   -7.2287    5.0580  -15.3237 C   0  0  0  0  0  0  0  0  0  0  0  0
   -6.3391    5.1685  -16.3986 C   0  0  0  0  0  0  0  0  0  0  0  0
   -6.7325    4.6205  -17.6010 C   0  0  0  0  0  0  0  0  0  0  0  0
   -8.8387    3.0124  -19.4019 H   0  0  0  0  0  0  0  0  0  0  0  0
   -3.9019    4.7881  -21.2847 N   0  0  0  0  0  0  0  0  0  0  0  0
   -3.8259    4.8104  -19.8427 C   0  0  0  0  0  0  0  0  0  0  0  0
   -2.9668    4.4299  -19.0989 O   0  0  0  0  0  0  0  0  0  0  0  0
   -4.6931    5.2387  -21.6591 H   0  0  0  0  0  0  0  0  0  0  0  0
   -3.0173    4.2187  -22.2684 C   0  0  0  0  0  0  0  0  0  0  0  0
   -2.3484    5.2217  -23.1951 C   0  0  0  0  0  0  0  0  0  0  0  0
    0.1862    5.3217  -23.4418 C   0  0  0  0  0  0  0  0  0  0  0  0
   -1.0379    5.8313  -22.6954 C   0  0  0  0  0  0  0  0  0  0  0  0
   -0.8744    5.4870  -21.3179 O   0  0  0  0  0  0  0  0  0  0  0  0
   -0.8192    4.5226  -21.2300 H   0  0  0  0  0  0  0  0  0  0  0  0
 20 19  1  0  0  0
 20 21  1  0  0  0
 20 18  1  0  0  0
 18 17  1  0  0  0
 17 13  1  0  0  0
 13 14  1  0  0  0
 14 15  2  0  0  0
 14  1  1  0  0  0
  1  2  1  0  0  0
  2  3  1  0  0  0
  3  4  2  0  0  0
  3  5  1  0  0  0
  5  6  1  0  0  0
  6  7  2  0  0  0
  7  8  1  0  0  0
  8  9  2  0  0  0
  9 10  1  0  0  0
 10 11  2  0  0  0
 11  2  1  0  0  0
 11  6  1  0  0  0
 21 22  1  0  0  0
 13 16  1  0  0  0
  5 12  1  0  0  0
M  END
> <minimizedAffinity>
-5.63178

> <minimizedRMSD>
1.14305

$$$$
P56491


 22 23  0  0  0  0  0  0  0  0999 V2000
   -3.6589    4.9183  -17.3013 C   0  0  0  0  0  0  0  0  0  0  0  0
   -5.0235    4.8843  -17.7545 N   0  0  0  0  0  0  0  0  0  0  0  0
   -5.4217    4.6985  -19.0905 C   0  0  0  0  0  0  0  0  0  0  0  0
   -4.6806    4.6930  -20.0639 O   0  0  0  0  0  0  0  0  0  0  0  0
   -6.8061    4.5183  -19.0756 N   0  0  0  0  0  0  0  0  0  0  0  0
   -7.2500    4.5226  -17.7631 C   0  0  0  0  0  0  0  0  0  0  0  0
   -8.5120    4.2990  -17.2722 C   0  0  0  0  0  0  0  0  0  0  0  0
   -8.6461    4.3185  -15.8823 C   0  0  0  0  0  0  0  0  0  0  0  0
   -7.5485    4.5731  -15.0364 C   0  0  0  0  0  0  0  0  0  0  0  0
   -6.2766    4.8033  -15.5635 C   0  0  0  0  0  0  0  0  0  0  0  0
   -6.1521    4.7598  -16.9343 C   0  0  0  0  0  0  0  0  0  0  0  0
   -7.3759    4.4063  -19.8706 H   0  0  0  0  0  0  0  0  0  0  0  0
   -1.9738    5.6873  -18.9518 N   0  0  0  0  0  0  0  0  0  0  0  0
   -2.9040    6.1589  -17.8023 C   0  0  0  0  0  0  0  0  0  0  0  0
   -3.0135    7.2079  -17.2992 O   0  0  0  0  0  0  0  0  0  0  0  0
   -2.0162    4.7234  -19.1473 H   0  0  0  0  0  0  0  0  0  0  0  0
   -1.0604    6.4293  -19.7773 C   0  0  0  0  0  0  0  0  0  0  0  0
   -1.7759    7.3862  -20.7277 C   0  0  0  0  0  0  0  0  0  0  0  0
   -1.8958    7.0692  -23.2276 C   0  0  0  0  0  0  0  0  0  0  0  0
   -2.4853    6.6724  -21.8821 C   0  0  0  0  0  0  0  0  0  0  0  0
   -2.3447    5.2641  -21.7347 O   0  0  0  0  0  0  0  0  0  0  0  0
   -1.4043    5.0282  -21.7640 H   0  0  0  0  0  0  0  0  0  0  0  0
 20 19  1  0  0  0
 20 21  1  0  0  0
 20 18  1  0  0  0
 18 17  1  0  0  0
 17 13  1  0  0  0
 13 14  1  0  0  0
 14 15  2  0  0  0
 14  1  1  0  0  0
  1  2  1  0  0  0
  2  3  1  0  0  0
  3  4  2  0  0  0
  3  5  1  0  0  0
  5  6  1  0  0  0
  6  7  2  0  0  0
  7  8  1  0  0  0
  8  9  2  0  0  0
  9 10  1  0  0  0
 10 11  2  0  0  0
 11  2  1  0  0  0
 11  6  1  0  0  0
 21 22  1  0  0  0
 13 16  1  0  0  0
  5 12  1  0  0  0
M  END
> <minimizedAffinity>
-5.13314

> <minimizedRMSD>
1.12607

$$$$
P56492


 23 24  0  0  0  0  0  0  0  0999 V2000
   -4.7949    6.0109  -17.7360 C   0  0  0  0  0  0  0  0  0  0  0  0
   -5.7016    5.0002  -18.1982 N   0  0  0  0  0  0  0  0  0  0  0  0
   -5.8125    4.5605  -19.5316 C   0  0  0  0  0  0  0  0  0  0  0  0
   -4.9731    4.6832  -20.4127 O   0  0  0  0  0  0  0  0  0  0  0  0
   -7.0688    3.9433  -19.6422 N   0  0  0  0  0  0  0  0  0  0  0  0
   -7.6928    3.9833  -18.4008 C   0  0  0  0  0  0  0  0  0  0  0  0
   -8.9410    3.5491  -18.0435 C   0  0  0  0  0  0  0  0  0  0  0  0
   -9.2840    3.6689  -16.6937 C   0  0  0  0  0  0  0  0  0  0  0  0
   -8.3920    4.2191  -15.7521 C   0  0  0  0  0  0  0  0  0  0  0  0
   -7.1451    4.7003  -16.1523 C   0  0  0  0  0  0  0  0  0  0  0  0
   -6.8302    4.5812  -17.4888 C   0  0  0  0  0  0  0  0  0  0  0  0
   -7.4448    3.5483  -20.4619 H   0  0  0  0  0  0  0  0  0  0  0  0
   -3.3212    5.2144  -16.0618 O   0  0  0  0  0  0  0  0  0  0  0  0
   -3.5054    5.4056  -17.1991 C   0  0  0  0  0  0  0  0  0  0  0  0
   -2.5586    5.2323  -18.4113 N   0  0  0  0  0  0  0  0  0  0  0  0
   -2.9785    5.3888  -19.2879 H   0  0  0  0  0  0  0  0  0  0  0  0
   -1.1613    4.8788  -18.4655 C   0  0  0  0  0  0  0  0  0  0  0  0
   -0.2043    5.8664  -17.7717 C   0  0  0  0  0  0  0  0  0  0  0  0
   -0.3302    5.8270  -16.3386 O   0  0  0  0  0  0  0  0  0  0  0  0
   -1.2169    6.1264  -16.0835 H   0  0  0  0  0  0  0  0  0  0  0  0
   -0.3093    7.2928  -18.3117 C   0  0  0  0  0  0  0  0  0  0  0  0
   -0.5814    7.2892  -19.6412 F   0  0  0  0  0  0  0  0  0  0  0  0
   -1.3223    7.9777  -17.7169 F   0  0  0  0  0  0  0  0  0  0  0  0
 13 14  2  0  0  0
 14  1  1  0  0  0
  1  2  1  0  0  0
  2  3  1  0  0  0
  3  4  2  0  0  0
  3  5  1  0  0  0
  5  6  1  0  0  0
  6  7  2  0  0  0
  7  8  1  0  0  0
  8  9  2  0  0  0
  9 10  1  0  0  0
 10 11  2  0  0  0
 14 15  1  0  0  0
 15 17  1  0  0  0
 17 18  1  0  0  0
 18 19  1  0  0  0
 18 21  1  0  0  0
 21 22  1  0  0  0
 21 23  1  0  0  0
 11  2  1  0  0  0
 11  6  1  0  0  0
  5 12  1  0  0  0
 15 16  1  0  0  0
 19 20  1  0  0  0
M  END
> <minimizedAffinity>
-5.15543

> <minimizedRMSD>
1.09678

$$$$
P56493


 22 23  0  0  0  0  0  0  0  0999 V2000
   -4.8118    5.0072  -19.2214 C   0  0  0  0  0  0  0  0  0  0  0  0
   -6.1246    4.5362  -18.8771 N   0  0  0  0  0  0  0  0  0  0  0  0
   -6.9965    3.8641  -19.7540 C   0  0  0  0  0  0  0  0  0  0  0  0
   -6.7653    3.5878  -20.9238 O   0  0  0  0  0  0  0  0  0  0  0  0
   -8.1558    3.5721  -19.0306 N   0  0  0  0  0  0  0  0  0  0  0  0
   -7.9990    4.0423  -17.7330 C   0  0  0  0  0  0  0  0  0  0  0  0
   -8.8719    3.9631  -16.6779 C   0  0  0  0  0  0  0  0  0  0  0  0
   -8.4144    4.4434  -15.4485 C   0  0  0  0  0  0  0  0  0  0  0  0
   -7.1318    5.0130  -15.3176 C   0  0  0  0  0  0  0  0  0  0  0  0
   -6.2772    5.1215  -16.4199 C   0  0  0  0  0  0  0  0  0  0  0  0
   -6.7350    4.6217  -17.6197 C   0  0  0  0  0  0  0  0  0  0  0  0
   -8.9510    3.1102  -19.3819 H   0  0  0  0  0  0  0  0  0  0  0  0
   -5.0470    6.2290  -21.3756 N   0  0  0  0  0  0  0  0  0  0  0  0
   -4.8645    6.4162  -19.8437 C   0  0  0  0  0  0  0  0  0  0  0  0
   -4.7091    7.3882  -19.2126 O   0  0  0  0  0  0  0  0  0  0  0  0
   -5.0846    5.2918  -21.6749 H   0  0  0  0  0  0  0  0  0  0  0  0
   -5.1700    7.2020  -22.4265 C   0  0  0  0  0  0  0  0  0  0  0  0
   -3.8886    6.4175  -24.4478 C   0  0  0  0  0  0  0  0  0  0  0  0
   -5.2750    6.5619  -23.8135 C   0  0  0  0  0  0  0  0  0  0  0  0
   -6.2137    7.3656  -24.7209 C   0  0  0  0  0  0  0  0  0  0  0  0
   -6.4227    8.6868  -24.2412 O   0  0  0  0  0  0  0  0  0  0  0  0
   -6.8365    8.6509  -23.3646 H   0  0  0  0  0  0  0  0  0  0  0  0
 19 18  1  0  0  0
 19 20  1  0  0  0
 20 21  1  0  0  0
 19 17  1  0  0  0
 17 13  1  0  0  0
 13 14  1  0  0  0
 14 15  2  0  0  0
 14  1  1  0  0  0
  1  2  1  0  0  0
  2  3  1  0  0  0
  3  4  2  0  0  0
  3  5  1  0  0  0
  5  6  1  0  0  0
  6  7  2  0  0  0
  7  8  1  0  0  0
  8  9  2  0  0  0
  9 10  1  0  0  0
 10 11  2  0  0  0
 11  2  1  0  0  0
 11  6  1  0  0  0
 21 22  1  0  0  0
 13 16  1  0  0  0
  5 12  1  0  0  0
M  END
> <minimizedAffinity>
-5.94294

> <minimizedRMSD>
0.73938

$$$$
P56688


 16 18  0  0  0  0  0  0  0  0999 V2000
   -7.9358    4.5119  -14.8699 C   0  0  0  0  0  0  0  0  0  0  0  0
   -8.4656    5.4193  -13.9667 C   0  0  0  0  0  0  0  0  0  0  0  0
   -8.1621    5.2700  -12.6201 C   0  0  0  0  0  0  0  0  0  0  0  0
   -7.3546    4.2051  -12.2097 C   0  0  0  0  0  0  0  0  0  0  0  0
   -6.8058    3.3749  -13.1947 C   0  0  0  0  0  0  0  0  0  0  0  0
   -7.0619    3.5316  -14.5198 N   0  0  0  0  0  0  0  0  0  0  0  0
   -5.9554    2.1868  -12.8213 C   0  0  0  0  0  0  0  0  0  0  0  0
   -5.4183    2.2409  -11.3938 C   0  0  0  0  0  0  0  0  0  0  0  0
   -6.5347    2.6065  -10.4239 C   0  0  0  0  0  0  0  0  0  0  0  0
   -7.0796    3.9978  -10.7425 C   0  0  0  0  0  0  0  0  0  0  0  0
   -9.4649    4.4148  -18.1107 C   0  0  0  0  0  0  0  0  0  0  0  0
   -8.1535    4.5702  -18.4818 C   0  0  0  0  0  0  0  0  0  0  0  0
   -7.4598    4.6260  -17.3083 N   0  0  0  0  0  0  0  0  0  0  0  0
   -8.3532    4.5300  -16.2694 C   0  0  0  0  0  0  0  0  0  0  0  0
   -9.5837    4.4225  -16.7438 N   0  0  0  0  0  0  0  0  0  0  0  0
   -6.4836    4.7192  -17.2208 H   0  0  0  0  0  0  0  0  0  0  0  0
 11 12  2  0  0  0
 12 13  1  0  0  0
 13 14  1  0  0  0
 14  1  1  0  0  0
  1  2  2  0  0  0
  2  3  1  0  0  0
  3  4  2  0  0  0
  4  5  1  0  0  0
  5  6  2  0  0  0
  5  7  1  0  0  0
  7  8  1  0  0  0
  8  9  1  0  0  0
  9 10  1  0  0  0
 14 15  2  0  0  0
 15 11  1  0  0  0
  6  1  1  0  0  0
 10  4  1  0  0  0
 13 16  1  0  0  0
M  END
> <minimizedAffinity>
-5.41146

> <minimizedRMSD>
0.95579

$$$$
P56689


 15 17  0  0  0  0  0  0  0  0999 V2000
   -8.0077    4.7993  -14.5371 C   0  0  0  0  0  0  0  0  0  0  0  0
   -8.6960    5.8662  -13.9505 C   0  0  0  0  0  0  0  0  0  0  0  0
   -8.7525    6.1517  -12.6207 N   0  0  0  0  0  0  0  0  0  0  0  0
   -8.1739    5.2625  -11.7942 C   0  0  0  0  0  0  0  0  0  0  0  0
   -7.4577    4.1847  -12.2670 C   0  0  0  0  0  0  0  0  0  0  0  0
   -7.3209    3.9790  -13.6484 C   0  0  0  0  0  0  0  0  0  0  0  0
   -6.3330    2.8750  -13.8693 C   0  0  0  0  0  0  0  0  0  0  0  0
   -6.3533    2.1386  -12.5221 C   0  0  0  0  0  0  0  0  0  0  0  0
   -6.6976    3.1843  -11.4612 C   0  0  0  0  0  0  0  0  0  0  0  0
   -8.8946    4.1561  -17.9461 C   0  0  0  0  0  0  0  0  0  0  0  0
   -7.6151    4.6006  -18.1502 C   0  0  0  0  0  0  0  0  0  0  0  0
   -7.1422    4.9108  -16.9088 N   0  0  0  0  0  0  0  0  0  0  0  0
   -8.1218    4.6394  -15.9859 C   0  0  0  0  0  0  0  0  0  0  0  0
   -9.1995    4.1921  -16.6130 N   0  0  0  0  0  0  0  0  0  0  0  0
   -6.2476    5.2696  -16.7081 H   0  0  0  0  0  0  0  0  0  0  0  0
 10 11  2  0  0  0
 11 12  1  0  0  0
 12 13  1  0  0  0
 13  1  1  0  0  0
  1  2  2  0  0  0
  2  3  1  0  0  0
  3  4  2  0  0  0
  4  5  1  0  0  0
  5  6  2  0  0  0
  6  7  1  0  0  0
  7  8  1  0  0  0
  8  9  1  0  0  0
 13 14  2  0  0  0
 14 10  1  0  0  0
  6  1  1  0  0  0
  9  5  1  0  0  0
 12 15  1  0  0  0
M  END
> <minimizedAffinity>
-5.07154

> <minimizedRMSD>
1.65482

$$$$
P56690


 15 17  0  0  0  0  0  0  0  0999 V2000
   -7.8358    4.4436  -14.8043 C   0  0  0  0  0  0  0  0  0  0  0  0
   -8.4820    5.1959  -13.8178 C   0  0  0  0  0  0  0  0  0  0  0  0
   -8.1552    4.9888  -12.4809 C   0  0  0  0  0  0  0  0  0  0  0  0
   -7.2176    4.0145  -12.2041 C   0  0  0  0  0  0  0  0  0  0  0  0
   -6.5932    3.3402  -13.2499 C   0  0  0  0  0  0  0  0  0  0  0  0
   -6.8320    3.5574  -14.5543 N   0  0  0  0  0  0  0  0  0  0  0  0
   -5.6102    2.3340  -12.7175 C   0  0  0  0  0  0  0  0  0  0  0  0
   -6.1079    2.1767  -11.2741 C   0  0  0  0  0  0  0  0  0  0  0  0
   -6.7341    3.5223  -10.8790 C   0  0  0  0  0  0  0  0  0  0  0  0
   -9.3948    4.5518  -18.0292 C   0  0  0  0  0  0  0  0  0  0  0  0
   -8.0790    4.6430  -18.4066 C   0  0  0  0  0  0  0  0  0  0  0  0
   -7.3751    4.6133  -17.2389 N   0  0  0  0  0  0  0  0  0  0  0  0
   -8.2657    4.5329  -16.1967 C   0  0  0  0  0  0  0  0  0  0  0  0
   -9.5038    4.5124  -16.6622 N   0  0  0  0  0  0  0  0  0  0  0  0
   -6.3945    4.6443  -17.1570 H   0  0  0  0  0  0  0  0  0  0  0  0
 10 11  2  0  0  0
 11 12  1  0  0  0
 12 13  1  0  0  0
 13  1  1  0  0  0
  1  2  2  0  0  0
  2  3  1  0  0  0
  3  4  2  0  0  0
  4  5  1  0  0  0
  5  6  2  0  0  0
  5  7  1  0  0  0
  7  8  1  0  0  0
  8  9  1  0  0  0
 13 14  2  0  0  0
 14 10  1  0  0  0
  6  1  1  0  0  0
  9  4  1  0  0  0
 12 15  1  0  0  0
M  END
> <minimizedAffinity>
-5.05697

> <minimizedRMSD>
0.62769

$$$$
P56782


 16 18  0  0  0  0  0  0  0  0999 V2000
   -7.1582    4.7188  -13.8252 C   0  0  0  0  0  0  0  0  0  0  0  0
   -5.8884    5.0340  -14.2559 N   0  0  0  0  0  0  0  0  0  0  0  0
   -5.7029    5.1439  -15.5309 C   0  0  0  0  0  0  0  0  0  0  0  0
   -6.7775    4.9391  -16.4318 C   0  0  0  0  0  0  0  0  0  0  0  0
   -6.9267    5.0259  -17.8022 C   0  0  0  0  0  0  0  0  0  0  0  0
   -8.2691    4.6313  -18.0733 C   0  0  0  0  0  0  0  0  0  0  0  0
   -8.8960    4.4197  -16.8705 C   0  0  0  0  0  0  0  0  0  0  0  0
   -7.9777    4.6045  -15.8800 N   0  0  0  0  0  0  0  0  0  0  0  0
   -8.2052    4.5195  -14.5607 N   0  0  0  0  0  0  0  0  0  0  0  0
   -5.9734    5.4674  -18.8559 C   0  0  0  0  0  0  0  0  0  0  0  0
   -5.9734    6.9869  -19.0515 C   0  0  0  0  0  0  0  0  0  0  0  0
   -5.0372    7.3652  -20.1960 C   0  0  0  0  0  0  0  0  0  0  0  0
   -3.6558    6.7324  -20.0233 C   0  0  0  0  0  0  0  0  0  0  0  0
   -3.7415    5.2741  -19.8764 N   0  0  0  0  0  0  0  0  0  0  0  0
   -4.5389    4.9496  -18.6710 C   0  0  0  0  0  0  0  0  0  0  0  0
   -2.8034    4.8857  -19.7790 H   0  0  0  0  0  0  0  0  0  0  0  0
  1  2  1  0  0  0
  2  3  2  0  0  0
  3  4  1  0  0  0
  4  5  2  0  0  0
 10  5  1  0  0  0
 10 11  1  0  0  0
 11 12  1  0  0  0
 12 13  1  0  0  0
 13 14  1  0  0  0
 14 15  1  0  0  0
  5  6  1  0  0  0
  6  7  2  0  0  0
  7  8  1  0  0  0
  8  9  1  0  0  0
  9  1  2  0  0  0
  8  4  1  0  0  0
 15 10  1  0  0  0
 14 16  1  0  0  0
M  END
> <minimizedAffinity>
-5.23626

> <minimizedRMSD>
0.52969

$$$$
P56788


 16 18  0  0  0  0  0  0  0  0999 V2000
   -7.1517    4.0930  -14.3648 C   0  0  0  0  0  0  0  0  0  0  0  0
   -5.8180    4.4350  -14.2880 N   0  0  0  0  0  0  0  0  0  0  0  0
   -5.2524    4.8589  -15.3697 C   0  0  0  0  0  0  0  0  0  0  0  0
   -5.9941    4.9532  -16.5723 C   0  0  0  0  0  0  0  0  0  0  0  0
   -5.6817    5.3475  -17.8562 C   0  0  0  0  0  0  0  0  0  0  0  0
   -6.8412    5.0587  -18.6339 C   0  0  0  0  0  0  0  0  0  0  0  0
   -7.8287    4.6242  -17.7800 C   0  0  0  0  0  0  0  0  0  0  0  0
   -7.2944    4.5563  -16.5265 N   0  0  0  0  0  0  0  0  0  0  0  0
   -7.9171    4.1579  -15.4089 N   0  0  0  0  0  0  0  0  0  0  0  0
   -4.3567    5.8311  -18.3584 C   0  0  0  0  0  0  0  0  0  0  0  0
   -3.4399    4.6043  -18.5169 C   0  0  0  0  0  0  0  0  0  0  0  0
   -2.2083    4.8844  -19.3559 C   0  0  0  0  0  0  0  0  0  0  0  0
   -2.6408    5.4518  -20.6380 N   0  0  0  0  0  0  0  0  0  0  0  0
   -3.1641    6.8037  -20.3828 C   0  0  0  0  0  0  0  0  0  0  0  0
   -4.4834    6.6926  -19.6300 C   0  0  0  0  0  0  0  0  0  0  0  0
   -3.3717    4.8688  -21.0457 H   0  0  0  0  0  0  0  0  0  0  0  0
  1  2  1  0  0  0
  2  3  2  0  0  0
  3  4  1  0  0  0
  4  5  2  0  0  0
  5 10  1  0  0  0
 10 11  1  0  0  0
 11 12  1  0  0  0
 12 13  1  0  0  0
 13 14  1  0  0  0
 14 15  1  0  0  0
  5  6  1  0  0  0
  6  7  2  0  0  0
  7  8  1  0  0  0
  8  9  1  0  0  0
  9  1  2  0  0  0
  8  4  1  0  0  0
 15 10  1  0  0  0
 13 16  1  0  0  0
M  END
> <minimizedAffinity>
-5.13427

> <minimizedRMSD>
0.77891

$$$$
P56823


 16 16  0  0  0  0  0  0  0  0999 V2000
   -5.5241    4.6826  -18.9279 N   0  0  0  0  0  0  0  0  0  0  0  0
   -5.8204    4.6731  -19.9039 H   0  0  0  0  0  0  0  0  0  0  0  0
   -4.1233    5.1380  -18.9517 C   0  0  0  0  0  0  0  0  0  0  0  0
   -3.3318    4.6270  -17.7454 C   0  0  0  0  0  0  0  0  0  0  0  0
   -2.2013    5.5768  -17.3568 C   0  0  0  0  0  0  0  0  0  0  0  0
   -1.5483    6.1785  -18.5996 C   0  0  0  0  0  0  0  0  0  0  0  0
   -2.4613    6.9745  -19.4198 N   0  0  0  0  0  0  0  0  0  0  0  0
   -3.8837    6.6316  -19.2321 C   0  0  0  0  0  0  0  0  0  0  0  0
   -2.2223    6.8289  -20.4007 H   0  0  0  0  0  0  0  0  0  0  0  0
   -6.7620    5.4105  -18.1025 S   0  0  0  0  0  0  0  0  0  0  0  0
   -7.8982    4.5327  -18.2484 O   0  0  0  0  0  0  0  0  0  0  0  0
   -6.8043    6.8031  -18.4707 O   0  0  0  0  0  0  0  0  0  0  0  0
   -6.2327    5.3339  -16.4927 N   0  0  0  0  0  0  0  0  0  0  0  0
   -5.8491    6.6295  -15.8961 C   0  0  0  0  0  0  0  0  0  0  0  0
   -6.4587    3.9324  -14.4201 C   0  0  0  0  0  0  0  0  0  0  0  0
   -7.1576    4.5308  -15.6287 C   0  0  0  0  0  0  0  0  0  0  0  0
 15 16  1  0  0  0
 16 13  1  0  0  0
 13 14  1  0  0  0
 13 10  1  0  0  0
 10 11  2  0  0  0
 10 12  2  0  0  0
 10  1  1  0  0  0
  3  1  1  0  0  0
  3  4  1  0  0  0
  4  5  1  0  0  0
  5  6  1  0  0  0
  6  7  1  0  0  0
  7  8  1  0  0  0
  8  3  1  0  0  0
  1  2  1  0  0  0
  7  9  1  0  0  0
M  END
> <minimizedAffinity>
-3.63185

> <minimizedRMSD>
0.95640

$$$$
P56946


 25 27  0  0  0  0  0  0  0  0999 V2000
   -8.3345    4.2429  -12.3011 N   0  0  0  0  0  0  0  0  0  0  0  0
   -9.0705    3.8178  -12.7979 H   0  0  0  0  0  0  0  0  0  0  0  0
   -8.4765    2.8041   -8.9725 C   0  0  0  0  0  0  0  0  0  0  0  0
   -8.8661    3.1348  -10.2500 C   0  0  0  0  0  0  0  0  0  0  0  0
   -8.0843    4.0353  -10.9354 C   0  0  0  0  0  0  0  0  0  0  0  0
   -7.0252    4.6335  -10.3636 N   0  0  0  0  0  0  0  0  0  0  0  0
   -6.7440    4.2702   -9.1145 C   0  0  0  0  0  0  0  0  0  0  0  0
   -7.4098    3.3748   -8.3929 N   0  0  0  0  0  0  0  0  0  0  0  0
   -9.1813    1.8195   -8.2878 N   0  0  0  0  0  0  0  0  0  0  0  0
   -9.5963    1.0580   -8.7537 H   0  0  0  0  0  0  0  0  0  0  0  0
   -9.2703    1.9780   -6.8488 C   0  0  0  0  0  0  0  0  0  0  0  0
  -11.0519    2.6243   -5.1873 C   0  0  0  0  0  0  0  0  0  0  0  0
  -10.2394    3.0601   -6.3917 C   0  0  0  0  0  0  0  0  0  0  0  0
   -7.3801    5.1572  -12.8906 C   0  0  0  0  0  0  0  0  0  0  0  0
   -7.2599    4.9353  -14.3667 C   0  0  0  0  0  0  0  0  0  0  0  0
   -6.0476    5.1774  -15.0233 C   0  0  0  0  0  0  0  0  0  0  0  0
   -5.9736    5.0966  -16.4068 C   0  0  0  0  0  0  0  0  0  0  0  0
   -7.1101    4.7610  -17.1441 C   0  0  0  0  0  0  0  0  0  0  0  0
   -8.3201    4.4842  -16.4824 C   0  0  0  0  0  0  0  0  0  0  0  0
   -8.3872    4.5659  -15.1004 C   0  0  0  0  0  0  0  0  0  0  0  0
   -9.5339    4.0740  -17.2603 C   0  0  0  0  0  0  0  0  0  0  0  0
   -9.4246    4.5901  -18.6726 C   0  0  0  0  0  0  0  0  0  0  0  0
   -8.1770    4.1537  -19.3141 N   0  0  0  0  0  0  0  0  0  0  0  0
   -7.0395    4.7911  -18.6451 C   0  0  0  0  0  0  0  0  0  0  0  0
   -8.1877    4.4222  -20.2980 H   0  0  0  0  0  0  0  0  0  0  0  0
 12 13  1  0  0  0
 13 11  1  0  0  0
 11  9  1  0  0  0
  9  3  1  0  0  0
  3  4  2  0  0  0
  4  5  1  0  0  0
  5  1  1  0  0  0
  1 14  1  0  0  0
 14 15  1  0  0  0
 15 16  2  0  0  0
 16 17  1  0  0  0
 17 18  2  0  0  0
 18 19  1  0  0  0
 19 20  2  0  0  0
 19 21  1  0  0  0
 21 22  1  0  0  0
 22 23  1  0  0  0
 23 24  1  0  0  0
  5  6  2  0  0  0
  6  7  1  0  0  0
  7  8  2  0  0  0
  8  3  1  0  0  0
 20 15  1  0  0  0
 24 18  1  0  0  0
  9 10  1  0  0  0
  1  2  1  0  0  0
 23 25  1  0  0  0
M  END
> <minimizedAffinity>
-6.84065

> <minimizedRMSD>
0.66377

$$$$
P56994


 15 15  0  0  0  0  0  0  0  0999 V2000
   -6.1396    4.5747  -18.5313 N   0  0  0  0  0  0  0  0  0  0  0  0
   -6.3439    3.8080  -19.1141 H   0  0  0  0  0  0  0  0  0  0  0  0
   -4.9756    5.3471  -18.6720 C   0  0  0  0  0  0  0  0  0  0  0  0
   -3.7307    4.7290  -18.6784 C   0  0  0  0  0  0  0  0  0  0  0  0
   -2.6069    5.5166  -18.8417 C   0  0  0  0  0  0  0  0  0  0  0  0
   -2.6439    6.8606  -18.9794 N   0  0  0  0  0  0  0  0  0  0  0  0
   -3.8625    7.4391  -18.9262 C   0  0  0  0  0  0  0  0  0  0  0  0
   -5.0425    6.7351  -18.7711 C   0  0  0  0  0  0  0  0  0  0  0  0
   -7.0344    5.0081  -17.4343 C   0  0  0  0  0  0  0  0  0  0  0  0
   -6.4903    4.6119  -16.0430 C   0  0  0  0  0  0  0  0  0  0  0  0
   -6.9857    3.5776  -13.9782 C   0  0  0  0  0  0  0  0  0  0  0  0
   -7.4516    3.8726  -15.2848 O   0  0  0  0  0  0  0  0  0  0  0  0
   -8.4283    4.4024  -17.6468 C   0  0  0  0  0  0  0  0  0  0  0  0
   -9.1308    5.2658  -18.5271 O   0  0  0  0  0  0  0  0  0  0  0  0
  -10.5153    5.0740  -18.4621 C   0  0  0  0  0  0  0  0  0  0  0  0
 11 12  1  0  0  0
 12 10  1  0  0  0
 10  9  1  0  0  0
  9 13  1  0  0  0
 13 14  1  0  0  0
 14 15  1  0  0  0
  9  1  1  0  0  0
  1  3  1  0  0  0
  3  4  2  0  0  0
  4  5  1  0  0  0
  5  6  2  0  0  0
  6  7  1  0  0  0
  7  8  2  0  0  0
  8  3  1  0  0  0
  1  2  1  0  0  0
M  END
> <minimizedAffinity>
-3.88330

> <minimizedRMSD>
0.81616

$$$$
P57148


 16 16  0  0  0  0  0  0  0  0999 V2000
   -6.8555    4.7374  -15.5766 N   0  0  0  0  0  0  0  0  0  0  0  0
   -6.9327    3.7786  -15.9158 H   0  0  0  0  0  0  0  0  0  0  0  0
   -5.7189    5.3758  -16.2561 C   0  0  0  0  0  0  0  0  0  0  0  0
   -5.4083    6.7496  -15.6476 C   0  0  0  0  0  0  0  0  0  0  0  0
   -6.0160    5.4715  -17.7727 C   0  0  0  0  0  0  0  0  0  0  0  0
   -4.9064    5.7722  -20.0257 C   0  0  0  0  0  0  0  0  0  0  0  0
   -4.8583    5.0279  -18.6951 C   0  0  0  0  0  0  0  0  0  0  0  0
   -3.4555    5.1070  -18.1072 C   0  0  0  0  0  0  0  0  0  0  0  0
   -6.7421    4.6993  -14.1133 C   0  0  0  0  0  0  0  0  0  0  0  0
   -8.1166    4.8567  -13.4568 C   0  0  0  0  0  0  0  0  0  0  0  0
   -8.1369    4.5969  -11.9705 C   0  0  0  0  0  0  0  0  0  0  0  0
   -8.0832    5.6452  -11.0500 C   0  0  0  0  0  0  0  0  0  0  0  0
   -8.1594    5.3491   -9.6966 C   0  0  0  0  0  0  0  0  0  0  0  0
   -8.2865    4.1016   -9.1996 N   0  0  0  0  0  0  0  0  0  0  0  0
   -8.3371    3.0981  -10.1054 C   0  0  0  0  0  0  0  0  0  0  0  0
   -8.2685    3.2945  -11.4778 C   0  0  0  0  0  0  0  0  0  0  0  0
  6  7  1  0  0  0
  7  8  1  0  0  0
  7  5  1  0  0  0
  5  3  1  0  0  0
  3  4  1  0  0  0
  3  1  1  0  0  0
  1  9  1  0  0  0
  9 10  1  0  0  0
 10 11  1  0  0  0
 11 12  2  0  0  0
 12 13  1  0  0  0
 13 14  2  0  0  0
 14 15  1  0  0  0
 15 16  2  0  0  0
 16 11  1  0  0  0
  1  2  1  0  0  0
M  END
> <minimizedAffinity>
-4.07142

> <minimizedRMSD>
0.48396

$$$$
P57217


 21 23  0  0  0  0  0  0  0  0999 V2000
   -5.6974    3.8985  -13.8487 N   0  0  0  0  0  0  0  0  0  0  0  0
   -5.8041    2.3841  -13.5166 C   0  0  0  0  0  0  0  0  0  0  0  0
   -6.7360    1.6786  -13.4888 O   0  0  0  0  0  0  0  0  0  0  0  0
   -4.7784    4.2504  -13.8783 H   0  0  0  0  0  0  0  0  0  0  0  0
   -6.7190    4.8655  -14.1187 C   0  0  0  0  0  0  0  0  0  0  0  0
   -9.4810    4.3720  -18.3682 C   0  0  0  0  0  0  0  0  0  0  0  0
   -8.3825    4.5629  -17.4133 C   0  0  0  0  0  0  0  0  0  0  0  0
   -7.0397    4.6841  -17.6867 C   0  0  0  0  0  0  0  0  0  0  0  0
   -6.3266    4.8236  -16.5375 O   0  0  0  0  0  0  0  0  0  0  0  0
   -7.2218    4.7538  -15.5065 C   0  0  0  0  0  0  0  0  0  0  0  0
   -8.4977    4.6337  -16.0067 C   0  0  0  0  0  0  0  0  0  0  0  0
   -4.3942    1.9029  -13.1800 C   0  0  0  0  0  0  0  0  0  0  0  0
   -3.8406    2.6548  -12.0215 C   0  0  0  0  0  0  0  0  0  0  0  0
   -4.1035    2.4903  -10.6763 C   0  0  0  0  0  0  0  0  0  0  0  0
   -3.4091    3.4821  -10.0371 N   0  0  0  0  0  0  0  0  0  0  0  0
   -3.3525    3.7973   -8.6823 C   0  0  0  0  0  0  0  0  0  0  0  0
   -2.5900    4.8285   -8.2805 C   0  0  0  0  0  0  0  0  0  0  0  0
   -1.8437    5.5823   -9.2777 C   0  0  0  0  0  0  0  0  0  0  0  0
   -1.9118    5.2767  -10.5888 C   0  0  0  0  0  0  0  0  0  0  0  0
   -2.7261    4.1909  -11.0206 C   0  0  0  0  0  0  0  0  0  0  0  0
   -2.9816    3.7168  -12.2229 N   0  0  0  0  0  0  0  0  0  0  0  0
  6  7  1  0  0  0
  7  8  2  0  0  0
  8  9  1  0  0  0
  9 10  1  0  0  0
 10  5  1  0  0  0
  5  1  1  0  0  0
  1  2  1  0  0  0
  2  3  2  0  0  0
  2 12  1  0  0  0
 12 13  1  0  0  0
 13 14  2  0  0  0
 14 15  1  0  0  0
 15 16  1  0  0  0
 16 17  2  0  0  0
 17 18  1  0  0  0
 18 19  2  0  0  0
 19 20  1  0  0  0
 20 21  2  0  0  0
 10 11  2  0  0  0
 11  7  1  0  0  0
 21 13  1  0  0  0
 20 15  1  0  0  0
  1  4  1  0  0  0
M  END
> <minimizedAffinity>
-4.90642

> <minimizedRMSD>
0.78559

$$$$
P57222


 25 27  0  0  0  0  0  0  0  0999 V2000
   -7.0775    1.7860  -13.5509 O   0  0  0  0  0  0  0  0  0  0  0  0
   -6.8862    2.7174  -12.8730 C   0  0  0  0  0  0  0  0  0  0  0  0
   -7.2826    4.2098  -13.0746 N   0  0  0  0  0  0  0  0  0  0  0  0
   -6.9361    4.8250  -12.3886 H   0  0  0  0  0  0  0  0  0  0  0  0
   -6.1465    2.6665  -11.5296 C   0  0  0  0  0  0  0  0  0  0  0  0
   -4.7349    2.1968  -11.6207 C   0  0  0  0  0  0  0  0  0  0  0  0
   -3.8931    1.7370  -10.6277 C   0  0  0  0  0  0  0  0  0  0  0  0
   -2.7035    1.4551  -11.2405 N   0  0  0  0  0  0  0  0  0  0  0  0
   -1.5284    0.9399  -10.7047 C   0  0  0  0  0  0  0  0  0  0  0  0
   -0.4710    0.7410  -11.5095 C   0  0  0  0  0  0  0  0  0  0  0  0
   -0.5907    1.0710  -12.9215 C   0  0  0  0  0  0  0  0  0  0  0  0
   -1.7317    1.5759  -13.4319 C   0  0  0  0  0  0  0  0  0  0  0  0
   -2.8562    1.7842  -12.5822 C   0  0  0  0  0  0  0  0  0  0  0  0
   -4.0675    2.2377  -12.8315 N   0  0  0  0  0  0  0  0  0  0  0  0
   -8.0760    4.8373  -14.1045 C   0  0  0  0  0  0  0  0  0  0  0  0
   -7.6424    4.4575  -15.5300 C   0  0  0  0  0  0  0  0  0  0  0  0
   -6.9671    5.6378  -16.2437 C   0  0  0  0  0  0  0  0  0  0  0  0
   -6.7036    5.4465  -17.6790 N   0  0  0  0  0  0  0  0  0  0  0  0
   -7.7371    4.5925  -18.3121 C   0  0  0  0  0  0  0  0  0  0  0  0
   -9.0181    4.4916  -17.5061 C   0  0  0  0  0  0  0  0  0  0  0  0
   -8.7847    3.9260  -16.2205 O   0  0  0  0  0  0  0  0  0  0  0  0
   -5.3818    4.8801  -17.9967 C   0  0  0  0  0  0  0  0  0  0  0  0
   -4.2993    5.1307  -16.9463 C   0  0  0  0  0  0  0  0  0  0  0  0
   -3.0785    4.4703  -17.2767 O   0  0  0  0  0  0  0  0  0  0  0  0
   -3.2292    3.5129  -17.3159 H   0  0  0  0  0  0  0  0  0  0  0  0
  1  2  2  0  0  0
  2  5  1  0  0  0
  5  6  1  0  0  0
  6  7  2  0  0  0
  7  8  1  0  0  0
  8  9  1  0  0  0
  9 10  2  0  0  0
 10 11  1  0  0  0
 11 12  2  0  0  0
 12 13  1  0  0  0
 13 14  2  0  0  0
  2  3  1  0  0  0
  3 15  1  0  0  0
 16 15  1  0  0  0
 16 17  1  0  0  0
 17 18  1  0  0  0
 18 22  1  0  0  0
 22 23  1  0  0  0
 23 24  1  0  0  0
 18 19  1  0  0  0
 19 20  1  0  0  0
 20 21  1  0  0  0
 14  6  1  0  0  0
 21 16  1  0  0  0
 13  8  1  0  0  0
  3  4  1  0  0  0
 24 25  1  0  0  0
M  END
> <minimizedAffinity>
-5.97878

> <minimizedRMSD>
1.61811

$$$$
P57300


 25 27  0  0  0  0  0  0  0  0999 V2000
   -7.6941    5.0491  -13.0168 C   0  0  0  0  0  0  0  0  0  0  0  0
   -7.4839    6.1572  -12.1798 C   0  0  0  0  0  0  0  0  0  0  0  0
   -7.6818    6.0639  -10.8106 C   0  0  0  0  0  0  0  0  0  0  0  0
   -8.1085    4.8552  -10.3064 C   0  0  0  0  0  0  0  0  0  0  0  0
   -8.3649    3.7533  -11.1195 C   0  0  0  0  0  0  0  0  0  0  0  0
   -8.1472    3.8284  -12.4893 C   0  0  0  0  0  0  0  0  0  0  0  0
   -8.9025    2.6427  -10.2584 C   0  0  0  0  0  0  0  0  0  0  0  0
   -8.6309    3.0903   -8.8656 N   0  0  0  0  0  0  0  0  0  0  0  0
   -8.3723    4.5231   -8.8855 C   0  0  0  0  0  0  0  0  0  0  0  0
   -4.9289    5.0779  -14.7187 O   0  0  0  0  0  0  0  0  0  0  0  0
   -6.0280    5.1408  -15.1355 C   0  0  0  0  0  0  0  0  0  0  0  0
   -7.4080    5.1756  -14.3737 N   0  0  0  0  0  0  0  0  0  0  0  0
   -8.1946    5.3083  -14.9507 H   0  0  0  0  0  0  0  0  0  0  0  0
   -6.3471    5.0932  -16.6374 C   0  0  0  0  0  0  0  0  0  0  0  0
   -6.7466    6.2926  -17.1388 F   0  0  0  0  0  0  0  0  0  0  0  0
   -7.3303    4.2013  -16.9275 F   0  0  0  0  0  0  0  0  0  0  0  0
   -5.2472    4.7457  -17.3459 F   0  0  0  0  0  0  0  0  0  0  0  0
   -9.5978    2.6604   -7.8726 C   0  0  0  0  0  0  0  0  0  0  0  0
   -9.1794    3.0315   -6.4367 C   0  0  0  0  0  0  0  0  0  0  0  0
  -10.0813    3.9711   -5.6382 C   0  0  0  0  0  0  0  0  0  0  0  0
   -9.3351    5.2691   -5.3412 C   0  0  0  0  0  0  0  0  0  0  0  0
   -9.2014    5.7525   -3.8772 C   0  0  0  0  0  0  0  0  0  0  0  0
   -9.4038    7.1327   -4.3711 N   0  0  0  0  0  0  0  0  0  0  0  0
  -10.1314    6.5798   -5.5362 C   0  0  0  0  0  0  0  0  0  0  0  0
   -8.5423    7.6247   -4.6085 H   0  0  0  0  0  0  0  0  0  0  0  0
 10 11  2  0  0  0
 11 12  1  0  0  0
 12  1  1  0  0  0
  1  2  2  0  0  0
  2  3  1  0  0  0
  3  4  2  0  0  0
  4  5  1  0  0  0
  5  6  2  0  0  0
  5  7  1  0  0  0
  7  8  1  0  0  0
  8 18  1  0  0  0
 18 19  1  0  0  0
 19 20  1  0  0  0
 20 21  1  0  0  0
 21 22  1  0  0  0
 22 23  1  0  0  0
 23 24  1  0  0  0
  8  9  1  0  0  0
 11 14  1  0  0  0
 14 15  1  0  0  0
 14 16  1  0  0  0
 14 17  1  0  0  0
  6  1  1  0  0  0
 24 21  1  0  0  0
  9  4  1  0  0  0
 12 13  1  0  0  0
 23 25  1  0  0  0
M  END
> <minimizedAffinity>
-5.91060

> <minimizedRMSD>
2.08752

$$$$
P57358


 22 24  0  0  0  0  0  0  0  0999 V2000
   -8.6495    2.8182  -12.0294 O   0  0  0  0  0  0  0  0  0  0  0  0
   -8.0510    3.7893  -11.8077 C   0  0  0  0  0  0  0  0  0  0  0  0
   -6.9447    4.4838  -12.6173 N   0  0  0  0  0  0  0  0  0  0  0  0
   -6.6455    5.3470  -12.2502 H   0  0  0  0  0  0  0  0  0  0  0  0
   -8.2414    4.5267  -10.4810 C   0  0  0  0  0  0  0  0  0  0  0  0
   -7.9615    5.8670  -10.5413 N   0  0  0  0  0  0  0  0  0  0  0  0
   -8.0332    6.5602   -9.3854 C   0  0  0  0  0  0  0  0  0  0  0  0
   -8.3284    5.9993   -8.1591 C   0  0  0  0  0  0  0  0  0  0  0  0
   -8.6090    4.6347   -8.1057 C   0  0  0  0  0  0  0  0  0  0  0  0
   -8.5584    3.8644   -9.2862 C   0  0  0  0  0  0  0  0  0  0  0  0
   -8.8572    2.3854   -9.2423 C   0  0  0  0  0  0  0  0  0  0  0  0
   -8.8828    1.8068   -7.8921 N   0  0  0  0  0  0  0  0  0  0  0  0
   -9.6073    2.6359   -6.9516 C   0  0  0  0  0  0  0  0  0  0  0  0
   -8.9190    3.9856   -6.7789 C   0  0  0  0  0  0  0  0  0  0  0  0
   -7.9232    1.6995   -7.5631 H   0  0  0  0  0  0  0  0  0  0  0  0
   -6.2734    4.0771  -13.8273 C   0  0  0  0  0  0  0  0  0  0  0  0
   -6.9181    4.3956  -15.1555 C   0  0  0  0  0  0  0  0  0  0  0  0
   -8.2813    4.3036  -15.3620 C   0  0  0  0  0  0  0  0  0  0  0  0
   -8.7203    4.4670  -16.6575 C   0  0  0  0  0  0  0  0  0  0  0  0
   -7.9015    4.6786  -17.7016 N   0  0  0  0  0  0  0  0  0  0  0  0
   -6.6003    4.7364  -17.4076 C   0  0  0  0  0  0  0  0  0  0  0  0
   -6.0593    4.6298  -16.1831 N   0  0  0  0  0  0  0  0  0  0  0  0
  1  2  2  0  0  0
  2  3  1  0  0  0
  3 16  1  0  0  0
 16 17  1  0  0  0
 17 18  2  0  0  0
 18 19  1  0  0  0
 19 20  2  0  0  0
 20 21  1  0  0  0
 21 22  2  0  0  0
  2  5  1  0  0  0
  5  6  2  0  0  0
  6  7  1  0  0  0
  7  8  2  0  0  0
  8  9  1  0  0  0
  9 10  2  0  0  0
 10 11  1  0  0  0
 11 12  1  0  0  0
 12 13  1  0  0  0
 13 14  1  0  0  0
 22 17  1  0  0  0
 10  5  1  0  0  0
 14  9  1  0  0  0
  3  4  1  0  0  0
 12 15  1  0  0  0
M  END
> <minimizedAffinity>
-6.17213

> <minimizedRMSD>
0.54980

$$$$
P57374


 24 26  0  0  0  0  0  0  0  0999 V2000
   -6.6171    4.6920  -14.2980 C   0  0  0  0  0  0  0  0  0  0  0  0
   -5.5357    5.0816  -15.0103 N   0  0  0  0  0  0  0  0  0  0  0  0
   -5.6397    5.0870  -16.3565 C   0  0  0  0  0  0  0  0  0  0  0  0
   -6.8254    4.7423  -17.0242 C   0  0  0  0  0  0  0  0  0  0  0  0
   -7.0371    4.7792  -18.4213 C   0  0  0  0  0  0  0  0  0  0  0  0
   -8.2220    4.3204  -18.9731 C   0  0  0  0  0  0  0  0  0  0  0  0
   -9.2441    3.8867  -18.1448 C   0  0  0  0  0  0  0  0  0  0  0  0
   -9.0598    3.8941  -16.7654 C   0  0  0  0  0  0  0  0  0  0  0  0
   -7.8664    4.3130  -16.1972 C   0  0  0  0  0  0  0  0  0  0  0  0
   -7.7764    4.3082  -14.8694 N   0  0  0  0  0  0  0  0  0  0  0  0
   -8.1966    4.4300  -12.0674 Cl  0  0  0  0  0  0  0  0  0  0  0  0
   -6.6022    4.7842  -12.7689 C   0  0  0  0  0  0  0  0  0  0  0  0
   -5.4148    3.6779  -12.0013 Cl  0  0  0  0  0  0  0  0  0  0  0  0
   -6.0653    6.4486  -12.3070 Cl  0  0  0  0  0  0  0  0  0  0  0  0
   -4.4618    5.5160  -17.0276 N   0  0  0  0  0  0  0  0  0  0  0  0
   -4.2617    6.4710  -17.1584 H   0  0  0  0  0  0  0  0  0  0  0  0
   -3.6210    4.5399  -17.4825 N   0  0  0  0  0  0  0  0  0  0  0  0
   -3.1237    4.6448  -18.6821 C   0  0  0  0  0  0  0  0  0  0  0  0
   -3.2153    5.7398  -19.6665 C   0  0  0  0  0  0  0  0  0  0  0  0
   -2.1437    6.1339  -20.4544 C   0  0  0  0  0  0  0  0  0  0  0  0
   -2.3498    7.1538  -21.3815 C   0  0  0  0  0  0  0  0  0  0  0  0
   -3.6101    7.7297  -21.4980 C   0  0  0  0  0  0  0  0  0  0  0  0
   -4.6254    7.2550  -20.6848 C   0  0  0  0  0  0  0  0  0  0  0  0
   -4.4603    6.2695  -19.7776 N   0  0  0  0  0  0  0  0  0  0  0  0
 11 12  1  0  0  0
 12 13  1  0  0  0
 12 14  1  0  0  0
 12  1  1  0  0  0
  1  2  2  0  0  0
  2  3  1  0  0  0
  3 15  1  0  0  0
 15 17  1  0  0  0
 17 18  2  0  0  0
 18 19  1  0  0  0
 19 20  2  0  0  0
 20 21  1  0  0  0
 21 22  2  0  0  0
 22 23  1  0  0  0
 23 24  2  0  0  0
  3  4  2  0  0  0
  4  5  1  0  0  0
  5  6  2  0  0  0
  6  7  1  0  0  0
  7  8  2  0  0  0
  8  9  1  0  0  0
  9 10  2  0  0  0
 10  1  1  0  0  0
 24 19  1  0  0  0
  9  4  1  0  0  0
 15 16  1  0  0  0
M  END
> <minimizedAffinity>
-6.34955

> <minimizedRMSD>
2.61848

$$$$
P57375


 23 25  0  0  0  0  0  0  0  0999 V2000
   -5.8401    5.0814  -15.7948 C   0  0  0  0  0  0  0  0  0  0  0  0
   -6.0755    5.2062  -14.4697 N   0  0  0  0  0  0  0  0  0  0  0  0
   -7.3165    4.9593  -14.0046 C   0  0  0  0  0  0  0  0  0  0  0  0
   -8.3493    4.6634  -14.7989 N   0  0  0  0  0  0  0  0  0  0  0  0
   -8.1286    4.5369  -16.1035 C   0  0  0  0  0  0  0  0  0  0  0  0
   -9.1959    4.1643  -16.9066 C   0  0  0  0  0  0  0  0  0  0  0  0
   -9.0397    3.9696  -18.2754 C   0  0  0  0  0  0  0  0  0  0  0  0
   -7.8014    4.1868  -18.8582 C   0  0  0  0  0  0  0  0  0  0  0  0
   -6.7450    4.6384  -18.0850 C   0  0  0  0  0  0  0  0  0  0  0  0
   -6.8782    4.7588  -16.6849 C   0  0  0  0  0  0  0  0  0  0  0  0
   -4.1363    6.6878  -16.3340 C   0  0  0  0  0  0  0  0  0  0  0  0
   -4.5135    5.2751  -16.2962 N   0  0  0  0  0  0  0  0  0  0  0  0
   -3.5404    4.4683  -15.5600 C   0  0  0  0  0  0  0  0  0  0  0  0
   -7.5335    5.0665  -12.6141 N   0  0  0  0  0  0  0  0  0  0  0  0
   -8.0753    6.4052  -12.3784 C   0  0  0  0  0  0  0  0  0  0  0  0
   -8.3487    3.9667  -12.0513 C   0  0  0  0  0  0  0  0  0  0  0  0
   -7.6678    3.2016  -10.9059 C   0  0  0  0  0  0  0  0  0  0  0  0
   -8.2179    3.4109   -9.5190 C   0  0  0  0  0  0  0  0  0  0  0  0
   -7.7114    4.4416   -8.7288 C   0  0  0  0  0  0  0  0  0  0  0  0
   -8.1723    4.6000   -7.4258 C   0  0  0  0  0  0  0  0  0  0  0  0
   -9.1186    3.7154   -6.9350 C   0  0  0  0  0  0  0  0  0  0  0  0
   -9.5688    2.7165   -7.7793 C   0  0  0  0  0  0  0  0  0  0  0  0
   -9.1603    2.5559   -9.0581 N   0  0  0  0  0  0  0  0  0  0  0  0
 11 12  1  0  0  0
 12 13  1  0  0  0
 12  1  1  0  0  0
  1  2  2  0  0  0
  2  3  1  0  0  0
  3 14  1  0  0  0
 14 15  1  0  0  0
 14 16  1  0  0  0
 16 17  1  0  0  0
 17 18  1  0  0  0
 18 19  2  0  0  0
 19 20  1  0  0  0
 20 21  2  0  0  0
 21 22  1  0  0  0
 22 23  2  0  0  0
  3  4  2  0  0  0
  4  5  1  0  0  0
  5  6  2  0  0  0
  6  7  1  0  0  0
  7  8  2  0  0  0
  8  9  1  0  0  0
  9 10  2  0  0  0
 10  1  1  0  0  0
 23 18  1  0  0  0
 10  5  1  0  0  0
M  END
> <minimizedAffinity>
-6.69144

> <minimizedRMSD>
1.43849

$$$$
P57378


 22 25  0  0  0  0  0  0  0  0999 V2000
   -8.9701    3.9426  -18.4943 C   0  0  0  0  0  0  0  0  0  0  0  0
   -7.7333    4.2253  -19.0389 C   0  0  0  0  0  0  0  0  0  0  0  0
   -6.7015    4.6651  -18.2229 C   0  0  0  0  0  0  0  0  0  0  0  0
   -6.8335    4.7053  -16.8143 C   0  0  0  0  0  0  0  0  0  0  0  0
   -5.8344    5.0502  -15.8679 C   0  0  0  0  0  0  0  0  0  0  0  0
   -6.1210    5.0659  -14.5417 N   0  0  0  0  0  0  0  0  0  0  0  0
   -7.3610    4.6965  -14.1596 C   0  0  0  0  0  0  0  0  0  0  0  0
   -8.3608    4.3937  -14.9893 N   0  0  0  0  0  0  0  0  0  0  0  0
   -8.0923    4.3829  -16.2847 C   0  0  0  0  0  0  0  0  0  0  0  0
   -9.1407    4.0363  -17.1210 C   0  0  0  0  0  0  0  0  0  0  0  0
   -4.5405    5.4341  -16.2487 N   0  0  0  0  0  0  0  0  0  0  0  0
   -4.3071    6.8704  -16.4466 C   0  0  0  0  0  0  0  0  0  0  0  0
   -2.9636    7.0732  -17.1780 C   0  0  0  0  0  0  0  0  0  0  0  0
   -1.8264    6.4379  -16.5848 O   0  0  0  0  0  0  0  0  0  0  0  0
   -2.1856    5.6318  -15.4626 C   0  0  0  0  0  0  0  0  0  0  0  0
   -3.3623    4.6949  -15.7543 C   0  0  0  0  0  0  0  0  0  0  0  0
   -7.6880    4.6237  -12.7285 C   0  0  0  0  0  0  0  0  0  0  0  0
   -8.1579    3.4286  -12.1577 C   0  0  0  0  0  0  0  0  0  0  0  0
   -8.5018    3.3964  -10.8156 C   0  0  0  0  0  0  0  0  0  0  0  0
   -8.4143    4.4706  -10.0029 N   0  0  0  0  0  0  0  0  0  0  0  0
   -7.9598    5.6112  -10.5601 C   0  0  0  0  0  0  0  0  0  0  0  0
   -7.5837    5.7351  -11.8896 C   0  0  0  0  0  0  0  0  0  0  0  0
  1  2  2  0  0  0
  2  3  1  0  0  0
  3  4  2  0  0  0
  4  5  1  0  0  0
  5 11  1  0  0  0
 11 12  1  0  0  0
 12 13  1  0  0  0
 13 14  1  0  0  0
 14 15  1  0  0  0
 15 16  1  0  0  0
  5  6  2  0  0  0
  6  7  1  0  0  0
  7 17  1  0  0  0
 17 18  2  0  0  0
 18 19  1  0  0  0
 19 20  2  0  0  0
 20 21  1  0  0  0
 21 22  2  0  0  0
  7  8  2  0  0  0
  8  9  1  0  0  0
  9 10  2  0  0  0
 10  1  1  0  0  0
  9  4  1  0  0  0
 16 11  1  0  0  0
 22 17  1  0  0  0
M  END
> <minimizedAffinity>
-6.84151

> <minimizedRMSD>
1.02893

$$$$
P57379


 22 25  0  0  0  0  0  0  0  0999 V2000
   -7.4938    4.8869  -14.2235 C   0  0  0  0  0  0  0  0  0  0  0  0
   -6.2578    5.2280  -14.6524 N   0  0  0  0  0  0  0  0  0  0  0  0
   -6.0316    5.2067  -15.9837 C   0  0  0  0  0  0  0  0  0  0  0  0
   -7.0392    4.7890  -16.8825 C   0  0  0  0  0  0  0  0  0  0  0  0
   -6.8676    4.5668  -18.2693 C   0  0  0  0  0  0  0  0  0  0  0  0
   -7.9177    4.1358  -19.0675 C   0  0  0  0  0  0  0  0  0  0  0  0
   -9.1590    3.9010  -18.5015 C   0  0  0  0  0  0  0  0  0  0  0  0
   -9.3280    4.0688  -17.1321 C   0  0  0  0  0  0  0  0  0  0  0  0
   -8.2882    4.4972  -16.3212 C   0  0  0  0  0  0  0  0  0  0  0  0
   -8.5295    4.5756  -15.0206 N   0  0  0  0  0  0  0  0  0  0  0  0
   -8.3447    4.4225  -10.1006 C   0  0  0  0  0  0  0  0  0  0  0  0
   -8.4416    3.3186  -10.9330 C   0  0  0  0  0  0  0  0  0  0  0  0
   -8.1400    3.4647  -12.2837 C   0  0  0  0  0  0  0  0  0  0  0  0
   -7.7417    4.7120  -12.7771 C   0  0  0  0  0  0  0  0  0  0  0  0
   -7.6386    5.8019  -11.9642 N   0  0  0  0  0  0  0  0  0  0  0  0
   -7.9433    5.6265  -10.6568 C   0  0  0  0  0  0  0  0  0  0  0  0
   -4.7516    5.5229  -16.4464 N   0  0  0  0  0  0  0  0  0  0  0  0
   -3.6075    4.8345  -15.8329 C   0  0  0  0  0  0  0  0  0  0  0  0
   -2.2798    5.5725  -16.1212 C   0  0  0  0  0  0  0  0  0  0  0  0
   -2.1563    6.0658  -17.4578 O   0  0  0  0  0  0  0  0  0  0  0  0
   -3.3040    6.8074  -17.9024 C   0  0  0  0  0  0  0  0  0  0  0  0
   -4.4536    6.8870  -16.8806 C   0  0  0  0  0  0  0  0  0  0  0  0
 11 12  2  0  0  0
 12 13  1  0  0  0
 13 14  2  0  0  0
 14  1  1  0  0  0
  1  2  2  0  0  0
  2  3  1  0  0  0
  3 17  1  0  0  0
 17 18  1  0  0  0
 18 19  1  0  0  0
 19 20  1  0  0  0
 20 21  1  0  0  0
 21 22  1  0  0  0
  3  4  2  0  0  0
  4  5  1  0  0  0
  5  6  2  0  0  0
  6  7  1  0  0  0
  7  8  2  0  0  0
  8  9  1  0  0  0
  9 10  2  0  0  0
 14 15  1  0  0  0
 15 16  2  0  0  0
 16 11  1  0  0  0
 10  1  1  0  0  0
 22 17  1  0  0  0
  9  4  1  0  0  0
M  END
> <minimizedAffinity>
-6.92231

> <minimizedRMSD>
0.91326

$$$$
P57380


 22 25  0  0  0  0  0  0  0  0999 V2000
   -7.4947    4.9021  -14.2711 C   0  0  0  0  0  0  0  0  0  0  0  0
   -6.2946    5.3494  -14.6913 N   0  0  0  0  0  0  0  0  0  0  0  0
   -6.0553    5.3367  -16.0258 C   0  0  0  0  0  0  0  0  0  0  0  0
   -7.0309    4.8430  -16.9282 C   0  0  0  0  0  0  0  0  0  0  0  0
   -6.8601    4.6258  -18.3173 C   0  0  0  0  0  0  0  0  0  0  0  0
   -7.8918    4.1443  -19.1113 C   0  0  0  0  0  0  0  0  0  0  0  0
   -9.1180    3.8520  -18.5422 C   0  0  0  0  0  0  0  0  0  0  0  0
   -9.2857    4.0064  -17.1723 C   0  0  0  0  0  0  0  0  0  0  0  0
   -8.2624    4.4811  -16.3667 C   0  0  0  0  0  0  0  0  0  0  0  0
   -8.5068    4.5395  -15.0667 N   0  0  0  0  0  0  0  0  0  0  0  0
   -8.3966    3.3199  -10.9662 C   0  0  0  0  0  0  0  0  0  0  0  0
   -8.3514    4.4435  -10.1640 C   0  0  0  0  0  0  0  0  0  0  0  0
   -8.0111    5.6739  -10.6130 N   0  0  0  0  0  0  0  0  0  0  0  0
   -7.7065    5.7780  -11.9360 C   0  0  0  0  0  0  0  0  0  0  0  0
   -7.7429    4.7261  -12.8416 C   0  0  0  0  0  0  0  0  0  0  0  0
   -8.0918    3.4720  -12.3161 C   0  0  0  0  0  0  0  0  0  0  0  0
   -4.7957    5.7672  -16.4695 N   0  0  0  0  0  0  0  0  0  0  0  0
   -3.6493    4.8918  -16.1774 C   0  0  0  0  0  0  0  0  0  0  0  0
   -2.3672    5.5280  -16.7434 C   0  0  0  0  0  0  0  0  0  0  0  0
   -2.0355    6.7821  -16.1341 O   0  0  0  0  0  0  0  0  0  0  0  0
   -3.1911    7.5096  -15.7087 C   0  0  0  0  0  0  0  0  0  0  0  0
   -4.4767    7.2065  -16.4873 C   0  0  0  0  0  0  0  0  0  0  0  0
 11 12  2  0  0  0
 12 13  1  0  0  0
 13 14  2  0  0  0
 14 15  1  0  0  0
 15  1  1  0  0  0
  1  2  2  0  0  0
  2  3  1  0  0  0
  3 17  1  0  0  0
 17 18  1  0  0  0
 18 19  1  0  0  0
 19 20  1  0  0  0
 20 21  1  0  0  0
 21 22  1  0  0  0
  3  4  2  0  0  0
  4  5  1  0  0  0
  5  6  2  0  0  0
  6  7  1  0  0  0
  7  8  2  0  0  0
  8  9  1  0  0  0
  9 10  2  0  0  0
 15 16  2  0  0  0
 16 11  1  0  0  0
 10  1  1  0  0  0
 22 17  1  0  0  0
  9  4  1  0  0  0
M  END
> <minimizedAffinity>
-6.73238

> <minimizedRMSD>
1.01698

$$$$
P57382


 21 23  0  0  0  0  0  0  0  0999 V2000
   -7.8903    4.8541  -14.1530 C   0  0  0  0  0  0  0  0  0  0  0  0
   -6.6050    5.1558  -14.3880 N   0  0  0  0  0  0  0  0  0  0  0  0
   -6.2000    5.0940  -15.6731 C   0  0  0  0  0  0  0  0  0  0  0  0
   -7.0499    4.7669  -16.7386 C   0  0  0  0  0  0  0  0  0  0  0  0
   -6.6840    4.6387  -18.1020 C   0  0  0  0  0  0  0  0  0  0  0  0
   -7.6126    4.2619  -19.0585 C   0  0  0  0  0  0  0  0  0  0  0  0
   -8.9138    3.9871  -18.6752 C   0  0  0  0  0  0  0  0  0  0  0  0
   -9.2724    4.0871  -17.3335 C   0  0  0  0  0  0  0  0  0  0  0  0
   -8.3661    4.4887  -16.3634 C   0  0  0  0  0  0  0  0  0  0  0  0
   -8.7935    4.5675  -15.1019 N   0  0  0  0  0  0  0  0  0  0  0  0
   -7.9191    3.4415  -12.0917 C   0  0  0  0  0  0  0  0  0  0  0  0
   -8.3489    4.7556  -12.7239 C   0  0  0  0  0  0  0  0  0  0  0  0
   -4.4342    5.2616  -15.8577 S   0  0  0  0  0  0  0  0  0  0  0  0
   -4.2586    7.0367  -16.2095 C   0  0  0  0  0  0  0  0  0  0  0  0
   -3.6822    7.2489  -17.6080 C   0  0  0  0  0  0  0  0  0  0  0  0
   -2.3843    6.5607  -17.9507 C   0  0  0  0  0  0  0  0  0  0  0  0
   -1.2004    6.7166  -17.2337 C   0  0  0  0  0  0  0  0  0  0  0  0
   -0.0662    6.0123  -17.6382 C   0  0  0  0  0  0  0  0  0  0  0  0
   -0.1342    5.1771  -18.7445 C   0  0  0  0  0  0  0  0  0  0  0  0
   -1.3403    5.0860  -19.4114 C   0  0  0  0  0  0  0  0  0  0  0  0
   -2.4500    5.7617  -19.0455 N   0  0  0  0  0  0  0  0  0  0  0  0
 11 12  1  0  0  0
 12  1  1  0  0  0
  1  2  2  0  0  0
  2  3  1  0  0  0
  3 13  1  0  0  0
 13 14  1  0  0  0
 14 15  1  0  0  0
 15 16  1  0  0  0
 16 17  2  0  0  0
 17 18  1  0  0  0
 18 19  2  0  0  0
 19 20  1  0  0  0
 20 21  2  0  0  0
  3  4  2  0  0  0
  4  5  1  0  0  0
  5  6  2  0  0  0
  6  7  1  0  0  0
  7  8  2  0  0  0
  8  9  1  0  0  0
  9 10  2  0  0  0
 10  1  1  0  0  0
 21 16  1  0  0  0
  9  4  1  0  0  0
M  END
> <minimizedAffinity>
-5.71141

> <minimizedRMSD>
1.60012

$$$$
P57384


 26 28  0  0  0  0  0  0  0  0999 V2000
   -7.6577    4.1731  -14.3378 C   0  0  0  0  0  0  0  0  0  0  0  0
   -6.4066    4.5923  -14.5870 N   0  0  0  0  0  0  0  0  0  0  0  0
   -6.0655    4.8195  -15.8681 C   0  0  0  0  0  0  0  0  0  0  0  0
   -6.9653    4.5913  -16.9189 C   0  0  0  0  0  0  0  0  0  0  0  0
   -6.6697    4.6408  -18.3001 C   0  0  0  0  0  0  0  0  0  0  0  0
   -7.6469    4.3745  -19.2455 C   0  0  0  0  0  0  0  0  0  0  0  0
   -8.9339    4.0640  -18.8353 C   0  0  0  0  0  0  0  0  0  0  0  0
   -9.2260    3.9876  -17.4800 C   0  0  0  0  0  0  0  0  0  0  0  0
   -8.2573    4.2290  -16.5228 C   0  0  0  0  0  0  0  0  0  0  0  0
   -8.6100    4.0624  -15.2561 N   0  0  0  0  0  0  0  0  0  0  0  0
   -8.0732    3.7722  -13.0707 N   0  0  0  0  0  0  0  0  0  0  0  0
   -8.8884    4.1098  -12.6341 H   0  0  0  0  0  0  0  0  0  0  0  0
   -7.1718    2.7968  -12.4554 C   0  0  0  0  0  0  0  0  0  0  0  0
   -6.0070    2.2026  -10.2948 C   0  0  0  0  0  0  0  0  0  0  0  0
   -7.2301    2.8747  -10.9223 C   0  0  0  0  0  0  0  0  0  0  0  0
   -7.3071    4.2780  -10.5171 N   0  0  0  0  0  0  0  0  0  0  0  0
   -8.2592    4.8358   -9.7148 C   0  0  0  0  0  0  0  0  0  0  0  0
   -8.1209    6.1940   -9.8392 C   0  0  0  0  0  0  0  0  0  0  0  0
   -6.9932    6.3640  -10.6585 C   0  0  0  0  0  0  0  0  0  0  0  0
   -6.4721    5.2019  -11.0541 N   0  0  0  0  0  0  0  0  0  0  0  0
   -4.7221    5.1889  -16.0484 N   0  0  0  0  0  0  0  0  0  0  0  0
   -4.0391    4.5197  -16.2827 H   0  0  0  0  0  0  0  0  0  0  0  0
   -4.3677    6.6023  -15.8768 C   0  0  0  0  0  0  0  0  0  0  0  0
   -4.1175    7.2513  -17.2459 C   0  0  0  0  0  0  0  0  0  0  0  0
   -3.5406    6.2933  -18.1309 O   0  0  0  0  0  0  0  0  0  0  0  0
   -2.6987    5.9805  -17.7646 H   0  0  0  0  0  0  0  0  0  0  0  0
 15 14  1  0  0  0
 15 13  1  0  0  0
 13 11  1  0  0  0
 11  1  1  0  0  0
  1  2  2  0  0  0
  2  3  1  0  0  0
  3 21  1  0  0  0
 21 23  1  0  0  0
 23 24  1  0  0  0
 24 25  1  0  0  0
  3  4  2  0  0  0
  4  5  1  0  0  0
  5  6  2  0  0  0
  6  7  1  0  0  0
  7  8  2  0  0  0
  8  9  1  0  0  0
  9 10  2  0  0  0
 15 16  1  0  0  0
 16 17  1  0  0  0
 17 18  2  0  0  0
 18 19  1  0  0  0
 19 20  2  0  0  0
 10  1  1  0  0  0
 20 16  1  0  0  0
  9  4  1  0  0  0
 11 12  1  0  0  0
 21 22  1  0  0  0
 25 26  1  0  0  0
M  END
> <minimizedAffinity>
-5.68476

> <minimizedRMSD>
1.03617

$$$$
P57385


 25 27  0  0  0  0  0  0  0  0999 V2000
   -5.7802    4.9341  -16.4018 C   0  0  0  0  0  0  0  0  0  0  0  0
   -5.7456    4.9311  -15.0585 N   0  0  0  0  0  0  0  0  0  0  0  0
   -6.8931    4.6122  -14.4231 C   0  0  0  0  0  0  0  0  0  0  0  0
   -8.0699    4.3784  -15.0298 N   0  0  0  0  0  0  0  0  0  0  0  0
   -8.0762    4.3561  -16.3590 C   0  0  0  0  0  0  0  0  0  0  0  0
   -9.2685    4.0406  -16.9913 C   0  0  0  0  0  0  0  0  0  0  0  0
   -9.3553    3.9569  -18.3772 C   0  0  0  0  0  0  0  0  0  0  0  0
   -8.2204    4.1481  -19.1468 C   0  0  0  0  0  0  0  0  0  0  0  0
   -7.0184    4.4590  -18.5315 C   0  0  0  0  0  0  0  0  0  0  0  0
   -6.9351    4.6062  -17.1280 C   0  0  0  0  0  0  0  0  0  0  0  0
   -6.8574    4.3563  -12.9701 C   0  0  0  0  0  0  0  0  0  0  0  0
   -7.2854    3.1236  -12.4681 C   0  0  0  0  0  0  0  0  0  0  0  0
   -7.2893    2.9013  -11.0947 C   0  0  0  0  0  0  0  0  0  0  0  0
   -6.8666    3.9151  -10.2491 C   0  0  0  0  0  0  0  0  0  0  0  0
   -6.4547    5.1102  -10.8166 C   0  0  0  0  0  0  0  0  0  0  0  0
   -6.4370    5.3587  -12.1471 N   0  0  0  0  0  0  0  0  0  0  0  0
   -4.5390    5.1884  -16.9862 N   0  0  0  0  0  0  0  0  0  0  0  0
   -3.7712    4.5970  -16.8130 H   0  0  0  0  0  0  0  0  0  0  0  0
   -4.4018    6.3598  -17.8674 C   0  0  0  0  0  0  0  0  0  0  0  0
   -3.7029    6.0127  -19.1921 C   0  0  0  0  0  0  0  0  0  0  0  0
   -4.2428    6.7633  -20.1930 F   0  0  0  0  0  0  0  0  0  0  0  0
   -3.9387    4.7160  -19.5271 F   0  0  0  0  0  0  0  0  0  0  0  0
   -1.5686    5.7619  -17.9575 O   0  0  0  0  0  0  0  0  0  0  0  0
   -2.1954    6.2683  -19.1404 C   0  0  0  0  0  0  0  0  0  0  0  0
   -0.6186    5.9556  -17.9867 H   0  0  0  0  0  0  0  0  0  0  0  0
 23 24  1  0  0  0
 24 20  1  0  0  0
 20 21  1  0  0  0
 20 22  1  0  0  0
 20 19  1  0  0  0
 19 17  1  0  0  0
 17  1  1  0  0  0
  1  2  2  0  0  0
  2  3  1  0  0  0
  3 11  1  0  0  0
 11 12  2  0  0  0
 12 13  1  0  0  0
 13 14  2  0  0  0
 14 15  1  0  0  0
 15 16  2  0  0  0
  3  4  2  0  0  0
  4  5  1  0  0  0
  5  6  2  0  0  0
  6  7  1  0  0  0
  7  8  2  0  0  0
  8  9  1  0  0  0
  9 10  2  0  0  0
 10  1  1  0  0  0
 16 11  1  0  0  0
 10  5  1  0  0  0
 23 25  1  0  0  0
 17 18  1  0  0  0
M  END
> <minimizedAffinity>
-6.09100

> <minimizedRMSD>
1.27621

$$$$
P57395


 26 29  0  0  0  0  0  0  0  0999 V2000
   -5.7492    5.0153  -16.3910 C   0  0  0  0  0  0  0  0  0  0  0  0
   -5.9561    4.7587  -15.0756 N   0  0  0  0  0  0  0  0  0  0  0  0
   -7.1585    4.2728  -14.7011 C   0  0  0  0  0  0  0  0  0  0  0  0
   -8.1727    4.0138  -15.5308 N   0  0  0  0  0  0  0  0  0  0  0  0
   -7.9828    4.3031  -16.8231 C   0  0  0  0  0  0  0  0  0  0  0  0
   -6.7988    4.8674  -17.2987 C   0  0  0  0  0  0  0  0  0  0  0  0
   -6.8187    5.2962  -18.7411 C   0  0  0  0  0  0  0  0  0  0  0  0
   -7.4818    4.1833  -19.5383 C   0  0  0  0  0  0  0  0  0  0  0  0
   -8.8962    4.1382  -19.1953 N   0  0  0  0  0  0  0  0  0  0  0  0
   -9.1143    3.9139  -17.7615 C   0  0  0  0  0  0  0  0  0  0  0  0
   -9.3362    3.3798  -19.7166 H   0  0  0  0  0  0  0  0  0  0  0  0
   -0.9831    8.2285  -17.3456 O   0  0  0  0  0  0  0  0  0  0  0  0
   -1.7821    7.3253  -17.0990 C   0  0  0  0  0  0  0  0  0  0  0  0
   -3.0928    7.2156  -17.8250 C   0  0  0  0  0  0  0  0  0  0  0  0
   -4.3015    6.8981  -16.9588 C   0  0  0  0  0  0  0  0  0  0  0  0
   -4.4702    5.4462  -16.7920 N   0  0  0  0  0  0  0  0  0  0  0  0
   -3.3082    4.6816  -16.2928 C   0  0  0  0  0  0  0  0  0  0  0  0
   -2.3142    5.4936  -15.4828 C   0  0  0  0  0  0  0  0  0  0  0  0
   -1.4147    6.3442  -16.2335 N   0  0  0  0  0  0  0  0  0  0  0  0
   -0.4494    6.1986  -16.1054 H   0  0  0  0  0  0  0  0  0  0  0  0
   -7.4446    4.0355  -13.2879 C   0  0  0  0  0  0  0  0  0  0  0  0
   -7.1129    2.8210  -12.6680 C   0  0  0  0  0  0  0  0  0  0  0  0
   -7.4928    2.5591  -11.3551 C   0  0  0  0  0  0  0  0  0  0  0  0
   -8.2045    3.5329  -10.6824 C   0  0  0  0  0  0  0  0  0  0  0  0
   -8.5339    4.7294  -11.2205 N   0  0  0  0  0  0  0  0  0  0  0  0
   -8.1394    4.9491  -12.5044 C   0  0  0  0  0  0  0  0  0  0  0  0
 12 13  2  0  0  0
 13 14  1  0  0  0
 14 15  1  0  0  0
 15 16  1  0  0  0
 16  1  1  0  0  0
  1  2  2  0  0  0
  2  3  1  0  0  0
  3 21  1  0  0  0
 21 22  2  0  0  0
 22 23  1  0  0  0
 23 24  2  0  0  0
 24 25  1  0  0  0
 25 26  2  0  0  0
  3  4  2  0  0  0
  4  5  1  0  0  0
  5  6  2  0  0  0
  6  7  1  0  0  0
  7  8  1  0  0  0
  8  9  1  0  0  0
  9 10  1  0  0  0
 16 17  1  0  0  0
 17 18  1  0  0  0
 18 19  1  0  0  0
 19 13  1  0  0  0
  6  1  1  0  0  0
 26 21  1  0  0  0
 10  5  1  0  0  0
  9 11  1  0  0  0
 19 20  1  0  0  0
M  END
> <minimizedAffinity>
-6.48603

> <minimizedRMSD>
1.12218

$$$$
P57405


 12 13  0  0  0  0  0  0  0  0999 V2000
   -6.2225    5.2590  -18.9248 C   0  0  0  0  0  0  0  0  0  0  0  0
   -6.1727    6.7903  -18.8762 C   0  0  0  0  0  0  0  0  0  0  0  0
   -5.0561    7.3192  -19.7597 C   0  0  0  0  0  0  0  0  0  0  0  0
   -3.7297    6.6345  -19.4411 C   0  0  0  0  0  0  0  0  0  0  0  0
   -3.8256    5.1734  -19.5493 N   0  0  0  0  0  0  0  0  0  0  0  0
   -4.8436    4.6731  -18.5987 C   0  0  0  0  0  0  0  0  0  0  0  0
   -2.9211    4.7563  -19.3293 H   0  0  0  0  0  0  0  0  0  0  0  0
   -9.1249    4.1208  -17.0202 C   0  0  0  0  0  0  0  0  0  0  0  0
   -8.6289    4.4665  -18.2832 C   0  0  0  0  0  0  0  0  0  0  0  0
   -7.3075    4.7574  -18.0522 C   0  0  0  0  0  0  0  0  0  0  0  0
   -7.0319    4.5880  -16.7308 O   0  0  0  0  0  0  0  0  0  0  0  0
   -8.1864    4.1953  -16.0732 N   0  0  0  0  0  0  0  0  0  0  0  0
  8  9  1  0  0  0
  9 10  2  0  0  0
  1 10  1  0  0  0
  1  2  1  0  0  0
  2  3  1  0  0  0
  3  4  1  0  0  0
  4  5  1  0  0  0
  5  6  1  0  0  0
 10 11  1  0  0  0
 11 12  1  0  0  0
 12  8  2  0  0  0
  6  1  1  0  0  0
  5  7  1  0  0  0
M  END
> <minimizedAffinity>
-4.30090

> <minimizedRMSD>
0.55699

$$$$
P57431


 23 26  0  0  0  0  0  0  0  0999 V2000
   -6.7807    2.8874  -13.5104 C   0  0  0  0  0  0  0  0  0  0  0  0
   -7.2593    4.2219  -13.8743 N   0  0  0  0  0  0  0  0  0  0  0  0
   -7.5248    4.3608  -15.2912 C   0  0  0  0  0  0  0  0  0  0  0  0
   -8.8113    4.2499  -15.6886 N   0  0  0  0  0  0  0  0  0  0  0  0
   -9.0660    4.2771  -17.0067 C   0  0  0  0  0  0  0  0  0  0  0  0
   -8.2047    4.4740  -17.9921 N   0  0  0  0  0  0  0  0  0  0  0  0
   -6.9553    4.6627  -17.5980 C   0  0  0  0  0  0  0  0  0  0  0  0
   -6.0371    4.9033  -18.6018 C   0  0  0  0  0  0  0  0  0  0  0  0
   -4.7027    5.1141  -18.3036 C   0  0  0  0  0  0  0  0  0  0  0  0
   -4.3373    5.0837  -16.9772 C   0  0  0  0  0  0  0  0  0  0  0  0
   -5.1985    4.8570  -15.9630 N   0  0  0  0  0  0  0  0  0  0  0  0
   -6.5119    4.6310  -16.2523 C   0  0  0  0  0  0  0  0  0  0  0  0
   -8.3865    4.7168  -13.0384 C   0  0  0  0  0  0  0  0  0  0  0  0
   -8.2421    5.0021  -11.5572 C   0  0  0  0  0  0  0  0  0  0  0  0
   -8.0866    6.2549  -10.9107 C   0  0  0  0  0  0  0  0  0  0  0  0
   -8.1579    6.1768   -9.5750 N   0  0  0  0  0  0  0  0  0  0  0  0
   -8.3894    4.8705   -9.3586 N   0  0  0  0  0  0  0  0  0  0  0  0
   -8.3957    4.1169  -10.4967 C   0  0  0  0  0  0  0  0  0  0  0  0
   -8.6578    2.6563  -10.4335 C   0  0  0  0  0  0  0  0  0  0  0  0
   -8.5789    2.1242   -9.0750 N   0  0  0  0  0  0  0  0  0  0  0  0
   -9.2547    2.9640   -8.0941 C   0  0  0  0  0  0  0  0  0  0  0  0
   -8.6354    4.3574   -8.0231 C   0  0  0  0  0  0  0  0  0  0  0  0
   -7.5962    2.0454   -8.8134 H   0  0  0  0  0  0  0  0  0  0  0  0
  1  2  1  0  0  0
  2 13  1  0  0  0
 13 14  1  0  0  0
 14 15  1  0  0  0
 15 16  2  0  0  0
 16 17  1  0  0  0
 17 18  1  0  0  0
 18 19  1  0  0  0
 19 20  1  0  0  0
 20 21  1  0  0  0
 21 22  1  0  0  0
  2  3  1  0  0  0
  3  4  2  0  0  0
  4  5  1  0  0  0
  5  6  2  0  0  0
  6  7  1  0  0  0
  7  8  2  0  0  0
  8  9  1  0  0  0
  9 10  2  0  0  0
 10 11  1  0  0  0
 11 12  2  0  0  0
 18 14  2  0  0  0
 12  3  1  0  0  0
 22 17  1  0  0  0
 12  7  1  0  0  0
 20 23  1  0  0  0
M  END
> <minimizedAffinity>
-7.52788

> <minimizedRMSD>
0.88174

$$$$
P57529


 24 27  0  0  0  0  0  0  0  0999 V2000
   -5.9776    6.0505  -12.7727 O   0  0  0  0  0  0  0  0  0  0  0  0
   -6.5366    5.0605  -13.0900 C   0  0  0  0  0  0  0  0  0  0  0  0
   -6.8993    3.8397  -12.2773 N   0  0  0  0  0  0  0  0  0  0  0  0
   -8.3119    3.9852  -11.6248 C   0  0  0  0  0  0  0  0  0  0  0  0
   -7.9496    2.8920  -10.6570 C   0  0  0  0  0  0  0  0  0  0  0  0
   -6.5704    3.4727  -10.8441 C   0  0  0  0  0  0  0  0  0  0  0  0
   -6.8713    4.9049  -14.5426 C   0  0  0  0  0  0  0  0  0  0  0  0
   -8.0853    4.3628  -15.0218 C   0  0  0  0  0  0  0  0  0  0  0  0
   -8.3110    4.1780  -16.3984 C   0  0  0  0  0  0  0  0  0  0  0  0
   -7.2885    4.5153  -17.2516 C   0  0  0  0  0  0  0  0  0  0  0  0
   -7.1665    4.3384  -18.6268 N   0  0  0  0  0  0  0  0  0  0  0  0
   -5.8811    4.7514  -19.0217 C   0  0  0  0  0  0  0  0  0  0  0  0
   -5.3639    4.6408  -20.1224 O   0  0  0  0  0  0  0  0  0  0  0  0
   -5.2596    5.2683  -17.8710 N   0  0  0  0  0  0  0  0  0  0  0  0
   -6.1062    5.0793  -16.7847 C   0  0  0  0  0  0  0  0  0  0  0  0
   -5.8732    5.3062  -15.4484 C   0  0  0  0  0  0  0  0  0  0  0  0
   -7.8640    3.9832  -19.2239 H   0  0  0  0  0  0  0  0  0  0  0  0
   -4.3722    5.6934  -17.8398 H   0  0  0  0  0  0  0  0  0  0  0  0
   -8.5403    3.0090   -9.2252 C   0  0  0  0  0  0  0  0  0  0  0  0
   -9.3981    2.1291   -8.6067 C   0  0  0  0  0  0  0  0  0  0  0  0
   -9.6838    2.5541   -7.3299 N   0  0  0  0  0  0  0  0  0  0  0  0
   -8.9726    3.6426   -7.1598 C   0  0  0  0  0  0  0  0  0  0  0  0
   -8.2752    3.9675   -8.2873 N   0  0  0  0  0  0  0  0  0  0  0  0
   -7.6884    4.7494   -8.4038 H   0  0  0  0  0  0  0  0  0  0  0  0
  1  2  2  0  0  0
  2  7  1  0  0  0
  7  8  2  0  0  0
  8  9  1  0  0  0
  9 10  2  0  0  0
 10 11  1  0  0  0
 11 12  1  0  0  0
 12 13  2  0  0  0
 12 14  1  0  0  0
 14 15  1  0  0  0
 15 16  2  0  0  0
  2  3  1  0  0  0
  3  4  1  0  0  0
  4  5  1  0  0  0
  5 19  1  0  0  0
 19 20  2  0  0  0
 20 21  1  0  0  0
 21 22  2  0  0  0
 22 23  1  0  0  0
  5  6  1  0  0  0
 16  7  1  0  0  0
  6  3  1  0  0  0
 15 10  1  0  0  0
 23 19  1  0  0  0
 11 17  1  0  0  0
 14 18  1  0  0  0
 23 24  1  0  0  0
M  END
> <minimizedAffinity>
-7.62001

> <minimizedRMSD>
0.61181

$$$$
P57582


 13 14  0  0  0  0  0  0  0  0999 V2000
   -8.8452    4.2699  -17.6982 C   0  0  0  0  0  0  0  0  0  0  0  0
   -8.8516    4.4141  -16.1806 C   0  0  0  0  0  0  0  0  0  0  0  0
   -7.5680    4.0819  -15.5667 N   0  0  0  0  0  0  0  0  0  0  0  0
   -6.4952    4.8948  -16.1330 C   0  0  0  0  0  0  0  0  0  0  0  0
   -6.3192    4.6622  -17.6411 C   0  0  0  0  0  0  0  0  0  0  0  0
   -7.6443    4.9333  -18.3740 C   0  0  0  0  0  0  0  0  0  0  0  0
   -7.3635    3.0964  -15.7322 H   0  0  0  0  0  0  0  0  0  0  0  0
   -5.0821    5.4501  -18.1425 C   0  0  0  0  0  0  0  0  0  0  0  0
   -4.4606    4.8881  -19.3549 N   0  0  0  0  0  0  0  0  0  0  0  0
   -3.6651    5.9703  -19.9512 C   0  0  0  0  0  0  0  0  0  0  0  0
   -4.5579    7.1927  -20.0701 C   0  0  0  0  0  0  0  0  0  0  0  0
   -5.3969    7.2275  -18.4765 S   0  0  0  0  0  0  0  0  0  0  0  0
   -5.1794    4.5770  -20.0083 H   0  0  0  0  0  0  0  0  0  0  0  0
  1  2  1  0  0  0
  2  3  1  0  0  0
  3  4  1  0  0  0
  5  4  1  0  0  0
  5  8  1  0  0  0
  8  9  1  0  0  0
  9 10  1  0  0  0
 10 11  1  0  0  0
 11 12  1  0  0  0
  5  6  1  0  0  0
  6  1  1  0  0  0
 12  8  1  0  0  0
  3  7  1  0  0  0
  9 13  1  0  0  0
M  END
> <minimizedAffinity>
-4.26976

> <minimizedRMSD>
0.46012

$$$$
P58043


 26 28  0  0  0  0  0  0  0  0999 V2000
   -8.0286    4.3658  -12.9850 N   0  0  0  0  0  0  0  0  0  0  0  0
   -7.8558    5.5341  -13.9842 C   0  0  0  0  0  0  0  0  0  0  0  0
   -7.7060    6.6769  -13.7940 O   0  0  0  0  0  0  0  0  0  0  0  0
   -8.0627    3.4725  -13.3973 H   0  0  0  0  0  0  0  0  0  0  0  0
   -7.9125    5.0346  -15.3562 C   0  0  0  0  0  0  0  0  0  0  0  0
   -8.9684    4.4534  -16.0411 C   0  0  0  0  0  0  0  0  0  0  0  0
   -8.5951    4.2518  -17.3875 C   0  0  0  0  0  0  0  0  0  0  0  0
   -7.2946    4.6836  -17.5088 C   0  0  0  0  0  0  0  0  0  0  0  0
   -6.8833    5.1185  -16.2702 N   0  0  0  0  0  0  0  0  0  0  0  0
   -5.5100    5.5135  -16.0023 C   0  0  0  0  0  0  0  0  0  0  0  0
   -4.7303    5.7769  -17.2948 C   0  0  0  0  0  0  0  0  0  0  0  0
   -4.9841    4.7547  -18.3108 N   0  0  0  0  0  0  0  0  0  0  0  0
   -6.4047    4.7637  -18.6967 C   0  0  0  0  0  0  0  0  0  0  0  0
   -4.7430    3.8380  -17.9341 H   0  0  0  0  0  0  0  0  0  0  0  0
   -8.3393    4.3008   -8.7528 C   0  0  0  0  0  0  0  0  0  0  0  0
   -8.0417    5.4903   -9.4470 C   0  0  0  0  0  0  0  0  0  0  0  0
   -7.9328    5.5235  -10.8454 C   0  0  0  0  0  0  0  0  0  0  0  0
   -8.1439    4.3721  -11.5950 C   0  0  0  0  0  0  0  0  0  0  0  0
   -8.4642    3.1921  -10.9343 C   0  0  0  0  0  0  0  0  0  0  0  0
   -8.5444    3.1515   -9.5342 C   0  0  0  0  0  0  0  0  0  0  0  0
   -9.0249    3.0152   -6.6232 C   0  0  0  0  0  0  0  0  0  0  0  0
   -8.3415    4.2680   -7.2140 C   0  0  0  0  0  0  0  0  0  0  0  0
   -8.9990    5.5046   -6.5700 C   0  0  0  0  0  0  0  0  0  0  0  0
   -6.9379    4.2797   -6.7383 N   0  0  0  0  0  0  0  0  0  0  0  0
   -6.9244    4.2582   -5.7186 H   0  0  0  0  0  0  0  0  0  0  0  0
   -6.4747    5.1270   -7.0667 H   0  0  0  0  0  0  0  0  0  0  0  0
 21 22  1  0  0  0
 22 23  1  0  0  0
 22 24  1  0  0  0
 22 15  1  0  0  0
 15 16  2  0  0  0
 16 17  1  0  0  0
 17 18  2  0  0  0
 18  1  1  0  0  0
  1  2  1  0  0  0
  2  3  2  0  0  0
  2  5  1  0  0  0
  5  6  2  0  0  0
  6  7  1  0  0  0
  7  8  2  0  0  0
  8  9  1  0  0  0
  9 10  1  0  0  0
 10 11  1  0  0  0
 11 12  1  0  0  0
 12 13  1  0  0  0
 18 19  1  0  0  0
 19 20  2  0  0  0
 20 15  1  0  0  0
  9  5  1  0  0  0
 13  8  1  0  0  0
 24 25  1  0  0  0
 24 26  1  0  0  0
  1  4  1  0  0  0
 12 14  1  0  0  0
M  END
> <minimizedAffinity>
-6.83692

> <minimizedRMSD>
0.31840

$$$$
P58109


 15 16  0  0  0  0  0  0  0  0999 V2000
   -6.3663    4.9501  -15.9401 C   0  0  0  0  0  0  0  0  0  0  0  0
   -5.1818    5.1257  -16.6669 C   0  0  0  0  0  0  0  0  0  0  0  0
   -5.0634    5.0873  -18.0252 N   0  0  0  0  0  0  0  0  0  0  0  0
   -6.2011    4.8770  -18.7246 C   0  0  0  0  0  0  0  0  0  0  0  0
   -7.4102    4.6768  -18.1029 C   0  0  0  0  0  0  0  0  0  0  0  0
   -7.4867    4.6735  -16.7090 C   0  0  0  0  0  0  0  0  0  0  0  0
   -8.8984    4.4512  -16.2720 C   0  0  0  0  0  0  0  0  0  0  0  0
   -9.6038    4.0471  -17.5722 C   0  0  0  0  0  0  0  0  0  0  0  0
   -8.7607    4.5816  -18.7258 C   0  0  0  0  0  0  0  0  0  0  0  0
   -6.3956    5.2088  -14.4520 C   0  0  0  0  0  0  0  0  0  0  0  0
   -7.1500    6.4389  -14.1791 N   0  0  0  0  0  0  0  0  0  0  0  0
   -8.1241    6.3080  -14.4518 H   0  0  0  0  0  0  0  0  0  0  0  0
   -6.7482    7.2097  -14.7129 H   0  0  0  0  0  0  0  0  0  0  0  0
   -8.0385    4.5184  -12.6389 C   0  0  0  0  0  0  0  0  0  0  0  0
   -6.9068    4.0686  -13.5622 C   0  0  0  0  0  0  0  0  0  0  0  0
 14 15  1  0  0  0
 15 10  1  0  0  0
 10 11  1  0  0  0
 10  1  1  0  0  0
  1  2  2  0  0  0
  2  3  1  0  0  0
  3  4  2  0  0  0
  4  5  1  0  0  0
  5  6  2  0  0  0
  6  7  1  0  0  0
  7  8  1  0  0  0
  8  9  1  0  0  0
  6  1  1  0  0  0
  9  5  1  0  0  0
 11 12  1  0  0  0
 11 13  1  0  0  0
M  END
> <minimizedAffinity>
-4.77984

> <minimizedRMSD>
0.94617

$$$$
P58130


 25 28  0  0  0  0  0  0  0  0999 V2000
   -5.7244    5.1212  -12.9870 O   0  0  0  0  0  0  0  0  0  0  0  0
   -6.6482    4.6327  -13.5082 C   0  0  0  0  0  0  0  0  0  0  0  0
   -7.7580    3.7215  -12.9331 N   0  0  0  0  0  0  0  0  0  0  0  0
   -8.4781    3.4992  -13.5666 H   0  0  0  0  0  0  0  0  0  0  0  0
   -6.8306    4.7694  -14.9996 C   0  0  0  0  0  0  0  0  0  0  0  0
   -5.6556    5.1312  -15.7962 C   0  0  0  0  0  0  0  0  0  0  0  0
   -5.6502    5.0499  -17.1354 C   0  0  0  0  0  0  0  0  0  0  0  0
   -6.8845    4.5865  -17.7828 C   0  0  0  0  0  0  0  0  0  0  0  0
   -7.0470    4.2794  -19.0295 N   0  0  0  0  0  0  0  0  0  0  0  0
   -8.3785    3.9499  -19.0922 N   0  0  0  0  0  0  0  0  0  0  0  0
   -8.9956    4.1008  -17.8527 C   0  0  0  0  0  0  0  0  0  0  0  0
  -10.1712    3.9206  -17.5879 O   0  0  0  0  0  0  0  0  0  0  0  0
   -7.9883    4.4687  -17.0035 N   0  0  0  0  0  0  0  0  0  0  0  0
   -7.9942    4.5440  -15.6372 C   0  0  0  0  0  0  0  0  0  0  0  0
   -8.8379    3.6461  -19.9082 H   0  0  0  0  0  0  0  0  0  0  0  0
   -7.9094    3.1458  -11.6227 C   0  0  0  0  0  0  0  0  0  0  0  0
   -8.0919    4.0874  -10.4793 C   0  0  0  0  0  0  0  0  0  0  0  0
   -8.0646    3.5748   -9.1837 C   0  0  0  0  0  0  0  0  0  0  0  0
   -8.1712    4.4568   -8.1282 C   0  0  0  0  0  0  0  0  0  0  0  0
   -8.3003    5.7946   -8.2708 N   0  0  0  0  0  0  0  0  0  0  0  0
   -8.3434    6.2972   -9.5303 C   0  0  0  0  0  0  0  0  0  0  0  0
   -8.2738    5.4606  -10.6374 C   0  0  0  0  0  0  0  0  0  0  0  0
   -8.4925    7.7861   -9.7185 C   0  0  0  0  0  0  0  0  0  0  0  0
   -7.2560    8.6467   -9.8464 C   0  0  0  0  0  0  0  0  0  0  0  0
   -8.1419    8.4374  -11.0372 C   0  0  0  0  0  0  0  0  0  0  0  0
  1  2  2  0  0  0
  2  3  1  0  0  0
  3 16  1  0  0  0
 16 17  1  0  0  0
 17 18  2  0  0  0
 18 19  1  0  0  0
 19 20  2  0  0  0
 20 21  1  0  0  0
 21 23  1  0  0  0
 23 24  1  0  0  0
 24 25  1  0  0  0
 21 22  2  0  0  0
  2  5  1  0  0  0
  5  6  1  0  0  0
  6  7  2  0  0  0
  7  8  1  0  0  0
  8  9  2  0  0  0
  9 10  1  0  0  0
 10 11  1  0  0  0
 11 12  2  0  0  0
 11 13  1  0  0  0
 13 14  1  0  0  0
 22 17  1  0  0  0
 14  5  2  0  0  0
 25 23  1  0  0  0
 13  8  1  0  0  0
  3  4  1  0  0  0
 10 15  1  0  0  0
M  END
> <minimizedAffinity>
-7.13976

> <minimizedRMSD>
0.39459

$$$$
P58132


 23 25  0  0  0  0  0  0  0  0999 V2000
   -7.9084    4.5027  -13.0238 N   0  0  0  0  0  0  0  0  0  0  0  0
   -6.8725    5.3334  -13.8243 C   0  0  0  0  0  0  0  0  0  0  0  0
   -6.0819    6.1121  -13.4598 O   0  0  0  0  0  0  0  0  0  0  0  0
   -8.5215    3.9657  -13.5760 H   0  0  0  0  0  0  0  0  0  0  0  0
   -6.9746    4.9685  -15.2645 C   0  0  0  0  0  0  0  0  0  0  0  0
   -5.7949    5.0424  -16.1166 C   0  0  0  0  0  0  0  0  0  0  0  0
   -5.8661    4.8094  -17.4372 C   0  0  0  0  0  0  0  0  0  0  0  0
   -7.1839    4.4676  -17.9991 C   0  0  0  0  0  0  0  0  0  0  0  0
   -7.4618    4.1749  -19.2298 N   0  0  0  0  0  0  0  0  0  0  0  0
   -8.8230    3.9952  -19.2012 N   0  0  0  0  0  0  0  0  0  0  0  0
   -9.3367    4.2325  -17.9288 C   0  0  0  0  0  0  0  0  0  0  0  0
  -10.5062    4.2338  -17.5883 O   0  0  0  0  0  0  0  0  0  0  0  0
   -8.2413    4.4689  -17.1490 N   0  0  0  0  0  0  0  0  0  0  0  0
   -8.1746    4.7054  -15.8064 C   0  0  0  0  0  0  0  0  0  0  0  0
   -9.3656    3.7326  -19.9796 H   0  0  0  0  0  0  0  0  0  0  0  0
   -8.1678    5.4225  -10.6906 C   0  0  0  0  0  0  0  0  0  0  0  0
   -8.2855    5.0661   -9.3295 C   0  0  0  0  0  0  0  0  0  0  0  0
   -8.3957    3.7355   -8.9679 C   0  0  0  0  0  0  0  0  0  0  0  0
   -8.4115    2.7381   -9.8594 N   0  0  0  0  0  0  0  0  0  0  0  0
   -8.2746    3.0859  -11.1570 C   0  0  0  0  0  0  0  0  0  0  0  0
   -8.1145    4.3918  -11.6384 C   0  0  0  0  0  0  0  0  0  0  0  0
   -7.6302    7.7340   -9.8437 C   0  0  0  0  0  0  0  0  0  0  0  0
   -8.1921    6.8992  -10.9867 C   0  0  0  0  0  0  0  0  0  0  0  0
 22 23  1  0  0  0
 23 16  1  0  0  0
 16 17  2  0  0  0
 17 18  1  0  0  0
 18 19  2  0  0  0
 19 20  1  0  0  0
 20 21  2  0  0  0
 21  1  1  0  0  0
  1  2  1  0  0  0
  2  3  2  0  0  0
  2  5  1  0  0  0
  5  6  1  0  0  0
  6  7  2  0  0  0
  7  8  1  0  0  0
  8  9  2  0  0  0
  9 10  1  0  0  0
 10 11  1  0  0  0
 11 12  2  0  0  0
 11 13  1  0  0  0
 13 14  1  0  0  0
 21 16  1  0  0  0
 14  5  2  0  0  0
 13  8  1  0  0  0
  1  4  1  0  0  0
 10 15  1  0  0  0
M  END
> <minimizedAffinity>
-6.91136

> <minimizedRMSD>
0.51237

$$$$
P58181


 17 19  0  0  0  0  0  0  0  0999 V2000
   -8.1549    4.3582  -18.8200 C   0  0  0  0  0  0  0  0  0  0  0  0
   -9.0940    4.2662  -17.8018 C   0  0  0  0  0  0  0  0  0  0  0  0
   -8.7202    4.4454  -16.4710 C   0  0  0  0  0  0  0  0  0  0  0  0
   -7.3780    4.7536  -16.1960 C   0  0  0  0  0  0  0  0  0  0  0  0
   -6.4262    4.8813  -17.2133 C   0  0  0  0  0  0  0  0  0  0  0  0
   -6.8219    4.6745  -18.5464 C   0  0  0  0  0  0  0  0  0  0  0  0
   -5.1869    5.2006  -16.5998 C   0  0  0  0  0  0  0  0  0  0  0  0
   -5.3912    5.2332  -15.2407 C   0  0  0  0  0  0  0  0  0  0  0  0
   -6.7169    4.9526  -15.0000 N   0  0  0  0  0  0  0  0  0  0  0  0
   -7.3173    4.7740  -13.6637 C   0  0  0  0  0  0  0  0  0  0  0  0
   -6.7452    3.4920  -13.0371 C   0  0  0  0  0  0  0  0  0  0  0  0
   -7.5780    2.8391  -11.9345 C   0  0  0  0  0  0  0  0  0  0  0  0
   -8.3912    3.7678  -11.0421 C   0  0  0  0  0  0  0  0  0  0  0  0
   -7.6736    4.9633  -10.6079 N   0  0  0  0  0  0  0  0  0  0  0  0
   -7.8740    6.0889  -11.5109 C   0  0  0  0  0  0  0  0  0  0  0  0
   -7.0738    6.0270  -12.8064 C   0  0  0  0  0  0  0  0  0  0  0  0
   -6.6770    4.7502  -10.5659 H   0  0  0  0  0  0  0  0  0  0  0  0
  1  2  2  0  0  0
  2  3  1  0  0  0
  3  4  2  0  0  0
  4  5  1  0  0  0
  5  6  2  0  0  0
  5  7  1  0  0  0
  7  8  2  0  0  0
  8  9  1  0  0  0
 10  9  1  0  0  0
 10 11  1  0  0  0
 11 12  1  0  0  0
 12 13  1  0  0  0
 13 14  1  0  0  0
 14 15  1  0  0  0
 15 16  1  0  0  0
  6  1  1  0  0  0
 16 10  1  0  0  0
  9  4  1  0  0  0
 14 17  1  0  0  0
M  END
> <minimizedAffinity>
-5.70150

> <minimizedRMSD>
1.10644

$$$$
P58239


 14 14  0  0  0  0  0  0  0  0999 V2000
   -9.0971    4.9783  -15.4773 N   0  0  0  0  0  0  0  0  0  0  0  0
  -10.0192    5.2886  -15.6277 H   0  0  0  0  0  0  0  0  0  0  0  0
   -8.5064    5.0622  -14.2534 C   0  0  0  0  0  0  0  0  0  0  0  0
   -7.6985    4.2319  -13.5071 C   0  0  0  0  0  0  0  0  0  0  0  0
   -7.3934    4.8164  -12.2969 N   0  0  0  0  0  0  0  0  0  0  0  0
   -8.0289    5.9648  -12.2956 C   0  0  0  0  0  0  0  0  0  0  0  0
   -8.7251    6.1500  -13.4532 N   0  0  0  0  0  0  0  0  0  0  0  0
   -9.2859    6.9285  -13.6740 H   0  0  0  0  0  0  0  0  0  0  0  0
   -7.1219    5.3140  -17.0046 C   0  0  0  0  0  0  0  0  0  0  0  0
   -8.2691    4.3861  -16.5929 C   0  0  0  0  0  0  0  0  0  0  0  0
   -9.1019    4.0476  -17.8539 C   0  0  0  0  0  0  0  0  0  0  0  0
   -9.7602    2.8777  -17.7090 F   0  0  0  0  0  0  0  0  0  0  0  0
  -10.0136    5.0115  -18.1158 F   0  0  0  0  0  0  0  0  0  0  0  0
   -8.3045    3.9714  -18.9426 F   0  0  0  0  0  0  0  0  0  0  0  0
 10  9  1  0  0  0
 10  1  1  0  0  0
  1  3  1  0  0  0
  3  4  2  0  0  0
  4  5  1  0  0  0
  5  6  2  0  0  0
  6  7  1  0  0  0
 10 11  1  0  0  0
 11 12  1  0  0  0
 11 13  1  0  0  0
 11 14  1  0  0  0
  7  3  1  0  0  0
  1  2  1  0  0  0
  7  8  1  0  0  0
M  END
> <minimizedAffinity>
-4.58352

> <minimizedRMSD>
2.05059

$$$$
P58263


 15 15  0  0  0  0  0  0  0  0999 V2000
   -8.7521    5.2703  -15.0177 N   0  0  0  0  0  0  0  0  0  0  0  0
   -9.5860    5.6400  -15.3880 H   0  0  0  0  0  0  0  0  0  0  0  0
   -8.4921    5.3498  -13.6826 C   0  0  0  0  0  0  0  0  0  0  0  0
   -8.2979    4.4217  -12.6815 C   0  0  0  0  0  0  0  0  0  0  0  0
   -8.1198    5.0485  -11.4671 N   0  0  0  0  0  0  0  0  0  0  0  0
   -8.2397    6.3308  -11.7191 C   0  0  0  0  0  0  0  0  0  0  0  0
   -8.4777    6.5588  -13.0424 N   0  0  0  0  0  0  0  0  0  0  0  0
   -8.6150    7.4384  -13.4629 H   0  0  0  0  0  0  0  0  0  0  0  0
   -6.3131    5.0318  -15.5857 C   0  0  0  0  0  0  0  0  0  0  0  0
   -7.7541    4.6149  -15.9076 C   0  0  0  0  0  0  0  0  0  0  0  0
   -8.0499    4.9969  -17.3629 C   0  0  0  0  0  0  0  0  0  0  0  0
   -9.1726    4.2038  -17.9874 C   0  0  0  0  0  0  0  0  0  0  0  0
   -9.5569    3.1546  -17.2289 F   0  0  0  0  0  0  0  0  0  0  0  0
  -10.2712    4.9535  -18.1884 F   0  0  0  0  0  0  0  0  0  0  0  0
   -8.7825    3.7631  -19.2011 F   0  0  0  0  0  0  0  0  0  0  0  0
 10  9  1  0  0  0
 10 11  1  0  0  0
 11 12  1  0  0  0
 12 13  1  0  0  0
 12 14  1  0  0  0
 12 15  1  0  0  0
 10  1  1  0  0  0
  1  3  1  0  0  0
  3  4  2  0  0  0
  4  5  1  0  0  0
  5  6  2  0  0  0
  6  7  1  0  0  0
  7  3  1  0  0  0
  1  2  1  0  0  0
  7  8  1  0  0  0
M  END
> <minimizedAffinity>
-4.71777

> <minimizedRMSD>
1.09259

$$$$
P58291


 16 17  0  0  0  0  0  0  0  0999 V2000
   -4.6945    5.0472  -18.8583 C   0  0  0  0  0  0  0  0  0  0  0  0
   -4.3519    5.2934  -17.5340 C   0  0  0  0  0  0  0  0  0  0  0  0
   -5.3278    5.2652  -16.5543 C   0  0  0  0  0  0  0  0  0  0  0  0
   -6.6204    4.9226  -16.9226 C   0  0  0  0  0  0  0  0  0  0  0  0
   -7.5952    4.7448  -15.9466 C   0  0  0  0  0  0  0  0  0  0  0  0
   -8.8607    4.3315  -16.3253 C   0  0  0  0  0  0  0  0  0  0  0  0
   -9.1807    4.1449  -17.6621 C   0  0  0  0  0  0  0  0  0  0  0  0
   -8.1978    4.3242  -18.6304 C   0  0  0  0  0  0  0  0  0  0  0  0
   -6.9055    4.6938  -18.2854 C   0  0  0  0  0  0  0  0  0  0  0  0
   -5.9568    4.7856  -19.2296 N   0  0  0  0  0  0  0  0  0  0  0  0
   -3.7627    4.9469  -19.8680 N   0  0  0  0  0  0  0  0  0  0  0  0
   -3.9821    4.4199  -20.6701 H   0  0  0  0  0  0  0  0  0  0  0  0
   -2.4699    5.5942  -19.7840 C   0  0  0  0  0  0  0  0  0  0  0  0
   -2.1461    6.2576  -21.1155 C   0  0  0  0  0  0  0  0  0  0  0  0
   -0.2541    5.1666  -18.6335 C   0  0  0  0  0  0  0  0  0  0  0  0
   -1.4344    4.5404  -19.3695 C   0  0  0  0  0  0  0  0  0  0  0  0
 15 16  1  0  0  0
 16 13  1  0  0  0
 13 14  1  0  0  0
 13 11  1  0  0  0
 11  1  1  0  0  0
  1  2  2  0  0  0
  2  3  1  0  0  0
  3  4  2  0  0  0
  4  5  1  0  0  0
  5  6  2  0  0  0
  6  7  1  0  0  0
  7  8  2  0  0  0
  8  9  1  0  0  0
  9 10  2  0  0  0
 10  1  1  0  0  0
  9  4  1  0  0  0
 11 12  1  0  0  0
M  END
> <minimizedAffinity>
-5.86882

> <minimizedRMSD>
0.54290

$$$$
P58294


 16 17  0  0  0  0  0  0  0  0999 V2000
   -4.6898    5.0768  -18.8461 C   0  0  0  0  0  0  0  0  0  0  0  0
   -4.3322    5.2990  -17.5228 C   0  0  0  0  0  0  0  0  0  0  0  0
   -5.2996    5.2335  -16.5344 C   0  0  0  0  0  0  0  0  0  0  0  0
   -6.5968    4.8963  -16.9008 C   0  0  0  0  0  0  0  0  0  0  0  0
   -7.5794    4.7259  -15.9310 C   0  0  0  0  0  0  0  0  0  0  0  0
   -8.8540    4.3469  -16.3192 C   0  0  0  0  0  0  0  0  0  0  0  0
   -9.1706    4.1694  -17.6613 C   0  0  0  0  0  0  0  0  0  0  0  0
   -8.1807    4.3381  -18.6241 C   0  0  0  0  0  0  0  0  0  0  0  0
   -6.8869    4.6844  -18.2649 C   0  0  0  0  0  0  0  0  0  0  0  0
   -5.9457    4.7894  -19.2088 N   0  0  0  0  0  0  0  0  0  0  0  0
   -3.7850    5.0440  -19.8770 N   0  0  0  0  0  0  0  0  0  0  0  0
   -3.8868    4.3639  -20.5816 H   0  0  0  0  0  0  0  0  0  0  0  0
   -2.6876    5.9789  -19.9575 C   0  0  0  0  0  0  0  0  0  0  0  0
   -0.7004    5.8158  -18.4287 C   0  0  0  0  0  0  0  0  0  0  0  0
   -1.3630    5.2607  -19.6836 C   0  0  0  0  0  0  0  0  0  0  0  0
   -1.6275    3.5118  -19.5038 Cl  0  0  0  0  0  0  0  0  0  0  0  0
 15 14  1  0  0  0
 15 16  1  0  0  0
 15 13  1  0  0  0
 13 11  1  0  0  0
 11  1  1  0  0  0
  1  2  2  0  0  0
  2  3  1  0  0  0
  3  4  2  0  0  0
  4  5  1  0  0  0
  5  6  2  0  0  0
  6  7  1  0  0  0
  7  8  2  0  0  0
  8  9  1  0  0  0
  9 10  2  0  0  0
 10  1  1  0  0  0
  9  4  1  0  0  0
 11 12  1  0  0  0
M  END
> <minimizedAffinity>
-5.86111

> <minimizedRMSD>
0.62590

$$$$
P58306


 24 26  0  0  0  0  0  0  0  0999 V2000
   -7.8121    5.2454  -13.6225 C   0  0  0  0  0  0  0  0  0  0  0  0
   -8.9445    5.2096  -13.3504 O   0  0  0  0  0  0  0  0  0  0  0  0
   -7.0937    4.9648  -14.9652 N   0  0  0  0  0  0  0  0  0  0  0  0
   -6.1106    4.9881  -14.9195 H   0  0  0  0  0  0  0  0  0  0  0  0
   -7.6103    4.6862  -16.2216 C   0  0  0  0  0  0  0  0  0  0  0  0
   -8.9433    4.3374  -16.4299 C   0  0  0  0  0  0  0  0  0  0  0  0
   -9.4417    4.0726  -17.7269 C   0  0  0  0  0  0  0  0  0  0  0  0
   -8.6136    4.1584  -18.8484 C   0  0  0  0  0  0  0  0  0  0  0  0
   -7.3072    4.5133  -18.6158 C   0  0  0  0  0  0  0  0  0  0  0  0
   -6.2673    4.7090  -19.5181 N   0  0  0  0  0  0  0  0  0  0  0  0
   -5.1251    5.0809  -18.8018 C   0  0  0  0  0  0  0  0  0  0  0  0
   -4.0190    5.3488  -19.2304 O   0  0  0  0  0  0  0  0  0  0  0  0
   -5.4767    5.1174  -17.4512 N   0  0  0  0  0  0  0  0  0  0  0  0
   -6.8160    4.7667  -17.3364 C   0  0  0  0  0  0  0  0  0  0  0  0
   -6.3252    4.6036  -20.4953 H   0  0  0  0  0  0  0  0  0  0  0  0
   -4.8772    5.3520  -16.7064 H   0  0  0  0  0  0  0  0  0  0  0  0
   -6.7579    5.7038  -12.6345 C   0  0  0  0  0  0  0  0  0  0  0  0
   -7.0268    7.1663  -12.3067 C   0  0  0  0  0  0  0  0  0  0  0  0
   -8.6915    7.2089   -9.6932 C   0  0  0  0  0  0  0  0  0  0  0  0
   -7.2934    7.5461   -9.8114 N   0  0  0  0  0  0  0  0  0  0  0  0
   -6.4905    7.9419   -8.7792 C   0  0  0  0  0  0  0  0  0  0  0  0
   -5.2662    8.1894   -9.1856 N   0  0  0  0  0  0  0  0  0  0  0  0
   -5.2788    7.9425  -10.5321 C   0  0  0  0  0  0  0  0  0  0  0  0
   -6.5290    7.5371  -10.9548 C   0  0  0  0  0  0  0  0  0  0  0  0
 19 20  1  0  0  0
 20 21  1  0  0  0
 21 22  2  0  0  0
 22 23  1  0  0  0
 23 24  2  0  0  0
 24 18  1  0  0  0
 18 17  1  0  0  0
 17  1  1  0  0  0
  1  2  2  0  0  0
  1  3  1  0  0  0
  3  5  1  0  0  0
  5  6  2  0  0  0
  6  7  1  0  0  0
  7  8  2  0  0  0
  8  9  1  0  0  0
  9 10  1  0  0  0
 10 11  1  0  0  0
 11 12  2  0  0  0
 11 13  1  0  0  0
 13 14  1  0  0  0
 24 20  1  0  0  0
 14  5  1  0  0  0
 14  9  2  0  0  0
  3  4  1  0  0  0
 10 15  1  0  0  0
 13 16  1  0  0  0
M  END
> <minimizedAffinity>
-5.52700

> <minimizedRMSD>
1.08279

$$$$
P58460


 17 17  0  0  0  0  0  0  0  0999 V2000
   -8.5224    4.7919  -15.7380 C   0  0  0  0  0  0  0  0  0  0  0  0
   -8.9795    5.8133  -15.4055 O   0  0  0  0  0  0  0  0  0  0  0  0
   -7.7387    3.7251  -14.9204 N   0  0  0  0  0  0  0  0  0  0  0  0
   -7.5216    2.9029  -15.4165 H   0  0  0  0  0  0  0  0  0  0  0  0
   -7.2763    3.7455  -13.5465 C   0  0  0  0  0  0  0  0  0  0  0  0
   -6.7135    2.3940  -13.1220 C   0  0  0  0  0  0  0  0  0  0  0  0
   -6.2786    2.4169  -11.6599 C   0  0  0  0  0  0  0  0  0  0  0  0
   -7.3582    2.8566  -10.7753 N   0  0  0  0  0  0  0  0  0  0  0  0
   -7.8893    4.1627  -11.1484 C   0  0  0  0  0  0  0  0  0  0  0  0
   -8.3836    4.1870  -12.5914 C   0  0  0  0  0  0  0  0  0  0  0  0
   -6.9989    2.9097   -9.8222 H   0  0  0  0  0  0  0  0  0  0  0  0
   -9.9362    4.6461  -17.8234 C   0  0  0  0  0  0  0  0  0  0  0  0
   -8.6137    4.2678  -17.1665 C   0  0  0  0  0  0  0  0  0  0  0  0
   -7.4189    4.7599  -17.9607 C   0  0  0  0  0  0  0  0  0  0  0  0
   -6.2552    4.3662  -17.3896 F   0  0  0  0  0  0  0  0  0  0  0  0
   -7.3740    6.0995  -18.1057 F   0  0  0  0  0  0  0  0  0  0  0  0
   -7.4365    4.2314  -19.2091 F   0  0  0  0  0  0  0  0  0  0  0  0
 13 12  1  0  0  0
 13  1  1  0  0  0
  1  2  2  0  0  0
  1  3  1  0  0  0
  3  5  1  0  0  0
  5  6  1  0  0  0
  6  7  1  0  0  0
  7  8  1  0  0  0
  8  9  1  0  0  0
  9 10  1  0  0  0
 13 14  1  0  0  0
 14 15  1  0  0  0
 14 16  1  0  0  0
 14 17  1  0  0  0
 10  5  1  0  0  0
  3  4  1  0  0  0
  8 11  1  0  0  0
M  END
> <minimizedAffinity>
-6.02311

> <minimizedRMSD>
2.00011

$$$$
P58504


 15 16  0  0  0  0  0  0  0  0999 V2000
   -5.1085    5.0573  -18.3975 C   0  0  0  0  0  0  0  0  0  0  0  0
   -6.2422    4.7489  -19.0479 N   0  0  0  0  0  0  0  0  0  0  0  0
   -7.3796    4.5443  -18.3573 C   0  0  0  0  0  0  0  0  0  0  0  0
   -7.3641    4.6023  -16.9741 C   0  0  0  0  0  0  0  0  0  0  0  0
   -8.3835    4.4617  -15.9816 C   0  0  0  0  0  0  0  0  0  0  0  0
   -7.8705    4.5394  -14.7072 C   0  0  0  0  0  0  0  0  0  0  0  0
   -6.1848    4.8298  -14.7081 S   0  0  0  0  0  0  0  0  0  0  0  0
   -6.1209    4.8444  -16.4107 C   0  0  0  0  0  0  0  0  0  0  0  0
   -4.9662    5.0977  -17.0628 N   0  0  0  0  0  0  0  0  0  0  0  0
   -4.0111    5.6108  -19.2737 C   0  0  0  0  0  0  0  0  0  0  0  0
   -2.2065    3.7959  -19.4496 C   0  0  0  0  0  0  0  0  0  0  0  0
   -2.5505    5.2146  -19.0170 C   0  0  0  0  0  0  0  0  0  0  0  0
   -2.1395    5.4755  -17.6384 N   0  0  0  0  0  0  0  0  0  0  0  0
   -2.6718    4.8778  -17.0061 H   0  0  0  0  0  0  0  0  0  0  0  0
   -2.3158    6.4539  -17.4104 H   0  0  0  0  0  0  0  0  0  0  0  0
 12 11  1  0  0  0
 12 13  1  0  0  0
 12 10  1  0  0  0
 10  1  1  0  0  0
  1  2  2  0  0  0
  2  3  1  0  0  0
  3  4  2  0  0  0
  4  5  1  0  0  0
  5  6  2  0  0  0
  6  7  1  0  0  0
  7  8  1  0  0  0
  8  9  2  0  0  0
  9  1  1  0  0  0
  8  4  1  0  0  0
 13 14  1  0  0  0
 13 15  1  0  0  0
M  END
> <minimizedAffinity>
-4.66454

> <minimizedRMSD>
0.76759

$$$$
P58509


 14 15  0  0  0  0  0  0  0  0999 V2000
   -5.3435    4.9871  -18.6061 C   0  0  0  0  0  0  0  0  0  0  0  0
   -6.5615    4.6986  -19.0741 N   0  0  0  0  0  0  0  0  0  0  0  0
   -7.5966    4.5276  -18.2323 C   0  0  0  0  0  0  0  0  0  0  0  0
   -7.3844    4.5974  -16.8687 C   0  0  0  0  0  0  0  0  0  0  0  0
   -8.2505    4.4685  -15.7399 C   0  0  0  0  0  0  0  0  0  0  0  0
   -7.5589    4.5600  -14.5541 C   0  0  0  0  0  0  0  0  0  0  0  0
   -5.8910    4.8528  -14.8027 S   0  0  0  0  0  0  0  0  0  0  0  0
   -6.0700    4.8331  -16.4973 C   0  0  0  0  0  0  0  0  0  0  0  0
   -5.0185    5.0455  -17.3155 N   0  0  0  0  0  0  0  0  0  0  0  0
   -4.4686    5.2906  -19.6181 N   0  0  0  0  0  0  0  0  0  0  0  0
   -4.8787    5.5464  -20.4758 H   0  0  0  0  0  0  0  0  0  0  0  0
   -2.4429    3.9246  -19.2389 C   0  0  0  0  0  0  0  0  0  0  0  0
   -3.0232    5.2841  -19.5903 C   0  0  0  0  0  0  0  0  0  0  0  0
   -2.4436    6.4037  -18.7399 C   0  0  0  0  0  0  0  0  0  0  0  0
 12 13  1  0  0  0
 13 14  1  0  0  0
 13 10  1  0  0  0
 10  1  1  0  0  0
  1  2  2  0  0  0
  2  3  1  0  0  0
  3  4  2  0  0  0
  4  5  1  0  0  0
  5  6  2  0  0  0
  6  7  1  0  0  0
  7  8  1  0  0  0
  8  9  2  0  0  0
  9  1  1  0  0  0
  8  4  1  0  0  0
 10 11  1  0  0  0
M  END
> <minimizedAffinity>
-4.78569

> <minimizedRMSD>
0.73207

$$$$
P58511


 15 16  0  0  0  0  0  0  0  0999 V2000
   -6.3002    5.0222  -16.4643 C   0  0  0  0  0  0  0  0  0  0  0  0
   -6.5162    5.1631  -15.1078 N   0  0  0  0  0  0  0  0  0  0  0  0
   -7.7499    4.9512  -14.6123 C   0  0  0  0  0  0  0  0  0  0  0  0
   -8.8558    4.6367  -15.2886 N   0  0  0  0  0  0  0  0  0  0  0  0
   -8.6153    4.5022  -16.6035 C   0  0  0  0  0  0  0  0  0  0  0  0
   -9.8388    4.0609  -17.7062 S   0  0  0  0  0  0  0  0  0  0  0  0
   -8.6896    4.1584  -18.9716 C   0  0  0  0  0  0  0  0  0  0  0  0
   -7.4643    4.4999  -18.6351 N   0  0  0  0  0  0  0  0  0  0  0  0
   -7.4056    4.6834  -17.2642 C   0  0  0  0  0  0  0  0  0  0  0  0
   -3.9211    4.4284  -16.0625 C   0  0  0  0  0  0  0  0  0  0  0  0
   -4.8683    5.2504  -16.9552 C   0  0  0  0  0  0  0  0  0  0  0  0
   -4.5894    4.8898  -18.4308 C   0  0  0  0  0  0  0  0  0  0  0  0
   -4.5181    6.6840  -16.7889 N   0  0  0  0  0  0  0  0  0  0  0  0
   -3.5644    6.8410  -17.1148 H   0  0  0  0  0  0  0  0  0  0  0  0
   -4.5871    6.9388  -15.8036 H   0  0  0  0  0  0  0  0  0  0  0  0
 10 11  1  0  0  0
 11 12  1  0  0  0
 11 13  1  0  0  0
 11  1  1  0  0  0
  1  2  2  0  0  0
  2  3  1  0  0  0
  3  4  2  0  0  0
  4  5  1  0  0  0
  5  6  1  0  0  0
  6  7  1  0  0  0
  7  8  2  0  0  0
  8  9  1  0  0  0
  9  1  1  0  0  0
  9  5  2  0  0  0
 13 14  1  0  0  0
 13 15  1  0  0  0
M  END
> <minimizedAffinity>
-4.76654

> <minimizedRMSD>
1.19386

$$$$
P58512


 15 16  0  0  0  0  0  0  0  0999 V2000
   -5.5293    4.9687  -17.5104 C   0  0  0  0  0  0  0  0  0  0  0  0
   -4.8756    5.1406  -16.3344 N   0  0  0  0  0  0  0  0  0  0  0  0
   -5.5962    5.0242  -15.2109 C   0  0  0  0  0  0  0  0  0  0  0  0
   -6.8987    4.7591  -15.1379 N   0  0  0  0  0  0  0  0  0  0  0  0
   -7.5181    4.5725  -16.3094 C   0  0  0  0  0  0  0  0  0  0  0  0
   -8.8610    4.2336  -16.2912 C   0  0  0  0  0  0  0  0  0  0  0  0
   -9.5600    4.0345  -17.4729 C   0  0  0  0  0  0  0  0  0  0  0  0
   -8.8722    4.1880  -18.6550 C   0  0  0  0  0  0  0  0  0  0  0  0
   -7.5751    4.5298  -18.7224 N   0  0  0  0  0  0  0  0  0  0  0  0
   -6.8956    4.6931  -17.5660 C   0  0  0  0  0  0  0  0  0  0  0  0
   -4.6666    5.0153  -18.5933 N   0  0  0  0  0  0  0  0  0  0  0  0
   -4.4004    4.1353  -18.9453 H   0  0  0  0  0  0  0  0  0  0  0  0
   -5.1041    7.0378  -20.0049 C   0  0  0  0  0  0  0  0  0  0  0  0
   -4.0853    6.1589  -19.3010 C   0  0  0  0  0  0  0  0  0  0  0  0
   -2.8929    5.8235  -20.1788 C   0  0  0  0  0  0  0  0  0  0  0  0
 13 14  1  0  0  0
 14 15  1  0  0  0
 14 11  1  0  0  0
 11  1  1  0  0  0
  1  2  2  0  0  0
  2  3  1  0  0  0
  3  4  2  0  0  0
  4  5  1  0  0  0
  5  6  2  0  0  0
  6  7  1  0  0  0
  7  8  2  0  0  0
  8  9  1  0  0  0
  9 10  2  0  0  0
 10  1  1  0  0  0
 10  5  1  0  0  0
 11 12  1  0  0  0
M  END
> <minimizedAffinity>
-4.84861

> <minimizedRMSD>
1.52609

$$$$
P58520


 11 11  0  0  0  0  0  0  0  0999 V2000
   -7.0617    4.4965  -15.8094 C   0  0  0  0  0  0  0  0  0  0  0  0
   -9.2843    3.9928  -16.9706 C   0  0  0  0  0  0  0  0  0  0  0  0
   -8.5449    4.8528  -15.9459 C   0  0  0  0  0  0  0  0  0  0  0  0
   -9.1946    4.7880  -14.6272 N   0  0  0  0  0  0  0  0  0  0  0  0
   -9.1449    3.8338  -14.2702 H   0  0  0  0  0  0  0  0  0  0  0  0
  -10.1715    5.0676  -14.7153 H   0  0  0  0  0  0  0  0  0  0  0  0
   -6.2163    4.7369  -17.0031 C   0  0  0  0  0  0  0  0  0  0  0  0
   -6.3881    4.8213  -18.3677 C   0  0  0  0  0  0  0  0  0  0  0  0
   -5.1746    4.9934  -18.9824 N   0  0  0  0  0  0  0  0  0  0  0  0
   -4.3228    5.0019  -17.9914 C   0  0  0  0  0  0  0  0  0  0  0  0
   -4.8710    4.8523  -16.7595 O   0  0  0  0  0  0  0  0  0  0  0  0
  3  2  1  0  0  0
  3  4  1  0  0  0
  3  1  1  0  0  0
  1  7  1  0  0  0
  7  8  2  0  0  0
  8  9  1  0  0  0
  9 10  2  0  0  0
 10 11  1  0  0  0
 11  7  1  0  0  0
  4  5  1  0  0  0
  4  6  1  0  0  0
M  END
> <minimizedAffinity>
-3.91764

> <minimizedRMSD>
0.49644

$$$$
P58573


 19 21  0  0  0  0  0  0  0  0999 V2000
   -7.7376    6.9067  -11.9680 O   0  0  0  0  0  0  0  0  0  0  0  0
   -8.0272    6.8264  -10.8437 C   0  0  0  0  0  0  0  0  0  0  0  0
   -8.3262    7.9255   -9.8101 N   0  0  0  0  0  0  0  0  0  0  0  0
   -8.6255    7.5953   -8.9322 H   0  0  0  0  0  0  0  0  0  0  0  0
   -8.1804    5.4954  -10.1721 C   0  0  0  0  0  0  0  0  0  0  0  0
   -8.2707    4.2723  -10.9688 C   0  0  0  0  0  0  0  0  0  0  0  0
   -8.4808    3.0730  -10.3921 C   0  0  0  0  0  0  0  0  0  0  0  0
   -8.6209    2.9894   -8.9797 C   0  0  0  0  0  0  0  0  0  0  0  0
   -8.7891    1.9600   -8.1863 N   0  0  0  0  0  0  0  0  0  0  0  0
   -8.9118    2.4787   -6.9231 C   0  0  0  0  0  0  0  0  0  0  0  0
   -8.7734    3.8477   -6.9411 C   0  0  0  0  0  0  0  0  0  0  0  0
   -8.5735    4.1740   -8.2577 N   0  0  0  0  0  0  0  0  0  0  0  0
   -8.3560    5.4194   -8.8379 C   0  0  0  0  0  0  0  0  0  0  0  0
   -8.2402    9.3525   -9.9169 C   0  0  0  0  0  0  0  0  0  0  0  0
   -9.3950    9.8206  -10.7146 C   0  0  0  0  0  0  0  0  0  0  0  0
   -9.5602   10.1228  -12.0510 C   0  0  0  0  0  0  0  0  0  0  0  0
  -10.9128   10.5086  -12.2087 C   0  0  0  0  0  0  0  0  0  0  0  0
  -11.4865   10.4126  -10.9628 C   0  0  0  0  0  0  0  0  0  0  0  0
  -10.5744    9.9922  -10.0489 O   0  0  0  0  0  0  0  0  0  0  0  0
  1  2  2  0  0  0
  2  3  1  0  0  0
  3 14  1  0  0  0
 14 15  1  0  0  0
 15 16  2  0  0  0
 16 17  1  0  0  0
 17 18  2  0  0  0
 18 19  1  0  0  0
  2  5  1  0  0  0
  5  6  1  0  0  0
  6  7  2  0  0  0
  7  8  1  0  0  0
  8  9  2  0  0  0
  9 10  1  0  0  0
 10 11  2  0  0  0
 11 12  1  0  0  0
 12 13  1  0  0  0
 19 15  1  0  0  0
 13  5  2  0  0  0
 12  8  1  0  0  0
  3  4  1  0  0  0
M  END
> <minimizedAffinity>
-4.26906

> <minimizedRMSD>
2.86200

$$$$
P58576


 20 22  0  0  0  0  0  0  0  0999 V2000
  -10.3974    8.7132  -12.9703 O   0  0  0  0  0  0  0  0  0  0  0  0
   -9.3290    8.4604  -12.5848 C   0  0  0  0  0  0  0  0  0  0  0  0
   -8.2590    9.3634  -11.9487 N   0  0  0  0  0  0  0  0  0  0  0  0
   -7.4551    8.8906  -11.6334 H   0  0  0  0  0  0  0  0  0  0  0  0
   -8.7716    7.0760  -12.6824 C   0  0  0  0  0  0  0  0  0  0  0  0
   -8.7055    6.4043  -13.9738 C   0  0  0  0  0  0  0  0  0  0  0  0
   -8.2482    5.1415  -14.0902 C   0  0  0  0  0  0  0  0  0  0  0  0
   -8.0317    4.3339  -15.7524 Br  0  0  0  0  0  0  0  0  0  0  0  0
   -7.8559    4.4227  -12.9206 C   0  0  0  0  0  0  0  0  0  0  0  0
   -7.3946    3.2041  -12.7431 N   0  0  0  0  0  0  0  0  0  0  0  0
   -7.1970    3.0662  -11.3936 C   0  0  0  0  0  0  0  0  0  0  0  0
   -7.5142    4.2302  -10.7338 C   0  0  0  0  0  0  0  0  0  0  0  0
   -7.9393    5.0970  -11.7071 N   0  0  0  0  0  0  0  0  0  0  0  0
   -8.3830    6.4101  -11.5798 C   0  0  0  0  0  0  0  0  0  0  0  0
   -8.2417   10.7825  -11.7400 C   0  0  0  0  0  0  0  0  0  0  0  0
   -8.2326   11.4423  -13.0646 C   0  0  0  0  0  0  0  0  0  0  0  0
   -9.1936   12.1117  -13.7946 C   0  0  0  0  0  0  0  0  0  0  0  0
   -8.5742   12.5032  -15.0053 C   0  0  0  0  0  0  0  0  0  0  0  0
   -7.2789   12.0468  -14.9383 C   0  0  0  0  0  0  0  0  0  0  0  0
   -7.0615   11.3996  -13.7644 O   0  0  0  0  0  0  0  0  0  0  0  0
  1  2  2  0  0  0
  2  3  1  0  0  0
  3 15  1  0  0  0
 15 16  1  0  0  0
 16 17  2  0  0  0
 17 18  1  0  0  0
 18 19  2  0  0  0
 19 20  1  0  0  0
  2  5  1  0  0  0
  5  6  1  0  0  0
  6  7  2  0  0  0
  7  8  1  0  0  0
  7  9  1  0  0  0
  9 10  2  0  0  0
 10 11  1  0  0  0
 11 12  2  0  0  0
 12 13  1  0  0  0
 13 14  1  0  0  0
 20 16  1  0  0  0
 14  5  2  0  0  0
 13  9  1  0  0  0
  3  4  1  0  0  0
M  END
> <minimizedAffinity>
-3.59038

> <minimizedRMSD>
2.51028

$$$$
P58579


 23 25  0  0  0  0  0  0  0  0999 V2000
   -8.1872    6.8235  -12.0872 C   0  0  0  0  0  0  0  0  0  0  0  0
   -8.1649    5.7172  -13.0420 C   0  0  0  0  0  0  0  0  0  0  0  0
   -8.2090    4.4347  -12.6347 C   0  0  0  0  0  0  0  0  0  0  0  0
   -8.2762    4.1407  -11.2464 C   0  0  0  0  0  0  0  0  0  0  0  0
   -8.3438    2.9975  -10.6088 N   0  0  0  0  0  0  0  0  0  0  0  0
   -8.3837    3.3038   -9.2571 C   0  0  0  0  0  0  0  0  0  0  0  0
   -8.3200    4.6820   -9.0990 C   0  0  0  0  0  0  0  0  0  0  0  0
   -8.2724    5.2121  -10.3635 N   0  0  0  0  0  0  0  0  0  0  0  0
   -8.2265    6.5469  -10.7685 C   0  0  0  0  0  0  0  0  0  0  0  0
   -7.1361    8.6221  -13.1193 O   0  0  0  0  0  0  0  0  0  0  0  0
   -8.0971    8.2320  -12.5914 C   0  0  0  0  0  0  0  0  0  0  0  0
   -9.4530    8.9183  -12.3547 N   0  0  0  0  0  0  0  0  0  0  0  0
  -10.1398    8.3438  -11.9455 H   0  0  0  0  0  0  0  0  0  0  0  0
   -9.8804   10.2612  -12.6335 C   0  0  0  0  0  0  0  0  0  0  0  0
  -10.9903   10.6416  -11.7377 C   0  0  0  0  0  0  0  0  0  0  0  0
  -11.0378   11.0964  -10.4367 C   0  0  0  0  0  0  0  0  0  0  0  0
  -12.4034   11.3106  -10.1398 C   0  0  0  0  0  0  0  0  0  0  0  0
  -13.1028   10.9612  -11.2702 C   0  0  0  0  0  0  0  0  0  0  0  0
  -12.2537   10.5593  -12.2511 O   0  0  0  0  0  0  0  0  0  0  0  0
   -8.4710    2.2408   -8.1976 C   0  0  0  0  0  0  0  0  0  0  0  0
   -7.4698    1.3360   -8.2797 F   0  0  0  0  0  0  0  0  0  0  0  0
   -9.6486    1.5630   -8.2272 F   0  0  0  0  0  0  0  0  0  0  0  0
   -8.3974    2.7966   -6.9516 F   0  0  0  0  0  0  0  0  0  0  0  0
 10 11  2  0  0  0
 11 12  1  0  0  0
 12 14  1  0  0  0
 14 15  1  0  0  0
 15 16  2  0  0  0
 16 17  1  0  0  0
 17 18  2  0  0  0
 18 19  1  0  0  0
 11  1  1  0  0  0
  1  2  1  0  0  0
  2  3  2  0  0  0
  3  4  1  0  0  0
  4  5  2  0  0  0
  5  6  1  0  0  0
  6 20  1  0  0  0
 20 21  1  0  0  0
 20 22  1  0  0  0
 20 23  1  0  0  0
  6  7  2  0  0  0
  7  8  1  0  0  0
  8  9  1  0  0  0
 19 15  1  0  0  0
  9  1  2  0  0  0
  8  4  1  0  0  0
 12 13  1  0  0  0
M  END
> <minimizedAffinity>
-5.13397

> <minimizedRMSD>
0.50039

$$$$
P58636


 20 20  0  0  0  0  0  0  0  0999 V2000
   -5.7259    3.4601  -13.6157 N   0  0  0  0  0  0  0  0  0  0  0  0
   -4.4149    3.5942  -14.4402 C   0  0  0  0  0  0  0  0  0  0  0  0
   -3.5754    2.8120  -14.6585 O   0  0  0  0  0  0  0  0  0  0  0  0
   -6.3136    4.2494  -13.6441 H   0  0  0  0  0  0  0  0  0  0  0  0
   -4.4108    5.0222  -15.0932 C   0  0  0  0  0  0  0  0  0  0  0  0
   -5.2274    5.8623  -14.3752 F   0  0  0  0  0  0  0  0  0  0  0  0
   -3.1565    5.5716  -14.9836 F   0  0  0  0  0  0  0  0  0  0  0  0
   -4.8594    4.9561  -16.5429 C   0  0  0  0  0  0  0  0  0  0  0  0
   -6.2188    4.8657  -16.8753 C   0  0  0  0  0  0  0  0  0  0  0  0
   -6.5738    4.7864  -18.2077 C   0  0  0  0  0  0  0  0  0  0  0  0
   -5.6787    4.8239  -19.2069 N   0  0  0  0  0  0  0  0  0  0  0  0
   -4.3770    4.9175  -18.8861 C   0  0  0  0  0  0  0  0  0  0  0  0
   -3.9211    4.9834  -17.5826 C   0  0  0  0  0  0  0  0  0  0  0  0
   -7.6193    2.6641  -12.3075 C   0  0  0  0  0  0  0  0  0  0  0  0
   -6.2218    2.3650  -12.8146 C   0  0  0  0  0  0  0  0  0  0  0  0
   -5.2135    1.9306  -11.7622 C   0  0  0  0  0  0  0  0  0  0  0  0
   -5.3262    2.6621  -10.4471 C   0  0  0  0  0  0  0  0  0  0  0  0
   -5.4173    3.9996  -10.6258 F   0  0  0  0  0  0  0  0  0  0  0  0
   -6.3977    2.2731   -9.7273 F   0  0  0  0  0  0  0  0  0  0  0  0
   -4.2308    2.4371   -9.6836 F   0  0  0  0  0  0  0  0  0  0  0  0
 15 14  1  0  0  0
 15 16  1  0  0  0
 16 17  1  0  0  0
 17 18  1  0  0  0
 17 19  1  0  0  0
 17 20  1  0  0  0
 15  1  1  0  0  0
  1  2  1  0  0  0
  2  3  2  0  0  0
  2  5  1  0  0  0
  5  6  1  0  0  0
  5  7  1  0  0  0
  5  8  1  0  0  0
  8  9  2  0  0  0
  9 10  1  0  0  0
 10 11  2  0  0  0
 11 12  1  0  0  0
 12 13  2  0  0  0
 13  8  1  0  0  0
  1  4  1  0  0  0
M  END
> <minimizedAffinity>
-4.61005

> <minimizedRMSD>
0.91981

$$$$
P58645


 14 15  0  0  0  0  0  0  0  0999 V2000
   -5.3579    4.8710  -19.3951 S   0  0  0  0  0  0  0  0  0  0  0  0
   -6.7148    4.6892  -18.4354 C   0  0  0  0  0  0  0  0  0  0  0  0
   -6.6458    4.6438  -16.9575 C   0  0  0  0  0  0  0  0  0  0  0  0
   -7.7582    4.4734  -16.2349 C   0  0  0  0  0  0  0  0  0  0  0  0
   -8.9903    4.2343  -17.0172 C   0  0  0  0  0  0  0  0  0  0  0  0
   -9.1101    4.3336  -18.3045 N   0  0  0  0  0  0  0  0  0  0  0  0
   -7.9662    4.6253  -18.9930 N   0  0  0  0  0  0  0  0  0  0  0  0
   -8.0461    4.8021  -19.9582 H   0  0  0  0  0  0  0  0  0  0  0  0
   -7.7689    4.4743  -14.7704 C   0  0  0  0  0  0  0  0  0  0  0  0
   -8.3758    5.4760  -14.0182 C   0  0  0  0  0  0  0  0  0  0  0  0
   -8.3872    5.3650  -12.6225 C   0  0  0  0  0  0  0  0  0  0  0  0
   -7.7830    4.2719  -12.0192 C   0  0  0  0  0  0  0  0  0  0  0  0
   -7.1904    3.3305  -12.8366 C   0  0  0  0  0  0  0  0  0  0  0  0
   -7.1916    3.4130  -14.1837 N   0  0  0  0  0  0  0  0  0  0  0  0
  1  2  2  0  0  0
  2  3  1  0  0  0
  3  4  2  0  0  0
  4  9  1  0  0  0
  9 10  2  0  0  0
 10 11  1  0  0  0
 11 12  2  0  0  0
 12 13  1  0  0  0
 13 14  2  0  0  0
  4  5  1  0  0  0
  5  6  2  0  0  0
  6  7  1  0  0  0
  7  2  1  0  0  0
 14  9  1  0  0  0
  7  8  1  0  0  0
M  END
> <minimizedAffinity>
-5.38869

> <minimizedRMSD>
1.02504

$$$$
P58682


 11 11  0  0  0  0  0  0  0  0999 V2000
   -6.9105    4.4343  -18.0870 N   0  0  0  0  0  0  0  0  0  0  0  0
   -6.5252    5.2715  -16.9368 C   0  0  0  0  0  0  0  0  0  0  0  0
   -7.6639    5.6021  -15.9698 C   0  0  0  0  0  0  0  0  0  0  0  0
   -8.6747    4.4730  -15.8864 C   0  0  0  0  0  0  0  0  0  0  0  0
   -9.2319    4.1376  -17.2684 C   0  0  0  0  0  0  0  0  0  0  0  0
   -8.3344    4.6001  -18.4193 C   0  0  0  0  0  0  0  0  0  0  0  0
   -6.1109    4.7780  -19.2706 N   0  0  0  0  0  0  0  0  0  0  0  0
   -5.7679    3.9222  -19.7069 H   0  0  0  0  0  0  0  0  0  0  0  0
   -4.9708    5.6149  -18.8791 C   0  0  0  0  0  0  0  0  0  0  0  0
   -2.8058    4.5855  -18.1018 C   0  0  0  0  0  0  0  0  0  0  0  0
   -3.6929    4.8580  -19.0661 C   0  0  0  0  0  0  0  0  0  0  0  0
 10 11  2  0  0  0
 11  9  1  0  0  0
  9  7  1  0  0  0
  7  1  1  0  0  0
  1  2  1  0  0  0
  2  3  1  0  0  0
  3  4  1  0  0  0
  4  5  1  0  0  0
  5  6  1  0  0  0
  6  1  1  0  0  0
  7  8  1  0  0  0
M  END
> <minimizedAffinity>
-4.06147

> <minimizedRMSD>
2.10583

$$$$
P58724


 17 20  0  0  0  0  0  0  0  0999 V2000
   -7.1668    4.6878  -14.9529 C   0  0  0  0  0  0  0  0  0  0  0  0
   -6.1043    4.9557  -15.8043 C   0  0  0  0  0  0  0  0  0  0  0  0
   -6.2034    4.9353  -17.2216 C   0  0  0  0  0  0  0  0  0  0  0  0
   -7.4804    4.5675  -17.7216 C   0  0  0  0  0  0  0  0  0  0  0  0
   -7.9847    4.4434  -19.0044 N   0  0  0  0  0  0  0  0  0  0  0  0
   -9.2930    4.0398  -18.9839 C   0  0  0  0  0  0  0  0  0  0  0  0
   -9.6905    3.9571  -17.6789 C   0  0  0  0  0  0  0  0  0  0  0  0
   -8.5644    4.2762  -16.8758 C   0  0  0  0  0  0  0  0  0  0  0  0
   -8.4027    4.3644  -15.4854 C   0  0  0  0  0  0  0  0  0  0  0  0
   -7.4701    4.6220  -19.8245 H   0  0  0  0  0  0  0  0  0  0  0  0
   -5.0364    5.3466  -18.1120 C   0  0  0  0  0  0  0  0  0  0  0  0
   -5.0158    4.9722  -19.5770 C   0  0  0  0  0  0  0  0  0  0  0  0
   -3.5960    5.0080  -19.9714 N   0  0  0  0  0  0  0  0  0  0  0  0
   -2.8063    4.6674  -18.7863 C   0  0  0  0  0  0  0  0  0  0  0  0
   -3.6209    5.1900  -17.6531 C   0  0  0  0  0  0  0  0  0  0  0  0
   -4.2310    6.5713  -17.6808 C   0  0  0  0  0  0  0  0  0  0  0  0
   -3.3482    5.9415  -20.2995 H   0  0  0  0  0  0  0  0  0  0  0  0
  1  2  2  0  0  0
  2  3  1  0  0  0
 11  3  1  0  0  0
 11 12  1  0  0  0
 12 13  1  0  0  0
 13 14  1  0  0  0
 15 14  1  0  0  0
 15 16  1  0  0  0
  3  4  2  0  0  0
  4  5  1  0  0  0
  5  6  1  0  0  0
  6  7  2  0  0  0
  7  8  1  0  0  0
  8  9  2  0  0  0
  9  1  1  0  0  0
 15 11  1  0  0  0
  8  4  1  0  0  0
 16 11  1  0  0  0
 13 17  1  0  0  0
  5 10  1  0  0  0
M  END
> <minimizedAffinity>
-7.06183

> <minimizedRMSD>
0.97735

$$$$
P58742


 20 22  0  0  0  0  0  0  0  0999 V2000
   -6.7542    4.9972  -14.1460 N   0  0  0  0  0  0  0  0  0  0  0  0
   -5.9450    5.1193  -13.5988 H   0  0  0  0  0  0  0  0  0  0  0  0
   -7.8934    4.5399  -17.6161 C   0  0  0  0  0  0  0  0  0  0  0  0
   -7.8952    4.5449  -16.2292 C   0  0  0  0  0  0  0  0  0  0  0  0
   -6.7384    4.8699  -15.5451 C   0  0  0  0  0  0  0  0  0  0  0  0
   -5.5755    5.0924  -16.2682 C   0  0  0  0  0  0  0  0  0  0  0  0
   -5.6350    5.0076  -17.6498 C   0  0  0  0  0  0  0  0  0  0  0  0
   -6.7692    4.7652  -18.3407 N   0  0  0  0  0  0  0  0  0  0  0  0
  -10.1253    5.2605  -17.6651 F   0  0  0  0  0  0  0  0  0  0  0  0
   -9.2540    4.3799  -18.2488 C   0  0  0  0  0  0  0  0  0  0  0  0
   -9.8065    3.1644  -17.9952 F   0  0  0  0  0  0  0  0  0  0  0  0
   -8.1246    4.9272  -13.5854 C   0  0  0  0  0  0  0  0  0  0  0  0
   -8.1804    4.6575  -12.1112 C   0  0  0  0  0  0  0  0  0  0  0  0
   -8.3280    3.4265  -11.4792 C   0  0  0  0  0  0  0  0  0  0  0  0
   -8.2370    3.7083  -10.1522 N   0  0  0  0  0  0  0  0  0  0  0  0
   -8.2485    3.0097   -8.9716 C   0  0  0  0  0  0  0  0  0  0  0  0
   -8.0520    3.8143   -7.9155 C   0  0  0  0  0  0  0  0  0  0  0  0
   -7.8728    5.5161   -8.3760 S   0  0  0  0  0  0  0  0  0  0  0  0
   -8.0630    5.0532  -10.0395 C   0  0  0  0  0  0  0  0  0  0  0  0
   -8.0517    5.6845  -11.1834 N   0  0  0  0  0  0  0  0  0  0  0  0
  9 10  1  0  0  0
 10 11  1  0  0  0
 10  3  1  0  0  0
  3  4  2  0  0  0
  4  5  1  0  0  0
  5  1  1  0  0  0
  1 12  1  0  0  0
 12 13  1  0  0  0
 13 14  2  0  0  0
 14 15  1  0  0  0
 15 16  1  0  0  0
 16 17  2  0  0  0
 17 18  1  0  0  0
 18 19  1  0  0  0
 19 20  2  0  0  0
  5  6  2  0  0  0
  6  7  1  0  0  0
  7  8  2  0  0  0
  8  3  1  0  0  0
 20 13  1  0  0  0
 19 15  1  0  0  0
  1  2  1  0  0  0
M  END
> <minimizedAffinity>
-5.90689

> <minimizedRMSD>
0.52391

$$$$
P58743


 22 24  0  0  0  0  0  0  0  0999 V2000
   -6.6598    4.6272  -15.8463 C   0  0  0  0  0  0  0  0  0  0  0  0
   -5.8368    4.9033  -16.9339 C   0  0  0  0  0  0  0  0  0  0  0  0
   -4.4862    4.9917  -16.8599 N   0  0  0  0  0  0  0  0  0  0  0  0
   -3.9447    4.7766  -15.6471 C   0  0  0  0  0  0  0  0  0  0  0  0
   -4.6835    4.4639  -14.5163 C   0  0  0  0  0  0  0  0  0  0  0  0
   -6.0699    4.3481  -14.6185 C   0  0  0  0  0  0  0  0  0  0  0  0
   -8.1217    4.6154  -15.9781 C   0  0  0  0  0  0  0  0  0  0  0  0
   -8.9314    4.1329  -15.2211 O   0  0  0  0  0  0  0  0  0  0  0  0
   -8.4465    5.3237  -17.0533 O   0  0  0  0  0  0  0  0  0  0  0  0
   -8.9460    4.0564  -18.8804 C   0  0  0  0  0  0  0  0  0  0  0  0
   -9.5778    4.8402  -17.7756 C   0  0  0  0  0  0  0  0  0  0  0  0
   -6.8095    3.9952  -13.4770 N   0  0  0  0  0  0  0  0  0  0  0  0
   -7.1908    3.0972  -13.3445 H   0  0  0  0  0  0  0  0  0  0  0  0
   -6.9663    5.0829  -12.4946 C   0  0  0  0  0  0  0  0  0  0  0  0
   -7.5849    4.6226  -11.2091 C   0  0  0  0  0  0  0  0  0  0  0  0
   -8.2655    3.4299  -10.9862 C   0  0  0  0  0  0  0  0  0  0  0  0
   -8.5007    3.4102   -9.6505 N   0  0  0  0  0  0  0  0  0  0  0  0
   -9.0518    2.5440   -8.7406 C   0  0  0  0  0  0  0  0  0  0  0  0
   -8.9628    3.0183   -7.4884 C   0  0  0  0  0  0  0  0  0  0  0  0
   -8.1904    4.6125   -7.4130 S   0  0  0  0  0  0  0  0  0  0  0  0
   -7.9994    4.5679   -9.1397 C   0  0  0  0  0  0  0  0  0  0  0  0
   -7.4597    5.3554  -10.0335 N   0  0  0  0  0  0  0  0  0  0  0  0
 10 11  1  0  0  0
 11  9  1  0  0  0
  9  7  1  0  0  0
  7  8  2  0  0  0
  7  1  1  0  0  0
  1  2  2  0  0  0
  2  3  1  0  0  0
  3  4  2  0  0  0
  4  5  1  0  0  0
  5  6  2  0  0  0
  6 12  1  0  0  0
 12 14  1  0  0  0
 14 15  1  0  0  0
 15 16  2  0  0  0
 16 17  1  0  0  0
 17 18  1  0  0  0
 18 19  2  0  0  0
 19 20  1  0  0  0
 20 21  1  0  0  0
 21 22  2  0  0  0
  6  1  1  0  0  0
 22 15  1  0  0  0
 21 17  1  0  0  0
 12 13  1  0  0  0
M  END
> <minimizedAffinity>
-4.89116

> <minimizedRMSD>
1.22544

$$$$
P58870


 13 13  0  0  0  0  0  0  0  0999 V2000
   -7.3650    4.9438  -17.6239 C   0  0  0  0  0  0  0  0  0  0  0  0
   -6.2933    4.7734  -16.5449 C   0  0  0  0  0  0  0  0  0  0  0  0
   -5.0130    5.4884  -16.9461 C   0  0  0  0  0  0  0  0  0  0  0  0
   -4.5323    5.0125  -18.3119 C   0  0  0  0  0  0  0  0  0  0  0  0
   -5.5490    5.1994  -19.3457 N   0  0  0  0  0  0  0  0  0  0  0  0
   -6.8030    4.5198  -18.9938 C   0  0  0  0  0  0  0  0  0  0  0  0
   -5.2011    4.8190  -20.2259 H   0  0  0  0  0  0  0  0  0  0  0  0
   -8.6750    4.2035  -17.2798 C   0  0  0  0  0  0  0  0  0  0  0  0
   -8.9460    4.1295  -15.8211 N   0  0  0  0  0  0  0  0  0  0  0  0
   -9.1074    5.0686  -15.4571 H   0  0  0  0  0  0  0  0  0  0  0  0
   -8.1441    3.7143  -15.3469 H   0  0  0  0  0  0  0  0  0  0  0  0
  -10.8781    5.0495  -18.4545 N   0  0  0  0  0  0  0  0  0  0  0  0
   -9.8555    4.7402  -17.9994 C   0  0  0  0  0  0  0  0  0  0  0  0
 12 13  3  0  0  0
 13  8  1  0  0  0
  8  9  1  0  0  0
  8  1  1  0  0  0
  1  2  1  0  0  0
  2  3  1  0  0  0
  3  4  1  0  0  0
  4  5  1  0  0  0
  5  6  1  0  0  0
  6  1  1  0  0  0
  9 10  1  0  0  0
  9 11  1  0  0  0
  5  7  1  0  0  0
M  END
> <minimizedAffinity>
-4.90073

> <minimizedRMSD>
2.28724

$$$$
P59099


 29 32  0  0  0  0  0  0  0  0999 V2000
   -7.4151    3.9010  -12.9075 C   0  0  0  0  0  0  0  0  0  0  0  0
   -6.2551    3.9505  -12.7440 O   0  0  0  0  0  0  0  0  0  0  0  0
   -8.2715    4.1635  -14.1957 N   0  0  0  0  0  0  0  0  0  0  0  0
   -9.2457    4.1323  -14.0570 H   0  0  0  0  0  0  0  0  0  0  0  0
   -7.8780    4.4322  -15.4981 C   0  0  0  0  0  0  0  0  0  0  0  0
   -8.7836    4.3037  -16.5772 C   0  0  0  0  0  0  0  0  0  0  0  0
   -8.3384    4.4414  -17.9045 C   0  0  0  0  0  0  0  0  0  0  0  0
   -6.9949    4.6816  -18.0866 C   0  0  0  0  0  0  0  0  0  0  0  0
   -6.2317    4.7936  -19.2451 N   0  0  0  0  0  0  0  0  0  0  0  0
   -4.8823    4.9456  -18.8930 C   0  0  0  0  0  0  0  0  0  0  0  0
   -3.9059    5.0086  -19.6230 O   0  0  0  0  0  0  0  0  0  0  0  0
   -4.8401    4.9988  -17.4969 N   0  0  0  0  0  0  0  0  0  0  0  0
   -6.1267    4.8219  -17.0132 C   0  0  0  0  0  0  0  0  0  0  0  0
   -6.5358    4.7342  -15.7150 C   0  0  0  0  0  0  0  0  0  0  0  0
   -6.5827    4.7699  -20.1646 H   0  0  0  0  0  0  0  0  0  0  0  0
   -4.0334    5.1382  -16.9500 H   0  0  0  0  0  0  0  0  0  0  0  0
   -8.4178    3.4416  -11.8519 C   0  0  0  0  0  0  0  0  0  0  0  0
   -9.5788    3.2456   -4.7866 N   0  0  0  0  0  0  0  0  0  0  0  0
   -9.2188    3.4679   -6.0603 C   0  0  0  0  0  0  0  0  0  0  0  0
   -9.3852    2.5370   -7.1034 C   0  0  0  0  0  0  0  0  0  0  0  0
   -8.8475    3.1569   -8.2081 C   0  0  0  0  0  0  0  0  0  0  0  0
   -8.4075    4.3629   -7.7718 N   0  0  0  0  0  0  0  0  0  0  0  0
   -8.6433    4.5989   -6.4695 N   0  0  0  0  0  0  0  0  0  0  0  0
   -7.7268    5.3200   -8.6115 C   0  0  0  0  0  0  0  0  0  0  0  0
   -8.1001    5.0835  -10.0738 C   0  0  0  0  0  0  0  0  0  0  0  0
   -7.9628    3.6777  -10.4726 N   0  0  0  0  0  0  0  0  0  0  0  0
   -8.6977    2.7331   -9.6088 C   0  0  0  0  0  0  0  0  0  0  0  0
  -10.0010    2.3922   -4.5361 H   0  0  0  0  0  0  0  0  0  0  0  0
   -9.4206    3.9359   -4.1027 H   0  0  0  0  0  0  0  0  0  0  0  0
 18 19  1  0  0  0
 19 20  1  0  0  0
 20 21  2  0  0  0
 21 22  1  0  0  0
 22 23  1  0  0  0
 22 24  1  0  0  0
 24 25  1  0  0  0
 25 26  1  0  0  0
 26 17  1  0  0  0
 17  1  1  0  0  0
  1  2  2  0  0  0
  1  3  1  0  0  0
  3  5  1  0  0  0
  5  6  2  0  0  0
  6  7  1  0  0  0
  7  8  2  0  0  0
  8  9  1  0  0  0
  9 10  1  0  0  0
 10 11  2  0  0  0
 10 12  1  0  0  0
 12 13  1  0  0  0
 13 14  2  0  0  0
 26 27  1  0  0  0
 23 19  2  0  0  0
 14  5  1  0  0  0
 27 21  1  0  0  0
 13  8  1  0  0  0
 18 28  1  0  0  0
 18 29  1  0  0  0
  3  4  1  0  0  0
  9 15  1  0  0  0
 12 16  1  0  0  0
M  END
> <minimizedAffinity>
-8.53398

> <minimizedRMSD>
0.51251

$$$$
P59196


 26 29  0  0  0  0  0  0  0  0999 V2000
   -9.7728    6.1130  -14.0418 O   0  0  0  0  0  0  0  0  0  0  0  0
   -8.6999    5.7084  -13.8258 C   0  0  0  0  0  0  0  0  0  0  0  0
   -7.8212    5.8271  -12.5606 N   0  0  0  0  0  0  0  0  0  0  0  0
   -6.9733    5.3283  -12.5992 H   0  0  0  0  0  0  0  0  0  0  0  0
   -8.0168    5.0464  -15.0102 C   0  0  0  0  0  0  0  0  0  0  0  0
   -8.7817    4.6903  -16.1490 C   0  0  0  0  0  0  0  0  0  0  0  0
   -8.2187    4.5136  -17.4324 C   0  0  0  0  0  0  0  0  0  0  0  0
   -6.8393    4.6855  -17.5559 C   0  0  0  0  0  0  0  0  0  0  0  0
   -6.0017    4.6465  -18.6396 N   0  0  0  0  0  0  0  0  0  0  0  0
   -4.8188    4.9241  -18.1309 C   0  0  0  0  0  0  0  0  0  0  0  0
   -3.3822    5.0876  -19.0792 S   0  0  0  0  0  0  0  0  0  0  0  0
   -4.8073    5.1186  -16.7791 O   0  0  0  0  0  0  0  0  0  0  0  0
   -6.1098    4.9746  -16.4176 C   0  0  0  0  0  0  0  0  0  0  0  0
   -6.6266    5.1582  -15.1375 C   0  0  0  0  0  0  0  0  0  0  0  0
   -3.6708    4.8420  -20.3854 H   0  0  0  0  0  0  0  0  0  0  0  0
   -8.0408    6.5484  -11.3346 C   0  0  0  0  0  0  0  0  0  0  0  0
   -8.2349    5.8457  -10.0461 C   0  0  0  0  0  0  0  0  0  0  0  0
   -8.2999    6.5745   -8.8197 C   0  0  0  0  0  0  0  0  0  0  0  0
   -8.5226    5.8130   -7.7515 N   0  0  0  0  0  0  0  0  0  0  0  0
   -8.6580    4.5900   -8.2856 N   0  0  0  0  0  0  0  0  0  0  0  0
   -8.4254    4.5371   -9.6406 C   0  0  0  0  0  0  0  0  0  0  0  0
   -8.4902    3.2346  -10.3445 C   0  0  0  0  0  0  0  0  0  0  0  0
   -8.3309    2.1286   -9.4077 N   0  0  0  0  0  0  0  0  0  0  0  0
   -9.2819    2.2371   -8.2937 C   0  0  0  0  0  0  0  0  0  0  0  0
   -8.9955    3.4616   -7.4378 C   0  0  0  0  0  0  0  0  0  0  0  0
   -7.3808    2.1406   -9.0368 H   0  0  0  0  0  0  0  0  0  0  0  0
  1  2  2  0  0  0
  2  3  1  0  0  0
  3 16  1  0  0  0
 16 17  1  0  0  0
 17 18  1  0  0  0
 18 19  2  0  0  0
 19 20  1  0  0  0
 20 21  1  0  0  0
 21 22  1  0  0  0
 22 23  1  0  0  0
 23 24  1  0  0  0
 24 25  1  0  0  0
  2  5  1  0  0  0
  5  6  2  0  0  0
  6  7  1  0  0  0
  7  8  2  0  0  0
  8  9  1  0  0  0
  9 10  2  0  0  0
 10 11  1  0  0  0
 10 12  1  0  0  0
 12 13  1  0  0  0
 13 14  2  0  0  0
 21 17  2  0  0  0
 14  5  1  0  0  0
 25 20  1  0  0  0
 13  8  1  0  0  0
  3  4  1  0  0  0
 23 26  1  0  0  0
 11 15  1  0  0  0
M  END
> <minimizedAffinity>
-7.77672

> <minimizedRMSD>
0.31222

$$$$
P59217


 13 13  0  0  0  0  0  0  0  0999 V2000
   -4.3871    6.3321  -17.7432 O   0  0  0  0  0  0  0  0  0  0  0  0
   -4.6457    5.7225  -18.7064 C   0  0  0  0  0  0  0  0  0  0  0  0
   -5.9258    4.9224  -19.0787 N   0  0  0  0  0  0  0  0  0  0  0  0
   -5.9311    4.5543  -19.9918 H   0  0  0  0  0  0  0  0  0  0  0  0
   -7.0637    4.6425  -18.3316 C   0  0  0  0  0  0  0  0  0  0  0  0
   -8.2752    4.3339  -18.9170 C   0  0  0  0  0  0  0  0  0  0  0  0
   -9.3813    4.0009  -18.2178 N   0  0  0  0  0  0  0  0  0  0  0  0
   -9.2414    4.0107  -16.8816 C   0  0  0  0  0  0  0  0  0  0  0  0
   -8.1316    4.3322  -16.1972 N   0  0  0  0  0  0  0  0  0  0  0  0
   -7.0536    4.6227  -16.9512 C   0  0  0  0  0  0  0  0  0  0  0  0
   -3.6540    5.5629  -19.8367 C   0  0  0  0  0  0  0  0  0  0  0  0
   -3.4946    6.8667  -20.5842 C   0  0  0  0  0  0  0  0  0  0  0  0
   -2.0924    6.7730  -21.6794 Cl  0  0  0  0  0  0  0  0  0  0  0  0
  1  2  2  0  0  0
  2 11  1  0  0  0
 11 12  1  0  0  0
 12 13  1  0  0  0
  2  3  1  0  0  0
  3  5  1  0  0  0
  5  6  2  0  0  0
  6  7  1  0  0  0
  7  8  2  0  0  0
  8  9  1  0  0  0
  9 10  2  0  0  0
 10  5  1  0  0  0
  3  4  1  0  0  0
M  END
> <minimizedAffinity>
-3.78696

> <minimizedRMSD>
0.74667

$$$$
P59219


 15 15  0  0  0  0  0  0  0  0999 V2000
   -8.9253    4.5460  -14.6815 N   0  0  0  0  0  0  0  0  0  0  0  0
   -9.8411    4.5035  -14.3225 H   0  0  0  0  0  0  0  0  0  0  0  0
   -8.6144    4.5254  -16.0339 C   0  0  0  0  0  0  0  0  0  0  0  0
   -9.6330    4.2942  -16.8696 N   0  0  0  0  0  0  0  0  0  0  0  0
   -9.3280    4.2713  -18.1791 C   0  0  0  0  0  0  0  0  0  0  0  0
   -8.0542    4.4183  -18.6661 C   0  0  0  0  0  0  0  0  0  0  0  0
   -7.0912    4.6625  -17.7281 C   0  0  0  0  0  0  0  0  0  0  0  0
   -7.3456    4.7375  -16.4145 N   0  0  0  0  0  0  0  0  0  0  0  0
   -7.7254    4.6384  -13.8599 C   0  0  0  0  0  0  0  0  0  0  0  0
   -8.1409    5.0398  -12.4546 C   0  0  0  0  0  0  0  0  0  0  0  0
   -7.4924    4.2426  -11.4683 O   0  0  0  0  0  0  0  0  0  0  0  0
   -8.3837    3.2117  -11.0146 C   0  0  0  0  0  0  0  0  0  0  0  0
   -8.6044    4.3214   -8.9768 F   0  0  0  0  0  0  0  0  0  0  0  0
   -8.3969    3.0818   -9.5069 C   0  0  0  0  0  0  0  0  0  0  0  0
   -9.4620    2.3334   -9.1200 F   0  0  0  0  0  0  0  0  0  0  0  0
 13 14  1  0  0  0
 14 15  1  0  0  0
 14 12  1  0  0  0
 12 11  1  0  0  0
 11 10  1  0  0  0
 10  9  1  0  0  0
  9  1  1  0  0  0
  1  3  1  0  0  0
  3  4  2  0  0  0
  4  5  1  0  0  0
  5  6  2  0  0  0
  6  7  1  0  0  0
  7  8  2  0  0  0
  8  3  1  0  0  0
  1  2  1  0  0  0
M  END
> <minimizedAffinity>
-4.90725

> <minimizedRMSD>
0.80319

$$$$
P59226


 15 15  0  0  0  0  0  0  0  0999 V2000
   -8.4646    4.7418  -13.4339 N   0  0  0  0  0  0  0  0  0  0  0  0
   -9.2584    5.2163  -13.7716 H   0  0  0  0  0  0  0  0  0  0  0  0
   -8.2885    4.5100  -12.0674 C   0  0  0  0  0  0  0  0  0  0  0  0
   -8.2523    3.2242  -11.5628 C   0  0  0  0  0  0  0  0  0  0  0  0
   -8.0968    3.0918  -10.2010 C   0  0  0  0  0  0  0  0  0  0  0  0
   -7.9667    4.1391   -9.3698 N   0  0  0  0  0  0  0  0  0  0  0  0
   -7.9998    5.3397   -9.9629 C   0  0  0  0  0  0  0  0  0  0  0  0
   -8.1449    5.5805  -11.2735 N   0  0  0  0  0  0  0  0  0  0  0  0
   -7.4136    4.2479  -14.3596 C   0  0  0  0  0  0  0  0  0  0  0  0
   -7.9580    4.4502  -15.7935 C   0  0  0  0  0  0  0  0  0  0  0  0
   -7.3620    4.5998  -18.2573 C   0  0  0  0  0  0  0  0  0  0  0  0
   -6.8899    4.8052  -16.8279 C   0  0  0  0  0  0  0  0  0  0  0  0
   -5.9766    4.7838  -14.1323 C   0  0  0  0  0  0  0  0  0  0  0  0
   -5.9270    6.1833  -13.8645 O   0  0  0  0  0  0  0  0  0  0  0  0
   -5.0040    6.4787  -12.8247 C   0  0  0  0  0  0  0  0  0  0  0  0
 11 12  1  0  0  0
 12 10  1  0  0  0
  9 10  1  0  0  0
  9 13  1  0  0  0
 13 14  1  0  0  0
 14 15  1  0  0  0
  9  1  1  0  0  0
  1  3  1  0  0  0
  3  4  2  0  0  0
  4  5  1  0  0  0
  5  6  2  0  0  0
  6  7  1  0  0  0
  7  8  2  0  0  0
  8  3  1  0  0  0
  1  2  1  0  0  0
M  END
> <minimizedAffinity>
-3.76121

> <minimizedRMSD>
0.35713

$$$$
P59246


 16 17  0  0  0  0  0  0  0  0999 V2000
   -8.3022    3.9263  -11.8061 C   0  0  0  0  0  0  0  0  0  0  0  0
   -8.0044    5.1397  -11.1663 C   0  0  0  0  0  0  0  0  0  0  0  0
   -8.0624    5.2512   -9.7682 C   0  0  0  0  0  0  0  0  0  0  0  0
   -8.4463    4.1440   -9.0348 C   0  0  0  0  0  0  0  0  0  0  0  0
   -8.7418    2.9424   -9.6625 C   0  0  0  0  0  0  0  0  0  0  0  0
   -8.6482    2.8123  -11.0339 C   0  0  0  0  0  0  0  0  0  0  0  0
   -9.1276    1.9269   -8.6402 C   0  0  0  0  0  0  0  0  0  0  0  0
   -9.3987    2.7170   -7.4089 N   0  0  0  0  0  0  0  0  0  0  0  0
   -8.6257    3.9689   -7.5642 C   0  0  0  0  0  0  0  0  0  0  0  0
   -9.0881    2.2065   -6.5823 H   0  0  0  0  0  0  0  0  0  0  0  0
   -8.2046    3.6851  -13.2121 N   0  0  0  0  0  0  0  0  0  0  0  0
   -7.9582    2.7738  -13.4913 H   0  0  0  0  0  0  0  0  0  0  0  0
   -6.9295    5.6892  -14.5123 C   0  0  0  0  0  0  0  0  0  0  0  0
   -8.4666    4.7932  -14.4175 S   0  0  0  0  0  0  0  0  0  0  0  0
   -8.6013    4.0476  -15.6495 O   0  0  0  0  0  0  0  0  0  0  0  0
   -9.5412    5.6779  -14.0306 O   0  0  0  0  0  0  0  0  0  0  0  0
 13 14  1  0  0  0
 14 15  2  0  0  0
 14 16  2  0  0  0
 14 11  1  0  0  0
 11  1  1  0  0  0
  1  2  2  0  0  0
  2  3  1  0  0  0
  3  4  2  0  0  0
  4  5  1  0  0  0
  5  6  2  0  0  0
  5  7  1  0  0  0
  7  8  1  0  0  0
  8  9  1  0  0  0
  6  1  1  0  0  0
  9  4  1  0  0  0
 11 12  1  0  0  0
  8 10  1  0  0  0
M  END
> <minimizedAffinity>
-5.77662

> <minimizedRMSD>
0.38964

$$$$
P59274


 11 12  0  0  0  0  0  0  0  0999 V2000
   -6.3166    4.0903  -13.2393 C   0  0  0  0  0  0  0  0  0  0  0  0
   -6.7388    3.9570  -14.5533 C   0  0  0  0  0  0  0  0  0  0  0  0
   -7.9275    4.5753  -14.9461 C   0  0  0  0  0  0  0  0  0  0  0  0
   -8.6373    5.3099  -13.9934 C   0  0  0  0  0  0  0  0  0  0  0  0
   -8.1386    5.3834  -12.7021 C   0  0  0  0  0  0  0  0  0  0  0  0
   -6.9916    4.7963  -12.3038 N   0  0  0  0  0  0  0  0  0  0  0  0
   -8.3959    4.5166  -16.3269 C   0  0  0  0  0  0  0  0  0  0  0  0
   -7.6924    4.4109  -17.4395 N   0  0  0  0  0  0  0  0  0  0  0  0
   -8.6475    4.3082  -18.4234 C   0  0  0  0  0  0  0  0  0  0  0  0
   -9.8981    4.4295  -17.8771 C   0  0  0  0  0  0  0  0  0  0  0  0
   -9.7501    4.5791  -16.5316 O   0  0  0  0  0  0  0  0  0  0  0  0
  1  2  2  0  0  0
  2  3  1  0  0  0
  3  7  1  0  0  0
  7  8  2  0  0  0
  8  9  1  0  0  0
  9 10  2  0  0  0
 10 11  1  0  0  0
  3  4  2  0  0  0
  4  5  1  0  0  0
  5  6  2  0  0  0
  6  1  1  0  0  0
 11  7  1  0  0  0
M  END
> <minimizedAffinity>
-4.44260

> <minimizedRMSD>
2.34973

$$$$
P59313


 11 11  0  0  0  0  0  0  0  0999 V2000
   -4.8896    5.2640  -18.7764 C   0  0  0  0  0  0  0  0  0  0  0  0
   -4.1994    5.4550  -17.8532 O   0  0  0  0  0  0  0  0  0  0  0  0
   -6.4128    4.9718  -18.8508 N   0  0  0  0  0  0  0  0  0  0  0  0
   -6.7791    4.9225  -19.7633 H   0  0  0  0  0  0  0  0  0  0  0  0
   -7.3292    4.7714  -17.8533 C   0  0  0  0  0  0  0  0  0  0  0  0
   -8.6275    4.2101  -18.0968 C   0  0  0  0  0  0  0  0  0  0  0  0
   -9.3858    3.9873  -17.0237 N   0  0  0  0  0  0  0  0  0  0  0  0
   -8.4455    4.5127  -15.7412 S   0  0  0  0  0  0  0  0  0  0  0  0
   -7.0948    5.0516  -16.5696 N   0  0  0  0  0  0  0  0  0  0  0  0
   -4.5083    6.4885  -20.9405 C   0  0  0  0  0  0  0  0  0  0  0  0
   -4.3489    5.1816  -20.1981 C   0  0  0  0  0  0  0  0  0  0  0  0
 10 11  1  0  0  0
 11  1  1  0  0  0
  1  2  2  0  0  0
  1  3  1  0  0  0
  3  5  1  0  0  0
  5  6  1  0  0  0
  6  7  2  0  0  0
  7  8  1  0  0  0
  8  9  1  0  0  0
  9  5  2  0  0  0
  3  4  1  0  0  0
M  END
> <minimizedAffinity>
-4.25608

> <minimizedRMSD>
0.44510

$$$$
P59509


 17 17  0  0  0  0  0  0  0  0999 V2000
   -7.8326    4.9408  -11.8915 C   0  0  0  0  0  0  0  0  0  0  0  0
   -8.3820    6.2186  -11.4100 N   0  0  0  0  0  0  0  0  0  0  0  0
   -9.3888    6.2384  -11.5721 H   0  0  0  0  0  0  0  0  0  0  0  0
   -7.9414    6.9891  -11.9127 H   0  0  0  0  0  0  0  0  0  0  0  0
   -8.3640    3.7116  -11.1161 C   0  0  0  0  0  0  0  0  0  0  0  0
   -6.9056    4.1111   -9.0741 C   0  0  0  0  0  0  0  0  0  0  0  0
   -7.9929    3.5675   -9.6473 C   0  0  0  0  0  0  0  0  0  0  0  0
   -8.9484    2.6714   -8.8834 C   0  0  0  0  0  0  0  0  0  0  0  0
   -9.1558    2.9696   -7.4049 C   0  0  0  0  0  0  0  0  0  0  0  0
   -8.1609    4.8643  -13.3875 C   0  0  0  0  0  0  0  0  0  0  0  0
   -7.1437    4.0343  -14.1664 C   0  0  0  0  0  0  0  0  0  0  0  0
   -7.3138    4.2545  -15.6380 C   0  0  0  0  0  0  0  0  0  0  0  0
   -8.5778    4.1891  -16.2250 C   0  0  0  0  0  0  0  0  0  0  0  0
   -8.7076    4.4016  -17.5887 C   0  0  0  0  0  0  0  0  0  0  0  0
   -7.5666    4.6771  -18.3224 C   0  0  0  0  0  0  0  0  0  0  0  0
   -6.3231    4.7575  -17.7914 N   0  0  0  0  0  0  0  0  0  0  0  0
   -6.2298    4.5457  -16.4601 C   0  0  0  0  0  0  0  0  0  0  0  0
  6  7  2  0  0  0
  7  8  1  0  0  0
  8  9  1  0  0  0
  7  5  1  0  0  0
  5  1  1  0  0  0
  1  2  1  0  0  0
  1 10  1  0  0  0
 10 11  1  0  0  0
 11 12  1  0  0  0
 12 13  2  0  0  0
 13 14  1  0  0  0
 14 15  2  0  0  0
 15 16  1  0  0  0
 16 17  2  0  0  0
 17 12  1  0  0  0
  2  3  1  0  0  0
  2  4  1  0  0  0
M  END
> <minimizedAffinity>
-4.62422

> <minimizedRMSD>
1.30672

$$$$
P59518


 16 16  0  0  0  0  0  0  0  0999 V2000
   -6.6861    5.7441  -14.4033 N   0  0  0  0  0  0  0  0  0  0  0  0
   -5.9465    6.8644  -14.9644 C   0  0  0  0  0  0  0  0  0  0  0  0
   -7.7834    6.1496  -13.5100 C   0  0  0  0  0  0  0  0  0  0  0  0
   -9.2054    6.2407  -14.0474 C   0  0  0  0  0  0  0  0  0  0  0  0
   -7.8818    5.2808  -12.2571 C   0  0  0  0  0  0  0  0  0  0  0  0
   -8.0519    3.8910  -12.3217 C   0  0  0  0  0  0  0  0  0  0  0  0
   -8.2969    3.1889  -11.1492 C   0  0  0  0  0  0  0  0  0  0  0  0
   -8.3717    3.7678   -9.9282 N   0  0  0  0  0  0  0  0  0  0  0  0
   -8.2041    5.1041   -9.8859 C   0  0  0  0  0  0  0  0  0  0  0  0
   -7.9585    5.8911  -10.9996 C   0  0  0  0  0  0  0  0  0  0  0  0
   -6.8730    4.6285  -15.3421 C   0  0  0  0  0  0  0  0  0  0  0  0
   -7.5617    4.9031  -16.7030 C   0  0  0  0  0  0  0  0  0  0  0  0
   -5.2293    4.9163  -17.8040 C   0  0  0  0  0  0  0  0  0  0  0  0
   -6.7079    4.6144  -17.9428 C   0  0  0  0  0  0  0  0  0  0  0  0
   -8.8622    4.0667  -16.7852 C   0  0  0  0  0  0  0  0  0  0  0  0
   -9.8269    4.4389  -17.8944 C   0  0  0  0  0  0  0  0  0  0  0  0
 13 14  1  0  0  0
 14 12  1  0  0  0
 12 15  1  0  0  0
 15 16  1  0  0  0
 12 11  1  0  0  0
 11  1  1  0  0  0
  1  2  1  0  0  0
  1  3  1  0  0  0
  3  4  1  0  0  0
  3  5  1  0  0  0
  5  6  2  0  0  0
  6  7  1  0  0  0
  7  8  2  0  0  0
  8  9  1  0  0  0
  9 10  2  0  0  0
 10  5  1  0  0  0
M  END
> <minimizedAffinity>
-4.78232

> <minimizedRMSD>
0.68564

$$$$
P59569


 16 17  0  0  0  0  0  0  0  0999 V2000
   -8.3038    5.2489  -14.0831 C   0  0  0  0  0  0  0  0  0  0  0  0
   -8.3153    6.6318  -13.5739 C   0  0  0  0  0  0  0  0  0  0  0  0
   -8.2502    6.8587  -12.2493 C   0  0  0  0  0  0  0  0  0  0  0  0
   -8.2016    5.7767  -11.3764 N   0  0  0  0  0  0  0  0  0  0  0  0
   -8.1405    5.7506  -10.0057 C   0  0  0  0  0  0  0  0  0  0  0  0
   -8.1293    4.4162   -9.6666 C   0  0  0  0  0  0  0  0  0  0  0  0
   -8.1758    3.6308  -10.7849 N   0  0  0  0  0  0  0  0  0  0  0  0
   -8.2126    4.4603  -11.8006 C   0  0  0  0  0  0  0  0  0  0  0  0
   -8.2561    4.2220  -13.1986 C   0  0  0  0  0  0  0  0  0  0  0  0
   -8.3696    5.0580  -15.5986 C   0  0  0  0  0  0  0  0  0  0  0  0
   -8.7865    3.7202  -15.9984 N   0  0  0  0  0  0  0  0  0  0  0  0
   -8.0712    3.0457  -15.7267 H   0  0  0  0  0  0  0  0  0  0  0  0
   -8.9137    3.6919  -17.0101 H   0  0  0  0  0  0  0  0  0  0  0  0
   -7.1531    5.0559  -17.8570 C   0  0  0  0  0  0  0  0  0  0  0  0
   -7.0616    5.4069  -16.3586 C   0  0  0  0  0  0  0  0  0  0  0  0
   -5.8127    4.7146  -15.7900 C   0  0  0  0  0  0  0  0  0  0  0  0
 14 15  1  0  0  0
 15 16  1  0  0  0
 15 10  1  0  0  0
 10 11  1  0  0  0
 10  1  1  0  0  0
  1  2  1  0  0  0
  2  3  2  0  0  0
  3  4  1  0  0  0
  4  5  1  0  0  0
  5  6  2  0  0  0
  6  7  1  0  0  0
  7  8  2  0  0  0
  8  9  1  0  0  0
  9  1  2  0  0  0
  8  4  1  0  0  0
 11 12  1  0  0  0
 11 13  1  0  0  0
M  END
> <minimizedAffinity>
-4.66953

> <minimizedRMSD>
1.52122

$$$$
P59698


 15 17  0  0  0  0  0  0  0  0999 V2000
   -9.3085    4.0099  -17.7776 C   0  0  0  0  0  0  0  0  0  0  0  0
   -8.5325    4.0475  -18.9132 C   0  0  0  0  0  0  0  0  0  0  0  0
   -7.2352    4.4116  -18.9122 N   0  0  0  0  0  0  0  0  0  0  0  0
   -6.6625    4.7569  -17.7512 C   0  0  0  0  0  0  0  0  0  0  0  0
   -5.3467    5.2290  -17.7844 C   0  0  0  0  0  0  0  0  0  0  0  0
   -4.7338    5.5486  -16.5517 C   0  0  0  0  0  0  0  0  0  0  0  0
   -5.4184    5.4506  -15.3384 C   0  0  0  0  0  0  0  0  0  0  0  0
   -6.7457    5.0501  -15.3297 C   0  0  0  0  0  0  0  0  0  0  0  0
   -7.3693    4.7110  -16.5337 C   0  0  0  0  0  0  0  0  0  0  0  0
   -8.7117    4.3402  -16.5717 C   0  0  0  0  0  0  0  0  0  0  0  0
   -4.6634    5.4489  -19.2033 C   0  0  0  0  0  0  0  0  0  0  0  0
   -3.2412    4.8736  -19.4085 C   0  0  0  0  0  0  0  0  0  0  0  0
   -2.9662    5.9925  -20.3488 N   0  0  0  0  0  0  0  0  0  0  0  0
   -3.9950    6.7756  -19.6096 C   0  0  0  0  0  0  0  0  0  0  0  0
   -3.1981    5.7971  -21.3227 H   0  0  0  0  0  0  0  0  0  0  0  0
  1  2  2  0  0  0
  2  3  1  0  0  0
  3  4  2  0  0  0
  4  5  1  0  0  0
  5 11  1  0  0  0
 11 12  1  0  0  0
 12 13  1  0  0  0
 13 14  1  0  0  0
  5  6  2  0  0  0
  6  7  1  0  0  0
  7  8  2  0  0  0
  8  9  1  0  0  0
  9 10  2  0  0  0
 10  1  1  0  0  0
  9  4  1  0  0  0
 14 11  1  0  0  0
 13 15  1  0  0  0
M  END
> <minimizedAffinity>
-6.56789

> <minimizedRMSD>
0.96343

$$$$
P59706


 15 17  0  0  0  0  0  0  0  0999 V2000
   -9.0783    4.3356  -17.4931 C   0  0  0  0  0  0  0  0  0  0  0  0
   -8.6728    4.4546  -16.1604 C   0  0  0  0  0  0  0  0  0  0  0  0
   -7.3375    4.7302  -15.7919 C   0  0  0  0  0  0  0  0  0  0  0  0
   -6.4571    4.9052  -16.8777 C   0  0  0  0  0  0  0  0  0  0  0  0
   -5.1163    5.2301  -16.8639 N   0  0  0  0  0  0  0  0  0  0  0  0
   -4.6133    5.2585  -18.1323 C   0  0  0  0  0  0  0  0  0  0  0  0
   -5.6484    4.9804  -18.9941 C   0  0  0  0  0  0  0  0  0  0  0  0
   -6.8211    4.7685  -18.2165 C   0  0  0  0  0  0  0  0  0  0  0  0
   -8.1576    4.4744  -18.5326 C   0  0  0  0  0  0  0  0  0  0  0  0
   -4.5939    5.4159  -16.0504 H   0  0  0  0  0  0  0  0  0  0  0  0
   -6.7826    4.9212  -14.3328 C   0  0  0  0  0  0  0  0  0  0  0  0
   -7.5515    4.3494  -13.1226 C   0  0  0  0  0  0  0  0  0  0  0  0
   -6.1610    4.0434  -12.5578 C   0  0  0  0  0  0  0  0  0  0  0  0
   -5.6833    3.9433  -13.9643 N   0  0  0  0  0  0  0  0  0  0  0  0
   -5.7791    3.0176  -14.3818 H   0  0  0  0  0  0  0  0  0  0  0  0
  1  2  2  0  0  0
  2  3  1  0  0  0
 11  3  1  0  0  0
 11 12  1  0  0  0
 12 13  1  0  0  0
 13 14  1  0  0  0
  3  4  2  0  0  0
  4  5  1  0  0  0
  5  6  1  0  0  0
  6  7  2  0  0  0
  7  8  1  0  0  0
  8  9  2  0  0  0
  9  1  1  0  0  0
 14 11  1  0  0  0
  8  4  1  0  0  0
 14 15  1  0  0  0
  5 10  1  0  0  0
M  END
> <minimizedAffinity>
-5.12005

> <minimizedRMSD>
1.83902

$$$$
P59743


 16 18  0  0  0  0  0  0  0  0999 V2000
   -4.8734    5.0635  -16.5889 C   0  0  0  0  0  0  0  0  0  0  0  0
   -5.3888    4.9005  -15.2792 C   0  0  0  0  0  0  0  0  0  0  0  0
   -6.7589    4.6747  -15.0172 C   0  0  0  0  0  0  0  0  0  0  0  0
   -7.4557    4.6167  -16.2457 C   0  0  0  0  0  0  0  0  0  0  0  0
   -8.8070    4.3711  -16.3360 C   0  0  0  0  0  0  0  0  0  0  0  0
   -9.3514    4.2859  -17.9650 S   0  0  0  0  0  0  0  0  0  0  0  0
   -7.7862    4.6367  -18.5784 C   0  0  0  0  0  0  0  0  0  0  0  0
   -6.8774    4.7757  -17.5600 C   0  0  0  0  0  0  0  0  0  0  0  0
   -5.5585    5.0243  -17.7655 N   0  0  0  0  0  0  0  0  0  0  0  0
   -7.3412    4.4662  -13.6315 C   0  0  0  0  0  0  0  0  0  0  0  0
   -6.9119    3.1126  -13.0525 C   0  0  0  0  0  0  0  0  0  0  0  0
   -7.5999    2.8395  -11.7117 C   0  0  0  0  0  0  0  0  0  0  0  0
   -8.2395    4.0686  -11.0791 C   0  0  0  0  0  0  0  0  0  0  0  0
   -7.3387    5.2138  -11.1698 N   0  0  0  0  0  0  0  0  0  0  0  0
   -7.0379    5.5655  -12.5739 C   0  0  0  0  0  0  0  0  0  0  0  0
   -6.4666    4.9866  -10.6922 H   0  0  0  0  0  0  0  0  0  0  0  0
  1  2  1  0  0  0
  2  3  2  0  0  0
 10  3  1  0  0  0
 10 11  1  0  0  0
 11 12  1  0  0  0
 12 13  1  0  0  0
 13 14  1  0  0  0
 14 15  1  0  0  0
  3  4  1  0  0  0
  4  5  2  0  0  0
  5  6  1  0  0  0
  6  7  1  0  0  0
  7  8  2  0  0  0
  8  9  1  0  0  0
  9  1  2  0  0  0
 15 10  1  0  0  0
  8  4  1  0  0  0
 14 16  1  0  0  0
M  END
> <minimizedAffinity>
-5.21382

> <minimizedRMSD>
0.96199

$$$$
P59775


 11 11  0  0  0  0  0  0  0  0999 V2000
   -4.8634    5.2610  -18.7535 C   0  0  0  0  0  0  0  0  0  0  0  0
   -4.1918    5.4475  -17.8159 O   0  0  0  0  0  0  0  0  0  0  0  0
   -6.3801    4.9503  -18.8582 N   0  0  0  0  0  0  0  0  0  0  0  0
   -6.7302    4.9093  -19.7774 H   0  0  0  0  0  0  0  0  0  0  0  0
   -7.2999    4.7264  -17.8907 C   0  0  0  0  0  0  0  0  0  0  0  0
   -7.2414    4.8893  -16.5305 C   0  0  0  0  0  0  0  0  0  0  0  0
   -8.4702    4.4586  -15.9541 C   0  0  0  0  0  0  0  0  0  0  0  0
   -9.4100    4.0265  -16.7920 N   0  0  0  0  0  0  0  0  0  0  0  0
   -8.8012    4.0745  -18.3377 S   0  0  0  0  0  0  0  0  0  0  0  0
   -4.5579    6.5635  -20.8639 C   0  0  0  0  0  0  0  0  0  0  0  0
   -4.2935    5.2510  -20.1630 C   0  0  0  0  0  0  0  0  0  0  0  0
 10 11  1  0  0  0
 11  1  1  0  0  0
  1  2  2  0  0  0
  1  3  1  0  0  0
  3  5  1  0  0  0
  5  6  2  0  0  0
  6  7  1  0  0  0
  7  8  2  0  0  0
  8  9  1  0  0  0
  9  5  1  0  0  0
  3  4  1  0  0  0
M  END
> <minimizedAffinity>
-4.61404

> <minimizedRMSD>
0.39948

$$$$
P59908


 13 14  0  0  0  0  0  0  0  0999 V2000
   -7.0375    4.6645  -16.9113 C   0  0  0  0  0  0  0  0  0  0  0  0
   -6.6927    4.6399  -18.2094 C   0  0  0  0  0  0  0  0  0  0  0  0
   -5.2580    4.7358  -18.6869 C   0  0  0  0  0  0  0  0  0  0  0  0
   -4.3968    5.3480  -17.6549 N   0  0  0  0  0  0  0  0  0  0  0  0
   -4.5655    4.6603  -16.3739 C   0  0  0  0  0  0  0  0  0  0  0  0
   -5.9982    4.7906  -15.8385 C   0  0  0  0  0  0  0  0  0  0  0  0
   -4.6505    6.3298  -17.5449 H   0  0  0  0  0  0  0  0  0  0  0  0
   -5.0461    5.4428  -20.0114 C   0  0  0  0  0  0  0  0  0  0  0  0
   -4.9481    4.7935  -21.2456 C   0  0  0  0  0  0  0  0  0  0  0  0
   -4.7878    5.5363  -22.4132 C   0  0  0  0  0  0  0  0  0  0  0  0
   -4.7546    6.9157  -22.3183 C   0  0  0  0  0  0  0  0  0  0  0  0
   -4.8486    7.5859  -21.1564 N   0  0  0  0  0  0  0  0  0  0  0  0
   -4.9751    6.8396  -20.0353 C   0  0  0  0  0  0  0  0  0  0  0  0
  1  2  2  0  0  0
  2  3  1  0  0  0
  3  8  1  0  0  0
  8  9  2  0  0  0
  9 10  1  0  0  0
 10 11  2  0  0  0
 11 12  1  0  0  0
 12 13  2  0  0  0
  3  4  1  0  0  0
  4  5  1  0  0  0
  5  6  1  0  0  0
  6  1  1  0  0  0
 13  8  1  0  0  0
  4  7  1  0  0  0
M  END
> <minimizedAffinity>
-4.33039

> <minimizedRMSD>
2.20450

$$$$
P59911


 11 12  0  0  0  0  0  0  0  0999 V2000
   -3.6871    5.0715  -21.4673 C   0  0  0  0  0  0  0  0  0  0  0  0
   -2.5240    4.8681  -20.7532 C   0  0  0  0  0  0  0  0  0  0  0  0
   -2.5014    4.6117  -19.4348 N   0  0  0  0  0  0  0  0  0  0  0  0
   -3.7001    4.5551  -18.8024 C   0  0  0  0  0  0  0  0  0  0  0  0
   -4.9512    4.7551  -19.3983 C   0  0  0  0  0  0  0  0  0  0  0  0
   -4.8967    5.0069  -20.7814 C   0  0  0  0  0  0  0  0  0  0  0  0
   -6.3305    4.7407  -18.6290 C   0  0  0  0  0  0  0  0  0  0  0  0
   -6.4120    4.7072  -17.1001 C   0  0  0  0  0  0  0  0  0  0  0  0
   -6.6180    6.2193  -17.1616 C   0  0  0  0  0  0  0  0  0  0  0  0
   -6.9118    6.1053  -18.6005 N   0  0  0  0  0  0  0  0  0  0  0  0
   -6.4125    6.7802  -19.1798 H   0  0  0  0  0  0  0  0  0  0  0  0
  1  2  2  0  0  0
  2  3  1  0  0  0
  3  4  2  0  0  0
  4  5  1  0  0  0
  7  5  1  0  0  0
  7  8  1  0  0  0
  8  9  1  0  0  0
  9 10  1  0  0  0
  5  6  2  0  0  0
  6  1  1  0  0  0
 10  7  1  0  0  0
 10 11  1  0  0  0
M  END
> <minimizedAffinity>
-3.99349

> <minimizedRMSD>
2.44866

$$$$
P59914


 13 14  0  0  0  0  0  0  0  0999 V2000
   -3.4217    4.4584  -15.5359 C   0  0  0  0  0  0  0  0  0  0  0  0
   -4.7365    4.2629  -15.6907 C   0  0  0  0  0  0  0  0  0  0  0  0
   -5.5408    5.0638  -16.6708 C   0  0  0  0  0  0  0  0  0  0  0  0
   -4.7104    6.0490  -17.5414 C   0  0  0  0  0  0  0  0  0  0  0  0
   -3.5026    6.5434  -16.8642 N   0  0  0  0  0  0  0  0  0  0  0  0
   -2.6622    5.5055  -16.2819 C   0  0  0  0  0  0  0  0  0  0  0  0
   -3.7931    7.1734  -16.1165 H   0  0  0  0  0  0  0  0  0  0  0  0
   -4.5411    5.6393  -18.9977 C   0  0  0  0  0  0  0  0  0  0  0  0
   -5.4350    4.7060  -19.5444 C   0  0  0  0  0  0  0  0  0  0  0  0
   -5.4324    4.4378  -20.9079 C   0  0  0  0  0  0  0  0  0  0  0  0
   -4.5179    5.1020  -21.7015 C   0  0  0  0  0  0  0  0  0  0  0  0
   -3.6249    5.9854  -21.2225 N   0  0  0  0  0  0  0  0  0  0  0  0
   -3.6469    6.2230  -19.8902 C   0  0  0  0  0  0  0  0  0  0  0  0
  1  2  2  0  0  0
  2  3  1  0  0  0
  3  4  1  0  0  0
  4  8  1  0  0  0
  8  9  2  0  0  0
  9 10  1  0  0  0
 10 11  2  0  0  0
 11 12  1  0  0  0
 12 13  2  0  0  0
  4  5  1  0  0  0
  5  6  1  0  0  0
  6  1  1  0  0  0
 13  8  1  0  0  0
  5  7  1  0  0  0
M  END
> <minimizedAffinity>
-3.45379

> <minimizedRMSD>
1.04947

$$$$
P59915


 13 15  0  0  0  0  0  0  0  0999 V2000
   -3.6435    4.5453  -18.3664 C   0  0  0  0  0  0  0  0  0  0  0  0
   -2.6235    5.3145  -17.6241 N   0  0  0  0  0  0  0  0  0  0  0  0
   -2.9285    5.1989  -16.1950 C   0  0  0  0  0  0  0  0  0  0  0  0
   -4.4172    5.0827  -16.1625 C   0  0  0  0  0  0  0  0  0  0  0  0
   -5.2931    6.0631  -16.8931 C   0  0  0  0  0  0  0  0  0  0  0  0
   -4.8845    4.7551  -17.5357 C   0  0  0  0  0  0  0  0  0  0  0  0
   -2.6532    6.2939  -17.9073 H   0  0  0  0  0  0  0  0  0  0  0  0
   -4.8880    5.2257  -21.9192 C   0  0  0  0  0  0  0  0  0  0  0  0
   -3.6831    5.5958  -22.4892 C   0  0  0  0  0  0  0  0  0  0  0  0
   -2.5220    5.6374  -21.8139 N   0  0  0  0  0  0  0  0  0  0  0  0
   -2.5729    5.2916  -20.5059 C   0  0  0  0  0  0  0  0  0  0  0  0
   -3.7347    4.9321  -19.8160 C   0  0  0  0  0  0  0  0  0  0  0  0
   -4.9118    4.8871  -20.5675 C   0  0  0  0  0  0  0  0  0  0  0  0
  8  9  2  0  0  0
  9 10  1  0  0  0
 10 11  2  0  0  0
 11 12  1  0  0  0
  1 12  1  0  0  0
  1  2  1  0  0  0
  2  3  1  0  0  0
  4  3  1  0  0  0
  4  5  1  0  0  0
  6  5  1  0  0  0
 12 13  2  0  0  0
 13  8  1  0  0  0
  6  1  1  0  0  0
  6  4  1  0  0  0
  2  7  1  0  0  0
M  END
> <minimizedAffinity>
-3.50681

> <minimizedRMSD>
0.42878

$$$$
P60073


 20 21  0  0  0  0  0  0  0  0999 V2000
   -8.1975    4.7248  -11.7076 S   0  0  0  0  0  0  0  0  0  0  0  0
   -8.2947    4.7818   -9.9597 C   0  0  0  0  0  0  0  0  0  0  0  0
   -8.1452    5.9204   -9.1381 C   0  0  0  0  0  0  0  0  0  0  0  0
   -8.3617    5.6600   -7.8415 N   0  0  0  0  0  0  0  0  0  0  0  0
   -8.6876    4.3525   -7.8479 N   0  0  0  0  0  0  0  0  0  0  0  0
   -8.6570    3.7760   -9.0894 C   0  0  0  0  0  0  0  0  0  0  0  0
   -9.0367    2.3524   -9.2623 C   0  0  0  0  0  0  0  0  0  0  0  0
   -8.9851    1.6137   -7.9998 N   0  0  0  0  0  0  0  0  0  0  0  0
   -9.6520    2.3094   -6.9079 C   0  0  0  0  0  0  0  0  0  0  0  0
   -8.9997    3.6553   -6.6133 C   0  0  0  0  0  0  0  0  0  0  0  0
   -8.0075    1.4713   -7.7459 H   0  0  0  0  0  0  0  0  0  0  0  0
   -7.1055    3.2786  -12.0408 C   0  0  0  0  0  0  0  0  0  0  0  0
   -6.8387    3.0665  -13.5694 C   0  0  0  0  0  0  0  0  0  0  0  0
   -5.8542    3.9928  -14.1682 N   0  0  0  0  0  0  0  0  0  0  0  0
   -6.2531    4.7273  -15.3728 C   0  0  0  0  0  0  0  0  0  0  0  0
   -7.7474    4.6908  -17.4057 C   0  0  0  0  0  0  0  0  0  0  0  0
   -7.6832    4.5531  -15.8847 C   0  0  0  0  0  0  0  0  0  0  0  0
   -4.4427    3.6670  -14.0320 C   0  0  0  0  0  0  0  0  0  0  0  0
   -4.1051    2.2596  -13.5368 C   0  0  0  0  0  0  0  0  0  0  0  0
   -2.6784    1.8987  -13.9297 C   0  0  0  0  0  0  0  0  0  0  0  0
 16 17  1  0  0  0
 17 15  1  0  0  0
 15 14  1  0  0  0
 14 18  1  0  0  0
 18 19  1  0  0  0
 19 20  1  0  0  0
 14 13  1  0  0  0
 13 12  1  0  0  0
 12  1  1  0  0  0
  1  2  1  0  0  0
  2  3  1  0  0  0
  3  4  2  0  0  0
  4  5  1  0  0  0
  5  6  1  0  0  0
  6  7  1  0  0  0
  7  8  1  0  0  0
  8  9  1  0  0  0
  9 10  1  0  0  0
  6  2  2  0  0  0
 10  5  1  0  0  0
  8 11  1  0  0  0
M  END
> <minimizedAffinity>
-5.25952

> <minimizedRMSD>
1.97107

$$$$
P60074


 18 19  0  0  0  0  0  0  0  0999 V2000
   -8.3291    4.5223  -10.3199 C   0  0  0  0  0  0  0  0  0  0  0  0
   -8.1321    5.7574   -9.6474 C   0  0  0  0  0  0  0  0  0  0  0  0
   -8.3356    5.6871   -8.3245 N   0  0  0  0  0  0  0  0  0  0  0  0
   -8.6580    4.3928   -8.1374 N   0  0  0  0  0  0  0  0  0  0  0  0
   -8.6789    3.6609   -9.2916 C   0  0  0  0  0  0  0  0  0  0  0  0
   -9.0624    2.2295   -9.2629 C   0  0  0  0  0  0  0  0  0  0  0  0
   -8.8903    1.6771   -7.9300 N   0  0  0  0  0  0  0  0  0  0  0  0
   -9.5544    2.4698   -6.9028 C   0  0  0  0  0  0  0  0  0  0  0  0
   -8.9246    3.8604   -6.8117 C   0  0  0  0  0  0  0  0  0  0  0  0
   -7.8931    1.6389   -7.7189 H   0  0  0  0  0  0  0  0  0  0  0  0
   -8.2602    4.2166  -11.7936 C   0  0  0  0  0  0  0  0  0  0  0  0
   -6.8921    4.3119  -12.3794 N   0  0  0  0  0  0  0  0  0  0  0  0
   -5.9805    3.4055  -11.6592 C   0  0  0  0  0  0  0  0  0  0  0  0
   -6.9248    3.9331  -13.8327 C   0  0  0  0  0  0  0  0  0  0  0  0
   -7.9944    4.7090  -14.6503 C   0  0  0  0  0  0  0  0  0  0  0  0
   -6.5656    4.7675  -18.3025 C   0  0  0  0  0  0  0  0  0  0  0  0
   -6.7103    4.7706  -16.8150 C   0  0  0  0  0  0  0  0  0  0  0  0
   -7.8709    4.5932  -16.1565 C   0  0  0  0  0  0  0  0  0  0  0  0
 16 17  1  0  0  0
 17 18  2  0  0  0
 18 15  1  0  0  0
 15 14  1  0  0  0
 14 12  1  0  0  0
 12 13  1  0  0  0
 12 11  1  0  0  0
 11  1  1  0  0  0
  1  2  1  0  0  0
  2  3  2  0  0  0
  3  4  1  0  0  0
  4  5  1  0  0  0
  5  6  1  0  0  0
  6  7  1  0  0  0
  7  8  1  0  0  0
  8  9  1  0  0  0
  5  1  2  0  0  0
  9  4  1  0  0  0
  7 10  1  0  0  0
M  END
> <minimizedAffinity>
-5.38938

> <minimizedRMSD>
1.64517

$$$$
P60080


 23 24  0  0  0  0  0  0  0  0999 V2000
   -3.5007    3.5608  -15.1135 N   0  0  0  0  0  0  0  0  0  0  0  0
   -4.5166    3.4693  -15.1117 H   0  0  0  0  0  0  0  0  0  0  0  0
   -3.0313    3.2777  -13.7459 C   0  0  0  0  0  0  0  0  0  0  0  0
   -2.5687    1.8112  -13.7983 C   0  0  0  0  0  0  0  0  0  0  0  0
   -4.0432    3.5363  -12.5283 C   0  0  0  0  0  0  0  0  0  0  0  0
   -4.0172    5.0291  -12.1464 C   0  0  0  0  0  0  0  0  0  0  0  0
   -3.5450    2.7488  -11.2886 C   0  0  0  0  0  0  0  0  0  0  0  0
   -8.5962    2.9078  -10.9142 C   0  0  0  0  0  0  0  0  0  0  0  0
   -7.6788    3.8964  -11.5870 C   0  0  0  0  0  0  0  0  0  0  0  0
   -8.2299    5.2881  -11.6959 C   0  0  0  0  0  0  0  0  0  0  0  0
   -6.5696    3.5292  -12.1871 C   0  0  0  0  0  0  0  0  0  0  0  0
   -5.4931    3.1220  -12.8152 C   0  0  0  0  0  0  0  0  0  0  0  0
   -3.1798    4.8736  -15.6888 C   0  0  0  0  0  0  0  0  0  0  0  0
   -3.9424    5.0835  -17.0395 C   0  0  0  0  0  0  0  0  0  0  0  0
   -5.3871    4.9342  -16.8592 N   0  0  0  0  0  0  0  0  0  0  0  0
   -6.0014    5.8927  -15.9357 C   0  0  0  0  0  0  0  0  0  0  0  0
   -7.2838    5.2612  -15.3919 C   0  0  0  0  0  0  0  0  0  0  0  0
   -8.0585    4.7224  -16.4906 N   0  0  0  0  0  0  0  0  0  0  0  0
   -9.3436    4.3894  -16.3272 N   0  0  0  0  0  0  0  0  0  0  0  0
   -9.7304    4.0455  -17.5599 C   0  0  0  0  0  0  0  0  0  0  0  0
   -8.6777    4.1286  -18.4933 C   0  0  0  0  0  0  0  0  0  0  0  0
   -7.5915    4.5626  -17.7659 C   0  0  0  0  0  0  0  0  0  0  0  0
   -6.1692    4.8633  -18.1043 C   0  0  0  0  0  0  0  0  0  0  0  0
  8  9  1  0  0  0
  9 10  1  0  0  0
  9 11  2  0  0  0
 11 12  2  0  0  0
 12  5  1  0  0  0
  5  6  1  0  0  0
  5  7  1  0  0  0
  5  3  1  0  0  0
  3  4  1  0  0  0
  3  1  1  0  0  0
  1 13  1  0  0  0
 13 14  1  0  0  0
 14 15  1  0  0  0
 15 16  1  0  0  0
 16 17  1  0  0  0
 17 18  1  0  0  0
 18 19  1  0  0  0
 19 20  2  0  0  0
 20 21  1  0  0  0
 21 22  2  0  0  0
 22 23  1  0  0  0
 23 15  1  0  0  0
 22 18  1  0  0  0
  1  2  1  0  0  0
M  END
> <minimizedAffinity>
-5.47536

> <minimizedRMSD>
0.64729

$$$$
P60086


 25 28  0  0  0  0  0  0  0  0999 V2000
   -6.8454    6.3537  -13.9955 O   0  0  0  0  0  0  0  0  0  0  0  0
   -7.3116    5.2911  -14.1487 C   0  0  0  0  0  0  0  0  0  0  0  0
   -7.8343    4.2605  -13.1078 N   0  0  0  0  0  0  0  0  0  0  0  0
   -8.1128    3.3959  -13.4876 H   0  0  0  0  0  0  0  0  0  0  0  0
   -7.9731    4.3624  -11.7197 C   0  0  0  0  0  0  0  0  0  0  0  0
   -7.6157    5.5317  -11.0513 C   0  0  0  0  0  0  0  0  0  0  0  0
   -7.7572    5.6304   -9.6644 C   0  0  0  0  0  0  0  0  0  0  0  0
   -8.2571    4.5561   -8.9215 C   0  0  0  0  0  0  0  0  0  0  0  0
   -8.6406    3.3803   -9.5842 C   0  0  0  0  0  0  0  0  0  0  0  0
   -8.4826    3.2885  -10.9839 C   0  0  0  0  0  0  0  0  0  0  0  0
   -9.1655    2.2069   -8.7886 C   0  0  0  0  0  0  0  0  0  0  0  0
   -9.7702    2.5890   -7.5038 N   0  0  0  0  0  0  0  0  0  0  0  0
   -8.8342    3.3883   -6.7241 C   0  0  0  0  0  0  0  0  0  0  0  0
   -8.4520    4.6913   -7.4313 C   0  0  0  0  0  0  0  0  0  0  0  0
  -10.0108    1.7469   -6.9810 H   0  0  0  0  0  0  0  0  0  0  0  0
   -7.5264    4.8237  -15.5497 C   0  0  0  0  0  0  0  0  0  0  0  0
   -8.8312    4.4803  -15.9207 C   0  0  0  0  0  0  0  0  0  0  0  0
   -9.1613    4.2717  -17.2546 C   0  0  0  0  0  0  0  0  0  0  0  0
   -8.1780    4.3912  -18.2230 C   0  0  0  0  0  0  0  0  0  0  0  0
   -6.8630    4.7024  -17.8527 C   0  0  0  0  0  0  0  0  0  0  0  0
   -5.8819    4.8196  -18.8374 C   0  0  0  0  0  0  0  0  0  0  0  0
   -4.5799    5.1131  -18.4736 C   0  0  0  0  0  0  0  0  0  0  0  0
   -4.2992    5.2846  -17.1364 C   0  0  0  0  0  0  0  0  0  0  0  0
   -5.2219    5.1919  -16.1595 N   0  0  0  0  0  0  0  0  0  0  0  0
   -6.5032    4.9154  -16.4978 C   0  0  0  0  0  0  0  0  0  0  0  0
  1  2  2  0  0  0
  2  3  1  0  0  0
  3  5  1  0  0  0
  5  6  2  0  0  0
  6  7  1  0  0  0
  7  8  2  0  0  0
  8  9  1  0  0  0
  9 10  2  0  0  0
  9 11  1  0  0  0
 11 12  1  0  0  0
 12 13  1  0  0  0
 13 14  1  0  0  0
  2 16  1  0  0  0
 16 17  2  0  0  0
 17 18  1  0  0  0
 18 19  2  0  0  0
 19 20  1  0  0  0
 20 21  2  0  0  0
 21 22  1  0  0  0
 22 23  2  0  0  0
 23 24  1  0  0  0
 24 25  2  0  0  0
 10  5  1  0  0  0
 25 16  1  0  0  0
 14  8  1  0  0  0
 25 20  1  0  0  0
  3  4  1  0  0  0
 12 15  1  0  0  0
M  END
> <minimizedAffinity>
-8.26548

> <minimizedRMSD>
0.33100

$$$$
P60256


 16 16  0  0  0  0  0  0  0  0999 V2000
   -6.9773    4.4948  -17.2117 C   0  0  0  0  0  0  0  0  0  0  0  0
   -5.8892    5.2980  -17.9172 C   0  0  0  0  0  0  0  0  0  0  0  0
   -5.2868    4.8848  -19.0220 N   0  0  0  0  0  0  0  0  0  0  0  0
   -4.2555    5.7345  -19.3609 C   0  0  0  0  0  0  0  0  0  0  0  0
   -4.0544    6.7887  -18.5021 C   0  0  0  0  0  0  0  0  0  0  0  0
   -5.2227    6.7459  -17.2512 S   0  0  0  0  0  0  0  0  0  0  0  0
   -6.9825    4.6597  -15.7695 N   0  0  0  0  0  0  0  0  0  0  0  0
   -8.1442    5.0322  -14.7966 C   0  0  0  0  0  0  0  0  0  0  0  0
   -9.2527    5.3374  -15.0205 O   0  0  0  0  0  0  0  0  0  0  0  0
   -6.1116    4.5127  -15.3346 H   0  0  0  0  0  0  0  0  0  0  0  0
   -7.5816    4.9265  -13.3469 C   0  0  0  0  0  0  0  0  0  0  0  0
   -8.4676    4.3713  -12.4800 F   0  0  0  0  0  0  0  0  0  0  0  0
   -7.2678    6.1574  -12.8536 F   0  0  0  0  0  0  0  0  0  0  0  0
   -6.4289    4.2023  -13.2746 F   0  0  0  0  0  0  0  0  0  0  0  0
   -9.0761    3.2178  -17.9147 C   0  0  0  0  0  0  0  0  0  0  0  0
   -8.2986    4.5227  -17.9506 C   0  0  0  0  0  0  0  0  0  0  0  0
 15 16  1  0  0  0
  1 16  1  0  0  0
  1  7  1  0  0  0
  7  8  1  0  0  0
  8  9  2  0  0  0
  8 11  1  0  0  0
 11 12  1  0  0  0
 11 13  1  0  0  0
 11 14  1  0  0  0
  1  2  1  0  0  0
  2  3  2  0  0  0
  3  4  1  0  0  0
  4  5  2  0  0  0
  5  6  1  0  0  0
  6  2  1  0  0  0
  7 10  1  0  0  0
M  END
> <minimizedAffinity>
-4.64939

> <minimizedRMSD>
0.97798

$$$$
P60317


 18 19  0  0  0  0  0  0  0  0999 V2000
   -6.1965    5.0013  -16.0003 C   0  0  0  0  0  0  0  0  0  0  0  0
   -6.5152    5.1229  -14.7027 N   0  0  0  0  0  0  0  0  0  0  0  0
   -7.8129    4.9684  -14.4074 C   0  0  0  0  0  0  0  0  0  0  0  0
   -8.8107    4.7556  -15.2734 N   0  0  0  0  0  0  0  0  0  0  0  0
   -8.4644    4.5863  -16.5551 C   0  0  0  0  0  0  0  0  0  0  0  0
   -9.4435    4.3295  -17.5096 C   0  0  0  0  0  0  0  0  0  0  0  0
   -9.1360    4.1694  -18.8631 C   0  0  0  0  0  0  0  0  0  0  0  0
   -7.8164    4.1875  -19.2724 C   0  0  0  0  0  0  0  0  0  0  0  0
   -6.8276    4.3993  -18.3264 C   0  0  0  0  0  0  0  0  0  0  0  0
   -7.1385    4.6725  -16.9821 C   0  0  0  0  0  0  0  0  0  0  0  0
   -4.8450    5.2741  -16.3052 N   0  0  0  0  0  0  0  0  0  0  0  0
   -4.1346    4.5926  -16.3082 H   0  0  0  0  0  0  0  0  0  0  0  0
   -4.6196    6.7028  -16.6197 C   0  0  0  0  0  0  0  0  0  0  0  0
   -4.0333    7.0065  -18.0178 C   0  0  0  0  0  0  0  0  0  0  0  0
   -2.0358    3.9854  -19.5230 C   0  0  0  0  0  0  0  0  0  0  0  0
   -2.3299    5.2516  -18.7748 C   0  0  0  0  0  0  0  0  0  0  0  0
   -1.1858    5.7789  -17.9693 C   0  0  0  0  0  0  0  0  0  0  0  0
   -3.5305    5.8500  -18.8516 C   0  0  0  0  0  0  0  0  0  0  0  0
 15 16  1  0  0  0
 16 17  1  0  0  0
 16 18  2  0  0  0
 18 14  1  0  0  0
 14 13  1  0  0  0
 13 11  1  0  0  0
 11  1  1  0  0  0
  1  2  2  0  0  0
  2  3  1  0  0  0
  3  4  2  0  0  0
  4  5  1  0  0  0
  5  6  2  0  0  0
  6  7  1  0  0  0
  7  8  2  0  0  0
  8  9  1  0  0  0
  9 10  2  0  0  0
 10  1  1  0  0  0
 10  5  1  0  0  0
 11 12  1  0  0  0
M  END
> <minimizedAffinity>
-5.56773

> <minimizedRMSD>
0.63588

$$$$
P60321


 19 20  0  0  0  0  0  0  0  0999 V2000
   -5.6705    4.9885  -16.7503 C   0  0  0  0  0  0  0  0  0  0  0  0
   -5.3937    5.0755  -15.4408 N   0  0  0  0  0  0  0  0  0  0  0  0
   -6.4077    4.8090  -14.6073 C   0  0  0  0  0  0  0  0  0  0  0  0
   -7.6535    4.4682  -14.9484 N   0  0  0  0  0  0  0  0  0  0  0  0
   -7.9103    4.3615  -16.2540 C   0  0  0  0  0  0  0  0  0  0  0  0
   -9.1727    3.9502  -16.6696 C   0  0  0  0  0  0  0  0  0  0  0  0
   -9.4920    3.7929  -18.0185 C   0  0  0  0  0  0  0  0  0  0  0  0
   -8.5543    4.1271  -18.9758 C   0  0  0  0  0  0  0  0  0  0  0  0
   -7.3283    4.6328  -18.5777 C   0  0  0  0  0  0  0  0  0  0  0  0
   -6.9514    4.6621  -17.2242 C   0  0  0  0  0  0  0  0  0  0  0  0
   -4.5855    5.2976  -17.5723 N   0  0  0  0  0  0  0  0  0  0  0  0
   -4.7114    5.8223  -18.3958 H   0  0  0  0  0  0  0  0  0  0  0  0
   -3.2534    4.8232  -17.1816 C   0  0  0  0  0  0  0  0  0  0  0  0
   -1.0803    5.9986  -16.7773 C   0  0  0  0  0  0  0  0  0  0  0  0
   -2.2093    5.7845  -17.8040 C   0  0  0  0  0  0  0  0  0  0  0  0
   -1.6941    5.3822  -19.2330 C   0  0  0  0  0  0  0  0  0  0  0  0
   -0.1940    5.7170  -19.3490 C   0  0  0  0  0  0  0  0  0  0  0  0
   -1.8843    3.8961  -19.5526 C   0  0  0  0  0  0  0  0  0  0  0  0
   -2.3964    6.1806  -20.3435 C   0  0  0  0  0  0  0  0  0  0  0  0
 15 14  1  0  0  0
 15 13  1  0  0  0
 13 11  1  0  0  0
 11  1  1  0  0  0
  1  2  2  0  0  0
  2  3  1  0  0  0
  3  4  2  0  0  0
  4  5  1  0  0  0
  5  6  2  0  0  0
  6  7  1  0  0  0
  7  8  2  0  0  0
  8  9  1  0  0  0
  9 10  2  0  0  0
 15 16  1  0  0  0
 16 17  1  0  0  0
 16 18  1  0  0  0
 16 19  1  0  0  0
 10  1  1  0  0  0
 10  5  1  0  0  0
 11 12  1  0  0  0
M  END
> <minimizedAffinity>
-5.78810

> <minimizedRMSD>
1.07820

$$$$
P60322


 18 19  0  0  0  0  0  0  0  0999 V2000
   -5.7398    4.9530  -16.1907 C   0  0  0  0  0  0  0  0  0  0  0  0
   -5.8746    4.9932  -14.8563 N   0  0  0  0  0  0  0  0  0  0  0  0
   -7.1106    4.7710  -14.3876 C   0  0  0  0  0  0  0  0  0  0  0  0
   -8.2110    4.5294  -15.1086 N   0  0  0  0  0  0  0  0  0  0  0  0
   -8.0492    4.4409  -16.4330 C   0  0  0  0  0  0  0  0  0  0  0  0
   -9.1438    4.1287  -17.2335 C   0  0  0  0  0  0  0  0  0  0  0  0
   -9.0448    4.0384  -18.6236 C   0  0  0  0  0  0  0  0  0  0  0  0
   -7.8177    4.2212  -19.2326 C   0  0  0  0  0  0  0  0  0  0  0  0
   -6.7112    4.5060  -18.4470 C   0  0  0  0  0  0  0  0  0  0  0  0
   -6.8111    4.6516  -17.0485 C   0  0  0  0  0  0  0  0  0  0  0  0
   -4.4327    5.1661  -16.6493 N   0  0  0  0  0  0  0  0  0  0  0  0
   -3.8197    4.4050  -16.7688 H   0  0  0  0  0  0  0  0  0  0  0  0
   -3.9786    6.5432  -16.9533 C   0  0  0  0  0  0  0  0  0  0  0  0
   -5.0510    7.6142  -17.1199 C   0  0  0  0  0  0  0  0  0  0  0  0
   -2.9494    6.4993  -18.1163 C   0  0  0  0  0  0  0  0  0  0  0  0
   -2.5621    4.5701  -19.6952 C   0  0  0  0  0  0  0  0  0  0  0  0
   -3.3903    5.8293  -19.4308 C   0  0  0  0  0  0  0  0  0  0  0  0
   -3.2380    6.7532  -20.6332 C   0  0  0  0  0  0  0  0  0  0  0  0
 16 17  1  0  0  0
 17 18  1  0  0  0
 17 15  1  0  0  0
 15 13  1  0  0  0
 13 14  1  0  0  0
 13 11  1  0  0  0
 11  1  1  0  0  0
  1  2  2  0  0  0
  2  3  1  0  0  0
  3  4  2  0  0  0
  4  5  1  0  0  0
  5  6  2  0  0  0
  6  7  1  0  0  0
  7  8  2  0  0  0
  8  9  1  0  0  0
  9 10  2  0  0  0
 10  1  1  0  0  0
 10  5  1  0  0  0
 11 12  1  0  0  0
M  END
> <minimizedAffinity>
-5.42742

> <minimizedRMSD>
0.65277

$$$$
P60323


 18 19  0  0  0  0  0  0  0  0999 V2000
   -6.2079    4.8977  -15.9286 C   0  0  0  0  0  0  0  0  0  0  0  0
   -6.5762    5.0864  -14.6499 N   0  0  0  0  0  0  0  0  0  0  0  0
   -7.8862    5.0311  -14.3912 C   0  0  0  0  0  0  0  0  0  0  0  0
   -8.8628    4.8449  -15.2797 N   0  0  0  0  0  0  0  0  0  0  0  0
   -8.4884    4.6261  -16.5427 C   0  0  0  0  0  0  0  0  0  0  0  0
   -9.4827    4.3868  -17.4860 C   0  0  0  0  0  0  0  0  0  0  0  0
   -9.1946    4.1867  -18.8356 C   0  0  0  0  0  0  0  0  0  0  0  0
   -7.8785    4.1737  -19.2517 C   0  0  0  0  0  0  0  0  0  0  0  0
   -6.8711    4.3703  -18.3153 C   0  0  0  0  0  0  0  0  0  0  0  0
   -7.1468    4.6376  -16.9510 C   0  0  0  0  0  0  0  0  0  0  0  0
   -4.8286    4.9370  -16.0682 N   0  0  0  0  0  0  0  0  0  0  0  0
   -4.2758    4.3840  -15.4700 H   0  0  0  0  0  0  0  0  0  0  0  0
   -4.1692    5.7635  -17.0643 C   0  0  0  0  0  0  0  0  0  0  0  0
   -3.2293    4.8713  -17.8618 C   0  0  0  0  0  0  0  0  0  0  0  0
   -2.7885    4.2587  -20.0802 F   0  0  0  0  0  0  0  0  0  0  0  0
   -3.1573    5.2963  -19.2988 C   0  0  0  0  0  0  0  0  0  0  0  0
   -4.3475    5.7316  -19.7568 F   0  0  0  0  0  0  0  0  0  0  0  0
   -2.2624    6.2912  -19.4671 F   0  0  0  0  0  0  0  0  0  0  0  0
 15 16  1  0  0  0
 16 17  1  0  0  0
 16 18  1  0  0  0
 16 14  1  0  0  0
 14 13  1  0  0  0
 13 11  1  0  0  0
 11  1  1  0  0  0
  1  2  2  0  0  0
  2  3  1  0  0  0
  3  4  2  0  0  0
  4  5  1  0  0  0
  5  6  2  0  0  0
  6  7  1  0  0  0
  7  8  2  0  0  0
  8  9  1  0  0  0
  9 10  2  0  0  0
 10  1  1  0  0  0
 10  5  1  0  0  0
 11 12  1  0  0  0
M  END
> <minimizedAffinity>
-5.63795

> <minimizedRMSD>
0.75093

$$$$
P60346


 24 27  0  0  0  0  0  0  0  0999 V2000
   -7.5709    4.7275  -14.2016 C   0  0  0  0  0  0  0  0  0  0  0  0
   -6.3217    5.0514  -14.5821 N   0  0  0  0  0  0  0  0  0  0  0  0
   -6.0427    4.9969  -15.8920 C   0  0  0  0  0  0  0  0  0  0  0  0
   -7.0175    4.6604  -16.8468 C   0  0  0  0  0  0  0  0  0  0  0  0
   -6.7966    4.6114  -18.2434 C   0  0  0  0  0  0  0  0  0  0  0  0
   -7.8214    4.2471  -19.1087 C   0  0  0  0  0  0  0  0  0  0  0  0
   -9.0789    3.9519  -18.5989 C   0  0  0  0  0  0  0  0  0  0  0  0
   -9.3003    4.0123  -17.2235 C   0  0  0  0  0  0  0  0  0  0  0  0
   -8.2881    4.3569  -16.3386 C   0  0  0  0  0  0  0  0  0  0  0  0
   -8.5675    4.3846  -15.0357 N   0  0  0  0  0  0  0  0  0  0  0  0
   -8.3189    4.5652  -10.0462 C   0  0  0  0  0  0  0  0  0  0  0  0
   -8.4929    3.4154  -10.8013 C   0  0  0  0  0  0  0  0  0  0  0  0
   -8.2549    3.4611  -12.1704 C   0  0  0  0  0  0  0  0  0  0  0  0
   -7.8466    4.6587  -12.7566 C   0  0  0  0  0  0  0  0  0  0  0  0
   -7.6722    5.7957  -12.0223 N   0  0  0  0  0  0  0  0  0  0  0  0
   -7.9158    5.7189  -10.6957 C   0  0  0  0  0  0  0  0  0  0  0  0
   -4.7338    5.3170  -16.3163 N   0  0  0  0  0  0  0  0  0  0  0  0
   -4.5193    5.5637  -17.2449 H   0  0  0  0  0  0  0  0  0  0  0  0
   -3.7242    5.2512  -15.2604 C   0  0  0  0  0  0  0  0  0  0  0  0
   -2.3488    5.5227  -15.7744 C   0  0  0  0  0  0  0  0  0  0  0  0
   -1.1309    5.7247  -15.1581 C   0  0  0  0  0  0  0  0  0  0  0  0
   -0.1926    5.9546  -16.1926 C   0  0  0  0  0  0  0  0  0  0  0  0
   -0.8966    5.8833  -17.3714 C   0  0  0  0  0  0  0  0  0  0  0  0
   -2.2071    5.6226  -17.1292 O   0  0  0  0  0  0  0  0  0  0  0  0
 11 12  2  0  0  0
 12 13  1  0  0  0
 13 14  2  0  0  0
 14  1  1  0  0  0
  1  2  2  0  0  0
  2  3  1  0  0  0
  3 17  1  0  0  0
 17 19  1  0  0  0
 19 20  1  0  0  0
 20 21  2  0  0  0
 21 22  1  0  0  0
 22 23  2  0  0  0
 23 24  1  0  0  0
  3  4  2  0  0  0
  4  5  1  0  0  0
  5  6  2  0  0  0
  6  7  1  0  0  0
  7  8  2  0  0  0
  8  9  1  0  0  0
  9 10  2  0  0  0
 14 15  1  0  0  0
 15 16  2  0  0  0
 16 11  1  0  0  0
 10  1  1  0  0  0
 24 20  1  0  0  0
  9  4  1  0  0  0
 17 18  1  0  0  0
M  END
> <minimizedAffinity>
-6.49178

> <minimizedRMSD>
1.18165

$$$$
P60349


 12 13  0  0  0  0  0  0  0  0999 V2000
   -6.1384    5.5952  -18.1307 N   0  0  0  0  0  0  0  0  0  0  0  0
   -6.2321    6.9815  -18.6593 C   0  0  0  0  0  0  0  0  0  0  0  0
   -4.8760    7.5138  -19.1705 C   0  0  0  0  0  0  0  0  0  0  0  0
   -4.2384    6.6333  -20.1737 N   0  0  0  0  0  0  0  0  0  0  0  0
   -4.0726    5.3140  -19.5358 C   0  0  0  0  0  0  0  0  0  0  0  0
   -5.4016    4.7022  -19.0595 C   0  0  0  0  0  0  0  0  0  0  0  0
   -3.3297    7.0094  -20.4445 H   0  0  0  0  0  0  0  0  0  0  0  0
   -7.7723    5.0036  -16.3508 C   0  0  0  0  0  0  0  0  0  0  0  0
   -8.9765    4.4823  -16.1232 N   0  0  0  0  0  0  0  0  0  0  0  0
   -9.6265    4.0231  -17.5812 S   0  0  0  0  0  0  0  0  0  0  0  0
   -8.2919    4.5007  -18.5267 C   0  0  0  0  0  0  0  0  0  0  0  0
   -7.3373    5.0660  -17.7068 C   0  0  0  0  0  0  0  0  0  0  0  0
  8  9  2  0  0  0
  9 10  1  0  0  0
 10 11  1  0  0  0
 11 12  2  0  0  0
 12  1  1  0  0  0
  1  2  1  0  0  0
  2  3  1  0  0  0
  3  4  1  0  0  0
  4  5  1  0  0  0
  5  6  1  0  0  0
 12  8  1  0  0  0
  6  1  1  0  0  0
  4  7  1  0  0  0
M  END
> <minimizedAffinity>
-3.79555

> <minimizedRMSD>
0.32512

$$$$
P60351


 12 13  0  0  0  0  0  0  0  0999 V2000
   -6.3062    5.5439  -18.0924 N   0  0  0  0  0  0  0  0  0  0  0  0
   -6.2664    6.9755  -18.4215 C   0  0  0  0  0  0  0  0  0  0  0  0
   -4.8168    7.4153  -18.7437 C   0  0  0  0  0  0  0  0  0  0  0  0
   -4.1209    6.5946  -19.7558 N   0  0  0  0  0  0  0  0  0  0  0  0
   -4.2416    5.1712  -19.3802 C   0  0  0  0  0  0  0  0  0  0  0  0
   -5.7022    4.7289  -19.1653 C   0  0  0  0  0  0  0  0  0  0  0  0
   -3.1360    6.8573  -19.7917 H   0  0  0  0  0  0  0  0  0  0  0  0
   -8.7281    4.2853  -16.0115 C   0  0  0  0  0  0  0  0  0  0  0  0
   -9.4804    4.1570  -17.0803 N   0  0  0  0  0  0  0  0  0  0  0  0
   -8.6873    4.6804  -18.0715 C   0  0  0  0  0  0  0  0  0  0  0  0
   -7.4662    5.0748  -17.5603 C   0  0  0  0  0  0  0  0  0  0  0  0
   -7.5097    4.8608  -16.2102 O   0  0  0  0  0  0  0  0  0  0  0  0
  8  9  2  0  0  0
  9 10  1  0  0  0
 10 11  2  0  0  0
 11  1  1  0  0  0
  1  2  1  0  0  0
  2  3  1  0  0  0
  3  4  1  0  0  0
  4  5  1  0  0  0
  5  6  1  0  0  0
 11 12  1  0  0  0
 12  8  1  0  0  0
  6  1  1  0  0  0
  4  7  1  0  0  0
M  END
> <minimizedAffinity>
-3.78878

> <minimizedRMSD>
0.47637

$$$$
P60435


 28 30  0  0  0  0  0  0  0  0999 V2000
   -6.8698    5.2791  -15.2778 C   0  0  0  0  0  0  0  0  0  0  0  0
   -7.5011    4.8053  -16.5936 C   0  0  0  0  0  0  0  0  0  0  0  0
   -6.8766    4.8289  -17.8482 C   0  0  0  0  0  0  0  0  0  0  0  0
   -7.5391    4.4128  -19.0052 C   0  0  0  0  0  0  0  0  0  0  0  0
   -8.8669    4.0196  -18.9494 C   0  0  0  0  0  0  0  0  0  0  0  0
   -9.5166    3.9972  -17.7266 C   0  0  0  0  0  0  0  0  0  0  0  0
   -8.8259    4.3423  -16.5617 C   0  0  0  0  0  0  0  0  0  0  0  0
   -6.5670    4.1551  -14.3961 N   0  0  0  0  0  0  0  0  0  0  0  0
   -5.6173    4.2810  -14.0459 H   0  0  0  0  0  0  0  0  0  0  0  0
   -7.4605    3.9832  -13.2281 C   0  0  0  0  0  0  0  0  0  0  0  0
   -7.2442    5.0414  -12.1374 C   0  0  0  0  0  0  0  0  0  0  0  0
   -7.9680    4.7473  -10.8181 C   0  0  0  0  0  0  0  0  0  0  0  0
   -8.4089    3.2975  -10.6653 C   0  0  0  0  0  0  0  0  0  0  0  0
   -7.5099    2.3976  -11.3301 N   0  0  0  0  0  0  0  0  0  0  0  0
   -7.1725    2.5860  -12.6453 C   0  0  0  0  0  0  0  0  0  0  0  0
   -6.6905    1.6730  -13.3136 O   0  0  0  0  0  0  0  0  0  0  0  0
   -7.1309    1.6354  -10.8354 H   0  0  0  0  0  0  0  0  0  0  0  0
   -5.6068    6.1856  -15.3995 C   0  0  0  0  0  0  0  0  0  0  0  0
   -2.6739    7.2840  -16.1911 O   0  0  0  0  0  0  0  0  0  0  0  0
   -3.1856    6.3147  -16.5847 C   0  0  0  0  0  0  0  0  0  0  0  0
   -4.5434    5.6962  -16.2362 N   0  0  0  0  0  0  0  0  0  0  0  0
   -4.7166    4.8211  -16.6528 H   0  0  0  0  0  0  0  0  0  0  0  0
   -2.5634    5.5174  -17.6660 C   0  0  0  0  0  0  0  0  0  0  0  0
   -1.2572    5.6674  -18.1905 C   0  0  0  0  0  0  0  0  0  0  0  0
   -1.2036    4.8379  -19.2820 C   0  0  0  0  0  0  0  0  0  0  0  0
   -2.4286    4.2459  -19.3633 N   0  0  0  0  0  0  0  0  0  0  0  0
   -3.2628    4.6023  -18.3729 N   0  0  0  0  0  0  0  0  0  0  0  0
   -2.6780    3.6177  -20.0791 H   0  0  0  0  0  0  0  0  0  0  0  0
 19 20  2  0  0  0
 20 21  1  0  0  0
 21 18  1  0  0  0
  1 18  1  0  0  0
  1  8  1  0  0  0
 10  8  1  0  0  0
 10 11  1  0  0  0
 11 12  1  0  0  0
 12 13  1  0  0  0
 13 14  1  0  0  0
 14 15  1  0  0  0
 15 16  2  0  0  0
  1  2  1  0  0  0
  2  3  2  0  0  0
  3  4  1  0  0  0
  4  5  2  0  0  0
  5  6  1  0  0  0
  6  7  2  0  0  0
 20 23  1  0  0  0
 23 24  1  0  0  0
 24 25  2  0  0  0
 25 26  1  0  0  0
 26 27  1  0  0  0
 15 10  1  0  0  0
  7  2  1  0  0  0
 27 23  2  0  0  0
 21 22  1  0  0  0
  8  9  1  0  0  0
 14 17  1  0  0  0
 26 28  1  0  0  0
M  END
> <minimizedAffinity>
-6.59275

> <minimizedRMSD>
1.10726

$$$$
P60475


 18 19  0  0  0  0  0  0  0  0999 V2000
   -7.3246    3.2457  -14.0856 N   0  0  0  0  0  0  0  0  0  0  0  0
   -8.1364    2.7297  -13.7464 H   0  0  0  0  0  0  0  0  0  0  0  0
   -6.1433    2.6944  -13.4148 C   0  0  0  0  0  0  0  0  0  0  0  0
   -6.4973    2.0866  -12.0555 C   0  0  0  0  0  0  0  0  0  0  0  0
   -6.9675    2.9244  -10.8443 C   0  0  0  0  0  0  0  0  0  0  0  0
   -6.2695    1.9714   -9.9576 N   0  0  0  0  0  0  0  0  0  0  0  0
   -5.3621    1.6425  -11.0871 C   0  0  0  0  0  0  0  0  0  0  0  0
   -6.8457    1.1924   -9.6390 H   0  0  0  0  0  0  0  0  0  0  0  0
   -3.8737    3.3309  -14.3998 C   0  0  0  0  0  0  0  0  0  0  0  0
   -4.9578    3.6673  -13.3798 C   0  0  0  0  0  0  0  0  0  0  0  0
   -7.6047    4.6700  -13.9045 C   0  0  0  0  0  0  0  0  0  0  0  0
   -8.6629    5.1965  -14.8908 C   0  0  0  0  0  0  0  0  0  0  0  0
   -8.3332    4.9208  -16.3157 C   0  0  0  0  0  0  0  0  0  0  0  0
   -9.1213    4.4894  -17.3593 C   0  0  0  0  0  0  0  0  0  0  0  0
   -8.3844    4.3058  -18.4924 N   0  0  0  0  0  0  0  0  0  0  0  0
   -7.1500    4.5966  -18.1554 C   0  0  0  0  0  0  0  0  0  0  0  0
   -7.0656    4.9645  -16.8432 N   0  0  0  0  0  0  0  0  0  0  0  0
   -6.2443    5.2157  -16.3619 H   0  0  0  0  0  0  0  0  0  0  0  0
  9 10  1  0  0  0
  3 10  1  0  0  0
  3  1  1  0  0  0
  1 11  1  0  0  0
 11 12  1  0  0  0
 12 13  1  0  0  0
 13 14  2  0  0  0
 14 15  1  0  0  0
 15 16  2  0  0  0
 16 17  1  0  0  0
  3  4  1  0  0  0
  4  5  1  0  0  0
  5  6  1  0  0  0
  6  7  1  0  0  0
 17 13  1  0  0  0
  7  4  1  0  0  0
  1  2  1  0  0  0
 17 18  1  0  0  0
  6  8  1  0  0  0
M  END
> <minimizedAffinity>
-4.49056

> <minimizedRMSD>
0.74843

$$$$
P60557


 15 17  0  0  0  0  0  0  0  0999 V2000
   -5.7088    5.5118  -15.9384 C   0  0  0  0  0  0  0  0  0  0  0  0
   -4.6305    5.9400  -16.7302 C   0  0  0  0  0  0  0  0  0  0  0  0
   -4.6510    5.6898  -18.0814 C   0  0  0  0  0  0  0  0  0  0  0  0
   -5.6620    5.0659  -18.6905 N   0  0  0  0  0  0  0  0  0  0  0  0
   -6.7244    4.6707  -17.9488 C   0  0  0  0  0  0  0  0  0  0  0  0
   -6.8141    4.8871  -16.5620 C   0  0  0  0  0  0  0  0  0  0  0  0
   -8.0477    4.4462  -15.8258 C   0  0  0  0  0  0  0  0  0  0  0  0
   -9.2560    4.1428  -16.6883 C   0  0  0  0  0  0  0  0  0  0  0  0
   -8.9066    3.3616  -17.9376 C   0  0  0  0  0  0  0  0  0  0  0  0
   -7.8323    4.0506  -18.7578 C   0  0  0  0  0  0  0  0  0  0  0  0
   -5.1885    5.6177  -12.3431 C   0  0  0  0  0  0  0  0  0  0  0  0
   -5.7490    6.8464  -12.6986 C   0  0  0  0  0  0  0  0  0  0  0  0
   -5.9626    6.9495  -14.0091 N   0  0  0  0  0  0  0  0  0  0  0  0
   -5.5794    5.7428  -14.5311 N   0  0  0  0  0  0  0  0  0  0  0  0
   -5.0636    4.9420  -13.5333 C   0  0  0  0  0  0  0  0  0  0  0  0
 11 12  1  0  0  0
 12 13  2  0  0  0
 13 14  1  0  0  0
 14  1  1  0  0  0
  1  2  2  0  0  0
  2  3  1  0  0  0
  3  4  2  0  0  0
  4  5  1  0  0  0
  5  6  2  0  0  0
  6  7  1  0  0  0
  7  8  1  0  0  0
  8  9  1  0  0  0
  9 10  1  0  0  0
 14 15  1  0  0  0
 15 11  2  0  0  0
  6  1  1  0  0  0
 10  5  1  0  0  0
M  END
> <minimizedAffinity>
-5.33151

> <minimizedRMSD>
1.01463

$$$$
P60602


 16 16  0  0  0  0  0  0  0  0999 V2000
   -4.2813    5.0038  -17.4440 C   0  0  0  0  0  0  0  0  0  0  0  0
   -3.3671    6.1251  -17.9589 C   0  0  0  0  0  0  0  0  0  0  0  0
   -4.2196    7.1861  -18.4280 O   0  0  0  0  0  0  0  0  0  0  0  0
   -4.7586    6.8647  -19.1677 H   0  0  0  0  0  0  0  0  0  0  0  0
   -2.7754    6.2538  -20.4857 C   0  0  0  0  0  0  0  0  0  0  0  0
   -2.3646    5.7278  -19.0926 C   0  0  0  0  0  0  0  0  0  0  0  0
   -2.2214    4.1958  -19.1679 C   0  0  0  0  0  0  0  0  0  0  0  0
   -0.9786    6.3230  -18.7567 C   0  0  0  0  0  0  0  0  0  0  0  0
   -5.5485    5.2033  -18.0652 O   0  0  0  0  0  0  0  0  0  0  0  0
   -6.6520    4.5965  -17.3989 C   0  0  0  0  0  0  0  0  0  0  0  0
   -7.8062    4.5641  -18.3961 C   0  0  0  0  0  0  0  0  0  0  0  0
   -9.1360    4.2093  -17.7462 C   0  0  0  0  0  0  0  0  0  0  0  0
   -9.3868    5.0746  -16.6006 N   0  0  0  0  0  0  0  0  0  0  0  0
   -8.3524    4.9538  -15.5876 C   0  0  0  0  0  0  0  0  0  0  0  0
   -7.0200    5.3985  -16.1534 C   0  0  0  0  0  0  0  0  0  0  0  0
  -10.2838    4.8205  -16.1866 H   0  0  0  0  0  0  0  0  0  0  0  0
  5  6  1  0  0  0
  6  7  1  0  0  0
  6  8  1  0  0  0
  6  2  1  0  0  0
  2  3  1  0  0  0
  2  1  1  0  0  0
  1  9  1  0  0  0
  9 10  1  0  0  0
 10 11  1  0  0  0
 11 12  1  0  0  0
 12 13  1  0  0  0
 13 14  1  0  0  0
 14 15  1  0  0  0
 15 10  1  0  0  0
  3  4  1  0  0  0
 13 16  1  0  0  0
M  END
> <minimizedAffinity>
-3.81655

> <minimizedRMSD>
1.57395

$$$$
P60620


 16 17  0  0  0  0  0  0  0  0999 V2000
   -5.3793    5.0169  -18.0085 C   0  0  0  0  0  0  0  0  0  0  0  0
   -6.1557    4.7879  -19.0426 N   0  0  0  0  0  0  0  0  0  0  0  0
   -7.4278    4.5008  -18.5962 N   0  0  0  0  0  0  0  0  0  0  0  0
   -7.4278    4.6224  -17.2904 C   0  0  0  0  0  0  0  0  0  0  0  0
   -8.4411    4.4709  -16.3049 C   0  0  0  0  0  0  0  0  0  0  0  0
   -8.1038    4.5234  -15.0024 C   0  0  0  0  0  0  0  0  0  0  0  0
   -6.7388    4.7756  -14.5738 C   0  0  0  0  0  0  0  0  0  0  0  0
   -5.7898    4.9601  -15.5063 C   0  0  0  0  0  0  0  0  0  0  0  0
   -6.1369    4.8815  -16.8553 N   0  0  0  0  0  0  0  0  0  0  0  0
   -4.0537    5.3215  -17.9853 N   0  0  0  0  0  0  0  0  0  0  0  0
   -3.4975    5.0298  -17.2271 H   0  0  0  0  0  0  0  0  0  0  0  0
   -3.4502    6.0800  -19.0802 C   0  0  0  0  0  0  0  0  0  0  0  0
   -2.5084    7.1253  -18.4744 C   0  0  0  0  0  0  0  0  0  0  0  0
   -1.9208    4.0585  -19.4288 C   0  0  0  0  0  0  0  0  0  0  0  0
   -2.7460    5.1484  -20.0895 C   0  0  0  0  0  0  0  0  0  0  0  0
   -1.8801    5.9298  -21.0839 C   0  0  0  0  0  0  0  0  0  0  0  0
 14 15  1  0  0  0
 15 16  1  0  0  0
 15 12  1  0  0  0
 12 13  1  0  0  0
 12 10  1  0  0  0
 10  1  1  0  0  0
  1  2  2  0  0  0
  2  3  1  0  0  0
  3  4  2  0  0  0
  4  5  1  0  0  0
  5  6  2  0  0  0
  6  7  1  0  0  0
  7  8  2  0  0  0
  8  9  1  0  0  0
  9  1  1  0  0  0
  9  4  1  0  0  0
 10 11  1  0  0  0
M  END
> <minimizedAffinity>
-4.70548

> <minimizedRMSD>
0.97928

$$$$
P60623


 16 17  0  0  0  0  0  0  0  0999 V2000
   -5.9423    5.3485  -18.0026 C   0  0  0  0  0  0  0  0  0  0  0  0
   -6.6850    4.7207  -18.8872 N   0  0  0  0  0  0  0  0  0  0  0  0
   -7.8412    4.2838  -18.2765 N   0  0  0  0  0  0  0  0  0  0  0  0
   -7.7877    4.6552  -17.0190 C   0  0  0  0  0  0  0  0  0  0  0  0
   -8.6638    4.4638  -15.9169 C   0  0  0  0  0  0  0  0  0  0  0  0
   -8.2451    4.7968  -14.6816 C   0  0  0  0  0  0  0  0  0  0  0  0
   -6.9517    5.4140  -14.4478 C   0  0  0  0  0  0  0  0  0  0  0  0
   -6.1511    5.6534  -15.4986 C   0  0  0  0  0  0  0  0  0  0  0  0
   -6.5705    5.2703  -16.7726 N   0  0  0  0  0  0  0  0  0  0  0  0
   -4.7492    5.9767  -18.1726 N   0  0  0  0  0  0  0  0  0  0  0  0
   -4.4946    6.7157  -17.5740 H   0  0  0  0  0  0  0  0  0  0  0  0
   -3.8451    5.5610  -19.2373 C   0  0  0  0  0  0  0  0  0  0  0  0
   -1.8544    4.0234  -19.6113 C   0  0  0  0  0  0  0  0  0  0  0  0
   -2.8625    4.5557  -18.6276 C   0  0  0  0  0  0  0  0  0  0  0  0
   -3.1417    6.8192  -19.7821 C   0  0  0  0  0  0  0  0  0  0  0  0
   -3.4659    7.1027  -21.2433 C   0  0  0  0  0  0  0  0  0  0  0  0
 13 14  1  0  0  0
 14 12  1  0  0  0
 12 15  1  0  0  0
 15 16  1  0  0  0
 12 10  1  0  0  0
 10  1  1  0  0  0
  1  2  2  0  0  0
  2  3  1  0  0  0
  3  4  2  0  0  0
  4  5  1  0  0  0
  5  6  2  0  0  0
  6  7  1  0  0  0
  7  8  2  0  0  0
  8  9  1  0  0  0
  9  1  1  0  0  0
  9  4  1  0  0  0
 10 11  1  0  0  0
M  END
> <minimizedAffinity>
-4.26625

> <minimizedRMSD>
1.24013

$$$$
P60628


 12 13  0  0  0  0  0  0  0  0999 V2000
   -9.0350    4.2467  -19.1979 N   0  0  0  0  0  0  0  0  0  0  0  0
   -8.2507    4.4103  -18.0857 C   0  0  0  0  0  0  0  0  0  0  0  0
   -6.8394    4.7189  -18.2868 C   0  0  0  0  0  0  0  0  0  0  0  0
   -6.0194    5.0081  -17.2614 C   0  0  0  0  0  0  0  0  0  0  0  0
   -6.5342    4.9965  -15.9418 C   0  0  0  0  0  0  0  0  0  0  0  0
   -6.0077    5.2917  -14.7740 N   0  0  0  0  0  0  0  0  0  0  0  0
   -6.9771    5.0817  -13.8156 N   0  0  0  0  0  0  0  0  0  0  0  0
   -8.0623    4.6546  -14.4259 C   0  0  0  0  0  0  0  0  0  0  0  0
   -7.8579    4.6238  -15.7757 N   0  0  0  0  0  0  0  0  0  0  0  0
   -8.7186    4.3458  -16.8273 C   0  0  0  0  0  0  0  0  0  0  0  0
   -8.6346    4.3049  -20.0954 H   0  0  0  0  0  0  0  0  0  0  0  0
   -9.9986    4.0709  -19.0992 H   0  0  0  0  0  0  0  0  0  0  0  0
  1  2  1  0  0  0
  2  3  1  0  0  0
  3  4  2  0  0  0
  4  5  1  0  0  0
  5  6  2  0  0  0
  6  7  1  0  0  0
  7  8  2  0  0  0
  8  9  1  0  0  0
  9 10  1  0  0  0
 10  2  2  0  0  0
  9  5  1  0  0  0
  1 11  1  0  0  0
  1 12  1  0  0  0
M  END
> <minimizedAffinity>
-4.75236

> <minimizedRMSD>
0.49823

$$$$
P60758


 10 11  0  0  0  0  0  0  0  0999 V2000
   -4.0306    5.1401  -19.9311 C   0  0  0  0  0  0  0  0  0  0  0  0
   -3.3912    5.5902  -18.7984 C   0  0  0  0  0  0  0  0  0  0  0  0
   -4.4810    5.5668  -17.4756 S   0  0  0  0  0  0  0  0  0  0  0  0
   -5.7046    4.9194  -18.4989 C   0  0  0  0  0  0  0  0  0  0  0  0
   -5.3427    4.7416  -19.7575 N   0  0  0  0  0  0  0  0  0  0  0  0
   -7.0026    4.5560  -18.0043 C   0  0  0  0  0  0  0  0  0  0  0  0
   -7.9703    3.7741  -18.6081 C   0  0  0  0  0  0  0  0  0  0  0  0
   -9.0573    3.6048  -17.7902 N   0  0  0  0  0  0  0  0  0  0  0  0
   -8.7292    4.2841  -16.7168 C   0  0  0  0  0  0  0  0  0  0  0  0
   -7.5228    4.9135  -16.7744 O   0  0  0  0  0  0  0  0  0  0  0  0
  1  2  2  0  0  0
  2  3  1  0  0  0
  3  4  1  0  0  0
  4  6  1  0  0  0
  6  7  2  0  0  0
  7  8  1  0  0  0
  8  9  2  0  0  0
  9 10  1  0  0  0
  4  5  2  0  0  0
  5  1  1  0  0  0
 10  6  1  0  0  0
M  END
> <minimizedAffinity>
-3.72670

> <minimizedRMSD>
0.40648

$$$$
P60759


 10 11  0  0  0  0  0  0  0  0999 V2000
   -3.8001    5.1159  -20.3174 C   0  0  0  0  0  0  0  0  0  0  0  0
   -2.9776    5.4954  -19.2806 C   0  0  0  0  0  0  0  0  0  0  0  0
   -3.8691    5.5202  -17.8169 S   0  0  0  0  0  0  0  0  0  0  0  0
   -5.2605    4.9752  -18.6655 C   0  0  0  0  0  0  0  0  0  0  0  0
   -5.0999    4.8083  -19.9674 N   0  0  0  0  0  0  0  0  0  0  0  0
   -6.6250    4.6479  -17.9391 C   0  0  0  0  0  0  0  0  0  0  0  0
   -7.6549    4.0239  -18.6096 C   0  0  0  0  0  0  0  0  0  0  0  0
   -8.9675    3.7591  -17.5575 S   0  0  0  0  0  0  0  0  0  0  0  0
   -8.0578    4.4481  -16.2781 C   0  0  0  0  0  0  0  0  0  0  0  0
   -6.8738    4.9266  -16.6008 N   0  0  0  0  0  0  0  0  0  0  0  0
  1  2  2  0  0  0
  2  3  1  0  0  0
  3  4  1  0  0  0
  4  6  1  0  0  0
  6  7  2  0  0  0
  7  8  1  0  0  0
  8  9  1  0  0  0
  9 10  2  0  0  0
  4  5  2  0  0  0
  5  1  1  0  0  0
 10  6  1  0  0  0
M  END
> <minimizedAffinity>
-3.74166

> <minimizedRMSD>
0.14376

$$$$
P60760


 10 11  0  0  0  0  0  0  0  0999 V2000
   -3.8527    5.0476  -20.6060 C   0  0  0  0  0  0  0  0  0  0  0  0
   -2.9599    5.4295  -19.6302 C   0  0  0  0  0  0  0  0  0  0  0  0
   -3.7563    5.4873  -18.1149 S   0  0  0  0  0  0  0  0  0  0  0  0
   -5.2088    4.9454  -18.8631 C   0  0  0  0  0  0  0  0  0  0  0  0
   -5.1309    4.7613  -20.1675 N   0  0  0  0  0  0  0  0  0  0  0  0
   -6.5314    4.6486  -18.0743 C   0  0  0  0  0  0  0  0  0  0  0  0
   -7.6561    3.9683  -18.6183 C   0  0  0  0  0  0  0  0  0  0  0  0
   -8.7018    3.7793  -17.8191 N   0  0  0  0  0  0  0  0  0  0  0  0
   -8.3366    4.4189  -16.3382 S   0  0  0  0  0  0  0  0  0  0  0  0
   -6.7716    4.9731  -16.7567 C   0  0  0  0  0  0  0  0  0  0  0  0
  1  2  2  0  0  0
  2  3  1  0  0  0
  3  4  1  0  0  0
  4  6  1  0  0  0
  6  7  1  0  0  0
  7  8  2  0  0  0
  8  9  1  0  0  0
  9 10  1  0  0  0
  4  5  2  0  0  0
  5  1  1  0  0  0
 10  6  2  0  0  0
M  END
> <minimizedAffinity>
-3.82992

> <minimizedRMSD>
0.26217

$$$$
P60761


 10 11  0  0  0  0  0  0  0  0999 V2000
   -3.9247    5.1817  -20.2840 C   0  0  0  0  0  0  0  0  0  0  0  0
   -3.1768    5.6088  -19.2116 C   0  0  0  0  0  0  0  0  0  0  0  0
   -4.1313    5.5589  -17.7918 S   0  0  0  0  0  0  0  0  0  0  0  0
   -5.4572    4.9259  -18.6984 C   0  0  0  0  0  0  0  0  0  0  0  0
   -5.2127    4.7775  -19.9898 N   0  0  0  0  0  0  0  0  0  0  0  0
   -6.7199    4.5408  -18.1168 C   0  0  0  0  0  0  0  0  0  0  0  0
   -7.7532    3.8768  -18.7564 C   0  0  0  0  0  0  0  0  0  0  0  0
   -8.8642    3.5715  -17.9931 N   0  0  0  0  0  0  0  0  0  0  0  0
   -8.6694    4.0111  -16.7712 C   0  0  0  0  0  0  0  0  0  0  0  0
   -7.1859    4.8162  -16.4834 S   0  0  0  0  0  0  0  0  0  0  0  0
  1  2  2  0  0  0
  2  3  1  0  0  0
  3  4  1  0  0  0
  4  6  1  0  0  0
  6  7  2  0  0  0
  7  8  1  0  0  0
  8  9  2  0  0  0
  9 10  1  0  0  0
  4  5  2  0  0  0
  5  1  1  0  0  0
 10  6  1  0  0  0
M  END
> <minimizedAffinity>
-3.68882

> <minimizedRMSD>
0.24009

$$$$
P60762


 10 11  0  0  0  0  0  0  0  0999 V2000
   -4.0649    5.1061  -20.3906 C   0  0  0  0  0  0  0  0  0  0  0  0
   -3.2301    5.5453  -19.3878 C   0  0  0  0  0  0  0  0  0  0  0  0
   -4.0752    5.5496  -17.8970 S   0  0  0  0  0  0  0  0  0  0  0  0
   -5.4672    4.9239  -18.6911 C   0  0  0  0  0  0  0  0  0  0  0  0
   -5.3351    4.7348  -19.9928 N   0  0  0  0  0  0  0  0  0  0  0  0
   -6.7825    4.5627  -17.9164 C   0  0  0  0  0  0  0  0  0  0  0  0
   -7.8628    3.9323  -18.4826 C   0  0  0  0  0  0  0  0  0  0  0  0
   -8.7887    3.7170  -17.5089 O   0  0  0  0  0  0  0  0  0  0  0  0
   -8.2086    4.2408  -16.3923 C   0  0  0  0  0  0  0  0  0  0  0  0
   -7.0296    4.7959  -16.5797 N   0  0  0  0  0  0  0  0  0  0  0  0
  1  2  2  0  0  0
  2  3  1  0  0  0
  3  4  1  0  0  0
  4  6  1  0  0  0
  6  7  2  0  0  0
  7  8  1  0  0  0
  8  9  1  0  0  0
  9 10  2  0  0  0
  4  5  2  0  0  0
  5  1  1  0  0  0
 10  6  1  0  0  0
M  END
> <minimizedAffinity>
-3.68335

> <minimizedRMSD>
0.16187

$$$$
P60805


 25 27  0  0  0  0  0  0  0  0999 V2000
   -7.9080    5.5357  -11.8516 N   0  0  0  0  0  0  0  0  0  0  0  0
   -6.8732    5.5116  -10.7094 C   0  0  0  0  0  0  0  0  0  0  0  0
   -5.7215    5.6922  -10.7294 O   0  0  0  0  0  0  0  0  0  0  0  0
   -8.8193    5.2728  -11.5877 H   0  0  0  0  0  0  0  0  0  0  0  0
   -7.5442    5.2132   -9.4279 C   0  0  0  0  0  0  0  0  0  0  0  0
   -7.8581    6.2207   -8.5847 N   0  0  0  0  0  0  0  0  0  0  0  0
   -8.4112    5.6325   -7.4574 O   0  0  0  0  0  0  0  0  0  0  0  0
   -8.4358    4.3018   -7.6427 C   0  0  0  0  0  0  0  0  0  0  0  0
   -7.9276    3.9640   -8.8701 C   0  0  0  0  0  0  0  0  0  0  0  0
   -7.8261    2.5525   -9.3118 C   0  0  0  0  0  0  0  0  0  0  0  0
   -7.8611    1.6811   -8.1219 N   0  0  0  0  0  0  0  0  0  0  0  0
   -8.9972    1.9727   -7.2242 C   0  0  0  0  0  0  0  0  0  0  0  0
   -8.9038    3.3800   -6.5915 C   0  0  0  0  0  0  0  0  0  0  0  0
   -6.9939    1.8088   -7.6003 H   0  0  0  0  0  0  0  0  0  0  0  0
   -7.7580    5.8816  -13.2477 C   0  0  0  0  0  0  0  0  0  0  0  0
   -8.7994    5.2303  -14.1453 C   0  0  0  0  0  0  0  0  0  0  0  0
   -6.6137    5.0041  -17.0467 C   0  0  0  0  0  0  0  0  0  0  0  0
   -7.4500    4.6052  -18.0649 C   0  0  0  0  0  0  0  0  0  0  0  0
   -8.7860    4.5281  -17.7502 C   0  0  0  0  0  0  0  0  0  0  0  0
   -9.2791    4.7645  -16.5183 N   0  0  0  0  0  0  0  0  0  0  0  0
   -8.3886    5.1506  -15.5882 C   0  0  0  0  0  0  0  0  0  0  0  0
   -7.0869    5.3381  -15.8323 N   0  0  0  0  0  0  0  0  0  0  0  0
   -5.1274    5.1408  -17.2479 C   0  0  0  0  0  0  0  0  0  0  0  0
   -2.9977    5.1444  -16.1347 C   0  0  0  0  0  0  0  0  0  0  0  0
   -4.3290    4.6360  -16.1666 O   0  0  0  0  0  0  0  0  0  0  0  0
 24 25  1  0  0  0
 25 23  1  0  0  0
 23 17  1  0  0  0
 17 18  2  0  0  0
 18 19  1  0  0  0
 19 20  2  0  0  0
 20 21  1  0  0  0
 21 16  1  0  0  0
 16 15  1  0  0  0
 15  1  1  0  0  0
  1  2  1  0  0  0
  2  3  2  0  0  0
  2  5  1  0  0  0
  5  6  2  0  0  0
  6  7  1  0  0  0
  7  8  1  0  0  0
  8  9  2  0  0  0
  9 10  1  0  0  0
 10 11  1  0  0  0
 11 12  1  0  0  0
 12 13  1  0  0  0
 21 22  2  0  0  0
 22 17  1  0  0  0
  9  5  1  0  0  0
 13  8  1  0  0  0
  1  4  1  0  0  0
 11 14  1  0  0  0
M  END
> <minimizedAffinity>
-6.02143

> <minimizedRMSD>
0.73869

$$$$
P60858


 15 16  0  0  0  0  0  0  0  0999 V2000
   -6.4425    4.6737  -17.6901 C   0  0  0  0  0  0  0  0  0  0  0  0
   -7.4358    4.2926  -18.5898 C   0  0  0  0  0  0  0  0  0  0  0  0
   -8.7292    4.0746  -18.1497 C   0  0  0  0  0  0  0  0  0  0  0  0
   -9.1422    4.1864  -16.8770 N   0  0  0  0  0  0  0  0  0  0  0  0
   -8.1886    4.5773  -15.9930 C   0  0  0  0  0  0  0  0  0  0  0  0
   -8.4174    4.8179  -14.6129 C   0  0  0  0  0  0  0  0  0  0  0  0
   -7.2789    5.1850  -13.9364 C   0  0  0  0  0  0  0  0  0  0  0  0
   -5.9291    5.2801  -14.9746 S   0  0  0  0  0  0  0  0  0  0  0  0
   -6.8648    4.8148  -16.3532 C   0  0  0  0  0  0  0  0  0  0  0  0
   -5.1433    4.9529  -18.0532 N   0  0  0  0  0  0  0  0  0  0  0  0
   -4.4256    4.7272  -17.4181 H   0  0  0  0  0  0  0  0  0  0  0  0
   -4.7732    5.5571  -19.3108 C   0  0  0  0  0  0  0  0  0  0  0  0
   -2.6333    4.3317  -18.8503 C   0  0  0  0  0  0  0  0  0  0  0  0
   -3.3306    5.2207  -19.5684 C   0  0  0  0  0  0  0  0  0  0  0  0
   -2.5292    6.1557  -20.9731 Br  0  0  0  0  0  0  0  0  0  0  0  0
 13 14  2  0  0  0
 14 15  1  0  0  0
 14 12  1  0  0  0
 12 10  1  0  0  0
 10  1  1  0  0  0
  1  2  2  0  0  0
  2  3  1  0  0  0
  3  4  2  0  0  0
  4  5  1  0  0  0
  5  6  1  0  0  0
  6  7  2  0  0  0
  7  8  1  0  0  0
  8  9  1  0  0  0
  9  1  1  0  0  0
  9  5  2  0  0  0
 10 11  1  0  0  0
M  END
> <minimizedAffinity>
-5.10229

> <minimizedRMSD>
0.88537

$$$$
P60860


 16 17  0  0  0  0  0  0  0  0999 V2000
   -6.9256    4.5200  -18.4015 C   0  0  0  0  0  0  0  0  0  0  0  0
   -8.0921    3.9927  -18.9524 C   0  0  0  0  0  0  0  0  0  0  0  0
   -9.1662    3.6788  -18.1388 C   0  0  0  0  0  0  0  0  0  0  0  0
   -9.1913    3.8083  -16.8019 N   0  0  0  0  0  0  0  0  0  0  0  0
   -8.0561    4.3097  -16.2494 C   0  0  0  0  0  0  0  0  0  0  0  0
   -7.8661    4.5413  -14.8585 C   0  0  0  0  0  0  0  0  0  0  0  0
   -6.6232    5.0494  -14.5663 C   0  0  0  0  0  0  0  0  0  0  0  0
   -5.6872    5.2856  -15.9730 S   0  0  0  0  0  0  0  0  0  0  0  0
   -6.9362    4.6691  -16.9981 C   0  0  0  0  0  0  0  0  0  0  0  0
   -5.8060    4.8482  -19.1537 N   0  0  0  0  0  0  0  0  0  0  0  0
   -5.1170    4.1641  -19.3163 H   0  0  0  0  0  0  0  0  0  0  0  0
   -5.6308    6.1761  -19.7042 C   0  0  0  0  0  0  0  0  0  0  0  0
   -4.4133    6.8659  -19.0897 C   0  0  0  0  0  0  0  0  0  0  0  0
   -3.0697    6.6213  -19.7669 C   0  0  0  0  0  0  0  0  0  0  0  0
   -2.3601    4.2377  -18.7406 C   0  0  0  0  0  0  0  0  0  0  0  0
   -1.8164    5.9487  -18.6663 S   0  0  0  0  0  0  0  0  0  0  0  0
 15 16  1  0  0  0
 16 14  1  0  0  0
 14 13  1  0  0  0
 13 12  1  0  0  0
 12 10  1  0  0  0
 10  1  1  0  0  0
  1  2  2  0  0  0
  2  3  1  0  0  0
  3  4  2  0  0  0
  4  5  1  0  0  0
  5  6  1  0  0  0
  6  7  2  0  0  0
  7  8  1  0  0  0
  8  9  1  0  0  0
  9  1  1  0  0  0
  9  5  2  0  0  0
 10 11  1  0  0  0
M  END
> <minimizedAffinity>
-4.75662

> <minimizedRMSD>
0.92677

$$$$
P60861


 15 16  0  0  0  0  0  0  0  0999 V2000
   -6.9941    4.4158  -18.4427 C   0  0  0  0  0  0  0  0  0  0  0  0
   -8.2026    3.9427  -18.9511 C   0  0  0  0  0  0  0  0  0  0  0  0
   -9.2691    3.7009  -18.1031 C   0  0  0  0  0  0  0  0  0  0  0  0
   -9.2504    3.8615  -16.7699 N   0  0  0  0  0  0  0  0  0  0  0  0
   -8.0815    4.3299  -16.2624 C   0  0  0  0  0  0  0  0  0  0  0  0
   -7.8500    4.5972  -14.8875 C   0  0  0  0  0  0  0  0  0  0  0  0
   -6.5791    5.0561  -14.6373 C   0  0  0  0  0  0  0  0  0  0  0  0
   -5.6639    5.1973  -16.0695 S   0  0  0  0  0  0  0  0  0  0  0  0
   -6.9671    4.6137  -17.0472 C   0  0  0  0  0  0  0  0  0  0  0  0
   -5.8746    4.6510  -19.2063 N   0  0  0  0  0  0  0  0  0  0  0  0
   -5.4020    3.8704  -19.5757 H   0  0  0  0  0  0  0  0  0  0  0  0
   -5.3443    5.9528  -19.5042 C   0  0  0  0  0  0  0  0  0  0  0  0
   -3.2355    6.4801  -20.7358 C   0  0  0  0  0  0  0  0  0  0  0  0
   -3.8812    5.7609  -19.8031 C   0  0  0  0  0  0  0  0  0  0  0  0
   -3.1776    4.7114  -18.9932 C   0  0  0  0  0  0  0  0  0  0  0  0
 13 14  2  0  0  0
 14 15  1  0  0  0
 14 12  1  0  0  0
 12 10  1  0  0  0
 10  1  1  0  0  0
  1  2  2  0  0  0
  2  3  1  0  0  0
  3  4  2  0  0  0
  4  5  1  0  0  0
  5  6  1  0  0  0
  6  7  2  0  0  0
  7  8  1  0  0  0
  8  9  1  0  0  0
  9  1  1  0  0  0
  9  5  2  0  0  0
 10 11  1  0  0  0
M  END
> <minimizedAffinity>
-5.54902

> <minimizedRMSD>
1.12642

$$$$
P60862


 16 17  0  0  0  0  0  0  0  0999 V2000
   -6.4105    4.7468  -17.4085 C   0  0  0  0  0  0  0  0  0  0  0  0
   -7.3455    4.4370  -18.3946 C   0  0  0  0  0  0  0  0  0  0  0  0
   -8.6777    4.2815  -18.0569 C   0  0  0  0  0  0  0  0  0  0  0  0
   -9.1781    4.3838  -16.8148 N   0  0  0  0  0  0  0  0  0  0  0  0
   -8.2716    4.6800  -15.8464 C   0  0  0  0  0  0  0  0  0  0  0  0
   -8.5952    4.8867  -14.4793 C   0  0  0  0  0  0  0  0  0  0  0  0
   -7.4907    5.1500  -13.7048 C   0  0  0  0  0  0  0  0  0  0  0  0
   -6.0600    5.1944  -14.6343 S   0  0  0  0  0  0  0  0  0  0  0  0
   -6.9103    4.8500  -16.0971 C   0  0  0  0  0  0  0  0  0  0  0  0
   -5.0658    5.0038  -17.7177 N   0  0  0  0  0  0  0  0  0  0  0  0
   -4.3660    5.0869  -17.0303 H   0  0  0  0  0  0  0  0  0  0  0  0
   -4.7932    5.1374  -19.1461 C   0  0  0  0  0  0  0  0  0  0  0  0
   -3.3472    4.7612  -19.4725 C   0  0  0  0  0  0  0  0  0  0  0  0
   -2.4815    5.9120  -20.6022 S   0  0  0  0  0  0  0  0  0  0  0  0
   -3.8268    7.1222  -22.7083 C   0  0  0  0  0  0  0  0  0  0  0  0
   -3.8587    6.9388  -21.2030 C   0  0  0  0  0  0  0  0  0  0  0  0
 15 16  1  0  0  0
 16 14  1  0  0  0
 14 13  1  0  0  0
 13 12  1  0  0  0
 12 10  1  0  0  0
 10  1  1  0  0  0
  1  2  2  0  0  0
  2  3  1  0  0  0
  3  4  2  0  0  0
  4  5  1  0  0  0
  5  6  1  0  0  0
  6  7  2  0  0  0
  7  8  1  0  0  0
  8  9  1  0  0  0
  9  1  1  0  0  0
  9  5  2  0  0  0
 10 11  1  0  0  0
M  END
> <minimizedAffinity>
-4.63190

> <minimizedRMSD>
1.24096

$$$$
P60863


 16 17  0  0  0  0  0  0  0  0999 V2000
   -6.0337    4.8366  -18.0046 C   0  0  0  0  0  0  0  0  0  0  0  0
   -6.8962    4.3847  -19.0013 C   0  0  0  0  0  0  0  0  0  0  0  0
   -8.1735    3.9568  -18.6813 C   0  0  0  0  0  0  0  0  0  0  0  0
   -8.6918    3.9236  -17.4428 N   0  0  0  0  0  0  0  0  0  0  0  0
   -7.8736    4.3886  -16.4633 C   0  0  0  0  0  0  0  0  0  0  0  0
   -8.2311    4.4936  -15.0906 C   0  0  0  0  0  0  0  0  0  0  0  0
   -7.2151    4.9869  -14.3081 C   0  0  0  0  0  0  0  0  0  0  0  0
   -5.8306    5.3624  -15.2303 S   0  0  0  0  0  0  0  0  0  0  0  0
   -6.5763    4.8397  -16.7015 C   0  0  0  0  0  0  0  0  0  0  0  0
   -4.7495    5.2898  -18.2388 N   0  0  0  0  0  0  0  0  0  0  0  0
   -4.3757    5.9606  -17.6227 H   0  0  0  0  0  0  0  0  0  0  0  0
   -3.9231    4.8384  -19.3333 C   0  0  0  0  0  0  0  0  0  0  0  0
   -2.5418    4.4229  -18.8297 C   0  0  0  0  0  0  0  0  0  0  0  0
   -2.0819    5.2340  -17.6177 C   0  0  0  0  0  0  0  0  0  0  0  0
    0.1559    5.7264  -16.1620 Cl  0  0  0  0  0  0  0  0  0  0  0  0
   -0.6183    5.6348  -17.7620 C   0  0  0  0  0  0  0  0  0  0  0  0
 15 16  1  0  0  0
 16 14  1  0  0  0
 14 13  1  0  0  0
 13 12  1  0  0  0
 12 10  1  0  0  0
 10  1  1  0  0  0
  1  2  2  0  0  0
  2  3  1  0  0  0
  3  4  2  0  0  0
  4  5  1  0  0  0
  5  6  1  0  0  0
  6  7  2  0  0  0
  7  8  1  0  0  0
  8  9  1  0  0  0
  9  1  1  0  0  0
  9  5  2  0  0  0
 10 11  1  0  0  0
M  END
> <minimizedAffinity>
-4.64894

> <minimizedRMSD>
1.09909

$$$$
P60864


 16 17  0  0  0  0  0  0  0  0999 V2000
   -6.8845    5.2092  -17.6893 C   0  0  0  0  0  0  0  0  0  0  0  0
   -7.7096    4.4076  -18.4764 C   0  0  0  0  0  0  0  0  0  0  0  0
   -8.8107    3.7983  -17.9103 C   0  0  0  0  0  0  0  0  0  0  0  0
   -9.1546    3.8686  -16.6135 N   0  0  0  0  0  0  0  0  0  0  0  0
   -8.3148    4.5944  -15.8275 C   0  0  0  0  0  0  0  0  0  0  0  0
   -8.4852    4.8005  -14.4303 C   0  0  0  0  0  0  0  0  0  0  0  0
   -7.4726    5.5394  -13.8691 C   0  0  0  0  0  0  0  0  0  0  0  0
   -6.3340    6.0356  -15.0349 S   0  0  0  0  0  0  0  0  0  0  0  0
   -7.1842    5.2507  -16.3150 C   0  0  0  0  0  0  0  0  0  0  0  0
   -5.7863    5.8953  -18.2608 N   0  0  0  0  0  0  0  0  0  0  0  0
   -5.6732    6.8732  -18.2577 H   0  0  0  0  0  0  0  0  0  0  0  0
   -4.8457    4.9528  -18.8545 C   0  0  0  0  0  0  0  0  0  0  0  0
   -2.9551    6.6502  -18.9507 C   0  0  0  0  0  0  0  0  0  0  0  0
   -3.3889    5.2603  -18.4695 C   0  0  0  0  0  0  0  0  0  0  0  0
   -2.5191    4.2053  -19.1575 C   0  0  0  0  0  0  0  0  0  0  0  0
   -3.1761    5.1595  -16.9505 C   0  0  0  0  0  0  0  0  0  0  0  0
 13 14  1  0  0  0
 14 15  1  0  0  0
 14 16  1  0  0  0
 14 12  1  0  0  0
 12 10  1  0  0  0
 10  1  1  0  0  0
  1  2  2  0  0  0
  2  3  1  0  0  0
  3  4  2  0  0  0
  4  5  1  0  0  0
  5  6  1  0  0  0
  6  7  2  0  0  0
  7  8  1  0  0  0
  8  9  1  0  0  0
  9  1  1  0  0  0
  9  5  2  0  0  0
 10 11  1  0  0  0
M  END
> <minimizedAffinity>
-5.05656

> <minimizedRMSD>
0.79138

$$$$
P60865


 16 17  0  0  0  0  0  0  0  0999 V2000
   -6.6356    4.5922  -17.9438 C   0  0  0  0  0  0  0  0  0  0  0  0
   -7.6713    4.1707  -18.7714 C   0  0  0  0  0  0  0  0  0  0  0  0
   -8.9332    3.9120  -18.2526 C   0  0  0  0  0  0  0  0  0  0  0  0
   -9.2793    4.0126  -16.9593 N   0  0  0  0  0  0  0  0  0  0  0  0
   -8.2869    4.4295  -16.1343 C   0  0  0  0  0  0  0  0  0  0  0  0
   -8.4329    4.6250  -14.7327 C   0  0  0  0  0  0  0  0  0  0  0  0
   -7.2720    5.0429  -14.1287 C   0  0  0  0  0  0  0  0  0  0  0  0
   -6.0049    5.2341  -15.2545 S   0  0  0  0  0  0  0  0  0  0  0  0
   -6.9987    4.7223  -16.5792 C   0  0  0  0  0  0  0  0  0  0  0  0
   -5.3415    4.8501  -18.3326 N   0  0  0  0  0  0  0  0  0  0  0  0
   -4.7368    4.0798  -18.2318 H   0  0  0  0  0  0  0  0  0  0  0  0
   -3.6743    5.6810  -19.9387 C   0  0  0  0  0  0  0  0  0  0  0  0
   -4.6862    6.0492  -18.8685 C   0  0  0  0  0  0  0  0  0  0  0  0
   -5.7049    7.0720  -19.3905 C   0  0  0  0  0  0  0  0  0  0  0  0
   -3.7975    6.6725  -17.7607 C   0  0  0  0  0  0  0  0  0  0  0  0
   -4.4825    8.1485  -17.0635 Cl  0  0  0  0  0  0  0  0  0  0  0  0
 12 13  1  0  0  0
 13 14  1  0  0  0
 13 15  1  0  0  0
 15 16  1  0  0  0
 13 10  1  0  0  0
 10  1  1  0  0  0
  1  2  2  0  0  0
  2  3  1  0  0  0
  3  4  2  0  0  0
  4  5  1  0  0  0
  5  6  1  0  0  0
  6  7  2  0  0  0
  7  8  1  0  0  0
  8  9  1  0  0  0
  9  1  1  0  0  0
  9  5  2  0  0  0
 10 11  1  0  0  0
M  END
> <minimizedAffinity>
-4.96044

> <minimizedRMSD>
1.17766

$$$$
P60866


 16 17  0  0  0  0  0  0  0  0999 V2000
   -7.0983    4.4434  -18.5135 C   0  0  0  0  0  0  0  0  0  0  0  0
   -8.3219    3.9515  -18.9664 C   0  0  0  0  0  0  0  0  0  0  0  0
   -9.3498    3.7037  -18.0723 C   0  0  0  0  0  0  0  0  0  0  0  0
   -9.2764    3.8675  -16.7414 N   0  0  0  0  0  0  0  0  0  0  0  0
   -8.0863    4.3352  -16.2835 C   0  0  0  0  0  0  0  0  0  0  0  0
   -7.7895    4.5942  -14.9167 C   0  0  0  0  0  0  0  0  0  0  0  0
   -6.5078    5.0497  -14.7237 C   0  0  0  0  0  0  0  0  0  0  0  0
   -5.6620    5.2051  -16.1964 S   0  0  0  0  0  0  0  0  0  0  0  0
   -7.0085    4.6289  -17.1172 C   0  0  0  0  0  0  0  0  0  0  0  0
   -6.0154    4.7034  -19.3326 N   0  0  0  0  0  0  0  0  0  0  0  0
   -5.6024    3.9498  -19.8130 H   0  0  0  0  0  0  0  0  0  0  0  0
   -5.4565    6.0266  -19.5212 C   0  0  0  0  0  0  0  0  0  0  0  0
   -3.9613    5.9836  -19.8922 C   0  0  0  0  0  0  0  0  0  0  0  0
   -3.4572    7.5318  -20.6315 Cl  0  0  0  0  0  0  0  0  0  0  0  0
   -2.4594    4.2548  -18.8571 C   0  0  0  0  0  0  0  0  0  0  0  0
   -2.9849    5.6590  -18.7616 C   0  0  0  0  0  0  0  0  0  0  0  0
 15 16  1  0  0  0
 16 13  1  0  0  0
 13 14  1  0  0  0
 13 12  1  0  0  0
 12 10  1  0  0  0
 10  1  1  0  0  0
  1  2  2  0  0  0
  2  3  1  0  0  0
  3  4  2  0  0  0
  4  5  1  0  0  0
  5  6  1  0  0  0
  6  7  2  0  0  0
  7  8  1  0  0  0
  8  9  1  0  0  0
  9  1  1  0  0  0
  9  5  2  0  0  0
 10 11  1  0  0  0
M  END
> <minimizedAffinity>
-5.53762

> <minimizedRMSD>
1.18781

$$$$
P60867


 16 17  0  0  0  0  0  0  0  0999 V2000
   -6.0967    4.7845  -17.9623 C   0  0  0  0  0  0  0  0  0  0  0  0
   -6.9750    4.3677  -18.9629 C   0  0  0  0  0  0  0  0  0  0  0  0
   -8.2592    3.9478  -18.6468 C   0  0  0  0  0  0  0  0  0  0  0  0
   -8.7850    3.9227  -17.4121 N   0  0  0  0  0  0  0  0  0  0  0  0
   -7.9694    4.3890  -16.4334 C   0  0  0  0  0  0  0  0  0  0  0  0
   -8.3371    4.5026  -15.0644 C   0  0  0  0  0  0  0  0  0  0  0  0
   -7.3286    5.0096  -14.2811 C   0  0  0  0  0  0  0  0  0  0  0  0
   -5.9363    5.3741  -15.1967 S   0  0  0  0  0  0  0  0  0  0  0  0
   -6.6648    4.8207  -16.6672 C   0  0  0  0  0  0  0  0  0  0  0  0
   -4.7559    5.0900  -18.1454 N   0  0  0  0  0  0  0  0  0  0  0  0
   -4.2469    5.3609  -17.3474 H   0  0  0  0  0  0  0  0  0  0  0  0
   -4.0316    5.0472  -19.4072 C   0  0  0  0  0  0  0  0  0  0  0  0
   -2.7004    4.3605  -19.2579 C   0  0  0  0  0  0  0  0  0  0  0  0
   -4.8963    7.0244  -20.7262 C   0  0  0  0  0  0  0  0  0  0  0  0
   -3.7214    6.4654  -19.9380 C   0  0  0  0  0  0  0  0  0  0  0  0
   -3.2844    7.4631  -18.8592 C   0  0  0  0  0  0  0  0  0  0  0  0
 14 15  1  0  0  0
 15 16  1  0  0  0
 15 12  1  0  0  0
 12 13  1  0  0  0
 12 10  1  0  0  0
 10  1  1  0  0  0
  1  2  2  0  0  0
  2  3  1  0  0  0
  3  4  2  0  0  0
  4  5  1  0  0  0
  5  6  1  0  0  0
  6  7  2  0  0  0
  7  8  1  0  0  0
  8  9  1  0  0  0
  9  1  1  0  0  0
  9  5  2  0  0  0
 10 11  1  0  0  0
M  END
> <minimizedAffinity>
-5.00207

> <minimizedRMSD>
1.39195

$$$$
P60868


 15 16  0  0  0  0  0  0  0  0999 V2000
   -6.0814    4.8231  -17.8056 C   0  0  0  0  0  0  0  0  0  0  0  0
   -7.0053    4.4196  -18.7636 C   0  0  0  0  0  0  0  0  0  0  0  0
   -8.2857    4.0574  -18.3823 C   0  0  0  0  0  0  0  0  0  0  0  0
   -8.7485    4.0472  -17.1201 N   0  0  0  0  0  0  0  0  0  0  0  0
   -7.8588    4.4546  -16.1778 C   0  0  0  0  0  0  0  0  0  0  0  0
   -8.1418    4.5808  -14.7901 C   0  0  0  0  0  0  0  0  0  0  0  0
   -7.0590    4.9971  -14.0539 C   0  0  0  0  0  0  0  0  0  0  0  0
   -5.6992    5.2861  -15.0401 S   0  0  0  0  0  0  0  0  0  0  0  0
   -6.5517    4.8307  -16.4756 C   0  0  0  0  0  0  0  0  0  0  0  0
   -4.8064    5.2686  -18.0978 N   0  0  0  0  0  0  0  0  0  0  0  0
   -4.3702    5.8873  -17.4683 H   0  0  0  0  0  0  0  0  0  0  0  0
   -4.0859    4.8712  -19.2784 C   0  0  0  0  0  0  0  0  0  0  0  0
   -0.6270    5.4607  -17.5806 C   0  0  0  0  0  0  0  0  0  0  0  0
   -2.0970    5.5112  -17.8628 C   0  0  0  0  0  0  0  0  0  0  0  0
   -2.6547    4.8005  -18.8543 C   0  0  0  0  0  0  0  0  0  0  0  0
 13 14  1  0  0  0
 14 15  2  0  0  0
 15 12  1  0  0  0
 12 10  1  0  0  0
 10  1  1  0  0  0
  1  2  2  0  0  0
  2  3  1  0  0  0
  3  4  2  0  0  0
  4  5  1  0  0  0
  5  6  1  0  0  0
  6  7  2  0  0  0
  7  8  1  0  0  0
  8  9  1  0  0  0
  9  1  1  0  0  0
  9  5  2  0  0  0
 10 11  1  0  0  0
M  END
> <minimizedAffinity>
-4.83319

> <minimizedRMSD>
0.70780

$$$$
P60869


 15 16  0  0  0  0  0  0  0  0999 V2000
   -6.8592    5.0279  -17.8774 C   0  0  0  0  0  0  0  0  0  0  0  0
   -7.8637    4.3651  -18.5847 C   0  0  0  0  0  0  0  0  0  0  0  0
   -8.9335    3.8156  -17.9090 C   0  0  0  0  0  0  0  0  0  0  0  0
   -9.0898    3.8180  -16.5761 N   0  0  0  0  0  0  0  0  0  0  0  0
   -8.0785    4.3952  -15.8734 C   0  0  0  0  0  0  0  0  0  0  0  0
   -8.0367    4.4937  -14.4540 C   0  0  0  0  0  0  0  0  0  0  0  0
   -6.8942    5.1042  -13.9970 C   0  0  0  0  0  0  0  0  0  0  0  0
   -5.8834    5.6014  -15.2780 S   0  0  0  0  0  0  0  0  0  0  0  0
   -6.9639    4.9859  -16.4744 C   0  0  0  0  0  0  0  0  0  0  0  0
   -5.8667    5.7672  -18.5643 N   0  0  0  0  0  0  0  0  0  0  0  0
   -5.9061    6.7454  -18.6675 H   0  0  0  0  0  0  0  0  0  0  0  0
   -4.7778    4.9561  -19.1079 C   0  0  0  0  0  0  0  0  0  0  0  0
   -2.3946    4.2512  -18.8116 C   0  0  0  0  0  0  0  0  0  0  0  0
   -3.5549    5.0123  -18.1848 C   0  0  0  0  0  0  0  0  0  0  0  0
   -3.1310    6.4595  -17.9223 C   0  0  0  0  0  0  0  0  0  0  0  0
 13 14  1  0  0  0
 14 15  1  0  0  0
 14 12  1  0  0  0
 12 10  1  0  0  0
 10  1  1  0  0  0
  1  2  2  0  0  0
  2  3  1  0  0  0
  3  4  2  0  0  0
  4  5  1  0  0  0
  5  6  1  0  0  0
  6  7  2  0  0  0
  7  8  1  0  0  0
  8  9  1  0  0  0
  9  1  1  0  0  0
  9  5  2  0  0  0
 10 11  1  0  0  0
M  END
> <minimizedAffinity>
-4.93208

> <minimizedRMSD>
0.73327

$$$$
P60870


 16 17  0  0  0  0  0  0  0  0999 V2000
   -5.9110    4.8761  -17.8717 C   0  0  0  0  0  0  0  0  0  0  0  0
   -6.7380    4.4296  -18.9028 C   0  0  0  0  0  0  0  0  0  0  0  0
   -8.0465    4.0763  -18.6352 C   0  0  0  0  0  0  0  0  0  0  0  0
   -8.6188    4.0889  -17.4214 N   0  0  0  0  0  0  0  0  0  0  0  0
   -7.8080    4.4762  -16.4007 C   0  0  0  0  0  0  0  0  0  0  0  0
   -8.2137    4.5728  -15.0400 C   0  0  0  0  0  0  0  0  0  0  0  0
   -7.1968    4.9775  -14.2095 C   0  0  0  0  0  0  0  0  0  0  0  0
   -5.7579    5.2889  -15.0719 S   0  0  0  0  0  0  0  0  0  0  0  0
   -6.4764    4.8581  -16.5812 C   0  0  0  0  0  0  0  0  0  0  0  0
   -4.6629    5.4770  -18.1460 N   0  0  0  0  0  0  0  0  0  0  0  0
   -4.2437    6.1051  -17.5143 H   0  0  0  0  0  0  0  0  0  0  0  0
   -4.0135    5.1184  -19.4286 C   0  0  0  0  0  0  0  0  0  0  0  0
   -1.8049    5.0412  -18.1050 C   0  0  0  0  0  0  0  0  0  0  0  0
   -2.7051    4.3608  -19.1288 C   0  0  0  0  0  0  0  0  0  0  0  0
   -3.8069    6.4048  -20.2606 C   0  0  0  0  0  0  0  0  0  0  0  0
   -2.5251    6.2586  -21.4890 Cl  0  0  0  0  0  0  0  0  0  0  0  0
 13 14  1  0  0  0
 12 14  1  0  0  0
 12 15  1  0  0  0
 15 16  1  0  0  0
 12 10  1  0  0  0
 10  1  1  0  0  0
  1  2  2  0  0  0
  2  3  1  0  0  0
  3  4  2  0  0  0
  4  5  1  0  0  0
  5  6  1  0  0  0
  6  7  2  0  0  0
  7  8  1  0  0  0
  8  9  1  0  0  0
  9  1  1  0  0  0
  9  5  2  0  0  0
 10 11  1  0  0  0
M  END
> <minimizedAffinity>
-4.88606

> <minimizedRMSD>
0.67821

$$$$
P60871


 17 18  0  0  0  0  0  0  0  0999 V2000
   -6.9304    5.5472  -17.5714 C   0  0  0  0  0  0  0  0  0  0  0  0
   -7.7125    4.7181  -18.3732 C   0  0  0  0  0  0  0  0  0  0  0  0
   -8.6736    3.9082  -17.7989 C   0  0  0  0  0  0  0  0  0  0  0  0
   -8.9069    3.7987  -16.4810 N   0  0  0  0  0  0  0  0  0  0  0  0
   -8.0869    4.5350  -15.6846 C   0  0  0  0  0  0  0  0  0  0  0  0
   -8.1494    4.5652  -14.2641 C   0  0  0  0  0  0  0  0  0  0  0  0
   -7.1928    5.3715  -13.6987 C   0  0  0  0  0  0  0  0  0  0  0  0
   -6.2440    6.1456  -14.8816 S   0  0  0  0  0  0  0  0  0  0  0  0
   -7.0983    5.3865  -16.1800 C   0  0  0  0  0  0  0  0  0  0  0  0
   -6.1432    6.5668  -18.1265 N   0  0  0  0  0  0  0  0  0  0  0  0
   -6.5383    7.4589  -18.2579 H   0  0  0  0  0  0  0  0  0  0  0  0
   -4.7330    6.3381  -18.5207 C   0  0  0  0  0  0  0  0  0  0  0  0
   -3.9565    7.5768  -18.0117 C   0  0  0  0  0  0  0  0  0  0  0  0
   -4.6155    6.3369  -20.0421 C   0  0  0  0  0  0  0  0  0  0  0  0
   -4.1381    5.0869  -17.8374 C   0  0  0  0  0  0  0  0  0  0  0  0
   -2.0169    3.9807  -18.9696 C   0  0  0  0  0  0  0  0  0  0  0  0
   -2.9534    4.5548  -18.5013 C   0  0  0  0  0  0  0  0  0  0  0  0
 16 17  3  0  0  0
 17 15  1  0  0  0
 15 12  1  0  0  0
 12 13  1  0  0  0
 12 14  1  0  0  0
 12 10  1  0  0  0
 10  1  1  0  0  0
  1  2  2  0  0  0
  2  3  1  0  0  0
  3  4  2  0  0  0
  4  5  1  0  0  0
  5  6  1  0  0  0
  6  7  2  0  0  0
  7  8  1  0  0  0
  8  9  1  0  0  0
  9  1  1  0  0  0
  9  5  2  0  0  0
 10 11  1  0  0  0
M  END
> <minimizedAffinity>
-4.46403

> <minimizedRMSD>
0.87978

$$$$
P60872


 16 17  0  0  0  0  0  0  0  0999 V2000
   -6.6629    4.6797  -17.4895 C   0  0  0  0  0  0  0  0  0  0  0  0
   -7.6922    4.3387  -18.3622 C   0  0  0  0  0  0  0  0  0  0  0  0
   -8.9788    4.1672  -17.8826 C   0  0  0  0  0  0  0  0  0  0  0  0
   -9.3500    4.2742  -16.5952 N   0  0  0  0  0  0  0  0  0  0  0  0
   -8.3539    4.6090  -15.7344 C   0  0  0  0  0  0  0  0  0  0  0  0
   -8.5169    4.7984  -14.3345 C   0  0  0  0  0  0  0  0  0  0  0  0
   -7.3455    5.1243  -13.6946 C   0  0  0  0  0  0  0  0  0  0  0  0
   -6.0413    5.2421  -14.7861 S   0  0  0  0  0  0  0  0  0  0  0  0
   -7.0374    4.8188  -16.1366 C   0  0  0  0  0  0  0  0  0  0  0  0
   -5.3551    4.8613  -17.8699 N   0  0  0  0  0  0  0  0  0  0  0  0
   -4.6650    4.7723  -17.1734 H   0  0  0  0  0  0  0  0  0  0  0  0
   -4.9133    5.1705  -19.2007 C   0  0  0  0  0  0  0  0  0  0  0  0
   -2.7088    5.2501  -20.3231 C   0  0  0  0  0  0  0  0  0  0  0  0
   -3.4042    5.1052  -19.1810 C   0  0  0  0  0  0  0  0  0  0  0  0
   -2.7738    4.8822  -17.8212 C   0  0  0  0  0  0  0  0  0  0  0  0
   -1.4132    5.5479  -17.6219 C   0  0  0  0  0  0  0  0  0  0  0  0
 13 14  2  0  0  0
 14 15  1  0  0  0
 15 16  1  0  0  0
 14 12  1  0  0  0
 12 10  1  0  0  0
 10  1  1  0  0  0
  1  2  2  0  0  0
  2  3  1  0  0  0
  3  4  2  0  0  0
  4  5  1  0  0  0
  5  6  1  0  0  0
  6  7  2  0  0  0
  7  8  1  0  0  0
  8  9  1  0  0  0
  9  1  1  0  0  0
  9  5  2  0  0  0
 10 11  1  0  0  0
M  END
> <minimizedAffinity>
-5.16124

> <minimizedRMSD>
1.10253

$$$$
P60873


 16 17  0  0  0  0  0  0  0  0999 V2000
   -5.8634    4.8067  -17.9719 C   0  0  0  0  0  0  0  0  0  0  0  0
   -6.6348    4.3804  -19.0490 C   0  0  0  0  0  0  0  0  0  0  0  0
   -7.9641    4.0280  -18.8673 C   0  0  0  0  0  0  0  0  0  0  0  0
   -8.6162    4.0309  -17.6932 N   0  0  0  0  0  0  0  0  0  0  0  0
   -7.8788    4.4390  -16.6299 C   0  0  0  0  0  0  0  0  0  0  0  0
   -8.3648    4.5360  -15.2973 C   0  0  0  0  0  0  0  0  0  0  0  0
   -7.4112    4.9682  -14.4080 C   0  0  0  0  0  0  0  0  0  0  0  0
   -5.9283    5.2975  -15.1823 S   0  0  0  0  0  0  0  0  0  0  0  0
   -6.5441    4.8238  -16.7312 C   0  0  0  0  0  0  0  0  0  0  0  0
   -4.5370    5.1648  -18.0253 N   0  0  0  0  0  0  0  0  0  0  0  0
   -4.0400    5.0171  -17.1884 H   0  0  0  0  0  0  0  0  0  0  0  0
   -3.7428    5.7252  -19.1084 C   0  0  0  0  0  0  0  0  0  0  0  0
   -2.9820    4.6302  -19.8347 C   0  0  0  0  0  0  0  0  0  0  0  0
   -4.5590    6.6078  -20.0590 C   0  0  0  0  0  0  0  0  0  0  0  0
   -1.8211    7.2383  -18.0177 C   0  0  0  0  0  0  0  0  0  0  0  0
   -2.6995    6.5680  -18.4854 C   0  0  0  0  0  0  0  0  0  0  0  0
 15 16  3  0  0  0
 16 12  1  0  0  0
 12 13  1  0  0  0
 12 14  1  0  0  0
 12 10  1  0  0  0
 10  1  1  0  0  0
  1  2  2  0  0  0
  2  3  1  0  0  0
  3  4  2  0  0  0
  4  5  1  0  0  0
  5  6  1  0  0  0
  6  7  2  0  0  0
  7  8  1  0  0  0
  8  9  1  0  0  0
  9  1  1  0  0  0
  9  5  2  0  0  0
 10 11  1  0  0  0
M  END
> <minimizedAffinity>
-4.73514

> <minimizedRMSD>
0.20834

$$$$
P60874


 16 17  0  0  0  0  0  0  0  0999 V2000
   -7.2147    4.9955  -18.1850 C   0  0  0  0  0  0  0  0  0  0  0  0
   -8.2203    4.2320  -18.7719 C   0  0  0  0  0  0  0  0  0  0  0  0
   -9.1805    3.6435  -17.9757 C   0  0  0  0  0  0  0  0  0  0  0  0
   -9.2145    3.6917  -16.6340 N   0  0  0  0  0  0  0  0  0  0  0  0
   -8.1912    4.3715  -16.0508 C   0  0  0  0  0  0  0  0  0  0  0  0
   -8.0227    4.5349  -14.6471 C   0  0  0  0  0  0  0  0  0  0  0  0
   -6.8877    5.2389  -14.3253 C   0  0  0  0  0  0  0  0  0  0  0  0
   -6.0380    5.7442  -15.7155 S   0  0  0  0  0  0  0  0  0  0  0  0
   -7.1842    5.0099  -16.7769 C   0  0  0  0  0  0  0  0  0  0  0  0
   -6.2919    5.6928  -18.9911 N   0  0  0  0  0  0  0  0  0  0  0  0
   -6.4501    6.5986  -19.3427 H   0  0  0  0  0  0  0  0  0  0  0  0
   -5.0805    4.9288  -19.2470 C   0  0  0  0  0  0  0  0  0  0  0  0
   -3.8803    5.7639  -18.8331 C   0  0  0  0  0  0  0  0  0  0  0  0
   -2.9699    4.9790  -17.8998 C   0  0  0  0  0  0  0  0  0  0  0  0
   -0.6801    5.7626  -17.2140 C   0  0  0  0  0  0  0  0  0  0  0  0
   -1.5332    5.3431  -18.1567 C   0  0  0  0  0  0  0  0  0  0  0  0
 15 16  2  0  0  0
 16 14  1  0  0  0
 14 13  1  0  0  0
 13 12  1  0  0  0
 12 10  1  0  0  0
 10  1  1  0  0  0
  1  2  2  0  0  0
  2  3  1  0  0  0
  3  4  2  0  0  0
  4  5  1  0  0  0
  5  6  1  0  0  0
  6  7  2  0  0  0
  7  8  1  0  0  0
  8  9  1  0  0  0
  9  1  1  0  0  0
  9  5  2  0  0  0
 10 11  1  0  0  0
M  END
> <minimizedAffinity>
-4.76189

> <minimizedRMSD>
0.95586

$$$$
P60875


 15 16  0  0  0  0  0  0  0  0999 V2000
   -7.2287    5.0315  -18.1932 C   0  0  0  0  0  0  0  0  0  0  0  0
   -8.2829    4.3028  -18.7390 C   0  0  0  0  0  0  0  0  0  0  0  0
   -9.2165    3.7253  -17.9044 C   0  0  0  0  0  0  0  0  0  0  0  0
   -9.1810    3.7522  -16.5623 N   0  0  0  0  0  0  0  0  0  0  0  0
   -8.1108    4.3935  -16.0218 C   0  0  0  0  0  0  0  0  0  0  0  0
   -7.8648    4.5228  -14.6260 C   0  0  0  0  0  0  0  0  0  0  0  0
   -6.6957    5.1900  -14.3510 C   0  0  0  0  0  0  0  0  0  0  0  0
   -5.9063    5.7016  -15.7740 S   0  0  0  0  0  0  0  0  0  0  0  0
   -7.1256    5.0195  -16.7881 C   0  0  0  0  0  0  0  0  0  0  0  0
   -6.3214    5.7056  -19.0416 N   0  0  0  0  0  0  0  0  0  0  0  0
   -6.4654    6.6122  -19.3975 H   0  0  0  0  0  0  0  0  0  0  0  0
   -5.1457    4.8911  -19.3243 C   0  0  0  0  0  0  0  0  0  0  0  0
   -3.8807    5.6789  -19.0063 C   0  0  0  0  0  0  0  0  0  0  0  0
   -1.6136    5.2447  -18.0590 C   0  0  0  0  0  0  0  0  0  0  0  0
   -2.8316    4.8010  -18.3965 C   0  0  0  0  0  0  0  0  0  0  0  0
 14 15  2  0  0  0
 15 13  1  0  0  0
 13 12  1  0  0  0
 12 10  1  0  0  0
 10  1  1  0  0  0
  1  2  2  0  0  0
  2  3  1  0  0  0
  3  4  2  0  0  0
  4  5  1  0  0  0
  5  6  1  0  0  0
  6  7  2  0  0  0
  7  8  1  0  0  0
  8  9  1  0  0  0
  9  1  1  0  0  0
  9  5  2  0  0  0
 10 11  1  0  0  0
M  END
> <minimizedAffinity>
-4.81048

> <minimizedRMSD>
0.83135

$$$$
P60876


 16 17  0  0  0  0  0  0  0  0999 V2000
   -6.6911    4.6839  -17.5338 C   0  0  0  0  0  0  0  0  0  0  0  0
   -7.7389    4.3602  -18.3947 C   0  0  0  0  0  0  0  0  0  0  0  0
   -9.0215    4.1931  -17.9000 C   0  0  0  0  0  0  0  0  0  0  0  0
   -9.3724    4.2857  -16.6070 N   0  0  0  0  0  0  0  0  0  0  0  0
   -8.3648    4.6125  -15.7575 C   0  0  0  0  0  0  0  0  0  0  0  0
   -8.5090    4.7762  -14.3521 C   0  0  0  0  0  0  0  0  0  0  0  0
   -7.3308    5.1065  -13.7267 C   0  0  0  0  0  0  0  0  0  0  0  0
   -6.0435    5.2491  -14.8361 S   0  0  0  0  0  0  0  0  0  0  0  0
   -7.0533    4.8258  -16.1763 C   0  0  0  0  0  0  0  0  0  0  0  0
   -5.3619    4.7865  -17.9231 N   0  0  0  0  0  0  0  0  0  0  0  0
   -4.6587    4.5022  -17.2954 H   0  0  0  0  0  0  0  0  0  0  0  0
   -4.9752    5.2995  -19.2252 C   0  0  0  0  0  0  0  0  0  0  0  0
   -3.4569    5.4223  -19.3090 C   0  0  0  0  0  0  0  0  0  0  0  0
   -1.0537    5.8823  -18.1949 C   0  0  0  0  0  0  0  0  0  0  0  0
   -2.7166    5.4196  -17.6519 S   0  0  0  0  0  0  0  0  0  0  0  0
   -3.3489    6.7079  -16.8182 O   0  0  0  0  0  0  0  0  0  0  0  0
 15 14  1  0  0  0
 15 16  1  0  0  0
 15 13  1  0  0  0
 13 12  1  0  0  0
 12 10  1  0  0  0
 10  1  1  0  0  0
  1  2  2  0  0  0
  2  3  1  0  0  0
  3  4  2  0  0  0
  4  5  1  0  0  0
  5  6  1  0  0  0
  6  7  2  0  0  0
  7  8  1  0  0  0
  8  9  1  0  0  0
  9  1  1  0  0  0
  9  5  2  0  0  0
 10 11  1  0  0  0
M  CHG 1  15   1
M  CHG 1  16  -1
M  END
> <minimizedAffinity>
-4.52584

> <minimizedRMSD>
1.32690

$$$$
P60877


 15 16  0  0  0  0  0  0  0  0999 V2000
   -6.5510    4.6664  -17.5852 C   0  0  0  0  0  0  0  0  0  0  0  0
   -7.5736    4.3190  -18.4653 C   0  0  0  0  0  0  0  0  0  0  0  0
   -8.8599    4.1148  -17.9987 C   0  0  0  0  0  0  0  0  0  0  0  0
   -9.2445    4.2254  -16.7170 N   0  0  0  0  0  0  0  0  0  0  0  0
   -8.2645    4.5926  -15.8503 C   0  0  0  0  0  0  0  0  0  0  0  0
   -8.4561    4.8291  -14.4610 C   0  0  0  0  0  0  0  0  0  0  0  0
   -7.2971    5.1786  -13.8110 C   0  0  0  0  0  0  0  0  0  0  0  0
   -5.9723    5.2651  -14.8810 S   0  0  0  0  0  0  0  0  0  0  0  0
   -6.9431    4.8083  -16.2377 C   0  0  0  0  0  0  0  0  0  0  0  0
   -5.2472    4.9255  -17.9777 N   0  0  0  0  0  0  0  0  0  0  0  0
   -4.5158    4.7602  -17.3397 H   0  0  0  0  0  0  0  0  0  0  0  0
   -4.9252    5.4325  -19.2991 C   0  0  0  0  0  0  0  0  0  0  0  0
   -2.8547    6.8877  -18.9164 C   0  0  0  0  0  0  0  0  0  0  0  0
   -3.4181    5.6082  -19.5156 C   0  0  0  0  0  0  0  0  0  0  0  0
   -2.5479    4.1972  -18.8697 Cl  0  0  0  0  0  0  0  0  0  0  0  0
 14 13  1  0  0  0
 14 15  1  0  0  0
 14 12  1  0  0  0
 12 10  1  0  0  0
 10  1  1  0  0  0
  1  2  2  0  0  0
  2  3  1  0  0  0
  3  4  2  0  0  0
  4  5  1  0  0  0
  5  6  1  0  0  0
  6  7  2  0  0  0
  7  8  1  0  0  0
  8  9  1  0  0  0
  9  1  1  0  0  0
  9  5  2  0  0  0
 10 11  1  0  0  0
M  END
> <minimizedAffinity>
-4.97964

> <minimizedRMSD>
0.74368

$$$$
P60878


 15 16  0  0  0  0  0  0  0  0999 V2000
   -7.1800    4.3747  -18.3910 C   0  0  0  0  0  0  0  0  0  0  0  0
   -8.4154    3.9930  -18.9143 C   0  0  0  0  0  0  0  0  0  0  0  0
   -9.5123    3.8588  -18.0817 C   0  0  0  0  0  0  0  0  0  0  0  0
   -9.5008    4.0420  -16.7518 N   0  0  0  0  0  0  0  0  0  0  0  0
   -8.3073    4.4259  -16.2307 C   0  0  0  0  0  0  0  0  0  0  0  0
   -8.0767    4.6913  -14.8553 C   0  0  0  0  0  0  0  0  0  0  0  0
   -6.7800    5.0632  -14.5925 C   0  0  0  0  0  0  0  0  0  0  0  0
   -5.8369    5.1198  -16.0129 S   0  0  0  0  0  0  0  0  0  0  0  0
   -7.1610    4.6064  -17.0005 C   0  0  0  0  0  0  0  0  0  0  0  0
   -6.0226    4.4663  -19.1454 N   0  0  0  0  0  0  0  0  0  0  0  0
   -5.6380    3.6484  -19.5356 H   0  0  0  0  0  0  0  0  0  0  0  0
   -5.3670    5.7295  -19.3734 C   0  0  0  0  0  0  0  0  0  0  0  0
   -1.4485    5.3383  -18.1316 C   0  0  0  0  0  0  0  0  0  0  0  0
   -2.8278    5.5014  -18.5911 C   0  0  0  0  0  0  0  0  0  0  0  0
   -3.9690    5.5999  -18.9506 C   0  0  0  0  0  0  0  0  0  0  0  0
 13 14  1  0  0  0
 14 15  3  0  0  0
 15 12  1  0  0  0
 12 10  1  0  0  0
 10  1  1  0  0  0
  1  2  2  0  0  0
  2  3  1  0  0  0
  3  4  2  0  0  0
  4  5  1  0  0  0
  5  6  1  0  0  0
  6  7  2  0  0  0
  7  8  1  0  0  0
  8  9  1  0  0  0
  9  1  1  0  0  0
  9  5  2  0  0  0
 10 11  1  0  0  0
M  END
> <minimizedAffinity>
-5.33553

> <minimizedRMSD>
1.20920

$$$$
P60879


 15 16  0  0  0  0  0  0  0  0999 V2000
   -6.5153    4.6660  -17.6035 C   0  0  0  0  0  0  0  0  0  0  0  0
   -7.5182    4.3235  -18.5082 C   0  0  0  0  0  0  0  0  0  0  0  0
   -8.8213    4.1541  -18.0750 C   0  0  0  0  0  0  0  0  0  0  0  0
   -9.2369    4.2827  -16.8045 N   0  0  0  0  0  0  0  0  0  0  0  0
   -8.2728    4.6353  -15.9155 C   0  0  0  0  0  0  0  0  0  0  0  0
   -8.5000    4.8876  -14.5372 C   0  0  0  0  0  0  0  0  0  0  0  0
   -7.3515    5.2081  -13.8542 C   0  0  0  0  0  0  0  0  0  0  0  0
   -5.9929    5.2477  -14.8845 S   0  0  0  0  0  0  0  0  0  0  0  0
   -6.9385    4.8205  -16.2684 C   0  0  0  0  0  0  0  0  0  0  0  0
   -5.2055    4.9083  -17.9657 N   0  0  0  0  0  0  0  0  0  0  0  0
   -4.4913    4.6823  -17.3269 H   0  0  0  0  0  0  0  0  0  0  0  0
   -4.8359    5.4790  -19.2410 C   0  0  0  0  0  0  0  0  0  0  0  0
   -2.6481    4.3534  -18.7173 C   0  0  0  0  0  0  0  0  0  0  0  0
   -3.3974    5.1378  -19.4992 C   0  0  0  0  0  0  0  0  0  0  0  0
   -2.6959    5.8443  -20.9125 Cl  0  0  0  0  0  0  0  0  0  0  0  0
 13 14  2  0  0  0
 14 15  1  0  0  0
 14 12  1  0  0  0
 12 10  1  0  0  0
 10  1  1  0  0  0
  1  2  2  0  0  0
  2  3  1  0  0  0
  3  4  2  0  0  0
  4  5  1  0  0  0
  5  6  1  0  0  0
  6  7  2  0  0  0
  7  8  1  0  0  0
  8  9  1  0  0  0
  9  1  1  0  0  0
  9  5  2  0  0  0
 10 11  1  0  0  0
M  END
> <minimizedAffinity>
-5.11872

> <minimizedRMSD>
0.97367

$$$$
P60880


 16 17  0  0  0  0  0  0  0  0999 V2000
   -6.3531    4.8859  -17.1673 C   0  0  0  0  0  0  0  0  0  0  0  0
   -7.2443    4.5367  -18.1797 C   0  0  0  0  0  0  0  0  0  0  0  0
   -8.5682    4.2661  -17.8780 C   0  0  0  0  0  0  0  0  0  0  0  0
   -9.1025    4.2812  -16.6455 N   0  0  0  0  0  0  0  0  0  0  0  0
   -8.2475    4.6329  -15.6505 C   0  0  0  0  0  0  0  0  0  0  0  0
   -8.5976    4.7288  -14.2753 C   0  0  0  0  0  0  0  0  0  0  0  0
   -7.5434    5.1039  -13.4777 C   0  0  0  0  0  0  0  0  0  0  0  0
   -6.1267    5.3743  -14.3874 S   0  0  0  0  0  0  0  0  0  0  0  0
   -6.9080    4.9454  -15.8708 C   0  0  0  0  0  0  0  0  0  0  0  0
   -5.0042    5.1049  -17.3640 N   0  0  0  0  0  0  0  0  0  0  0  0
   -4.4572    5.3527  -16.5839 H   0  0  0  0  0  0  0  0  0  0  0  0
   -4.3509    4.9930  -18.6385 C   0  0  0  0  0  0  0  0  0  0  0  0
   -2.3198    7.3225  -18.1378 C   0  0  0  0  0  0  0  0  0  0  0  0
   -1.9960    5.8549  -18.1359 C   0  0  0  0  0  0  0  0  0  0  0  0
   -0.5509    5.5354  -17.8535 C   0  0  0  0  0  0  0  0  0  0  0  0
   -2.8870    4.8648  -18.3423 C   0  0  0  0  0  0  0  0  0  0  0  0
 13 14  1  0  0  0
 14 15  1  0  0  0
 14 16  2  0  0  0
 16 12  1  0  0  0
 12 10  1  0  0  0
 10  1  1  0  0  0
  1  2  2  0  0  0
  2  3  1  0  0  0
  3  4  2  0  0  0
  4  5  1  0  0  0
  5  6  1  0  0  0
  6  7  2  0  0  0
  7  8  1  0  0  0
  8  9  1  0  0  0
  9  1  1  0  0  0
  9  5  2  0  0  0
 10 11  1  0  0  0
M  END
> <minimizedAffinity>
-4.86380

> <minimizedRMSD>
1.14349

$$$$
P60881


 16 17  0  0  0  0  0  0  0  0999 V2000
   -5.9869    4.9177  -17.7082 C   0  0  0  0  0  0  0  0  0  0  0  0
   -6.7661    4.4744  -18.7751 C   0  0  0  0  0  0  0  0  0  0  0  0
   -8.0757    4.0919  -18.5572 C   0  0  0  0  0  0  0  0  0  0  0  0
   -8.6843    4.0577  -17.3601 N   0  0  0  0  0  0  0  0  0  0  0  0
   -7.9132    4.4353  -16.3055 C   0  0  0  0  0  0  0  0  0  0  0  0
   -8.3560    4.4753  -14.9536 C   0  0  0  0  0  0  0  0  0  0  0  0
   -7.3692    4.8681  -14.0817 C   0  0  0  0  0  0  0  0  0  0  0  0
   -5.9129    5.2328  -14.8927 S   0  0  0  0  0  0  0  0  0  0  0  0
   -6.5864    4.8509  -16.4353 C   0  0  0  0  0  0  0  0  0  0  0  0
   -4.6729    5.3916  -17.9211 N   0  0  0  0  0  0  0  0  0  0  0  0
   -4.1999    5.9906  -17.2993 H   0  0  0  0  0  0  0  0  0  0  0  0
   -4.0954    4.8944  -19.1648 C   0  0  0  0  0  0  0  0  0  0  0  0
   -2.6297    4.5168  -18.9735 C   0  0  0  0  0  0  0  0  0  0  0  0
   -1.7208    5.7278  -18.7733 C   0  0  0  0  0  0  0  0  0  0  0  0
   -1.3930    5.9102  -16.2489 C   0  0  0  0  0  0  0  0  0  0  0  0
   -0.7613    5.5736  -17.5908 C   0  0  0  0  0  0  0  0  0  0  0  0
 15 16  1  0  0  0
 16 14  1  0  0  0
 14 13  1  0  0  0
 13 12  1  0  0  0
 12 10  1  0  0  0
 10  1  1  0  0  0
  1  2  2  0  0  0
  2  3  1  0  0  0
  3  4  2  0  0  0
  4  5  1  0  0  0
  5  6  1  0  0  0
  6  7  2  0  0  0
  7  8  1  0  0  0
  8  9  1  0  0  0
  9  1  1  0  0  0
  9  5  2  0  0  0
 10 11  1  0  0  0
M  END
> <minimizedAffinity>
-4.53968

> <minimizedRMSD>
1.24423

$$$$
P60882


 16 17  0  0  0  0  0  0  0  0999 V2000
   -7.2579    5.0512  -18.2011 C   0  0  0  0  0  0  0  0  0  0  0  0
   -8.3106    4.3121  -18.7367 C   0  0  0  0  0  0  0  0  0  0  0  0
   -9.2293    3.7269  -17.8925 C   0  0  0  0  0  0  0  0  0  0  0  0
   -9.1786    3.7556  -16.5513 N   0  0  0  0  0  0  0  0  0  0  0  0
   -8.1043    4.3997  -16.0221 C   0  0  0  0  0  0  0  0  0  0  0  0
   -7.8376    4.5262  -14.6301 C   0  0  0  0  0  0  0  0  0  0  0  0
   -6.6626    5.1893  -14.3703 C   0  0  0  0  0  0  0  0  0  0  0  0
   -5.8917    5.7002  -15.8031 S   0  0  0  0  0  0  0  0  0  0  0  0
   -7.1319    5.0311  -16.7992 C   0  0  0  0  0  0  0  0  0  0  0  0
   -6.3514    5.7194  -19.0589 N   0  0  0  0  0  0  0  0  0  0  0  0
   -6.4943    6.6189  -19.4326 H   0  0  0  0  0  0  0  0  0  0  0  0
   -5.1740    4.8909  -19.3138 C   0  0  0  0  0  0  0  0  0  0  0  0
   -3.8890    5.7183  -19.2126 C   0  0  0  0  0  0  0  0  0  0  0  0
   -3.5528    6.4272  -20.5183 C   0  0  0  0  0  0  0  0  0  0  0  0
   -1.3683    5.6956  -18.0385 C   0  0  0  0  0  0  0  0  0  0  0  0
   -2.5735    4.5488  -18.7524 S   0  0  0  0  0  0  0  0  0  0  0  0
 15 16  1  0  0  0
 16 13  1  0  0  0
 13 14  1  0  0  0
 13 12  1  0  0  0
 12 10  1  0  0  0
 10  1  1  0  0  0
  1  2  2  0  0  0
  2  3  1  0  0  0
  3  4  2  0  0  0
  4  5  1  0  0  0
  5  6  1  0  0  0
  6  7  2  0  0  0
  7  8  1  0  0  0
  8  9  1  0  0  0
  9  1  1  0  0  0
  9  5  2  0  0  0
 10 11  1  0  0  0
M  END
> <minimizedAffinity>
-4.78709

> <minimizedRMSD>
0.77512

$$$$
P60883


 17 18  0  0  0  0  0  0  0  0999 V2000
   -7.0650    5.1203  -17.8909 C   0  0  0  0  0  0  0  0  0  0  0  0
   -8.0499    4.4013  -18.5654 C   0  0  0  0  0  0  0  0  0  0  0  0
   -9.0865    3.8326  -17.8537 C   0  0  0  0  0  0  0  0  0  0  0  0
   -9.2201    3.8681  -16.5174 N   0  0  0  0  0  0  0  0  0  0  0  0
   -8.2273    4.5137  -15.8491 C   0  0  0  0  0  0  0  0  0  0  0  0
   -8.1683    4.6758  -14.4371 C   0  0  0  0  0  0  0  0  0  0  0  0
   -7.0375    5.3335  -14.0186 C   0  0  0  0  0  0  0  0  0  0  0  0
   -6.0610    5.8065  -15.3320 S   0  0  0  0  0  0  0  0  0  0  0  0
   -7.1461    5.1230  -16.4863 C   0  0  0  0  0  0  0  0  0  0  0  0
   -6.0321    5.7744  -18.6021 N   0  0  0  0  0  0  0  0  0  0  0  0
   -6.0027    6.7426  -18.7778 H   0  0  0  0  0  0  0  0  0  0  0  0
   -5.0145    4.8221  -19.0415 C   0  0  0  0  0  0  0  0  0  0  0  0
   -3.0200    5.0532  -17.4746 C   0  0  0  0  0  0  0  0  0  0  0  0
   -3.5836    5.3557  -18.8697 C   0  0  0  0  0  0  0  0  0  0  0  0
   -2.7175    4.6562  -19.9192 C   0  0  0  0  0  0  0  0  0  0  0  0
   -3.5481    6.8099  -19.1152 C   0  0  0  0  0  0  0  0  0  0  0  0
   -3.5502    7.9554  -19.3066 N   0  0  0  0  0  0  0  0  0  0  0  0
 13 14  1  0  0  0
 14 15  1  0  0  0
 14 16  1  0  0  0
 16 17  3  0  0  0
 14 12  1  0  0  0
 12 10  1  0  0  0
 10  1  1  0  0  0
  1  2  2  0  0  0
  2  3  1  0  0  0
  3  4  2  0  0  0
  4  5  1  0  0  0
  5  6  1  0  0  0
  6  7  2  0  0  0
  7  8  1  0  0  0
  8  9  1  0  0  0
  9  1  1  0  0  0
  9  5  2  0  0  0
 10 11  1  0  0  0
M  END
> <minimizedAffinity>
-4.94613

> <minimizedRMSD>
0.90868

$$$$
P60884


 16 17  0  0  0  0  0  0  0  0999 V2000
   -7.2448    5.0512  -18.1214 C   0  0  0  0  0  0  0  0  0  0  0  0
   -8.2680    4.3251  -18.7281 C   0  0  0  0  0  0  0  0  0  0  0  0
   -9.2208    3.7072  -17.9437 C   0  0  0  0  0  0  0  0  0  0  0  0
   -9.2339    3.7038  -16.6001 N   0  0  0  0  0  0  0  0  0  0  0  0
   -8.2073    4.3683  -16.0053 C   0  0  0  0  0  0  0  0  0  0  0  0
   -8.0432    4.5180  -14.6030 C   0  0  0  0  0  0  0  0  0  0  0  0
   -6.8972    5.1985  -14.2675 C   0  0  0  0  0  0  0  0  0  0  0  0
   -6.0371    5.7097  -15.6488 S   0  0  0  0  0  0  0  0  0  0  0  0
   -7.2018    5.0190  -16.7181 C   0  0  0  0  0  0  0  0  0  0  0  0
   -6.3206    5.7812  -18.8930 N   0  0  0  0  0  0  0  0  0  0  0  0
   -6.3401    6.7603  -18.9946 H   0  0  0  0  0  0  0  0  0  0  0  0
   -5.3352    4.9194  -19.5211 C   0  0  0  0  0  0  0  0  0  0  0  0
   -4.0376    5.0152  -18.7242 C   0  0  0  0  0  0  0  0  0  0  0  0
   -2.8314    4.6771  -19.5845 C   0  0  0  0  0  0  0  0  0  0  0  0
   -2.6989    6.4499  -21.5127 N   0  0  0  0  0  0  0  0  0  0  0  0
   -2.6942    5.6865  -20.6384 C   0  0  0  0  0  0  0  0  0  0  0  0
 15 16  3  0  0  0
 16 14  1  0  0  0
 14 13  1  0  0  0
 13 12  1  0  0  0
 12 10  1  0  0  0
 10  1  1  0  0  0
  1  2  2  0  0  0
  2  3  1  0  0  0
  3  4  2  0  0  0
  4  5  1  0  0  0
  5  6  1  0  0  0
  6  7  2  0  0  0
  7  8  1  0  0  0
  8  9  1  0  0  0
  9  1  1  0  0  0
  9  5  2  0  0  0
 10 11  1  0  0  0
M  END
> <minimizedAffinity>
-4.74099

> <minimizedRMSD>
1.01630

$$$$
P60885


 14 15  0  0  0  0  0  0  0  0999 V2000
   -6.6269    4.6730  -17.3809 C   0  0  0  0  0  0  0  0  0  0  0  0
   -7.6457    4.3522  -18.2782 C   0  0  0  0  0  0  0  0  0  0  0  0
   -8.9430    4.1745  -17.8331 C   0  0  0  0  0  0  0  0  0  0  0  0
   -9.3408    4.2786  -16.5559 N   0  0  0  0  0  0  0  0  0  0  0  0
   -8.3655    4.6156  -15.6730 C   0  0  0  0  0  0  0  0  0  0  0  0
   -8.5773    4.8466  -14.2883 C   0  0  0  0  0  0  0  0  0  0  0  0
   -7.4199    5.1527  -13.6136 C   0  0  0  0  0  0  0  0  0  0  0  0
   -6.0724    5.2035  -14.6580 S   0  0  0  0  0  0  0  0  0  0  0  0
   -7.0343    4.8041  -16.0384 C   0  0  0  0  0  0  0  0  0  0  0  0
   -5.3205    4.9272  -17.7626 N   0  0  0  0  0  0  0  0  0  0  0  0
   -4.5943    4.7535  -17.1209 H   0  0  0  0  0  0  0  0  0  0  0  0
   -4.9889    5.4385  -19.0705 C   0  0  0  0  0  0  0  0  0  0  0  0
   -2.6323    4.4300  -19.7929 C   0  0  0  0  0  0  0  0  0  0  0  0
   -3.6879    4.9009  -19.4739 C   0  0  0  0  0  0  0  0  0  0  0  0
 13 14  3  0  0  0
 14 12  1  0  0  0
 12 10  1  0  0  0
 10  1  1  0  0  0
  1  2  2  0  0  0
  2  3  1  0  0  0
  3  4  2  0  0  0
  4  5  1  0  0  0
  5  6  1  0  0  0
  6  7  2  0  0  0
  7  8  1  0  0  0
  8  9  1  0  0  0
  9  1  1  0  0  0
  9  5  2  0  0  0
 10 11  1  0  0  0
M  END
> <minimizedAffinity>
-4.91678

> <minimizedRMSD>
0.99818

$$$$
P60886


 16 17  0  0  0  0  0  0  0  0999 V2000
   -6.5314    4.6895  -17.8532 C   0  0  0  0  0  0  0  0  0  0  0  0
   -7.5937    4.3390  -18.6771 C   0  0  0  0  0  0  0  0  0  0  0  0
   -8.8315    4.0621  -18.1231 C   0  0  0  0  0  0  0  0  0  0  0  0
   -9.1213    4.0896  -16.8096 N   0  0  0  0  0  0  0  0  0  0  0  0
   -8.0956    4.4561  -15.9994 C   0  0  0  0  0  0  0  0  0  0  0  0
   -8.1743    4.5672  -14.5842 C   0  0  0  0  0  0  0  0  0  0  0  0
   -6.9916    4.9639  -14.0079 C   0  0  0  0  0  0  0  0  0  0  0  0
   -5.7779    5.2268  -15.1759 S   0  0  0  0  0  0  0  0  0  0  0  0
   -6.8249    4.7670  -16.4744 C   0  0  0  0  0  0  0  0  0  0  0  0
   -5.2283    4.8501  -18.3300 N   0  0  0  0  0  0  0  0  0  0  0  0
   -4.6415    4.0615  -18.3848 H   0  0  0  0  0  0  0  0  0  0  0  0
   -4.7022    6.1593  -18.7535 C   0  0  0  0  0  0  0  0  0  0  0  0
   -5.6586    7.2964  -18.3475 C   0  0  0  0  0  0  0  0  0  0  0  0
   -4.4280    6.2487  -20.2503 C   0  0  0  0  0  0  0  0  0  0  0  0
   -2.6886    5.0571  -17.5355 C   0  0  0  0  0  0  0  0  0  0  0  0
   -3.3695    6.3487  -17.9744 C   0  0  0  0  0  0  0  0  0  0  0  0
 15 16  1  0  0  0
 16 12  1  0  0  0
 12 13  1  0  0  0
 12 14  1  0  0  0
 12 10  1  0  0  0
 10  1  1  0  0  0
  1  2  2  0  0  0
  2  3  1  0  0  0
  3  4  2  0  0  0
  4  5  1  0  0  0
  5  6  1  0  0  0
  6  7  2  0  0  0
  7  8  1  0  0  0
  8  9  1  0  0  0
  9  1  1  0  0  0
  9  5  2  0  0  0
 10 11  1  0  0  0
M  END
> <minimizedAffinity>
-4.96249

> <minimizedRMSD>
0.82877

$$$$
P60887


 16 17  0  0  0  0  0  0  0  0999 V2000
   -5.8911    4.9192  -18.0054 C   0  0  0  0  0  0  0  0  0  0  0  0
   -6.7757    4.4435  -18.9762 C   0  0  0  0  0  0  0  0  0  0  0  0
   -8.0434    4.0275  -18.6188 C   0  0  0  0  0  0  0  0  0  0  0  0
   -8.5243    4.0104  -17.3667 N   0  0  0  0  0  0  0  0  0  0  0  0
   -7.6635    4.4441  -16.4080 C   0  0  0  0  0  0  0  0  0  0  0  0
   -7.9869    4.5386  -15.0277 C   0  0  0  0  0  0  0  0  0  0  0  0
   -6.9343    4.9889  -14.2677 C   0  0  0  0  0  0  0  0  0  0  0  0
   -5.5648    5.3444  -15.2232 S   0  0  0  0  0  0  0  0  0  0  0  0
   -6.3655    4.8825  -16.6806 C   0  0  0  0  0  0  0  0  0  0  0  0
   -4.6720    5.5355  -18.3694 N   0  0  0  0  0  0  0  0  0  0  0  0
   -4.3768    6.3885  -17.9764 H   0  0  0  0  0  0  0  0  0  0  0  0
   -3.8787    4.8206  -19.3694 C   0  0  0  0  0  0  0  0  0  0  0  0
   -2.5332    4.4009  -18.7870 C   0  0  0  0  0  0  0  0  0  0  0  0
   -2.1231    5.2947  -17.6169 C   0  0  0  0  0  0  0  0  0  0  0  0
    0.5198    5.6868  -17.5963 C   0  0  0  0  0  0  0  0  0  0  0  0
   -0.6680    5.5108  -17.6017 C   0  0  0  0  0  0  0  0  0  0  0  0
 15 16  3  0  0  0
 16 14  1  0  0  0
 14 13  1  0  0  0
 13 12  1  0  0  0
 12 10  1  0  0  0
 10  1  1  0  0  0
  1  2  2  0  0  0
  2  3  1  0  0  0
  3  4  2  0  0  0
  4  5  1  0  0  0
  5  6  1  0  0  0
  6  7  2  0  0  0
  7  8  1  0  0  0
  8  9  1  0  0  0
  9  1  1  0  0  0
  9  5  2  0  0  0
 10 11  1  0  0  0
M  END
> <minimizedAffinity>
-4.74801

> <minimizedRMSD>
0.68428

$$$$
P60888


 17 18  0  0  0  0  0  0  0  0999 V2000
   -6.1313    4.7654  -17.7164 C   0  0  0  0  0  0  0  0  0  0  0  0
   -7.0193    4.3598  -18.7156 C   0  0  0  0  0  0  0  0  0  0  0  0
   -8.3206    4.0056  -18.4062 C   0  0  0  0  0  0  0  0  0  0  0  0
   -8.8478    4.0136  -17.1733 N   0  0  0  0  0  0  0  0  0  0  0  0
   -8.0098    4.4328  -16.1899 C   0  0  0  0  0  0  0  0  0  0  0  0
   -8.3748    4.5691  -14.8218 C   0  0  0  0  0  0  0  0  0  0  0  0
   -7.3378    5.0052  -14.0332 C   0  0  0  0  0  0  0  0  0  0  0  0
   -5.9235    5.2889  -14.9430 S   0  0  0  0  0  0  0  0  0  0  0  0
   -6.6839    4.8024  -16.4183 C   0  0  0  0  0  0  0  0  0  0  0  0
   -4.8211    5.1694  -17.9539 N   0  0  0  0  0  0  0  0  0  0  0  0
   -4.2604    5.4427  -17.1922 H   0  0  0  0  0  0  0  0  0  0  0  0
   -4.5647    6.5536  -19.9479 C   0  0  0  0  0  0  0  0  0  0  0  0
   -4.2508    5.2005  -19.3034 C   0  0  0  0  0  0  0  0  0  0  0  0
   -2.7403    4.8831  -19.3684 C   0  0  0  0  0  0  0  0  0  0  0  0
   -1.8373    5.8108  -18.5814 C   0  0  0  0  0  0  0  0  0  0  0  0
   -2.5176    3.6041  -18.9638 F   0  0  0  0  0  0  0  0  0  0  0  0
   -2.3754    4.9069  -20.6935 F   0  0  0  0  0  0  0  0  0  0  0  0
 13 12  1  0  0  0
 13 10  1  0  0  0
 10  1  1  0  0  0
  1  2  2  0  0  0
  2  3  1  0  0  0
  3  4  2  0  0  0
  4  5  1  0  0  0
  5  6  1  0  0  0
  6  7  2  0  0  0
  7  8  1  0  0  0
  8  9  1  0  0  0
 13 14  1  0  0  0
 14 15  1  0  0  0
 14 16  1  0  0  0
 14 17  1  0  0  0
  9  1  1  0  0  0
  9  5  2  0  0  0
 10 11  1  0  0  0
M  END
> <minimizedAffinity>
-5.38569

> <minimizedRMSD>
0.46215

$$$$
P60889


 16 17  0  0  0  0  0  0  0  0999 V2000
   -7.2328    5.1151  -18.2071 C   0  0  0  0  0  0  0  0  0  0  0  0
   -8.2213    4.3057  -18.7610 C   0  0  0  0  0  0  0  0  0  0  0  0
   -9.1274    3.6611  -17.9397 C   0  0  0  0  0  0  0  0  0  0  0  0
   -9.1210    3.6993  -16.5976 N   0  0  0  0  0  0  0  0  0  0  0  0
   -8.0914    4.3939  -16.0453 C   0  0  0  0  0  0  0  0  0  0  0  0
   -7.8839    4.5517  -14.6464 C   0  0  0  0  0  0  0  0  0  0  0  0
   -6.7609    5.2853  -14.3521 C   0  0  0  0  0  0  0  0  0  0  0  0
   -5.9793    5.8357  -15.7632 S   0  0  0  0  0  0  0  0  0  0  0  0
   -7.1359    5.0785  -16.7995 C   0  0  0  0  0  0  0  0  0  0  0  0
   -6.5823    6.0840  -18.9719 N   0  0  0  0  0  0  0  0  0  0  0  0
   -7.1317    6.8229  -19.3204 H   0  0  0  0  0  0  0  0  0  0  0  0
   -5.1508    6.1007  -19.3038 C   0  0  0  0  0  0  0  0  0  0  0  0
   -4.8273    6.9016  -20.5506 C   0  0  0  0  0  0  0  0  0  0  0  0
   -4.4682    4.7310  -19.2319 C   0  0  0  0  0  0  0  0  0  0  0  0
   -2.1063    4.1299  -18.7342 C   0  0  0  0  0  0  0  0  0  0  0  0
   -2.9987    4.7902  -19.4671 C   0  0  0  0  0  0  0  0  0  0  0  0
 15 16  2  0  0  0
 16 14  1  0  0  0
 14 12  1  0  0  0
 12 13  1  0  0  0
 12 10  1  0  0  0
 10  1  1  0  0  0
  1  2  2  0  0  0
  2  3  1  0  0  0
  3  4  2  0  0  0
  4  5  1  0  0  0
  5  6  1  0  0  0
  6  7  2  0  0  0
  7  8  1  0  0  0
  8  9  1  0  0  0
  9  1  1  0  0  0
  9  5  2  0  0  0
 10 11  1  0  0  0
M  END
> <minimizedAffinity>
-5.11986

> <minimizedRMSD>
1.13407

$$$$
P60891


 16 17  0  0  0  0  0  0  0  0999 V2000
   -5.8506    5.0055  -18.1645 C   0  0  0  0  0  0  0  0  0  0  0  0
   -6.6935    4.4761  -19.1431 C   0  0  0  0  0  0  0  0  0  0  0  0
   -7.9306    3.9721  -18.7928 C   0  0  0  0  0  0  0  0  0  0  0  0
   -8.4158    3.9185  -17.5429 N   0  0  0  0  0  0  0  0  0  0  0  0
   -7.5907    4.4023  -16.5762 C   0  0  0  0  0  0  0  0  0  0  0  0
   -7.9136    4.4654  -15.1919 C   0  0  0  0  0  0  0  0  0  0  0  0
   -6.8944    4.9821  -14.4291 C   0  0  0  0  0  0  0  0  0  0  0  0
   -5.5559    5.4375  -15.3827 S   0  0  0  0  0  0  0  0  0  0  0  0
   -6.3252    4.9289  -16.8416 C   0  0  0  0  0  0  0  0  0  0  0  0
   -4.6792    5.7174  -18.5021 N   0  0  0  0  0  0  0  0  0  0  0  0
   -4.5483    6.6607  -18.2523 H   0  0  0  0  0  0  0  0  0  0  0  0
   -3.1472    5.8110  -20.4171 C   0  0  0  0  0  0  0  0  0  0  0  0
   -3.6614    4.9530  -19.2557 C   0  0  0  0  0  0  0  0  0  0  0  0
   -2.4893    4.5161  -18.3669 C   0  0  0  0  0  0  0  0  0  0  0  0
   -1.4463    5.3792  -18.4897 F   0  0  0  0  0  0  0  0  0  0  0  0
   -2.0491    3.3042  -18.8094 F   0  0  0  0  0  0  0  0  0  0  0  0
 13 12  1  0  0  0
 13 10  1  0  0  0
 10  1  1  0  0  0
  1  2  2  0  0  0
  2  3  1  0  0  0
  3  4  2  0  0  0
  4  5  1  0  0  0
  5  6  1  0  0  0
  6  7  2  0  0  0
  7  8  1  0  0  0
  8  9  1  0  0  0
 13 14  1  0  0  0
 14 15  1  0  0  0
 14 16  1  0  0  0
  9  1  1  0  0  0
  9  5  2  0  0  0
 10 11  1  0  0  0
M  END
> <minimizedAffinity>
-5.11257

> <minimizedRMSD>
0.74143

$$$$
P60892


 16 17  0  0  0  0  0  0  0  0999 V2000
   -6.7259    4.5954  -18.1184 C   0  0  0  0  0  0  0  0  0  0  0  0
   -7.8591    4.1642  -18.7990 C   0  0  0  0  0  0  0  0  0  0  0  0
   -9.0050    3.8626  -18.0900 C   0  0  0  0  0  0  0  0  0  0  0  0
   -9.1298    3.9318  -16.7520 N   0  0  0  0  0  0  0  0  0  0  0  0
   -8.0348    4.3822  -16.0860 C   0  0  0  0  0  0  0  0  0  0  0  0
   -7.9425    4.5425  -14.6760 C   0  0  0  0  0  0  0  0  0  0  0  0
   -6.7222    5.0264  -14.2680 C   0  0  0  0  0  0  0  0  0  0  0  0
   -5.6804    5.3093  -15.5885 S   0  0  0  0  0  0  0  0  0  0  0  0
   -6.8487    4.7349  -16.7235 C   0  0  0  0  0  0  0  0  0  0  0  0
   -5.5040    4.7443  -18.7861 N   0  0  0  0  0  0  0  0  0  0  0  0
   -5.0486    3.9635  -19.1763 H   0  0  0  0  0  0  0  0  0  0  0  0
   -4.9108    6.0894  -18.8948 C   0  0  0  0  0  0  0  0  0  0  0  0
   -5.4425    6.9181  -20.0628 C   0  0  0  0  0  0  0  0  0  0  0  0
   -2.6189    7.0827  -19.5012 C   0  0  0  0  0  0  0  0  0  0  0  0
   -3.3688    5.9007  -18.9089 C   0  0  0  0  0  0  0  0  0  0  0  0
   -2.9003    4.4058  -19.7722 Cl  0  0  0  0  0  0  0  0  0  0  0  0
 15 14  1  0  0  0
 15 16  1  0  0  0
 15 12  1  0  0  0
 12 13  1  0  0  0
 12 10  1  0  0  0
 10  1  1  0  0  0
  1  2  2  0  0  0
  2  3  1  0  0  0
  3  4  2  0  0  0
  4  5  1  0  0  0
  5  6  1  0  0  0
  6  7  2  0  0  0
  7  8  1  0  0  0
  8  9  1  0  0  0
  9  1  1  0  0  0
  9  5  2  0  0  0
 10 11  1  0  0  0
M  END
> <minimizedAffinity>
-5.29476

> <minimizedRMSD>
0.67392

$$$$
P60893


 17 18  0  0  0  0  0  0  0  0999 V2000
   -6.9503    5.2176  -17.8352 C   0  0  0  0  0  0  0  0  0  0  0  0
   -7.8424    4.4231  -18.5540 C   0  0  0  0  0  0  0  0  0  0  0  0
   -8.8686    3.7794  -17.8938 C   0  0  0  0  0  0  0  0  0  0  0  0
   -9.0758    3.8072  -16.5675 N   0  0  0  0  0  0  0  0  0  0  0  0
   -8.1641    4.5186  -15.8515 C   0  0  0  0  0  0  0  0  0  0  0  0
   -8.1903    4.6774  -14.4373 C   0  0  0  0  0  0  0  0  0  0  0  0
   -7.1417    5.4290  -13.9655 C   0  0  0  0  0  0  0  0  0  0  0  0
   -6.1422    5.9874  -15.2295 S   0  0  0  0  0  0  0  0  0  0  0  0
   -7.1005    5.2092  -16.4357 C   0  0  0  0  0  0  0  0  0  0  0  0
   -6.0662    6.0883  -18.5038 N   0  0  0  0  0  0  0  0  0  0  0  0
   -6.1878    7.0650  -18.4823 H   0  0  0  0  0  0  0  0  0  0  0  0
   -4.9528    5.4646  -19.2354 C   0  0  0  0  0  0  0  0  0  0  0  0
   -4.3779    6.5238  -20.1838 C   0  0  0  0  0  0  0  0  0  0  0  0
   -3.9370    4.9350  -18.2064 C   0  0  0  0  0  0  0  0  0  0  0  0
   -2.5552    4.6220  -18.7683 C   0  0  0  0  0  0  0  0  0  0  0  0
   -2.2016    6.1978  -16.5133 C   0  0  0  0  0  0  0  0  0  0  0  0
   -1.2471    5.5943  -17.9272 S   0  0  0  0  0  0  0  0  0  0  0  0
 16 17  1  0  0  0
 17 15  1  0  0  0
 15 14  1  0  0  0
 14 12  1  0  0  0
 12 13  1  0  0  0
 12 10  1  0  0  0
 10  1  1  0  0  0
  1  2  2  0  0  0
  2  3  1  0  0  0
  3  4  2  0  0  0
  4  5  1  0  0  0
  5  6  1  0  0  0
  6  7  2  0  0  0
  7  8  1  0  0  0
  8  9  1  0  0  0
  9  1  1  0  0  0
  9  5  2  0  0  0
 10 11  1  0  0  0
M  END
> <minimizedAffinity>
-4.51865

> <minimizedRMSD>
1.00873

$$$$
P60894


 15 16  0  0  0  0  0  0  0  0999 V2000
   -5.8786    4.8839  -17.8719 C   0  0  0  0  0  0  0  0  0  0  0  0
   -6.7088    4.4598  -18.9105 C   0  0  0  0  0  0  0  0  0  0  0  0
   -8.0131    4.0846  -18.6499 C   0  0  0  0  0  0  0  0  0  0  0  0
   -8.5850    4.0724  -17.4358 N   0  0  0  0  0  0  0  0  0  0  0  0
   -7.7836    4.4716  -16.4124 C   0  0  0  0  0  0  0  0  0  0  0  0
   -8.1959    4.5674  -15.0538 C   0  0  0  0  0  0  0  0  0  0  0  0
   -7.1876    4.9848  -14.2191 C   0  0  0  0  0  0  0  0  0  0  0  0
   -5.7470    5.3064  -15.0746 S   0  0  0  0  0  0  0  0  0  0  0  0
   -6.4557    4.8668  -16.5868 C   0  0  0  0  0  0  0  0  0  0  0  0
   -4.6037    5.4399  -18.1120 N   0  0  0  0  0  0  0  0  0  0  0  0
   -4.2169    6.1315  -17.5278 H   0  0  0  0  0  0  0  0  0  0  0  0
   -3.8923    4.9255  -19.2821 C   0  0  0  0  0  0  0  0  0  0  0  0
   -2.5552    4.3224  -18.8604 C   0  0  0  0  0  0  0  0  0  0  0  0
   -1.3144    6.7585  -19.0923 Cl  0  0  0  0  0  0  0  0  0  0  0  0
   -1.6458    5.2974  -18.1250 C   0  0  0  0  0  0  0  0  0  0  0  0
 14 15  1  0  0  0
 15 13  1  0  0  0
 13 12  1  0  0  0
 12 10  1  0  0  0
 10  1  1  0  0  0
  1  2  2  0  0  0
  2  3  1  0  0  0
  3  4  2  0  0  0
  4  5  1  0  0  0
  5  6  1  0  0  0
  6  7  2  0  0  0
  7  8  1  0  0  0
  8  9  1  0  0  0
  9  1  1  0  0  0
  9  5  2  0  0  0
 10 11  1  0  0  0
M  END
> <minimizedAffinity>
-4.50055

> <minimizedRMSD>
0.78336

$$$$
P60895


 16 17  0  0  0  0  0  0  0  0999 V2000
   -5.8560    4.8112  -17.9621 C   0  0  0  0  0  0  0  0  0  0  0  0
   -6.6294    4.3916  -19.0413 C   0  0  0  0  0  0  0  0  0  0  0  0
   -7.9574    4.0312  -18.8625 C   0  0  0  0  0  0  0  0  0  0  0  0
   -8.6086    4.0243  -17.6889 N   0  0  0  0  0  0  0  0  0  0  0  0
   -7.8755    4.4385  -16.6261 C   0  0  0  0  0  0  0  0  0  0  0  0
   -8.3700    4.5314  -15.2987 C   0  0  0  0  0  0  0  0  0  0  0  0
   -7.4232    4.9719  -14.4058 C   0  0  0  0  0  0  0  0  0  0  0  0
   -5.9366    5.3052  -15.1729 S   0  0  0  0  0  0  0  0  0  0  0  0
   -6.5430    4.8291  -16.7248 C   0  0  0  0  0  0  0  0  0  0  0  0
   -4.5237    5.1551  -18.0083 N   0  0  0  0  0  0  0  0  0  0  0  0
   -4.0326    5.0032  -17.1687 H   0  0  0  0  0  0  0  0  0  0  0  0
   -3.7176    5.7058  -19.0901 C   0  0  0  0  0  0  0  0  0  0  0  0
   -4.5485    6.5937  -20.0272 C   0  0  0  0  0  0  0  0  0  0  0  0
   -2.9810    4.6193  -19.8529 C   0  0  0  0  0  0  0  0  0  0  0  0
   -2.2418    7.7339  -18.5292 C   0  0  0  0  0  0  0  0  0  0  0  0
   -2.5987    6.4521  -18.3825 C   0  0  0  0  0  0  0  0  0  0  0  0
 15 16  2  0  0  0
 16 12  1  0  0  0
 12 13  1  0  0  0
 12 14  1  0  0  0
 12 10  1  0  0  0
 10  1  1  0  0  0
  1  2  2  0  0  0
  2  3  1  0  0  0
  3  4  2  0  0  0
  4  5  1  0  0  0
  5  6  1  0  0  0
  6  7  2  0  0  0
  7  8  1  0  0  0
  8  9  1  0  0  0
  9  1  1  0  0  0
  9  5  2  0  0  0
 10 11  1  0  0  0
M  END
> <minimizedAffinity>
-4.73229

> <minimizedRMSD>
0.20078

$$$$
P60896


 17 18  0  0  0  0  0  0  0  0999 V2000
   -6.3741    5.5232  -17.9618 C   0  0  0  0  0  0  0  0  0  0  0  0
   -7.0175    4.7652  -18.9413 C   0  0  0  0  0  0  0  0  0  0  0  0
   -8.0902    3.9573  -18.6113 C   0  0  0  0  0  0  0  0  0  0  0  0
   -8.5819    3.7987  -17.3737 N   0  0  0  0  0  0  0  0  0  0  0  0
   -7.9239    4.4784  -16.3977 C   0  0  0  0  0  0  0  0  0  0  0  0
   -8.2813    4.4612  -15.0209 C   0  0  0  0  0  0  0  0  0  0  0  0
   -7.4435    5.2194  -14.2406 C   0  0  0  0  0  0  0  0  0  0  0  0
   -6.2475    5.9995  -15.1707 S   0  0  0  0  0  0  0  0  0  0  0  0
   -6.8317    5.3131  -16.6446 C   0  0  0  0  0  0  0  0  0  0  0  0
   -5.4817    6.5579  -18.2866 N   0  0  0  0  0  0  0  0  0  0  0  0
   -5.8159    7.4839  -18.2882 H   0  0  0  0  0  0  0  0  0  0  0  0
   -4.0523    6.3166  -18.6289 C   0  0  0  0  0  0  0  0  0  0  0  0
   -3.2989    7.5936  -18.1695 C   0  0  0  0  0  0  0  0  0  0  0  0
   -3.8880    6.2795  -20.1376 C   0  0  0  0  0  0  0  0  0  0  0  0
   -2.8054    5.3012  -16.6021 C   0  0  0  0  0  0  0  0  0  0  0  0
   -3.5139    5.0292  -17.9220 C   0  0  0  0  0  0  0  0  0  0  0  0
   -2.4012    4.0601  -18.9352 Cl  0  0  0  0  0  0  0  0  0  0  0  0
 16 15  1  0  0  0
 16 17  1  0  0  0
 16 12  1  0  0  0
 12 13  1  0  0  0
 12 14  1  0  0  0
 12 10  1  0  0  0
 10  1  1  0  0  0
  1  2  2  0  0  0
  2  3  1  0  0  0
  3  4  2  0  0  0
  4  5  1  0  0  0
  5  6  1  0  0  0
  6  7  2  0  0  0
  7  8  1  0  0  0
  8  9  1  0  0  0
  9  1  1  0  0  0
  9  5  2  0  0  0
 10 11  1  0  0  0
M  END
> <minimizedAffinity>
-4.64109

> <minimizedRMSD>
0.60522

$$$$
P60897


 15 16  0  0  0  0  0  0  0  0999 V2000
   -7.3115    4.9950  -18.1724 C   0  0  0  0  0  0  0  0  0  0  0  0
   -8.4101    4.2940  -18.6758 C   0  0  0  0  0  0  0  0  0  0  0  0
   -9.3337    3.7468  -17.8105 C   0  0  0  0  0  0  0  0  0  0  0  0
   -9.2501    3.7800  -16.4729 N   0  0  0  0  0  0  0  0  0  0  0  0
   -8.1397    4.3830  -15.9717 C   0  0  0  0  0  0  0  0  0  0  0  0
   -7.8464    4.5067  -14.5846 C   0  0  0  0  0  0  0  0  0  0  0  0
   -6.6492    5.1369  -14.3485 C   0  0  0  0  0  0  0  0  0  0  0  0
   -5.8906    5.6209  -15.7971 S   0  0  0  0  0  0  0  0  0  0  0  0
   -7.1595    4.9761  -16.7725 C   0  0  0  0  0  0  0  0  0  0  0  0
   -6.4748    5.7340  -19.0516 N   0  0  0  0  0  0  0  0  0  0  0  0
   -6.6549    6.6660  -19.3127 H   0  0  0  0  0  0  0  0  0  0  0  0
   -5.3184    4.9740  -19.5315 C   0  0  0  0  0  0  0  0  0  0  0  0
   -4.0161    5.6610  -19.1299 C   0  0  0  0  0  0  0  0  0  0  0  0
   -2.2291    3.7652  -19.0127 N   0  0  0  0  0  0  0  0  0  0  0  0
   -2.9626    4.6587  -19.0616 C   0  0  0  0  0  0  0  0  0  0  0  0
 14 15  3  0  0  0
 15 13  1  0  0  0
 13 12  1  0  0  0
 12 10  1  0  0  0
 10  1  1  0  0  0
  1  2  2  0  0  0
  2  3  1  0  0  0
  3  4  2  0  0  0
  4  5  1  0  0  0
  5  6  1  0  0  0
  6  7  2  0  0  0
  7  8  1  0  0  0
  8  9  1  0  0  0
  9  1  1  0  0  0
  9  5  2  0  0  0
 10 11  1  0  0  0
M  END
> <minimizedAffinity>
-4.67199

> <minimizedRMSD>
0.83223

$$$$
P60899


 17 18  0  0  0  0  0  0  0  0999 V2000
   -7.1178    4.4196  -18.5176 C   0  0  0  0  0  0  0  0  0  0  0  0
   -8.3537    3.9444  -18.9534 C   0  0  0  0  0  0  0  0  0  0  0  0
   -9.3713    3.7076  -18.0451 C   0  0  0  0  0  0  0  0  0  0  0  0
   -9.2801    3.8795  -16.7159 N   0  0  0  0  0  0  0  0  0  0  0  0
   -8.0818    4.3438  -16.2764 C   0  0  0  0  0  0  0  0  0  0  0  0
   -7.7693    4.6190  -14.9162 C   0  0  0  0  0  0  0  0  0  0  0  0
   -6.4839    5.0726  -14.7427 C   0  0  0  0  0  0  0  0  0  0  0  0
   -5.6530    5.2051  -16.2263 S   0  0  0  0  0  0  0  0  0  0  0  0
   -7.0106    4.6193  -17.1247 C   0  0  0  0  0  0  0  0  0  0  0  0
   -6.0444    4.6626  -19.3529 N   0  0  0  0  0  0  0  0  0  0  0  0
   -5.6724    3.9084  -19.8649 H   0  0  0  0  0  0  0  0  0  0  0  0
   -5.4390    5.9632  -19.5154 C   0  0  0  0  0  0  0  0  0  0  0  0
   -3.9630    5.8830  -19.9587 C   0  0  0  0  0  0  0  0  0  0  0  0
   -2.1519    7.6040  -20.6969 C   0  0  0  0  0  0  0  0  0  0  0  0
   -3.5392    7.0165  -20.9090 C   0  0  0  0  0  0  0  0  0  0  0  0
   -2.9338    5.6910  -18.8346 C   0  0  0  0  0  0  0  0  0  0  0  0
   -2.4361    4.2735  -18.7645 C   0  0  0  0  0  0  0  0  0  0  0  0
 14 15  1  0  0  0
 15 13  1  0  0  0
 13 16  1  0  0  0
 16 17  1  0  0  0
 13 12  1  0  0  0
 12 10  1  0  0  0
 10  1  1  0  0  0
  1  2  2  0  0  0
  2  3  1  0  0  0
  3  4  2  0  0  0
  4  5  1  0  0  0
  5  6  1  0  0  0
  6  7  2  0  0  0
  7  8  1  0  0  0
  8  9  1  0  0  0
  9  1  1  0  0  0
  9  5  2  0  0  0
 10 11  1  0  0  0
M  END
> <minimizedAffinity>
-5.44976

> <minimizedRMSD>
1.40664

$$$$
P60900


 15 16  0  0  0  0  0  0  0  0999 V2000
   -6.0024    4.8214  -17.9100 C   0  0  0  0  0  0  0  0  0  0  0  0
   -6.8752    4.3988  -18.9106 C   0  0  0  0  0  0  0  0  0  0  0  0
   -8.1744    4.0349  -18.6009 C   0  0  0  0  0  0  0  0  0  0  0  0
   -8.7056    4.0316  -17.3673 N   0  0  0  0  0  0  0  0  0  0  0  0
   -7.8711    4.4512  -16.3811 C   0  0  0  0  0  0  0  0  0  0  0  0
   -8.2324    4.5717  -15.0106 C   0  0  0  0  0  0  0  0  0  0  0  0
   -7.1964    5.0048  -14.2188 C   0  0  0  0  0  0  0  0  0  0  0  0
   -5.7881    5.3108  -15.1302 S   0  0  0  0  0  0  0  0  0  0  0  0
   -6.5516    4.8387  -16.6094 C   0  0  0  0  0  0  0  0  0  0  0  0
   -4.7085    5.2542  -18.1381 N   0  0  0  0  0  0  0  0  0  0  0  0
   -4.2617    5.7628  -17.4233 H   0  0  0  0  0  0  0  0  0  0  0  0
   -3.9651    5.0087  -19.3611 C   0  0  0  0  0  0  0  0  0  0  0  0
   -3.7996    6.3142  -20.1368 C   0  0  0  0  0  0  0  0  0  0  0  0
   -1.7267    5.1336  -18.0772 C   0  0  0  0  0  0  0  0  0  0  0  0
   -2.6192    4.3426  -19.0242 C   0  0  0  0  0  0  0  0  0  0  0  0
 14 15  1  0  0  0
 15 12  1  0  0  0
 12 13  1  0  0  0
 12 10  1  0  0  0
 10  1  1  0  0  0
  1  2  2  0  0  0
  2  3  1  0  0  0
  3  4  2  0  0  0
  4  5  1  0  0  0
  5  6  1  0  0  0
  6  7  2  0  0  0
  7  8  1  0  0  0
  8  9  1  0  0  0
  9  1  1  0  0  0
  9  5  2  0  0  0
 10 11  1  0  0  0
M  END
> <minimizedAffinity>
-4.97455

> <minimizedRMSD>
0.63382

$$$$
P60901


 15 16  0  0  0  0  0  0  0  0999 V2000
   -6.0362    4.9859  -18.0306 C   0  0  0  0  0  0  0  0  0  0  0  0
   -6.9585    4.4674  -18.9411 C   0  0  0  0  0  0  0  0  0  0  0  0
   -8.1803    4.0015  -18.4987 C   0  0  0  0  0  0  0  0  0  0  0  0
   -8.5762    3.9719  -17.2173 N   0  0  0  0  0  0  0  0  0  0  0  0
   -7.6705    4.4378  -16.3161 C   0  0  0  0  0  0  0  0  0  0  0  0
   -7.8895    4.5119  -14.9122 C   0  0  0  0  0  0  0  0  0  0  0  0
   -6.8038    5.0032  -14.2285 C   0  0  0  0  0  0  0  0  0  0  0  0
   -5.5266    5.4195  -15.2796 S   0  0  0  0  0  0  0  0  0  0  0  0
   -6.4139    4.9290  -16.6761 C   0  0  0  0  0  0  0  0  0  0  0  0
   -4.8627    5.6419  -18.4638 N   0  0  0  0  0  0  0  0  0  0  0  0
   -4.6885    6.5933  -18.2800 H   0  0  0  0  0  0  0  0  0  0  0  0
   -3.9201    4.7932  -19.2115 C   0  0  0  0  0  0  0  0  0  0  0  0
   -2.0914    3.3865  -18.8383 F   0  0  0  0  0  0  0  0  0  0  0  0
   -2.5860    4.6098  -18.4967 C   0  0  0  0  0  0  0  0  0  0  0  0
   -1.6913    5.5278  -18.9517 F   0  0  0  0  0  0  0  0  0  0  0  0
 13 14  1  0  0  0
 14 15  1  0  0  0
 14 12  1  0  0  0
 12 10  1  0  0  0
 10  1  1  0  0  0
  1  2  2  0  0  0
  2  3  1  0  0  0
  3  4  2  0  0  0
  4  5  1  0  0  0
  5  6  1  0  0  0
  6  7  2  0  0  0
  7  8  1  0  0  0
  8  9  1  0  0  0
  9  1  1  0  0  0
  9  5  2  0  0  0
 10 11  1  0  0  0
M  END
> <minimizedAffinity>
-4.88974

> <minimizedRMSD>
0.61993

$$$$
P60902


 16 17  0  0  0  0  0  0  0  0999 V2000
   -6.6714    5.5801  -17.6181 C   0  0  0  0  0  0  0  0  0  0  0  0
   -7.3904    4.7654  -18.4904 C   0  0  0  0  0  0  0  0  0  0  0  0
   -8.3796    3.9320  -18.0023 C   0  0  0  0  0  0  0  0  0  0  0  0
   -8.7045    3.7895  -16.7074 N   0  0  0  0  0  0  0  0  0  0  0  0
   -7.9515    4.5161  -15.8398 C   0  0  0  0  0  0  0  0  0  0  0  0
   -8.1295    4.5222  -14.4281 C   0  0  0  0  0  0  0  0  0  0  0  0
   -7.2319    5.3327  -13.7782 C   0  0  0  0  0  0  0  0  0  0  0  0
   -6.2044    6.1385  -14.8725 S   0  0  0  0  0  0  0  0  0  0  0  0
   -6.9365    5.3854  -16.2454 C   0  0  0  0  0  0  0  0  0  0  0  0
   -5.9554    6.6838  -18.0874 N   0  0  0  0  0  0  0  0  0  0  0  0
   -6.4208    7.5507  -18.1222 H   0  0  0  0  0  0  0  0  0  0  0  0
   -4.5538    6.6407  -18.5335 C   0  0  0  0  0  0  0  0  0  0  0  0
   -4.4130    6.4674  -20.0320 C   0  0  0  0  0  0  0  0  0  0  0  0
   -3.6465    5.7643  -17.6632 C   0  0  0  0  0  0  0  0  0  0  0  0
   -2.2041    3.9527  -18.9632 C   0  0  0  0  0  0  0  0  0  0  0  0
   -2.8750    4.7684  -18.4025 C   0  0  0  0  0  0  0  0  0  0  0  0
 15 16  3  0  0  0
 16 14  1  0  0  0
 14 12  1  0  0  0
 12 13  1  0  0  0
 12 10  1  0  0  0
 10  1  1  0  0  0
  1  2  2  0  0  0
  2  3  1  0  0  0
  3  4  2  0  0  0
  4  5  1  0  0  0
  5  6  1  0  0  0
  6  7  2  0  0  0
  7  8  1  0  0  0
  8  9  1  0  0  0
  9  1  1  0  0  0
  9  5  2  0  0  0
 10 11  1  0  0  0
M  END
> <minimizedAffinity>
-4.36833

> <minimizedRMSD>
0.84181

$$$$
P61207


 19 20  0  0  0  0  0  0  0  0999 V2000
   -6.1367    5.0603  -15.8732 C   0  0  0  0  0  0  0  0  0  0  0  0
   -7.2128    4.7347  -15.0302 C   0  0  0  0  0  0  0  0  0  0  0  0
   -8.4409    4.3133  -15.5465 C   0  0  0  0  0  0  0  0  0  0  0  0
   -8.5847    4.2038  -16.9374 C   0  0  0  0  0  0  0  0  0  0  0  0
   -9.6784    3.9253  -17.7981 C   0  0  0  0  0  0  0  0  0  0  0  0
   -9.2290    4.0837  -19.0838 C   0  0  0  0  0  0  0  0  0  0  0  0
   -7.8894    4.3355  -19.0512 N   0  0  0  0  0  0  0  0  0  0  0  0
   -7.4902    4.4961  -17.7510 C   0  0  0  0  0  0  0  0  0  0  0  0
   -6.2660    4.9305  -17.2589 C   0  0  0  0  0  0  0  0  0  0  0  0
   -7.3013    4.3929  -19.8387 H   0  0  0  0  0  0  0  0  0  0  0  0
   -4.8572    5.5945  -15.2735 C   0  0  0  0  0  0  0  0  0  0  0  0
   -3.6042    5.3301  -16.1347 C   0  0  0  0  0  0  0  0  0  0  0  0
   -1.5100    6.0925  -14.7592 N   0  0  0  0  0  0  0  0  0  0  0  0
   -2.4443    5.8130  -15.3853 C   0  0  0  0  0  0  0  0  0  0  0  0
   -4.9834    7.1130  -14.9993 C   0  0  0  0  0  0  0  0  0  0  0  0
   -5.2040    7.5048  -13.5339 C   0  0  0  0  0  0  0  0  0  0  0  0
   -4.8753    6.4115  -12.6296 N   0  0  0  0  0  0  0  0  0  0  0  0
   -5.4783    5.6131  -12.8281 H   0  0  0  0  0  0  0  0  0  0  0  0
   -5.0171    6.7133  -11.6657 H   0  0  0  0  0  0  0  0  0  0  0  0
 13 14  3  0  0  0
 14 12  1  0  0  0
 11 12  1  0  0  0
 11 15  1  0  0  0
 15 16  1  0  0  0
 16 17  1  0  0  0
 11  1  1  0  0  0
  1  2  2  0  0  0
  2  3  1  0  0  0
  3  4  2  0  0  0
  4  5  1  0  0  0
  5  6  2  0  0  0
  6  7  1  0  0  0
  7  8  1  0  0  0
  8  9  2  0  0  0
  9  1  1  0  0  0
  8  4  1  0  0  0
 17 18  1  0  0  0
 17 19  1  0  0  0
  7 10  1  0  0  0
M  END
> <minimizedAffinity>
-5.31369

> <minimizedRMSD>
0.51762

$$$$
P61225


 22 23  0  0  0  0  0  0  0  0999 V2000
   -3.6731    6.9423  -19.9841 C   0  0  0  0  0  0  0  0  0  0  0  0
   -2.6118    7.6393  -19.1261 C   0  0  0  0  0  0  0  0  0  0  0  0
   -1.2614    7.0844  -19.1356 N   0  0  0  0  0  0  0  0  0  0  0  0
   -1.2524    6.3161  -19.8064 H   0  0  0  0  0  0  0  0  0  0  0  0
   -0.7299    6.5700  -17.8757 C   0  0  0  0  0  0  0  0  0  0  0  0
   -1.5457    5.6466  -16.9604 C   0  0  0  0  0  0  0  0  0  0  0  0
   -1.9154    6.0335  -15.5055 C   0  0  0  0  0  0  0  0  0  0  0  0
   -2.7955    4.8906  -14.9398 C   0  0  0  0  0  0  0  0  0  0  0  0
   -2.7485    7.3153  -15.3811 C   0  0  0  0  0  0  0  0  0  0  0  0
    0.0156    7.8387  -14.3549 C   0  0  0  0  0  0  0  0  0  0  0  0
   -0.4279    6.0868  -14.3839 S   0  0  0  0  0  0  0  0  0  0  0  0
   -3.9261    5.4556  -19.7448 C   0  0  0  0  0  0  0  0  0  0  0  0
   -5.0701    5.1679  -18.8364 C   0  0  0  0  0  0  0  0  0  0  0  0
   -5.1214    5.3832  -17.5398 N   0  0  0  0  0  0  0  0  0  0  0  0
   -6.3330    4.9172  -17.1231 C   0  0  0  0  0  0  0  0  0  0  0  0
   -6.8793    4.8966  -15.8352 C   0  0  0  0  0  0  0  0  0  0  0  0
   -8.1979    4.4709  -15.6883 C   0  0  0  0  0  0  0  0  0  0  0  0
   -8.9397    4.0843  -16.8053 C   0  0  0  0  0  0  0  0  0  0  0  0
   -8.3958    4.0452  -18.0916 C   0  0  0  0  0  0  0  0  0  0  0  0
   -7.0786    4.4692  -18.2011 C   0  0  0  0  0  0  0  0  0  0  0  0
   -6.2411    4.6032  -19.2742 N   0  0  0  0  0  0  0  0  0  0  0  0
   -6.4437    4.3397  -20.2009 H   0  0  0  0  0  0  0  0  0  0  0  0
 10 11  1  0  0  0
 11  7  1  0  0  0
  7  8  1  0  0  0
  7  9  1  0  0  0
  7  6  1  0  0  0
  6  5  1  0  0  0
  5  3  1  0  0  0
  3  2  1  0  0  0
  2  1  1  0  0  0
  1 12  1  0  0  0
 12 13  1  0  0  0
 13 14  2  0  0  0
 14 15  1  0  0  0
 15 16  2  0  0  0
 16 17  1  0  0  0
 17 18  2  0  0  0
 18 19  1  0  0  0
 19 20  2  0  0  0
 20 21  1  0  0  0
 21 13  1  0  0  0
 20 15  1  0  0  0
  3  4  1  0  0  0
 21 22  1  0  0  0
M  END
> <minimizedAffinity>
-4.65067

> <minimizedRMSD>
1.09559

$$$$
P61228


 17 18  0  0  0  0  0  0  0  0999 V2000
   -5.1833    5.1533  -18.8139 C   0  0  0  0  0  0  0  0  0  0  0  0
   -5.3379    5.4730  -17.5439 N   0  0  0  0  0  0  0  0  0  0  0  0
   -6.5383    4.9617  -17.1741 C   0  0  0  0  0  0  0  0  0  0  0  0
   -7.1072    4.9057  -15.8983 C   0  0  0  0  0  0  0  0  0  0  0  0
   -8.3742    4.3452  -15.7735 C   0  0  0  0  0  0  0  0  0  0  0  0
   -9.0470    3.8740  -16.9022 C   0  0  0  0  0  0  0  0  0  0  0  0
   -8.4834    3.9023  -18.1833 C   0  0  0  0  0  0  0  0  0  0  0  0
   -7.2099    4.4502  -18.2741 C   0  0  0  0  0  0  0  0  0  0  0  0
   -6.3447    4.6339  -19.3272 N   0  0  0  0  0  0  0  0  0  0  0  0
   -6.5252    4.4306  -20.2734 H   0  0  0  0  0  0  0  0  0  0  0  0
   -3.8678    5.2054  -19.5254 C   0  0  0  0  0  0  0  0  0  0  0  0
   -2.7935    5.9123  -18.6481 C   0  0  0  0  0  0  0  0  0  0  0  0
   -2.4034    5.0773  -17.4983 N   0  0  0  0  0  0  0  0  0  0  0  0
   -3.1762    4.4398  -17.3065 H   0  0  0  0  0  0  0  0  0  0  0  0
   -2.8262    5.0403  -15.1127 C   0  0  0  0  0  0  0  0  0  0  0  0
   -2.0793    5.7668  -16.2443 C   0  0  0  0  0  0  0  0  0  0  0  0
   -2.4240    7.2576  -16.1686 C   0  0  0  0  0  0  0  0  0  0  0  0
 15 16  1  0  0  0
 16 17  1  0  0  0
 16 13  1  0  0  0
 13 12  1  0  0  0
 12 11  1  0  0  0
 11  1  1  0  0  0
  1  2  2  0  0  0
  2  3  1  0  0  0
  3  4  2  0  0  0
  4  5  1  0  0  0
  5  6  2  0  0  0
  6  7  1  0  0  0
  7  8  2  0  0  0
  8  9  1  0  0  0
  9  1  1  0  0  0
  8  3  1  0  0  0
 13 14  1  0  0  0
  9 10  1  0  0  0
M  END
> <minimizedAffinity>
-5.24637

> <minimizedRMSD>
0.60340

$$$$
P61231


 20 21  0  0  0  0  0  0  0  0999 V2000
   -4.2998    5.9984  -19.9408 C   0  0  0  0  0  0  0  0  0  0  0  0
   -5.2746    5.4224  -18.9675 C   0  0  0  0  0  0  0  0  0  0  0  0
   -5.2413    5.5878  -17.6612 N   0  0  0  0  0  0  0  0  0  0  0  0
   -6.3708    4.9999  -17.1736 C   0  0  0  0  0  0  0  0  0  0  0  0
   -6.8215    4.9105  -15.8522 C   0  0  0  0  0  0  0  0  0  0  0  0
   -8.1010    4.4025  -15.6298 C   0  0  0  0  0  0  0  0  0  0  0  0
   -8.8935    3.9929  -16.7040 C   0  0  0  0  0  0  0  0  0  0  0  0
   -8.4311    4.0052  -18.0229 C   0  0  0  0  0  0  0  0  0  0  0  0
   -7.1529    4.5166  -18.2104 C   0  0  0  0  0  0  0  0  0  0  0  0
   -6.3997    4.7317  -19.3346 N   0  0  0  0  0  0  0  0  0  0  0  0
   -6.6272    4.4407  -20.2472 H   0  0  0  0  0  0  0  0  0  0  0  0
   -3.0678    6.4407  -19.2675 N   0  0  0  0  0  0  0  0  0  0  0  0
   -2.9718    7.4489  -19.3888 H   0  0  0  0  0  0  0  0  0  0  0  0
   -1.8665    5.7821  -19.8086 C   0  0  0  0  0  0  0  0  0  0  0  0
   -1.8173    6.2191  -21.2898 C   0  0  0  0  0  0  0  0  0  0  0  0
   -0.4350    6.5898  -21.7976 C   0  0  0  0  0  0  0  0  0  0  0  0
   -0.5730    6.1636  -19.0507 C   0  0  0  0  0  0  0  0  0  0  0  0
   -0.4068    5.4635  -17.6977 C   0  0  0  0  0  0  0  0  0  0  0  0
    1.2098    5.3583  -15.8164 C   0  0  0  0  0  0  0  0  0  0  0  0
    0.9740    5.5477  -17.1216 C   0  0  0  0  0  0  0  0  0  0  0  0
 19 20  2  0  0  0
 20 18  1  0  0  0
 18 17  1  0  0  0
 14 17  1  0  0  0
 14 15  1  0  0  0
 15 16  1  0  0  0
 14 12  1  0  0  0
 12  1  1  0  0  0
  1  2  1  0  0  0
  2  3  2  0  0  0
  3  4  1  0  0  0
  4  5  2  0  0  0
  5  6  1  0  0  0
  6  7  2  0  0  0
  7  8  1  0  0  0
  8  9  2  0  0  0
  9 10  1  0  0  0
 10  2  1  0  0  0
  9  4  1  0  0  0
 12 13  1  0  0  0
 10 11  1  0  0  0
M  END
> <minimizedAffinity>
-4.94294

> <minimizedRMSD>
1.54985

$$$$
P61236


 16 17  0  0  0  0  0  0  0  0999 V2000
   -4.9616    5.1521  -18.7420 C   0  0  0  0  0  0  0  0  0  0  0  0
   -5.0413    5.4109  -17.4626 N   0  0  0  0  0  0  0  0  0  0  0  0
   -6.2699    4.9705  -17.0859 C   0  0  0  0  0  0  0  0  0  0  0  0
   -6.8250    4.9179  -15.8030 C   0  0  0  0  0  0  0  0  0  0  0  0
   -8.1304    4.4529  -15.6709 C   0  0  0  0  0  0  0  0  0  0  0  0
   -8.8571    4.0694  -16.7994 C   0  0  0  0  0  0  0  0  0  0  0  0
   -8.3125    4.0943  -18.0893 C   0  0  0  0  0  0  0  0  0  0  0  0
   -7.0012    4.5460  -18.1889 C   0  0  0  0  0  0  0  0  0  0  0  0
   -6.1427    4.7052  -19.2528 N   0  0  0  0  0  0  0  0  0  0  0  0
   -6.3435    4.5298  -20.2006 H   0  0  0  0  0  0  0  0  0  0  0  0
   -3.5050    5.2740  -19.6602 S   0  0  0  0  0  0  0  0  0  0  0  0
   -2.5186    6.2841  -18.4869 C   0  0  0  0  0  0  0  0  0  0  0  0
   -1.2164    5.6021  -18.0199 C   0  0  0  0  0  0  0  0  0  0  0  0
    0.5353    5.7006  -16.3268 C   0  0  0  0  0  0  0  0  0  0  0  0
   -0.8140    6.1073  -16.6943 N   0  0  0  0  0  0  0  0  0  0  0  0
   -1.7932    5.7779  -15.6639 C   0  0  0  0  0  0  0  0  0  0  0  0
 14 15  1  0  0  0
 15 16  1  0  0  0
 15 13  1  0  0  0
 13 12  1  0  0  0
 12 11  1  0  0  0
 11  1  1  0  0  0
  1  2  2  0  0  0
  2  3  1  0  0  0
  3  4  2  0  0  0
  4  5  1  0  0  0
  5  6  2  0  0  0
  6  7  1  0  0  0
  7  8  2  0  0  0
  8  9  1  0  0  0
  9  1  1  0  0  0
  8  3  1  0  0  0
  9 10  1  0  0  0
M  END
> <minimizedAffinity>
-5.02832

> <minimizedRMSD>
0.89205

$$$$
P61237


 21 22  0  0  0  0  0  0  0  0999 V2000
   -4.2388    6.0399  -19.7460 C   0  0  0  0  0  0  0  0  0  0  0  0
   -5.2225    5.3540  -18.8326 C   0  0  0  0  0  0  0  0  0  0  0  0
   -5.2811    5.4742  -17.5196 N   0  0  0  0  0  0  0  0  0  0  0  0
   -6.4733    4.9123  -17.1368 C   0  0  0  0  0  0  0  0  0  0  0  0
   -7.0700    4.8447  -15.8704 C   0  0  0  0  0  0  0  0  0  0  0  0
   -8.3784    4.3628  -15.7779 C   0  0  0  0  0  0  0  0  0  0  0  0
   -9.0639    3.9520  -16.9222 C   0  0  0  0  0  0  0  0  0  0  0  0
   -8.4613    3.9469  -18.1833 C   0  0  0  0  0  0  0  0  0  0  0  0
   -7.1577    4.4311  -18.2394 C   0  0  0  0  0  0  0  0  0  0  0  0
   -6.2845    4.6088  -19.2790 N   0  0  0  0  0  0  0  0  0  0  0  0
   -6.3993    4.2606  -20.1927 H   0  0  0  0  0  0  0  0  0  0  0  0
   -3.1864    5.2014  -20.3559 N   0  0  0  0  0  0  0  0  0  0  0  0
   -3.6224    4.4773  -20.9268 H   0  0  0  0  0  0  0  0  0  0  0  0
   -2.3755    4.5743  -19.3233 C   0  0  0  0  0  0  0  0  0  0  0  0
   -1.5119    5.5257  -18.5074 C   0  0  0  0  0  0  0  0  0  0  0  0
   -1.7027    5.3111  -16.9971 C   0  0  0  0  0  0  0  0  0  0  0  0
   -2.1552    6.4974  -16.1417 C   0  0  0  0  0  0  0  0  0  0  0  0
   -2.6318    6.2353  -14.7155 C   0  0  0  0  0  0  0  0  0  0  0  0
   -3.4678    4.9817  -14.4809 C   0  0  0  0  0  0  0  0  0  0  0  0
   -2.3464    3.0864  -12.9931 C   0  0  0  0  0  0  0  0  0  0  0  0
   -2.8117    3.9825  -13.6401 C   0  0  0  0  0  0  0  0  0  0  0  0
 20 21  3  0  0  0
 21 19  1  0  0  0
 19 18  1  0  0  0
 18 17  1  0  0  0
 17 16  1  0  0  0
 16 15  1  0  0  0
 15 14  1  0  0  0
 14 12  1  0  0  0
 12  1  1  0  0  0
  1  2  1  0  0  0
  2  3  2  0  0  0
  3  4  1  0  0  0
  4  5  2  0  0  0
  5  6  1  0  0  0
  6  7  2  0  0  0
  7  8  1  0  0  0
  8  9  2  0  0  0
  9 10  1  0  0  0
 10  2  1  0  0  0
  9  4  1  0  0  0
 12 13  1  0  0  0
 10 11  1  0  0  0
M  END
> <minimizedAffinity>
-5.13937

> <minimizedRMSD>
1.70432

$$$$
P61240


 18 19  0  0  0  0  0  0  0  0999 V2000
   -5.0981    5.2563  -18.7541 C   0  0  0  0  0  0  0  0  0  0  0  0
   -5.1310    5.3728  -17.4536 N   0  0  0  0  0  0  0  0  0  0  0  0
   -6.3596    4.8977  -17.0847 C   0  0  0  0  0  0  0  0  0  0  0  0
   -6.9531    4.8579  -15.8179 C   0  0  0  0  0  0  0  0  0  0  0  0
   -8.2832    4.4450  -15.7261 C   0  0  0  0  0  0  0  0  0  0  0  0
   -8.9890    4.0706  -16.8711 C   0  0  0  0  0  0  0  0  0  0  0  0
   -8.3976    4.0416  -18.1361 C   0  0  0  0  0  0  0  0  0  0  0  0
   -7.0780    4.4730  -18.1949 C   0  0  0  0  0  0  0  0  0  0  0  0
   -6.2142    4.6532  -19.2404 N   0  0  0  0  0  0  0  0  0  0  0  0
   -6.3728    4.3928  -20.1765 H   0  0  0  0  0  0  0  0  0  0  0  0
   -3.8823    5.8802  -19.8027 S   0  0  0  0  0  0  0  0  0  0  0  0
   -2.4638    4.9003  -19.2346 C   0  0  0  0  0  0  0  0  0  0  0  0
   -1.2753    5.7990  -18.8784 C   0  0  0  0  0  0  0  0  0  0  0  0
   -0.8129    5.6247  -17.4953 N   0  0  0  0  0  0  0  0  0  0  0  0
   -0.7412    4.6283  -17.2894 H   0  0  0  0  0  0  0  0  0  0  0  0
   -1.7522    6.2462  -16.5505 C   0  0  0  0  0  0  0  0  0  0  0  0
   -2.8444    4.8891  -14.7444 C   0  0  0  0  0  0  0  0  0  0  0  0
   -1.5910    5.6384  -15.1629 C   0  0  0  0  0  0  0  0  0  0  0  0
 17 18  1  0  0  0
 18 16  1  0  0  0
 16 14  1  0  0  0
 14 13  1  0  0  0
 13 12  1  0  0  0
 12 11  1  0  0  0
 11  1  1  0  0  0
  1  2  2  0  0  0
  2  3  1  0  0  0
  3  4  2  0  0  0
  4  5  1  0  0  0
  5  6  2  0  0  0
  6  7  1  0  0  0
  7  8  2  0  0  0
  8  9  1  0  0  0
  9  1  1  0  0  0
  8  3  1  0  0  0
 14 15  1  0  0  0
  9 10  1  0  0  0
M  END
> <minimizedAffinity>
-4.88091

> <minimizedRMSD>
1.20795

$$$$
P61241


 19 20  0  0  0  0  0  0  0  0999 V2000
   -5.0638    5.1612  -18.8236 C   0  0  0  0  0  0  0  0  0  0  0  0
   -5.1154    5.3725  -17.5251 N   0  0  0  0  0  0  0  0  0  0  0  0
   -6.3371    4.9144  -17.1217 C   0  0  0  0  0  0  0  0  0  0  0  0
   -6.8950    4.8932  -15.8390 C   0  0  0  0  0  0  0  0  0  0  0  0
   -8.2207    4.4781  -15.7067 C   0  0  0  0  0  0  0  0  0  0  0  0
   -8.9558    4.0895  -16.8288 C   0  0  0  0  0  0  0  0  0  0  0  0
   -8.3964    4.0451  -18.1085 C   0  0  0  0  0  0  0  0  0  0  0  0
   -7.0761    4.4688  -18.2077 C   0  0  0  0  0  0  0  0  0  0  0  0
   -6.2308    4.6040  -19.2767 N   0  0  0  0  0  0  0  0  0  0  0  0
   -6.4269    4.3462  -20.2064 H   0  0  0  0  0  0  0  0  0  0  0  0
   -3.9097    5.5006  -19.6977 C   0  0  0  0  0  0  0  0  0  0  0  0
   -2.5615    5.2516  -18.9939 C   0  0  0  0  0  0  0  0  0  0  0  0
   -2.1428    6.3306  -18.0791 N   0  0  0  0  0  0  0  0  0  0  0  0
   -1.5669    6.9976  -18.5928 H   0  0  0  0  0  0  0  0  0  0  0  0
   -1.3546    5.7890  -16.9302 C   0  0  0  0  0  0  0  0  0  0  0  0
   -2.8611    4.5638  -15.5303 F   0  0  0  0  0  0  0  0  0  0  0  0
   -2.0978    5.6819  -15.5822 C   0  0  0  0  0  0  0  0  0  0  0  0
   -1.2264    5.6190  -14.5465 F   0  0  0  0  0  0  0  0  0  0  0  0
   -2.9102    6.7396  -15.3574 F   0  0  0  0  0  0  0  0  0  0  0  0
 16 17  1  0  0  0
 17 18  1  0  0  0
 17 19  1  0  0  0
 17 15  1  0  0  0
 15 13  1  0  0  0
 13 12  1  0  0  0
 12 11  1  0  0  0
 11  1  1  0  0  0
  1  2  2  0  0  0
  2  3  1  0  0  0
  3  4  2  0  0  0
  4  5  1  0  0  0
  5  6  2  0  0  0
  6  7  1  0  0  0
  7  8  2  0  0  0
  8  9  1  0  0  0
  9  1  1  0  0  0
  8  3  1  0  0  0
 13 14  1  0  0  0
  9 10  1  0  0  0
M  END
> <minimizedAffinity>
-5.17693

> <minimizedRMSD>
1.07985

$$$$
P61243


 19 20  0  0  0  0  0  0  0  0999 V2000
   -5.0931    5.1479  -18.7441 C   0  0  0  0  0  0  0  0  0  0  0  0
   -5.2728    5.4726  -17.4813 N   0  0  0  0  0  0  0  0  0  0  0  0
   -6.4903    4.9620  -17.1371 C   0  0  0  0  0  0  0  0  0  0  0  0
   -7.1021    4.8958  -15.8802 C   0  0  0  0  0  0  0  0  0  0  0  0
   -8.3834    4.3528  -15.7980 C   0  0  0  0  0  0  0  0  0  0  0  0
   -9.0342    3.9077  -16.9496 C   0  0  0  0  0  0  0  0  0  0  0  0
   -8.4317    3.9420  -18.2106 C   0  0  0  0  0  0  0  0  0  0  0  0
   -7.1468    4.4696  -18.2542 C   0  0  0  0  0  0  0  0  0  0  0  0
   -6.2588    4.6574  -19.2794 N   0  0  0  0  0  0  0  0  0  0  0  0
   -6.4264    4.4734  -20.2319 H   0  0  0  0  0  0  0  0  0  0  0  0
   -3.8092    5.1412  -19.5006 C   0  0  0  0  0  0  0  0  0  0  0  0
   -2.8589    6.3394  -19.3134 C   0  0  0  0  0  0  0  0  0  0  0  0
   -2.4349    6.7298  -17.9697 N   0  0  0  0  0  0  0  0  0  0  0  0
   -1.8295    7.5463  -18.0544 H   0  0  0  0  0  0  0  0  0  0  0  0
   -1.7054    5.6990  -17.2213 C   0  0  0  0  0  0  0  0  0  0  0  0
   -0.4539    5.7205  -15.0163 C   0  0  0  0  0  0  0  0  0  0  0  0
   -1.8336    5.9101  -15.6742 C   0  0  0  0  0  0  0  0  0  0  0  0
   -2.3490    7.3084  -15.2601 C   0  0  0  0  0  0  0  0  0  0  0  0
   -2.8365    4.8946  -15.1045 C   0  0  0  0  0  0  0  0  0  0  0  0
 16 17  1  0  0  0
 17 18  1  0  0  0
 17 19  1  0  0  0
 17 15  1  0  0  0
 15 13  1  0  0  0
 13 12  1  0  0  0
 12 11  1  0  0  0
 11  1  1  0  0  0
  1  2  2  0  0  0
  2  3  1  0  0  0
  3  4  2  0  0  0
  4  5  1  0  0  0
  5  6  2  0  0  0
  6  7  1  0  0  0
  7  8  2  0  0  0
  8  9  1  0  0  0
  9  1  1  0  0  0
  8  3  1  0  0  0
 13 14  1  0  0  0
  9 10  1  0  0  0
M  END
> <minimizedAffinity>
-5.23326

> <minimizedRMSD>
0.82288

$$$$
P61245


 17 18  0  0  0  0  0  0  0  0999 V2000
   -5.3351    5.4784  -18.8817 C   0  0  0  0  0  0  0  0  0  0  0  0
   -5.4242    5.6975  -17.5865 N   0  0  0  0  0  0  0  0  0  0  0  0
   -6.5613    5.0636  -17.1779 C   0  0  0  0  0  0  0  0  0  0  0  0
   -7.0927    4.9404  -15.8884 C   0  0  0  0  0  0  0  0  0  0  0  0
   -8.3220    4.2979  -15.7375 C   0  0  0  0  0  0  0  0  0  0  0  0
   -9.0002    3.8018  -16.8524 C   0  0  0  0  0  0  0  0  0  0  0  0
   -8.4706    3.8857  -18.1443 C   0  0  0  0  0  0  0  0  0  0  0  0
   -7.2396    4.5236  -18.2600 C   0  0  0  0  0  0  0  0  0  0  0  0
   -6.4398    4.8009  -19.3388 N   0  0  0  0  0  0  0  0  0  0  0  0
   -6.6243    4.5578  -20.2748 H   0  0  0  0  0  0  0  0  0  0  0  0
   -4.1977    5.8873  -19.7561 C   0  0  0  0  0  0  0  0  0  0  0  0
   -3.2278    4.7937  -19.9591 N   0  0  0  0  0  0  0  0  0  0  0  0
   -3.5707    3.9594  -19.4829 H   0  0  0  0  0  0  0  0  0  0  0  0
   -1.8955    5.1218  -19.4351 C   0  0  0  0  0  0  0  0  0  0  0  0
   -1.9866    5.6803  -15.3470 C   0  0  0  0  0  0  0  0  0  0  0  0
   -1.9023    5.5191  -16.7960 C   0  0  0  0  0  0  0  0  0  0  0  0
   -1.8707    5.3355  -17.9831 C   0  0  0  0  0  0  0  0  0  0  0  0
 15 16  1  0  0  0
 16 17  3  0  0  0
 17 14  1  0  0  0
 14 12  1  0  0  0
 12 11  1  0  0  0
 11  1  1  0  0  0
  1  2  2  0  0  0
  2  3  1  0  0  0
  3  4  2  0  0  0
  4  5  1  0  0  0
  5  6  2  0  0  0
  6  7  1  0  0  0
  7  8  2  0  0  0
  8  9  1  0  0  0
  9  1  1  0  0  0
  8  3  1  0  0  0
 12 13  1  0  0  0
  9 10  1  0  0  0
M  END
> <minimizedAffinity>
-5.38052

> <minimizedRMSD>
0.74241

$$$$
P61248


 21 22  0  0  0  0  0  0  0  0999 V2000
   -3.8514    5.4598  -19.7107 C   0  0  0  0  0  0  0  0  0  0  0  0
   -5.0370    5.1904  -18.8560 C   0  0  0  0  0  0  0  0  0  0  0  0
   -5.0852    5.4123  -17.5591 N   0  0  0  0  0  0  0  0  0  0  0  0
   -6.2979    4.9402  -17.1434 C   0  0  0  0  0  0  0  0  0  0  0  0
   -6.8283    4.8893  -15.8496 C   0  0  0  0  0  0  0  0  0  0  0  0
   -8.1375    4.4358  -15.6931 C   0  0  0  0  0  0  0  0  0  0  0  0
   -8.8877    4.0513  -16.8061 C   0  0  0  0  0  0  0  0  0  0  0  0
   -8.3589    4.0528  -18.1011 C   0  0  0  0  0  0  0  0  0  0  0  0
   -7.0482    4.5014  -18.2233 C   0  0  0  0  0  0  0  0  0  0  0  0
   -6.2205    4.6625  -19.3053 N   0  0  0  0  0  0  0  0  0  0  0  0
   -6.4376    4.4389  -20.2392 H   0  0  0  0  0  0  0  0  0  0  0  0
   -2.6702    4.5277  -19.3947 C   0  0  0  0  0  0  0  0  0  0  0  0
   -1.5561    5.1229  -18.5090 C   0  0  0  0  0  0  0  0  0  0  0  0
   -1.9714    5.3232  -17.1279 N   0  0  0  0  0  0  0  0  0  0  0  0
   -2.9912    5.3136  -17.1067 H   0  0  0  0  0  0  0  0  0  0  0  0
   -1.0721    6.1572  -15.0659 C   0  0  0  0  0  0  0  0  0  0  0  0
   -1.5217    6.5687  -16.4783 C   0  0  0  0  0  0  0  0  0  0  0  0
   -2.5155    7.7602  -16.2942 C   0  0  0  0  0  0  0  0  0  0  0  0
   -3.0402    8.4228  -17.5482 C   0  0  0  0  0  0  0  0  0  0  0  0
   -3.5840    7.3810  -15.5397 F   0  0  0  0  0  0  0  0  0  0  0  0
   -1.8808    8.7319  -15.5675 F   0  0  0  0  0  0  0  0  0  0  0  0
 17 16  1  0  0  0
 17 14  1  0  0  0
 14 13  1  0  0  0
 13 12  1  0  0  0
 12  1  1  0  0  0
  1  2  1  0  0  0
  2  3  2  0  0  0
  3  4  1  0  0  0
  4  5  2  0  0  0
  5  6  1  0  0  0
  6  7  2  0  0  0
  7  8  1  0  0  0
  8  9  2  0  0  0
  9 10  1  0  0  0
 17 18  1  0  0  0
 18 19  1  0  0  0
 18 20  1  0  0  0
 18 21  1  0  0  0
 10  2  1  0  0  0
  9  4  1  0  0  0
 14 15  1  0  0  0
 10 11  1  0  0  0
M  END
> <minimizedAffinity>
-5.10607

> <minimizedRMSD>
1.10403

$$$$
P61290


 16 18  0  0  0  0  0  0  0  0999 V2000
   -9.3110    3.9294  -17.9147 C   0  0  0  0  0  0  0  0  0  0  0  0
   -9.2956    3.9291  -16.5270 C   0  0  0  0  0  0  0  0  0  0  0  0
   -8.1308    4.2464  -15.8294 C   0  0  0  0  0  0  0  0  0  0  0  0
   -6.9719    4.6017  -16.4964 C   0  0  0  0  0  0  0  0  0  0  0  0
   -5.8972    4.9481  -15.7847 N   0  0  0  0  0  0  0  0  0  0  0  0
   -4.8028    5.3528  -16.4455 C   0  0  0  0  0  0  0  0  0  0  0  0
   -4.7219    5.4150  -17.7842 N   0  0  0  0  0  0  0  0  0  0  0  0
   -5.8075    5.0198  -18.4829 C   0  0  0  0  0  0  0  0  0  0  0  0
   -6.9901    4.6153  -17.8904 C   0  0  0  0  0  0  0  0  0  0  0  0
   -8.1506    4.2575  -18.6022 C   0  0  0  0  0  0  0  0  0  0  0  0
   -3.7254    5.8533  -15.7046 N   0  0  0  0  0  0  0  0  0  0  0  0
   -3.5050    5.1251  -14.4502 C   0  0  0  0  0  0  0  0  0  0  0  0
   -2.5707    5.9284  -13.5485 C   0  0  0  0  0  0  0  0  0  0  0  0
   -3.2044    7.2672  -13.1609 C   0  0  0  0  0  0  0  0  0  0  0  0
   -4.2203    7.7576  -14.1961 C   0  0  0  0  0  0  0  0  0  0  0  0
   -3.8327    7.3159  -15.6075 C   0  0  0  0  0  0  0  0  0  0  0  0
  1  2  2  0  0  0
  2  3  1  0  0  0
  3  4  2  0  0  0
  4  5  1  0  0  0
  5  6  2  0  0  0
  6 11  1  0  0  0
 11 12  1  0  0  0
 12 13  1  0  0  0
 13 14  1  0  0  0
 14 15  1  0  0  0
 15 16  1  0  0  0
  6  7  1  0  0  0
  7  8  2  0  0  0
  8  9  1  0  0  0
  9 10  2  0  0  0
 10  1  1  0  0  0
  9  4  1  0  0  0
 16 11  1  0  0  0
M  END
> <minimizedAffinity>
-4.92791

> <minimizedRMSD>
0.16040

$$$$
P61291


 17 19  0  0  0  0  0  0  0  0999 V2000
   -4.4548    5.3075  -16.4025 O   0  0  0  0  0  0  0  0  0  0  0  0
   -5.3037    4.9587  -17.2129 C   0  0  0  0  0  0  0  0  0  0  0  0
   -5.1991    4.9027  -18.6170 N   0  0  0  0  0  0  0  0  0  0  0  0
   -6.4365    4.6133  -19.1724 N   0  0  0  0  0  0  0  0  0  0  0  0
   -7.2170    4.4580  -18.1538 C   0  0  0  0  0  0  0  0  0  0  0  0
   -8.6655    4.1732  -18.1691 C   0  0  0  0  0  0  0  0  0  0  0  0
   -9.2858    4.0892  -16.9824 C   0  0  0  0  0  0  0  0  0  0  0  0
   -8.5636    4.2571  -15.7359 C   0  0  0  0  0  0  0  0  0  0  0  0
   -7.2511    4.5305  -15.7482 C   0  0  0  0  0  0  0  0  0  0  0  0
   -6.6109    4.6204  -16.9499 N   0  0  0  0  0  0  0  0  0  0  0  0
   -4.1738    5.4657  -19.4807 C   0  0  0  0  0  0  0  0  0  0  0  0
   -2.8119    4.7674  -19.3618 C   0  0  0  0  0  0  0  0  0  0  0  0
   -1.9074    5.3369  -18.2703 C   0  0  0  0  0  0  0  0  0  0  0  0
   -1.8952    6.8632  -18.2581 C   0  0  0  0  0  0  0  0  0  0  0  0
   -3.2464    7.4193  -18.1603 N   0  0  0  0  0  0  0  0  0  0  0  0
   -4.0509    6.9945  -19.3182 C   0  0  0  0  0  0  0  0  0  0  0  0
   -3.1920    8.4377  -18.1423 H   0  0  0  0  0  0  0  0  0  0  0  0
  1  2  2  0  0  0
  2  3  1  0  0  0
 11  3  1  0  0  0
 11 12  1  0  0  0
 12 13  1  0  0  0
 13 14  1  0  0  0
 14 15  1  0  0  0
 15 16  1  0  0  0
  3  4  1  0  0  0
  4  5  2  0  0  0
  5  6  1  0  0  0
  6  7  2  0  0  0
  7  8  1  0  0  0
  8  9  2  0  0  0
  9 10  1  0  0  0
 10  2  1  0  0  0
 16 11  1  0  0  0
 10  5  1  0  0  0
 15 17  1  0  0  0
M  END
> <minimizedAffinity>
-5.54909

> <minimizedRMSD>
0.54597

$$$$
P61296


 15 17  0  0  0  0  0  0  0  0999 V2000
   -9.5199    4.2523  -16.8666 C   0  0  0  0  0  0  0  0  0  0  0  0
   -8.4658    4.3072  -15.9851 C   0  0  0  0  0  0  0  0  0  0  0  0
   -7.2193    4.4667  -16.6542 C   0  0  0  0  0  0  0  0  0  0  0  0
   -6.0272    4.6242  -16.0405 N   0  0  0  0  0  0  0  0  0  0  0  0
   -4.9873    4.8793  -16.8376 C   0  0  0  0  0  0  0  0  0  0  0  0
   -5.0526    4.9226  -18.1828 N   0  0  0  0  0  0  0  0  0  0  0  0
   -6.2336    4.6879  -18.8038 C   0  0  0  0  0  0  0  0  0  0  0  0
   -7.3639    4.4893  -18.0342 C   0  0  0  0  0  0  0  0  0  0  0  0
   -8.9992    4.2686  -18.4939 S   0  0  0  0  0  0  0  0  0  0  0  0
   -3.7632    5.2094  -16.2424 N   0  0  0  0  0  0  0  0  0  0  0  0
   -3.4800    4.4745  -15.0061 C   0  0  0  0  0  0  0  0  0  0  0  0
   -2.2548    5.0788  -14.3242 C   0  0  0  0  0  0  0  0  0  0  0  0
   -2.5163    6.5313  -13.9178 C   0  0  0  0  0  0  0  0  0  0  0  0
   -3.5947    7.1958  -14.7771 C   0  0  0  0  0  0  0  0  0  0  0  0
   -3.5723    6.6652  -16.2116 C   0  0  0  0  0  0  0  0  0  0  0  0
  1  2  2  0  0  0
  2  3  1  0  0  0
  3  4  2  0  0  0
  4  5  1  0  0  0
  5 10  1  0  0  0
 10 11  1  0  0  0
 11 12  1  0  0  0
 12 13  1  0  0  0
 13 14  1  0  0  0
 14 15  1  0  0  0
  5  6  2  0  0  0
  6  7  1  0  0  0
  7  8  2  0  0  0
  8  9  1  0  0  0
  9  1  1  0  0  0
  8  3  1  0  0  0
 15 10  1  0  0  0
M  END
> <minimizedAffinity>
-4.45375

> <minimizedRMSD>
0.89148

$$$$
P61410


 18 19  0  0  0  0  0  0  0  0999 V2000
   -7.7421    4.6801  -14.2833 C   0  0  0  0  0  0  0  0  0  0  0  0
  -10.4211    4.9542  -18.1159 N   0  0  0  0  0  0  0  0  0  0  0  0
   -9.2804    4.7726  -17.4497 C   0  0  0  0  0  0  0  0  0  0  0  0
   -8.0515    4.6331  -17.8875 N   0  0  0  0  0  0  0  0  0  0  0  0
   -7.2442    4.5514  -16.7697 N   0  0  0  0  0  0  0  0  0  0  0  0
   -8.0532    4.6275  -15.7309 C   0  0  0  0  0  0  0  0  0  0  0  0
   -9.3629    4.8081  -16.0924 O   0  0  0  0  0  0  0  0  0  0  0  0
  -10.4240    4.9390  -19.1003 H   0  0  0  0  0  0  0  0  0  0  0  0
  -11.2604    5.1035  -17.6234 H   0  0  0  0  0  0  0  0  0  0  0  0
   -6.5036    4.0219  -13.9670 N   0  0  0  0  0  0  0  0  0  0  0  0
   -6.2198    2.5576  -13.5671 C   0  0  0  0  0  0  0  0  0  0  0  0
   -6.9536    1.6757  -13.3569 O   0  0  0  0  0  0  0  0  0  0  0  0
   -5.7069    4.5985  -14.0128 H   0  0  0  0  0  0  0  0  0  0  0  0
   -4.6850    2.3756  -13.4827 C   0  0  0  0  0  0  0  0  0  0  0  0
   -4.1273    2.9077  -12.2107 N   0  0  0  0  0  0  0  0  0  0  0  0
   -2.6521    2.7648  -12.2152 C   0  0  0  0  0  0  0  0  0  0  0  0
   -2.7831    1.4229  -11.4831 C   0  0  0  0  0  0  0  0  0  0  0  0
   -4.2107    1.8738  -11.1465 C   0  0  0  0  0  0  0  0  0  0  0  0
  2  3  1  0  0  0
  3  4  2  0  0  0
  4  5  1  0  0  0
  5  6  2  0  0  0
  6  1  1  0  0  0
  1 10  1  0  0  0
 10 11  1  0  0  0
 11 12  2  0  0  0
 11 14  1  0  0  0
 14 15  1  0  0  0
 15 16  1  0  0  0
 16 17  1  0  0  0
 17 18  1  0  0  0
  6  7  1  0  0  0
  7  3  1  0  0  0
 18 15  1  0  0  0
  2  8  1  0  0  0
  2  9  1  0  0  0
 10 13  1  0  0  0
M  END
> <minimizedAffinity>
-5.30263

> <minimizedRMSD>
1.01079

$$$$
P61561


 23 26  0  0  0  0  0  0  0  0999 V2000
   -6.5573    3.7712  -20.9965 O   0  0  0  0  0  0  0  0  0  0  0  0
   -5.8061    4.5172  -20.5042 C   0  0  0  0  0  0  0  0  0  0  0  0
   -5.8682    5.2519  -19.1463 N   0  0  0  0  0  0  0  0  0  0  0  0
   -5.1385    5.8944  -18.9916 H   0  0  0  0  0  0  0  0  0  0  0  0
   -6.7859    5.1535  -18.1084 C   0  0  0  0  0  0  0  0  0  0  0  0
   -8.0307    4.5469  -18.1954 C   0  0  0  0  0  0  0  0  0  0  0  0
   -8.8798    4.5605  -17.0689 C   0  0  0  0  0  0  0  0  0  0  0  0
   -8.4862    5.1165  -15.8423 C   0  0  0  0  0  0  0  0  0  0  0  0
   -9.2699    5.1059  -14.7425 N   0  0  0  0  0  0  0  0  0  0  0  0
   -8.7341    5.5040  -13.5600 C   0  0  0  0  0  0  0  0  0  0  0  0
   -7.4854    6.0593  -13.4178 C   0  0  0  0  0  0  0  0  0  0  0  0
   -6.7205    6.1775  -14.5603 C   0  0  0  0  0  0  0  0  0  0  0  0
   -7.2028    5.6845  -15.7783 C   0  0  0  0  0  0  0  0  0  0  0  0
   -6.3899    5.7392  -16.9087 C   0  0  0  0  0  0  0  0  0  0  0  0
   -4.5580    4.9087  -21.2086 C   0  0  0  0  0  0  0  0  0  0  0  0
   -3.3063    4.6643  -20.6476 C   0  0  0  0  0  0  0  0  0  0  0  0
   -2.2011    5.0373  -21.3795 C   0  0  0  0  0  0  0  0  0  0  0  0
   -2.2814    5.6538  -22.5775 N   0  0  0  0  0  0  0  0  0  0  0  0
   -3.5044    5.8954  -23.1160 C   0  0  0  0  0  0  0  0  0  0  0  0
   -4.6652    5.5259  -22.4473 C   0  0  0  0  0  0  0  0  0  0  0  0
   -3.5729    6.5556  -24.4720 C   0  0  0  0  0  0  0  0  0  0  0  0
   -3.5464    8.0625  -24.5951 C   0  0  0  0  0  0  0  0  0  0  0  0
   -2.3554    7.2603  -25.0251 C   0  0  0  0  0  0  0  0  0  0  0  0
  1  2  2  0  0  0
  2  3  1  0  0  0
  3  5  1  0  0  0
  5  6  2  0  0  0
  6  7  1  0  0  0
  7  8  2  0  0  0
  8  9  1  0  0  0
  9 10  2  0  0  0
 10 11  1  0  0  0
 11 12  2  0  0  0
 12 13  1  0  0  0
 13 14  2  0  0  0
  2 15  1  0  0  0
 15 16  2  0  0  0
 16 17  1  0  0  0
 17 18  2  0  0  0
 18 19  1  0  0  0
 19 21  1  0  0  0
 21 22  1  0  0  0
 22 23  1  0  0  0
 19 20  2  0  0  0
 14  5  1  0  0  0
 20 15  1  0  0  0
 13  8  1  0  0  0
 23 21  1  0  0  0
  3  4  1  0  0  0
M  END
> <minimizedAffinity>
-6.22327

> <minimizedRMSD>
0.59727

$$$$
P61563


 22 25  0  0  0  0  0  0  0  0999 V2000
   -6.2733    3.7363  -21.1256 O   0  0  0  0  0  0  0  0  0  0  0  0
   -5.6701    4.6278  -20.6716 C   0  0  0  0  0  0  0  0  0  0  0  0
   -5.8884    5.4219  -19.3675 N   0  0  0  0  0  0  0  0  0  0  0  0
   -5.2810    6.1869  -19.2444 H   0  0  0  0  0  0  0  0  0  0  0  0
   -6.8024    5.2340  -18.3382 C   0  0  0  0  0  0  0  0  0  0  0  0
   -7.9982    4.4822  -18.4799 C   0  0  0  0  0  0  0  0  0  0  0  0
   -8.9321    4.3234  -17.4187 C   0  0  0  0  0  0  0  0  0  0  0  0
   -8.5577    4.9047  -16.1777 C   0  0  0  0  0  0  0  0  0  0  0  0
   -9.2257    4.9380  -15.0124 N   0  0  0  0  0  0  0  0  0  0  0  0
   -8.2723    5.5572  -13.8085 S   0  0  0  0  0  0  0  0  0  0  0  0
   -6.9985    6.0503  -14.8179 C   0  0  0  0  0  0  0  0  0  0  0  0
   -7.2965    5.6228  -16.0871 C   0  0  0  0  0  0  0  0  0  0  0  0
   -6.4150    5.8497  -17.1320 C   0  0  0  0  0  0  0  0  0  0  0  0
   -4.4536    5.1151  -21.3968 C   0  0  0  0  0  0  0  0  0  0  0  0
   -4.6940    5.8236  -22.5804 C   0  0  0  0  0  0  0  0  0  0  0  0
   -3.6355    6.2098  -23.3913 C   0  0  0  0  0  0  0  0  0  0  0  0
   -2.3620    5.8778  -22.9877 C   0  0  0  0  0  0  0  0  0  0  0  0
   -2.0948    5.2504  -21.8267 N   0  0  0  0  0  0  0  0  0  0  0  0
   -3.1213    4.8586  -21.0184 C   0  0  0  0  0  0  0  0  0  0  0  0
   -2.6856    4.2086  -19.7072 C   0  0  0  0  0  0  0  0  0  0  0  0
   -1.3014    4.4653  -19.1372 C   0  0  0  0  0  0  0  0  0  0  0  0
   -2.4756    5.1318  -18.5106 C   0  0  0  0  0  0  0  0  0  0  0  0
  1  2  2  0  0  0
  2  3  1  0  0  0
  3  5  1  0  0  0
  5  6  1  0  0  0
  6  7  2  0  0  0
  7  8  1  0  0  0
  8  9  2  0  0  0
  9 10  1  0  0  0
 10 11  1  0  0  0
 11 12  2  0  0  0
 12 13  1  0  0  0
  2 14  1  0  0  0
 14 15  2  0  0  0
 15 16  1  0  0  0
 16 17  2  0  0  0
 17 18  1  0  0  0
 18 19  2  0  0  0
 19 20  1  0  0  0
 20 21  1  0  0  0
 21 22  1  0  0  0
 13  5  2  0  0  0
 19 14  1  0  0  0
 22 20  1  0  0  0
 12  8  1  0  0  0
  3  4  1  0  0  0
M  END
> <minimizedAffinity>
-6.42381

> <minimizedRMSD>
1.01197

$$$$
P61570


 20 22  0  0  0  0  0  0  0  0999 V2000
   -5.7653    4.4780  -19.6644 N   0  0  0  0  0  0  0  0  0  0  0  0
   -5.5417    3.5580  -19.9341 H   0  0  0  0  0  0  0  0  0  0  0  0
   -6.7199    4.5845  -18.6761 C   0  0  0  0  0  0  0  0  0  0  0  0
   -8.0909    4.3883  -18.7828 C   0  0  0  0  0  0  0  0  0  0  0  0
   -8.9274    4.5287  -17.6498 C   0  0  0  0  0  0  0  0  0  0  0  0
   -8.4250    4.8532  -16.3862 C   0  0  0  0  0  0  0  0  0  0  0  0
   -9.2095    5.0656  -15.3046 N   0  0  0  0  0  0  0  0  0  0  0  0
   -8.5969    5.2277  -14.1006 C   0  0  0  0  0  0  0  0  0  0  0  0
   -7.2376    5.3084  -13.9111 C   0  0  0  0  0  0  0  0  0  0  0  0
   -6.4442    5.1935  -15.0313 C   0  0  0  0  0  0  0  0  0  0  0  0
   -7.0312    4.9573  -16.2767 C   0  0  0  0  0  0  0  0  0  0  0  0
   -6.2137    4.8262  -17.3968 C   0  0  0  0  0  0  0  0  0  0  0  0
   -5.0148    5.3180  -21.8674 C   0  0  0  0  0  0  0  0  0  0  0  0
   -5.0382    5.5254  -20.3693 C   0  0  0  0  0  0  0  0  0  0  0  0
   -3.5528    5.5049  -19.9503 C   0  0  0  0  0  0  0  0  0  0  0  0
   -2.9998    4.3939  -19.3013 C   0  0  0  0  0  0  0  0  0  0  0  0
   -1.6334    4.3589  -19.0485 C   0  0  0  0  0  0  0  0  0  0  0  0
   -0.8442    5.4238  -19.4542 C   0  0  0  0  0  0  0  0  0  0  0  0
   -1.4583    6.4868  -20.0922 C   0  0  0  0  0  0  0  0  0  0  0  0
   -2.7845    6.5552  -20.3466 N   0  0  0  0  0  0  0  0  0  0  0  0
 14 13  1  0  0  0
 14  1  1  0  0  0
  1  3  1  0  0  0
  3  4  2  0  0  0
  4  5  1  0  0  0
  5  6  2  0  0  0
  6  7  1  0  0  0
  7  8  2  0  0  0
  8  9  1  0  0  0
  9 10  2  0  0  0
 10 11  1  0  0  0
 11 12  2  0  0  0
 14 15  1  0  0  0
 15 16  2  0  0  0
 16 17  1  0  0  0
 17 18  2  0  0  0
 18 19  1  0  0  0
 19 20  2  0  0  0
 12  3  1  0  0  0
 20 15  1  0  0  0
 11  6  1  0  0  0
  1  2  1  0  0  0
M  END
> <minimizedAffinity>
-6.12617

> <minimizedRMSD>
1.52647

$$$$
P61574


 25 28  0  0  0  0  0  0  0  0999 V2000
   -6.7474    3.7036  -20.9927 O   0  0  0  0  0  0  0  0  0  0  0  0
   -5.9711    4.4320  -20.5134 C   0  0  0  0  0  0  0  0  0  0  0  0
   -5.9881    5.1584  -19.1506 N   0  0  0  0  0  0  0  0  0  0  0  0
   -5.2430    5.7861  -19.0089 H   0  0  0  0  0  0  0  0  0  0  0  0
   -6.8821    5.0705  -18.0935 C   0  0  0  0  0  0  0  0  0  0  0  0
   -8.1666    4.5524  -18.1721 C   0  0  0  0  0  0  0  0  0  0  0  0
   -8.9839    4.5731  -17.0231 C   0  0  0  0  0  0  0  0  0  0  0  0
   -8.5203    5.0391  -15.7834 C   0  0  0  0  0  0  0  0  0  0  0  0
   -9.2742    5.0268  -14.6625 N   0  0  0  0  0  0  0  0  0  0  0  0
   -8.6714    5.3065  -13.4779 C   0  0  0  0  0  0  0  0  0  0  0  0
   -7.3813    5.7610  -13.3463 C   0  0  0  0  0  0  0  0  0  0  0  0
   -6.6453    5.8972  -14.5054 C   0  0  0  0  0  0  0  0  0  0  0  0
   -7.1981    5.5118  -15.7314 C   0  0  0  0  0  0  0  0  0  0  0  0
   -6.4151    5.5715  -16.8820 C   0  0  0  0  0  0  0  0  0  0  0  0
   -4.7742    4.8599  -21.2673 C   0  0  0  0  0  0  0  0  0  0  0  0
   -3.4793    4.6449  -20.8069 C   0  0  0  0  0  0  0  0  0  0  0  0
   -2.4054    5.0570  -21.5963 C   0  0  0  0  0  0  0  0  0  0  0  0
   -2.6362    5.7029  -22.8136 C   0  0  0  0  0  0  0  0  0  0  0  0
   -3.9038    5.9557  -23.2192 N   0  0  0  0  0  0  0  0  0  0  0  0
   -4.9383    5.5229  -22.4613 C   0  0  0  0  0  0  0  0  0  0  0  0
   -1.5974    6.1495  -23.6067 N   0  0  0  0  0  0  0  0  0  0  0  0
   -1.9093    6.9565  -24.7896 C   0  0  0  0  0  0  0  0  0  0  0  0
   -0.8212    6.5956  -25.8038 C   0  0  0  0  0  0  0  0  0  0  0  0
    0.3145    6.0656  -24.9466 C   0  0  0  0  0  0  0  0  0  0  0  0
   -0.4282    5.3114  -23.8501 C   0  0  0  0  0  0  0  0  0  0  0  0
  1  2  2  0  0  0
  2  3  1  0  0  0
  3  5  1  0  0  0
  5  6  2  0  0  0
  6  7  1  0  0  0
  7  8  2  0  0  0
  8  9  1  0  0  0
  9 10  2  0  0  0
 10 11  1  0  0  0
 11 12  2  0  0  0
 12 13  1  0  0  0
 13 14  2  0  0  0
  2 15  1  0  0  0
 15 16  2  0  0  0
 16 17  1  0  0  0
 17 18  2  0  0  0
 18 21  1  0  0  0
 21 22  1  0  0  0
 22 23  1  0  0  0
 23 24  1  0  0  0
 24 25  1  0  0  0
 18 19  1  0  0  0
 19 20  2  0  0  0
 14  5  1  0  0  0
 20 15  1  0  0  0
 13  8  1  0  0  0
 25 21  1  0  0  0
  3  4  1  0  0  0
M  END
> <minimizedAffinity>
-6.35067

> <minimizedRMSD>
0.62676

$$$$
P61575


 25 28  0  0  0  0  0  0  0  0999 V2000
   -6.2782    3.6913  -21.1406 O   0  0  0  0  0  0  0  0  0  0  0  0
   -5.7681    4.6644  -20.7457 C   0  0  0  0  0  0  0  0  0  0  0  0
   -6.0237    5.4743  -19.4649 N   0  0  0  0  0  0  0  0  0  0  0  0
   -5.5076    6.3099  -19.3963 H   0  0  0  0  0  0  0  0  0  0  0  0
   -6.8594    5.2216  -18.3936 C   0  0  0  0  0  0  0  0  0  0  0  0
   -8.0226    4.4727  -18.4090 C   0  0  0  0  0  0  0  0  0  0  0  0
   -8.7853    4.3932  -17.2242 C   0  0  0  0  0  0  0  0  0  0  0  0
   -8.3731    4.9927  -16.0186 C   0  0  0  0  0  0  0  0  0  0  0  0
   -9.0699    4.9157  -14.8628 N   0  0  0  0  0  0  0  0  0  0  0  0
   -8.4658    5.3436  -13.7203 C   0  0  0  0  0  0  0  0  0  0  0  0
   -7.2676    6.0123  -13.6646 C   0  0  0  0  0  0  0  0  0  0  0  0
   -6.6186    6.2177  -14.8606 C   0  0  0  0  0  0  0  0  0  0  0  0
   -7.1535    5.6866  -16.0374 C   0  0  0  0  0  0  0  0  0  0  0  0
   -6.4413    5.8342  -17.2160 C   0  0  0  0  0  0  0  0  0  0  0  0
   -4.6777    5.3254  -21.5547 C   0  0  0  0  0  0  0  0  0  0  0  0
   -5.0621    5.9184  -22.7555 C   0  0  0  0  0  0  0  0  0  0  0  0
   -4.1072    6.4215  -23.6313 C   0  0  0  0  0  0  0  0  0  0  0  0
   -2.7822    6.3337  -23.2626 C   0  0  0  0  0  0  0  0  0  0  0  0
   -2.3767    5.8660  -22.0665 N   0  0  0  0  0  0  0  0  0  0  0  0
   -3.3143    5.3851  -21.2110 C   0  0  0  0  0  0  0  0  0  0  0  0
   -2.8762    5.0582  -19.9030 N   0  0  0  0  0  0  0  0  0  0  0  0
   -1.6523    4.2348  -19.9530 C   0  0  0  0  0  0  0  0  0  0  0  0
   -0.8310    4.7197  -18.7626 C   0  0  0  0  0  0  0  0  0  0  0  0
   -1.0791    6.2129  -18.8010 C   0  0  0  0  0  0  0  0  0  0  0  0
   -2.5643    6.2899  -19.1287 C   0  0  0  0  0  0  0  0  0  0  0  0
  1  2  2  0  0  0
  2  3  1  0  0  0
  3  5  1  0  0  0
  5  6  2  0  0  0
  6  7  1  0  0  0
  7  8  2  0  0  0
  8  9  1  0  0  0
  9 10  2  0  0  0
 10 11  1  0  0  0
 11 12  2  0  0  0
 12 13  1  0  0  0
 13 14  2  0  0  0
  2 15  1  0  0  0
 15 16  2  0  0  0
 16 17  1  0  0  0
 17 18  2  0  0  0
 18 19  1  0  0  0
 19 20  2  0  0  0
 20 21  1  0  0  0
 21 22  1  0  0  0
 22 23  1  0  0  0
 23 24  1  0  0  0
 24 25  1  0  0  0
 14  5  1  0  0  0
 20 15  1  0  0  0
 25 21  1  0  0  0
 13  8  1  0  0  0
  3  4  1  0  0  0
M  END
> <minimizedAffinity>
-6.25366

> <minimizedRMSD>
1.35121

$$$$
P61577


 23 25  0  0  0  0  0  0  0  0999 V2000
   -5.9810    4.4596  -20.5006 C   0  0  0  0  0  0  0  0  0  0  0  0
   -6.7312    3.7084  -20.9873 O   0  0  0  0  0  0  0  0  0  0  0  0
   -5.9780    5.1047  -19.0953 N   0  0  0  0  0  0  0  0  0  0  0  0
   -5.1850    5.6529  -18.8954 H   0  0  0  0  0  0  0  0  0  0  0  0
   -6.9099    5.0370  -18.0708 C   0  0  0  0  0  0  0  0  0  0  0  0
   -8.1896    4.5132  -18.1492 C   0  0  0  0  0  0  0  0  0  0  0  0
   -9.0057    4.5392  -16.9971 C   0  0  0  0  0  0  0  0  0  0  0  0
   -8.5446    5.0160  -15.7573 C   0  0  0  0  0  0  0  0  0  0  0  0
   -9.2885    5.0023  -14.6291 N   0  0  0  0  0  0  0  0  0  0  0  0
   -8.6767    5.2909  -13.4499 C   0  0  0  0  0  0  0  0  0  0  0  0
   -7.3916    5.7607  -13.3281 C   0  0  0  0  0  0  0  0  0  0  0  0
   -6.6681    5.8995  -14.4927 C   0  0  0  0  0  0  0  0  0  0  0  0
   -7.2280    5.5008  -15.7111 C   0  0  0  0  0  0  0  0  0  0  0  0
   -6.4498    5.5546  -16.8615 C   0  0  0  0  0  0  0  0  0  0  0  0
   -2.4587    5.4969  -21.3165 C   0  0  0  0  0  0  0  0  0  0  0  0
   -3.5202    4.9341  -20.6333 C   0  0  0  0  0  0  0  0  0  0  0  0
   -4.7798    4.9381  -21.2413 C   0  0  0  0  0  0  0  0  0  0  0  0
   -4.9354    5.4458  -22.5205 C   0  0  0  0  0  0  0  0  0  0  0  0
   -3.8088    5.9439  -23.1416 C   0  0  0  0  0  0  0  0  0  0  0  0
   -2.5900    6.0014  -22.5603 N   0  0  0  0  0  0  0  0  0  0  0  0
   -0.9011    5.6704  -20.4674 S   0  0  0  0  0  0  0  0  0  0  0  0
    1.5693    6.4219  -21.3804 C   0  0  0  0  0  0  0  0  0  0  0  0
    0.1029    6.4446  -21.7767 C   0  0  0  0  0  0  0  0  0  0  0  0
 22 23  1  0  0  0
 23 21  1  0  0  0
 21 15  1  0  0  0
 15 16  2  0  0  0
 16 17  1  0  0  0
 17  1  1  0  0  0
  1  2  2  0  0  0
  1  3  1  0  0  0
  3  5  1  0  0  0
  5  6  2  0  0  0
  6  7  1  0  0  0
  7  8  2  0  0  0
  8  9  1  0  0  0
  9 10  2  0  0  0
 10 11  1  0  0  0
 11 12  2  0  0  0
 12 13  1  0  0  0
 13 14  2  0  0  0
 17 18  2  0  0  0
 18 19  1  0  0  0
 19 20  2  0  0  0
 20 15  1  0  0  0
 14  5  1  0  0  0
 13  8  1  0  0  0
  3  4  1  0  0  0
M  END
> <minimizedAffinity>
-5.83052

> <minimizedRMSD>
0.60522

$$$$
P61586


 25 28  0  0  0  0  0  0  0  0999 V2000
   -5.6661    4.5691  -19.4809 C   0  0  0  0  0  0  0  0  0  0  0  0
   -4.3092    5.0308  -19.8581 C   0  0  0  0  0  0  0  0  0  0  0  0
   -3.0847    4.8562  -19.2527 C   0  0  0  0  0  0  0  0  0  0  0  0
   -2.1378    5.5088  -20.0868 C   0  0  0  0  0  0  0  0  0  0  0  0
   -2.7536    6.0367  -21.1598 N   0  0  0  0  0  0  0  0  0  0  0  0
   -4.0569    5.7693  -20.9726 N   0  0  0  0  0  0  0  0  0  0  0  0
   -4.7632    6.0788  -21.5846 H   0  0  0  0  0  0  0  0  0  0  0  0
   -0.6948    5.6547  -19.8749 C   0  0  0  0  0  0  0  0  0  0  0  0
   -0.0790    5.1574  -18.7234 C   0  0  0  0  0  0  0  0  0  0  0  0
    1.2874    5.3367  -18.5690 C   0  0  0  0  0  0  0  0  0  0  0  0
    2.0733    5.9677  -19.4650 N   0  0  0  0  0  0  0  0  0  0  0  0
    1.4584    6.4334  -20.5744 C   0  0  0  0  0  0  0  0  0  0  0  0
    0.0996    6.3112  -20.8174 C   0  0  0  0  0  0  0  0  0  0  0  0
   -6.5511    5.6578  -19.0932 N   0  0  0  0  0  0  0  0  0  0  0  0
   -6.7045    6.4617  -19.6405 H   0  0  0  0  0  0  0  0  0  0  0  0
   -7.2681    6.2016  -13.0601 C   0  0  0  0  0  0  0  0  0  0  0  0
   -8.4798    5.5487  -13.0461 C   0  0  0  0  0  0  0  0  0  0  0  0
   -9.0995    5.0727  -14.1543 N   0  0  0  0  0  0  0  0  0  0  0  0
   -8.4396    5.1291  -15.3316 C   0  0  0  0  0  0  0  0  0  0  0  0
   -8.9318    4.5108  -16.4819 C   0  0  0  0  0  0  0  0  0  0  0  0
   -8.2999    4.6377  -17.7264 C   0  0  0  0  0  0  0  0  0  0  0  0
   -7.1624    5.4295  -17.8459 C   0  0  0  0  0  0  0  0  0  0  0  0
   -6.5993    5.9712  -16.6903 C   0  0  0  0  0  0  0  0  0  0  0  0
   -7.2206    5.8194  -15.4432 C   0  0  0  0  0  0  0  0  0  0  0  0
   -6.6453    6.3614  -14.2870 C   0  0  0  0  0  0  0  0  0  0  0  0
 16 17  2  0  0  0
 17 18  1  0  0  0
 18 19  2  0  0  0
 19 20  1  0  0  0
 20 21  2  0  0  0
 21 22  1  0  0  0
 22 14  1  0  0  0
 14  1  1  0  0  0
  1  2  1  0  0  0
  2  3  2  0  0  0
  3  4  1  0  0  0
  4  8  1  0  0  0
  8  9  2  0  0  0
  9 10  1  0  0  0
 10 11  2  0  0  0
 11 12  1  0  0  0
 12 13  2  0  0  0
  4  5  2  0  0  0
  5  6  1  0  0  0
 22 23  2  0  0  0
 23 24  1  0  0  0
 24 25  2  0  0  0
 25 16  1  0  0  0
 24 19  1  0  0  0
  6  2  1  0  0  0
 13  8  1  0  0  0
 14 15  1  0  0  0
  6  7  1  0  0  0
M  END
> <minimizedAffinity>
-5.82888

> <minimizedRMSD>
0.70270

$$$$
P61623


 24 27  0  0  0  0  0  0  0  0999 V2000
   -8.5306    2.6939  -11.1794 O   0  0  0  0  0  0  0  0  0  0  0  0
   -8.3561    3.8355  -11.0391 C   0  0  0  0  0  0  0  0  0  0  0  0
   -8.2222    4.9584  -12.0809 N   0  0  0  0  0  0  0  0  0  0  0  0
   -7.9998    5.8421  -11.7083 H   0  0  0  0  0  0  0  0  0  0  0  0
   -8.2104    4.3791   -9.6774 C   0  0  0  0  0  0  0  0  0  0  0  0
   -7.8170    5.6471   -9.4109 N   0  0  0  0  0  0  0  0  0  0  0  0
   -7.8271    5.7608   -8.0145 O   0  0  0  0  0  0  0  0  0  0  0  0
   -8.2237    4.5822   -7.4951 C   0  0  0  0  0  0  0  0  0  0  0  0
   -8.4667    3.6743   -8.4819 C   0  0  0  0  0  0  0  0  0  0  0  0
   -8.9526    2.3004   -8.2299 C   0  0  0  0  0  0  0  0  0  0  0  0
   -8.8479    1.9854   -6.7900 N   0  0  0  0  0  0  0  0  0  0  0  0
   -9.2685    3.0774   -5.9025 C   0  0  0  0  0  0  0  0  0  0  0  0
   -8.4024    4.3536   -6.0514 C   0  0  0  0  0  0  0  0  0  0  0  0
   -7.8750    1.7607   -6.5816 H   0  0  0  0  0  0  0  0  0  0  0  0
   -8.3701    4.9273  -13.5214 C   0  0  0  0  0  0  0  0  0  0  0  0
   -7.7965    6.1022  -14.3313 C   0  0  0  0  0  0  0  0  0  0  0  0
   -7.2153    5.0645  -15.3286 C   0  0  0  0  0  0  0  0  0  0  0  0
   -7.2915    4.0331  -14.1888 C   0  0  0  0  0  0  0  0  0  0  0  0
   -8.1036    4.7423  -16.5764 C   0  0  0  0  0  0  0  0  0  0  0  0
   -7.7502    5.0584  -17.8040 N   0  0  0  0  0  0  0  0  0  0  0  0
   -8.7243    4.5225  -18.6077 C   0  0  0  0  0  0  0  0  0  0  0  0
   -9.7022    3.9187  -17.8561 C   0  0  0  0  0  0  0  0  0  0  0  0
   -9.2900    4.0525  -16.5636 N   0  0  0  0  0  0  0  0  0  0  0  0
   -9.7584    3.7155  -15.7658 H   0  0  0  0  0  0  0  0  0  0  0  0
  1  2  2  0  0  0
  2  3  1  0  0  0
 15  3  1  0  0  0
 15 16  1  0  0  0
 16 17  1  0  0  0
 17 19  1  0  0  0
 19 20  2  0  0  0
 20 21  1  0  0  0
 21 22  2  0  0  0
 22 23  1  0  0  0
 17 18  1  0  0  0
  2  5  1  0  0  0
  5  6  2  0  0  0
  6  7  1  0  0  0
  7  8  1  0  0  0
  8  9  2  0  0  0
  9 10  1  0  0  0
 10 11  1  0  0  0
 11 12  1  0  0  0
 12 13  1  0  0  0
 18 15  1  0  0  0
  9  5  1  0  0  0
 23 19  1  0  0  0
 13  8  1  0  0  0
  3  4  1  0  0  0
 23 24  1  0  0  0
 11 14  1  0  0  0
M  END
> <minimizedAffinity>
-7.27249

> <minimizedRMSD>
1.26087

$$$$
P61648


 16 18  0  0  0  0  0  0  0  0999 V2000
   -9.2195    4.1676  -17.4628 C   0  0  0  0  0  0  0  0  0  0  0  0
   -8.5172    4.2418  -18.6423 C   0  0  0  0  0  0  0  0  0  0  0  0
   -7.2006    4.6370  -18.2965 C   0  0  0  0  0  0  0  0  0  0  0  0
   -6.0187    4.9417  -18.9933 C   0  0  0  0  0  0  0  0  0  0  0  0
   -4.9027    5.3467  -18.2446 C   0  0  0  0  0  0  0  0  0  0  0  0
   -5.0302    5.3819  -16.8528 C   0  0  0  0  0  0  0  0  0  0  0  0
   -6.1393    5.0997  -16.1365 N   0  0  0  0  0  0  0  0  0  0  0  0
   -7.1813    4.7395  -16.9073 C   0  0  0  0  0  0  0  0  0  0  0  0
   -8.4156    4.4526  -16.4041 O   0  0  0  0  0  0  0  0  0  0  0  0
   -3.5957    5.7685  -18.8800 C   0  0  0  0  0  0  0  0  0  0  0  0
   -3.8173    6.5846  -20.1655 C   0  0  0  0  0  0  0  0  0  0  0  0
   -2.4787    6.9538  -20.8023 C   0  0  0  0  0  0  0  0  0  0  0  0
   -1.6021    5.7195  -21.0077 C   0  0  0  0  0  0  0  0  0  0  0  0
   -1.3773    4.9872  -19.7569 N   0  0  0  0  0  0  0  0  0  0  0  0
   -2.6624    4.5794  -19.1604 C   0  0  0  0  0  0  0  0  0  0  0  0
   -0.8781    5.5880  -19.1010 H   0  0  0  0  0  0  0  0  0  0  0  0
  1  2  2  0  0  0
  2  3  1  0  0  0
  3  4  2  0  0  0
  4  5  1  0  0  0
 10  5  1  0  0  0
 10 11  1  0  0  0
 11 12  1  0  0  0
 12 13  1  0  0  0
 13 14  1  0  0  0
 14 15  1  0  0  0
  5  6  2  0  0  0
  6  7  1  0  0  0
  7  8  2  0  0  0
  8  9  1  0  0  0
  9  1  1  0  0  0
  8  3  1  0  0  0
 15 10  1  0  0  0
 14 16  1  0  0  0
M  END
> <minimizedAffinity>
-5.86481

> <minimizedRMSD>
0.79775

$$$$
P61652


 20 21  0  0  0  0  0  0  0  0999 V2000
   -7.6604    3.9534  -13.1168 N   0  0  0  0  0  0  0  0  0  0  0  0
   -7.3840    2.9829  -13.2654 H   0  0  0  0  0  0  0  0  0  0  0  0
   -7.8487    4.1258  -11.6617 C   0  0  0  0  0  0  0  0  0  0  0  0
   -7.2441    2.9911  -10.8239 C   0  0  0  0  0  0  0  0  0  0  0  0
   -8.0049    2.7286   -9.5211 C   0  0  0  0  0  0  0  0  0  0  0  0
   -8.5328    3.8555   -8.7748 N   0  0  0  0  0  0  0  0  0  0  0  0
   -8.0907    5.1321   -8.6798 C   0  0  0  0  0  0  0  0  0  0  0  0
   -8.5207    5.8670   -7.7896 O   0  0  0  0  0  0  0  0  0  0  0  0
   -7.0818    5.6217   -9.6774 C   0  0  0  0  0  0  0  0  0  0  0  0
   -7.5570    5.5451  -11.1253 C   0  0  0  0  0  0  0  0  0  0  0  0
   -9.3443    3.6604   -8.2526 H   0  0  0  0  0  0  0  0  0  0  0  0
   -6.6789    4.7928  -13.8388 C   0  0  0  0  0  0  0  0  0  0  0  0
   -5.2224    4.5103  -13.4502 C   0  0  0  0  0  0  0  0  0  0  0  0
   -9.3083    3.8643  -18.1036 C   0  0  0  0  0  0  0  0  0  0  0  0
   -8.0788    4.3206  -17.3944 C   0  0  0  0  0  0  0  0  0  0  0  0
   -6.9830    4.7431  -18.1359 C   0  0  0  0  0  0  0  0  0  0  0  0
   -5.8689    5.1770  -17.4535 C   0  0  0  0  0  0  0  0  0  0  0  0
   -5.7746    5.2076  -16.1067 N   0  0  0  0  0  0  0  0  0  0  0  0
   -6.8224    4.7351  -15.3749 C   0  0  0  0  0  0  0  0  0  0  0  0
   -7.9949    4.3066  -15.9976 C   0  0  0  0  0  0  0  0  0  0  0  0
 14 15  1  0  0  0
 15 16  2  0  0  0
 16 17  1  0  0  0
 17 18  2  0  0  0
 18 19  1  0  0  0
 19 12  1  0  0  0
 12 13  1  0  0  0
 12  1  1  0  0  0
  3  1  1  0  0  0
  3  4  1  0  0  0
  4  5  1  0  0  0
  5  6  1  0  0  0
  6  7  1  0  0  0
  7  8  2  0  0  0
  7  9  1  0  0  0
  9 10  1  0  0  0
 19 20  2  0  0  0
 20 15  1  0  0  0
 10  3  1  0  0  0
  1  2  1  0  0  0
  6 11  1  0  0  0
M  END
> <minimizedAffinity>
-6.05785

> <minimizedRMSD>
0.35882

$$$$
P61745


 12 13  0  0  0  0  0  0  0  0999 V2000
   -5.5047    5.7687  -18.5162 N   0  0  0  0  0  0  0  0  0  0  0  0
   -5.8393    6.8988  -19.4165 C   0  0  0  0  0  0  0  0  0  0  0  0
   -4.5367    7.5206  -19.9793 C   0  0  0  0  0  0  0  0  0  0  0  0
   -3.5937    6.5698  -20.6184 N   0  0  0  0  0  0  0  0  0  0  0  0
   -3.4076    5.3959  -19.7537 C   0  0  0  0  0  0  0  0  0  0  0  0
   -4.7219    4.7647  -19.2532 C   0  0  0  0  0  0  0  0  0  0  0  0
   -2.6949    7.0299  -20.7627 H   0  0  0  0  0  0  0  0  0  0  0  0
   -7.3520    4.4933  -15.6792 C   0  0  0  0  0  0  0  0  0  0  0  0
   -6.2107    4.9116  -16.3317 C   0  0  0  0  0  0  0  0  0  0  0  0
   -6.4950    5.3142  -17.6840 C   0  0  0  0  0  0  0  0  0  0  0  0
   -7.7855    5.2695  -18.0046 N   0  0  0  0  0  0  0  0  0  0  0  0
   -8.6632    4.6433  -16.7568 S   0  0  0  0  0  0  0  0  0  0  0  0
  8  9  2  0  0  0
  9 10  1  0  0  0
 10  1  1  0  0  0
  1  2  1  0  0  0
  2  3  1  0  0  0
  3  4  1  0  0  0
  4  5  1  0  0  0
  5  6  1  0  0  0
 10 11  2  0  0  0
 11 12  1  0  0  0
 12  8  1  0  0  0
  6  1  1  0  0  0
  4  7  1  0  0  0
M  END
> <minimizedAffinity>
-3.51069

> <minimizedRMSD>
0.90029

$$$$
P61810


 16 18  0  0  0  0  0  0  0  0999 V2000
   -6.6524    4.9221  -18.0179 C   0  0  0  0  0  0  0  0  0  0  0  0
   -8.0224    4.6681  -18.2745 C   0  0  0  0  0  0  0  0  0  0  0  0
   -8.9147    4.3961  -17.2469 C   0  0  0  0  0  0  0  0  0  0  0  0
   -8.4481    4.3527  -15.9434 C   0  0  0  0  0  0  0  0  0  0  0  0
   -7.0931    4.5791  -15.6660 C   0  0  0  0  0  0  0  0  0  0  0  0
   -6.6368    4.5194  -14.3434 C   0  0  0  0  0  0  0  0  0  0  0  0
   -5.3013    4.7561  -14.0586 C   0  0  0  0  0  0  0  0  0  0  0  0
   -4.4671    5.0544  -15.1127 C   0  0  0  0  0  0  0  0  0  0  0  0
   -4.8748    5.1284  -16.3958 N   0  0  0  0  0  0  0  0  0  0  0  0
   -6.1692    4.8757  -16.6990 C   0  0  0  0  0  0  0  0  0  0  0  0
   -4.3738    7.1865  -19.3040 C   0  0  0  0  0  0  0  0  0  0  0  0
   -5.6592    6.8354  -19.3218 C   0  0  0  0  0  0  0  0  0  0  0  0
   -5.8000    5.3511  -19.1984 C   0  0  0  0  0  0  0  0  0  0  0  0
   -4.4179    4.8154  -19.2832 N   0  0  0  0  0  0  0  0  0  0  0  0
   -3.5219    5.9787  -19.1638 C   0  0  0  0  0  0  0  0  0  0  0  0
   -4.2736    4.3477  -20.1781 H   0  0  0  0  0  0  0  0  0  0  0  0
 11 12  2  0  0  0
 12 13  1  0  0  0
 13  1  1  0  0  0
  1  2  2  0  0  0
  2  3  1  0  0  0
  3  4  2  0  0  0
  4  5  1  0  0  0
  5  6  2  0  0  0
  6  7  1  0  0  0
  7  8  2  0  0  0
  8  9  1  0  0  0
  9 10  2  0  0  0
 13 14  1  0  0  0
 14 15  1  0  0  0
 15 11  1  0  0  0
 10  1  1  0  0  0
 10  5  1  0  0  0
 14 16  1  0  0  0
M  END
> <minimizedAffinity>
-5.47965

> <minimizedRMSD>
0.27287

$$$$
P61930


 15 17  0  0  0  0  0  0  0  0999 V2000
   -9.2320    3.9984  -16.3918 C   0  0  0  0  0  0  0  0  0  0  0  0
   -9.0605    3.9478  -17.7746 C   0  0  0  0  0  0  0  0  0  0  0  0
   -7.8471    4.3087  -18.3630 C   0  0  0  0  0  0  0  0  0  0  0  0
   -6.8303    4.7446  -17.5065 C   0  0  0  0  0  0  0  0  0  0  0  0
   -6.9888    4.8095  -16.1230 C   0  0  0  0  0  0  0  0  0  0  0  0
   -8.2035    4.4219  -15.5475 C   0  0  0  0  0  0  0  0  0  0  0  0
   -5.8592    5.2907  -15.5124 N   0  0  0  0  0  0  0  0  0  0  0  0
   -5.0154    5.5112  -16.4911 C   0  0  0  0  0  0  0  0  0  0  0  0
   -5.5462    5.1848  -17.7110 N   0  0  0  0  0  0  0  0  0  0  0  0
   -4.8500    5.2705  -18.9810 C   0  0  0  0  0  0  0  0  0  0  0  0
   -4.9396    6.6578  -19.6249 C   0  0  0  0  0  0  0  0  0  0  0  0
   -3.4970    7.0595  -19.8903 C   0  0  0  0  0  0  0  0  0  0  0  0
   -2.7366    6.3422  -18.8762 N   0  0  0  0  0  0  0  0  0  0  0  0
   -3.3446    5.0139  -18.8329 C   0  0  0  0  0  0  0  0  0  0  0  0
   -2.8171    6.8051  -17.9709 H   0  0  0  0  0  0  0  0  0  0  0  0
  1  2  2  0  0  0
  2  3  1  0  0  0
  3  4  2  0  0  0
  4  5  1  0  0  0
  5  6  2  0  0  0
  5  7  1  0  0  0
  7  8  2  0  0  0
  8  9  1  0  0  0
 10  9  1  0  0  0
 10 11  1  0  0  0
 11 12  1  0  0  0
 12 13  1  0  0  0
 13 14  1  0  0  0
  6  1  1  0  0  0
 14 10  1  0  0  0
  9  4  1  0  0  0
 13 15  1  0  0  0
M  END
> <minimizedAffinity>
-5.46979

> <minimizedRMSD>
0.50705

$$$$
P61948


 18 19  0  0  0  0  0  0  0  0999 V2000
   -8.3756    3.8496  -11.2432 C   0  0  0  0  0  0  0  0  0  0  0  0
   -8.0063    5.0502  -10.6172 C   0  0  0  0  0  0  0  0  0  0  0  0
   -8.0426    5.1664   -9.2208 C   0  0  0  0  0  0  0  0  0  0  0  0
   -8.4462    4.0689   -8.4812 C   0  0  0  0  0  0  0  0  0  0  0  0
   -8.7753    2.8696   -9.1014 C   0  0  0  0  0  0  0  0  0  0  0  0
   -8.7488    2.7448  -10.4760 C   0  0  0  0  0  0  0  0  0  0  0  0
   -9.1178    1.8547   -8.0653 C   0  0  0  0  0  0  0  0  0  0  0  0
   -9.3751    2.6458   -6.8344 N   0  0  0  0  0  0  0  0  0  0  0  0
   -8.6136    3.9054   -7.0080 C   0  0  0  0  0  0  0  0  0  0  0  0
   -9.0467    2.1411   -6.0111 H   0  0  0  0  0  0  0  0  0  0  0  0
   -8.0657    4.6855  -13.7373 C   0  0  0  0  0  0  0  0  0  0  0  0
   -7.7301    5.7965  -13.6839 O   0  0  0  0  0  0  0  0  0  0  0  0
   -8.4310    3.7088  -12.6264 N   0  0  0  0  0  0  0  0  0  0  0  0
   -8.7602    2.8349  -12.9383 H   0  0  0  0  0  0  0  0  0  0  0  0
   -8.2579    3.9809  -14.8870 O   0  0  0  0  0  0  0  0  0  0  0  0
   -8.8734    3.9354  -17.1953 C   0  0  0  0  0  0  0  0  0  0  0  0
   -8.1435    4.7157  -16.1124 C   0  0  0  0  0  0  0  0  0  0  0  0
   -6.6856    4.9097  -16.4971 C   0  0  0  0  0  0  0  0  0  0  0  0
 16 17  1  0  0  0
 17 18  1  0  0  0
 17 15  1  0  0  0
 15 11  1  0  0  0
 11 12  2  0  0  0
 11 13  1  0  0  0
 13  1  1  0  0  0
  1  2  2  0  0  0
  2  3  1  0  0  0
  3  4  2  0  0  0
  4  5  1  0  0  0
  5  6  2  0  0  0
  5  7  1  0  0  0
  7  8  1  0  0  0
  8  9  1  0  0  0
  6  1  1  0  0  0
  9  4  1  0  0  0
 13 14  1  0  0  0
  8 10  1  0  0  0
M  END
> <minimizedAffinity>
-5.86575

> <minimizedRMSD>
0.10455

$$$$
P61963


 16 18  0  0  0  0  0  0  0  0999 V2000
   -8.9931    4.1511  -16.8969 C   0  0  0  0  0  0  0  0  0  0  0  0
   -8.1966    4.2923  -17.9983 N   0  0  0  0  0  0  0  0  0  0  0  0
   -7.0579    4.8248  -17.5877 C   0  0  0  0  0  0  0  0  0  0  0  0
   -7.0924    4.9784  -16.2186 N   0  0  0  0  0  0  0  0  0  0  0  0
   -8.3523    4.6331  -15.7837 C   0  0  0  0  0  0  0  0  0  0  0  0
   -8.7953    4.7857  -14.3755 C   0  0  0  0  0  0  0  0  0  0  0  0
   -7.9305    5.8105  -13.6435 C   0  0  0  0  0  0  0  0  0  0  0  0
   -6.4522    5.4860  -13.8538 C   0  0  0  0  0  0  0  0  0  0  0  0
   -6.0621    5.4884  -15.3386 C   0  0  0  0  0  0  0  0  0  0  0  0
   -5.9679    5.2490  -18.5409 C   0  0  0  0  0  0  0  0  0  0  0  0
   -4.5642    4.7249  -18.2380 C   0  0  0  0  0  0  0  0  0  0  0  0
   -3.5758    5.1958  -19.3033 C   0  0  0  0  0  0  0  0  0  0  0  0
   -3.5423    6.6586  -19.3884 N   0  0  0  0  0  0  0  0  0  0  0  0
   -4.8701    7.1793  -19.7284 C   0  0  0  0  0  0  0  0  0  0  0  0
   -5.9170    6.7724  -18.6925 C   0  0  0  0  0  0  0  0  0  0  0  0
   -2.8765    6.9386  -20.1086 H   0  0  0  0  0  0  0  0  0  0  0  0
  1  2  1  0  0  0
  2  3  2  0  0  0
  3 10  1  0  0  0
 10 11  1  0  0  0
 11 12  1  0  0  0
 12 13  1  0  0  0
 13 14  1  0  0  0
 14 15  1  0  0  0
  3  4  1  0  0  0
  4  5  1  0  0  0
  5  6  1  0  0  0
  6  7  1  0  0  0
  7  8  1  0  0  0
  8  9  1  0  0  0
  5  1  2  0  0  0
 15 10  1  0  0  0
  9  4  1  0  0  0
 13 16  1  0  0  0
M  END
> <minimizedAffinity>
-5.17987

> <minimizedRMSD>
0.68740

$$$$
P61973


 16 18  0  0  0  0  0  0  0  0999 V2000
   -9.0916    4.1593  -16.7194 C   0  0  0  0  0  0  0  0  0  0  0  0
   -8.3135    4.2099  -17.8414 N   0  0  0  0  0  0  0  0  0  0  0  0
   -7.1534    4.7344  -17.4835 C   0  0  0  0  0  0  0  0  0  0  0  0
   -7.1531    4.9637  -16.1251 N   0  0  0  0  0  0  0  0  0  0  0  0
   -8.4145    4.6861  -15.6487 C   0  0  0  0  0  0  0  0  0  0  0  0
   -8.8239    4.9344  -14.2441 C   0  0  0  0  0  0  0  0  0  0  0  0
   -7.9100    5.9687  -13.5887 C   0  0  0  0  0  0  0  0  0  0  0  0
   -6.4479    5.5801  -13.8063 C   0  0  0  0  0  0  0  0  0  0  0  0
   -6.0883    5.4883  -15.2957 C   0  0  0  0  0  0  0  0  0  0  0  0
   -6.0799    5.0920  -18.4802 C   0  0  0  0  0  0  0  0  0  0  0  0
   -4.6564    4.6678  -18.1227 C   0  0  0  0  0  0  0  0  0  0  0  0
   -3.7029    5.0534  -19.2512 C   0  0  0  0  0  0  0  0  0  0  0  0
   -3.7955    6.5475  -19.5616 C   0  0  0  0  0  0  0  0  0  0  0  0
   -5.1596    6.9847  -19.8640 N   0  0  0  0  0  0  0  0  0  0  0  0
   -6.0966    6.5957  -18.7969 C   0  0  0  0  0  0  0  0  0  0  0  0
   -5.4586    6.5571  -20.7405 H   0  0  0  0  0  0  0  0  0  0  0  0
  1  2  1  0  0  0
  2  3  2  0  0  0
 10  3  1  0  0  0
 10 11  1  0  0  0
 11 12  1  0  0  0
 12 13  1  0  0  0
 13 14  1  0  0  0
 14 15  1  0  0  0
  3  4  1  0  0  0
  4  5  1  0  0  0
  5  6  1  0  0  0
  6  7  1  0  0  0
  7  8  1  0  0  0
  8  9  1  0  0  0
  5  1  2  0  0  0
 15 10  1  0  0  0
  9  4  1  0  0  0
 14 16  1  0  0  0
M  END
> <minimizedAffinity>
-5.39339

> <minimizedRMSD>
0.66431

$$$$
P61993


 13 14  0  0  0  0  0  0  0  0999 V2000
   -4.1754    4.7237  -18.6466 C   0  0  0  0  0  0  0  0  0  0  0  0
   -5.5939    5.0833  -19.0946 C   0  0  0  0  0  0  0  0  0  0  0  0
   -6.6177    4.5688  -18.0864 C   0  0  0  0  0  0  0  0  0  0  0  0
   -6.2882    5.0168  -16.6639 C   0  0  0  0  0  0  0  0  0  0  0  0
   -4.9309    4.6369  -16.2610 N   0  0  0  0  0  0  0  0  0  0  0  0
   -3.9423    5.1892  -17.1998 C   0  0  0  0  0  0  0  0  0  0  0  0
   -4.8551    3.6197  -16.2534 H   0  0  0  0  0  0  0  0  0  0  0  0
   -1.7649    6.5363  -20.6386 C   0  0  0  0  0  0  0  0  0  0  0  0
   -1.5707    5.2732  -21.1412 C   0  0  0  0  0  0  0  0  0  0  0  0
   -2.4433    4.4822  -20.4501 N   0  0  0  0  0  0  0  0  0  0  0  0
   -3.1346    5.2795  -19.5685 C   0  0  0  0  0  0  0  0  0  0  0  0
   -2.7226    6.5283  -19.6577 N   0  0  0  0  0  0  0  0  0  0  0  0
   -2.5575    3.5109  -20.5632 H   0  0  0  0  0  0  0  0  0  0  0  0
  8  9  2  0  0  0
  9 10  1  0  0  0
 10 11  1  0  0  0
  1 11  1  0  0  0
  1  2  1  0  0  0
  2  3  1  0  0  0
  3  4  1  0  0  0
  4  5  1  0  0  0
  5  6  1  0  0  0
 11 12  2  0  0  0
 12  8  1  0  0  0
  6  1  1  0  0  0
 10 13  1  0  0  0
  5  7  1  0  0  0
M  END
> <minimizedAffinity>
-4.05347

> <minimizedRMSD>
0.83885

$$$$
P62035


 25 28  0  0  0  0  0  0  0  0999 V2000
   -8.9022    6.1997  -13.3550 O   0  0  0  0  0  0  0  0  0  0  0  0
   -8.3692    5.2297  -12.9974 C   0  0  0  0  0  0  0  0  0  0  0  0
   -7.6409    4.1405  -13.7987 N   0  0  0  0  0  0  0  0  0  0  0  0
   -7.3360    3.3711  -13.2655 H   0  0  0  0  0  0  0  0  0  0  0  0
   -8.2884    4.8993  -11.5398 C   0  0  0  0  0  0  0  0  0  0  0  0
   -8.0803    5.9823  -10.5801 C   0  0  0  0  0  0  0  0  0  0  0  0
   -8.0731    5.7588   -9.2532 C   0  0  0  0  0  0  0  0  0  0  0  0
   -8.2800    4.4419   -8.7619 C   0  0  0  0  0  0  0  0  0  0  0  0
   -8.3141    3.9726   -7.5332 N   0  0  0  0  0  0  0  0  0  0  0  0
   -8.5616    2.6285   -7.6711 C   0  0  0  0  0  0  0  0  0  0  0  0
   -8.6989    2.2886   -8.9952 C   0  0  0  0  0  0  0  0  0  0  0  0
   -8.5018    3.4407   -9.7007 N   0  0  0  0  0  0  0  0  0  0  0  0
   -8.5106    3.6541  -11.0764 C   0  0  0  0  0  0  0  0  0  0  0  0
   -7.3300    4.0611  -15.2087 C   0  0  0  0  0  0  0  0  0  0  0  0
   -8.5903    4.2217  -16.0583 C   0  0  0  0  0  0  0  0  0  0  0  0
   -8.3072    4.7274  -17.4657 C   0  0  0  0  0  0  0  0  0  0  0  0
   -6.9060    4.4522  -17.9905 C   0  0  0  0  0  0  0  0  0  0  0  0
   -5.8407    4.7752  -17.0241 N   0  0  0  0  0  0  0  0  0  0  0  0
   -6.2447    5.0581  -15.6468 C   0  0  0  0  0  0  0  0  0  0  0  0
   -4.7468    5.4005  -17.6084 C   0  0  0  0  0  0  0  0  0  0  0  0
   -4.1424    6.5422  -17.0795 C   0  0  0  0  0  0  0  0  0  0  0  0
   -3.2011    7.2799  -17.7235 N   0  0  0  0  0  0  0  0  0  0  0  0
   -2.8594    6.8274  -18.9419 C   0  0  0  0  0  0  0  0  0  0  0  0
   -3.3807    5.6677  -19.4620 C   0  0  0  0  0  0  0  0  0  0  0  0
   -4.2849    4.9197  -18.7938 N   0  0  0  0  0  0  0  0  0  0  0  0
  1  2  2  0  0  0
  2  3  1  0  0  0
 14  3  1  0  0  0
 14 15  1  0  0  0
 15 16  1  0  0  0
 16 17  1  0  0  0
 17 18  1  0  0  0
 18 20  1  0  0  0
 20 21  2  0  0  0
 21 22  1  0  0  0
 22 23  2  0  0  0
 23 24  1  0  0  0
 24 25  2  0  0  0
 18 19  1  0  0  0
  2  5  1  0  0  0
  5  6  1  0  0  0
  6  7  2  0  0  0
  7  8  1  0  0  0
  8  9  2  0  0  0
  9 10  1  0  0  0
 10 11  2  0  0  0
 11 12  1  0  0  0
 12 13  1  0  0  0
 19 14  1  0  0  0
 13  5  2  0  0  0
 25 20  1  0  0  0
 12  8  1  0  0  0
  3  4  1  0  0  0
M  END
> <minimizedAffinity>
-6.69231

> <minimizedRMSD>
1.08192

$$$$
P62117


 11 12  0  0  0  0  0  0  0  0999 V2000
   -8.8648    3.9233  -17.0497 C   0  0  0  0  0  0  0  0  0  0  0  0
   -8.5856    3.6639  -18.3657 C   0  0  0  0  0  0  0  0  0  0  0  0
   -7.4182    3.9619  -18.9522 N   0  0  0  0  0  0  0  0  0  0  0  0
   -6.5159    4.6047  -18.1897 C   0  0  0  0  0  0  0  0  0  0  0  0
   -6.6980    4.9325  -16.8893 N   0  0  0  0  0  0  0  0  0  0  0  0
   -7.8663    4.5436  -16.3425 C   0  0  0  0  0  0  0  0  0  0  0  0
   -5.2434    4.9516  -18.8607 C   0  0  0  0  0  0  0  0  0  0  0  0
   -5.0046    4.8570  -20.1651 N   0  0  0  0  0  0  0  0  0  0  0  0
   -3.6949    5.1836  -20.4443 C   0  0  0  0  0  0  0  0  0  0  0  0
   -2.9260    5.5297  -19.3588 C   0  0  0  0  0  0  0  0  0  0  0  0
   -3.8799    5.4897  -17.9385 S   0  0  0  0  0  0  0  0  0  0  0  0
  1  2  2  0  0  0
  2  3  1  0  0  0
  3  4  2  0  0  0
  4  7  1  0  0  0
  7  8  2  0  0  0
  8  9  1  0  0  0
  9 10  2  0  0  0
 10 11  1  0  0  0
  4  5  1  0  0  0
  5  6  2  0  0  0
  6  1  1  0  0  0
 11  7  1  0  0  0
M  END
> <minimizedAffinity>
-4.27439

> <minimizedRMSD>
0.14965

$$$$
P62158


 17 19  0  0  0  0  0  0  0  0999 V2000
   -4.8486    4.7689  -14.8861 O   0  0  0  0  0  0  0  0  0  0  0  0
   -5.8204    4.6941  -15.6352 C   0  0  0  0  0  0  0  0  0  0  0  0
   -5.5779    4.8197  -17.0790 C   0  0  0  0  0  0  0  0  0  0  0  0
   -4.2619    4.9176  -17.5528 C   0  0  0  0  0  0  0  0  0  0  0  0
   -4.0168    4.8504  -18.9138 C   0  0  0  0  0  0  0  0  0  0  0  0
   -5.0896    4.7079  -19.7822 C   0  0  0  0  0  0  0  0  0  0  0  0
   -6.4100    4.6944  -19.3055 C   0  0  0  0  0  0  0  0  0  0  0  0
   -6.6666    4.7201  -17.9413 C   0  0  0  0  0  0  0  0  0  0  0  0
   -7.9803    4.5484  -17.4814 N   0  0  0  0  0  0  0  0  0  0  0  0
   -8.1317    4.3700  -16.2103 C   0  0  0  0  0  0  0  0  0  0  0  0
   -7.1246    4.4034  -15.2721 N   0  0  0  0  0  0  0  0  0  0  0  0
   -7.4069    4.1292  -13.9134 C   0  0  0  0  0  0  0  0  0  0  0  0
   -7.0277    2.9056  -13.3697 C   0  0  0  0  0  0  0  0  0  0  0  0
   -7.3297    2.6086  -12.0444 C   0  0  0  0  0  0  0  0  0  0  0  0
   -7.9705    3.5643  -11.2751 C   0  0  0  0  0  0  0  0  0  0  0  0
   -8.2777    4.7744  -11.8703 C   0  0  0  0  0  0  0  0  0  0  0  0
   -8.0220    5.0698  -13.1639 N   0  0  0  0  0  0  0  0  0  0  0  0
  1  2  2  0  0  0
  2  3  1  0  0  0
  3  4  2  0  0  0
  4  5  1  0  0  0
  5  6  2  0  0  0
  6  7  1  0  0  0
  7  8  2  0  0  0
  8  9  1  0  0  0
  9 10  2  0  0  0
 10 11  1  0  0  0
 11 12  1  0  0  0
 12 13  2  0  0  0
 13 14  1  0  0  0
 14 15  2  0  0  0
 15 16  1  0  0  0
 16 17  2  0  0  0
 11  2  1  0  0  0
 17 12  1  0  0  0
  8  3  1  0  0  0
M  END
> <minimizedAffinity>
-6.11727

> <minimizedRMSD>
1.35109

$$$$
P62279


 24 26  0  0  0  0  0  0  0  0999 V2000
   -8.3367    6.3631  -11.8261 N   0  0  0  0  0  0  0  0  0  0  0  0
   -8.4535    4.9548  -11.2251 C   0  0  0  0  0  0  0  0  0  0  0  0
   -8.7238    3.9415  -11.7268 O   0  0  0  0  0  0  0  0  0  0  0  0
   -8.0152    7.0525  -11.2011 H   0  0  0  0  0  0  0  0  0  0  0  0
   -8.2468    5.0838   -9.7074 C   0  0  0  0  0  0  0  0  0  0  0  0
   -7.9085    6.3559   -9.3114 N   0  0  0  0  0  0  0  0  0  0  0  0
   -7.9031    6.6162   -7.9884 C   0  0  0  0  0  0  0  0  0  0  0  0
   -8.2363    5.6946   -7.0199 C   0  0  0  0  0  0  0  0  0  0  0  0
   -8.5846    4.4083   -7.4287 C   0  0  0  0  0  0  0  0  0  0  0  0
   -8.5468    4.0668   -8.8015 C   0  0  0  0  0  0  0  0  0  0  0  0
   -8.8789    2.6659   -9.2408 C   0  0  0  0  0  0  0  0  0  0  0  0
   -8.7973    1.7143   -8.1369 N   0  0  0  0  0  0  0  0  0  0  0  0
   -9.6015    2.1347   -7.0060 C   0  0  0  0  0  0  0  0  0  0  0  0
   -8.9769    3.3839   -6.3875 C   0  0  0  0  0  0  0  0  0  0  0  0
   -7.8247    1.6353   -7.8398 H   0  0  0  0  0  0  0  0  0  0  0  0
   -8.6187    6.8364  -13.1453 C   0  0  0  0  0  0  0  0  0  0  0  0
   -7.6738    5.2386  -16.2622 N   0  0  0  0  0  0  0  0  0  0  0  0
   -6.6796    6.1466  -16.0376 C   0  0  0  0  0  0  0  0  0  0  0  0
   -6.8359    6.7650  -14.8886 N   0  0  0  0  0  0  0  0  0  0  0  0
   -7.9433    6.1845  -14.3009 C   0  0  0  0  0  0  0  0  0  0  0  0
   -8.4179    5.1697  -15.1118 C   0  0  0  0  0  0  0  0  0  0  0  0
   -9.3378    4.8136  -18.0481 C   0  0  0  0  0  0  0  0  0  0  0  0
   -7.9511    4.5184  -17.4997 C   0  0  0  0  0  0  0  0  0  0  0  0
   -6.9015    4.7559  -18.5884 C   0  0  0  0  0  0  0  0  0  0  0  0
 22 23  1  0  0  0
 23 24  1  0  0  0
 23 17  1  0  0  0
 17 18  1  0  0  0
 18 19  2  0  0  0
 19 20  1  0  0  0
 20 16  1  0  0  0
 16  1  1  0  0  0
  1  2  1  0  0  0
  2  3  2  0  0  0
  2  5  1  0  0  0
  5  6  2  0  0  0
  6  7  1  0  0  0
  7  8  2  0  0  0
  8  9  1  0  0  0
  9 10  2  0  0  0
 10 11  1  0  0  0
 11 12  1  0  0  0
 12 13  1  0  0  0
 13 14  1  0  0  0
 20 21  2  0  0  0
 21 17  1  0  0  0
 10  5  1  0  0  0
 14  9  1  0  0  0
  1  4  1  0  0  0
 12 15  1  0  0  0
M  END
> <minimizedAffinity>
-6.68939

> <minimizedRMSD>
0.53190

$$$$
P62280


 23 25  0  0  0  0  0  0  0  0999 V2000
   -8.3351    6.3870  -11.9574 N   0  0  0  0  0  0  0  0  0  0  0  0
   -8.4476    4.9434  -11.4535 C   0  0  0  0  0  0  0  0  0  0  0  0
   -8.6839    3.9603  -12.0285 O   0  0  0  0  0  0  0  0  0  0  0  0
   -8.0463    7.0389  -11.2786 H   0  0  0  0  0  0  0  0  0  0  0  0
   -8.3055    4.9400   -9.9754 C   0  0  0  0  0  0  0  0  0  0  0  0
   -8.0571    6.0733   -9.2737 N   0  0  0  0  0  0  0  0  0  0  0  0
   -8.1735    5.7300   -7.9261 O   0  0  0  0  0  0  0  0  0  0  0  0
   -8.4710    4.4201   -7.8457 C   0  0  0  0  0  0  0  0  0  0  0  0
   -8.5392    3.8614   -9.0903 C   0  0  0  0  0  0  0  0  0  0  0  0
   -8.9114    2.4529   -9.3218 C   0  0  0  0  0  0  0  0  0  0  0  0
   -8.9150    1.7081   -8.0482 N   0  0  0  0  0  0  0  0  0  0  0  0
   -9.4878    2.4272   -6.9028 C   0  0  0  0  0  0  0  0  0  0  0  0
   -8.7419    3.7402   -6.5659 C   0  0  0  0  0  0  0  0  0  0  0  0
   -7.9500    1.4694   -7.8199 H   0  0  0  0  0  0  0  0  0  0  0  0
   -8.5815    6.9417  -13.2543 C   0  0  0  0  0  0  0  0  0  0  0  0
   -7.6775    5.5161  -16.4719 N   0  0  0  0  0  0  0  0  0  0  0  0
   -6.5844    6.2584  -16.1127 C   0  0  0  0  0  0  0  0  0  0  0  0
   -6.7170    6.7794  -14.9133 N   0  0  0  0  0  0  0  0  0  0  0  0
   -7.9208    6.3078  -14.4334 C   0  0  0  0  0  0  0  0  0  0  0  0
   -8.4808    5.4457  -15.3608 C   0  0  0  0  0  0  0  0  0  0  0  0
   -9.2100    4.2030  -17.9534 C   0  0  0  0  0  0  0  0  0  0  0  0
   -8.0397    5.1669  -17.8463 C   0  0  0  0  0  0  0  0  0  0  0  0
   -6.8419    4.7032  -18.6751 C   0  0  0  0  0  0  0  0  0  0  0  0
 21 22  1  0  0  0
 22 23  1  0  0  0
 22 16  1  0  0  0
 16 17  1  0  0  0
 17 18  2  0  0  0
 18 19  1  0  0  0
 19 15  1  0  0  0
 15  1  1  0  0  0
  1  2  1  0  0  0
  2  3  2  0  0  0
  2  5  1  0  0  0
  5  6  2  0  0  0
  6  7  1  0  0  0
  7  8  1  0  0  0
  8  9  2  0  0  0
  9 10  1  0  0  0
 10 11  1  0  0  0
 11 12  1  0  0  0
 12 13  1  0  0  0
 19 20  2  0  0  0
 20 16  1  0  0  0
  9  5  1  0  0  0
 13  8  1  0  0  0
  1  4  1  0  0  0
 11 14  1  0  0  0
M  END
> <minimizedAffinity>
-6.45809

> <minimizedRMSD>
0.34811

$$$$
P62327


 24 26  0  0  0  0  0  0  0  0999 V2000
   -7.9884    4.3993  -12.0784 N   0  0  0  0  0  0  0  0  0  0  0  0
   -8.8973    4.3458  -12.5382 H   0  0  0  0  0  0  0  0  0  0  0  0
   -7.0073    5.4529  -12.9577 S   0  0  0  0  0  0  0  0  0  0  0  0
   -5.6392    5.2162  -12.5562 O   0  0  0  0  0  0  0  0  0  0  0  0
   -7.5895    6.7776  -12.8943 O   0  0  0  0  0  0  0  0  0  0  0  0
   -7.2063    4.9249  -14.6291 C   0  0  0  0  0  0  0  0  0  0  0  0
   -8.4725    4.5420  -15.0645 C   0  0  0  0  0  0  0  0  0  0  0  0
   -8.6976    4.2370  -16.4024 C   0  0  0  0  0  0  0  0  0  0  0  0
   -7.6195    4.3571  -17.2865 C   0  0  0  0  0  0  0  0  0  0  0  0
   -7.5945    4.0513  -18.9689 S   0  0  0  0  0  0  0  0  0  0  0  0
   -5.9933    4.6418  -19.0396 C   0  0  0  0  0  0  0  0  0  0  0  0
   -5.4197    4.9314  -17.8923 N   0  0  0  0  0  0  0  0  0  0  0  0
   -6.3494    4.7711  -16.8761 C   0  0  0  0  0  0  0  0  0  0  0  0
   -6.1286    5.0328  -15.5129 C   0  0  0  0  0  0  0  0  0  0  0  0
   -8.1996    4.8199  -10.6662 C   0  0  0  0  0  0  0  0  0  0  0  0
   -6.5182    3.0848   -9.9369 C   0  0  0  0  0  0  0  0  0  0  0  0
   -7.9111    3.6833   -9.6571 C   0  0  0  0  0  0  0  0  0  0  0  0
   -8.9628    2.5997   -9.8055 C   0  0  0  0  0  0  0  0  0  0  0  0
   -7.9177    4.2413   -8.1937 C   0  0  0  0  0  0  0  0  0  0  0  0
   -8.9056    3.5621   -7.2329 C   0  0  0  0  0  0  0  0  0  0  0  0
   -8.8853    4.4624   -6.0166 C   0  0  0  0  0  0  0  0  0  0  0  0
   -8.5338    5.8293   -6.5775 C   0  0  0  0  0  0  0  0  0  0  0  0
   -8.3243    5.6483   -8.0186 N   0  0  0  0  0  0  0  0  0  0  0  0
   -7.5907    6.2738   -8.3519 H   0  0  0  0  0  0  0  0  0  0  0  0
 16 17  1  0  0  0
 17 18  1  0  0  0
 17 15  1  0  0  0
 15  1  1  0  0  0
  1  3  1  0  0  0
  3  4  2  0  0  0
  3  5  2  0  0  0
  3  6  1  0  0  0
  6  7  2  0  0  0
  7  8  1  0  0  0
  8  9  2  0  0  0
  9 10  1  0  0  0
 10 11  1  0  0  0
 11 12  2  0  0  0
 12 13  1  0  0  0
 13 14  2  0  0  0
 19 17  1  0  0  0
 19 20  1  0  0  0
 20 21  1  0  0  0
 21 22  1  0  0  0
 22 23  1  0  0  0
 14  6  1  0  0  0
 23 19  1  0  0  0
 13  9  1  0  0  0
  1  2  1  0  0  0
 23 24  1  0  0  0
M  END
> <minimizedAffinity>
-5.76798

> <minimizedRMSD>
0.81967

$$$$
P62403


 12 12  0  0  0  0  0  0  0  0999 V2000
   -5.7304    5.0862  -18.5318 C   0  0  0  0  0  0  0  0  0  0  0  0
   -6.3888    4.7677  -19.8006 N   0  0  0  0  0  0  0  0  0  0  0  0
   -7.2043    5.3685  -19.9207 H   0  0  0  0  0  0  0  0  0  0  0  0
   -6.6837    3.7913  -19.7949 H   0  0  0  0  0  0  0  0  0  0  0  0
   -6.6536    4.7242  -17.3313 C   0  0  0  0  0  0  0  0  0  0  0  0
   -8.1208    4.6016  -17.5868 C   0  0  0  0  0  0  0  0  0  0  0  0
   -8.8048    5.0874  -16.5488 C   0  0  0  0  0  0  0  0  0  0  0  0
   -7.8771    5.6314  -15.5279 C   0  0  0  0  0  0  0  0  0  0  0  0
   -6.5575    5.6691  -16.1830 N   0  0  0  0  0  0  0  0  0  0  0  0
   -5.8294    5.3689  -15.5348 H   0  0  0  0  0  0  0  0  0  0  0  0
   -5.9153    7.5582  -19.3082 C   0  0  0  0  0  0  0  0  0  0  0  0
   -5.1262    6.5043  -18.5534 C   0  0  0  0  0  0  0  0  0  0  0  0
 11 12  1  0  0  0
 12  1  1  0  0  0
  1  2  1  0  0  0
  1  5  1  0  0  0
  5  6  1  0  0  0
  6  7  2  0  0  0
  7  8  1  0  0  0
  8  9  1  0  0  0
  5  9  1  0  0  0
  2  3  1  0  0  0
  2  4  1  0  0  0
  9 10  1  0  0  0
M  END
> <minimizedAffinity>
-3.26742

> <minimizedRMSD>
1.85961

$$$$
P62440


 19 21  0  0  0  0  0  0  0  0999 V2000
   -6.0745    4.2759  -19.7231 O   0  0  0  0  0  0  0  0  0  0  0  0
   -6.2351    4.9688  -18.7267 C   0  0  0  0  0  0  0  0  0  0  0  0
   -7.2514    4.7653  -17.7332 C   0  0  0  0  0  0  0  0  0  0  0  0
   -8.6232    4.6351  -17.9112 C   0  0  0  0  0  0  0  0  0  0  0  0
   -9.3017    4.5377  -16.7117 N   0  0  0  0  0  0  0  0  0  0  0  0
   -8.3430    4.5781  -15.8306 C   0  0  0  0  0  0  0  0  0  0  0  0
   -8.2607    4.6019  -14.0950 S   0  0  0  0  0  0  0  0  0  0  0  0
   -6.5032    4.5175  -14.2071 C   0  0  0  0  0  0  0  0  0  0  0  0
   -6.0635    4.5581  -15.4745 C   0  0  0  0  0  0  0  0  0  0  0  0
   -7.0979    4.6283  -16.3797 N   0  0  0  0  0  0  0  0  0  0  0  0
   -5.3824    6.0101  -18.4590 O   0  0  0  0  0  0  0  0  0  0  0  0
   -5.8378    7.3529  -18.6784 C   0  0  0  0  0  0  0  0  0  0  0  0
   -5.3189    8.2859  -17.5867 C   0  0  0  0  0  0  0  0  0  0  0  0
   -4.0532    7.8071  -16.8752 C   0  0  0  0  0  0  0  0  0  0  0  0
   -4.1949    7.6364  -15.3991 C   0  0  0  0  0  0  0  0  0  0  0  0
   -3.3429    6.9865  -14.5258 C   0  0  0  0  0  0  0  0  0  0  0  0
   -3.7431    6.9618  -13.2048 N   0  0  0  0  0  0  0  0  0  0  0  0
   -4.8625    7.6405  -13.0802 C   0  0  0  0  0  0  0  0  0  0  0  0
   -5.5141    8.2967  -14.5257 S   0  0  0  0  0  0  0  0  0  0  0  0
  1  2  2  0  0  0
  2 11  1  0  0  0
 11 12  1  0  0  0
 12 13  1  0  0  0
 13 14  1  0  0  0
 14 15  1  0  0  0
 15 16  2  0  0  0
 16 17  1  0  0  0
 17 18  2  0  0  0
 18 19  1  0  0  0
  2  3  1  0  0  0
  3  4  2  0  0  0
  4  5  1  0  0  0
  5  6  2  0  0  0
  6  7  1  0  0  0
  7  8  1  0  0  0
  8  9  2  0  0  0
  9 10  1  0  0  0
 19 15  1  0  0  0
 10  3  1  0  0  0
 10  6  1  0  0  0
M  END
> <minimizedAffinity>
-3.70224

> <minimizedRMSD>
1.77122

$$$$
P62706


 15 17  0  0  0  0  0  0  0  0999 V2000
   -5.1606    5.4334  -17.3269 C   0  0  0  0  0  0  0  0  0  0  0  0
   -4.4371    4.6998  -16.1504 C   0  0  0  0  0  0  0  0  0  0  0  0
   -2.9271    4.9647  -16.1047 C   0  0  0  0  0  0  0  0  0  0  0  0
   -2.2858    5.0216  -17.4925 C   0  0  0  0  0  0  0  0  0  0  0  0
   -3.0984    5.7233  -18.5018 N   0  0  0  0  0  0  0  0  0  0  0  0
   -3.4863    7.0728  -18.0431 C   0  0  0  0  0  0  0  0  0  0  0  0
   -4.8056    6.9440  -17.2767 C   0  0  0  0  0  0  0  0  0  0  0  0
   -4.3971    5.0134  -18.5989 C   0  0  0  0  0  0  0  0  0  0  0  0
  -10.4426    3.7389  -17.4819 O   0  0  0  0  0  0  0  0  0  0  0  0
   -9.3451    4.2925  -17.4165 C   0  0  0  0  0  0  0  0  0  0  0  0
   -8.7266    4.6532  -16.0922 C   0  0  0  0  0  0  0  0  0  0  0  0
   -7.2025    4.5790  -16.1274 C   0  0  0  0  0  0  0  0  0  0  0  0
   -6.6431    5.2785  -17.2936 N   0  0  0  0  0  0  0  0  0  0  0  0
   -7.1580    4.6241  -18.5164 C   0  0  0  0  0  0  0  0  0  0  0  0
   -8.6577    4.7649  -18.6584 C   0  0  0  0  0  0  0  0  0  0  0  0
  9 10  2  0  0  0
 10 11  1  0  0  0
 11 12  1  0  0  0
 12 13  1  0  0  0
  1 13  1  0  0  0
  1  2  1  0  0  0
  2  3  1  0  0  0
  3  4  1  0  0  0
  4  5  1  0  0  0
  5  6  1  0  0  0
  6  7  1  0  0  0
  5  8  1  0  0  0
 13 14  1  0  0  0
 14 15  1  0  0  0
 15 10  1  0  0  0
  7  1  1  0  0  0
  8  1  1  0  0  0
M  END
> <minimizedAffinity>
-4.75787

> <minimizedRMSD>
0.84897

$$$$
P62724


 16 18  0  0  0  0  0  0  0  0999 V2000
   -6.5536    4.5017  -15.6117 C   0  0  0  0  0  0  0  0  0  0  0  0
   -7.2883    5.5527  -16.4408 C   0  0  0  0  0  0  0  0  0  0  0  0
   -8.8058    5.2684  -16.3311 C   0  0  0  0  0  0  0  0  0  0  0  0
   -9.3652    4.4580  -17.4765 C   0  0  0  0  0  0  0  0  0  0  0  0
  -10.3316    3.7097  -17.3368 O   0  0  0  0  0  0  0  0  0  0  0  0
   -8.7918    4.6841  -18.8312 C   0  0  0  0  0  0  0  0  0  0  0  0
   -7.2898    4.6745  -18.7221 C   0  0  0  0  0  0  0  0  0  0  0  0
   -6.7957    5.7313  -17.8213 N   0  0  0  0  0  0  0  0  0  0  0  0
   -5.3547    6.0433  -18.0537 C   0  0  0  0  0  0  0  0  0  0  0  0
   -4.6325    6.8712  -16.9240 C   0  0  0  0  0  0  0  0  0  0  0  0
   -3.1705    6.4558  -16.7031 C   0  0  0  0  0  0  0  0  0  0  0  0
   -2.4110    6.1383  -17.9936 C   0  0  0  0  0  0  0  0  0  0  0  0
   -3.2420    5.6062  -19.0869 N   0  0  0  0  0  0  0  0  0  0  0  0
   -3.8552    6.7114  -19.8574 C   0  0  0  0  0  0  0  0  0  0  0  0
   -5.2764    6.9074  -19.3445 C   0  0  0  0  0  0  0  0  0  0  0  0
   -4.4050    4.8957  -18.4918 C   0  0  0  0  0  0  0  0  0  0  0  0
  2  1  1  0  0  0
  2  3  1  0  0  0
  3  4  1  0  0  0
  4  5  2  0  0  0
  4  6  1  0  0  0
  6  7  1  0  0  0
  7  8  1  0  0  0
  9  8  1  0  0  0
  9 10  1  0  0  0
 10 11  1  0  0  0
 11 12  1  0  0  0
 12 13  1  0  0  0
 13 14  1  0  0  0
 14 15  1  0  0  0
 13 16  1  0  0  0
  8  2  1  0  0  0
 15  9  1  0  0  0
 16  9  1  0  0  0
M  END
> <minimizedAffinity>
-4.89056

> <minimizedRMSD>
0.40058

$$$$
P63070


 15 16  0  0  0  0  0  0  0  0999 V2000
   -5.4531    5.2128  -18.0000 C   0  0  0  0  0  0  0  0  0  0  0  0
   -4.6771    5.5924  -16.9010 C   0  0  0  0  0  0  0  0  0  0  0  0
   -5.2234    5.5553  -15.6275 C   0  0  0  0  0  0  0  0  0  0  0  0
   -6.5301    5.1083  -15.4601 C   0  0  0  0  0  0  0  0  0  0  0  0
   -7.3047    4.7102  -16.5622 C   0  0  0  0  0  0  0  0  0  0  0  0
   -8.6093    4.2309  -16.3895 C   0  0  0  0  0  0  0  0  0  0  0  0
   -9.3456    3.8363  -17.4955 C   0  0  0  0  0  0  0  0  0  0  0  0
   -8.7542    3.9418  -18.7387 C   0  0  0  0  0  0  0  0  0  0  0  0
   -7.5056    4.4145  -18.9478 N   0  0  0  0  0  0  0  0  0  0  0  0
   -6.7749    4.7717  -17.8703 C   0  0  0  0  0  0  0  0  0  0  0  0
   -4.8176    5.1751  -19.2201 O   0  0  0  0  0  0  0  0  0  0  0  0
   -3.7565    6.1298  -19.2765 C   0  0  0  0  0  0  0  0  0  0  0  0
   -2.6770    4.1639  -20.2862 O   0  0  0  0  0  0  0  0  0  0  0  0
   -2.6328    5.5852  -20.1593 C   0  0  0  0  0  0  0  0  0  0  0  0
   -1.9478    3.8670  -20.8528 H   0  0  0  0  0  0  0  0  0  0  0  0
 13 14  1  0  0  0
 14 12  1  0  0  0
 12 11  1  0  0  0
 11  1  1  0  0  0
  1  2  2  0  0  0
  2  3  1  0  0  0
  3  4  2  0  0  0
  4  5  1  0  0  0
  5  6  2  0  0  0
  6  7  1  0  0  0
  7  8  2  0  0  0
  8  9  1  0  0  0
  9 10  2  0  0  0
 10  1  1  0  0  0
 10  5  1  0  0  0
 13 15  1  0  0  0
M  END
> <minimizedAffinity>
-6.29514

> <minimizedRMSD>
3.08436

$$$$
P63231


 25 28  0  0  0  0  0  0  0  0999 V2000
    0.7352    5.5957  -23.8791 N   0  0  0  0  0  0  0  0  0  0  0  0
    0.0883    6.3864  -25.0464 C   0  0  0  0  0  0  0  0  0  0  0  0
    0.5763    6.8954  -25.9785 O   0  0  0  0  0  0  0  0  0  0  0  0
    0.1110    5.3289  -23.1661 H   0  0  0  0  0  0  0  0  0  0  0  0
   -1.3850    6.5434  -24.8513 C   0  0  0  0  0  0  0  0  0  0  0  0
   -2.2352    6.2750  -25.9287 C   0  0  0  0  0  0  0  0  0  0  0  0
   -3.6115    6.4768  -25.8044 C   0  0  0  0  0  0  0  0  0  0  0  0
   -4.1504    6.9603  -24.6048 C   0  0  0  0  0  0  0  0  0  0  0  0
   -3.3018    7.2155  -23.5118 C   0  0  0  0  0  0  0  0  0  0  0  0
   -1.9165    7.0290  -23.6505 C   0  0  0  0  0  0  0  0  0  0  0  0
   -3.8558    7.7647  -22.2179 C   0  0  0  0  0  0  0  0  0  0  0  0
   -5.2826    7.4931  -22.0320 N   0  0  0  0  0  0  0  0  0  0  0  0
   -6.0262    7.9520  -23.2101 C   0  0  0  0  0  0  0  0  0  0  0  0
   -5.6413    7.1749  -24.4763 C   0  0  0  0  0  0  0  0  0  0  0  0
   -5.6176    7.9871  -21.2049 H   0  0  0  0  0  0  0  0  0  0  0  0
    1.1566    6.7241  -20.9621 C   0  0  0  0  0  0  0  0  0  0  0  0
    2.4164    6.0921  -21.2808 N   0  0  0  0  0  0  0  0  0  0  0  0
    3.4685    6.0671  -20.3981 C   0  0  0  0  0  0  0  0  0  0  0  0
    4.5192    5.4303  -21.0057 C   0  0  0  0  0  0  0  0  0  0  0  0
    4.0924    5.0447  -22.3039 C   0  0  0  0  0  0  0  0  0  0  0  0
    4.7463    4.3623  -23.3476 C   0  0  0  0  0  0  0  0  0  0  0  0
    4.0644    4.1029  -24.5328 C   0  0  0  0  0  0  0  0  0  0  0  0
    2.7465    4.5181  -24.6897 C   0  0  0  0  0  0  0  0  0  0  0  0
    2.0587    5.2011  -23.6752 C   0  0  0  0  0  0  0  0  0  0  0  0
    2.7575    5.4604  -22.4684 C   0  0  0  0  0  0  0  0  0  0  0  0
 16 17  1  0  0  0
 17 18  1  0  0  0
 18 19  2  0  0  0
 19 20  1  0  0  0
 20 21  2  0  0  0
 21 22  1  0  0  0
 22 23  2  0  0  0
 23 24  1  0  0  0
 24  1  1  0  0  0
  1  2  1  0  0  0
  2  3  2  0  0  0
  2  5  1  0  0  0
  5  6  2  0  0  0
  6  7  1  0  0  0
  7  8  2  0  0  0
  8  9  1  0  0  0
  9 10  2  0  0  0
  9 11  1  0  0  0
 11 12  1  0  0  0
 12 13  1  0  0  0
 13 14  1  0  0  0
 24 25  2  0  0  0
 25 17  1  0  0  0
 25 20  1  0  0  0
 10  5  1  0  0  0
 14  8  1  0  0  0
  1  4  1  0  0  0
 12 15  1  0  0  0
M  END
> <minimizedAffinity>
-3.39982

> <minimizedRMSD>
1.26495

$$$$
P63341


 16 16  0  0  0  0  0  0  0  0999 V2000
   -5.0119    5.5460  -17.1359 C   0  0  0  0  0  0  0  0  0  0  0  0
   -5.9750    5.1119  -16.0246 C   0  0  0  0  0  0  0  0  0  0  0  0
   -7.3202    4.7534  -16.5833 C   0  0  0  0  0  0  0  0  0  0  0  0
   -8.5150    4.5781  -15.9200 C   0  0  0  0  0  0  0  0  0  0  0  0
   -9.4514    4.3641  -16.8949 N   0  0  0  0  0  0  0  0  0  0  0  0
   -8.7982    4.3627  -18.0932 C   0  0  0  0  0  0  0  0  0  0  0  0
   -7.5150    4.5959  -17.9384 N   0  0  0  0  0  0  0  0  0  0  0  0
  -10.4176    4.2351  -16.7572 H   0  0  0  0  0  0  0  0  0  0  0  0
   -5.3629    3.9639  -15.3436 N   0  0  0  0  0  0  0  0  0  0  0  0
   -4.3635    3.9706  -15.5478 H   0  0  0  0  0  0  0  0  0  0  0  0
   -5.5284    3.9481  -13.8978 C   0  0  0  0  0  0  0  0  0  0  0  0
   -5.3376    2.5231  -13.3609 C   0  0  0  0  0  0  0  0  0  0  0  0
   -4.0191    2.2663  -12.6268 C   0  0  0  0  0  0  0  0  0  0  0  0
   -2.8425    1.8866  -13.5091 C   0  0  0  0  0  0  0  0  0  0  0  0
   -2.1949    0.8368  -12.9274 F   0  0  0  0  0  0  0  0  0  0  0  0
   -3.2682    1.4427  -14.7182 F   0  0  0  0  0  0  0  0  0  0  0  0
  2  1  1  0  0  0
  2  9  1  0  0  0
  9 11  1  0  0  0
 11 12  1  0  0  0
 12 13  1  0  0  0
 13 14  1  0  0  0
 14 15  1  0  0  0
 14 16  1  0  0  0
  2  3  1  0  0  0
  3  4  2  0  0  0
  4  5  1  0  0  0
  5  6  1  0  0  0
  6  7  2  0  0  0
  7  3  1  0  0  0
  9 10  1  0  0  0
  5  8  1  0  0  0
M  END
> <minimizedAffinity>
-4.09892

> <minimizedRMSD>
1.51332

$$$$
P63354


 16 16  0  0  0  0  0  0  0  0999 V2000
   -7.2870    4.7547  -15.1056 C   0  0  0  0  0  0  0  0  0  0  0  0
   -8.0198    4.4802  -16.3895 C   0  0  0  0  0  0  0  0  0  0  0  0
   -7.5322    4.6285  -17.6044 N   0  0  0  0  0  0  0  0  0  0  0  0
   -8.5697    4.4084  -18.4663 C   0  0  0  0  0  0  0  0  0  0  0  0
   -9.7095    4.1017  -17.7691 C   0  0  0  0  0  0  0  0  0  0  0  0
   -9.3360    4.0850  -16.4522 N   0  0  0  0  0  0  0  0  0  0  0  0
   -9.9056    3.8355  -15.6890 H   0  0  0  0  0  0  0  0  0  0  0  0
   -6.0848    5.7060  -15.3981 C   0  0  0  0  0  0  0  0  0  0  0  0
   -5.0853    5.1106  -16.0888 F   0  0  0  0  0  0  0  0  0  0  0  0
   -5.5441    6.1520  -14.2292 F   0  0  0  0  0  0  0  0  0  0  0  0
   -6.4675    6.8204  -16.0706 F   0  0  0  0  0  0  0  0  0  0  0  0
   -6.8451    3.5070  -14.4337 N   0  0  0  0  0  0  0  0  0  0  0  0
   -7.3200    2.7247  -14.8843 H   0  0  0  0  0  0  0  0  0  0  0  0
   -7.1085    3.4248  -13.0069 C   0  0  0  0  0  0  0  0  0  0  0  0
   -5.6351    2.1721  -11.3875 C   0  0  0  0  0  0  0  0  0  0  0  0
   -6.6565    2.0481  -12.5074 C   0  0  0  0  0  0  0  0  0  0  0  0
 15 16  1  0  0  0
 16 14  1  0  0  0
 14 12  1  0  0  0
  1 12  1  0  0  0
  1  2  1  0  0  0
  2  3  2  0  0  0
  3  4  1  0  0  0
  4  5  2  0  0  0
  5  6  1  0  0  0
  1  8  1  0  0  0
  8  9  1  0  0  0
  8 10  1  0  0  0
  8 11  1  0  0  0
  6  2  1  0  0  0
 12 13  1  0  0  0
  6  7  1  0  0  0
M  END
> <minimizedAffinity>
-4.22285

> <minimizedRMSD>
1.00046

$$$$
P63505


 17 19  0  0  0  0  0  0  0  0999 V2000
   -5.2829    4.4599  -20.8214 O   0  0  0  0  0  0  0  0  0  0  0  0
   -5.7798    4.5401  -19.7063 C   0  0  0  0  0  0  0  0  0  0  0  0
   -7.0870    4.1077  -19.4224 N   0  0  0  0  0  0  0  0  0  0  0  0
   -7.3517    4.2892  -18.0790 C   0  0  0  0  0  0  0  0  0  0  0  0
   -8.4914    3.9303  -17.3969 C   0  0  0  0  0  0  0  0  0  0  0  0
   -8.4825    4.1359  -16.0202 C   0  0  0  0  0  0  0  0  0  0  0  0
   -7.3619    4.6836  -15.3756 C   0  0  0  0  0  0  0  0  0  0  0  0
   -6.2200    5.0450  -16.1006 C   0  0  0  0  0  0  0  0  0  0  0  0
   -6.2303    4.8629  -17.4707 C   0  0  0  0  0  0  0  0  0  0  0  0
   -5.2563    5.0551  -18.4784 N   0  0  0  0  0  0  0  0  0  0  0  0
   -7.7168    3.7333  -20.0799 H   0  0  0  0  0  0  0  0  0  0  0  0
   -3.9385    5.5259  -18.3023 C   0  0  0  0  0  0  0  0  0  0  0  0
   -3.6437    6.8607  -18.0216 C   0  0  0  0  0  0  0  0  0  0  0  0
   -2.3174    7.2640  -17.8481 C   0  0  0  0  0  0  0  0  0  0  0  0
   -1.3018    6.3295  -17.9652 C   0  0  0  0  0  0  0  0  0  0  0  0
   -1.6590    5.0310  -18.2643 C   0  0  0  0  0  0  0  0  0  0  0  0
   -2.9363    4.6299  -18.4408 N   0  0  0  0  0  0  0  0  0  0  0  0
  1  2  2  0  0  0
  2  3  1  0  0  0
  3  4  1  0  0  0
  4  5  2  0  0  0
  5  6  1  0  0  0
  6  7  2  0  0  0
  7  8  1  0  0  0
  8  9  2  0  0  0
  9 10  1  0  0  0
 10 12  1  0  0  0
 12 13  2  0  0  0
 13 14  1  0  0  0
 14 15  2  0  0  0
 15 16  1  0  0  0
 16 17  2  0  0  0
 10  2  1  0  0  0
 17 12  1  0  0  0
  9  4  1  0  0  0
  3 11  1  0  0  0
M  END
> <minimizedAffinity>
-5.76844

> <minimizedRMSD>
0.68861

$$$$
P63515


 12 12  0  0  0  0  0  0  0  0999 V2000
   -7.1530    5.8248  -18.6410 N   0  0  0  0  0  0  0  0  0  0  0  0
   -7.6037    6.6997  -18.6668 H   0  0  0  0  0  0  0  0  0  0  0  0
   -5.7376    5.6869  -18.7789 C   0  0  0  0  0  0  0  0  0  0  0  0
   -4.9058    4.9543  -17.9404 C   0  0  0  0  0  0  0  0  0  0  0  0
   -3.5314    4.9760  -18.1710 C   0  0  0  0  0  0  0  0  0  0  0  0
   -3.0311    5.7549  -19.2043 C   0  0  0  0  0  0  0  0  0  0  0  0
   -3.9311    6.5010  -19.9472 C   0  0  0  0  0  0  0  0  0  0  0  0
   -5.2657    6.5133  -19.7337 N   0  0  0  0  0  0  0  0  0  0  0  0
   -9.7013    4.7955  -18.5983 C   0  0  0  0  0  0  0  0  0  0  0  0
   -7.9880    4.3903  -18.4325 S   0  0  0  0  0  0  0  0  0  0  0  0
   -7.7824    3.9564  -17.0662 O   0  0  0  0  0  0  0  0  0  0  0  0
   -7.6443    3.5920  -19.5841 O   0  0  0  0  0  0  0  0  0  0  0  0
  9 10  1  0  0  0
 10 11  2  0  0  0
 10 12  2  0  0  0
 10  1  1  0  0  0
  1  3  1  0  0  0
  3  4  2  0  0  0
  4  5  1  0  0  0
  5  6  2  0  0  0
  6  7  1  0  0  0
  7  8  2  0  0  0
  8  3  1  0  0  0
  1  2  1  0  0  0
M  END
> <minimizedAffinity>
-3.41297

> <minimizedRMSD>
0.59134

$$$$
P63527


 25 28  0  0  0  0  0  0  0  0999 V2000
   -9.0456    5.7510  -14.8624 O   0  0  0  0  0  0  0  0  0  0  0  0
   -8.5774    4.7273  -15.1548 C   0  0  0  0  0  0  0  0  0  0  0  0
   -7.9762    3.6239  -14.2790 N   0  0  0  0  0  0  0  0  0  0  0  0
   -7.7115    2.8100  -14.7656 H   0  0  0  0  0  0  0  0  0  0  0  0
   -7.7443    3.5845  -12.9144 C   0  0  0  0  0  0  0  0  0  0  0  0
   -6.9669    2.5460  -12.4151 C   0  0  0  0  0  0  0  0  0  0  0  0
   -6.6474    2.5095  -11.0551 C   0  0  0  0  0  0  0  0  0  0  0  0
   -7.1615    3.5255  -10.2495 C   0  0  0  0  0  0  0  0  0  0  0  0
   -7.1233    3.9017   -8.8932 C   0  0  0  0  0  0  0  0  0  0  0  0
   -7.8382    5.0044   -8.6385 N   0  0  0  0  0  0  0  0  0  0  0  0
   -8.3344    5.3343   -9.8571 N   0  0  0  0  0  0  0  0  0  0  0  0
   -7.9428    4.4920  -10.8588 C   0  0  0  0  0  0  0  0  0  0  0  0
   -8.2563    4.5871  -12.1640 N   0  0  0  0  0  0  0  0  0  0  0  0
   -8.9227    6.1096  -10.0060 H   0  0  0  0  0  0  0  0  0  0  0  0
   -8.4822    4.3666  -16.5558 C   0  0  0  0  0  0  0  0  0  0  0  0
   -9.4401    3.8505  -17.4088 C   0  0  0  0  0  0  0  0  0  0  0  0
   -8.8775    3.9310  -18.6915 C   0  0  0  0  0  0  0  0  0  0  0  0
   -7.6258    4.3847  -18.6568 N   0  0  0  0  0  0  0  0  0  0  0  0
   -7.3719    4.5739  -17.3489 N   0  0  0  0  0  0  0  0  0  0  0  0
   -6.0081    4.8415  -16.8934 C   0  0  0  0  0  0  0  0  0  0  0  0
   -5.8152    6.2499  -16.3262 C   0  0  0  0  0  0  0  0  0  0  0  0
   -4.4802    6.3866  -15.5924 C   0  0  0  0  0  0  0  0  0  0  0  0
   -3.3760    5.5296  -16.2050 C   0  0  0  0  0  0  0  0  0  0  0  0
   -3.6086    5.3170  -17.6941 C   0  0  0  0  0  0  0  0  0  0  0  0
   -4.9116    4.5527  -17.9484 C   0  0  0  0  0  0  0  0  0  0  0  0
  1  2  2  0  0  0
  2  3  1  0  0  0
  3  5  1  0  0  0
  5  6  2  0  0  0
  6  7  1  0  0  0
  7  8  2  0  0  0
  8  9  1  0  0  0
  9 10  2  0  0  0
 10 11  1  0  0  0
 11 12  1  0  0  0
 12 13  2  0  0  0
  2 15  1  0  0  0
 15 16  2  0  0  0
 16 17  1  0  0  0
 17 18  2  0  0  0
 18 19  1  0  0  0
 19 20  1  0  0  0
 20 21  1  0  0  0
 21 22  1  0  0  0
 22 23  1  0  0  0
 23 24  1  0  0  0
 24 25  1  0  0  0
 13  5  1  0  0  0
 19 15  1  0  0  0
 25 20  1  0  0  0
 12  8  1  0  0  0
  3  4  1  0  0  0
 11 14  1  0  0  0
M  END
> <minimizedAffinity>
-7.14834

> <minimizedRMSD>
1.18854

$$$$
P63561


 16 18  0  0  0  0  0  0  0  0999 V2000
   -5.0153    4.9364  -18.3669 C   0  0  0  0  0  0  0  0  0  0  0  0
   -4.7103    5.0200  -17.0612 N   0  0  0  0  0  0  0  0  0  0  0  0
   -5.7075    4.8867  -16.1423 C   0  0  0  0  0  0  0  0  0  0  0  0
   -7.0284    4.6935  -16.6059 C   0  0  0  0  0  0  0  0  0  0  0  0
   -8.3008    4.5319  -15.9586 C   0  0  0  0  0  0  0  0  0  0  0  0
   -9.3318    4.3416  -16.8518 C   0  0  0  0  0  0  0  0  0  0  0  0
   -8.7991    4.4041  -18.4723 S   0  0  0  0  0  0  0  0  0  0  0  0
   -7.1848    4.6367  -17.9837 C   0  0  0  0  0  0  0  0  0  0  0  0
   -6.2162    4.7462  -18.8988 N   0  0  0  0  0  0  0  0  0  0  0  0
   -5.2639    4.9863  -14.7011 C   0  0  0  0  0  0  0  0  0  0  0  0
   -5.4405    3.6858  -13.9130 C   0  0  0  0  0  0  0  0  0  0  0  0
   -4.8824    3.8410  -12.4946 C   0  0  0  0  0  0  0  0  0  0  0  0
   -5.1027    5.1575  -11.8831 N   0  0  0  0  0  0  0  0  0  0  0  0
   -6.1976    5.8880  -12.5141 C   0  0  0  0  0  0  0  0  0  0  0  0
   -5.9058    6.1846  -13.9831 C   0  0  0  0  0  0  0  0  0  0  0  0
   -4.2481    5.7072  -11.9721 H   0  0  0  0  0  0  0  0  0  0  0  0
  1  2  2  0  0  0
  2  3  1  0  0  0
  3 10  1  0  0  0
 10 11  1  0  0  0
 11 12  1  0  0  0
 12 13  1  0  0  0
 13 14  1  0  0  0
 14 15  1  0  0  0
  3  4  2  0  0  0
  4  5  1  0  0  0
  5  6  2  0  0  0
  6  7  1  0  0  0
  7  8  1  0  0  0
  8  9  2  0  0  0
  9  1  1  0  0  0
 15 10  1  0  0  0
  8  4  1  0  0  0
 13 16  1  0  0  0
M  END
> <minimizedAffinity>
-4.87236

> <minimizedRMSD>
1.40843

$$$$
P63585


 16 18  0  0  0  0  0  0  0  0999 V2000
   -3.2054    4.8570  -18.2413 C   0  0  0  0  0  0  0  0  0  0  0  0
   -4.5756    4.8257  -18.5657 C   0  0  0  0  0  0  0  0  0  0  0  0
   -5.3137    5.1714  -17.4443 C   0  0  0  0  0  0  0  0  0  0  0  0
   -4.3941    5.5123  -16.4852 N   0  0  0  0  0  0  0  0  0  0  0  0
   -3.1173    5.2319  -16.9219 C   0  0  0  0  0  0  0  0  0  0  0  0
   -1.9406    5.4004  -16.0340 C   0  0  0  0  0  0  0  0  0  0  0  0
   -2.2158    4.7625  -14.3462 S   0  0  0  0  0  0  0  0  0  0  0  0
   -4.0090    5.0951  -14.1191 C   0  0  0  0  0  0  0  0  0  0  0  0
   -4.6117    6.0355  -15.1515 C   0  0  0  0  0  0  0  0  0  0  0  0
   -6.8226    5.1941  -17.2659 C   0  0  0  0  0  0  0  0  0  0  0  0
   -7.5219    4.5030  -18.4430 C   0  0  0  0  0  0  0  0  0  0  0  0
   -9.0285    4.3749  -18.2999 C   0  0  0  0  0  0  0  0  0  0  0  0
   -9.5034    4.4951  -16.8661 C   0  0  0  0  0  0  0  0  0  0  0  0
   -8.5615    3.8913  -15.9577 N   0  0  0  0  0  0  0  0  0  0  0  0
   -7.2735    4.5590  -15.9260 C   0  0  0  0  0  0  0  0  0  0  0  0
   -8.4154    2.9226  -16.2418 H   0  0  0  0  0  0  0  0  0  0  0  0
  1  2  1  0  0  0
  2  3  2  0  0  0
 10  3  1  0  0  0
 10 11  1  0  0  0
 11 12  1  0  0  0
 12 13  1  0  0  0
 13 14  1  0  0  0
 14 15  1  0  0  0
  3  4  1  0  0  0
  4  5  1  0  0  0
  5  6  1  0  0  0
  6  7  1  0  0  0
  7  8  1  0  0  0
  8  9  1  0  0  0
  5  1  2  0  0  0
 15 10  1  0  0  0
  9  4  1  0  0  0
 14 16  1  0  0  0
M  END
> <minimizedAffinity>
-5.27560

> <minimizedRMSD>
0.83862

$$$$
P63590


 16 18  0  0  0  0  0  0  0  0999 V2000
   -3.6247    4.8835  -18.8457 C   0  0  0  0  0  0  0  0  0  0  0  0
   -5.0283    4.7585  -18.7818 C   0  0  0  0  0  0  0  0  0  0  0  0
   -5.4705    5.2478  -17.5647 C   0  0  0  0  0  0  0  0  0  0  0  0
   -4.3461    5.7118  -16.9218 N   0  0  0  0  0  0  0  0  0  0  0  0
   -3.2140    5.4299  -17.6544 C   0  0  0  0  0  0  0  0  0  0  0  0
   -1.8571    5.7630  -17.1548 C   0  0  0  0  0  0  0  0  0  0  0  0
   -1.6094    5.3720  -15.3908 S   0  0  0  0  0  0  0  0  0  0  0  0
   -3.3062    5.5984  -14.7259 C   0  0  0  0  0  0  0  0  0  0  0  0
   -4.2386    6.3798  -15.6388 C   0  0  0  0  0  0  0  0  0  0  0  0
   -6.8719    5.3415  -16.9985 C   0  0  0  0  0  0  0  0  0  0  0  0
   -7.9827    4.9859  -17.9970 C   0  0  0  0  0  0  0  0  0  0  0  0
   -9.1547    4.1782  -17.4525 C   0  0  0  0  0  0  0  0  0  0  0  0
   -9.4882    4.2916  -16.0503 N   0  0  0  0  0  0  0  0  0  0  0  0
   -8.4592    4.7835  -15.1668 C   0  0  0  0  0  0  0  0  0  0  0  0
   -7.0512    4.5683  -15.6956 C   0  0  0  0  0  0  0  0  0  0  0  0
   -9.7566    3.3638  -15.7225 H   0  0  0  0  0  0  0  0  0  0  0  0
  1  2  1  0  0  0
  2  3  2  0  0  0
  3 10  1  0  0  0
 10 11  1  0  0  0
 11 12  1  0  0  0
 12 13  1  0  0  0
 13 14  1  0  0  0
 14 15  1  0  0  0
  3  4  1  0  0  0
  4  5  1  0  0  0
  5  6  1  0  0  0
  6  7  1  0  0  0
  7  8  1  0  0  0
  8  9  1  0  0  0
  5  1  2  0  0  0
 15 10  1  0  0  0
  9  4  1  0  0  0
 13 16  1  0  0  0
M  END
> <minimizedAffinity>
-5.21658

> <minimizedRMSD>
0.46385

$$$$
P63685


 20 21  0  0  0  0  0  0  0  0999 V2000
   -6.1874    9.8764  -23.2085 O   0  0  0  0  0  0  0  0  0  0  0  0
   -5.4322    9.0863  -23.6186 C   0  0  0  0  0  0  0  0  0  0  0  0
   -5.4516    8.2676  -24.9317 N   0  0  0  0  0  0  0  0  0  0  0  0
   -4.6509    7.7157  -25.0852 H   0  0  0  0  0  0  0  0  0  0  0  0
   -6.3852    8.1874  -25.8981 C   0  0  0  0  0  0  0  0  0  0  0  0
   -6.5297    7.1763  -26.7115 N   0  0  0  0  0  0  0  0  0  0  0  0
   -7.7649    7.3548  -27.2778 C   0  0  0  0  0  0  0  0  0  0  0  0
   -8.4881    6.4988  -28.1169 C   0  0  0  0  0  0  0  0  0  0  0  0
   -9.7761    6.8769  -28.5041 C   0  0  0  0  0  0  0  0  0  0  0  0
  -10.3292    8.0807  -28.0636 C   0  0  0  0  0  0  0  0  0  0  0  0
   -9.6168    8.9616  -27.2394 C   0  0  0  0  0  0  0  0  0  0  0  0
   -8.3313    8.5617  -26.8723 C   0  0  0  0  0  0  0  0  0  0  0  0
   -7.3696    9.1220  -26.0686 N   0  0  0  0  0  0  0  0  0  0  0  0
   -7.3855   10.0288  -25.6856 H   0  0  0  0  0  0  0  0  0  0  0  0
   -4.1622    8.6334  -22.8755 C   0  0  0  0  0  0  0  0  0  0  0  0
   -4.1841    7.2602  -22.4949 O   0  0  0  0  0  0  0  0  0  0  0  0
   -4.9003    6.9683  -21.2833 C   0  0  0  0  0  0  0  0  0  0  0  0
   -4.0461    6.4221  -20.1394 C   0  0  0  0  0  0  0  0  0  0  0  0
   -3.5880    7.4469  -19.3727 F   0  0  0  0  0  0  0  0  0  0  0  0
   -2.9542    5.7559  -20.5810 F   0  0  0  0  0  0  0  0  0  0  0  0
  1  2  2  0  0  0
  2 15  1  0  0  0
 15 16  1  0  0  0
 16 17  1  0  0  0
 17 18  1  0  0  0
 18 19  1  0  0  0
 18 20  1  0  0  0
  2  3  1  0  0  0
  3  5  1  0  0  0
  5  6  2  0  0  0
  6  7  1  0  0  0
  7  8  2  0  0  0
  8  9  1  0  0  0
  9 10  2  0  0  0
 10 11  1  0  0  0
 11 12  2  0  0  0
 12 13  1  0  0  0
 13  5  1  0  0  0
 12  7  1  0  0  0
  3  4  1  0  0  0
 13 14  1  0  0  0
M  END
> <minimizedAffinity>
-2.91827

> <minimizedRMSD>
0.87395

$$$$
P63687


 23 24  0  0  0  0  0  0  0  0999 V2000
   -5.8230    9.8237  -23.6045 C   0  0  0  0  0  0  0  0  0  0  0  0
   -6.3441   10.8691  -23.6427 O   0  0  0  0  0  0  0  0  0  0  0  0
   -5.8772    8.6372  -24.6012 N   0  0  0  0  0  0  0  0  0  0  0  0
   -5.2821    7.8850  -24.3793 H   0  0  0  0  0  0  0  0  0  0  0  0
   -6.6049    8.4685  -25.7192 C   0  0  0  0  0  0  0  0  0  0  0  0
   -6.6651    7.3592  -26.4063 N   0  0  0  0  0  0  0  0  0  0  0  0
   -7.8439    7.4458  -27.0993 C   0  0  0  0  0  0  0  0  0  0  0  0
   -8.5003    6.4720  -27.8614 C   0  0  0  0  0  0  0  0  0  0  0  0
   -9.7636    6.7715  -28.3787 C   0  0  0  0  0  0  0  0  0  0  0  0
  -10.3582    8.0118  -28.1384 C   0  0  0  0  0  0  0  0  0  0  0  0
   -9.7086    9.0075  -27.3975 C   0  0  0  0  0  0  0  0  0  0  0  0
   -8.4436    8.6887  -26.9064 C   0  0  0  0  0  0  0  0  0  0  0  0
   -7.5396    9.3767  -26.1344 N   0  0  0  0  0  0  0  0  0  0  0  0
   -7.5604   10.3376  -25.9212 H   0  0  0  0  0  0  0  0  0  0  0  0
   -3.5181    9.6846  -22.6551 C   0  0  0  0  0  0  0  0  0  0  0  0
   -4.9685    9.3113  -22.3886 C   0  0  0  0  0  0  0  0  0  0  0  0
   -5.5015   10.0202  -21.1378 C   0  0  0  0  0  0  0  0  0  0  0  0
   -5.1192    7.8799  -22.4151 O   0  0  0  0  0  0  0  0  0  0  0  0
   -5.1422    7.0986  -21.2179 C   0  0  0  0  0  0  0  0  0  0  0  0
   -3.8077    6.6297  -20.6564 C   0  0  0  0  0  0  0  0  0  0  0  0
   -3.3600    7.4863  -19.7096 F   0  0  0  0  0  0  0  0  0  0  0  0
   -3.9247    5.4247  -20.0546 F   0  0  0  0  0  0  0  0  0  0  0  0
   -2.8534    6.5389  -21.6040 F   0  0  0  0  0  0  0  0  0  0  0  0
 15 16  1  0  0  0
 16 17  1  0  0  0
 16 18  1  0  0  0
 18 19  1  0  0  0
 19 20  1  0  0  0
 20 21  1  0  0  0
 20 22  1  0  0  0
 20 23  1  0  0  0
 16  1  1  0  0  0
  1  2  2  0  0  0
  1  3  1  0  0  0
  3  5  1  0  0  0
  5  6  2  0  0  0
  6  7  1  0  0  0
  7  8  2  0  0  0
  8  9  1  0  0  0
  9 10  2  0  0  0
 10 11  1  0  0  0
 11 12  2  0  0  0
 12 13  1  0  0  0
 13  5  1  0  0  0
 12  7  1  0  0  0
  3  4  1  0  0  0
 13 14  1  0  0  0
M  END
> <minimizedAffinity>
-3.33989

> <minimizedRMSD>
0.57026

$$$$
P63689


 18 19  0  0  0  0  0  0  0  0999 V2000
   -6.2689    9.6276  -25.8373 C   0  0  0  0  0  0  0  0  0  0  0  0
   -6.3027    8.4162  -26.3353 N   0  0  0  0  0  0  0  0  0  0  0  0
   -7.5857    8.2528  -26.8127 C   0  0  0  0  0  0  0  0  0  0  0  0
   -8.2153    7.1201  -27.3511 C   0  0  0  0  0  0  0  0  0  0  0  0
   -9.5502    7.2230  -27.7654 C   0  0  0  0  0  0  0  0  0  0  0  0
  -10.2434    8.4300  -27.6514 C   0  0  0  0  0  0  0  0  0  0  0  0
   -9.6333    9.5728  -27.1191 C   0  0  0  0  0  0  0  0  0  0  0  0
   -8.3045    9.4404  -26.7051 C   0  0  0  0  0  0  0  0  0  0  0  0
   -7.4205   10.3093  -26.1132 N   0  0  0  0  0  0  0  0  0  0  0  0
   -7.5880   11.2601  -25.9208 H   0  0  0  0  0  0  0  0  0  0  0  0
   -5.0456   10.2071  -25.3286 N   0  0  0  0  0  0  0  0  0  0  0  0
   -4.2588   10.2936  -25.9140 H   0  0  0  0  0  0  0  0  0  0  0  0
   -4.9720   10.7364  -23.7222 S   0  0  0  0  0  0  0  0  0  0  0  0
   -3.9595   11.7761  -23.7193 O   0  0  0  0  0  0  0  0  0  0  0  0
   -6.2814   11.0240  -23.1747 O   0  0  0  0  0  0  0  0  0  0  0  0
   -4.2793    9.3435  -22.8380 C   0  0  0  0  0  0  0  0  0  0  0  0
   -5.3871    7.1350  -23.0848 C   0  0  0  0  0  0  0  0  0  0  0  0
   -5.3496    8.3524  -22.5423 C   0  0  0  0  0  0  0  0  0  0  0  0
 17 18  2  0  0  0
 18 16  1  0  0  0
 16 13  1  0  0  0
 13 14  2  0  0  0
 13 15  2  0  0  0
 13 11  1  0  0  0
 11  1  1  0  0  0
  1  2  2  0  0  0
  2  3  1  0  0  0
  3  4  2  0  0  0
  4  5  1  0  0  0
  5  6  2  0  0  0
  6  7  1  0  0  0
  7  8  2  0  0  0
  8  9  1  0  0  0
  9  1  1  0  0  0
  8  3  1  0  0  0
 11 12  1  0  0  0
  9 10  1  0  0  0
M  END
> <minimizedAffinity>
-2.64180

> <minimizedRMSD>
0.56647

$$$$
P63942


 16 17  0  0  0  0  0  0  0  0999 V2000
   -7.7370    4.6158  -15.8742 C   0  0  0  0  0  0  0  0  0  0  0  0
   -9.0076    4.3973  -16.4186 C   0  0  0  0  0  0  0  0  0  0  0  0
   -9.1703    4.3816  -17.7986 C   0  0  0  0  0  0  0  0  0  0  0  0
   -8.0645    4.5772  -18.6266 C   0  0  0  0  0  0  0  0  0  0  0  0
   -6.7832    4.8081  -18.0910 C   0  0  0  0  0  0  0  0  0  0  0  0
   -5.6695    4.9911  -18.9176 C   0  0  0  0  0  0  0  0  0  0  0  0
   -4.4292    5.2136  -18.3468 C   0  0  0  0  0  0  0  0  0  0  0  0
   -4.2114    5.2609  -17.0193 N   0  0  0  0  0  0  0  0  0  0  0  0
   -5.2995    5.0744  -16.2309 C   0  0  0  0  0  0  0  0  0  0  0  0
   -6.6075    4.8430  -16.6952 C   0  0  0  0  0  0  0  0  0  0  0  0
   -7.3130    3.1016  -13.9693 N   0  0  0  0  0  0  0  0  0  0  0  0
   -7.5847    4.5503  -14.4019 C   0  0  0  0  0  0  0  0  0  0  0  0
   -7.6146    5.5314  -13.7768 O   0  0  0  0  0  0  0  0  0  0  0  0
   -7.2679    2.4525  -14.7081 H   0  0  0  0  0  0  0  0  0  0  0  0
   -5.6838    2.0520  -12.5109 C   0  0  0  0  0  0  0  0  0  0  0  0
   -7.1138    2.5390  -12.6607 C   0  0  0  0  0  0  0  0  0  0  0  0
 15 16  1  0  0  0
 16 11  1  0  0  0
 11 12  1  0  0  0
 12 13  2  0  0  0
 12  1  1  0  0  0
  1  2  2  0  0  0
  2  3  1  0  0  0
  3  4  2  0  0  0
  4  5  1  0  0  0
  5  6  2  0  0  0
  6  7  1  0  0  0
  7  8  2  0  0  0
  8  9  1  0  0  0
  9 10  2  0  0  0
 10  1  1  0  0  0
 10  5  1  0  0  0
 11 14  1  0  0  0
M  END
> <minimizedAffinity>
-6.44315

> <minimizedRMSD>
0.73477

$$$$
P63943


 17 18  0  0  0  0  0  0  0  0999 V2000
   -7.3853    4.6695  -15.8409 C   0  0  0  0  0  0  0  0  0  0  0  0
   -8.7277    4.4847  -16.1874 C   0  0  0  0  0  0  0  0  0  0  0  0
   -9.0897    4.4572  -17.5282 C   0  0  0  0  0  0  0  0  0  0  0  0
   -8.1090    4.5998  -18.5110 C   0  0  0  0  0  0  0  0  0  0  0  0
   -6.7552    4.7924  -18.1722 C   0  0  0  0  0  0  0  0  0  0  0  0
   -5.7630    4.9104  -19.1515 C   0  0  0  0  0  0  0  0  0  0  0  0
   -4.4460    5.0911  -18.7684 C   0  0  0  0  0  0  0  0  0  0  0  0
   -4.0392    5.1544  -17.4871 N   0  0  0  0  0  0  0  0  0  0  0  0
   -5.0096    5.0257  -16.5487 C   0  0  0  0  0  0  0  0  0  0  0  0
   -6.3789    4.8440  -16.8186 C   0  0  0  0  0  0  0  0  0  0  0  0
   -7.3241    3.0707  -13.9880 N   0  0  0  0  0  0  0  0  0  0  0  0
   -6.9981    4.5070  -14.4218 C   0  0  0  0  0  0  0  0  0  0  0  0
   -6.4674    5.3670  -13.8455 O   0  0  0  0  0  0  0  0  0  0  0  0
   -7.8531    2.5541  -14.6380 H   0  0  0  0  0  0  0  0  0  0  0  0
   -5.4776    2.2198  -12.6046 C   0  0  0  0  0  0  0  0  0  0  0  0
   -6.9824    2.3562  -12.7858 C   0  0  0  0  0  0  0  0  0  0  0  0
   -7.6623    2.9957  -11.6008 C   0  0  0  0  0  0  0  0  0  0  0  0
 15 16  1  0  0  0
 16 17  1  0  0  0
 16 11  1  0  0  0
 11 12  1  0  0  0
 12 13  2  0  0  0
 12  1  1  0  0  0
  1  2  2  0  0  0
  2  3  1  0  0  0
  3  4  2  0  0  0
  4  5  1  0  0  0
  5  6  2  0  0  0
  6  7  1  0  0  0
  7  8  2  0  0  0
  8  9  1  0  0  0
  9 10  2  0  0  0
 10  1  1  0  0  0
 10  5  1  0  0  0
 11 14  1  0  0  0
M  END
> <minimizedAffinity>
-6.87080

> <minimizedRMSD>
0.54578

$$$$
P63966


 20 21  0  0  0  0  0  0  0  0999 V2000
   -6.9933    3.0625  -13.9813 N   0  0  0  0  0  0  0  0  0  0  0  0
   -6.9736    4.5379  -14.4039 C   0  0  0  0  0  0  0  0  0  0  0  0
   -6.6171    5.4832  -13.8270 O   0  0  0  0  0  0  0  0  0  0  0  0
   -7.4193    2.4544  -14.6278 H   0  0  0  0  0  0  0  0  0  0  0  0
   -7.4141    4.6477  -15.8105 C   0  0  0  0  0  0  0  0  0  0  0  0
   -8.7703    4.4673  -16.1015 C   0  0  0  0  0  0  0  0  0  0  0  0
   -9.1901    4.4565  -17.4248 C   0  0  0  0  0  0  0  0  0  0  0  0
   -8.2509    4.6075  -18.4441 C   0  0  0  0  0  0  0  0  0  0  0  0
   -6.8840    4.7949  -18.1634 C   0  0  0  0  0  0  0  0  0  0  0  0
   -5.9360    4.9281  -19.1835 C   0  0  0  0  0  0  0  0  0  0  0  0
   -4.6036    5.1042  -18.8557 C   0  0  0  0  0  0  0  0  0  0  0  0
   -4.1412    5.1477  -17.5926 N   0  0  0  0  0  0  0  0  0  0  0  0
   -5.0704    5.0074  -16.6147 C   0  0  0  0  0  0  0  0  0  0  0  0
   -6.4506    4.8297  -16.8281 C   0  0  0  0  0  0  0  0  0  0  0  0
   -6.4908    2.4232  -12.7942 C   0  0  0  0  0  0  0  0  0  0  0  0
   -6.8615    3.1711  -11.5149 C   0  0  0  0  0  0  0  0  0  0  0  0
   -8.3727    3.1933  -11.2591 C   0  0  0  0  0  0  0  0  0  0  0  0
   -6.1618    2.5733  -10.2847 C   0  0  0  0  0  0  0  0  0  0  0  0
   -3.8492    2.1127  -13.1019 C   0  0  0  0  0  0  0  0  0  0  0  0
   -5.0341    2.2525  -12.9599 C   0  0  0  0  0  0  0  0  0  0  0  0
 19 20  3  0  0  0
 15 20  1  0  0  0
 15  1  1  0  0  0
  1  2  1  0  0  0
  2  3  2  0  0  0
  2  5  1  0  0  0
  5  6  2  0  0  0
  6  7  1  0  0  0
  7  8  2  0  0  0
  8  9  1  0  0  0
  9 10  2  0  0  0
 10 11  1  0  0  0
 11 12  2  0  0  0
 12 13  1  0  0  0
 13 14  2  0  0  0
 15 16  1  0  0  0
 16 17  1  0  0  0
 16 18  1  0  0  0
 14  5  1  0  0  0
 14  9  1  0  0  0
  1  4  1  0  0  0
M  END
> <minimizedAffinity>
-6.86708

> <minimizedRMSD>
0.32646

$$$$
P64008


 19 20  0  0  0  0  0  0  0  0999 V2000
   -8.3309    4.5776  -12.5837 C   0  0  0  0  0  0  0  0  0  0  0  0
   -8.6407    5.5273  -13.5283 C   0  0  0  0  0  0  0  0  0  0  0  0
   -8.1400    5.5165  -14.7843 N   0  0  0  0  0  0  0  0  0  0  0  0
   -7.3382    4.4808  -15.1040 C   0  0  0  0  0  0  0  0  0  0  0  0
   -7.1246    3.4255  -14.3042 N   0  0  0  0  0  0  0  0  0  0  0  0
   -7.6261    3.5007  -13.0614 C   0  0  0  0  0  0  0  0  0  0  0  0
   -6.5385    4.5840  -16.3329 C   0  0  0  0  0  0  0  0  0  0  0  0
   -7.1873    4.5900  -17.5815 C   0  0  0  0  0  0  0  0  0  0  0  0
   -6.4858    4.7711  -18.7766 C   0  0  0  0  0  0  0  0  0  0  0  0
   -5.1063    4.9192  -18.7622 C   0  0  0  0  0  0  0  0  0  0  0  0
   -4.4307    4.8986  -17.5486 C   0  0  0  0  0  0  0  0  0  0  0  0
   -5.1367    4.7503  -16.3449 C   0  0  0  0  0  0  0  0  0  0  0  0
   -4.1747    4.9136  -14.9085 Cl  0  0  0  0  0  0  0  0  0  0  0  0
   -8.6969    4.7427  -11.2864 O   0  0  0  0  0  0  0  0  0  0  0  0
   -7.6034    4.6230  -10.3640 C   0  0  0  0  0  0  0  0  0  0  0  0
   -8.9878    2.9311   -8.9860 C   0  0  0  0  0  0  0  0  0  0  0  0
   -7.9856    4.0721   -8.9798 C   0  0  0  0  0  0  0  0  0  0  0  0
   -8.4864    5.1428   -8.1717 O   0  0  0  0  0  0  0  0  0  0  0  0
   -9.2991    5.4942   -8.5680 H   0  0  0  0  0  0  0  0  0  0  0  0
 17 16  1  0  0  0
 17 18  1  0  0  0
 17 15  1  0  0  0
 15 14  1  0  0  0
 14  1  1  0  0  0
  1  2  2  0  0  0
  2  3  1  0  0  0
  3  4  2  0  0  0
  4  7  1  0  0  0
  7  8  2  0  0  0
  8  9  1  0  0  0
  9 10  2  0  0  0
 10 11  1  0  0  0
 11 12  2  0  0  0
 12 13  1  0  0  0
  4  5  1  0  0  0
  5  6  2  0  0  0
  6  1  1  0  0  0
 12  7  1  0  0  0
 18 19  1  0  0  0
M  END
> <minimizedAffinity>
-5.87245

> <minimizedRMSD>
2.37099

$$$$
P64009


 18 19  0  0  0  0  0  0  0  0999 V2000
   -8.0677    4.8311  -14.6681 C   0  0  0  0  0  0  0  0  0  0  0  0
   -8.2218    5.2660  -15.9645 C   0  0  0  0  0  0  0  0  0  0  0  0
   -7.2411    5.2370  -16.8961 N   0  0  0  0  0  0  0  0  0  0  0  0
   -6.0606    4.7258  -16.5000 C   0  0  0  0  0  0  0  0  0  0  0  0
   -5.8498    4.1552  -15.3052 N   0  0  0  0  0  0  0  0  0  0  0  0
   -6.8653    4.2149  -14.4233 C   0  0  0  0  0  0  0  0  0  0  0  0
   -4.9041    4.9200  -17.3817 C   0  0  0  0  0  0  0  0  0  0  0  0
   -5.0686    4.8012  -18.7738 C   0  0  0  0  0  0  0  0  0  0  0  0
   -4.0209    5.0521  -19.6633 C   0  0  0  0  0  0  0  0  0  0  0  0
   -2.7664    5.4013  -19.1831 C   0  0  0  0  0  0  0  0  0  0  0  0
   -2.5647    5.5089  -17.8120 C   0  0  0  0  0  0  0  0  0  0  0  0
   -3.6237    5.2866  -16.9189 C   0  0  0  0  0  0  0  0  0  0  0  0
   -3.2677    5.6144  -15.2518 Cl  0  0  0  0  0  0  0  0  0  0  0  0
   -9.0551    5.0947  -13.7770 O   0  0  0  0  0  0  0  0  0  0  0  0
   -8.8161    6.1194  -12.8001 C   0  0  0  0  0  0  0  0  0  0  0  0
  -10.6313    7.2957  -13.9340 O   0  0  0  0  0  0  0  0  0  0  0  0
   -9.4253    7.4692  -13.1957 C   0  0  0  0  0  0  0  0  0  0  0  0
  -10.9936    8.1639  -14.1703 H   0  0  0  0  0  0  0  0  0  0  0  0
 16 17  1  0  0  0
 17 15  1  0  0  0
 15 14  1  0  0  0
 14  1  1  0  0  0
  1  2  2  0  0  0
  2  3  1  0  0  0
  3  4  2  0  0  0
  4  7  1  0  0  0
  7  8  2  0  0  0
  8  9  1  0  0  0
  9 10  2  0  0  0
 10 11  1  0  0  0
 11 12  2  0  0  0
 12 13  1  0  0  0
  4  5  1  0  0  0
  5  6  2  0  0  0
  6  1  1  0  0  0
 12  7  1  0  0  0
 16 18  1  0  0  0
M  END
> <minimizedAffinity>
-4.92896

> <minimizedRMSD>
1.56938

$$$$
P64088


 15 17  0  0  0  0  0  0  0  0999 V2000
   -8.3386    4.3005  -15.7303 C   0  0  0  0  0  0  0  0  0  0  0  0
   -9.0242    3.8405  -16.8565 C   0  0  0  0  0  0  0  0  0  0  0  0
   -8.4735    3.9337  -18.1401 C   0  0  0  0  0  0  0  0  0  0  0  0
   -7.2079    4.5126  -18.2330 C   0  0  0  0  0  0  0  0  0  0  0  0
   -6.3893    4.7857  -19.3020 N   0  0  0  0  0  0  0  0  0  0  0  0
   -5.2261    5.3320  -18.8147 C   0  0  0  0  0  0  0  0  0  0  0  0
   -5.2718    5.4561  -17.5052 N   0  0  0  0  0  0  0  0  0  0  0  0
   -6.4946    4.9630  -17.1298 C   0  0  0  0  0  0  0  0  0  0  0  0
   -7.0655    4.8675  -15.8535 C   0  0  0  0  0  0  0  0  0  0  0  0
   -6.5989    4.6196  -20.2494 H   0  0  0  0  0  0  0  0  0  0  0  0
   -4.1054    5.7130  -19.6107 C   0  0  0  0  0  0  0  0  0  0  0  0
   -3.9630    6.7653  -20.4934 C   0  0  0  0  0  0  0  0  0  0  0  0
   -2.6967    6.6983  -21.1464 C   0  0  0  0  0  0  0  0  0  0  0  0
   -1.9091    5.6730  -20.8296 N   0  0  0  0  0  0  0  0  0  0  0  0
   -2.6165    4.8562  -19.5620 S   0  0  0  0  0  0  0  0  0  0  0  0
  1  2  2  0  0  0
  2  3  1  0  0  0
  3  4  2  0  0  0
  4  5  1  0  0  0
  5  6  1  0  0  0
  6 11  1  0  0  0
 11 12  2  0  0  0
 12 13  1  0  0  0
 13 14  2  0  0  0
 14 15  1  0  0  0
  6  7  2  0  0  0
  7  8  1  0  0  0
  8  9  2  0  0  0
  9  1  1  0  0  0
  8  4  1  0  0  0
 15 11  1  0  0  0
  5 10  1  0  0  0
M  END
> <minimizedAffinity>
-5.98542

> <minimizedRMSD>
0.64877

$$$$
P64196


 18 20  0  0  0  0  0  0  0  0999 V2000
   -7.9480    4.6216  -16.7215 C   0  0  0  0  0  0  0  0  0  0  0  0
   -7.2144    4.8154  -17.8383 N   0  0  0  0  0  0  0  0  0  0  0  0
   -5.8886    4.9793  -17.6642 C   0  0  0  0  0  0  0  0  0  0  0  0
   -5.2870    4.9119  -16.4660 N   0  0  0  0  0  0  0  0  0  0  0  0
   -6.0485    4.7080  -15.3752 C   0  0  0  0  0  0  0  0  0  0  0  0
   -7.4216    4.5896  -15.4418 C   0  0  0  0  0  0  0  0  0  0  0  0
   -8.2665    4.4169  -14.2175 C   0  0  0  0  0  0  0  0  0  0  0  0
   -8.1492    5.5699  -13.2138 C   0  0  0  0  0  0  0  0  0  0  0  0
   -6.8884    5.5500  -12.3522 C   0  0  0  0  0  0  0  0  0  0  0  0
   -5.5887    5.7463  -13.1248 C   0  0  0  0  0  0  0  0  0  0  0  0
   -5.2883    4.5989  -14.0816 C   0  0  0  0  0  0  0  0  0  0  0  0
   -4.9921    5.1086  -18.8794 C   0  0  0  0  0  0  0  0  0  0  0  0
   -5.1044    6.4859  -19.5439 C   0  0  0  0  0  0  0  0  0  0  0  0
   -3.7978    6.9176  -20.1963 C   0  0  0  0  0  0  0  0  0  0  0  0
   -2.6589    6.9508  -19.1790 C   0  0  0  0  0  0  0  0  0  0  0  0
   -2.6776    5.8556  -18.2128 N   0  0  0  0  0  0  0  0  0  0  0  0
   -3.5133    4.7262  -18.6338 C   0  0  0  0  0  0  0  0  0  0  0  0
   -3.0364    6.2115  -17.3267 H   0  0  0  0  0  0  0  0  0  0  0  0
  1  2  2  0  0  0
  2  3  1  0  0  0
 12  3  1  0  0  0
 12 13  1  0  0  0
 13 14  1  0  0  0
 14 15  1  0  0  0
 15 16  1  0  0  0
 16 17  1  0  0  0
  3  4  2  0  0  0
  4  5  1  0  0  0
  5  6  2  0  0  0
  6  7  1  0  0  0
  7  8  1  0  0  0
  8  9  1  0  0  0
  9 10  1  0  0  0
 10 11  1  0  0  0
  6  1  1  0  0  0
 17 12  1  0  0  0
 11  5  1  0  0  0
 16 18  1  0  0  0
M  END
> <minimizedAffinity>
-4.51955

> <minimizedRMSD>
0.95054

$$$$
P64200


 13 14  0  0  0  0  0  0  0  0999 V2000
   -7.4633    4.3823  -15.9016 C   0  0  0  0  0  0  0  0  0  0  0  0
   -6.4991    5.0550  -16.8968 C   0  0  0  0  0  0  0  0  0  0  0  0
   -6.7734    4.6480  -18.3391 C   0  0  0  0  0  0  0  0  0  0  0  0
   -8.1550    4.9374  -18.6789 N   0  0  0  0  0  0  0  0  0  0  0  0
   -9.0780    4.1599  -17.8583 C   0  0  0  0  0  0  0  0  0  0  0  0
   -8.9159    4.5184  -16.3846 C   0  0  0  0  0  0  0  0  0  0  0  0
   -8.3104    4.7089  -19.6608 H   0  0  0  0  0  0  0  0  0  0  0  0
   -7.1232    5.5252  -11.8566 C   0  0  0  0  0  0  0  0  0  0  0  0
   -8.3543    5.3875  -12.4657 C   0  0  0  0  0  0  0  0  0  0  0  0
   -8.4772    5.0678  -13.7718 N   0  0  0  0  0  0  0  0  0  0  0  0
   -7.3271    4.8734  -14.4699 C   0  0  0  0  0  0  0  0  0  0  0  0
   -6.0966    5.0263  -13.8339 C   0  0  0  0  0  0  0  0  0  0  0  0
   -5.9640    5.3558  -12.5256 N   0  0  0  0  0  0  0  0  0  0  0  0
  8  9  2  0  0  0
  9 10  1  0  0  0
 10 11  2  0  0  0
 11  1  1  0  0  0
  1  2  1  0  0  0
  2  3  1  0  0  0
  3  4  1  0  0  0
  4  5  1  0  0  0
  5  6  1  0  0  0
 11 12  1  0  0  0
 12 13  2  0  0  0
 13  8  1  0  0  0
  6  1  1  0  0  0
  4  7  1  0  0  0
M  END
> <minimizedAffinity>
-4.38198

> <minimizedRMSD>
0.80481

$$$$
P64201


 14 16  0  0  0  0  0  0  0  0999 V2000
   -6.6153    4.6882  -14.8698 C   0  0  0  0  0  0  0  0  0  0  0  0
   -5.2499    5.0016  -14.8463 C   0  0  0  0  0  0  0  0  0  0  0  0
   -4.5832    5.2017  -16.0371 C   0  0  0  0  0  0  0  0  0  0  0  0
   -5.1447    5.1537  -17.2510 N   0  0  0  0  0  0  0  0  0  0  0  0
   -6.4755    4.8715  -17.2871 C   0  0  0  0  0  0  0  0  0  0  0  0
   -7.2419    4.8201  -18.4880 C   0  0  0  0  0  0  0  0  0  0  0  0
   -8.5651    4.5394  -18.2537 C   0  0  0  0  0  0  0  0  0  0  0  0
   -8.8849    4.3569  -16.5905 S   0  0  0  0  0  0  0  0  0  0  0  0
   -7.2411    4.6229  -16.1366 C   0  0  0  0  0  0  0  0  0  0  0  0
   -8.0546    3.6543  -11.7497 C   0  0  0  0  0  0  0  0  0  0  0  0
   -7.3261    3.3360  -12.8728 C   0  0  0  0  0  0  0  0  0  0  0  0
   -7.2816    4.4761  -13.6358 N   0  0  0  0  0  0  0  0  0  0  0  0
   -8.0025    5.4190  -12.9299 C   0  0  0  0  0  0  0  0  0  0  0  0
   -8.4910    4.9485  -11.8060 N   0  0  0  0  0  0  0  0  0  0  0  0
 10 11  2  0  0  0
 11 12  1  0  0  0
 12  1  1  0  0  0
  1  2  2  0  0  0
  2  3  1  0  0  0
  3  4  2  0  0  0
  4  5  1  0  0  0
  5  6  1  0  0  0
  6  7  2  0  0  0
  7  8  1  0  0  0
  8  9  1  0  0  0
 12 13  1  0  0  0
 13 14  2  0  0  0
 14 10  1  0  0  0
  9  1  1  0  0  0
  9  5  2  0  0  0
M  END
> <minimizedAffinity>
-4.82909

> <minimizedRMSD>
0.90275

$$$$
P64245


 22 23  0  0  0  0  0  0  0  0999 V2000
   -5.9200    3.3066  -14.0739 O   0  0  0  0  0  0  0  0  0  0  0  0
   -5.4966    4.3544  -14.3605 C   0  0  0  0  0  0  0  0  0  0  0  0
   -6.2244    5.6328  -14.8366 N   0  0  0  0  0  0  0  0  0  0  0  0
   -5.6298    6.3748  -15.0917 H   0  0  0  0  0  0  0  0  0  0  0  0
   -3.9998    4.6642  -14.3470 C   0  0  0  0  0  0  0  0  0  0  0  0
   -3.2361    3.9598  -15.4718 C   0  0  0  0  0  0  0  0  0  0  0  0
   -3.1608    4.7656  -16.7465 C   0  0  0  0  0  0  0  0  0  0  0  0
   -4.2077    4.6581  -17.6688 C   0  0  0  0  0  0  0  0  0  0  0  0
   -4.2373    5.4663  -18.7972 C   0  0  0  0  0  0  0  0  0  0  0  0
   -3.2206    6.3762  -18.9698 C   0  0  0  0  0  0  0  0  0  0  0  0
   -2.1651    6.4867  -18.1406 N   0  0  0  0  0  0  0  0  0  0  0  0
   -2.1474    5.6785  -17.0518 C   0  0  0  0  0  0  0  0  0  0  0  0
   -0.6588    5.9378  -15.8912 Br  0  0  0  0  0  0  0  0  0  0  0  0
   -7.6234    5.9132  -14.9668 C   0  0  0  0  0  0  0  0  0  0  0  0
   -8.1817    5.1018  -16.0939 C   0  0  0  0  0  0  0  0  0  0  0  0
   -8.0118    5.3243  -17.4076 C   0  0  0  0  0  0  0  0  0  0  0  0
   -8.8535    4.3172  -18.0940 C   0  0  0  0  0  0  0  0  0  0  0  0
   -8.8701    4.1191  -19.2952 O   0  0  0  0  0  0  0  0  0  0  0  0
   -9.5651    3.6772  -17.0946 N   0  0  0  0  0  0  0  0  0  0  0  0
   -9.0135    4.0194  -15.8664 N   0  0  0  0  0  0  0  0  0  0  0  0
  -10.3347    3.0786  -17.2313 H   0  0  0  0  0  0  0  0  0  0  0  0
   -9.1816    3.5780  -15.0026 H   0  0  0  0  0  0  0  0  0  0  0  0
  1  2  2  0  0  0
  2  5  1  0  0  0
  5  6  1  0  0  0
  6  7  1  0  0  0
  7  8  2  0  0  0
  8  9  1  0  0  0
  9 10  2  0  0  0
 10 11  1  0  0  0
 11 12  2  0  0  0
 12 13  1  0  0  0
  2  3  1  0  0  0
  3 14  1  0  0  0
 14 15  1  0  0  0
 15 16  2  0  0  0
 16 17  1  0  0  0
 17 18  2  0  0  0
 17 19  1  0  0  0
 19 20  1  0  0  0
 12  7  1  0  0  0
 20 15  1  0  0  0
  3  4  1  0  0  0
 19 21  1  0  0  0
 20 22  1  0  0  0
M  END
> <minimizedAffinity>
-5.36804

> <minimizedRMSD>
1.67392

$$$$
P64483


 25 27  0  0  0  0  0  0  0  0999 V2000
   -3.1978    6.0926  -17.1507 N   0  0  0  0  0  0  0  0  0  0  0  0
   -3.5589    5.4303  -15.8079 C   0  0  0  0  0  0  0  0  0  0  0  0
   -2.9256    5.2918  -14.8395 O   0  0  0  0  0  0  0  0  0  0  0  0
   -3.8885    6.0142  -17.8478 H   0  0  0  0  0  0  0  0  0  0  0  0
   -4.9976    4.9708  -15.8642 C   0  0  0  0  0  0  0  0  0  0  0  0
   -5.6656    4.6160  -14.7026 C   0  0  0  0  0  0  0  0  0  0  0  0
   -7.0283    4.3398  -14.7913 C   0  0  0  0  0  0  0  0  0  0  0  0
   -7.6884    4.4296  -16.0193 C   0  0  0  0  0  0  0  0  0  0  0  0
   -6.9022    4.6946  -17.1498 C   0  0  0  0  0  0  0  0  0  0  0  0
   -5.5812    5.0143  -17.0932 N   0  0  0  0  0  0  0  0  0  0  0  0
   -7.5329    4.7188  -18.5146 C   0  0  0  0  0  0  0  0  0  0  0  0
   -8.9556    4.1764  -18.5403 C   0  0  0  0  0  0  0  0  0  0  0  0
   -9.7390    4.5653  -17.3044 C   0  0  0  0  0  0  0  0  0  0  0  0
   -9.0513    4.1196  -16.0993 N   0  0  0  0  0  0  0  0  0  0  0  0
   -9.5175    3.6296  -15.3839 H   0  0  0  0  0  0  0  0  0  0  0  0
   -2.3371    7.7100  -18.7420 C   0  0  0  0  0  0  0  0  0  0  0  0
   -2.0114    6.8097  -17.5534 C   0  0  0  0  0  0  0  0  0  0  0  0
   -0.8510    5.8658  -17.8903 C   0  0  0  0  0  0  0  0  0  0  0  0
    0.2564    5.8879  -16.8304 C   0  0  0  0  0  0  0  0  0  0  0  0
    1.5848    5.4242  -17.3804 C   0  0  0  0  0  0  0  0  0  0  0  0
    1.8300    5.3891  -18.7556 C   0  0  0  0  0  0  0  0  0  0  0  0
    3.0676    4.9494  -19.2032 C   0  0  0  0  0  0  0  0  0  0  0  0
    4.0635    4.5421  -18.3873 N   0  0  0  0  0  0  0  0  0  0  0  0
    3.8027    4.5720  -17.0635 C   0  0  0  0  0  0  0  0  0  0  0  0
    2.5994    4.9975  -16.5197 C   0  0  0  0  0  0  0  0  0  0  0  0
 17 16  1  0  0  0
 17 18  1  0  0  0
 18 19  1  0  0  0
 19 20  1  0  0  0
 20 21  2  0  0  0
 21 22  1  0  0  0
 22 23  2  0  0  0
 23 24  1  0  0  0
 24 25  2  0  0  0
 17  1  1  0  0  0
  1  2  1  0  0  0
  2  3  2  0  0  0
  2  5  1  0  0  0
  5  6  2  0  0  0
  6  7  1  0  0  0
  7  8  2  0  0  0
  8  9  1  0  0  0
  9 10  2  0  0  0
  9 11  1  0  0  0
 11 12  1  0  0  0
 12 13  1  0  0  0
 13 14  1  0  0  0
 25 20  1  0  0  0
 10  5  1  0  0  0
 14  8  1  0  0  0
  1  4  1  0  0  0
 14 15  1  0  0  0
M  END
> <minimizedAffinity>
-5.39444

> <minimizedRMSD>
1.21416

$$$$
P64615


 13 14  0  0  0  0  0  0  0  0999 V2000
   -5.5827    4.8762  -19.2648 N   0  0  0  0  0  0  0  0  0  0  0  0
   -6.5913    4.8015  -18.2831 C   0  0  0  0  0  0  0  0  0  0  0  0
   -7.9054    4.4989  -18.6743 C   0  0  0  0  0  0  0  0  0  0  0  0
   -8.9376    4.3489  -17.7483 C   0  0  0  0  0  0  0  0  0  0  0  0
   -8.6920    4.4512  -16.3808 C   0  0  0  0  0  0  0  0  0  0  0  0
   -7.3827    4.7405  -15.9855 C   0  0  0  0  0  0  0  0  0  0  0  0
   -6.8574    4.8796  -14.7211 N   0  0  0  0  0  0  0  0  0  0  0  0
   -5.5205    5.1644  -14.7902 C   0  0  0  0  0  0  0  0  0  0  0  0
   -5.1672    5.1870  -16.1201 C   0  0  0  0  0  0  0  0  0  0  0  0
   -6.3359    4.9205  -16.8950 C   0  0  0  0  0  0  0  0  0  0  0  0
   -5.8153    4.7868  -20.2173 H   0  0  0  0  0  0  0  0  0  0  0  0
   -4.6457    5.0177  -18.9980 H   0  0  0  0  0  0  0  0  0  0  0  0
   -7.3703    4.7873  -13.8859 H   0  0  0  0  0  0  0  0  0  0  0  0
  1  2  1  0  0  0
  2  3  2  0  0  0
  3  4  1  0  0  0
  4  5  2  0  0  0
  5  6  1  0  0  0
  6  7  1  0  0  0
  7  8  1  0  0  0
  8  9  2  0  0  0
  9 10  1  0  0  0
 10  2  1  0  0  0
 10  6  2  0  0  0
  1 11  1  0  0  0
  1 12  1  0  0  0
  7 13  1  0  0  0
M  END
> <minimizedAffinity>
-4.59222

> <minimizedRMSD>
1.25088

$$$$
P64946


 19 21  0  0  0  0  0  0  0  0999 V2000
  -19.0334    3.8009    0.6396 C   0  0  0  0  0  0  0  0  0  0  0  0
  -19.5053    2.4855    0.5245 C   0  0  0  0  0  0  0  0  0  0  0  0
  -20.8415    2.2349    0.2468 C   0  0  0  0  0  0  0  0  0  0  0  0
  -21.7226    3.3022    0.1144 C   0  0  0  0  0  0  0  0  0  0  0  0
  -21.3063    4.6156    0.2558 C   0  0  0  0  0  0  0  0  0  0  0  0
  -22.2594    5.5559    0.1841 N   0  0  0  0  0  0  0  0  0  0  0  0
  -21.9105    6.8420    0.3830 C   0  0  0  0  0  0  0  0  0  0  0  0
  -20.6220    7.2449    0.6390 C   0  0  0  0  0  0  0  0  0  0  0  0
  -19.6387    6.2635    0.7098 C   0  0  0  0  0  0  0  0  0  0  0  0
  -19.9407    4.8964    0.5097 C   0  0  0  0  0  0  0  0  0  0  0  0
  -16.6524    5.7884   -0.2349 O   0  0  0  0  0  0  0  0  0  0  0  0
  -16.5831    4.8784    0.4949 C   0  0  0  0  0  0  0  0  0  0  0  0
  -17.6798    3.9088    0.9956 N   0  0  0  0  0  0  0  0  0  0  0  0
  -17.3795    3.2622    1.6744 H   0  0  0  0  0  0  0  0  0  0  0  0
  -15.3300    4.5440    1.1618 C   0  0  0  0  0  0  0  0  0  0  0  0
  -14.0875    5.1495    1.1213 C   0  0  0  0  0  0  0  0  0  0  0  0
  -13.2444    4.4112    1.9856 C   0  0  0  0  0  0  0  0  0  0  0  0
  -14.0173    3.3984    2.5012 C   0  0  0  0  0  0  0  0  0  0  0  0
  -15.2810    3.4626    2.0069 O   0  0  0  0  0  0  0  0  0  0  0  0
 11 12  2  0  0  0
 12 13  1  0  0  0
 13  1  1  0  0  0
  1  2  2  0  0  0
  2  3  1  0  0  0
  3  4  2  0  0  0
  4  5  1  0  0  0
  5  6  2  0  0  0
  6  7  1  0  0  0
  7  8  2  0  0  0
  8  9  1  0  0  0
  9 10  2  0  0  0
 12 15  1  0  0  0
 15 16  2  0  0  0
 16 17  1  0  0  0
 17 18  2  0  0  0
 18 19  1  0  0  0
 10  1  1  0  0  0
 19 15  1  0  0  0
 10  5  1  0  0  0
 13 14  1  0  0  0
M  END
> <minimizedAffinity>
-3.52706

> <minimizedRMSD>
0.46253

$$$$
P64992


 16 18  0  0  0  0  0  0  0  0999 V2000
   -9.1160    4.3994  -17.9194 C   0  0  0  0  0  0  0  0  0  0  0  0
   -8.8502    4.3430  -16.5547 C   0  0  0  0  0  0  0  0  0  0  0  0
   -7.5559    4.5330  -16.0385 C   0  0  0  0  0  0  0  0  0  0  0  0
   -6.4950    4.7307  -16.9830 C   0  0  0  0  0  0  0  0  0  0  0  0
   -5.1429    4.9526  -16.6421 C   0  0  0  0  0  0  0  0  0  0  0  0
   -4.1697    5.1319  -17.6236 C   0  0  0  0  0  0  0  0  0  0  0  0
   -4.5648    5.0923  -18.9414 C   0  0  0  0  0  0  0  0  0  0  0  0
   -5.8356    4.8939  -19.3199 N   0  0  0  0  0  0  0  0  0  0  0  0
   -6.7736    4.7326  -18.3759 C   0  0  0  0  0  0  0  0  0  0  0  0
   -8.0752    4.5909  -18.8126 C   0  0  0  0  0  0  0  0  0  0  0  0
   -7.3364    4.6015  -14.5275 C   0  0  0  0  0  0  0  0  0  0  0  0
   -8.3573    5.4024  -13.7072 C   0  0  0  0  0  0  0  0  0  0  0  0
   -8.1023    4.9703  -12.2732 C   0  0  0  0  0  0  0  0  0  0  0  0
   -7.4691    3.5939  -12.4035 C   0  0  0  0  0  0  0  0  0  0  0  0
   -7.4290    3.3116  -13.8381 N   0  0  0  0  0  0  0  0  0  0  0  0
   -8.2779    2.8228  -14.1225 H   0  0  0  0  0  0  0  0  0  0  0  0
  1  2  2  0  0  0
  2  3  1  0  0  0
 11  3  1  0  0  0
 11 12  1  0  0  0
 12 13  1  0  0  0
 13 14  1  0  0  0
 14 15  1  0  0  0
  3  4  2  0  0  0
  4  5  1  0  0  0
  5  6  2  0  0  0
  6  7  1  0  0  0
  7  8  2  0  0  0
  8  9  1  0  0  0
  9 10  2  0  0  0
 10  1  1  0  0  0
 15 11  1  0  0  0
  9  4  1  0  0  0
 15 16  1  0  0  0
M  END
> <minimizedAffinity>
-6.39415

> <minimizedRMSD>
1.01656

$$$$
P65049


 17 19  0  0  0  0  0  0  0  0999 V2000
   -5.1182    4.9917  -18.4088 C   0  0  0  0  0  0  0  0  0  0  0  0
   -6.2098    4.6689  -19.0851 N   0  0  0  0  0  0  0  0  0  0  0  0
   -7.1747    4.5592  -18.1487 C   0  0  0  0  0  0  0  0  0  0  0  0
   -6.6627    4.7265  -16.9026 C   0  0  0  0  0  0  0  0  0  0  0  0
   -5.3488    4.9777  -17.0395 N   0  0  0  0  0  0  0  0  0  0  0  0
   -7.7822    4.5982  -15.8891 C   0  0  0  0  0  0  0  0  0  0  0  0
   -9.0552    4.2879  -16.7030 C   0  0  0  0  0  0  0  0  0  0  0  0
   -8.6373    4.3722  -18.2184 C   0  0  0  0  0  0  0  0  0  0  0  0
   -7.8602    5.4540  -14.6648 C   0  0  0  0  0  0  0  0  0  0  0  0
   -7.5394    3.9938  -14.5356 C   0  0  0  0  0  0  0  0  0  0  0  0
   -4.6904    5.1210  -16.3217 H   0  0  0  0  0  0  0  0  0  0  0  0
   -3.8709    5.5081  -19.0367 C   0  0  0  0  0  0  0  0  0  0  0  0
   -2.0235    3.8671  -19.6306 C   0  0  0  0  0  0  0  0  0  0  0  0
   -2.5690    4.8355  -18.5857 C   0  0  0  0  0  0  0  0  0  0  0  0
   -1.5396    5.8516  -18.3257 N   0  0  0  0  0  0  0  0  0  0  0  0
   -1.3378    6.3592  -19.1871 H   0  0  0  0  0  0  0  0  0  0  0  0
   -0.6897    5.3969  -17.9919 H   0  0  0  0  0  0  0  0  0  0  0  0
 14 13  1  0  0  0
 14 15  1  0  0  0
 14 12  1  0  0  0
 12  1  1  0  0  0
  1  2  2  0  0  0
  2  3  1  0  0  0
  3  4  2  0  0  0
  4  5  1  0  0  0
  4  6  1  0  0  0
  6  7  1  0  0  0
  7  8  1  0  0  0
  6  9  1  0  0  0
  9 10  1  0  0  0
  5  1  1  0  0  0
 10  6  1  0  0  0
  8  3  1  0  0  0
 15 16  1  0  0  0
 15 17  1  0  0  0
  5 11  1  0  0  0
M  END
> <minimizedAffinity>
-5.51225

> <minimizedRMSD>
0.55008

$$$$
P65060


 23 25  0  0  0  0  0  0  0  0999 V2000
   -4.8158    5.0823  -18.5692 C   0  0  0  0  0  0  0  0  0  0  0  0
   -6.0555    4.8513  -19.0242 N   0  0  0  0  0  0  0  0  0  0  0  0
   -7.0811    4.6282  -18.2196 C   0  0  0  0  0  0  0  0  0  0  0  0
   -8.2513    4.3567  -18.7806 N   0  0  0  0  0  0  0  0  0  0  0  0
   -9.3103    4.1147  -17.9998 C   0  0  0  0  0  0  0  0  0  0  0  0
   -9.2410    4.1337  -16.6263 C   0  0  0  0  0  0  0  0  0  0  0  0
   -8.0332    4.4298  -16.0210 C   0  0  0  0  0  0  0  0  0  0  0  0
   -6.9253    4.6785  -16.8323 C   0  0  0  0  0  0  0  0  0  0  0  0
   -5.6551    4.9435  -16.3202 C   0  0  0  0  0  0  0  0  0  0  0  0
   -4.5757    5.1330  -17.2026 C   0  0  0  0  0  0  0  0  0  0  0  0
   -4.0005    5.2198  -19.6362 N   0  0  0  0  0  0  0  0  0  0  0  0
   -4.5068    5.5094  -20.4292 H   0  0  0  0  0  0  0  0  0  0  0  0
   -2.0852    3.7114  -19.4729 C   0  0  0  0  0  0  0  0  0  0  0  0
   -2.5940    5.0635  -19.9503 C   0  0  0  0  0  0  0  0  0  0  0  0
   -1.7503    6.2802  -19.5543 C   0  0  0  0  0  0  0  0  0  0  0  0
   -0.3843    6.2584  -20.1524 C   0  0  0  0  0  0  0  0  0  0  0  0
    0.8234    5.9903  -19.5442 C   0  0  0  0  0  0  0  0  0  0  0  0
    1.7563    6.0903  -20.5375 N   0  0  0  0  0  0  0  0  0  0  0  0
    1.0980    6.4150  -21.6887 C   0  0  0  0  0  0  0  0  0  0  0  0
   -0.1948    6.5259  -21.4891 N   0  0  0  0  0  0  0  0  0  0  0  0
    2.7264    5.9532  -20.4407 H   0  0  0  0  0  0  0  0  0  0  0  0
   -3.2952    5.3449  -16.6121 C   0  0  0  0  0  0  0  0  0  0  0  0
   -2.2850    5.5184  -16.0648 N   0  0  0  0  0  0  0  0  0  0  0  0
 14 13  1  0  0  0
 14 15  1  0  0  0
 15 16  1  0  0  0
 16 17  2  0  0  0
 17 18  1  0  0  0
 18 19  1  0  0  0
 19 20  2  0  0  0
 14 11  1  0  0  0
 11  1  1  0  0  0
  1  2  2  0  0  0
  2  3  1  0  0  0
  3  4  2  0  0  0
  4  5  1  0  0  0
  5  6  2  0  0  0
  6  7  1  0  0  0
  7  8  2  0  0  0
  8  9  1  0  0  0
  9 10  2  0  0  0
 10 22  1  0  0  0
 22 23  3  0  0  0
 20 16  1  0  0  0
 10  1  1  0  0  0
  8  3  1  0  0  0
 18 21  1  0  0  0
 11 12  1  0  0  0
M  END
> <minimizedAffinity>
-5.94717

> <minimizedRMSD>
1.02147

$$$$
P65140


 20 21  0  0  0  0  0  0  0  0999 V2000
   -7.6582    4.3440  -14.2553 C   0  0  0  0  0  0  0  0  0  0  0  0
   -7.1435    3.2910  -14.2611 O   0  0  0  0  0  0  0  0  0  0  0  0
   -8.1277    5.2396  -13.0533 N   0  0  0  0  0  0  0  0  0  0  0  0
   -8.4678    6.1276  -13.3086 H   0  0  0  0  0  0  0  0  0  0  0  0
   -8.1406    4.9870  -11.7172 C   0  0  0  0  0  0  0  0  0  0  0  0
   -7.9752    6.1430  -10.8375 C   0  0  0  0  0  0  0  0  0  0  0  0
   -8.0335    5.9695   -9.5060 C   0  0  0  0  0  0  0  0  0  0  0  0
   -8.2878    4.6982   -9.0014 N   0  0  0  0  0  0  0  0  0  0  0  0
   -8.4206    4.2815   -7.7022 C   0  0  0  0  0  0  0  0  0  0  0  0
   -8.6919    2.9346   -7.7794 C   0  0  0  0  0  0  0  0  0  0  0  0
   -8.6922    2.5118   -9.0813 N   0  0  0  0  0  0  0  0  0  0  0  0
   -8.4582    3.5804   -9.8042 C   0  0  0  0  0  0  0  0  0  0  0  0
   -8.3573    3.7568  -11.2115 C   0  0  0  0  0  0  0  0  0  0  0  0
   -8.6964    4.0311  -16.5073 C   0  0  0  0  0  0  0  0  0  0  0  0
   -8.1096    5.0783  -15.5580 C   0  0  0  0  0  0  0  0  0  0  0  0
   -7.3391    6.1217  -16.1163 O   0  0  0  0  0  0  0  0  0  0  0  0
   -5.9312    6.0862  -16.3189 C   0  0  0  0  0  0  0  0  0  0  0  0
   -5.4188    4.8307  -16.9895 C   0  0  0  0  0  0  0  0  0  0  0  0
   -5.6580    7.2410  -17.3050 C   0  0  0  0  0  0  0  0  0  0  0  0
   -5.1517    6.3574  -15.0348 C   0  0  0  0  0  0  0  0  0  0  0  0
 15 14  1  0  0  0
 15 16  1  0  0  0
 16 17  1  0  0  0
 17 18  1  0  0  0
 17 19  1  0  0  0
 17 20  1  0  0  0
 15  1  1  0  0  0
  1  2  2  0  0  0
  1  3  1  0  0  0
  3  5  1  0  0  0
  5  6  1  0  0  0
  6  7  2  0  0  0
  7  8  1  0  0  0
  8  9  1  0  0  0
  9 10  2  0  0  0
 10 11  1  0  0  0
 11 12  2  0  0  0
 12 13  1  0  0  0
 13  5  2  0  0  0
 12  8  1  0  0  0
  3  4  1  0  0  0
M  END
> <minimizedAffinity>
-5.00880

> <minimizedRMSD>
1.41634

$$$$
P65141


 20 21  0  0  0  0  0  0  0  0999 V2000
   -7.2186    3.5561  -13.2349 C   0  0  0  0  0  0  0  0  0  0  0  0
   -7.0405    2.4033  -13.1827 O   0  0  0  0  0  0  0  0  0  0  0  0
   -7.7682    4.5432  -12.1587 N   0  0  0  0  0  0  0  0  0  0  0  0
   -7.8979    5.4668  -12.4740 H   0  0  0  0  0  0  0  0  0  0  0  0
   -8.0970    4.3345  -10.8566 C   0  0  0  0  0  0  0  0  0  0  0  0
   -7.9485    5.4686   -9.9484 C   0  0  0  0  0  0  0  0  0  0  0  0
   -8.1553    5.2829   -8.6332 C   0  0  0  0  0  0  0  0  0  0  0  0
   -8.5258    4.0204   -8.1784 N   0  0  0  0  0  0  0  0  0  0  0  0
   -8.7513    3.5838   -6.8989 C   0  0  0  0  0  0  0  0  0  0  0  0
   -9.0901    2.2555   -7.0226 C   0  0  0  0  0  0  0  0  0  0  0  0
   -9.0918    1.8743   -8.3352 N   0  0  0  0  0  0  0  0  0  0  0  0
   -8.7257    2.9342   -9.0159 C   0  0  0  0  0  0  0  0  0  0  0  0
   -8.4912    3.1268  -10.4031 C   0  0  0  0  0  0  0  0  0  0  0  0
   -6.8082    4.3967  -14.4544 C   0  0  0  0  0  0  0  0  0  0  0  0
   -5.3444    4.0423  -14.7233 C   0  0  0  0  0  0  0  0  0  0  0  0
   -7.7487    4.1582  -15.4985 O   0  0  0  0  0  0  0  0  0  0  0  0
   -7.3191    4.2852  -16.8479 C   0  0  0  0  0  0  0  0  0  0  0  0
   -7.0680    5.7352  -17.2484 C   0  0  0  0  0  0  0  0  0  0  0  0
   -5.7762    7.0488  -18.9337 C   0  0  0  0  0  0  0  0  0  0  0  0
   -6.0896    5.8732  -18.3798 C   0  0  0  0  0  0  0  0  0  0  0  0
 19 20  2  0  0  0
 20 18  1  0  0  0
 18 17  1  0  0  0
 17 16  1  0  0  0
 16 14  1  0  0  0
 14 15  1  0  0  0
 14  1  1  0  0  0
  1  2  2  0  0  0
  1  3  1  0  0  0
  3  5  1  0  0  0
  5  6  1  0  0  0
  6  7  2  0  0  0
  7  8  1  0  0  0
  8  9  1  0  0  0
  9 10  2  0  0  0
 10 11  1  0  0  0
 11 12  2  0  0  0
 12 13  1  0  0  0
 13  5  2  0  0  0
 12  8  1  0  0  0
  3  4  1  0  0  0
M  END
> <minimizedAffinity>
-5.04199

> <minimizedRMSD>
1.68581

$$$$
P65161


 21 22  0  0  0  0  0  0  0  0999 V2000
   -4.0736    6.1200  -17.0512 C   0  0  0  0  0  0  0  0  0  0  0  0
   -4.4359    7.5727  -16.7279 C   0  0  0  0  0  0  0  0  0  0  0  0
   -5.1720    5.4032  -17.6908 N   0  0  0  0  0  0  0  0  0  0  0  0
   -5.2954    5.0368  -18.9972 C   0  0  0  0  0  0  0  0  0  0  0  0
   -6.4714    4.5207  -19.2498 N   0  0  0  0  0  0  0  0  0  0  0  0
   -7.1311    4.5028  -18.0541 C   0  0  0  0  0  0  0  0  0  0  0  0
   -8.4199    4.0534  -17.7496 C   0  0  0  0  0  0  0  0  0  0  0  0
   -8.8375    4.0859  -16.4163 C   0  0  0  0  0  0  0  0  0  0  0  0
   -7.9966    4.5523  -15.4068 C   0  0  0  0  0  0  0  0  0  0  0  0
   -6.7214    5.0388  -15.7002 C   0  0  0  0  0  0  0  0  0  0  0  0
   -6.3228    5.0085  -17.0410 C   0  0  0  0  0  0  0  0  0  0  0  0
   -2.6348    7.0923  -18.8833 N   0  0  0  0  0  0  0  0  0  0  0  0
   -2.7207    6.0032  -17.7752 C   0  0  0  0  0  0  0  0  0  0  0  0
   -1.9280    5.2210  -17.4193 O   0  0  0  0  0  0  0  0  0  0  0  0
   -3.4192    7.6844  -18.9414 H   0  0  0  0  0  0  0  0  0  0  0  0
   -1.5842    7.3771  -19.8466 C   0  0  0  0  0  0  0  0  0  0  0  0
   -1.5152    6.2455  -20.8903 C   0  0  0  0  0  0  0  0  0  0  0  0
   -2.7991    5.8368  -21.3680 O   0  0  0  0  0  0  0  0  0  0  0  0
   -3.3228    5.4881  -20.6298 H   0  0  0  0  0  0  0  0  0  0  0  0
   -3.1619    9.3272  -20.2573 C   0  0  0  0  0  0  0  0  0  0  0  0
   -1.7694    8.7556  -20.4940 C   0  0  0  0  0  0  0  0  0  0  0  0
 20 21  1  0  0  0
 16 21  1  0  0  0
 16 17  1  0  0  0
 17 18  1  0  0  0
 16 12  1  0  0  0
 12 13  1  0  0  0
 13 14  2  0  0  0
 13  1  1  0  0  0
  1  2  1  0  0  0
  1  3  1  0  0  0
  3  4  1  0  0  0
  4  5  2  0  0  0
  5  6  1  0  0  0
  6  7  2  0  0  0
  7  8  1  0  0  0
  8  9  2  0  0  0
  9 10  1  0  0  0
 10 11  2  0  0  0
 11  3  1  0  0  0
 11  6  1  0  0  0
 18 19  1  0  0  0
 12 15  1  0  0  0
M  END
> <minimizedAffinity>
-4.89697

> <minimizedRMSD>
0.39725

$$$$
P65175


 16 18  0  0  0  0  0  0  0  0999 V2000
   -5.8761    4.2722  -13.7048 C   0  0  0  0  0  0  0  0  0  0  0  0
   -4.9111    4.6954  -14.6128 C   0  0  0  0  0  0  0  0  0  0  0  0
   -5.1180    4.9389  -15.9225 N   0  0  0  0  0  0  0  0  0  0  0  0
   -6.3889    4.7055  -16.3467 C   0  0  0  0  0  0  0  0  0  0  0  0
   -6.9831    4.8553  -17.6268 C   0  0  0  0  0  0  0  0  0  0  0  0
   -8.3178    4.5241  -17.4497 C   0  0  0  0  0  0  0  0  0  0  0  0
   -8.5810    4.1999  -16.1548 O   0  0  0  0  0  0  0  0  0  0  0  0
   -7.4014    4.2989  -15.4883 C   0  0  0  0  0  0  0  0  0  0  0  0
   -7.1853    4.0642  -14.1379 C   0  0  0  0  0  0  0  0  0  0  0  0
   -6.3763    5.3958  -18.8763 C   0  0  0  0  0  0  0  0  0  0  0  0
   -6.1410    6.9083  -18.7182 C   0  0  0  0  0  0  0  0  0  0  0  0
   -5.2299    7.4424  -19.8045 C   0  0  0  0  0  0  0  0  0  0  0  0
   -3.8975    6.6983  -19.8123 C   0  0  0  0  0  0  0  0  0  0  0  0
   -3.9448    5.3651  -19.0653 C   0  0  0  0  0  0  0  0  0  0  0  0
   -5.1865    4.6331  -19.2912 N   0  0  0  0  0  0  0  0  0  0  0  0
   -5.1543    3.7631  -18.7597 H   0  0  0  0  0  0  0  0  0  0  0  0
  1  2  2  0  0  0
  2  3  1  0  0  0
  3  4  2  0  0  0
  4  5  1  0  0  0
 10  5  1  0  0  0
 10 11  1  0  0  0
 11 12  1  0  0  0
 12 13  1  0  0  0
 13 14  1  0  0  0
 14 15  1  0  0  0
  5  6  2  0  0  0
  6  7  1  0  0  0
  7  8  1  0  0  0
  8  9  2  0  0  0
  9  1  1  0  0  0
  8  4  1  0  0  0
 15 10  1  0  0  0
 15 16  1  0  0  0
M  END
> <minimizedAffinity>
-4.94204

> <minimizedRMSD>
0.40006

$$$$
P65225


 15 17  0  0  0  0  0  0  0  0999 V2000
   -3.5332    5.5168  -16.5507 O   0  0  0  0  0  0  0  0  0  0  0  0
   -4.7230    5.2504  -16.6447 C   0  0  0  0  0  0  0  0  0  0  0  0
   -5.6952    5.1364  -15.4697 C   0  0  0  0  0  0  0  0  0  0  0  0
   -6.9766    4.7640  -16.1429 C   0  0  0  0  0  0  0  0  0  0  0  0
   -8.2250    4.5476  -15.5912 C   0  0  0  0  0  0  0  0  0  0  0  0
   -9.2606    4.1703  -16.4471 C   0  0  0  0  0  0  0  0  0  0  0  0
   -9.0328    3.9838  -17.8188 C   0  0  0  0  0  0  0  0  0  0  0  0
   -7.7730    4.2329  -18.3669 C   0  0  0  0  0  0  0  0  0  0  0  0
   -6.7687    4.6539  -17.5151 C   0  0  0  0  0  0  0  0  0  0  0  0
   -5.4577    5.0446  -17.8197 N   0  0  0  0  0  0  0  0  0  0  0  0
   -5.0249    5.3888  -19.1849 C   0  0  0  0  0  0  0  0  0  0  0  0
   -4.7464    6.8741  -19.4810 C   0  0  0  0  0  0  0  0  0  0  0  0
   -3.2998    6.6303  -19.3202 N   0  0  0  0  0  0  0  0  0  0  0  0
   -3.5404    5.1815  -19.4956 C   0  0  0  0  0  0  0  0  0  0  0  0
   -2.9315    6.8855  -18.4039 H   0  0  0  0  0  0  0  0  0  0  0  0
  1  2  2  0  0  0
  2  3  1  0  0  0
  3  4  1  0  0  0
  4  5  2  0  0  0
  5  6  1  0  0  0
  6  7  2  0  0  0
  7  8  1  0  0  0
  8  9  2  0  0  0
  9 10  1  0  0  0
 10 11  1  0  0  0
 11 12  1  0  0  0
 12 13  1  0  0  0
 13 14  1  0  0  0
 10  2  1  0  0  0
 14 11  1  0  0  0
  9  4  1  0  0  0
 13 15  1  0  0  0
M  END
> <minimizedAffinity>
-5.86812

> <minimizedRMSD>
0.73207

$$$$
P65237


 16 18  0  0  0  0  0  0  0  0999 V2000
   -3.5232    5.7529  -16.5492 O   0  0  0  0  0  0  0  0  0  0  0  0
   -4.6715    5.3452  -16.6414 C   0  0  0  0  0  0  0  0  0  0  0  0
   -5.6180    5.1655  -15.4574 C   0  0  0  0  0  0  0  0  0  0  0  0
   -6.8967    4.7775  -16.1220 C   0  0  0  0  0  0  0  0  0  0  0  0
   -8.1292    4.5318  -15.5467 C   0  0  0  0  0  0  0  0  0  0  0  0
   -9.1799    4.1796  -16.3914 C   0  0  0  0  0  0  0  0  0  0  0  0
   -8.9878    4.0754  -17.7779 C   0  0  0  0  0  0  0  0  0  0  0  0
   -7.7382    4.3349  -18.3462 C   0  0  0  0  0  0  0  0  0  0  0  0
   -6.7021    4.6839  -17.5003 C   0  0  0  0  0  0  0  0  0  0  0  0
   -5.3677    5.0026  -17.8058 N   0  0  0  0  0  0  0  0  0  0  0  0
   -4.9107    5.2658  -19.1638 C   0  0  0  0  0  0  0  0  0  0  0  0
   -5.0290    6.7523  -19.5111 C   0  0  0  0  0  0  0  0  0  0  0  0
   -3.5976    7.2376  -19.6145 C   0  0  0  0  0  0  0  0  0  0  0  0
   -2.8895    6.0943  -20.1923 N   0  0  0  0  0  0  0  0  0  0  0  0
   -3.4284    4.9403  -19.4435 C   0  0  0  0  0  0  0  0  0  0  0  0
   -1.8827    6.1809  -20.0534 H   0  0  0  0  0  0  0  0  0  0  0  0
  1  2  2  0  0  0
  2  3  1  0  0  0
  3  4  1  0  0  0
  4  5  2  0  0  0
  5  6  1  0  0  0
  6  7  2  0  0  0
  7  8  1  0  0  0
  8  9  2  0  0  0
  9 10  1  0  0  0
 11 10  1  0  0  0
 11 12  1  0  0  0
 12 13  1  0  0  0
 13 14  1  0  0  0
 14 15  1  0  0  0
 10  2  1  0  0  0
 15 11  1  0  0  0
  9  4  1  0  0  0
 14 16  1  0  0  0
M  END
> <minimizedAffinity>
-6.16658

> <minimizedRMSD>
0.44850

$$$$
P65252


 19 21  0  0  0  0  0  0  0  0999 V2000
   -6.8937    4.8018  -12.5388 C   0  0  0  0  0  0  0  0  0  0  0  0
   -7.2591    4.7480  -13.9848 C   0  0  0  0  0  0  0  0  0  0  0  0
   -8.5825    4.5684  -14.3787 C   0  0  0  0  0  0  0  0  0  0  0  0
   -8.9186    4.4568  -15.7291 C   0  0  0  0  0  0  0  0  0  0  0  0
   -7.9482    4.5725  -16.7335 C   0  0  0  0  0  0  0  0  0  0  0  0
   -8.3819    4.2372  -18.1206 C   0  0  0  0  0  0  0  0  0  0  0  0
   -6.6618    4.9156  -16.3398 C   0  0  0  0  0  0  0  0  0  0  0  0
   -6.3135    4.9104  -14.9870 C   0  0  0  0  0  0  0  0  0  0  0  0
   -4.8364    5.0923  -14.8465 C   0  0  0  0  0  0  0  0  0  0  0  0
   -4.3888    5.3154  -16.2817 C   0  0  0  0  0  0  0  0  0  0  0  0
   -3.2321    5.5098  -16.6178 O   0  0  0  0  0  0  0  0  0  0  0  0
   -5.5309    5.3082  -17.0851 N   0  0  0  0  0  0  0  0  0  0  0  0
   -5.6132    5.8899  -18.4197 C   0  0  0  0  0  0  0  0  0  0  0  0
   -5.2660    7.3883  -18.4812 C   0  0  0  0  0  0  0  0  0  0  0  0
   -3.8361    7.7054  -18.9090 C   0  0  0  0  0  0  0  0  0  0  0  0
   -3.4195    6.9144  -20.0677 N   0  0  0  0  0  0  0  0  0  0  0  0
   -3.4399    5.4976  -19.6936 C   0  0  0  0  0  0  0  0  0  0  0  0
   -4.8731    5.0664  -19.4595 C   0  0  0  0  0  0  0  0  0  0  0  0
   -2.4759    7.1833  -20.3467 H   0  0  0  0  0  0  0  0  0  0  0  0
  1  2  1  0  0  0
  2  3  2  0  0  0
  3  4  1  0  0  0
  4  5  2  0  0  0
  5  6  1  0  0  0
  5  7  1  0  0  0
  7  8  2  0  0  0
  8  9  1  0  0  0
  9 10  1  0  0  0
 10 11  2  0  0  0
 10 12  1  0  0  0
 12 13  1  0  0  0
 13 14  1  0  0  0
 14 15  1  0  0  0
 15 16  1  0  0  0
 16 17  1  0  0  0
 17 18  1  0  0  0
  8  2  1  0  0  0
 18 13  1  0  0  0
 12  7  1  0  0  0
 16 19  1  0  0  0
M  END
> <minimizedAffinity>
-6.36901

> <minimizedRMSD>
0.53961

$$$$
P65306


 14 16  0  0  0  0  0  0  0  0999 V2000
   -6.8696    5.2050  -15.3851 C   0  0  0  0  0  0  0  0  0  0  0  0
   -5.6330    5.7400  -15.6039 N   0  0  0  0  0  0  0  0  0  0  0  0
   -5.1341    5.6676  -16.8453 C   0  0  0  0  0  0  0  0  0  0  0  0
   -5.7384    5.1229  -17.8952 N   0  0  0  0  0  0  0  0  0  0  0  0
   -6.9468    4.6184  -17.6498 C   0  0  0  0  0  0  0  0  0  0  0  0
   -7.5774    4.6222  -16.4172 C   0  0  0  0  0  0  0  0  0  0  0  0
   -8.9274    4.0065  -16.5365 C   0  0  0  0  0  0  0  0  0  0  0  0
   -8.9200    3.3884  -17.9415 C   0  0  0  0  0  0  0  0  0  0  0  0
   -7.7815    4.0195  -18.7371 C   0  0  0  0  0  0  0  0  0  0  0  0
   -7.9838    4.9068  -11.9345 C   0  0  0  0  0  0  0  0  0  0  0  0
   -8.0062    6.2708  -12.2382 C   0  0  0  0  0  0  0  0  0  0  0  0
   -7.6479    6.5166  -13.4952 N   0  0  0  0  0  0  0  0  0  0  0  0
   -7.3510    5.2914  -14.0338 N   0  0  0  0  0  0  0  0  0  0  0  0
   -7.5788    4.2988  -13.1003 C   0  0  0  0  0  0  0  0  0  0  0  0
 10 11  1  0  0  0
 11 12  2  0  0  0
 12 13  1  0  0  0
 13  1  1  0  0  0
  1  2  2  0  0  0
  2  3  1  0  0  0
  3  4  2  0  0  0
  4  5  1  0  0  0
  5  6  2  0  0  0
  6  7  1  0  0  0
  7  8  1  0  0  0
  8  9  1  0  0  0
 13 14  1  0  0  0
 14 10  2  0  0  0
  6  1  1  0  0  0
  9  5  1  0  0  0
M  END
> <minimizedAffinity>
-5.46170

> <minimizedRMSD>
2.40445

$$$$
P65622


 15 16  0  0  0  0  0  0  0  0999 V2000
   -7.4475    4.5213  -15.9331 C   0  0  0  0  0  0  0  0  0  0  0  0
   -8.7981    4.2576  -16.2440 C   0  0  0  0  0  0  0  0  0  0  0  0
   -9.2744    4.1816  -17.5606 C   0  0  0  0  0  0  0  0  0  0  0  0
   -8.4171    4.3471  -18.6452 C   0  0  0  0  0  0  0  0  0  0  0  0
   -7.0882    4.5765  -18.3225 C   0  0  0  0  0  0  0  0  0  0  0  0
   -6.0606    4.7697  -19.1945 O   0  0  0  0  0  0  0  0  0  0  0  0
   -4.9916    4.9900  -18.3883 C   0  0  0  0  0  0  0  0  0  0  0  0
   -5.2316    4.9536  -17.0951 N   0  0  0  0  0  0  0  0  0  0  0  0
   -6.5803    4.6697  -17.0349 C   0  0  0  0  0  0  0  0  0  0  0  0
   -7.0177    4.7709  -14.5071 C   0  0  0  0  0  0  0  0  0  0  0  0
   -6.1760    3.5322  -12.5038 C   0  0  0  0  0  0  0  0  0  0  0  0
   -7.3763    3.7173  -13.4385 C   0  0  0  0  0  0  0  0  0  0  0  0
   -8.5246    4.1157  -12.6131 N   0  0  0  0  0  0  0  0  0  0  0  0
   -8.3006    4.9748  -12.1109 H   0  0  0  0  0  0  0  0  0  0  0  0
   -8.7352    3.3755  -11.9436 H   0  0  0  0  0  0  0  0  0  0  0  0
 12 11  1  0  0  0
 12 13  1  0  0  0
 12 10  1  0  0  0
 10  1  1  0  0  0
  1  2  2  0  0  0
  2  3  1  0  0  0
  3  4  2  0  0  0
  4  5  1  0  0  0
  5  6  1  0  0  0
  6  7  1  0  0  0
  7  8  2  0  0  0
  8  9  1  0  0  0
  9  1  1  0  0  0
  9  5  2  0  0  0
 13 14  1  0  0  0
 13 15  1  0  0  0
M  END
> <minimizedAffinity>
-5.49460

> <minimizedRMSD>
0.53620

$$$$
P65647


 16 17  0  0  0  0  0  0  0  0999 V2000
   -7.5400    4.3795  -15.7025 C   0  0  0  0  0  0  0  0  0  0  0  0
   -8.7138    4.2447  -16.3680 C   0  0  0  0  0  0  0  0  0  0  0  0
   -8.8152    4.2931  -17.8159 C   0  0  0  0  0  0  0  0  0  0  0  0
   -7.6982    4.4725  -18.5348 C   0  0  0  0  0  0  0  0  0  0  0  0
   -6.4958    4.6665  -17.8767 N   0  0  0  0  0  0  0  0  0  0  0  0
   -5.2499    4.9319  -18.3831 C   0  0  0  0  0  0  0  0  0  0  0  0
   -4.4300    5.0700  -17.2900 C   0  0  0  0  0  0  0  0  0  0  0  0
   -5.1226    4.8976  -16.1217 N   0  0  0  0  0  0  0  0  0  0  0  0
   -6.3664    4.6499  -16.4919 C   0  0  0  0  0  0  0  0  0  0  0  0
   -7.5145    4.2585  -14.1951 C   0  0  0  0  0  0  0  0  0  0  0  0
   -6.7989    1.3239  -12.9932 O   0  0  0  0  0  0  0  0  0  0  0  0
   -6.0574    2.2111  -13.1646 C   0  0  0  0  0  0  0  0  0  0  0  0
   -6.2985    3.6210  -13.7684 N   0  0  0  0  0  0  0  0  0  0  0  0
   -5.4867    4.1674  -13.8767 H   0  0  0  0  0  0  0  0  0  0  0  0
   -4.5639    2.0731  -12.8842 C   0  0  0  0  0  0  0  0  0  0  0  0
   -3.9741    3.3737  -11.8273 Cl  0  0  0  0  0  0  0  0  0  0  0  0
 11 12  2  0  0  0
 12 15  1  0  0  0
 15 16  1  0  0  0
 12 13  1  0  0  0
 13 10  1  0  0  0
 10  1  1  0  0  0
  1  2  2  0  0  0
  2  3  1  0  0  0
  3  4  2  0  0  0
  4  5  1  0  0  0
  5  6  1  0  0  0
  6  7  2  0  0  0
  7  8  1  0  0  0
  8  9  2  0  0  0
  9  1  1  0  0  0
  9  5  1  0  0  0
 13 14  1  0  0  0
M  END
> <minimizedAffinity>
-5.61821

> <minimizedRMSD>
0.29505

$$$$
P65689


 15 17  0  0  0  0  0  0  0  0999 V2000
   -6.7395    4.7870  -18.1422 C   0  0  0  0  0  0  0  0  0  0  0  0
   -7.7887    4.1856  -18.8271 C   0  0  0  0  0  0  0  0  0  0  0  0
   -8.8816    3.7456  -18.1132 C   0  0  0  0  0  0  0  0  0  0  0  0
   -9.0117    3.8117  -16.7773 N   0  0  0  0  0  0  0  0  0  0  0  0
   -7.9619    4.3600  -16.1076 C   0  0  0  0  0  0  0  0  0  0  0  0
   -7.9015    4.5325  -14.6967 C   0  0  0  0  0  0  0  0  0  0  0  0
   -6.7149    5.0815  -14.2753 C   0  0  0  0  0  0  0  0  0  0  0  0
   -5.6794    5.4335  -15.5826 S   0  0  0  0  0  0  0  0  0  0  0  0
   -6.8144    4.8439  -16.7419 C   0  0  0  0  0  0  0  0  0  0  0  0
   -5.6693    6.5363  -19.5393 C   0  0  0  0  0  0  0  0  0  0  0  0
   -5.6341    5.3887  -18.8574 C   0  0  0  0  0  0  0  0  0  0  0  0
   -4.3244    4.7180  -19.0332 C   0  0  0  0  0  0  0  0  0  0  0  0
   -3.6841    5.4388  -20.1569 N   0  0  0  0  0  0  0  0  0  0  0  0
   -4.3725    6.7448  -20.2260 C   0  0  0  0  0  0  0  0  0  0  0  0
   -3.8075    4.9234  -21.0285 H   0  0  0  0  0  0  0  0  0  0  0  0
 10 11  2  0  0  0
 11  1  1  0  0  0
  1  2  2  0  0  0
  2  3  1  0  0  0
  3  4  2  0  0  0
  4  5  1  0  0  0
  5  6  1  0  0  0
  6  7  2  0  0  0
  7  8  1  0  0  0
  8  9  1  0  0  0
 11 12  1  0  0  0
 12 13  1  0  0  0
 13 14  1  0  0  0
 14 10  1  0  0  0
  9  1  1  0  0  0
  9  5  2  0  0  0
 13 15  1  0  0  0
M  END
> <minimizedAffinity>
-5.87993

> <minimizedRMSD>
0.68929

$$$$
P65763


 16 17  0  0  0  0  0  0  0  0999 V2000
   -7.8818    4.5718  -16.0005 C   0  0  0  0  0  0  0  0  0  0  0  0
   -9.1192    4.1844  -16.5328 C   0  0  0  0  0  0  0  0  0  0  0  0
   -9.3401    4.1064  -17.9012 C   0  0  0  0  0  0  0  0  0  0  0  0
   -8.3013    4.3538  -18.7926 C   0  0  0  0  0  0  0  0  0  0  0  0
   -7.0162    4.6236  -18.2932 C   0  0  0  0  0  0  0  0  0  0  0  0
   -5.7663    4.8969  -18.9023 C   0  0  0  0  0  0  0  0  0  0  0  0
   -4.8364    5.0915  -17.9110 C   0  0  0  0  0  0  0  0  0  0  0  0
   -5.4884    4.9717  -16.7153 N   0  0  0  0  0  0  0  0  0  0  0  0
   -6.8253    4.7058  -16.9162 C   0  0  0  0  0  0  0  0  0  0  0  0
   -5.0616    5.0627  -15.8327 H   0  0  0  0  0  0  0  0  0  0  0  0
   -7.7938    4.9845  -14.5622 C   0  0  0  0  0  0  0  0  0  0  0  0
   -6.1306    4.0138  -12.9913 C   0  0  0  0  0  0  0  0  0  0  0  0
   -7.5450    3.8671  -13.5552 C   0  0  0  0  0  0  0  0  0  0  0  0
   -8.4938    3.8875  -12.4424 N   0  0  0  0  0  0  0  0  0  0  0  0
   -8.3978    4.7641  -11.9298 H   0  0  0  0  0  0  0  0  0  0  0  0
   -8.3011    3.1051  -11.8169 H   0  0  0  0  0  0  0  0  0  0  0  0
 13 12  1  0  0  0
 13 14  1  0  0  0
 13 11  1  0  0  0
 11  1  1  0  0  0
  1  2  2  0  0  0
  2  3  1  0  0  0
  3  4  2  0  0  0
  4  5  1  0  0  0
  5  6  1  0  0  0
  6  7  2  0  0  0
  7  8  1  0  0  0
  8  9  1  0  0  0
  9  1  1  0  0  0
  9  5  2  0  0  0
 14 15  1  0  0  0
 14 16  1  0  0  0
  8 10  1  0  0  0
M  END
> <minimizedAffinity>
-5.77189

> <minimizedRMSD>
0.77462

$$$$
P65765


 15 16  0  0  0  0  0  0  0  0999 V2000
   -7.6075    4.5218  -15.9101 C   0  0  0  0  0  0  0  0  0  0  0  0
   -8.8914    4.1929  -16.3582 C   0  0  0  0  0  0  0  0  0  0  0  0
   -9.2279    4.2019  -17.7099 C   0  0  0  0  0  0  0  0  0  0  0  0
   -8.2600    4.4705  -18.6721 C   0  0  0  0  0  0  0  0  0  0  0  0
   -6.9340    4.6777  -18.2593 C   0  0  0  0  0  0  0  0  0  0  0  0
   -5.7271    4.9411  -18.9480 C   0  0  0  0  0  0  0  0  0  0  0  0
   -4.7128    5.0558  -18.0308 C   0  0  0  0  0  0  0  0  0  0  0  0
   -5.2735    4.8935  -16.7964 N   0  0  0  0  0  0  0  0  0  0  0  0
   -6.6326    4.6887  -16.9018 C   0  0  0  0  0  0  0  0  0  0  0  0
   -4.7754    4.9192  -15.9476 H   0  0  0  0  0  0  0  0  0  0  0  0
   -7.3563    4.8216  -14.5644 N   0  0  0  0  0  0  0  0  0  0  0  0
   -7.1602    5.7361  -14.2569 H   0  0  0  0  0  0  0  0  0  0  0  0
   -7.8550    4.1103  -12.2617 C   0  0  0  0  0  0  0  0  0  0  0  0
   -7.4055    3.6810  -13.6470 C   0  0  0  0  0  0  0  0  0  0  0  0
   -5.9823    3.1199  -13.5535 C   0  0  0  0  0  0  0  0  0  0  0  0
 13 14  1  0  0  0
 14 15  1  0  0  0
 14 11  1  0  0  0
 11  1  1  0  0  0
  1  2  2  0  0  0
  2  3  1  0  0  0
  3  4  2  0  0  0
  4  5  1  0  0  0
  5  6  1  0  0  0
  6  7  2  0  0  0
  7  8  1  0  0  0
  8  9  1  0  0  0
  9  1  1  0  0  0
  9  5  2  0  0  0
 11 12  1  0  0  0
  8 10  1  0  0  0
M  END
> <minimizedAffinity>
-5.37944

> <minimizedRMSD>
1.04851

$$$$
P65839


 18 19  0  0  0  0  0  0  0  0999 V2000
   -8.0371    4.3256  -11.2712 C   0  0  0  0  0  0  0  0  0  0  0  0
   -7.8730    5.4426  -10.4396 C   0  0  0  0  0  0  0  0  0  0  0  0
   -8.1232    5.3542   -9.0636 C   0  0  0  0  0  0  0  0  0  0  0  0
   -8.5631    4.1481   -8.5457 C   0  0  0  0  0  0  0  0  0  0  0  0
   -8.7460    3.0452   -9.3665 C   0  0  0  0  0  0  0  0  0  0  0  0
   -8.4684    3.1085  -10.7259 C   0  0  0  0  0  0  0  0  0  0  0  0
   -9.2679    1.9036   -8.5600 C   0  0  0  0  0  0  0  0  0  0  0  0
   -9.3856    2.3926   -7.1596 N   0  0  0  0  0  0  0  0  0  0  0  0
   -8.9203    3.7955   -7.1434 C   0  0  0  0  0  0  0  0  0  0  0  0
   -8.8053    1.8252   -6.5418 H   0  0  0  0  0  0  0  0  0  0  0  0
   -8.3696    5.3401  -13.7475 C   0  0  0  0  0  0  0  0  0  0  0  0
   -9.2137    6.1537  -13.6786 O   0  0  0  0  0  0  0  0  0  0  0  0
   -7.7798    4.3904  -12.6433 N   0  0  0  0  0  0  0  0  0  0  0  0
   -7.1226    3.7348  -12.9712 H   0  0  0  0  0  0  0  0  0  0  0  0
   -6.1481    4.7287  -14.6823 C   0  0  0  0  0  0  0  0  0  0  0  0
   -7.5569    5.1310  -15.0690 C   0  0  0  0  0  0  0  0  0  0  0  0
   -8.2317    4.2081  -16.0685 C   0  0  0  0  0  0  0  0  0  0  0  0
   -7.3884    6.3053  -15.7697 F   0  0  0  0  0  0  0  0  0  0  0  0
 15 16  1  0  0  0
 16 17  1  0  0  0
 16 18  1  0  0  0
 16 11  1  0  0  0
 11 12  2  0  0  0
 11 13  1  0  0  0
 13  1  1  0  0  0
  1  2  2  0  0  0
  2  3  1  0  0  0
  3  4  2  0  0  0
  4  5  1  0  0  0
  5  6  2  0  0  0
  5  7  1  0  0  0
  7  8  1  0  0  0
  8  9  1  0  0  0
  6  1  1  0  0  0
  9  4  1  0  0  0
 13 14  1  0  0  0
  8 10  1  0  0  0
M  END
> <minimizedAffinity>
-5.49392

> <minimizedRMSD>
0.65575

$$$$
P65858


 16 17  0  0  0  0  0  0  0  0999 V2000
   -4.4511    4.7329  -15.5290 N   0  0  0  0  0  0  0  0  0  0  0  0
   -5.3959    4.9129  -14.5394 C   0  0  0  0  0  0  0  0  0  0  0  0
   -6.6783    4.9377  -14.7075 N   0  0  0  0  0  0  0  0  0  0  0  0
   -7.0575    4.8131  -16.0021 C   0  0  0  0  0  0  0  0  0  0  0  0
   -8.6779    4.5780  -16.4437 S   0  0  0  0  0  0  0  0  0  0  0  0
   -8.3174    4.7712  -18.1103 C   0  0  0  0  0  0  0  0  0  0  0  0
   -6.9632    4.8926  -18.3272 C   0  0  0  0  0  0  0  0  0  0  0  0
   -6.2354    4.8498  -17.1032 C   0  0  0  0  0  0  0  0  0  0  0  0
   -4.8084    4.8567  -16.8798 C   0  0  0  0  0  0  0  0  0  0  0  0
   -3.9995    4.9613  -17.7952 O   0  0  0  0  0  0  0  0  0  0  0  0
   -3.0404    4.5193  -15.2342 C   0  0  0  0  0  0  0  0  0  0  0  0
   -2.6545    4.0505  -13.8227 C   0  0  0  0  0  0  0  0  0  0  0  0
   -3.5366    1.7172  -13.9863 N   0  0  0  0  0  0  0  0  0  0  0  0
   -2.4204    2.5526  -13.5944 C   0  0  0  0  0  0  0  0  0  0  0  0
   -3.3091    0.7394  -13.8062 H   0  0  0  0  0  0  0  0  0  0  0  0
   -3.7242    1.8450  -14.9807 H   0  0  0  0  0  0  0  0  0  0  0  0
 13 14  1  0  0  0
 14 12  1  0  0  0
 12 11  1  0  0  0
 11  1  1  0  0  0
  1  2  1  0  0  0
  2  3  2  0  0  0
  3  4  1  0  0  0
  4  5  1  0  0  0
  5  6  1  0  0  0
  6  7  2  0  0  0
  7  8  1  0  0  0
  8  9  1  0  0  0
  9 10  2  0  0  0
  9  1  1  0  0  0
  8  4  2  0  0  0
 13 15  1  0  0  0
 13 16  1  0  0  0
M  END
> <minimizedAffinity>
-4.19250

> <minimizedRMSD>
1.80904

$$$$
P65864


 15 16  0  0  0  0  0  0  0  0999 V2000
   -5.6222    5.2730  -16.4105 C   0  0  0  0  0  0  0  0  0  0  0  0
   -5.4141    5.3784  -15.0908 N   0  0  0  0  0  0  0  0  0  0  0  0
   -6.4636    5.0865  -14.3118 C   0  0  0  0  0  0  0  0  0  0  0  0
   -7.6940    4.7603  -14.7237 N   0  0  0  0  0  0  0  0  0  0  0  0
   -7.8815    4.6573  -16.0444 C   0  0  0  0  0  0  0  0  0  0  0  0
   -9.1335    4.3205  -16.5253 C   0  0  0  0  0  0  0  0  0  0  0  0
   -9.3287    4.2194  -17.8899 C   0  0  0  0  0  0  0  0  0  0  0  0
   -8.3634    4.4479  -18.7992 N   0  0  0  0  0  0  0  0  0  0  0  0
   -7.1583    4.7952  -18.3160 C   0  0  0  0  0  0  0  0  0  0  0  0
   -6.8566    4.9004  -16.9564 C   0  0  0  0  0  0  0  0  0  0  0  0
   -4.5159    5.6209  -17.2032 N   0  0  0  0  0  0  0  0  0  0  0  0
   -4.5004    6.3938  -17.8128 H   0  0  0  0  0  0  0  0  0  0  0  0
   -3.3870    4.7035  -17.0206 C   0  0  0  0  0  0  0  0  0  0  0  0
   -3.5936    5.0592  -19.5123 C   0  0  0  0  0  0  0  0  0  0  0  0
   -2.7618    4.4617  -18.3899 C   0  0  0  0  0  0  0  0  0  0  0  0
 14 15  1  0  0  0
 15 13  1  0  0  0
 13 11  1  0  0  0
 11  1  1  0  0  0
  1  2  2  0  0  0
  2  3  1  0  0  0
  3  4  2  0  0  0
  4  5  1  0  0  0
  5  6  2  0  0  0
  6  7  1  0  0  0
  7  8  2  0  0  0
  8  9  1  0  0  0
  9 10  2  0  0  0
 10  1  1  0  0  0
 10  5  1  0  0  0
 11 12  1  0  0  0
M  END
> <minimizedAffinity>
-4.35865

> <minimizedRMSD>
1.39031

$$$$
P65867


 14 15  0  0  0  0  0  0  0  0999 V2000
   -6.3975    5.0370  -15.2141 C   0  0  0  0  0  0  0  0  0  0  0  0
   -7.1675    5.1349  -14.1634 N   0  0  0  0  0  0  0  0  0  0  0  0
   -8.5348    5.0625  -14.3591 C   0  0  0  0  0  0  0  0  0  0  0  0
   -9.1467    4.9719  -15.5034 N   0  0  0  0  0  0  0  0  0  0  0  0
   -8.3566    4.8824  -16.6031 C   0  0  0  0  0  0  0  0  0  0  0  0
   -8.5941    4.7663  -17.9519 C   0  0  0  0  0  0  0  0  0  0  0  0
   -7.3131    4.6823  -18.5374 C   0  0  0  0  0  0  0  0  0  0  0  0
   -6.3227    4.7988  -17.6452 N   0  0  0  0  0  0  0  0  0  0  0  0
   -6.9944    4.8885  -16.4759 N   0  0  0  0  0  0  0  0  0  0  0  0
   -5.0299    5.1119  -15.0544 N   0  0  0  0  0  0  0  0  0  0  0  0
   -4.5856    5.9852  -15.1501 H   0  0  0  0  0  0  0  0  0  0  0  0
   -4.2236    3.9406  -14.7490 C   0  0  0  0  0  0  0  0  0  0  0  0
   -3.8030    4.8848  -12.4461 C   0  0  0  0  0  0  0  0  0  0  0  0
   -3.1718    4.3128  -13.7102 C   0  0  0  0  0  0  0  0  0  0  0  0
 13 14  1  0  0  0
 14 12  1  0  0  0
 12 10  1  0  0  0
 10  1  1  0  0  0
  1  2  2  0  0  0
  2  3  1  0  0  0
  3  4  2  0  0  0
  4  5  1  0  0  0
  5  6  2  0  0  0
  6  7  1  0  0  0
  7  8  2  0  0  0
  8  9  1  0  0  0
  9  1  1  0  0  0
  9  5  1  0  0  0
 10 11  1  0  0  0
M  END
> <minimizedAffinity>
-3.77499

> <minimizedRMSD>
1.51763

$$$$
P65868


 14 15  0  0  0  0  0  0  0  0999 V2000
   -6.3777    5.2236  -15.2765 C   0  0  0  0  0  0  0  0  0  0  0  0
   -7.1212    5.2885  -14.1475 N   0  0  0  0  0  0  0  0  0  0  0  0
   -8.4541    5.1316  -14.2486 C   0  0  0  0  0  0  0  0  0  0  0  0
   -9.1796    4.9666  -15.3586 N   0  0  0  0  0  0  0  0  0  0  0  0
   -8.4040    4.8783  -16.4516 C   0  0  0  0  0  0  0  0  0  0  0  0
   -9.0402    4.6329  -18.0118 S   0  0  0  0  0  0  0  0  0  0  0  0
   -7.4375    4.5892  -18.6260 C   0  0  0  0  0  0  0  0  0  0  0  0
   -6.4668    4.8316  -17.7708 N   0  0  0  0  0  0  0  0  0  0  0  0
   -7.0227    4.9817  -16.5053 C   0  0  0  0  0  0  0  0  0  0  0  0
   -5.0017    5.4126  -15.1040 N   0  0  0  0  0  0  0  0  0  0  0  0
   -4.5993    6.2958  -14.9389 H   0  0  0  0  0  0  0  0  0  0  0  0
   -4.2159    4.1869  -15.1903 C   0  0  0  0  0  0  0  0  0  0  0  0
   -4.7468    2.4742  -13.4130 C   0  0  0  0  0  0  0  0  0  0  0  0
   -3.9053    3.6898  -13.7827 C   0  0  0  0  0  0  0  0  0  0  0  0
 13 14  1  0  0  0
 14 12  1  0  0  0
 12 10  1  0  0  0
 10  1  1  0  0  0
  1  2  2  0  0  0
  2  3  1  0  0  0
  3  4  2  0  0  0
  4  5  1  0  0  0
  5  6  1  0  0  0
  6  7  1  0  0  0
  7  8  2  0  0  0
  8  9  1  0  0  0
  9  1  1  0  0  0
  9  5  2  0  0  0
 10 11  1  0  0  0
M  END
> <minimizedAffinity>
-3.83691

> <minimizedRMSD>
1.63599

$$$$
P65869


 15 16  0  0  0  0  0  0  0  0999 V2000
   -6.4591    4.9146  -14.7966 C   0  0  0  0  0  0  0  0  0  0  0  0
   -6.9407    5.0133  -13.5428 N   0  0  0  0  0  0  0  0  0  0  0  0
   -8.2695    5.0399  -13.4324 C   0  0  0  0  0  0  0  0  0  0  0  0
   -9.1362    5.0298  -14.4400 N   0  0  0  0  0  0  0  0  0  0  0  0
   -8.6389    4.9104  -15.6665 C   0  0  0  0  0  0  0  0  0  0  0  0
   -9.5155    4.8788  -16.6717 N   0  0  0  0  0  0  0  0  0  0  0  0
   -9.0253    4.7434  -17.9233 C   0  0  0  0  0  0  0  0  0  0  0  0
   -7.6768    4.6562  -18.1872 C   0  0  0  0  0  0  0  0  0  0  0  0
   -6.7644    4.7257  -17.2062 N   0  0  0  0  0  0  0  0  0  0  0  0
   -7.2612    4.8411  -15.9371 C   0  0  0  0  0  0  0  0  0  0  0  0
   -5.0549    4.9410  -14.8504 N   0  0  0  0  0  0  0  0  0  0  0  0
   -4.5532    5.7159  -15.1926 H   0  0  0  0  0  0  0  0  0  0  0  0
   -4.3956    3.7334  -14.3611 C   0  0  0  0  0  0  0  0  0  0  0  0
   -3.4750    4.7929  -12.2672 C   0  0  0  0  0  0  0  0  0  0  0  0
   -3.1375    4.1249  -13.5944 C   0  0  0  0  0  0  0  0  0  0  0  0
 14 15  1  0  0  0
 15 13  1  0  0  0
 13 11  1  0  0  0
 11  1  1  0  0  0
  1  2  2  0  0  0
  2  3  1  0  0  0
  3  4  2  0  0  0
  4  5  1  0  0  0
  5  6  2  0  0  0
  6  7  1  0  0  0
  7  8  2  0  0  0
  8  9  1  0  0  0
  9 10  2  0  0  0
 10  1  1  0  0  0
 10  5  1  0  0  0
 11 12  1  0  0  0
M  END
> <minimizedAffinity>
-4.12962

> <minimizedRMSD>
1.79888

$$$$
P65871


 14 15  0  0  0  0  0  0  0  0999 V2000
   -6.6342    5.7757  -17.4845 C   0  0  0  0  0  0  0  0  0  0  0  0
   -6.1114    6.2653  -16.3375 N   0  0  0  0  0  0  0  0  0  0  0  0
   -6.7739    6.0520  -15.1828 C   0  0  0  0  0  0  0  0  0  0  0  0
   -7.9470    5.4402  -15.0133 N   0  0  0  0  0  0  0  0  0  0  0  0
   -8.4196    4.9626  -16.1733 C   0  0  0  0  0  0  0  0  0  0  0  0
   -9.5939    4.2840  -16.2912 O   0  0  0  0  0  0  0  0  0  0  0  0
   -9.8001    3.9442  -17.6182 N   0  0  0  0  0  0  0  0  0  0  0  0
   -8.7518    4.4422  -18.2809 C   0  0  0  0  0  0  0  0  0  0  0  0
   -7.8405    5.0814  -17.4215 C   0  0  0  0  0  0  0  0  0  0  0  0
   -5.9307    6.0810  -18.6513 N   0  0  0  0  0  0  0  0  0  0  0  0
   -5.9184    6.9838  -19.0438 H   0  0  0  0  0  0  0  0  0  0  0  0
   -5.2150    4.9547  -19.2424 C   0  0  0  0  0  0  0  0  0  0  0  0
   -3.0655    4.6983  -17.9262 C   0  0  0  0  0  0  0  0  0  0  0  0
   -3.7113    5.2187  -19.2040 C   0  0  0  0  0  0  0  0  0  0  0  0
 13 14  1  0  0  0
 14 12  1  0  0  0
 12 10  1  0  0  0
 10  1  1  0  0  0
  1  2  2  0  0  0
  2  3  1  0  0  0
  3  4  2  0  0  0
  4  5  1  0  0  0
  5  6  1  0  0  0
  6  7  1  0  0  0
  7  8  2  0  0  0
  8  9  1  0  0  0
  9  1  1  0  0  0
  9  5  2  0  0  0
 10 11  1  0  0  0
M  END
> <minimizedAffinity>
-4.48518

> <minimizedRMSD>
1.97073

$$$$
P65872


 16 17  0  0  0  0  0  0  0  0999 V2000
   -4.7012    4.6494  -15.6588 N   0  0  0  0  0  0  0  0  0  0  0  0
   -5.6275    4.7935  -14.6388 C   0  0  0  0  0  0  0  0  0  0  0  0
   -6.9132    4.8400  -14.7789 N   0  0  0  0  0  0  0  0  0  0  0  0
   -7.3086    4.7605  -16.0710 C   0  0  0  0  0  0  0  0  0  0  0  0
   -8.9281    4.5473  -16.5246 S   0  0  0  0  0  0  0  0  0  0  0  0
   -8.4795    4.7764  -18.1675 C   0  0  0  0  0  0  0  0  0  0  0  0
   -7.1902    4.8563  -18.4065 N   0  0  0  0  0  0  0  0  0  0  0  0
   -6.5168    4.8180  -17.1983 C   0  0  0  0  0  0  0  0  0  0  0  0
   -5.0776    4.8238  -17.0052 C   0  0  0  0  0  0  0  0  0  0  0  0
   -4.2610    4.9692  -17.9094 O   0  0  0  0  0  0  0  0  0  0  0  0
   -3.2854    4.4374  -15.3809 C   0  0  0  0  0  0  0  0  0  0  0  0
   -2.9577    3.6330  -14.1156 C   0  0  0  0  0  0  0  0  0  0  0  0
   -3.0334    1.4784  -12.9709 N   0  0  0  0  0  0  0  0  0  0  0  0
   -3.1645    2.1253  -14.2715 C   0  0  0  0  0  0  0  0  0  0  0  0
   -3.1715    0.4733  -13.0757 H   0  0  0  0  0  0  0  0  0  0  0  0
   -3.7351    1.8533  -12.3325 H   0  0  0  0  0  0  0  0  0  0  0  0
 13 14  1  0  0  0
 14 12  1  0  0  0
 12 11  1  0  0  0
 11  1  1  0  0  0
  1  2  1  0  0  0
  2  3  2  0  0  0
  3  4  1  0  0  0
  4  5  1  0  0  0
  5  6  1  0  0  0
  6  7  2  0  0  0
  7  8  1  0  0  0
  8  9  1  0  0  0
  9 10  2  0  0  0
  9  1  1  0  0  0
  8  4  2  0  0  0
 13 15  1  0  0  0
 13 16  1  0  0  0
M  END
> <minimizedAffinity>
-4.01881

> <minimizedRMSD>
1.84722

$$$$
P65873


 14 15  0  0  0  0  0  0  0  0999 V2000
   -5.8972    5.3447  -16.0539 C   0  0  0  0  0  0  0  0  0  0  0  0
   -6.0895    5.4100  -14.7238 N   0  0  0  0  0  0  0  0  0  0  0  0
   -7.3021    5.0833  -14.2459 C   0  0  0  0  0  0  0  0  0  0  0  0
   -8.3945    4.7598  -14.9385 N   0  0  0  0  0  0  0  0  0  0  0  0
   -8.1617    4.7000  -16.2598 C   0  0  0  0  0  0  0  0  0  0  0  0
   -9.4066    4.2895  -17.3481 S   0  0  0  0  0  0  0  0  0  0  0  0
   -8.3467    4.4039  -18.6855 C   0  0  0  0  0  0  0  0  0  0  0  0
   -7.0884    4.8125  -18.3113 C   0  0  0  0  0  0  0  0  0  0  0  0
   -6.9582    4.9661  -16.8930 C   0  0  0  0  0  0  0  0  0  0  0  0
   -4.6383    5.7493  -16.5175 N   0  0  0  0  0  0  0  0  0  0  0  0
   -4.4074    6.6795  -16.7426 H   0  0  0  0  0  0  0  0  0  0  0  0
   -3.7082    4.6266  -16.6275 C   0  0  0  0  0  0  0  0  0  0  0  0
   -3.5116    4.8359  -19.1331 C   0  0  0  0  0  0  0  0  0  0  0  0
   -2.7805    4.9099  -17.8032 C   0  0  0  0  0  0  0  0  0  0  0  0
 13 14  1  0  0  0
 14 12  1  0  0  0
 12 10  1  0  0  0
 10  1  1  0  0  0
  1  2  2  0  0  0
  2  3  1  0  0  0
  3  4  2  0  0  0
  4  5  1  0  0  0
  5  6  1  0  0  0
  6  7  1  0  0  0
  7  8  2  0  0  0
  8  9  1  0  0  0
  9  1  1  0  0  0
  9  5  2  0  0  0
 10 11  1  0  0  0
M  END
> <minimizedAffinity>
-4.00113

> <minimizedRMSD>
1.00501

$$$$
P65875


 15 16  0  0  0  0  0  0  0  0999 V2000
   -5.6310    5.1837  -16.4702 C   0  0  0  0  0  0  0  0  0  0  0  0
   -5.3315    5.1970  -15.1573 N   0  0  0  0  0  0  0  0  0  0  0  0
   -6.3539    4.9493  -14.3330 C   0  0  0  0  0  0  0  0  0  0  0  0
   -7.6193    4.7083  -14.6946 N   0  0  0  0  0  0  0  0  0  0  0  0
   -7.8609    4.6402  -16.0126 C   0  0  0  0  0  0  0  0  0  0  0  0
   -9.1307    4.3285  -16.4658 C   0  0  0  0  0  0  0  0  0  0  0  0
   -9.3920    4.2150  -17.8272 C   0  0  0  0  0  0  0  0  0  0  0  0
   -8.3657    4.4621  -18.7192 C   0  0  0  0  0  0  0  0  0  0  0  0
   -7.1239    4.8150  -18.3339 N   0  0  0  0  0  0  0  0  0  0  0  0
   -6.8908    4.8715  -16.9908 C   0  0  0  0  0  0  0  0  0  0  0  0
   -4.5946    5.5066  -17.3949 N   0  0  0  0  0  0  0  0  0  0  0  0
   -4.6797    6.1604  -18.1260 H   0  0  0  0  0  0  0  0  0  0  0  0
   -3.3897    4.7333  -17.1075 C   0  0  0  0  0  0  0  0  0  0  0  0
   -3.4298    5.0342  -19.6215 C   0  0  0  0  0  0  0  0  0  0  0  0
   -2.6938    4.4285  -18.4329 C   0  0  0  0  0  0  0  0  0  0  0  0
 14 15  1  0  0  0
 15 13  1  0  0  0
 13 11  1  0  0  0
 11  1  1  0  0  0
  1  2  2  0  0  0
  2  3  1  0  0  0
  3  4  2  0  0  0
  4  5  1  0  0  0
  5  6  2  0  0  0
  6  7  1  0  0  0
  7  8  2  0  0  0
  8  9  1  0  0  0
  9 10  2  0  0  0
 10  1  1  0  0  0
 10  5  1  0  0  0
 11 12  1  0  0  0
M  END
> <minimizedAffinity>
-4.27733

> <minimizedRMSD>
1.36796

$$$$
P65876


 15 16  0  0  0  0  0  0  0  0999 V2000
   -5.8388    5.2196  -16.3199 C   0  0  0  0  0  0  0  0  0  0  0  0
   -5.6275    5.2611  -14.9982 N   0  0  0  0  0  0  0  0  0  0  0  0
   -6.6639    4.9086  -14.2322 C   0  0  0  0  0  0  0  0  0  0  0  0
   -7.8811    4.5778  -14.6554 N   0  0  0  0  0  0  0  0  0  0  0  0
   -8.0783    4.5278  -15.9644 C   0  0  0  0  0  0  0  0  0  0  0  0
   -9.3000    4.1964  -16.3803 N   0  0  0  0  0  0  0  0  0  0  0  0
   -9.5377    4.1166  -17.7066 C   0  0  0  0  0  0  0  0  0  0  0  0
   -8.5912    4.3716  -18.6734 C   0  0  0  0  0  0  0  0  0  0  0  0
   -7.3485    4.7882  -18.2537 C   0  0  0  0  0  0  0  0  0  0  0  0
   -7.0649    4.8430  -16.8746 C   0  0  0  0  0  0  0  0  0  0  0  0
   -4.7433    5.6497  -17.0781 N   0  0  0  0  0  0  0  0  0  0  0  0
   -4.7527    6.5004  -17.5736 H   0  0  0  0  0  0  0  0  0  0  0  0
   -3.5847    4.7586  -17.0893 C   0  0  0  0  0  0  0  0  0  0  0  0
   -1.9363    5.3536  -15.2814 C   0  0  0  0  0  0  0  0  0  0  0  0
   -2.3268    5.5427  -16.7395 C   0  0  0  0  0  0  0  0  0  0  0  0
 14 15  1  0  0  0
 15 13  1  0  0  0
 13 11  1  0  0  0
 11  1  1  0  0  0
  1  2  2  0  0  0
  2  3  1  0  0  0
  3  4  2  0  0  0
  4  5  1  0  0  0
  5  6  2  0  0  0
  6  7  1  0  0  0
  7  8  2  0  0  0
  8  9  1  0  0  0
  9 10  2  0  0  0
 10  1  1  0  0  0
 10  5  1  0  0  0
 11 12  1  0  0  0
M  END
> <minimizedAffinity>
-4.57177

> <minimizedRMSD>
1.09604

$$$$
P65879


 16 17  0  0  0  0  0  0  0  0999 V2000
   -5.2354    5.9695  -17.3647 N   0  0  0  0  0  0  0  0  0  0  0  0
   -5.7823    6.3174  -16.1334 C   0  0  0  0  0  0  0  0  0  0  0  0
   -6.9658    6.0198  -15.7070 N   0  0  0  0  0  0  0  0  0  0  0  0
   -7.6974    5.3028  -16.5898 C   0  0  0  0  0  0  0  0  0  0  0  0
   -9.2495    4.7399  -16.2038 S   0  0  0  0  0  0  0  0  0  0  0  0
   -9.5061    4.1557  -17.7941 C   0  0  0  0  0  0  0  0  0  0  0  0
   -8.3780    4.2894  -18.5718 C   0  0  0  0  0  0  0  0  0  0  0  0
   -7.3200    4.9215  -17.8548 C   0  0  0  0  0  0  0  0  0  0  0  0
   -5.9661    5.2024  -18.2787 C   0  0  0  0  0  0  0  0  0  0  0  0
   -5.5257    4.7717  -19.3373 O   0  0  0  0  0  0  0  0  0  0  0  0
   -3.4074    6.9777  -18.8006 C   0  0  0  0  0  0  0  0  0  0  0  0
   -3.7942    6.2035  -17.5380 C   0  0  0  0  0  0  0  0  0  0  0  0
   -2.9824    4.8942  -17.4337 C   0  0  0  0  0  0  0  0  0  0  0  0
   -3.1566    4.2004  -16.1542 N   0  0  0  0  0  0  0  0  0  0  0  0
   -2.8241    4.7965  -15.3962 H   0  0  0  0  0  0  0  0  0  0  0  0
   -2.6221    3.3317  -16.1630 H   0  0  0  0  0  0  0  0  0  0  0  0
 12 11  1  0  0  0
 12 13  1  0  0  0
 13 14  1  0  0  0
 12  1  1  0  0  0
  1  2  1  0  0  0
  2  3  2  0  0  0
  3  4  1  0  0  0
  4  5  1  0  0  0
  5  6  1  0  0  0
  6  7  2  0  0  0
  7  8  1  0  0  0
  8  9  1  0  0  0
  9 10  2  0  0  0
  9  1  1  0  0  0
  8  4  2  0  0  0
 14 15  1  0  0  0
 14 16  1  0  0  0
M  END
> <minimizedAffinity>
-3.67910

> <minimizedRMSD>
0.44564

$$$$
P65880


 15 16  0  0  0  0  0  0  0  0999 V2000
   -5.5245    4.8260  -14.8578 C   0  0  0  0  0  0  0  0  0  0  0  0
   -5.9284    4.7485  -13.5636 N   0  0  0  0  0  0  0  0  0  0  0  0
   -7.2469    4.6048  -13.3386 C   0  0  0  0  0  0  0  0  0  0  0  0
   -8.1924    4.5805  -14.3409 C   0  0  0  0  0  0  0  0  0  0  0  0
   -7.7624    4.6814  -15.6654 C   0  0  0  0  0  0  0  0  0  0  0  0
   -8.6833    4.6634  -16.7156 C   0  0  0  0  0  0  0  0  0  0  0  0
   -8.2275    4.7039  -18.0218 C   0  0  0  0  0  0  0  0  0  0  0  0
   -6.8666    4.7915  -18.2398 C   0  0  0  0  0  0  0  0  0  0  0  0
   -5.9546    4.8622  -17.2528 N   0  0  0  0  0  0  0  0  0  0  0  0
   -6.3922    4.7928  -15.9682 C   0  0  0  0  0  0  0  0  0  0  0  0
   -4.1329    4.9796  -14.9872 N   0  0  0  0  0  0  0  0  0  0  0  0
   -3.6868    5.8571  -14.9707 H   0  0  0  0  0  0  0  0  0  0  0  0
   -3.4080    3.7224  -15.1482 C   0  0  0  0  0  0  0  0  0  0  0  0
   -3.1825    2.1564  -13.1860 C   0  0  0  0  0  0  0  0  0  0  0  0
   -2.6503    3.4143  -13.8615 C   0  0  0  0  0  0  0  0  0  0  0  0
 14 15  1  0  0  0
 15 13  1  0  0  0
 13 11  1  0  0  0
 11  1  1  0  0  0
  1  2  2  0  0  0
  2  3  1  0  0  0
  3  4  2  0  0  0
  4  5  1  0  0  0
  5  6  2  0  0  0
  6  7  1  0  0  0
  7  8  2  0  0  0
  8  9  1  0  0  0
  9 10  2  0  0  0
 10  1  1  0  0  0
 10  5  1  0  0  0
 11 12  1  0  0  0
M  END
> <minimizedAffinity>
-4.13903

> <minimizedRMSD>
1.58315

$$$$
P65882


 14 15  0  0  0  0  0  0  0  0999 V2000
   -6.3336    5.3836  -15.5029 C   0  0  0  0  0  0  0  0  0  0  0  0
   -6.8574    5.4784  -14.2625 N   0  0  0  0  0  0  0  0  0  0  0  0
   -8.1642    5.2293  -14.0951 C   0  0  0  0  0  0  0  0  0  0  0  0
   -9.0592    4.9316  -15.0338 N   0  0  0  0  0  0  0  0  0  0  0  0
   -8.5392    4.8271  -16.2790 C   0  0  0  0  0  0  0  0  0  0  0  0
   -9.2967    4.5158  -17.4430 C   0  0  0  0  0  0  0  0  0  0  0  0
   -8.5157    4.4569  -18.5700 C   0  0  0  0  0  0  0  0  0  0  0  0
   -6.8871    4.8402  -18.2399 S   0  0  0  0  0  0  0  0  0  0  0  0
   -7.1897    5.0381  -16.5570 C   0  0  0  0  0  0  0  0  0  0  0  0
   -4.9672    5.6751  -15.5907 N   0  0  0  0  0  0  0  0  0  0  0  0
   -4.6172    6.5816  -15.4322 H   0  0  0  0  0  0  0  0  0  0  0  0
   -4.0914    4.5589  -15.9306 C   0  0  0  0  0  0  0  0  0  0  0  0
   -2.7413    4.3299  -13.7881 C   0  0  0  0  0  0  0  0  0  0  0  0
   -3.7559    3.6948  -14.7205 C   0  0  0  0  0  0  0  0  0  0  0  0
 13 14  1  0  0  0
 14 12  1  0  0  0
 12 10  1  0  0  0
 10  1  1  0  0  0
  1  2  2  0  0  0
  2  3  1  0  0  0
  3  4  2  0  0  0
  4  5  1  0  0  0
  5  6  1  0  0  0
  6  7  2  0  0  0
  7  8  1  0  0  0
  8  9  1  0  0  0
  9  1  1  0  0  0
  9  5  2  0  0  0
 10 11  1  0  0  0
M  END
> <minimizedAffinity>
-3.82899

> <minimizedRMSD>
0.93484

$$$$
P65941


 16 17  0  0  0  0  0  0  0  0999 V2000
   -5.6396    5.3456  -16.3054 C   0  0  0  0  0  0  0  0  0  0  0  0
   -5.6446    5.4367  -14.9445 N   0  0  0  0  0  0  0  0  0  0  0  0
   -6.7353    5.0126  -14.3047 C   0  0  0  0  0  0  0  0  0  0  0  0
   -7.8427    4.5520  -14.8778 N   0  0  0  0  0  0  0  0  0  0  0  0
   -7.8428    4.4562  -16.2091 C   0  0  0  0  0  0  0  0  0  0  0  0
   -8.9943    3.9543  -16.7992 C   0  0  0  0  0  0  0  0  0  0  0  0
   -9.1274    3.8457  -18.1800 C   0  0  0  0  0  0  0  0  0  0  0  0
   -8.0723    4.2145  -18.9936 C   0  0  0  0  0  0  0  0  0  0  0  0
   -6.8955    4.6923  -18.4246 C   0  0  0  0  0  0  0  0  0  0  0  0
   -6.7557    4.8447  -17.0182 C   0  0  0  0  0  0  0  0  0  0  0  0
   -4.2965    5.7554  -16.9078 C   0  0  0  0  0  0  0  0  0  0  0  0
   -3.5468    4.5689  -17.3960 N   0  0  0  0  0  0  0  0  0  0  0  0
   -4.0435    4.1534  -18.1840 H   0  0  0  0  0  0  0  0  0  0  0  0
   -3.4678    3.8838  -16.6445 H   0  0  0  0  0  0  0  0  0  0  0  0
   -4.2325    7.6625  -18.7369 N   0  0  0  0  0  0  0  0  0  0  0  0
   -4.2995    6.8407  -17.9164 C   0  0  0  0  0  0  0  0  0  0  0  0
 15 16  3  0  0  0
 16 11  1  0  0  0
 11 12  1  0  0  0
 11  1  1  0  0  0
  1  2  2  0  0  0
  2  3  1  0  0  0
  3  4  2  0  0  0
  4  5  1  0  0  0
  5  6  2  0  0  0
  6  7  1  0  0  0
  7  8  2  0  0  0
  8  9  1  0  0  0
  9 10  2  0  0  0
 10  1  1  0  0  0
 10  5  1  0  0  0
 12 13  1  0  0  0
 12 14  1  0  0  0
M  END
> <minimizedAffinity>
-5.07947

> <minimizedRMSD>
1.13733

$$$$
P65942


 18 19  0  0  0  0  0  0  0  0999 V2000
   -5.5551    5.2077  -16.5102 C   0  0  0  0  0  0  0  0  0  0  0  0
   -5.3829    5.1374  -15.1702 N   0  0  0  0  0  0  0  0  0  0  0  0
   -6.3974    4.6885  -14.4250 C   0  0  0  0  0  0  0  0  0  0  0  0
   -7.5911    4.3074  -14.8670 N   0  0  0  0  0  0  0  0  0  0  0  0
   -7.7747    4.3625  -16.1837 C   0  0  0  0  0  0  0  0  0  0  0  0
   -8.9900    3.8960  -16.6682 C   0  0  0  0  0  0  0  0  0  0  0  0
   -9.2826    3.8854  -18.0279 C   0  0  0  0  0  0  0  0  0  0  0  0
   -8.3631    4.4063  -18.9159 C   0  0  0  0  0  0  0  0  0  0  0  0
   -7.1820    4.9576  -18.4430 C   0  0  0  0  0  0  0  0  0  0  0  0
   -6.8095    4.8626  -17.0797 C   0  0  0  0  0  0  0  0  0  0  0  0
   -4.4398    5.6540  -17.2585 N   0  0  0  0  0  0  0  0  0  0  0  0
   -3.5369    6.5121  -16.4772 C   0  0  0  0  0  0  0  0  0  0  0  0
   -3.7026    4.6853  -18.0893 C   0  0  0  0  0  0  0  0  0  0  0  0
   -3.7064    5.1050  -19.5774 C   0  0  0  0  0  0  0  0  0  0  0  0
   -2.5794    4.5031  -20.3112 N   0  0  0  0  0  0  0  0  0  0  0  0
   -2.0875    3.8627  -19.6881 H   0  0  0  0  0  0  0  0  0  0  0  0
   -0.6594    5.9863  -19.7289 C   0  0  0  0  0  0  0  0  0  0  0  0
   -1.6314    5.5059  -20.7981 C   0  0  0  0  0  0  0  0  0  0  0  0
 17 18  1  0  0  0
 18 15  1  0  0  0
 15 14  1  0  0  0
 14 13  1  0  0  0
 13 11  1  0  0  0
 11 12  1  0  0  0
 11  1  1  0  0  0
  1  2  2  0  0  0
  2  3  1  0  0  0
  3  4  2  0  0  0
  4  5  1  0  0  0
  5  6  2  0  0  0
  6  7  1  0  0  0
  7  8  2  0  0  0
  8  9  1  0  0  0
  9 10  2  0  0  0
 10  1  1  0  0  0
 10  5  1  0  0  0
 15 16  1  0  0  0
M  END
> <minimizedAffinity>
-5.22687

> <minimizedRMSD>
1.01665

$$$$
P65943


 19 20  0  0  0  0  0  0  0  0999 V2000
   -5.6552    5.2593  -16.6303 C   0  0  0  0  0  0  0  0  0  0  0  0
   -5.5199    5.4416  -15.3006 N   0  0  0  0  0  0  0  0  0  0  0  0
   -6.5710    5.1264  -14.5351 C   0  0  0  0  0  0  0  0  0  0  0  0
   -7.7559    4.6796  -14.9553 N   0  0  0  0  0  0  0  0  0  0  0  0
   -7.8856    4.4927  -16.2713 C   0  0  0  0  0  0  0  0  0  0  0  0
   -9.0896    3.9949  -16.7535 C   0  0  0  0  0  0  0  0  0  0  0  0
   -9.3202    3.8207  -18.1180 C   0  0  0  0  0  0  0  0  0  0  0  0
   -8.3113    4.1007  -19.0242 C   0  0  0  0  0  0  0  0  0  0  0  0
   -7.0828    4.5488  -18.5593 C   0  0  0  0  0  0  0  0  0  0  0  0
   -6.8598    4.7808  -17.1838 C   0  0  0  0  0  0  0  0  0  0  0  0
   -3.3984    4.6803  -16.8734 C   0  0  0  0  0  0  0  0  0  0  0  0
   -4.5130    5.4499  -17.4603 N   0  0  0  0  0  0  0  0  0  0  0  0
   -4.1846    6.8614  -17.8739 C   0  0  0  0  0  0  0  0  0  0  0  0
   -5.4173    7.7845  -17.9668 C   0  0  0  0  0  0  0  0  0  0  0  0
   -3.1829    7.5176  -16.9004 C   0  0  0  0  0  0  0  0  0  0  0  0
   -3.5473    6.8445  -19.3132 C   0  0  0  0  0  0  0  0  0  0  0  0
   -4.2318    5.9264  -20.2380 N   0  0  0  0  0  0  0  0  0  0  0  0
   -4.1608    4.9722  -19.8845 H   0  0  0  0  0  0  0  0  0  0  0  0
   -3.7942    5.9816  -21.1578 H   0  0  0  0  0  0  0  0  0  0  0  0
 11 12  1  0  0  0
 12  1  1  0  0  0
  1  2  2  0  0  0
  2  3  1  0  0  0
  3  4  2  0  0  0
  4  5  1  0  0  0
  5  6  2  0  0  0
  6  7  1  0  0  0
  7  8  2  0  0  0
  8  9  1  0  0  0
  9 10  2  0  0  0
 12 13  1  0  0  0
 13 14  1  0  0  0
 13 15  1  0  0  0
 13 16  1  0  0  0
 16 17  1  0  0  0
 10  1  1  0  0  0
 10  5  1  0  0  0
 17 18  1  0  0  0
 17 19  1  0  0  0
M  END
> <minimizedAffinity>
-5.56811

> <minimizedRMSD>
1.41806

$$$$
P65944


 19 20  0  0  0  0  0  0  0  0999 V2000
   -6.3827    5.4951  -15.5380 C   0  0  0  0  0  0  0  0  0  0  0  0
   -7.0322    5.6208  -14.3607 N   0  0  0  0  0  0  0  0  0  0  0  0
   -8.3056    5.2345  -14.2709 C   0  0  0  0  0  0  0  0  0  0  0  0
   -9.0439    4.7520  -15.2584 N   0  0  0  0  0  0  0  0  0  0  0  0
   -8.4349    4.6240  -16.4323 C   0  0  0  0  0  0  0  0  0  0  0  0
   -9.2108    4.0823  -17.4486 C   0  0  0  0  0  0  0  0  0  0  0  0
   -8.7310    3.9271  -18.7427 C   0  0  0  0  0  0  0  0  0  0  0  0
   -7.4311    4.2930  -19.0203 C   0  0  0  0  0  0  0  0  0  0  0  0
   -6.6265    4.8042  -18.0048 C   0  0  0  0  0  0  0  0  0  0  0  0
   -7.0935    5.0018  -16.6738 C   0  0  0  0  0  0  0  0  0  0  0  0
   -5.0387    5.8606  -15.4845 N   0  0  0  0  0  0  0  0  0  0  0  0
   -3.9752    3.8812  -14.3018 C   0  0  0  0  0  0  0  0  0  0  0  0
   -3.9983    4.7895  -15.5329 C   0  0  0  0  0  0  0  0  0  0  0  0
   -2.6117    5.3318  -15.8861 C   0  0  0  0  0  0  0  0  0  0  0  0
   -4.5124    7.2357  -15.5504 C   0  0  0  0  0  0  0  0  0  0  0  0
   -4.7742    8.0752  -14.2812 C   0  0  0  0  0  0  0  0  0  0  0  0
   -4.6031    7.3043  -13.0399 N   0  0  0  0  0  0  0  0  0  0  0  0
   -5.2745    6.5367  -13.0212 H   0  0  0  0  0  0  0  0  0  0  0  0
   -4.7605    7.9134  -12.2370 H   0  0  0  0  0  0  0  0  0  0  0  0
 12 13  1  0  0  0
 13 14  1  0  0  0
 13 11  1  0  0  0
 11 15  1  0  0  0
 15 16  1  0  0  0
 16 17  1  0  0  0
 11  1  1  0  0  0
  1  2  2  0  0  0
  2  3  1  0  0  0
  3  4  2  0  0  0
  4  5  1  0  0  0
  5  6  2  0  0  0
  6  7  1  0  0  0
  7  8  2  0  0  0
  8  9  1  0  0  0
  9 10  2  0  0  0
 10  1  1  0  0  0
 10  5  1  0  0  0
 17 18  1  0  0  0
 17 19  1  0  0  0
M  END
> <minimizedAffinity>
-5.11311

> <minimizedRMSD>
1.94007

$$$$
P65945


 18 19  0  0  0  0  0  0  0  0999 V2000
   -6.2286    5.1269  -15.6373 C   0  0  0  0  0  0  0  0  0  0  0  0
   -6.8163    5.3685  -14.4426 N   0  0  0  0  0  0  0  0  0  0  0  0
   -8.1345    5.1996  -14.3265 C   0  0  0  0  0  0  0  0  0  0  0  0
   -8.9628    4.8391  -15.2962 N   0  0  0  0  0  0  0  0  0  0  0  0
   -8.4140    4.6330  -16.4895 C   0  0  0  0  0  0  0  0  0  0  0  0
   -9.2796    4.2223  -17.4946 C   0  0  0  0  0  0  0  0  0  0  0  0
   -8.8442    3.9954  -18.7947 C   0  0  0  0  0  0  0  0  0  0  0  0
   -7.5203    4.2233  -19.1055 C   0  0  0  0  0  0  0  0  0  0  0  0
   -6.6512    4.6800  -18.1234 C   0  0  0  0  0  0  0  0  0  0  0  0
   -7.0425    4.8207  -16.7646 C   0  0  0  0  0  0  0  0  0  0  0  0
   -4.8297    5.1976  -15.6174 N   0  0  0  0  0  0  0  0  0  0  0  0
   -3.5955    3.4998  -14.2471 C   0  0  0  0  0  0  0  0  0  0  0  0
   -4.1914    4.9026  -14.3157 C   0  0  0  0  0  0  0  0  0  0  0  0
   -3.9644    4.9200  -16.7741 C   0  0  0  0  0  0  0  0  0  0  0  0
   -3.2015    6.1870  -17.2293 C   0  0  0  0  0  0  0  0  0  0  0  0
   -4.0603    7.2910  -17.6618 N   0  0  0  0  0  0  0  0  0  0  0  0
   -4.5998    7.0025  -18.4779 H   0  0  0  0  0  0  0  0  0  0  0  0
   -3.4830    8.0965  -17.9033 H   0  0  0  0  0  0  0  0  0  0  0  0
 12 13  1  0  0  0
 13 11  1  0  0  0
 11 14  1  0  0  0
 14 15  1  0  0  0
 15 16  1  0  0  0
 11  1  1  0  0  0
  1  2  2  0  0  0
  2  3  1  0  0  0
  3  4  2  0  0  0
  4  5  1  0  0  0
  5  6  2  0  0  0
  6  7  1  0  0  0
  7  8  2  0  0  0
  8  9  1  0  0  0
  9 10  2  0  0  0
 10  1  1  0  0  0
 10  5  1  0  0  0
 16 17  1  0  0  0
 16 18  1  0  0  0
M  END
> <minimizedAffinity>
-5.22482

> <minimizedRMSD>
0.83442

$$$$
P65946


 21 22  0  0  0  0  0  0  0  0999 V2000
   -4.9859    5.5681  -15.2852 N   0  0  0  0  0  0  0  0  0  0  0  0
   -4.6268    6.1967  -14.0066 C   0  0  0  0  0  0  0  0  0  0  0  0
   -6.3450    5.2781  -15.3916 C   0  0  0  0  0  0  0  0  0  0  0  0
   -7.0072    5.3594  -14.2102 N   0  0  0  0  0  0  0  0  0  0  0  0
   -8.3116    5.0839  -14.1778 C   0  0  0  0  0  0  0  0  0  0  0  0
   -9.0596    4.7315  -15.2124 N   0  0  0  0  0  0  0  0  0  0  0  0
   -8.4289    4.6178  -16.3771 C   0  0  0  0  0  0  0  0  0  0  0  0
   -9.2094    4.1796  -17.4384 C   0  0  0  0  0  0  0  0  0  0  0  0
   -8.6966    4.0353  -18.7211 C   0  0  0  0  0  0  0  0  0  0  0  0
   -7.3656    4.3203  -18.9441 C   0  0  0  0  0  0  0  0  0  0  0  0
   -6.5630    4.7452  -17.8890 C   0  0  0  0  0  0  0  0  0  0  0  0
   -7.0575    4.9075  -16.5666 C   0  0  0  0  0  0  0  0  0  0  0  0
   -3.8647    4.9640  -16.0127 C   0  0  0  0  0  0  0  0  0  0  0  0
   -3.0960    5.9722  -16.9079 C   0  0  0  0  0  0  0  0  0  0  0  0
   -2.9934    5.6889  -18.3642 N   0  0  0  0  0  0  0  0  0  0  0  0
   -2.1174    4.1778  -20.1446 C   0  0  0  0  0  0  0  0  0  0  0  0
   -1.9054    4.7499  -18.7336 C   0  0  0  0  0  0  0  0  0  0  0  0
   -0.5039    5.3874  -18.7152 C   0  0  0  0  0  0  0  0  0  0  0  0
   -3.1398    6.8777  -19.2340 C   0  0  0  0  0  0  0  0  0  0  0  0
   -4.4842    6.8987  -19.9808 C   0  0  0  0  0  0  0  0  0  0  0  0
   -2.9078    8.2240  -18.5443 C   0  0  0  0  0  0  0  0  0  0  0  0
 16 17  1  0  0  0
 17 18  1  0  0  0
 17 15  1  0  0  0
 15 14  1  0  0  0
 14 13  1  0  0  0
 13  1  1  0  0  0
  1  2  1  0  0  0
  1  3  1  0  0  0
  3  4  2  0  0  0
  4  5  1  0  0  0
  5  6  2  0  0  0
  6  7  1  0  0  0
  7  8  2  0  0  0
  8  9  1  0  0  0
  9 10  2  0  0  0
 10 11  1  0  0  0
 11 12  2  0  0  0
 15 19  1  0  0  0
 19 20  1  0  0  0
 19 21  1  0  0  0
 12  3  1  0  0  0
 12  7  1  0  0  0
M  END
> <minimizedAffinity>
-5.55364

> <minimizedRMSD>
1.89470

$$$$
P65947


 18 19  0  0  0  0  0  0  0  0999 V2000
   -5.5158    5.3201  -16.4928 C   0  0  0  0  0  0  0  0  0  0  0  0
   -5.4173    5.3702  -15.1428 N   0  0  0  0  0  0  0  0  0  0  0  0
   -6.4554    4.9665  -14.4069 C   0  0  0  0  0  0  0  0  0  0  0  0
   -7.6159    4.5209  -14.8682 N   0  0  0  0  0  0  0  0  0  0  0  0
   -7.7359    4.4584  -16.1906 C   0  0  0  0  0  0  0  0  0  0  0  0
   -8.9254    3.9240  -16.6692 C   0  0  0  0  0  0  0  0  0  0  0  0
   -9.1785    3.7915  -18.0290 C   0  0  0  0  0  0  0  0  0  0  0  0
   -8.2417    4.2535  -18.9284 C   0  0  0  0  0  0  0  0  0  0  0  0
   -7.0796    4.8572  -18.4672 C   0  0  0  0  0  0  0  0  0  0  0  0
   -6.7404    4.8992  -17.0891 C   0  0  0  0  0  0  0  0  0  0  0  0
   -4.3508    5.7200  -17.1825 N   0  0  0  0  0  0  0  0  0  0  0  0
   -3.7085    6.8963  -16.5723 C   0  0  0  0  0  0  0  0  0  0  0  0
   -3.3716    4.7470  -17.7087 C   0  0  0  0  0  0  0  0  0  0  0  0
   -2.1108    4.1978  -19.8576 C   0  0  0  0  0  0  0  0  0  0  0  0
   -3.4593    4.6158  -19.2619 C   0  0  0  0  0  0  0  0  0  0  0  0
   -3.9070    5.8567  -19.9175 N   0  0  0  0  0  0  0  0  0  0  0  0
   -3.2222    6.5945  -19.7525 H   0  0  0  0  0  0  0  0  0  0  0  0
   -4.8090    6.1380  -19.5332 H   0  0  0  0  0  0  0  0  0  0  0  0
 15 14  1  0  0  0
 15 16  1  0  0  0
 15 13  1  0  0  0
 13 11  1  0  0  0
 11 12  1  0  0  0
 11  1  1  0  0  0
  1  2  2  0  0  0
  2  3  1  0  0  0
  3  4  2  0  0  0
  4  5  1  0  0  0
  5  6  2  0  0  0
  6  7  1  0  0  0
  7  8  2  0  0  0
  8  9  1  0  0  0
  9 10  2  0  0  0
 10  1  1  0  0  0
 10  5  1  0  0  0
 16 17  1  0  0  0
 16 18  1  0  0  0
M  END
> <minimizedAffinity>
-5.71442

> <minimizedRMSD>
1.45836

$$$$
P65948


 17 18  0  0  0  0  0  0  0  0999 V2000
   -5.4467    5.1427  -16.6483 C   0  0  0  0  0  0  0  0  0  0  0  0
   -5.2877    5.1817  -15.3027 N   0  0  0  0  0  0  0  0  0  0  0  0
   -6.3134    4.8470  -14.5186 C   0  0  0  0  0  0  0  0  0  0  0  0
   -7.5184    4.4785  -14.9264 N   0  0  0  0  0  0  0  0  0  0  0  0
   -7.6975    4.4130  -16.2415 C   0  0  0  0  0  0  0  0  0  0  0  0
   -8.9457    3.9614  -16.6502 C   0  0  0  0  0  0  0  0  0  0  0  0
   -9.2891    3.8512  -17.9913 C   0  0  0  0  0  0  0  0  0  0  0  0
   -8.3632    4.2092  -18.9466 C   0  0  0  0  0  0  0  0  0  0  0  0
   -7.1142    4.6817  -18.5571 C   0  0  0  0  0  0  0  0  0  0  0  0
   -6.7137    4.7701  -17.1930 C   0  0  0  0  0  0  0  0  0  0  0  0
   -3.5045    6.5593  -16.7258 C   0  0  0  0  0  0  0  0  0  0  0  0
   -4.2933    5.4930  -17.3603 N   0  0  0  0  0  0  0  0  0  0  0  0
   -3.5041    4.5947  -18.2099 C   0  0  0  0  0  0  0  0  0  0  0  0
   -3.2350    5.2182  -19.5959 C   0  0  0  0  0  0  0  0  0  0  0  0
   -2.4236    4.3248  -20.4370 N   0  0  0  0  0  0  0  0  0  0  0  0
   -1.5222    4.1613  -19.9884 H   0  0  0  0  0  0  0  0  0  0  0  0
   -2.2761    4.7575  -21.3488 H   0  0  0  0  0  0  0  0  0  0  0  0
 11 12  1  0  0  0
 12 13  1  0  0  0
 13 14  1  0  0  0
 14 15  1  0  0  0
 12  1  1  0  0  0
  1  2  2  0  0  0
  2  3  1  0  0  0
  3  4  2  0  0  0
  4  5  1  0  0  0
  5  6  2  0  0  0
  6  7  1  0  0  0
  7  8  2  0  0  0
  8  9  1  0  0  0
  9 10  2  0  0  0
 10  1  1  0  0  0
 10  5  1  0  0  0
 15 16  1  0  0  0
 15 17  1  0  0  0
M  END
> <minimizedAffinity>
-5.64428

> <minimizedRMSD>
1.59296

$$$$
P65950


 20 21  0  0  0  0  0  0  0  0999 V2000
   -4.3453    5.4140  -17.5081 N   0  0  0  0  0  0  0  0  0  0  0  0
   -5.4784    5.0961  -16.7041 C   0  0  0  0  0  0  0  0  0  0  0  0
   -5.2756    5.1389  -15.3670 N   0  0  0  0  0  0  0  0  0  0  0  0
   -6.2856    4.8274  -14.5507 C   0  0  0  0  0  0  0  0  0  0  0  0
   -7.5100    4.4761  -14.9192 N   0  0  0  0  0  0  0  0  0  0  0  0
   -7.7314    4.4091  -16.2277 C   0  0  0  0  0  0  0  0  0  0  0  0
   -8.9868    3.9564  -16.6129 C   0  0  0  0  0  0  0  0  0  0  0  0
   -9.3377    3.8133  -17.9497 C   0  0  0  0  0  0  0  0  0  0  0  0
   -8.4338    4.1935  -18.9191 C   0  0  0  0  0  0  0  0  0  0  0  0
   -7.2103    4.7342  -18.5503 C   0  0  0  0  0  0  0  0  0  0  0  0
   -6.7735    4.7644  -17.2011 C   0  0  0  0  0  0  0  0  0  0  0  0
   -3.0648    5.0806  -16.8257 C   0  0  0  0  0  0  0  0  0  0  0  0
   -2.1058    6.2761  -16.7374 C   0  0  0  0  0  0  0  0  0  0  0  0
   -0.6418    5.3367  -18.5621 C   0  0  0  0  0  0  0  0  0  0  0  0
   -0.6847    5.8776  -17.1418 C   0  0  0  0  0  0  0  0  0  0  0  0
   -4.3725    5.0397  -18.9415 C   0  0  0  0  0  0  0  0  0  0  0  0
   -4.0222    6.2461  -19.8532 C   0  0  0  0  0  0  0  0  0  0  0  0
   -5.1036    6.6377  -20.7642 N   0  0  0  0  0  0  0  0  0  0  0  0
   -5.3081    5.8671  -21.4003 H   0  0  0  0  0  0  0  0  0  0  0  0
   -4.8158    7.4553  -21.3020 H   0  0  0  0  0  0  0  0  0  0  0  0
 14 15  1  0  0  0
 15 13  1  0  0  0
 13 12  1  0  0  0
 12  1  1  0  0  0
  1 16  1  0  0  0
 16 17  1  0  0  0
 17 18  1  0  0  0
  1  2  1  0  0  0
  2  3  2  0  0  0
  3  4  1  0  0  0
  4  5  2  0  0  0
  5  6  1  0  0  0
  6  7  2  0  0  0
  7  8  1  0  0  0
  8  9  2  0  0  0
  9 10  1  0  0  0
 10 11  2  0  0  0
 11  2  1  0  0  0
 11  6  1  0  0  0
 18 19  1  0  0  0
 18 20  1  0  0  0
M  END
> <minimizedAffinity>
-5.45693

> <minimizedRMSD>
2.01029

$$$$
P65951


 18 19  0  0  0  0  0  0  0  0999 V2000
   -5.6920    5.1060  -16.3329 C   0  0  0  0  0  0  0  0  0  0  0  0
   -5.7336    5.2970  -14.9901 N   0  0  0  0  0  0  0  0  0  0  0  0
   -6.8994    5.0704  -14.3723 C   0  0  0  0  0  0  0  0  0  0  0  0
   -8.0309    4.6769  -14.9514 N   0  0  0  0  0  0  0  0  0  0  0  0
   -7.9948    4.4932  -16.2729 C   0  0  0  0  0  0  0  0  0  0  0  0
   -9.1560    4.0447  -16.8872 C   0  0  0  0  0  0  0  0  0  0  0  0
   -9.2406    3.8724  -18.2658 C   0  0  0  0  0  0  0  0  0  0  0  0
   -8.1305    4.1246  -19.0497 C   0  0  0  0  0  0  0  0  0  0  0  0
   -6.9443    4.5351  -18.4535 C   0  0  0  0  0  0  0  0  0  0  0  0
   -6.8461    4.7272  -17.0543 C   0  0  0  0  0  0  0  0  0  0  0  0
   -4.2886    5.1487  -16.9458 C   0  0  0  0  0  0  0  0  0  0  0  0
   -3.1542    4.8342  -15.9339 C   0  0  0  0  0  0  0  0  0  0  0  0
   -2.7240    6.0105  -15.1767 N   0  0  0  0  0  0  0  0  0  0  0  0
   -2.3516    6.7104  -15.8184 H   0  0  0  0  0  0  0  0  0  0  0  0
   -2.0001    5.7402  -14.5109 H   0  0  0  0  0  0  0  0  0  0  0  0
   -3.8744    6.3324  -17.8410 C   0  0  0  0  0  0  0  0  0  0  0  0
   -5.4145    8.4519  -17.7049 N   0  0  0  0  0  0  0  0  0  0  0  0
   -4.7332    7.5126  -17.7424 C   0  0  0  0  0  0  0  0  0  0  0  0
 17 18  3  0  0  0
 18 16  1  0  0  0
 11 16  1  0  0  0
 11 12  1  0  0  0
 12 13  1  0  0  0
 11  1  1  0  0  0
  1  2  2  0  0  0
  2  3  1  0  0  0
  3  4  2  0  0  0
  4  5  1  0  0  0
  5  6  2  0  0  0
  6  7  1  0  0  0
  7  8  2  0  0  0
  8  9  1  0  0  0
  9 10  2  0  0  0
 10  1  1  0  0  0
 10  5  1  0  0  0
 13 14  1  0  0  0
 13 15  1  0  0  0
M  END
> <minimizedAffinity>
-4.97403

> <minimizedRMSD>
0.90825

$$$$
P65952


 19 20  0  0  0  0  0  0  0  0999 V2000
   -6.2667    5.0956  -15.6518 C   0  0  0  0  0  0  0  0  0  0  0  0
   -6.8293    5.3594  -14.4490 N   0  0  0  0  0  0  0  0  0  0  0  0
   -8.1506    5.2430  -14.3110 C   0  0  0  0  0  0  0  0  0  0  0  0
   -9.0084    4.9153  -15.2665 N   0  0  0  0  0  0  0  0  0  0  0  0
   -8.4836    4.6670  -16.4622 C   0  0  0  0  0  0  0  0  0  0  0  0
   -9.3845    4.2809  -17.4465 C   0  0  0  0  0  0  0  0  0  0  0  0
   -8.9890    4.0322  -18.7552 C   0  0  0  0  0  0  0  0  0  0  0  0
   -7.6576    4.1619  -19.0855 C   0  0  0  0  0  0  0  0  0  0  0  0
   -6.7395    4.5332  -18.1088 C   0  0  0  0  0  0  0  0  0  0  0  0
   -7.1068    4.7796  -16.7581 C   0  0  0  0  0  0  0  0  0  0  0  0
   -4.8747    5.1191  -15.6437 N   0  0  0  0  0  0  0  0  0  0  0  0
   -4.2152    4.8612  -14.3484 C   0  0  0  0  0  0  0  0  0  0  0  0
   -3.6116    3.4632  -14.2708 C   0  0  0  0  0  0  0  0  0  0  0  0
   -3.9746    5.3132  -16.7864 C   0  0  0  0  0  0  0  0  0  0  0  0
   -3.9286    6.7883  -17.2364 C   0  0  0  0  0  0  0  0  0  0  0  0
   -3.3993    6.9967  -18.5925 N   0  0  0  0  0  0  0  0  0  0  0  0
   -2.9457    7.9097  -18.6236 H   0  0  0  0  0  0  0  0  0  0  0  0
   -5.6356    7.8224  -19.3362 C   0  0  0  0  0  0  0  0  0  0  0  0
   -4.4209    6.9535  -19.6401 C   0  0  0  0  0  0  0  0  0  0  0  0
 18 19  1  0  0  0
 19 16  1  0  0  0
 16 15  1  0  0  0
 15 14  1  0  0  0
 14 11  1  0  0  0
 11 12  1  0  0  0
 12 13  1  0  0  0
 11  1  1  0  0  0
  1  2  2  0  0  0
  2  3  1  0  0  0
  3  4  2  0  0  0
  4  5  1  0  0  0
  5  6  2  0  0  0
  6  7  1  0  0  0
  7  8  2  0  0  0
  8  9  1  0  0  0
  9 10  2  0  0  0
 10  1  1  0  0  0
 10  5  1  0  0  0
 16 17  1  0  0  0
M  END
> <minimizedAffinity>
-5.10681

> <minimizedRMSD>
1.09101

$$$$
P65974


 15 15  0  0  0  0  0  0  0  0999 V2000
   -7.8671    3.4423  -14.2358 N   0  0  0  0  0  0  0  0  0  0  0  0
   -7.9467    2.6530  -14.8770 H   0  0  0  0  0  0  0  0  0  0  0  0
   -7.8061    4.6700  -15.0471 C   0  0  0  0  0  0  0  0  0  0  0  0
   -8.6596    5.6723  -14.3048 C   0  0  0  0  0  0  0  0  0  0  0  0
   -7.7409    4.4576  -17.7126 C   0  0  0  0  0  0  0  0  0  0  0  0
   -8.4661    4.2441  -16.3974 C   0  0  0  0  0  0  0  0  0  0  0  0
   -6.3976    5.3288  -15.0968 C   0  0  0  0  0  0  0  0  0  0  0  0
   -6.2023    6.7024  -14.4717 C   0  0  0  0  0  0  0  0  0  0  0  0
   -6.7372    3.1787  -13.3504 C   0  0  0  0  0  0  0  0  0  0  0  0
   -7.0612    3.3474  -11.8816 C   0  0  0  0  0  0  0  0  0  0  0  0
   -8.3889    3.2955  -11.4709 C   0  0  0  0  0  0  0  0  0  0  0  0
   -8.6737    3.3306  -10.1139 C   0  0  0  0  0  0  0  0  0  0  0  0
   -7.6281    3.4205   -9.2070 C   0  0  0  0  0  0  0  0  0  0  0  0
   -6.3380    3.5196   -9.6978 C   0  0  0  0  0  0  0  0  0  0  0  0
   -6.0278    3.4930  -11.0111 N   0  0  0  0  0  0  0  0  0  0  0  0
  5  6  1  0  0  0
  6  3  1  0  0  0
  3  4  1  0  0  0
  3  7  1  0  0  0
  7  8  1  0  0  0
  3  1  1  0  0  0
  1  9  1  0  0  0
  9 10  1  0  0  0
 10 11  2  0  0  0
 11 12  1  0  0  0
 12 13  2  0  0  0
 13 14  1  0  0  0
 14 15  2  0  0  0
 15 10  1  0  0  0
  1  2  1  0  0  0
M  END
> <minimizedAffinity>
-4.46444

> <minimizedRMSD>
1.92161

$$$$
P66046


 16 18  0  0  0  0  0  0  0  0999 V2000
   -5.3812    5.0404  -17.4209 C   0  0  0  0  0  0  0  0  0  0  0  0
   -4.8345    5.2272  -16.2011 N   0  0  0  0  0  0  0  0  0  0  0  0
   -5.6644    5.0556  -15.1676 C   0  0  0  0  0  0  0  0  0  0  0  0
   -6.9682    4.7668  -15.2378 N   0  0  0  0  0  0  0  0  0  0  0  0
   -7.4758    4.5426  -16.4562 C   0  0  0  0  0  0  0  0  0  0  0  0
   -8.8150    4.1947  -16.5752 C   0  0  0  0  0  0  0  0  0  0  0  0
   -9.4030    3.9477  -17.8172 C   0  0  0  0  0  0  0  0  0  0  0  0
   -8.6373    4.0206  -18.9705 C   0  0  0  0  0  0  0  0  0  0  0  0
   -7.3000    4.3733  -18.8806 C   0  0  0  0  0  0  0  0  0  0  0  0
   -6.7123    4.6572  -17.6241 C   0  0  0  0  0  0  0  0  0  0  0  0
   -3.3821    4.6547  -18.8734 C   0  0  0  0  0  0  0  0  0  0  0  0
   -4.4809    5.3317  -18.5306 C   0  0  0  0  0  0  0  0  0  0  0  0
   -4.6733    6.5066  -19.4223 C   0  0  0  0  0  0  0  0  0  0  0  0
   -3.7115    6.3018  -20.5236 N   0  0  0  0  0  0  0  0  0  0  0  0
   -2.7386    5.3081  -20.0392 C   0  0  0  0  0  0  0  0  0  0  0  0
   -3.2400    7.1778  -20.7489 H   0  0  0  0  0  0  0  0  0  0  0  0
 11 12  2  0  0  0
 12  1  1  0  0  0
  1  2  2  0  0  0
  2  3  1  0  0  0
  3  4  2  0  0  0
  4  5  1  0  0  0
  5  6  2  0  0  0
  6  7  1  0  0  0
  7  8  2  0  0  0
  8  9  1  0  0  0
  9 10  2  0  0  0
 12 13  1  0  0  0
 13 14  1  0  0  0
 14 15  1  0  0  0
 15 11  1  0  0  0
 10  1  1  0  0  0
 10  5  1  0  0  0
 14 16  1  0  0  0
M  END
> <minimizedAffinity>
-6.60130

> <minimizedRMSD>
2.12445

$$$$
P66047


 17 19  0  0  0  0  0  0  0  0999 V2000
   -5.4327    5.2268  -17.2572 C   0  0  0  0  0  0  0  0  0  0  0  0
   -4.9167    5.3874  -16.0224 N   0  0  0  0  0  0  0  0  0  0  0  0
   -5.7513    5.1036  -15.0178 C   0  0  0  0  0  0  0  0  0  0  0  0
   -7.0262    4.7139  -15.1296 N   0  0  0  0  0  0  0  0  0  0  0  0
   -7.4979    4.5172  -16.3682 C   0  0  0  0  0  0  0  0  0  0  0  0
   -8.8067    4.0848  -16.5387 C   0  0  0  0  0  0  0  0  0  0  0  0
   -9.3504    3.8638  -17.8063 C   0  0  0  0  0  0  0  0  0  0  0  0
   -8.5711    4.0518  -18.9363 C   0  0  0  0  0  0  0  0  0  0  0  0
   -7.2685    4.4990  -18.7955 C   0  0  0  0  0  0  0  0  0  0  0  0
   -6.7265    4.7503  -17.5101 C   0  0  0  0  0  0  0  0  0  0  0  0
   -4.6563    6.8553  -18.9176 C   0  0  0  0  0  0  0  0  0  0  0  0
   -4.5436    5.6370  -18.3527 C   0  0  0  0  0  0  0  0  0  0  0  0
   -3.5315    4.6367  -18.8337 C   0  0  0  0  0  0  0  0  0  0  0  0
   -2.5657    5.2739  -19.8441 C   0  0  0  0  0  0  0  0  0  0  0  0
   -3.2711    6.1209  -20.8177 N   0  0  0  0  0  0  0  0  0  0  0  0
   -3.8650    7.2664  -20.1202 C   0  0  0  0  0  0  0  0  0  0  0  0
   -4.0066    5.5791  -21.2714 H   0  0  0  0  0  0  0  0  0  0  0  0
 11 12  2  0  0  0
 12  1  1  0  0  0
  1  2  2  0  0  0
  2  3  1  0  0  0
  3  4  2  0  0  0
  4  5  1  0  0  0
  5  6  2  0  0  0
  6  7  1  0  0  0
  7  8  2  0  0  0
  8  9  1  0  0  0
  9 10  2  0  0  0
 12 13  1  0  0  0
 13 14  1  0  0  0
 14 15  1  0  0  0
 15 16  1  0  0  0
 16 11  1  0  0  0
 10  1  1  0  0  0
 10  5  1  0  0  0
 15 17  1  0  0  0
M  END
> <minimizedAffinity>
-6.62109

> <minimizedRMSD>
2.11880

$$$$
P66048


 17 19  0  0  0  0  0  0  0  0999 V2000
   -5.4904    5.0718  -16.8984 C   0  0  0  0  0  0  0  0  0  0  0  0
   -5.1251    5.1959  -15.6080 N   0  0  0  0  0  0  0  0  0  0  0  0
   -6.0881    4.9202  -14.7228 C   0  0  0  0  0  0  0  0  0  0  0  0
   -7.3520    4.5810  -15.0035 N   0  0  0  0  0  0  0  0  0  0  0  0
   -7.6764    4.4359  -16.2958 C   0  0  0  0  0  0  0  0  0  0  0  0
   -8.9712    4.0710  -16.6414 C   0  0  0  0  0  0  0  0  0  0  0  0
   -9.3607    3.9131  -17.9741 C   0  0  0  0  0  0  0  0  0  0  0  0
   -8.4414    4.1116  -18.9932 C   0  0  0  0  0  0  0  0  0  0  0  0
   -7.1504    4.5022  -18.6780 C   0  0  0  0  0  0  0  0  0  0  0  0
   -6.7607    4.6657  -17.3257 C   0  0  0  0  0  0  0  0  0  0  0  0
   -3.5972    4.6106  -18.3862 C   0  0  0  0  0  0  0  0  0  0  0  0
   -4.4794    5.4881  -17.8770 C   0  0  0  0  0  0  0  0  0  0  0  0
   -4.6063    6.9120  -18.3529 C   0  0  0  0  0  0  0  0  0  0  0  0
   -3.4976    7.3500  -19.2183 N   0  0  0  0  0  0  0  0  0  0  0  0
   -3.1989    6.3103  -20.2082 C   0  0  0  0  0  0  0  0  0  0  0  0
   -2.7324    5.0052  -19.5460 C   0  0  0  0  0  0  0  0  0  0  0  0
   -2.6700    7.5217  -18.6474 H   0  0  0  0  0  0  0  0  0  0  0  0
 11 12  2  0  0  0
 12  1  1  0  0  0
  1  2  2  0  0  0
  2  3  1  0  0  0
  3  4  2  0  0  0
  4  5  1  0  0  0
  5  6  2  0  0  0
  6  7  1  0  0  0
  7  8  2  0  0  0
  8  9  1  0  0  0
  9 10  2  0  0  0
 12 13  1  0  0  0
 13 14  1  0  0  0
 14 15  1  0  0  0
 15 16  1  0  0  0
 16 11  1  0  0  0
 10  1  1  0  0  0
 10  5  1  0  0  0
 14 17  1  0  0  0
M  END
> <minimizedAffinity>
-6.48791

> <minimizedRMSD>
1.74833

$$$$
P66051


 25 27  0  0  0  0  0  0  0  0999 V2000
   -7.0119    4.9064  -18.0418 C   0  0  0  0  0  0  0  0  0  0  0  0
   -8.1563    4.4069  -18.6665 C   0  0  0  0  0  0  0  0  0  0  0  0
   -9.1957    3.9395  -17.8841 C   0  0  0  0  0  0  0  0  0  0  0  0
   -9.0631    3.9522  -16.4983 C   0  0  0  0  0  0  0  0  0  0  0  0
   -7.9074    4.3941  -15.8666 C   0  0  0  0  0  0  0  0  0  0  0  0
   -7.9056    4.3487  -14.5339 N   0  0  0  0  0  0  0  0  0  0  0  0
   -6.8007    4.7474  -13.9090 C   0  0  0  0  0  0  0  0  0  0  0  0
   -5.7063    5.2305  -14.4964 N   0  0  0  0  0  0  0  0  0  0  0  0
   -5.7267    5.2832  -15.8386 C   0  0  0  0  0  0  0  0  0  0  0  0
   -6.8297    4.8752  -16.6262 C   0  0  0  0  0  0  0  0  0  0  0  0
   -5.9451    6.7499  -18.9125 O   0  0  0  0  0  0  0  0  0  0  0  0
   -6.0438    5.5145  -18.9294 N   0  0  0  0  0  0  0  0  0  0  0  0
   -5.4299    4.7518  -19.6886 O   0  0  0  0  0  0  0  0  0  0  0  0
   -4.5579    5.8372  -16.3509 N   0  0  0  0  0  0  0  0  0  0  0  0
   -4.5030    6.7792  -16.6318 H   0  0  0  0  0  0  0  0  0  0  0  0
   -3.4111    4.9239  -16.4452 C   0  0  0  0  0  0  0  0  0  0  0  0
   -2.6669    5.2133  -17.7620 C   0  0  0  0  0  0  0  0  0  0  0  0
   -2.6732    4.0668  -18.4982 F   0  0  0  0  0  0  0  0  0  0  0  0
   -1.2154    5.6734  -17.5688 C   0  0  0  0  0  0  0  0  0  0  0  0
   -1.0907    7.1928  -17.4038 C   0  0  0  0  0  0  0  0  0  0  0  0
    0.3681    7.6094  -17.1738 C   0  0  0  0  0  0  0  0  0  0  0  0
    1.3488    6.7369  -17.8186 N   0  0  0  0  0  0  0  0  0  0  0  0
    0.8336    6.1413  -19.0436 C   0  0  0  0  0  0  0  0  0  0  0  0
   -0.3336    5.1983  -18.7433 C   0  0  0  0  0  0  0  0  0  0  0  0
    1.6003    5.9903  -17.1708 H   0  0  0  0  0  0  0  0  0  0  0  0
 11 12  2  0  0  0
 12 13  1  0  0  0
 12  1  1  0  0  0
  1  2  2  0  0  0
  2  3  1  0  0  0
  3  4  2  0  0  0
  4  5  1  0  0  0
  5  6  2  0  0  0
  6  7  1  0  0  0
  7  8  2  0  0  0
  8  9  1  0  0  0
  9 14  1  0  0  0
 14 16  1  0  0  0
 16 17  1  0  0  0
 17 18  1  0  0  0
 17 19  1  0  0  0
 19 20  1  0  0  0
 20 21  1  0  0  0
 21 22  1  0  0  0
 22 23  1  0  0  0
 23 24  1  0  0  0
  9 10  2  0  0  0
 10  1  1  0  0  0
 10  5  1  0  0  0
 24 19  1  0  0  0
 14 15  1  0  0  0
 22 25  1  0  0  0
M  CHG 1  12   1
M  CHG 1  13  -1
M  END
> <minimizedAffinity>
-5.53227

> <minimizedRMSD>
2.00376

$$$$
P66052


 22 24  0  0  0  0  0  0  0  0999 V2000
   -5.8670    5.5563  -15.8761 C   0  0  0  0  0  0  0  0  0  0  0  0
   -5.9756    5.5185  -14.5337 N   0  0  0  0  0  0  0  0  0  0  0  0
   -7.0891    4.9661  -14.0481 C   0  0  0  0  0  0  0  0  0  0  0  0
   -8.1051    4.4918  -14.7692 N   0  0  0  0  0  0  0  0  0  0  0  0
   -7.9623    4.4850  -16.0962 C   0  0  0  0  0  0  0  0  0  0  0  0
   -8.9995    3.9523  -16.8530 C   0  0  0  0  0  0  0  0  0  0  0  0
   -8.9383    3.8692  -18.2442 C   0  0  0  0  0  0  0  0  0  0  0  0
   -7.8161    4.3369  -18.9073 C   0  0  0  0  0  0  0  0  0  0  0  0
   -6.7958    4.9217  -18.1618 C   0  0  0  0  0  0  0  0  0  0  0  0
   -6.8336    5.0024  -16.7437 C   0  0  0  0  0  0  0  0  0  0  0  0
   -5.6853    5.4597  -18.9165 N   0  0  0  0  0  0  0  0  0  0  0  0
   -4.7574    4.6853  -19.1957 O   0  0  0  0  0  0  0  0  0  0  0  0
   -5.7744    6.6411  -19.2879 O   0  0  0  0  0  0  0  0  0  0  0  0
   -5.1049    7.7184  -16.2463 C   0  0  0  0  0  0  0  0  0  0  0  0
   -4.7885    6.2907  -16.4295 N   0  0  0  0  0  0  0  0  0  0  0  0
   -3.4953    5.8856  -15.8489 C   0  0  0  0  0  0  0  0  0  0  0  0
   -2.4286    5.6725  -16.9483 C   0  0  0  0  0  0  0  0  0  0  0  0
   -2.3428    6.7241  -18.0423 C   0  0  0  0  0  0  0  0  0  0  0  0
   -1.0113    6.4104  -18.6969 C   0  0  0  0  0  0  0  0  0  0  0  0
   -0.1509    5.8880  -17.5576 C   0  0  0  0  0  0  0  0  0  0  0  0
   -1.0440    5.6703  -16.4088 N   0  0  0  0  0  0  0  0  0  0  0  0
   -0.9300    6.4197  -15.7262 H   0  0  0  0  0  0  0  0  0  0  0  0
 14 15  1  0  0  0
 15 16  1  0  0  0
 17 16  1  0  0  0
 17 18  1  0  0  0
 18 19  1  0  0  0
 19 20  1  0  0  0
 20 21  1  0  0  0
 15  1  1  0  0  0
  1  2  2  0  0  0
  2  3  1  0  0  0
  3  4  2  0  0  0
  4  5  1  0  0  0
  5  6  2  0  0  0
  6  7  1  0  0  0
  7  8  2  0  0  0
  8  9  1  0  0  0
  9 11  1  0  0  0
 11 12  2  0  0  0
 11 13  1  0  0  0
  9 10  2  0  0  0
 21 17  1  0  0  0
 10  1  1  0  0  0
 10  5  1  0  0  0
 21 22  1  0  0  0
M  CHG 1  11   1
M  CHG 1  13  -1
M  END
> <minimizedAffinity>
-5.30335

> <minimizedRMSD>
1.00088

$$$$
P66054


 23 26  0  0  0  0  0  0  0  0999 V2000
   -6.8529    4.8929  -18.1148 C   0  0  0  0  0  0  0  0  0  0  0  0
   -7.9663    4.4228  -18.8082 C   0  0  0  0  0  0  0  0  0  0  0  0
   -9.0477    3.9567  -18.0830 C   0  0  0  0  0  0  0  0  0  0  0  0
   -8.9801    3.9325  -16.6911 C   0  0  0  0  0  0  0  0  0  0  0  0
   -7.8544    4.3553  -15.9940 C   0  0  0  0  0  0  0  0  0  0  0  0
   -7.8986    4.2547  -14.6658 N   0  0  0  0  0  0  0  0  0  0  0  0
   -6.8021    4.6010  -13.9955 C   0  0  0  0  0  0  0  0  0  0  0  0
   -5.6890    5.1019  -14.5291 N   0  0  0  0  0  0  0  0  0  0  0  0
   -5.6796    5.2765  -15.8625 C   0  0  0  0  0  0  0  0  0  0  0  0
   -6.7499    4.8664  -16.6930 C   0  0  0  0  0  0  0  0  0  0  0  0
   -5.8510    6.7079  -19.0659 O   0  0  0  0  0  0  0  0  0  0  0  0
   -5.8126    5.4771  -18.9233 N   0  0  0  0  0  0  0  0  0  0  0  0
   -4.9611    4.7164  -19.4082 O   0  0  0  0  0  0  0  0  0  0  0  0
   -4.5143    5.8450  -16.3465 N   0  0  0  0  0  0  0  0  0  0  0  0
   -4.4867    6.7607  -16.7069 H   0  0  0  0  0  0  0  0  0  0  0  0
   -3.3309    4.9965  -16.2866 C   0  0  0  0  0  0  0  0  0  0  0  0
   -2.2058    5.6298  -17.1225 C   0  0  0  0  0  0  0  0  0  0  0  0
   -1.4247    6.7383  -16.3777 C   0  0  0  0  0  0  0  0  0  0  0  0
   -0.9125    7.6251  -17.4769 C   0  0  0  0  0  0  0  0  0  0  0  0
   -1.7897    8.6719  -18.1067 C   0  0  0  0  0  0  0  0  0  0  0  0
   -1.7126    7.3010  -18.7055 C   0  0  0  0  0  0  0  0  0  0  0  0
   -2.7117    6.2879  -18.3535 N   0  0  0  0  0  0  0  0  0  0  0  0
   -2.8071    5.6067  -19.1066 H   0  0  0  0  0  0  0  0  0  0  0  0
 11 12  2  0  0  0
 12 13  1  0  0  0
 12  1  1  0  0  0
  1  2  2  0  0  0
  2  3  1  0  0  0
  3  4  2  0  0  0
  4  5  1  0  0  0
  5  6  2  0  0  0
  6  7  1  0  0  0
  7  8  2  0  0  0
  8  9  1  0  0  0
  9 14  1  0  0  0
 14 16  1  0  0  0
 17 16  1  0  0  0
 17 18  1  0  0  0
 19 18  1  0  0  0
 19 20  1  0  0  0
 21 20  1  0  0  0
 21 22  1  0  0  0
  9 10  2  0  0  0
 10  1  1  0  0  0
 10  5  1  0  0  0
 22 17  1  0  0  0
 21 19  1  0  0  0
 14 15  1  0  0  0
 22 23  1  0  0  0
M  CHG 1  12   1
M  CHG 1  13  -1
M  END
> <minimizedAffinity>
-5.26195

> <minimizedRMSD>
1.13088

$$$$
P66055


 24 26  0  0  0  0  0  0  0  0999 V2000
   -6.9769    4.9229  -18.1843 C   0  0  0  0  0  0  0  0  0  0  0  0
   -8.1043    4.5369  -18.9052 C   0  0  0  0  0  0  0  0  0  0  0  0
   -9.1927    4.0392  -18.2132 C   0  0  0  0  0  0  0  0  0  0  0  0
   -9.1146    3.8909  -16.8291 C   0  0  0  0  0  0  0  0  0  0  0  0
   -7.9709    4.2171  -16.1091 C   0  0  0  0  0  0  0  0  0  0  0  0
   -7.9997    3.9937  -14.7954 N   0  0  0  0  0  0  0  0  0  0  0  0
   -6.8826    4.2419  -14.1142 C   0  0  0  0  0  0  0  0  0  0  0  0
   -5.7634    4.7641  -14.6150 N   0  0  0  0  0  0  0  0  0  0  0  0
   -5.7700    5.0669  -15.9247 C   0  0  0  0  0  0  0  0  0  0  0  0
   -6.8623    4.7634  -16.7723 C   0  0  0  0  0  0  0  0  0  0  0  0
   -5.9453    6.7934  -18.9965 O   0  0  0  0  0  0  0  0  0  0  0  0
   -5.9285    5.5531  -18.9477 N   0  0  0  0  0  0  0  0  0  0  0  0
   -5.0868    4.8235  -19.4849 O   0  0  0  0  0  0  0  0  0  0  0  0
   -4.6164    5.6814  -16.3834 N   0  0  0  0  0  0  0  0  0  0  0  0
   -4.6137    6.6230  -16.6709 H   0  0  0  0  0  0  0  0  0  0  0  0
   -3.4106    4.8715  -16.4205 C   0  0  0  0  0  0  0  0  0  0  0  0
   -2.2801    5.6814  -17.1006 C   0  0  0  0  0  0  0  0  0  0  0  0
   -1.8564    5.0131  -18.4221 C   0  0  0  0  0  0  0  0  0  0  0  0
   -0.5129    5.4402  -19.0085 C   0  0  0  0  0  0  0  0  0  0  0  0
   -0.2461    6.9457  -18.9920 C   0  0  0  0  0  0  0  0  0  0  0  0
   -0.1941    7.6017  -17.6064 C   0  0  0  0  0  0  0  0  0  0  0  0
    0.0533    6.6452  -16.5364 N   0  0  0  0  0  0  0  0  0  0  0  0
   -1.1480    5.9369  -16.0822 C   0  0  0  0  0  0  0  0  0  0  0  0
    0.4494    7.1476  -15.7420 H   0  0  0  0  0  0  0  0  0  0  0  0
 11 12  2  0  0  0
 12 13  1  0  0  0
 12  1  1  0  0  0
  1  2  2  0  0  0
  2  3  1  0  0  0
  3  4  2  0  0  0
  4  5  1  0  0  0
  5  6  2  0  0  0
  6  7  1  0  0  0
  7  8  2  0  0  0
  8  9  1  0  0  0
  9 14  1  0  0  0
 14 16  1  0  0  0
 17 16  1  0  0  0
 17 18  1  0  0  0
 18 19  1  0  0  0
 19 20  1  0  0  0
 20 21  1  0  0  0
 21 22  1  0  0  0
 22 23  1  0  0  0
  9 10  2  0  0  0
 10  1  1  0  0  0
 10  5  1  0  0  0
 23 17  1  0  0  0
 14 15  1  0  0  0
 22 24  1  0  0  0
M  CHG 1  12   1
M  CHG 1  13  -1
M  END
> <minimizedAffinity>
-5.66636

> <minimizedRMSD>
1.30044

$$$$
P66065


 19 21  0  0  0  0  0  0  0  0999 V2000
   -6.0798    5.0209  -15.5817 C   0  0  0  0  0  0  0  0  0  0  0  0
   -6.5296    4.9990  -14.3162 N   0  0  0  0  0  0  0  0  0  0  0  0
   -7.8393    4.7353  -14.1391 C   0  0  0  0  0  0  0  0  0  0  0  0
   -8.7125    4.4942  -15.1285 N   0  0  0  0  0  0  0  0  0  0  0  0
   -8.2431    4.4647  -16.3709 C   0  0  0  0  0  0  0  0  0  0  0  0
   -9.1323    4.1570  -17.3871 C   0  0  0  0  0  0  0  0  0  0  0  0
   -8.7202    4.0831  -18.7140 C   0  0  0  0  0  0  0  0  0  0  0  0
   -7.3941    4.3333  -19.0410 C   0  0  0  0  0  0  0  0  0  0  0  0
   -6.4879    4.6599  -18.0381 C   0  0  0  0  0  0  0  0  0  0  0  0
   -6.9033    4.7231  -16.6843 C   0  0  0  0  0  0  0  0  0  0  0  0
   -8.3821    4.6332  -12.7272 C   0  0  0  0  0  0  0  0  0  0  0  0
   -8.0296    3.3055  -12.0813 C   0  0  0  0  0  0  0  0  0  0  0  0
   -8.3707    3.5615  -10.6310 C   0  0  0  0  0  0  0  0  0  0  0  0
   -8.0208    5.0288  -10.4295 C   0  0  0  0  0  0  0  0  0  0  0  0
   -7.8686    5.6427  -11.7622 N   0  0  0  0  0  0  0  0  0  0  0  0
   -6.8873    5.8482  -11.9499 H   0  0  0  0  0  0  0  0  0  0  0  0
   -3.8915    4.2816  -15.0952 C   0  0  0  0  0  0  0  0  0  0  0  0
   -4.7053    5.2959  -15.7390 N   0  0  0  0  0  0  0  0  0  0  0  0
   -4.3451    6.0743  -16.2223 H   0  0  0  0  0  0  0  0  0  0  0  0
 17 18  1  0  0  0
 18  1  1  0  0  0
  1  2  2  0  0  0
  2  3  1  0  0  0
 11  3  1  0  0  0
 11 12  1  0  0  0
 12 13  1  0  0  0
 13 14  1  0  0  0
 14 15  1  0  0  0
  3  4  2  0  0  0
  4  5  1  0  0  0
  5  6  2  0  0  0
  6  7  1  0  0  0
  7  8  2  0  0  0
  8  9  1  0  0  0
  9 10  2  0  0  0
 10  1  1  0  0  0
 15 11  1  0  0  0
 10  5  1  0  0  0
 18 19  1  0  0  0
 15 16  1  0  0  0
M  END
> <minimizedAffinity>
-6.32665

> <minimizedRMSD>
0.69906

$$$$
P66066


 20 22  0  0  0  0  0  0  0  0999 V2000
   -5.8016    5.0166  -16.0588 C   0  0  0  0  0  0  0  0  0  0  0  0
   -5.9534    5.0397  -14.7324 N   0  0  0  0  0  0  0  0  0  0  0  0
   -7.1502    4.6745  -14.2519 C   0  0  0  0  0  0  0  0  0  0  0  0
   -8.2242    4.3891  -15.0058 N   0  0  0  0  0  0  0  0  0  0  0  0
   -8.0539    4.3652  -16.3355 C   0  0  0  0  0  0  0  0  0  0  0  0
   -9.1235    4.0231  -17.1556 C   0  0  0  0  0  0  0  0  0  0  0  0
   -8.9926    3.9547  -18.5454 C   0  0  0  0  0  0  0  0  0  0  0  0
   -7.7708    4.2448  -19.1384 C   0  0  0  0  0  0  0  0  0  0  0  0
   -6.6976    4.6261  -18.3456 C   0  0  0  0  0  0  0  0  0  0  0  0
   -6.8278    4.6690  -16.9400 C   0  0  0  0  0  0  0  0  0  0  0  0
   -7.2454    4.5885  -12.7532 C   0  0  0  0  0  0  0  0  0  0  0  0
   -7.7605    3.2325  -12.2537 C   0  0  0  0  0  0  0  0  0  0  0  0
   -8.5583    3.3636  -10.9601 C   0  0  0  0  0  0  0  0  0  0  0  0
   -8.0109    4.3757  -10.0588 N   0  0  0  0  0  0  0  0  0  0  0  0
   -7.9529    5.7125  -10.6474 C   0  0  0  0  0  0  0  0  0  0  0  0
   -8.0439    5.7477  -12.1723 C   0  0  0  0  0  0  0  0  0  0  0  0
   -7.0652    4.0971   -9.7971 H   0  0  0  0  0  0  0  0  0  0  0  0
   -3.5253    4.6583  -15.6315 C   0  0  0  0  0  0  0  0  0  0  0  0
   -4.4959    5.3443  -16.4756 N   0  0  0  0  0  0  0  0  0  0  0  0
   -4.2731    5.9451  -17.2230 H   0  0  0  0  0  0  0  0  0  0  0  0
 18 19  1  0  0  0
 19  1  1  0  0  0
  1  2  2  0  0  0
  2  3  1  0  0  0
  3 11  1  0  0  0
 11 12  1  0  0  0
 12 13  1  0  0  0
 13 14  1  0  0  0
 14 15  1  0  0  0
 15 16  1  0  0  0
  3  4  2  0  0  0
  4  5  1  0  0  0
  5  6  2  0  0  0
  6  7  1  0  0  0
  7  8  2  0  0  0
  8  9  1  0  0  0
  9 10  2  0  0  0
 10  1  1  0  0  0
 16 11  1  0  0  0
 10  5  1  0  0  0
 19 20  1  0  0  0
 14 17  1  0  0  0
M  END
> <minimizedAffinity>
-6.42938

> <minimizedRMSD>
0.71286

$$$$
P66068


 18 20  0  0  0  0  0  0  0  0999 V2000
   -6.2791    5.9135  -16.0783 C   0  0  0  0  0  0  0  0  0  0  0  0
   -6.5252    6.0328  -14.7591 N   0  0  0  0  0  0  0  0  0  0  0  0
   -7.6572    5.4704  -14.3208 C   0  0  0  0  0  0  0  0  0  0  0  0
   -8.5642    4.8249  -15.0579 N   0  0  0  0  0  0  0  0  0  0  0  0
   -8.2846    4.6663  -16.3555 C   0  0  0  0  0  0  0  0  0  0  0  0
   -9.1726    3.9590  -17.1563 C   0  0  0  0  0  0  0  0  0  0  0  0
   -8.9161    3.7236  -18.5080 C   0  0  0  0  0  0  0  0  0  0  0  0
   -7.7544    4.2173  -19.0824 C   0  0  0  0  0  0  0  0  0  0  0  0
   -6.8870    4.9837  -18.3179 C   0  0  0  0  0  0  0  0  0  0  0  0
   -7.1308    5.1969  -16.9425 C   0  0  0  0  0  0  0  0  0  0  0  0
   -5.2007    7.9833  -16.3171 C   0  0  0  0  0  0  0  0  0  0  0  0
   -5.1168    6.5473  -16.6160 N   0  0  0  0  0  0  0  0  0  0  0  0
   -3.8812    5.9047  -16.1023 C   0  0  0  0  0  0  0  0  0  0  0  0
   -2.6432    6.5962  -16.6746 C   0  0  0  0  0  0  0  0  0  0  0  0
   -2.4331    5.9475  -18.0350 C   0  0  0  0  0  0  0  0  0  0  0  0
   -3.0612    4.6322  -17.9706 N   0  0  0  0  0  0  0  0  0  0  0  0
   -3.6291    4.4891  -16.6231 C   0  0  0  0  0  0  0  0  0  0  0  0
   -2.3662    3.9043  -18.1364 H   0  0  0  0  0  0  0  0  0  0  0  0
 11 12  1  0  0  0
 12  1  1  0  0  0
  1  2  2  0  0  0
  2  3  1  0  0  0
  3  4  2  0  0  0
  4  5  1  0  0  0
  5  6  2  0  0  0
  6  7  1  0  0  0
  7  8  2  0  0  0
  8  9  1  0  0  0
  9 10  2  0  0  0
 13 12  1  0  0  0
 13 14  1  0  0  0
 14 15  1  0  0  0
 15 16  1  0  0  0
 16 17  1  0  0  0
 10  1  1  0  0  0
 17 13  1  0  0  0
 10  5  1  0  0  0
 16 18  1  0  0  0
M  END
> <minimizedAffinity>
-5.29383

> <minimizedRMSD>
0.77971

$$$$
P66069


 22 25  0  0  0  0  0  0  0  0999 V2000
   -5.6800    4.9242  -19.2465 C   0  0  0  0  0  0  0  0  0  0  0  0
   -6.8385    4.6366  -18.3308 C   0  0  0  0  0  0  0  0  0  0  0  0
   -8.0244    4.2304  -18.9537 C   0  0  0  0  0  0  0  0  0  0  0  0
   -9.1476    3.9183  -18.2080 C   0  0  0  0  0  0  0  0  0  0  0  0
   -9.0813    3.9709  -16.8223 C   0  0  0  0  0  0  0  0  0  0  0  0
   -7.9246    4.3447  -16.1580 C   0  0  0  0  0  0  0  0  0  0  0  0
   -7.9802    4.3285  -14.8250 N   0  0  0  0  0  0  0  0  0  0  0  0
   -6.8597    4.6290  -14.1739 C   0  0  0  0  0  0  0  0  0  0  0  0
   -5.7164    5.0312  -14.7254 N   0  0  0  0  0  0  0  0  0  0  0  0
   -5.7012    5.1295  -16.0687 C   0  0  0  0  0  0  0  0  0  0  0  0
   -6.7823    4.7208  -16.8929 C   0  0  0  0  0  0  0  0  0  0  0  0
   -4.5604    5.7183  -16.5877 N   0  0  0  0  0  0  0  0  0  0  0  0
   -4.5994    6.5894  -17.0446 H   0  0  0  0  0  0  0  0  0  0  0  0
   -3.3058    5.0065  -16.4345 C   0  0  0  0  0  0  0  0  0  0  0  0
   -2.2881    5.6768  -17.3807 C   0  0  0  0  0  0  0  0  0  0  0  0
   -0.9295    5.9353  -16.7384 C   0  0  0  0  0  0  0  0  0  0  0  0
    0.0101    5.8628  -17.9083 C   0  0  0  0  0  0  0  0  0  0  0  0
    1.4422    5.4204  -17.6954 C   0  0  0  0  0  0  0  0  0  0  0  0
    1.1486    6.8514  -18.0350 C   0  0  0  0  0  0  0  0  0  0  0  0
   -0.7483    5.4252  -19.1342 C   0  0  0  0  0  0  0  0  0  0  0  0
   -1.9895    4.8545  -18.5865 N   0  0  0  0  0  0  0  0  0  0  0  0
   -1.8525    3.8770  -18.3296 H   0  0  0  0  0  0  0  0  0  0  0  0
  1  2  1  0  0  0
  2  3  2  0  0  0
  3  4  1  0  0  0
  4  5  2  0  0  0
  5  6  1  0  0  0
  6  7  2  0  0  0
  7  8  1  0  0  0
  8  9  2  0  0  0
  9 10  1  0  0  0
 10 12  1  0  0  0
 12 14  1  0  0  0
 15 14  1  0  0  0
 15 16  1  0  0  0
 16 17  1  0  0  0
 17 18  1  0  0  0
 18 19  1  0  0  0
 17 20  1  0  0  0
 20 21  1  0  0  0
 10 11  2  0  0  0
 11  2  1  0  0  0
 11  6  1  0  0  0
 21 15  1  0  0  0
 19 17  1  0  0  0
 12 13  1  0  0  0
 21 22  1  0  0  0
M  END
> <minimizedAffinity>
-6.24210

> <minimizedRMSD>
1.26862

$$$$
P66070


 21 23  0  0  0  0  0  0  0  0999 V2000
   -5.2692    4.9594  -18.6327 C   0  0  0  0  0  0  0  0  0  0  0  0
   -6.6680    4.6726  -18.1647 C   0  0  0  0  0  0  0  0  0  0  0  0
   -7.5665    4.2119  -19.1343 C   0  0  0  0  0  0  0  0  0  0  0  0
   -8.8994    4.0054  -18.8217 C   0  0  0  0  0  0  0  0  0  0  0  0
   -9.3383    4.2214  -17.5221 C   0  0  0  0  0  0  0  0  0  0  0  0
   -8.4767    4.6313  -16.5185 C   0  0  0  0  0  0  0  0  0  0  0  0
   -9.0181    4.8142  -15.3105 N   0  0  0  0  0  0  0  0  0  0  0  0
   -8.2070    5.2167  -14.3367 C   0  0  0  0  0  0  0  0  0  0  0  0
   -6.9102    5.4960  -14.4619 N   0  0  0  0  0  0  0  0  0  0  0  0
   -6.3845    5.3067  -15.6867 C   0  0  0  0  0  0  0  0  0  0  0  0
   -7.1185    4.8601  -16.8118 C   0  0  0  0  0  0  0  0  0  0  0  0
   -5.0198    5.6452  -15.7359 N   0  0  0  0  0  0  0  0  0  0  0  0
   -4.6380    6.3492  -16.3085 H   0  0  0  0  0  0  0  0  0  0  0  0
   -4.2381    4.7992  -14.8103 C   0  0  0  0  0  0  0  0  0  0  0  0
   -2.7245    4.9912  -15.1068 C   0  0  0  0  0  0  0  0  0  0  0  0
   -2.0198    5.8019  -14.0068 C   0  0  0  0  0  0  0  0  0  0  0  0
   -0.5104    5.8649  -14.2491 C   0  0  0  0  0  0  0  0  0  0  0  0
   -0.1575    5.8248  -15.7356 C   0  0  0  0  0  0  0  0  0  0  0  0
   -1.2986    6.3604  -16.5925 C   0  0  0  0  0  0  0  0  0  0  0  0
   -2.5305    5.5855  -16.4440 N   0  0  0  0  0  0  0  0  0  0  0  0
   -2.5157    4.8299  -17.1291 H   0  0  0  0  0  0  0  0  0  0  0  0
  1  2  1  0  0  0
  2  3  2  0  0  0
  3  4  1  0  0  0
  4  5  2  0  0  0
  5  6  1  0  0  0
  6  7  2  0  0  0
  7  8  1  0  0  0
  8  9  2  0  0  0
  9 10  1  0  0  0
 10 12  1  0  0  0
 12 14  1  0  0  0
 15 14  1  0  0  0
 15 16  1  0  0  0
 16 17  1  0  0  0
 17 18  1  0  0  0
 18 19  1  0  0  0
 19 20  1  0  0  0
 10 11  2  0  0  0
 11  2  1  0  0  0
 11  6  1  0  0  0
 20 15  1  0  0  0
 12 13  1  0  0  0
 20 21  1  0  0  0
M  END
> <minimizedAffinity>
-5.81938

> <minimizedRMSD>
1.09391

$$$$
P66179


 26 28  0  0  0  0  0  0  0  0999 V2000
   -3.5128    5.1913  -18.7603 C   0  0  0  0  0  0  0  0  0  0  0  0
   -2.7443    5.3279  -17.6713 N   0  0  0  0  0  0  0  0  0  0  0  0
   -3.6089    5.2223  -16.6514 N   0  0  0  0  0  0  0  0  0  0  0  0
   -4.8982    5.0536  -17.0391 C   0  0  0  0  0  0  0  0  0  0  0  0
   -5.9389    4.9386  -16.2029 N   0  0  0  0  0  0  0  0  0  0  0  0
   -7.1212    4.7084  -16.8397 C   0  0  0  0  0  0  0  0  0  0  0  0
   -7.2598    4.6885  -18.2321 C   0  0  0  0  0  0  0  0  0  0  0  0
   -6.1323    4.8450  -19.0498 C   0  0  0  0  0  0  0  0  0  0  0  0
   -4.8883    5.0173  -18.4256 C   0  0  0  0  0  0  0  0  0  0  0  0
   -3.3330    5.2635  -15.7072 H   0  0  0  0  0  0  0  0  0  0  0  0
   -4.4464    4.7319  -21.7865 O   0  0  0  0  0  0  0  0  0  0  0  0
   -3.3720    4.9749  -21.3977 C   0  0  0  0  0  0  0  0  0  0  0  0
   -2.8614    5.2497  -19.9566 N   0  0  0  0  0  0  0  0  0  0  0  0
   -1.9132    5.5081  -19.8975 H   0  0  0  0  0  0  0  0  0  0  0  0
   -2.1422    5.1306  -22.3005 C   0  0  0  0  0  0  0  0  0  0  0  0
   -1.9706    3.9336  -23.2337 C   0  0  0  0  0  0  0  0  0  0  0  0
   -1.2186    4.2677  -24.5210 C   0  0  0  0  0  0  0  0  0  0  0  0
   -2.0600    5.0077  -25.5527 C   0  0  0  0  0  0  0  0  0  0  0  0
   -1.4144    4.6561  -26.8858 C   0  0  0  0  0  0  0  0  0  0  0  0
   -0.4701    3.5016  -26.5848 C   0  0  0  0  0  0  0  0  0  0  0  0
   -0.8141    3.0418  -25.2352 N   0  0  0  0  0  0  0  0  0  0  0  0
   -0.0070    2.6111  -24.7841 H   0  0  0  0  0  0  0  0  0  0  0  0
   -8.3338    4.4704  -15.9624 C   0  0  0  0  0  0  0  0  0  0  0  0
   -8.9120    5.6394  -15.5605 F   0  0  0  0  0  0  0  0  0  0  0  0
   -8.0222    3.8223  -14.8069 F   0  0  0  0  0  0  0  0  0  0  0  0
   -9.2994    3.7341  -16.5744 F   0  0  0  0  0  0  0  0  0  0  0  0
 11 12  2  0  0  0
 12 15  1  0  0  0
 15 16  1  0  0  0
 17 16  1  0  0  0
 17 18  1  0  0  0
 18 19  1  0  0  0
 19 20  1  0  0  0
 20 21  1  0  0  0
 12 13  1  0  0  0
 13  1  1  0  0  0
  1  2  2  0  0  0
  2  3  1  0  0  0
  3  4  1  0  0  0
  4  5  2  0  0  0
  5  6  1  0  0  0
  6 23  1  0  0  0
 23 24  1  0  0  0
 23 25  1  0  0  0
 23 26  1  0  0  0
  6  7  2  0  0  0
  7  8  1  0  0  0
  8  9  2  0  0  0
 21 17  1  0  0  0
  9  1  1  0  0  0
  9  4  1  0  0  0
 21 22  1  0  0  0
 13 14  1  0  0  0
  3 10  1  0  0  0
M  END
> <minimizedAffinity>
-6.05028

> <minimizedRMSD>
0.81433

$$$$
P66199


 18 19  0  0  0  0  0  0  0  0999 V2000
   -5.7840    5.3822  -15.0239 C   0  0  0  0  0  0  0  0  0  0  0  0
   -6.9635    5.0035  -14.3825 C   0  0  0  0  0  0  0  0  0  0  0  0
   -8.0569    4.5751  -15.1306 C   0  0  0  0  0  0  0  0  0  0  0  0
   -7.9764    4.4801  -16.5259 C   0  0  0  0  0  0  0  0  0  0  0  0
   -9.0758    4.1056  -17.3057 C   0  0  0  0  0  0  0  0  0  0  0  0
   -8.9375    4.0188  -18.6818 C   0  0  0  0  0  0  0  0  0  0  0  0
   -7.7019    4.2988  -19.2302 C   0  0  0  0  0  0  0  0  0  0  0  0
   -6.6314    4.7042  -18.5153 N   0  0  0  0  0  0  0  0  0  0  0  0
   -6.7732    4.7934  -17.1840 C   0  0  0  0  0  0  0  0  0  0  0  0
   -5.7171    5.2646  -16.4195 C   0  0  0  0  0  0  0  0  0  0  0  0
   -4.6248    5.9278  -14.2274 C   0  0  0  0  0  0  0  0  0  0  0  0
   -3.3290    5.4497  -14.6970 N   0  0  0  0  0  0  0  0  0  0  0  0
   -2.9131    4.8757  -13.9636 H   0  0  0  0  0  0  0  0  0  0  0  0
   -2.3874    6.5234  -15.0336 C   0  0  0  0  0  0  0  0  0  0  0  0
   -1.3343    6.1314  -16.0830 C   0  0  0  0  0  0  0  0  0  0  0  0
   -3.0729    4.5882  -19.4975 C   0  0  0  0  0  0  0  0  0  0  0  0
   -2.4368    5.1520  -18.3091 C   0  0  0  0  0  0  0  0  0  0  0  0
   -1.9395    5.6044  -17.3137 C   0  0  0  0  0  0  0  0  0  0  0  0
 16 17  1  0  0  0
 17 18  3  0  0  0
 18 15  1  0  0  0
 15 14  1  0  0  0
 14 12  1  0  0  0
 12 11  1  0  0  0
 11  1  1  0  0  0
  1  2  2  0  0  0
  2  3  1  0  0  0
  3  4  2  0  0  0
  4  5  1  0  0  0
  5  6  2  0  0  0
  6  7  1  0  0  0
  7  8  2  0  0  0
  8  9  1  0  0  0
  9 10  2  0  0  0
 10  1  1  0  0  0
  9  4  1  0  0  0
 12 13  1  0  0  0
M  END
> <minimizedAffinity>
-5.63884

> <minimizedRMSD>
1.03943

$$$$
P66254


 23 26  0  0  0  0  0  0  0  0999 V2000
   -3.4703    5.5295  -17.1649 O   0  0  0  0  0  0  0  0  0  0  0  0
   -4.7345    5.1493  -16.8717 C   0  0  0  0  0  0  0  0  0  0  0  0
   -5.1548    4.9741  -15.5763 C   0  0  0  0  0  0  0  0  0  0  0  0
   -6.4884    4.6194  -15.3598 C   0  0  0  0  0  0  0  0  0  0  0  0
   -7.3489    4.4999  -16.4740 C   0  0  0  0  0  0  0  0  0  0  0  0
   -8.7278    4.1944  -16.3931 C   0  0  0  0  0  0  0  0  0  0  0  0
   -9.5164    4.1727  -17.5326 C   0  0  0  0  0  0  0  0  0  0  0  0
   -8.9140    4.3238  -18.7658 C   0  0  0  0  0  0  0  0  0  0  0  0
   -7.5411    4.4935  -18.8579 C   0  0  0  0  0  0  0  0  0  0  0  0
   -6.7629    4.6631  -17.7462 C   0  0  0  0  0  0  0  0  0  0  0  0
   -5.4830    4.9869  -17.9559 N   0  0  0  0  0  0  0  0  0  0  0  0
   -2.8526    5.6737  -16.4753 H   0  0  0  0  0  0  0  0  0  0  0  0
   -6.9163    4.3795  -14.0494 N   0  0  0  0  0  0  0  0  0  0  0  0
   -6.9369    3.4635  -13.6894 H   0  0  0  0  0  0  0  0  0  0  0  0
   -7.3335    5.5158  -13.2212 C   0  0  0  0  0  0  0  0  0  0  0  0
   -7.7662    5.0662  -11.8558 C   0  0  0  0  0  0  0  0  0  0  0  0
   -8.2199    3.7989  -11.5025 C   0  0  0  0  0  0  0  0  0  0  0  0
   -8.3319    3.8346  -10.1510 N   0  0  0  0  0  0  0  0  0  0  0  0
   -8.6636    2.9613   -9.1474 C   0  0  0  0  0  0  0  0  0  0  0  0
   -8.5324    3.5234   -7.9358 C   0  0  0  0  0  0  0  0  0  0  0  0
   -7.9957    5.2115   -8.0193 S   0  0  0  0  0  0  0  0  0  0  0  0
   -7.9630    5.0831   -9.7528 C   0  0  0  0  0  0  0  0  0  0  0  0
   -7.6284    5.8783  -10.7365 N   0  0  0  0  0  0  0  0  0  0  0  0
  1  2  1  0  0  0
  2  3  2  0  0  0
  3  4  1  0  0  0
  4 13  1  0  0  0
 13 15  1  0  0  0
 15 16  1  0  0  0
 16 17  2  0  0  0
 17 18  1  0  0  0
 18 19  1  0  0  0
 19 20  2  0  0  0
 20 21  1  0  0  0
 21 22  1  0  0  0
 22 23  2  0  0  0
  4  5  2  0  0  0
  5  6  1  0  0  0
  6  7  2  0  0  0
  7  8  1  0  0  0
  8  9  2  0  0  0
  9 10  1  0  0  0
 10 11  2  0  0  0
 11  2  1  0  0  0
 23 16  1  0  0  0
 10  5  1  0  0  0
 22 18  1  0  0  0
  1 12  1  0  0  0
 13 14  1  0  0  0
M  END
> <minimizedAffinity>
-6.61261

> <minimizedRMSD>
0.46843

$$$$
P66264


 22 24  0  0  0  0  0  0  0  0999 V2000
   -8.1578    4.4894  -13.6355 N   0  0  0  0  0  0  0  0  0  0  0  0
   -8.8062    3.8807  -14.0577 H   0  0  0  0  0  0  0  0  0  0  0  0
   -8.2322    4.7396  -12.3127 C   0  0  0  0  0  0  0  0  0  0  0  0
   -8.1683    3.8313  -11.3823 N   0  0  0  0  0  0  0  0  0  0  0  0
   -8.3232    4.6328  -10.1321 C   0  0  0  0  0  0  0  0  0  0  0  0
   -7.5156    4.0656   -8.9732 C   0  0  0  0  0  0  0  0  0  0  0  0
   -6.6081    5.0716   -8.2603 C   0  0  0  0  0  0  0  0  0  0  0  0
   -7.2546    6.3104   -7.6239 C   0  0  0  0  0  0  0  0  0  0  0  0
   -8.5677    6.8254   -8.2099 C   0  0  0  0  0  0  0  0  0  0  0  0
   -8.5628    7.1527   -9.7067 C   0  0  0  0  0  0  0  0  0  0  0  0
   -7.9302    6.0624  -10.5450 C   0  0  0  0  0  0  0  0  0  0  0  0
   -8.2943    6.0554  -11.9468 N   0  0  0  0  0  0  0  0  0  0  0  0
   -8.5333    6.8264  -12.5105 H   0  0  0  0  0  0  0  0  0  0  0  0
   -5.7258    4.7947  -13.8772 C   0  0  0  0  0  0  0  0  0  0  0  0
   -7.1092    5.1247  -14.4493 C   0  0  0  0  0  0  0  0  0  0  0  0
   -7.2218    4.7334  -15.9237 C   0  0  0  0  0  0  0  0  0  0  0  0
   -8.3860    4.1286  -16.4028 C   0  0  0  0  0  0  0  0  0  0  0  0
   -8.4807    3.7638  -17.7389 C   0  0  0  0  0  0  0  0  0  0  0  0
   -7.4104    4.0170  -18.5666 C   0  0  0  0  0  0  0  0  0  0  0  0
   -7.4457    3.6044  -19.8336 F   0  0  0  0  0  0  0  0  0  0  0  0
   -6.3102    4.6765  -18.0566 C   0  0  0  0  0  0  0  0  0  0  0  0
   -6.1999    5.0656  -16.7613 N   0  0  0  0  0  0  0  0  0  0  0  0
 15 14  1  0  0  0
 15  1  1  0  0  0
  1  3  1  0  0  0
  3  4  2  0  0  0
  4  5  1  0  0  0
  5  6  1  0  0  0
  6  7  1  0  0  0
  7  8  1  0  0  0
  8  9  1  0  0  0
  9 10  1  0  0  0
 11 10  1  0  0  0
 11 12  1  0  0  0
 15 16  1  0  0  0
 16 17  2  0  0  0
 17 18  1  0  0  0
 18 19  2  0  0  0
 19 20  1  0  0  0
 19 21  1  0  0  0
 21 22  2  0  0  0
 12  3  1  0  0  0
 22 16  1  0  0  0
 11  5  1  0  0  0
  1  2  1  0  0  0
 12 13  1  0  0  0
M  END
> <minimizedAffinity>
-6.15316

> <minimizedRMSD>
0.35724

$$$$
P66265


 20 22  0  0  0  0  0  0  0  0999 V2000
   -7.9063    4.1962  -13.6021 N   0  0  0  0  0  0  0  0  0  0  0  0
   -8.4815    3.6159  -14.1513 H   0  0  0  0  0  0  0  0  0  0  0  0
   -8.0892    4.1376  -12.2777 C   0  0  0  0  0  0  0  0  0  0  0  0
   -8.2043    3.0175  -11.6357 N   0  0  0  0  0  0  0  0  0  0  0  0
   -8.3688    3.4196  -10.2163 C   0  0  0  0  0  0  0  0  0  0  0  0
   -7.1997    2.9039   -9.3974 C   0  0  0  0  0  0  0  0  0  0  0  0
   -6.1597    4.0091   -9.4912 C   0  0  0  0  0  0  0  0  0  0  0  0
   -6.9802    5.2847   -9.4125 C   0  0  0  0  0  0  0  0  0  0  0  0
   -8.2593    4.9652  -10.1791 C   0  0  0  0  0  0  0  0  0  0  0  0
   -8.1621    5.2991  -11.5818 N   0  0  0  0  0  0  0  0  0  0  0  0
   -8.1508    6.2065  -11.9635 H   0  0  0  0  0  0  0  0  0  0  0  0
   -6.9540    5.0205  -14.3132 C   0  0  0  0  0  0  0  0  0  0  0  0
   -5.5544    4.7332  -13.7719 C   0  0  0  0  0  0  0  0  0  0  0  0
   -7.2176    3.7191  -19.8770 C   0  0  0  0  0  0  0  0  0  0  0  0
   -7.2228    4.2055  -18.4774 C   0  0  0  0  0  0  0  0  0  0  0  0
   -8.3019    3.9048  -17.6618 C   0  0  0  0  0  0  0  0  0  0  0  0
   -8.2248    4.2018  -16.3160 C   0  0  0  0  0  0  0  0  0  0  0  0
   -7.0662    4.7859  -15.8092 C   0  0  0  0  0  0  0  0  0  0  0  0
   -6.0465    5.1857  -16.6108 N   0  0  0  0  0  0  0  0  0  0  0  0
   -6.1403    4.8622  -17.9165 C   0  0  0  0  0  0  0  0  0  0  0  0
 14 15  1  0  0  0
 15 16  2  0  0  0
 16 17  1  0  0  0
 17 18  2  0  0  0
 18 12  1  0  0  0
 12 13  1  0  0  0
 12  1  1  0  0  0
  1  3  1  0  0  0
  3  4  2  0  0  0
  4  5  1  0  0  0
  5  6  1  0  0  0
  6  7  1  0  0  0
  7  8  1  0  0  0
  9  8  1  0  0  0
  9 10  1  0  0  0
 18 19  1  0  0  0
 19 20  2  0  0  0
 20 15  1  0  0  0
 10  3  1  0  0  0
  9  5  1  0  0  0
  1  2  1  0  0  0
 10 11  1  0  0  0
M  END
> <minimizedAffinity>
-5.49695

> <minimizedRMSD>
0.67041

$$$$
P66377


 19 20  0  0  0  0  0  0  0  0999 V2000
   -6.4111    4.9691  -17.5857 C   0  0  0  0  0  0  0  0  0  0  0  0
   -5.6471    4.9220  -16.4196 C   0  0  0  0  0  0  0  0  0  0  0  0
   -6.2259    4.5368  -15.2055 C   0  0  0  0  0  0  0  0  0  0  0  0
   -7.5818    4.2137  -15.1062 C   0  0  0  0  0  0  0  0  0  0  0  0
   -8.3177    4.2865  -16.2821 C   0  0  0  0  0  0  0  0  0  0  0  0
   -9.6499    4.1414  -16.5445 N   0  0  0  0  0  0  0  0  0  0  0  0
   -9.8588    4.4262  -17.8565 C   0  0  0  0  0  0  0  0  0  0  0  0
   -8.7301    4.6118  -18.4920 N   0  0  0  0  0  0  0  0  0  0  0  0
   -7.7682    4.6181  -17.5125 C   0  0  0  0  0  0  0  0  0  0  0  0
  -10.3403    3.8759  -15.8948 H   0  0  0  0  0  0  0  0  0  0  0  0
   -5.7439    6.8146  -19.3993 C   0  0  0  0  0  0  0  0  0  0  0  0
   -6.0804    7.8525  -18.9778 O   0  0  0  0  0  0  0  0  0  0  0  0
   -5.9074    5.3842  -18.8069 N   0  0  0  0  0  0  0  0  0  0  0  0
   -5.6033    4.6566  -19.3963 H   0  0  0  0  0  0  0  0  0  0  0  0
   -4.9955    6.6477  -20.7061 C   0  0  0  0  0  0  0  0  0  0  0  0
   -5.2326    7.8006  -21.6747 C   0  0  0  0  0  0  0  0  0  0  0  0
   -5.3499    7.2826  -23.1081 C   0  0  0  0  0  0  0  0  0  0  0  0
   -6.5945    7.5665  -25.2657 C   0  0  0  0  0  0  0  0  0  0  0  0
   -6.0188    8.2765  -24.0502 C   0  0  0  0  0  0  0  0  0  0  0  0
 18 19  1  0  0  0
 19 17  1  0  0  0
 17 16  1  0  0  0
 16 15  1  0  0  0
 15 11  1  0  0  0
 11 12  2  0  0  0
 11 13  1  0  0  0
 13  1  1  0  0  0
  1  2  2  0  0  0
  2  3  1  0  0  0
  3  4  2  0  0  0
  4  5  1  0  0  0
  5  6  1  0  0  0
  6  7  1  0  0  0
  7  8  2  0  0  0
  8  9  1  0  0  0
  9  1  1  0  0  0
  9  5  2  0  0  0
 13 14  1  0  0  0
  6 10  1  0  0  0
M  END
> <minimizedAffinity>
-5.36078

> <minimizedRMSD>
1.19198

$$$$
P66383


 20 21  0  0  0  0  0  0  0  0999 V2000
   -3.9112    5.3341  -18.3727 C   0  0  0  0  0  0  0  0  0  0  0  0
   -3.1001    5.5995  -17.5715 O   0  0  0  0  0  0  0  0  0  0  0  0
   -5.4108    4.9498  -18.2014 N   0  0  0  0  0  0  0  0  0  0  0  0
   -5.9085    4.8453  -19.0444 H   0  0  0  0  0  0  0  0  0  0  0  0
   -6.1607    4.7304  -17.0515 C   0  0  0  0  0  0  0  0  0  0  0  0
   -5.5987    4.7533  -15.7729 C   0  0  0  0  0  0  0  0  0  0  0  0
   -6.3826    4.5127  -14.6386 C   0  0  0  0  0  0  0  0  0  0  0  0
   -7.7554    4.2771  -14.7304 C   0  0  0  0  0  0  0  0  0  0  0  0
   -8.2944    4.2948  -16.0098 C   0  0  0  0  0  0  0  0  0  0  0  0
   -9.5836    4.2239  -16.4594 N   0  0  0  0  0  0  0  0  0  0  0  0
   -9.5652    4.4034  -17.8067 C   0  0  0  0  0  0  0  0  0  0  0  0
   -8.3425    4.4295  -18.2743 N   0  0  0  0  0  0  0  0  0  0  0  0
   -7.5386    4.4737  -17.1633 C   0  0  0  0  0  0  0  0  0  0  0  0
  -10.3830    4.0702  -15.9058 H   0  0  0  0  0  0  0  0  0  0  0  0
   -3.5734    5.2114  -19.8493 C   0  0  0  0  0  0  0  0  0  0  0  0
   -3.4132    6.5230  -20.6189 C   0  0  0  0  0  0  0  0  0  0  0  0
   -4.7585    7.1735  -20.9627 C   0  0  0  0  0  0  0  0  0  0  0  0
   -5.1000    7.1962  -22.4583 C   0  0  0  0  0  0  0  0  0  0  0  0
   -6.1211    8.6834  -24.1952 C   0  0  0  0  0  0  0  0  0  0  0  0
   -5.6665    8.4977  -22.9483 C   0  0  0  0  0  0  0  0  0  0  0  0
 19 20  2  0  0  0
 20 18  1  0  0  0
 18 17  1  0  0  0
 17 16  1  0  0  0
 16 15  1  0  0  0
 15  1  1  0  0  0
  1  2  2  0  0  0
  1  3  1  0  0  0
  3  5  1  0  0  0
  5  6  2  0  0  0
  6  7  1  0  0  0
  7  8  2  0  0  0
  8  9  1  0  0  0
  9 10  1  0  0  0
 10 11  1  0  0  0
 11 12  2  0  0  0
 12 13  1  0  0  0
 13  5  1  0  0  0
 13  9  2  0  0  0
  3  4  1  0  0  0
 10 14  1  0  0  0
M  END
> <minimizedAffinity>
-4.90304

> <minimizedRMSD>
0.81508

$$$$
P66439


 17 18  0  0  0  0  0  0  0  0999 V2000
   -7.4140    4.4172  -15.7726 C   0  0  0  0  0  0  0  0  0  0  0  0
   -8.7562    4.1967  -16.1215 C   0  0  0  0  0  0  0  0  0  0  0  0
   -9.1965    4.2029  -17.4558 C   0  0  0  0  0  0  0  0  0  0  0  0
   -8.3008    4.4442  -18.4889 C   0  0  0  0  0  0  0  0  0  0  0  0
   -6.9862    4.7042  -18.1529 C   0  0  0  0  0  0  0  0  0  0  0  0
   -6.5542    4.6879  -16.8269 C   0  0  0  0  0  0  0  0  0  0  0  0
   -5.1779    4.9038  -16.8016 N   0  0  0  0  0  0  0  0  0  0  0  0
   -4.6569    5.0270  -18.0855 C   0  0  0  0  0  0  0  0  0  0  0  0
   -3.4762    5.1685  -18.3699 O   0  0  0  0  0  0  0  0  0  0  0  0
   -5.8244    4.9589  -19.0588 C   0  0  0  0  0  0  0  0  0  0  0  0
   -4.6414    4.9618  -15.9782 H   0  0  0  0  0  0  0  0  0  0  0  0
   -6.9274    4.1599  -14.3723 C   0  0  0  0  0  0  0  0  0  0  0  0
   -8.0159    6.3004  -13.5383 C   0  0  0  0  0  0  0  0  0  0  0  0
   -7.5456    4.9016  -13.1703 C   0  0  0  0  0  0  0  0  0  0  0  0
   -8.6252    4.1806  -12.5023 N   0  0  0  0  0  0  0  0  0  0  0  0
   -9.4183    4.0912  -13.1374 H   0  0  0  0  0  0  0  0  0  0  0  0
   -8.9128    4.6944  -11.6694 H   0  0  0  0  0  0  0  0  0  0  0  0
 14 13  1  0  0  0
 14 15  1  0  0  0
 14 12  1  0  0  0
 12  1  1  0  0  0
  1  2  2  0  0  0
  2  3  1  0  0  0
  3  4  2  0  0  0
  4  5  1  0  0  0
  5  6  2  0  0  0
  6  7  1  0  0  0
  7  8  1  0  0  0
  8  9  2  0  0  0
  8 10  1  0  0  0
  6  1  1  0  0  0
 10  5  1  0  0  0
 15 16  1  0  0  0
 15 17  1  0  0  0
  7 11  1  0  0  0
M  END
> <minimizedAffinity>
-6.00376

> <minimizedRMSD>
0.52585

$$$$
P66653


 24 26  0  0  0  0  0  0  0  0999 V2000
   -6.0038    5.4901  -11.0079 O   0  0  0  0  0  0  0  0  0  0  0  0
   -7.0957    5.7815  -10.7244 C   0  0  0  0  0  0  0  0  0  0  0  0
   -8.1967    6.4547  -11.5602 N   0  0  0  0  0  0  0  0  0  0  0  0
   -9.0698    6.5255  -11.1109 H   0  0  0  0  0  0  0  0  0  0  0  0
   -7.6483    5.4436   -9.4028 C   0  0  0  0  0  0  0  0  0  0  0  0
   -8.0932    6.3875   -8.5405 N   0  0  0  0  0  0  0  0  0  0  0  0
   -8.5818    5.6903   -7.4317 O   0  0  0  0  0  0  0  0  0  0  0  0
   -8.4488    4.3709   -7.6688 C   0  0  0  0  0  0  0  0  0  0  0  0
   -7.8562    4.1522   -8.8799 C   0  0  0  0  0  0  0  0  0  0  0  0
   -7.6494    2.8048   -9.4444 C   0  0  0  0  0  0  0  0  0  0  0  0
   -7.7982    1.8087   -8.3691 N   0  0  0  0  0  0  0  0  0  0  0  0
   -8.9965    2.0052   -7.5389 C   0  0  0  0  0  0  0  0  0  0  0  0
   -8.9354    3.3329   -6.7397 C   0  0  0  0  0  0  0  0  0  0  0  0
   -6.9772    1.8614   -7.7661 H   0  0  0  0  0  0  0  0  0  0  0  0
   -8.1590    6.9975  -12.8907 C   0  0  0  0  0  0  0  0  0  0  0  0
   -7.4294    6.1907  -13.9572 C   0  0  0  0  0  0  0  0  0  0  0  0
   -8.0987    4.8945  -14.4564 C   0  0  0  0  0  0  0  0  0  0  0  0
   -9.4706    4.8323  -14.0685 O   0  0  0  0  0  0  0  0  0  0  0  0
   -9.9572    5.5620  -14.4827 H   0  0  0  0  0  0  0  0  0  0  0  0
   -8.0337    4.7609  -15.9664 C   0  0  0  0  0  0  0  0  0  0  0  0
   -9.0162    4.4505  -16.8913 C   0  0  0  0  0  0  0  0  0  0  0  0
   -8.5355    4.4592  -18.2316 C   0  0  0  0  0  0  0  0  0  0  0  0
   -7.1965    4.7617  -18.2979 C   0  0  0  0  0  0  0  0  0  0  0  0
   -6.5234    5.0187  -16.7547 S   0  0  0  0  0  0  0  0  0  0  0  0
  1  2  2  0  0  0
  2  3  1  0  0  0
  3 15  1  0  0  0
 15 16  1  0  0  0
 16 17  1  0  0  0
 17 18  1  0  0  0
 17 20  1  0  0  0
 20 21  2  0  0  0
 21 22  1  0  0  0
 22 23  2  0  0  0
 23 24  1  0  0  0
  2  5  1  0  0  0
  5  6  2  0  0  0
  6  7  1  0  0  0
  7  8  1  0  0  0
  8  9  2  0  0  0
  9 10  1  0  0  0
 10 11  1  0  0  0
 11 12  1  0  0  0
 12 13  1  0  0  0
 24 20  1  0  0  0
  9  5  1  0  0  0
 13  8  1  0  0  0
  3  4  1  0  0  0
 18 19  1  0  0  0
 11 14  1  0  0  0
M  END
> <minimizedAffinity>
-6.36183

> <minimizedRMSD>
0.60863

$$$$
P67031


 17 18  0  0  0  0  0  0  0  0999 V2000
   -4.7694    5.1502  -18.6800 C   0  0  0  0  0  0  0  0  0  0  0  0
   -5.9504    4.8618  -19.1050 N   0  0  0  0  0  0  0  0  0  0  0  0
   -6.9304    4.6319  -18.1464 C   0  0  0  0  0  0  0  0  0  0  0  0
   -8.2462    4.3927  -18.5460 C   0  0  0  0  0  0  0  0  0  0  0  0
   -9.2451    4.1987  -17.5937 C   0  0  0  0  0  0  0  0  0  0  0  0
   -8.9219    4.2282  -16.2378 C   0  0  0  0  0  0  0  0  0  0  0  0
   -7.6148    4.4681  -15.8273 C   0  0  0  0  0  0  0  0  0  0  0  0
   -6.6309    4.6798  -16.7909 C   0  0  0  0  0  0  0  0  0  0  0  0
   -5.2535    4.9988  -16.3986 C   0  0  0  0  0  0  0  0  0  0  0  0
   -4.9073    5.0911  -15.2267 O   0  0  0  0  0  0  0  0  0  0  0  0
   -4.3777    5.2236  -17.3943 O   0  0  0  0  0  0  0  0  0  0  0  0
   -3.6717    5.5549  -19.6222 C   0  0  0  0  0  0  0  0  0  0  0  0
   -1.9805    3.6750  -19.5203 C   0  0  0  0  0  0  0  0  0  0  0  0
   -2.2702    5.1317  -19.1727 C   0  0  0  0  0  0  0  0  0  0  0  0
   -1.2792    5.9954  -19.8213 N   0  0  0  0  0  0  0  0  0  0  0  0
   -1.3455    5.8883  -20.8335 H   0  0  0  0  0  0  0  0  0  0  0  0
   -0.3438    5.7314  -19.5120 H   0  0  0  0  0  0  0  0  0  0  0  0
 14 13  1  0  0  0
 14 15  1  0  0  0
 14 12  1  0  0  0
 12  1  1  0  0  0
  1  2  2  0  0  0
  2  3  1  0  0  0
  3  4  2  0  0  0
  4  5  1  0  0  0
  5  6  2  0  0  0
  6  7  1  0  0  0
  7  8  2  0  0  0
  8  9  1  0  0  0
  9 10  2  0  0  0
  9 11  1  0  0  0
 11  1  1  0  0  0
  8  3  1  0  0  0
 15 16  1  0  0  0
 15 17  1  0  0  0
M  END
> <minimizedAffinity>
-5.74642

> <minimizedRMSD>
0.34866

$$$$
P67034


 15 16  0  0  0  0  0  0  0  0999 V2000
   -4.7868    4.9937  -18.8409 C   0  0  0  0  0  0  0  0  0  0  0  0
   -4.3063    5.1283  -17.5976 N   0  0  0  0  0  0  0  0  0  0  0  0
   -5.1811    5.0169  -16.5957 C   0  0  0  0  0  0  0  0  0  0  0  0
   -6.5183    4.7644  -16.7957 C   0  0  0  0  0  0  0  0  0  0  0  0
   -7.4062    4.5748  -15.7353 C   0  0  0  0  0  0  0  0  0  0  0  0
   -8.7274    4.2630  -16.0161 C   0  0  0  0  0  0  0  0  0  0  0  0
   -9.1716    4.1759  -17.3314 C   0  0  0  0  0  0  0  0  0  0  0  0
   -8.2713    4.3867  -18.3752 C   0  0  0  0  0  0  0  0  0  0  0  0
   -6.9334    4.6692  -18.1285 C   0  0  0  0  0  0  0  0  0  0  0  0
   -6.0742    4.8153  -19.1410 N   0  0  0  0  0  0  0  0  0  0  0  0
   -3.9166    4.9906  -19.9088 N   0  0  0  0  0  0  0  0  0  0  0  0
   -4.2481    4.8997  -20.8314 H   0  0  0  0  0  0  0  0  0  0  0  0
   -1.8754    3.7370  -19.6526 C   0  0  0  0  0  0  0  0  0  0  0  0
   -2.5013    5.1246  -19.6364 C   0  0  0  0  0  0  0  0  0  0  0  0
   -1.8524    6.0437  -20.6620 C   0  0  0  0  0  0  0  0  0  0  0  0
 13 14  1  0  0  0
 14 15  1  0  0  0
 14 11  1  0  0  0
 11  1  1  0  0  0
  1  2  2  0  0  0
  2  3  1  0  0  0
  3  4  2  0  0  0
  4  5  1  0  0  0
  5  6  2  0  0  0
  6  7  1  0  0  0
  7  8  2  0  0  0
  8  9  1  0  0  0
  9 10  2  0  0  0
 10  1  1  0  0  0
  9  4  1  0  0  0
 11 12  1  0  0  0
M  END
> <minimizedAffinity>
-5.98729

> <minimizedRMSD>
0.55010

$$$$
P67040


 16 17  0  0  0  0  0  0  0  0999 V2000
   -4.8078    5.1173  -18.5658 C   0  0  0  0  0  0  0  0  0  0  0  0
   -4.5154    5.2090  -17.2558 N   0  0  0  0  0  0  0  0  0  0  0  0
   -5.5261    4.9752  -16.4091 C   0  0  0  0  0  0  0  0  0  0  0  0
   -6.8145    4.6914  -16.8199 C   0  0  0  0  0  0  0  0  0  0  0  0
   -7.8652    4.4934  -15.9184 C   0  0  0  0  0  0  0  0  0  0  0  0
   -9.1366    4.2325  -16.4078 C   0  0  0  0  0  0  0  0  0  0  0  0
   -9.3629    4.1547  -17.7764 C   0  0  0  0  0  0  0  0  0  0  0  0
   -8.2989    4.3370  -18.6584 C   0  0  0  0  0  0  0  0  0  0  0  0
   -7.0169    4.6162  -18.2010 C   0  0  0  0  0  0  0  0  0  0  0  0
   -6.0203    4.8268  -19.0654 N   0  0  0  0  0  0  0  0  0  0  0  0
   -3.7586    5.5510  -19.5447 C   0  0  0  0  0  0  0  0  0  0  0  0
   -2.0294    3.6913  -19.5103 C   0  0  0  0  0  0  0  0  0  0  0  0
   -2.3290    5.1471  -19.1643 C   0  0  0  0  0  0  0  0  0  0  0  0
   -1.3841    6.0004  -19.9020 N   0  0  0  0  0  0  0  0  0  0  0  0
   -1.5099    5.8594  -20.9044 H   0  0  0  0  0  0  0  0  0  0  0  0
   -0.4291    5.7546  -19.6414 H   0  0  0  0  0  0  0  0  0  0  0  0
 13 12  1  0  0  0
 13 14  1  0  0  0
 13 11  1  0  0  0
 11  1  1  0  0  0
  1  2  2  0  0  0
  2  3  1  0  0  0
  3  4  2  0  0  0
  4  5  1  0  0  0
  5  6  2  0  0  0
  6  7  1  0  0  0
  7  8  2  0  0  0
  8  9  1  0  0  0
  9 10  2  0  0  0
 10  1  1  0  0  0
  9  4  1  0  0  0
 14 15  1  0  0  0
 14 16  1  0  0  0
M  END
> <minimizedAffinity>
-5.60547

> <minimizedRMSD>
0.31086

$$$$
P67139


 16 16  0  0  0  0  0  0  0  0999 V2000
   -9.6336    6.1303  -14.5061 O   0  0  0  0  0  0  0  0  0  0  0  0
   -9.0002    5.1481  -14.5969 C   0  0  0  0  0  0  0  0  0  0  0  0
   -8.3755    4.2403  -13.4883 N   0  0  0  0  0  0  0  0  0  0  0  0
   -7.9472    3.4187  -13.8210 H   0  0  0  0  0  0  0  0  0  0  0  0
   -8.3265    4.4056  -12.1047 C   0  0  0  0  0  0  0  0  0  0  0  0
   -8.4651    3.2910  -11.2837 C   0  0  0  0  0  0  0  0  0  0  0  0
   -8.4158    3.4739   -9.9103 C   0  0  0  0  0  0  0  0  0  0  0  0
   -8.2391    4.6784   -9.3219 N   0  0  0  0  0  0  0  0  0  0  0  0
   -8.1041    5.7374  -10.1472 C   0  0  0  0  0  0  0  0  0  0  0  0
   -8.1377    5.6550  -11.5294 C   0  0  0  0  0  0  0  0  0  0  0  0
   -8.5892    4.5652  -15.9478 C   0  0  0  0  0  0  0  0  0  0  0  0
   -6.8143    4.8658  -16.1828 S   0  0  0  0  0  0  0  0  0  0  0  0
   -6.8187    4.8416  -17.9669 C   0  0  0  0  0  0  0  0  0  0  0  0
   -7.8616    4.1257  -18.4428 F   0  0  0  0  0  0  0  0  0  0  0  0
   -5.6721    4.3426  -18.4681 F   0  0  0  0  0  0  0  0  0  0  0  0
   -6.9483    6.1026  -18.4249 F   0  0  0  0  0  0  0  0  0  0  0  0
  1  2  2  0  0  0
  2 11  1  0  0  0
 11 12  1  0  0  0
 12 13  1  0  0  0
 13 14  1  0  0  0
 13 15  1  0  0  0
 13 16  1  0  0  0
  2  3  1  0  0  0
  3  5  1  0  0  0
  5  6  2  0  0  0
  6  7  1  0  0  0
  7  8  2  0  0  0
  8  9  1  0  0  0
  9 10  2  0  0  0
 10  5  1  0  0  0
  3  4  1  0  0  0
M  END
> <minimizedAffinity>
-5.17483

> <minimizedRMSD>
0.47680

$$$$
P67141


 16 16  0  0  0  0  0  0  0  0999 V2000
   -6.8043    4.9184  -14.2033 C   0  0  0  0  0  0  0  0  0  0  0  0
   -5.9311    5.6442  -13.9209 O   0  0  0  0  0  0  0  0  0  0  0  0
   -7.9256    4.2909  -13.3151 N   0  0  0  0  0  0  0  0  0  0  0  0
   -8.5967    3.7655  -13.8079 H   0  0  0  0  0  0  0  0  0  0  0  0
   -8.1292    4.3540  -11.9431 C   0  0  0  0  0  0  0  0  0  0  0  0
   -8.3683    3.1747  -11.2484 C   0  0  0  0  0  0  0  0  0  0  0  0
   -8.5425    3.2506   -9.8781 C   0  0  0  0  0  0  0  0  0  0  0  0
   -8.5208    4.4112   -9.1842 N   0  0  0  0  0  0  0  0  0  0  0  0
   -8.2955    5.5363   -9.8953 C   0  0  0  0  0  0  0  0  0  0  0  0
   -8.0884    5.5611  -11.2622 C   0  0  0  0  0  0  0  0  0  0  0  0
   -7.0814    4.3892  -15.5991 C   0  0  0  0  0  0  0  0  0  0  0  0
   -7.8225    5.3808  -16.4884 C   0  0  0  0  0  0  0  0  0  0  0  0
   -7.8464    4.9978  -17.9691 C   0  0  0  0  0  0  0  0  0  0  0  0
   -9.8109    3.3888  -17.5298 C   0  0  0  0  0  0  0  0  0  0  0  0
   -9.0872    4.2714  -18.5213 C   0  0  0  0  0  0  0  0  0  0  0  0
  -10.1136    5.2082  -19.1209 C   0  0  0  0  0  0  0  0  0  0  0  0
 14 15  1  0  0  0
 15 16  1  0  0  0
 15 13  1  0  0  0
 13 12  1  0  0  0
 12 11  1  0  0  0
 11  1  1  0  0  0
  1  2  2  0  0  0
  1  3  1  0  0  0
  3  5  1  0  0  0
  5  6  2  0  0  0
  6  7  1  0  0  0
  7  8  2  0  0  0
  8  9  1  0  0  0
  9 10  2  0  0  0
 10  5  1  0  0  0
  3  4  1  0  0  0
M  END
> <minimizedAffinity>
-4.40291

> <minimizedRMSD>
0.77342

$$$$
P67149


 15 15  0  0  0  0  0  0  0  0999 V2000
   -8.2719    4.3601  -13.4286 N   0  0  0  0  0  0  0  0  0  0  0  0
   -8.8090    3.6992  -13.9225 H   0  0  0  0  0  0  0  0  0  0  0  0
   -8.2662    4.3999  -12.0285 C   0  0  0  0  0  0  0  0  0  0  0  0
   -8.4513    3.2225  -11.3013 C   0  0  0  0  0  0  0  0  0  0  0  0
   -8.4904    3.2812   -9.9168 C   0  0  0  0  0  0  0  0  0  0  0  0
   -8.3927    4.4312   -9.2151 N   0  0  0  0  0  0  0  0  0  0  0  0
   -8.2407    5.5588   -9.9382 C   0  0  0  0  0  0  0  0  0  0  0  0
   -8.1673    5.5944  -11.3219 C   0  0  0  0  0  0  0  0  0  0  0  0
   -7.4392    5.3503  -14.1271 C   0  0  0  0  0  0  0  0  0  0  0  0
   -7.0015    4.7383  -15.4512 C   0  0  0  0  0  0  0  0  0  0  0  0
   -7.3723    5.4960  -16.6038 O   0  0  0  0  0  0  0  0  0  0  0  0
   -7.4954    4.6520  -17.7635 C   0  0  0  0  0  0  0  0  0  0  0  0
   -9.7258    3.5289  -17.4112 C   0  0  0  0  0  0  0  0  0  0  0  0
   -8.9336    4.3522  -18.1059 C   0  0  0  0  0  0  0  0  0  0  0  0
   -9.5266    5.0429  -19.2708 C   0  0  0  0  0  0  0  0  0  0  0  0
 13 14  2  0  0  0
 14 15  1  0  0  0
 14 12  1  0  0  0
 12 11  1  0  0  0
 11 10  1  0  0  0
 10  9  1  0  0  0
  9  1  1  0  0  0
  1  3  1  0  0  0
  3  4  2  0  0  0
  4  5  1  0  0  0
  5  6  2  0  0  0
  6  7  1  0  0  0
  7  8  2  0  0  0
  8  3  1  0  0  0
  1  2  1  0  0  0
M  END
> <minimizedAffinity>
-3.94338

> <minimizedRMSD>
0.48127

$$$$
P67191


 13 14  0  0  0  0  0  0  0  0999 V2000
  -10.8249    4.9755  -18.0185 O   0  0  0  0  0  0  0  0  0  0  0  0
   -9.6634    4.5928  -17.8940 C   0  0  0  0  0  0  0  0  0  0  0  0
   -8.7099    4.5027  -19.0517 C   0  0  0  0  0  0  0  0  0  0  0  0
   -7.3282    5.0049  -18.6430 C   0  0  0  0  0  0  0  0  0  0  0  0
   -6.8640    4.5279  -17.3238 N   0  0  0  0  0  0  0  0  0  0  0  0
   -7.8516    4.8414  -16.2848 C   0  0  0  0  0  0  0  0  0  0  0  0
   -9.1395    4.1015  -16.5826 C   0  0  0  0  0  0  0  0  0  0  0  0
   -5.9804    4.9829  -17.0947 H   0  0  0  0  0  0  0  0  0  0  0  0
   -7.3719    4.5599  -14.9006 C   0  0  0  0  0  0  0  0  0  0  0  0
   -7.2686    5.3205  -13.7571 C   0  0  0  0  0  0  0  0  0  0  0  0
   -6.9458    4.5260  -12.6831 N   0  0  0  0  0  0  0  0  0  0  0  0
   -6.8408    3.3271  -13.2141 C   0  0  0  0  0  0  0  0  0  0  0  0
   -7.0635    3.2718  -14.5547 O   0  0  0  0  0  0  0  0  0  0  0  0
  1  2  2  0  0  0
  2  3  1  0  0  0
  3  4  1  0  0  0
  4  5  1  0  0  0
  5  6  1  0  0  0
  6  9  1  0  0  0
  9 10  2  0  0  0
 10 11  1  0  0  0
 11 12  2  0  0  0
 12 13  1  0  0  0
  6  7  1  0  0  0
  7  2  1  0  0  0
 13  9  1  0  0  0
  5  8  1  0  0  0
M  END
> <minimizedAffinity>
-4.91556

> <minimizedRMSD>
0.81629

$$$$
P67192


 13 14  0  0  0  0  0  0  0  0999 V2000
  -10.4367    4.0977  -17.5888 O   0  0  0  0  0  0  0  0  0  0  0  0
   -9.2542    4.4154  -17.4663 C   0  0  0  0  0  0  0  0  0  0  0  0
   -8.4096    4.7962  -18.6526 C   0  0  0  0  0  0  0  0  0  0  0  0
   -6.9201    4.6276  -18.3872 C   0  0  0  0  0  0  0  0  0  0  0  0
   -6.4964    5.1114  -17.0597 N   0  0  0  0  0  0  0  0  0  0  0  0
   -7.2130    4.3588  -16.0232 C   0  0  0  0  0  0  0  0  0  0  0  0
   -8.7018    4.6335  -16.0949 C   0  0  0  0  0  0  0  0  0  0  0  0
   -6.7136    6.1042  -16.9727 H   0  0  0  0  0  0  0  0  0  0  0  0
   -6.7125    4.7050  -14.6600 C   0  0  0  0  0  0  0  0  0  0  0  0
   -6.3044    5.9425  -14.1163 C   0  0  0  0  0  0  0  0  0  0  0  0
   -6.0552    5.8710  -12.8052 N   0  0  0  0  0  0  0  0  0  0  0  0
   -6.2634    4.5439  -12.4688 O   0  0  0  0  0  0  0  0  0  0  0  0
   -6.6438    3.8595  -13.5732 C   0  0  0  0  0  0  0  0  0  0  0  0
  1  2  2  0  0  0
  2  3  1  0  0  0
  3  4  1  0  0  0
  4  5  1  0  0  0
  5  6  1  0  0  0
  6  9  1  0  0  0
  9 10  1  0  0  0
 10 11  2  0  0  0
 11 12  1  0  0  0
 12 13  1  0  0  0
  6  7  1  0  0  0
  7  2  1  0  0  0
 13  9  2  0  0  0
  5  8  1  0  0  0
M  END
> <minimizedAffinity>
-4.17349

> <minimizedRMSD>
0.95111

$$$$
P67195


 13 14  0  0  0  0  0  0  0  0999 V2000
  -10.9104    5.0805  -18.2826 O   0  0  0  0  0  0  0  0  0  0  0  0
   -9.7871    4.6434  -18.0404 C   0  0  0  0  0  0  0  0  0  0  0  0
   -8.7208    4.5159  -19.0923 C   0  0  0  0  0  0  0  0  0  0  0  0
   -7.3752    4.9845  -18.5441 C   0  0  0  0  0  0  0  0  0  0  0  0
   -7.0652    4.5100  -17.1809 N   0  0  0  0  0  0  0  0  0  0  0  0
   -8.1558    4.8479  -16.2570 C   0  0  0  0  0  0  0  0  0  0  0  0
   -9.4201    4.1340  -16.6843 C   0  0  0  0  0  0  0  0  0  0  0  0
   -6.2041    4.9524  -16.8595 H   0  0  0  0  0  0  0  0  0  0  0  0
   -7.7990    4.5401  -14.8231 C   0  0  0  0  0  0  0  0  0  0  0  0
   -8.3685    5.1282  -13.7060 C   0  0  0  0  0  0  0  0  0  0  0  0
   -7.8968    4.2920  -12.2819 S   0  0  0  0  0  0  0  0  0  0  0  0
   -6.9245    3.2570  -13.2381 C   0  0  0  0  0  0  0  0  0  0  0  0
   -6.9245    3.5045  -14.5278 N   0  0  0  0  0  0  0  0  0  0  0  0
  1  2  2  0  0  0
  2  3  1  0  0  0
  3  4  1  0  0  0
  4  5  1  0  0  0
  5  6  1  0  0  0
  6  9  1  0  0  0
  9 10  2  0  0  0
 10 11  1  0  0  0
 11 12  1  0  0  0
 12 13  2  0  0  0
  6  7  1  0  0  0
  7  2  1  0  0  0
 13  9  1  0  0  0
  5  8  1  0  0  0
M  END
> <minimizedAffinity>
-5.07792

> <minimizedRMSD>
0.89261

$$$$
P67197


 13 14  0  0  0  0  0  0  0  0999 V2000
  -10.4440    4.1267  -17.5920 O   0  0  0  0  0  0  0  0  0  0  0  0
   -9.2652    4.4546  -17.4565 C   0  0  0  0  0  0  0  0  0  0  0  0
   -8.4197    4.8634  -18.6306 C   0  0  0  0  0  0  0  0  0  0  0  0
   -6.9342    4.6626  -18.3750 C   0  0  0  0  0  0  0  0  0  0  0  0
   -6.5001    5.0911  -17.0313 N   0  0  0  0  0  0  0  0  0  0  0  0
   -7.2309    4.3202  -16.0149 C   0  0  0  0  0  0  0  0  0  0  0  0
   -8.7122    4.6400  -16.0815 C   0  0  0  0  0  0  0  0  0  0  0  0
   -6.6959    6.0849  -16.9110 H   0  0  0  0  0  0  0  0  0  0  0  0
   -6.7492    4.6173  -14.6230 C   0  0  0  0  0  0  0  0  0  0  0  0
   -6.5889    5.8244  -13.9698 C   0  0  0  0  0  0  0  0  0  0  0  0
   -6.3107    5.7482  -12.6151 N   0  0  0  0  0  0  0  0  0  0  0  0
   -6.2347    4.4831  -12.2636 C   0  0  0  0  0  0  0  0  0  0  0  0
   -6.4358    3.3386  -13.5175 S   0  0  0  0  0  0  0  0  0  0  0  0
  1  2  2  0  0  0
  2  3  1  0  0  0
  3  4  1  0  0  0
  4  5  1  0  0  0
  5  6  1  0  0  0
  6  9  1  0  0  0
  9 10  2  0  0  0
 10 11  1  0  0  0
 11 12  2  0  0  0
 12 13  1  0  0  0
  6  7  1  0  0  0
  7  2  1  0  0  0
 13  9  1  0  0  0
  5  8  1  0  0  0
M  END
> <minimizedAffinity>
-4.19356

> <minimizedRMSD>
0.91362

$$$$
P67198


 13 14  0  0  0  0  0  0  0  0999 V2000
  -10.7855    4.9564  -17.9341 O   0  0  0  0  0  0  0  0  0  0  0  0
   -9.6249    4.5618  -17.8404 C   0  0  0  0  0  0  0  0  0  0  0  0
   -8.7079    4.4477  -19.0258 C   0  0  0  0  0  0  0  0  0  0  0  0
   -7.3196    4.9750  -18.6733 C   0  0  0  0  0  0  0  0  0  0  0  0
   -6.8109    4.5371  -17.3590 N   0  0  0  0  0  0  0  0  0  0  0  0
   -7.7743    4.8544  -16.2965 C   0  0  0  0  0  0  0  0  0  0  0  0
   -9.0593    4.0926  -16.5391 C   0  0  0  0  0  0  0  0  0  0  0  0
   -5.9301    5.0136  -17.1654 H   0  0  0  0  0  0  0  0  0  0  0  0
   -7.2194    4.5734  -14.9329 C   0  0  0  0  0  0  0  0  0  0  0  0
   -6.9710    5.4675  -13.9134 C   0  0  0  0  0  0  0  0  0  0  0  0
   -6.6703    4.7649  -12.7839 O   0  0  0  0  0  0  0  0  0  0  0  0
   -6.7267    3.4658  -13.1891 C   0  0  0  0  0  0  0  0  0  0  0  0
   -7.0184    3.2962  -14.4571 N   0  0  0  0  0  0  0  0  0  0  0  0
  1  2  2  0  0  0
  2  3  1  0  0  0
  3  4  1  0  0  0
  4  5  1  0  0  0
  5  6  1  0  0  0
  6  9  1  0  0  0
  9 10  2  0  0  0
 10 11  1  0  0  0
 11 12  1  0  0  0
 12 13  2  0  0  0
  6  7  1  0  0  0
  7  2  1  0  0  0
 13  9  1  0  0  0
  5  8  1  0  0  0
M  END
> <minimizedAffinity>
-4.86209

> <minimizedRMSD>
0.82300

$$$$
P67201


 14 15  0  0  0  0  0  0  0  0999 V2000
  -10.6495    4.2332  -18.2019 O   0  0  0  0  0  0  0  0  0  0  0  0
   -9.5229    4.5818  -17.8454 C   0  0  0  0  0  0  0  0  0  0  0  0
   -8.4895    5.0213  -18.8461 C   0  0  0  0  0  0  0  0  0  0  0  0
   -7.0685    4.8381  -18.3396 C   0  0  0  0  0  0  0  0  0  0  0  0
   -6.8875    5.2856  -16.9468 N   0  0  0  0  0  0  0  0  0  0  0  0
   -7.7675    4.4820  -16.0757 C   0  0  0  0  0  0  0  0  0  0  0  0
   -9.2261    4.7472  -16.3913 C   0  0  0  0  0  0  0  0  0  0  0  0
   -7.1340    6.2722  -16.8680 H   0  0  0  0  0  0  0  0  0  0  0  0
   -7.5312    4.7724  -14.6137 C   0  0  0  0  0  0  0  0  0  0  0  0
   -7.5493    6.0134  -13.9293 C   0  0  0  0  0  0  0  0  0  0  0  0
   -7.5382    5.6851  -12.5924 C   0  0  0  0  0  0  0  0  0  0  0  0
   -7.4933    4.3222  -12.5420 N   0  0  0  0  0  0  0  0  0  0  0  0
   -7.4054    3.7550  -13.7517 N   0  0  0  0  0  0  0  0  0  0  0  0
   -7.5226    3.8087  -11.7025 H   0  0  0  0  0  0  0  0  0  0  0  0
  1  2  2  0  0  0
  2  3  1  0  0  0
  3  4  1  0  0  0
  4  5  1  0  0  0
  5  6  1  0  0  0
  6  9  1  0  0  0
  9 10  1  0  0  0
 10 11  2  0  0  0
 11 12  1  0  0  0
 12 13  1  0  0  0
  6  7  1  0  0  0
  7  2  1  0  0  0
 13  9  2  0  0  0
  5  8  1  0  0  0
 12 14  1  0  0  0
M  END
> <minimizedAffinity>
-3.55162

> <minimizedRMSD>
0.18698

$$$$
P67211


 16 17  0  0  0  0  0  0  0  0999 V2000
   -7.0470    5.7704  -15.5952 O   0  0  0  0  0  0  0  0  0  0  0  0
   -7.4975    5.0553  -16.4952 C   0  0  0  0  0  0  0  0  0  0  0  0
   -8.8924    4.5019  -16.4221 C   0  0  0  0  0  0  0  0  0  0  0  0
   -9.3677    3.9078  -17.7377 C   0  0  0  0  0  0  0  0  0  0  0  0
   -8.9119    4.7321  -18.8371 N   0  0  0  0  0  0  0  0  0  0  0  0
   -7.4562    4.7284  -18.9861 C   0  0  0  0  0  0  0  0  0  0  0  0
   -6.6634    4.5828  -17.6670 C   0  0  0  0  0  0  0  0  0  0  0  0
   -9.2200    5.6908  -18.6745 H   0  0  0  0  0  0  0  0  0  0  0  0
   -5.3319    5.0690  -17.6279 O   0  0  0  0  0  0  0  0  0  0  0  0
   -4.9751    5.9981  -18.6272 C   0  0  0  0  0  0  0  0  0  0  0  0
   -3.6767    5.4825  -19.1069 C   0  0  0  0  0  0  0  0  0  0  0  0
   -2.8726    4.4375  -18.7085 C   0  0  0  0  0  0  0  0  0  0  0  0
   -1.7282    4.5477  -19.5137 C   0  0  0  0  0  0  0  0  0  0  0  0
   -1.7952    5.5709  -20.3655 N   0  0  0  0  0  0  0  0  0  0  0  0
   -2.9706    6.1499  -20.0690 N   0  0  0  0  0  0  0  0  0  0  0  0
   -3.2920    6.9736  -20.5019 H   0  0  0  0  0  0  0  0  0  0  0  0
  1  2  2  0  0  0
  2  3  1  0  0  0
  3  4  1  0  0  0
  4  5  1  0  0  0
  5  6  1  0  0  0
  6  7  1  0  0  0
  7  9  1  0  0  0
  9 10  1  0  0  0
 10 11  1  0  0  0
 11 12  2  0  0  0
 12 13  1  0  0  0
 13 14  2  0  0  0
 14 15  1  0  0  0
  7  2  1  0  0  0
 15 11  1  0  0  0
  5  8  1  0  0  0
 15 16  1  0  0  0
M  END
> <minimizedAffinity>
-4.34388

> <minimizedRMSD>
1.55291

$$$$
P67263


 21 23  0  0  0  0  0  0  0  0999 V2000
   -5.0895    4.9961  -19.2658 C   0  0  0  0  0  0  0  0  0  0  0  0
   -5.3249    5.0325  -17.8473 N   0  0  0  0  0  0  0  0  0  0  0  0
   -4.3480    5.3127  -16.8916 C   0  0  0  0  0  0  0  0  0  0  0  0
   -3.1609    5.5259  -17.0924 O   0  0  0  0  0  0  0  0  0  0  0  0
   -5.0384    5.3249  -15.5250 C   0  0  0  0  0  0  0  0  0  0  0  0
   -6.4526    4.9616  -15.8684 C   0  0  0  0  0  0  0  0  0  0  0  0
   -7.5456    4.7523  -15.0396 C   0  0  0  0  0  0  0  0  0  0  0  0
   -8.7622    4.3875  -15.6371 C   0  0  0  0  0  0  0  0  0  0  0  0
   -8.8685    4.2417  -17.0313 C   0  0  0  0  0  0  0  0  0  0  0  0
   -7.7619    4.4561  -17.8536 C   0  0  0  0  0  0  0  0  0  0  0  0
   -6.5677    4.8072  -17.2514 C   0  0  0  0  0  0  0  0  0  0  0  0
   -7.4302    4.9571  -13.5764 C   0  0  0  0  0  0  0  0  0  0  0  0
   -7.0950    6.0184  -13.0772 O   0  0  0  0  0  0  0  0  0  0  0  0
   -7.7618    3.8181  -12.9237 O   0  0  0  0  0  0  0  0  0  0  0  0
   -8.4464    4.0038  -11.6678 C   0  0  0  0  0  0  0  0  0  0  0  0
   -8.3367    2.7194  -10.8505 C   0  0  0  0  0  0  0  0  0  0  0  0
   -8.7063    2.8710   -9.4099 C   0  0  0  0  0  0  0  0  0  0  0  0
   -9.3693    1.9225   -8.6518 C   0  0  0  0  0  0  0  0  0  0  0  0
   -9.6479    2.5028   -7.0678 S   0  0  0  0  0  0  0  0  0  0  0  0
   -8.8046    3.9335   -7.4789 C   0  0  0  0  0  0  0  0  0  0  0  0
   -8.3936    4.0386   -8.7238 N   0  0  0  0  0  0  0  0  0  0  0  0
  1  2  1  0  0  0
  2  3  1  0  0  0
  3  4  2  0  0  0
  3  5  1  0  0  0
  5  6  1  0  0  0
  6  7  2  0  0  0
  7 12  1  0  0  0
 12 13  2  0  0  0
 12 14  1  0  0  0
 14 15  1  0  0  0
 15 16  1  0  0  0
 16 17  1  0  0  0
 17 18  2  0  0  0
 18 19  1  0  0  0
 19 20  1  0  0  0
 20 21  2  0  0  0
  7  8  1  0  0  0
  8  9  2  0  0  0
  9 10  1  0  0  0
 10 11  2  0  0  0
 11  2  1  0  0  0
 11  6  1  0  0  0
 21 17  1  0  0  0
M  END
> <minimizedAffinity>
-7.21422

> <minimizedRMSD>
0.32917

$$$$
P67334


 14 15  0  0  0  0  0  0  0  0999 V2000
   -3.5663    5.1958  -19.9512 C   0  0  0  0  0  0  0  0  0  0  0  0
   -2.3776    4.2130  -19.7585 C   0  0  0  0  0  0  0  0  0  0  0  0
   -1.3383    4.2325  -20.8246 N   0  0  0  0  0  0  0  0  0  0  0  0
   -0.9468    5.6264  -21.1054 C   0  0  0  0  0  0  0  0  0  0  0  0
   -2.1427    6.5832  -21.3018 C   0  0  0  0  0  0  0  0  0  0  0  0
   -3.0646    6.5891  -20.1498 N   0  0  0  0  0  0  0  0  0  0  0  0
   -1.7134    3.8074  -21.6725 H   0  0  0  0  0  0  0  0  0  0  0  0
   -3.8477    7.2154  -20.3366 H   0  0  0  0  0  0  0  0  0  0  0  0
   -6.5121    4.7394  -16.8684 C   0  0  0  0  0  0  0  0  0  0  0  0
   -5.1826    4.8647  -16.4851 C   0  0  0  0  0  0  0  0  0  0  0  0
   -4.1938    5.0132  -17.4595 C   0  0  0  0  0  0  0  0  0  0  0  0
   -4.5608    5.0227  -18.8037 C   0  0  0  0  0  0  0  0  0  0  0  0
   -5.8554    4.8788  -19.1762 N   0  0  0  0  0  0  0  0  0  0  0  0
   -6.7993    4.7568  -18.2189 C   0  0  0  0  0  0  0  0  0  0  0  0
  9 10  2  0  0  0
 10 11  1  0  0  0
 11 12  2  0  0  0
  1 12  1  0  0  0
  1  2  1  0  0  0
  2  3  1  0  0  0
  3  4  1  0  0  0
  4  5  1  0  0  0
  5  6  1  0  0  0
 12 13  1  0  0  0
 13 14  2  0  0  0
 14  9  1  0  0  0
  6  1  1  0  0  0
  3  7  1  0  0  0
  6  8  1  0  0  0
M  END
> <minimizedAffinity>
-4.21204

> <minimizedRMSD>
0.94892

$$$$
P67414


 15 15  0  0  0  0  0  0  0  0999 V2000
   -7.9188    3.3895  -14.7360 O   0  0  0  0  0  0  0  0  0  0  0  0
   -8.1812    4.5808  -15.4655 C   0  0  0  0  0  0  0  0  0  0  0  0
   -9.0163    4.1787  -16.6906 C   0  0  0  0  0  0  0  0  0  0  0  0
   -8.3496    4.2825  -18.0604 C   0  0  0  0  0  0  0  0  0  0  0  0
   -7.0050    4.9975  -18.1134 C   0  0  0  0  0  0  0  0  0  0  0  0
   -6.1687    4.7307  -16.9491 N   0  0  0  0  0  0  0  0  0  0  0  0
   -6.8438    5.2733  -15.7772 C   0  0  0  0  0  0  0  0  0  0  0  0
   -5.2605    5.1804  -17.0647 H   0  0  0  0  0  0  0  0  0  0  0  0
   -7.3405    3.6204  -13.4488 C   0  0  0  0  0  0  0  0  0  0  0  0
   -6.2624    2.5646  -13.2353 C   0  0  0  0  0  0  0  0  0  0  0  0
   -5.0948    2.8751  -14.0003 O   0  0  0  0  0  0  0  0  0  0  0  0
   -4.7229    3.7174  -13.6951 H   0  0  0  0  0  0  0  0  0  0  0  0
   -4.3366    2.0709   -9.9010 C   0  0  0  0  0  0  0  0  0  0  0  0
   -4.6482    2.3853  -11.3152 C   0  0  0  0  0  0  0  0  0  0  0  0
   -5.8976    2.3977  -11.7984 C   0  0  0  0  0  0  0  0  0  0  0  0
 13 14  1  0  0  0
 14 15  2  0  0  0
 15 10  1  0  0  0
 10 11  1  0  0  0
 10  9  1  0  0  0
  9  1  1  0  0  0
  2  1  1  0  0  0
  2  3  1  0  0  0
  3  4  1  0  0  0
  4  5  1  0  0  0
  5  6  1  0  0  0
  6  7  1  0  0  0
  7  2  1  0  0  0
 11 12  1  0  0  0
  6  8  1  0  0  0
M  END
> <minimizedAffinity>
-4.33258

> <minimizedRMSD>
1.11875

$$$$
P67513


 17 19  0  0  0  0  0  0  0  0999 V2000
   -8.8455    4.1841  -15.8451 C   0  0  0  0  0  0  0  0  0  0  0  0
   -9.2894    3.9221  -17.1450 C   0  0  0  0  0  0  0  0  0  0  0  0
   -8.4525    4.0878  -18.2470 C   0  0  0  0  0  0  0  0  0  0  0  0
   -7.1801    4.5795  -17.9753 C   0  0  0  0  0  0  0  0  0  0  0  0
   -6.1385    4.8913  -18.8016 N   0  0  0  0  0  0  0  0  0  0  0  0
   -5.1377    5.4483  -18.0365 C   0  0  0  0  0  0  0  0  0  0  0  0
   -5.4492    5.4004  -16.7540 N   0  0  0  0  0  0  0  0  0  0  0  0
   -6.7181    4.8811  -16.7028 C   0  0  0  0  0  0  0  0  0  0  0  0
   -7.5543    4.6626  -15.6036 C   0  0  0  0  0  0  0  0  0  0  0  0
   -6.1081    4.7438  -19.7745 H   0  0  0  0  0  0  0  0  0  0  0  0
   -3.9072    6.0843  -18.6070 C   0  0  0  0  0  0  0  0  0  0  0  0
   -3.4832    5.5098  -19.9832 C   0  0  0  0  0  0  0  0  0  0  0  0
   -3.4800    6.4383  -21.1373 N   0  0  0  0  0  0  0  0  0  0  0  0
   -4.8024    7.0807  -21.2683 C   0  0  0  0  0  0  0  0  0  0  0  0
   -5.2435    7.9787  -20.0992 C   0  0  0  0  0  0  0  0  0  0  0  0
   -4.1305    7.9154  -18.6616 S   0  0  0  0  0  0  0  0  0  0  0  0
   -3.2707    5.9181  -21.9894 H   0  0  0  0  0  0  0  0  0  0  0  0
  1  2  2  0  0  0
  2  3  1  0  0  0
  3  4  2  0  0  0
  4  5  1  0  0  0
  5  6  1  0  0  0
 11  6  1  0  0  0
 11 12  1  0  0  0
 12 13  1  0  0  0
 13 14  1  0  0  0
 14 15  1  0  0  0
 15 16  1  0  0  0
  6  7  2  0  0  0
  7  8  1  0  0  0
  8  9  2  0  0  0
  9  1  1  0  0  0
  8  4  1  0  0  0
 16 11  1  0  0  0
  5 10  1  0  0  0
 13 17  1  0  0  0
M  END
> <minimizedAffinity>
-6.19335

> <minimizedRMSD>
0.40436

$$$$
P67587


 13 14  0  0  0  0  0  0  0  0999 V2000
  -10.5869    4.0973  -17.8609 O   0  0  0  0  0  0  0  0  0  0  0  0
   -9.5125    4.3725  -17.3614 C   0  0  0  0  0  0  0  0  0  0  0  0
   -8.3488    4.8541  -18.1150 C   0  0  0  0  0  0  0  0  0  0  0  0
   -7.3065    4.7067  -17.2837 C   0  0  0  0  0  0  0  0  0  0  0  0
   -7.7039    4.2584  -16.0221 N   0  0  0  0  0  0  0  0  0  0  0  0
   -9.1123    4.1969  -16.0409 N   0  0  0  0  0  0  0  0  0  0  0  0
   -7.1152    4.0299  -15.2668 H   0  0  0  0  0  0  0  0  0  0  0  0
   -9.7018    4.0561  -15.2651 H   0  0  0  0  0  0  0  0  0  0  0  0
   -5.9825    4.9202  -17.7880 C   0  0  0  0  0  0  0  0  0  0  0  0
   -5.6230    4.9258  -19.0627 N   0  0  0  0  0  0  0  0  0  0  0  0
   -4.2584    5.0411  -19.1994 C   0  0  0  0  0  0  0  0  0  0  0  0
   -3.5592    5.1683  -18.0241 C   0  0  0  0  0  0  0  0  0  0  0  0
   -4.6440    5.1344  -16.7003 S   0  0  0  0  0  0  0  0  0  0  0  0
  1  2  2  0  0  0
  2  3  1  0  0  0
  3  4  2  0  0  0
  4  9  1  0  0  0
  9 10  2  0  0  0
 10 11  1  0  0  0
 11 12  2  0  0  0
 12 13  1  0  0  0
  4  5  1  0  0  0
  5  6  1  0  0  0
  6  2  1  0  0  0
 13  9  1  0  0  0
  5  7  1  0  0  0
  6  8  1  0  0  0
M  END
> <minimizedAffinity>
-5.21603

> <minimizedRMSD>
0.86829

$$$$
P67588


 13 14  0  0  0  0  0  0  0  0999 V2000
  -10.5717    4.0670  -17.9021 O   0  0  0  0  0  0  0  0  0  0  0  0
   -9.5241    4.3754  -17.3664 C   0  0  0  0  0  0  0  0  0  0  0  0
   -8.3694    4.9482  -18.0660 C   0  0  0  0  0  0  0  0  0  0  0  0
   -7.3271    4.7725  -17.2376 C   0  0  0  0  0  0  0  0  0  0  0  0
   -7.7324    4.2877  -15.9851 N   0  0  0  0  0  0  0  0  0  0  0  0
   -9.1357    4.1423  -16.0573 N   0  0  0  0  0  0  0  0  0  0  0  0
   -7.1557    4.0891  -15.2124 H   0  0  0  0  0  0  0  0  0  0  0  0
   -9.7330    3.9151  -15.3084 H   0  0  0  0  0  0  0  0  0  0  0  0
   -5.9652    4.9385  -17.6547 C   0  0  0  0  0  0  0  0  0  0  0  0
   -4.8681    5.0785  -16.8282 C   0  0  0  0  0  0  0  0  0  0  0  0
   -3.4356    5.1668  -17.7738 S   0  0  0  0  0  0  0  0  0  0  0  0
   -4.3802    5.0115  -19.1924 C   0  0  0  0  0  0  0  0  0  0  0  0
   -5.6749    4.9138  -19.0110 N   0  0  0  0  0  0  0  0  0  0  0  0
  1  2  2  0  0  0
  2  3  1  0  0  0
  3  4  2  0  0  0
  4  9  1  0  0  0
  9 10  2  0  0  0
 10 11  1  0  0  0
 11 12  1  0  0  0
 12 13  2  0  0  0
  4  5  1  0  0  0
  5  6  1  0  0  0
  6  2  1  0  0  0
 13  9  1  0  0  0
  5  7  1  0  0  0
  6  8  1  0  0  0
M  END
> <minimizedAffinity>
-5.22483

> <minimizedRMSD>
0.77344

$$$$
P67604


 19 20  0  0  0  0  0  0  0  0999 V2000
   -6.0896    5.3518  -17.2992 N   0  0  0  0  0  0  0  0  0  0  0  0
   -5.6775    5.1937  -18.7914 C   0  0  0  0  0  0  0  0  0  0  0  0
   -6.0976    4.4875  -19.6221 O   0  0  0  0  0  0  0  0  0  0  0  0
   -5.5258    5.9687  -16.7789 H   0  0  0  0  0  0  0  0  0  0  0  0
   -5.8850    4.4957  -14.3704 C   0  0  0  0  0  0  0  0  0  0  0  0
   -7.0458    4.4397  -15.3080 C   0  0  0  0  0  0  0  0  0  0  0  0
   -8.2816    4.0251  -14.8360 N   0  0  0  0  0  0  0  0  0  0  0  0
   -9.1493    4.0836  -15.9342 N   0  0  0  0  0  0  0  0  0  0  0  0
   -8.4996    4.6095  -17.0325 C   0  0  0  0  0  0  0  0  0  0  0  0
   -9.0376    4.9382  -18.0704 O   0  0  0  0  0  0  0  0  0  0  0  0
   -7.0884    4.7838  -16.6067 C   0  0  0  0  0  0  0  0  0  0  0  0
   -8.5037    3.7469  -13.9181 H   0  0  0  0  0  0  0  0  0  0  0  0
  -10.0892    3.7911  -15.9240 H   0  0  0  0  0  0  0  0  0  0  0  0
   -4.6301    6.2500  -19.0589 C   0  0  0  0  0  0  0  0  0  0  0  0
   -3.2984    5.8948  -18.6001 N   0  0  0  0  0  0  0  0  0  0  0  0
   -2.2412    5.5516  -19.3914 C   0  0  0  0  0  0  0  0  0  0  0  0
   -1.1454    5.5185  -18.5647 C   0  0  0  0  0  0  0  0  0  0  0  0
   -1.6426    5.8015  -17.2841 C   0  0  0  0  0  0  0  0  0  0  0  0
   -2.9466    6.0788  -17.3030 N   0  0  0  0  0  0  0  0  0  0  0  0
  5  6  1  0  0  0
  6  7  1  0  0  0
  7  8  1  0  0  0
  8  9  1  0  0  0
  9 10  2  0  0  0
  9 11  1  0  0  0
 11  1  1  0  0  0
  1  2  1  0  0  0
  2  3  2  0  0  0
  2 14  1  0  0  0
 14 15  1  0  0  0
 15 16  1  0  0  0
 16 17  2  0  0  0
 17 18  1  0  0  0
 18 19  2  0  0  0
 11  6  2  0  0  0
 19 15  1  0  0  0
  7 12  1  0  0  0
  8 13  1  0  0  0
  1  4  1  0  0  0
M  END
> <minimizedAffinity>
-4.90837

> <minimizedRMSD>
0.92016

$$$$
P67657


 22 23  0  0  0  0  0  0  0  0999 V2000
   -6.6567    4.8889  -11.3157 N   0  0  0  0  0  0  0  0  0  0  0  0
   -8.0451    5.4306  -10.9502 C   0  0  0  0  0  0  0  0  0  0  0  0
   -8.8048    6.0455  -11.5813 O   0  0  0  0  0  0  0  0  0  0  0  0
   -6.2387    4.3264  -10.6242 H   0  0  0  0  0  0  0  0  0  0  0  0
   -8.3151    5.1533   -9.5417 C   0  0  0  0  0  0  0  0  0  0  0  0
   -8.3446    6.1244   -8.5110 C   0  0  0  0  0  0  0  0  0  0  0  0
   -8.5542    5.5996   -7.3006 N   0  0  0  0  0  0  0  0  0  0  0  0
   -8.7423    4.2955   -7.5651 N   0  0  0  0  0  0  0  0  0  0  0  0
   -8.6111    3.9643   -8.8895 C   0  0  0  0  0  0  0  0  0  0  0  0
   -8.8950    2.5759   -9.3422 C   0  0  0  0  0  0  0  0  0  0  0  0
   -8.8796    1.6287   -8.2360 N   0  0  0  0  0  0  0  0  0  0  0  0
   -9.6514    2.0912   -7.0847 C   0  0  0  0  0  0  0  0  0  0  0  0
   -9.0632    3.3654   -6.4977 C   0  0  0  0  0  0  0  0  0  0  0  0
   -7.9130    1.4843   -7.9438 H   0  0  0  0  0  0  0  0  0  0  0  0
   -5.8664    5.0689  -12.5037 C   0  0  0  0  0  0  0  0  0  0  0  0
   -5.0102    4.0543  -14.5850 C   0  0  0  0  0  0  0  0  0  0  0  0
   -6.2932    4.2547  -13.7520 C   0  0  0  0  0  0  0  0  0  0  0  0
   -6.8391    2.8860  -13.3069 C   0  0  0  0  0  0  0  0  0  0  0  0
   -7.3763    5.0181  -14.5669 C   0  0  0  0  0  0  0  0  0  0  0  0
   -7.6375    4.4860  -15.9707 C   0  0  0  0  0  0  0  0  0  0  0  0
   -8.9027    4.0204  -16.0679 F   0  0  0  0  0  0  0  0  0  0  0  0
   -7.5322    5.4914  -16.8789 F   0  0  0  0  0  0  0  0  0  0  0  0
 16 17  1  0  0  0
 17 18  1  0  0  0
 17 15  1  0  0  0
 15  1  1  0  0  0
  1  2  1  0  0  0
  2  3  2  0  0  0
  2  5  1  0  0  0
  5  6  1  0  0  0
  6  7  2  0  0  0
  7  8  1  0  0  0
  8  9  1  0  0  0
  9 10  1  0  0  0
 10 11  1  0  0  0
 11 12  1  0  0  0
 12 13  1  0  0  0
 17 19  1  0  0  0
 19 20  1  0  0  0
 20 21  1  0  0  0
 20 22  1  0  0  0
  9  5  2  0  0  0
 13  8  1  0  0  0
  1  4  1  0  0  0
 11 14  1  0  0  0
M  END
> <minimizedAffinity>
-5.65750

> <minimizedRMSD>
0.45818

$$$$
P67801


 26 28  0  0  0  0  0  0  0  0999 V2000
   -4.3796    5.3260  -15.4589 S   0  0  0  0  0  0  0  0  0  0  0  0
   -3.9637    6.0179  -14.2606 O   0  0  0  0  0  0  0  0  0  0  0  0
   -4.7605    3.9404  -15.4422 O   0  0  0  0  0  0  0  0  0  0  0  0
   -3.0950    5.4601  -16.6693 C   0  0  0  0  0  0  0  0  0  0  0  0
   -3.4073    5.2213  -18.0056 C   0  0  0  0  0  0  0  0  0  0  0  0
   -2.4004    5.3027  -18.9625 C   0  0  0  0  0  0  0  0  0  0  0  0
   -1.0686    5.6064  -18.6049 C   0  0  0  0  0  0  0  0  0  0  0  0
   -0.7685    5.8684  -17.2486 C   0  0  0  0  0  0  0  0  0  0  0  0
   -1.7936    5.7722  -16.2860 C   0  0  0  0  0  0  0  0  0  0  0  0
    0.6205    6.1969  -16.7366 C   0  0  0  0  0  0  0  0  0  0  0  0
    1.4924    6.9975  -17.6997 C   0  0  0  0  0  0  0  0  0  0  0  0
    2.1369    6.1301  -18.7795 C   0  0  0  0  0  0  0  0  0  0  0  0
    1.2611    5.1249  -19.3691 N   0  0  0  0  0  0  0  0  0  0  0  0
   -0.0515    5.6540  -19.7298 C   0  0  0  0  0  0  0  0  0  0  0  0
    1.1333    4.3696  -18.6956 H   0  0  0  0  0  0  0  0  0  0  0  0
   -5.5772    6.2694  -16.1533 N   0  0  0  0  0  0  0  0  0  0  0  0
   -5.7819    7.0041  -15.4760 H   0  0  0  0  0  0  0  0  0  0  0  0
   -7.5771    4.3712  -14.4260 C   0  0  0  0  0  0  0  0  0  0  0  0
   -7.9372    5.3880  -15.4981 C   0  0  0  0  0  0  0  0  0  0  0  0
   -9.1825    4.9566  -16.1361 N   0  0  0  0  0  0  0  0  0  0  0  0
   -9.3122    4.3782  -17.3600 C   0  0  0  0  0  0  0  0  0  0  0  0
  -10.3888    3.8949  -17.6969 O   0  0  0  0  0  0  0  0  0  0  0  0
   -8.1563    4.4972  -18.3153 C   0  0  0  0  0  0  0  0  0  0  0  0
   -6.7949    4.6868  -17.6617 C   0  0  0  0  0  0  0  0  0  0  0  0
   -6.8826    5.7370  -16.5779 C   0  0  0  0  0  0  0  0  0  0  0  0
  -10.0122    5.1002  -15.6259 H   0  0  0  0  0  0  0  0  0  0  0  0
 19 18  1  0  0  0
 19 20  1  0  0  0
 20 21  1  0  0  0
 21 22  2  0  0  0
 21 23  1  0  0  0
 23 24  1  0  0  0
 24 25  1  0  0  0
 25 16  1  0  0  0
 16  1  1  0  0  0
  1  2  2  0  0  0
  1  3  2  0  0  0
  1  4  1  0  0  0
  4  5  2  0  0  0
  5  6  1  0  0  0
  6  7  2  0  0  0
  7  8  1  0  0  0
  8  9  2  0  0  0
  8 10  1  0  0  0
 10 11  1  0  0  0
 11 12  1  0  0  0
 12 13  1  0  0  0
 13 14  1  0  0  0
 25 19  1  0  0  0
  9  4  1  0  0  0
 14  7  1  0  0  0
 20 26  1  0  0  0
 16 17  1  0  0  0
 13 15  1  0  0  0
M  END
> <minimizedAffinity>
-5.86017

> <minimizedRMSD>
0.69918

$$$$
P67822


 19 20  0  0  0  0  0  0  0  0999 V2000
   -6.6998    4.5668  -16.0303 C   0  0  0  0  0  0  0  0  0  0  0  0
   -8.0708    4.3871  -15.8193 C   0  0  0  0  0  0  0  0  0  0  0  0
   -8.9662    4.3228  -16.8804 C   0  0  0  0  0  0  0  0  0  0  0  0
   -8.5079    4.4028  -18.1896 C   0  0  0  0  0  0  0  0  0  0  0  0
   -7.1347    4.5866  -18.3782 C   0  0  0  0  0  0  0  0  0  0  0  0
   -6.4050    4.7605  -19.5186 N   0  0  0  0  0  0  0  0  0  0  0  0
   -5.0816    4.9236  -19.3077 N   0  0  0  0  0  0  0  0  0  0  0  0
   -4.9752    4.8713  -17.9772 C   0  0  0  0  0  0  0  0  0  0  0  0
   -6.2167    4.6703  -17.3385 C   0  0  0  0  0  0  0  0  0  0  0  0
   -6.8086    4.7665  -20.4165 H   0  0  0  0  0  0  0  0  0  0  0  0
   -5.8968    3.3457  -14.0392 N   0  0  0  0  0  0  0  0  0  0  0  0
   -5.8298    4.6533  -14.8465 C   0  0  0  0  0  0  0  0  0  0  0  0
   -5.2803    5.6553  -14.6177 O   0  0  0  0  0  0  0  0  0  0  0  0
   -6.3698    2.6082  -14.4882 H   0  0  0  0  0  0  0  0  0  0  0  0
   -5.3743    3.0205  -12.7178 C   0  0  0  0  0  0  0  0  0  0  0  0
   -6.2309    1.8669  -12.1910 C   0  0  0  0  0  0  0  0  0  0  0  0
   -5.4994    4.2108  -11.7508 C   0  0  0  0  0  0  0  0  0  0  0  0
   -3.4009    1.9536  -14.0682 C   0  0  0  0  0  0  0  0  0  0  0  0
   -3.8820    2.6196  -12.7878 C   0  0  0  0  0  0  0  0  0  0  0  0
 18 19  1  0  0  0
 19 15  1  0  0  0
 15 16  1  0  0  0
 15 17  1  0  0  0
 15 11  1  0  0  0
 11 12  1  0  0  0
 12 13  2  0  0  0
 12  1  1  0  0  0
  1  2  2  0  0  0
  2  3  1  0  0  0
  3  4  2  0  0  0
  4  5  1  0  0  0
  5  6  1  0  0  0
  6  7  1  0  0  0
  7  8  2  0  0  0
  8  9  1  0  0  0
  9  1  1  0  0  0
  9  5  2  0  0  0
 11 14  1  0  0  0
  6 10  1  0  0  0
M  END
> <minimizedAffinity>
-6.16894

> <minimizedRMSD>
1.10865

$$$$
P67830


 18 19  0  0  0  0  0  0  0  0999 V2000
   -7.3475    4.5798  -16.1405 C   0  0  0  0  0  0  0  0  0  0  0  0
   -8.7176    4.3210  -16.2401 C   0  0  0  0  0  0  0  0  0  0  0  0
   -9.3326    4.1830  -17.4808 C   0  0  0  0  0  0  0  0  0  0  0  0
   -8.5868    4.2686  -18.6523 C   0  0  0  0  0  0  0  0  0  0  0  0
   -7.2178    4.5205  -18.5223 C   0  0  0  0  0  0  0  0  0  0  0  0
   -6.2491    4.7154  -19.4645 N   0  0  0  0  0  0  0  0  0  0  0  0
   -5.0192    4.9390  -18.9542 N   0  0  0  0  0  0  0  0  0  0  0  0
   -5.2264    4.9137  -17.6348 C   0  0  0  0  0  0  0  0  0  0  0  0
   -6.5750    4.6736  -17.3014 C   0  0  0  0  0  0  0  0  0  0  0  0
   -6.4315    4.6948  -20.4317 H   0  0  0  0  0  0  0  0  0  0  0  0
   -6.1349    3.4224  -14.3534 N   0  0  0  0  0  0  0  0  0  0  0  0
   -6.7586    4.7467  -14.8043 C   0  0  0  0  0  0  0  0  0  0  0  0
   -6.8791    5.7551  -14.2378 O   0  0  0  0  0  0  0  0  0  0  0  0
   -6.0852    2.7312  -15.0528 H   0  0  0  0  0  0  0  0  0  0  0  0
   -5.6072    3.0218  -13.0684 C   0  0  0  0  0  0  0  0  0  0  0  0
   -6.6031    2.0451  -12.4571 C   0  0  0  0  0  0  0  0  0  0  0  0
   -3.5155    2.1367  -11.9014 C   0  0  0  0  0  0  0  0  0  0  0  0
   -4.2078    2.4192  -13.2264 C   0  0  0  0  0  0  0  0  0  0  0  0
 17 18  1  0  0  0
 18 15  1  0  0  0
 15 16  1  0  0  0
 15 11  1  0  0  0
 11 12  1  0  0  0
 12 13  2  0  0  0
 12  1  1  0  0  0
  1  2  2  0  0  0
  2  3  1  0  0  0
  3  4  2  0  0  0
  4  5  1  0  0  0
  5  6  1  0  0  0
  6  7  1  0  0  0
  7  8  2  0  0  0
  8  9  1  0  0  0
  9  1  1  0  0  0
  9  5  2  0  0  0
 11 14  1  0  0  0
  6 10  1  0  0  0
M  END
> <minimizedAffinity>
-5.82916

> <minimizedRMSD>
0.48202

$$$$
P67831


 22 23  0  0  0  0  0  0  0  0999 V2000
   -4.8741    5.3377  -15.1046 N   0  0  0  0  0  0  0  0  0  0  0  0
   -4.1526    5.0302  -16.4337 C   0  0  0  0  0  0  0  0  0  0  0  0
   -3.0196    4.8673  -16.6588 O   0  0  0  0  0  0  0  0  0  0  0  0
   -5.8398    5.5089  -15.1900 H   0  0  0  0  0  0  0  0  0  0  0  0
   -5.1970    4.8553  -17.4688 C   0  0  0  0  0  0  0  0  0  0  0  0
   -4.9606    4.9359  -18.7914 N   0  0  0  0  0  0  0  0  0  0  0  0
   -6.1763    4.7356  -19.3351 N   0  0  0  0  0  0  0  0  0  0  0  0
   -7.1924    4.5544  -18.4401 C   0  0  0  0  0  0  0  0  0  0  0  0
   -8.5688    4.3553  -18.6026 C   0  0  0  0  0  0  0  0  0  0  0  0
   -9.3574    4.2786  -17.4586 C   0  0  0  0  0  0  0  0  0  0  0  0
   -8.7736    4.3250  -16.2045 C   0  0  0  0  0  0  0  0  0  0  0  0
   -7.3940    4.4431  -16.0720 C   0  0  0  0  0  0  0  0  0  0  0  0
   -6.5860    4.6188  -17.2055 C   0  0  0  0  0  0  0  0  0  0  0  0
   -6.3225    4.7209  -20.3086 H   0  0  0  0  0  0  0  0  0  0  0  0
   -4.3674    5.4146  -13.7666 C   0  0  0  0  0  0  0  0  0  0  0  0
   -5.0777    4.3497  -12.8754 C   0  0  0  0  0  0  0  0  0  0  0  0
   -3.8939    2.2183  -13.6497 C   0  0  0  0  0  0  0  0  0  0  0  0
   -5.2088    3.0111  -13.6784 C   0  0  0  0  0  0  0  0  0  0  0  0
   -6.3337    2.0695  -13.2806 C   0  0  0  0  0  0  0  0  0  0  0  0
   -6.4037    4.8704  -12.2001 C   0  0  0  0  0  0  0  0  0  0  0  0
   -6.7303    6.3460  -12.4940 C   0  0  0  0  0  0  0  0  0  0  0  0
   -6.3236    4.7603  -10.6630 C   0  0  0  0  0  0  0  0  0  0  0  0
 17 18  1  0  0  0
 18 19  1  0  0  0
 18 16  1  0  0  0
 16 15  1  0  0  0
 15  1  1  0  0  0
  1  2  1  0  0  0
  2  3  2  0  0  0
  2  5  1  0  0  0
  5  6  2  0  0  0
  6  7  1  0  0  0
  7  8  1  0  0  0
  8  9  2  0  0  0
  9 10  1  0  0  0
 10 11  2  0  0  0
 11 12  1  0  0  0
 12 13  2  0  0  0
 16 20  1  0  0  0
 20 21  1  0  0  0
 20 22  1  0  0  0
 13  5  1  0  0  0
 13  8  1  0  0  0
  1  4  1  0  0  0
  7 14  1  0  0  0
M  END
> <minimizedAffinity>
-5.80872

> <minimizedRMSD>
0.64787

$$$$
P67838


 20 21  0  0  0  0  0  0  0  0999 V2000
   -7.4695    3.1184  -14.0524 N   0  0  0  0  0  0  0  0  0  0  0  0
   -7.4439    4.5042  -14.7189 C   0  0  0  0  0  0  0  0  0  0  0  0
   -7.1186    5.5397  -14.2958 O   0  0  0  0  0  0  0  0  0  0  0  0
   -7.7172    2.3775  -14.6516 H   0  0  0  0  0  0  0  0  0  0  0  0
   -7.8576    4.4198  -16.1383 C   0  0  0  0  0  0  0  0  0  0  0  0
   -9.1982    4.2248  -16.5076 C   0  0  0  0  0  0  0  0  0  0  0  0
   -9.5607    4.1678  -17.8549 C   0  0  0  0  0  0  0  0  0  0  0  0
   -8.6093    4.3071  -18.8655 C   0  0  0  0  0  0  0  0  0  0  0  0
   -7.2891    4.5301  -18.4687 C   0  0  0  0  0  0  0  0  0  0  0  0
   -6.1571    4.7709  -19.1996 N   0  0  0  0  0  0  0  0  0  0  0  0
   -5.0430    4.9348  -18.4595 N   0  0  0  0  0  0  0  0  0  0  0  0
   -5.4966    4.8259  -17.2067 C   0  0  0  0  0  0  0  0  0  0  0  0
   -6.8890    4.5906  -17.1421 C   0  0  0  0  0  0  0  0  0  0  0  0
   -6.1569    4.8201  -20.1828 H   0  0  0  0  0  0  0  0  0  0  0  0
   -7.1897    2.7273  -12.6926 C   0  0  0  0  0  0  0  0  0  0  0  0
   -5.9212    1.8802  -12.5873 C   0  0  0  0  0  0  0  0  0  0  0  0
   -4.6784    2.4772  -13.2385 C   0  0  0  0  0  0  0  0  0  0  0  0
   -3.6539    4.8783  -13.8840 C   0  0  0  0  0  0  0  0  0  0  0  0
   -4.1132    3.9801  -12.3835 S   0  0  0  0  0  0  0  0  0  0  0  0
   -2.7091    3.6007  -11.5824 O   0  0  0  0  0  0  0  0  0  0  0  0
 19 18  1  0  0  0
 19 20  1  0  0  0
 19 17  1  0  0  0
 17 16  1  0  0  0
 16 15  1  0  0  0
 15  1  1  0  0  0
  1  2  1  0  0  0
  2  3  2  0  0  0
  2  5  1  0  0  0
  5  6  2  0  0  0
  6  7  1  0  0  0
  7  8  2  0  0  0
  8  9  1  0  0  0
  9 10  1  0  0  0
 10 11  1  0  0  0
 11 12  2  0  0  0
 12 13  1  0  0  0
 13  5  1  0  0  0
 13  9  2  0  0  0
  1  4  1  0  0  0
 10 14  1  0  0  0
M  CHG 1  19   1
M  CHG 1  20  -1
M  END
> <minimizedAffinity>
-5.63414

> <minimizedRMSD>
0.94348

$$$$
P68171


 24 26  0  0  0  0  0  0  0  0999 V2000
   -9.2782    5.2702  -13.9705 O   0  0  0  0  0  0  0  0  0  0  0  0
   -8.2946    5.0026  -13.4024 C   0  0  0  0  0  0  0  0  0  0  0  0
   -6.8692    4.7274  -13.9390 N   0  0  0  0  0  0  0  0  0  0  0  0
   -6.1850    4.5965  -13.2433 H   0  0  0  0  0  0  0  0  0  0  0  0
   -8.2180    4.9750  -11.9210 C   0  0  0  0  0  0  0  0  0  0  0  0
   -8.0750    6.2192  -11.1726 C   0  0  0  0  0  0  0  0  0  0  0  0
   -8.1025    6.1680   -9.8297 C   0  0  0  0  0  0  0  0  0  0  0  0
   -8.2613    4.9319   -9.2054 N   0  0  0  0  0  0  0  0  0  0  0  0
   -8.3313    4.6298   -7.8705 C   0  0  0  0  0  0  0  0  0  0  0  0
   -8.4839    3.2630   -7.8138 C   0  0  0  0  0  0  0  0  0  0  0  0
   -8.5155    2.7239   -9.0698 N   0  0  0  0  0  0  0  0  0  0  0  0
   -8.3782    3.7318   -9.8957 C   0  0  0  0  0  0  0  0  0  0  0  0
   -8.3487    3.7803  -11.3142 C   0  0  0  0  0  0  0  0  0  0  0  0
   -6.3982    4.6350  -15.2427 C   0  0  0  0  0  0  0  0  0  0  0  0
   -7.2598    4.5246  -16.3331 C   0  0  0  0  0  0  0  0  0  0  0  0
   -6.7482    4.5855  -17.6296 C   0  0  0  0  0  0  0  0  0  0  0  0
   -5.3850    4.8002  -17.8188 C   0  0  0  0  0  0  0  0  0  0  0  0
   -4.5103    4.8185  -16.7391 C   0  0  0  0  0  0  0  0  0  0  0  0
   -5.0190    4.7243  -15.4460 C   0  0  0  0  0  0  0  0  0  0  0  0
   -4.8720    5.0349  -19.0645 O   0  0  0  0  0  0  0  0  0  0  0  0
   -4.6617    6.4471  -19.2158 C   0  0  0  0  0  0  0  0  0  0  0  0
   -3.6430    6.7165  -20.3154 C   0  0  0  0  0  0  0  0  0  0  0  0
   -3.3625    8.1146  -20.3981 O   0  0  0  0  0  0  0  0  0  0  0  0
   -4.1788    8.5966  -20.6038 H   0  0  0  0  0  0  0  0  0  0  0  0
  1  2  2  0  0  0
  2  3  1  0  0  0
  3 14  1  0  0  0
 14 15  2  0  0  0
 15 16  1  0  0  0
 16 17  2  0  0  0
 17 20  1  0  0  0
 20 21  1  0  0  0
 21 22  1  0  0  0
 22 23  1  0  0  0
 17 18  1  0  0  0
 18 19  2  0  0  0
  2  5  1  0  0  0
  5  6  1  0  0  0
  6  7  2  0  0  0
  7  8  1  0  0  0
  8  9  1  0  0  0
  9 10  2  0  0  0
 10 11  1  0  0  0
 11 12  2  0  0  0
 12 13  1  0  0  0
 19 14  1  0  0  0
 13  5  2  0  0  0
 12  8  1  0  0  0
  3  4  1  0  0  0
 23 24  1  0  0  0
M  END
> <minimizedAffinity>
-6.12943

> <minimizedRMSD>
0.88783

$$$$
P68213


 13 15  0  0  0  0  0  0  0  0999 V2000
   -5.4672    5.4793  -18.1089 C   0  0  0  0  0  0  0  0  0  0  0  0
   -4.6523    4.6999  -19.0496 N   0  0  0  0  0  0  0  0  0  0  0  0
   -3.2458    5.0049  -18.8195 C   0  0  0  0  0  0  0  0  0  0  0  0
   -3.1795    5.2651  -17.3517 C   0  0  0  0  0  0  0  0  0  0  0  0
   -3.8143    4.3500  -16.3370 C   0  0  0  0  0  0  0  0  0  0  0  0
   -4.5659    5.5422  -16.8937 C   0  0  0  0  0  0  0  0  0  0  0  0
   -4.9041    4.9464  -20.0068 H   0  0  0  0  0  0  0  0  0  0  0  0
   -8.6734    4.3209  -16.3864 C   0  0  0  0  0  0  0  0  0  0  0  0
   -9.3917    3.9743  -17.5131 C   0  0  0  0  0  0  0  0  0  0  0  0
   -8.9197    4.0629  -18.7707 N   0  0  0  0  0  0  0  0  0  0  0  0
   -7.6560    4.5305  -18.9080 C   0  0  0  0  0  0  0  0  0  0  0  0
   -6.8334    4.9088  -17.8441 C   0  0  0  0  0  0  0  0  0  0  0  0
   -7.3803    4.7975  -16.5593 C   0  0  0  0  0  0  0  0  0  0  0  0
  8  9  2  0  0  0
  9 10  1  0  0  0
 10 11  2  0  0  0
 11 12  1  0  0  0
  1 12  1  0  0  0
  1  2  1  0  0  0
  2  3  1  0  0  0
  4  3  1  0  0  0
  4  5  1  0  0  0
  6  5  1  0  0  0
 12 13  2  0  0  0
 13  8  1  0  0  0
  6  1  1  0  0  0
  6  4  1  0  0  0
  2  7  1  0  0  0
M  END
> <minimizedAffinity>
-5.13541

> <minimizedRMSD>
0.62864

$$$$
P68309


 20 22  0  0  0  0  0  0  0  0999 V2000
   -7.0035    5.4498  -16.9839 N   0  0  0  0  0  0  0  0  0  0  0  0
   -7.5130    5.3661  -18.3845 C   0  0  0  0  0  0  0  0  0  0  0  0
   -8.7061    4.4206  -18.3498 C   0  0  0  0  0  0  0  0  0  0  0  0
   -8.9725    4.1696  -16.8784 C   0  0  0  0  0  0  0  0  0  0  0  0
   -7.6106    4.3367  -16.2150 C   0  0  0  0  0  0  0  0  0  0  0  0
   -7.7776    4.5670  -14.7197 C   0  0  0  0  0  0  0  0  0  0  0  0
   -8.2490    5.7574  -14.2856 N   0  0  0  0  0  0  0  0  0  0  0  0
   -8.3128    5.9254  -12.9506 C   0  0  0  0  0  0  0  0  0  0  0  0
   -7.9503    4.9605  -12.0416 C   0  0  0  0  0  0  0  0  0  0  0  0
   -7.5049    3.7792  -12.5787 C   0  0  0  0  0  0  0  0  0  0  0  0
   -7.3916    3.5698  -13.9019 N   0  0  0  0  0  0  0  0  0  0  0  0
   -5.1996    7.1654  -16.6929 O   0  0  0  0  0  0  0  0  0  0  0  0
   -5.3648    5.7347  -16.8521 S   0  0  0  0  0  0  0  0  0  0  0  0
   -4.6657    5.0218  -17.8958 O   0  0  0  0  0  0  0  0  0  0  0  0
   -4.6716    5.0919  -15.3791 C   0  0  0  0  0  0  0  0  0  0  0  0
   -3.8552    4.0271  -15.0485 C   0  0  0  0  0  0  0  0  0  0  0  0
   -3.6299    4.1479  -13.6666 C   0  0  0  0  0  0  0  0  0  0  0  0
   -4.2299    5.2207  -13.1473 N   0  0  0  0  0  0  0  0  0  0  0  0
   -4.8584    5.7667  -14.2062 N   0  0  0  0  0  0  0  0  0  0  0  0
   -5.4056    6.5825  -14.1405 H   0  0  0  0  0  0  0  0  0  0  0  0
 12 13  2  0  0  0
 13 14  2  0  0  0
 13 15  1  0  0  0
 15 16  2  0  0  0
 16 17  1  0  0  0
 17 18  2  0  0  0
 18 19  1  0  0  0
 13  1  1  0  0  0
  1  2  1  0  0  0
  2  3  1  0  0  0
  3  4  1  0  0  0
  4  5  1  0  0  0
  5  6  1  0  0  0
  6  7  2  0  0  0
  7  8  1  0  0  0
  8  9  2  0  0  0
  9 10  1  0  0  0
 10 11  2  0  0  0
 19 15  1  0  0  0
  5  1  1  0  0  0
 11  6  1  0  0  0
 19 20  1  0  0  0
M  END
> <minimizedAffinity>
-4.82106

> <minimizedRMSD>
0.91263

$$$$
P68455


 17 18  0  0  0  0  0  0  0  0999 V2000
   -5.2195    5.1688  -18.3759 C   0  0  0  0  0  0  0  0  0  0  0  0
   -5.5519    5.3418  -17.1119 N   0  0  0  0  0  0  0  0  0  0  0  0
   -6.8238    4.8518  -16.9915 C   0  0  0  0  0  0  0  0  0  0  0  0
   -7.6001    4.6615  -15.8443 C   0  0  0  0  0  0  0  0  0  0  0  0
   -8.8819    4.1289  -16.0004 C   0  0  0  0  0  0  0  0  0  0  0  0
   -9.3935    3.8286  -17.2660 C   0  0  0  0  0  0  0  0  0  0  0  0
   -8.6232    3.9983  -18.4179 C   0  0  0  0  0  0  0  0  0  0  0  0
   -7.3370    4.5008  -18.2309 C   0  0  0  0  0  0  0  0  0  0  0  0
   -6.3066    4.7321  -19.1034 N   0  0  0  0  0  0  0  0  0  0  0  0
   -6.3368    4.6083  -20.0796 H   0  0  0  0  0  0  0  0  0  0  0  0
   -3.8417    5.3141  -18.9687 C   0  0  0  0  0  0  0  0  0  0  0  0
   -3.8333    6.4296  -20.0241 C   0  0  0  0  0  0  0  0  0  0  0  0
   -1.3245    5.2211  -18.3358 C   0  0  0  0  0  0  0  0  0  0  0  0
   -2.7497    5.5652  -17.8789 C   0  0  0  0  0  0  0  0  0  0  0  0
   -2.7801    6.9690  -17.4171 N   0  0  0  0  0  0  0  0  0  0  0  0
   -2.5440    7.5874  -18.1932 H   0  0  0  0  0  0  0  0  0  0  0  0
   -2.1030    7.0942  -16.6646 H   0  0  0  0  0  0  0  0  0  0  0  0
 14 13  1  0  0  0
 14 15  1  0  0  0
 14 11  1  0  0  0
 11 12  1  0  0  0
 11  1  1  0  0  0
  1  2  2  0  0  0
  2  3  1  0  0  0
  3  4  2  0  0  0
  4  5  1  0  0  0
  5  6  2  0  0  0
  6  7  1  0  0  0
  7  8  2  0  0  0
  8  9  1  0  0  0
  9  1  1  0  0  0
  8  3  1  0  0  0
 15 16  1  0  0  0
 15 17  1  0  0  0
  9 10  1  0  0  0
M  END
> <minimizedAffinity>
-5.82155

> <minimizedRMSD>
1.33572

$$$$
P68457


 18 19  0  0  0  0  0  0  0  0999 V2000
   -5.1262    5.3161  -17.9431 C   0  0  0  0  0  0  0  0  0  0  0  0
   -5.5905    5.3941  -16.7180 N   0  0  0  0  0  0  0  0  0  0  0  0
   -6.8517    4.8739  -16.7564 C   0  0  0  0  0  0  0  0  0  0  0  0
   -7.7303    4.5982  -15.7048 C   0  0  0  0  0  0  0  0  0  0  0  0
   -8.9751    4.0501  -16.0188 C   0  0  0  0  0  0  0  0  0  0  0  0
   -9.3514    3.8149  -17.3436 C   0  0  0  0  0  0  0  0  0  0  0  0
   -8.4778    4.0742  -18.4022 C   0  0  0  0  0  0  0  0  0  0  0  0
   -7.2301    4.5934  -18.0602 C   0  0  0  0  0  0  0  0  0  0  0  0
   -6.1194    4.9053  -18.8030 N   0  0  0  0  0  0  0  0  0  0  0  0
   -6.0455    4.8456  -19.7829 H   0  0  0  0  0  0  0  0  0  0  0  0
   -3.8462    5.5676  -18.3296 N   0  0  0  0  0  0  0  0  0  0  0  0
   -3.4676    5.5708  -19.7310 C   0  0  0  0  0  0  0  0  0  0  0  0
   -3.0567    6.4246  -17.4237 C   0  0  0  0  0  0  0  0  0  0  0  0
   -2.2512    5.6329  -15.1072 C   0  0  0  0  0  0  0  0  0  0  0  0
   -1.9695    5.6582  -16.6120 C   0  0  0  0  0  0  0  0  0  0  0  0
   -0.6468    6.3188  -16.7559 N   0  0  0  0  0  0  0  0  0  0  0  0
   -0.6926    7.2600  -16.3656 H   0  0  0  0  0  0  0  0  0  0  0  0
   -0.3991    6.3721  -17.7439 H   0  0  0  0  0  0  0  0  0  0  0  0
 15 14  1  0  0  0
 15 16  1  0  0  0
 15 13  1  0  0  0
 13 11  1  0  0  0
 11 12  1  0  0  0
 11  1  1  0  0  0
  1  2  2  0  0  0
  2  3  1  0  0  0
  3  4  2  0  0  0
  4  5  1  0  0  0
  5  6  2  0  0  0
  6  7  1  0  0  0
  7  8  2  0  0  0
  8  9  1  0  0  0
  9  1  1  0  0  0
  8  3  1  0  0  0
 16 17  1  0  0  0
 16 18  1  0  0  0
  9 10  1  0  0  0
M  END
> <minimizedAffinity>
-5.21026

> <minimizedRMSD>
1.08106

$$$$
